# Generated by pormake.
# Topology zzz, (3,6)-cn, num edge types: 1
# Building blocks:
#     Node 0, Type 0, BuildingBlock: CUQRIR_clean_linker_1, # of connection points: 3
#     Node 1, Type 0, BuildingBlock: CUQRIR_clean_linker_1, # of connection points: 3
#     Node 2, Type 0, BuildingBlock: CUQRIR_clean_linker_1, # of connection points: 3
#     Node 3, Type 0, BuildingBlock: CUQRIR_clean_linker_1, # of connection points: 3
#     Node 4, Type 0, BuildingBlock: CUQRIR_clean_linker_1, # of connection points: 3
#     Node 5, Type 0, BuildingBlock: CUQRIR_clean_linker_1, # of connection points: 3
#     Node 6, Type 0, BuildingBlock: CUQRIR_clean_linker_1, # of connection points: 3
#     Node 7, Type 0, BuildingBlock: CUQRIR_clean_linker_1, # of connection points: 3
#     Node 8, Type 1, BuildingBlock: KUMBOL_clean_sbu_1, # of connection points: 6
#     Node 9, Type 1, BuildingBlock: KUMBOL_clean_sbu_1, # of connection points: 6
#     Node 10, Type 1, BuildingBlock: KUMBOL_clean_sbu_1, # of connection points: 6
#     Node 11, Type 1, BuildingBlock: KUMBOL_clean_sbu_1, # of connection points: 6
#     Edge 12, Type (0, 1), BuildingBlock: MIFKUJ_clean_linker_0, # of connection points: 2
#     Edge 13, Type (0, 1), BuildingBlock: MIFKUJ_clean_linker_0, # of connection points: 2
#     Edge 14, Type (0, 1), BuildingBlock: MIFKUJ_clean_linker_0, # of connection points: 2
#     Edge 15, Type (0, 1), BuildingBlock: MIFKUJ_clean_linker_0, # of connection points: 2
#     Edge 16, Type (0, 1), BuildingBlock: MIFKUJ_clean_linker_0, # of connection points: 2
#     Edge 17, Type (0, 1), BuildingBlock: MIFKUJ_clean_linker_0, # of connection points: 2
#     Edge 18, Type (0, 1), BuildingBlock: MIFKUJ_clean_linker_0, # of connection points: 2
#     Edge 19, Type (0, 1), BuildingBlock: MIFKUJ_clean_linker_0, # of connection points: 2
#     Edge 20, Type (0, 1), BuildingBlock: MIFKUJ_clean_linker_0, # of connection points: 2
#     Edge 21, Type (0, 1), BuildingBlock: MIFKUJ_clean_linker_0, # of connection points: 2
#     Edge 22, Type (0, 1), BuildingBlock: MIFKUJ_clean_linker_0, # of connection points: 2
#     Edge 23, Type (0, 1), BuildingBlock: MIFKUJ_clean_linker_0, # of connection points: 2
#     Edge 24, Type (0, 1), BuildingBlock: MIFKUJ_clean_linker_0, # of connection points: 2
#     Edge 25, Type (0, 1), BuildingBlock: MIFKUJ_clean_linker_0, # of connection points: 2
#     Edge 26, Type (0, 1), BuildingBlock: MIFKUJ_clean_linker_0, # of connection points: 2
#     Edge 27, Type (0, 1), BuildingBlock: MIFKUJ_clean_linker_0, # of connection points: 2
#     Edge 28, Type (0, 1), BuildingBlock: MIFKUJ_clean_linker_0, # of connection points: 2
#     Edge 29, Type (0, 1), BuildingBlock: MIFKUJ_clean_linker_0, # of connection points: 2
#     Edge 30, Type (0, 1), BuildingBlock: MIFKUJ_clean_linker_0, # of connection points: 2
#     Edge 31, Type (0, 1), BuildingBlock: MIFKUJ_clean_linker_0, # of connection points: 2
#     Edge 32, Type (0, 1), BuildingBlock: MIFKUJ_clean_linker_0, # of connection points: 2
#     Edge 33, Type (0, 1), BuildingBlock: MIFKUJ_clean_linker_0, # of connection points: 2
#     Edge 34, Type (0, 1), BuildingBlock: MIFKUJ_clean_linker_0, # of connection points: 2
#     Edge 35, Type (0, 1), BuildingBlock: MIFKUJ_clean_linker_0, # of connection points: 2
# Relax obj value: 0.170
# Max RMSD: 0.097
# Mean RMSD: 0.085
data_MOF--net-zzz--node1-KUMBOL_clean_sbu_1--node2-CUQRIR_clean_linker_1--edge1-MIFKUJ_clean_linker_0
_symmetry_space_group_name_H-M    P1
_symmetry_Int_Tables_number       1
_symmetry_cell_setting            triclinic
loop_
_symmetry_equiv_pos_as_xyz
'x, y, z'
_cell_length_a     62.011342
_cell_length_b     62.037693
_cell_length_c     18.760536
_cell_angle_alpha  89.967987
_cell_angle_beta   89.933146
_cell_angle_gamma 90.216177
loop_
_atom_site_label
_atom_site_type_symbol
_atom_site_fract_x
_atom_site_fract_y
_atom_site_fract_z
_atom_type_partial_charge
C0 C 0.75069 0.53652 0.2285 0.0
N1 N 0.76959 0.54761 0.23586 0.0
N2 N 0.73606 0.54802 0.18989 0.0
C3 C 0.74671 0.51438 0.25775 0.0
C4 C 0.74685 0.56645 0.17431 0.0
N5 N 0.76733 0.56606 0.2001 0.0
C6 C 0.73739 0.58472 0.13153 0.0
H7 H 0.75483 0.50245 0.22292 0.0
H8 H 0.7292 0.51066 0.25959 0.0
H9 H 0.75375 0.51295 0.3119 0.0
H10 H 0.72206 0.59007 0.15603 0.0
H11 H 0.7337 0.57904 0.07676 0.0
H12 H 0.74831 0.5989 0.12926 0.0
C13 C 0.99494 0.75436 0.27468 0.0
N14 N 1.00309 0.77485 0.27304 0.0
N15 N 1.00314 0.7422 0.22012 0.0
C16 C 0.97914 0.74629 0.32892 0.0
C17 C 0.01629 0.75618 0.18549 0.0
N18 N 0.0164 0.77565 0.21775 0.0
C19 C 0.02765 0.75126 0.11631 0.0
H20 H 0.98211 0.75408 0.38125 0.0
H21 H 0.98011 0.7285 0.3342 0.0
H22 H 0.96262 0.75058 0.31139 0.0
H23 H 0.01788 0.7401 0.08316 0.0
H24 H 0.04323 0.74332 0.12831 0.0
H25 H 0.03104 0.76607 0.0852 0.0
C26 C 0.78244 1.01067 0.24739 0.0
N27 N 0.76142 1.00393 0.24635 0.0
N28 N 0.79371 1.00245 0.19075 0.0
C29 C 0.79174 0.02575 0.30167 0.0
C30 C 0.77868 0.99071 0.1554 0.0
N31 N 0.75946 0.99148 0.18916 0.0
C32 C 0.78252 0.97934 0.08558 0.0
H33 H 0.78903 0.04257 0.28371 0.0
H34 H 0.80936 0.02319 0.30726 0.0
H35 H 0.78368 0.02359 0.354 0.0
H36 H 0.78985 0.96339 0.0964 0.0
H37 H 0.79384 0.98874 0.05171 0.0
H38 H 0.76731 0.97667 0.05585 0.0
C39 C 0.52916 0.79438 0.2647 0.0
N40 N 0.53589 0.77346 0.26049 0.0
N41 N 0.53382 0.80535 0.20325 0.0
C42 C 0.5173 0.80377 0.32683 0.0
C43 C 0.54341 0.79029 0.16209 0.0
N44 N 0.54473 0.77119 0.19641 0.0
C45 C 0.55014 0.79387 0.08588 0.0
H46 H 0.49985 0.80019 0.32083 0.0
H47 H 0.5195 0.82152 0.32875 0.0
H48 H 0.52292 0.79636 0.37734 0.0
H49 H 0.55649 0.81048 0.07866 0.0
H50 H 0.53587 0.79188 0.05084 0.0
H51 H 0.5626 0.78207 0.06947 0.0
C52 C 0.28241 0.5027 0.05752 0.0
N53 N 0.26099 0.49866 0.06776 0.0
N54 N 0.29398 0.49797 0.11743 0.0
C55 C 0.29186 0.51188 0.99055 0.0
C56 C 0.27876 0.49109 0.16406 0.0
N57 N 0.25893 0.49145 0.1341 0.0
C58 C 0.28291 0.48603 0.24144 0.0
H59 H 0.28301 0.50573 0.94332 0.0
H60 H 0.30924 0.50788 0.98621 0.0
H61 H 0.29016 0.52967 0.99176 0.0
H62 H 0.27314 0.49687 0.27556 0.0
H63 H 0.30014 0.48774 0.25605 0.0
H64 H 0.27772 0.46924 0.25279 0.0
C65 C 0.02343 0.2821 0.12891 0.0
N66 N 0.03439 0.26327 0.11902 0.0
N67 N 0.03491 0.29611 0.17064 0.0
C68 C 1.00119 0.28635 0.1012 0.0
C69 C 0.05314 0.28501 0.18568 0.0
N70 N 0.05279 0.26525 0.15492 0.0
C71 C 0.07094 0.29334 0.23309 0.0
H72 H 0.99944 0.27995 0.04632 0.0
H73 H 0.99756 0.30385 0.10167 0.0
H74 H 0.98934 0.27785 0.13564 0.0
H75 H 0.06411 0.29816 0.28539 0.0
H76 H 0.07835 0.30784 0.20866 0.0
H77 H 0.08396 0.28143 0.24133 0.0
C78 C 0.25694 0.03366 0.10361 0.0
N79 N 0.27878 0.03626 0.10723 0.0
N80 N 0.24765 0.03605 0.16923 0.0
C81 C 0.24473 0.02891 0.03654 0.0
C82 C 0.26465 0.04012 0.21255 0.0
N83 N 0.28333 0.04033 0.17521 0.0
C84 C 0.26307 0.04356 0.2918 0.0
H85 H 0.25247 0.03705 0.99039 0.0
H86 H 0.22768 0.03409 0.04136 0.0
H87 H 0.24502 1.01128 0.02679 0.0
H88 H 0.24809 0.03648 0.31419 0.0
H89 H 0.263 0.06113 0.30271 0.0
H90 H 0.27721 0.03646 0.31926 0.0
C91 C 0.50931 0.26768 0.10562 0.0
N92 N 0.50239 0.28826 0.0951 0.0
N93 N 0.50029 0.259 0.16566 0.0
C94 C 0.5244 0.25596 0.05684 0.0
C95 C 0.48788 0.27523 0.19137 0.0
N96 N 0.48915 0.29282 0.14876 0.0
C97 C 0.4758 0.27441 0.26094 0.0
H98 H 0.52134 0.23833 0.05884 0.0
H99 H 0.5412 0.25902 0.07452 0.0
H100 H 0.52273 0.26189 1.0013 0.0
H101 H 0.48363 0.26319 0.29894 0.0
H102 H 0.45916 0.26855 0.25075 0.0
H103 H 0.47478 0.29064 0.2855 0.0
C104 C 0.05934 0.02016 0.8779 0.0
C105 C 0.04555 0.9915 0.95297 0.0
C106 C 0.04664 1.00205 0.88639 0.0
C107 C 0.05701 0.99992 0.01127 0.0
C108 C 0.07163 0.02817 0.9353 0.0
C109 C 0.07009 0.01821 1.0024 0.0
N110 N 0.06074 0.02914 0.8122 0.0
C111 C 0.07481 0.04566 0.79926 0.0
C112 C 0.08565 0.04547 0.92291 0.0
C113 C 0.08727 0.05426 0.85454 0.0
Gd114 Gd 0.99705 0.0354 0.58714 0.0
Gd115 Gd 0.03985 1.01369 0.7212 0.0
N116 N 0.03629 0.99408 0.82846 0.0
C117 C 0.0335 0.97245 0.95838 0.0
C118 C 0.02519 0.97504 0.83289 0.0
C119 C 0.02345 0.96409 0.89786 0.0
H120 H 0.0176 0.9681 0.78661 0.0
H121 H 0.01449 0.94911 0.90106 0.0
H122 H 1.00451 1.00838 0.43479 0.0
H123 H 0.07655 0.05208 0.74596 0.0
H124 H 0.98272 0.98846 0.3461 0.0
H125 H 0.03228 0.96383 1.00849 0.0
H126 H 0.05629 0.99212 0.06291 0.0
H127 H 0.96201 0.06491 0.68109 0.0
H128 H 0.09563 0.05176 0.96537 0.0
H129 H 0.09832 0.06745 0.84423 0.0
H130 H 0.90971 0.99798 0.42581 0.0
H131 H 0.07929 0.02423 0.04729 0.0
H132 H 0.89799 0.04594 0.62251 0.0
H133 H 0.9226 0.06792 0.69689 0.0
N134 N 0.95975 0.04087 0.60064 0.0
C135 C 0.94653 0.02931 0.55765 0.0
C136 C 0.95144 0.05517 0.64862 0.0
C137 C 0.91528 0.04445 0.61575 0.0
C138 C 0.92912 0.05693 0.65769 0.0
C139 C 0.92392 0.03071 0.564 0.0
H140 H 0.89333 0.01959 0.52157 0.0
N141 N 0.97746 0.01716 0.49809 0.0
C142 C 0.9557 0.01707 0.50437 0.0
C143 C 0.95252 0.99524 0.39825 0.0
C144 C 0.9426 1.00598 0.45505 0.0
C145 C 0.98718 1.00761 0.44091 0.0
C146 C 0.97491 0.99632 0.39061 0.0
O147 O 0.0364 0.0502 0.71811 0.0
O148 O 1.00067 0.05483 0.69074 0.0
O149 O 0.01564 0.06482 0.57041 0.0
O150 O 0.98882 0.05712 0.50078 0.0
O151 O 1.00662 1.01387 0.775 0.0
O152 O 0.98109 0.02375 0.68937 0.0
O153 O 1.00789 1.00102 0.56791 0.0
O154 O 0.01537 0.98893 0.68041 0.0
O155 O 0.07202 1.00026 0.72788 0.0
O156 O 0.05236 0.99399 0.63488 0.0
O157 O 0.02948 0.02333 0.54814 0.0
O158 O 0.04846 0.03841 0.63678 0.0
C159 C 0.01843 0.06134 0.72323 0.0
C160 C 0.98645 0.01723 0.75416 0.0
C161 C 0.02135 0.06932 0.44745 0.0
C162 C 0.05477 0.08269 0.39405 0.0
C163 C 0.03404 0.05462 0.33491 0.0
C164 C 0.01865 0.05539 0.38899 0.0
C165 C 0.05203 0.06811 0.33732 0.0
C166 C 0.0395 0.0829 0.44966 0.0
C167 C 1.00648 0.06836 0.50903 0.0
C168 C 0.92006 1.00655 0.46274 0.0
C169 C 0.91073 0.01887 0.51724 0.0
H170 H 0.94304 0.98656 0.35911 0.0
C171 C 1.00906 0.98524 0.61444 0.0
C172 C 0.04733 0.03275 0.56951 0.0
C173 C 0.07815 0.96816 0.66396 0.0
C174 C 0.0807 0.93258 0.71682 0.0
C175 C 0.09629 0.93946 0.60023 0.0
C176 C 0.08917 0.96077 0.6035 0.0
C177 C 0.09214 0.92537 0.65677 0.0
C178 C 0.0739 0.95405 0.72029 0.0
C179 C 0.07059 0.9904 0.66665 0.0
H180 H 0.03187 0.04374 0.29038 0.0
H181 H 1.00475 0.04492 0.38507 0.0
H182 H 0.06324 0.06778 0.29306 0.0
H183 H 0.04165 0.0937 0.49453 0.0
H184 H 0.10489 0.93383 0.55364 0.0
H185 H 0.09229 0.97151 0.55903 0.0
H186 H 0.09746 0.90879 0.65305 0.0
H187 H 0.06526 0.95976 0.76681 0.0
C188 C 0.4853 0.96913 0.56875 0.0
C189 C 0.45049 0.97885 0.52034 0.0
C190 C 0.47102 0.98472 0.54634 0.0
C191 C 0.44432 0.95703 0.52009 0.0
C192 C 0.47962 0.94713 0.56563 0.0
C193 C 0.45886 0.94119 0.54272 0.0
N194 N 0.5053 0.97543 0.58909 0.0
C195 C 0.52099 0.96053 0.6019 0.0
C196 C 0.49522 0.93177 0.58322 0.0
C197 C 0.5161 0.9385 0.60049 0.0
Gd198 Gd 0.52967 0.05178 0.75168 0.0
Gd199 Gd 0.51213 1.01266 0.59399 0.0
N200 N 0.47772 1.00554 0.54602 0.0
C201 C 0.43705 0.995 0.49343 0.0
C202 C 0.46495 0.02128 0.51772 0.0
C203 C 0.44442 0.01629 0.49146 0.0
H204 H 0.47041 0.03781 0.51604 0.0
H205 H 0.43432 0.02886 0.46963 0.0
H206 H 0.57316 0.07966 0.70361 0.0
H207 H 0.53719 0.96574 0.61476 0.0
H208 H 0.58211 0.11598 0.65673 0.0
H209 H 0.42119 0.99116 0.4727 0.0
H210 H 0.42856 0.9522 0.50083 0.0
H211 H 0.48394 0.0593 0.85023 0.0
H212 H 0.49151 0.91469 0.58157 0.0
H213 H 0.52844 0.92675 0.61242 0.0
H214 H 0.51451 0.15359 0.66209 0.0
H215 H 0.45412 0.92438 0.54048 0.0
H216 H 0.4568 0.11978 0.78931 0.0
H217 H 0.45426 0.08549 0.85658 0.0
N218 N 0.50135 0.07668 0.77072 0.0
C219 C 0.50406 0.09634 0.7399 0.0
C220 C 0.48451 0.07341 0.81666 0.0
C221 C 0.46935 0.10782 0.78383 0.0
C222 C 0.4679 0.08852 0.82189 0.0
C223 C 0.48794 0.11227 0.74419 0.0
H224 H 0.47914 0.14487 0.71461 0.0
N225 N 0.5398 0.08645 0.71497 0.0
C226 C 0.52404 0.10147 0.71176 0.0
C227 C 0.54939 0.1274 0.66392 0.0
C228 C 0.52832 0.12233 0.68528 0.0
C229 C 0.56061 0.09159 0.69816 0.0
C230 C 0.56569 0.11208 0.67166 0.0
O231 O 0.51649 0.99358 0.69687 0.0
O232 O 0.52458 0.01708 0.79039 0.0
O233 O 0.55683 0.04344 0.8193 0.0
O234 O 0.53572 0.0695 0.84916 0.0
O235 O 0.4844 0.02996 0.64956 0.0
O236 O 0.49731 0.03437 0.76359 0.0
O237 O 0.53343 0.06081 0.63474 0.0
O238 O 0.5025 0.04794 0.58811 0.0
O239 O 0.5183 1.00053 0.48774 0.0
O240 O 0.53627 0.02805 0.52619 0.0
O241 O 0.55659 0.0419 0.67711 0.0
O242 O 0.54513 1.00821 0.64592 0.0
C243 C 0.52056 0.99752 0.76485 0.0
C244 C 0.48117 0.03131 0.71888 0.0
C245 C 0.5479 0.04661 0.94147 0.0
C246 C 0.55942 0.02054 0.03089 0.0
C247 C 0.52785 0.04256 0.05231 0.0
C248 C 0.53059 0.05247 0.98602 0.0
C249 C 0.5423 0.02679 0.07506 0.0
C250 C 0.56223 0.03064 0.96452 0.0
C251 C 0.55071 0.05637 0.87009 0.0
C252 C 0.51168 0.13759 0.68344 0.0
C253 C 0.49151 0.13259 0.71305 0.0
H254 H 0.55334 0.14325 0.64325 0.0
C255 C 0.5168 0.06348 0.59253 0.0
C256 C 0.56049 0.02296 0.64867 0.0
C257 C 0.52968 0.02594 0.40324 0.0
C258 C 0.50616 0.0433 0.31714 0.0
C259 C 0.5428 0.03371 0.28429 0.0
C260 C 0.54627 0.02539 0.35255 0.0
C261 C 0.52274 0.04241 0.26625 0.0
C262 C 0.50992 0.03531 0.38589 0.0
C263 C 0.53244 0.01542 0.47241 0.0
H264 H 0.51443 0.04709 0.08593 0.0
H265 H 0.51908 0.06458 0.9697 0.0
H266 H 0.54006 0.01935 0.12669 0.0
H267 H 0.57569 0.02608 0.93081 0.0
H268 H 0.55559 0.03321 0.24509 0.0
H269 H 0.56169 0.01822 0.36535 0.0
H270 H 0.52019 0.04848 0.21291 0.0
H271 H 0.49712 0.03536 0.42499 0.0
C272 C 0.4787 0.49709 0.80279 0.0
C273 C 0.49622 0.50083 0.91761 0.0
C274 C 0.49396 0.50709 0.84568 0.0
C275 C 0.48384 0.4836 0.94431 0.0
C276 C 0.46541 0.48059 0.83049 0.0
C277 C 0.46852 0.47345 0.90077 0.0
N278 N 0.47605 0.50432 0.73498 0.0
C279 C 0.45913 0.49732 0.69444 0.0
C280 C 0.44893 0.47227 0.78743 0.0
C281 C 0.44555 0.48092 0.71955 0.0
Gd282 Gd 0.54019 0.51212 0.55207 0.0
Gd283 Gd 0.49946 0.53189 0.69776 0.0
N284 N 0.50525 0.52409 0.81889 0.0
C285 C 0.51007 0.51276 0.96146 0.0
C286 C 0.51753 0.53667 0.86275 0.0
C287 C 0.52049 0.53097 0.93414 0.0
H288 H 0.52462 0.55145 0.84325 0.0
H289 H 0.53044 0.5409 0.96834 0.0
H290 H 0.50965 0.51893 0.40838 0.0
H291 H 0.45641 0.50414 0.64226 0.0
H292 H 0.51134 0.538 0.29338 0.0
H293 H 0.51207 0.5086 0.01716 0.0
H294 H 0.48547 0.47845 0.99925 0.0
H295 H 0.58966 0.51939 0.62804 0.0
H296 H 0.43837 0.4596 0.8068 0.0
H297 H 0.43249 0.475 0.68664 0.0
H298 H 0.5785 0.57648 0.30203 0.0
H299 H 0.45869 0.46058 0.92271 0.0
H300 H 0.62409 0.56559 0.50384 0.0
H301 H 0.62173 0.54175 0.60909 0.0
N302 N 0.57214 0.53262 0.54067 0.0
C303 C 0.57352 0.54493 0.48062 0.0
C304 C 0.58954 0.53081 0.58494 0.0
C305 C 0.60946 0.55643 0.51353 0.0
C306 C 0.60815 0.54307 0.57315 0.0
C307 C 0.59228 0.55706 0.46538 0.0
H308 H 0.60794 0.57824 0.38914 0.0
N309 N 0.53872 0.53269 0.44769 0.0
C310 C 0.55654 0.54464 0.43224 0.0
C311 C 0.54162 0.55352 0.31693 0.0
C312 C 0.55825 0.55575 0.36684 0.0
C313 C 0.52283 0.52986 0.39823 0.0
C314 C 0.52391 0.54041 0.33255 0.0
O315 O 0.50252 0.49581 0.67307 0.0
O316 O 0.53819 0.49089 0.65045 0.0
O317 O 0.53408 0.48273 0.49317 0.0
O318 O 0.56646 0.49557 0.49829 0.0
O319 O 0.53475 0.53967 0.72422 0.0
O320 O 0.55404 0.51333 0.665 0.0
O321 O 0.52524 0.54563 0.54057 0.0
O322 O 0.52283 0.55718 0.65567 0.0
O323 O 0.48067 0.55111 0.77148 0.0
O324 O 0.47459 0.55337 0.65842 0.0
O325 O 0.50499 0.50293 0.53235 0.0
O326 O 0.48667 0.53072 0.58504 0.0
C327 C 0.52017 0.48431 0.6804 0.0
C328 C 0.55204 0.5274 0.71761 0.0
C329 C 0.55383 0.48378 0.38555 0.0
C330 C 0.53503 0.47936 0.27208 0.0
C331 C 0.5706 0.49576 0.27492 0.0
C332 C 0.57126 0.49332 0.34902 0.0
C333 C 0.55264 0.48868 0.23644 0.0
C334 C 0.53584 0.47682 0.34633 0.0
C335 C 0.55324 0.48286 0.46447 0.0
C336 C 0.57679 0.568 0.35217 0.0
C337 C 0.59363 0.56888 0.40166 0.0
H338 H 0.54258 0.56129 0.26536 0.0
C339 C 0.52534 0.5614 0.58744 0.0
C340 C 0.48788 0.51539 0.53707 0.0
C341 C 0.47456 0.58536 0.72332 0.0
C342 C 0.49782 0.61591 0.75175 0.0
C343 C 0.46222 0.62164 0.70019 0.0
C344 C 0.45856 0.5994 0.6991 0.0
C345 C 0.48159 0.62991 0.72705 0.0
C346 C 0.49434 0.59364 0.74693 0.0
C347 C 0.47144 0.56198 0.72067 0.0
H348 H 0.58405 0.50314 0.24721 0.0
H349 H 0.58526 0.49918 0.37767 0.0
H350 H 0.55251 0.49032 0.17903 0.0
H351 H 0.52238 0.46923 0.37361 0.0
H352 H 0.44982 0.63252 0.68169 0.0
H353 H 0.44338 0.59319 0.67911 0.0
H354 H 0.48342 0.64722 0.7308 0.0
H355 H 0.50694 0.58259 0.76272 0.0
C356 C 1.0047 0.44793 0.74036 0.0
C357 C 0.0381 0.43707 0.79582 0.0
C358 C 0.02277 0.45306 0.77957 0.0
C359 C 0.03589 0.4164 0.76604 0.0
C360 C 1.00138 0.42675 0.71549 0.0
C361 C 0.01755 0.41125 0.72569 0.0
N362 N 0.98925 0.46313 0.73358 0.0
C363 C 0.9692 0.45779 0.70919 0.0
C364 C 0.9814 0.42152 0.68521 0.0
C365 C 0.96504 0.43697 0.68381 0.0
Gd366 Gd 0.02248 0.53948 0.63241 0.0
Gd367 Gd 0.99782 0.49817 0.77166 0.0
N368 N 0.02374 0.47287 0.80985 0.0
C369 C 0.05421 0.4419 0.84553 0.0
C370 C 0.0377 0.47662 0.86475 0.0
C371 C 0.0536 0.46157 0.88167 0.0
H372 H 0.03667 0.49135 0.89526 0.0
H373 H 0.06507 0.46509 0.92341 0.0
H374 H 0.06296 0.51386 0.54955 0.0
H375 H 0.95667 0.46985 0.70735 0.0
H376 H 0.07684 0.50892 0.42743 0.0
H377 H 0.06627 0.43007 0.85963 0.0
H378 H 0.04767 0.40398 0.77699 0.0
H379 H 0.98781 0.58011 0.62359 0.0
H380 H 0.97817 0.40541 0.66558 0.0
H381 H 0.94932 0.43291 0.66258 0.0
H382 H 0.03131 0.55379 0.2835 0.0
H383 H 0.01552 0.39497 0.70586 0.0
H384 H 0.97982 0.59819 0.40475 0.0
H385 H 0.97063 0.60308 0.53218 0.0
N386 N 1.00583 0.56198 0.54835 0.0
C387 C 1.01169 0.55962 0.47923 0.0
C388 C 0.99178 0.57779 0.56806 0.0
C389 C 0.98725 0.58798 0.44458 0.0
C390 C 0.98206 0.59083 0.51646 0.0
C391 C 1.00249 0.57245 0.42524 0.0
H392 H 1.00237 0.57947 0.31199 0.0
N393 N 0.03728 0.53441 0.51783 0.0
C394 C 0.02795 0.54529 0.46339 0.0
C395 C 0.05304 0.52962 0.37973 0.0
C396 C 0.03551 0.54321 0.39279 0.0
C397 C 0.05498 0.52186 0.50578 0.0
C398 C 0.06296 0.51907 0.43665 0.0
O399 O 0.03102 0.51366 0.78927 0.0
O400 O 0.04478 0.51391 0.67752 0.0
O401 O 0.04397 0.56636 0.61108 0.0
O402 O 0.03915 0.55571 0.71957 0.0
O403 O 1.00815 0.53121 0.80997 0.0
O404 O 0.9982 0.55146 0.71502 0.0
O405 O 0.98659 0.53451 0.61139 0.0
O406 O 0.97193 0.51048 0.69466 0.0
O407 O 0.96879 0.50875 0.82545 0.0
O408 O 0.9875 0.48288 0.87037 0.0
O409 O 0.02747 0.50385 0.60663 0.0
O410 O 0.99707 0.48844 0.65434 0.0
C411 C 0.0478 0.51205 0.74647 0.0
C412 C 1.00056 0.54937 0.78442 0.0
C413 C 0.07392 0.56685 0.68811 0.0
C414 C 0.10908 0.55328 0.65133 0.0
C415 C 0.10582 0.5762 0.75604 0.0
C416 C 0.08354 0.57761 0.74552 0.0
C417 C 0.11859 0.56425 0.709 0.0
C418 C 0.08667 0.55443 0.6425 0.0
C419 C 0.05051 0.56772 0.677 0.0
C420 C 0.02581 0.55525 0.33813 0.0
C421 C 1.00933 0.56987 0.35434 0.0
H422 H 0.05937 0.52758 0.3263 0.0
C423 C 0.97021 0.5234 0.63842 0.0
C424 C 0.01289 0.48834 0.60753 0.0
C425 C 0.97325 0.50889 0.9499 0.0
C426 C 0.96115 0.53995 0.019 0.0
C427 C 0.9913 0.51845 0.06054 0.0
C428 C 0.98944 0.5051 1.00083 0.0
C429 C 0.97739 0.53592 0.06943 0.0
C430 C 0.95881 0.52587 0.96081 0.0
C431 C 0.97247 0.49702 0.88167 0.0
H432 H 0.11325 0.58458 0.8003 0.0
H433 H 0.07386 0.587 0.78211 0.0
H434 H 0.13587 0.56398 0.71707 0.0
H435 H 0.07903 0.54551 0.6001 0.0
H436 H 1.0039 0.51555 0.09921 0.0
H437 H 1.00093 0.49217 0.9939 0.0
H438 H 0.97963 0.54648 0.11478 0.0
H439 H 0.94604 0.52845 0.92237 0.0
H440 H 0.22812 1.00164 0.22936 0.0
H441 H 0.1927 1.00077 0.28844 0.0
H442 H 0.18176 0.06658 0.22426 0.0
H443 H 0.21724 0.0672 0.16502 0.0
H444 H 0.17946 0.02313 0.39947 0.0
H445 H 0.12762 0.07698 0.21971 0.0
H446 H 0.12432 0.08688 0.09286 0.0
H447 H 0.14963 0.02528 0.03169 0.0
H448 H 0.15332 0.01511 0.15828 0.0
H449 H 0.08596 0.05324 0.59517 0.0
H450 H 0.11821 0.05435 0.51995 0.0
H451 H 0.08572 0.01578 0.36167 0.0
H452 H 0.05317 0.01523 0.43592 0.0
H453 H 0.10923 0.04418 0.29489 0.0
H454 H 0.12497 0.99455 0.4877 0.0
H455 H 0.12899 0.98367 0.6137 0.0
H456 H 0.17511 0.03439 0.64668 0.0
H457 H 0.17142 0.0456 0.52109 0.0
C458 C 0.21781 0.01565 0.22613 0.0
C459 C 0.22523 0.03431 0.1912 0.0
C460 C 0.19763 0.01528 0.26063 0.0
C461 C 0.1842 0.03357 0.26108 0.0
C462 C 0.19141 0.05207 0.22418 0.0
C463 C 0.21168 0.05244 0.18991 0.0
C464 C 0.16348 0.0336 0.30379 0.0
C465 C 0.16415 0.02778 0.3763 0.0
C466 C 0.14324 0.03958 0.27461 0.0
C467 C 0.14094 0.0454 0.19841 0.0
C468 C 0.13245 0.06555 0.17917 0.0
C469 C 0.13053 0.07121 0.10734 0.0
C470 C 0.13674 0.05671 0.05424 0.0
C471 C 0.1449 0.03652 0.07288 0.0
C472 C 0.14702 0.03084 0.14467 0.0
C473 C 0.08563 0.04498 0.54434 0.0
C474 C 0.06691 0.03391 0.52235 0.0
C475 C 0.10423 0.04553 0.50123 0.0
C476 C 0.10489 0.03469 0.43522 0.0
C477 C 0.08595 0.02417 0.41228 0.0
C478 C 0.06727 0.02378 0.45514 0.0
C479 C 0.12529 0.03401 0.3909 0.0
C480 C 0.12456 0.03965 0.31816 0.0
C481 C 0.14553 0.02786 0.41984 0.0
C482 C 0.1478 0.02101 0.49518 0.0
C483 C 0.13589 1.00344 0.52193 0.0
C484 C 0.1381 0.99721 0.59321 0.0
C485 C 0.15217 1.00839 0.63815 0.0
C486 C 0.16418 0.02576 0.61184 0.0
C487 C 0.16209 0.03202 0.5406 0.0
H488 H 0.15382 1.00355 0.6933 0.0
H489 H 0.13522 0.06113 0.99865 0.0
H490 H 0.46937 0.2292 0.19086 0.0
H491 H 0.47283 0.19532 0.25723 0.0
H492 H 0.54088 0.20751 0.28388 0.0
H493 H 0.53735 0.24111 0.21484 0.0
H494 H 0.53598 0.16656 0.26616 0.0
H495 H 0.50072 0.21676 0.41984 0.0
H496 H 0.47297 0.24315 0.45439 0.0
H497 H 0.42376 0.19479 0.43111 0.0
H498 H 0.45119 0.16819 0.39523 0.0
H499 H 0.55001 0.08931 0.54545 0.0
H500 H 0.54816 0.12171 0.4718 0.0
H501 H 0.47946 0.11274 0.44958 0.0
H502 H 0.48121 0.08108 0.52761 0.0
H503 H 0.48536 0.15255 0.46568 0.0
H504 H 0.52193 0.10258 0.30645 0.0
H505 H 0.55057 0.07795 0.26561 0.0
H506 H 0.59837 0.1267 0.30297 0.0
H507 H 0.57011 0.1518 0.34322 0.0
C508 C 0.4851 0.22444 0.2101 0.0
C509 C 0.50309 0.23779 0.19745 0.0
C510 C 0.48708 0.20514 0.2489 0.0
C511 C 0.50705 0.19881 0.27791 0.0
C512 C 0.52522 0.21183 0.26288 0.0
C513 C 0.52326 0.23105 0.22312 0.0
C514 C 0.50885 0.17893 0.32448 0.0
C515 C 0.52503 0.16368 0.3103 0.0
C516 C 0.49449 0.17466 0.38193 0.0
C517 C 0.47799 0.19054 0.4043 0.0
C518 C 0.48397 0.21179 0.42171 0.0
C519 C 0.4683 0.22678 0.44153 0.0
C520 C 0.44661 0.22066 0.44483 0.0
C521 C 0.44056 0.19951 0.42847 0.0
C522 C 0.45616 0.18447 0.40842 0.0
C523 C 0.53445 0.09434 0.5255 0.0
C524 C 0.51573 0.0826 0.54341 0.0
C525 C 0.53343 0.1128 0.48193 0.0
C526 C 0.5137 0.11985 0.45299 0.0
C527 C 0.49498 0.10795 0.47058 0.0
C528 C 0.49599 0.08964 0.51501 0.0
C529 C 0.51233 0.13989 0.40679 0.0
C530 C 0.49627 0.15529 0.42133 0.0
C531 C 0.52693 0.14437 0.35003 0.0
C532 C 0.54393 0.12899 0.32841 0.0
C533 C 0.53857 0.10799 0.30655 0.0
C534 C 0.55471 0.09396 0.28337 0.0
C535 C 0.57623 0.10068 0.2821 0.0
C536 C 0.58169 0.12151 0.3039 0.0
C537 C 0.56563 0.13567 0.32672 0.0
H538 H 0.58867 0.08975 0.26416 0.0
H539 H 0.4345 0.23229 0.46018 0.0
H540 H 0.32647 0.46937 0.1064 0.0
H541 H 0.36191 0.47185 0.1646 0.0
H542 H 0.34682 0.53626 0.23472 0.0
H543 H 0.31166 0.53376 0.1747 0.0
H544 H 0.38846 0.53462 0.20663 0.0
H545 H 0.3399 0.48993 0.34172 0.0
H546 H 0.31509 0.45937 0.36194 0.0
H547 H 0.36594 0.41485 0.31403 0.0
H548 H 0.39098 0.44517 0.29243 0.0
H549 H 0.45416 0.54303 0.51474 0.0
H550 H 0.42405 0.5395 0.432 0.0
H551 H 0.44877 0.47847 0.36025 0.0
H552 H 0.47958 0.48222 0.44196 0.0
H553 H 0.40451 0.47692 0.38176 0.0
H554 H 0.45362 0.52192 0.25335 0.0
H555 H 0.47837 0.55271 0.23634 0.0
H556 H 0.42654 0.59677 0.27625 0.0
H557 H 0.40146 0.56625 0.29384 0.0
C558 C 0.33116 0.48432 0.13188 0.0
C559 C 0.31653 0.50156 0.13444 0.0
C560 C 0.35128 0.48565 0.16638 0.0
C561 C 0.35715 0.50411 0.20587 0.0
C562 C 0.34294 0.5218 0.205 0.0
C563 C 0.32287 0.52049 0.17008 0.0
C564 C 0.3773 0.50459 0.25127 0.0
C565 C 0.39178 0.52205 0.24523 0.0
C566 C 0.38223 0.48806 0.30123 0.0
C567 C 0.36724 0.46982 0.31462 0.0
C568 C 0.34575 0.47362 0.33499 0.0
C569 C 0.33165 0.45635 0.34675 0.0
C570 C 0.33891 0.43519 0.33906 0.0
C571 C 0.36032 0.43125 0.3198 0.0
C572 C 0.37448 0.44848 0.30779 0.0
C573 C 0.45337 0.52882 0.48133 0.0
C574 C 0.46946 0.51287 0.48561 0.0
C575 C 0.43606 0.52687 0.43354 0.0
C576 C 0.43409 0.50883 0.38865 0.0
C577 C 0.44992 0.49265 0.39353 0.0
C578 C 0.46753 0.49478 0.44061 0.0
C579 C 0.41545 0.50701 0.33741 0.0
C580 C 0.40125 0.48935 0.34259 0.0
C581 C 0.41074 0.52337 0.28693 0.0
C582 C 0.42569 0.54179 0.27543 0.0
C583 C 0.44752 0.53817 0.2589 0.0
C584 C 0.46161 0.55557 0.24912 0.0
C585 C 0.45406 0.57667 0.25556 0.0
C586 C 0.43237 0.58042 0.27137 0.0
C587 C 0.41819 0.56307 0.28106 0.0
H588 H 0.46501 0.59012 0.24812 0.0
H589 H 0.32797 0.42183 0.3482 0.0
H590 H 1.00106 0.30554 0.25772 0.0
H591 H 0.99563 0.33917 0.32557 0.0
H592 H 0.0514 0.36706 0.22339 0.0
H593 H 0.05619 0.33392 0.15386 0.0
H594 H 0.05245 0.37056 0.37454 0.0
H595 H 1.00354 0.38534 0.18101 0.0
H596 H 0.97267 0.37771 0.10216 0.0
H597 H 0.93019 0.37628 0.28306 0.0
H598 H 0.96089 0.38361 0.36315 0.0
H599 H 0.04767 0.47552 0.52525 0.0
H600 H 0.05002 0.44485 0.44392 0.0
H601 H 0.98425 0.42757 0.49389 0.0
H602 H 0.98123 0.4597 0.56785 0.0
H603 H 0.98823 0.41783 0.36868 0.0
H604 H 0.03502 0.40105 0.56435 0.0
H605 H 0.06501 0.40676 0.6487 0.0
H606 H 0.10997 0.40919 0.47479 0.0
H607 H 0.08027 0.40367 0.38924 0.0
C608 C 1.01173 0.3191 0.24833 0.0
C609 C 0.0291 0.317 0.20045 0.0
C610 C 1.00877 0.33829 0.28763 0.0
C611 C 0.02324 0.35577 0.28056 0.0
C612 C 0.0401 0.35388 0.23078 0.0
C613 C 0.04282 0.33491 0.19083 0.0
C614 C 0.02143 0.37568 0.32646 0.0
C615 C 0.03848 0.38103 0.37269 0.0
C616 C 1.00302 0.38913 0.32623 0.0
C617 C 0.98456 0.38479 0.27813 0.0
C618 C 0.98765 0.38321 0.20405 0.0
C619 C 0.97018 0.37898 0.15911 0.0
C620 C 0.94949 0.37645 0.1876 0.0
C621 C 0.94623 0.37821 0.26108 0.0
C622 C 0.96366 0.38242 0.30625 0.0
C623 C 0.03361 0.46536 0.51835 0.0
C624 C 0.01441 0.46989 0.55557 0.0
C625 C 0.03507 0.44742 0.47241 0.0
C626 C 0.01759 0.43296 0.4638 0.0
C627 C 0.99822 0.43795 0.49939 0.0
C628 C 0.9966 0.45623 0.54342 0.0
C629 C 0.01928 0.41288 0.41774 0.0
C630 C 1.00221 0.40743 0.37126 0.0
C631 C 0.03751 0.39901 0.41897 0.0
C632 C 0.0554 0.40213 0.47036 0.0
C633 C 0.05129 0.4029 0.54408 0.0
C634 C 0.06823 0.4061 0.5921 0.0
C635 C 0.08934 0.40841 0.56713 0.0
C636 C 0.0936 0.40743 0.49405 0.0
C637 C 0.07673 0.40423 0.44577 0.0
H638 H 0.10242 0.4109 0.60443 0.0
H639 H 0.93598 0.37318 0.15272 0.0
H640 H 0.81441 0.04016 0.15927 0.0
H641 H 0.84933 0.04409 0.09784 0.0
H642 H 0.85747 0.97507 0.10301 0.0
H643 H 0.8233 0.97146 0.16734 0.0
H644 H 0.89493 0.99063 0.11274 0.0
H645 H 0.83676 1.00525 0.95226 0.0
H646 H 0.80419 0.02374 0.90877 0.0
H647 H 0.83869 0.08387 0.90344 0.0
H648 H 0.87141 0.06577 0.94791 0.0
H649 H 0.94363 1.01001 0.72655 0.0
H650 H 0.91353 1.00804 0.80986 0.0
H651 H 0.95728 0.01849 0.98527 0.0
H652 H 0.98771 0.01936 0.90166 0.0
H653 H 0.89452 0.03318 0.88912 0.0
H654 H 0.9361 1.00089 0.14374 0.0
H655 H 0.9668 0.97783 0.17731 0.0
H656 H 0.96245 0.9448 0.97671 0.0
H657 H 0.9315 0.96741 0.94248 0.0
C658 C 0.82403 0.02595 0.14922 0.0
C659 C 0.81603 1.00549 0.1682 0.0
C660 C 0.8439 0.02811 0.11287 0.0
C661 C 0.85613 1.00983 0.09334 0.0
C662 C 0.84863 0.98954 0.11643 0.0
C663 C 0.82898 0.98743 0.15331 0.0
C664 C 0.87594 1.01147 0.04597 0.0
C665 C 0.8948 1.00007 0.06407 0.0
C666 C 0.87605 0.02329 0.98107 0.0
C667 C 0.85645 0.03421 0.95417 0.0
C668 C 0.83736 0.02244 0.94225 0.0
C669 C 0.81888 0.03285 0.9174 0.0
C670 C 0.81935 0.05498 0.90354 0.0
C671 C 0.83834 0.06674 0.91435 0.0
C672 C 0.85685 0.05642 0.93938 0.0
C673 C 0.94697 1.01167 0.78295 0.0
C674 C 0.9683 0.01474 0.80695 0.0
C675 C 0.92957 1.01066 0.83096 0.0
C676 C 0.93272 1.01293 0.90498 0.0
C677 C 0.95409 0.01612 0.92911 0.0
C678 C 0.97162 0.01671 0.88098 0.0
C679 C 0.91357 1.01227 0.95557 0.0
C680 C 0.89479 0.02387 0.93805 0.0
C681 C 0.91331 1.00001 0.01968 0.0
C682 C 0.93165 0.98604 0.04024 0.0
C683 C 0.94164 0.98865 0.10694 0.0
C684 C 0.95909 0.97565 0.12606 0.0
C685 C 0.96663 0.95992 0.07904 0.0
C686 C 0.95664 0.95705 0.01297 0.0
C687 C 0.93915 0.96994 0.99369 0.0
H688 H 0.98017 0.94991 0.09386 0.0
H689 H 0.80503 0.063 0.88426 0.0
H690 H 0.50172 0.81567 0.11307 0.0
H691 H 0.49778 0.84958 0.04683 0.0
H692 H 0.55047 0.87711 0.16618 0.0
H693 H 0.55419 0.84301 0.23266 0.0
H694 H 0.5198 0.9078 0.13933 0.0
H695 H 0.55864 0.85607 1.00013 0.0
H696 H 0.56461 0.82096 0.94191 0.0
H697 H 0.5077 0.82989 0.81531 0.0
H698 H 0.50127 0.86498 0.87328 0.0
H699 H 0.53946 0.99466 0.89695 0.0
H700 H 0.54076 0.96378 0.97761 0.0
H701 H 0.5008 0.92739 0.83286 0.0
H702 H 0.50092 0.95774 0.74985 0.0
H703 H 0.52593 0.90107 0.87683 0.0
H704 H 0.48598 0.95265 0.02061 0.0
H705 H 0.47984 0.98722 0.08248 0.0
H706 H 0.53831 0.97874 0.20145 0.0
H707 H 0.54487 0.9442 0.14008 0.0
C708 C 0.51191 0.82926 0.12687 0.0
C709 C 0.52793 0.82682 0.17927 0.0
C710 C 0.5099 0.84859 0.08819 0.0
C711 C 0.52405 0.86605 0.10013 0.0
C712 C 0.5393 0.86404 0.15546 0.0
C713 C 0.54132 0.84461 0.1941 0.0
C714 C 0.52373 0.88568 0.05223 0.0
C715 C 0.52128 0.90634 0.08192 0.0
C716 C 0.5254 0.88405 0.97696 0.0
C717 C 0.52936 0.86306 0.94151 0.0
C718 C 0.54733 0.85049 0.96018 0.0
C719 C 0.55081 0.8306 0.92717 0.0
C720 C 0.53651 0.82316 0.87515 0.0
C721 C 0.51875 0.83565 0.85573 0.0
C722 C 0.51519 0.85556 0.88855 0.0
C723 C 0.531 0.98005 0.88219 0.0
C724 C 0.52032 0.97881 0.81616 0.0
C725 C 0.5315 0.96231 0.92917 0.0
C726 C 0.52058 0.9429 0.91337 0.0
C727 C 0.50957 0.94184 0.84754 0.0
C728 C 0.50959 0.95937 0.79964 0.0
C729 C 0.52127 0.92351 0.96326 0.0
C730 C 0.52407 0.90275 0.93402 0.0
C731 C 0.51981 0.9251 0.039 0.0
C732 C 0.51592 0.94589 0.07562 0.0
C733 C 0.49754 0.9582 0.05984 0.0
C734 C 0.49398 0.97776 0.09488 0.0
C735 C 0.50862 0.98509 0.14608 0.0
C736 C 0.52692 0.97296 0.1621 0.0
C737 C 0.53055 0.95339 0.1273 0.0
H738 H 0.50584 1.0002 0.17323 0.0
H739 H 0.53921 0.80775 0.84974 0.0
H740 H 0.72912 0.51532 0.09662 0.0
H741 H 0.69662 0.50927 0.0243 0.0
H742 H 0.66489 0.5614 0.13405 0.0
H743 H 0.69685 0.56629 0.20911 0.0
H744 H 0.63564 0.53476 0.10383 0.0
H745 H 0.69153 0.56574 0.96123 0.0
H746 H 0.7277 0.56843 0.90716 0.0
H747 H 0.71735 0.50853 0.79761 0.0
H748 H 0.68122 0.5053 0.85202 0.0
H749 H 0.56074 0.5596 0.81672 0.0
H750 H 0.58987 0.56092 0.90524 0.0
H751 H 0.61382 0.5001 0.82863 0.0
H752 H 0.58432 0.49818 0.74261 0.0
H753 H 0.6464 0.5309 0.84229 0.0
H754 H 0.58766 0.50314 0.98391 0.0
H755 H 0.55187 0.50299 0.04099 0.0
H756 H 0.56762 0.56124 0.15291 0.0
H757 H 0.60333 0.56212 0.09512 0.0
C758 C 0.71494 0.52499 0.10663 0.0
C759 C 0.71565 0.5414 0.15828 0.0
C760 C 0.69641 0.52184 0.06429 0.0
C761 C 0.67823 0.53535 0.07122 0.0
C762 C 0.67854 0.55082 0.12622 0.0
C763 C 0.69691 0.5537 0.16922 0.0
C764 C 0.65937 0.53409 0.01995 0.0
C765 C 0.6381 0.5342 0.04662 0.0
C766 C 0.66216 0.53317 0.94475 0.0
C767 C 0.68376 0.53517 0.91128 0.0
C768 C 0.69701 0.55308 0.92593 0.0
C769 C 0.7175 0.5547 0.89522 0.0
C770 C 0.72484 0.53863 0.84911 0.0
C771 C 0.71166 0.52094 0.83344 0.0
C772 C 0.69117 0.5192 0.8642 0.0
C773 C 0.5719 0.54626 0.81951 0.0
C774 C 0.56986 0.52869 0.77222 0.0
C775 C 0.58872 0.54711 0.87016 0.0
C776 C 0.60419 0.53056 0.87437 0.0
C777 C 0.60225 0.51313 0.8269 0.0
C778 C 0.58529 0.5121 0.77726 0.0
C779 C 0.62277 0.53158 0.92627 0.0
C780 C 0.64399 0.53148 0.89954 0.0
C781 C 0.61989 0.53305 1.00123 0.0
C782 C 0.59812 0.53286 0.03429 0.0
C783 C 0.58341 0.51612 0.01979 0.0
C784 C 0.56314 0.51587 0.05248 0.0
C785 C 0.55744 0.53212 0.10036 0.0
C786 C 0.572 0.5487 0.1156 0.0
C787 C 0.59226 0.54911 0.0828 0.0
H788 H 0.54176 0.53182 0.12581 0.0
H789 H 0.74071 0.53992 0.82539 0.0
H790 H 0.96547 0.72467 0.17292 0.0
H791 H 0.96125 0.6902 0.10942 0.0
H792 H 0.02845 0.6763 0.14621 0.0
H793 H 0.03222 0.71026 0.21102 0.0
H794 H 0.97452 0.676 0.99461 0.0
H795 H 0.04151 0.6244 0.13747 0.0
H796 H 0.05333 0.61602 0.2599 0.0
H797 H 0.99247 0.6376 0.342 0.0
H798 H 0.98018 0.64584 0.22011 0.0
H799 H 0.99997 0.59282 0.74998 0.0
H800 H 0.99829 0.62367 0.83051 0.0
H801 H 0.99291 0.58031 0.0099 0.0
H802 H 0.99759 0.54983 0.92978 0.0
H803 H 1.01125 0.60823 0.06173 0.0
H804 H 0.94828 0.61713 0.92725 0.0
H805 H 0.92447 0.61984 0.82226 0.0
H806 H 0.95883 0.67629 0.75261 0.0
H807 H 0.98292 0.6737 0.85692 0.0
C808 C 0.97904 0.71379 0.16978 0.0
C809 C 0.99907 0.72003 0.19834 0.0
C810 C 0.97677 0.69413 0.13238 0.0
C811 C 0.99447 0.68011 0.1226 0.0
C812 C 0.01427 0.68618 0.15364 0.0
C813 C 0.01648 0.7057 0.19102 0.0
C814 C 0.99287 0.66007 0.07635 0.0
C815 C 0.98251 0.66117 0.00966 0.0
C816 C 1.00232 0.6401 0.09591 0.0
C817 C 1.01004 0.63602 0.16958 0.0
C818 C 0.03067 0.62741 0.18164 0.0
C819 C 0.03744 0.62266 0.25096 0.0
C820 C 0.0237 0.62637 0.3087 0.0
C821 C 1.00316 0.63486 0.29727 0.0
C822 C 0.9963 0.63964 0.22808 0.0
C823 C 0.99833 0.58987 0.80662 0.0
C824 C 0.99834 0.5686 0.83294 0.0
C825 C 0.99706 0.6077 0.85324 0.0
C826 C 0.99468 0.60494 0.92776 0.0
C827 C 0.9947 0.58354 0.95353 0.0
C828 C 0.99698 0.56583 0.90722 0.0
C829 C 0.99307 0.62404 0.97886 0.0
C830 C 1.00305 0.6229 0.0464 0.0
C831 C 0.98174 0.64336 0.96246 0.0
C832 C 0.96751 0.64502 0.89932 0.0
C833 C 0.9508 0.62998 0.88915 0.0
C834 C 0.93726 0.63153 0.8299 0.0
C835 C 0.94019 0.64819 0.78063 0.0
C836 C 0.95662 0.66337 0.79073 0.0
C837 C 0.9702 0.66188 0.84997 0.0
H838 H 0.9297 0.64937 0.73475 0.0
H839 H 0.02892 0.62257 0.36227 0.0
H840 H 0.06094 0.24844 0.28295 0.0
H841 H 0.08247 0.21668 0.30943 0.0
H842 H 0.09776 0.20989 0.08597 0.0
H843 H 0.07621 0.24232 0.05989 0.0
H844 H 0.08116 0.17379 0.14069 0.0
H845 H 0.13999 0.21679 0.20214 0.0
H846 H 0.15977 0.24798 0.25088 0.0
H847 H 0.13934 0.23103 0.46238 0.0
H848 H 0.11913 0.19996 0.41503 0.0
H849 H 0.09688 0.07881 0.34869 0.0
H850 H 0.11915 0.10841 0.30211 0.0
H851 H 0.07284 0.15424 0.38076 0.0
H852 H 0.05059 0.12516 0.42633 0.0
H853 H 0.12584 0.16536 0.35831 0.0
H854 H 0.04907 0.15213 0.20544 0.0
H855 H 0.02544 0.12141 0.17495 0.0
H856 H 0.08082 0.08073 0.15059 0.0
H857 H 0.10478 0.11153 0.17742 0.0
C858 C 0.06953 0.24056 0.24003 0.0
C859 C 0.06735 0.24786 0.16981 0.0
C860 C 0.08193 0.22251 0.25501 0.0
C861 C 0.09227 0.21123 0.1999 0.0
C862 C 0.09032 0.21864 0.1294 0.0
C863 C 0.078 0.23698 0.11451 0.0
C864 C 0.10175 0.18995 0.21643 0.0
C865 C 0.09184 0.17181 0.18602 0.0
C866 C 0.11581 0.18731 0.27526 0.0
C867 C 0.12811 0.20589 0.30485 0.0
C868 C 0.13965 0.21972 0.25905 0.0
C869 C 0.15094 0.23741 0.28646 0.0
C870 C 0.15085 0.24146 0.35969 0.0
C871 C 0.13946 0.22783 0.40568 0.0
C872 C 0.12814 0.21011 0.37856 0.0
C873 C 0.09187 0.09525 0.35817 0.0
C874 C 0.07164 0.09963 0.38906 0.0
C875 C 0.10472 0.11211 0.3322 0.0
C876 C 0.09728 0.13335 0.33661 0.0
C877 C 0.07877 0.13786 0.37678 0.0
C878 C 0.066 0.12114 0.40272 0.0
C879 C 0.10424 0.14988 0.28493 0.0
C880 C 0.11678 0.16716 0.30928 0.0
C881 C 0.09282 0.15175 0.21992 0.0
C882 C 0.07869 0.13401 0.19431 0.0
C883 C 0.05621 0.13673 0.19228 0.0
C884 C 0.04275 0.1193 0.17576 0.0
C885 C 0.05161 0.09907 0.16164 0.0
C886 C 0.07397 0.09636 0.16214 0.0
C887 C 0.08749 0.11384 0.17722 0.0
H888 H 0.04116 0.08554 0.1497 0.0
H889 H 0.15958 0.25517 0.3808 0.0
H890 H 0.31552 1.01189 0.16263 0.0
H891 H 0.35299 0.01711 0.19849 0.0
H892 H 0.3368 0.07864 0.29059 0.0
H893 H 0.29932 0.07392 0.25031 0.0
H894 H 0.3719 0.08336 0.22224 0.0
H895 H 0.35047 0.03222 0.39555 0.0
H896 H 0.33353 0.99946 0.44518 0.0
H897 H 0.376 0.95994 0.32071 0.0
H898 H 0.39301 0.99244 0.2696 0.0
H899 H 0.47993 0.07057 0.39045 0.0
H900 H 0.44106 0.07544 0.37336 0.0
H901 H 0.44366 0.03537 0.18586 0.0
H902 H 0.48253 0.03076 0.20215 0.0
H903 H 0.41516 0.02358 0.32335 0.0
H904 H 0.43267 0.07855 0.14188 0.0
H905 H 0.45054 0.11258 0.1072 0.0
H906 H 0.41573 0.14633 0.2704 0.0
H907 H 0.3978 0.11242 0.30642 0.0
C908 C 0.32002 0.02645 0.19084 0.0
C909 C 0.30473 0.04252 0.20384 0.0
C910 C 0.34133 0.02934 0.21191 0.0
C911 C 0.34772 0.04807 0.24831 0.0
C912 C 0.33228 0.064 0.26288 0.0
C913 C 0.3109 0.06124 0.24065 0.0
C914 C 0.37081 0.05123 0.2668 0.0
C915 C 0.38121 0.07039 0.24563 0.0
C916 C 0.38312 0.03446 0.29784 0.0
C917 C 0.37297 0.0148 0.32855 0.0
C918 C 0.35613 0.01654 0.37846 0.0
C919 C 0.34652 0.99801 0.4069 0.0
C920 C 0.35367 0.97764 0.38608 0.0
C921 C 0.37048 0.97574 0.33685 0.0
C922 C 0.38015 0.99421 0.30825 0.0
C923 C 0.47227 0.06336 0.34456 0.0
C924 C 0.48415 0.05023 0.29789 0.0
C925 C 0.45016 0.06614 0.33487 0.0
C926 C 0.43967 0.05569 0.27856 0.0
C927 C 0.45164 0.0436 0.22948 0.0
C928 C 0.47381 0.04107 0.23861 0.0
C929 C 0.41597 0.05509 0.27572 0.0
C930 C 0.40559 0.0365 0.3007 0.0
C931 C 0.40371 0.07254 0.25017 0.0
C932 C 0.41406 0.09295 0.22722 0.0
C933 C 0.42894 0.09321 0.17063 0.0
C934 C 0.43904 0.11247 0.15065 0.0
C935 C 0.43432 0.13159 0.1867 0.0
C936 C 0.41938 0.13151 0.24255 0.0
C937 C 0.40921 0.11228 0.26266 0.0
H938 H 0.4422 0.14648 0.17129 0.0
H939 H 0.34621 0.96331 0.40815 0.0
H940 H 0.44735 0.30462 0.16658 0.0
H941 H 0.43385 0.34195 0.1782 0.0
H942 H 0.49929 0.36565 0.1691 0.0
H943 H 0.5126 0.32872 0.16356 0.0
H944 H 0.46067 0.3789 0.29106 0.0
H945 H 0.48024 0.39986 0.98877 0.0
H946 H 0.47001 0.38727 0.86931 0.0
H947 H 0.41759 0.35077 0.95788 0.0
H948 H 0.42609 0.36476 0.07722 0.0
H949 H 0.53677 0.4515 0.16161 0.0
H950 H 0.50793 0.4275 0.12323 0.0
H951 H 0.46284 0.46158 0.25671 0.0
H952 H 0.49198 0.48573 0.29595 0.0
H953 H 0.46549 0.42414 0.07354 0.0
H954 H 0.43835 0.42591 0.34991 0.0
H955 H 0.44756 0.4405 0.46867 0.0
H956 H 0.51476 0.42926 0.42807 0.0
H957 H 0.50588 0.41458 0.3092 0.0
C958 C 0.45869 0.31792 0.16841 0.0
C959 C 0.48095 0.31405 0.16324 0.0
C960 C 0.45101 0.33912 0.17378 0.0
C961 C 0.46559 0.3565 0.17181 0.0
C962 C 0.48779 0.35245 0.16894 0.0
C963 C 0.49539 0.33144 0.16587 0.0
C964 C 0.45875 0.37921 0.17655 0.0
C965 C 0.46058 0.38894 0.24364 0.0
C966 C 0.45861 0.39225 0.1146 0.0
C967 C 0.45411 0.38305 0.04288 0.0
C968 C 0.46646 0.38922 0.98313 0.0
C969 C 0.4609 0.38191 0.91513 0.0
C970 C 0.44344 0.36791 0.90609 0.0
C971 C 0.43127 0.36144 0.965 0.0
C972 C 0.43638 0.36916 0.03291 0.0
C973 C 0.52052 0.45456 0.18003 0.0
C974 C 0.51663 0.47011 0.23257 0.0
C975 C 0.50398 0.44084 0.15812 0.0
C976 C 0.48337 0.44244 0.18879 0.0
C977 C 0.47875 0.45989 0.23372 0.0
C978 C 0.49537 0.47358 0.25609 0.0
C979 C 0.46931 0.42313 0.18711 0.0
C980 C 0.46392 0.41422 0.12088 0.0
C981 C 0.46603 0.41076 0.24966 0.0
C982 C 0.47146 0.41918 0.32115 0.0
C983 C 0.45506 0.42645 0.36668 0.0
C984 C 0.46022 0.43473 0.43388 0.0
C985 C 0.48172 0.43572 0.45601 0.0
C986 C 0.49811 0.42842 0.41097 0.0
C987 C 0.49304 0.42011 0.34377 0.0
H988 H 0.48569 0.44223 0.50791 0.0
H989 H 0.43924 0.3622 0.8534 0.0
H990 H 0.24076 0.45873 0.20881 0.0
H991 H 0.21084 0.46228 0.29492 0.0
H992 H 0.20339 0.52891 0.23377 0.0
H993 H 0.23346 0.52551 0.15076 0.0
H994 H 0.21326 0.52206 0.37704 0.0
H995 H 0.16672 0.49464 0.19176 0.0
H996 H 0.15354 0.46762 0.10599 0.0
H997 H 0.14008 0.42363 0.27698 0.0
H998 H 0.15396 0.45005 0.36391 0.0
H999 H 0.1027 0.54999 0.50719 0.0
H1000 H 0.12485 0.53119 0.42044 0.0
H1001 H 0.16768 0.5106 0.5879 0.0
H1002 H 0.14542 0.52909 0.67545 0.0
H1003 H 0.14036 0.48946 0.39823 0.0
H1004 H 0.2196 0.52028 0.52195 0.0
H1005 H 0.23298 0.54903 0.60124 0.0
H1006 H 0.17952 0.5891 0.54271 0.0
H1007 H 0.16626 0.56088 0.46113 0.0
C1008 C 0.23227 0.47389 0.21314 0.0
C1009 C 0.23913 0.49187 0.17361 0.0
C1010 C 0.21524 0.47588 0.26165 0.0
C1011 C 0.20505 0.49587 0.27042 0.0
C1012 C 0.21106 0.51336 0.2274 0.0
C1013 C 0.22805 0.51139 0.17966 0.0
C1014 C 0.19044 0.49985 0.33082 0.0
C1015 C 0.19739 0.51474 0.38208 0.0
C1016 C 0.16985 0.49019 0.337 0.0
C1017 C 0.16173 0.47424 0.28441 0.0
C1018 C 0.1613 0.47909 0.21114 0.0
C1019 C 0.15362 0.46391 0.16226 0.0
C1020 C 0.14596 0.44395 0.18594 0.0
C1021 C 0.14605 0.43909 0.25865 0.0
C1022 C 0.15388 0.45414 0.30776 0.0
C1023 C 0.11649 0.54102 0.52626 0.0
C1024 C 0.12222 0.54109 0.59891 0.0
C1025 C 0.12909 0.53022 0.47637 0.0
C1026 C 0.14784 0.51954 0.49789 0.0
C1027 C 0.15323 0.51881 0.57039 0.0
C1028 C 0.1406 0.52961 0.62035 0.0
C1029 C 0.16314 0.51192 0.44343 0.0
C1030 C 0.15641 0.49635 0.39376 0.0
C1031 C 0.18394 0.52113 0.43772 0.0
C1032 C 0.19174 0.5383 0.48646 0.0
C1033 C 0.21072 0.53524 0.52598 0.0
C1034 C 0.21831 0.55147 0.57119 0.0
C1035 C 0.207 0.57082 0.57752 0.0
C1036 C 0.18819 0.57405 0.5381 0.0
C1037 C 0.18065 0.55796 0.49225 0.0
H1038 H 0.21288 0.58336 0.61267 0.0
H1039 H 0.13992 0.43228 0.14794 0.0
H1040 H 0.99279 0.80643 0.15798 0.0
H1041 H 1.00621 0.836 0.08356 0.0
H1042 H 0.07168 0.8175 0.13094 0.0
H1043 H 0.05798 0.78761 0.20525 0.0
H1044 H 0.06465 0.86373 0.12248 0.0
H1045 H 0.05222 0.79876 0.98736 0.0
H1046 H 0.03144 0.76728 0.94528 0.0
H1047 H 0.98256 0.80917 0.86226 0.0
H1048 H 1.00295 0.8409 0.90445 0.0
H1049 H 0.10782 0.90546 0.78732 0.0
H1050 H 0.09865 0.88139 0.88704 0.0
H1051 H 0.03268 0.903 0.87886 0.0
H1052 H 0.04158 0.92679 0.77895 0.0
H1053 H 0.04264 0.85497 0.86998 0.0
H1054 H 0.0534 0.9198 1.00514 0.0
H1055 H 0.07363 0.95196 0.0441 0.0
H1056 H 0.12421 0.91172 0.12492 0.0
H1057 H 0.10446 0.87927 0.08514 0.0
C1058 C 1.00999 0.80922 0.1541 0.0
C1059 C 0.02448 0.79512 0.18679 0.0
C1060 C 0.01764 0.82591 0.11155 0.0
C1061 C 0.0399 0.82873 0.10164 0.0
C1062 C 0.05446 0.81554 0.13839 0.0
C1063 C 0.04673 0.79861 0.18049 0.0
C1064 C 0.04761 0.84386 0.04679 0.0
C1065 C 0.0601 0.86174 0.06705 0.0
C1066 C 0.04135 0.84128 0.97486 0.0
C1067 C 0.02901 0.8222 0.94971 0.0
C1068 C 0.03695 0.80125 0.96069 0.0
C1069 C 0.02526 0.78337 0.93669 0.0
C1070 C 1.00565 0.78622 0.90141 0.0
C1071 C 0.99773 0.80698 0.88976 0.0
C1072 C 1.00936 0.82492 0.91358 0.0
C1073 C 0.09137 0.90493 0.80676 0.0
C1074 C 0.07537 0.91783 0.7757 0.0
C1075 C 0.08624 0.89143 0.86385 0.0
C1076 C 0.06506 0.89061 0.8898 0.0
C1077 C 0.04909 0.9035 0.85905 0.0
C1078 C 0.05421 0.91707 0.80242 0.0
C1079 C 0.05914 0.87511 0.94561 0.0
C1080 C 0.04716 0.85702 0.92528 0.0
C1081 C 0.0657 0.87766 0.01714 0.0
C1082 C 0.0776 0.89711 0.04122 0.0
C1083 C 0.06897 0.9178 0.03039 0.0
C1084 C 0.08031 0.93608 0.05282 0.0
C1085 C 0.10022 0.93389 0.08674 0.0
C1086 C 0.1088 0.91339 0.09848 0.0
C1087 C 0.09754 0.89505 0.07601 0.0
H1088 H 0.10897 0.94807 0.10413 0.0
H1089 H 0.99663 0.77235 0.88292 0.0
H1090 H 0.74059 0.9548 0.23411 0.0
H1091 H 0.70498 0.94101 0.1971 0.0
H1092 H 0.69793 0.99598 0.05749 0.0
H1093 H 0.73397 1.00831 0.08999 0.0
H1094 H 0.66904 0.95558 0.22065 0.0
H1095 H 0.66609 0.99149 0.92804 0.0
H1096 H 0.68916 0.99107 0.82116 0.0
H1097 H 0.72223 0.93532 0.9003 0.0
H1098 H 0.6991 0.9351 1.00721 0.0
H1099 H 0.58233 0.01968 0.15413 0.0
H1100 H 0.61309 0.99687 0.18086 0.0
H1101 H 0.6013 0.96038 0.98839 0.0
H1102 H 0.57229 0.98496 0.95791 0.0
H1103 H 0.63812 0.96943 0.98186 0.0
H1104 H 0.60161 0.93813 0.16852 0.0
H1105 H 0.57865 0.93229 0.27401 0.0
H1106 H 0.62368 0.96757 0.40307 0.0
H1107 H 0.64609 0.97493 0.29823 0.0
C1108 C 0.73146 0.96337 0.19401 0.0
C1109 C 0.73963 0.98241 0.16416 0.0
C1110 C 0.71121 0.95565 0.17324 0.0
C1111 C 0.6988 0.96723 0.12373 0.0
C1112 C 0.70736 0.98619 0.09359 0.0
C1113 C 0.72777 0.99346 0.11266 0.0
C1114 C 0.67593 0.96153 0.10992 0.0
C1115 C 0.66216 0.95839 0.16846 0.0
C1116 C 0.66699 0.96333 0.04092 0.0
C1117 C 0.68076 0.96325 0.97585 0.0
C1118 C 0.67809 0.97896 0.92243 0.0
C1119 C 0.69124 0.97889 0.86186 0.0
C1120 C 0.70714 0.96318 0.85393 0.0
C1121 C 0.70992 0.94749 0.90654 0.0
C1122 C 0.69679 0.94747 0.96719 0.0
C1123 C 0.58603 1.00644 0.11862 0.0
C1124 C 0.57491 1.00399 0.05415 0.0
C1125 C 0.6035 0.99315 0.13428 0.0
C1126 C 0.60962 0.97663 0.08695 0.0
C1127 C 0.59714 0.97304 0.02565 0.0
C1128 C 0.58035 0.98695 1.00851 0.0
C1129 C 0.63113 0.96634 0.09432 0.0
C1130 C 0.64469 0.96607 0.03415 0.0
C1131 C 0.63971 0.96048 0.16149 0.0
C1132 C 0.6257 0.95699 0.22499 0.0
C1133 C 0.60647 0.94497 0.21916 0.0
C1134 C 0.59344 0.94149 0.27898 0.0
C1135 C 0.5996 0.94967 0.34529 0.0
C1136 C 0.61873 0.96145 0.35176 0.0
C1137 C 0.63161 0.96531 0.29201 0.0
H1138 H 0.5896 0.94682 0.3917 0.0
H1139 H 0.71732 0.96317 0.80703 0.0
H1140 H 0.51512 0.75193 0.11658 0.0
H1141 H 0.51878 0.71802 0.05147 0.0
H1142 H 0.58345 0.71082 0.13332 0.0
H1143 H 0.58 0.74575 0.19505 0.0
H1144 H 0.58182 0.70137 0.99509 0.0
H1145 H 0.53911 0.68085 0.20033 0.0
H1146 H 0.50841 0.68418 0.28409 0.0
H1147 H 0.46379 0.67461 0.11309 0.0
H1148 H 0.49381 0.672 0.02779 0.0
H1149 H 0.51884 0.59725 0.86472 0.0
H1150 H 0.54349 0.61459 0.94612 0.0
H1151 H 0.54407 0.67146 0.81383 0.0
H1152 H 0.52053 0.65359 0.72822 0.0
H1153 H 0.52374 0.64641 1.00763 0.0
H1154 H 0.58307 0.70583 0.86283 0.0
H1155 H 0.6106 0.70418 0.7682 0.0
H1156 H 0.61898 0.63651 0.80674 0.0
H1157 H 0.59174 0.63777 0.90238 0.0
C1158 C 0.53 0.74293 0.12058 0.0
C1159 C 0.54714 0.75091 0.16113 0.0
C1160 C 0.53207 0.72357 0.08416 0.0
C1161 C 0.55116 0.71156 0.08946 0.0
C1162 C 0.56848 0.71969 0.12956 0.0
C1163 C 0.56651 0.73942 0.16499 0.0
C1164 C 0.55299 0.69106 0.04992 0.0
C1165 C 0.56931 0.68915 0.99821 0.0
C1166 C 0.5369 0.6749 0.05538 0.0
C1167 C 0.51883 0.67613 0.10759 0.0
C1168 C 0.52276 0.6795 0.18055 0.0
C1169 C 0.5055 0.68129 0.22828 0.0
C1170 C 0.4843 0.67946 0.20408 0.0
C1171 C 0.48023 0.67594 0.1319 0.0
C1172 C 0.49736 0.67432 0.0838 0.0
C1173 C 0.52501 0.61298 0.85014 0.0
C1174 C 0.51702 0.62429 0.79055 0.0
C1175 C 0.53922 0.62289 0.89731 0.0
C1176 C 0.54531 0.64441 0.88682 0.0
C1177 C 0.5396 0.6548 0.82305 0.0
C1178 C 0.52568 0.64472 0.77489 0.0
C1179 C 0.55151 0.65762 0.94907 0.0
C1180 C 0.53675 0.65815 1.00572 0.0
C1181 C 0.56862 0.67268 0.94682 0.0
C1182 C 0.58529 0.67191 0.88991 0.0
C1183 C 0.5909 0.69062 0.85165 0.0
C1184 C 0.60643 0.68975 0.79765 0.0
C1185 C 0.61652 0.67025 0.78143 0.0
C1186 C 0.61112 0.65159 0.81925 0.0
C1187 C 0.5956 0.65237 0.8733 0.0
H1188 H 0.62853 0.66961 0.73958 0.0
H1189 H 0.47103 0.68084 0.24129 0.0
H1190 H 0.77419 0.57465 0.06075 0.0
H1191 H 0.80576 0.5911 1.00725 0.0
H1192 H 0.83457 0.59747 0.21558 0.0
H1193 H 0.80082 0.58568 0.27016 0.0
H1194 H 0.85399 0.62391 0.13582 0.0
H1195 H 0.83396 0.5484 0.10575 0.0
H1196 H 0.81171 0.51789 0.06462 0.0
H1197 H 0.81764 0.53991 0.8484 0.0
H1198 H 0.83997 0.57064 0.88837 0.0
H1199 H 0.94297 0.55624 0.14075 0.0
H1200 H 0.91253 0.58082 0.14746 0.0
H1201 H 0.91463 0.58953 0.91952 0.0
H1202 H 0.9461 0.56618 0.91274 0.0
H1203 H 0.87916 0.56727 0.96923 0.0
H1204 H 0.91301 0.63371 0.01373 0.0
H1205 H 0.93979 0.65792 0.0683 0.0
H1206 H 0.91231 0.64623 0.27494 0.0
H1207 H 0.88542 0.62168 0.22174 0.0
C1208 C 0.78666 0.58073 0.0957 0.0
C1209 C 0.78511 0.57821 0.17012 0.0
C1210 C 0.80495 0.58983 0.06478 0.0
C1211 C 0.82304 0.59444 0.10684 0.0
C1212 C 0.82101 0.59362 0.18149 0.0
C1213 C 0.80194 0.5861 0.21284 0.0
C1214 C 0.84475 0.59609 0.07374 0.0
C1215 C 0.85949 0.61163 0.09901 0.0
C1216 C 0.85193 0.58039 0.02403 0.0
C1217 C 0.8384 0.56198 1.00012 0.0
C1218 C 0.83053 0.54676 0.04946 0.0
C1219 C 0.81788 0.52944 0.02636 0.0
C1220 C 0.8132 0.52701 0.95397 0.0
C1221 C 0.82122 0.54187 0.90449 0.0
C1222 C 0.83386 0.55925 0.92732 0.0
C1223 C 0.93766 0.56416 0.09245 0.0
C1224 C 0.94642 0.55861 0.02591 0.0
C1225 C 0.92027 0.57831 0.09635 0.0
C1226 C 0.91122 0.58679 0.03379 0.0
C1227 C 0.92138 0.5831 0.96831 0.0
C1228 C 0.93909 0.56942 0.96453 0.0
C1229 C 0.88859 0.594 0.03532 0.0
C1230 C 0.87354 0.58021 1.0034 0.0
C1231 C 0.88151 0.61053 0.08122 0.0
C1232 C 0.89712 0.62586 0.1136 0.0
C1233 C 0.91267 0.63625 0.07086 0.0
C1234 C 0.92791 0.65003 0.10159 0.0
C1235 C 0.9278 0.6536 0.17509 0.0
C1236 C 0.91235 0.64348 0.21797 0.0
C1237 C 0.89704 0.62968 0.1875 0.0
H1238 H 0.93968 0.66422 0.19883 0.0
H1239 H 0.8034 0.51358 0.93617 0.0
H1240 H 0.02842 0.25868 0.97642 0.0
H1241 H 0.0235 0.22482 0.90998 0.0
H1242 H 0.0224 0.18954 0.10802 0.0
H1243 H 0.02706 0.22344 0.17389 0.0
H1244 H 0.04777 0.16934 0.01871 0.0
H1245 H 0.97615 0.19685 1.00197 0.0
H1246 H 0.94808 0.22367 0.97474 0.0
H1247 H 0.96712 0.2237 0.7546 0.0
H1248 H 0.99551 0.19709 0.78071 0.0
H1249 H 0.98442 0.08335 0.78435 0.0
H1250 H 0.98536 0.11717 0.85208 0.0
H1251 H 0.05384 0.12216 0.81508 0.0
H1252 H 0.05308 0.08791 0.75091 0.0
H1253 H 0.99313 0.15683 0.83037 0.0
H1254 H 0.07925 0.15272 0.94832 0.0
H1255 H 0.10677 0.12551 0.97678 0.0
H1256 H 0.0574 0.0774 1.00166 0.0
H1257 H 0.02946 0.10452 0.97666 0.0
C1258 C 0.02646 0.24376 1.00568 0.0
C1259 C 0.0278 0.24386 0.08056 0.0
C1260 C 0.02379 0.22428 0.96765 0.0
C1261 C 0.02243 0.20428 1.00338 0.0
C1262 C 0.02338 0.20451 0.07846 0.0
C1263 C 0.02589 0.22397 0.11635 0.0
C1264 C 0.02088 0.18315 0.96291 0.0
C1265 C 0.0358 0.16668 0.97746 0.0
C1266 C 1.00518 0.17919 0.90937 0.0
C1267 C 0.98808 0.19513 0.89343 0.0
C1268 C 0.97446 0.2027 0.94785 0.0
C1269 C 0.95847 0.21784 0.9326 0.0
C1270 C 0.95585 0.22543 0.86301 0.0
C1271 C 0.96918 0.21783 0.80849 0.0
C1272 C 0.98521 0.20271 0.82347 0.0
C1273 C 0.99971 0.09161 0.79083 0.0
C1274 C 0.0187 0.08257 0.76254 0.0
C1275 C 1.00025 0.11112 0.82965 0.0
C1276 C 0.01976 0.12243 0.84091 0.0
C1277 C 0.03859 0.11375 0.81004 0.0
C1278 C 0.03813 0.09403 0.7727 0.0
C1279 C 0.02036 0.14306 0.88488 0.0
C1280 C 1.00518 0.15944 0.87133 0.0
C1281 C 0.0358 0.14688 0.93972 0.0
C1282 C 0.05226 0.13061 0.95922 0.0
C1283 C 0.07422 0.13638 0.9605 0.0
C1284 C 0.0899 0.12099 0.97605 0.0
C1285 C 0.08384 0.09972 0.99007 0.0
C1286 C 0.06207 0.09385 0.98982 0.0
C1287 C 0.04628 0.10927 0.9756 0.0
H1288 H 0.09603 0.08788 1.00202 0.0
H1289 H 0.94347 0.23715 0.85131 0.0
H1290 H 0.28808 1.00333 0.0157 0.0
H1291 H 0.31977 1.0006 0.9369 0.0
H1292 H 0.33906 0.0649 0.99759 0.0
H1293 H 0.307 0.0678 0.07299 0.0
H1294 H 0.34888 0.06097 0.86728 0.0
H1295 H 0.36162 1.01338 0.07121 0.0
H1296 H 0.35385 0.98215 0.14971 0.0
H1297 H 0.35587 0.93977 0.96929 0.0
H1298 H 0.36355 0.97062 0.88999 0.0
H1299 H 0.46905 0.02196 0.85623 0.0
H1300 H 0.43305 0.02193 0.90886 0.0
H1301 H 0.40557 0.03628 0.70333 0.0
H1302 H 0.44186 0.03709 0.65076 0.0
H1303 H 0.39845 0.99916 0.89705 0.0
H1304 H 0.35903 0.0616 0.71846 0.0
H1305 H 0.36802 0.0938 0.64672 0.0
H1306 H 0.42053 0.10841 0.7876 0.0
H1307 H 0.41214 0.07608 0.8593 0.0
C1308 C 0.29877 0.01706 0.01033 0.0
C1309 C 0.2949 0.03584 0.0504 0.0
C1310 C 0.31721 0.01539 0.96626 0.0
C1311 C 0.33246 0.03235 0.96179 0.0
C1312 C 0.32789 0.05145 0.99942 0.0
C1313 C 0.30944 0.05317 0.04266 0.0
C1314 C 0.35333 0.03043 0.91986 0.0
C1315 C 0.35956 0.04731 0.87382 0.0
C1316 C 0.3677 1.01274 0.92709 0.0
C1317 C 0.36289 0.9943 0.97477 0.0
C1318 C 0.36023 0.99741 0.04844 0.0
C1319 C 0.35589 0.97981 0.09299 0.0
C1320 C 0.35427 0.95908 0.06443 0.0
C1321 C 0.35707 0.95585 0.99132 0.0
C1322 C 0.36145 0.97336 0.9466 0.0
C1323 C 0.4554 0.02528 0.82199 0.0
C1324 C 0.45863 0.02989 0.7491 0.0
C1325 C 0.43464 0.02511 0.85232 0.0
C1326 C 0.41622 0.02944 0.811 0.0
C1327 C 0.41931 0.03336 0.73748 0.0
C1328 C 0.44018 0.03361 0.70704 0.0
C1329 C 0.39407 0.02986 0.84555 0.0
C1330 C 0.38762 1.01269 0.89006 0.0
C1331 C 0.37953 0.04729 0.83723 0.0
C1332 C 0.38509 0.06638 0.79364 0.0
C1333 C 0.37257 0.07165 0.73379 0.0
C1334 C 0.37762 0.08986 0.69303 0.0
C1335 C 0.39499 0.10304 0.71224 0.0
C1336 C 0.40733 0.09802 0.77221 0.0
C1337 C 0.4025 0.07972 0.81274 0.0
H1338 H 0.39881 0.1172 0.6809 0.0
H1339 H 0.35091 0.9455 0.09901 0.0
H1340 H 0.47374 0.30578 1.00469 0.0
H1341 H 0.47919 0.33723 0.92789 0.0
H1342 H 0.54675 0.33779 0.98179 0.0
H1343 H 0.54107 0.30613 0.05931 0.0
H1344 H 0.53111 0.37746 0.99392 0.0
H1345 H 0.52777 0.32394 0.81321 0.0
H1346 H 0.51293 0.29296 0.74706 0.0
H1347 H 0.45619 0.32935 0.69674 0.0
H1348 H 0.47057 0.36048 0.76313 0.0
H1349 H 0.55379 0.46324 0.74508 0.0
H1350 H 0.55325 0.42874 0.8089 0.0
H1351 H 0.48502 0.4228 0.76914 0.0
H1352 H 0.48579 0.45685 0.70279 0.0
H1353 H 0.50406 0.38499 0.74662 0.0
H1354 H 0.50794 0.43783 0.93981 0.0
H1355 H 0.52482 0.46805 1.00532 0.0
H1356 H 0.58322 0.43187 0.0272 0.0
H1357 H 0.56687 0.40152 0.96152 0.0
C1358 C 0.48989 0.31219 0.99814 0.0
C1359 C 0.50704 0.30317 0.03698 0.0
C1360 C 0.49301 0.33035 0.95455 0.0
C1361 C 0.51344 0.34016 0.94822 0.0
C1362 C 0.53081 0.33069 0.98524 0.0
C1363 C 0.52767 0.31234 0.02868 0.0
C1364 C 0.51627 0.36077 0.90608 0.0
C1365 C 0.52545 0.37893 0.93944 0.0
C1366 C 0.50875 0.36311 0.83498 0.0
C1367 C 0.50013 0.34447 0.79422 0.0
C1368 C 0.51204 0.32528 0.78863 0.0
C1369 C 0.50373 0.3077 0.75089 0.0
C1370 C 0.48359 0.30915 0.71797 0.0
C1371 C 0.47176 0.32822 0.72245 0.0
C1372 C 0.47999 0.34585 0.76012 0.0
C1373 C 0.53865 0.45458 0.74979 0.0
C1374 C 0.51973 0.46314 0.71956 0.0
C1375 C 0.53831 0.43485 0.78704 0.0
C1376 C 0.51901 0.42303 0.79544 0.0
C1377 C 0.50016 0.43145 0.76429 0.0
C1378 C 0.50053 0.45116 0.72692 0.0
C1379 C 0.51845 0.40178 0.83502 0.0
C1380 C 0.50979 0.38347 0.80098 0.0
C1381 C 0.52663 0.39924 0.90523 0.0
C1382 C 0.53627 0.41751 0.94505 0.0
C1383 C 0.52444 0.4364 0.95805 0.0
C1384 C 0.53391 0.45355 0.9951 0.0
C1385 C 0.5551 0.45194 0.01974 0.0
C1386 C 0.56685 0.43313 1.00779 0.0
C1387 C 0.55749 0.41595 0.97077 0.0
H1388 H 0.56237 0.46515 0.04878 0.0
H1389 H 0.47718 0.29551 0.68879 0.0
H1390 H 0.24413 0.53568 0.01315 0.0
H1391 H 0.20865 0.5396 0.95613 0.0
H1392 H 0.20075 0.47045 0.95829 0.0
H1393 H 0.23547 0.46695 0.01905 0.0
H1394 H 0.16577 0.48469 0.99691 0.0
H1395 H 0.17357 0.56396 0.83779 0.0
H1396 H 0.2016 0.58549 0.77685 0.0
H1397 H 0.23861 0.52825 0.73944 0.0
H1398 H 0.21066 0.50632 0.79915 0.0
H1399 H 0.06117 0.52164 0.88307 0.0
H1400 H 0.09752 0.51988 0.9334 0.0
H1401 H 0.12246 0.50005 0.72954 0.0
H1402 H 0.08601 0.50172 0.6787 0.0
H1403 H 0.14819 0.53223 0.79359 0.0
H1404 H 0.12464 0.45835 0.87044 0.0
H1405 H 0.10066 0.43223 0.93099 0.0
H1406 H 0.09768 0.47344 0.11457 0.0
H1407 H 0.12213 0.49948 0.05565 0.0
C1408 C 0.23503 0.52136 0.99929 0.0
C1409 C 0.24284 0.50095 0.0191 0.0
C1410 C 0.2146 0.52355 0.96677 0.0
C1411 C 0.20162 0.50532 0.95147 0.0
C1412 C 0.21001 0.48491 0.96915 0.0
C1413 C 0.23011 0.48281 1.00297 0.0
C1414 C 0.179 0.50722 0.92093 0.0
C1415 C 0.1622 0.495 0.95183 0.0
C1416 C 0.17364 0.52069 0.86217 0.0
C1417 C 0.19021 0.53357 0.82408 0.0
C1418 C 0.18766 0.55596 0.81636 0.0
C1419 C 0.20354 0.56823 0.78214 0.0
C1420 C 0.22199 0.55827 0.75514 0.0
C1421 C 0.22442 0.53596 0.76112 0.0
C1422 C 0.20856 0.52361 0.7951 0.0
C1423 C 0.0743 0.51666 0.84882 0.0
C1424 C 0.07036 0.51149 0.77672 0.0
C1425 C 0.09522 0.51568 0.87791 0.0
C1426 C 0.11302 0.50969 0.83582 0.0
C1427 C 0.1092 0.50486 0.76349 0.0
C1428 C 0.08823 0.50574 0.73439 0.0
C1429 C 0.13554 0.50878 0.86676 0.0
C1430 C 0.1521 0.52152 0.83707 0.0
C1431 C 0.14088 0.49547 0.92542 0.0
C1432 C 0.12491 0.48088 0.95849 0.0
C1433 C 0.11867 0.46188 0.92344 0.0
C1434 C 0.10519 0.44702 0.95769 0.0
C1435 C 0.09756 0.45122 0.02644 0.0
C1436 C 0.1035 0.47025 0.06121 0.0
C1437 C 0.11725 0.48501 0.02759 0.0
H1438 H 0.08707 0.43972 0.05276 0.0
H1439 H 0.23433 0.56783 0.72908 0.0
H1440 H 0.96883 0.80208 0.28003 0.0
H1441 H 0.96757 0.8371 0.34221 0.0
H1442 H 0.03025 0.82474 0.43216 0.0
H1443 H 0.03143 0.79001 0.36926 0.0
H1444 H 1.00426 0.84295 0.53182 0.0
H1445 H 0.0272 0.86674 0.29006 0.0
H1446 H 0.02413 0.8703 0.15951 0.0
H1447 H 0.95752 0.88771 0.18051 0.0
H1448 H 0.96051 0.88528 0.31164 0.0
H1449 H 0.0327 0.94917 0.64886 0.0
H1450 H 0.03018 0.91301 0.59742 0.0
H1451 H 0.97527 0.93307 0.47294 0.0
H1452 H 0.97881 0.96948 0.52141 0.0
H1453 H 0.99556 0.91013 0.392 0.0
H1454 H 0.97528 0.89531 0.63416 0.0
H1455 H 0.97844 0.89417 0.76524 0.0
H1456 H 0.03749 0.85861 0.74689 0.0
H1457 H 0.03475 0.85968 0.61617 0.0
C1458 C 0.98201 0.80662 0.3148 0.0
C1459 C 0.99995 0.79294 0.32147 0.0
C1460 C 0.98151 0.82687 0.34942 0.0
C1461 C 0.99895 0.83399 0.39184 0.0
C1462 C 0.01652 0.81989 0.40025 0.0
C1463 C 0.01711 0.79986 0.36492 0.0
C1464 C 0.99912 0.85599 0.42706 0.0
C1465 C 1.00249 0.85765 0.50107 0.0
C1466 C 0.99627 0.87541 0.3884 0.0
C1467 C 0.99399 0.8755 0.31013 0.0
C1468 C 1.01187 0.87112 0.26666 0.0
C1469 C 1.01018 0.87308 0.19269 0.0
C1470 C 0.99058 0.87888 0.16157 0.0
C1471 C 0.97267 0.88307 0.20458 0.0
C1472 C 0.97439 0.8816 0.27874 0.0
C1473 C 0.02003 0.94582 0.61081 0.0
C1474 C 1.00613 0.96244 0.58881 0.0
C1475 C 0.01841 0.92491 0.58155 0.0
C1476 C 1.00225 0.91964 0.53123 0.0
C1477 C 0.98805 0.93627 0.51082 0.0
C1478 C 0.99006 0.95728 0.53867 0.0
C1479 C 1.00058 0.89734 0.49762 0.0
C1480 C 0.99704 0.89556 0.42359 0.0
C1481 C 1.00293 0.87781 0.53675 0.0
C1482 C 1.00486 0.87766 0.61543 0.0
C1483 C 0.98901 0.88739 0.65821 0.0
C1484 C 0.9907 0.88671 0.73249 0.0
C1485 C 1.00809 0.87625 0.76452 0.0
C1486 C 0.02395 0.86663 0.72233 0.0
C1487 C 0.02233 0.86724 0.64812 0.0
H1488 H 1.00923 0.87556 0.822 0.0
H1489 H 0.98933 0.88026 0.10421 0.0
H1490 H 0.75562 0.99222 0.38511 0.0
H1491 H 0.72244 0.99569 0.45619 0.0
H1492 H 0.69208 0.02894 0.28114 0.0
H1493 H 0.72576 0.02694 0.21344 0.0
H1494 H 0.67582 0.04532 0.38648 0.0
H1495 H 0.68544 0.97139 0.33021 0.0
H1496 H 0.70283 0.93573 0.32477 0.0
H1497 H 0.70352 0.93241 0.5532 0.0
H1498 H 0.6862 0.96808 0.56021 0.0
H1499 H 0.57303 0.98994 0.55806 0.0
H1500 H 0.60696 0.98655 0.49204 0.0
H1501 H 0.63085 0.04447 0.59154 0.0
H1502 H 0.59694 0.04816 0.65631 0.0
H1503 H 0.6483 0.98122 0.51625 0.0
H1504 H 0.66204 0.07361 0.48194 0.0
H1505 H 0.63955 0.1063 0.47596 0.0
H1506 H 0.58609 0.06864 0.39989 0.0
H1507 H 0.6084 0.03588 0.40347 0.0
C1508 C 0.74205 1.00084 0.36292 0.0
C1509 C 0.74345 1.00935 0.29353 0.0
C1510 C 0.72278 1.00245 0.40302 0.0
C1511 C 0.70404 1.01206 0.37416 0.0
C1512 C 0.70589 0.02133 0.30572 0.0
C1513 C 0.72525 0.02011 0.2665 0.0
C1514 C 0.68257 1.01226 0.41397 0.0
C1515 C 0.67002 0.03121 0.41483 0.0
C1516 C 0.67401 0.99384 0.44979 0.0
C1517 C 0.68463 0.97248 0.44571 0.0
C1518 C 0.68935 0.96309 0.37928 0.0
C1519 C 0.69919 0.94289 0.3759 0.0
C1520 C 0.70432 0.93186 0.43852 0.0
C1521 C 0.69956 0.94099 0.50472 0.0
C1522 C 0.6897 0.96118 0.50844 0.0
C1523 C 0.58556 1.00188 0.5664 0.0
C1524 C 0.58196 0.01941 0.61266 0.0
C1525 C 0.60512 0.99993 0.52828 0.0
C1526 C 0.62172 0.01544 0.53492 0.0
C1527 C 0.61838 0.03246 0.58338 0.0
C1528 C 0.59885 0.0345 0.62102 0.0
C1529 C 0.64216 0.01437 0.49033 0.0
C1530 C 0.65433 0.99528 0.48816 0.0
C1531 C 0.64992 0.03234 0.45072 0.0
C1532 C 0.63687 0.05225 0.44377 0.0
C1533 C 0.64558 0.07235 0.46313 0.0
C1534 C 0.63284 0.0909 0.4602 0.0
C1535 C 0.61139 0.08954 0.43781 0.0
C1536 C 0.6027 0.06969 0.41729 0.0
C1537 C 0.6154 0.05114 0.41963 0.0
H1538 H 0.6015 0.10387 0.43646 0.0
H1539 H 0.71195 0.91622 0.43574 0.0
H1540 H 0.49918 0.75514 0.31512 0.0
H1541 H 0.4967 0.72094 0.38241 0.0
H1542 H 0.56601 0.71656 0.38323 0.0
H1543 H 0.56837 0.75087 0.31867 0.0
H1544 H 0.54631 0.67947 0.33176 0.0
H1545 H 0.53952 0.72556 0.53557 0.0
H1546 H 0.52342 0.75444 0.60822 0.0
H1547 H 0.46309 0.72028 0.61249 0.0
H1548 H 0.47873 0.69133 0.53889 0.0
H1549 H 0.55957 0.58378 0.53103 0.0
H1550 H 0.56034 0.62035 0.48215 0.0
H1551 H 0.49331 0.62812 0.5377 0.0
H1552 H 0.49256 0.59111 0.58449 0.0
H1553 H 0.51141 0.66433 0.5642 0.0
H1554 H 0.51032 0.62262 0.35877 0.0
H1555 H 0.51769 0.59658 0.26279 0.0
H1556 H 0.58155 0.62253 0.23798 0.0
H1557 H 0.57461 0.64868 0.33428 0.0
C1558 C 0.51384 0.74722 0.33194 0.0
C1559 C 0.534 0.75584 0.31185 0.0
C1560 C 0.51245 0.72755 0.37008 0.0
C1561 C 0.53119 0.7159 0.38843 0.0
C1562 C 0.55127 0.72498 0.37013 0.0
C1563 C 0.55263 0.74467 0.33318 0.0
C1564 C 0.53007 0.69358 0.42116 0.0
C1565 C 0.53893 0.67623 0.38309 0.0
C1566 C 0.51966 0.68898 0.4869 0.0
C1567 C 0.51024 0.70639 0.53099 0.0
C1568 C 0.52276 0.72431 0.55135 0.0
C1569 C 0.51373 0.74067 0.59285 0.0
C1570 C 0.49223 0.73923 0.61477 0.0
C1571 C 0.47973 0.72139 0.59537 0.0
C1572 C 0.48867 0.705 0.5538 0.0
C1573 C 0.54493 0.59313 0.53194 0.0
C1574 C 0.52601 0.58434 0.56162 0.0
C1575 C 0.54534 0.61423 0.50397 0.0
C1576 C 0.5268 0.62736 0.50475 0.0
C1577 C 0.50794 0.61867 0.53595 0.0
C1578 C 0.50752 0.59745 0.56338 0.0
C1579 C 0.52729 0.65 0.47368 0.0
C1580 C 0.51868 0.66745 0.51258 0.0
C1581 C 0.53678 0.65465 0.40637 0.0
C1582 C 0.54205 0.63742 0.35451 0.0
C1583 C 0.5261 0.62249 0.33391 0.0
C1584 C 0.53012 0.60785 0.27896 0.0
C1585 C 0.55004 0.60799 0.2441 0.0
C1586 C 0.5661 0.62252 0.26488 0.0
C1587 C 0.56214 0.63724 0.31971 0.0
H1588 H 0.55306 0.59678 0.2011 0.0
H1589 H 0.48527 0.75191 0.64694 0.0
H1590 H 0.77973 0.56276 0.36612 0.0
H1591 H 0.81297 0.55712 0.43361 0.0
H1592 H 0.83437 0.51186 0.2738 0.0
H1593 H 0.80181 0.51936 0.20358 0.0
H1594 H 0.8321 0.53207 0.50366 0.0
H1595 H 0.88419 0.50055 0.27449 0.0
H1596 H 0.89174 0.50612 0.1464 0.0
H1597 H 0.86973 0.57139 0.1632 0.0
H1598 H 0.86128 0.566 0.28976 0.0
H1599 H 0.93232 0.50085 0.66574 0.0
H1600 H 0.89813 0.50222 0.60089 0.0
H1601 H 0.9245 0.55097 0.46158 0.0
H1602 H 0.95888 0.54877 0.52349 0.0
H1603 H 0.90304 0.52696 0.38349 0.0
H1604 H 0.88501 0.56002 0.60544 0.0
H1605 H 0.8819 0.56265 0.73624 0.0
H1606 H 0.83988 0.50749 0.73893 0.0
H1607 H 0.84299 0.50434 0.60812 0.0
C1608 C 0.79163 0.55163 0.34561 0.0
C1609 C 0.78827 0.54179 0.27904 0.0
C1610 C 0.81078 0.54828 0.38441 0.0
C1611 C 0.8271 0.53437 0.35924 0.0
C1612 C 0.82298 0.52347 0.29422 0.0
C1613 C 0.80404 0.52739 0.25427 0.0
C1614 C 0.84804 0.53151 0.40126 0.0
C1615 C 0.84752 0.531 0.47666 0.0
C1616 C 0.86871 0.5301 0.36847 0.0
C1617 C 0.87181 0.53277 0.291 0.0
C1618 C 0.88065 0.51597 0.2502 0.0
C1619 C 0.885 0.51909 0.17778 0.0
C1620 C 0.88096 0.53905 0.14616 0.0
C1621 C 0.87244 0.55585 0.18689 0.0
C1622 C 0.86768 0.55273 0.25883 0.0
C1623 C 0.9309 0.51194 0.62146 0.0
C1624 C 0.94866 0.52486 0.60095 0.0
C1625 C 0.9111 0.51284 0.58435 0.0
C1626 C 0.90818 0.52697 0.52615 0.0
C1627 C 0.92593 0.53986 0.50585 0.0
C1628 C 0.94576 0.53874 0.54216 0.0
C1629 C 0.88705 0.52814 0.4852 0.0
C1630 C 0.88756 0.52805 0.41023 0.0
C1631 C 0.86653 0.52985 0.51859 0.0
C1632 C 0.86444 0.53179 0.59709 0.0
C1633 C 0.87522 0.54836 0.63397 0.0
C1634 C 0.87345 0.54996 0.70809 0.0
C1635 C 0.86079 0.53518 0.74587 0.0
C1636 C 0.84974 0.51887 0.70957 0.0
C1637 C 0.85149 0.51718 0.63544 0.0
H1638 H 0.85953 0.53639 0.80326 0.0
H1639 H 0.88457 0.54154 0.09032 0.0
loop_
_geom_bond_atom_site_label_1
_geom_bond_atom_site_label_2
_geom_bond_distance
_geom_bond_site_symmetry_2
_ccdc_geom_bond_type
C0 N1 1.317 . S
C0 N2 1.348 . S
C0 C3 1.485 . S
N1 C0 1.317 . S
N1 N5 1.370 . S
N2 C0 1.348 . S
N2 C4 1.346 . S
C3 C0 1.485 . S
C3 H7 0.960 . S
C3 H8 0.961 . S
C3 H9 0.960 . S
C4 N2 1.346 . S
C4 N5 1.307 . S
C4 C6 1.486 . S
N5 N1 1.370 . S
N5 C4 1.307 . S
C6 C4 1.486 . S
C6 H10 0.960 . S
C6 H11 0.960 . S
C6 H12 0.959 . S
H7 C3 0.960 . S
H8 C3 0.961 . S
H9 C3 0.960 . S
H10 C6 0.960 . S
H11 C6 0.960 . S
H12 C6 0.959 . S
C13 N14 1.317 . S
C13 N15 1.348 . S
C13 C16 1.485 . S
N14 C13 1.317 . S
N14 N18 1.370 . S
N15 C13 1.348 . S
N15 C17 1.346 . S
C16 C13 1.485 . S
C16 H20 0.960 . S
C16 H21 0.961 . S
C16 H22 0.960 . S
C17 N15 1.346 . S
C17 N18 1.307 . S
C17 C19 1.486 . S
N18 N14 1.370 . S
N18 C17 1.307 . S
C19 C17 1.486 . S
C19 H23 0.960 . S
C19 H24 0.960 . S
C19 H25 0.959 . S
H20 C16 0.960 . S
H21 C16 0.961 . S
H22 C16 0.960 . S
H23 C19 0.960 . S
H24 C19 0.960 . S
H25 C19 0.959 . S
C26 N27 1.317 . S
C26 N28 1.348 . S
C26 C29 1.485 . S
N27 C26 1.317 . S
N27 N31 1.370 . S
N28 C26 1.348 . S
N28 C30 1.346 . S
C29 C26 1.485 . S
C29 H33 0.960 . S
C29 H34 0.961 . S
C29 H35 0.960 . S
C30 N28 1.346 . S
C30 N31 1.307 . S
C30 C32 1.486 . S
N31 N27 1.370 . S
N31 C30 1.307 . S
C32 C30 1.486 . S
C32 H36 0.960 . S
C32 H37 0.960 . S
C32 H38 0.959 . S
H33 C29 0.960 . S
H34 C29 0.961 . S
H35 C29 0.960 . S
H36 C32 0.960 . S
H37 C32 0.960 . S
H38 C32 0.959 . S
C39 N40 1.317 . S
C39 N41 1.348 . S
C39 C42 1.485 . S
N40 C39 1.317 . S
N40 N44 1.370 . S
N41 C39 1.348 . S
N41 C43 1.346 . S
C42 C39 1.485 . S
C42 H46 0.960 . S
C42 H47 0.961 . S
C42 H48 0.960 . S
C43 N41 1.346 . S
C43 N44 1.307 . S
C43 C45 1.486 . S
N44 N40 1.370 . S
N44 C43 1.307 . S
C45 C43 1.486 . S
C45 H49 0.960 . S
C45 H50 0.960 . S
C45 H51 0.959 . S
H46 C42 0.960 . S
H47 C42 0.961 . S
H48 C42 0.960 . S
H49 C45 0.960 . S
H50 C45 0.960 . S
H51 C45 0.959 . S
C52 N53 1.317 1_556 S
C52 N54 1.348 1_556 S
C52 C55 1.485 . S
N53 C52 1.317 1_554 S
N53 N57 1.374 . S
N54 C52 1.348 1_554 S
N54 C56 1.346 . S
C55 C52 1.485 . S
C55 H59 0.960 . S
C55 H60 0.961 . S
C55 H61 0.960 . S
C56 N54 1.346 . S
C56 N57 1.307 . S
C56 C58 1.486 . S
N57 N53 1.374 . S
N57 C56 1.307 . S
C58 C56 1.486 . S
C58 H62 0.960 . S
C58 H63 0.960 . S
C58 H64 0.959 . S
H59 C55 0.960 . S
H60 C55 0.961 . S
H61 C55 0.960 . S
H62 C58 0.960 . S
H63 C58 0.960 . S
H64 C58 0.959 . S
C65 N66 1.317 1_556 S
C65 N67 1.348 1_556 S
C65 C68 1.485 . S
N66 C65 1.317 1_554 S
N66 N70 1.370 . S
N67 C65 1.348 1_554 S
N67 C69 1.346 . S
C68 C65 1.485 . S
C68 H72 0.960 . S
C68 H73 0.961 . S
C68 H74 0.960 . S
C69 N67 1.346 . S
C69 N70 1.307 . S
C69 C71 1.486 . S
N70 N66 1.370 . S
N70 C69 1.307 . S
C71 C69 1.486 . S
C71 H75 0.960 . S
C71 H76 0.960 . S
C71 H77 0.959 . S
H72 C68 0.960 . S
H73 C68 0.961 . S
H74 C68 0.960 . S
H75 C71 0.960 . S
H76 C71 0.960 . S
H77 C71 0.959 . S
C78 N79 1.317 1_556 S
C78 N80 1.348 1_556 S
C78 C81 1.485 . S
N79 C78 1.317 1_554 S
N79 N83 1.370 . S
N80 C78 1.348 1_554 S
N80 C82 1.346 . S
C81 C78 1.485 . S
C81 H85 0.960 . S
C81 H86 0.961 . S
C81 H87 0.960 . S
C82 N80 1.346 . S
C82 N83 1.307 . S
C82 C84 1.486 . S
N83 N79 1.370 . S
N83 C82 1.307 . S
C84 C82 1.486 . S
C84 H88 0.960 . S
C84 H89 0.960 . S
C84 H90 0.959 . S
H85 C81 0.960 . S
H86 C81 0.961 . S
H87 C81 0.960 . S
H88 C84 0.960 . S
H89 C84 0.960 . S
H90 C84 0.959 . S
C91 N92 1.317 . S
C91 N93 1.348 1_556 S
C91 C94 1.485 . S
N92 C91 1.317 . S
N92 N96 1.370 1_556 S
N93 C91 1.348 1_554 S
N93 C95 1.346 . S
C94 C91 1.485 . S
C94 H98 0.960 . S
C94 H99 0.961 . S
C94 H100 0.960 . S
C95 N93 1.346 . S
C95 N96 1.307 . S
C95 C97 1.486 . S
N96 N92 1.370 1_554 S
N96 C95 1.307 . S
C97 C95 1.486 . S
C97 H101 0.960 . S
C97 H102 0.960 . S
C97 H103 0.959 . S
H98 C94 0.960 . S
H99 C94 0.961 . S
H100 C94 0.960 . S
H101 C97 0.960 . S
H102 C97 0.960 . S
H103 C97 0.959 . S
C104 C106 1.422 . S
C104 C108 1.415 . S
C104 N110 1.369 . S
C105 C106 1.421 . S
C105 C107 1.417 . S
C105 C117 1.422 . S
C106 C104 1.422 . S
C106 C105 1.421 . S
C106 N116 1.359 . S
C107 C105 1.417 . S
C107 C109 1.329 . S
C107 H126 0.930 1_556 S
C108 C104 1.415 . S
C108 C109 1.437 . S
C108 C112 1.413 . S
C109 C107 1.329 . S
C109 C108 1.437 . S
C109 H131 0.929 . S
N110 C104 1.369 . S
N110 C111 1.338 . S
N110 Gd115 2.622 1_545 S
C111 N110 1.338 . S
C111 C113 1.378 . S
C111 H123 0.929 1_545 S
C112 C108 1.413 . S
C112 C113 1.348 . S
C112 H128 0.931 . S
C113 C111 1.378 . S
C113 C112 1.348 . S
C113 H129 0.930 . S
Gd114 N134 2.622 . S
Gd114 N141 2.570 . S
Gd114 O148 2.353 1_655 S
Gd114 O149 2.468 1_655 S
Gd114 O150 2.427 . S
Gd114 O152 2.388 . S
Gd114 O153 2.386 1_545 S
Gd114 O157 2.307 1_655 S
Gd114 C167 2.805 . S
Gd115 N110 2.622 1_565 S
Gd115 N116 2.570 1_565 S
Gd115 O147 2.386 1_565 S
Gd115 O151 2.307 1_465 S
Gd115 O154 2.353 . S
Gd115 O155 2.468 . S
Gd115 O156 2.427 . S
Gd115 O158 2.387 1_565 S
Gd115 C179 2.805 . S
N116 C106 1.359 . S
N116 Gd115 2.570 1_545 S
N116 C118 1.343 . S
C117 C105 1.422 . S
C117 C119 1.321 . S
C117 H125 0.931 1_556 S
C118 N116 1.343 . S
C118 C119 1.390 . S
C118 H120 0.931 1_455 S
C119 C117 1.321 . S
C119 C118 1.390 . S
C119 H121 0.930 1_455 S
H120 C118 0.931 1_655 S
H121 C119 0.930 1_655 S
H122 C145 0.931 . S
H123 C111 0.929 1_565 S
H124 C146 0.934 . S
H125 C117 0.931 1_554 S
H126 C107 0.930 1_554 S
H127 C136 0.929 . S
H128 C112 0.931 . S
H129 C113 0.930 . S
H130 C168 0.930 . S
H131 C109 0.929 . S
H132 C137 0.938 . S
H133 C138 0.930 . S
N134 Gd114 2.622 . S
N134 C135 1.369 . S
N134 C136 1.338 . S
C135 N134 1.369 . S
C135 C139 1.415 1_545 S
C135 C142 1.422 . S
C136 H127 0.929 . S
C136 N134 1.338 . S
C136 C138 1.378 . S
C137 H132 0.938 . S
C137 C138 1.339 1_565 S
C137 C139 1.415 . S
C138 H133 0.930 . S
C138 C136 1.378 . S
C138 C137 1.339 1_545 S
C139 C135 1.415 1_565 S
C139 C137 1.415 . S
C139 C169 1.437 . S
H140 C169 0.929 . S
N141 Gd114 2.570 . S
N141 C142 1.359 . S
N141 C145 1.343 1_655 S
C142 C135 1.422 . S
C142 N141 1.359 . S
C142 C144 1.421 1_545 S
C143 C144 1.422 . S
C143 C146 1.336 1_655 S
C143 H170 0.931 . S
C144 C142 1.421 1_565 S
C144 C143 1.422 . S
C144 C168 1.417 . S
C145 H122 0.931 . S
C145 N141 1.343 1_455 S
C145 C146 1.373 1_545 S
C146 H124 0.934 . S
C146 C143 1.336 1_455 S
C146 C145 1.373 1_565 S
O147 Gd115 2.386 1_545 S
O147 C159 1.265 . S
O148 Gd114 2.353 1_455 S
O148 C159 1.242 . S
O149 Gd114 2.468 1_455 S
O149 C167 1.263 1_455 S
O150 Gd114 2.427 . S
O150 C167 1.252 . S
O151 Gd115 2.307 1_645 S
O151 C160 1.261 . S
O152 Gd114 2.388 . S
O152 C160 1.252 . S
O153 Gd114 2.386 1_565 S
O153 C171 1.265 . S
O154 Gd115 2.353 . S
O154 C171 1.242 1_455 S
O155 Gd115 2.468 . S
O155 C179 1.263 . S
O156 Gd115 2.427 . S
O156 C179 1.252 . S
O157 Gd114 2.307 1_455 S
O157 C172 1.261 . S
O158 Gd115 2.387 1_545 S
O158 C172 1.254 . S
C159 O147 1.265 . S
C159 O148 1.242 . S
C160 O151 1.261 . S
C160 O152 1.252 . S
C161 C164 1.394 . S
C161 C166 1.370 1_655 S
C161 C167 1.500 . S
C162 C165 1.383 . S
C162 C166 1.395 1_655 S
C163 C164 1.396 . S
C163 C165 1.365 . S
C163 H180 0.929 . S
C164 C161 1.394 . S
C164 C163 1.396 . S
C164 H181 0.930 . S
C165 C162 1.383 . S
C165 C163 1.365 . S
C165 H182 0.931 . S
C166 C161 1.370 1_455 S
C166 C162 1.395 1_455 S
C166 H183 0.930 . S
C167 Gd114 2.805 . S
C167 O149 1.263 1_655 S
C167 O150 1.252 . S
C167 C161 1.500 . S
C168 H130 0.930 . S
C168 C144 1.417 . S
C168 C169 1.329 . S
C169 C139 1.437 . S
C169 H140 0.929 . S
C169 C168 1.329 . S
H170 C143 0.931 . S
C171 O153 1.265 . S
C171 O154 1.242 1_655 S
C172 O157 1.261 . S
C172 O158 1.254 . S
C173 C176 1.394 . S
C173 C178 1.370 . S
C173 C179 1.500 . S
C174 C177 1.383 . S
C174 C178 1.395 . S
C175 C176 1.396 . S
C175 C177 1.365 . S
C175 H184 0.929 . S
C176 C173 1.394 . S
C176 C175 1.396 . S
C176 H185 0.930 . S
C177 C174 1.383 . S
C177 C175 1.365 . S
C177 H186 0.931 . S
C178 C173 1.370 . S
C178 C174 1.395 . S
C178 H187 0.930 . S
C179 Gd115 2.805 . S
C179 O155 1.263 . S
C179 O156 1.252 . S
C179 C173 1.500 . S
H180 C163 0.929 . S
H181 C164 0.930 . S
H182 C165 0.931 . S
H183 C166 0.930 . S
H184 C175 0.929 . S
H185 C176 0.930 . S
H186 C177 0.931 . S
H187 C178 0.930 . S
C188 C190 1.422 . S
C188 C192 1.415 . S
C188 N194 1.369 . S
C189 C190 1.421 . S
C189 C191 1.417 . S
C189 C201 1.422 . S
C190 C188 1.422 . S
C190 C189 1.421 . S
C190 N200 1.359 . S
C191 C189 1.417 . S
C191 C193 1.329 . S
C191 H210 0.930 . S
C192 C188 1.415 . S
C192 C193 1.437 . S
C192 C196 1.413 . S
C193 C191 1.329 . S
C193 C192 1.437 . S
C193 H215 0.929 . S
N194 C188 1.369 . S
N194 C195 1.338 . S
N194 Gd199 2.622 . S
C195 N194 1.338 . S
C195 C197 1.378 . S
C195 H207 0.929 . S
C196 C192 1.413 . S
C196 C197 1.348 . S
C196 H212 0.931 . S
C197 C195 1.378 . S
C197 C196 1.348 . S
C197 H213 0.930 . S
Gd198 N218 2.622 . S
Gd198 N225 2.570 . S
Gd198 O232 2.353 1_545 S
Gd198 O233 2.468 . S
Gd198 O234 2.427 . S
Gd198 O236 2.388 . S
Gd198 O237 2.386 . S
Gd198 O241 2.307 . S
Gd198 C251 2.805 . S
Gd199 N194 2.622 . S
Gd199 N200 2.570 . S
Gd199 O231 2.386 . S
Gd199 O235 2.307 1_565 S
Gd199 O238 2.353 1_565 S
Gd199 O239 2.466 1_565 S
Gd199 O240 2.427 . S
Gd199 O242 2.388 . S
Gd199 C263 2.805 . S
N200 C190 1.359 . S
N200 Gd199 2.570 . S
N200 C202 1.343 . S
C201 C189 1.422 . S
C201 C203 1.321 . S
C201 H209 0.931 . S
C202 N200 1.343 . S
C202 C203 1.390 . S
C202 H204 0.931 . S
C203 C201 1.321 . S
C203 C202 1.390 . S
C203 H205 0.930 . S
H204 C202 0.931 . S
H205 C203 0.930 . S
H206 C229 0.931 . S
H207 C195 0.929 . S
H208 C230 0.930 . S
H209 C201 0.931 . S
H210 C191 0.930 . S
H211 C220 0.929 . S
H212 C196 0.931 . S
H213 C197 0.930 . S
H214 C252 0.930 . S
H215 C193 0.929 . S
H216 C221 0.931 . S
H217 C222 0.930 . S
N218 Gd198 2.622 . S
N218 C219 1.369 . S
N218 C220 1.338 . S
C219 N218 1.369 . S
C219 C223 1.415 . S
C219 C226 1.422 . S
C220 H211 0.929 . S
C220 N218 1.338 . S
C220 C222 1.378 . S
C221 H216 0.931 . S
C221 C222 1.348 . S
C221 C223 1.413 . S
C222 H217 0.930 . S
C222 C220 1.378 . S
C222 C221 1.348 . S
C223 C219 1.415 . S
C223 C221 1.413 . S
C223 C253 1.437 . S
H224 C253 0.929 . S
N225 Gd198 2.570 . S
N225 C226 1.359 . S
N225 C229 1.343 . S
C226 C219 1.422 . S
C226 N225 1.359 . S
C226 C228 1.421 . S
C227 C228 1.422 . S
C227 C230 1.321 . S
C227 H254 0.931 . S
C228 C226 1.421 . S
C228 C227 1.422 . S
C228 C252 1.417 . S
C229 H206 0.931 . S
C229 N225 1.343 . S
C229 C230 1.390 . S
C230 H208 0.930 . S
C230 C227 1.321 . S
C230 C229 1.390 . S
O231 Gd199 2.386 . S
O231 C243 1.265 . S
O232 Gd198 2.353 1_565 S
O232 C243 1.242 . S
O233 Gd198 2.468 . S
O233 C251 1.263 . S
O234 Gd198 2.427 . S
O234 C251 1.252 . S
O235 Gd199 2.307 1_545 S
O235 C244 1.261 . S
O236 Gd198 2.388 . S
O236 C244 1.252 . S
O237 Gd198 2.386 . S
O237 C255 1.265 . S
O238 Gd199 2.353 1_545 S
O238 C255 1.242 . S
O239 Gd199 2.466 1_545 S
O239 C263 1.262 1_545 S
O240 Gd199 2.427 . S
O240 C263 1.252 . S
O241 Gd198 2.307 . S
O241 C256 1.261 . S
O242 Gd199 2.388 . S
O242 C256 1.252 1_565 S
C243 O231 1.265 . S
C243 O232 1.242 . S
C244 O235 1.261 . S
C244 O236 1.252 . S
C245 C248 1.394 . S
C245 C250 1.370 . S
C245 C251 1.500 . S
C246 C249 1.383 1_556 S
C246 C250 1.395 . S
C247 C248 1.396 1_554 S
C247 C249 1.365 . S
C247 H264 0.929 . S
C248 C245 1.394 . S
C248 C247 1.396 1_556 S
C248 H265 0.930 . S
C249 C246 1.383 1_554 S
C249 C247 1.365 . S
C249 H266 0.931 . S
C250 C245 1.370 . S
C250 C246 1.395 . S
C250 H267 0.930 . S
C251 Gd198 2.805 . S
C251 O233 1.263 . S
C251 O234 1.252 . S
C251 C245 1.500 . S
C252 H214 0.930 . S
C252 C228 1.417 . S
C252 C253 1.329 . S
C253 C223 1.437 . S
C253 H224 0.929 . S
C253 C252 1.329 . S
H254 C227 0.931 . S
C255 O237 1.265 . S
C255 O238 1.242 . S
C256 O241 1.261 . S
C256 O242 1.252 1_545 S
C257 C260 1.392 1_545 S
C257 C262 1.372 . S
C257 C263 1.499 1_545 S
C258 C261 1.383 . S
C258 C262 1.395 . S
C259 C260 1.396 . S
C259 C261 1.365 1_565 S
C259 H268 0.929 . S
C260 C257 1.392 1_565 S
C260 C259 1.396 . S
C260 H269 0.930 . S
C261 C258 1.383 . S
C261 C259 1.365 1_545 S
C261 H270 0.931 . S
C262 C257 1.372 . S
C262 C258 1.395 . S
C262 H271 0.930 . S
C263 Gd199 2.805 . S
C263 O239 1.262 1_565 S
C263 O240 1.252 . S
C263 C257 1.499 1_565 S
H264 C247 0.929 . S
H265 C248 0.930 . S
H266 C249 0.931 . S
H267 C250 0.930 . S
H268 C259 0.929 . S
H269 C260 0.930 . S
H270 C261 0.931 . S
H271 C262 0.930 . S
C272 C274 1.422 . S
C272 C276 1.415 . S
C272 N278 1.369 . S
C273 C274 1.421 . S
C273 C275 1.417 . S
C273 C285 1.422 . S
C274 C272 1.422 . S
C274 C273 1.421 . S
C274 N284 1.359 . S
C275 C273 1.417 . S
C275 C277 1.329 . S
C275 H294 0.930 1_556 S
C276 C272 1.415 . S
C276 C277 1.437 . S
C276 C280 1.413 . S
C277 C275 1.329 . S
C277 C276 1.437 . S
C277 H299 0.929 . S
N278 C272 1.369 . S
N278 C279 1.338 . S
N278 Gd283 2.622 . S
C279 N278 1.338 . S
C279 C281 1.378 . S
C279 H291 0.929 . S
C280 C276 1.413 . S
C280 C281 1.348 . S
C280 H296 0.931 . S
C281 C279 1.378 . S
C281 C280 1.348 . S
C281 H297 0.930 . S
Gd282 N302 2.622 . S
Gd282 N309 2.570 . S
Gd282 O316 2.353 . S
Gd282 O317 2.468 . S
Gd282 O318 2.427 . S
Gd282 O320 2.388 . S
Gd282 O321 2.386 . S
Gd282 O325 2.307 . S
Gd282 C335 2.805 . S
Gd283 N278 2.622 . S
Gd283 N284 2.570 . S
Gd283 O315 2.386 . S
Gd283 O319 2.307 . S
Gd283 O322 2.353 . S
Gd283 O323 2.468 . S
Gd283 O324 2.427 . S
Gd283 O326 2.388 . S
Gd283 C347 2.805 . S
N284 C274 1.359 . S
N284 Gd283 2.570 . S
N284 C286 1.343 . S
C285 C273 1.422 . S
C285 C287 1.321 . S
C285 H293 0.931 1_556 S
C286 N284 1.343 . S
C286 C287 1.390 . S
C286 H288 0.931 . S
C287 C285 1.321 . S
C287 C286 1.390 . S
C287 H289 0.930 . S
H288 C286 0.931 . S
H289 C287 0.930 . S
H290 C313 0.931 . S
H291 C279 0.929 . S
H292 C314 0.930 . S
H293 C285 0.931 1_554 S
H294 C275 0.930 1_554 S
H295 C304 0.929 . S
H296 C280 0.931 . S
H297 C281 0.930 . S
H298 C336 0.930 . S
H299 C277 0.929 . S
H300 C305 0.931 . S
H301 C306 0.930 . S
N302 Gd282 2.622 . S
N302 C303 1.369 . S
N302 C304 1.338 . S
C303 N302 1.369 . S
C303 C307 1.415 . S
C303 C310 1.422 . S
C304 H295 0.929 . S
C304 N302 1.338 . S
C304 C306 1.378 . S
C305 H300 0.931 . S
C305 C306 1.348 . S
C305 C307 1.413 . S
C306 H301 0.930 . S
C306 C304 1.378 . S
C306 C305 1.348 . S
C307 C303 1.415 . S
C307 C305 1.413 . S
C307 C337 1.437 . S
H308 C337 0.929 . S
N309 Gd282 2.570 . S
N309 C310 1.359 . S
N309 C313 1.343 . S
C310 C303 1.422 . S
C310 N309 1.359 . S
C310 C312 1.421 . S
C311 C312 1.422 . S
C311 C314 1.321 . S
C311 H338 0.931 . S
C312 C310 1.421 . S
C312 C311 1.422 . S
C312 C336 1.417 . S
C313 H290 0.931 . S
C313 N309 1.343 . S
C313 C314 1.390 . S
C314 H292 0.930 . S
C314 C311 1.321 . S
C314 C313 1.390 . S
O315 Gd283 2.386 . S
O315 C327 1.265 . S
O316 Gd282 2.353 . S
O316 C327 1.242 . S
O317 Gd282 2.468 . S
O317 C335 1.263 . S
O318 Gd282 2.427 . S
O318 C335 1.252 . S
O319 Gd283 2.307 . S
O319 C328 1.261 . S
O320 Gd282 2.388 . S
O320 C328 1.252 . S
O321 Gd282 2.386 . S
O321 C339 1.265 . S
O322 Gd283 2.353 . S
O322 C339 1.242 . S
O323 Gd283 2.468 . S
O323 C347 1.263 . S
O324 Gd283 2.427 . S
O324 C347 1.252 . S
O325 Gd282 2.307 . S
O325 C340 1.261 . S
O326 Gd283 2.388 . S
O326 C340 1.252 . S
C327 O315 1.265 . S
C327 O316 1.242 . S
C328 O319 1.261 . S
C328 O320 1.252 . S
C329 C332 1.394 . S
C329 C334 1.370 . S
C329 C335 1.500 . S
C330 C333 1.383 . S
C330 C334 1.395 . S
C331 C332 1.396 . S
C331 C333 1.365 . S
C331 H348 0.929 . S
C332 C329 1.394 . S
C332 C331 1.396 . S
C332 H349 0.930 . S
C333 C330 1.383 . S
C333 C331 1.365 . S
C333 H350 0.931 . S
C334 C329 1.370 . S
C334 C330 1.395 . S
C334 H351 0.930 . S
C335 Gd282 2.805 . S
C335 O317 1.263 . S
C335 O318 1.252 . S
C335 C329 1.500 . S
C336 H298 0.930 . S
C336 C312 1.417 . S
C336 C337 1.329 . S
C337 C307 1.437 . S
C337 H308 0.929 . S
C337 C336 1.329 . S
H338 C311 0.931 . S
C339 O321 1.265 . S
C339 O322 1.242 . S
C340 O325 1.261 . S
C340 O326 1.252 . S
C341 C344 1.394 . S
C341 C346 1.370 . S
C341 C347 1.500 . S
C342 C345 1.383 . S
C342 C346 1.395 . S
C343 C344 1.396 . S
C343 C345 1.365 . S
C343 H352 0.929 . S
C344 C341 1.394 . S
C344 C343 1.396 . S
C344 H353 0.930 . S
C345 C342 1.383 . S
C345 C343 1.365 . S
C345 H354 0.931 . S
C346 C341 1.370 . S
C346 C342 1.395 . S
C346 H355 0.930 . S
C347 Gd283 2.805 . S
C347 O323 1.263 . S
C347 O324 1.252 . S
C347 C341 1.500 . S
H348 C331 0.929 . S
H349 C332 0.930 . S
H350 C333 0.931 . S
H351 C334 0.930 . S
H352 C343 0.929 . S
H353 C344 0.930 . S
H354 C345 0.931 . S
H355 C346 0.930 . S
C356 C358 1.422 . S
C356 C360 1.415 . S
C356 N362 1.369 . S
C357 C358 1.421 . S
C357 C359 1.417 . S
C357 C369 1.422 . S
C358 C356 1.422 . S
C358 C357 1.421 . S
C358 N368 1.359 . S
C359 C357 1.417 . S
C359 C361 1.329 . S
C359 H378 0.930 1_556 S
C360 C356 1.415 . S
C360 C361 1.437 . S
C360 C364 1.413 . S
C361 C359 1.329 . S
C361 C360 1.437 . S
C361 H383 0.929 . S
N362 C356 1.369 . S
N362 C363 1.335 1_455 S
N362 Gd367 2.622 1_455 S
C363 N362 1.335 1_655 S
C363 C365 1.369 1_655 S
C363 H375 0.943 . S
C364 C360 1.413 . S
C364 C365 1.348 . S
C364 H380 0.931 . S
C365 C363 1.369 1_455 S
C365 C364 1.348 . S
C365 H381 0.930 . S
Gd366 N386 2.622 . S
Gd366 N393 2.570 . S
Gd366 O400 2.353 . S
Gd366 O401 2.468 . S
Gd366 O402 2.427 . S
Gd366 O404 2.388 . S
Gd366 O405 2.386 1_455 S
Gd366 O409 2.307 . S
Gd366 C419 2.805 . S
Gd367 N362 2.622 1_655 S
Gd367 N368 2.570 1_655 S
Gd367 O399 2.386 1_655 S
Gd367 O403 2.307 1_655 S
Gd367 O406 2.353 . S
Gd367 O407 2.468 . S
Gd367 O408 2.427 . S
Gd367 O410 2.388 . S
Gd367 C431 2.805 . S
N368 C358 1.359 . S
N368 Gd367 2.570 1_455 S
N368 C370 1.343 . S
C369 C357 1.422 . S
C369 C371 1.321 . S
C369 H377 0.931 1_556 S
C370 N368 1.343 . S
C370 C371 1.390 . S
C370 H372 0.931 . S
C371 C369 1.321 . S
C371 C370 1.390 . S
C371 H373 0.930 . S
H372 C370 0.931 . S
H373 C371 0.930 . S
H374 C397 0.931 . S
H375 C363 0.943 . S
H376 C398 0.930 . S
H377 C369 0.931 1_554 S
H378 C359 0.930 1_554 S
H379 C388 0.929 . S
H380 C364 0.931 . S
H381 C365 0.930 . S
H382 C420 0.930 . S
H383 C361 0.929 . S
H384 C389 0.931 . S
H385 C390 0.930 . S
N386 Gd366 2.622 . S
N386 C387 1.369 . S
N386 C388 1.338 . S
C387 N386 1.369 . S
C387 C391 1.415 1_455 S
C387 C394 1.422 . S
C388 H379 0.929 . S
C388 N386 1.338 . S
C388 C390 1.378 . S
C389 H384 0.931 . S
C389 C390 1.348 1_655 S
C389 C391 1.413 . S
C390 H385 0.930 . S
C390 C388 1.378 . S
C390 C389 1.348 1_455 S
C391 C387 1.415 1_655 S
C391 C389 1.413 . S
C391 C421 1.437 . S
H392 C421 0.929 . S
N393 Gd366 2.570 . S
N393 C394 1.359 . S
N393 C397 1.343 . S
C394 C387 1.422 . S
C394 N393 1.359 . S
C394 C396 1.421 1_455 S
C395 C396 1.422 . S
C395 C398 1.321 . S
C395 H422 0.931 . S
C396 C394 1.421 1_655 S
C396 C395 1.422 . S
C396 C420 1.417 . S
C397 H374 0.931 . S
C397 N393 1.343 . S
C397 C398 1.390 1_455 S
C398 H376 0.930 . S
C398 C395 1.321 . S
C398 C397 1.390 1_655 S
O399 Gd367 2.386 1_455 S
O399 C411 1.265 . S
O400 Gd366 2.353 . S
O400 C411 1.242 . S
O401 Gd366 2.468 . S
O401 C419 1.263 . S
O402 Gd366 2.427 . S
O402 C419 1.252 . S
O403 Gd367 2.307 1_455 S
O403 C412 1.261 . S
O404 Gd366 2.388 . S
O404 C412 1.252 . S
O405 Gd366 2.386 1_655 S
O405 C423 1.265 . S
O406 Gd367 2.353 . S
O406 C423 1.242 . S
O407 Gd367 2.468 . S
O407 C431 1.263 . S
O408 Gd367 2.427 . S
O408 C431 1.252 . S
O409 Gd366 2.307 . S
O409 C424 1.261 . S
O410 Gd367 2.388 . S
O410 C424 1.252 1_655 S
C411 O399 1.265 . S
C411 O400 1.242 . S
C412 O403 1.261 . S
C412 O404 1.252 . S
C413 C416 1.394 . S
C413 C418 1.370 . S
C413 C419 1.500 . S
C414 C417 1.383 . S
C414 C418 1.395 . S
C415 C416 1.396 . S
C415 C417 1.365 . S
C415 H432 0.929 . S
C416 C413 1.394 . S
C416 C415 1.396 . S
C416 H433 0.930 . S
C417 C414 1.383 . S
C417 C415 1.365 . S
C417 H434 0.931 . S
C418 C413 1.370 . S
C418 C414 1.395 . S
C418 H435 0.930 . S
C419 Gd366 2.805 . S
C419 O401 1.263 . S
C419 O402 1.252 . S
C419 C413 1.500 . S
C420 H382 0.930 . S
C420 C396 1.417 . S
C420 C421 1.329 . S
C421 C391 1.437 . S
C421 H392 0.929 . S
C421 C420 1.329 . S
H422 C395 0.931 . S
C423 O405 1.265 . S
C423 O406 1.242 . S
C424 O409 1.261 . S
C424 O410 1.252 1_455 S
C425 C428 1.394 . S
C425 C430 1.370 . S
C425 C431 1.500 . S
C426 C429 1.383 . S
C426 C430 1.395 . S
C427 C428 1.396 . S
C427 C429 1.365 . S
C427 H436 0.929 . S
C428 C425 1.394 . S
C428 C427 1.396 . S
C428 H437 0.930 . S
C429 C426 1.383 . S
C429 C427 1.365 . S
C429 H438 0.931 . S
C430 C425 1.370 . S
C430 C426 1.395 . S
C430 H439 0.930 . S
C431 Gd367 2.805 . S
C431 O407 1.263 . S
C431 O408 1.252 . S
C431 C425 1.500 . S
H432 C415 0.929 . S
H433 C416 0.930 . S
H434 C417 0.931 . S
H435 C418 0.930 . S
H436 C427 0.929 . S
H437 C428 0.930 . S
H438 C429 0.931 . S
H439 C430 0.930 . S
H440 C458 0.951 . S
H441 C460 0.951 . S
H442 C462 0.950 . S
H443 C463 0.950 . S
H444 C465 0.950 . S
H445 C468 0.950 . S
H446 C469 0.950 . S
H447 C471 0.950 . S
H448 C472 0.950 . S
H449 C473 0.951 . S
H450 C475 0.951 . S
H451 C477 0.950 . S
H452 C478 0.950 . S
H453 C480 0.950 . S
H454 C483 0.950 . S
H455 C484 0.950 . S
H456 C486 0.950 . S
H457 C487 0.950 . S
C458 H440 0.951 . S
C458 C459 1.366 . S
C458 C460 1.388 . S
C459 C458 1.366 . S
C459 C463 1.385 . S
C460 H441 0.951 . S
C460 C458 1.388 . S
C460 C461 1.366 . S
C461 C460 1.366 . S
C461 C462 1.414 . S
C461 C464 1.499 . S
C462 H442 0.950 . S
C462 C461 1.414 . S
C462 C463 1.374 . S
C463 H443 0.950 . S
C463 C459 1.385 . S
C463 C462 1.374 . S
C464 C461 1.499 . S
C464 C465 1.373 . S
C464 C466 1.389 . S
C465 H444 0.950 . S
C465 C464 1.373 . S
C465 C481 1.377 . S
C466 C464 1.389 . S
C466 C467 1.524 . S
C466 C480 1.377 . S
C467 C466 1.524 . S
C467 C468 1.397 . S
C467 C472 1.363 . S
C468 H445 0.950 . S
C468 C467 1.397 . S
C468 C469 1.334 . S
C469 H446 0.950 . S
C469 C468 1.334 . S
C469 C470 1.287 . S
C470 C469 1.287 . S
C470 C471 1.524 . S
C470 H489 0.913 . S
C471 H447 0.950 . S
C471 C470 1.524 . S
C471 C472 1.415 . S
C472 H448 0.950 . S
C472 C467 1.363 . S
C472 C471 1.415 . S
C473 H449 0.951 . S
C473 C474 1.366 . S
C473 C475 1.388 . S
C474 C473 1.366 . S
C474 C478 1.385 . S
C475 H450 0.951 . S
C475 C473 1.388 . S
C475 C476 1.366 . S
C476 C475 1.366 . S
C476 C477 1.414 . S
C476 C479 1.499 . S
C477 H451 0.950 . S
C477 C476 1.414 . S
C477 C478 1.374 . S
C478 H452 0.950 . S
C478 C474 1.385 . S
C478 C477 1.374 . S
C479 C476 1.499 . S
C479 C480 1.373 . S
C479 C481 1.389 . S
C480 H453 0.950 . S
C480 C466 1.377 . S
C480 C479 1.373 . S
C481 C465 1.377 . S
C481 C479 1.389 . S
C481 C482 1.523 . S
C482 C481 1.523 . S
C482 C483 1.398 1_545 S
C482 C487 1.363 . S
C483 H454 0.950 . S
C483 C482 1.398 1_565 S
C483 C484 1.334 . S
C484 H455 0.950 . S
C484 C483 1.334 . S
C484 C485 1.287 . S
C485 C484 1.287 . S
C485 C486 1.524 . S
C485 H488 0.999 . S
C486 H456 0.950 . S
C486 C485 1.524 . S
C486 C487 1.415 1_565 S
C487 H457 0.950 . S
C487 C482 1.363 . S
C487 C486 1.415 1_545 S
H488 C485 0.999 . S
H489 C470 0.913 . S
H490 C508 0.951 . S
H491 C510 0.951 . S
H492 C512 0.950 . S
H493 C513 0.950 . S
H494 C515 0.950 . S
H495 C518 0.950 . S
H496 C519 0.950 . S
H497 C521 0.950 . S
H498 C522 0.950 . S
H499 C523 0.951 . S
H500 C525 0.951 . S
H501 C527 0.950 . S
H502 C528 0.950 . S
H503 C530 0.950 . S
H504 C533 0.950 . S
H505 C534 0.950 . S
H506 C536 0.950 . S
H507 C537 0.950 . S
C508 H490 0.951 . S
C508 C509 1.366 . S
C508 C510 1.388 . S
C509 C508 1.366 . S
C509 C513 1.385 . S
C510 H491 0.951 . S
C510 C508 1.388 . S
C510 C511 1.366 . S
C511 C510 1.366 . S
C511 C512 1.414 . S
C511 C514 1.499 . S
C512 H492 0.950 . S
C512 C511 1.414 . S
C512 C513 1.374 . S
C513 H493 0.950 . S
C513 C509 1.385 . S
C513 C512 1.374 . S
C514 C511 1.499 . S
C514 C515 1.373 . S
C514 C516 1.389 . S
C515 H494 0.950 . S
C515 C514 1.373 . S
C515 C531 1.377 . S
C516 C514 1.389 . S
C516 C517 1.524 . S
C516 C530 1.377 . S
C517 C516 1.524 . S
C517 C518 1.397 . S
C517 C522 1.363 . S
C518 H495 0.950 . S
C518 C517 1.397 . S
C518 C519 1.334 . S
C519 H496 0.950 . S
C519 C518 1.334 . S
C519 C520 1.287 . S
C520 C519 1.287 . S
C520 C521 1.524 . S
C520 H539 0.913 . S
C521 H497 0.950 . S
C521 C520 1.524 . S
C521 C522 1.415 . S
C522 H498 0.950 . S
C522 C517 1.363 . S
C522 C521 1.415 . S
C523 H499 0.951 . S
C523 C524 1.366 . S
C523 C525 1.388 . S
C524 C523 1.366 . S
C524 C528 1.385 . S
C525 H500 0.951 . S
C525 C523 1.388 . S
C525 C526 1.366 . S
C526 C525 1.366 . S
C526 C527 1.414 . S
C526 C529 1.499 . S
C527 H501 0.950 . S
C527 C526 1.414 . S
C527 C528 1.374 . S
C528 H502 0.950 . S
C528 C524 1.385 . S
C528 C527 1.374 . S
C529 C526 1.499 . S
C529 C530 1.373 . S
C529 C531 1.389 . S
C530 H503 0.950 . S
C530 C516 1.377 . S
C530 C529 1.373 . S
C531 C515 1.377 . S
C531 C529 1.389 . S
C531 C532 1.524 . S
C532 C531 1.524 . S
C532 C533 1.397 . S
C532 C537 1.363 . S
C533 H504 0.950 . S
C533 C532 1.397 . S
C533 C534 1.334 . S
C534 H505 0.950 . S
C534 C533 1.334 . S
C534 C535 1.287 . S
C535 C534 1.287 . S
C535 C536 1.524 . S
C535 H538 0.999 . S
C536 H506 0.950 . S
C536 C535 1.524 . S
C536 C537 1.415 . S
C537 H507 0.950 . S
C537 C532 1.363 . S
C537 C536 1.415 . S
H538 C535 0.999 . S
H539 C520 0.913 . S
H540 C558 0.951 . S
H541 C560 0.951 . S
H542 C562 0.950 . S
H543 C563 0.950 . S
H544 C565 0.950 . S
H545 C568 0.950 . S
H546 C569 0.950 . S
H547 C571 0.950 . S
H548 C572 0.950 . S
H549 C573 0.951 . S
H550 C575 0.951 . S
H551 C577 0.950 . S
H552 C578 0.950 . S
H553 C580 0.950 . S
H554 C583 0.950 . S
H555 C584 0.950 . S
H556 C586 0.950 . S
H557 C587 0.950 . S
C558 H540 0.951 . S
C558 C559 1.366 . S
C558 C560 1.388 . S
C559 C558 1.366 . S
C559 C563 1.385 . S
C560 H541 0.951 . S
C560 C558 1.388 . S
C560 C561 1.366 . S
C561 C560 1.366 . S
C561 C562 1.414 . S
C561 C564 1.499 . S
C562 H542 0.950 . S
C562 C561 1.414 . S
C562 C563 1.374 . S
C563 H543 0.950 . S
C563 C559 1.385 . S
C563 C562 1.374 . S
C564 C561 1.499 . S
C564 C565 1.373 . S
C564 C566 1.389 . S
C565 H544 0.950 . S
C565 C564 1.373 . S
C565 C581 1.377 . S
C566 C564 1.389 . S
C566 C567 1.524 . S
C566 C580 1.377 . S
C567 C566 1.524 . S
C567 C568 1.397 . S
C567 C572 1.363 . S
C568 H545 0.950 . S
C568 C567 1.397 . S
C568 C569 1.334 . S
C569 H546 0.950 . S
C569 C568 1.334 . S
C569 C570 1.287 . S
C570 C569 1.287 . S
C570 C571 1.524 . S
C570 H589 0.913 . S
C571 H547 0.950 . S
C571 C570 1.524 . S
C571 C572 1.415 . S
C572 H548 0.950 . S
C572 C567 1.363 . S
C572 C571 1.415 . S
C573 H549 0.951 . S
C573 C574 1.366 . S
C573 C575 1.388 . S
C574 C573 1.366 . S
C574 C578 1.385 . S
C575 H550 0.951 . S
C575 C573 1.388 . S
C575 C576 1.366 . S
C576 C575 1.366 . S
C576 C577 1.414 . S
C576 C579 1.499 . S
C577 H551 0.950 . S
C577 C576 1.414 . S
C577 C578 1.374 . S
C578 H552 0.950 . S
C578 C574 1.385 . S
C578 C577 1.374 . S
C579 C576 1.499 . S
C579 C580 1.373 . S
C579 C581 1.389 . S
C580 H553 0.950 . S
C580 C566 1.377 . S
C580 C579 1.373 . S
C581 C565 1.377 . S
C581 C579 1.389 . S
C581 C582 1.524 . S
C582 C581 1.524 . S
C582 C583 1.397 . S
C582 C587 1.363 . S
C583 H554 0.950 . S
C583 C582 1.397 . S
C583 C584 1.334 . S
C584 H555 0.950 . S
C584 C583 1.334 . S
C584 C585 1.287 . S
C585 C584 1.287 . S
C585 C586 1.524 . S
C585 H588 0.999 . S
C586 H556 0.950 . S
C586 C585 1.524 . S
C586 C587 1.415 . S
C587 H557 0.950 . S
C587 C582 1.363 . S
C587 C586 1.415 . S
H588 C585 0.999 . S
H589 C570 0.913 . S
H590 C608 0.951 . S
H591 C610 0.951 . S
H592 C612 0.950 . S
H593 C613 0.950 . S
H594 C615 0.950 . S
H595 C618 0.950 . S
H596 C619 0.950 . S
H597 C621 0.950 . S
H598 C622 0.950 . S
H599 C623 0.951 . S
H600 C625 0.951 . S
H601 C627 0.950 1_655 S
H602 C628 0.989 . S
H603 C630 0.950 1_655 S
H604 C633 0.950 . S
H605 C634 0.950 . S
H606 C636 0.950 . S
H607 C637 0.950 . S
C608 H590 0.951 . S
C608 C609 1.366 . S
C608 C610 1.388 . S
C609 C608 1.366 . S
C609 C613 1.385 . S
C610 H591 0.951 . S
C610 C608 1.388 . S
C610 C611 1.366 . S
C611 C610 1.366 . S
C611 C612 1.414 . S
C611 C614 1.499 . S
C612 H592 0.950 . S
C612 C611 1.414 . S
C612 C613 1.374 . S
C613 H593 0.950 . S
C613 C609 1.385 . S
C613 C612 1.374 . S
C614 C611 1.499 . S
C614 C615 1.373 . S
C614 C616 1.389 . S
C615 H594 0.950 . S
C615 C614 1.373 . S
C615 C631 1.377 . S
C616 C614 1.389 . S
C616 C617 1.524 1_455 S
C616 C630 1.377 . S
C617 C616 1.524 1_655 S
C617 C618 1.397 1_655 S
C617 C622 1.363 . S
C618 H595 0.950 . S
C618 C617 1.397 1_455 S
C618 C619 1.334 1_455 S
C619 H596 0.950 . S
C619 C618 1.334 1_655 S
C619 C620 1.287 . S
C620 C619 1.287 . S
C620 C621 1.524 . S
C620 H639 0.913 . S
C621 H597 0.950 . S
C621 C620 1.524 . S
C621 C622 1.415 . S
C622 H598 0.950 . S
C622 C617 1.363 . S
C622 C621 1.415 . S
C623 H599 0.951 . S
C623 C624 1.366 . S
C623 C625 1.388 . S
C624 C623 1.366 . S
C624 C628 1.352 1_455 S
C625 H600 0.951 . S
C625 C623 1.388 . S
C625 C626 1.366 . S
C626 C625 1.366 . S
C626 C627 1.414 . S
C626 C629 1.499 . S
C627 H601 0.950 1_455 S
C627 C626 1.414 . S
C627 C628 1.369 1_455 S
C628 H602 0.989 . S
C628 C624 1.352 1_655 S
C628 C627 1.369 1_655 S
C629 C626 1.499 . S
C629 C630 1.373 . S
C629 C631 1.389 . S
C630 H603 0.950 1_455 S
C630 C616 1.377 . S
C630 C629 1.373 . S
C631 C615 1.377 . S
C631 C629 1.389 . S
C631 C632 1.524 . S
C632 C631 1.524 . S
C632 C633 1.397 . S
C632 C637 1.363 . S
C633 H604 0.950 . S
C633 C632 1.397 . S
C633 C634 1.334 . S
C634 H605 0.950 . S
C634 C633 1.334 . S
C634 C635 1.287 . S
C635 C634 1.287 . S
C635 C636 1.524 . S
C635 H638 0.999 . S
C636 H606 0.950 . S
C636 C635 1.524 . S
C636 C637 1.415 . S
C637 H607 0.950 . S
C637 C632 1.363 . S
C637 C636 1.415 . S
H638 C635 0.999 . S
H639 C620 0.913 . S
H640 C658 0.951 . S
H641 C660 0.951 . S
H642 C662 0.950 . S
H643 C663 0.950 . S
H644 C665 0.950 . S
H645 C668 0.950 . S
H646 C669 0.950 . S
H647 C671 0.950 . S
H648 C672 0.950 . S
H649 C673 0.951 . S
H650 C675 0.951 . S
H651 C677 0.950 . S
H652 C678 0.950 . S
H653 C680 0.950 . S
H654 C683 0.950 . S
H655 C684 0.950 . S
H656 C686 0.950 . S
H657 C687 0.950 . S
C658 H640 0.951 . S
C658 C659 1.366 . S
C658 C660 1.388 . S
C659 C658 1.366 . S
C659 C663 1.385 . S
C660 H641 0.951 . S
C660 C658 1.388 . S
C660 C661 1.366 . S
C661 C660 1.366 . S
C661 C662 1.414 . S
C661 C664 1.499 . S
C662 H642 0.950 . S
C662 C661 1.414 . S
C662 C663 1.374 . S
C663 H643 0.950 . S
C663 C659 1.385 . S
C663 C662 1.374 . S
C664 C661 1.499 . S
C664 C665 1.373 1_554 S
C664 C666 1.389 1_565 S
C665 H644 0.950 . S
C665 C664 1.373 1_556 S
C665 C681 1.377 . S
C666 C664 1.389 1_545 S
C666 C667 1.524 . S
C666 C680 1.377 1_554 S
C667 C666 1.524 . S
C667 C668 1.397 . S
C667 C672 1.363 . S
C668 H645 0.950 . S
C668 C667 1.397 . S
C668 C669 1.334 . S
C669 H646 0.950 . S
C669 C668 1.334 . S
C669 C670 1.287 . S
C670 C669 1.287 . S
C670 C671 1.524 . S
C670 H689 0.913 . S
C671 H647 0.950 . S
C671 C670 1.524 . S
C671 C672 1.415 . S
C672 H648 0.950 . S
C672 C667 1.363 . S
C672 C671 1.415 . S
C673 H649 0.951 . S
C673 C674 1.366 1_565 S
C673 C675 1.388 . S
C674 C673 1.366 1_545 S
C674 C678 1.385 . S
C675 H650 0.951 . S
C675 C673 1.388 . S
C675 C676 1.366 . S
C676 C675 1.366 . S
C676 C677 1.414 1_565 S
C676 C679 1.499 . S
C677 H651 0.950 . S
C677 C676 1.414 1_545 S
C677 C678 1.374 . S
C678 H652 0.950 . S
C678 C674 1.385 . S
C678 C677 1.374 . S
C679 C676 1.499 . S
C679 C680 1.373 1_565 S
C679 C681 1.389 . S
C680 H653 0.950 . S
C680 C666 1.377 1_556 S
C680 C679 1.373 1_545 S
C681 C665 1.377 . S
C681 C679 1.389 . S
C681 C682 1.524 . S
C682 C681 1.524 . S
C682 C683 1.397 . S
C682 C687 1.363 . S
C683 H654 0.950 . S
C683 C682 1.397 . S
C683 C684 1.334 . S
C684 H655 0.950 . S
C684 C683 1.334 . S
C684 C685 1.287 . S
C685 C684 1.287 . S
C685 C686 1.524 . S
C685 H688 0.999 . S
C686 H656 0.950 . S
C686 C685 1.524 . S
C686 C687 1.415 . S
C687 H657 0.950 . S
C687 C682 1.363 . S
C687 C686 1.415 . S
H688 C685 0.999 . S
H689 C670 0.913 . S
H690 C708 0.951 . S
H691 C710 0.951 . S
H692 C712 0.950 . S
H693 C713 0.950 . S
H694 C715 0.950 . S
H695 C718 0.950 . S
H696 C719 0.950 1_554 S
H697 C721 0.950 . S
H698 C722 0.950 . S
H699 C723 0.951 . S
H700 C725 0.951 . S
H701 C727 0.950 . S
H702 C728 0.950 . S
H703 C730 0.950 . S
H704 C733 0.950 . S
H705 C734 0.950 1_556 S
H706 C736 0.950 . S
H707 C737 0.950 . S
C708 H690 0.951 . S
C708 C709 1.366 . S
C708 C710 1.388 . S
C709 C708 1.366 . S
C709 C713 1.385 . S
C710 H691 0.951 . S
C710 C708 1.388 . S
C710 C711 1.366 . S
C711 C710 1.366 . S
C711 C712 1.414 . S
C711 C714 1.499 . S
C712 H692 0.950 . S
C712 C711 1.414 . S
C712 C713 1.374 . S
C713 H693 0.950 . S
C713 C709 1.385 . S
C713 C712 1.374 . S
C714 C711 1.499 . S
C714 C715 1.373 . S
C714 C716 1.389 1_554 S
C715 H694 0.950 . S
C715 C714 1.373 . S
C715 C731 1.377 . S
C716 C714 1.389 1_556 S
C716 C717 1.524 . S
C716 C730 1.377 . S
C717 C716 1.524 . S
C717 C718 1.397 1_556 S
C717 C722 1.363 . S
C718 H695 0.950 . S
C718 C717 1.397 1_554 S
C718 C719 1.334 1_554 S
C719 H696 0.950 1_556 S
C719 C718 1.334 1_556 S
C719 C720 1.287 . S
C720 C719 1.287 . S
C720 C721 1.524 . S
C720 H739 0.913 . S
C721 H697 0.950 . S
C721 C720 1.524 . S
C721 C722 1.415 . S
C722 H698 0.950 . S
C722 C717 1.363 . S
C722 C721 1.415 . S
C723 H699 0.951 . S
C723 C724 1.366 . S
C723 C725 1.388 . S
C724 C723 1.366 . S
C724 C728 1.385 . S
C725 H700 0.951 . S
C725 C723 1.388 . S
C725 C726 1.366 . S
C726 C725 1.366 . S
C726 C727 1.414 . S
C726 C729 1.499 . S
C727 H701 0.950 . S
C727 C726 1.414 . S
C727 C728 1.374 . S
C728 H702 0.950 . S
C728 C724 1.385 . S
C728 C727 1.374 . S
C729 C726 1.499 . S
C729 C730 1.373 . S
C729 C731 1.389 1_556 S
C730 H703 0.950 . S
C730 C716 1.377 . S
C730 C729 1.373 . S
C731 C715 1.377 . S
C731 C729 1.389 1_554 S
C731 C732 1.524 . S
C732 C731 1.524 . S
C732 C733 1.397 1_554 S
C732 C737 1.363 . S
C733 H704 0.950 . S
C733 C732 1.397 1_556 S
C733 C734 1.334 1_556 S
C734 H705 0.950 1_554 S
C734 C733 1.334 1_554 S
C734 C735 1.287 . S
C735 C734 1.287 . S
C735 C736 1.524 . S
C735 H738 0.999 . S
C736 H706 0.950 . S
C736 C735 1.524 . S
C736 C737 1.415 . S
C737 H707 0.950 . S
C737 C732 1.363 . S
C737 C736 1.415 . S
H738 C735 0.999 . S
H739 C720 0.913 . S
H740 C758 0.951 . S
H741 C760 0.951 . S
H742 C762 0.950 . S
H743 C763 0.950 . S
H744 C765 0.950 . S
H745 C768 0.950 . S
H746 C769 0.950 . S
H747 C771 0.950 . S
H748 C772 0.950 . S
H749 C773 0.951 . S
H750 C775 0.951 . S
H751 C777 0.950 . S
H752 C778 0.950 . S
H753 C780 0.950 . S
H754 C783 0.950 . S
H755 C784 0.950 . S
H756 C786 0.950 . S
H757 C787 0.950 . S
C758 H740 0.951 . S
C758 C759 1.366 . S
C758 C760 1.388 . S
C759 C758 1.366 . S
C759 C763 1.385 . S
C760 H741 0.951 . S
C760 C758 1.388 . S
C760 C761 1.366 . S
C761 C760 1.366 . S
C761 C762 1.414 . S
C761 C764 1.499 . S
C762 H742 0.950 . S
C762 C761 1.414 . S
C762 C763 1.374 . S
C763 H743 0.950 . S
C763 C759 1.385 . S
C763 C762 1.374 . S
C764 C761 1.499 . S
C764 C765 1.373 . S
C764 C766 1.389 1_554 S
C765 H744 0.950 . S
C765 C764 1.373 . S
C765 C781 1.377 . S
C766 C764 1.389 1_556 S
C766 C767 1.524 . S
C766 C780 1.377 . S
C767 C766 1.524 . S
C767 C768 1.397 1_556 S
C767 C772 1.363 . S
C768 H745 0.950 . S
C768 C767 1.397 1_554 S
C768 C769 1.334 . S
C769 H746 0.950 . S
C769 C768 1.334 . S
C769 C770 1.287 1_554 S
C770 C769 1.287 1_556 S
C770 C771 1.524 . S
C770 H789 0.913 . S
C771 H747 0.950 . S
C771 C770 1.524 . S
C771 C772 1.415 . S
C772 H748 0.950 . S
C772 C767 1.363 . S
C772 C771 1.415 . S
C773 H749 0.951 . S
C773 C774 1.366 . S
C773 C775 1.388 . S
C774 C773 1.366 . S
C774 C778 1.385 . S
C775 H750 0.951 . S
C775 C773 1.388 . S
C775 C776 1.366 . S
C776 C775 1.366 . S
C776 C777 1.414 . S
C776 C779 1.499 . S
C777 H751 0.950 . S
C777 C776 1.414 . S
C777 C778 1.374 . S
C778 H752 0.950 . S
C778 C774 1.385 . S
C778 C777 1.374 . S
C779 C776 1.499 . S
C779 C780 1.373 . S
C779 C781 1.389 1_556 S
C780 H753 0.950 . S
C780 C766 1.377 . S
C780 C779 1.373 . S
C781 C765 1.377 . S
C781 C779 1.389 1_554 S
C781 C782 1.524 . S
C782 C781 1.524 . S
C782 C783 1.397 1_554 S
C782 C787 1.363 . S
C783 H754 0.950 . S
C783 C782 1.397 1_556 S
C783 C784 1.334 . S
C784 H755 0.950 . S
C784 C783 1.334 . S
C784 C785 1.287 1_556 S
C785 C784 1.287 1_554 S
C785 C786 1.524 . S
C785 H788 0.999 . S
C786 H756 0.950 . S
C786 C785 1.524 . S
C786 C787 1.415 . S
C787 H757 0.950 . S
C787 C782 1.363 . S
C787 C786 1.415 . S
H788 C785 0.999 . S
H789 C770 0.913 . S
H790 C808 0.951 . S
H791 C810 0.951 . S
H792 C812 0.950 1_455 S
H793 C813 0.950 1_455 S
H794 C815 0.950 . S
H795 C818 0.950 . S
H796 C819 0.950 . S
H797 C821 0.950 . S
H798 C822 0.950 . S
H799 C823 0.951 . S
H800 C825 0.951 . S
H801 C827 0.950 . S
H802 C828 0.950 . S
H803 C830 0.950 . S
H804 C833 0.950 . S
H805 C834 0.950 . S
H806 C836 0.950 . S
H807 C837 0.950 . S
C808 H790 0.951 . S
C808 C809 1.366 . S
C808 C810 1.388 . S
C809 C808 1.366 . S
C809 C813 1.385 . S
C810 H791 0.951 . S
C810 C808 1.388 . S
C810 C811 1.366 . S
C811 C810 1.366 . S
C811 C812 1.414 . S
C811 C814 1.499 . S
C812 H792 0.950 1_655 S
C812 C811 1.414 . S
C812 C813 1.374 . S
C813 H793 0.950 1_655 S
C813 C809 1.385 . S
C813 C812 1.374 . S
C814 C811 1.499 . S
C814 C815 1.373 1_554 S
C814 C816 1.389 . S
C815 H794 0.950 . S
C815 C814 1.373 1_556 S
C815 C831 1.377 . S
C816 C814 1.389 . S
C816 C817 1.524 . S
C816 C830 1.377 . S
C817 C816 1.524 . S
C817 C818 1.397 1_655 S
C817 C822 1.363 . S
C818 H795 0.950 . S
C818 C817 1.397 1_455 S
C818 C819 1.334 . S
C819 H796 0.950 . S
C819 C818 1.334 . S
C819 C820 1.287 1_455 S
C820 C819 1.287 1_655 S
C820 C821 1.524 . S
C820 H839 0.913 . S
C821 H797 0.950 . S
C821 C820 1.524 . S
C821 C822 1.415 . S
C822 H798 0.950 . S
C822 C817 1.363 . S
C822 C821 1.415 . S
C823 H799 0.951 . S
C823 C824 1.366 1_455 S
C823 C825 1.388 . S
C824 C823 1.366 1_655 S
C824 C828 1.385 . S
C825 H800 0.951 . S
C825 C823 1.388 . S
C825 C826 1.366 1_455 S
C826 C825 1.366 1_655 S
C826 C827 1.414 . S
C826 C829 1.499 . S
C827 H801 0.950 . S
C827 C826 1.414 . S
C827 C828 1.374 . S
C828 H802 0.950 . S
C828 C824 1.385 . S
C828 C827 1.374 . S
C829 C826 1.499 . S
C829 C830 1.373 1_556 S
C829 C831 1.389 . S
C830 H803 0.950 . S
C830 C816 1.377 . S
C830 C829 1.373 1_554 S
C831 C815 1.377 . S
C831 C829 1.389 . S
C831 C832 1.524 . S
C832 C831 1.524 . S
C832 C833 1.397 . S
C832 C837 1.363 1_655 S
C833 H804 0.950 . S
C833 C832 1.397 . S
C833 C834 1.334 . S
C834 H805 0.950 . S
C834 C833 1.334 . S
C834 C835 1.287 . S
C835 C834 1.287 . S
C835 C836 1.524 1_655 S
C835 H838 0.999 . S
C836 H806 0.950 . S
C836 C835 1.524 1_455 S
C836 C837 1.415 . S
C837 H807 0.950 . S
C837 C832 1.363 1_455 S
C837 C836 1.415 . S
H838 C835 0.999 . S
H839 C820 0.913 . S
H840 C858 0.951 . S
H841 C860 0.951 . S
H842 C862 0.950 . S
H843 C863 0.950 . S
H844 C865 0.950 . S
H845 C868 0.950 . S
H846 C869 0.950 . S
H847 C871 0.950 1_655 S
H848 C872 0.950 1_655 S
H849 C873 0.951 . S
H850 C875 0.951 . S
H851 C877 0.950 . S
H852 C878 0.950 . S
H853 C880 0.950 . S
H854 C883 0.950 1_655 S
H855 C884 0.904 1_655 S
H856 C886 0.950 . S
H857 C887 0.950 . S
C858 H840 0.951 . S
C858 C859 1.366 . S
C858 C860 1.388 . S
C859 C858 1.366 . S
C859 C863 1.385 . S
C860 H841 0.951 . S
C860 C858 1.388 . S
C860 C861 1.366 . S
C861 C860 1.366 . S
C861 C862 1.414 . S
C861 C864 1.499 . S
C862 H842 0.950 . S
C862 C861 1.414 . S
C862 C863 1.374 . S
C863 H843 0.950 . S
C863 C859 1.385 . S
C863 C862 1.374 . S
C864 C861 1.499 . S
C864 C865 1.373 . S
C864 C866 1.389 . S
C865 H844 0.950 . S
C865 C864 1.373 . S
C865 C881 1.377 . S
C866 C864 1.389 . S
C866 C867 1.524 . S
C866 C880 1.377 . S
C867 C866 1.524 . S
C867 C868 1.397 . S
C867 C872 1.363 . S
C868 H845 0.950 . S
C868 C867 1.397 . S
C868 C869 1.334 . S
C869 H846 0.950 . S
C869 C868 1.334 . S
C869 C870 1.287 . S
C870 C869 1.287 . S
C870 C871 1.524 . S
C870 H889 0.913 . S
C871 H847 0.950 1_455 S
C871 C870 1.524 . S
C871 C872 1.415 . S
C872 H848 0.950 1_455 S
C872 C867 1.363 . S
C872 C871 1.415 . S
C873 H849 0.951 . S
C873 C874 1.366 . S
C873 C875 1.388 . S
C874 C873 1.366 . S
C874 C878 1.385 1_455 S
C875 H850 0.951 . S
C875 C873 1.388 . S
C875 C876 1.366 . S
C876 C875 1.366 . S
C876 C877 1.414 1_455 S
C876 C879 1.499 . S
C877 H851 0.950 . S
C877 C876 1.414 1_655 S
C877 C878 1.374 . S
C878 H852 0.950 . S
C878 C874 1.385 1_655 S
C878 C877 1.374 . S
C879 C876 1.499 . S
C879 C880 1.373 . S
C879 C881 1.389 . S
C880 H853 0.950 . S
C880 C866 1.377 . S
C880 C879 1.373 . S
C881 C865 1.377 . S
C881 C879 1.389 . S
C881 C882 1.524 . S
C882 C881 1.524 . S
C882 C883 1.397 . S
C882 C887 1.363 . S
C883 H854 0.950 1_455 S
C883 C882 1.397 . S
C883 C884 1.342 . S
C884 H855 0.904 1_455 S
C884 C883 1.342 . S
C884 C885 1.329 . S
C885 C884 1.329 . S
C885 C886 1.524 . S
C885 H888 0.999 . S
C886 H856 0.950 . S
C886 C885 1.524 . S
C886 C887 1.415 . S
C887 H857 0.950 . S
C887 C882 1.363 . S
C887 C886 1.415 . S
H888 C885 0.999 . S
H889 C870 0.913 . S
H890 C908 0.951 . S
H891 C910 0.951 . S
H892 C912 0.950 . S
H893 C913 0.950 . S
H894 C915 0.950 . S
H895 C918 0.950 1_545 S
H896 C919 0.950 . S
H897 C921 0.950 . S
H898 C922 0.950 . S
H899 C923 0.951 . S
H900 C925 0.951 . S
H901 C927 0.950 1_565 S
H902 C928 0.942 1_565 S
H903 C930 0.950 1_565 S
H904 C933 0.950 . S
H905 C934 0.950 . S
H906 C936 0.950 . S
H907 C937 0.950 . S
C908 H890 0.951 . S
C908 C909 1.366 . S
C908 C910 1.388 . S
C909 C908 1.366 . S
C909 C913 1.385 . S
C910 H891 0.951 . S
C910 C908 1.388 . S
C910 C911 1.366 . S
C911 C910 1.366 . S
C911 C912 1.414 . S
C911 C914 1.499 . S
C912 H892 0.950 . S
C912 C911 1.414 . S
C912 C913 1.374 . S
C913 H893 0.950 . S
C913 C909 1.385 . S
C913 C912 1.374 . S
C914 C911 1.499 . S
C914 C915 1.373 . S
C914 C916 1.389 . S
C915 H894 0.950 . S
C915 C914 1.373 . S
C915 C931 1.377 . S
C916 C914 1.389 . S
C916 C917 1.524 1_545 S
C916 C930 1.377 . S
C917 C916 1.524 1_565 S
C917 C918 1.397 . S
C917 C922 1.363 . S
C918 H895 0.950 1_565 S
C918 C917 1.397 . S
C918 C919 1.334 . S
C919 H896 0.950 . S
C919 C918 1.334 . S
C919 C920 1.287 . S
C920 C919 1.287 . S
C920 C921 1.524 . S
C920 H939 0.913 . S
C921 H897 0.950 . S
C921 C920 1.524 . S
C921 C922 1.415 . S
C922 H898 0.950 . S
C922 C917 1.363 . S
C922 C921 1.415 . S
C923 H899 0.951 . S
C923 C924 1.366 . S
C923 C925 1.388 . S
C924 C923 1.366 . S
C924 C928 1.390 . S
C925 H900 0.951 . S
C925 C923 1.388 . S
C925 C926 1.366 . S
C926 C925 1.366 . S
C926 C927 1.414 . S
C926 C929 1.499 . S
C927 H901 0.950 1_545 S
C927 C926 1.414 . S
C927 C928 1.376 . S
C928 H902 0.942 1_545 S
C928 C924 1.390 . S
C928 C927 1.376 . S
C929 C926 1.499 . S
C929 C930 1.373 . S
C929 C931 1.389 . S
C930 H903 0.950 1_545 S
C930 C916 1.377 . S
C930 C929 1.373 . S
C931 C915 1.377 . S
C931 C929 1.389 . S
C931 C932 1.524 . S
C932 C931 1.524 . S
C932 C933 1.397 . S
C932 C937 1.363 . S
C933 H904 0.950 . S
C933 C932 1.397 . S
C933 C934 1.334 . S
C934 H905 0.950 . S
C934 C933 1.334 . S
C934 C935 1.287 . S
C935 C934 1.287 . S
C935 C936 1.524 . S
C935 H938 0.999 . S
C936 H906 0.950 . S
C936 C935 1.524 . S
C936 C937 1.415 . S
C937 H907 0.950 . S
C937 C932 1.363 . S
C937 C936 1.415 . S
H938 C935 0.999 . S
H939 C920 0.913 . S
H940 C958 0.951 . S
H941 C960 0.951 . S
H942 C962 0.950 . S
H943 C963 0.950 . S
H944 C965 0.950 . S
H945 C968 0.950 . S
H946 C969 0.950 . S
H947 C971 0.950 1_556 S
H948 C972 0.950 . S
H949 C973 0.951 . S
H950 C975 0.951 . S
H951 C977 0.950 . S
H952 C978 0.950 . S
H953 C980 0.950 . S
H954 C983 0.950 . S
H955 C984 0.950 . S
H956 C986 0.950 . S
H957 C987 0.950 . S
C958 H940 0.951 . S
C958 C959 1.366 . S
C958 C960 1.388 . S
C959 C958 1.366 . S
C959 C963 1.385 . S
C960 H941 0.951 . S
C960 C958 1.388 . S
C960 C961 1.366 . S
C961 C960 1.366 . S
C961 C962 1.414 . S
C961 C964 1.499 . S
C962 H942 0.950 . S
C962 C961 1.414 . S
C962 C963 1.374 . S
C963 H943 0.950 . S
C963 C959 1.385 . S
C963 C962 1.374 . S
C964 C961 1.499 . S
C964 C965 1.373 . S
C964 C966 1.389 . S
C965 H944 0.950 . S
C965 C964 1.373 . S
C965 C981 1.377 . S
C966 C964 1.389 . S
C966 C967 1.524 . S
C966 C980 1.377 . S
C967 C966 1.524 . S
C967 C968 1.397 . S
C967 C972 1.363 . S
C968 H945 0.950 . S
C968 C967 1.397 . S
C968 C969 1.334 1_554 S
C969 H946 0.950 . S
C969 C968 1.334 1_556 S
C969 C970 1.287 . S
C970 C969 1.287 . S
C970 C971 1.524 1_556 S
C970 H989 0.913 . S
C971 H947 0.950 1_554 S
C971 C970 1.524 1_554 S
C971 C972 1.415 . S
C972 H948 0.950 . S
C972 C967 1.363 . S
C972 C971 1.415 . S
C973 H949 0.951 . S
C973 C974 1.366 . S
C973 C975 1.388 . S
C974 C973 1.366 . S
C974 C978 1.385 . S
C975 H950 0.951 . S
C975 C973 1.388 . S
C975 C976 1.366 . S
C976 C975 1.366 . S
C976 C977 1.414 . S
C976 C979 1.499 . S
C977 H951 0.950 . S
C977 C976 1.414 . S
C977 C978 1.374 . S
C978 H952 0.950 . S
C978 C974 1.385 . S
C978 C977 1.374 . S
C979 C976 1.499 . S
C979 C980 1.373 . S
C979 C981 1.389 . S
C980 H953 0.950 . S
C980 C966 1.377 . S
C980 C979 1.373 . S
C981 C965 1.377 . S
C981 C979 1.389 . S
C981 C982 1.524 . S
C982 C981 1.524 . S
C982 C983 1.397 . S
C982 C987 1.363 . S
C983 H954 0.950 . S
C983 C982 1.397 . S
C983 C984 1.334 . S
C984 H955 0.950 . S
C984 C983 1.334 . S
C984 C985 1.287 . S
C985 C984 1.287 . S
C985 C986 1.524 . S
C985 H988 0.999 . S
C986 H956 0.950 . S
C986 C985 1.524 . S
C986 C987 1.415 . S
C987 H957 0.950 . S
C987 C982 1.363 . S
C987 C986 1.415 . S
H988 C985 0.999 . S
H989 C970 0.913 . S
H990 C1008 0.951 . S
H991 C1010 0.951 . S
H992 C1012 0.950 . S
H993 C1013 0.950 1_556 S
H994 C1015 0.950 . S
H995 C1018 0.950 . S
H996 C1019 0.950 . S
H997 C1021 0.950 . S
H998 C1022 0.950 . S
H999 C1023 0.951 . S
H1000 C1025 0.951 . S
H1001 C1027 0.950 . S
H1002 C1028 0.950 . S
H1003 C1030 0.950 . S
H1004 C1033 0.950 . S
H1005 C1034 0.950 . S
H1006 C1036 0.950 . S
H1007 C1037 0.950 . S
C1008 H990 0.951 . S
C1008 C1009 1.366 . S
C1008 C1010 1.388 . S
C1009 C1008 1.366 . S
C1009 C1013 1.385 . S
C1010 H991 0.951 . S
C1010 C1008 1.388 . S
C1010 C1011 1.366 . S
C1011 C1010 1.366 . S
C1011 C1012 1.414 . S
C1011 C1014 1.499 . S
C1012 H992 0.950 . S
C1012 C1011 1.414 . S
C1012 C1013 1.374 . S
C1013 H993 0.950 1_554 S
C1013 C1009 1.385 . S
C1013 C1012 1.374 . S
C1014 C1011 1.499 . S
C1014 C1015 1.373 . S
C1014 C1016 1.389 . S
C1015 H994 0.950 . S
C1015 C1014 1.373 . S
C1015 C1031 1.377 . S
C1016 C1014 1.389 . S
C1016 C1017 1.524 . S
C1016 C1030 1.377 . S
C1017 C1016 1.524 . S
C1017 C1018 1.397 . S
C1017 C1022 1.363 . S
C1018 H995 0.950 . S
C1018 C1017 1.397 . S
C1018 C1019 1.334 . S
C1019 H996 0.950 . S
C1019 C1018 1.334 . S
C1019 C1020 1.287 . S
C1020 C1019 1.287 . S
C1020 C1021 1.524 . S
C1020 H1039 0.913 . S
C1021 H997 0.950 . S
C1021 C1020 1.524 . S
C1021 C1022 1.415 . S
C1022 H998 0.950 . S
C1022 C1017 1.363 . S
C1022 C1021 1.415 . S
C1023 H999 0.951 . S
C1023 C1024 1.366 . S
C1023 C1025 1.388 . S
C1024 C1023 1.366 . S
C1024 C1028 1.385 . S
C1025 H1000 0.951 . S
C1025 C1023 1.388 . S
C1025 C1026 1.366 . S
C1026 C1025 1.366 . S
C1026 C1027 1.414 . S
C1026 C1029 1.499 . S
C1027 H1001 0.950 . S
C1027 C1026 1.414 . S
C1027 C1028 1.374 . S
C1028 H1002 0.950 . S
C1028 C1024 1.385 . S
C1028 C1027 1.374 . S
C1029 C1026 1.499 . S
C1029 C1030 1.373 . S
C1029 C1031 1.389 . S
C1030 H1003 0.950 . S
C1030 C1016 1.377 . S
C1030 C1029 1.373 . S
C1031 C1015 1.377 . S
C1031 C1029 1.389 . S
C1031 C1032 1.524 . S
C1032 C1031 1.524 . S
C1032 C1033 1.397 . S
C1032 C1037 1.363 . S
C1033 H1004 0.950 . S
C1033 C1032 1.397 . S
C1033 C1034 1.334 . S
C1034 H1005 0.950 . S
C1034 C1033 1.334 . S
C1034 C1035 1.287 . S
C1035 C1034 1.287 . S
C1035 C1036 1.524 . S
C1035 H1038 0.999 . S
C1036 H1006 0.950 . S
C1036 C1035 1.524 . S
C1036 C1037 1.415 . S
C1037 H1007 0.950 . S
C1037 C1032 1.363 . S
C1037 C1036 1.415 . S
H1038 C1035 0.999 . S
H1039 C1020 0.913 . S
H1040 C1058 0.951 . S
H1041 C1060 0.951 . S
H1042 C1062 0.983 . S
H1043 C1063 0.950 1_455 S
H1044 C1065 0.945 1_455 S
H1045 C1068 0.950 1_554 S
H1046 C1069 0.950 . S
H1047 C1071 0.950 . S
H1048 C1072 0.950 . S
H1049 C1073 0.951 . S
H1050 C1075 0.951 1_554 S
H1051 C1077 0.950 . S
H1052 C1078 0.950 . S
H1053 C1080 0.950 1_556 S
H1054 C1083 0.950 1_655 S
H1055 C1084 0.978 . S
H1056 C1086 0.950 . S
H1057 C1087 0.950 . S
C1058 H1040 0.951 . S
C1058 C1059 1.366 . S
C1058 C1060 1.388 . S
C1059 C1058 1.366 . S
C1059 C1063 1.385 . S
C1060 H1041 0.951 . S
C1060 C1058 1.388 . S
C1060 C1061 1.366 . S
C1061 C1060 1.366 . S
C1061 C1062 1.388 1_655 S
C1061 C1064 1.499 . S
C1062 H1042 0.983 . S
C1062 C1061 1.388 1_455 S
C1062 C1063 1.368 1_455 S
C1063 H1043 0.950 1_655 S
C1063 C1059 1.385 . S
C1063 C1062 1.368 1_655 S
C1064 C1061 1.499 . S
C1064 C1065 1.380 . S
C1064 C1066 1.389 . S
C1065 H1044 0.945 1_655 S
C1065 C1064 1.380 . S
C1065 C1081 1.375 1_655 S
C1066 C1064 1.389 . S
C1066 C1067 1.524 . S
C1066 C1080 1.377 . S
C1067 C1066 1.524 . S
C1067 C1068 1.397 1_554 S
C1067 C1072 1.363 1_554 S
C1068 H1045 0.950 1_556 S
C1068 C1067 1.397 1_556 S
C1068 C1069 1.334 . S
C1069 H1046 0.950 . S
C1069 C1068 1.334 . S
C1069 C1070 1.287 . S
C1070 C1069 1.287 . S
C1070 C1071 1.524 . S
C1070 H1089 0.913 . S
C1071 H1047 0.950 . S
C1071 C1070 1.524 . S
C1071 C1072 1.415 . S
C1072 H1048 0.950 . S
C1072 C1067 1.363 1_556 S
C1072 C1071 1.415 . S
C1073 H1049 0.951 . S
C1073 C1074 1.366 . S
C1073 C1075 1.388 . S
C1074 C1073 1.366 . S
C1074 C1078 1.385 1_455 S
C1075 H1050 0.951 1_556 S
C1075 C1073 1.388 . S
C1075 C1076 1.382 . S
C1076 C1075 1.382 . S
C1076 C1077 1.401 1_455 S
C1076 C1079 1.495 1_456 S
C1077 H1051 0.950 . S
C1077 C1076 1.401 1_655 S
C1077 C1078 1.374 . S
C1078 H1052 0.950 . S
C1078 C1074 1.385 1_655 S
C1078 C1077 1.374 . S
C1079 C1076 1.495 1_654 S
C1079 C1080 1.373 . S
C1079 C1081 1.389 1_655 S
C1080 H1053 0.950 1_554 S
C1080 C1066 1.377 . S
C1080 C1079 1.373 . S
C1081 C1065 1.375 1_455 S
C1081 C1079 1.389 1_455 S
C1081 C1082 1.524 . S
C1082 C1081 1.524 . S
C1082 C1083 1.397 . S
C1082 C1087 1.363 . S
C1083 H1054 0.950 1_455 S
C1083 C1082 1.397 . S
C1083 C1084 1.334 . S
C1084 H1055 0.978 . S
C1084 C1083 1.334 . S
C1084 C1085 1.287 . S
C1085 C1084 1.287 . S
C1085 C1086 1.524 . S
C1085 H1088 0.999 . S
C1086 H1056 0.950 . S
C1086 C1085 1.524 . S
C1086 C1087 1.415 . S
C1087 H1057 0.950 . S
C1087 C1082 1.363 . S
C1087 C1086 1.415 . S
H1088 C1085 0.999 . S
H1089 C1070 0.913 . S
H1090 C1108 0.951 . S
H1091 C1110 0.951 . S
H1092 C1112 0.950 . S
H1093 C1113 0.950 . S
H1094 C1115 0.950 . S
H1095 C1118 0.950 . S
H1096 C1119 0.950 . S
H1097 C1121 0.950 . S
H1098 C1122 0.950 1_565 S
H1099 C1123 0.951 1_554 S
H1100 C1125 0.951 . S
H1101 C1127 0.950 . S
H1102 C1128 0.950 1_565 S
H1103 C1130 0.950 1_556 S
H1104 C1133 0.950 . S
H1105 C1134 0.950 . S
H1106 C1136 0.950 . S
H1107 C1137 0.950 . S
C1108 H1090 0.951 . S
C1108 C1109 1.366 . S
C1108 C1110 1.388 . S
C1109 C1108 1.366 . S
C1109 C1113 1.385 . S
C1110 H1091 0.951 . S
C1110 C1108 1.388 . S
C1110 C1111 1.366 . S
C1111 C1110 1.366 . S
C1111 C1112 1.414 . S
C1111 C1114 1.499 . S
C1112 H1092 0.950 . S
C1112 C1111 1.414 . S
C1112 C1113 1.374 . S
C1113 H1093 0.950 . S
C1113 C1109 1.385 . S
C1113 C1112 1.374 . S
C1114 C1111 1.499 . S
C1114 C1115 1.373 . S
C1114 C1116 1.372 1_565 S
C1115 H1094 0.950 . S
C1115 C1114 1.373 . S
C1115 C1131 1.377 . S
C1116 C1114 1.372 1_545 S
C1116 C1117 1.541 . S
C1116 C1130 1.382 . S
C1117 C1116 1.541 . S
C1117 C1118 1.397 . S
C1117 C1122 1.363 1_554 S
C1118 H1095 0.950 . S
C1118 C1117 1.397 . S
C1118 C1119 1.334 . S
C1119 H1096 0.950 . S
C1119 C1118 1.334 . S
C1119 C1120 1.287 1_554 S
C1120 C1119 1.287 1_556 S
C1120 C1121 1.524 . S
C1120 H1139 0.913 . S
C1121 H1097 0.950 . S
C1121 C1120 1.524 . S
C1121 C1122 1.415 . S
C1122 H1098 0.950 1_545 S
C1122 C1117 1.363 1_556 S
C1122 C1121 1.415 . S
C1123 H1099 0.951 1_556 S
C1123 C1124 1.366 . S
C1123 C1125 1.388 1_556 S
C1124 C1123 1.366 . S
C1124 C1128 1.385 . S
C1125 H1100 0.951 . S
C1125 C1123 1.388 1_554 S
C1125 C1126 1.372 . S
C1126 C1125 1.372 . S
C1126 C1127 1.400 1_544 S
C1126 C1129 1.506 1_545 S
C1127 H1101 0.950 . S
C1127 C1126 1.400 1_566 S
C1127 C1128 1.374 1_565 S
C1128 H1102 0.950 1_545 S
C1128 C1124 1.385 . S
C1128 C1127 1.374 1_545 S
C1129 C1126 1.506 1_565 S
C1129 C1130 1.373 1_565 S
C1129 C1131 1.389 . S
C1130 H1103 0.950 1_554 S
C1130 C1116 1.382 . S
C1130 C1129 1.373 1_545 S
C1131 C1115 1.377 . S
C1131 C1129 1.389 . S
C1131 C1132 1.524 . S
C1132 C1131 1.524 . S
C1132 C1133 1.397 . S
C1132 C1137 1.363 . S
C1133 H1104 0.950 . S
C1133 C1132 1.397 . S
C1133 C1134 1.334 . S
C1134 H1105 0.950 . S
C1134 C1133 1.334 . S
C1134 C1135 1.287 . S
C1135 C1134 1.287 . S
C1135 C1136 1.524 . S
C1135 H1138 0.999 . S
C1136 H1106 0.950 . S
C1136 C1135 1.524 . S
C1136 C1137 1.415 . S
C1137 H1107 0.950 . S
C1137 C1132 1.363 . S
C1137 C1136 1.415 . S
H1138 C1135 0.999 . S
H1139 C1120 0.913 . S
H1140 C1158 0.951 . S
H1141 C1160 0.951 . S
H1142 C1162 0.950 . S
H1143 C1163 0.950 . S
H1144 C1165 0.950 . S
H1145 C1168 0.950 . S
H1146 C1169 0.950 . S
H1147 C1171 0.950 . S
H1148 C1172 0.950 . S
H1149 C1173 0.951 . S
H1150 C1175 0.951 . S
H1151 C1177 0.950 . S
H1152 C1178 0.950 . S
H1153 C1180 0.950 . S
H1154 C1183 0.950 . S
H1155 C1184 0.950 . S
H1156 C1186 0.950 . S
H1157 C1187 0.950 . S
C1158 H1140 0.951 . S
C1158 C1159 1.366 . S
C1158 C1160 1.388 . S
C1159 C1158 1.366 . S
C1159 C1163 1.385 . S
C1160 H1141 0.951 . S
C1160 C1158 1.388 . S
C1160 C1161 1.366 . S
C1161 C1160 1.366 . S
C1161 C1162 1.414 . S
C1161 C1164 1.499 . S
C1162 H1142 0.950 . S
C1162 C1161 1.414 . S
C1162 C1163 1.374 . S
C1163 H1143 0.950 . S
C1163 C1159 1.385 . S
C1163 C1162 1.374 . S
C1164 C1161 1.499 . S
C1164 C1165 1.373 . S
C1164 C1166 1.389 . S
C1165 H1144 0.950 . S
C1165 C1164 1.373 . S
C1165 C1181 1.377 . S
C1166 C1164 1.389 . S
C1166 C1167 1.524 . S
C1166 C1180 1.377 . S
C1167 C1166 1.524 . S
C1167 C1168 1.397 . S
C1167 C1172 1.363 . S
C1168 H1145 0.950 . S
C1168 C1167 1.397 . S
C1168 C1169 1.334 . S
C1169 H1146 0.950 . S
C1169 C1168 1.334 . S
C1169 C1170 1.287 . S
C1170 C1169 1.287 . S
C1170 C1171 1.524 . S
C1170 H1189 0.913 . S
C1171 H1147 0.950 . S
C1171 C1170 1.524 . S
C1171 C1172 1.415 . S
C1172 H1148 0.950 . S
C1172 C1167 1.363 . S
C1172 C1171 1.415 . S
C1173 H1149 0.951 . S
C1173 C1174 1.366 . S
C1173 C1175 1.388 1_556 S
C1174 C1173 1.366 . S
C1174 C1178 1.385 . S
C1175 H1150 0.951 . S
C1175 C1173 1.388 1_554 S
C1175 C1176 1.366 1_554 S
C1176 C1175 1.366 1_556 S
C1176 C1177 1.414 . S
C1176 C1179 1.499 1_556 S
C1177 H1151 0.950 . S
C1177 C1176 1.414 . S
C1177 C1178 1.374 . S
C1178 H1152 0.950 . S
C1178 C1174 1.385 . S
C1178 C1177 1.374 . S
C1179 C1176 1.499 1_554 S
C1179 C1180 1.373 . S
C1179 C1181 1.389 . S
C1180 H1153 0.950 . S
C1180 C1166 1.377 . S
C1180 C1179 1.373 . S
C1181 C1165 1.377 . S
C1181 C1179 1.389 . S
C1181 C1182 1.524 . S
C1182 C1181 1.524 . S
C1182 C1183 1.397 1_554 S
C1182 C1187 1.363 . S
C1183 H1154 0.950 . S
C1183 C1182 1.397 1_556 S
C1183 C1184 1.334 . S
C1184 H1155 0.950 . S
C1184 C1183 1.334 . S
C1184 C1185 1.287 . S
C1185 C1184 1.287 . S
C1185 C1186 1.524 1_556 S
C1185 H1188 0.999 . S
C1186 H1156 0.950 . S
C1186 C1185 1.524 1_554 S
C1186 C1187 1.415 . S
C1187 H1157 0.950 . S
C1187 C1182 1.363 . S
C1187 C1186 1.415 . S
H1188 C1185 0.999 . S
H1189 C1170 0.913 . S
H1190 C1208 0.951 . S
H1191 C1210 0.951 . S
H1192 C1212 0.950 . S
H1193 C1213 0.950 . S
H1194 C1215 0.950 . S
H1195 C1218 0.950 . S
H1196 C1219 0.950 . S
H1197 C1221 0.950 . S
H1198 C1222 0.950 . S
H1199 C1223 0.951 . S
H1200 C1225 0.951 . S
H1201 C1227 0.950 . S
H1202 C1228 0.950 . S
H1203 C1230 0.950 . S
H1204 C1233 0.950 . S
H1205 C1234 0.950 . S
H1206 C1236 0.950 . S
H1207 C1237 0.950 . S
C1208 H1190 0.951 . S
C1208 C1209 1.366 . S
C1208 C1210 1.388 . S
C1209 C1208 1.366 . S
C1209 C1213 1.385 . S
C1210 H1191 0.951 . S
C1210 C1208 1.388 . S
C1210 C1211 1.366 . S
C1211 C1210 1.366 . S
C1211 C1212 1.414 . S
C1211 C1214 1.499 . S
C1212 H1192 0.950 . S
C1212 C1211 1.414 . S
C1212 C1213 1.374 . S
C1213 H1193 0.950 . S
C1213 C1209 1.385 . S
C1213 C1212 1.374 . S
C1214 C1211 1.499 . S
C1214 C1215 1.373 . S
C1214 C1216 1.389 . S
C1215 H1194 0.950 . S
C1215 C1214 1.373 . S
C1215 C1231 1.377 . S
C1216 C1214 1.389 . S
C1216 C1217 1.524 . S
C1216 C1230 1.377 . S
C1217 C1216 1.524 . S
C1217 C1218 1.397 . S
C1217 C1222 1.363 . S
C1218 H1195 0.950 . S
C1218 C1217 1.397 . S
C1218 C1219 1.334 . S
C1219 H1196 0.950 . S
C1219 C1218 1.334 . S
C1219 C1220 1.287 . S
C1220 C1219 1.287 . S
C1220 C1221 1.524 . S
C1220 H1239 0.913 . S
C1221 H1197 0.950 . S
C1221 C1220 1.524 . S
C1221 C1222 1.415 . S
C1222 H1198 0.950 . S
C1222 C1217 1.363 . S
C1222 C1221 1.415 . S
C1223 H1199 0.951 . S
C1223 C1224 1.366 . S
C1223 C1225 1.388 1_556 S
C1224 C1223 1.366 . S
C1224 C1228 1.385 . S
C1225 H1200 0.951 . S
C1225 C1223 1.388 1_554 S
C1225 C1226 1.366 1_554 S
C1226 C1225 1.366 1_556 S
C1226 C1227 1.414 . S
C1226 C1229 1.499 1_556 S
C1227 H1201 0.950 . S
C1227 C1226 1.414 . S
C1227 C1228 1.374 . S
C1228 H1202 0.950 . S
C1228 C1224 1.385 . S
C1228 C1227 1.374 . S
C1229 C1226 1.499 1_554 S
C1229 C1230 1.373 . S
C1229 C1231 1.389 . S
C1230 H1203 0.950 . S
C1230 C1216 1.377 . S
C1230 C1229 1.373 . S
C1231 C1215 1.377 . S
C1231 C1229 1.389 . S
C1231 C1232 1.524 . S
C1232 C1231 1.524 . S
C1232 C1233 1.397 1_554 S
C1232 C1237 1.363 . S
C1233 H1204 0.950 . S
C1233 C1232 1.397 1_556 S
C1233 C1234 1.334 . S
C1234 H1205 0.950 . S
C1234 C1233 1.334 . S
C1234 C1235 1.287 . S
C1235 C1234 1.287 . S
C1235 C1236 1.524 1_556 S
C1235 H1238 0.999 . S
C1236 H1206 0.950 . S
C1236 C1235 1.524 1_554 S
C1236 C1237 1.415 . S
C1237 H1207 0.950 . S
C1237 C1232 1.363 . S
C1237 C1236 1.415 . S
H1238 C1235 0.999 . S
H1239 C1220 0.913 . S
H1240 C1258 0.951 . S
H1241 C1260 0.951 . S
H1242 C1262 0.950 . S
H1243 C1263 0.950 1_554 S
H1244 C1265 0.950 . S
H1245 C1268 0.949 1_655 S
H1246 C1269 0.950 1_655 S
H1247 C1271 0.950 . S
H1248 C1272 0.950 . S
H1249 C1273 0.951 1_655 S
H1250 C1275 0.980 . S
H1251 C1277 0.950 . S
H1252 C1278 0.950 . S
H1253 C1280 0.950 . S
H1254 C1283 0.950 . S
H1255 C1284 0.950 . S
H1256 C1286 0.950 . S
H1257 C1287 0.950 . S
C1258 H1240 0.951 . S
C1258 C1259 1.366 . S
C1258 C1260 1.388 . S
C1259 C1258 1.366 . S
C1259 C1263 1.385 . S
C1260 H1241 0.951 . S
C1260 C1258 1.388 . S
C1260 C1261 1.366 . S
C1261 C1260 1.366 . S
C1261 C1262 1.414 . S
C1261 C1264 1.499 . S
C1262 H1242 0.950 . S
C1262 C1261 1.414 . S
C1262 C1263 1.374 . S
C1263 H1243 0.950 1_556 S
C1263 C1259 1.385 . S
C1263 C1262 1.374 . S
C1264 C1261 1.499 . S
C1264 C1265 1.373 . S
C1264 C1266 1.389 . S
C1265 H1244 0.950 . S
C1265 C1264 1.373 . S
C1265 C1281 1.377 . S
C1266 C1264 1.389 . S
C1266 C1267 1.524 . S
C1266 C1280 1.377 . S
C1267 C1266 1.524 . S
C1267 C1268 1.397 . S
C1267 C1272 1.363 . S
C1268 H1245 0.949 1_455 S
C1268 C1267 1.397 . S
C1268 C1269 1.334 . S
C1269 H1246 0.950 1_455 S
C1269 C1268 1.334 . S
C1269 C1270 1.287 . S
C1270 C1269 1.287 . S
C1270 C1271 1.524 . S
C1270 H1289 0.913 . S
C1271 H1247 0.950 . S
C1271 C1270 1.524 . S
C1271 C1272 1.415 . S
C1272 H1248 0.950 . S
C1272 C1267 1.363 . S
C1272 C1271 1.415 . S
C1273 H1249 0.951 1_455 S
C1273 C1274 1.366 . S
C1273 C1275 1.388 . S
C1274 C1273 1.366 . S
C1274 C1278 1.385 . S
C1275 H1250 0.980 . S
C1275 C1273 1.388 . S
C1275 C1276 1.366 . S
C1276 C1275 1.366 . S
C1276 C1277 1.414 . S
C1276 C1279 1.499 . S
C1277 H1251 0.950 . S
C1277 C1276 1.414 . S
C1277 C1278 1.374 . S
C1278 H1252 0.950 . S
C1278 C1274 1.385 . S
C1278 C1277 1.374 . S
C1279 C1276 1.499 . S
C1279 C1280 1.373 . S
C1279 C1281 1.389 . S
C1280 H1253 0.950 . S
C1280 C1266 1.377 . S
C1280 C1279 1.373 . S
C1281 C1265 1.377 . S
C1281 C1279 1.389 . S
C1281 C1282 1.524 . S
C1282 C1281 1.524 . S
C1282 C1283 1.397 . S
C1282 C1287 1.363 1_556 S
C1283 H1254 0.950 . S
C1283 C1282 1.397 . S
C1283 C1284 1.334 . S
C1284 H1255 0.950 . S
C1284 C1283 1.334 . S
C1284 C1285 1.287 1_556 S
C1285 C1284 1.287 1_554 S
C1285 C1286 1.524 . S
C1285 H1288 0.999 . S
C1286 H1256 0.950 . S
C1286 C1285 1.524 . S
C1286 C1287 1.415 . S
C1287 H1257 0.950 . S
C1287 C1282 1.363 1_554 S
C1287 C1286 1.415 . S
H1288 C1285 0.999 . S
H1289 C1270 0.913 . S
H1290 C1308 0.951 . S
H1291 C1310 0.951 . S
H1292 C1312 0.950 1_554 S
H1293 C1313 0.950 1_554 S
H1294 C1315 0.950 . S
H1295 C1318 0.950 . S
H1296 C1319 0.950 . S
H1297 C1321 0.950 . S
H1298 C1322 0.950 . S
H1299 C1323 0.951 . S
H1300 C1325 0.951 . S
H1301 C1327 0.950 . S
H1302 C1328 0.950 . S
H1303 C1330 0.950 . S
H1304 C1333 0.950 . S
H1305 C1334 0.950 . S
H1306 C1336 0.950 . S
H1307 C1337 0.950 . S
C1308 H1290 0.951 . S
C1308 C1309 1.366 . S
C1308 C1310 1.388 . S
C1309 C1308 1.366 . S
C1309 C1313 1.385 . S
C1310 H1291 0.951 . S
C1310 C1308 1.388 . S
C1310 C1311 1.366 . S
C1311 C1310 1.366 . S
C1311 C1312 1.414 . S
C1311 C1314 1.499 . S
C1312 H1292 0.950 1_556 S
C1312 C1311 1.414 . S
C1312 C1313 1.374 . S
C1313 H1293 0.950 1_556 S
C1313 C1309 1.385 . S
C1313 C1312 1.374 . S
C1314 C1311 1.499 . S
C1314 C1315 1.373 . S
C1314 C1316 1.389 . S
C1315 H1294 0.950 . S
C1315 C1314 1.373 . S
C1315 C1331 1.377 . S
C1316 C1314 1.389 . S
C1316 C1317 1.524 1_545 S
C1316 C1330 1.377 . S
C1317 C1316 1.524 1_565 S
C1317 C1318 1.397 . S
C1317 C1322 1.363 . S
C1318 H1295 0.950 . S
C1318 C1317 1.397 . S
C1318 C1319 1.334 . S
C1319 H1296 0.950 . S
C1319 C1318 1.334 . S
C1319 C1320 1.287 . S
C1320 C1319 1.287 . S
C1320 C1321 1.524 . S
C1320 H1339 0.913 . S
C1321 H1297 0.950 . S
C1321 C1320 1.524 . S
C1321 C1322 1.415 . S
C1322 H1298 0.950 . S
C1322 C1317 1.363 . S
C1322 C1321 1.415 . S
C1323 H1299 0.951 . S
C1323 C1324 1.366 . S
C1323 C1325 1.388 . S
C1324 C1323 1.366 . S
C1324 C1328 1.385 . S
C1325 H1300 0.951 . S
C1325 C1323 1.388 . S
C1325 C1326 1.366 . S
C1326 C1325 1.366 . S
C1326 C1327 1.414 . S
C1326 C1329 1.499 . S
C1327 H1301 0.950 . S
C1327 C1326 1.414 . S
C1327 C1328 1.374 . S
C1328 H1302 0.950 . S
C1328 C1324 1.385 . S
C1328 C1327 1.374 . S
C1329 C1326 1.499 . S
C1329 C1330 1.373 . S
C1329 C1331 1.389 . S
C1330 H1303 0.950 . S
C1330 C1316 1.377 . S
C1330 C1329 1.373 . S
C1331 C1315 1.377 . S
C1331 C1329 1.389 . S
C1331 C1332 1.524 . S
C1332 C1331 1.524 . S
C1332 C1333 1.397 . S
C1332 C1337 1.363 . S
C1333 H1304 0.950 . S
C1333 C1332 1.397 . S
C1333 C1334 1.334 . S
C1334 H1305 0.950 . S
C1334 C1333 1.334 . S
C1334 C1335 1.287 . S
C1335 C1334 1.287 . S
C1335 C1336 1.524 . S
C1335 H1338 0.999 . S
C1336 H1306 0.950 . S
C1336 C1335 1.524 . S
C1336 C1337 1.415 . S
C1337 H1307 0.950 . S
C1337 C1332 1.363 . S
C1337 C1336 1.415 . S
H1338 C1335 0.999 . S
H1339 C1320 0.913 . S
H1340 C1358 0.951 . S
H1341 C1360 0.951 . S
H1342 C1362 0.950 . S
H1343 C1363 0.950 . S
H1344 C1365 0.950 . S
H1345 C1368 0.950 . S
H1346 C1369 0.950 . S
H1347 C1371 0.950 . S
H1348 C1372 0.950 . S
H1349 C1373 0.951 . S
H1350 C1375 0.951 . S
H1351 C1377 0.950 . S
H1352 C1378 0.950 . S
H1353 C1380 0.950 . S
H1354 C1383 0.950 . S
H1355 C1384 0.950 . S
H1356 C1386 0.950 . S
H1357 C1387 0.950 . S
C1358 H1340 0.951 . S
C1358 C1359 1.366 . S
C1358 C1360 1.388 . S
C1359 C1358 1.366 . S
C1359 C1363 1.385 . S
C1360 H1341 0.951 . S
C1360 C1358 1.388 . S
C1360 C1361 1.366 . S
C1361 C1360 1.366 . S
C1361 C1362 1.414 . S
C1361 C1364 1.499 . S
C1362 H1342 0.950 . S
C1362 C1361 1.414 . S
C1362 C1363 1.374 . S
C1363 H1343 0.950 . S
C1363 C1359 1.385 . S
C1363 C1362 1.374 . S
C1364 C1361 1.499 . S
C1364 C1365 1.373 . S
C1364 C1366 1.389 . S
C1365 H1344 0.950 . S
C1365 C1364 1.373 . S
C1365 C1381 1.377 . S
C1366 C1364 1.389 . S
C1366 C1367 1.524 . S
C1366 C1380 1.377 . S
C1367 C1366 1.524 . S
C1367 C1368 1.397 . S
C1367 C1372 1.363 . S
C1368 H1345 0.950 . S
C1368 C1367 1.397 . S
C1368 C1369 1.334 . S
C1369 H1346 0.950 . S
C1369 C1368 1.334 . S
C1369 C1370 1.287 . S
C1370 C1369 1.287 . S
C1370 C1371 1.524 . S
C1370 H1389 0.913 . S
C1371 H1347 0.950 . S
C1371 C1370 1.524 . S
C1371 C1372 1.415 . S
C1372 H1348 0.950 . S
C1372 C1367 1.363 . S
C1372 C1371 1.415 . S
C1373 H1349 0.951 . S
C1373 C1374 1.366 . S
C1373 C1375 1.388 . S
C1374 C1373 1.366 . S
C1374 C1378 1.385 . S
C1375 H1350 0.951 . S
C1375 C1373 1.388 . S
C1375 C1376 1.366 . S
C1376 C1375 1.366 . S
C1376 C1377 1.414 . S
C1376 C1379 1.499 . S
C1377 H1351 0.950 . S
C1377 C1376 1.414 . S
C1377 C1378 1.374 . S
C1378 H1352 0.950 . S
C1378 C1374 1.385 . S
C1378 C1377 1.374 . S
C1379 C1376 1.499 . S
C1379 C1380 1.373 . S
C1379 C1381 1.389 . S
C1380 H1353 0.950 . S
C1380 C1366 1.377 . S
C1380 C1379 1.373 . S
C1381 C1365 1.377 . S
C1381 C1379 1.389 . S
C1381 C1382 1.524 . S
C1382 C1381 1.524 . S
C1382 C1383 1.397 . S
C1382 C1387 1.363 . S
C1383 H1354 0.950 . S
C1383 C1382 1.397 . S
C1383 C1384 1.334 1_556 S
C1384 H1355 0.950 . S
C1384 C1383 1.334 1_554 S
C1384 C1385 1.287 . S
C1385 C1384 1.287 . S
C1385 C1386 1.524 . S
C1385 H1388 0.999 . S
C1386 H1356 0.950 . S
C1386 C1385 1.524 . S
C1386 C1387 1.415 1_554 S
C1387 H1357 0.950 . S
C1387 C1382 1.363 . S
C1387 C1386 1.415 1_556 S
H1388 C1385 0.999 . S
H1389 C1370 0.913 . S
H1390 C1408 0.951 . S
H1391 C1410 0.951 . S
H1392 C1412 0.950 1_554 S
H1393 C1413 0.950 1_554 S
H1394 C1415 0.950 . S
H1395 C1418 0.950 . S
H1396 C1419 0.950 . S
H1397 C1421 0.950 . S
H1398 C1422 0.950 . S
H1399 C1423 0.951 . S
H1400 C1425 0.951 . S
H1401 C1427 0.950 . S
H1402 C1428 0.950 . S
H1403 C1430 0.950 . S
H1404 C1433 0.950 . S
H1405 C1434 0.950 . S
H1406 C1436 0.950 . S
H1407 C1437 0.950 1_554 S
C1408 H1390 0.951 . S
C1408 C1409 1.366 . S
C1408 C1410 1.388 . S
C1409 C1408 1.366 . S
C1409 C1413 1.385 . S
C1410 H1391 0.951 . S
C1410 C1408 1.388 . S
C1410 C1411 1.366 . S
C1411 C1410 1.366 . S
C1411 C1412 1.414 . S
C1411 C1414 1.499 . S
C1412 H1392 0.950 1_556 S
C1412 C1411 1.414 . S
C1412 C1413 1.374 . S
C1413 H1393 0.950 1_556 S
C1413 C1409 1.385 . S
C1413 C1412 1.374 . S
C1414 C1411 1.499 . S
C1414 C1415 1.373 . S
C1414 C1416 1.389 . S
C1415 H1394 0.950 . S
C1415 C1414 1.373 . S
C1415 C1431 1.377 . S
C1416 C1414 1.389 . S
C1416 C1417 1.524 . S
C1416 C1430 1.377 . S
C1417 C1416 1.524 . S
C1417 C1418 1.397 . S
C1417 C1422 1.363 . S
C1418 H1395 0.950 . S
C1418 C1417 1.397 . S
C1418 C1419 1.334 . S
C1419 H1396 0.950 . S
C1419 C1418 1.334 . S
C1419 C1420 1.287 . S
C1420 C1419 1.287 . S
C1420 C1421 1.524 . S
C1420 H1439 0.913 . S
C1421 H1397 0.950 . S
C1421 C1420 1.524 . S
C1421 C1422 1.415 . S
C1422 H1398 0.950 . S
C1422 C1417 1.363 . S
C1422 C1421 1.415 . S
C1423 H1399 0.951 . S
C1423 C1424 1.366 . S
C1423 C1425 1.388 . S
C1424 C1423 1.366 . S
C1424 C1428 1.385 . S
C1425 H1400 0.951 . S
C1425 C1423 1.388 . S
C1425 C1426 1.366 . S
C1426 C1425 1.366 . S
C1426 C1427 1.414 . S
C1426 C1429 1.499 . S
C1427 H1401 0.950 . S
C1427 C1426 1.414 . S
C1427 C1428 1.374 . S
C1428 H1402 0.950 . S
C1428 C1424 1.385 . S
C1428 C1427 1.374 . S
C1429 C1426 1.499 . S
C1429 C1430 1.373 . S
C1429 C1431 1.389 . S
C1430 H1403 0.950 . S
C1430 C1416 1.377 . S
C1430 C1429 1.373 . S
C1431 C1415 1.377 . S
C1431 C1429 1.389 . S
C1431 C1432 1.524 . S
C1432 C1431 1.524 . S
C1432 C1433 1.397 . S
C1432 C1437 1.363 . S
C1433 H1404 0.950 . S
C1433 C1432 1.397 . S
C1433 C1434 1.334 . S
C1434 H1405 0.950 . S
C1434 C1433 1.334 . S
C1434 C1435 1.287 . S
C1435 C1434 1.287 . S
C1435 C1436 1.524 1_556 S
C1435 H1438 0.999 . S
C1436 H1406 0.950 . S
C1436 C1435 1.524 1_554 S
C1436 C1437 1.415 1_554 S
C1437 H1407 0.950 1_556 S
C1437 C1432 1.363 . S
C1437 C1436 1.415 1_556 S
H1438 C1435 0.999 . S
H1439 C1420 0.913 . S
H1440 C1458 0.951 . S
H1441 C1460 0.951 . S
H1442 C1462 0.950 1_455 S
H1443 C1463 0.950 1_455 S
H1444 C1465 0.950 . S
H1445 C1468 0.950 . S
H1446 C1469 0.950 . S
H1447 C1471 0.950 . S
H1448 C1472 0.950 . S
H1449 C1473 0.951 . S
H1450 C1475 0.951 . S
H1451 C1477 0.950 . S
H1452 C1478 0.950 . S
H1453 C1480 0.950 . S
H1454 C1483 0.950 . S
H1455 C1484 0.950 . S
H1456 C1486 0.950 1_455 S
H1457 C1487 0.950 1_455 S
C1458 H1440 0.951 . S
C1458 C1459 1.366 . S
C1458 C1460 1.388 . S
C1459 C1458 1.366 . S
C1459 C1463 1.385 . S
C1460 H1441 0.951 . S
C1460 C1458 1.388 . S
C1460 C1461 1.366 . S
C1461 C1460 1.366 . S
C1461 C1462 1.414 . S
C1461 C1464 1.499 . S
C1462 H1442 0.950 1_655 S
C1462 C1461 1.414 . S
C1462 C1463 1.374 . S
C1463 H1443 0.950 1_655 S
C1463 C1459 1.385 . S
C1463 C1462 1.374 . S
C1464 C1461 1.499 . S
C1464 C1465 1.373 . S
C1464 C1466 1.389 . S
C1465 H1444 0.950 . S
C1465 C1464 1.373 . S
C1465 C1481 1.377 . S
C1466 C1464 1.389 . S
C1466 C1467 1.524 . S
C1466 C1480 1.377 . S
C1467 C1466 1.524 . S
C1467 C1468 1.397 1_655 S
C1467 C1472 1.363 . S
C1468 H1445 0.950 . S
C1468 C1467 1.397 1_455 S
C1468 C1469 1.334 . S
C1469 H1446 0.950 . S
C1469 C1468 1.334 . S
C1469 C1470 1.287 1_455 S
C1470 C1469 1.287 1_655 S
C1470 C1471 1.524 . S
C1470 H1489 0.910 1_655 S
C1471 H1447 0.950 . S
C1471 C1470 1.524 . S
C1471 C1472 1.415 . S
C1472 H1448 0.950 . S
C1472 C1467 1.363 . S
C1472 C1471 1.415 . S
C1473 H1449 0.951 . S
C1473 C1474 1.366 1_455 S
C1473 C1475 1.388 . S
C1474 C1473 1.366 1_655 S
C1474 C1478 1.385 . S
C1475 H1450 0.951 . S
C1475 C1473 1.388 . S
C1475 C1476 1.366 1_455 S
C1476 C1475 1.366 1_655 S
C1476 C1477 1.414 . S
C1476 C1479 1.499 . S
C1477 H1451 0.950 . S
C1477 C1476 1.414 . S
C1477 C1478 1.374 . S
C1478 H1452 0.950 . S
C1478 C1474 1.385 . S
C1478 C1477 1.374 . S
C1479 C1476 1.499 . S
C1479 C1480 1.373 . S
C1479 C1481 1.389 . S
C1480 H1453 0.950 . S
C1480 C1466 1.377 . S
C1480 C1479 1.373 . S
C1481 C1465 1.377 . S
C1481 C1479 1.389 . S
C1481 C1482 1.524 . S
C1482 C1481 1.524 . S
C1482 C1483 1.397 . S
C1482 C1487 1.363 . S
C1483 H1454 0.950 . S
C1483 C1482 1.397 . S
C1483 C1484 1.334 . S
C1484 H1455 0.950 . S
C1484 C1483 1.334 . S
C1484 C1485 1.287 . S
C1485 C1484 1.287 . S
C1485 C1486 1.524 . S
C1485 H1488 0.999 . S
C1486 H1456 0.950 1_655 S
C1486 C1485 1.524 . S
C1486 C1487 1.415 . S
C1487 H1457 0.950 1_655 S
C1487 C1482 1.363 . S
C1487 C1486 1.415 . S
H1488 C1485 0.999 . S
H1489 C1470 0.910 1_455 S
H1490 C1508 0.951 . S
H1491 C1510 0.951 . S
H1492 C1512 0.950 . S
H1493 C1513 0.952 1_545 S
H1494 C1515 0.950 . S
H1495 C1518 0.950 . S
H1496 C1519 0.950 . S
H1497 C1521 0.950 . S
H1498 C1522 0.950 . S
H1499 C1523 0.951 . S
H1500 C1525 0.951 . S
H1501 C1527 0.950 . S
H1502 C1528 0.950 . S
H1503 C1530 0.950 . S
H1504 C1533 0.950 1_565 S
H1505 C1534 0.950 . S
H1506 C1536 0.950 . S
H1507 C1537 0.950 . S
C1508 H1490 0.951 . S
C1508 C1509 1.366 . S
C1508 C1510 1.388 . S
C1509 C1508 1.366 . S
C1509 C1513 1.382 . S
C1510 H1491 0.951 . S
C1510 C1508 1.388 . S
C1510 C1511 1.366 . S
C1511 C1510 1.366 . S
C1511 C1512 1.414 1_565 S
C1511 C1514 1.499 . S
C1512 H1492 0.950 . S
C1512 C1511 1.414 1_545 S
C1512 C1513 1.374 1_545 S
C1513 H1493 0.952 1_565 S
C1513 C1509 1.382 . S
C1513 C1512 1.374 1_565 S
C1514 C1511 1.499 . S
C1514 C1515 1.373 1_565 S
C1514 C1516 1.389 . S
C1515 H1494 0.950 . S
C1515 C1514 1.373 1_545 S
C1515 C1531 1.377 . S
C1516 C1514 1.389 . S
C1516 C1517 1.524 . S
C1516 C1530 1.377 . S
C1517 C1516 1.524 . S
C1517 C1518 1.397 . S
C1517 C1522 1.363 . S
C1518 H1495 0.950 . S
C1518 C1517 1.397 . S
C1518 C1519 1.334 . S
C1519 H1496 0.950 . S
C1519 C1518 1.334 . S
C1519 C1520 1.287 . S
C1520 C1519 1.287 . S
C1520 C1521 1.524 . S
C1520 H1539 0.913 . S
C1521 H1497 0.950 . S
C1521 C1520 1.524 . S
C1521 C1522 1.415 . S
C1522 H1498 0.950 . S
C1522 C1517 1.363 . S
C1522 C1521 1.415 . S
C1523 H1499 0.951 . S
C1523 C1524 1.366 1_545 S
C1523 C1525 1.388 . S
C1524 C1523 1.366 1_565 S
C1524 C1528 1.385 . S
C1525 H1500 0.951 . S
C1525 C1523 1.388 . S
C1525 C1526 1.366 1_545 S
C1526 C1525 1.366 1_565 S
C1526 C1527 1.414 . S
C1526 C1529 1.499 . S
C1527 H1501 0.950 . S
C1527 C1526 1.414 . S
C1527 C1528 1.374 . S
C1528 H1502 0.950 . S
C1528 C1524 1.385 . S
C1528 C1527 1.374 . S
C1529 C1526 1.499 . S
C1529 C1530 1.373 . S
C1529 C1531 1.389 1_565 S
C1530 H1503 0.950 . S
C1530 C1516 1.377 . S
C1530 C1529 1.373 . S
C1531 C1515 1.377 . S
C1531 C1529 1.389 1_545 S
C1531 C1532 1.524 . S
C1532 C1531 1.524 . S
C1532 C1533 1.397 . S
C1532 C1537 1.363 . S
C1533 H1504 0.950 1_545 S
C1533 C1532 1.397 . S
C1533 C1534 1.334 . S
C1534 H1505 0.950 . S
C1534 C1533 1.334 . S
C1534 C1535 1.287 . S
C1535 C1534 1.287 . S
C1535 C1536 1.524 . S
C1535 H1538 0.999 . S
C1536 H1506 0.950 . S
C1536 C1535 1.524 . S
C1536 C1537 1.415 . S
C1537 H1507 0.950 . S
C1537 C1532 1.363 . S
C1537 C1536 1.415 . S
H1538 C1535 0.999 . S
H1539 C1520 0.913 . S
H1540 C1558 0.951 . S
H1541 C1560 0.951 . S
H1542 C1562 0.950 . S
H1543 C1563 0.950 . S
H1544 C1565 0.950 . S
H1545 C1568 0.950 . S
H1546 C1569 0.950 . S
H1547 C1571 0.950 . S
H1548 C1572 0.950 . S
H1549 C1573 0.951 . S
H1550 C1575 0.951 . S
H1551 C1577 0.950 . S
H1552 C1578 0.950 . S
H1553 C1580 0.950 . S
H1554 C1583 0.950 . S
H1555 C1584 0.950 . S
H1556 C1586 0.950 . S
H1557 C1587 0.950 . S
C1558 H1540 0.951 . S
C1558 C1559 1.366 . S
C1558 C1560 1.388 . S
C1559 C1558 1.366 . S
C1559 C1563 1.385 . S
C1560 H1541 0.951 . S
C1560 C1558 1.388 . S
C1560 C1561 1.366 . S
C1561 C1560 1.366 . S
C1561 C1562 1.414 . S
C1561 C1564 1.499 . S
C1562 H1542 0.950 . S
C1562 C1561 1.414 . S
C1562 C1563 1.374 . S
C1563 H1543 0.950 . S
C1563 C1559 1.385 . S
C1563 C1562 1.374 . S
C1564 C1561 1.499 . S
C1564 C1565 1.373 . S
C1564 C1566 1.389 . S
C1565 H1544 0.950 . S
C1565 C1564 1.373 . S
C1565 C1581 1.377 . S
C1566 C1564 1.389 . S
C1566 C1567 1.524 . S
C1566 C1580 1.377 . S
C1567 C1566 1.524 . S
C1567 C1568 1.397 . S
C1567 C1572 1.363 . S
C1568 H1545 0.950 . S
C1568 C1567 1.397 . S
C1568 C1569 1.334 . S
C1569 H1546 0.950 . S
C1569 C1568 1.334 . S
C1569 C1570 1.287 . S
C1570 C1569 1.287 . S
C1570 C1571 1.524 . S
C1570 H1589 0.913 . S
C1571 H1547 0.950 . S
C1571 C1570 1.524 . S
C1571 C1572 1.415 . S
C1572 H1548 0.950 . S
C1572 C1567 1.363 . S
C1572 C1571 1.415 . S
C1573 H1549 0.951 . S
C1573 C1574 1.366 . S
C1573 C1575 1.388 . S
C1574 C1573 1.366 . S
C1574 C1578 1.385 . S
C1575 H1550 0.951 . S
C1575 C1573 1.388 . S
C1575 C1576 1.366 . S
C1576 C1575 1.366 . S
C1576 C1577 1.414 . S
C1576 C1579 1.499 . S
C1577 H1551 0.950 . S
C1577 C1576 1.414 . S
C1577 C1578 1.374 . S
C1578 H1552 0.950 . S
C1578 C1574 1.385 . S
C1578 C1577 1.374 . S
C1579 C1576 1.499 . S
C1579 C1580 1.373 . S
C1579 C1581 1.389 . S
C1580 H1553 0.950 . S
C1580 C1566 1.377 . S
C1580 C1579 1.373 . S
C1581 C1565 1.377 . S
C1581 C1579 1.389 . S
C1581 C1582 1.524 . S
C1582 C1581 1.524 . S
C1582 C1583 1.397 . S
C1582 C1587 1.363 . S
C1583 H1554 0.950 . S
C1583 C1582 1.397 . S
C1583 C1584 1.334 . S
C1584 H1555 0.950 . S
C1584 C1583 1.334 . S
C1584 C1585 1.287 . S
C1585 C1584 1.287 . S
C1585 C1586 1.524 . S
C1585 H1588 0.999 . S
C1586 H1556 0.950 . S
C1586 C1585 1.524 . S
C1586 C1587 1.415 . S
C1587 H1557 0.950 . S
C1587 C1582 1.363 . S
C1587 C1586 1.415 . S
H1588 C1585 0.999 . S
H1589 C1570 0.913 . S
H1590 C1608 0.951 . S
H1591 C1610 0.951 . S
H1592 C1612 0.950 . S
H1593 C1613 0.950 . S
H1594 C1615 0.950 . S
H1595 C1618 0.950 . S
H1596 C1619 0.950 . S
H1597 C1621 0.950 . S
H1598 C1622 0.950 . S
H1599 C1623 0.951 . S
H1600 C1625 0.951 . S
H1601 C1627 0.950 . S
H1602 C1628 0.950 . S
H1603 C1630 0.950 . S
H1604 C1633 0.950 . S
H1605 C1634 0.950 . S
H1606 C1636 0.950 . S
H1607 C1637 0.950 . S
C1608 H1590 0.951 . S
C1608 C1609 1.366 . S
C1608 C1610 1.388 . S
C1609 C1608 1.366 . S
C1609 C1613 1.385 . S
C1610 H1591 0.951 . S
C1610 C1608 1.388 . S
C1610 C1611 1.366 . S
C1611 C1610 1.366 . S
C1611 C1612 1.414 . S
C1611 C1614 1.499 . S
C1612 H1592 0.950 . S
C1612 C1611 1.414 . S
C1612 C1613 1.374 . S
C1613 H1593 0.950 . S
C1613 C1609 1.385 . S
C1613 C1612 1.374 . S
C1614 C1611 1.499 . S
C1614 C1615 1.373 . S
C1614 C1616 1.389 . S
C1615 H1594 0.950 . S
C1615 C1614 1.373 . S
C1615 C1631 1.377 . S
C1616 C1614 1.389 . S
C1616 C1617 1.524 . S
C1616 C1630 1.377 . S
C1617 C1616 1.524 . S
C1617 C1618 1.397 . S
C1617 C1622 1.363 . S
C1618 H1595 0.950 . S
C1618 C1617 1.397 . S
C1618 C1619 1.334 . S
C1619 H1596 0.950 . S
C1619 C1618 1.334 . S
C1619 C1620 1.287 . S
C1620 C1619 1.287 . S
C1620 C1621 1.524 . S
C1620 H1639 0.913 . S
C1621 H1597 0.950 . S
C1621 C1620 1.524 . S
C1621 C1622 1.415 . S
C1622 H1598 0.950 . S
C1622 C1617 1.363 . S
C1622 C1621 1.415 . S
C1623 H1599 0.951 . S
C1623 C1624 1.366 . S
C1623 C1625 1.388 . S
C1624 C1623 1.366 . S
C1624 C1628 1.385 . S
C1625 H1600 0.951 . S
C1625 C1623 1.388 . S
C1625 C1626 1.366 . S
C1626 C1625 1.366 . S
C1626 C1627 1.414 . S
C1626 C1629 1.499 . S
C1627 H1601 0.950 . S
C1627 C1626 1.414 . S
C1627 C1628 1.374 . S
C1628 H1602 0.950 . S
C1628 C1624 1.385 . S
C1628 C1627 1.374 . S
C1629 C1626 1.499 . S
C1629 C1630 1.373 . S
C1629 C1631 1.389 . S
C1630 H1603 0.950 . S
C1630 C1616 1.377 . S
C1630 C1629 1.373 . S
C1631 C1615 1.377 . S
C1631 C1629 1.389 . S
C1631 C1632 1.524 . S
C1632 C1631 1.524 . S
C1632 C1633 1.397 . S
C1632 C1637 1.363 . S
C1633 H1604 0.950 . S
C1633 C1632 1.397 . S
C1633 C1634 1.334 . S
C1634 H1605 0.950 . S
C1634 C1633 1.334 . S
C1634 C1635 1.287 . S
C1635 C1634 1.287 . S
C1635 C1636 1.524 . S
C1635 H1638 0.999 . S
C1636 H1606 0.950 . S
C1636 C1635 1.524 . S
C1636 C1637 1.415 . S
C1637 H1607 0.950 . S
C1637 C1632 1.363 . S
C1637 C1636 1.415 . S
H1638 C1635 0.999 . S
H1639 C1620 0.913 . S
C459 N80 1.889 . S
C474 C172 1.934 . S
C524 C255 1.958 . S
C509 N93 1.896 . S
C574 C340 1.923 . S
C559 N54 1.877 . S
C624 C424 1.913 . S
C609 N67 1.869 . S
C674 C160 1.935 . S
C659 N28 1.896 . S
C709 N41 1.902 . S
C724 C243 1.958 . S
C759 N2 1.882 . S
C774 C328 1.922 . S
C809 N15 1.874 . S
C824 C412 1.913 1_655 S
C874 C162 0.534 1_455 S
C859 N70 0.397 . S
C924 C258 0.521 . S
C909 N83 0.365 . S
C974 C330 0.533 . S
C959 N96 0.399 . S
C1009 N57 0.376 . S
C1024 C414 0.528 . S
C1059 N18 0.392 . S
C1074 C174 0.534 . S
C1124 C246 0.521 . S
C1109 N31 0.359 . S
C1174 C342 0.531 . S
C1159 N44 0.395 . S
C1209 N5 0.373 . S
C1224 C426 0.524 . S
C1259 N66 1.927 1_556 S
C1274 C159 1.985 . S
C1309 N79 1.920 1_556 S
C1324 C244 1.973 . S
C1374 C327 2.005 . S
C1359 N92 1.945 . S
C1424 C411 2.011 . S
C1409 N53 1.951 1_556 S
C1459 N14 1.936 . S
C1474 C171 1.985 . S
C1524 C256 1.975 1_565 S
C1509 N27 1.931 . S
C1574 C339 2.004 . S
C1559 N40 1.954 . S
C1609 N1 1.962 . S
C1624 C423 2.011 . S
