# Generated by pormake.
# Topology zzz, (3,6)-cn, num edge types: 1
# Building blocks:
#     Node 0, Type 0, BuildingBlock: BETDAH_clean_linker_0, # of connection points: 3
#     Node 1, Type 0, BuildingBlock: BETDAH_clean_linker_0, # of connection points: 3
#     Node 2, Type 0, BuildingBlock: BETDAH_clean_linker_0, # of connection points: 3
#     Node 3, Type 0, BuildingBlock: BETDAH_clean_linker_0, # of connection points: 3
#     Node 4, Type 0, BuildingBlock: BETDAH_clean_linker_0, # of connection points: 3
#     Node 5, Type 0, BuildingBlock: BETDAH_clean_linker_0, # of connection points: 3
#     Node 6, Type 0, BuildingBlock: BETDAH_clean_linker_0, # of connection points: 3
#     Node 7, Type 0, BuildingBlock: BETDAH_clean_linker_0, # of connection points: 3
#     Node 8, Type 1, BuildingBlock: PAMTUU_clean_sbu_0, # of connection points: 6
#     Node 9, Type 1, BuildingBlock: PAMTUU_clean_sbu_0, # of connection points: 6
#     Node 10, Type 1, BuildingBlock: PAMTUU_clean_sbu_0, # of connection points: 6
#     Node 11, Type 1, BuildingBlock: PAMTUU_clean_sbu_0, # of connection points: 6
#     Edge 12, Type (0, 1), BuildingBlock: XIVTED_clean_linker_0, # of connection points: 2
#     Edge 13, Type (0, 1), BuildingBlock: XIVTED_clean_linker_0, # of connection points: 2
#     Edge 14, Type (0, 1), BuildingBlock: XIVTED_clean_linker_0, # of connection points: 2
#     Edge 15, Type (0, 1), BuildingBlock: XIVTED_clean_linker_0, # of connection points: 2
#     Edge 16, Type (0, 1), BuildingBlock: XIVTED_clean_linker_0, # of connection points: 2
#     Edge 17, Type (0, 1), BuildingBlock: XIVTED_clean_linker_0, # of connection points: 2
#     Edge 18, Type (0, 1), BuildingBlock: XIVTED_clean_linker_0, # of connection points: 2
#     Edge 19, Type (0, 1), BuildingBlock: XIVTED_clean_linker_0, # of connection points: 2
#     Edge 20, Type (0, 1), BuildingBlock: XIVTED_clean_linker_0, # of connection points: 2
#     Edge 21, Type (0, 1), BuildingBlock: XIVTED_clean_linker_0, # of connection points: 2
#     Edge 22, Type (0, 1), BuildingBlock: XIVTED_clean_linker_0, # of connection points: 2
#     Edge 23, Type (0, 1), BuildingBlock: XIVTED_clean_linker_0, # of connection points: 2
#     Edge 24, Type (0, 1), BuildingBlock: XIVTED_clean_linker_0, # of connection points: 2
#     Edge 25, Type (0, 1), BuildingBlock: XIVTED_clean_linker_0, # of connection points: 2
#     Edge 26, Type (0, 1), BuildingBlock: XIVTED_clean_linker_0, # of connection points: 2
#     Edge 27, Type (0, 1), BuildingBlock: XIVTED_clean_linker_0, # of connection points: 2
#     Edge 28, Type (0, 1), BuildingBlock: XIVTED_clean_linker_0, # of connection points: 2
#     Edge 29, Type (0, 1), BuildingBlock: XIVTED_clean_linker_0, # of connection points: 2
#     Edge 30, Type (0, 1), BuildingBlock: XIVTED_clean_linker_0, # of connection points: 2
#     Edge 31, Type (0, 1), BuildingBlock: XIVTED_clean_linker_0, # of connection points: 2
#     Edge 32, Type (0, 1), BuildingBlock: XIVTED_clean_linker_0, # of connection points: 2
#     Edge 33, Type (0, 1), BuildingBlock: XIVTED_clean_linker_0, # of connection points: 2
#     Edge 34, Type (0, 1), BuildingBlock: XIVTED_clean_linker_0, # of connection points: 2
#     Edge 35, Type (0, 1), BuildingBlock: XIVTED_clean_linker_0, # of connection points: 2
# Relax obj value: 0.217
# Max RMSD: 0.225
# Mean RMSD: 0.121
data_MOF--net-zzz--node1-PAMTUU_clean_sbu_0--node2-BETDAH_clean_linker_0--edge1-XIVTED_clean_linker_0
_symmetry_space_group_name_H-M    P1
_symmetry_Int_Tables_number       1
_symmetry_cell_setting            triclinic
loop_
_symmetry_equiv_pos_as_xyz
'x, y, z'
_cell_length_a     51.221949
_cell_length_b     54.771728
_cell_length_c     15.724626
_cell_angle_alpha  101.02961
_cell_angle_beta   90.392986
_cell_angle_gamma 90.763139
loop_
_atom_site_label
_atom_site_type_symbol
_atom_site_fract_x
_atom_site_fract_y
_atom_site_fract_z
_atom_type_partial_charge
H0 H 0.81826 0.54912 0.45815 0.0
H1 H 0.7401 0.53941 0.35706 0.0
H2 H 0.76631 0.49742 0.54718 0.0
C3 C 0.79884 0.54107 0.45966 0.0
C4 C 0.79477 0.52313 0.51092 0.0
C5 C 0.77937 0.54684 0.4037 0.0
C6 C 0.75477 0.53532 0.40203 0.0
C7 C 0.74962 0.51766 0.45426 0.0
C8 C 0.76976 0.51169 0.5093 0.0
N9 N 0.72501 0.50476 0.44839 0.0
C10 C 0.70535 0.50679 0.38743 0.0
H11 H 0.97922 0.81502 0.3829 0.0
H12 H 0.98809 0.73626 0.30643 0.0
H13 H 0.95265 0.76687 0.55157 0.0
C14 C 0.97571 0.79643 0.39535 0.0
C15 C 0.9644 0.79342 0.47345 0.0
C16 C 0.98442 0.77598 0.33574 0.0
C17 C 0.98099 0.75196 0.35262 0.0
C18 C 0.96889 0.74855 0.43016 0.0
C19 C 0.96113 0.76939 0.49082 0.0
N20 N 0.96478 0.72458 0.45003 0.0
C21 C 0.96972 0.70267 0.3921 0.0
H22 H 0.72095 0.96164 0.36451 0.0
H23 H 0.79758 0.97913 0.28506 0.0
H24 H 0.77005 0.01267 0.53932 0.0
C25 C 0.7398 0.97063 0.38063 0.0
C26 C 0.74312 0.98651 0.46136 0.0
C27 C 0.7592 0.96806 0.31699 0.0
C28 C 0.78291 0.98098 0.33509 0.0
C29 C 0.7872 0.99707 0.41514 0.0
C30 C 0.76707 0.99997 0.4781 0.0
N31 N 0.81113 0.01102 0.43187 0.0
C32 C 0.83137 0.01037 0.37158 0.0
H33 H 0.52983 0.69625 0.16493 0.0
H34 H 0.51491 0.7604 0.05217 0.0
H35 H 0.55366 0.76852 0.3017 0.0
C36 C 0.53094 0.71626 0.16882 0.0
C37 C 0.54309 0.73103 0.24041 0.0
C38 C 0.52052 0.72657 0.10149 0.0
C39 C 0.52263 0.75243 0.10487 0.0
C40 C 0.53448 0.76778 0.17802 0.0
C41 C 0.5444 0.75689 0.24584 0.0
N42 N 0.53672 0.79412 0.18721 0.0
C43 C 0.53251 0.80821 0.12329 0.0
H44 H 0.21974 0.46634 0.27777 0.0
H45 H 0.30016 0.4757 0.35355 0.0
H46 H 0.27506 0.49121 0.10679 0.0
C47 C 0.23972 0.47032 0.26188 0.0
C48 C 0.24474 0.47795 0.18323 0.0
C49 C 0.25957 0.46976 0.32346 0.0
C50 C 0.28513 0.47609 0.30523 0.0
C51 C 0.29113 0.48378 0.22736 0.0
C52 C 0.27072 0.48495 0.16651 0.0
N53 N 0.31731 0.49097 0.21089 0.0
C54 C 0.33816 0.49146 0.26986 0.0
H55 H 0.02531 0.21058 0.27489 0.0
H56 H 0.05154 0.28468 0.37882 0.0
H57 H 0.0631 0.25354 0.10786 0.0
C58 C 0.03369 0.22804 0.26416 0.0
C59 C 0.0433 0.22975 0.18241 0.0
C60 C 0.0366 0.24768 0.33458 0.0
C61 C 0.04877 0.26981 0.32321 0.0
C62 C 0.05776 0.27228 0.24034 0.0
C63 C 0.05551 0.25196 0.17078 0.0
N64 N 0.0693 0.29481 0.22556 0.0
C65 C 0.06736 0.31701 0.28484 0.0
H66 H 0.31163 0.96072 0.17347 0.0
H67 H 0.24053 0.97585 0.31595 0.0
H68 H 0.26821 0.026 0.1542 0.0
C69 C 0.29434 0.97189 0.18858 0.0
C70 C 0.29197 0.99362 0.15472 0.0
C71 C 0.27614 0.96558 0.24757 0.0
C72 C 0.25442 0.98072 0.27008 0.0
C73 C 0.25109 0.00241 0.23584 0.0
C74 C 0.27024 0.009 0.1791 0.0
N75 N 0.22921 0.01817 0.25921 0.0
C76 C 0.20923 0.01389 0.31557 0.0
H77 H 0.50839 0.30997 0.43974 0.0
H78 H 0.50679 0.25225 0.59135 0.0
H79 H 0.46316 0.24362 0.351 0.0
C80 C 0.50244 0.29143 0.44757 0.0
C81 C 0.48554 0.27767 0.38628 0.0
C82 C 0.51005 0.2827 0.52199 0.0
C83 C 0.5014 0.25895 0.53325 0.0
C84 C 0.48493 0.24441 0.46994 0.0
C85 C 0.47659 0.25425 0.3979 0.0
N86 N 0.47491 0.22061 0.47824 0.0
C87 C 0.48566 0.20439 0.52702 0.0
Tb88 Tb 1.00153 0.0202 0.77427 0.0
Tb89 Tb 0.0389 0.99578 0.90466 0.0
C90 C 0.98047 0.00763 0.95126 0.0
C91 C 0.98206 0.06791 0.65463 0.0
C92 C 0.99302 0.11594 0.62223 0.0
C93 C 0.96886 0.10397 0.59698 0.0
C94 C 0.96336 0.08023 0.61382 0.0
C95 C 1.00639 0.07939 0.67732 0.0
C96 C 1.01172 0.10321 0.66237 0.0
C97 C 0.97549 0.04449 0.68259 0.0
O98 O 0.03105 0.04742 0.82793 0.0
O99 O 0.03756 0.03555 0.95758 0.0
O100 O 0.06499 0.00793 0.81086 0.0
O101 O 0.03577 0.00566 0.69877 0.0
O102 O 0.0501 0.99074 0.02895 0.0
O103 O 0.07064 0.97267 0.91542 0.0
O104 O 0.02232 0.96515 0.81058 0.0
O105 O 0.98613 0.98263 0.75996 0.0
O106 O 0.98083 0.02352 0.898 0.0
O107 O 0.9994 0.99168 0.95125 0.0
C108 C 0.03788 0.05266 0.9095 0.0
O109 O 0.98947 0.02525 0.6504 0.0
O110 O 0.97305 0.04676 0.76598 0.0
C111 C 0.06003 0.00638 0.72776 0.0
C112 C 0.06215 0.94899 0.02071 0.0
C113 C 0.05359 0.90016 0.0487 0.0
C114 C 0.07898 0.91058 0.05376 0.0
C115 C 0.08321 0.93482 0.03971 0.0
C116 C 0.03683 0.93871 0.01578 0.0
C117 C 0.03258 0.91464 0.03014 0.0
C118 C 0.06661 0.97345 0.99754 0.0
C119 C 0.99933 0.96316 0.77197 0.0
H120 H 0.95415 0.11288 0.56423 0.0
H121 H 0.94439 0.07169 0.59623 0.0
H122 H 0.02112 0.07021 0.70874 0.0
H123 H 0.03036 0.11178 0.68426 0.0
H124 H 0.09564 0.8999 0.06713 0.0
H125 H 0.10294 0.94232 0.04218 0.0
H126 H 0.02032 0.9492 0.99984 0.0
H127 H 1.01271 0.90751 0.02745 0.0
Tb128 Tb 0.5035 0.98609 0.70431 0.0
Tb129 Tb 0.52561 0.01641 0.88703 0.0
C130 C 0.51767 0.95901 0.85141 0.0
C131 C 0.46339 0.94422 0.54466 0.0
C132 C 0.41526 0.91878 0.50926 0.0
C133 C 0.43052 0.92476 0.44157 0.0
C134 C 0.45436 0.9374 0.45926 0.0
C135 C 0.44913 0.93705 0.61199 0.0
C136 C 0.42529 0.92432 0.59439 0.0
C137 C 0.48629 0.9607 0.56413 0.0
O138 O 0.46758 0.99622 0.77641 0.0
O139 O 0.48385 0.01342 0.91217 0.0
O140 O 0.50836 0.04511 0.82744 0.0
O141 O 0.51194 0.0242 0.68707 0.0
O142 O 0.52619 0.01969 0.02229 0.0
O143 O 0.55168 0.04241 0.96007 0.0
O144 O 0.55797 0.01665 0.79715 0.0
O145 O 0.54614 0.98223 0.69732 0.0
O146 O 0.49889 0.96178 0.79764 0.0
O147 O 0.53488 0.97701 0.87429 0.0
C148 C 0.46414 0.00566 0.85915 0.0
O149 O 0.48107 0.98414 0.59103 0.0
O150 O 0.50444 0.95314 0.61109 0.0
C151 C 0.50874 0.04501 0.74381 0.0
C152 C 0.571 0.02034 0.05719 0.0
C153 C 0.61696 0.99254 0.05754 0.0
C154 C 0.61829 0.01851 0.06267 0.0
C155 C 0.59551 0.03225 0.06207 0.0
C156 C 0.56969 0.99477 0.05925 0.0
C157 C 0.59236 0.98104 0.05872 0.0
C158 C 0.54796 0.03258 0.02843 0.0
C159 C 0.56391 0.9988 0.7322 0.0
H160 H 0.42328 0.92126 0.37543 0.0
H161 H 0.46513 0.94289 0.40671 0.0
H162 H 0.45589 0.94221 0.67854 0.0
H163 H 0.41419 0.91982 0.64785 0.0
H164 H 0.63693 0.02818 0.06503 0.0
H165 H 0.59709 0.05189 0.06013 0.0
H166 H 0.55115 0.98485 0.05516 0.0
H167 H 0.59044 0.96116 0.05498 0.0
Tb168 Tb 0.50316 0.49944 0.89646 0.0
Tb169 Tb 0.54523 0.51007 0.75027 0.0
C170 C 0.48578 0.50091 0.70607 0.0
C171 C 0.46617 0.46317 0.03091 0.0
C172 C 0.46011 0.41651 0.08118 0.0
C173 C 0.46666 0.41792 0.99543 0.0
C174 C 0.46963 0.441 0.97058 0.0
C175 C 0.45887 0.46188 0.11571 0.0
C176 C 0.45577 0.43879 0.1406 0.0
C177 C 0.47259 0.48746 0.00816 0.0
O178 O 0.52316 0.46452 0.85533 0.0
O179 O 0.5408 0.46963 0.72519 0.0
O180 O 0.56818 0.49991 0.85554 0.0
O181 O 0.53944 0.51412 0.96348 0.0
O182 O 0.58028 0.5275 0.72427 0.0
O183 O 0.5559 0.50802 0.62017 0.0
O184 O 0.53605 0.54572 0.82951 0.0
O185 O 0.49624 0.53806 0.88625 0.0
O186 O 0.48424 0.48828 0.76914 0.0
O187 O 0.50617 0.51531 0.70071 0.0
C188 C 0.53396 0.45546 0.78058 0.0
O189 O 0.49654 0.49513 0.02466 0.0
O190 O 0.46507 0.49071 0.93189 0.0
C191 C 0.56318 0.50736 0.9383 0.0
C192 C 0.575 0.54632 0.60355 0.0
C193 C 0.57495 0.59173 0.5424 0.0
C194 C 0.59771 0.57734 0.53847 0.0
C195 C 0.59771 0.55487 0.56877 0.0
C196 C 0.55227 0.56053 0.60759 0.0
C197 C 0.5522 0.5829 0.57708 0.0
C198 C 0.57539 0.52365 0.64134 0.0
C199 C 0.51366 0.55349 0.8638 0.0
H200 H 0.46984 0.40117 0.94772 0.0
H201 H 0.47526 0.44156 0.90471 0.0
H202 H 0.45633 0.47877 0.16344 0.0
H203 H 0.45103 0.43846 0.20738 0.0
H204 H 0.61571 0.58362 0.5134 0.0
H205 H 0.61554 0.54435 0.56617 0.0
H206 H 0.53456 0.55442 0.63508 0.0
H207 H 0.53418 0.59312 0.58002 0.0
Tb208 Tb 0.0306 0.5228 0.79516 0.0
Tb209 Tb 1.00745 0.48904 0.92361 0.0
C210 C 1.00742 0.54694 0.96961 0.0
C211 C 0.08278 0.54434 0.68388 0.0
C212 C 0.13212 0.52225 0.67213 0.0
C213 C 0.11435 0.51689 0.60241 0.0
C214 C 0.08998 0.52801 0.60787 0.0
C215 C 0.10171 0.55169 0.74974 0.0
C216 C 0.12622 0.54069 0.74384 0.0
C217 C 0.05477 0.54784 0.70359 0.0
O218 O 0.06186 0.51893 0.88827 0.0
O219 O 0.0494 0.48228 0.92648 0.0
O220 O 1.01267 0.46335 0.80181 0.0
O221 O 0.04399 0.4855 0.74448 0.0
O222 O 1.00685 0.47959 0.04721 0.0
O223 O 0.97923 0.46309 0.94799 0.0
O224 O 0.97373 0.50571 0.87086 0.0
O225 O 0.99135 0.51206 0.74369 0.0
O226 O 1.00703 0.54739 0.88686 0.0
O227 O 1.01371 0.52662 0.99667 0.0
C228 C 0.06753 0.49914 0.92071 0.0
O229 O 0.03958 0.52897 0.67081 0.0
O230 O 0.04936 0.5564 0.78473 0.0
C231 C 0.03096 0.46476 0.74484 0.0
C232 C 0.96199 0.48191 0.08075 0.0
C233 C 0.91865 0.51317 0.11947 0.0
C234 C 0.91507 0.48766 0.08461 0.0
C235 C 0.93656 0.47219 0.06516 0.0
C236 C 0.96539 0.50683 0.12305 0.0
C237 C 0.94402 0.52234 0.14135 0.0
C238 C 0.98383 0.46914 0.03108 0.0
C239 C 0.9708 0.50899 0.79065 0.0
H240 H 0.11893 0.50334 0.54491 0.0
H241 H 0.07598 0.52218 0.5557 0.0
H242 H 0.09695 0.56441 0.80903 0.0
H243 H 0.13988 0.54544 0.79757 0.0
H244 H 0.8957 0.47978 0.06973 0.0
H245 H 0.93338 0.45313 0.03202 0.0
H246 H 0.98469 0.51502 0.13593 0.0
H247 H 0.94761 0.54182 0.1683 0.0
H248 H 0.15759 0.0095 0.27474 0.0
H249 H 0.11279 0.00792 0.76375 0.0
H250 H 0.21155 0.01253 0.48768 0.0
H251 H 0.05847 0.00509 0.55107 0.0
H252 H 0.14897 0.00877 0.66358 0.0
H253 H 0.12112 0.00688 0.37369 0.0
C254 C 0.16172 0.00947 0.34239 0.0
C255 C 0.18757 0.01116 0.37318 0.0
C256 C 0.12916 0.00792 0.63862 0.0
C257 C 0.14592 0.00835 0.48736 0.0
C258 C 0.10838 0.00743 0.69598 0.0
C259 C 0.08232 0.00643 0.66634 0.0
C260 C 0.1241 0.00743 0.55027 0.0
C261 C 0.07811 0.00584 0.57737 0.0
C262 C 0.1409 0.00803 0.39898 0.0
C263 C 0.19188 0.01118 0.46139 0.0
N264 N 0.09868 0.00638 0.52284 0.0
N265 N 0.17132 0.00984 0.51531 0.0
H266 H 0.4813 0.1989 0.69511 0.0
H267 H 0.51393 0.05331 0.57779 0.0
H268 H 0.50517 0.16122 0.44246 0.0
H269 H 0.49896 0.09174 0.83864 0.0
H270 H 0.51078 0.09277 0.52803 0.0
H271 H 0.48825 0.16034 0.75068 0.0
C272 C 0.48845 0.18259 0.65187 0.0
C273 C 0.49299 0.18318 0.56452 0.0
C274 C 0.50823 0.09263 0.59623 0.0
C275 C 0.50037 0.13894 0.62653 0.0
C276 C 0.50995 0.07001 0.62477 0.0
C277 C 0.50667 0.06903 0.71272 0.0
C278 C 0.50302 0.11463 0.65572 0.0
C279 C 0.50163 0.09148 0.77026 0.0
C280 C 0.49227 0.16056 0.68332 0.0
C281 C 0.50175 0.16152 0.51055 0.0
N282 N 0.49988 0.11327 0.74078 0.0
N283 N 0.50502 0.14028 0.54222 0.0
H284 H 0.34381 0.46282 0.3924 0.0
H285 H 0.48118 0.52629 0.57172 0.0
H286 H 0.38134 0.52155 0.28937 0.0
H287 H 0.44075 0.47187 0.6896 0.0
H288 H 0.44567 0.52375 0.46544 0.0
H289 H 0.37963 0.46476 0.49845 0.0
C290 C 0.35961 0.47615 0.3922 0.0
C291 C 0.35959 0.49212 0.33229 0.0
C292 C 0.44451 0.51234 0.51447 0.0
C293 C 0.40084 0.49441 0.45336 0.0
C294 C 0.46487 0.51375 0.57544 0.0
C295 C 0.46413 0.49928 0.64036 0.0
C296 C 0.42304 0.49626 0.51754 0.0
C297 C 0.4423 0.48342 0.64115 0.0
C298 C 0.38009 0.47725 0.45277 0.0
C299 C 0.38061 0.50892 0.33457 0.0
N300 N 0.42274 0.48234 0.58092 0.0
N301 N 0.40034 0.50963 0.39391 0.0
H302 H 0.09851 0.35801 0.32707 0.0
H303 H 1.00535 0.41973 0.71415 0.0
H304 H 0.02625 0.32485 0.39052 0.0
H305 H 0.0704 0.45897 0.62584 0.0
H306 H 1.01477 0.38361 0.60234 0.0
H307 H 0.0904 0.39436 0.44194 0.0
C308 C 0.08095 0.35852 0.36537 0.0
C309 C 0.06297 0.33871 0.3503 0.0
C310 C 0.027 0.40012 0.60741 0.0
C311 C 0.05363 0.37967 0.4809 0.0
C312 C 0.02168 0.42074 0.6715 0.0
C313 C 0.03705 0.44246 0.67932 0.0
C314 C 0.04791 0.40112 0.55082 0.0
C315 C 0.05795 0.44265 0.62202 0.0
C316 C 0.07632 0.37915 0.43067 0.0
C317 C 0.04054 0.33991 0.40093 0.0
N318 N 0.06277 0.42229 0.56015 0.0
N319 N 0.0365 0.36006 0.46426 0.0
H320 H 0.83675 0.03899 0.24907 0.0
H321 H 0.97311 0.97803 0.07272 0.0
H322 H 0.87408 0.9809 0.35252 0.0
H323 H 0.93693 0.03744 0.97215 0.0
H324 H 0.93692 0.97851 0.17373 0.0
H325 H 0.87277 0.03841 0.14595 0.0
C326 C 0.85257 0.02609 0.24991 0.0
C327 C 0.8525 0.00999 0.30933 0.0
C328 C 0.93684 0.99146 0.12963 0.0
C329 C 0.8939 0.00915 0.19149 0.0
C330 C 0.95759 0.99121 0.07164 0.0
C331 C 0.95829 0.00775 0.01328 0.0
C332 C 0.91637 0.00835 0.12991 0.0
C333 C 0.93741 0.02433 0.01562 0.0
C334 C 0.87315 0.02576 0.19107 0.0
C335 C 0.87342 0.99363 0.30772 0.0
N336 N 0.91742 0.0242 0.07267 0.0
N337 N 0.89323 0.99363 0.24997 0.0
H338 H 0.57161 0.83847 0.09269 0.0
H339 H 0.48112 0.92134 0.84305 0.0
H340 H 0.48995 0.82237 0.03994 0.0
H341 H 0.55918 0.9426 0.93512 0.0
H342 H 0.48487 0.88308 0.90155 0.0
H343 H 0.56847 0.87436 0.02109 0.0
C344 C 0.55309 0.84233 0.06464 0.0
C345 C 0.53107 0.82741 0.07128 0.0
C346 C 0.50118 0.89611 0.90895 0.0
C347 C 0.52711 0.8687 0.99039 0.0
C348 C 0.49908 0.91797 0.8754 0.0
C349 C 0.51981 0.93541 0.88479 0.0
C350 C 0.52427 0.89145 0.95163 0.0
C351 C 0.54258 0.92994 0.92733 0.0
C352 C 0.55124 0.86291 0.0243 0.0
C353 C 0.50743 0.83335 0.03522 0.0
N354 N 0.54419 0.90852 0.959 0.0
N355 N 0.50604 0.85358 0.9964 0.0
H356 H 0.65499 0.52092 0.41768 0.0
H357 H 0.61492 0.49521 0.91142 0.0
H358 H 0.70888 0.49539 0.21198 0.0
H359 H 0.56067 0.52104 0.11656 0.0
H360 H 0.64949 0.49577 0.02005 0.0
H361 H 0.62038 0.52182 0.30905 0.0
C362 C 0.65951 0.51556 0.3495 0.0
C363 C 0.68478 0.50805 0.32359 0.0
C364 C 0.63005 0.50137 0.04146 0.0
C365 C 0.64526 0.50891 0.19851 0.0
C366 C 0.61021 0.50106 0.97923 0.0
C367 C 0.58464 0.50809 0.00428 0.0
C368 C 0.62452 0.50873 0.13013 0.0
C369 C 0.57997 0.51546 0.09364 0.0
C370 C 0.63975 0.51604 0.28742 0.0
C371 C 0.68962 0.50128 0.23455 0.0
N372 N 0.59961 0.51556 0.15296 0.0
N373 N 0.6701 0.50182 0.17537 0.0
H374 H 0.96475 0.69589 0.21861 0.0
H375 H 1.01018 0.55405 0.14667 0.0
H376 H 0.98574 0.65889 0.427 0.0
H377 H 0.99083 0.59167 0.93751 0.0
H378 H 1.00027 0.59184 0.25039 0.0
H379 H 0.97339 0.65754 0.11426 0.0
C380 C 0.9712 0.67958 0.24199 0.0
C381 C 0.97464 0.68024 0.33063 0.0
C382 C 0.99816 0.59183 0.18182 0.0
C383 C 0.98448 0.63654 0.2129 0.0
C384 C 1.00374 0.57021 0.12247 0.0
C385 C 1.00129 0.56965 0.03317 0.0
C386 C 0.99012 0.61311 0.15174 0.0
C387 C 0.99305 0.59125 0.00572 0.0
C388 C 0.97611 0.65774 0.18274 0.0
C389 C 0.98293 0.65887 0.35865 0.0
N390 N 0.98779 0.6121 0.06479 0.0
N391 N 0.9876 0.6378 0.29983 0.0
H392 H 0.06951 0.2384 0.45922 0.0
H393 H 0.95938 0.15511 0.62471 0.0
H394 H 0.9879 0.24266 0.39733 0.0
H395 H 0.04035 0.13527 0.58335 0.0
H396 H 0.96944 0.19566 0.58804 0.0
H397 H 0.0584 0.21094 0.55993 0.0
C398 C 0.04914 0.23464 0.47058 0.0
C399 C 0.02955 0.24262 0.42017 0.0
C400 C 0.98499 0.18248 0.58862 0.0
C401 C 1.0168 0.21067 0.53198 0.0
C402 C 0.97926 0.15919 0.60835 0.0
C403 C 0.99894 0.1414 0.60613 0.0
C404 C 1.01064 0.1882 0.56766 0.0
C405 C 0.02448 0.14825 0.58702 0.0
C406 C 0.04283 0.21863 0.52677 0.0
C407 C 1.00347 0.23684 0.43555 0.0
N408 N 0.02952 0.17099 0.5681 0.0
N409 N 0.99783 0.22071 0.48883 0.0
H410 H 0.29359 0.91858 0.18261 0.0
H411 H 0.3727 0.93371 0.60971 0.0
H412 H 0.27445 0.96751 0.42216 0.0
H413 H 0.39418 0.88627 0.36921 0.0
H414 H 0.32771 0.93215 0.55945 0.0
H415 H 0.31947 0.89362 0.26411 0.0
C416 C 0.29415 0.92358 0.25269 0.0
C417 C 0.28272 0.94565 0.29551 0.0
C418 C 0.34208 0.9215 0.51839 0.0
C419 C 0.31264 0.91757 0.38885 0.0
C420 C 0.3679 0.92222 0.54742 0.0
C421 C 0.38753 0.91094 0.49206 0.0
C422 C 0.33599 0.90991 0.43283 0.0
C423 C 0.37986 0.8962 0.41246 0.0
C424 C 0.30894 0.90934 0.29926 0.0
C425 C 0.28341 0.95093 0.38635 0.0
N426 N 0.35482 0.89672 0.38405 0.0
N427 N 0.29883 0.93742 0.42989 0.0
H428 H 0.49339 0.30178 0.68524 0.0
H429 H 0.55896 0.42849 0.6395 0.0
H430 H 0.55643 0.30656 0.50907 0.0
H431 H 0.51746 0.41982 0.87018 0.0
H432 H 0.56095 0.3832 0.5975 0.0
H433 H 0.50541 0.34333 0.76558 0.0
C434 C 0.51056 0.31107 0.66605 0.0
C435 C 0.52383 0.30084 0.59014 0.0
C436 C 0.5517 0.39123 0.65792 0.0
C437 C 0.5369 0.34877 0.67877 0.0
C438 C 0.55043 0.41713 0.68168 0.0
C439 C 0.53761 0.4281 0.75774 0.0
C440 C 0.5397 0.37611 0.70977 0.0
C441 C 0.52716 0.4123 0.8102 0.0
C442 C 0.51718 0.33498 0.71104 0.0
C443 C 0.54565 0.3139 0.56716 0.0
N444 N 0.52805 0.38717 0.78458 0.0
N445 N 0.55105 0.33745 0.6097 0.0
H446 H 0.27581 0.49822 0.47707 0.0
H447 H 0.13765 0.472 0.63311 0.0
H448 H 0.2268 0.43485 0.37168 0.0
H449 H 0.18188 0.54041 0.70628 0.0
H450 H 0.17813 0.44991 0.59226 0.0
H451 H 0.2516 0.50344 0.61172 0.0
C452 C 0.26062 0.48475 0.48338 0.0
C453 C 0.25243 0.46675 0.41188 0.0
C454 C 0.17911 0.46963 0.61947 0.0
C455 C 0.22421 0.47319 0.56446 0.0
C456 C 0.15603 0.48225 0.64205 0.0
C457 C 0.15652 0.50817 0.66908 0.0
C458 C 0.20264 0.48321 0.62202 0.0
C459 C 0.18072 0.5205 0.68312 0.0
C460 C 0.24668 0.48785 0.56033 0.0
C461 C 0.23292 0.44964 0.42429 0.0
N462 N 0.20285 0.508 0.657 0.0
N463 N 0.21888 0.45374 0.49829 0.0
H464 H 0.03678 0.78093 0.32427 0.0
H465 H 0.01834 0.86486 0.96737 0.0
H466 H 0.96506 0.78532 0.18407 0.0
H467 H 0.07755 0.87713 0.16848 0.0
H468 H 1.00569 0.82606 0.01213 0.0
H469 H 0.05898 0.80533 0.23007 0.0
C470 C 0.02607 0.78605 0.27081 0.0
C471 C 0.9992 0.78109 0.26107 0.0
C472 C 0.02173 0.83708 0.04539 0.0
C473 C 0.02402 0.80957 0.15558 0.0
C474 C 0.02884 0.85934 0.02047 0.0
C475 C 0.04862 0.87469 0.06569 0.0
C476 C 0.03458 0.82997 0.11565 0.0
C477 C 0.06214 0.86605 0.13186 0.0
C478 C 0.0386 0.80023 0.21796 0.0
C479 C 0.98589 0.78863 0.19266 0.0
N480 N 0.05463 0.84444 0.15559 0.0
N481 N 0.99835 0.80287 0.14319 0.0
H482 H 0.76655 0.98659 0.16959 0.0
H483 H 0.62641 0.95088 0.12624 0.0
H484 H 0.73439 0.92304 0.2592 0.0
H485 H 0.66248 0.99919 0.97211 0.0
H486 H 0.66763 0.93031 0.13263 0.0
H487 H 0.73505 0.97995 0.05132 0.0
C488 C 0.75368 0.97044 0.16205 0.0
C489 C 0.75188 0.95624 0.22721 0.0
C490 C 0.66654 0.94506 0.09574 0.0
C491 C 0.71502 0.94935 0.0949 0.0
C492 C 0.64283 0.95694 0.09216 0.0
C493 C 0.64109 0.97757 0.05151 0.0
C494 C 0.68897 0.95442 0.06131 0.0
C495 C 0.66319 0.98426 0.00824 0.0
C496 C 0.7354 0.96678 0.09463 0.0
C497 C 0.73537 0.93521 0.21252 0.0
N498 N 0.6864 0.97318 0.01632 0.0
N499 N 0.71669 0.93299 0.14988 0.0
H500 H 0.47384 0.70244 0.0969 0.0
H501 H 0.5402 0.58814 0.79342 0.0
H502 H 0.54285 0.70804 0.94693 0.0
H503 H 0.47562 0.58079 0.96217 0.0
H504 H 0.53453 0.63293 0.82163 0.0
H505 H 0.46642 0.65995 0.01706 0.0
C506 C 0.4866 0.69517 0.04363 0.0
C507 C 0.50896 0.70872 0.0282 0.0
C508 C 0.52142 0.62159 0.85208 0.0
C509 C 0.50138 0.65978 0.93955 0.0
C510 C 0.52472 0.59591 0.83644 0.0
C511 C 0.50871 0.5806 0.87706 0.0
C512 C 0.50209 0.63231 0.90956 0.0
C513 C 0.48865 0.59186 0.93042 0.0
C514 C 0.48268 0.67072 0.99929 0.0
C515 C 0.52527 0.69827 0.96017 0.0
N516 N 0.48615 0.61708 0.94614 0.0
N517 N 0.52152 0.6742 0.91971 0.0
H518 H 0.80736 0.59059 0.41678 0.0
H519 H 0.87496 0.51265 0.01635 0.0
H520 H 0.77082 0.53209 0.22994 0.0
H521 H 0.911 0.55307 0.25166 0.0
H522 H 0.83499 0.53612 0.05336 0.0
H523 H 0.84047 0.59547 0.31019 0.0
C524 C 0.8055 0.57967 0.35179 0.0
C525 C 0.78744 0.55983 0.33364 0.0
C526 C 0.85196 0.54029 0.0954 0.0
C527 C 0.82527 0.56488 0.21313 0.0
C528 C 0.87461 0.5266 0.07529 0.0
C529 C 0.89602 0.53009 0.13294 0.0
C530 C 0.85074 0.55754 0.17366 0.0
C531 C 0.89491 0.54933 0.20589 0.0
C532 C 0.82452 0.58233 0.29113 0.0
C533 C 0.78521 0.54687 0.24782 0.0
N534 N 0.87246 0.56197 0.22497 0.0
N535 N 0.80467 0.54887 0.19139 0.0
H536 H 0.08304 0.20851 0.07855 0.0
H537 H 0.02529 0.07729 0.07063 0.0
H538 H 1.00167 0.19867 0.13496 0.0
H539 H 0.06123 0.08766 0.83243 0.0
H540 H 0.02669 0.12254 0.12176 0.0
H541 H 0.08397 0.16473 0.00302 0.0
C542 C 0.06521 0.19742 0.0726 0.0
C543 C 0.04235 0.20701 0.11421 0.0
C544 C 0.03456 0.11474 0.05879 0.0
C545 C 0.04371 0.1573 0.03249 0.0
C546 C 0.03408 0.08905 0.03022 0.0
C547 C 0.04319 0.0789 0.94753 0.0
C548 C 0.04479 0.13018 0.00509 0.0
C549 C 0.05401 0.09494 0.89674 0.0
C550 C 0.06587 0.17249 0.03059 0.0
C551 C 0.01983 0.1918 0.10522 0.0
N552 N 0.05463 0.11994 0.92647 0.0
N553 N 0.02125 0.16747 0.0675 0.0
H554 H 0.32587 0.03379 0.18705 0.0
H555 H 0.41967 0.98104 0.78648 0.0
H556 H 0.30875 0.9671 0.99998 0.0
H557 H 0.44649 0.03217 0.01487 0.0
H558 H 0.37617 0.98085 0.85053 0.0
H559 H 0.36689 0.03889 0.1108 0.0
C560 C 0.33037 0.02064 0.12849 0.0
C561 C 0.31366 1.00016 0.09928 0.0
C562 C 0.39152 0.99224 0.88644 0.0
C563 C 0.36084 0.00559 0.01231 0.0
C564 C 0.41643 0.99244 0.8497 0.0
C565 C 0.43702 0.00659 0.89517 0.0
C566 C 0.38683 0.00655 0.9691 0.0
C567 C 0.4314 0.02085 0.9773 0.0
C568 C 0.35394 0.02337 0.08559 0.0
C569 C 0.32089 0.9833 0.02423 0.0
N570 N 0.40696 0.02048 0.01139 0.0
N571 N 0.34382 0.98636 0.98362 0.0
H572 H 0.51209 0.28399 0.24295 0.0
H573 H 0.42542 0.39991 0.19141 0.0
H574 H 0.43932 0.30078 0.37513 0.0
H575 H 0.49352 0.37742 0.03763 0.0
H576 H 0.42744 0.36136 0.24813 0.0
H577 H 0.50249 0.31469 0.15288 0.0
C578 C 0.49361 0.29353 0.25053 0.0
C579 C 0.47624 0.28964 0.31526 0.0
C580 C 0.44175 0.36471 0.20115 0.0
C581 C 0.46562 0.32566 0.21571 0.0
C582 C 0.44071 0.38682 0.16915 0.0
C583 C 0.45945 0.39209 0.11007 0.0
C584 C 0.46183 0.34775 0.17464 0.0
C585 C 0.47854 0.37417 0.08256 0.0
C586 C 0.48824 0.31128 0.19995 0.0
C587 C 0.45293 0.30298 0.32465 0.0
N588 N 0.4794 0.353 0.11573 0.0
N589 N 0.44847 0.32069 0.27638 0.0
H590 H 0.20756 0.44218 0.1269 0.0
H591 H 0.10999 0.53129 0.92854 0.0
H592 H 0.22868 0.51735 0.10823 0.0
H593 H 0.08811 0.45949 0.98229 0.0
H594 H 0.15453 0.52554 0.9793 0.0
H595 H 0.16567 0.4469 0.05715 0.0
C596 C 0.20357 0.45961 0.10669 0.0
C597 C 0.22185 0.47939 0.12387 0.0
C598 C 0.14 0.51104 0.97991 0.0
C599 C 0.17316 0.48515 0.04429 0.0
C600 C 0.11446 0.51428 0.95085 0.0
C601 C 0.09494 0.49592 0.9513 0.0
C602 C 0.14636 0.48917 0.00955 0.0
C603 C 0.10223 0.47429 0.98095 0.0
C604 C 0.17947 0.46236 0.06724 0.0
C605 C 0.21541 0.5015 0.09583 0.0
N606 N 0.12716 0.47158 0.00871 0.0
N607 N 0.19157 0.50386 0.05827 0.0
H608 H 0.98255 0.80463 0.63987 0.0
H609 H 0.95754 0.94921 0.66226 0.0
H610 H 0.93591 0.8337 0.4539 0.0
H611 H 1.01523 0.91974 0.81543 0.0
H612 H 0.94117 0.90684 0.6083 0.0
H613 H 0.98517 0.84633 0.73011 0.0
C614 C 0.9721 0.81965 0.61964 0.0
C615 C 0.95927 0.81592 0.53912 0.0
C616 C 0.95726 0.90972 0.65433 0.0
C617 C 0.96273 0.86359 0.64022 0.0
C618 C 0.96666 0.93388 0.68493 0.0
C619 C 0.98815 0.93797 0.7419 0.0
C620 C 0.96935 0.88958 0.68134 0.0
C621 C 0.99899 0.91743 0.77 0.0
C622 C 0.97385 0.84349 0.67051 0.0
C623 C 0.94625 0.836 0.51529 0.0
N624 N 0.98961 0.89412 0.73891 0.0
N625 N 0.94867 0.85909 0.56493 0.0
H626 H 0.72123 0.02965 0.55467 0.0
H627 H 0.58732 0.95943 0.62637 0.0
H628 H 0.71167 0.94986 0.5037 0.0
H629 H 0.60349 0.03439 0.7612 0.0
H630 H 0.63217 0.9569 0.57298 0.0
H631 H 0.67844 0.03316 0.62703 0.0
C632 C 0.71051 0.01287 0.56026 0.0
C633 C 0.72019 0.98942 0.52209 0.0
C634 C 0.62599 0.97392 0.61443 0.0
C635 C 0.6707 0.99334 0.60258 0.0
C636 C 0.60023 0.97542 0.6447 0.0
C637 C 0.59136 0.99716 0.69854 0.0
C638 C 0.64323 0.99444 0.63664 0.0
C639 C 0.60932 0.0172 0.72005 0.0
C640 C 0.68591 0.01489 0.60085 0.0
C641 C 0.70501 0.96837 0.53077 0.0
N642 N 0.63422 0.01544 0.68863 0.0
N643 N 0.6811 0.97085 0.56863 0.0
H644 H 0.52501 0.72928 0.40261 0.0
H645 H 0.60064 0.60312 0.40146 0.0
H646 H 0.58562 0.7018 0.22255 0.0
H647 H 0.54869 0.63498 0.60698 0.0
H648 H 0.59815 0.64121 0.34358 0.0
H649 H 0.53644 0.69778 0.48847 0.0
C650 C 0.54138 0.71722 0.38316 0.0
C651 C 0.55461 0.71822 0.30617 0.0
C652 C 0.58744 0.63999 0.40179 0.0
C653 C 0.56713 0.68161 0.40146 0.0
C654 C 0.58895 0.61819 0.43528 0.0
C655 C 0.57471 0.61556 0.50913 0.0
C656 C 0.57137 0.65941 0.44162 0.0
C657 C 0.55957 0.6358 0.54883 0.0
C658 C 0.5477 0.69904 0.43141 0.0
C659 C 0.57517 0.70173 0.28215 0.0
N660 N 0.55812 0.65672 0.5142 0.0
N661 N 0.58056 0.68393 0.32887 0.0
H662 H 0.83921 0.50349 0.43554 0.0
H663 H 0.92321 0.51146 0.87427 0.0
H664 H 0.80481 0.526 0.68695 0.0
H665 H 0.95643 0.50759 0.62077 0.0
H666 H 0.87934 0.51191 0.80996 0.0
H667 H 0.88117 0.49877 0.50475 0.0
C668 C 0.84038 0.50693 0.50567 0.0
C669 C 0.81831 0.51505 0.55533 0.0
C670 C 0.89623 0.51095 0.7685 0.0
C671 C 0.86694 0.51013 0.63598 0.0
C672 C 0.92137 0.51069 0.80513 0.0
C673 C 0.94381 0.50959 0.75311 0.0
C674 C 0.8933 0.50974 0.67875 0.0
C675 C 0.93993 0.5086 0.66389 0.0
C676 C 0.86448 0.50447 0.54527 0.0
C677 C 0.82117 0.51943 0.64607 0.0
N678 N 0.91535 0.50861 0.62987 0.0
N679 N 0.84505 0.51708 0.68348 0.0
loop_
_geom_bond_atom_site_label_1
_geom_bond_atom_site_label_2
_geom_bond_distance
_geom_bond_site_symmetry_2
_ccdc_geom_bond_type
H0 C3 0.929 . S
H1 C6 0.929 . S
H2 C8 0.930 . S
C3 H0 0.929 . S
C3 C4 1.398 . S
C3 C5 1.396 . S
C4 C3 1.398 . S
C4 C8 1.407 . S
C5 C3 1.396 . S
C5 C6 1.394 . S
C6 H1 0.929 . S
C6 C5 1.394 . S
C6 C7 1.382 . S
C7 C6 1.382 . S
C7 C8 1.392 . S
C7 N9 1.420 . S
C8 H2 0.930 . S
C8 C4 1.407 . S
C8 C7 1.392 . S
N9 C7 1.420 . S
N9 C10 1.244 . S
C10 N9 1.244 . S
H11 C14 0.929 . S
H12 C17 0.929 . S
H13 C19 0.930 . S
C14 H11 0.929 . S
C14 C15 1.398 1_655 S
C14 C16 1.396 . S
C15 C14 1.398 1_455 S
C15 C19 1.407 . S
C16 C14 1.396 . S
C16 C17 1.393 1_655 S
C17 H12 0.929 . S
C17 C16 1.393 1_455 S
C17 C18 1.382 . S
C18 C17 1.382 . S
C18 C19 1.392 . S
C18 N20 1.420 . S
C19 H13 0.930 . S
C19 C15 1.407 . S
C19 C18 1.392 . S
N20 C18 1.420 . S
N20 C21 1.244 1_455 S
C21 N20 1.244 1_655 S
H22 C25 0.929 . S
H23 C28 0.929 . S
H24 C30 0.930 . S
C25 H22 0.929 . S
C25 C26 1.401 1_565 S
C25 C27 1.392 1_565 S
C26 C25 1.401 1_545 S
C26 C30 1.414 . S
C27 C25 1.392 1_545 S
C27 C28 1.397 . S
C28 H23 0.929 . S
C28 C27 1.397 . S
C28 C29 1.382 . S
C29 C28 1.382 . S
C29 C30 1.392 . S
C29 N31 1.420 . S
C30 H24 0.930 . S
C30 C26 1.414 . S
C30 C29 1.392 . S
N31 C29 1.420 . S
N31 C32 1.236 1_545 S
C32 N31 1.236 1_565 S
H33 C36 0.929 . S
H34 C39 0.929 . S
H35 C41 0.930 . S
C36 H33 0.929 . S
C36 C37 1.398 . S
C36 C38 1.396 1_554 S
C37 C36 1.398 . S
C37 C41 1.407 . S
C38 C36 1.396 1_556 S
C38 C39 1.394 . S
C39 H34 0.929 . S
C39 C38 1.394 . S
C39 C40 1.382 1_556 S
C40 C39 1.382 1_554 S
C40 C41 1.392 . S
C40 N42 1.420 . S
C41 H35 0.930 . S
C41 C37 1.407 . S
C41 C40 1.392 . S
N42 C40 1.420 . S
N42 C43 1.244 1_554 S
C43 N42 1.244 1_556 S
H44 C47 0.929 . S
H45 C50 0.929 . S
H46 C52 0.930 . S
C47 H44 0.929 . S
C47 C48 1.398 . S
C47 C49 1.396 . S
C48 C47 1.398 . S
C48 C52 1.407 . S
C49 C47 1.396 . S
C49 C50 1.394 . S
C50 H45 0.929 . S
C50 C49 1.394 . S
C50 C51 1.382 . S
C51 C50 1.382 . S
C51 C52 1.392 . S
C51 N53 1.420 . S
C52 H46 0.930 . S
C52 C48 1.407 . S
C52 C51 1.392 . S
N53 C51 1.420 . S
N53 C54 1.244 . S
C54 N53 1.244 . S
H55 C58 0.934 . S
H56 C61 0.929 . S
H57 C63 0.930 . S
C58 H55 0.934 . S
C58 C59 1.396 1_655 S
C58 C60 1.394 1_655 S
C59 C58 1.396 1_455 S
C59 C63 1.407 . S
C60 C58 1.394 1_455 S
C60 C61 1.394 . S
C61 H56 0.929 . S
C61 C60 1.394 . S
C61 C62 1.382 . S
C62 C61 1.382 . S
C62 C63 1.392 . S
C62 N64 1.420 . S
C63 H57 0.930 . S
C63 C59 1.407 . S
C63 C62 1.392 . S
N64 C62 1.420 . S
N64 C65 1.261 . S
C65 N64 1.261 . S
H66 C69 0.929 . S
H67 C72 0.929 . S
H68 C74 0.930 . S
C69 H66 0.929 . S
C69 C70 1.387 1_565 S
C69 C71 1.398 1_565 S
C70 C69 1.387 1_545 S
C70 C74 1.415 . S
C71 C69 1.398 1_545 S
C71 C72 1.398 . S
C72 H67 0.929 . S
C72 C71 1.398 . S
C72 C73 1.382 . S
C73 C72 1.382 . S
C73 C74 1.392 . S
C73 N75 1.420 . S
C74 H68 0.930 . S
C74 C70 1.415 . S
C74 C73 1.392 . S
N75 C73 1.420 . S
N75 C76 1.234 1_545 S
C76 N75 1.234 1_565 S
H77 C80 0.929 . S
H78 C83 0.929 . S
H79 C85 0.930 . S
C80 H77 0.929 . S
C80 C81 1.398 . S
C80 C82 1.396 . S
C81 C80 1.398 . S
C81 C85 1.407 . S
C82 C80 1.396 . S
C82 C83 1.394 . S
C83 H78 0.929 . S
C83 C82 1.394 . S
C83 C84 1.382 . S
C84 C83 1.382 . S
C84 C85 1.392 . S
C84 N86 1.420 . S
C85 H79 0.930 . S
C85 C81 1.407 . S
C85 C84 1.392 . S
N86 C84 1.420 . S
N86 C87 1.244 . S
C87 N86 1.244 . S
Tb88 C97 2.764 . S
Tb88 O98 2.325 . S
Tb88 O101 2.303 1_655 S
Tb88 O105 2.322 1_545 S
Tb88 O106 2.349 . S
Tb88 O109 2.415 . S
Tb88 O110 2.399 . S
Tb89 O99 2.322 1_565 S
Tb89 O100 2.349 . S
Tb89 O102 2.415 . S
Tb89 O103 2.399 . S
Tb89 O104 2.325 . S
Tb89 O107 2.303 1_455 S
Tb89 C118 2.764 . S
C90 O106 1.265 . S
C90 O107 1.256 1_545 S
C91 C94 1.358 . S
C91 C95 1.332 . S
C91 C97 1.504 . S
C92 C93 1.373 . S
C92 C96 1.308 . S
C93 C92 1.373 . S
C93 C94 1.429 . S
C93 H120 0.932 . S
C94 C91 1.358 . S
C94 C93 1.429 . S
C94 H121 0.930 . S
C95 C91 1.332 . S
C95 C96 1.394 . S
C95 H122 0.932 1_655 S
C96 C92 1.308 . S
C96 C95 1.394 . S
C96 H123 0.929 1_655 S
C97 Tb88 2.764 . S
C97 C91 1.504 . S
C97 O109 1.239 . S
C97 O110 1.263 . S
O98 Tb88 2.325 . S
O98 C108 1.236 1_655 S
O99 Tb89 2.322 1_545 S
O99 C108 1.257 . S
O100 Tb89 2.349 . S
O100 C111 1.259 . S
O101 Tb88 2.303 1_455 S
O101 C111 1.258 1_545 S
O102 Tb89 2.415 . S
O102 C118 1.239 . S
O103 Tb89 2.399 . S
O103 C118 1.263 . S
O104 Tb89 2.325 . S
O104 C119 1.236 1_455 S
O105 Tb88 2.322 1_565 S
O105 C119 1.257 . S
O106 Tb88 2.349 . S
O106 C90 1.265 . S
O107 Tb89 2.303 1_655 S
O107 C90 1.256 1_565 S
C108 O98 1.236 1_455 S
C108 O99 1.257 . S
O109 Tb88 2.415 . S
O109 C97 1.239 . S
O110 Tb88 2.399 . S
O110 C97 1.263 . S
C111 O100 1.259 . S
C111 O101 1.258 1_565 S
C112 C115 1.358 . S
C112 C116 1.332 . S
C112 C118 1.504 1_554 S
C113 C114 1.373 . S
C113 C117 1.308 . S
C114 C113 1.373 . S
C114 C115 1.429 . S
C114 H124 0.932 . S
C115 C112 1.358 . S
C115 C114 1.429 . S
C115 H125 0.930 . S
C116 C112 1.332 . S
C116 C117 1.394 . S
C116 H126 0.932 1_455 S
C117 C113 1.308 . S
C117 C116 1.394 . S
C117 H127 0.929 1_455 S
C118 Tb89 2.764 . S
C118 O102 1.239 . S
C118 O103 1.263 . S
C118 C112 1.504 1_556 S
C119 O104 1.236 1_655 S
C119 O105 1.257 . S
H120 C93 0.932 . S
H121 C94 0.930 . S
H122 C95 0.932 1_455 S
H123 C96 0.929 1_455 S
H124 C114 0.932 . S
H125 C115 0.930 . S
H126 C116 0.932 1_655 S
H127 C117 0.929 1_655 S
Tb128 C137 2.764 . S
Tb128 O138 2.325 . S
Tb128 O141 2.303 1_565 S
Tb128 O145 2.322 . S
Tb128 O146 2.349 . S
Tb128 O149 2.415 1_565 S
Tb128 O150 2.399 . S
Tb129 O139 2.322 . S
Tb129 O140 2.349 . S
Tb129 O142 2.415 1_545 S
Tb129 O143 2.399 1_556 S
Tb129 O144 2.325 . S
Tb129 O147 2.303 1_545 S
Tb129 C158 2.764 1_556 S
C130 O146 1.261 . S
C130 O147 1.257 . S
C131 C134 1.358 . S
C131 C135 1.332 1_565 S
C131 C137 1.504 . S
C132 C133 1.373 . S
C132 C136 1.308 1_565 S
C133 C132 1.373 . S
C133 C134 1.429 . S
C133 H160 0.932 . S
C134 C131 1.358 . S
C134 C133 1.429 . S
C134 H161 0.930 . S
C135 C131 1.332 1_545 S
C135 C136 1.394 . S
C135 H162 0.932 . S
C136 C132 1.308 1_545 S
C136 C135 1.394 . S
C136 H163 0.929 . S
C137 Tb128 2.764 . S
C137 C131 1.504 . S
C137 O149 1.239 1_565 S
C137 O150 1.263 . S
O138 Tb128 2.325 . S
O138 C148 1.236 1_565 S
O139 Tb129 2.322 . S
O139 C148 1.257 . S
O140 Tb129 2.349 . S
O140 C151 1.261 . S
O141 Tb128 2.303 1_545 S
O141 C151 1.257 . S
O142 Tb129 2.415 1_565 S
O142 C158 1.239 1_566 S
O143 Tb129 2.399 1_554 S
O143 C158 1.263 . S
O144 Tb129 2.325 . S
O144 C159 1.236 1_545 S
O145 Tb128 2.322 . S
O145 C159 1.257 . S
O146 Tb128 2.349 . S
O146 C130 1.261 . S
O147 Tb129 2.303 1_565 S
O147 C130 1.257 . S
C148 O138 1.236 1_545 S
C148 O139 1.257 . S
O149 Tb128 2.415 1_545 S
O149 C137 1.239 1_545 S
O150 Tb128 2.399 . S
O150 C137 1.263 . S
C151 O140 1.261 . S
C151 O141 1.257 . S
C152 C155 1.358 . S
C152 C156 1.332 1_545 S
C152 C158 1.504 . S
C153 C154 1.373 . S
C153 C157 1.308 1_545 S
C154 C153 1.373 . S
C154 C155 1.429 . S
C154 H164 0.932 . S
C155 C152 1.358 . S
C155 C154 1.429 . S
C155 H165 0.930 . S
C156 C152 1.332 1_565 S
C156 C157 1.394 . S
C156 H166 0.932 . S
C157 C153 1.308 1_565 S
C157 C156 1.394 . S
C157 H167 0.929 . S
C158 Tb129 2.764 1_554 S
C158 O142 1.239 1_544 S
C158 O143 1.263 . S
C158 C152 1.504 . S
C159 O144 1.236 1_565 S
C159 O145 1.257 . S
H160 C133 0.932 . S
H161 C134 0.930 . S
H162 C135 0.932 . S
H163 C136 0.929 . S
H164 C154 0.932 . S
H165 C155 0.930 . S
H166 C156 0.932 . S
H167 C157 0.929 . S
Tb168 C177 2.764 1_556 S
Tb168 O178 2.325 . S
Tb168 O181 2.303 . S
Tb168 O185 2.322 . S
Tb168 O186 2.349 . S
Tb168 O189 2.415 1_556 S
Tb168 O190 2.399 . S
Tb169 O179 2.322 . S
Tb169 O180 2.349 . S
Tb169 O182 2.415 . S
Tb169 O183 2.399 . S
Tb169 O184 2.325 . S
Tb169 O187 2.303 . S
Tb169 C198 2.764 . S
C170 O186 1.261 . S
C170 O187 1.257 . S
C171 C174 1.358 . S
C171 C175 1.332 . S
C171 C177 1.504 . S
C172 C173 1.373 . S
C172 C176 1.308 . S
C173 C172 1.373 . S
C173 C174 1.429 . S
C173 H200 0.932 . S
C174 C171 1.358 . S
C174 C173 1.429 . S
C174 H201 0.930 . S
C175 C171 1.332 . S
C175 C176 1.394 . S
C175 H202 0.932 . S
C176 C172 1.308 . S
C176 C175 1.394 . S
C176 H203 0.929 . S
C177 Tb168 2.764 1_554 S
C177 C171 1.504 . S
C177 O189 1.239 . S
C177 O190 1.263 1_554 S
O178 Tb168 2.325 . S
O178 C188 1.236 . S
O179 Tb169 2.322 . S
O179 C188 1.257 . S
O180 Tb169 2.349 . S
O180 C191 1.261 . S
O181 Tb168 2.303 . S
O181 C191 1.257 . S
O182 Tb169 2.415 . S
O182 C198 1.239 . S
O183 Tb169 2.399 . S
O183 C198 1.263 . S
O184 Tb169 2.325 . S
O184 C199 1.236 . S
O185 Tb168 2.322 . S
O185 C199 1.257 . S
O186 Tb168 2.349 . S
O186 C170 1.261 . S
O187 Tb169 2.303 . S
O187 C170 1.257 . S
C188 O178 1.236 . S
C188 O179 1.257 . S
O189 Tb168 2.415 1_554 S
O189 C177 1.239 . S
O190 Tb168 2.399 . S
O190 C177 1.263 1_556 S
C191 O180 1.261 . S
C191 O181 1.257 . S
C192 C195 1.358 . S
C192 C196 1.332 . S
C192 C198 1.504 . S
C193 C194 1.373 . S
C193 C197 1.308 . S
C194 C193 1.373 . S
C194 C195 1.429 . S
C194 H204 0.932 . S
C195 C192 1.358 . S
C195 C194 1.429 . S
C195 H205 0.930 . S
C196 C192 1.332 . S
C196 C197 1.394 . S
C196 H206 0.932 . S
C197 C193 1.308 . S
C197 C196 1.394 . S
C197 H207 0.929 . S
C198 Tb169 2.764 . S
C198 O182 1.239 . S
C198 O183 1.263 . S
C198 C192 1.504 . S
C199 O184 1.236 . S
C199 O185 1.257 . S
H200 C173 0.932 . S
H201 C174 0.930 . S
H202 C175 0.932 . S
H203 C176 0.929 . S
H204 C194 0.932 . S
H205 C195 0.930 . S
H206 C196 0.932 . S
H207 C197 0.929 . S
Tb208 C217 2.764 . S
Tb208 O218 2.325 . S
Tb208 O221 2.303 . S
Tb208 O225 2.322 1_455 S
Tb208 O226 2.349 . S
Tb208 O229 2.415 . S
Tb208 O230 2.399 . S
Tb209 O219 2.322 1_655 S
Tb209 O220 2.349 . S
Tb209 O222 2.415 1_556 S
Tb209 O223 2.399 . S
Tb209 O224 2.325 . S
Tb209 O227 2.303 . S
Tb209 C238 2.764 1_556 S
C210 O226 1.261 . S
C210 O227 1.257 1_455 S
C211 C214 1.358 . S
C211 C215 1.332 . S
C211 C217 1.504 . S
C212 C213 1.373 . S
C212 C216 1.308 . S
C213 C212 1.373 . S
C213 C214 1.429 . S
C213 H240 0.932 . S
C214 C211 1.358 . S
C214 C213 1.429 . S
C214 H241 0.930 . S
C215 C211 1.332 . S
C215 C216 1.394 . S
C215 H242 0.932 . S
C216 C212 1.308 . S
C216 C215 1.394 . S
C216 H243 0.929 . S
C217 Tb208 2.764 . S
C217 C211 1.504 . S
C217 O229 1.239 . S
C217 O230 1.263 . S
O218 Tb208 2.325 . S
O218 C228 1.236 . S
O219 Tb209 2.322 1_455 S
O219 C228 1.257 . S
O220 Tb209 2.349 . S
O220 C231 1.261 . S
O221 Tb208 2.303 . S
O221 C231 1.257 1_455 S
O222 Tb209 2.415 1_554 S
O222 C238 1.239 . S
O223 Tb209 2.399 . S
O223 C238 1.263 1_556 S
O224 Tb209 2.325 . S
O224 C239 1.236 . S
O225 Tb208 2.322 1_655 S
O225 C239 1.257 . S
O226 Tb208 2.349 . S
O226 C210 1.261 . S
O227 Tb209 2.303 . S
O227 C210 1.257 1_655 S
C228 O218 1.236 . S
C228 O219 1.257 . S
O229 Tb208 2.415 . S
O229 C217 1.239 . S
O230 Tb208 2.399 . S
O230 C217 1.263 . S
C231 O220 1.261 . S
C231 O221 1.257 1_655 S
C232 C235 1.358 . S
C232 C236 1.332 . S
C232 C238 1.504 . S
C233 C234 1.373 . S
C233 C237 1.308 . S
C234 C233 1.373 . S
C234 C235 1.429 . S
C234 H244 0.932 . S
C235 C232 1.358 . S
C235 C234 1.429 . S
C235 H245 0.930 . S
C236 C232 1.332 . S
C236 C237 1.394 . S
C236 H246 0.932 . S
C237 C233 1.308 . S
C237 C236 1.394 . S
C237 H247 0.929 . S
C238 Tb209 2.764 1_554 S
C238 O222 1.239 . S
C238 O223 1.263 1_554 S
C238 C232 1.504 . S
C239 O224 1.236 . S
C239 O225 1.257 . S
H240 C213 0.932 . S
H241 C214 0.930 . S
H242 C215 0.932 . S
H243 C216 0.929 . S
H244 C234 0.932 . S
H245 C235 0.930 . S
H246 C236 0.932 . S
H247 C237 0.929 . S
H248 C254 0.930 . S
H249 C258 0.930 . S
H250 C263 0.929 . S
H251 C261 0.929 . S
H252 C256 0.929 . S
H253 C262 0.929 . S
C254 H248 0.930 . S
C254 C255 1.375 . S
C254 C262 1.378 . S
C255 C254 1.375 . S
C255 C263 1.421 1_545 S
C256 H252 0.929 . S
C256 C258 1.378 . S
C256 C260 1.350 1_565 S
C257 C260 1.463 . S
C257 C262 1.350 . S
C257 N265 1.427 1_545 S
C258 H249 0.930 . S
C258 C256 1.378 . S
C258 C259 1.367 1_565 S
C259 C258 1.367 1_545 S
C259 C261 1.433 . S
C260 C256 1.350 1_545 S
C260 C257 1.463 . S
C260 N264 1.427 . S
C261 H251 0.929 . S
C261 C259 1.433 . S
C261 N264 1.384 . S
C262 H253 0.929 . S
C262 C254 1.378 . S
C262 C257 1.350 . S
C263 H250 0.929 . S
C263 C255 1.421 1_565 S
C263 N265 1.384 . S
N264 C260 1.427 . S
N264 C261 1.384 . S
N265 C257 1.427 1_565 S
N265 C263 1.384 . S
H266 C272 0.930 . S
H267 C276 0.930 . S
H268 C281 0.929 . S
H269 C279 0.929 . S
H270 C274 0.929 . S
H271 C280 0.929 . S
C272 H266 0.930 . S
C272 C273 1.367 . S
C272 C280 1.378 . S
C273 C272 1.367 . S
C273 C281 1.433 . S
C274 H270 0.929 . S
C274 C276 1.378 . S
C274 C278 1.350 . S
C275 C278 1.463 . S
C275 C280 1.350 . S
C275 N283 1.427 . S
C276 H267 0.930 . S
C276 C274 1.378 . S
C276 C277 1.367 . S
C277 C276 1.367 . S
C277 C279 1.433 . S
C278 C274 1.350 . S
C278 C275 1.463 . S
C278 N282 1.427 . S
C279 H269 0.929 . S
C279 C277 1.433 . S
C279 N282 1.384 . S
C280 H271 0.929 . S
C280 C272 1.378 . S
C280 C275 1.350 . S
C281 H268 0.929 . S
C281 C273 1.433 . S
C281 N283 1.384 . S
N282 C278 1.427 . S
N282 C279 1.384 . S
N283 C275 1.427 . S
N283 C281 1.384 . S
H284 C290 0.930 . S
H285 C294 0.930 . S
H286 C299 0.929 . S
H287 C297 0.929 . S
H288 C292 0.929 . S
H289 C298 0.929 . S
C290 H284 0.930 . S
C290 C291 1.367 . S
C290 C298 1.378 . S
C291 C290 1.367 . S
C291 C299 1.433 . S
C292 H288 0.929 . S
C292 C294 1.378 . S
C292 C296 1.350 . S
C293 C296 1.463 . S
C293 C298 1.350 . S
C293 N301 1.427 . S
C294 H285 0.930 . S
C294 C292 1.378 . S
C294 C295 1.367 . S
C295 C294 1.367 . S
C295 C297 1.433 . S
C296 C292 1.350 . S
C296 C293 1.463 . S
C296 N300 1.427 . S
C297 H287 0.929 . S
C297 C295 1.433 . S
C297 N300 1.384 . S
C298 H289 0.929 . S
C298 C290 1.378 . S
C298 C293 1.350 . S
C299 H286 0.929 . S
C299 C291 1.433 . S
C299 N301 1.384 . S
N300 C296 1.427 . S
N300 C297 1.384 . S
N301 C293 1.427 . S
N301 C299 1.384 . S
H302 C308 0.930 . S
H303 C312 0.930 . S
H304 C317 0.929 . S
H305 C315 0.929 . S
H306 C310 0.929 . S
H307 C316 0.929 . S
C308 H302 0.930 . S
C308 C309 1.367 . S
C308 C316 1.378 . S
C309 C308 1.367 . S
C309 C317 1.433 1_455 S
C310 H306 0.929 . S
C310 C312 1.378 . S
C310 C314 1.321 1_655 S
C311 C314 1.465 . S
C311 C316 1.350 . S
C311 N319 1.427 1_455 S
C312 H303 0.930 . S
C312 C310 1.378 . S
C312 C313 1.367 1_655 S
C313 C312 1.367 1_455 S
C313 C315 1.433 . S
C314 C310 1.321 1_455 S
C314 C311 1.465 . S
C314 N318 1.457 . S
C315 H305 0.929 . S
C315 C313 1.433 . S
C315 N318 1.384 . S
C316 H307 0.929 . S
C316 C308 1.378 . S
C316 C311 1.350 . S
C317 H304 0.929 . S
C317 C309 1.433 1_655 S
C317 N319 1.384 . S
N318 C314 1.457 . S
N318 C315 1.384 . S
N319 C311 1.427 1_655 S
N319 C317 1.384 . S
H320 C326 0.930 . S
H321 C330 0.930 1_556 S
H322 C335 0.929 . S
H323 C333 0.929 . S
H324 C328 0.929 . S
H325 C334 0.929 . S
C326 H320 0.930 . S
C326 C327 1.368 . S
C326 C334 1.378 . S
C327 C326 1.368 . S
C327 C335 1.432 1_545 S
C328 H324 0.929 . S
C328 C330 1.378 . S
C328 C332 1.350 . S
C329 C332 1.460 . S
C329 C334 1.325 1_565 S
C329 N337 1.457 . S
C330 H321 0.930 1_554 S
C330 C328 1.378 . S
C330 C331 1.367 1_554 S
C331 C330 1.367 1_556 S
C331 C333 1.433 1_566 S
C332 C328 1.350 . S
C332 C329 1.460 . S
C332 N336 1.427 1_565 S
C333 H323 0.929 . S
C333 C331 1.433 1_544 S
C333 N336 1.384 . S
C334 H325 0.929 . S
C334 C326 1.378 . S
C334 C329 1.325 1_545 S
C335 H322 0.929 . S
C335 C327 1.432 1_565 S
C335 N337 1.384 . S
N336 C332 1.427 1_545 S
N336 C333 1.384 . S
N337 C329 1.457 . S
N337 C335 1.384 . S
H338 C344 0.930 . S
H339 C348 0.930 . S
H340 C353 0.929 . S
H341 C351 0.929 . S
H342 C346 0.929 . S
H343 C352 0.929 1_554 S
C344 H338 0.930 . S
C344 C345 1.367 1_554 S
C344 C352 1.378 1_554 S
C345 C344 1.367 1_556 S
C345 C353 1.433 . S
C346 H342 0.929 . S
C346 C348 1.378 . S
C346 C350 1.350 . S
C347 C350 1.463 . S
C347 C352 1.350 . S
C347 N355 1.427 . S
C348 H339 0.930 . S
C348 C346 1.378 . S
C348 C349 1.367 . S
C349 C348 1.367 . S
C349 C351 1.433 . S
C350 C346 1.350 . S
C350 C347 1.463 . S
C350 N354 1.427 . S
C351 H341 0.929 . S
C351 C349 1.433 . S
C351 N354 1.384 . S
C352 H343 0.929 1_556 S
C352 C344 1.378 1_556 S
C352 C347 1.350 . S
C353 H340 0.929 . S
C353 C345 1.433 . S
C353 N355 1.384 . S
N354 C350 1.427 . S
N354 C351 1.384 . S
N355 C347 1.427 . S
N355 C353 1.384 . S
H356 C362 0.930 . S
H357 C366 0.930 1_556 S
H358 C371 0.929 . S
H359 C369 0.929 . S
H360 C364 0.929 . S
H361 C370 0.929 . S
C362 H356 0.930 . S
C362 C363 1.367 . S
C362 C370 1.378 . S
C363 C362 1.367 . S
C363 C371 1.433 . S
C364 H360 0.929 . S
C364 C366 1.378 . S
C364 C368 1.350 . S
C365 C368 1.463 . S
C365 C370 1.350 . S
C365 N373 1.427 . S
C366 H357 0.930 1_554 S
C366 C364 1.378 . S
C366 C367 1.367 1_554 S
C367 C366 1.367 1_556 S
C367 C369 1.433 1_556 S
C368 C364 1.350 . S
C368 C365 1.463 . S
C368 N372 1.427 . S
C369 H359 0.929 . S
C369 C367 1.433 1_554 S
C369 N372 1.384 . S
C370 H361 0.929 . S
C370 C362 1.378 . S
C370 C365 1.350 . S
C371 H358 0.929 . S
C371 C363 1.433 . S
C371 N373 1.384 . S
N372 C368 1.427 . S
N372 C369 1.384 . S
N373 C365 1.427 . S
N373 C371 1.384 . S
H374 C380 0.930 . S
H375 C384 0.930 . S
H376 C389 0.929 . S
H377 C387 0.929 . S
H378 C382 0.929 . S
H379 C388 0.929 . S
C380 H374 0.930 . S
C380 C381 1.359 1_455 S
C380 C388 1.378 . S
C381 C380 1.359 1_655 S
C381 C389 1.442 . S
C382 H378 0.929 . S
C382 C384 1.378 . S
C382 C386 1.350 . S
C383 C386 1.463 . S
C383 C388 1.342 1_655 S
C383 N391 1.435 . S
C384 H375 0.930 . S
C384 C382 1.378 . S
C384 C385 1.367 1_554 S
C385 C384 1.367 1_556 S
C385 C387 1.433 1_655 S
C386 C382 1.350 . S
C386 C383 1.463 . S
C386 N390 1.427 1_655 S
C387 H377 0.929 . S
C387 C385 1.433 1_455 S
C387 N390 1.384 1_556 S
C388 H379 0.929 . S
C388 C380 1.378 . S
C388 C383 1.342 1_455 S
C389 H376 0.929 . S
C389 C381 1.442 . S
C389 N391 1.384 . S
N390 C386 1.427 1_455 S
N390 C387 1.384 1_554 S
N391 C383 1.435 . S
N391 C389 1.384 . S
H392 C398 0.930 . S
H393 C402 0.930 . S
H394 C407 0.929 . S
H395 C405 0.929 . S
H396 C400 0.929 . S
H397 C406 0.929 . S
C398 H392 0.930 . S
C398 C399 1.368 . S
C398 C406 1.378 1_455 S
C399 C398 1.368 . S
C399 C407 1.424 1_455 S
C400 H396 0.929 . S
C400 C402 1.378 . S
C400 C404 1.350 . S
C401 C404 1.463 . S
C401 C406 1.350 . S
C401 N409 1.427 . S
C402 H393 0.930 . S
C402 C400 1.378 . S
C402 C403 1.367 . S
C403 C402 1.367 . S
C403 C405 1.433 . S
C404 C400 1.350 . S
C404 C401 1.463 . S
C404 N408 1.427 . S
C405 H395 0.929 . S
C405 C403 1.433 . S
C405 N408 1.384 . S
C406 H397 0.929 . S
C406 C398 1.378 1_655 S
C406 C401 1.350 . S
C407 H394 0.929 . S
C407 C399 1.424 1_655 S
C407 N409 1.384 . S
N408 C404 1.427 . S
N408 C405 1.384 . S
N409 C401 1.427 . S
N409 C407 1.384 . S
H410 C416 0.930 . S
H411 C420 0.930 . S
H412 C425 0.929 . S
H413 C423 0.929 . S
H414 C418 0.929 . S
H415 C424 0.929 . S
C416 H410 0.930 . S
C416 C417 1.367 1_565 S
C416 C424 1.378 . S
C417 C416 1.367 1_545 S
C417 C425 1.433 . S
C418 H414 0.929 . S
C418 C420 1.378 . S
C418 C422 1.350 1_545 S
C419 C422 1.463 . S
C419 C424 1.350 . S
C419 N427 1.427 1_565 S
C420 H411 0.930 . S
C420 C418 1.378 . S
C420 C421 1.367 1_545 S
C421 C420 1.367 1_565 S
C421 C423 1.433 . S
C422 C418 1.350 1_565 S
C422 C419 1.463 . S
C422 N426 1.427 . S
C423 H413 0.929 . S
C423 C421 1.433 . S
C423 N426 1.384 . S
C424 H415 0.929 . S
C424 C416 1.378 . S
C424 C419 1.350 . S
C425 H412 0.929 . S
C425 C417 1.433 . S
C425 N427 1.384 . S
N426 C422 1.427 . S
N426 C423 1.384 . S
N427 C419 1.427 1_545 S
N427 C425 1.384 . S
H428 C434 0.930 . S
H429 C438 0.930 . S
H430 C443 0.929 . S
H431 C441 0.929 . S
H432 C436 0.929 . S
H433 C442 0.929 . S
C434 H428 0.930 . S
C434 C435 1.367 . S
C434 C442 1.378 . S
C435 C434 1.367 . S
C435 C443 1.433 . S
C436 H432 0.929 . S
C436 C438 1.378 . S
C436 C440 1.350 . S
C437 C440 1.463 . S
C437 C442 1.350 . S
C437 N445 1.427 . S
C438 H429 0.930 . S
C438 C436 1.378 . S
C438 C439 1.367 . S
C439 C438 1.367 . S
C439 C441 1.433 . S
C440 C436 1.350 . S
C440 C437 1.463 . S
C440 N444 1.427 . S
C441 H431 0.929 . S
C441 C439 1.433 . S
C441 N444 1.384 . S
C442 H433 0.929 . S
C442 C434 1.378 . S
C442 C437 1.350 . S
C443 H430 0.929 . S
C443 C435 1.433 . S
C443 N445 1.384 . S
N444 C440 1.427 . S
N444 C441 1.384 . S
N445 C437 1.427 . S
N445 C443 1.384 . S
H446 C452 0.930 . S
H447 C456 0.930 . S
H448 C461 0.929 . S
H449 C459 0.929 . S
H450 C454 0.929 . S
H451 C460 0.929 . S
C452 H446 0.930 . S
C452 C453 1.367 . S
C452 C460 1.378 . S
C453 C452 1.367 . S
C453 C461 1.433 . S
C454 H450 0.929 . S
C454 C456 1.378 . S
C454 C458 1.350 . S
C455 C458 1.463 . S
C455 C460 1.350 . S
C455 N463 1.427 . S
C456 H447 0.930 . S
C456 C454 1.378 . S
C456 C457 1.367 . S
C457 C456 1.367 . S
C457 C459 1.433 . S
C458 C454 1.350 . S
C458 C455 1.463 . S
C458 N462 1.427 . S
C459 H449 0.929 . S
C459 C457 1.433 . S
C459 N462 1.384 . S
C460 H451 0.929 . S
C460 C452 1.378 . S
C460 C455 1.350 . S
C461 H448 0.929 . S
C461 C453 1.433 . S
C461 N463 1.384 . S
N462 C458 1.427 . S
N462 C459 1.384 . S
N463 C455 1.427 . S
N463 C461 1.384 . S
H464 C470 0.930 . S
H465 C474 0.930 . S
H466 C479 0.929 . S
H467 C477 0.929 . S
H468 C472 0.929 1_655 S
H469 C478 0.929 . S
C470 H464 0.930 . S
C470 C471 1.386 . S
C470 C478 1.378 . S
C471 C470 1.386 . S
C471 C479 1.419 1_455 S
C472 H468 0.929 1_455 S
C472 C474 1.378 . S
C472 C476 1.350 . S
C473 C476 1.463 . S
C473 C478 1.350 . S
C473 N481 1.427 1_455 S
C474 H465 0.930 . S
C474 C472 1.378 . S
C474 C475 1.367 . S
C475 C474 1.367 . S
C475 C477 1.433 . S
C476 C472 1.350 . S
C476 C473 1.463 . S
C476 N480 1.427 . S
C477 H467 0.929 . S
C477 C475 1.433 . S
C477 N480 1.384 . S
C478 H469 0.929 . S
C478 C470 1.378 . S
C478 C473 1.350 . S
C479 H466 0.929 . S
C479 C471 1.419 1_655 S
C479 N481 1.384 . S
N480 C476 1.427 . S
N480 C477 1.384 . S
N481 C473 1.427 1_655 S
N481 C479 1.384 . S
H482 C488 0.930 . S
H483 C492 0.930 . S
H484 C497 0.929 . S
H485 C495 0.929 . S
H486 C490 0.929 . S
H487 C496 0.929 . S
C488 H482 0.930 . S
C488 C489 1.322 1_545 S
C488 C496 1.378 . S
C489 C488 1.322 1_565 S
C489 C497 1.466 . S
C490 H486 0.929 . S
C490 C492 1.378 . S
C490 C494 1.350 1_565 S
C491 C494 1.463 . S
C491 C496 1.350 . S
C491 N499 1.427 1_545 S
C492 H483 0.930 . S
C492 C490 1.378 . S
C492 C493 1.367 1_565 S
C493 C492 1.367 1_545 S
C493 C495 1.433 . S
C494 C490 1.350 1_545 S
C494 C491 1.463 . S
C494 N498 1.427 . S
C495 H485 0.929 . S
C495 C493 1.433 . S
C495 N498 1.384 . S
C496 H487 0.929 . S
C496 C488 1.378 . S
C496 C491 1.350 . S
C497 H484 0.929 . S
C497 C489 1.466 . S
C497 N499 1.384 . S
N498 C494 1.427 . S
N498 C495 1.384 . S
N499 C491 1.427 1_565 S
N499 C497 1.384 . S
H500 C506 0.930 . S
H501 C510 0.930 . S
H502 C515 0.929 . S
H503 C513 0.929 . S
H504 C508 0.929 . S
H505 C514 0.929 . S
C506 H500 0.930 . S
C506 C507 1.367 . S
C506 C514 1.378 . S
C507 C506 1.367 . S
C507 C515 1.433 . S
C508 H504 0.929 . S
C508 C510 1.378 . S
C508 C512 1.350 . S
C509 C512 1.463 . S
C509 C514 1.350 . S
C509 N517 1.427 . S
C510 H501 0.930 . S
C510 C508 1.378 . S
C510 C511 1.367 . S
C511 C510 1.367 . S
C511 C513 1.433 . S
C512 C508 1.350 . S
C512 C509 1.463 . S
C512 N516 1.427 . S
C513 H503 0.929 . S
C513 C511 1.433 . S
C513 N516 1.384 . S
C514 H505 0.929 . S
C514 C506 1.378 . S
C514 C509 1.350 . S
C515 H502 0.929 . S
C515 C507 1.433 . S
C515 N517 1.384 . S
N516 C512 1.427 . S
N516 C513 1.384 . S
N517 C509 1.427 . S
N517 C515 1.384 . S
H518 C524 0.930 . S
H519 C528 0.930 . S
H520 C533 0.929 . S
H521 C531 0.929 . S
H522 C526 0.929 . S
H523 C532 0.929 . S
C524 H518 0.930 . S
C524 C525 1.367 . S
C524 C532 1.378 . S
C525 C524 1.367 . S
C525 C533 1.433 . S
C526 H522 0.929 . S
C526 C528 1.378 . S
C526 C530 1.350 . S
C527 C530 1.463 . S
C527 C532 1.350 . S
C527 N535 1.427 . S
C528 H519 0.930 . S
C528 C526 1.378 . S
C528 C529 1.367 . S
C529 C528 1.367 . S
C529 C531 1.433 . S
C530 C526 1.350 . S
C530 C527 1.463 . S
C530 N534 1.427 . S
C531 H521 0.929 . S
C531 C529 1.433 . S
C531 N534 1.384 . S
C532 H523 0.929 . S
C532 C524 1.378 . S
C532 C527 1.350 . S
C533 H520 0.929 . S
C533 C525 1.433 . S
C533 N535 1.384 . S
N534 C530 1.427 . S
N534 C531 1.384 . S
N535 C527 1.427 . S
N535 C533 1.384 . S
H536 C542 0.930 . S
H537 C546 0.930 . S
H538 C551 0.929 . S
H539 C549 0.929 . S
H540 C544 0.918 1_655 S
H541 C550 0.929 . S
C542 H536 0.930 . S
C542 C543 1.367 1_556 S
C542 C550 1.378 . S
C543 C542 1.367 1_554 S
C543 C551 1.433 1_455 S
C544 H540 0.918 1_455 S
C544 C546 1.378 . S
C544 C548 1.350 1_554 S
C545 C548 1.463 1_554 S
C545 C550 1.350 1_554 S
C545 N553 1.423 1_455 S
C546 H537 0.930 . S
C546 C544 1.378 . S
C546 C547 1.367 1_554 S
C547 C546 1.367 1_556 S
C547 C549 1.433 . S
C548 C544 1.350 1_556 S
C548 C545 1.463 1_556 S
C548 N552 1.427 . S
C549 H539 0.929 . S
C549 C547 1.433 . S
C549 N552 1.384 . S
C550 H541 0.929 . S
C550 C542 1.378 . S
C550 C545 1.350 1_556 S
C551 H538 0.929 . S
C551 C543 1.433 1_655 S
C551 N553 1.385 . S
N552 C548 1.427 . S
N552 C549 1.384 . S
N553 C545 1.423 1_655 S
N553 C551 1.385 . S
H554 C560 0.930 . S
H555 C564 0.930 . S
H556 C569 0.929 . S
H557 C567 0.929 . S
H558 C562 0.929 . S
H559 C568 0.929 . S
C560 H554 0.930 . S
C560 C561 1.367 . S
C560 C568 1.378 . S
C561 C560 1.367 . S
C561 C569 1.433 1_544 S
C562 H558 0.929 . S
C562 C564 1.378 . S
C562 C566 1.350 1_565 S
C563 C566 1.463 . S
C563 C568 1.350 1_556 S
C563 N571 1.427 1_545 S
C564 H555 0.930 . S
C564 C562 1.378 . S
C564 C565 1.367 1_565 S
C565 C564 1.367 1_545 S
C565 C567 1.433 1_556 S
C566 C562 1.350 1_545 S
C566 C563 1.463 . S
C566 N570 1.427 1_556 S
C567 H557 0.929 . S
C567 C565 1.433 1_554 S
C567 N570 1.384 . S
C568 H559 0.929 . S
C568 C560 1.378 . S
C568 C563 1.350 1_554 S
C569 H556 0.929 . S
C569 C561 1.433 1_566 S
C569 N571 1.384 . S
N570 C566 1.427 1_554 S
N570 C567 1.384 . S
N571 C563 1.427 1_565 S
N571 C569 1.384 . S
H572 C578 0.930 . S
H573 C582 0.930 . S
H574 C587 0.929 . S
H575 C585 0.929 . S
H576 C580 0.929 . S
H577 C586 0.929 . S
C578 H572 0.930 . S
C578 C579 1.367 . S
C578 C586 1.378 . S
C579 C578 1.367 . S
C579 C587 1.433 . S
C580 H576 0.929 . S
C580 C582 1.378 . S
C580 C584 1.350 . S
C581 C584 1.463 . S
C581 C586 1.350 . S
C581 N589 1.427 . S
C582 H573 0.930 . S
C582 C580 1.378 . S
C582 C583 1.367 . S
C583 C582 1.367 . S
C583 C585 1.433 . S
C584 C580 1.350 . S
C584 C581 1.463 . S
C584 N588 1.427 . S
C585 H575 0.929 . S
C585 C583 1.433 . S
C585 N588 1.384 . S
C586 H577 0.929 . S
C586 C578 1.378 . S
C586 C581 1.350 . S
C587 H574 0.929 . S
C587 C579 1.433 . S
C587 N589 1.384 . S
N588 C584 1.427 . S
N588 C585 1.384 . S
N589 C581 1.427 . S
N589 C587 1.384 . S
H590 C596 0.930 . S
H591 C600 0.930 . S
H592 C605 0.929 . S
H593 C603 0.929 . S
H594 C598 0.929 . S
H595 C604 0.929 . S
C596 H590 0.930 . S
C596 C597 1.367 1_556 S
C596 C604 1.378 . S
C597 C596 1.367 1_554 S
C597 C605 1.433 . S
C598 H594 0.929 . S
C598 C600 1.378 . S
C598 C602 1.350 . S
C599 C602 1.463 . S
C599 C604 1.350 . S
C599 N607 1.427 1_556 S
C600 H591 0.930 . S
C600 C598 1.378 . S
C600 C601 1.367 . S
C601 C600 1.367 . S
C601 C603 1.433 . S
C602 C598 1.350 . S
C602 C599 1.463 . S
C602 N606 1.427 . S
C603 H593 0.929 . S
C603 C601 1.433 . S
C603 N606 1.384 . S
C604 H595 0.929 . S
C604 C596 1.378 . S
C604 C599 1.350 . S
C605 H592 0.929 . S
C605 C597 1.433 . S
C605 N607 1.384 . S
N606 C602 1.427 . S
N606 C603 1.384 . S
N607 C599 1.427 1_554 S
N607 C605 1.384 . S
H608 C614 0.930 . S
H609 C618 0.930 . S
H610 C623 0.929 . S
H611 C621 0.929 . S
H612 C616 0.929 . S
H613 C622 0.929 . S
C614 H608 0.930 . S
C614 C615 1.367 1_455 S
C614 C622 1.378 . S
C615 C614 1.367 1_655 S
C615 C623 1.433 . S
C616 H612 0.929 . S
C616 C618 1.378 . S
C616 C620 1.350 . S
C617 C620 1.463 . S
C617 C622 1.350 1_655 S
C617 N625 1.427 . S
C618 H609 0.930 . S
C618 C616 1.378 . S
C618 C619 1.367 . S
C619 C618 1.367 . S
C619 C621 1.433 1_655 S
C620 C616 1.350 . S
C620 C617 1.463 . S
C620 N624 1.427 1_655 S
C621 H611 0.929 . S
C621 C619 1.433 1_455 S
C621 N624 1.384 . S
C622 H613 0.929 . S
C622 C614 1.378 . S
C622 C617 1.350 1_455 S
C623 H610 0.929 . S
C623 C615 1.433 . S
C623 N625 1.384 . S
N624 C620 1.427 1_455 S
N624 C621 1.384 . S
N625 C617 1.427 . S
N625 C623 1.384 . S
H626 C632 0.930 . S
H627 C636 0.930 . S
H628 C641 0.929 . S
H629 C639 0.929 . S
H630 C634 0.929 . S
H631 C640 0.929 . S
C632 H626 0.930 . S
C632 C633 1.347 1_545 S
C632 C640 1.378 . S
C633 C632 1.347 1_565 S
C633 C641 1.454 . S
C634 H630 0.929 . S
C634 C636 1.378 . S
C634 C638 1.350 . S
C635 C638 1.463 . S
C635 C640 1.350 1_565 S
C635 N643 1.427 . S
C636 H627 0.930 . S
C636 C634 1.378 . S
C636 C637 1.367 . S
C637 C636 1.367 . S
C637 C639 1.433 1_565 S
C638 C634 1.350 . S
C638 C635 1.463 . S
C638 N642 1.427 1_565 S
C639 H629 0.929 . S
C639 C637 1.433 1_545 S
C639 N642 1.384 . S
C640 H631 0.929 . S
C640 C632 1.378 . S
C640 C635 1.350 1_545 S
C641 H628 0.929 . S
C641 C633 1.454 . S
C641 N643 1.384 . S
N642 C638 1.427 1_545 S
N642 C639 1.384 . S
N643 C635 1.427 . S
N643 C641 1.384 . S
H644 C650 0.930 . S
H645 C654 0.930 . S
H646 C659 0.929 . S
H647 C657 0.929 . S
H648 C652 0.929 . S
H649 C658 0.929 . S
C650 H644 0.930 . S
C650 C651 1.367 . S
C650 C658 1.378 . S
C651 C650 1.367 . S
C651 C659 1.433 . S
C652 H648 0.929 . S
C652 C654 1.378 . S
C652 C656 1.350 . S
C653 C656 1.463 . S
C653 C658 1.350 . S
C653 N661 1.427 . S
C654 H645 0.930 . S
C654 C652 1.378 . S
C654 C655 1.367 . S
C655 C654 1.367 . S
C655 C657 1.433 . S
C656 C652 1.350 . S
C656 C653 1.463 . S
C656 N660 1.427 . S
C657 H647 0.929 . S
C657 C655 1.433 . S
C657 N660 1.384 . S
C658 H649 0.929 . S
C658 C650 1.378 . S
C658 C653 1.350 . S
C659 H646 0.929 . S
C659 C651 1.433 . S
C659 N661 1.384 . S
N660 C656 1.427 . S
N660 C657 1.384 . S
N661 C653 1.427 . S
N661 C659 1.384 . S
H662 C668 0.930 . S
H663 C672 0.930 . S
H664 C677 0.929 . S
H665 C675 0.929 . S
H666 C670 0.929 . S
H667 C676 0.929 . S
C668 H662 0.930 . S
C668 C669 1.367 . S
C668 C676 1.378 . S
C669 C668 1.367 . S
C669 C677 1.433 . S
C670 H666 0.929 . S
C670 C672 1.378 . S
C670 C674 1.350 . S
C671 C674 1.463 . S
C671 C676 1.350 . S
C671 N679 1.427 . S
C672 H663 0.930 . S
C672 C670 1.378 . S
C672 C673 1.367 . S
C673 C672 1.367 . S
C673 C675 1.433 . S
C674 C670 1.350 . S
C674 C671 1.463 . S
C674 N678 1.427 . S
C675 H665 0.929 . S
C675 C673 1.433 . S
C675 N678 1.384 . S
C676 H667 0.929 . S
C676 C668 1.378 . S
C676 C671 1.350 . S
C677 H664 0.929 . S
C677 C669 1.433 . S
C677 N679 1.384 . S
N678 C674 1.427 . S
N678 C675 1.384 . S
N679 C671 1.427 . S
N679 C677 1.384 . S
C255 C76 1.893 1_545 S
C259 C111 2.020 1_545 S
C277 C151 1.733 . S
C273 C87 1.726 . S
C295 C170 2.031 . S
C291 C54 1.891 . S
C313 C231 1.422 1_455 S
C309 C65 1.346 . S
C331 C90 2.020 1_565 S
C327 C32 1.877 1_545 S
C345 C43 1.742 . S
C349 C130 1.732 . S
C363 C10 1.900 . S
C367 C191 2.025 . S
C381 C21 1.339 . S
C385 C210 1.427 1_655 S
C403 C92 0.869 . S
C399 C60 0.863 . S
C421 C132 0.347 . S
C417 C71 0.382 . S
C439 C188 0.938 . S
C435 C82 0.867 . S
C453 C49 0.463 . S
C457 C212 0.438 . S
C471 C16 0.859 1_455 S
C475 C113 0.860 . S
C493 C153 0.346 . S
C489 C27 0.397 1_565 S
C511 C199 0.923 . S
C507 C38 0.861 . S
C525 C5 0.480 . S
C529 C233 0.464 . S
C543 C59 1.473 . S
C547 C108 1.608 . S
C561 C70 2.148 . S
C565 C148 2.361 . S
C583 C172 1.518 . S
C579 C81 1.509 . S
C601 C228 2.348 . S
C597 C48 2.146 . S
C615 C15 1.463 1_655 S
C619 C119 1.622 . S
C637 C159 2.365 . S
C633 C26 2.143 1_565 S
C655 C193 1.522 . S
C651 C37 1.514 . S
C669 C4 2.134 . S
C673 C239 2.351 . S
