# Generated by pormake.
# Topology anh, (6,3)-cn, num edge types: 1
# Building blocks:
#     Node 0, Type 0, BuildingBlock: CUWYAW_clean_sbu_0, # of connection points: 6
#     Node 1, Type 0, BuildingBlock: CUWYAW_clean_sbu_0, # of connection points: 6
#     Node 2, Type 0, BuildingBlock: CUWYAW_clean_sbu_0, # of connection points: 6
#     Node 3, Type 1, BuildingBlock: CUQRIR_clean_linker_1, # of connection points: 3
#     Node 4, Type 1, BuildingBlock: CUQRIR_clean_linker_1, # of connection points: 3
#     Node 5, Type 1, BuildingBlock: CUQRIR_clean_linker_1, # of connection points: 3
#     Node 6, Type 1, BuildingBlock: CUQRIR_clean_linker_1, # of connection points: 3
#     Node 7, Type 1, BuildingBlock: CUQRIR_clean_linker_1, # of connection points: 3
#     Node 8, Type 1, BuildingBlock: CUQRIR_clean_linker_1, # of connection points: 3
#     Edge 9, Type (0, 1), BuildingBlock: OJICUG_clean_linker_0, # of connection points: 2
#     Edge 10, Type (0, 1), BuildingBlock: OJICUG_clean_linker_0, # of connection points: 2
#     Edge 11, Type (0, 1), BuildingBlock: OJICUG_clean_linker_0, # of connection points: 2
#     Edge 12, Type (0, 1), BuildingBlock: OJICUG_clean_linker_0, # of connection points: 2
#     Edge 13, Type (0, 1), BuildingBlock: OJICUG_clean_linker_0, # of connection points: 2
#     Edge 14, Type (0, 1), BuildingBlock: OJICUG_clean_linker_0, # of connection points: 2
#     Edge 15, Type (0, 1), BuildingBlock: OJICUG_clean_linker_0, # of connection points: 2
#     Edge 16, Type (0, 1), BuildingBlock: OJICUG_clean_linker_0, # of connection points: 2
#     Edge 17, Type (0, 1), BuildingBlock: OJICUG_clean_linker_0, # of connection points: 2
#     Edge 18, Type (0, 1), BuildingBlock: OJICUG_clean_linker_0, # of connection points: 2
#     Edge 19, Type (0, 1), BuildingBlock: OJICUG_clean_linker_0, # of connection points: 2
#     Edge 20, Type (0, 1), BuildingBlock: OJICUG_clean_linker_0, # of connection points: 2
#     Edge 21, Type (0, 1), BuildingBlock: OJICUG_clean_linker_0, # of connection points: 2
#     Edge 22, Type (0, 1), BuildingBlock: OJICUG_clean_linker_0, # of connection points: 2
#     Edge 23, Type (0, 1), BuildingBlock: OJICUG_clean_linker_0, # of connection points: 2
#     Edge 24, Type (0, 1), BuildingBlock: OJICUG_clean_linker_0, # of connection points: 2
#     Edge 25, Type (0, 1), BuildingBlock: OJICUG_clean_linker_0, # of connection points: 2
#     Edge 26, Type (0, 1), BuildingBlock: OJICUG_clean_linker_0, # of connection points: 2
# Relax obj value: 0.466
# Max RMSD: 0.212
# Mean RMSD: 0.165
data_MOF--net-anh--node1-CUWYAW_clean_sbu_0--node2-CUQRIR_clean_linker_1--edge1-OJICUG_clean_linker_0
_symmetry_space_group_name_H-M    P1
_symmetry_Int_Tables_number       1
_symmetry_cell_setting            triclinic
loop_
_symmetry_equiv_pos_as_xyz
'x, y, z'
_cell_length_a     20.81749
_cell_length_b     20.977792
_cell_length_c     33.894184
_cell_angle_alpha  85.620012
_cell_angle_beta   91.511663
_cell_angle_gamma 119.97542
loop_
_atom_site_label
_atom_site_type_symbol
_atom_site_fract_x
_atom_site_fract_y
_atom_site_fract_z
_atom_type_partial_charge
C0 C 1.11769 0.41275 0.12866 0.0
Eu1 Eu 0.21171 0.55255 0.13091 0.0
C2 C 1.04932 0.37216 0.15259 0.0
C3 C 1.05163 0.38234 0.19325 0.0
C4 C 0.98828 0.36995 0.21311 0.0
C5 C 0.92177 0.3476 0.19264 0.0
C6 C 0.91778 0.33041 0.15302 0.0
C7 C 0.98107 0.34219 0.13322 0.0
C8 C 0.23835 0.59655 0.20759 0.0
C9 C 1.10128 0.63242 0.11488 0.0
C10 C 0.35994 0.8387 0.14495 0.0
Eu11 Eu 0.28197 0.70185 0.12774 0.0
C12 C 0.34842 0.89451 0.16274 0.0
C13 C 0.34492 0.94989 0.13834 0.0
C14 C 0.34896 1.01089 0.15468 0.0
C15 C 0.35769 1.01813 0.19565 0.0
C16 C 0.35331 0.95915 0.22036 0.0
C17 C 0.34901 0.89796 0.20405 0.0
C18 C 0.25014 0.64995 0.05463 0.0
C19 C 0.39515 0.6274 0.11639 0.0
O20 O 1.11758 0.46281 0.10349 0.0
O21 O 0.18014 0.43772 0.14761 0.0
O22 O 0.25115 0.5486 0.19349 0.0
O23 O 0.21447 0.62343 0.17962 0.0
O24 O 1.10874 0.57242 0.11271 0.0
O25 O 0.16314 0.69226 0.12548 0.0
O26 O 0.35345 0.78315 0.16834 0.0
O27 O 0.33211 0.8192 0.11001 0.0
O28 O 0.24136 0.70347 0.06479 0.0
O29 O 0.278 0.62963 0.08263 0.0
O30 O 0.39062 0.68717 0.12462 0.0
O31 O 0.32885 0.56599 0.11342 0.0
H32 H 1.10349 0.40571 0.20905 0.0
H33 H 0.99231 0.38132 0.244 0.0
H34 H 0.86717 0.31287 0.13647 0.0
H35 H 0.97824 0.33485 0.10179 0.0
H36 H 0.34396 0.94858 0.10644 0.0
H37 H 0.35205 1.05556 0.13499 0.0
H38 H 0.36076 0.96347 0.25199 0.0
H39 H 0.35121 0.85594 0.22374 0.0
C40 C 0.67737 0.23703 0.46062 0.0
Eu41 Eu 0.75621 0.17284 0.46751 0.0
C42 C 0.65352 0.29173 0.45493 0.0
C43 C 0.68843 0.35662 0.47465 0.0
C44 C 0.65417 0.3987 0.47699 0.0
C45 C 0.58444 0.37635 0.45966 0.0
C46 C 0.55289 0.31471 0.43704 0.0
C47 C 0.5874 0.27268 0.43468 0.0
C48 C 0.76687 0.11232 0.54179 0.0
C49 C 0.94535 0.29516 0.4496 0.0
C50 C 0.90877 1.03643 0.47812 0.0
Eu51 Eu 0.84347 0.11245 0.46187 0.0
C52 C 0.88335 0.97578 0.5089 0.0
C53 C 0.86527 0.90571 0.4983 0.0
C54 C 0.81462 0.84349 0.52131 0.0
C55 C 0.78179 0.851 0.55516 0.0
C56 C 0.80717 0.92114 0.56837 0.0
C57 C 0.85791 0.98327 0.54545 0.0
C58 C 0.80993 0.15399 0.39009 0.0
C59 C 0.65373 0.99256 0.45648 0.0
O60 O 0.69124 0.21014 0.43066 0.0
O61 O 0.71053 0.23328 0.49328 0.0
O62 O 0.70641 1.10312 0.52529 0.0
O63 O 0.82043 0.15176 0.51738 0.0
O64 O 0.87583 0.28535 0.45184 0.0
O65 O 0.94782 0.23275 0.45483 0.0
O66 O 0.93212 1.10132 0.491 0.0
O67 O 0.86369 1.02379 0.44839 0.0
O68 O 0.87741 0.17262 0.39975 0.0
O69 O 0.76719 0.11809 0.41846 0.0
O70 O 0.72151 0.99941 0.46324 0.0
O71 O 0.65412 1.05659 0.4543 0.0
H72 H 0.73949 0.37209 0.49047 0.0
H73 H 0.67969 0.44541 0.49509 0.0
H74 H 0.49973 0.29673 0.42309 0.0
H75 H 0.55972 0.22241 0.41938 0.0
H76 H 0.88392 0.89887 0.4702 0.0
H77 H 0.79579 0.78985 0.51034 0.0
H78 H 0.78354 0.92812 0.5947 0.0
H79 H 0.87114 1.03685 0.55454 0.0
C80 C 0.95564 0.72845 0.74378 0.0
Eu81 Eu 0.83065 0.67151 0.78361 0.0
C82 C 0.99777 0.69528 0.72976 0.0
C83 C 1.06667 0.71526 0.74706 0.0
C84 C 1.0892 0.66293 0.7532 0.0
C85 C 1.04296 0.59113 0.74161 0.0
C86 C 0.98522 0.57842 0.71534 0.0
C87 C 0.96135 0.62988 0.71008 0.0
C88 C 0.84208 0.675 0.8669 0.0
C89 C 0.76257 0.48597 0.78924 0.0
C90 C 0.6091 0.52359 0.87944 0.0
Eu91 Eu 0.70512 0.5981 0.82281 0.0
C92 C 0.53913 0.50485 0.89858 0.0
C93 C 0.47854 0.43358 0.89592 0.0
C94 C 0.40979 0.41513 0.91138 0.0
C95 C 0.40089 0.46761 0.93011 0.0
C96 C 0.46317 0.53683 0.93594 0.0
C97 C 0.53197 0.55554 0.9201 0.0
C98 C 0.6678 0.61358 0.74838 0.0
C99 C 0.75959 0.77955 0.7891 0.0
O100 O 0.8921 0.71064 0.7272 0.0
O101 O 0.95091 0.72562 0.78219 0.0
O102 O 0.86038 0.73261 0.84261 0.0
O103 O 0.81236 0.62107 0.84605 0.0
O104 O 0.81796 0.55253 0.7757 0.0
O105 O 0.70935 0.48906 0.80917 0.0
O106 O 0.66659 0.58925 0.88315 0.0
O107 O 0.6047 0.5 0.8443 0.0
O108 O 0.63923 0.62385 0.77905 0.0
O109 O 0.71826 0.59805 0.75792 0.0
O110 O 0.72045 0.72385 0.81742 0.0
O111 O 0.80355 0.76658 0.76747 0.0
H112 H 1.09664 0.76634 0.76155 0.0
H113 H 1.13529 0.67489 0.77275 0.0
H114 H 0.95133 0.52436 0.70445 0.0
H115 H 0.90917 0.61389 0.69539 0.0
H116 H 0.48363 0.39294 0.88043 0.0
H117 H 0.36276 0.3616 0.90616 0.0
H118 H 0.45773 0.57781 0.95086 0.0
H119 H 0.57858 0.6102 0.9236 0.0
C120 C 0.61521 0.32405 0.26027 0.0
N121 N 0.67638 0.32523 0.27549 0.0
N122 N 0.55181 0.26501 0.27563 0.0
C123 C 0.61787 0.37683 0.22677 0.0
C124 C 0.57816 0.23695 0.30516 0.0
N125 N 0.65319 0.27219 0.30445 0.0
C126 C 0.53024 0.17023 0.33254 0.0
H127 H 0.56165 0.36794 0.21994 0.0
H128 H 0.64323 0.3707 0.19997 0.0
H129 H 0.65407 0.4342 0.23514 0.0
H130 H 0.50511 0.11992 0.31584 0.0
H131 H 0.48499 0.17602 0.34514 0.0
H132 H 0.56245 0.16347 0.35745 0.0
C133 C 0.47353 0.56735 0.55039 0.0
N134 N 0.50457 0.59331 0.58532 0.0
N135 N 0.45353 0.49533 0.54901 0.0
C136 C 0.47612 0.61626 0.51478 0.0
C137 C 0.46255 0.47588 0.58707 0.0
N138 N 0.4934 0.53516 0.60895 0.0
C139 C 0.45147 0.40127 0.60116 0.0
H140 H 0.45334 0.6513 0.5231 0.0
H141 H 0.44365 0.58304 0.49008 0.0
H142 H 0.53431 0.65397 0.50479 0.0
H143 H 0.39871 0.35734 0.58965 0.0
H144 H 0.44992 0.39386 0.63395 0.0
H145 H 0.49744 0.39519 0.5897 0.0
C146 C 1.07105 0.38517 0.88927 0.0
N147 N 1.10503 0.41045 0.92369 0.0
N148 N 1.02853 0.41508 0.87782 0.0
C149 C 1.08977 0.34138 0.86329 0.0
C150 C 1.03217 0.45378 0.90899 0.0
N151 N 1.08043 0.453 0.9363 0.0
C152 C 0.99121 0.49565 0.91123 0.0
H153 H 1.14719 0.3761 0.85143 0.0
H154 H 1.05061 0.32116 0.83835 0.0
H155 H 1.08755 0.29373 0.88117 0.0
H156 H 0.93332 0.46165 0.90141 0.0
H157 H 1.01826 0.54661 0.89112 0.0
H158 H 0.9896 0.51011 0.94185 0.0
C159 C 0.29896 0.64068 0.43847 0.0
N160 N 0.24238 0.59546 0.41268 0.0
N161 N 0.35728 0.70646 0.42021 0.0
C162 C 0.29632 0.62163 0.48204 0.0
C163 C 0.33306 0.69801 0.38206 0.0
N164 N 0.26641 0.63401 0.37719 0.0
C165 C 0.37807 0.75183 0.34811 0.0
H166 H 0.23899 0.59845 0.49365 0.0
H167 H 0.33512 0.67081 0.49782 0.0
H168 H 0.31259 0.57884 0.48754 0.0
H169 H 0.43676 0.78773 0.35615 0.0
H170 H 0.35376 0.78727 0.33935 0.0
H171 H 0.37691 0.72227 0.32209 0.0
C172 C 0.75779 0.13101 0.7736 0.0
N173 N 0.75988 1.08016 0.74888 0.0
N174 N 0.75908 0.19352 0.75356 0.0
C175 C 0.75931 0.12239 0.81778 0.0
C176 C 0.76028 0.17649 0.71546 0.0
N177 N 0.76321 0.11273 0.71228 0.0
C178 C 0.75197 0.21984 0.67989 0.0
H179 H 0.70174 1.08697 0.82926 0.0
H180 H 0.78309 0.17678 0.83048 0.0
H181 H 0.79228 1.09578 0.82731 0.0
H182 H 0.8077 0.26078 0.66766 0.0
H183 H 0.72221 0.24871 0.68769 0.0
H184 H 0.72023 0.18363 0.65612 0.0
C185 C 0.75452 0.63723 0.09864 0.0
N186 N 0.80888 0.63986 0.07332 0.0
N187 N 0.69341 0.63676 0.07928 0.0
C188 C 0.75973 0.63242 0.14275 0.0
C189 C 0.71438 0.63984 0.0409 0.0
N190 N 0.78149 0.64224 0.03696 0.0
C191 C 0.66893 0.6416 0.00587 0.0
H192 H 0.7824 0.59588 0.15238 0.0
H193 H 0.70465 0.61167 0.15688 0.0
H194 H 0.79832 0.68825 0.15248 0.0
H195 H 0.61839 0.64231 0.01454 0.0
H196 H 0.65264 0.59262 -0.01106 0.0
H197 H 0.70287 0.69128 0.98579 0.0
C198 C 0.47863 0.56945 0.0943 0.0
C199 C 0.4736 0.62948 0.10879 0.0
H200 H 0.54496 0.52328 0.07429 0.0
C201 C 0.5463 0.69104 0.11516 0.0
H202 H 0.42749 0.52002 0.0881 0.0
C203 C 0.61623 0.69241 0.10769 0.0
C204 C 0.62074 0.63227 0.09303 0.0
H205 H 0.54975 0.73992 0.12591 0.0
H206 H 0.66761 0.7425 0.11265 0.0
C207 C 0.54827 0.57106 0.08643 0.0
C208 C 1.09392 0.38932 0.45345 0.0
C209 C 1.02168 0.37473 0.44038 0.0
H210 H 0.21388 0.46322 0.45709 0.0
C211 C 1.02707 0.43777 0.4172 0.0
H212 H 1.09733 0.3458 0.47098 0.0
C213 C 1.09695 0.50698 0.40781 0.0
C214 C 0.16877 0.52163 0.42168 0.0
H215 H 0.97644 0.43347 0.40524 0.0
H216 H 1.09401 0.55022 0.38971 0.0
C217 C 0.16332 0.45915 0.44522 0.0
C218 C 0.71876 0.88355 0.80234 0.0
C219 C 0.75727 0.85692 0.77986 0.0
H220 H 0.68767 0.96686 0.81187 0.0
C221 C 0.79612 0.90882 0.74669 0.0
H222 H 0.68703 0.84962 0.8281 0.0
C223 C 0.79666 0.97855 0.73692 0.0
C224 C 0.75886 1.00567 0.75944 0.0
H225 H 0.82755 0.89548 0.72731 0.0
H226 H 0.82903 1.0122 0.71131 0.0
C227 C 0.7197 0.95394 0.79277 0.0
C228 C 0.968 0.58487 0.07856 0.0
C229 C 1.02453 0.63354 0.10434 0.0
H230 H 0.8623 0.54856 0.0482 0.0
C231 C 1.00546 0.68465 0.11903 0.0
H232 H 0.97625 0.544 0.06545 0.0
C233 C 0.93695 0.68607 0.10967 0.0
C234 C 0.88119 0.63817 0.08343 0.0
H235 H 1.04394 0.72435 0.13873 0.0
H236 H 0.9285 0.72669 0.12291 0.0
C237 C 0.90053 0.58778 0.06816 0.0
C238 C 0.50882 0.91403 0.43831 0.0
C239 C 0.57654 0.91551 0.44974 0.0
H240 H 0.39264 0.85395 0.42095 0.0
C241 C 0.56617 0.842 0.45335 0.0
H242 H 0.50962 0.9661 0.4343 0.0
C243 C 0.49572 0.77476 0.44594 0.0
C244 C 0.4283 0.77412 0.43451 0.0
H245 H 0.61348 0.83584 0.46157 0.0
H246 H 0.49509 0.72277 0.44808 0.0
C247 C 0.43907 0.84741 0.43072 0.0
C248 C 0.71859 0.33852 0.80421 0.0
C249 C 0.76039 0.4085 0.78148 0.0
H250 H 0.684 0.22079 0.81509 0.0
C251 C 0.80158 0.40215 0.7504 0.0
H252 H 0.68439 0.33586 0.82848 0.0
C253 C 0.80428 0.33565 0.74369 0.0
C254 C 0.76205 0.26526 0.76565 0.0
H255 H 0.83349 0.45038 0.73057 0.0
H256 H 0.84059 0.34023 0.72012 0.0
C257 C 0.71906 0.27032 0.79663 0.0
C258 C 0.70807 0.71792 0.57577 0.0
C259 C 0.71349 0.78722 0.57201 0.0
H260 H 0.63576 0.60193 0.58063 0.0
C261 C 0.64961 0.79292 0.57752 0.0
H262 H 0.75626 0.71206 0.57167 0.0
C263 C 0.58041 0.72931 0.58413 0.0
C264 C 0.57502 0.6601 0.58513 0.0
H265 H 0.65228 0.84595 0.57401 0.0
H266 H 0.53103 0.73375 0.58637 0.0
C267 C 0.63937 0.65509 0.58142 0.0
C268 C 1.09797 0.52504 0.78116 0.0
C269 C 1.03561 0.52945 0.7688 0.0
H270 H 1.14488 0.48625 0.82688 0.0
C271 C 0.96839 0.48649 0.78995 0.0
H272 H 1.15102 0.55952 0.76625 0.0
C273 C 0.96337 0.44103 0.82321 0.0
C274 C 1.02707 0.44178 0.83764 0.0
H275 H 0.92197 0.49464 0.78349 0.0
H276 H 0.91167 0.4111 0.83979 0.0
C277 C 1.09402 0.48241 0.81566 0.0
C278 C 0.37213 0.1039 0.24789 0.0
C279 C 0.39234 1.09229 0.21097 0.0
H280 H 0.40544 0.17332 0.29649 0.0
C281 C 0.45758 0.148 0.19226 0.0
H282 H 0.32157 1.06189 0.2628 0.0
C283 C 0.5067 0.2088 0.21217 0.0
C284 C 0.49108 0.2174 0.25099 0.0
H285 H 0.47538 0.14061 0.16404 0.0
H286 H 0.56029 0.24437 0.19834 0.0
C287 C 0.42049 0.16719 0.26732 0.0
C288 C 0.46724 0.36648 0.48448 0.0
C289 C 0.54112 0.41075 0.47081 0.0
H290 H 0.37953 0.36034 0.51956 0.0
C291 C 0.5779 0.4865 0.47568 0.0
H292 H 0.43735 0.30768 0.48111 0.0
C293 C 0.54611 0.5154 0.49883 0.0
C294 C 0.4753 0.4699 0.51627 0.0
H295 H 0.63425 0.52217 0.46486 0.0
H296 H 0.58033 0.57203 0.50603 0.0
C297 C 0.4343 0.3962 0.50684 0.0
C298 C 0.26694 0.38544 0.9493 0.0
C299 C 0.32566 0.45526 0.93595 0.0
H300 H 1.1485 0.31616 0.9556 0.0
C301 C 0.31035 0.51066 0.92149 0.0
H302 H 0.27755 0.34186 0.96049 0.0
C303 C 0.23777 0.49556 0.91845 0.0
C304 C 0.17925 0.42537 0.9303 0.0
H305 H 0.35403 0.56427 0.91 0.0
H306 H 0.22671 0.53785 0.90542 0.0
C307 C 0.19372 0.37052 0.94641 0.0
C308 C 0.86863 0.40151 0.23654 0.0
C309 C 0.85799 0.3458 0.21192 0.0
H310 H 0.81729 0.43912 0.27604 0.0
C311 C 0.78591 0.28835 0.20576 0.0
H312 H 0.92361 0.44729 0.24123 0.0
C313 C 0.72607 0.28522 0.22479 0.0
C314 C 0.73697 0.33917 0.25037 0.0
H315 H 0.77592 0.24426 0.18743 0.0
H316 H 0.67126 0.2383 0.22138 0.0
C317 C 0.80828 0.39795 0.25584 0.0
C318 C 0.19007 0.52754 0.02683 0.0
C319 C 0.20738 0.60145 0.02325 0.0
H320 H 1.12708 0.42055 0.00521 0.0
C321 C 0.1797 0.62616 -0.00888 0.0
H322 H 0.21312 0.50752 0.05032 0.0
C323 C 1.13649 0.57758 0.9627 0.0
C324 C 1.11562 0.50224 0.96762 0.0
H325 H 0.19338 0.68333 0.98735 0.0
H326 H 1.12192 0.59985 0.93644 0.0
C327 C 1.14138 0.47783 0.00076 0.0
C328 C 0.72273 0.143 0.33739 0.0
C329 C 0.78609 0.18896 0.35851 0.0
H330 H 0.6318 0.13414 0.30249 0.0
C331 C 0.80931 0.26434 0.35841 0.0
H332 H 0.70329 1.08444 0.33755 0.0
C333 C 0.76564 0.29168 0.3405 0.0
C334 C 0.69923 0.2443 0.32192 0.0
H335 H 0.85741 0.30066 0.37495 0.0
H336 H 0.78192 0.34906 0.3425 0.0
C337 C 0.68055 0.17077 0.31852 0.0
C338 C 0.63093 0.54694 0.68588 0.0
C339 C 0.62348 0.59143 0.7122 0.0
H340 H 0.59328 0.49194 0.63219 0.0
C341 C 0.56776 0.61011 0.70585 0.0
H342 H 0.67302 0.53122 0.69033 0.0
C343 C 0.52127 0.58608 0.67349 0.0
C344 C 0.5291 0.54279 0.64672 0.0
H345 H 0.5605 0.64414 0.72575 0.0
H346 H 0.48088 0.60388 0.66823 0.0
C347 C 0.58392 0.52265 0.65334 0.0
C348 C 0.70601 1.05149 0.60936 0.0
C349 C 0.77114 1.09923 0.58672 0.0
H350 H 0.65273 1.01491 0.66703 0.0
C351 C 0.83687 0.13802 0.60824 0.0
H352 H 0.65397 1.02014 0.59442 0.0
C353 C 0.83597 0.13403 0.65039 0.0
C354 C 0.76975 1.09035 0.67304 0.0
H355 H 0.88832 0.17544 0.59256 0.0
H356 H 0.88632 0.17049 0.66538 0.0
C357 C 0.70536 1.04698 0.65144 0.0
C358 C 0.86169 0.73062 0.93482 0.0
C359 C 0.83801 0.66889 0.91228 0.0
H360 H 0.865 0.77082 -0.00779 0.0
C361 C 0.80625 0.59908 0.93378 0.0
H362 H 0.88604 0.78534 0.91996 0.0
C363 C 0.79489 0.59094 0.97543 0.0
C364 C 0.81603 0.65222 -0.00214 0.0
H365 H 0.78681 0.54975 0.91807 0.0
H366 H 0.76513 0.5359 -0.01011 0.0
C367 C 0.85078 0.72237 0.97665 0.0
C368 C 0.24731 0.55298 0.27893 0.0
C369 C 0.2333 0.60007 0.2523 0.0
H370 H 0.26584 0.52451 0.33912 0.0
C371 C 0.21733 0.64989 0.26945 0.0
H372 H 0.2596 0.51336 0.26753 0.0
C373 C 0.21962 0.65502 0.31118 0.0
C374 C 0.23757 0.61044 0.33756 0.0
H375 H 0.20615 0.68716 0.25057 0.0
H376 H 0.21227 0.69765 0.3228 0.0
C377 C 0.24944 0.55808 0.32048 0.0
loop_
_geom_bond_atom_site_label_1
_geom_bond_atom_site_label_2
_geom_bond_distance
_geom_bond_site_symmetry_2
_ccdc_geom_bond_type
C0 Eu1 2.835 . S
C0 C2 1.500 . S
C0 O20 1.257 . S
C0 O21 1.260 . S
Eu1 C0 2.835 . S
Eu1 O20 2.473 . S
Eu1 O21 2.480 . S
Eu1 O22 2.430 . S
Eu1 O23 2.670 1_655 S
Eu1 O24 2.394 . S
Eu1 O29 2.355 1_655 S
Eu1 O31 2.374 1_655 S
C2 C0 1.500 . S
C2 C3 1.377 . S
C2 C7 1.377 . S
C3 C2 1.377 . S
C3 C4 1.395 . S
C3 H32 0.931 . S
C4 C3 1.395 . S
C4 C5 1.383 . S
C4 H33 0.931 . S
C5 C4 1.383 . S
C5 C6 1.394 . S
C6 C5 1.394 . S
C6 C7 1.378 . S
C6 H34 0.931 . S
C7 C2 1.377 . S
C7 C6 1.378 . S
C7 H35 0.931 . S
C8 O22 1.259 1_455 S
C8 O23 1.270 . S
C9 O24 1.251 . S
C9 O25 1.251 . S
C10 Eu11 2.835 . S
C10 C12 1.500 . S
C10 O26 1.257 . S
C10 O27 1.260 . S
Eu11 C10 2.835 . S
Eu11 O23 2.355 . S
Eu11 O25 2.374 1_455 S
Eu11 O26 2.473 . S
Eu11 O27 2.480 . S
Eu11 O28 2.430 . S
Eu11 O29 2.670 . S
Eu11 O30 2.394 . S
C12 C10 1.500 . S
C12 C13 1.377 . S
C12 C17 1.377 . S
C13 C12 1.377 . S
C13 C14 1.395 . S
C13 H36 0.931 . S
C14 C13 1.395 . S
C14 C15 1.383 . S
C14 H37 0.931 . S
C15 C14 1.383 . S
C15 C16 1.394 . S
C16 C15 1.394 . S
C16 C17 1.378 . S
C16 H38 0.931 . S
C17 C12 1.377 . S
C17 C16 1.378 . S
C17 H39 0.931 . S
C18 O28 1.259 . S
C18 O29 1.270 . S
C19 O30 1.251 . S
C19 O31 1.251 . S
O20 C0 1.257 . S
O20 Eu1 2.473 . S
O21 C0 1.260 . S
O21 Eu1 2.480 . S
O22 Eu1 2.430 . S
O22 C8 1.259 1_655 S
O23 Eu1 2.670 1_455 S
O23 C8 1.270 . S
O23 Eu11 2.355 . S
O24 Eu1 2.394 . S
O24 C9 1.251 . S
O25 C9 1.251 . S
O25 Eu11 2.374 1_655 S
O26 C10 1.257 . S
O26 Eu11 2.473 . S
O27 C10 1.260 . S
O27 Eu11 2.480 . S
O28 Eu11 2.430 . S
O28 C18 1.259 . S
O29 Eu1 2.355 1_455 S
O29 Eu11 2.670 . S
O29 C18 1.270 . S
O30 Eu11 2.394 . S
O30 C19 1.251 . S
O31 Eu1 2.374 1_455 S
O31 C19 1.251 . S
H32 C3 0.931 . S
H33 C4 0.931 . S
H34 C6 0.931 . S
H35 C7 0.931 . S
H36 C13 0.931 . S
H37 C14 0.931 . S
H38 C16 0.931 . S
H39 C17 0.931 . S
C40 Eu41 2.835 . S
C40 C42 1.500 . S
C40 O60 1.257 . S
C40 O61 1.260 . S
Eu41 C40 2.835 . S
Eu41 O60 2.473 . S
Eu41 O61 2.480 . S
Eu41 O62 2.430 . S
Eu41 O63 2.670 . S
Eu41 O64 2.394 . S
Eu41 O69 2.355 . S
Eu41 O71 2.374 1_545 S
C42 C40 1.500 . S
C42 C43 1.377 . S
C42 C47 1.377 . S
C43 C42 1.377 . S
C43 C44 1.395 . S
C43 H72 0.931 . S
C44 C43 1.395 . S
C44 C45 1.383 . S
C44 H73 0.931 . S
C45 C44 1.383 . S
C45 C46 1.394 . S
C46 C45 1.394 . S
C46 C47 1.378 . S
C46 H74 0.931 . S
C47 C42 1.377 . S
C47 C46 1.378 . S
C47 H75 0.931 . S
C48 O62 1.259 . S
C48 O63 1.270 . S
C49 O64 1.251 . S
C49 O65 1.251 . S
C50 Eu51 2.835 . S
C50 C52 1.500 . S
C50 O66 1.257 . S
C50 O67 1.260 . S
Eu51 C50 2.835 . S
Eu51 O63 2.355 1_565 S
Eu51 O65 2.374 1_565 S
Eu51 O66 2.473 . S
Eu51 O67 2.480 . S
Eu51 O68 2.430 1_565 S
Eu51 O69 2.670 1_565 S
Eu51 O70 2.394 . S
C52 C50 1.500 . S
C52 C53 1.377 . S
C52 C57 1.377 . S
C53 C52 1.377 . S
C53 C54 1.395 . S
C53 H76 0.931 . S
C54 C53 1.395 . S
C54 C55 1.383 . S
C54 H77 0.931 . S
C55 C54 1.383 . S
C55 C56 1.394 . S
C56 C55 1.394 . S
C56 C57 1.378 . S
C56 H78 0.931 . S
C57 C52 1.377 . S
C57 C56 1.378 . S
C57 H79 0.931 . S
C58 O68 1.259 . S
C58 O69 1.270 . S
C59 O70 1.251 . S
C59 O71 1.251 . S
O60 C40 1.257 . S
O60 Eu41 2.473 . S
O61 C40 1.260 . S
O61 Eu41 2.480 . S
O62 Eu41 2.430 . S
O62 C48 1.259 . S
O63 Eu41 2.670 . S
O63 C48 1.270 . S
O63 Eu51 2.355 1_545 S
O64 Eu41 2.394 . S
O64 C49 1.251 . S
O65 C49 1.251 . S
O65 Eu51 2.374 1_545 S
O66 C50 1.257 . S
O66 Eu51 2.473 . S
O67 C50 1.260 . S
O67 Eu51 2.480 . S
O68 Eu51 2.430 1_545 S
O68 C58 1.259 . S
O69 Eu41 2.355 . S
O69 Eu51 2.670 1_545 S
O69 C58 1.270 . S
O70 Eu51 2.394 . S
O70 C59 1.251 . S
O71 Eu41 2.374 1_565 S
O71 C59 1.251 . S
H72 C43 0.931 . S
H73 C44 0.931 . S
H74 C46 0.931 . S
H75 C47 0.931 . S
H76 C53 0.931 . S
H77 C54 0.931 . S
H78 C56 0.931 . S
H79 C57 0.931 . S
C80 Eu81 2.835 . S
C80 C82 1.500 . S
C80 O100 1.257 . S
C80 O101 1.260 . S
Eu81 C80 2.835 . S
Eu81 O100 2.473 . S
Eu81 O101 2.480 . S
Eu81 O102 2.430 . S
Eu81 O103 2.670 . S
Eu81 O104 2.394 . S
Eu81 O109 2.355 . S
Eu81 O111 2.374 . S
C82 C80 1.500 . S
C82 C83 1.377 . S
C82 C87 1.377 . S
C83 C82 1.377 . S
C83 C84 1.395 . S
C83 H112 0.931 . S
C84 C83 1.395 . S
C84 C85 1.383 . S
C84 H113 0.931 . S
C85 C84 1.383 . S
C85 C86 1.394 . S
C86 C85 1.394 . S
C86 C87 1.378 . S
C86 H114 0.931 . S
C87 C82 1.377 . S
C87 C86 1.378 . S
C87 H115 0.931 . S
C88 O102 1.259 . S
C88 O103 1.270 . S
C89 O104 1.251 . S
C89 O105 1.251 . S
C90 Eu91 2.835 . S
C90 C92 1.500 . S
C90 O106 1.257 . S
C90 O107 1.260 . S
Eu91 C90 2.835 . S
Eu91 O103 2.355 . S
Eu91 O105 2.374 . S
Eu91 O106 2.473 . S
Eu91 O107 2.480 . S
Eu91 O108 2.430 . S
Eu91 O109 2.670 . S
Eu91 O110 2.394 . S
C92 C90 1.500 . S
C92 C93 1.377 . S
C92 C97 1.377 . S
C93 C92 1.377 . S
C93 C94 1.395 . S
C93 H116 0.931 . S
C94 C93 1.395 . S
C94 C95 1.383 . S
C94 H117 0.931 . S
C95 C94 1.383 . S
C95 C96 1.394 . S
C96 C95 1.394 . S
C96 C97 1.378 . S
C96 H118 0.931 . S
C97 C92 1.377 . S
C97 C96 1.378 . S
C97 H119 0.931 . S
C98 O108 1.259 . S
C98 O109 1.270 . S
C99 O110 1.251 . S
C99 O111 1.251 . S
O100 C80 1.257 . S
O100 Eu81 2.473 . S
O101 C80 1.260 . S
O101 Eu81 2.480 . S
O102 Eu81 2.430 . S
O102 C88 1.259 . S
O103 Eu81 2.670 . S
O103 C88 1.270 . S
O103 Eu91 2.355 . S
O104 Eu81 2.394 . S
O104 C89 1.251 . S
O105 C89 1.251 . S
O105 Eu91 2.374 . S
O106 C90 1.257 . S
O106 Eu91 2.473 . S
O107 C90 1.260 . S
O107 Eu91 2.480 . S
O108 Eu91 2.430 . S
O108 C98 1.259 . S
O109 Eu81 2.355 . S
O109 Eu91 2.670 . S
O109 C98 1.270 . S
O110 Eu91 2.394 . S
O110 C99 1.251 . S
O111 Eu81 2.374 . S
O111 C99 1.251 . S
H112 C83 0.931 . S
H113 C84 0.931 . S
H114 C86 0.931 . S
H115 C87 0.931 . S
H116 C93 0.931 . S
H117 C94 0.931 . S
H118 C96 0.931 . S
H119 C97 0.931 . S
C120 N121 1.317 . S
C120 N122 1.348 1_545 S
C120 C123 1.485 . S
N121 C120 1.317 . S
N121 N125 1.370 . S
N122 C120 1.348 1_565 S
N122 C124 1.346 . S
C123 C120 1.485 . S
C123 H127 0.960 . S
C123 H128 0.961 . S
C123 H129 0.960 . S
C124 N122 1.346 . S
C124 N125 1.307 1_565 S
C124 C126 1.486 . S
N125 N121 1.370 . S
N125 C124 1.307 1_545 S
C126 C124 1.486 . S
C126 H130 0.960 . S
C126 H131 0.960 . S
C126 H132 0.959 . S
H127 C123 0.960 . S
H128 C123 0.961 . S
H129 C123 0.960 . S
H130 C126 0.960 . S
H131 C126 0.960 . S
H132 C126 0.959 . S
C133 N134 1.317 . S
C133 N135 1.348 . S
C133 C136 1.485 . S
N134 C133 1.317 . S
N134 N138 1.370 . S
N135 C133 1.348 . S
N135 C137 1.346 . S
C136 C133 1.485 . S
C136 H140 0.960 . S
C136 H141 0.961 . S
C136 H142 0.960 . S
C137 N135 1.346 . S
C137 N138 1.307 . S
C137 C139 1.486 . S
N138 N134 1.370 . S
N138 C137 1.307 . S
C139 C137 1.486 . S
C139 H143 0.960 . S
C139 H144 0.960 . S
C139 H145 0.959 . S
H140 C136 0.960 . S
H141 C136 0.961 . S
H142 C136 0.960 . S
H143 C139 0.960 . S
H144 C139 0.960 . S
H145 C139 0.959 . S
C146 N147 1.317 1_655 S
C146 N148 1.348 . S
C146 C149 1.485 1_655 S
N147 C146 1.317 1_455 S
N147 N151 1.370 . S
N148 C146 1.348 . S
N148 C150 1.346 . S
C149 C146 1.485 1_455 S
C149 H153 0.960 . S
C149 H154 0.961 1_455 S
C149 H155 0.960 . S
C150 N148 1.346 . S
C150 N151 1.307 1_655 S
C150 C152 1.486 . S
N151 N147 1.370 . S
N151 C150 1.307 1_455 S
C152 C150 1.486 . S
C152 H156 0.960 . S
C152 H157 0.960 . S
C152 H158 0.959 . S
H153 C149 0.960 . S
H154 C149 0.961 1_655 S
H155 C149 0.960 . S
H156 C152 0.960 . S
H157 C152 0.960 . S
H158 C152 0.959 . S
C159 N160 1.317 . S
C159 N161 1.348 . S
C159 C162 1.485 . S
N160 C159 1.317 . S
N160 N164 1.370 . S
N161 C159 1.348 . S
N161 C163 1.346 . S
C162 C159 1.485 . S
C162 H166 0.960 . S
C162 H167 0.961 . S
C162 H168 0.960 . S
C163 N161 1.346 . S
C163 N164 1.307 . S
C163 C165 1.486 . S
N164 N160 1.370 . S
N164 C163 1.307 . S
C165 C163 1.486 . S
C165 H169 0.960 . S
C165 H170 0.960 . S
C165 H171 0.959 . S
H166 C162 0.960 . S
H167 C162 0.961 . S
H168 C162 0.960 . S
H169 C165 0.960 . S
H170 C165 0.960 . S
H171 C165 0.959 . S
C172 N173 1.317 1_545 S
C172 N174 1.348 . S
C172 C175 1.485 . S
N173 C172 1.317 1_565 S
N173 N177 1.370 1_565 S
N174 C172 1.348 . S
N174 C176 1.346 . S
C175 C172 1.485 . S
C175 H179 0.960 1_545 S
C175 H180 0.961 . S
C175 H181 0.960 1_545 S
C176 N174 1.346 . S
C176 N177 1.307 . S
C176 C178 1.486 . S
N177 N173 1.370 1_545 S
N177 C176 1.307 . S
C178 C176 1.486 . S
C178 H182 0.960 . S
C178 H183 0.960 . S
C178 H184 0.959 . S
H179 C175 0.960 1_565 S
H180 C175 0.961 . S
H181 C175 0.960 1_565 S
H182 C178 0.960 . S
H183 C178 0.960 . S
H184 C178 0.959 . S
C185 N186 1.317 . S
C185 N187 1.348 . S
C185 C188 1.485 . S
N186 C185 1.317 . S
N186 N190 1.370 . S
N187 C185 1.348 . S
N187 C189 1.346 . S
C188 C185 1.485 . S
C188 H192 0.960 . S
C188 H193 0.961 . S
C188 H194 0.960 . S
C189 N187 1.346 . S
C189 N190 1.307 . S
C189 C191 1.486 . S
N190 N186 1.370 . S
N190 C189 1.307 . S
C191 C189 1.486 . S
C191 H195 0.960 . S
C191 H196 0.960 . S
C191 H197 0.959 . S
H192 C188 0.960 . S
H193 C188 0.961 . S
H194 C188 0.960 . S
H195 C191 0.960 . S
H196 C191 0.960 . S
H197 C191 0.959 . S
C198 C199 1.387 . S
C198 H202 0.950 . S
C198 C207 1.390 . S
C199 C198 1.387 . S
C199 C201 1.387 . S
H200 C207 0.950 . S
C201 C199 1.387 . S
C201 C203 1.390 . S
C201 H205 0.950 . S
H202 C198 0.950 . S
C203 C201 1.390 . S
C203 C204 1.387 . S
C203 H206 0.950 . S
C204 C203 1.387 . S
C204 C207 1.387 . S
H205 C201 0.950 . S
H206 C203 0.950 . S
C207 C198 1.390 . S
C207 H200 0.950 . S
C207 C204 1.387 . S
C208 C209 1.387 . S
C208 H212 0.950 . S
C208 C217 1.390 . S
C209 C208 1.387 . S
C209 C211 1.387 . S
H210 C217 0.950 . S
C211 C209 1.387 . S
C211 C213 1.390 . S
C211 H215 0.950 . S
H212 C208 0.950 . S
C213 C211 1.390 . S
C213 C214 1.387 . S
C213 H216 0.950 . S
C214 C213 1.387 . S
C214 C217 1.387 . S
H215 C211 0.950 . S
H216 C213 0.950 . S
C217 C208 1.390 . S
C217 H210 0.950 . S
C217 C214 1.387 . S
C218 C219 1.387 . S
C218 H222 0.950 . S
C218 C227 1.390 . S
C219 C218 1.387 . S
C219 C221 1.387 . S
H220 C227 0.950 . S
C221 C219 1.387 . S
C221 C223 1.390 . S
C221 H225 0.950 . S
H222 C218 0.950 . S
C223 C221 1.390 . S
C223 C224 1.387 . S
C223 H226 0.950 . S
C224 C223 1.387 . S
C224 C227 1.387 . S
H225 C221 0.950 . S
H226 C223 0.950 . S
C227 C218 1.390 . S
C227 H220 0.950 . S
C227 C224 1.387 . S
C228 C229 1.387 . S
C228 H232 0.950 . S
C228 C237 1.390 . S
C229 C228 1.387 . S
C229 C231 1.387 . S
H230 C237 0.950 . S
C231 C229 1.387 . S
C231 C233 1.390 . S
C231 H235 0.950 . S
H232 C228 0.950 . S
C233 C231 1.390 . S
C233 C234 1.387 . S
C233 H236 0.950 . S
C234 C233 1.387 . S
C234 C237 1.387 . S
H235 C231 0.950 . S
H236 C233 0.950 . S
C237 C228 1.390 . S
C237 H230 0.950 . S
C237 C234 1.387 . S
C238 C239 1.387 . S
C238 H242 0.950 . S
C238 C247 1.390 . S
C239 C238 1.387 . S
C239 C241 1.387 . S
H240 C247 0.950 . S
C241 C239 1.387 . S
C241 C243 1.390 . S
C241 H245 0.950 . S
H242 C238 0.950 . S
C243 C241 1.390 . S
C243 C244 1.387 . S
C243 H246 0.950 . S
C244 C243 1.387 . S
C244 C247 1.387 . S
H245 C241 0.950 . S
H246 C243 0.950 . S
C247 C238 1.390 . S
C247 H240 0.950 . S
C247 C244 1.387 . S
C248 C249 1.387 . S
C248 H252 0.950 . S
C248 C257 1.390 . S
C249 C248 1.387 . S
C249 C251 1.387 . S
H250 C257 0.950 . S
C251 C249 1.387 . S
C251 C253 1.390 . S
C251 H255 0.950 . S
H252 C248 0.950 . S
C253 C251 1.390 . S
C253 C254 1.387 . S
C253 H256 0.950 . S
C254 C253 1.387 . S
C254 C257 1.387 . S
H255 C251 0.950 . S
H256 C253 0.950 . S
C257 C248 1.390 . S
C257 H250 0.950 . S
C257 C254 1.387 . S
C258 C259 1.387 . S
C258 H262 0.950 . S
C258 C267 1.390 . S
C259 C258 1.387 . S
C259 C261 1.387 . S
H260 C267 0.950 . S
C261 C259 1.387 . S
C261 C263 1.390 . S
C261 H265 0.950 . S
H262 C258 0.950 . S
C263 C261 1.390 . S
C263 C264 1.387 . S
C263 H266 0.950 . S
C264 C263 1.387 . S
C264 C267 1.387 . S
H265 C261 0.950 . S
H266 C263 0.950 . S
C267 C258 1.390 . S
C267 H260 0.950 . S
C267 C264 1.387 . S
C268 C269 1.387 . S
C268 H272 0.950 . S
C268 C277 1.390 . S
C269 C268 1.387 . S
C269 C271 1.387 . S
H270 C277 0.950 1_455 S
C271 C269 1.387 . S
C271 C273 1.390 . S
C271 H275 0.950 . S
H272 C268 0.950 . S
C273 C271 1.390 . S
C273 C274 1.387 . S
C273 H276 0.950 . S
C274 C273 1.387 . S
C274 C277 1.387 . S
H275 C271 0.950 . S
H276 C273 0.950 . S
C277 C268 1.390 . S
C277 H270 0.950 1_655 S
C277 C274 1.387 . S
C278 C279 1.387 . S
C278 H282 0.950 . S
C278 C287 1.390 . S
C279 C278 1.387 . S
C279 C281 1.387 . S
H280 C287 0.950 . S
C281 C279 1.387 . S
C281 C283 1.390 . S
C281 H285 0.950 . S
H282 C278 0.950 . S
C283 C281 1.390 . S
C283 C284 1.387 . S
C283 H286 0.950 . S
C284 C283 1.387 . S
C284 C287 1.387 . S
H285 C281 0.950 . S
H286 C283 0.950 . S
C287 C278 1.390 . S
C287 H280 0.950 . S
C287 C284 1.387 . S
C288 C289 1.387 . S
C288 H292 0.950 . S
C288 C297 1.390 . S
C289 C288 1.387 . S
C289 C291 1.387 . S
H290 C297 0.950 . S
C291 C289 1.387 . S
C291 C293 1.390 . S
C291 H295 0.950 . S
H292 C288 0.950 . S
C293 C291 1.390 . S
C293 C294 1.387 . S
C293 H296 0.950 . S
C294 C293 1.387 . S
C294 C297 1.387 . S
H295 C291 0.950 . S
H296 C293 0.950 . S
C297 C288 1.390 . S
C297 H290 0.950 . S
C297 C294 1.387 . S
C298 C299 1.387 . S
C298 H302 0.950 . S
C298 C307 1.390 . S
C299 C298 1.387 . S
C299 C301 1.387 . S
H300 C307 0.950 . S
C301 C299 1.387 . S
C301 C303 1.390 . S
C301 H305 0.950 . S
H302 C298 0.950 . S
C303 C301 1.390 . S
C303 C304 1.387 . S
C303 H306 0.950 . S
C304 C303 1.387 . S
C304 C307 1.387 . S
H305 C301 0.950 . S
H306 C303 0.950 . S
C307 C298 1.390 . S
C307 H300 0.950 . S
C307 C304 1.387 . S
C308 C309 1.387 . S
C308 H312 0.950 . S
C308 C317 1.390 . S
C309 C308 1.387 . S
C309 C311 1.387 . S
H310 C317 0.950 . S
C311 C309 1.387 . S
C311 C313 1.390 . S
C311 H315 0.950 . S
H312 C308 0.950 . S
C313 C311 1.390 . S
C313 C314 1.387 . S
C313 H316 0.950 . S
C314 C313 1.387 . S
C314 C317 1.387 . S
H315 C311 0.950 . S
H316 C313 0.950 . S
C317 C308 1.390 . S
C317 H310 0.950 . S
C317 C314 1.387 . S
C318 C319 1.387 . S
C318 H322 0.950 . S
C318 C327 1.390 1_554 S
C319 C318 1.387 . S
C319 C321 1.387 . S
H320 C327 0.950 . S
C321 C319 1.387 . S
C321 C323 1.390 1_554 S
C321 H325 0.950 . S
H322 C318 0.950 . S
C323 C321 1.390 1_556 S
C323 C324 1.387 . S
C323 H326 0.950 . S
C324 C323 1.387 . S
C324 C327 1.387 . S
H325 C321 0.950 . S
H326 C323 0.950 . S
C327 C318 1.390 1_556 S
C327 H320 0.950 . S
C327 C324 1.387 . S
C328 C329 1.387 1_565 S
C328 H332 0.950 . S
C328 C337 1.390 . S
C329 C328 1.387 1_545 S
C329 C331 1.387 . S
H330 C337 0.950 . S
C331 C329 1.387 . S
C331 C333 1.390 . S
C331 H335 0.950 . S
H332 C328 0.950 . S
C333 C331 1.390 . S
C333 C334 1.387 . S
C333 H336 0.950 . S
C334 C333 1.387 . S
C334 C337 1.387 1_545 S
H335 C331 0.950 . S
H336 C333 0.950 . S
C337 C328 1.390 . S
C337 H330 0.950 . S
C337 C334 1.387 1_565 S
C338 C339 1.387 . S
C338 H342 0.950 . S
C338 C347 1.390 . S
C339 C338 1.387 . S
C339 C341 1.387 . S
H340 C347 0.950 . S
C341 C339 1.387 . S
C341 C343 1.390 . S
C341 H345 0.950 . S
H342 C338 0.950 . S
C343 C341 1.390 . S
C343 C344 1.387 . S
C343 H346 0.950 . S
C344 C343 1.387 . S
C344 C347 1.387 . S
H345 C341 0.950 . S
H346 C343 0.950 . S
C347 C338 1.390 . S
C347 H340 0.950 . S
C347 C344 1.387 . S
C348 C349 1.387 1_565 S
C348 H352 0.950 . S
C348 C357 1.390 . S
C349 C348 1.387 1_545 S
C349 C351 1.387 . S
H350 C357 0.950 . S
C351 C349 1.387 . S
C351 C353 1.390 . S
C351 H355 0.950 . S
H352 C348 0.950 . S
C353 C351 1.390 . S
C353 C354 1.387 . S
C353 H356 0.950 . S
C354 C353 1.387 . S
C354 C357 1.387 1_545 S
H355 C351 0.950 . S
H356 C353 0.950 . S
C357 C348 1.390 . S
C357 H350 0.950 . S
C357 C354 1.387 1_565 S
C358 C359 1.387 . S
C358 H362 0.950 . S
C358 C367 1.390 1_556 S
C359 C358 1.387 . S
C359 C361 1.387 . S
H360 C367 0.950 . S
C361 C359 1.387 . S
C361 C363 1.390 1_556 S
C361 H365 0.950 . S
H362 C358 0.950 . S
C363 C361 1.390 1_554 S
C363 C364 1.387 . S
C363 H366 0.950 . S
C364 C363 1.387 . S
C364 C367 1.387 . S
H365 C361 0.950 . S
H366 C363 0.950 . S
C367 C358 1.390 1_554 S
C367 H360 0.950 . S
C367 C364 1.387 . S
C368 C369 1.387 . S
C368 H372 0.950 1_455 S
C368 C377 1.390 . S
C369 C368 1.387 . S
C369 C371 1.387 . S
H370 C377 0.950 1_655 S
C371 C369 1.387 . S
C371 C373 1.390 . S
C371 H375 0.950 . S
H372 C368 0.950 1_655 S
C373 C371 1.390 . S
C373 C374 1.387 . S
C373 H376 0.950 . S
C374 C373 1.387 . S
C374 C377 1.387 . S
H375 C371 0.950 . S
H376 C373 0.950 . S
C377 C368 1.390 . S
C377 H370 0.950 1_455 S
C377 C374 1.387 . S
C199 C19 2.854 . S
C204 N187 2.808 . S
C209 C49 3.021 . S
C214 N160 3.024 1_655 S
C219 C99 2.965 . S
C224 N173 2.987 . S
C229 C9 3.304 . S
C234 N186 3.313 . S
C244 N161 3.069 . S
C239 C59 3.066 . S
C254 N174 3.122 . S
C249 C89 3.151 . S
C259 C55 0.605 . S
C264 N134 0.595 . S
C269 C85 0.750 . S
C274 N148 0.748 . S
C279 C15 0.900 . S
C284 N122 0.932 . S
C294 N135 0.936 . S
C289 C45 0.854 . S
C304 N147 0.959 . S
C299 C95 0.942 . S
C309 C5 0.767 . S
C314 N121 0.774 . S
C324 N151 1.057 . S
C319 C18 1.067 . S
C329 C58 1.201 . S
C334 N125 1.183 . S
C339 C98 1.017 . S
C344 N138 1.046 . S
C354 N177 1.870 . S
C349 C48 1.722 . S
C364 N190 1.767 . S
C359 C88 1.723 . S
C369 C8 1.725 . S
C374 N164 1.769 . S
