# Generated by pormake.
# Topology nom, (4,4)-cn, num edge types: 1
# Building blocks:
#     Node 0, Type 0, BuildingBlock: AZAVOO_clean_linker_0, # of connection points: 4
#     Node 1, Type 0, BuildingBlock: AZAVOO_clean_linker_0, # of connection points: 4
#     Node 2, Type 0, BuildingBlock: AZAVOO_clean_linker_0, # of connection points: 4
#     Node 3, Type 0, BuildingBlock: AZAVOO_clean_linker_0, # of connection points: 4
#     Node 4, Type 0, BuildingBlock: AZAVOO_clean_linker_0, # of connection points: 4
#     Node 5, Type 0, BuildingBlock: AZAVOO_clean_linker_0, # of connection points: 4
#     Node 6, Type 1, BuildingBlock: CEKHIL_clean_sbu_0, # of connection points: 4
#     Node 7, Type 1, BuildingBlock: CEKHIL_clean_sbu_0, # of connection points: 4
#     Node 8, Type 1, BuildingBlock: CEKHIL_clean_sbu_0, # of connection points: 4
#     Node 9, Type 1, BuildingBlock: CEKHIL_clean_sbu_0, # of connection points: 4
#     Node 10, Type 1, BuildingBlock: CEKHIL_clean_sbu_0, # of connection points: 4
#     Node 11, Type 1, BuildingBlock: CEKHIL_clean_sbu_0, # of connection points: 4
#     Edge 12, Type (0, 1), BuildingBlock: XUDNAN_clean_linker_2, # of connection points: 2
#     Edge 13, Type (0, 1), BuildingBlock: XUDNAN_clean_linker_2, # of connection points: 2
#     Edge 14, Type (0, 1), BuildingBlock: XUDNAN_clean_linker_2, # of connection points: 2
#     Edge 15, Type (0, 1), BuildingBlock: XUDNAN_clean_linker_2, # of connection points: 2
#     Edge 16, Type (0, 1), BuildingBlock: XUDNAN_clean_linker_2, # of connection points: 2
#     Edge 17, Type (0, 1), BuildingBlock: XUDNAN_clean_linker_2, # of connection points: 2
#     Edge 18, Type (0, 1), BuildingBlock: XUDNAN_clean_linker_2, # of connection points: 2
#     Edge 19, Type (0, 1), BuildingBlock: XUDNAN_clean_linker_2, # of connection points: 2
#     Edge 20, Type (0, 1), BuildingBlock: XUDNAN_clean_linker_2, # of connection points: 2
#     Edge 21, Type (0, 1), BuildingBlock: XUDNAN_clean_linker_2, # of connection points: 2
#     Edge 22, Type (0, 1), BuildingBlock: XUDNAN_clean_linker_2, # of connection points: 2
#     Edge 23, Type (0, 1), BuildingBlock: XUDNAN_clean_linker_2, # of connection points: 2
#     Edge 24, Type (0, 1), BuildingBlock: XUDNAN_clean_linker_2, # of connection points: 2
#     Edge 25, Type (0, 1), BuildingBlock: XUDNAN_clean_linker_2, # of connection points: 2
#     Edge 26, Type (0, 1), BuildingBlock: XUDNAN_clean_linker_2, # of connection points: 2
#     Edge 27, Type (0, 1), BuildingBlock: XUDNAN_clean_linker_2, # of connection points: 2
#     Edge 28, Type (0, 1), BuildingBlock: XUDNAN_clean_linker_2, # of connection points: 2
#     Edge 29, Type (0, 1), BuildingBlock: XUDNAN_clean_linker_2, # of connection points: 2
#     Edge 30, Type (0, 1), BuildingBlock: XUDNAN_clean_linker_2, # of connection points: 2
#     Edge 31, Type (0, 1), BuildingBlock: XUDNAN_clean_linker_2, # of connection points: 2
#     Edge 32, Type (0, 1), BuildingBlock: XUDNAN_clean_linker_2, # of connection points: 2
#     Edge 33, Type (0, 1), BuildingBlock: XUDNAN_clean_linker_2, # of connection points: 2
#     Edge 34, Type (0, 1), BuildingBlock: XUDNAN_clean_linker_2, # of connection points: 2
#     Edge 35, Type (0, 1), BuildingBlock: XUDNAN_clean_linker_2, # of connection points: 2
# Relax obj value: 0.139
# Max RMSD: 0.225
# Mean RMSD: 0.145
data_MOF--net-nom--node1-CEKHIL_clean_sbu_0--node2-AZAVOO_clean_linker_0--edge1-XUDNAN_clean_linker_2
_symmetry_space_group_name_H-M    P1
_symmetry_Int_Tables_number       1
_symmetry_cell_setting            triclinic
loop_
_symmetry_equiv_pos_as_xyz
'x, y, z'
_cell_length_a     49.127959
_cell_length_b     49.069074
_cell_length_c     59.694765
_cell_angle_alpha  90.089348
_cell_angle_beta   89.9914
_cell_angle_gamma 123.40806
loop_
_atom_site_label
_atom_site_type_symbol
_atom_site_fract_x
_atom_site_fract_y
_atom_site_fract_z
_atom_type_partial_charge
H0 H 0.07673 0.60138 0.16769 0.0
H1 H 0.22444 0.73047 0.40714 0.0
H2 H 0.00717 0.55124 0.28597 0.0
H3 H 0.97872 0.52379 0.25135 0.0
H4 H 0.96572 0.60202 0.23673 0.0
H5 H 0.99437 0.62958 0.27172 0.0
H6 H 0.07422 0.59236 0.26539 0.0
H7 H 0.07833 0.58977 0.22468 0.0
H8 H 0.06504 0.66943 0.2174 0.0
H9 H 0.06092 0.67165 0.25819 0.0
H10 H 0.13036 0.6277 0.2997 0.0
H11 H 0.18594 0.65947 0.28469 0.0
H12 H 0.17661 0.74113 0.27381 0.0
H13 H 0.12082 0.70873 0.28819 0.0
H14 H 0.10033 0.60738 0.35035 0.0
H15 H 0.14396 0.62682 0.37804 0.0
H16 H 0.17245 0.7261 0.36603 0.0
H17 H 0.12826 0.70623 0.33867 0.0
H18 H 0.02157 0.56779 0.35742 0.0
H19 H 0.03303 0.56019 0.39574 0.0
H20 H 0.08434 0.6644 0.40683 0.0
H21 H 0.06962 0.67101 0.36936 0.0
H22 H 0.97432 0.54677 0.32133 0.0
H23 H 0.91685 0.52359 0.32997 0.0
H24 H 0.94033 0.61924 0.34883 0.0
H25 H 0.99777 0.64244 0.33965 0.0
O26 O 0.07611 0.60354 0.18376 0.0
O27 O 0.07099 0.64571 0.18093 0.0
O28 O 0.19118 0.67062 0.40189 0.0
O29 O 0.20741 0.72219 0.39594 0.0
C30 C 0.02936 0.61297 0.29749 0.0
C31 C 0.06157 0.63136 0.28911 0.0
C32 C 0.08817 0.64688 0.30394 0.0
C33 C 0.0828 0.64307 0.32722 0.0
C34 C 0.0505 0.62595 0.3358 0.0
C35 C 0.02373 0.61144 0.32084 0.0
C36 C 0.0026 0.59226 0.28146 0.0
C37 C 0.99679 0.56171 0.27591 0.0
C38 C 0.9809 0.54627 0.25602 0.0
C39 C 0.97048 0.56108 0.24134 0.0
C40 C 0.97345 0.59012 0.24788 0.0
C41 C 0.98957 0.60573 0.26787 0.0
C42 C 0.06734 0.63222 0.26464 0.0
C43 C 0.07264 0.60948 0.25496 0.0
C44 C 0.07481 0.60797 0.23171 0.0
C45 C 0.07186 0.62929 0.21777 0.0
C46 C 0.06736 0.65261 0.22765 0.0
C47 C 0.06513 0.65405 0.25091 0.0
C48 C 0.12177 0.66603 0.29498 0.0
C49 C 0.14045 0.65245 0.29402 0.0
C50 C 0.1722 0.67071 0.28559 0.0
C51 C 0.18575 0.70288 0.27806 0.0
C52 C 0.16679 0.7163 0.27914 0.0
C53 C 0.13502 0.69795 0.28745 0.0
C54 C 0.11107 0.6554 0.3426 0.0
C55 C 0.11614 0.63333 0.35365 0.0
C56 C 0.14105 0.6445 0.36947 0.0
C57 C 0.16162 0.67802 0.37432 0.0
C58 C 0.15699 0.70013 0.36274 0.0
C59 C 0.13191 0.68889 0.34702 0.0
C60 C 0.04554 0.62009 0.36036 0.0
C61 C 0.03362 0.5887 0.36855 0.0
C62 C 0.04099 0.58456 0.39038 0.0
C63 C 0.0612 0.61185 0.40415 0.0
C64 C 0.06904 0.64268 0.39687 0.0
C65 C 0.06065 0.6466 0.37529 0.0
C66 C 0.99006 0.59639 0.32936 0.0
C67 C 0.9671 0.56271 0.32737 0.0
C68 C 0.93436 0.54952 0.33237 0.0
C69 C 0.92416 0.56975 0.33977 0.0
C70 C 0.94757 0.60314 0.34318 0.0
C71 C 0.98029 0.61637 0.33792 0.0
C72 C 0.07301 0.62683 0.19305 0.0
C73 C 0.1876 0.68992 0.39153 0.0
H74 H 0.60571 0.10939 0.35484 0.0
H75 H 0.54069 0.20137 0.58532 0.0
H76 H 0.55411 0.01371 0.46089 0.0
H77 H 0.55397 0.98553 0.42709 0.0
H78 H 0.45486 0.95606 0.41344 0.0
H79 H 0.45499 0.98337 0.44784 0.0
H80 H 0.58528 0.08891 0.4515 0.0
H81 H 0.60356 0.10234 0.41257 0.0
H82 H 0.50386 0.06041 0.39146 0.0
H83 H 0.48601 0.04747 0.4305 0.0
H84 H 0.59091 0.13283 0.49011 0.0
H85 H 0.61309 0.19038 0.48233 0.0
H86 H 0.5204 0.16335 0.45393 0.0
H87 H 0.49894 0.10588 0.46118 0.0
H88 H 0.56722 0.0949 0.53758 0.0
H89 H 0.58084 0.13611 0.56637 0.0
H90 H 0.50592 0.14823 0.54043 0.0
H91 H 0.49213 0.1065 0.51203 0.0
H92 H 0.5316 0.01812 0.54065 0.0
H93 H 0.53454 0.02482 0.5813 0.0
H94 H 0.46391 0.0512 0.57796 0.0
H95 H 0.45976 0.04247 0.5376 0.0
H96 H 0.51783 0.97324 0.49765 0.0
H97 H 0.48466 0.91441 0.50495 0.0
H98 H 0.4004 0.91923 0.51569 0.0
H99 H 0.43374 0.97798 0.50831 0.0
O100 O 0.59804 0.10442 0.37014 0.0
O101 O 0.54638 0.08248 0.36016 0.0
O102 O 0.57491 0.17882 0.58622 0.0
O103 O 0.53572 0.18488 0.57417 0.0
C104 C 0.50798 0.02433 0.47368 0.0
C105 C 0.52325 0.05735 0.4672 0.0
C106 C 0.52879 0.08104 0.48311 0.0
C107 C 0.52 0.07206 0.50567 0.0
C108 C 0.50368 0.03884 0.5121 0.0
C109 C 0.49727 0.01483 0.496 0.0
C110 C 0.50455 0.00049 0.45677 0.0
C111 C 0.53201 0.00015 0.451 0.0
C112 C 0.532 0.98443 0.43151 0.0
C113 C 0.50464 0.9691 0.41728 0.0
C114 C 0.47629 0.96745 0.42404 0.0
C115 C 0.47625 0.98298 0.44371 0.0
C116 C 0.53436 0.06722 0.44375 0.0
C117 C 0.56751 0.08295 0.43844 0.0
C118 C 0.57784 0.09046 0.41619 0.0
C119 C 0.55515 0.08233 0.39888 0.0
C120 C 0.52196 0.06695 0.40437 0.0
C121 C 0.5117 0.05955 0.42663 0.0
C122 C 0.54338 0.11536 0.47621 0.0
C123 C 0.57566 0.13943 0.4819 0.0
C124 C 0.58812 0.17225 0.47763 0.0
C125 C 0.5684 0.18154 0.46772 0.0
C126 C 0.53636 0.15709 0.46136 0.0
C127 C 0.52401 0.12426 0.46552 0.0
C128 C 0.52871 0.09775 0.52274 0.0
C129 C 0.55378 0.10648 0.53818 0.0
C130 C 0.56153 0.13005 0.55457 0.0
C131 C 0.5445 0.14552 0.55567 0.0
C132 C 0.51952 0.13681 0.54006 0.0
C133 C 0.51167 0.11309 0.52376 0.0
C134 C 0.49594 0.03043 0.53615 0.0
C135 C 0.5155 0.02363 0.54885 0.0
C136 C 0.51753 0.02804 0.57206 0.0
C137 C 0.50036 0.03973 0.58283 0.0
C138 C 0.47759 0.0423 0.57034 0.0
C139 C 0.47516 0.03733 0.54718 0.0
C140 C 0.4781 0.97979 0.50221 0.0
C141 C 0.49223 0.96157 0.50162 0.0
C142 C 0.47324 0.928 0.50576 0.0
C143 C 0.43985 0.91215 0.51074 0.0
C144 C 0.42609 0.93076 0.51209 0.0
C145 C 0.44506 0.96427 0.50781 0.0
C146 C 0.56612 0.08971 0.37522 0.0
C147 C 0.55271 0.1707 0.57297 0.0
H148 H 0.40517 0.40134 0.79401 0.0
H149 H 0.5623 0.3944 0.56267 0.0
H150 H 0.45316 0.51154 0.67722 0.0
H151 H 0.43328 0.52748 0.7083 0.0
H152 H 0.34236 0.43237 0.70691 0.0
H153 H 0.36404 0.41603 0.67655 0.0
H154 H 0.46089 0.46883 0.70917 0.0
H155 H 0.44379 0.44948 0.74754 0.0
H156 H 0.37792 0.35135 0.72253 0.0
H157 H 0.39488 0.37117 0.68417 0.0
H158 H 0.49762 0.44089 0.69478 0.0
H159 H 0.51429 0.40677 0.71182 0.0
H160 H 0.46269 0.33432 0.66018 0.0
H161 H 0.44447 0.36758 0.64387 0.0
H162 H 0.53274 0.46713 0.64481 0.0
H163 H 0.57117 0.45943 0.62427 0.0
H164 H 0.4938 0.39273 0.57911 0.0
H165 H 0.45556 0.4003 0.59999 0.0
H166 H 0.51555 0.51054 0.61637 0.0
H167 H 0.54278 0.52268 0.58014 0.0
H168 H 0.4522 0.44717 0.54957 0.0
H169 H 0.4254 0.43458 0.58618 0.0
H170 H 0.45665 0.52381 0.62388 0.0
H171 H 0.42398 0.54289 0.60754 0.0
H172 H 0.33799 0.4448 0.61177 0.0
H173 H 0.37071 0.4261 0.62748 0.0
O174 O 0.41168 0.40843 0.7787 0.0
O175 O 0.37875 0.35828 0.76506 0.0
O176 O 0.58757 0.4362 0.5925 0.0
O177 O 0.5477 0.39816 0.57093 0.0
C178 C 0.42675 0.45127 0.66062 0.0
C179 C 0.43841 0.43346 0.67057 0.0
C180 C 0.45853 0.42671 0.6582 0.0
C181 C 0.4683 0.43933 0.63631 0.0
C182 C 0.45641 0.45704 0.62634 0.0
C183 C 0.43428 0.46152 0.63813 0.0
C184 C 0.41015 0.46264 0.6748 0.0
C185 C 0.42858 0.49449 0.68322 0.0
C186 C 0.41692 0.50357 0.70105 0.0
C187 C 0.38613 0.48114 0.71054 0.0
C188 C 0.36649 0.45006 0.70054 0.0
C189 C 0.37856 0.44077 0.68295 0.0
C190 C 0.42896 0.42142 0.69392 0.0
C191 C 0.44268 0.44319 0.71202 0.0
C192 C 0.43293 0.43205 0.73392 0.0
C193 C 0.40943 0.39887 0.7381 0.0
C194 C 0.39603 0.37706 0.71989 0.0
C195 C 0.40571 0.38828 0.69798 0.0
C196 C 0.46959 0.40662 0.66818 0.0
C197 C 0.48953 0.41747 0.68731 0.0
C198 C 0.49911 0.3981 0.69696 0.0
C199 C 0.48964 0.36804 0.68726 0.0
C200 C 0.4703 0.35749 0.66786 0.0
C201 C 0.46001 0.37647 0.65855 0.0
C202 C 0.49143 0.43433 0.62386 0.0
C203 C 0.52415 0.45079 0.63052 0.0
C204 C 0.54605 0.44643 0.61872 0.0
C205 C 0.53553 0.42542 0.60006 0.0
C206 C 0.50268 0.40899 0.59343 0.0
C207 C 0.48081 0.41336 0.60527 0.0
C208 C 0.46861 0.47151 0.60389 0.0
C209 C 0.50128 0.49756 0.60166 0.0
C210 C 0.51682 0.50444 0.58091 0.0
C211 C 0.49982 0.48542 0.56205 0.0
C212 C 0.4661 0.46179 0.56391 0.0
C213 C 0.4506 0.45484 0.58473 0.0
C214 C 0.41605 0.47354 0.62669 0.0
C215 C 0.43086 0.50648 0.62092 0.0
C216 C 0.41211 0.51734 0.61181 0.0
C217 C 0.37837 0.49533 0.60827 0.0
C218 C 0.36394 0.46231 0.61386 0.0
C219 C 0.38258 0.45158 0.62295 0.0
C220 C 0.39896 0.38717 0.76139 0.0
C221 C 0.5586 0.4204 0.58764 0.0
H222 H 0.04669 0.63415 0.95644 0.0
H223 H 0.20977 0.6012 0.74415 0.0
H224 H 0.96215 0.55528 0.84274 0.0
H225 H 0.92176 0.53567 0.87284 0.0
H226 H 0.94364 0.46417 0.89072 0.0
H227 H 0.98156 0.4823 0.85971 0.0
H228 H 0.04466 0.61413 0.85965 0.0
H229 H 0.04719 0.63139 0.89851 0.0
H230 H 0.03294 0.54083 0.92142 0.0
H231 H 0.03078 0.52405 0.88255 0.0
H232 H 0.11818 0.63174 0.82589 0.0
H233 H 0.1735 0.65089 0.83752 0.0
H234 H 0.13559 0.56292 0.87677 0.0
H235 H 0.08156 0.54227 0.86234 0.0
H236 H 0.08951 0.61555 0.77997 0.0
H237 H 0.1375 0.63493 0.7563 0.0
H238 H 0.14796 0.5593 0.78308 0.0
H239 H 0.09966 0.53993 0.80642 0.0
H240 H 0.02424 0.57645 0.76386 0.0
H241 H 0.04167 0.57822 0.72525 0.0
H242 H 0.05595 0.50074 0.74024 0.0
H243 H 0.03712 0.4983 0.77845 0.0
H244 H 0.96757 0.54106 0.78113 0.0
H245 H 0.91514 0.50071 0.76337 0.0
H246 H 0.91087 0.42406 0.80176 0.0
H247 H 0.96403 0.464 0.81852 0.0
O248 O 0.04584 0.62695 0.9412 0.0
O249 O 0.03829 0.57993 0.95209 0.0
O250 O 0.18629 0.63453 0.74186 0.0
O251 O 0.19077 0.59407 0.75335 0.0
C252 C 0.00406 0.53626 0.83458 0.0
C253 C 0.03496 0.55744 0.84457 0.0
C254 C 0.06358 0.56997 0.83177 0.0
C255 C 0.0612 0.56381 0.8085 0.0
C256 C 0.03028 0.54398 0.79823 0.0
C257 C 0.00166 0.52936 0.81137 0.0
C258 C 0.97477 0.52023 0.84913 0.0
C259 C 0.95717 0.53459 0.85272 0.0
C260 C 0.9345 0.52364 0.87021 0.0
C261 C 0.92963 0.49863 0.88471 0.0
C262 C 0.94601 0.48307 0.87995 0.0
C263 C 0.96799 0.49353 0.8622 0.0
C264 C 0.03736 0.5678 0.86828 0.0
C265 C 0.04221 0.59813 0.8731 0.0
C266 C 0.04358 0.60789 0.8953 0.0
C267 C 0.04016 0.58744 0.91308 0.0
C268 C 0.03558 0.55713 0.90814 0.0
C269 C 0.03427 0.54746 0.88593 0.0
C270 C 0.09575 0.58546 0.84308 0.0
C271 C 0.12195 0.61675 0.83708 0.0
C272 C 0.15361 0.6278 0.84399 0.0
C273 C 0.15945 0.60819 0.85776 0.0
C274 C 0.13252 0.57826 0.86547 0.0
C275 C 0.10124 0.56669 0.85774 0.0
C276 C 0.09118 0.57637 0.79487 0.0
C277 C 0.10224 0.60324 0.78069 0.0
C278 C 0.12966 0.61427 0.76722 0.0
C279 C 0.14658 0.59866 0.76782 0.0
C280 C 0.13549 0.57185 0.7822 0.0
C281 C 0.108 0.5608 0.7956 0.0
C282 C 0.02917 0.53709 0.77391 0.0
C283 C 0.02948 0.55872 0.75845 0.0
C284 C 0.04012 0.56013 0.73651 0.0
C285 C 0.05098 0.54015 0.72975 0.0
C286 C 0.04766 0.51639 0.74475 0.0
C287 C 0.0367 0.51479 0.76662 0.0
C288 C 0.96956 0.50546 0.80115 0.0
C289 C 0.95546 0.51554 0.78556 0.0
C290 C 0.9256 0.49264 0.77554 0.0
C291 C 0.90924 0.45957 0.78141 0.0
C292 C 0.92311 0.44956 0.7972 0.0
C293 C 0.95327 0.47231 0.8068 0.0
C294 C 0.04137 0.59776 0.93665 0.0
C295 C 0.1757 0.61025 0.75353 0.0
H296 H 0.60912 0.00578 0.82651 0.0
H297 H 0.61779 0.85738 0.06181 0.0
H298 H 0.60835 0.06291 0.95572 0.0
H299 H 0.6108 0.10067 0.92797 0.0
H300 H 0.70511 0.1233 0.90624 0.0
H301 H 0.7017 0.08443 0.93359 0.0
H302 H 0.59548 0.01009 0.92349 0.0
H303 H 0.59244 0.00743 0.88258 0.0
H304 H 0.68115 0.00871 0.88048 0.0
H305 H 0.68409 0.01179 0.92145 0.0
H306 H 0.57726 0.94489 0.94529 0.0
H307 H 0.55576 0.88889 0.93323 0.0
H308 H 0.64917 0.90315 0.94682 0.0
H309 H 0.67063 0.95948 0.95872 0.0
H310 H 0.57573 0.93975 0.99752 0.0
H311 H 0.55988 0.89256 0.02124 0.0
H312 H 0.66164 0.92873 0.03105 0.0
H313 H 0.67707 0.97568 0.00718 0.0
H314 H 0.59045 0.00259 0.02096 0.0
H315 H 0.58063 0.98868 0.06058 0.0
H316 H 0.68085 0.01856 0.06864 0.0
H317 H 0.69055 0.03287 0.02869 0.0
H318 H 0.61237 0.05967 0.00776 0.0
H319 H 0.62829 0.11138 0.02577 0.0
H320 H 0.72664 0.15502 0.00143 0.0
H321 H 0.71078 0.10297 0.98403 0.0
O322 O 0.6106 0.00647 0.84266 0.0
O323 O 0.65571 0.00617 0.84249 0.0
O324 O 0.5714 0.85789 0.04638 0.0
O325 O 0.62336 0.87562 0.05218 0.0
C326 C 0.65028 0.0438 0.9606 0.0
C327 C 0.64265 0.0145 0.95015 0.0
C328 C 0.63633 0.98781 0.96333 0.0
C329 C 0.6369 0.99006 0.98687 0.0
C330 C 0.64418 0.01914 0.99736 0.0
C331 C 0.65131 0.04623 0.98423 0.0
C332 C 0.65481 0.07094 0.9466 0.0
C333 C 0.62982 0.07657 0.94526 0.0
C334 C 0.63134 0.09824 0.92939 0.0
C335 C 0.65805 0.11489 0.91468 0.0
C336 C 0.68388 0.11042 0.91696 0.0
C337 C 0.68219 0.08852 0.93272 0.0
C338 C 0.64012 0.01136 0.92538 0.0
C339 C 0.61425 0.00984 0.91415 0.0
C340 C 0.61256 0.00828 0.89078 0.0
C341 C 0.63663 0.00798 0.87824 0.0
C342 C 0.66226 0.00898 0.88963 0.0
C343 C 0.66396 0.01065 0.91301 0.0
C344 C 0.62544 0.9561 0.95278 0.0
C345 C 0.59325 0.93613 0.94518 0.0
C346 C 0.58098 0.90415 0.93854 0.0
C347 C 0.60075 0.89167 0.93939 0.0
C348 C 0.63351 0.91225 0.94596 0.0
C349 C 0.64575 0.94429 0.95273 0.0
C350 C 0.6275 0.96101 0.00069 0.0
C351 C 0.59451 0.93729 0.00474 0.0
C352 C 0.58555 0.91044 0.01831 0.0
C353 C 0.60952 0.90691 0.02809 0.0
C354 C 0.64258 0.93071 0.02382 0.0
C355 C 0.65148 0.95752 0.01019 0.0
C356 C 0.64135 0.01935 0.02207 0.0
C357 C 0.61067 0.00755 0.03148 0.0
C358 C 0.60508 0.99942 0.05412 0.0
C359 C 0.62999 0.0025 0.06774 0.0
C360 C 0.66121 0.01585 0.05851 0.0
C361 C 0.66689 0.02439 0.03582 0.0
C362 C 0.66061 0.07741 0.99504 0.0
C363 C 0.63745 0.08022 0.00665 0.0
C364 C 0.6465 0.10976 0.01677 0.0
C365 C 0.67869 0.13707 0.01499 0.0
C366 C 0.70163 0.13437 0.0029 0.0
C367 C 0.69268 0.1047 0.9931 0.0
C368 C 0.63499 0.00679 0.8534 0.0
C369 C 0.60015 0.87862 0.04273 0.0
H370 H 0.48362 0.45841 0.00678 0.0
H371 H 0.6249 0.48561 0.25978 0.0
H372 H 0.44211 0.49394 0.12481 0.0
H373 H 0.41892 0.50134 0.09084 0.0
H374 H 0.51412 0.58487 0.07309 0.0
H375 H 0.5371 0.57646 0.10657 0.0
H376 H 0.47103 0.45771 0.10422 0.0
H377 H 0.46765 0.44884 0.06367 0.0
H378 H 0.56558 0.53432 0.0565 0.0
H379 H 0.56848 0.543 0.09705 0.0
H380 H 0.51789 0.43539 0.14027 0.0
H381 H 0.55467 0.41688 0.13395 0.0
H382 H 0.63485 0.51702 0.12428 0.0
H383 H 0.59804 0.53509 0.13061 0.0
H384 H 0.5078 0.44324 0.18422 0.0
H385 H 0.53006 0.42803 0.21484 0.0
H386 H 0.61571 0.52663 0.21639 0.0
H387 H 0.59322 0.5414 0.18568 0.0
H388 H 0.48003 0.47581 0.20498 0.0
H389 H 0.4963 0.47642 0.2433 0.0
H390 H 0.57419 0.57832 0.23629 0.0
H391 H 0.5591 0.57628 0.19706 0.0
H392 H 0.45982 0.5232 0.1879 0.0
H393 H 0.4533 0.56559 0.20378 0.0
H394 H 0.52902 0.63707 0.16007 0.0
H395 H 0.53701 0.5955 0.14538 0.0
O396 O 0.48587 0.46169 0.02281 0.0
O397 O 0.53675 0.50506 0.0201 0.0
O398 O 0.57161 0.44025 0.24558 0.0
O399 O 0.61631 0.49049 0.24689 0.0
C400 C 0.50633 0.52503 0.13503 0.0
C401 C 0.52047 0.50806 0.12769 0.0
C402 C 0.53515 0.49851 0.14325 0.0
C403 C 0.53349 0.50355 0.16627 0.0
C404 C 0.51892 0.52007 0.17373 0.0
C405 C 0.50678 0.53237 0.15802 0.0
C406 C 0.49119 0.53481 0.11818 0.0
C407 C 0.45766 0.51442 0.1139 0.0
C408 C 0.44452 0.51862 0.09445 0.0
C409 C 0.4648 0.54336 0.07908 0.0
C410 C 0.49798 0.56514 0.08434 0.0
C411 C 0.51108 0.56076 0.10364 0.0
C412 C 0.52011 0.50075 0.10353 0.0
C413 C 0.49189 0.47417 0.09387 0.0
C414 C 0.48997 0.46929 0.07071 0.0
C415 C 0.51632 0.49093 0.05683 0.0
C416 C 0.54487 0.51718 0.0667 0.0
C417 C 0.5467 0.52205 0.08986 0.0
C418 C 0.55535 0.48649 0.13565 0.0
C419 C 0.54325 0.45313 0.13628 0.0
C420 C 0.5643 0.4427 0.13288 0.0
C421 C 0.59765 0.46554 0.1287 0.0
C422 C 0.60925 0.49882 0.12717 0.0
C423 C 0.58828 0.50918 0.13073 0.0
C424 C 0.54893 0.49337 0.18277 0.0
C425 C 0.53163 0.46132 0.19093 0.0
C426 C 0.5443 0.45279 0.20852 0.0
C427 C 0.57457 0.47621 0.21819 0.0
C428 C 0.59231 0.50804 0.20939 0.0
C429 C 0.57961 0.51651 0.19179 0.0
C430 C 0.51891 0.52569 0.19813 0.0
C431 C 0.49974 0.49866 0.21202 0.0
C432 C 0.50923 0.49914 0.2341 0.0
C433 C 0.53753 0.52712 0.24282 0.0
C434 C 0.55319 0.55589 0.22987 0.0
C435 C 0.54419 0.55506 0.20754 0.0
C436 C 0.4987 0.5561 0.16528 0.0
C437 C 0.47477 0.54792 0.1816 0.0
C438 C 0.47103 0.57203 0.19062 0.0
C439 C 0.49057 0.60437 0.18298 0.0
C440 C 0.5134 0.61218 0.16597 0.0
C441 C 0.51775 0.58836 0.15744 0.0
C442 C 0.51376 0.48639 0.03215 0.0
C443 C 0.58733 0.46775 0.23766 0.0
Co444 Co 0.64971 0.44776 0.40248 0.0
O445 O 0.67772 0.44612 0.38111 0.0
O446 O 0.69065 0.4903 0.40044 0.0
C447 C 0.63567 0.40145 0.42034 0.0
O448 O 0.62626 0.45737 0.4264 0.0
Co449 Co 0.57629 0.39322 0.40105 0.0
O450 O 0.57617 0.41173 0.43049 0.0
C451 C 0.60279 0.44606 0.36792 0.0
C452 C 0.6988 0.47664 0.38551 0.0
C453 C 0.5987 0.44038 0.4367 0.0
O454 O 0.63047 0.46011 0.37795 0.0
O455 O 0.57814 0.41811 0.37372 0.0
O456 O 0.66247 0.42889 0.4254 0.0
O457 O 0.61988 0.40221 0.40325 0.0
Co458 Co 0.24388 0.63234 0.56319 0.0
O459 O 0.27266 0.62622 0.58132 0.0
O460 O 0.23467 0.58912 0.55853 0.0
C461 C 0.28281 0.68166 0.54958 0.0
O462 O 0.21108 0.62968 0.54094 0.0
Co463 Co 0.23309 0.68762 0.57191 0.0
O464 O 0.20914 0.67425 0.54299 0.0
C465 C 0.20088 0.62974 0.60116 0.0
C466 C 0.2585 0.59738 0.57234 0.0
C467 C 0.20097 0.64734 0.53376 0.0
O468 O 0.21093 0.61601 0.58825 0.0
O469 O 0.20922 0.65929 0.59855 0.0
O470 O 0.2778 0.65503 0.54082 0.0
O471 O 0.26616 0.67796 0.56746 0.0
Co472 Co 0.6331 0.24459 0.73893 0.0
O473 O 0.61973 0.26514 0.71818 0.0
O474 O 0.59339 0.23954 0.74926 0.0
C475 C 0.6858 0.28615 0.74068 0.0
O476 O 0.63968 0.22235 0.76514 0.0
Co477 Co 0.68352 0.22797 0.72692 0.0
O478 O 0.68225 0.21795 0.75922 0.0
C479 C 0.61725 0.1889 0.7077 0.0
C480 C 0.59552 0.25628 0.73172 0.0
C481 C 0.66 0.21532 0.77182 0.0
O482 O 0.60781 0.20255 0.72124 0.0
O483 O 0.64702 0.19767 0.70613 0.0
O484 O 0.66409 0.28659 0.75281 0.0
O485 O 0.67484 0.2621 0.72677 0.0
Co486 Co 0.40514 0.61664 0.89313 0.0
O487 O 0.39151 0.63863 0.87415 0.0
O488 O 0.35949 0.59872 0.89788 0.0
C489 C 0.45097 0.66244 0.90503 0.0
O490 O 0.41064 0.5901 0.91659 0.0
Co491 Co 0.46882 0.61997 0.88474 0.0
O492 O 0.46201 0.60273 0.91575 0.0
C493 C 0.41273 0.58142 0.85476 0.0
C494 C 0.36305 0.62016 0.88334 0.0
C495 C 0.43426 0.58943 0.9252 0.0
O496 O 0.39431 0.58346 0.86897 0.0
O497 O 0.44373 0.59687 0.85679 0.0
O498 O 0.42307 0.65255 0.9143 0.0
O499 O 0.45001 0.64573 0.88792 0.0
Co500 Co 0.80048 0.41386 0.07782 0.0
O501 O 0.77246 0.40363 0.10332 0.0
O502 O 0.78595 0.44317 0.07898 0.0
C503 C 0.77595 0.36178 0.06654 0.0
O504 O 0.82662 0.43104 0.04887 0.0
Co505 Co 0.84494 0.38887 0.07121 0.0
O506 O 0.84535 0.40012 0.03928 0.0
C507 C 0.86424 0.44294 0.1031 0.0
C508 C 0.76922 0.4268 0.0965 0.0
C509 C 0.83916 0.42143 0.03453 0.0
O510 O 0.83986 0.44417 0.09687 0.0
O511 O 0.86953 0.42178 0.09562 0.0
O512 O 0.76407 0.37876 0.06094 0.0
O513 O 0.80119 0.37592 0.07951 0.0
Co514 Co 0.4699 0.82938 0.23276 0.0
O515 O 0.46378 0.79543 0.21284 0.0
O516 O 0.49738 0.81471 0.24194 0.0
C517 C 0.4164 0.80849 0.23752 0.0
O518 O 0.48204 0.86246 0.25778 0.0
Co519 Co 0.44618 0.87484 0.22228 0.0
O520 O 0.452 0.88403 0.25491 0.0
C521 C 0.50568 0.88586 0.20019 0.0
C522 C 0.48442 0.79393 0.22551 0.0
C523 C 0.47102 0.87889 0.26577 0.0
O524 O 0.50484 0.86384 0.21249 0.0
O525 O 0.48361 0.89219 0.20078 0.0
O526 O 0.43069 0.79753 0.24923 0.0
O527 O 0.43419 0.83008 0.22256 0.0
H528 H 0.23986 0.70529 0.29342 0.0
H529 H 0.20788 0.74431 0.24205 0.0
H530 H 0.26389 0.77712 0.22717 0.0
H531 H 0.3192 0.77836 0.30283 0.0
H532 H 0.33912 0.75689 0.30641 0.0
H533 H 0.29671 0.73729 0.31364 0.0
H534 H 0.28178 0.68912 0.28707 0.0
H535 H 0.32414 0.7085 0.27984 0.0
H536 H 0.29423 0.6973 0.25813 0.0
H537 H 0.32292 0.80517 0.2176 0.0
H538 H 0.38095 0.82523 0.21304 0.0
H539 H 0.37427 0.76652 0.26975 0.0
C540 C 0.24454 0.72055 0.27894 0.0
C541 C 0.21945 0.72236 0.269 0.0
C542 C 0.22677 0.74295 0.25023 0.0
C543 C 0.25848 0.76156 0.24157 0.0
C544 C 0.28257 0.75923 0.25181 0.0
C545 C 0.276 0.73916 0.27001 0.0
C546 C 0.3062 0.74056 0.27755 0.0
C547 C 0.31587 0.75409 0.30153 0.0
C548 C 0.30129 0.70687 0.27552 0.0
C549 C 0.33071 0.76438 0.26061 0.0
C550 C 0.3166 0.77502 0.24603 0.0
C551 C 0.33426 0.79704 0.2289 0.0
C552 C 0.3672 0.8083 0.22647 0.0
C553 C 0.38206 0.79737 0.24102 0.0
C554 C 0.36355 0.77527 0.25837 0.0
H555 H 0.55792 0.21063 0.43232 0.0
H556 H 0.60642 0.23177 0.49687 0.0
H557 H 0.62683 0.28994 0.49239 0.0
H558 H 0.6189 0.28295 0.40459 0.0
H559 H 0.59043 0.28783 0.38901 0.0
H560 H 0.5793 0.24773 0.39741 0.0
H561 H 0.52802 0.23851 0.41738 0.0
H562 H 0.53907 0.27868 0.40911 0.0
H563 H 0.53256 0.26733 0.43827 0.0
H564 H 0.64361 0.34586 0.48042 0.0
H565 H 0.65586 0.39616 0.46155 0.0
H566 H 0.59413 0.33849 0.40574 0.0
C567 C 0.57252 0.22739 0.44564 0.0
C568 C 0.58072 0.21659 0.46489 0.0
C569 C 0.60032 0.23949 0.48177 0.0
C570 C 0.61176 0.27255 0.47949 0.0
C571 C 0.60318 0.28231 0.46035 0.0
C572 C 0.58395 0.26044 0.44373 0.0
C573 C 0.57872 0.27742 0.42466 0.0
C574 C 0.59268 0.27377 0.40262 0.0
C575 C 0.54243 0.26472 0.42222 0.0
C576 C 0.59834 0.31232 0.43304 0.0
C577 C 0.61221 0.31456 0.45368 0.0
C578 C 0.63265 0.34441 0.46436 0.0
C579 C 0.63948 0.37281 0.45352 0.0
C580 C 0.62575 0.3711 0.4323 0.0
C581 C 0.60453 0.34042 0.42212 0.0
H582 H 0.38072 0.55125 0.61905 0.0
H583 H 0.32915 0.46438 0.57738 0.0
H584 H 0.29186 0.48012 0.56477 0.0
H585 H 0.31124 0.55132 0.63623 0.0
H586 H 0.3315 0.59505 0.63509 0.0
H587 H 0.35464 0.57738 0.64074 0.0
H588 H 0.3927 0.60888 0.60722 0.0
H589 H 0.36991 0.62695 0.60163 0.0
H590 H 0.37527 0.6048 0.57987 0.0
H591 H 0.25929 0.50442 0.55731 0.0
H592 H 0.23595 0.5377 0.55356 0.0
H593 H 0.30923 0.60941 0.5994 0.0
C594 C 0.3619 0.53579 0.60702 0.0
C595 C 0.35777 0.50644 0.59933 0.0
C596 C 0.33251 0.4867 0.58379 0.0
C597 C 0.31125 0.49548 0.57646 0.0
C598 C 0.31559 0.52417 0.58471 0.0
C599 C 0.34045 0.54422 0.59947 0.0
C600 C 0.33979 0.57381 0.60568 0.0
C601 C 0.33394 0.57441 0.63093 0.0
C602 C 0.37129 0.60548 0.59814 0.0
C603 C 0.31066 0.56722 0.59211 0.0
C604 C 0.29697 0.53838 0.58023 0.0
C605 C 0.26984 0.52711 0.56649 0.0
C606 C 0.25668 0.54612 0.56453 0.0
C607 C 0.27071 0.57612 0.57619 0.0
C608 C 0.29786 0.58654 0.59033 0.0
H609 H 0.84933 0.42553 0.80097 0.0
H610 H 0.89943 0.43899 0.73818 0.0
H611 H 0.84741 0.39553 0.72074 0.0
H612 H 0.79406 0.3391 0.79795 0.0
H613 H 0.76004 0.33872 0.80967 0.0
H614 H 0.80108 0.3708 0.8171 0.0
H615 H 0.79007 0.41424 0.80405 0.0
H616 H 0.74892 0.38229 0.7967 0.0
H617 H 0.77523 0.41205 0.77605 0.0
H618 H 0.79083 0.34834 0.71115 0.0
H619 H 0.73221 0.30453 0.70864 0.0
H620 H 0.71824 0.32478 0.77693 0.0
C621 C 0.84911 0.41932 0.78352 0.0
C622 C 0.87802 0.43523 0.77078 0.0
C623 C 0.87725 0.42689 0.74802 0.0
C624 C 0.84796 0.40227 0.73808 0.0
C625 C 0.81977 0.38674 0.75112 0.0
C626 C 0.81999 0.39526 0.77325 0.0
C627 C 0.78622 0.37529 0.78341 0.0
C628 C 0.78531 0.35476 0.8032 0.0
C629 C 0.77442 0.39729 0.79046 0.0
C630 C 0.767 0.35396 0.76362 0.0
C631 C 0.78688 0.36068 0.74525 0.0
C632 C 0.77494 0.34312 0.72533 0.0
C633 C 0.74171 0.31824 0.72409 0.0
C634 C 0.72083 0.31161 0.74252 0.0
C635 C 0.73367 0.32971 0.7625 0.0
H636 H 0.54371 0.84006 0.95546 0.0
H637 H 0.6254 0.86477 0.91251 0.0
H638 H 0.59877 0.80632 0.90268 0.0
H639 H 0.52624 0.76014 0.97478 0.0
H640 H 0.48285 0.74211 0.97457 0.0
H641 H 0.51045 0.78505 0.98038 0.0
H642 H 0.48471 0.79884 0.94805 0.0
H643 H 0.45708 0.75608 0.94221 0.0
H644 H 0.483 0.78336 0.92032 0.0
H645 H 0.55987 0.74633 0.89409 0.0
H646 H 0.51219 0.69028 0.88729 0.0
H647 H 0.45678 0.70558 0.93645 0.0
C648 C 0.55614 0.8331 0.94416 0.0
C649 C 0.58645 0.85676 0.93461 0.0
C650 C 0.6022 0.84685 0.92007 0.0
C651 C 0.58729 0.81377 0.91444 0.0
C652 C 0.55698 0.79108 0.92382 0.0
C653 C 0.54175 0.80035 0.93853 0.0
C654 C 0.50829 0.77183 0.94506 0.0
C655 C 0.50689 0.76434 0.97019 0.0
C656 C 0.48172 0.7779 0.9385 0.0
C657 C 0.50636 0.74523 0.93097 0.0
C658 C 0.53483 0.7566 0.91909 0.0
C659 C 0.53769 0.73701 0.90361 0.0
C660 C 0.5105 0.70525 0.89984 0.0
C661 C 0.4809 0.69364 0.91141 0.0
C662 C 0.47922 0.71365 0.92756 0.0
H663 H 0.64753 0.48594 0.09871 0.0
H664 H 0.60041 0.42231 0.15591 0.0
H665 H 0.64108 0.40758 0.15512 0.0
H666 H 0.66742 0.43488 0.06994 0.0
H667 H 0.70603 0.46864 0.05983 0.0
H668 H 0.67315 0.47396 0.06506 0.0
H669 H 0.71058 0.52233 0.09168 0.0
H670 H 0.74349 0.51691 0.08671 0.0
H671 H 0.73003 0.51618 0.11493 0.0
H672 H 0.68697 0.40005 0.14817 0.0
H673 H 0.73256 0.39724 0.13392 0.0
H674 H 0.75009 0.46655 0.08164 0.0
C675 C 0.64583 0.46897 0.11111 0.0
C676 C 0.62081 0.4552 0.12734 0.0
C677 C 0.61913 0.43279 0.14312 0.0
C678 C 0.64229 0.42453 0.14295 0.0
C679 C 0.66691 0.43891 0.1269 0.0
C680 C 0.66869 0.46046 0.11116 0.0
C681 C 0.69713 0.47194 0.0954 0.0
C682 C 0.68521 0.46173 0.07112 0.0
C683 C 0.72176 0.50904 0.0973 0.0
C684 C 0.71104 0.4534 0.10467 0.0
C685 C 0.69337 0.43463 0.12292 0.0
C686 C 0.70106 0.41471 0.13394 0.0
C687 C 0.72704 0.41335 0.12576 0.0
C688 C 0.74493 0.43177 0.10674 0.0
C689 C 0.7371 0.45245 0.09636 0.0
H690 H 0.39224 0.87673 0.54235 0.0
H691 H 0.44027 0.8662 0.48511 0.0
H692 H 0.40489 0.80628 0.48871 0.0
H693 H 0.38217 0.80932 0.57412 0.0
H694 H 0.34272 0.797 0.58493 0.0
H695 H 0.37197 0.83914 0.57795 0.0
H696 H 0.32979 0.83848 0.5515 0.0
H697 H 0.30045 0.7963 0.55833 0.0
H698 H 0.31131 0.80834 0.52951 0.0
H699 H 0.36396 0.74785 0.49794 0.0
H700 H 0.32143 0.69423 0.5132 0.0
H701 H 0.29956 0.74216 0.56459 0.0
C702 C 0.39522 0.86179 0.53054 0.0
C703 C 0.41911 0.87614 0.51348 0.0
C704 C 0.42248 0.85577 0.4985 0.0
C705 C 0.40235 0.82171 0.5003 0.0
C706 C 0.37898 0.80838 0.51721 0.0
C707 C 0.37538 0.82771 0.53215 0.0
C708 C 0.34851 0.80709 0.54891 0.0
C709 C 0.36217 0.81352 0.5729 0.0
C710 C 0.32088 0.81291 0.54693 0.0
C711 C 0.33753 0.77314 0.54102 0.0
C712 C 0.35539 0.77452 0.52266 0.0
C713 C 0.34984 0.74643 0.51233 0.0
C714 C 0.32558 0.71609 0.52112 0.0
C715 C 0.30721 0.71402 0.5401 0.0
C716 C 0.3132 0.74298 0.55007 0.0
H717 H 0.52568 0.34772 0.66771 0.0
H718 H 0.47748 0.34357 0.72961 0.0
H719 H 0.49564 0.31025 0.74689 0.0
H720 H 0.51079 0.26619 0.67024 0.0
H721 H 0.5505 0.2795 0.6594 0.0
H722 H 0.53128 0.30045 0.65137 0.0
H723 H 0.58181 0.35523 0.66524 0.0
H724 H 0.6012 0.3345 0.67322 0.0
H725 H 0.59591 0.35837 0.69359 0.0
H726 H 0.51996 0.27841 0.75747 0.0
H727 H 0.55302 0.2549 0.76196 0.0
H728 H 0.58794 0.28263 0.69371 0.0
C729 C 0.51865 0.33935 0.6848 0.0
C730 C 0.49998 0.34773 0.69737 0.0
C731 C 0.49173 0.33715 0.71981 0.0
C732 C 0.50177 0.31815 0.72967 0.0
C733 C 0.5203 0.31032 0.71686 0.0
C734 C 0.52896 0.32087 0.69499 0.0
C735 C 0.5511 0.31128 0.68546 0.0
C736 C 0.53494 0.28796 0.66543 0.0
C737 C 0.58448 0.34165 0.67901 0.0
C738 C 0.5538 0.29394 0.70544 0.0
C739 C 0.53542 0.29317 0.72326 0.0
C740 C 0.5344 0.27881 0.74363 0.0
C741 C 0.55317 0.26544 0.746 0.0
C742 C 0.57303 0.26699 0.7282 0.0
C743 C 0.57296 0.28107 0.7076 0.0
H744 H 0.18052 0.567 0.86375 0.0
H745 H 0.21578 0.67005 0.86224 0.0
H746 H 0.27197 0.68419 0.86716 0.0
H747 H 0.23462 0.57537 0.9084 0.0
H748 H 0.23911 0.54403 0.89698 0.0
H749 H 0.20196 0.5423 0.89238 0.0
H750 H 0.20878 0.53969 0.84953 0.0
H751 H 0.24616 0.54183 0.85394 0.0
H752 H 0.24584 0.57132 0.83618 0.0
H753 H 0.32472 0.68679 0.87004 0.0
H754 H 0.36913 0.6778 0.87577 0.0
H755 H 0.29793 0.57351 0.88037 0.0
C756 C 0.19967 0.59264 0.865 0.0
C757 C 0.1933 0.61733 0.8625 0.0
C758 C 0.21977 0.65052 0.8636 0.0
C759 C 0.25184 0.65885 0.86655 0.0
C760 C 0.257 0.63377 0.86881 0.0
C761 C 0.23154 0.60137 0.86854 0.0
C762 C 0.2433 0.57897 0.87215 0.0
C763 C 0.2289 0.559 0.89377 0.0
C764 C 0.23556 0.55664 0.85173 0.0
C765 C 0.27951 0.60386 0.87437 0.0
C766 C 0.28701 0.63532 0.87199 0.0
C767 C 0.3191 0.66231 0.87224 0.0
C768 C 0.34409 0.65698 0.87536 0.0
C769 C 0.33669 0.62502 0.87865 0.0
C770 C 0.30405 0.59819 0.87815 0.0
H771 H 0.71289 0.19858 0.99702 0.0
H772 H 0.66704 0.14533 0.05828 0.0
H773 H 0.68582 0.19729 0.0778 0.0
H774 H 0.78348 0.26661 0.02207 0.0
H775 H 0.78537 0.29644 0.0034 0.0
H776 H 0.76748 0.25504 0.99402 0.0
H777 H 0.71414 0.25105 0.98375 0.0
H778 H 0.73192 0.29249 0.99304 0.0
H779 H 0.69378 0.26007 0.00474 0.0
H780 H 0.71292 0.25472 0.09128 0.0
H781 H 0.74328 0.31448 0.09725 0.0
H782 H 0.76901 0.33062 0.02689 0.0
C783 C 0.70676 0.19796 0.01453 0.0
C784 C 0.68859 0.16808 0.02623 0.0
C785 C 0.68073 0.16802 0.04904 0.0
C786 C 0.69138 0.19736 0.06025 0.0
C787 C 0.7095 0.22643 0.04831 0.0
C788 C 0.71683 0.22699 0.02589 0.0
C789 C 0.7367 0.26161 0.01699 0.0
C790 C 0.77024 0.27043 0.00863 0.0
C791 C 0.71801 0.26659 0.99854 0.0
C792 C 0.73981 0.28045 0.03801 0.0
C793 C 0.72409 0.25963 0.0559 0.0
C794 C 0.72493 0.27124 0.07736 0.0
C795 C 0.74222 0.30506 0.08061 0.0
C796 C 0.75794 0.32663 0.06246 0.0
C797 C 0.75666 0.31431 0.04089 0.0
H798 H 0.47719 0.64594 0.16322 0.0
H799 H 0.50187 0.62231 0.22679 0.0
H800 H 0.50536 0.66995 0.24433 0.0
H801 H 0.52838 0.73262 0.16773 0.0
H802 H 0.49946 0.73984 0.15531 0.0
H803 H 0.49891 0.70399 0.14774 0.0
H804 H 0.4381 0.6671 0.1592 0.0
H805 H 0.43834 0.70285 0.16652 0.0
H806 H 0.42591 0.67099 0.18688 0.0
H807 H 0.50946 0.72197 0.25415 0.0
H808 H 0.50603 0.77022 0.25722 0.0
H809 H 0.47489 0.75771 0.18784 0.0
C810 C 0.48303 0.65075 0.18087 0.0
C811 C 0.48924 0.63068 0.19377 0.0
C812 C 0.49677 0.63741 0.2168 0.0
C813 C 0.49904 0.66448 0.2268 0.0
C814 C 0.49326 0.68416 0.21356 0.0
C815 C 0.48476 0.67727 0.19121 0.0
C816 C 0.47866 0.70164 0.18093 0.0
C817 C 0.5028 0.72064 0.1618 0.0
C818 C 0.44314 0.68463 0.17292 0.0
C819 C 0.48528 0.72346 0.20094 0.0
C820 C 0.49416 0.71326 0.2195 0.0
C821 C 0.50227 0.73004 0.2398 0.0
C822 C 0.50047 0.75753 0.24133 0.0
C823 C 0.49013 0.76758 0.22278 0.0
C824 C 0.48276 0.75047 0.2023 0.0
H825 H 0.89256 0.57725 0.37506 0.0
H826 H 0.87651 0.53229 0.30958 0.0
H827 H 0.81763 0.50905 0.31286 0.0
H828 H 0.82216 0.51088 0.40043 0.0
H829 H 0.81319 0.53542 0.41739 0.0
H830 H 0.85454 0.55126 0.40911 0.0
H831 H 0.85865 0.60163 0.39152 0.0
H832 H 0.81717 0.58581 0.39966 0.0
H833 H 0.82922 0.59575 0.37076 0.0
H834 H 0.76112 0.48757 0.32386 0.0
H835 H 0.70869 0.46618 0.3429 0.0
H836 H 0.75958 0.52466 0.40157 0.0
C837 C 0.8766 0.56287 0.36134 0.0
C838 C 0.88896 0.55644 0.34207 0.0
C839 C 0.86742 0.53717 0.32456 0.0
C840 C 0.83403 0.52415 0.32618 0.0
C841 C 0.82253 0.53067 0.34542 0.0
C842 C 0.843 0.54942 0.36276 0.0
C843 C 0.82373 0.55054 0.38224 0.0
C844 C 0.8287 0.53616 0.40355 0.0
C845 C 0.83274 0.58552 0.38628 0.0
C846 C 0.78922 0.52883 0.37329 0.0
C847 C 0.78932 0.51807 0.35188 0.0
C848 C 0.76067 0.49611 0.34049 0.0
C849 C 0.73104 0.48407 0.35146 0.0
C850 C 0.7302 0.49403 0.37357 0.0
C851 C 0.75962 0.5173 0.38446 0.0
H852 H 0.08169 0.64883 0.44329 0.0
H853 H 0.08092 0.56966 0.40971 0.0
H854 H 0.1133 0.56811 0.44026 0.0
H855 H 0.16472 0.69054 0.45917 0.0
H856 H 0.15943 0.70481 0.48563 0.0
H857 H 0.13236 0.6972 0.46266 0.0
H858 H 0.08254 0.65747 0.48732 0.0
H859 H 0.10941 0.66511 0.51047 0.0
H860 H 0.08101 0.62389 0.50095 0.0
H861 H 0.14855 0.57686 0.47313 0.0
H862 H 0.18495 0.59609 0.50598 0.0
H863 H 0.16665 0.67222 0.51697 0.0
C864 C 0.08801 0.63093 0.44234 0.0
C865 C 0.07787 0.60892 0.42407 0.0
C866 C 0.08703 0.58604 0.42375 0.0
C867 C 0.10589 0.58518 0.44096 0.0
C868 C 0.11588 0.60757 0.45838 0.0
C869 C 0.10737 0.63008 0.45921 0.0
C870 C 0.12333 0.65297 0.47902 0.0
C871 C 0.14632 0.68848 0.47114 0.0
C872 C 0.09753 0.64964 0.49541 0.0
C873 C 0.14222 0.63982 0.48907 0.0
C874 C 0.13735 0.61347 0.47699 0.0
C875 C 0.15247 0.59741 0.48281 0.0
C876 C 0.17314 0.60855 0.50152 0.0
C877 C 0.17876 0.6357 0.51413 0.0
C878 C 0.16297 0.65145 0.50772 0.0
H879 H 0.56203 0.07597 0.59995 0.0
H880 H 0.46139 0.03867 0.61677 0.0
H881 H 0.47985 0.07084 0.6519 0.0
H882 H 0.58956 0.07662 0.65762 0.0
H883 H 0.62888 0.11349 0.65256 0.0
H884 H 0.60712 0.08528 0.62995 0.0
H885 H 0.61084 0.13193 0.60664 0.0
H886 H 0.63261 0.16005 0.62923 0.0
H887 H 0.59577 0.15495 0.61857 0.0
H888 H 0.51052 0.11191 0.68346 0.0
H889 H 0.55011 0.15518 0.70941 0.0
H890 H 0.62964 0.16269 0.67182 0.0
C891 C 0.54361 0.07344 0.61133 0.0
C892 C 0.51016 0.05442 0.60562 0.0
C893 C 0.48716 0.05309 0.62071 0.0
C894 C 0.49741 0.0712 0.64075 0.0
C895 C 0.5307 0.09027 0.64553 0.0
C896 C 0.55335 0.09108 0.63134 0.0
C897 C 0.58778 0.11455 0.63959 0.0
C898 C 0.6043 0.09639 0.64527 0.0
C899 C 0.60792 0.14198 0.62248 0.0
C900 C 0.58111 0.12742 0.66045 0.0
C901 C 0.5481 0.1132 0.6637 0.0
C902 C 0.5364 0.12281 0.68125 0.0
C903 C 0.55907 0.1475 0.69586 0.0
C904 C 0.59302 0.16221 0.69282 0.0
C905 C 0.60391 0.15171 0.6749 0.0
H906 H 0.40225 0.54139 0.72593 0.0
H907 H 0.35017 0.43916 0.74505 0.0
H908 H 0.34321 0.45366 0.78303 0.0
H909 H 0.45015 0.568 0.77256 0.0
H910 H 0.45268 0.60591 0.77548 0.0
H911 H 0.44576 0.58724 0.74837 0.0
H912 H 0.39316 0.58699 0.74374 0.0
H913 H 0.40006 0.60597 0.77086 0.0
H914 H 0.3619 0.56819 0.7649 0.0
H915 H 0.34827 0.47981 0.82044 0.0
H916 H 0.3685 0.51565 0.85402 0.0
H917 H 0.42398 0.6004 0.8114 0.0
C918 C 0.38892 0.52183 0.7379 0.0
C919 C 0.37666 0.48903 0.73216 0.0
C920 C 0.3591 0.4644 0.74855 0.0
C921 C 0.35517 0.47242 0.77036 0.0
C922 C 0.36913 0.50518 0.77567 0.0
C923 C 0.38576 0.52951 0.75988 0.0
C924 C 0.403 0.56306 0.77048 0.0
C925 C 0.44008 0.58214 0.76649 0.0
C926 C 0.38866 0.58218 0.76199 0.0
C927 C 0.39463 0.5538 0.79483 0.0
C928 C 0.37414 0.52036 0.79744 0.0
C929 C 0.36404 0.50604 0.81857 0.0
C930 C 0.3756 0.52644 0.83749 0.0
C931 C 0.39769 0.5605 0.83504 0.0
C932 C 0.40699 0.57433 0.81352 0.0
H933 H 0.89416 0.43956 0.90714 0.0
H934 H 0.9225 0.54045 0.91115 0.0
H935 H 0.89664 0.52953 0.94815 0.0
H936 H 0.81785 0.40173 0.93945 0.0
H937 H 0.82545 0.374 0.95342 0.0
H938 H 0.84064 0.38786 0.92546 0.0
H939 H 0.89912 0.40861 0.93895 0.0
H940 H 0.88419 0.395 0.96692 0.0
H941 H 0.91646 0.43699 0.96203 0.0
H942 H 0.87199 0.50919 0.98628 0.0
H943 H 0.85308 0.48178 0.02299 0.0
H944 H 0.84639 0.39629 0.99563 0.0
C945 C 0.89484 0.45945 0.91559 0.0
C946 C 0.91032 0.49088 0.90583 0.0
C947 C 0.91012 0.51588 0.9177 0.0
C948 C 0.89567 0.51001 0.93892 0.0
C949 C 0.88171 0.4791 0.94827 0.0
C950 C 0.88128 0.45426 0.937 0.0
C951 C 0.86796 0.42433 0.95166 0.0
C952 C 0.83608 0.39526 0.94192 0.0
C953 C 0.89346 0.41575 0.95509 0.0
C954 C 0.86178 0.43654 0.97313 0.0
C955 C 0.86917 0.46792 0.97068 0.0
C956 C 0.86596 0.48455 0.98836 0.0
C957 C 0.85521 0.46879 0.00914 0.0
C958 C 0.84846 0.437 0.01219 0.0
C959 C 0.85157 0.42067 0.99384 0.0
H960 H 0.59352 0.00873 0.09941 0.0
H961 H 0.64705 0.96348 0.08727 0.0
H962 H 0.62621 0.93308 0.12285 0.0
H963 H 0.6009 0.01274 0.16186 0.0
H964 H 0.56009 0.00329 0.16511 0.0
H965 H 0.58384 0.02555 0.14087 0.0
H966 H 0.53764 0.9823 0.11503 0.0
H967 H 0.51391 0.95982 0.1391 0.0
H968 H 0.52353 0.93993 0.11811 0.0
H969 H 0.59324 0.90196 0.15718 0.0
H970 H 0.55203 0.87386 0.18712 0.0
H971 H 0.51996 0.9394 0.17596 0.0
C972 C 0.60148 0.99303 0.10452 0.0
C973 C 0.62211 0.98868 0.0907 0.0
C974 C 0.63181 0.96771 0.09784 0.0
C975 C 0.61995 0.95021 0.11798 0.0
C976 C 0.59872 0.95423 0.13086 0.0
C977 C 0.58989 0.97545 0.12449 0.0
C978 C 0.56453 0.97331 0.14007 0.0
C979 C 0.57816 0.00564 0.15273 0.0
C980 C 0.53305 0.96322 0.12731 0.0
C981 C 0.55939 0.94661 0.15566 0.0
C982 C 0.57963 0.9362 0.15038 0.0
C983 C 0.57766 0.9103 0.16169 0.0
C984 C 0.55414 0.89445 0.17867 0.0
C985 C 0.5327 0.90436 0.18394 0.0
C986 C 0.53595 0.93118 0.17246 0.0
H987 H 0.50851 0.48792 0.28016 0.0
H988 H 0.6032 0.55857 0.25112 0.0
H989 H 0.62986 0.54789 0.28131 0.0
H990 H 0.533 0.50061 0.33929 0.0
H991 H 0.50747 0.45764 0.34558 0.0
H992 H 0.49587 0.47463 0.32374 0.0
H993 H 0.49242 0.43251 0.29565 0.0
H994 H 0.50445 0.41566 0.31727 0.0
H995 H 0.52748 0.43023 0.2916 0.0
H996 H 0.64648 0.52643 0.31259 0.0
H997 H 0.65169 0.49609 0.34334 0.0
H998 H 0.54626 0.43592 0.35012 0.0
C999 C 0.53487 0.50151 0.28019 0.0
C1000 C 0.55353 0.52448 0.26319 0.0
C1001 C 0.58808 0.54166 0.26417 0.0
C1002 C 0.60359 0.53549 0.28118 0.0
C1003 C 0.58436 0.51181 0.29704 0.0
C1004 C 0.55077 0.49513 0.29675 0.0
C1005 C 0.53568 0.46896 0.31465 0.0
C1006 C 0.5169 0.47589 0.33183 0.0
C1007 C 0.51372 0.43482 0.30416 0.0
C1008 C 0.56607 0.47336 0.32486 0.0
C1009 C 0.59389 0.49842 0.31458 0.0
C1010 C 0.62489 0.50689 0.32089 0.0
C1011 C 0.62757 0.48947 0.33836 0.0
C1012 C 0.59938 0.4636 0.34914 0.0
C1013 C 0.56825 0.45543 0.34215 0.0
H1014 H 0.45739 0.91434 0.39417 0.0
H1015 H 0.55649 0.99944 0.38854 0.0
H1016 H 0.55971 0.98324 0.3501 0.0
H1017 H 0.4691 0.85917 0.35995 0.0
H1018 H 0.42935 0.83983 0.34723 0.0
H1019 H 0.43587 0.85613 0.37522 0.0
H1020 H 0.41413 0.89151 0.36318 0.0
H1021 H 0.40762 0.87539 0.33518 0.0
H1022 H 0.43266 0.91889 0.33973 0.0
H1023 H 0.55177 0.95928 0.31179 0.0
H1024 H 0.53182 0.93022 0.27547 0.0
H1025 H 0.43693 0.86311 0.30486 0.0
C1026 C 0.47985 0.92945 0.38492 0.0
C1027 C 0.50686 0.95788 0.3946 0.0
C1028 C 0.53577 0.97702 0.38182 0.0
C1029 C 0.53779 0.96816 0.35988 0.0
C1030 C 0.51069 0.94015 0.35084 0.0
C1031 C 0.48223 0.92108 0.3629 0.0
C1032 C 0.45607 0.89316 0.34879 0.0
C1033 C 0.44707 0.86012 0.35837 0.0
C1034 C 0.42584 0.89487 0.34659 0.0
C1035 C 0.47392 0.90021 0.3267 0.0
C1036 C 0.50565 0.92702 0.3284 0.0
C1037 C 0.52702 0.93822 0.31025 0.0
C1038 C 0.51558 0.92167 0.28977 0.0
C1039 C 0.48301 0.89474 0.28762 0.0
C1040 C 0.46194 0.8838 0.30626 0.0
H1041 H 0.4909 0.43385 0.53805 0.0
H1042 H 0.55108 0.53966 0.54096 0.0
H1043 H 0.5848 0.54029 0.50982 0.0
H1044 H 0.55437 0.42201 0.52695 0.0
H1045 H 0.53001 0.38778 0.5085 0.0
H1046 H 0.51075 0.39635 0.53056 0.0
H1047 H 0.47317 0.39912 0.50129 0.0
H1048 H 0.49235 0.39042 0.47926 0.0
H1049 H 0.49124 0.42649 0.4778 0.0
H1050 H 0.61292 0.52835 0.47862 0.0
H1051 H 0.62995 0.50526 0.44896 0.0
H1052 H 0.55007 0.40774 0.46735 0.0
C1053 C 0.51062 0.45727 0.53182 0.0
C1054 C 0.51808 0.48673 0.54178 0.0
C1055 C 0.54489 0.51676 0.53357 0.0
C1056 C 0.56417 0.51735 0.51591 0.0
C1057 C 0.55632 0.4877 0.50671 0.0
C1058 C 0.52997 0.45828 0.51432 0.0
C1059 C 0.52659 0.42972 0.50195 0.0
C1060 C 0.53067 0.40766 0.51795 0.0
C1061 C 0.49391 0.41031 0.48932 0.0
C1062 C 0.55505 0.44756 0.48601 0.0
C1063 C 0.57217 0.48097 0.48902 0.0
C1064 C 0.59958 0.5022 0.47611 0.0
C1065 C 0.60921 0.48889 0.4594 0.0
C1066 C 0.5913 0.45471 0.45574 0.0
C1067 C 0.56422 0.43399 0.46955 0.0
H1068 H 0.09522 0.5996 0.71095 0.0
H1069 H 0.04876 0.49549 0.70041 0.0
H1070 H 0.08286 0.50701 0.66679 0.0
H1071 H 0.10032 0.62095 0.65213 0.0
H1072 H 0.13914 0.65908 0.65554 0.0
H1073 H 0.11079 0.6423 0.67854 0.0
H1074 H 0.15516 0.64454 0.70351 0.0
H1075 H 0.18354 0.6611 0.68053 0.0
H1076 H 0.17472 0.62439 0.69425 0.0
H1077 H 0.12383 0.5303 0.63505 0.0
H1078 H 0.16532 0.56314 0.60624 0.0
H1079 H 0.18288 0.65178 0.63694 0.0
C1080 C 0.09156 0.57911 0.70134 0.0
C1081 C 0.06908 0.54657 0.70832 0.0
C1082 C 0.06593 0.52061 0.69553 0.0
C1083 C 0.08514 0.52691 0.67637 0.0
C1084 C 0.10729 0.5593 0.67015 0.0
C1085 C 0.1103 0.58493 0.68214 0.0
C1086 C 0.13588 0.61751 0.672 0.0
C1087 C 0.12061 0.63604 0.66408 0.0
C1088 C 0.16399 0.63809 0.68857 0.0
C1089 C 0.14688 0.60626 0.65241 0.0
C1090 C 0.13029 0.57261 0.65171 0.0
C1091 C 0.13681 0.55665 0.63536 0.0
C1092 C 0.16055 0.57556 0.61912 0.0
C1093 C 0.17735 0.61008 0.61922 0.0
C1094 C 0.1704 0.62546 0.63624 0.0
H1095 H 0.67985 0.11974 0.87156 0.0
H1096 H 0.63529 0.15516 0.91551 0.0
H1097 H 0.63104 0.1848 0.88377 0.0
H1098 H 0.72822 0.19494 0.83942 0.0
H1099 H 0.723 0.17347 0.8136 0.0
H1100 H 0.72289 0.15554 0.83994 0.0
H1101 H 0.6664 0.10376 0.83028 0.0
H1102 H 0.6662 0.12161 0.804 0.0
H1103 H 0.63301 0.10775 0.82344 0.0
H1104 H 0.6289 0.20805 0.84668 0.0
H1105 H 0.63257 0.22637 0.80762 0.0
H1106 H 0.68157 0.17842 0.78865 0.0
C1107 C 0.66985 0.13428 0.87473 0.0
C1108 C 0.65787 0.13501 0.89612 0.0
C1109 C 0.64423 0.15378 0.89925 0.0
C1110 C 0.64186 0.17087 0.88134 0.0
C1111 C 0.65354 0.16922 0.86045 0.0
C1112 C 0.66761 0.15172 0.85714 0.0
C1113 C 0.67811 0.15371 0.83302 0.0
C1114 C 0.71526 0.17042 0.83141 0.0
C1115 C 0.65983 0.11969 0.82205 0.0
C1116 C 0.66753 0.17489 0.82322 0.0
C1117 C 0.65321 0.18341 0.83928 0.0
C1118 C 0.64036 0.20181 0.83401 0.0
C1119 C 0.64242 0.21196 0.81177 0.0
C1120 C 0.6575 0.20397 0.79513 0.0
C1121 C 0.67024 0.18524 0.80104 0.0
H1122 H 0.49509 0.55531 0.03847 0.0
H1123 H 0.40587 0.53512 0.06951 0.0
H1124 H 0.38565 0.53878 0.03242 0.0
H1125 H 0.50457 0.61561 0.00144 0.0
H1126 H 0.52071 0.60412 0.97888 0.0
H1127 H 0.52633 0.59653 0.00743 0.0
H1128 H 0.49938 0.5352 0.99815 0.0
H1129 H 0.49348 0.54258 0.96954 0.0
H1130 H 0.45918 0.51234 0.98593 0.0
H1131 H 0.37694 0.54827 0.99231 0.0
H1132 H 0.38137 0.56555 0.953 0.0
H1133 H 0.47726 0.58113 0.94873 0.0
C1134 C 0.47133 0.55178 0.03754 0.0
C1135 C 0.45212 0.54512 0.05693 0.0
C1136 C 0.4209 0.54 0.05486 0.0
C1137 C 0.40923 0.54204 0.03388 0.0
C1138 C 0.42902 0.54903 0.01516 0.0
C1139 C 0.45943 0.55387 0.01684 0.0
C1140 C 0.4768 0.56299 0.9945 0.0
C1141 C 0.50899 0.59682 0.99564 0.0
C1142 C 0.48254 0.5367 0.98656 0.0
C1143 C 0.4518 0.56349 0.98004 0.0
C1144 C 0.42419 0.55483 0.99217 0.0
C1145 C 0.39833 0.55483 0.98261 0.0
C1146 C 0.40109 0.56467 0.96022 0.0
C1147 C 0.42968 0.57473 0.94769 0.0
C1148 C 0.455 0.57344 0.95773 0.0
H1149 H 0.91357 0.54175 0.21863 0.0
H1150 H 0.00675 0.55212 0.21205 0.0
H1151 H 0.99152 0.52814 0.17418 0.0
H1152 H 0.86684 0.46481 0.19283 0.0
H1153 H 0.8392 0.47223 0.17855 0.0
H1154 H 0.85865 0.4937 0.20411 0.0
H1155 H 0.88174 0.54894 0.18391 0.0
H1156 H 0.86232 0.52758 0.15824 0.0
H1157 H 0.90561 0.55779 0.1588 0.0
H1158 H 0.96485 0.49842 0.13924 0.0
H1159 H 0.92803 0.46445 0.10861 0.0
H1160 H 0.85153 0.47302 0.1367 0.0
C1161 C 0.93084 0.53943 0.20896 0.0
C1162 C 0.96125 0.54859 0.21816 0.0
C1163 C 0.98323 0.54493 0.20527 0.0
C1164 C 0.97489 0.53155 0.18373 0.0
C1165 C 0.94448 0.52202 0.17526 0.0
C1166 C 0.92276 0.52583 0.18735 0.0
C1167 C 0.89079 0.51137 0.17477 0.0
C1168 C 0.86219 0.48389 0.18837 0.0
C1169 C 0.88477 0.53802 0.16856 0.0
C1170 C 0.8977 0.49808 0.15409 0.0
C1171 C 0.92897 0.50485 0.15469 0.0
C1172 C 0.94047 0.49335 0.13836 0.0
C1173 C 0.91932 0.47396 0.12108 0.0
C1174 C 0.88701 0.46628 0.12018 0.0
C1175 C 0.8763 0.47904 0.13672 0.0
loop_
_geom_bond_atom_site_label_1
_geom_bond_atom_site_label_2
_geom_bond_distance
_geom_bond_site_symmetry_2
_ccdc_geom_bond_type
H0 O26 0.856 . S
H1 O29 0.854 . S
H2 C37 0.930 . S
H3 C38 0.930 . S
H4 C40 0.930 . S
H5 C41 0.930 . S
H6 C43 0.931 . S
H7 C44 0.930 . S
H8 C46 0.930 . S
H9 C47 0.929 . S
H10 C49 0.930 . S
H11 C50 0.931 . S
H12 C52 0.930 . S
H13 C53 0.929 . S
H14 C55 0.931 . S
H15 C56 0.930 . S
H16 C58 0.930 . S
H17 C59 0.932 . S
H18 C61 0.930 . S
H19 C62 0.929 . S
H20 C64 0.931 . S
H21 C65 0.930 . S
H22 C67 0.929 . S
H23 C68 0.931 . S
H24 C70 0.930 . S
H25 C71 0.929 1_455 S
O26 H0 0.856 . S
O26 C72 1.300 . S
O27 C72 1.209 . S
O28 C73 1.199 . S
O29 H1 0.854 . S
O29 C73 1.297 . S
C30 C31 1.404 . S
C30 C35 1.397 . S
C30 C36 1.492 . S
C31 C30 1.404 . S
C31 C32 1.396 . S
C31 C42 1.492 . S
C32 C31 1.396 . S
C32 C33 1.397 . S
C32 C48 1.509 . S
C33 C32 1.397 . S
C33 C34 1.412 . S
C33 C54 1.485 . S
C34 C33 1.412 . S
C34 C35 1.388 . S
C34 C60 1.490 . S
C35 C30 1.397 . S
C35 C34 1.388 . S
C35 C66 1.519 . S
C36 C30 1.492 . S
C36 C37 1.363 . S
C36 C41 1.390 1_455 S
C37 H2 0.930 . S
C37 C36 1.363 . S
C37 C38 1.372 1_455 S
C38 H3 0.930 . S
C38 C37 1.372 1_655 S
C38 C39 1.383 . S
C39 C38 1.383 . S
C39 C40 1.395 . S
C40 H4 0.930 . S
C40 C39 1.395 . S
C40 C41 1.362 . S
C41 H5 0.930 . S
C41 C36 1.390 1_655 S
C41 C40 1.362 . S
C42 C31 1.492 . S
C42 C43 1.377 . S
C42 C47 1.397 . S
C43 H6 0.931 . S
C43 C42 1.377 . S
C43 C44 1.376 . S
C44 H7 0.930 . S
C44 C43 1.376 . S
C44 C45 1.376 . S
C45 C44 1.376 . S
C45 C46 1.378 . S
C45 C72 1.486 . S
C46 H8 0.930 . S
C46 C45 1.378 . S
C46 C47 1.376 . S
C47 H9 0.929 . S
C47 C42 1.397 . S
C47 C46 1.376 . S
C48 C32 1.509 . S
C48 C49 1.391 . S
C48 C53 1.386 . S
C49 H10 0.930 . S
C49 C48 1.391 . S
C49 C50 1.375 . S
C50 H11 0.931 . S
C50 C49 1.375 . S
C50 C51 1.375 . S
C51 C50 1.375 . S
C51 C52 1.361 . S
C52 H12 0.930 . S
C52 C51 1.361 . S
C52 C53 1.399 . S
C53 H13 0.929 . S
C53 C48 1.386 . S
C53 C52 1.399 . S
C54 C33 1.485 . S
C54 C55 1.394 . S
C54 C59 1.360 . S
C55 H14 0.931 . S
C55 C54 1.394 . S
C55 C56 1.372 . S
C56 H15 0.930 . S
C56 C55 1.372 . S
C56 C57 1.397 . S
C57 C56 1.397 . S
C57 C58 1.390 . S
C57 C73 1.476 . S
C58 H16 0.930 . S
C58 C57 1.390 . S
C58 C59 1.366 . S
C59 H17 0.932 . S
C59 C54 1.360 . S
C59 C58 1.366 . S
C60 C34 1.490 . S
C60 C61 1.380 . S
C60 C65 1.386 . S
C61 H18 0.930 . S
C61 C60 1.380 . S
C61 C62 1.381 . S
C62 H19 0.929 . S
C62 C61 1.381 . S
C62 C63 1.371 . S
C63 C62 1.371 . S
C63 C64 1.380 . S
C64 H20 0.931 . S
C64 C63 1.380 . S
C64 C65 1.387 . S
C65 H21 0.930 . S
C65 C60 1.386 . S
C65 C64 1.387 . S
C66 C35 1.519 . S
C66 C67 1.377 1_455 S
C66 C71 1.361 1_455 S
C67 H22 0.929 . S
C67 C66 1.377 1_655 S
C67 C68 1.386 . S
C68 H23 0.931 . S
C68 C67 1.386 . S
C68 C69 1.363 . S
C69 C68 1.363 . S
C69 C70 1.385 . S
C70 H24 0.930 . S
C70 C69 1.385 . S
C70 C71 1.396 . S
C71 H25 0.929 1_655 S
C71 C66 1.361 1_655 S
C71 C70 1.396 . S
C72 O26 1.300 . S
C72 O27 1.209 . S
C72 C45 1.486 . S
C73 O28 1.199 . S
C73 O29 1.297 . S
C73 C57 1.476 . S
H74 O100 0.856 . S
H75 O103 0.854 . S
H76 C111 0.930 . S
H77 C112 0.930 . S
H78 C114 0.930 . S
H79 C115 0.930 . S
H80 C117 0.931 . S
H81 C118 0.930 . S
H82 C120 0.930 . S
H83 C121 0.929 . S
H84 C123 0.930 . S
H85 C124 0.931 . S
H86 C126 0.930 . S
H87 C127 0.929 . S
H88 C129 0.931 . S
H89 C130 0.930 . S
H90 C132 0.930 . S
H91 C133 0.932 . S
H92 C135 0.930 . S
H93 C136 0.929 . S
H94 C138 0.931 . S
H95 C139 0.930 . S
H96 C141 0.929 . S
H97 C142 0.931 . S
H98 C144 0.930 . S
H99 C145 0.929 . S
O100 H74 0.856 . S
O100 C146 1.300 . S
O101 C146 1.209 . S
O102 C147 1.199 . S
O103 H75 0.854 . S
O103 C147 1.297 . S
C104 C105 1.404 . S
C104 C109 1.397 . S
C104 C110 1.492 . S
C105 C104 1.404 . S
C105 C106 1.396 . S
C105 C116 1.492 . S
C106 C105 1.396 . S
C106 C107 1.397 . S
C106 C122 1.509 . S
C107 C106 1.397 . S
C107 C108 1.412 . S
C107 C128 1.485 . S
C108 C107 1.412 . S
C108 C109 1.388 . S
C108 C134 1.490 . S
C109 C104 1.397 . S
C109 C108 1.388 . S
C109 C140 1.519 . S
C110 C104 1.492 . S
C110 C111 1.363 . S
C110 C115 1.390 . S
C111 H76 0.930 . S
C111 C110 1.363 . S
C111 C112 1.372 . S
C112 H77 0.930 . S
C112 C111 1.372 . S
C112 C113 1.383 1_545 S
C113 C112 1.383 1_565 S
C113 C114 1.395 . S
C114 H78 0.930 . S
C114 C113 1.395 . S
C114 C115 1.362 1_565 S
C115 H79 0.930 . S
C115 C110 1.390 . S
C115 C114 1.362 1_545 S
C116 C105 1.492 . S
C116 C117 1.377 . S
C116 C121 1.397 . S
C117 H80 0.931 . S
C117 C116 1.377 . S
C117 C118 1.376 . S
C118 H81 0.930 . S
C118 C117 1.376 . S
C118 C119 1.376 . S
C119 C118 1.376 . S
C119 C120 1.378 . S
C119 C146 1.486 . S
C120 H82 0.930 . S
C120 C119 1.378 . S
C120 C121 1.376 . S
C121 H83 0.929 . S
C121 C116 1.397 . S
C121 C120 1.376 . S
C122 C106 1.509 . S
C122 C123 1.391 . S
C122 C127 1.386 . S
C123 H84 0.930 . S
C123 C122 1.391 . S
C123 C124 1.375 . S
C124 H85 0.931 . S
C124 C123 1.375 . S
C124 C125 1.375 . S
C125 C124 1.375 . S
C125 C126 1.361 . S
C126 H86 0.930 . S
C126 C125 1.361 . S
C126 C127 1.399 . S
C127 H87 0.929 . S
C127 C122 1.386 . S
C127 C126 1.399 . S
C128 C107 1.485 . S
C128 C129 1.394 . S
C128 C133 1.360 . S
C129 H88 0.931 . S
C129 C128 1.394 . S
C129 C130 1.372 . S
C130 H89 0.930 . S
C130 C129 1.372 . S
C130 C131 1.397 . S
C131 C130 1.397 . S
C131 C132 1.390 . S
C131 C147 1.476 . S
C132 H90 0.930 . S
C132 C131 1.390 . S
C132 C133 1.366 . S
C133 H91 0.932 . S
C133 C128 1.360 . S
C133 C132 1.366 . S
C134 C108 1.490 . S
C134 C135 1.380 . S
C134 C139 1.386 . S
C135 H92 0.930 . S
C135 C134 1.380 . S
C135 C136 1.381 . S
C136 H93 0.929 . S
C136 C135 1.381 . S
C136 C137 1.371 . S
C137 C136 1.371 . S
C137 C138 1.380 . S
C138 H94 0.931 . S
C138 C137 1.380 . S
C138 C139 1.387 . S
C139 H95 0.930 . S
C139 C134 1.386 . S
C139 C138 1.387 . S
C140 C109 1.519 . S
C140 C141 1.377 . S
C140 C145 1.361 . S
C141 H96 0.929 . S
C141 C140 1.377 . S
C141 C142 1.386 1_545 S
C142 H97 0.931 . S
C142 C141 1.386 1_565 S
C142 C143 1.363 . S
C143 C142 1.363 . S
C143 C144 1.385 . S
C144 H98 0.930 . S
C144 C143 1.385 . S
C144 C145 1.396 1_565 S
C145 H99 0.929 . S
C145 C140 1.361 . S
C145 C144 1.396 1_545 S
C146 O100 1.300 . S
C146 O101 1.209 . S
C146 C119 1.486 . S
C147 O102 1.199 . S
C147 O103 1.297 . S
C147 C131 1.476 . S
H148 O174 0.856 . S
H149 O177 0.854 . S
H150 C185 0.930 . S
H151 C186 0.930 . S
H152 C188 0.930 . S
H153 C189 0.930 . S
H154 C191 0.931 . S
H155 C192 0.930 . S
H156 C194 0.930 . S
H157 C195 0.929 . S
H158 C197 0.930 . S
H159 C198 0.931 . S
H160 C200 0.930 . S
H161 C201 0.929 . S
H162 C203 0.931 . S
H163 C204 0.930 . S
H164 C206 0.930 . S
H165 C207 0.932 . S
H166 C209 0.930 . S
H167 C210 0.929 . S
H168 C212 0.931 . S
H169 C213 0.930 . S
H170 C215 0.929 . S
H171 C216 0.931 . S
H172 C218 0.930 . S
H173 C219 0.929 . S
O174 H148 0.856 . S
O174 C220 1.300 . S
O175 C220 1.209 . S
O176 C221 1.199 . S
O177 H149 0.854 . S
O177 C221 1.297 . S
C178 C179 1.404 . S
C178 C183 1.397 . S
C178 C184 1.492 . S
C179 C178 1.404 . S
C179 C180 1.396 . S
C179 C190 1.492 . S
C180 C179 1.396 . S
C180 C181 1.397 . S
C180 C196 1.509 . S
C181 C180 1.397 . S
C181 C182 1.412 . S
C181 C202 1.485 . S
C182 C181 1.412 . S
C182 C183 1.388 . S
C182 C208 1.490 . S
C183 C178 1.397 . S
C183 C182 1.388 . S
C183 C214 1.519 . S
C184 C178 1.492 . S
C184 C185 1.363 . S
C184 C189 1.390 . S
C185 H150 0.930 . S
C185 C184 1.363 . S
C185 C186 1.372 . S
C186 H151 0.930 . S
C186 C185 1.372 . S
C186 C187 1.383 . S
C187 C186 1.383 . S
C187 C188 1.395 . S
C188 H152 0.930 . S
C188 C187 1.395 . S
C188 C189 1.362 . S
C189 H153 0.930 . S
C189 C184 1.390 . S
C189 C188 1.362 . S
C190 C179 1.492 . S
C190 C191 1.377 . S
C190 C195 1.397 . S
C191 H154 0.931 . S
C191 C190 1.377 . S
C191 C192 1.376 . S
C192 H155 0.930 . S
C192 C191 1.376 . S
C192 C193 1.376 . S
C193 C192 1.376 . S
C193 C194 1.378 . S
C193 C220 1.486 . S
C194 H156 0.930 . S
C194 C193 1.378 . S
C194 C195 1.376 . S
C195 H157 0.929 . S
C195 C190 1.397 . S
C195 C194 1.376 . S
C196 C180 1.509 . S
C196 C197 1.391 . S
C196 C201 1.386 . S
C197 H158 0.930 . S
C197 C196 1.391 . S
C197 C198 1.375 . S
C198 H159 0.931 . S
C198 C197 1.375 . S
C198 C199 1.375 . S
C199 C198 1.375 . S
C199 C200 1.361 . S
C200 H160 0.930 . S
C200 C199 1.361 . S
C200 C201 1.399 . S
C201 H161 0.929 . S
C201 C196 1.386 . S
C201 C200 1.399 . S
C202 C181 1.485 . S
C202 C203 1.394 . S
C202 C207 1.360 . S
C203 H162 0.931 . S
C203 C202 1.394 . S
C203 C204 1.372 . S
C204 H163 0.930 . S
C204 C203 1.372 . S
C204 C205 1.397 . S
C205 C204 1.397 . S
C205 C206 1.390 . S
C205 C221 1.476 . S
C206 H164 0.930 . S
C206 C205 1.390 . S
C206 C207 1.366 . S
C207 H165 0.932 . S
C207 C202 1.360 . S
C207 C206 1.366 . S
C208 C182 1.490 . S
C208 C209 1.380 . S
C208 C213 1.386 . S
C209 H166 0.930 . S
C209 C208 1.380 . S
C209 C210 1.381 . S
C210 H167 0.929 . S
C210 C209 1.381 . S
C210 C211 1.371 . S
C211 C210 1.371 . S
C211 C212 1.380 . S
C212 H168 0.931 . S
C212 C211 1.380 . S
C212 C213 1.387 . S
C213 H169 0.930 . S
C213 C208 1.386 . S
C213 C212 1.387 . S
C214 C183 1.519 . S
C214 C215 1.377 . S
C214 C219 1.361 . S
C215 H170 0.929 . S
C215 C214 1.377 . S
C215 C216 1.386 . S
C216 H171 0.931 . S
C216 C215 1.386 . S
C216 C217 1.363 . S
C217 C216 1.363 . S
C217 C218 1.385 . S
C218 H172 0.930 . S
C218 C217 1.385 . S
C218 C219 1.396 . S
C219 H173 0.929 . S
C219 C214 1.361 . S
C219 C218 1.396 . S
C220 O174 1.300 . S
C220 O175 1.209 . S
C220 C193 1.486 . S
C221 O176 1.199 . S
C221 O177 1.297 . S
C221 C205 1.476 . S
H222 O248 0.856 . S
H223 O251 0.854 . S
H224 C259 0.930 1_455 S
H225 C260 0.930 . S
H226 C262 0.930 . S
H227 C263 0.930 . S
H228 C265 0.931 . S
H229 C266 0.930 . S
H230 C268 0.930 . S
H231 C269 0.929 . S
H232 C271 0.930 . S
H233 C272 0.931 . S
H234 C274 0.930 . S
H235 C275 0.929 . S
H236 C277 0.931 . S
H237 C278 0.930 . S
H238 C280 0.930 . S
H239 C281 0.932 . S
H240 C283 0.930 . S
H241 C284 0.929 . S
H242 C286 0.931 . S
H243 C287 0.930 . S
H244 C289 0.929 . S
H245 C290 0.931 . S
H246 C292 0.930 . S
H247 C293 0.929 . S
O248 H222 0.856 . S
O248 C294 1.300 . S
O249 C294 1.209 . S
O250 C295 1.199 . S
O251 H223 0.854 . S
O251 C295 1.297 . S
C252 C253 1.404 . S
C252 C257 1.397 . S
C252 C258 1.492 1_455 S
C253 C252 1.404 . S
C253 C254 1.396 . S
C253 C264 1.492 . S
C254 C253 1.396 . S
C254 C255 1.397 . S
C254 C270 1.509 . S
C255 C254 1.397 . S
C255 C256 1.412 . S
C255 C276 1.485 . S
C256 C255 1.412 . S
C256 C257 1.388 . S
C256 C282 1.490 . S
C257 C252 1.397 . S
C257 C256 1.388 . S
C257 C288 1.519 1_455 S
C258 C252 1.492 1_655 S
C258 C259 1.363 . S
C258 C263 1.390 . S
C259 H224 0.930 1_655 S
C259 C258 1.363 . S
C259 C260 1.372 . S
C260 H225 0.930 . S
C260 C259 1.372 . S
C260 C261 1.383 . S
C261 C260 1.383 . S
C261 C262 1.395 . S
C262 H226 0.930 . S
C262 C261 1.395 . S
C262 C263 1.362 . S
C263 H227 0.930 . S
C263 C258 1.390 . S
C263 C262 1.362 . S
C264 C253 1.492 . S
C264 C265 1.377 . S
C264 C269 1.397 . S
C265 H228 0.931 . S
C265 C264 1.377 . S
C265 C266 1.376 . S
C266 H229 0.930 . S
C266 C265 1.376 . S
C266 C267 1.376 . S
C267 C266 1.376 . S
C267 C268 1.378 . S
C267 C294 1.486 . S
C268 H230 0.930 . S
C268 C267 1.378 . S
C268 C269 1.376 . S
C269 H231 0.929 . S
C269 C264 1.397 . S
C269 C268 1.376 . S
C270 C254 1.509 . S
C270 C271 1.391 . S
C270 C275 1.386 . S
C271 H232 0.930 . S
C271 C270 1.391 . S
C271 C272 1.375 . S
C272 H233 0.931 . S
C272 C271 1.375 . S
C272 C273 1.375 . S
C273 C272 1.375 . S
C273 C274 1.361 . S
C274 H234 0.930 . S
C274 C273 1.361 . S
C274 C275 1.399 . S
C275 H235 0.929 . S
C275 C270 1.386 . S
C275 C274 1.399 . S
C276 C255 1.485 . S
C276 C277 1.394 . S
C276 C281 1.360 . S
C277 H236 0.931 . S
C277 C276 1.394 . S
C277 C278 1.372 . S
C278 H237 0.930 . S
C278 C277 1.372 . S
C278 C279 1.397 . S
C279 C278 1.397 . S
C279 C280 1.390 . S
C279 C295 1.476 . S
C280 H238 0.930 . S
C280 C279 1.390 . S
C280 C281 1.366 . S
C281 H239 0.932 . S
C281 C276 1.360 . S
C281 C280 1.366 . S
C282 C256 1.490 . S
C282 C283 1.380 . S
C282 C287 1.386 . S
C283 H240 0.930 . S
C283 C282 1.380 . S
C283 C284 1.381 . S
C284 H241 0.929 . S
C284 C283 1.381 . S
C284 C285 1.371 . S
C285 C284 1.371 . S
C285 C286 1.380 . S
C286 H242 0.931 . S
C286 C285 1.380 . S
C286 C287 1.387 . S
C287 H243 0.930 . S
C287 C282 1.386 . S
C287 C286 1.387 . S
C288 C257 1.519 1_655 S
C288 C289 1.377 . S
C288 C293 1.361 . S
C289 H244 0.929 . S
C289 C288 1.377 . S
C289 C290 1.386 . S
C290 H245 0.931 . S
C290 C289 1.386 . S
C290 C291 1.363 . S
C291 C290 1.363 . S
C291 C292 1.385 . S
C292 H246 0.930 . S
C292 C291 1.385 . S
C292 C293 1.396 . S
C293 H247 0.929 . S
C293 C288 1.361 . S
C293 C292 1.396 . S
C294 O248 1.300 . S
C294 O249 1.209 . S
C294 C267 1.486 . S
C295 O250 1.199 . S
C295 O251 1.297 . S
C295 C279 1.476 . S
H296 O322 0.856 . S
H297 O325 0.854 . S
H298 C333 0.930 . S
H299 C334 0.930 . S
H300 C336 0.930 . S
H301 C337 0.930 . S
H302 C339 0.931 . S
H303 C340 0.930 . S
H304 C342 0.930 1_545 S
H305 C343 0.929 1_545 S
H306 C345 0.930 . S
H307 C346 0.931 . S
H308 C348 0.930 . S
H309 C349 0.929 . S
H310 C351 0.931 . S
H311 C352 0.930 . S
H312 C354 0.930 . S
H313 C355 0.957 . S
H314 C357 0.930 . S
H315 C358 0.929 . S
H316 C360 0.931 . S
H317 C361 0.930 . S
H318 C363 0.929 . S
H319 C364 0.931 . S
H320 C366 0.930 . S
H321 C367 0.929 . S
O322 H296 0.856 . S
O322 C368 1.300 . S
O323 C368 1.209 . S
O324 C369 1.199 . S
O325 H297 0.854 . S
O325 C369 1.297 . S
C326 C327 1.404 1_545 S
C326 C331 1.397 . S
C326 C332 1.492 . S
C327 C326 1.404 1_565 S
C327 C328 1.396 . S
C327 C338 1.492 . S
C328 C327 1.396 . S
C328 C329 1.397 . S
C328 C344 1.509 . S
C329 C328 1.397 . S
C329 C330 1.412 1_556 S
C329 C350 1.485 1_556 S
C330 C329 1.412 1_554 S
C330 C331 1.388 1_564 S
C330 C356 1.490 . S
C331 C326 1.397 . S
C331 C330 1.388 1_546 S
C331 C362 1.519 . S
C332 C326 1.492 . S
C332 C333 1.363 . S
C332 C337 1.390 . S
C333 H298 0.930 . S
C333 C332 1.363 . S
C333 C334 1.372 . S
C334 H299 0.930 . S
C334 C333 1.372 . S
C334 C335 1.383 . S
C335 C334 1.383 . S
C335 C336 1.395 . S
C336 H300 0.930 . S
C336 C335 1.395 . S
C336 C337 1.362 . S
C337 H301 0.930 . S
C337 C332 1.390 . S
C337 C336 1.362 . S
C338 C327 1.492 . S
C338 C339 1.377 . S
C338 C343 1.397 . S
C339 H302 0.931 . S
C339 C338 1.377 . S
C339 C340 1.376 . S
C340 H303 0.930 . S
C340 C339 1.376 . S
C340 C341 1.376 . S
C341 C340 1.376 . S
C341 C342 1.378 . S
C341 C368 1.486 . S
C342 H304 0.930 1_565 S
C342 C341 1.378 . S
C342 C343 1.376 . S
C343 H305 0.929 1_565 S
C343 C338 1.397 . S
C343 C342 1.376 . S
C344 C328 1.509 . S
C344 C345 1.391 . S
C344 C349 1.386 . S
C345 H306 0.930 . S
C345 C344 1.391 . S
C345 C346 1.375 . S
C346 H307 0.931 . S
C346 C345 1.375 . S
C346 C347 1.375 . S
C347 C346 1.375 . S
C347 C348 1.361 . S
C348 H308 0.930 . S
C348 C347 1.361 . S
C348 C349 1.399 . S
C349 H309 0.929 . S
C349 C344 1.386 . S
C349 C348 1.399 . S
C350 C329 1.485 1_554 S
C350 C351 1.394 . S
C350 C355 1.360 . S
C351 H310 0.931 . S
C351 C350 1.394 . S
C351 C352 1.372 . S
C352 H311 0.930 . S
C352 C351 1.372 . S
C352 C353 1.397 . S
C353 C352 1.397 . S
C353 C354 1.390 . S
C353 C369 1.476 . S
C354 H312 0.930 . S
C354 C353 1.390 . S
C354 C355 1.366 . S
C355 H313 0.957 . S
C355 C350 1.360 . S
C355 C354 1.366 . S
C356 C330 1.490 . S
C356 C357 1.380 1_565 S
C356 C361 1.386 . S
C357 H314 0.930 . S
C357 C356 1.380 1_545 S
C357 C358 1.381 . S
C358 H315 0.929 . S
C358 C357 1.381 . S
C358 C359 1.371 . S
C359 C358 1.371 . S
C359 C360 1.380 1_545 S
C360 H316 0.931 . S
C360 C359 1.380 1_565 S
C360 C361 1.387 . S
C361 H317 0.930 . S
C361 C356 1.386 . S
C361 C360 1.387 . S
C362 C331 1.519 . S
C362 C363 1.377 . S
C362 C367 1.361 1_556 S
C363 H318 0.929 . S
C363 C362 1.377 . S
C363 C364 1.386 1_556 S
C364 H319 0.931 . S
C364 C363 1.386 1_554 S
C364 C365 1.363 . S
C365 C364 1.363 . S
C365 C366 1.385 . S
C366 H320 0.930 . S
C366 C365 1.385 . S
C366 C367 1.396 . S
C367 H321 0.929 . S
C367 C362 1.361 1_554 S
C367 C366 1.396 . S
C368 O322 1.300 . S
C368 O323 1.209 . S
C368 C341 1.486 . S
C369 O324 1.199 . S
C369 O325 1.297 . S
C369 C353 1.476 . S
H370 O396 0.856 . S
H371 O399 0.854 . S
H372 C407 0.930 . S
H373 C408 0.930 . S
H374 C410 0.930 . S
H375 C411 0.930 . S
H376 C413 0.931 . S
H377 C414 0.930 . S
H378 C416 0.930 . S
H379 C417 0.929 . S
H380 C419 0.930 . S
H381 C420 0.931 . S
H382 C422 0.930 . S
H383 C423 0.929 . S
H384 C425 0.931 . S
H385 C426 0.930 . S
H386 C428 0.930 . S
H387 C429 0.932 . S
H388 C431 0.930 . S
H389 C432 0.929 . S
H390 C434 0.931 . S
H391 C435 0.930 . S
H392 C437 0.929 . S
H393 C438 0.931 . S
H394 C440 0.930 . S
H395 C441 0.929 . S
O396 H370 0.856 . S
O396 C442 1.300 . S
O397 C442 1.209 . S
O398 C443 1.199 . S
O399 H371 0.854 . S
O399 C443 1.297 . S
C400 C401 1.404 . S
C400 C405 1.397 . S
C400 C406 1.492 . S
C401 C400 1.404 . S
C401 C402 1.396 . S
C401 C412 1.492 . S
C402 C401 1.396 . S
C402 C403 1.397 . S
C402 C418 1.509 . S
C403 C402 1.397 . S
C403 C404 1.412 . S
C403 C424 1.485 . S
C404 C403 1.412 . S
C404 C405 1.388 . S
C404 C430 1.490 . S
C405 C400 1.397 . S
C405 C404 1.388 . S
C405 C436 1.519 . S
C406 C400 1.492 . S
C406 C407 1.363 . S
C406 C411 1.390 . S
C407 H372 0.930 . S
C407 C406 1.363 . S
C407 C408 1.372 . S
C408 H373 0.930 . S
C408 C407 1.372 . S
C408 C409 1.383 . S
C409 C408 1.383 . S
C409 C410 1.395 . S
C410 H374 0.930 . S
C410 C409 1.395 . S
C410 C411 1.362 . S
C411 H375 0.930 . S
C411 C406 1.390 . S
C411 C410 1.362 . S
C412 C401 1.492 . S
C412 C413 1.377 . S
C412 C417 1.397 . S
C413 H376 0.931 . S
C413 C412 1.377 . S
C413 C414 1.376 . S
C414 H377 0.930 . S
C414 C413 1.376 . S
C414 C415 1.376 . S
C415 C414 1.376 . S
C415 C416 1.378 . S
C415 C442 1.486 . S
C416 H378 0.930 . S
C416 C415 1.378 . S
C416 C417 1.376 . S
C417 H379 0.929 . S
C417 C412 1.397 . S
C417 C416 1.376 . S
C418 C402 1.509 . S
C418 C419 1.391 . S
C418 C423 1.386 . S
C419 H380 0.930 . S
C419 C418 1.391 . S
C419 C420 1.375 . S
C420 H381 0.931 . S
C420 C419 1.375 . S
C420 C421 1.375 . S
C421 C420 1.375 . S
C421 C422 1.361 . S
C422 H382 0.930 . S
C422 C421 1.361 . S
C422 C423 1.399 . S
C423 H383 0.929 . S
C423 C418 1.386 . S
C423 C422 1.399 . S
C424 C403 1.485 . S
C424 C425 1.394 . S
C424 C429 1.360 . S
C425 H384 0.931 . S
C425 C424 1.394 . S
C425 C426 1.372 . S
C426 H385 0.930 . S
C426 C425 1.372 . S
C426 C427 1.397 . S
C427 C426 1.397 . S
C427 C428 1.390 . S
C427 C443 1.476 . S
C428 H386 0.930 . S
C428 C427 1.390 . S
C428 C429 1.366 . S
C429 H387 0.932 . S
C429 C424 1.360 . S
C429 C428 1.366 . S
C430 C404 1.490 . S
C430 C431 1.380 . S
C430 C435 1.386 . S
C431 H388 0.930 . S
C431 C430 1.380 . S
C431 C432 1.381 . S
C432 H389 0.929 . S
C432 C431 1.381 . S
C432 C433 1.371 . S
C433 C432 1.371 . S
C433 C434 1.380 . S
C434 H390 0.931 . S
C434 C433 1.380 . S
C434 C435 1.387 . S
C435 H391 0.930 . S
C435 C430 1.386 . S
C435 C434 1.387 . S
C436 C405 1.519 . S
C436 C437 1.377 . S
C436 C441 1.361 . S
C437 H392 0.929 . S
C437 C436 1.377 . S
C437 C438 1.386 . S
C438 H393 0.931 . S
C438 C437 1.386 . S
C438 C439 1.363 . S
C439 C438 1.363 . S
C439 C440 1.385 . S
C440 H394 0.930 . S
C440 C439 1.385 . S
C440 C441 1.396 . S
C441 H395 0.929 . S
C441 C436 1.361 . S
C441 C440 1.396 . S
C442 O396 1.300 . S
C442 O397 1.209 . S
C442 C415 1.486 . S
C443 O398 1.199 . S
C443 O399 1.297 . S
C443 C427 1.476 . S
Co444 O445 2.216 . S
Co444 O446 2.091 . S
Co444 O448 2.004 . S
Co444 O454 2.021 . S
Co444 O456 2.137 . S
Co444 O457 2.244 . S
O445 Co444 2.216 . S
O445 C452 1.247 . S
O446 Co444 2.091 . S
O446 C452 1.261 . S
C447 O456 1.247 . S
C447 O457 1.272 . S
O448 Co444 2.004 . S
O448 C453 1.259 . S
Co449 O450 2.061 . S
Co449 O455 2.052 . S
Co449 O457 2.135 . S
O450 Co449 2.061 . S
O450 C453 1.235 . S
C451 O454 1.238 . S
C451 O455 1.241 . S
C452 O445 1.247 . S
C452 O446 1.261 . S
C453 O448 1.259 . S
C453 O450 1.235 . S
O454 Co444 2.021 . S
O454 C451 1.238 . S
O455 Co449 2.052 . S
O455 C451 1.241 . S
O456 Co444 2.137 . S
O456 C447 1.247 . S
O457 Co444 2.244 . S
O457 C447 1.272 . S
O457 Co449 2.135 . S
Co458 O459 2.216 . S
Co458 O460 2.091 . S
Co458 O462 2.004 . S
Co458 O468 2.021 . S
Co458 O470 2.137 . S
Co458 O471 2.244 . S
O459 Co458 2.216 . S
O459 C466 1.247 . S
O460 Co458 2.091 . S
O460 C466 1.261 . S
C461 O470 1.247 . S
C461 O471 1.272 . S
O462 Co458 2.004 . S
O462 C467 1.259 . S
Co463 O464 2.061 . S
Co463 O469 2.052 . S
Co463 O471 2.135 . S
O464 Co463 2.061 . S
O464 C467 1.235 . S
C465 O468 1.238 . S
C465 O469 1.241 . S
C466 O459 1.247 . S
C466 O460 1.261 . S
C467 O462 1.259 . S
C467 O464 1.235 . S
O468 Co458 2.021 . S
O468 C465 1.238 . S
O469 Co463 2.052 . S
O469 C465 1.241 . S
O470 Co458 2.137 . S
O470 C461 1.247 . S
O471 Co458 2.244 . S
O471 C461 1.272 . S
O471 Co463 2.135 . S
Co472 O473 2.216 . S
Co472 O474 2.091 . S
Co472 O476 2.004 . S
Co472 O482 2.021 . S
Co472 O484 2.137 . S
Co472 O485 2.244 . S
O473 Co472 2.216 . S
O473 C480 1.247 . S
O474 Co472 2.091 . S
O474 C480 1.261 . S
C475 O484 1.247 . S
C475 O485 1.272 . S
O476 Co472 2.004 . S
O476 C481 1.259 . S
Co477 O478 2.061 . S
Co477 O483 2.052 . S
Co477 O485 2.135 . S
O478 Co477 2.061 . S
O478 C481 1.235 . S
C479 O482 1.238 . S
C479 O483 1.241 . S
C480 O473 1.247 . S
C480 O474 1.261 . S
C481 O476 1.259 . S
C481 O478 1.235 . S
O482 Co472 2.021 . S
O482 C479 1.238 . S
O483 Co477 2.052 . S
O483 C479 1.241 . S
O484 Co472 2.137 . S
O484 C475 1.247 . S
O485 Co472 2.244 . S
O485 C475 1.272 . S
O485 Co477 2.135 . S
Co486 O487 2.216 . S
Co486 O488 2.091 . S
Co486 O490 2.004 . S
Co486 O496 2.021 . S
Co486 O498 2.137 . S
Co486 O499 2.244 . S
O487 Co486 2.216 . S
O487 C494 1.247 . S
O488 Co486 2.091 . S
O488 C494 1.261 . S
C489 O498 1.247 . S
C489 O499 1.272 . S
O490 Co486 2.004 . S
O490 C495 1.259 . S
Co491 O492 2.061 . S
Co491 O497 2.052 . S
Co491 O499 2.135 . S
O492 Co491 2.061 . S
O492 C495 1.235 . S
C493 O496 1.238 . S
C493 O497 1.241 . S
C494 O487 1.247 . S
C494 O488 1.261 . S
C495 O490 1.259 . S
C495 O492 1.235 . S
O496 Co486 2.021 . S
O496 C493 1.238 . S
O497 Co491 2.052 . S
O497 C493 1.241 . S
O498 Co486 2.137 . S
O498 C489 1.247 . S
O499 Co486 2.244 . S
O499 C489 1.272 . S
O499 Co491 2.135 . S
Co500 O501 2.216 . S
Co500 O502 2.091 . S
Co500 O504 2.004 . S
Co500 O510 2.021 . S
Co500 O512 2.137 . S
Co500 O513 2.244 . S
O501 Co500 2.216 . S
O501 C508 1.247 . S
O502 Co500 2.091 . S
O502 C508 1.261 . S
C503 O512 1.247 . S
C503 O513 1.272 . S
O504 Co500 2.004 . S
O504 C509 1.259 . S
Co505 O506 2.061 . S
Co505 O511 2.052 . S
Co505 O513 2.135 . S
O506 Co505 2.061 . S
O506 C509 1.235 . S
C507 O510 1.238 . S
C507 O511 1.241 . S
C508 O501 1.247 . S
C508 O502 1.261 . S
C509 O504 1.259 . S
C509 O506 1.235 . S
O510 Co500 2.021 . S
O510 C507 1.238 . S
O511 Co505 2.052 . S
O511 C507 1.241 . S
O512 Co500 2.137 . S
O512 C503 1.247 . S
O513 Co500 2.244 . S
O513 C503 1.272 . S
O513 Co505 2.135 . S
Co514 O515 2.216 . S
Co514 O516 2.091 . S
Co514 O518 2.004 . S
Co514 O524 2.021 . S
Co514 O526 2.137 . S
Co514 O527 2.244 . S
O515 Co514 2.216 . S
O515 C522 1.247 . S
O516 Co514 2.091 . S
O516 C522 1.261 . S
C517 O526 1.247 . S
C517 O527 1.272 . S
O518 Co514 2.004 . S
O518 C523 1.259 . S
Co519 O520 2.061 . S
Co519 O525 2.052 . S
Co519 O527 2.135 . S
O520 Co519 2.061 . S
O520 C523 1.235 . S
C521 O524 1.238 . S
C521 O525 1.241 . S
C522 O515 1.247 . S
C522 O516 1.261 . S
C523 O518 1.259 . S
C523 O520 1.235 . S
O524 Co514 2.021 . S
O524 C521 1.238 . S
O525 Co519 2.052 . S
O525 C521 1.241 . S
O526 Co514 2.137 . S
O526 C517 1.247 . S
O527 Co514 2.244 . S
O527 C517 1.272 . S
O527 Co519 2.135 . S
H528 C540 0.930 . S
H529 C542 0.930 . S
H530 C543 0.930 . S
H531 C547 0.959 . S
H532 C547 0.959 . S
H533 C547 0.961 . S
H534 C548 0.960 . S
H535 C548 0.961 . S
H536 C548 0.959 . S
H537 C551 0.929 . S
H538 C552 0.931 . S
H539 C554 0.930 . S
C540 H528 0.930 . S
C540 C541 1.399 . S
C540 C545 1.399 . S
C541 C540 1.399 . S
C541 C542 1.376 . S
C542 H529 0.930 . S
C542 C541 1.376 . S
C542 C543 1.388 . S
C543 H530 0.930 . S
C543 C542 1.388 . S
C543 C544 1.390 . S
C544 C543 1.390 . S
C544 C545 1.394 . S
C544 C550 1.465 . S
C545 C540 1.399 . S
C545 C544 1.394 . S
C545 C546 1.516 . S
C546 C545 1.516 . S
C546 C547 1.502 . S
C546 C548 1.561 . S
C546 C549 1.526 . S
C547 H531 0.959 . S
C547 H532 0.959 . S
C547 H533 0.961 . S
C547 C546 1.502 . S
C548 H534 0.960 . S
C548 H535 0.961 . S
C548 H536 0.959 . S
C548 C546 1.561 . S
C549 C546 1.526 . S
C549 C550 1.396 . S
C549 C554 1.390 . S
C550 C544 1.465 . S
C550 C549 1.396 . S
C550 C551 1.399 . S
C551 H537 0.929 . S
C551 C550 1.399 . S
C551 C552 1.385 . S
C552 H538 0.931 . S
C552 C551 1.385 . S
C552 C553 1.389 . S
C553 C552 1.389 . S
C553 C554 1.387 . S
C554 H539 0.930 . S
C554 C549 1.390 . S
C554 C553 1.387 . S
H555 C567 0.930 . S
H556 C569 0.930 . S
H557 C570 0.930 . S
H558 C574 0.959 . S
H559 C574 0.959 . S
H560 C574 0.961 . S
H561 C575 0.960 . S
H562 C575 0.961 . S
H563 C575 0.959 . S
H564 C578 0.929 . S
H565 C579 0.931 . S
H566 C581 0.930 . S
C567 H555 0.930 . S
C567 C568 1.399 . S
C567 C572 1.399 . S
C568 C567 1.399 . S
C568 C569 1.376 . S
C569 H556 0.930 . S
C569 C568 1.376 . S
C569 C570 1.388 . S
C570 H557 0.930 . S
C570 C569 1.388 . S
C570 C571 1.390 . S
C571 C570 1.390 . S
C571 C572 1.394 . S
C571 C577 1.465 . S
C572 C567 1.399 . S
C572 C571 1.394 . S
C572 C573 1.516 . S
C573 C572 1.516 . S
C573 C574 1.502 . S
C573 C575 1.561 . S
C573 C576 1.526 . S
C574 H558 0.959 . S
C574 H559 0.959 . S
C574 H560 0.961 . S
C574 C573 1.502 . S
C575 H561 0.960 . S
C575 H562 0.961 . S
C575 H563 0.959 . S
C575 C573 1.561 . S
C576 C573 1.526 . S
C576 C577 1.396 . S
C576 C581 1.390 . S
C577 C571 1.465 . S
C577 C576 1.396 . S
C577 C578 1.399 . S
C578 H564 0.929 . S
C578 C577 1.399 . S
C578 C579 1.385 . S
C579 H565 0.931 . S
C579 C578 1.385 . S
C579 C580 1.389 . S
C580 C579 1.389 . S
C580 C581 1.387 . S
C581 H566 0.930 . S
C581 C576 1.390 . S
C581 C580 1.387 . S
H582 C594 0.930 . S
H583 C596 0.930 . S
H584 C597 0.930 . S
H585 C601 0.959 . S
H586 C601 0.959 . S
H587 C601 0.961 . S
H588 C602 0.960 . S
H589 C602 0.961 . S
H590 C602 0.959 . S
H591 C605 0.929 . S
H592 C606 0.931 . S
H593 C608 0.930 . S
C594 H582 0.930 . S
C594 C595 1.399 . S
C594 C599 1.399 . S
C595 C594 1.399 . S
C595 C596 1.376 . S
C596 H583 0.930 . S
C596 C595 1.376 . S
C596 C597 1.388 . S
C597 H584 0.930 . S
C597 C596 1.388 . S
C597 C598 1.390 . S
C598 C597 1.390 . S
C598 C599 1.394 . S
C598 C604 1.465 . S
C599 C594 1.399 . S
C599 C598 1.394 . S
C599 C600 1.516 . S
C600 C599 1.516 . S
C600 C601 1.502 . S
C600 C602 1.561 . S
C600 C603 1.526 . S
C601 H585 0.959 . S
C601 H586 0.959 . S
C601 H587 0.961 . S
C601 C600 1.502 . S
C602 H588 0.960 . S
C602 H589 0.961 . S
C602 H590 0.959 . S
C602 C600 1.561 . S
C603 C600 1.526 . S
C603 C604 1.396 . S
C603 C608 1.390 . S
C604 C598 1.465 . S
C604 C603 1.396 . S
C604 C605 1.399 . S
C605 H591 0.929 . S
C605 C604 1.399 . S
C605 C606 1.385 . S
C606 H592 0.931 . S
C606 C605 1.385 . S
C606 C607 1.389 . S
C607 C606 1.389 . S
C607 C608 1.387 . S
C608 H593 0.930 . S
C608 C603 1.390 . S
C608 C607 1.387 . S
H609 C621 0.930 . S
H610 C623 0.930 . S
H611 C624 0.930 . S
H612 C628 0.959 . S
H613 C628 0.959 . S
H614 C628 0.961 . S
H615 C629 0.960 . S
H616 C629 0.961 . S
H617 C629 0.959 . S
H618 C632 0.929 . S
H619 C633 0.931 . S
H620 C635 0.930 . S
C621 H609 0.930 . S
C621 C622 1.399 . S
C621 C626 1.399 . S
C622 C621 1.399 . S
C622 C623 1.376 . S
C623 H610 0.930 . S
C623 C622 1.376 . S
C623 C624 1.388 . S
C624 H611 0.930 . S
C624 C623 1.388 . S
C624 C625 1.390 . S
C625 C624 1.390 . S
C625 C626 1.394 . S
C625 C631 1.465 . S
C626 C621 1.399 . S
C626 C625 1.394 . S
C626 C627 1.516 . S
C627 C626 1.516 . S
C627 C628 1.502 . S
C627 C629 1.561 . S
C627 C630 1.526 . S
C628 H612 0.959 . S
C628 H613 0.959 . S
C628 H614 0.961 . S
C628 C627 1.502 . S
C629 H615 0.960 . S
C629 H616 0.961 . S
C629 H617 0.959 . S
C629 C627 1.561 . S
C630 C627 1.526 . S
C630 C631 1.396 . S
C630 C635 1.390 . S
C631 C625 1.465 . S
C631 C630 1.396 . S
C631 C632 1.399 . S
C632 H618 0.929 . S
C632 C631 1.399 . S
C632 C633 1.385 . S
C633 H619 0.931 . S
C633 C632 1.385 . S
C633 C634 1.389 . S
C634 C633 1.389 . S
C634 C635 1.387 . S
C635 H620 0.930 . S
C635 C630 1.390 . S
C635 C634 1.387 . S
H636 C648 0.930 . S
H637 C650 0.930 . S
H638 C651 0.930 . S
H639 C655 0.959 . S
H640 C655 0.959 . S
H641 C655 0.961 . S
H642 C656 0.960 . S
H643 C656 0.961 . S
H644 C656 0.959 . S
H645 C659 0.929 . S
H646 C660 0.931 . S
H647 C662 0.930 . S
C648 H636 0.930 . S
C648 C649 1.399 . S
C648 C653 1.399 . S
C649 C648 1.399 . S
C649 C650 1.376 . S
C650 H637 0.930 . S
C650 C649 1.376 . S
C650 C651 1.388 . S
C651 H638 0.930 . S
C651 C650 1.388 . S
C651 C652 1.390 . S
C652 C651 1.390 . S
C652 C653 1.394 . S
C652 C658 1.465 . S
C653 C648 1.399 . S
C653 C652 1.394 . S
C653 C654 1.516 . S
C654 C653 1.516 . S
C654 C655 1.502 . S
C654 C656 1.561 . S
C654 C657 1.526 . S
C655 H639 0.959 . S
C655 H640 0.959 . S
C655 H641 0.961 . S
C655 C654 1.502 . S
C656 H642 0.960 . S
C656 H643 0.961 . S
C656 H644 0.959 . S
C656 C654 1.561 . S
C657 C654 1.526 . S
C657 C658 1.396 . S
C657 C662 1.390 . S
C658 C652 1.465 . S
C658 C657 1.396 . S
C658 C659 1.399 . S
C659 H645 0.929 . S
C659 C658 1.399 . S
C659 C660 1.385 . S
C660 H646 0.931 . S
C660 C659 1.385 . S
C660 C661 1.389 . S
C661 C660 1.389 . S
C661 C662 1.387 . S
C662 H647 0.930 . S
C662 C657 1.390 . S
C662 C661 1.387 . S
H663 C675 0.930 . S
H664 C677 0.930 . S
H665 C678 0.930 . S
H666 C682 0.959 . S
H667 C682 0.959 . S
H668 C682 0.961 . S
H669 C683 0.960 . S
H670 C683 0.961 . S
H671 C683 0.959 . S
H672 C686 0.929 . S
H673 C687 0.931 . S
H674 C689 0.930 . S
C675 H663 0.930 . S
C675 C676 1.399 . S
C675 C680 1.399 . S
C676 C675 1.399 . S
C676 C677 1.376 . S
C677 H664 0.930 . S
C677 C676 1.376 . S
C677 C678 1.388 . S
C678 H665 0.930 . S
C678 C677 1.388 . S
C678 C679 1.390 . S
C679 C678 1.390 . S
C679 C680 1.394 . S
C679 C685 1.465 . S
C680 C675 1.399 . S
C680 C679 1.394 . S
C680 C681 1.516 . S
C681 C680 1.516 . S
C681 C682 1.502 . S
C681 C683 1.561 . S
C681 C684 1.526 . S
C682 H666 0.959 . S
C682 H667 0.959 . S
C682 H668 0.961 . S
C682 C681 1.502 . S
C683 H669 0.960 . S
C683 H670 0.961 . S
C683 H671 0.959 . S
C683 C681 1.561 . S
C684 C681 1.526 . S
C684 C685 1.396 . S
C684 C689 1.390 . S
C685 C679 1.465 . S
C685 C684 1.396 . S
C685 C686 1.399 . S
C686 H672 0.929 . S
C686 C685 1.399 . S
C686 C687 1.385 . S
C687 H673 0.931 . S
C687 C686 1.385 . S
C687 C688 1.389 . S
C688 C687 1.389 . S
C688 C689 1.387 . S
C689 H674 0.930 . S
C689 C684 1.390 . S
C689 C688 1.387 . S
H690 C702 0.930 . S
H691 C704 0.930 . S
H692 C705 0.930 . S
H693 C709 0.959 . S
H694 C709 0.959 . S
H695 C709 0.961 . S
H696 C710 0.960 . S
H697 C710 0.961 . S
H698 C710 0.959 . S
H699 C713 0.929 . S
H700 C714 0.931 . S
H701 C716 0.930 . S
C702 H690 0.930 . S
C702 C703 1.399 . S
C702 C707 1.399 . S
C703 C702 1.399 . S
C703 C704 1.376 . S
C704 H691 0.930 . S
C704 C703 1.376 . S
C704 C705 1.388 . S
C705 H692 0.930 . S
C705 C704 1.388 . S
C705 C706 1.390 . S
C706 C705 1.390 . S
C706 C707 1.394 . S
C706 C712 1.465 . S
C707 C702 1.399 . S
C707 C706 1.394 . S
C707 C708 1.516 . S
C708 C707 1.516 . S
C708 C709 1.502 . S
C708 C710 1.561 . S
C708 C711 1.526 . S
C709 H693 0.959 . S
C709 H694 0.959 . S
C709 H695 0.961 . S
C709 C708 1.502 . S
C710 H696 0.960 . S
C710 H697 0.961 . S
C710 H698 0.959 . S
C710 C708 1.561 . S
C711 C708 1.526 . S
C711 C712 1.396 . S
C711 C716 1.390 . S
C712 C706 1.465 . S
C712 C711 1.396 . S
C712 C713 1.399 . S
C713 H699 0.929 . S
C713 C712 1.399 . S
C713 C714 1.385 . S
C714 H700 0.931 . S
C714 C713 1.385 . S
C714 C715 1.389 . S
C715 C714 1.389 . S
C715 C716 1.387 . S
C716 H701 0.930 . S
C716 C711 1.390 . S
C716 C715 1.387 . S
H717 C729 0.930 . S
H718 C731 0.930 . S
H719 C732 0.930 . S
H720 C736 0.959 . S
H721 C736 0.959 . S
H722 C736 0.961 . S
H723 C737 0.960 . S
H724 C737 0.961 . S
H725 C737 0.959 . S
H726 C740 0.929 . S
H727 C741 0.931 . S
H728 C743 0.930 . S
C729 H717 0.930 . S
C729 C730 1.399 . S
C729 C734 1.399 . S
C730 C729 1.399 . S
C730 C731 1.376 . S
C731 H718 0.930 . S
C731 C730 1.376 . S
C731 C732 1.388 . S
C732 H719 0.930 . S
C732 C731 1.388 . S
C732 C733 1.390 . S
C733 C732 1.390 . S
C733 C734 1.394 . S
C733 C739 1.465 . S
C734 C729 1.399 . S
C734 C733 1.394 . S
C734 C735 1.516 . S
C735 C734 1.516 . S
C735 C736 1.502 . S
C735 C737 1.561 . S
C735 C738 1.526 . S
C736 H720 0.959 . S
C736 H721 0.959 . S
C736 H722 0.961 . S
C736 C735 1.502 . S
C737 H723 0.960 . S
C737 H724 0.961 . S
C737 H725 0.959 . S
C737 C735 1.561 . S
C738 C735 1.526 . S
C738 C739 1.396 . S
C738 C743 1.390 . S
C739 C733 1.465 . S
C739 C738 1.396 . S
C739 C740 1.399 . S
C740 H726 0.929 . S
C740 C739 1.399 . S
C740 C741 1.385 . S
C741 H727 0.931 . S
C741 C740 1.385 . S
C741 C742 1.389 . S
C742 C741 1.389 . S
C742 C743 1.387 . S
C743 H728 0.930 . S
C743 C738 1.390 . S
C743 C742 1.387 . S
H744 C756 0.930 . S
H745 C758 0.930 . S
H746 C759 0.930 . S
H747 C763 0.959 . S
H748 C763 0.959 . S
H749 C763 0.961 . S
H750 C764 0.960 . S
H751 C764 0.961 . S
H752 C764 0.959 . S
H753 C767 0.929 . S
H754 C768 0.931 . S
H755 C770 0.930 . S
C756 H744 0.930 . S
C756 C757 1.399 . S
C756 C761 1.399 . S
C757 C756 1.399 . S
C757 C758 1.376 . S
C758 H745 0.930 . S
C758 C757 1.376 . S
C758 C759 1.388 . S
C759 H746 0.930 . S
C759 C758 1.388 . S
C759 C760 1.390 . S
C760 C759 1.390 . S
C760 C761 1.394 . S
C760 C766 1.465 . S
C761 C756 1.399 . S
C761 C760 1.394 . S
C761 C762 1.516 . S
C762 C761 1.516 . S
C762 C763 1.502 . S
C762 C764 1.561 . S
C762 C765 1.526 . S
C763 H747 0.959 . S
C763 H748 0.959 . S
C763 H749 0.961 . S
C763 C762 1.502 . S
C764 H750 0.960 . S
C764 H751 0.961 . S
C764 H752 0.959 . S
C764 C762 1.561 . S
C765 C762 1.526 . S
C765 C766 1.396 . S
C765 C770 1.390 . S
C766 C760 1.465 . S
C766 C765 1.396 . S
C766 C767 1.399 . S
C767 H753 0.929 . S
C767 C766 1.399 . S
C767 C768 1.385 . S
C768 H754 0.931 . S
C768 C767 1.385 . S
C768 C769 1.389 . S
C769 C768 1.389 . S
C769 C770 1.387 . S
C770 H755 0.930 . S
C770 C765 1.390 . S
C770 C769 1.387 . S
H771 C783 0.885 1_556 S
H772 C785 0.930 . S
H773 C786 0.930 . S
H774 C790 0.959 . S
H775 C790 0.964 . S
H776 C790 0.961 1_556 S
H777 C791 0.960 . S
H778 C791 0.961 . S
H779 C791 0.959 . S
H780 C794 0.929 . S
H781 C795 0.931 . S
H782 C797 0.930 . S
C783 H771 0.885 1_554 S
C783 C784 1.399 . S
C783 C788 1.399 . S
C784 C783 1.399 . S
C784 C785 1.376 . S
C785 H772 0.930 . S
C785 C784 1.376 . S
C785 C786 1.388 . S
C786 H773 0.930 . S
C786 C785 1.388 . S
C786 C787 1.390 . S
C787 C786 1.390 . S
C787 C788 1.394 . S
C787 C793 1.465 . S
C788 C783 1.399 . S
C788 C787 1.394 . S
C788 C789 1.516 . S
C789 C788 1.516 . S
C789 C790 1.502 . S
C789 C791 1.561 1_554 S
C789 C792 1.526 . S
C790 H774 0.959 . S
C790 H775 0.964 . S
C790 H776 0.961 1_554 S
C790 C789 1.502 . S
C791 H777 0.960 . S
C791 H778 0.961 . S
C791 H779 0.959 . S
C791 C789 1.561 1_556 S
C792 C789 1.526 . S
C792 C793 1.396 . S
C792 C797 1.390 . S
C793 C787 1.465 . S
C793 C792 1.396 . S
C793 C794 1.399 . S
C794 H780 0.929 . S
C794 C793 1.399 . S
C794 C795 1.385 . S
C795 H781 0.931 . S
C795 C794 1.385 . S
C795 C796 1.389 . S
C796 C795 1.389 . S
C796 C797 1.387 . S
C797 H782 0.930 . S
C797 C792 1.390 . S
C797 C796 1.387 . S
H798 C810 0.930 . S
H799 C812 0.930 . S
H800 C813 0.930 . S
H801 C817 0.959 . S
H802 C817 0.959 . S
H803 C817 0.961 . S
H804 C818 0.960 . S
H805 C818 0.961 . S
H806 C818 0.959 . S
H807 C821 0.929 . S
H808 C822 0.931 . S
H809 C824 0.930 . S
C810 H798 0.930 . S
C810 C811 1.399 . S
C810 C815 1.399 . S
C811 C810 1.399 . S
C811 C812 1.376 . S
C812 H799 0.930 . S
C812 C811 1.376 . S
C812 C813 1.388 . S
C813 H800 0.930 . S
C813 C812 1.388 . S
C813 C814 1.390 . S
C814 C813 1.390 . S
C814 C815 1.394 . S
C814 C820 1.465 . S
C815 C810 1.399 . S
C815 C814 1.394 . S
C815 C816 1.516 . S
C816 C815 1.516 . S
C816 C817 1.502 . S
C816 C818 1.561 . S
C816 C819 1.526 . S
C817 H801 0.959 . S
C817 H802 0.959 . S
C817 H803 0.961 . S
C817 C816 1.502 . S
C818 H804 0.960 . S
C818 H805 0.961 . S
C818 H806 0.959 . S
C818 C816 1.561 . S
C819 C816 1.526 . S
C819 C820 1.396 . S
C819 C824 1.390 . S
C820 C814 1.465 . S
C820 C819 1.396 . S
C820 C821 1.399 . S
C821 H807 0.929 . S
C821 C820 1.399 . S
C821 C822 1.385 . S
C822 H808 0.931 . S
C822 C821 1.385 . S
C822 C823 1.389 . S
C823 C822 1.389 . S
C823 C824 1.387 . S
C824 H809 0.930 . S
C824 C819 1.390 . S
C824 C823 1.387 . S
H825 C837 0.930 . S
H826 C839 0.930 . S
H827 C840 0.930 . S
H828 C844 0.959 . S
H829 C844 0.959 . S
H830 C844 0.961 . S
H831 C845 0.960 . S
H832 C845 0.961 . S
H833 C845 0.959 . S
H834 C848 0.929 . S
H835 C849 0.931 . S
H836 C851 0.930 . S
C837 H825 0.930 . S
C837 C838 1.399 . S
C837 C842 1.399 . S
C838 C837 1.399 . S
C838 C839 1.376 . S
C839 H826 0.930 . S
C839 C838 1.376 . S
C839 C840 1.388 . S
C840 H827 0.930 . S
C840 C839 1.388 . S
C840 C841 1.390 . S
C841 C840 1.390 . S
C841 C842 1.394 . S
C841 C847 1.465 . S
C842 C837 1.399 . S
C842 C841 1.394 . S
C842 C843 1.516 . S
C843 C842 1.516 . S
C843 C844 1.502 . S
C843 C845 1.561 . S
C843 C846 1.526 . S
C844 H828 0.959 . S
C844 H829 0.959 . S
C844 H830 0.961 . S
C844 C843 1.502 . S
C845 H831 0.960 . S
C845 H832 0.961 . S
C845 H833 0.959 . S
C845 C843 1.561 . S
C846 C843 1.526 . S
C846 C847 1.396 . S
C846 C851 1.390 . S
C847 C841 1.465 . S
C847 C846 1.396 . S
C847 C848 1.399 . S
C848 H834 0.929 . S
C848 C847 1.399 . S
C848 C849 1.385 . S
C849 H835 0.931 . S
C849 C848 1.385 . S
C849 C850 1.389 . S
C850 C849 1.389 . S
C850 C851 1.387 . S
C851 H836 0.930 . S
C851 C846 1.390 . S
C851 C850 1.387 . S
H852 C864 0.930 . S
H853 C866 0.930 . S
H854 C867 0.930 . S
H855 C871 0.959 . S
H856 C871 0.959 . S
H857 C871 0.961 . S
H858 C872 0.960 . S
H859 C872 0.961 . S
H860 C872 0.959 . S
H861 C875 0.929 . S
H862 C876 0.931 . S
H863 C878 0.930 . S
C864 H852 0.930 . S
C864 C865 1.399 . S
C864 C869 1.399 . S
C865 C864 1.399 . S
C865 C866 1.376 . S
C866 H853 0.930 . S
C866 C865 1.376 . S
C866 C867 1.388 . S
C867 H854 0.930 . S
C867 C866 1.388 . S
C867 C868 1.390 . S
C868 C867 1.390 . S
C868 C869 1.394 . S
C868 C874 1.465 . S
C869 C864 1.399 . S
C869 C868 1.394 . S
C869 C870 1.516 . S
C870 C869 1.516 . S
C870 C871 1.502 . S
C870 C872 1.561 . S
C870 C873 1.526 . S
C871 H855 0.959 . S
C871 H856 0.959 . S
C871 H857 0.961 . S
C871 C870 1.502 . S
C872 H858 0.960 . S
C872 H859 0.961 . S
C872 H860 0.959 . S
C872 C870 1.561 . S
C873 C870 1.526 . S
C873 C874 1.396 . S
C873 C878 1.390 . S
C874 C868 1.465 . S
C874 C873 1.396 . S
C874 C875 1.399 . S
C875 H861 0.929 . S
C875 C874 1.399 . S
C875 C876 1.385 . S
C876 H862 0.931 . S
C876 C875 1.385 . S
C876 C877 1.389 . S
C877 C876 1.389 . S
C877 C878 1.387 . S
C878 H863 0.930 . S
C878 C873 1.390 . S
C878 C877 1.387 . S
H879 C891 0.930 . S
H880 C893 0.930 . S
H881 C894 0.930 . S
H882 C898 0.959 . S
H883 C898 0.959 . S
H884 C898 0.961 . S
H885 C899 0.960 . S
H886 C899 0.961 . S
H887 C899 0.959 . S
H888 C902 0.929 . S
H889 C903 0.931 . S
H890 C905 0.930 . S
C891 H879 0.930 . S
C891 C892 1.399 . S
C891 C896 1.399 . S
C892 C891 1.399 . S
C892 C893 1.376 . S
C893 H880 0.930 . S
C893 C892 1.376 . S
C893 C894 1.388 . S
C894 H881 0.930 . S
C894 C893 1.388 . S
C894 C895 1.390 . S
C895 C894 1.390 . S
C895 C896 1.394 . S
C895 C901 1.465 . S
C896 C891 1.399 . S
C896 C895 1.394 . S
C896 C897 1.516 . S
C897 C896 1.516 . S
C897 C898 1.502 . S
C897 C899 1.561 . S
C897 C900 1.526 . S
C898 H882 0.959 . S
C898 H883 0.959 . S
C898 H884 0.961 . S
C898 C897 1.502 . S
C899 H885 0.960 . S
C899 H886 0.961 . S
C899 H887 0.959 . S
C899 C897 1.561 . S
C900 C897 1.526 . S
C900 C901 1.396 . S
C900 C905 1.390 . S
C901 C895 1.465 . S
C901 C900 1.396 . S
C901 C902 1.399 . S
C902 H888 0.929 . S
C902 C901 1.399 . S
C902 C903 1.385 . S
C903 H889 0.931 . S
C903 C902 1.385 . S
C903 C904 1.389 . S
C904 C903 1.389 . S
C904 C905 1.387 . S
C905 H890 0.930 . S
C905 C900 1.390 . S
C905 C904 1.387 . S
H906 C918 0.930 . S
H907 C920 0.930 . S
H908 C921 0.930 . S
H909 C925 0.959 . S
H910 C925 0.959 . S
H911 C925 0.961 . S
H912 C926 0.960 . S
H913 C926 0.961 . S
H914 C926 0.959 . S
H915 C929 0.929 . S
H916 C930 0.931 . S
H917 C932 0.930 . S
C918 H906 0.930 . S
C918 C919 1.399 . S
C918 C923 1.399 . S
C919 C918 1.399 . S
C919 C920 1.376 . S
C920 H907 0.930 . S
C920 C919 1.376 . S
C920 C921 1.388 . S
C921 H908 0.930 . S
C921 C920 1.388 . S
C921 C922 1.390 . S
C922 C921 1.390 . S
C922 C923 1.394 . S
C922 C928 1.465 . S
C923 C918 1.399 . S
C923 C922 1.394 . S
C923 C924 1.516 . S
C924 C923 1.516 . S
C924 C925 1.502 . S
C924 C926 1.561 . S
C924 C927 1.526 . S
C925 H909 0.959 . S
C925 H910 0.959 . S
C925 H911 0.961 . S
C925 C924 1.502 . S
C926 H912 0.960 . S
C926 H913 0.961 . S
C926 H914 0.959 . S
C926 C924 1.561 . S
C927 C924 1.526 . S
C927 C928 1.396 . S
C927 C932 1.390 . S
C928 C922 1.465 . S
C928 C927 1.396 . S
C928 C929 1.399 . S
C929 H915 0.929 . S
C929 C928 1.399 . S
C929 C930 1.385 . S
C930 H916 0.931 . S
C930 C929 1.385 . S
C930 C931 1.389 . S
C931 C930 1.389 . S
C931 C932 1.387 . S
C932 H917 0.930 . S
C932 C927 1.390 . S
C932 C931 1.387 . S
H933 C945 0.930 . S
H934 C947 0.930 . S
H935 C948 0.930 . S
H936 C952 0.959 . S
H937 C952 0.959 . S
H938 C952 0.961 . S
H939 C953 0.960 . S
H940 C953 0.961 . S
H941 C953 0.959 . S
H942 C956 0.929 . S
H943 C957 0.931 . S
H944 C959 0.930 . S
C945 H933 0.930 . S
C945 C946 1.399 . S
C945 C950 1.399 . S
C946 C945 1.399 . S
C946 C947 1.376 . S
C947 H934 0.930 . S
C947 C946 1.376 . S
C947 C948 1.388 . S
C948 H935 0.930 . S
C948 C947 1.388 . S
C948 C949 1.390 . S
C949 C948 1.390 . S
C949 C950 1.394 . S
C949 C955 1.465 . S
C950 C945 1.399 . S
C950 C949 1.394 . S
C950 C951 1.516 . S
C951 C950 1.516 . S
C951 C952 1.502 . S
C951 C953 1.561 . S
C951 C954 1.526 . S
C952 H936 0.959 . S
C952 H937 0.959 . S
C952 H938 0.961 . S
C952 C951 1.502 . S
C953 H939 0.960 . S
C953 H940 0.961 . S
C953 H941 0.959 . S
C953 C951 1.561 . S
C954 C951 1.526 . S
C954 C955 1.396 . S
C954 C959 1.390 . S
C955 C949 1.465 . S
C955 C954 1.396 . S
C955 C956 1.399 . S
C956 H942 0.929 . S
C956 C955 1.399 . S
C956 C957 1.385 1_556 S
C957 H943 0.931 . S
C957 C956 1.385 1_554 S
C957 C958 1.389 . S
C958 C957 1.389 . S
C958 C959 1.387 1_554 S
C959 H944 0.930 . S
C959 C954 1.390 . S
C959 C958 1.387 1_556 S
H960 C972 0.945 . S
H961 C974 0.930 . S
H962 C975 0.930 . S
H963 C979 0.959 . S
H964 C979 0.959 . S
H965 C979 0.961 1_545 S
H966 C980 0.960 . S
H967 C980 0.961 . S
H968 C980 0.974 1_565 S
H969 C983 0.929 . S
H970 C984 0.931 . S
H971 C986 0.930 . S
C972 H960 0.945 . S
C972 C973 1.403 1_545 S
C972 C977 1.382 1_545 S
C973 C972 1.403 1_565 S
C973 C974 1.376 . S
C974 H961 0.930 . S
C974 C973 1.376 . S
C974 C975 1.388 . S
C975 H962 0.930 . S
C975 C974 1.388 . S
C975 C976 1.390 . S
C976 C975 1.390 . S
C976 C977 1.394 . S
C976 C982 1.465 . S
C977 C972 1.382 1_565 S
C977 C976 1.394 . S
C977 C978 1.516 . S
C978 C977 1.516 . S
C978 C979 1.502 . S
C978 C980 1.561 1_565 S
C978 C981 1.526 . S
C979 H963 0.959 . S
C979 H964 0.959 . S
C979 H965 0.961 1_565 S
C979 C978 1.502 . S
C980 H966 0.960 . S
C980 H967 0.961 . S
C980 H968 0.974 1_545 S
C980 C978 1.561 1_545 S
C981 C978 1.526 . S
C981 C982 1.396 . S
C981 C986 1.390 . S
C982 C976 1.465 . S
C982 C981 1.396 . S
C982 C983 1.399 . S
C983 H969 0.929 . S
C983 C982 1.399 . S
C983 C984 1.385 . S
C984 H970 0.931 . S
C984 C983 1.385 . S
C984 C985 1.389 . S
C985 C984 1.389 . S
C985 C986 1.387 . S
C986 H971 0.930 . S
C986 C981 1.390 . S
C986 C985 1.387 . S
H987 C999 0.930 . S
H988 C1001 0.930 . S
H989 C1002 0.930 . S
H990 C1006 0.959 . S
H991 C1006 0.959 . S
H992 C1006 0.961 . S
H993 C1007 0.960 . S
H994 C1007 0.961 . S
H995 C1007 0.959 . S
H996 C1010 0.929 . S
H997 C1011 0.931 . S
H998 C1013 0.930 . S
C999 H987 0.930 . S
C999 C1000 1.399 . S
C999 C1004 1.399 . S
C1000 C999 1.399 . S
C1000 C1001 1.376 . S
C1001 H988 0.930 . S
C1001 C1000 1.376 . S
C1001 C1002 1.388 . S
C1002 H989 0.930 . S
C1002 C1001 1.388 . S
C1002 C1003 1.390 . S
C1003 C1002 1.390 . S
C1003 C1004 1.394 . S
C1003 C1009 1.465 . S
C1004 C999 1.399 . S
C1004 C1003 1.394 . S
C1004 C1005 1.516 . S
C1005 C1004 1.516 . S
C1005 C1006 1.502 . S
C1005 C1007 1.561 . S
C1005 C1008 1.526 . S
C1006 H990 0.959 . S
C1006 H991 0.959 . S
C1006 H992 0.961 . S
C1006 C1005 1.502 . S
C1007 H993 0.960 . S
C1007 H994 0.961 . S
C1007 H995 0.959 . S
C1007 C1005 1.561 . S
C1008 C1005 1.526 . S
C1008 C1009 1.396 . S
C1008 C1013 1.390 . S
C1009 C1003 1.465 . S
C1009 C1008 1.396 . S
C1009 C1010 1.399 . S
C1010 H996 0.929 . S
C1010 C1009 1.399 . S
C1010 C1011 1.385 . S
C1011 H997 0.931 . S
C1011 C1010 1.385 . S
C1011 C1012 1.389 . S
C1012 C1011 1.389 . S
C1012 C1013 1.387 . S
C1013 H998 0.930 . S
C1013 C1008 1.390 . S
C1013 C1012 1.387 . S
H1014 C1026 0.930 . S
H1015 C1028 0.930 1_545 S
H1016 C1029 0.930 . S
H1017 C1033 0.959 . S
H1018 C1033 0.959 . S
H1019 C1033 0.961 . S
H1020 C1034 0.960 . S
H1021 C1034 0.961 . S
H1022 C1034 0.959 . S
H1023 C1037 0.929 . S
H1024 C1038 0.931 . S
H1025 C1040 0.930 . S
C1026 H1014 0.930 . S
C1026 C1027 1.399 . S
C1026 C1031 1.399 . S
C1027 C1026 1.399 . S
C1027 C1028 1.376 . S
C1028 H1015 0.930 1_565 S
C1028 C1027 1.376 . S
C1028 C1029 1.388 . S
C1029 H1016 0.930 . S
C1029 C1028 1.388 . S
C1029 C1030 1.390 . S
C1030 C1029 1.390 . S
C1030 C1031 1.394 . S
C1030 C1036 1.465 . S
C1031 C1026 1.399 . S
C1031 C1030 1.394 . S
C1031 C1032 1.516 . S
C1032 C1031 1.516 . S
C1032 C1033 1.502 . S
C1032 C1034 1.561 . S
C1032 C1035 1.526 . S
C1033 H1017 0.959 . S
C1033 H1018 0.959 . S
C1033 H1019 0.961 . S
C1033 C1032 1.502 . S
C1034 H1020 0.960 . S
C1034 H1021 0.961 . S
C1034 H1022 0.959 . S
C1034 C1032 1.561 . S
C1035 C1032 1.526 . S
C1035 C1036 1.396 . S
C1035 C1040 1.390 . S
C1036 C1030 1.465 . S
C1036 C1035 1.396 . S
C1036 C1037 1.399 . S
C1037 H1023 0.929 . S
C1037 C1036 1.399 . S
C1037 C1038 1.385 . S
C1038 H1024 0.931 . S
C1038 C1037 1.385 . S
C1038 C1039 1.389 . S
C1039 C1038 1.389 . S
C1039 C1040 1.387 . S
C1040 H1025 0.930 . S
C1040 C1035 1.390 . S
C1040 C1039 1.387 . S
H1041 C1053 0.930 . S
H1042 C1055 0.930 . S
H1043 C1056 0.930 . S
H1044 C1060 0.959 . S
H1045 C1060 0.959 . S
H1046 C1060 0.961 . S
H1047 C1061 0.960 . S
H1048 C1061 0.961 . S
H1049 C1061 0.959 . S
H1050 C1064 0.929 . S
H1051 C1065 0.931 . S
H1052 C1067 0.930 . S
C1053 H1041 0.930 . S
C1053 C1054 1.399 . S
C1053 C1058 1.399 . S
C1054 C1053 1.399 . S
C1054 C1055 1.376 . S
C1055 H1042 0.930 . S
C1055 C1054 1.376 . S
C1055 C1056 1.388 . S
C1056 H1043 0.930 . S
C1056 C1055 1.388 . S
C1056 C1057 1.390 . S
C1057 C1056 1.390 . S
C1057 C1058 1.394 . S
C1057 C1063 1.465 . S
C1058 C1053 1.399 . S
C1058 C1057 1.394 . S
C1058 C1059 1.516 . S
C1059 C1058 1.516 . S
C1059 C1060 1.502 . S
C1059 C1061 1.561 . S
C1059 C1062 1.526 . S
C1060 H1044 0.959 . S
C1060 H1045 0.959 . S
C1060 H1046 0.961 . S
C1060 C1059 1.502 . S
C1061 H1047 0.960 . S
C1061 H1048 0.961 . S
C1061 H1049 0.959 . S
C1061 C1059 1.561 . S
C1062 C1059 1.526 . S
C1062 C1063 1.396 . S
C1062 C1067 1.390 . S
C1063 C1057 1.465 . S
C1063 C1062 1.396 . S
C1063 C1064 1.399 . S
C1064 H1050 0.929 . S
C1064 C1063 1.399 . S
C1064 C1065 1.385 . S
C1065 H1051 0.931 . S
C1065 C1064 1.385 . S
C1065 C1066 1.389 . S
C1066 C1065 1.389 . S
C1066 C1067 1.387 . S
C1067 H1052 0.930 . S
C1067 C1062 1.390 . S
C1067 C1066 1.387 . S
H1068 C1080 0.930 . S
H1069 C1082 0.930 . S
H1070 C1083 0.930 . S
H1071 C1087 0.959 . S
H1072 C1087 0.959 . S
H1073 C1087 0.961 . S
H1074 C1088 0.960 . S
H1075 C1088 0.961 . S
H1076 C1088 0.959 . S
H1077 C1091 0.929 . S
H1078 C1092 0.931 . S
H1079 C1094 0.930 . S
C1080 H1068 0.930 . S
C1080 C1081 1.399 . S
C1080 C1085 1.399 . S
C1081 C1080 1.399 . S
C1081 C1082 1.376 . S
C1082 H1069 0.930 . S
C1082 C1081 1.376 . S
C1082 C1083 1.388 . S
C1083 H1070 0.930 . S
C1083 C1082 1.388 . S
C1083 C1084 1.390 . S
C1084 C1083 1.390 . S
C1084 C1085 1.394 . S
C1084 C1090 1.465 . S
C1085 C1080 1.399 . S
C1085 C1084 1.394 . S
C1085 C1086 1.516 . S
C1086 C1085 1.516 . S
C1086 C1087 1.502 . S
C1086 C1088 1.561 . S
C1086 C1089 1.526 . S
C1087 H1071 0.959 . S
C1087 H1072 0.959 . S
C1087 H1073 0.961 . S
C1087 C1086 1.502 . S
C1088 H1074 0.960 . S
C1088 H1075 0.961 . S
C1088 H1076 0.959 . S
C1088 C1086 1.561 . S
C1089 C1086 1.526 . S
C1089 C1090 1.396 . S
C1089 C1094 1.390 . S
C1090 C1084 1.465 . S
C1090 C1089 1.396 . S
C1090 C1091 1.399 . S
C1091 H1077 0.929 . S
C1091 C1090 1.399 . S
C1091 C1092 1.385 . S
C1092 H1078 0.931 . S
C1092 C1091 1.385 . S
C1092 C1093 1.389 . S
C1093 C1092 1.389 . S
C1093 C1094 1.387 . S
C1094 H1079 0.930 . S
C1094 C1089 1.390 . S
C1094 C1093 1.387 . S
H1095 C1107 0.930 . S
H1096 C1109 0.930 . S
H1097 C1110 0.930 . S
H1098 C1114 0.959 . S
H1099 C1114 0.959 . S
H1100 C1114 0.961 . S
H1101 C1115 0.960 . S
H1102 C1115 0.961 . S
H1103 C1115 0.959 . S
H1104 C1118 0.929 . S
H1105 C1119 0.931 . S
H1106 C1121 0.930 . S
C1107 H1095 0.930 . S
C1107 C1108 1.399 . S
C1107 C1112 1.399 . S
C1108 C1107 1.399 . S
C1108 C1109 1.376 . S
C1109 H1096 0.930 . S
C1109 C1108 1.376 . S
C1109 C1110 1.388 . S
C1110 H1097 0.930 . S
C1110 C1109 1.388 . S
C1110 C1111 1.390 . S
C1111 C1110 1.390 . S
C1111 C1112 1.394 . S
C1111 C1117 1.465 . S
C1112 C1107 1.399 . S
C1112 C1111 1.394 . S
C1112 C1113 1.516 . S
C1113 C1112 1.516 . S
C1113 C1114 1.502 . S
C1113 C1115 1.561 . S
C1113 C1116 1.526 . S
C1114 H1098 0.959 . S
C1114 H1099 0.959 . S
C1114 H1100 0.961 . S
C1114 C1113 1.502 . S
C1115 H1101 0.960 . S
C1115 H1102 0.961 . S
C1115 H1103 0.959 . S
C1115 C1113 1.561 . S
C1116 C1113 1.526 . S
C1116 C1117 1.396 . S
C1116 C1121 1.390 . S
C1117 C1111 1.465 . S
C1117 C1116 1.396 . S
C1117 C1118 1.399 . S
C1118 H1104 0.929 . S
C1118 C1117 1.399 . S
C1118 C1119 1.385 . S
C1119 H1105 0.931 . S
C1119 C1118 1.385 . S
C1119 C1120 1.389 . S
C1120 C1119 1.389 . S
C1120 C1121 1.387 . S
C1121 H1106 0.930 . S
C1121 C1116 1.390 . S
C1121 C1120 1.387 . S
H1122 C1134 0.930 . S
H1123 C1136 0.930 . S
H1124 C1137 0.930 . S
H1125 C1141 0.959 . S
H1126 C1141 0.959 . S
H1127 C1141 0.961 . S
H1128 C1142 0.960 . S
H1129 C1142 0.961 . S
H1130 C1142 0.959 . S
H1131 C1145 0.929 . S
H1132 C1146 0.931 . S
H1133 C1148 0.930 . S
C1134 H1122 0.930 . S
C1134 C1135 1.399 . S
C1134 C1139 1.399 . S
C1135 C1134 1.399 . S
C1135 C1136 1.376 . S
C1136 H1123 0.930 . S
C1136 C1135 1.376 . S
C1136 C1137 1.388 . S
C1137 H1124 0.930 . S
C1137 C1136 1.388 . S
C1137 C1138 1.390 . S
C1138 C1137 1.390 . S
C1138 C1139 1.394 . S
C1138 C1144 1.463 1_554 S
C1139 C1134 1.399 . S
C1139 C1138 1.394 . S
C1139 C1140 1.516 . S
C1140 C1139 1.516 . S
C1140 C1141 1.502 . S
C1140 C1142 1.561 . S
C1140 C1143 1.526 1_554 S
C1141 H1125 0.959 . S
C1141 H1126 0.959 . S
C1141 H1127 0.961 . S
C1141 C1140 1.502 . S
C1142 H1128 0.960 . S
C1142 H1129 0.961 . S
C1142 H1130 0.959 . S
C1142 C1140 1.561 . S
C1143 C1140 1.526 1_556 S
C1143 C1144 1.397 . S
C1143 C1148 1.390 . S
C1144 C1138 1.463 1_556 S
C1144 C1143 1.397 . S
C1144 C1145 1.401 . S
C1145 H1131 0.929 . S
C1145 C1144 1.401 . S
C1145 C1146 1.385 . S
C1146 H1132 0.931 . S
C1146 C1145 1.385 . S
C1146 C1147 1.389 . S
C1147 C1146 1.389 . S
C1147 C1148 1.387 . S
C1148 H1133 0.930 . S
C1148 C1143 1.390 . S
C1148 C1147 1.387 . S
H1149 C1161 0.930 . S
H1150 C1163 0.930 . S
H1151 C1164 0.930 . S
H1152 C1168 0.959 . S
H1153 C1168 0.959 . S
H1154 C1168 0.961 . S
H1155 C1169 0.960 . S
H1156 C1169 0.961 . S
H1157 C1169 0.959 . S
H1158 C1172 0.929 . S
H1159 C1173 0.931 . S
H1160 C1175 0.930 . S
C1161 H1149 0.930 . S
C1161 C1162 1.399 . S
C1161 C1166 1.399 . S
C1162 C1161 1.399 . S
C1162 C1163 1.376 . S
C1163 H1150 0.930 . S
C1163 C1162 1.376 . S
C1163 C1164 1.388 . S
C1164 H1151 0.930 . S
C1164 C1163 1.388 . S
C1164 C1165 1.390 . S
C1165 C1164 1.390 . S
C1165 C1166 1.394 . S
C1165 C1171 1.465 . S
C1166 C1161 1.399 . S
C1166 C1165 1.394 . S
C1166 C1167 1.516 . S
C1167 C1166 1.516 . S
C1167 C1168 1.502 . S
C1167 C1169 1.561 . S
C1167 C1170 1.526 . S
C1168 H1152 0.959 . S
C1168 H1153 0.959 . S
C1168 H1154 0.961 . S
C1168 C1167 1.502 . S
C1169 H1155 0.960 . S
C1169 H1156 0.961 . S
C1169 H1157 0.959 . S
C1169 C1167 1.561 . S
C1170 C1167 1.526 . S
C1170 C1171 1.396 . S
C1170 C1175 1.390 . S
C1171 C1165 1.465 . S
C1171 C1170 1.396 . S
C1171 C1172 1.399 . S
C1172 H1158 0.929 . S
C1172 C1171 1.399 . S
C1172 C1173 1.385 . S
C1173 H1159 0.931 . S
C1173 C1172 1.385 . S
C1173 C1174 1.389 . S
C1174 C1173 1.389 . S
C1174 C1175 1.387 . S
C1175 H1160 0.930 . S
C1175 C1170 1.390 . S
C1175 C1174 1.387 . S
C553 C517 1.073 . S
C541 C51 1.099 . S
C568 C125 1.752 . S
C580 C447 1.806 . S
C595 C217 2.315 . S
C607 C466 2.308 . S
C622 C291 2.030 . S
C634 C475 2.034 . S
C661 C489 0.599 . S
C649 C347 0.613 . S
C676 C421 1.152 . S
C688 C508 1.224 . S
C703 C143 2.583 . S
C715 C461 2.631 . S
C730 C199 1.174 . S
C742 C480 1.169 . S
C757 C273 1.025 . S
C769 C494 0.973 . S
C796 C503 1.297 . S
C784 C365 1.284 . S
C823 C522 2.229 . S
C811 C439 2.233 . S
C850 C452 2.011 . S
C838 C69 2.042 . S
C865 C63 1.538 . S
C877 C467 1.629 . S
C892 C137 1.390 . S
C904 C479 1.495 . S
C931 C493 1.453 . S
C919 C187 1.365 . S
C946 C261 1.469 . S
C958 C509 1.588 . S
C985 C521 1.363 . S
C973 C359 1.281 1_565 S
C1012 C451 1.352 . S
C1000 C433 1.209 . S
C1039 C523 1.530 . S
C1027 C113 1.481 . S
C1054 C211 1.506 . S
C1066 C453 1.541 . S
C1093 C465 1.607 . S
C1081 C285 1.447 . S
C1108 C335 1.352 . S
C1120 C481 1.333 . S
C1135 C409 1.465 . S
C1147 C495 1.549 . S
C1162 C39 1.700 . S
C1174 C507 1.779 . S
