# Generated by pormake.
# Topology eea, (3,6)-cn, num edge types: 1
# Building blocks:
#     Node 0, Type 0, BuildingBlock: PAMTOO_clean_linker_0, # of connection points: 3
#     Node 1, Type 0, BuildingBlock: PAMTOO_clean_linker_0, # of connection points: 3
#     Node 2, Type 0, BuildingBlock: PAMTOO_clean_linker_0, # of connection points: 3
#     Node 3, Type 0, BuildingBlock: PAMTOO_clean_linker_0, # of connection points: 3
#     Node 4, Type 0, BuildingBlock: PAMTOO_clean_linker_0, # of connection points: 3
#     Node 5, Type 0, BuildingBlock: PAMTOO_clean_linker_0, # of connection points: 3
#     Node 6, Type 0, BuildingBlock: PAMTOO_clean_linker_0, # of connection points: 3
#     Node 7, Type 0, BuildingBlock: PAMTOO_clean_linker_0, # of connection points: 3
#     Node 8, Type 0, BuildingBlock: PAMTOO_clean_linker_0, # of connection points: 3
#     Node 9, Type 0, BuildingBlock: PAMTOO_clean_linker_0, # of connection points: 3
#     Node 10, Type 0, BuildingBlock: PAMTOO_clean_linker_0, # of connection points: 3
#     Node 11, Type 0, BuildingBlock: PAMTOO_clean_linker_0, # of connection points: 3
#     Node 12, Type 0, BuildingBlock: PAMTOO_clean_linker_0, # of connection points: 3
#     Node 13, Type 0, BuildingBlock: PAMTOO_clean_linker_0, # of connection points: 3
#     Node 14, Type 0, BuildingBlock: PAMTOO_clean_linker_0, # of connection points: 3
#     Node 15, Type 0, BuildingBlock: PAMTOO_clean_linker_0, # of connection points: 3
#     Node 16, Type 0, BuildingBlock: PAMTOO_clean_linker_0, # of connection points: 3
#     Node 17, Type 0, BuildingBlock: PAMTOO_clean_linker_0, # of connection points: 3
#     Node 18, Type 1, BuildingBlock: KUMBUR_clean_sbu_0, # of connection points: 6
#     Node 19, Type 1, BuildingBlock: KUMBUR_clean_sbu_0, # of connection points: 6
#     Node 20, Type 1, BuildingBlock: KUMBUR_clean_sbu_0, # of connection points: 6
#     Node 21, Type 1, BuildingBlock: KUMBUR_clean_sbu_0, # of connection points: 6
#     Node 22, Type 1, BuildingBlock: KUMBUR_clean_sbu_0, # of connection points: 6
#     Node 23, Type 1, BuildingBlock: KUMBUR_clean_sbu_0, # of connection points: 6
#     Node 24, Type 1, BuildingBlock: KUMBUR_clean_sbu_0, # of connection points: 6
#     Node 25, Type 1, BuildingBlock: KUMBUR_clean_sbu_0, # of connection points: 6
#     Node 26, Type 1, BuildingBlock: KUMBUR_clean_sbu_0, # of connection points: 6
#     Edge 27, Type (0, 1), BuildingBlock: XIVTED_clean_linker_0, # of connection points: 2
#     Edge 28, Type (0, 1), BuildingBlock: XIVTED_clean_linker_0, # of connection points: 2
#     Edge 29, Type (0, 1), BuildingBlock: XIVTED_clean_linker_0, # of connection points: 2
#     Edge 30, Type (0, 1), BuildingBlock: XIVTED_clean_linker_0, # of connection points: 2
#     Edge 31, Type (0, 1), BuildingBlock: XIVTED_clean_linker_0, # of connection points: 2
#     Edge 32, Type (0, 1), BuildingBlock: XIVTED_clean_linker_0, # of connection points: 2
#     Edge 33, Type (0, 1), BuildingBlock: XIVTED_clean_linker_0, # of connection points: 2
#     Edge 34, Type (0, 1), BuildingBlock: XIVTED_clean_linker_0, # of connection points: 2
#     Edge 35, Type (0, 1), BuildingBlock: XIVTED_clean_linker_0, # of connection points: 2
#     Edge 36, Type (0, 1), BuildingBlock: XIVTED_clean_linker_0, # of connection points: 2
#     Edge 37, Type (0, 1), BuildingBlock: XIVTED_clean_linker_0, # of connection points: 2
#     Edge 38, Type (0, 1), BuildingBlock: XIVTED_clean_linker_0, # of connection points: 2
#     Edge 39, Type (0, 1), BuildingBlock: XIVTED_clean_linker_0, # of connection points: 2
#     Edge 40, Type (0, 1), BuildingBlock: XIVTED_clean_linker_0, # of connection points: 2
#     Edge 41, Type (0, 1), BuildingBlock: XIVTED_clean_linker_0, # of connection points: 2
#     Edge 42, Type (0, 1), BuildingBlock: XIVTED_clean_linker_0, # of connection points: 2
#     Edge 43, Type (0, 1), BuildingBlock: XIVTED_clean_linker_0, # of connection points: 2
#     Edge 44, Type (0, 1), BuildingBlock: XIVTED_clean_linker_0, # of connection points: 2
#     Edge 45, Type (0, 1), BuildingBlock: XIVTED_clean_linker_0, # of connection points: 2
#     Edge 46, Type (0, 1), BuildingBlock: XIVTED_clean_linker_0, # of connection points: 2
#     Edge 47, Type (0, 1), BuildingBlock: XIVTED_clean_linker_0, # of connection points: 2
#     Edge 48, Type (0, 1), BuildingBlock: XIVTED_clean_linker_0, # of connection points: 2
#     Edge 49, Type (0, 1), BuildingBlock: XIVTED_clean_linker_0, # of connection points: 2
#     Edge 50, Type (0, 1), BuildingBlock: XIVTED_clean_linker_0, # of connection points: 2
#     Edge 51, Type (0, 1), BuildingBlock: XIVTED_clean_linker_0, # of connection points: 2
#     Edge 52, Type (0, 1), BuildingBlock: XIVTED_clean_linker_0, # of connection points: 2
#     Edge 53, Type (0, 1), BuildingBlock: XIVTED_clean_linker_0, # of connection points: 2
#     Edge 54, Type (0, 1), BuildingBlock: XIVTED_clean_linker_0, # of connection points: 2
#     Edge 55, Type (0, 1), BuildingBlock: XIVTED_clean_linker_0, # of connection points: 2
#     Edge 56, Type (0, 1), BuildingBlock: XIVTED_clean_linker_0, # of connection points: 2
#     Edge 57, Type (0, 1), BuildingBlock: XIVTED_clean_linker_0, # of connection points: 2
#     Edge 58, Type (0, 1), BuildingBlock: XIVTED_clean_linker_0, # of connection points: 2
#     Edge 59, Type (0, 1), BuildingBlock: XIVTED_clean_linker_0, # of connection points: 2
#     Edge 60, Type (0, 1), BuildingBlock: XIVTED_clean_linker_0, # of connection points: 2
#     Edge 61, Type (0, 1), BuildingBlock: XIVTED_clean_linker_0, # of connection points: 2
#     Edge 62, Type (0, 1), BuildingBlock: XIVTED_clean_linker_0, # of connection points: 2
#     Edge 63, Type (0, 1), BuildingBlock: XIVTED_clean_linker_0, # of connection points: 2
#     Edge 64, Type (0, 1), BuildingBlock: XIVTED_clean_linker_0, # of connection points: 2
#     Edge 65, Type (0, 1), BuildingBlock: XIVTED_clean_linker_0, # of connection points: 2
#     Edge 66, Type (0, 1), BuildingBlock: XIVTED_clean_linker_0, # of connection points: 2
#     Edge 67, Type (0, 1), BuildingBlock: XIVTED_clean_linker_0, # of connection points: 2
#     Edge 68, Type (0, 1), BuildingBlock: XIVTED_clean_linker_0, # of connection points: 2
#     Edge 69, Type (0, 1), BuildingBlock: XIVTED_clean_linker_0, # of connection points: 2
#     Edge 70, Type (0, 1), BuildingBlock: XIVTED_clean_linker_0, # of connection points: 2
#     Edge 71, Type (0, 1), BuildingBlock: XIVTED_clean_linker_0, # of connection points: 2
#     Edge 72, Type (0, 1), BuildingBlock: XIVTED_clean_linker_0, # of connection points: 2
#     Edge 73, Type (0, 1), BuildingBlock: XIVTED_clean_linker_0, # of connection points: 2
#     Edge 74, Type (0, 1), BuildingBlock: XIVTED_clean_linker_0, # of connection points: 2
#     Edge 75, Type (0, 1), BuildingBlock: XIVTED_clean_linker_0, # of connection points: 2
#     Edge 76, Type (0, 1), BuildingBlock: XIVTED_clean_linker_0, # of connection points: 2
#     Edge 77, Type (0, 1), BuildingBlock: XIVTED_clean_linker_0, # of connection points: 2
#     Edge 78, Type (0, 1), BuildingBlock: XIVTED_clean_linker_0, # of connection points: 2
#     Edge 79, Type (0, 1), BuildingBlock: XIVTED_clean_linker_0, # of connection points: 2
#     Edge 80, Type (0, 1), BuildingBlock: XIVTED_clean_linker_0, # of connection points: 2
# Relax obj value: 0.023
# Max RMSD: 0.165
# Mean RMSD: 0.119
data_MOF--net-eea--node1-KUMBUR_clean_sbu_0--node2-PAMTOO_clean_linker_0--edge1-XIVTED_clean_linker_0
_symmetry_space_group_name_H-M    P1
_symmetry_Int_Tables_number       1
_symmetry_cell_setting            triclinic
loop_
_symmetry_equiv_pos_as_xyz
'x, y, z'
_cell_length_a     54.088062
_cell_length_b     55.943478
_cell_length_c     66.426948
_cell_angle_alpha  89.919097
_cell_angle_beta   89.761862
_cell_angle_gamma 119.98714
loop_
_atom_site_label
_atom_site_type_symbol
_atom_site_fract_x
_atom_site_fract_y
_atom_site_fract_z
_atom_type_partial_charge
H0 H 0.2561 0.07297 0.43785 0.0
H1 H 0.25436 0.1489 0.43499 0.0
H2 H 0.20712 0.08524 0.39209 0.0
H3 H 0.23424 0.14001 0.37354 0.0
C4 C 0.23813 0.15247 0.38743 0.0
O5 O 0.22226 0.1354 0.4031 0.0
H6 H 0.26137 0.16264 0.39081 0.0
C7 C 0.24847 0.08553 0.43084 0.0
C8 C 0.23038 0.07543 0.41402 0.0
C9 C 0.25699 0.1118 0.43874 0.0
C10 C 0.24761 0.12835 0.42943 0.0
C11 C 0.2301 0.11881 0.41247 0.0
C12 C 0.22116 0.09235 0.40498 0.0
H13 H 0.95092 0.1803 0.43556 0.0
H14 H 0.87794 0.09853 0.43064 0.0
H15 H 0.93962 0.13062 0.38301 0.0
H16 H 0.8813 0.09349 0.36698 0.0
C17 C 0.87106 0.08503 0.38183 0.0
O18 O 0.89174 0.08843 0.39548 0.0
H19 H 0.86029 0.09664 0.38669 0.0
C20 C 0.93879 0.1613 0.42725 0.0
C21 C 0.94884 0.15827 0.40832 0.0
C22 C 0.91308 0.14003 0.43547 0.0
C23 C 0.89757 0.11541 0.42458 0.0
C24 C 0.9072 0.11216 0.40579 0.0
C25 C 0.93274 0.13343 0.39772 0.0
H26 H 0.84182 0.77222 0.43425 0.0
H27 H 0.92536 0.78056 0.43215 0.0
H28 H 0.89884 0.81523 0.38489 0.0
H29 H 0.93928 0.79955 0.36845 0.0
C30 C 0.94472 0.79372 0.38309 0.0
O31 O 0.94075 0.80837 0.39832 0.0
H32 H 0.92999 0.77113 0.38517 0.0
C33 C 0.8621 0.77934 0.42665 0.0
C34 C 0.86736 0.79378 0.40834 0.0
C35 C 0.88269 0.77435 0.43549 0.0
C36 C 0.90928 0.78446 0.42581 0.0
C37 C 0.91513 0.79919 0.40761 0.0
C38 C 0.89429 0.80412 0.39904 0.0
H39 H 0.08434 0.24151 0.59782 0.0
H40 H 0.15539 0.22748 0.60162 0.0
H41 H 0.0897 0.19305 0.64655 0.0
H42 H 0.14645 0.20602 0.6652 0.0
C43 C 0.15801 0.21339 0.65062 0.0
O44 O 0.13922 0.19959 0.63511 0.0
H45 H 0.16594 0.23598 0.64974 0.0
C46 C 0.09482 0.23182 0.60529 0.0
C47 C 0.08292 0.21635 0.62312 0.0
C48 C 0.12068 0.23571 0.59715 0.0
C49 C 0.1355 0.22487 0.60755 0.0
C50 C 0.12454 0.20998 0.62545 0.0
C51 C 0.09817 0.20537 0.63303 0.0
H52 H 0.77303 0.83844 0.59527 0.0
H53 H 0.78308 0.91956 0.60023 0.0
H54 H 0.82318 0.89329 0.64312 0.0
H55 H 0.80095 0.92487 0.66301 0.0
C56 C 0.79659 0.93347 0.64924 0.0
O57 O 0.8123 0.93201 0.63337 0.0
H58 H 0.77327 0.92092 0.64616 0.0
C59 C 0.78237 0.85827 0.6027 0.0
C60 C 0.79909 0.86306 0.62008 0.0
C61 C 0.77666 0.87855 0.59517 0.0
C62 C 0.78722 0.90359 0.60558 0.0
C63 C 0.80342 0.90842 0.62298 0.0
C64 C 0.80989 0.8886 0.62991 0.0
H65 H 0.17724 0.93659 0.59617 0.0
H66 H 0.09645 0.86155 0.60029 0.0
H67 H 0.12018 0.92292 0.64609 0.0
H68 H 0.08579 0.86836 0.66439 0.0
C69 C 0.0799 0.85654 0.65008 0.0
O70 O 0.08141 0.87367 0.63454 0.0
H71 H 0.09544 0.84924 0.64758 0.0
C72 C 0.1571 0.92424 0.60393 0.0
C73 C 0.15155 0.93358 0.62217 0.0
C74 C 0.13727 0.89862 0.59569 0.0
C75 C 0.11194 0.88147 0.60631 0.0
C76 C 0.10607 0.89024 0.62454 0.0
C77 C 0.12555 0.91633 0.63225 0.0
H78 H 0.91732 0.40554 0.77078 0.0
H79 H 0.91475 0.48109 0.76731 0.0
H80 H 0.88449 0.42456 0.71784 0.0
H81 H 0.91144 0.48189 0.70383 0.0
C82 C 0.9114 0.49157 0.71844 0.0
O83 O 0.89228 0.4716 0.73146 0.0
H84 H 0.93344 0.50146 0.72463 0.0
C85 C 0.91202 0.41914 0.7626 0.0
C86 C 0.90034 0.41186 0.7432 0.0
C87 C 0.91742 0.44407 0.77144 0.0
C88 C 0.91074 0.46174 0.76076 0.0
C89 C 0.89868 0.45449 0.74158 0.0
C90 C 0.89335 0.42959 0.73286 0.0
H91 H 0.61589 0.51262 0.76885 0.0
H92 H 0.54477 0.42961 0.76501 0.0
H93 H 0.60583 0.46246 0.71691 0.0
H94 H 0.54725 0.42388 0.7012 0.0
C95 C 0.53735 0.41591 0.71622 0.0
O96 O 0.55837 0.41967 0.7297 0.0
H97 H 0.5268 0.42778 0.72094 0.0
C98 C 0.60422 0.49328 0.76084 0.0
C99 C 0.61424 0.4903 0.74191 0.0
C100 C 0.57912 0.4716 0.76941 0.0
C101 C 0.56405 0.44671 0.75876 0.0
C102 C 0.57366 0.44354 0.73992 0.0
C103 C 0.59881 0.46514 0.73161 0.0
H104 H 0.51272 0.10684 0.76893 0.0
H105 H 0.59718 0.11771 0.76462 0.0
H106 H 0.5653 0.14652 0.71683 0.0
H107 H 0.60747 0.13169 0.70009 0.0
C108 C 0.61318 0.12688 0.71502 0.0
O109 O 0.60918 0.14234 0.72957 0.0
H110 H 0.59868 0.10441 0.7178 0.0
C111 C 0.53263 0.11426 0.76074 0.0
C112 C 0.53601 0.12683 0.74178 0.0
C113 C 0.55448 0.11089 0.76922 0.0
C114 C 0.58008 0.12013 0.75838 0.0
C115 C 0.58407 0.1331 0.7396 0.0
C116 C 0.56216 0.13671 0.73143 0.0
H117 H 0.74858 0.57347 0.93096 0.0
H118 H 0.8207 0.56069 0.9345 0.0
H119 H 0.75898 0.53223 0.98237 0.0
H120 H 0.8162 0.5456 0.99899 0.0
C121 C 0.82682 0.55126 0.98399 0.0
O122 O 0.80694 0.53607 0.96939 0.0
H123 H 0.83501 0.57376 0.98182 0.0
C124 C 0.76049 0.56558 0.93889 0.0
C125 C 0.75046 0.55252 0.95773 0.0
C126 C 0.78578 0.56873 0.93024 0.0
C127 C 0.80127 0.55872 0.94083 0.0
C128 C 0.79163 0.5456 0.95953 0.0
C129 C 0.76612 0.54223 0.96784 0.0
H130 H 0.44358 0.17314 0.92751 0.0
H131 H 0.45197 0.25357 0.93222 0.0
H132 H 0.49113 0.22771 0.97621 0.0
H133 H 0.46704 0.25957 0.99521 0.0
C134 C 0.46322 0.26766 0.98097 0.0
O135 O 0.47996 0.26615 0.96586 0.0
H136 H 0.44012 0.25473 0.97732 0.0
C137 C 0.45234 0.19285 0.93504 0.0
C138 C 0.46851 0.19771 0.95271 0.0
C139 C 0.44644 0.21289 0.9273 0.0
C140 C 0.45622 0.23777 0.93778 0.0
C141 C 0.47174 0.24262 0.95553 0.0
C142 C 0.47836 0.22301 0.96274 0.0
H143 H 0.84459 0.27073 0.92988 0.0
H144 H 0.76439 0.19478 0.9345 0.0
H145 H 0.79173 0.25323 0.98278 0.0
H146 H 0.75661 0.198 0.99913 0.0
C147 C 0.74966 0.18709 0.98449 0.0
O148 O 0.751 0.2054 0.96995 0.0
H149 H 0.76449 0.17933 0.98065 0.0
C150 C 0.8253 0.25726 0.93825 0.0
C151 C 0.82102 0.26521 0.95746 0.0
C152 C 0.80512 0.23194 0.92978 0.0
C153 C 0.78023 0.21438 0.94075 0.0
C154 C 0.77534 0.22226 0.9597 0.0
C155 C 0.79559 0.24766 0.96796 0.0
H156 H 0.58948 0.74076 0.10432 0.0
H157 H 0.58642 0.81607 0.10246 0.0
H158 H 0.54015 0.7531 0.05889 0.0
H159 H 0.56624 0.80776 0.04085 0.0
C160 C 0.57014 0.82009 0.05481 0.0
O161 O 0.55449 0.80283 0.07046 0.0
H162 H 0.59342 0.83037 0.05808 0.0
C163 C 0.5816 0.75324 0.0975 0.0
C164 C 0.56367 0.74329 0.08059 0.0
C165 C 0.58967 0.77924 0.10574 0.0
C166 C 0.58 0.79571 0.09665 0.0
C167 C 0.5626 0.78632 0.07962 0.0
C168 C 0.5541 0.7601 0.07183 0.0
H169 H 0.27998 0.84663 0.10114 0.0
H170 H 0.21036 0.76298 0.09623 0.0
H171 H 0.27255 0.79782 0.04893 0.0
H172 H 0.21487 0.75801 0.03226 0.0
C173 C 0.20462 0.75015 0.0472 0.0
O174 O 0.22534 0.75416 0.06103 0.0
H175 H 0.19385 0.76197 0.0515 0.0
C176 C 0.2689 0.8274 0.09294 0.0
C177 C 0.27961 0.82506 0.07411 0.0
C178 C 0.24388 0.8052 0.10116 0.0
C179 C 0.22956 0.78046 0.09024 0.0
C180 C 0.23987 0.77792 0.07149 0.0
C181 C 0.26497 0.80002 0.06355 0.0
H182 H 0.17473 0.43528 0.09946 0.0
H183 H 0.25916 0.44567 0.09831 0.0
H184 H 0.23244 0.47985 0.05081 0.0
H185 H 0.27478 0.46605 0.03469 0.0
C186 C 0.2794 0.45963 0.04939 0.0
O187 O 0.27474 0.4738 0.06464 0.0
H188 H 0.26447 0.437 0.05093 0.0
C189 C 0.19527 0.44295 0.09212 0.0
C190 C 0.20064 0.45759 0.0739 0.0
C191 C 0.21607 0.43847 0.10119 0.0
C192 C 0.24293 0.4492 0.0918 0.0
C193 C 0.24886 0.46408 0.07367 0.0
C194 C 0.22783 0.46858 0.06489 0.0
H195 H 0.41371 0.90576 0.26505 0.0
H196 H 0.48593 0.89319 0.26894 0.0
H197 H 0.42414 0.86498 0.31674 0.0
H198 H 0.48188 0.87868 0.33344 0.0
C199 C 0.49224 0.88434 0.31836 0.0
O200 O 0.4722 0.86887 0.30392 0.0
H201 H 0.50014 0.90678 0.31614 0.0
C202 C 0.42564 0.89796 0.27308 0.0
C203 C 0.41558 0.88501 0.29194 0.0
C204 C 0.45099 0.90112 0.26451 0.0
C205 C 0.46647 0.89121 0.27521 0.0
C206 C 0.45683 0.87824 0.29394 0.0
C207 C 0.43128 0.87487 0.30218 0.0
H208 H 0.11038 0.50539 0.26098 0.0
H209 H 0.11969 0.58625 0.26529 0.0
H210 H 0.15898 0.56044 0.30918 0.0
H211 H 0.13565 0.59215 0.32826 0.0
C212 C 0.13166 0.60047 0.31419 0.0
O213 O 0.14802 0.59895 0.2988 0.0
H214 H 0.10848 0.58771 0.31073 0.0
C215 C 0.11941 0.52521 0.26837 0.0
C216 C 0.13574 0.53015 0.28598 0.0
C217 C 0.11369 0.54534 0.26055 0.0
C218 C 0.12383 0.57039 0.27089 0.0
C219 C 0.13958 0.57534 0.28853 0.0
C220 C 0.14605 0.55566 0.29579 0.0
H221 H 0.51645 0.60459 0.26509 0.0
H222 H 0.43606 0.52851 0.26755 0.0
H223 H 0.45893 0.58775 0.31501 0.0
H224 H 0.42372 0.53365 0.33141 0.0
C225 C 0.41761 0.52206 0.317 0.0
O226 O 0.41955 0.53962 0.30163 0.0
H227 H 0.43279 0.51437 0.31432 0.0
C228 C 0.49661 0.59094 0.27284 0.0
C229 C 0.49054 0.59922 0.2913 0.0
C230 C 0.4773 0.5655 0.26406 0.0
C231 C 0.45114 0.54838 0.27385 0.0
C232 C 0.44455 0.55652 0.29212 0.0
C233 C 0.46409 0.58198 0.30071 0.0
Tb234 Tb 0.497 0.9911 0.99225 0.0
C235 C 0.55674 0.08425 0.05415 0.0
C236 C 0.6064 0.09668 0.05281 0.0
C237 C 0.59355 0.13112 0.06202 0.0
C238 C 0.57724 0.07714 0.05036 0.0
C239 C 0.56451 0.11108 0.06059 0.0
C240 C 0.61449 0.12392 0.0581 0.0
C241 C 0.51445 0.0954 0.06573 0.0
N242 N 0.52902 0.06417 0.05287 0.0
C243 C 0.50786 0.06907 0.05926 0.0
C244 C 0.54288 0.11663 0.06611 0.0
Tb245 Tb 0.52011 0.02173 0.04192 0.0
N246 N 0.56841 0.0505 0.04565 0.0
C247 C 0.58778 0.04158 0.04473 0.0
C248 C 0.62641 0.08798 0.05058 0.0
C249 C 0.617 0.0602 0.04686 0.0
H250 H 0.4858 0.05291 0.05891 0.0
H251 H 0.63224 0.0531 0.04554 0.0
H252 H 0.6368 0.13933 0.05982 0.0
H253 H 0.49758 0.0993 0.07035 0.0
H254 H 0.58106 0.02027 0.04174 0.0
H255 H 0.38495 0.96035 0.99021 0.0
H256 H 0.64903 0.10235 0.05226 0.0
H257 H 0.53065 0.95911 0.97554 0.0
H258 H 0.4363 0.99306 0.99326 0.0
H259 H 0.51827 0.91223 0.96485 0.0
H260 H 0.60001 0.15196 0.06673 0.0
H261 H 0.36772 0.91101 0.98356 0.0
H262 H 0.37945 0.87372 0.97586 0.0
H263 H 0.54794 0.13697 0.07118 0.0
H264 H 0.41583 0.86056 0.96887 0.0
N265 N 0.44859 0.96262 0.98898 0.0
C266 C 0.42936 0.97168 0.99032 0.0
C267 C 0.39041 0.9253 0.98491 0.0
C268 C 0.41024 0.91644 0.98236 0.0
C269 C 0.40006 0.95314 0.98861 0.0
C270 C 0.43951 0.93589 0.98438 0.0
H271 H 0.46774 0.87493 0.96439 0.0
N272 N 0.4876 0.94838 0.98164 0.0
C273 C 0.5016 0.91649 0.96933 0.0
C274 C 0.45978 0.92848 0.98055 0.0
C275 C 0.50852 0.94307 0.97535 0.0
C276 C 0.47306 0.89546 0.96914 0.0
C277 C 0.45167 0.90143 0.97447 0.0
O278 O 0.52004 0.00246 0.96492 0.0
O279 O 0.53041 0.02232 0.01048 0.0
O280 O 0.5179 0.05255 0.0228 0.0
O281 O 0.4864 0.02376 0.99817 0.0
O282 O 0.5426 0.00525 0.98829 0.0
O283 O 0.48252 0.00603 0.96861 0.0
O284 O 0.49791 0.01121 0.06962 0.0
O285 O 0.48677 0.9906 0.02365 0.0
O286 O 0.49941 0.96058 0.01128 0.0
O287 O 0.53126 0.98933 0.03578 0.0
O288 O 0.47443 0.0074 0.04576 0.0
O289 O 0.53353 0.00487 0.06488 0.0
C290 C 0.55202 0.02354 1.00222 0.0
C291 C 0.4933 0.9975 0.93576 0.0
C292 C 0.4977 0.00448 0.89923 0.0
C293 C 0.50531 0.01497 0.91893 0.0
C294 C 0.47777 0.9763 0.8967 0.0
C295 C 0.4733 0.96956 0.93282 0.0
C296 C 0.46562 0.95905 0.91339 0.0
C297 C 0.5003 0.04787 0.00754 0.0
C298 C 0.50239 0.00856 0.95619 0.0
C299 C 0.42255 0.88156 0.97332 0.0
C300 C 0.40184 0.88905 0.97729 0.0
C301 C 0.46502 0.98911 0.03184 0.0
C302 C 0.52541 0.0145 0.09809 0.0
C303 C 0.51457 0.99707 0.11508 0.0
C304 C 0.52501 0.00723 0.13452 0.0
C305 C 0.54611 0.03516 0.13661 0.0
C306 C 0.54654 0.04215 0.10066 0.0
C307 C 0.55673 0.05241 0.1198 0.0
C308 C 0.51765 0.96541 0.02607 0.0
C309 C 0.51475 0.00364 0.07781 0.0
H310 H 0.52088 0.03657 0.92117 0.0
H311 H 0.4712 0.96766 0.88179 0.0
H312 H 0.46364 0.95587 0.94548 0.0
H313 H 0.45016 0.93744 0.91126 0.0
H314 H 0.49845 0.9756 0.1131 0.0
H315 H 0.55423 0.04381 0.1513 0.0
H316 H 0.55523 0.05582 0.0879 0.0
H317 H 0.57295 0.07384 0.12162 0.0
Tb318 Tb 0.03176 0.50339 0.9927 0.0
C319 C 0.9318 0.46968 0.05127 0.0
C320 C 0.91796 0.50439 0.04767 0.0
C321 C 0.88254 0.45757 0.05729 0.0
C322 C 0.93878 0.49629 0.04652 0.0
C323 C 0.90376 0.45008 0.05712 0.0
C324 C 0.88964 0.48472 0.05258 0.0
C325 C 0.92044 0.4181 0.06394 0.0
N326 N 0.95301 0.46346 0.05117 0.0
C327 C 0.94798 0.43836 0.05817 0.0
C328 C 0.89813 0.42386 0.06319 0.0
Tb329 Tb 0.99728 0.49768 0.0409 0.0
N330 N 0.96644 0.51466 0.04208 0.0
C331 C 0.97504 0.54207 0.04 0.0
C332 C 0.92643 0.53215 0.04445 0.0
C333 C 0.95518 0.55113 0.04088 0.0
H334 H 0.96502 0.43364 0.05871 0.0
H335 H 0.96207 0.57275 0.03872 0.0
H336 H 0.87326 0.49045 0.05329 0.0
H337 H 0.91643 0.39806 0.06897 0.0
H338 H 0.9971 0.55709 0.03712 0.0
H339 H 0.06754 0.42875 0.99553 0.0
H340 H 0.9111 0.53923 0.04512 0.0
H341 H 0.06355 0.56704 0.97415 0.0
H342 H 0.03229 0.44415 0.99681 0.0
H343 H 0.11193 0.60253 0.96345 0.0
H344 H 0.86078 0.44275 0.06156 0.0
H345 H 0.11844 0.4624 0.98903 0.0
H346 H 0.15602 0.51109 0.9804 0.0
H347 H 0.87685 0.40818 0.06777 0.0
H348 H 0.16816 0.55853 0.97156 0.0
N349 N 0.06277 0.48658 0.99162 0.0
C350 C 0.05431 0.45923 0.99389 0.0
C351 C 0.10302 0.46936 0.98959 0.0
C352 C 0.11131 0.49703 0.9861 0.0
C353 C 0.0743 0.45031 0.9932 0.0
C354 C 0.09038 0.505 0.98709 0.0
H355 H 0.15172 0.59272 0.96484 0.0
N356 N 0.07586 0.53755 0.98209 0.0
C357 C 0.1081 0.58265 0.96875 0.0
C358 C 0.09718 0.53148 0.98209 0.0
C359 C 0.08067 0.56243 0.97478 0.0
C360 C 0.13052 0.57707 0.96961 0.0
C361 C 0.12513 0.55105 0.97603 0.0
O362 O 0.0214 0.51192 0.9641 0.0
O363 O 0.99787 0.5046 0.00903 0.0
O364 O 0.96707 0.46349 0.02211 0.0
O365 O 0.99878 0.46032 0.99987 0.0
O366 O 0.01558 0.53163 0.9858 0.0
O367 O 0.01798 0.47259 0.97054 0.0
O368 O 1.00636 0.48852 0.06975 0.0
O369 O 0.03118 0.49655 0.02457 0.0
O370 O 0.06194 0.53767 0.01125 0.0
O371 O 0.03055 0.54086 0.03388 0.0
O372 O 0.01362 0.46955 0.04778 0.0
O373 O 0.01183 0.5286 0.063 0.0
C374 C 0.996 0.52302 0.99938 0.0
C375 C 0.02942 0.48948 0.93717 0.0
C376 C 0.02583 0.48754 0.90057 0.0
C377 C 0.01352 0.48551 0.91963 0.0
C378 C 0.05437 0.49367 0.89929 0.0
C379 C 0.05775 0.49526 0.93563 0.0
C380 C 0.07015 0.4974 0.91676 0.0
C381 C 0.97324 0.44988 0.00855 0.0
C382 C 0.01624 0.48831 0.95679 0.0
C383 C 0.14646 0.54372 0.97599 0.0
C384 C 0.13956 0.51673 0.98103 0.0
C385 C 0.03319 0.47822 0.03421 0.0
C386 C 0.99918 0.51213 0.09638 0.0
C387 C 0.01467 0.51614 0.11417 0.0
C388 C 1.00242 0.51565 0.13304 0.0
C389 C 0.97431 0.5109 0.13377 0.0
C390 C 0.9713 0.50766 0.09747 0.0
C391 C 0.95893 0.50698 0.11608 0.0
C392 C 0.05588 0.55136 0.02481 0.0
C393 C 0.01245 0.51248 0.07693 0.0
H394 H 0.99167 0.48123 0.92084 0.0
H395 H 0.0643 0.49511 0.8848 0.0
H396 H 0.07028 0.49813 0.94891 0.0
H397 H 0.09204 0.5019 0.91567 0.0
H398 H 0.03639 0.52002 0.11324 0.0
H399 H 0.96405 0.50992 0.14803 0.0
H400 H 0.9591 0.50476 0.08403 0.0
H401 H 0.93733 0.50337 0.11679 0.0
Tb402 Tb 0.5339 0.50872 0.04087 0.0
C403 C 0.47212 0.54431 0.98072 0.0
C404 C 0.42238 0.50921 0.98333 0.0
C405 C 0.43536 0.55597 0.97361 0.0
C406 C 0.45157 0.51758 0.98511 0.0
C407 C 0.46437 0.56371 0.97438 0.0
C408 C 0.41437 0.52874 0.97811 0.0
C409 C 0.51428 0.59587 0.9681 0.0
N410 N 0.4998 0.55073 0.98137 0.0
C411 C 0.52086 0.57585 0.97447 0.0
C412 C 0.48594 0.58992 0.96833 0.0
Tb413 Tb 0.50868 0.51676 0.99209 0.0
N414 N 0.46029 0.49934 0.98972 0.0
C415 C 0.44068 0.47181 0.99129 0.0
C416 C 0.40221 0.48134 0.98616 0.0
C417 C 0.41144 0.4625 0.98986 0.0
H418 H 0.54286 0.58077 0.97432 0.0
H419 H 0.39606 0.44078 0.99168 0.0
H420 H 0.39205 0.5228 0.9769 0.0
H421 H 0.53109 0.61589 0.96306 0.0
H422 H 0.44727 0.45688 0.99424 0.0
H423 H 0.64619 0.58574 0.04105 0.0
H424 H 0.37957 0.47406 0.98502 0.0
H425 H 0.50063 0.44403 0.05729 0.0
H426 H 0.59478 0.56918 0.03937 0.0
H427 H 0.51317 0.40868 0.06663 0.0
H428 H 0.42893 0.57064 0.96899 0.0
H429 H 0.66337 0.55266 0.04608 0.0
H430 H 0.65164 0.50379 0.0528 0.0
H431 H 0.48089 0.60542 0.96332 0.0
H432 H 0.61534 0.45544 0.05988 0.0
N433 N 0.58239 0.52671 0.04288 0.0
C434 C 0.6017 0.55435 0.04164 0.0
C435 C 0.64065 0.54519 0.04534 0.0
C436 C 0.6208 0.51714 0.0478 0.0
C437 C 0.63103 0.56392 0.04257 0.0
C438 C 0.5915 0.50853 0.0466 0.0
H439 H 0.56358 0.41984 0.06544 0.0
N440 N 0.54344 0.47472 0.05034 0.0
C441 C 0.52972 0.42907 0.06204 0.0
C442 C 0.57126 0.4815 0.05052 0.0
C443 C 0.52271 0.44918 0.05679 0.0
C444 C 0.55819 0.43542 0.06129 0.0
C445 C 0.57945 0.46206 0.05581 0.0
O446 O 0.51301 0.49739 0.06901 0.0
O447 O 0.49975 0.50809 0.02375 0.0
O448 O 0.51236 0.55028 0.01112 0.0
O449 O 0.54455 0.55172 0.03514 0.0
O450 O 0.48823 0.47946 0.04599 0.0
O451 O 0.54952 0.53774 0.06435 0.0
O452 O 0.52955 0.52697 0.9639 0.0
O453 O 0.54289 0.51772 0.00931 0.0
O454 O 0.53091 0.47619 0.02135 0.0
O455 O 0.49723 0.47345 0.99828 0.0
O456 O 0.55431 0.54614 0.98705 0.0
O457 O 0.49337 0.48665 0.96935 0.0
C458 C 0.47831 0.48887 0.03254 0.0
C459 C 0.54226 0.51866 0.09707 0.0
C460 C 0.54228 0.52219 0.13379 0.0
C461 C 0.53179 0.52423 0.11482 0.0
C462 C 0.56303 0.51404 0.13462 0.0
C463 C 0.56322 0.51098 0.09835 0.0
C464 C 0.57341 0.50856 0.11702 0.0
C465 C 0.5306 0.5626 0.02604 0.0
C466 C 0.53101 0.52069 0.07738 0.0
C467 C 0.60857 0.47012 0.05606 0.0
C468 C 0.62923 0.49764 0.05204 0.0
C469 C 0.56435 0.53704 1.00062 0.0
C470 C 0.50028 0.50407 0.93613 0.0
C471 C 0.51177 0.499 0.9187 0.0
C472 C 0.5009 0.49953 0.89954 0.0
C473 C 0.47864 0.50558 0.89815 0.0
C474 C 0.47795 0.50981 0.93433 0.0
C475 C 0.4673 0.51066 0.91545 0.0
C476 C 0.51165 0.46299 0.00725 0.0
C477 C 0.51172 0.50322 0.95604 0.0
H478 H 0.5159 0.53058 0.11381 0.0
H479 H 0.57116 0.51171 0.14892 0.0
H480 H 0.57173 0.50688 0.08498 0.0
H481 H 0.58945 0.50242 0.11785 0.0
H482 H 0.52878 0.49421 0.92012 0.0
H483 H 0.47013 0.50666 0.88366 0.0
H484 H 0.46868 0.51354 0.94747 0.0
H485 H 0.45015 0.51526 0.9142 0.0
Tb486 Tb 0.16599 0.32351 0.32514 0.0
C487 C 0.2247 0.41842 0.38614 0.0
C488 C 0.27467 0.43199 0.38474 0.0
C489 C 0.2607 0.46571 0.3937 0.0
C490 C 0.24566 0.41191 0.38242 0.0
C491 C 0.23183 0.44517 0.39238 0.0
C492 C 0.28212 0.45914 0.38985 0.0
C493 C 0.18156 0.42847 0.39746 0.0
N494 N 0.19717 0.39787 0.38495 0.0
C495 C 0.17561 0.40225 0.39121 0.0
C496 C 0.20978 0.45014 0.39777 0.0
Tb497 Tb 0.18931 0.35561 0.37441 0.0
N498 N 0.23747 0.38535 0.37789 0.0
C499 C 0.25736 0.37708 0.37704 0.0
C500 C 0.2952 0.42395 0.38258 0.0
C501 C 0.28645 0.39626 0.37905 0.0
H502 H 0.1537 0.38573 0.39091 0.0
H503 H 0.3021 0.38967 0.37778 0.0
H504 H 0.3043 0.47495 0.39148 0.0
H505 H 0.16437 0.43195 0.40199 0.0
H506 H 0.25116 0.35586 0.3742 0.0
H507 H 0.05342 0.29081 0.32382 0.0
H508 H 0.31773 0.43874 0.38417 0.0
H509 H 0.20016 0.29185 0.30886 0.0
H510 H 0.10468 0.32434 0.32596 0.0
H511 H 0.18839 0.2447 0.29936 0.0
H512 H 0.26667 0.48649 0.39825 0.0
H513 H 0.03689 0.2413 0.31865 0.0
H514 H 0.04932 0.20422 0.31207 0.0
H515 H 0.21434 0.4704 0.40268 0.0
H516 H 0.08617 0.1916 0.30533 0.0
N517 N 0.11762 0.29424 0.32256 0.0
C518 C 0.09805 0.3029 0.32363 0.0
C519 C 0.05954 0.25596 0.31959 0.0
C520 C 0.07968 0.24744 0.3173 0.0
C521 C 0.0688 0.28389 0.32244 0.0
C522 C 0.10888 0.26737 0.31875 0.0
H523 H 0.13817 0.20669 0.30016 0.0
N524 N 0.15711 0.28058 0.31553 0.0
C525 C 0.17158 0.24876 0.30386 0.0
C526 C 0.12941 0.26025 0.31509 0.0
C527 C 0.17816 0.27548 0.3092 0.0
C528 C 0.14322 0.22734 0.30439 0.0
C529 C 0.12164 0.23304 0.30972 0.0
O530 O 0.18815 0.33371 0.29745 0.0
O531 O 0.19925 0.35558 0.34294 0.0
O532 O 0.18604 0.38553 0.35492 0.0
O533 O 0.15469 0.3558 0.33057 0.0
O534 O 0.21172 0.33858 0.32086 0.0
O535 O 0.15082 0.33752 0.30135 0.0
O536 O 0.16728 0.3451 0.40219 0.0
O537 O 0.15618 0.32372 0.35653 0.0
O538 O 0.16965 0.29413 0.34465 0.0
O539 O 0.20156 0.32389 0.36869 0.0
O540 O 0.14341 0.34026 0.3785 0.0
O541 O 0.20362 0.33983 0.39757 0.0
C542 C 0.22097 0.35715 0.33459 0.0
C543 C 0.16011 0.32708 0.26869 0.0
C544 C 0.16041 0.33208 0.23202 0.0
C545 C 0.16986 0.34373 0.25127 0.0
C546 C 0.14147 0.30345 0.2306 0.0
C547 C 0.14093 0.29875 0.26679 0.0
C548 C 0.1318 0.28701 0.24786 0.0
C549 C 0.16821 0.38013 0.33969 0.0
C550 C 0.17019 0.33938 0.28871 0.0
C551 C 0.09262 0.21272 0.3092 0.0
C552 C 0.07165 0.21991 0.31303 0.0
C553 C 0.13423 0.32172 0.36477 0.0
C554 C 0.19511 0.34943 0.43071 0.0
C555 C 0.18406 0.33223 0.44778 0.0
C556 C 0.19413 0.34264 0.46724 0.0
C557 C 0.21516 0.37061 0.46922 0.0
C558 C 0.21615 0.37713 0.43316 0.0
C559 C 0.22604 0.38764 0.45231 0.0
C560 C 0.1882 0.2997 0.35934 0.0
C561 C 0.18463 0.33824 0.41046 0.0
H562 H 0.18437 0.36572 0.25276 0.0
H563 H 0.13423 0.29364 0.21609 0.0
H564 H 0.13302 0.28566 0.27989 0.0
H565 H 0.11716 0.26506 0.24655 0.0
H566 H 0.16801 0.31072 0.44586 0.0
H567 H 0.22302 0.37949 0.48391 0.0
H568 H 0.225 0.39064 0.42032 0.0
H569 H 0.2422 0.40911 0.45405 0.0
Tb570 Tb 0.69901 0.83879 0.32698 0.0
C571 C 0.59734 0.8042 0.38457 0.0
C572 C 0.58326 0.83871 0.38081 0.0
C573 C 0.54791 0.79179 0.39024 0.0
C574 C 0.60422 0.83077 0.37984 0.0
C575 C 0.56925 0.78445 0.39022 0.0
C576 C 0.55492 0.81891 0.38555 0.0
C577 C 0.58605 0.75258 0.39709 0.0
N578 N 0.61865 0.79812 0.3846 0.0
C579 C 0.61363 0.77299 0.39152 0.0
C580 C 0.56367 0.75823 0.39622 0.0
Tb581 Tb 0.66301 0.83256 0.37466 0.0
N582 N 0.63188 0.84925 0.3755 0.0
C583 C 0.64033 0.87662 0.37334 0.0
C584 C 0.59159 0.86643 0.37754 0.0
C585 C 0.62032 0.88552 0.37407 0.0
H586 H 0.63071 0.76832 0.39217 0.0
H587 H 0.6271 0.90711 0.37186 0.0
H588 H 0.53844 0.82452 0.38612 0.0
H589 H 0.58208 0.73253 0.40207 0.0
H590 H 0.66236 0.89174 0.37054 0.0
H591 H 0.73484 0.76422 0.33038 0.0
H592 H 0.57615 0.87338 0.37808 0.0
H593 H 0.73138 0.90258 0.3088 0.0
H594 H 0.69945 0.77951 0.3308 0.0
H595 H 0.78021 0.9384 0.2992 0.0
H596 H 0.52612 0.77687 0.39436 0.0
H597 H 0.78606 0.79817 0.3255 0.0
H598 H 0.824 0.84716 0.31803 0.0
H599 H 0.54236 0.74244 0.40065 0.0
H600 H 0.83641 0.89473 0.30938 0.0
N601 N 0.73014 0.82211 0.3267 0.0
C602 C 0.72162 0.7947 0.32857 0.0
C603 C 0.77058 0.80508 0.32568 0.0
C604 C 0.779 0.83285 0.32254 0.0
C605 C 0.74169 0.78586 0.32836 0.0
C606 C 0.75798 0.84072 0.323 0.0
H607 H 0.82009 0.92884 0.3019 0.0
N608 N 0.74354 0.87322 0.31741 0.0
C609 C 0.77624 0.91851 0.30458 0.0
C610 C 0.76493 0.86728 0.31809 0.0
C611 C 0.74856 0.89812 0.30998 0.0
C612 C 0.7987 0.91307 0.30619 0.0
C613 C 0.79313 0.88702 0.31268 0.0
O614 O 0.69054 0.84798 0.29796 0.0
O615 O 0.66458 0.83966 0.34275 0.0
O616 O 0.63342 0.79847 0.35559 0.0
O617 O 0.66571 0.79561 0.33368 0.0
O618 O 0.6824 0.86657 0.31948 0.0
O619 O 0.68596 0.80825 0.30465 0.0
O620 O 0.67197 0.82351 0.40358 0.0
O621 O 0.69743 0.83163 0.35888 0.0
O622 O 0.72835 0.87296 0.34602 0.0
O623 O 0.69593 0.87582 0.36776 0.0
O624 O 0.67909 0.80437 0.3819 0.0
O625 O 0.677 0.86341 0.39679 0.0
C626 C 0.66257 0.85782 0.33287 0.0
C627 C 0.70012 0.82572 0.27161 0.0
C628 C 0.69942 0.82379 0.23486 0.0
C629 C 0.68572 0.82206 0.25335 0.0
C630 C 0.72791 0.82955 0.23501 0.0
C631 C 0.72833 0.83103 0.27137 0.0
C632 C 0.74217 0.83305 0.25317 0.0
C633 C 0.64002 0.78501 0.34218 0.0
C634 C 0.68551 0.8244 0.29067 0.0
C635 C 0.81453 0.87979 0.31328 0.0
C636 C 0.80747 0.85272 0.31822 0.0
C637 C 0.69904 0.81313 0.36861 0.0
C638 C 0.66429 0.84683 0.43016 0.0
C639 C 0.67946 0.85016 0.448 0.0
C640 C 0.66707 0.84939 0.46687 0.0
C641 C 0.63913 0.84509 0.46753 0.0
C642 C 0.63656 0.84277 0.43117 0.0
C643 C 0.62405 0.84185 0.44977 0.0
C644 C 0.72161 0.88651 0.35924 0.0
C645 C 0.67774 0.84738 0.41075 0.0
H646 H 0.66372 0.81745 0.2536 0.0
H647 H 0.73928 0.83153 0.22109 0.0
H648 H 0.73969 0.83358 0.28517 0.0
H649 H 0.76403 0.83736 0.25314 0.0
H650 H 0.70107 0.85372 0.44712 0.0
H651 H 0.62876 0.84393 0.48177 0.0
H652 H 0.62458 0.84035 0.41767 0.0
H653 H 0.60257 0.83857 0.45044 0.0
Tb654 Tb 0.198 0.84067 0.37377 0.0
C655 C 0.13646 0.87563 0.31311 0.0
C656 C 0.08676 0.84042 0.31578 0.0
C657 C 0.09956 0.88709 0.30594 0.0
C658 C 0.11598 0.8489 0.31756 0.0
C659 C 0.1286 0.89492 0.3067 0.0
C660 C 0.07865 0.85985 0.31051 0.0
C661 C 0.17848 0.92718 0.30036 0.0
N662 N 0.16417 0.88216 0.3138 0.0
C663 C 0.18516 0.90727 0.30683 0.0
C664 C 0.15011 0.92113 0.30057 0.0
Tb665 Tb 0.17322 0.84839 0.32475 0.0
N666 N 0.12481 0.83074 0.3222 0.0
C667 C 0.1053 0.80318 0.3237 0.0
C668 C 0.06669 0.81251 0.31861 0.0
C669 C 0.07604 0.79375 0.32226 0.0
H670 H 0.20719 0.91227 0.30672 0.0
H671 H 0.06073 0.77201 0.32404 0.0
H672 H 0.05631 0.85382 0.3093 0.0
H673 H 0.19524 0.9472 0.29528 0.0
H674 H 0.11199 0.78832 0.32663 0.0
H675 H 0.31016 0.91808 0.37429 0.0
H676 H 0.04403 0.80514 0.31746 0.0
H677 H 0.1647 0.77617 0.3906 0.0
H678 H 0.25875 0.90126 0.37203 0.0
H679 H 0.17732 0.74122 0.40088 0.0
H680 H 0.09306 0.90168 0.30126 0.0
H681 H 0.32747 0.8853 0.38036 0.0
H682 H 0.31586 0.83667 0.38794 0.0
H683 H 0.14498 0.93656 0.29551 0.0
H684 H 0.27962 0.78841 0.39531 0.0
N685 N 0.24648 0.85891 0.37621 0.0
C686 C 0.26572 0.88655 0.37474 0.0
C687 C 0.30475 0.87771 0.37936 0.0
C688 C 0.28495 0.8497 0.38206 0.0
C689 C 0.29505 0.89627 0.376 0.0
C690 C 0.25564 0.84092 0.38051 0.0
H691 H 0.22784 0.75269 0.40053 0.0
N692 N 0.20758 0.80697 0.38395 0.0
C693 C 0.19388 0.76157 0.39623 0.0
C694 C 0.23543 0.81393 0.38458 0.0
C695 C 0.18682 0.78147 0.39044 0.0
C696 C 0.22241 0.7681 0.39596 0.0
C697 C 0.24367 0.7947 0.3904 0.0
O698 O 0.1761 0.82974 0.40154 0.0
O699 O 0.16392 0.8398 0.35638 0.0
O700 O 0.17643 0.88185 0.34362 0.0
O701 O 0.20851 0.8836 0.36784 0.0
O702 O 0.1524 0.81102 0.37854 0.0
O703 O 0.21353 0.86961 0.39732 0.0
O704 O 0.19428 0.85862 0.29663 0.0
O705 O 0.20731 0.84954 0.34223 0.0
O706 O 0.19527 0.80793 0.35461 0.0
O707 O 0.16206 0.80522 0.33107 0.0
O708 O 0.21885 0.87793 0.31992 0.0
O709 O 0.15819 0.81824 0.30206 0.0
C710 C 0.14249 0.82035 0.36503 0.0
C711 C 0.20422 0.85041 0.43013 0.0
C712 C 0.20012 0.8513 0.46676 0.0
C713 C 0.19166 0.85451 0.44737 0.0
C714 C 0.22137 0.84394 0.46859 0.0
C715 C 0.22557 0.84338 0.43233 0.0
C716 C 0.23402 0.84011 0.45147 0.0
C717 C 0.19452 0.89431 0.35859 0.0
C718 C 0.19423 0.85284 0.41006 0.0
C719 C 0.27281 0.80293 0.39107 0.0
C720 C 0.29344 0.8304 0.38687 0.0
C721 C 0.22881 0.8689 0.33361 0.0
C722 C 0.16519 0.8356 0.26882 0.0
C723 C 0.17715 0.83103 0.25143 0.0
C724 C 0.16641 0.83153 0.23221 0.0
C725 C 0.14377 0.83705 0.23074 0.0
C726 C 0.14251 0.8408 0.26693 0.0
C727 C 0.13195 0.84161 0.24799 0.0
C728 C 0.17631 0.79476 0.34032 0.0
C729 C 0.17656 0.83484 0.28877 0.0
H730 H 0.17505 0.85981 0.44567 0.0
H731 H 0.22858 0.84165 0.48327 0.0
H732 H 0.2357 0.84041 0.41933 0.0
H733 H 0.25052 0.83466 0.45303 0.0
H734 H 0.19444 0.82664 0.25292 0.0
H735 H 0.13535 0.83811 0.21621 0.0
H736 H 0.13287 0.84413 0.28004 0.0
H737 H 0.11453 0.8458 0.24668 0.0
Tb738 Tb 0.82929 0.65605 0.65814 0.0
C739 C 0.88888 0.75097 0.71906 0.0
C740 C 0.93875 0.76423 0.71741 0.0
C741 C 0.92518 0.79821 0.72647 0.0
C742 C 0.90967 0.74427 0.71523 0.0
C743 C 0.89625 0.77779 0.72528 0.0
C744 C 0.94642 0.79144 0.7225 0.0
C745 C 0.84609 0.76139 0.73064 0.0
N746 N 0.86129 0.73053 0.71799 0.0
C747 C 0.8399 0.7351 0.72438 0.0
C748 C 0.87437 0.78295 0.73081 0.0
Tb749 Tb 0.85299 0.68814 0.70736 0.0
N750 N 0.90124 0.71767 0.71069 0.0
C751 C 0.92101 0.70924 0.70967 0.0
C752 C 0.95912 0.75601 0.71511 0.0
C753 C 0.95015 0.72829 0.71156 0.0
H754 H 0.81794 0.71869 0.72421 0.0
H755 H 0.96568 0.72156 0.71017 0.0
H756 H 0.96866 0.80716 0.72402 0.0
H757 H 0.82903 0.76502 0.73527 0.0
H758 H 0.91466 0.688 0.7068 0.0
H759 H 0.71681 0.62359 0.65631 0.0
H760 H 0.98169 0.7707 0.71659 0.0
H761 H 0.86351 0.62439 0.64195 0.0
H762 H 0.76808 0.65702 0.65868 0.0
H763 H 0.85172 0.57729 0.63229 0.0
H764 H 0.93132 0.81904 0.73101 0.0
H765 H 0.70023 0.57408 0.65107 0.0
H766 H 0.71262 0.53698 0.64446 0.0
H767 H 0.87912 0.80327 0.73571 0.0
H768 H 0.74945 0.52431 0.6378 0.0
N769 N 0.78095 0.62686 0.6554 0.0
C770 C 0.76141 0.63558 0.65634 0.0
C771 C 0.72288 0.58869 0.65212 0.0
C772 C 0.743 0.58013 0.64993 0.0
C773 C 0.73217 0.61663 0.65501 0.0
C774 C 0.77219 0.6 0.65154 0.0
H775 H 0.80147 0.53935 0.63284 0.0
N776 N 0.82043 0.61314 0.64847 0.0
C777 C 0.83491 0.58136 0.63675 0.0
C778 C 0.79272 0.59285 0.64792 0.0
C779 C 0.8415 0.60805 0.64218 0.0
C780 C 0.80653 0.55997 0.63714 0.0
C781 C 0.78494 0.56568 0.64244 0.0
O782 O 0.85131 0.66604 0.63039 0.0
O783 O 0.86267 0.68809 0.67587 0.0
O784 O 0.8496 0.71807 0.68795 0.0
O785 O 0.81812 0.6884 0.66362 0.0
O786 O 0.87507 0.67117 0.65371 0.0
O787 O 0.81429 0.67035 0.63443 0.0
O788 O 0.83108 0.67762 0.73519 0.0
O789 O 0.81955 0.65626 0.68957 0.0
O790 O 0.83259 0.62649 0.67771 0.0
O791 O 0.86509 0.65639 0.70138 0.0
O792 O 0.80731 0.67345 0.7115 0.0
O793 O 0.86716 0.67203 0.73038 0.0
C794 C 0.88437 0.68976 0.66742 0.0
C795 C 0.82329 0.65985 0.60169 0.0
C796 C 0.82329 0.66511 0.56507 0.0
C797 C 0.83295 0.67662 0.58432 0.0
C798 C 0.80423 0.63651 0.56357 0.0
C799 C 0.80404 0.63155 0.59973 0.0
C800 C 0.79469 0.61996 0.58078 0.0
C801 C 0.8317 0.71271 0.67276 0.0
C802 C 0.83352 0.67201 0.62174 0.0
C803 C 0.75591 0.54541 0.64177 0.0
C804 C 0.73495 0.55262 0.64555 0.0
C805 C 0.79785 0.65484 0.69782 0.0
C806 C 0.859 0.68166 0.76358 0.0
C807 C 0.84839 0.66436 0.78065 0.0
C808 C 0.85883 0.67474 0.80004 0.0
C809 C 0.8797 0.70277 0.802 0.0
C810 C 0.8799 0.70942 0.76601 0.0
C811 C 0.8901 0.71989 0.78511 0.0
C812 C 0.85154 0.63215 0.69213 0.0
C813 C 0.84832 0.67054 0.74335 0.0
H814 H 0.84754 0.69858 0.58585 0.0
H815 H 0.7968 0.62683 0.54905 0.0
H816 H 0.79621 0.61837 0.61279 0.0
H817 H 0.77998 0.59802 0.57941 0.0
H818 H 0.83244 0.64281 0.77877 0.0
H819 H 0.88783 0.71159 0.81666 0.0
H820 H 0.8884 0.723 0.75318 0.0
H821 H 0.90615 0.7414 0.78683 0.0
Tb822 Tb 0.36615 0.17031 0.6597 0.0
C823 C 0.265 0.13467 0.71827 0.0
C824 C 0.25021 0.1686 0.714 0.0
C825 C 0.21564 0.122 0.72468 0.0
C826 C 0.27138 0.16093 0.71298 0.0
C827 C 0.23726 0.11504 0.72472 0.0
C828 C 0.22211 0.14876 0.7193 0.0
C829 C 0.25515 0.08435 0.73279 0.0
N830 N 0.2866 0.12902 0.71841 0.0
C831 C 0.28232 0.10457 0.72625 0.0
C832 C 0.23241 0.08945 0.73174 0.0
Tb833 Tb 0.33045 0.16335 0.70757 0.0
N834 N 0.29889 0.17954 0.70836 0.0
C835 C 0.30704 0.20682 0.70607 0.0
C836 C 0.25817 0.19617 0.71043 0.0
C837 C 0.2868 0.21543 0.70676 0.0
H838 H 0.29965 0.10029 0.72704 0.0
H839 H 0.29332 0.23693 0.70438 0.0
H840 H 0.20547 0.15415 0.71992 0.0
H841 H 0.25177 0.06484 0.73857 0.0
H842 H 0.329 0.22206 0.70314 0.0
H843 H 0.40042 0.09456 0.66273 0.0
H844 H 0.24256 0.2029 0.71099 0.0
H845 H 0.39945 0.23444 0.64219 0.0
H846 H 0.36552 0.11048 0.66321 0.0
H847 H 0.44864 0.27001 0.63305 0.0
H848 H 0.1941 0.10713 0.72937 0.0
H849 H 0.4518 0.12805 0.65801 0.0
H850 H 0.49031 0.17696 0.65095 0.0
H851 H 0.21142 0.07381 0.73687 0.0
H852 H 0.50351 0.22488 0.64281 0.0
N853 N 0.3967 0.15299 0.65931 0.0
C854 C 0.38779 0.12547 0.66107 0.0
C855 C 0.43655 0.13524 0.65822 0.0
C856 C 0.44538 0.16314 0.65525 0.0
C857 C 0.40756 0.11628 0.66082 0.0
C858 C 0.42465 0.17138 0.65576 0.0
H859 H 0.488 0.2597 0.63572 0.0
N860 N 0.41097 0.20454 0.65055 0.0
C861 C 0.4443 0.24992 0.63822 0.0
C862 C 0.43207 0.19817 0.65118 0.0
C863 C 0.41644 0.22968 0.64335 0.0
C864 C 0.46647 0.24405 0.63981 0.0
C865 C 0.46042 0.21774 0.646 0.0
O866 O 0.35827 0.1806 0.63087 0.0
O867 O 0.33152 0.17062 0.67565 0.0
O868 O 0.30061 0.12857 0.689 0.0
O869 O 0.33221 0.12715 0.66551 0.0
O870 O 0.34975 0.19839 0.65285 0.0
O871 O 0.3537 0.14068 0.63677 0.0
O872 O 0.34044 0.15503 0.73642 0.0
O873 O 0.36475 0.16262 0.69148 0.0
O874 O 0.39555 0.20404 0.67897 0.0
O875 O 0.36326 0.20677 0.70086 0.0
O876 O 0.34675 0.1352 0.71436 0.0
O877 O 0.34434 0.19441 0.72952 0.0
C878 C 0.32962 0.18907 0.66605 0.0
C879 C 0.36832 0.1593 0.60406 0.0
C880 C 0.3679 0.15798 0.56731 0.0
C881 C 0.354 0.15576 0.58579 0.0
C882 C 0.39652 0.16415 0.56747 0.0
C883 C 0.39666 0.16498 0.60384 0.0
C884 C 0.41071 0.16754 0.58565 0.0
C885 C 0.30679 0.11605 0.6745 0.0
C886 C 0.35342 0.1573 0.62311 0.0
C887 C 0.48152 0.21009 0.64653 0.0
C888 C 0.474 0.18281 0.65116 0.0
C889 C 0.36656 0.14406 0.70096 0.0
C890 C 0.3322 0.17807 0.76294 0.0
C891 C 0.34767 0.18229 0.78076 0.0
C892 C 0.33525 0.18158 0.7996 0.0
C893 C 0.30695 0.17635 0.80027 0.0
C894 C 0.30416 0.17318 0.76397 0.0
C895 C 0.29159 0.17222 0.78255 0.0
C896 C 0.38896 0.21747 0.69237 0.0
C897 C 0.3457 0.17878 0.74351 0.0
H898 H 0.33189 0.15081 0.58603 0.0
H899 H 0.40802 0.16649 0.55355 0.0
H900 H 0.40794 0.16737 0.61765 0.0
H901 H 0.43267 0.17213 0.58563 0.0
H902 H 0.36953 0.18655 0.77988 0.0
H903 H 0.29657 0.17518 0.81451 0.0
H904 H 0.29199 0.1702 0.7505 0.0
H905 H 0.26986 0.16827 0.78321 0.0
Tb906 Tb 0.8682 0.17688 0.70721 0.0
C907 C 0.80452 0.20927 0.64709 0.0
C908 C 0.7549 0.17393 0.64999 0.0
C909 C 0.76743 0.22065 0.64051 0.0
C910 C 0.78415 0.18247 0.65153 0.0
C911 C 0.79651 0.2286 0.64109 0.0
C912 C 0.74664 0.19333 0.64496 0.0
C913 C 0.84634 0.26125 0.63493 0.0
N914 N 0.83229 0.21594 0.64761 0.0
C915 C 0.85317 0.24125 0.64086 0.0
C916 C 0.81791 0.25502 0.63528 0.0
Tb917 Tb 0.84156 0.18218 0.65827 0.0
N918 N 0.79309 0.16438 0.65611 0.0
C919 C 0.77364 0.13684 0.65788 0.0
C920 C 0.7349 0.14602 0.65294 0.0
C921 C 0.74436 0.12734 0.65658 0.0
H922 H 0.87523 0.24634 0.64065 0.0
H923 H 0.7291 0.10561 0.65852 0.0
H924 H 0.72426 0.18725 0.64395 0.0
H925 H 0.86301 0.28146 0.6301 0.0
H926 H 0.7804 0.12204 0.66085 0.0
H927 H 0.98105 0.25198 0.70373 0.0
H928 H 0.71222 0.13861 0.65196 0.0
H929 H 0.83418 0.11373 0.72664 0.0
H930 H 0.92985 0.23622 0.70217 0.0
H931 H 0.84604 0.07902 0.73874 0.0
H932 H 0.7608 0.23526 0.63612 0.0
H933 H 0.9974 0.219 0.71194 0.0
H934 H 0.98487 0.17093 0.72229 0.0
H935 H 0.81266 0.27051 0.63059 0.0
H936 H 0.94807 0.12377 0.73195 0.0
N937 N 0.91664 0.19417 0.70886 0.0
C938 C 0.93636 0.22142 0.70584 0.0
C939 C 0.97475 0.21187 0.71127 0.0
C940 C 0.95454 0.18438 0.71551 0.0
C941 C 0.9656 0.23054 0.70668 0.0
C942 C 0.92533 0.17617 0.71427 0.0
H943 H 0.8962 0.08939 0.73842 0.0
N944 N 0.87713 0.14339 0.719 0.0
C945 C 0.86278 0.09881 0.7333 0.0
C946 C 0.90481 0.14979 0.71958 0.0
C947 C 0.85616 0.11861 0.72646 0.0
C948 C 0.89111 0.10472 0.73305 0.0
C949 C 0.91262 0.13064 0.72642 0.0
O950 O 0.8472 0.16892 0.73525 0.0
O951 O 0.83352 0.17513 0.69006 0.0
O952 O 0.84516 0.21591 0.67691 0.0
O953 O 0.87979 0.21964 0.69945 0.0
O954 O 0.82271 0.148 0.71329 0.0
O955 O 0.88536 0.2077 0.72945 0.0
O956 O 0.86167 0.19204 0.62983 0.0
O957 O 0.87614 0.18346 0.67528 0.0
O958 O 0.86357 0.14226 0.68936 0.0
O959 O 0.83043 0.13927 0.66553 0.0
O960 O 0.88706 0.211 0.65239 0.0
O961 O 0.82593 0.1516 0.63586 0.0
C962 C 0.81237 0.15635 0.6994 0.0
C963 C 0.87649 0.19103 0.76303 0.0
C964 C 0.87186 0.19231 0.7996 0.0
C965 C 0.86325 0.19471 0.78006 0.0
C966 C 0.89398 0.1862 0.80179 0.0
C967 C 0.89868 0.18522 0.76559 0.0
C968 C 0.90732 0.18279 0.78488 0.0
C969 C 0.86506 0.22975 0.69052 0.0
C970 C 0.8662 0.19239 0.74282 0.0
C971 C 0.94161 0.13825 0.72692 0.0
C972 C 0.96255 0.1651 0.72143 0.0
C973 C 0.89739 0.20211 0.66592 0.0
C974 C 0.8319 0.16844 0.60248 0.0
C975 C 0.84376 0.16412 0.58493 0.0
C976 C 0.83266 0.1645 0.56583 0.0
C977 C 0.80974 0.16963 0.56464 0.0
C978 C 0.80892 0.17325 0.60086 0.0
C979 C 0.79799 0.17393 0.58204 0.0
C980 C 0.84428 0.12875 0.67529 0.0
C981 C 0.84384 0.16806 0.62228 0.0
H982 H 0.84596 0.19902 0.77809 0.0
H983 H 0.90131 0.18453 0.8166 0.0
H984 H 0.9093 0.18254 0.75274 0.0
H985 H 0.92445 0.17829 0.78673 0.0
H986 H 0.8613 0.16005 0.58622 0.0
H987 H 0.80102 0.1706 0.55021 0.0
H988 H 0.79938 0.17645 0.61408 0.0
H989 H 0.78035 0.17783 0.58094 0.0
H990 H 0.29366 0.87936 0.07313 0.0
H991 H 0.45083 0.93452 0.0289 0.0
H992 H 0.32511 0.82524 0.05525 0.0
H993 H 0.41531 0.98682 0.04148 0.0
H994 H 0.40451 0.894 0.03664 0.0
H995 H 0.33755 0.91867 0.06031 0.0
C996 C 0.30985 0.87575 0.06654 0.0
C997 C 0.30578 0.84895 0.06546 0.0
C998 C 0.40671 0.9143 0.03746 0.0
C999 C 0.35622 0.89402 0.05057 0.0
C1000 C 0.43313 0.93745 0.03286 0.0
C1001 C 0.4367 0.96403 0.03408 0.0
C1002 C 0.3839 0.91783 0.0438 0.0
C1003 C 0.41329 0.96663 0.04009 0.0
C1004 C 0.33487 0.89821 0.05909 0.0
C1005 C 0.32729 0.84551 0.05635 0.0
N1006 N 0.38795 0.94388 0.04476 0.0
N1007 N 0.35167 0.86779 0.04941 0.0
H1008 H 0.14526 0.41734 0.06863 0.0
H1009 H 0.08996 0.51894 0.03147 0.0
H1010 H 0.2023 0.50409 0.05785 0.0
H1011 H 0.03525 0.43256 0.0447 0.0
H1012 H 0.13179 0.51402 0.03838 0.0
H1013 H 0.10549 0.42241 0.05695 0.0
C1014 C 0.14944 0.4375 0.06372 0.0
C1015 C 0.17717 0.46039 0.06449 0.0
C1016 C 0.11065 0.49609 0.03959 0.0
C1017 C 0.13136 0.46645 0.05104 0.0
C1018 C 0.08677 0.49885 0.03549 0.0
C1019 C 0.05911 0.47591 0.03697 0.0
C1020 C 0.1068 0.47028 0.0455 0.0
C1021 C 0.05621 0.45064 0.04306 0.0
C1022 C 0.12666 0.4404 0.05701 0.0
C1023 C 0.1813 0.48589 0.05754 0.0
N1024 N 0.07968 0.44849 0.04701 0.0
N1025 N 0.1586 0.48831 0.05129 0.0
H1026 H 0.5553 0.72714 0.04073 0.0
H1027 H 0.56238 0.592 0.05838 0.0
H1028 H 0.55384 0.69622 0.10068 0.0
H1029 H 0.50849 0.59412 0.01142 0.0
H1030 H 0.56819 0.63517 0.0715 0.0
H1031 H 0.54545 0.68262 0.02708 0.0
C1032 C 0.55266 0.71106 0.05109 0.0
C1033 C 0.55579 0.71578 0.07197 0.0
C1034 C 0.55521 0.62616 0.05825 0.0
C1035 C 0.54555 0.66527 0.05625 0.0
C1036 C 0.55194 0.60156 0.05066 0.0
C1037 C 0.53515 0.58942 0.03354 0.0
C1038 C 0.54211 0.6391 0.04847 0.0
C1039 C 0.52209 0.60292 0.02435 0.0
C1040 C 0.54722 0.68574 0.04321 0.0
C1041 C 0.55255 0.69407 0.08448 0.0
N1042 N 0.52606 0.62722 0.03182 0.0
N1043 N 0.54802 0.66995 0.07642 0.0
H1044 H 0.87905 0.28709 0.95611 0.0
H1045 H 0.91575 0.42455 0.01675 0.0
H1046 H 0.81443 0.30342 0.97957 0.0
H1047 H 0.97868 0.41149 0.98631 0.0
H1048 H 0.87854 0.37894 0.00573 0.0
H1049 H 0.9158 0.33121 0.96937 0.0
C1050 C 0.87254 0.30001 0.96397 0.0
C1051 C 0.84349 0.29157 0.96647 0.0
C1052 C 0.9005 0.38602 1.00153 0.0
C1053 C 0.88575 0.34223 0.98205 0.0
C1054 C 0.92183 0.41204 0.00791 0.0
C1055 C 0.9505 0.42191 1.00254 0.0
C1056 C 0.90784 0.36968 0.98969 0.0
C1057 C 0.95693 0.40485 0.99081 0.0
C1058 C 0.8936 0.32519 0.97165 0.0
C1059 C 0.83649 0.30896 0.97732 0.0
N1060 N 0.93581 0.37963 0.9848 0.0
N1061 N 0.85746 0.3335 0.98463 0.0
H1062 H 0.70598 0.5079 0.97711 0.0
H1063 H 0.61371 0.5833 0.99123 0.0
H1064 H 0.73429 0.59179 0.959 0.0
H1065 H 0.57932 0.49642 1.00212 0.0
H1066 H 0.65989 0.58762 0.98295 0.0
H1067 H 0.66152 0.50417 0.99002 0.0
C1068 C 0.70299 0.5256 0.97598 0.0
C1069 C 0.72388 0.55012 0.96673 0.0
C1070 C 0.64239 0.56762 0.98737 0.0
C1071 C 0.67294 0.54594 0.98143 0.0
C1072 C 0.61605 0.56519 0.99215 0.0
C1073 C 0.59284 0.53963 0.99785 0.0
C1074 C 0.64558 0.54418 0.98791 0.0
C1075 C 0.59684 0.51667 0.99838 0.0
C1076 C 0.67752 0.5234 0.98326 0.0
C1077 C 0.71865 0.5723 0.96563 0.0
N1078 N 0.62269 0.51948 0.99348 0.0
N1079 N 0.69381 0.56966 0.97281 0.0
H1080 H 0.47696 0.15992 0.9316 0.0
H1081 H 0.5223 0.10037 0.02276 0.0
H1082 H 0.47423 0.18625 0.99237 0.0
H1083 H 0.4697 0.04774 0.97477 0.0
H1084 H 0.51486 0.13734 0.00991 0.0
H1085 H 0.48451 0.12358 0.94524 0.0
C1086 C 0.47776 0.15812 0.94778 0.0
C1087 C 0.47459 0.17625 0.96078 0.0
C1088 C 0.50489 0.11757 1.00235 0.0
C1089 C 0.48444 0.13521 0.97634 0.0
C1090 C 0.50894 0.09639 0.00973 0.0
C1091 C 0.49612 0.0706 1.00015 0.0
C1092 C 0.48873 0.11321 0.98488 0.0
C1093 C 0.47983 0.0671 0.98282 0.0
C1094 C 0.4823 0.13744 0.9555 0.0
C1095 C 0.47693 0.1732 0.98163 0.0
N1096 N 0.4768 0.08823 0.97565 0.0
N1097 N 0.48185 0.15317 0.98876 0.0
H1098 H 0.70213 0.18785 0.99839 0.0
H1099 H 0.60089 0.02347 0.99412 0.0
H1100 H 0.72905 0.13233 0.97565 0.0
H1101 H 0.56862 0.07869 0.00561 0.0
H1102 H 0.64876 0.0633 0.98955 0.0
H1103 H 0.65366 0.1484 1.00327 0.0
C1104 C 0.69771 0.16734 0.99433 0.0
C1105 C 0.71952 0.16327 0.98663 0.0
C1106 C 0.63129 0.06678 0.9932 0.0
C1107 C 0.66443 0.11815 0.99223 0.0
C1108 C 0.60402 0.04405 0.99588 0.0
C1109 C 0.58101 0.04782 1.00085 0.0
C1110 C 0.63559 0.09359 0.99525 0.0
C1111 C 0.58597 0.07489 1.00246 0.0
C1112 C 0.67015 0.14488 0.99712 0.0
C1113 C 0.71284 0.13635 0.98165 0.0
N1114 N 0.61278 0.09678 0.99978 0.0
N1115 N 0.68596 0.11484 0.98461 0.0
H1116 H 0.88211 0.58523 0.97114 0.0
H1117 H 0.93923 0.48276 1.00267 0.0
H1118 H 0.82746 0.5046 0.99662 0.0
H1119 H 0.9942 0.56875 0.98835 0.0
H1120 H 0.89753 0.4884 0.9975 0.0
H1121 H 0.92274 0.57753 0.97388 0.0
C1122 C 0.87866 0.56579 0.97717 0.0
C1123 C 0.85144 0.54559 0.9838 0.0
C1124 C 0.9187 0.50607 0.99556 0.0
C1125 C 0.89791 0.53656 0.98704 0.0
C1126 C 0.94253 0.50291 0.9987 0.0
C1127 C 0.97023 0.52562 0.99672 0.0
C1128 C 0.92261 0.532 0.98996 0.0
C1129 C 0.9732 0.5509 0.99053 0.0
C1130 C 0.90187 0.56142 0.97882 0.0
C1131 C 0.84815 0.52071 0.9914 0.0
N1132 N 0.94976 0.55347 0.98751 0.0
N1133 N 0.87111 0.51693 0.9929 0.0
H1134 H 0.43606 0.29395 0.96547 0.0
H1135 H 0.54372 0.43912 0.01595 0.0
H1136 H 0.50783 0.3082 1.00195 0.0
H1137 H 0.46647 0.42325 0.98573 0.0
H1138 H 0.5326 0.39219 0.00873 0.0
H1139 H 0.44854 0.34216 0.97045 0.0
C1140 C 0.45439 0.3073 0.97459 0.0
C1141 C 0.47065 0.29714 0.98369 0.0
C1142 C 0.51804 0.39891 1.00366 0.0
C1143 C 0.48529 0.35215 0.9892 0.0
C1144 C 0.5243 0.42572 0.00787 0.0
C1145 C 0.50571 0.43501 1.00178 0.0
C1146 C 0.49307 0.38117 0.99312 0.0
C1147 C 0.48131 0.41691 0.99084 0.0
C1148 C 0.46153 0.33474 0.9774 0.0
C1149 C 0.49454 0.31526 0.99499 0.0
N1150 N 0.47562 0.39078 0.98693 0.0
N1151 N 0.50108 0.34187 0.9975 0.0
H1152 H 0.15122 0.72188 0.06456 0.0
H1153 H 0.11261 0.57692 0.01483 0.0
H1154 H 0.20905 0.70986 0.02684 0.0
H1155 H 0.05095 0.59086 0.04626 0.0
H1156 H 0.14911 0.62451 0.02138 0.0
H1157 H 0.11534 0.67298 0.06055 0.0
C1158 C 0.15631 0.70886 0.05545 0.0
C1159 C 0.18286 0.71989 0.04571 0.0
C1160 C 0.12762 0.61721 0.02685 0.0
C1161 C 0.14216 0.664 0.04118 0.0
C1162 C 0.10665 0.59 0.02302 0.0
C1163 C 0.07844 0.57991 0.02966 0.0
C1164 C 0.12052 0.63457 0.03758 0.0
C1165 C 0.07232 0.59774 0.04071 0.0
C1166 C 0.13587 0.68099 0.05315 0.0
C1167 C 0.18865 0.70213 0.03436 0.0
N1168 N 0.09315 0.62422 0.04425 0.0
N1169 N 0.16842 0.6751 0.03232 0.0
H1170 H 0.29988 0.42572 0.06148 0.0
H1171 H 0.46283 0.52894 0.02924 0.0
H1172 H 0.32818 0.50667 0.03685 0.0
H1173 H 0.42906 0.44282 0.04295 0.0
H1174 H 0.41513 0.52302 0.03453 0.0
H1175 H 0.34848 0.43359 0.058 0.0
C1176 C 0.31644 0.44528 0.05549 0.0
C1177 C 0.30997 0.4655 0.0493 0.0
C1178 C 0.41811 0.50539 0.0363 0.0
C1179 C 0.36581 0.47471 0.0452 0.0
C1180 C 0.44531 0.50872 0.0331 0.0
C1181 C 0.44968 0.48609 0.03496 0.0
C1182 C 0.39525 0.47938 0.04187 0.0
C1183 C 0.42646 0.46065 0.04092 0.0
C1184 C 0.34418 0.44973 0.05341 0.0
C1185 C 0.33231 0.49053 0.04173 0.0
N1186 N 0.40029 0.45795 0.04406 0.0
N1187 N 0.3592 0.4944 0.03981 0.0
H1188 H 0.59378 0.8717 0.07138 0.0
H1189 H 0.48842 0.91112 0.01484 0.0
H1190 H 0.52642 0.81646 0.03187 0.0
H1191 H 0.56047 0.96894 0.05015 0.0
H1192 H 0.50017 0.87539 0.02261 0.0
H1193 H 0.57995 0.90674 0.06566 0.0
C1194 C 0.57612 0.86708 0.06145 0.0
C1195 C 0.56157 0.84153 0.0517 0.0
C1196 C 0.51343 0.89589 0.02866 0.0
C1197 C 0.54537 0.88115 0.04527 0.0
C1198 C 0.50682 0.91639 0.02414 0.0
C1199 C 0.52379 0.94327 0.03153 0.0
C1200 C 0.53708 0.90219 0.04081 0.0
C1201 C 0.54689 0.9486 0.04398 0.0
C1202 C 0.5682 0.88699 0.0582 0.0
C1203 C 0.53844 0.83617 0.03935 0.0
N1204 N 0.55293 0.92827 0.04816 0.0
N1205 N 0.53113 0.85588 0.03638 0.0
H1206 H 0.99023 0.15437 0.38671 0.0
H1207 H 0.123 0.26806 0.36366 0.0
H1208 H 0.96927 0.21423 0.4097 0.0
H1209 H 0.08321 0.31715 0.37395 0.0
H1210 H 0.07835 0.22674 0.37196 0.0
H1211 H 0.03436 0.19173 0.37282 0.0
C1212 C 0.99492 0.1754 0.38889 0.0
C1213 C 0.97597 0.18103 0.39963 0.0
C1214 C 0.07884 0.24628 0.37192 0.0
C1215 C 0.0275 0.22445 0.38435 0.0
C1216 C 0.10457 0.27004 0.36709 0.0
C1217 C 0.10658 0.29601 0.36749 0.0
C1218 C 0.05494 0.24852 0.3775 0.0
C1219 C 0.08234 0.29742 0.3731 0.0
C1220 C 0.02051 0.19692 0.38117 0.0
C1221 C 0.98341 0.20879 0.40198 0.0
N1222 N 0.05758 0.27405 0.37789 0.0
N1223 N 1.00853 0.22937 0.39447 0.0
H1224 H 0.87021 0.84032 0.39133 0.0
H1225 H 0.69999 0.76684 0.37856 0.0
H1226 H 0.8112 0.75462 0.40442 0.0
H1227 H 0.75604 0.85352 0.36721 0.0
H1228 H 0.74147 0.76192 0.38587 0.0
H1229 H 0.82996 0.84544 0.37959 0.0
C1230 C 0.84889 0.82254 0.39153 0.0
C1231 C 0.84407 0.79709 0.39914 0.0
C1232 C 0.74487 0.78203 0.38161 0.0
C1233 C 0.79794 0.80283 0.38592 0.0
C1234 C 0.72115 0.7848 0.37742 0.0
C1235 C 0.72464 0.81041 0.3717 0.0
C1236 C 0.77246 0.80521 0.38051 0.0
C1237 C 0.75247 0.83321 0.37094 0.0
C1238 C 0.8259 0.82551 0.38496 0.0
C1239 C 0.81593 0.77478 0.39908 0.0
N1240 N 0.77535 0.83008 0.37525 0.0
N1241 N 0.79407 0.77821 0.39272 0.0
H1242 H 0.21955 0.02856 0.43485 0.0
H1243 H 0.17239 0.92555 0.34347 0.0
H1244 H 0.22153 0.05827 0.3744 0.0
H1245 H 0.22557 0.92383 0.39113 0.0
H1246 H 0.17976 0.96961 0.35641 0.0
H1247 H 0.21047 0.98462 0.42094 0.0
C1248 C 0.21821 0.02602 0.41867 0.0
C1249 C 0.22194 0.04759 0.40581 0.0
C1250 C 0.18986 0.95951 0.36388 0.0
C1251 C 0.21039 0.99675 0.38995 0.0
C1252 C 0.18587 0.93448 0.35645 0.0
C1253 C 0.19885 0.92112 0.36592 0.0
C1254 C 0.20613 0.97072 0.38129 0.0
C1255 C 0.2153 0.93336 0.38317 0.0
C1256 C 0.21282 1.00082 0.4108 0.0
C1257 C 0.21869 0.04236 0.38498 0.0
N1258 N 0.21827 0.95734 0.39038 0.0
N1259 N 0.21307 0.01744 0.37768 0.0
H1260 H 0.54833 0.62027 0.29297 0.0
H1261 H 0.58232 0.75969 0.34946 0.0
H1262 H 0.48267 0.63823 0.31124 0.0
H1263 H 0.64632 0.74633 0.32103 0.0
H1264 H 0.54558 0.7137 0.33871 0.0
H1265 H 0.58434 0.66467 0.30629 0.0
C1266 C 0.54144 0.6336 0.29971 0.0
C1267 C 0.51235 0.62558 0.30068 0.0
C1268 C 0.56767 0.72082 0.33489 0.0
C1269 C 0.55373 0.67657 0.31632 0.0
C1270 C 0.58872 0.74705 0.3411 0.0
C1271 C 0.61755 0.75693 0.33621 0.0
C1272 C 0.57546 0.70427 0.32375 0.0
C1273 C 0.62443 0.73968 0.32513 0.0
C1274 C 0.56208 0.65895 0.30741 0.0
C1275 C 0.50479 0.64348 0.31017 0.0
N1276 N 0.60357 0.71425 0.3193 0.0
N1277 N 0.52536 0.66819 0.31754 0.0
H1278 H 0.37115 0.84044 0.3114 0.0
H1279 H 0.27802 0.91518 0.32402 0.0
H1280 H 0.3992 0.92414 0.29289 0.0
H1281 H 0.24418 0.82859 0.33591 0.0
H1282 H 0.32438 0.9197 0.3161 0.0
H1283 H 0.32654 0.8366 0.32407 0.0
C1284 C 0.36807 0.85808 0.31014 0.0
C1285 C 0.38894 0.88257 0.30084 0.0
C1286 C 0.30696 0.89972 0.32065 0.0
C1287 C 0.33782 0.87826 0.31526 0.0
C1288 C 0.28051 0.89718 0.32523 0.0
C1289 C 0.25739 0.87165 0.33107 0.0
C1290 C 0.31035 0.87641 0.32156 0.0
C1291 C 0.26161 0.84883 0.33201 0.0
C1292 C 0.34251 0.85581 0.31728 0.0
C1293 C 0.3836 0.90467 0.29956 0.0
N1294 N 0.28756 0.85174 0.3273 0.0
N1295 N 0.35867 0.90196 0.30661 0.0
H1296 H 0.14149 0.51934 0.32578 0.0
H1297 H 0.13674 0.37845 0.30696 0.0
H1298 H 0.14298 0.49122 0.26539 0.0
H1299 H 0.18916 0.43281 0.3543 0.0
H1300 H 0.12986 0.41547 0.29385 0.0
H1301 H 0.15071 0.48379 0.33891 0.0
C1302 C 0.14399 0.506 0.3152 0.0
C1303 C 0.14145 0.50856 0.29432 0.0
C1304 C 0.14275 0.41914 0.30718 0.0
C1305 C 0.15088 0.46709 0.30953 0.0
C1306 C 0.14664 0.39802 0.31476 0.0
C1307 C 0.16329 0.4023 0.33202 0.0
C1308 C 0.15506 0.44456 0.31711 0.0
C1309 C 0.17567 0.42829 0.34129 0.0
C1310 C 0.14906 0.48558 0.3228 0.0
C1311 C 0.1441 0.48988 0.28158 0.0
N1312 N 0.17107 0.44839 0.33384 0.0
N1313 N 0.14839 0.46979 0.2894 0.0
H1314 H 0.36961 0.52233 0.3304 0.0
H1315 H 0.27018 0.35776 0.32655 0.0
H1316 H 0.39758 0.46751 0.30788 0.0
H1317 H 0.23672 0.41212 0.33758 0.0
H1318 H 0.31774 0.39797 0.32176 0.0
H1319 H 0.3213 0.48255 0.33507 0.0
C1320 C 0.36545 0.50191 0.32635 0.0
C1321 C 0.38753 0.49811 0.31884 0.0
C1322 C 0.30008 0.40119 0.32535 0.0
C1323 C 0.33262 0.45263 0.32418 0.0
C1324 C 0.27299 0.37825 0.32815 0.0
C1325 C 0.24975 0.38167 0.33307 0.0
C1326 C 0.30396 0.42786 0.32722 0.0
C1327 C 0.25428 0.4086 0.33448 0.0
C1328 C 0.33797 0.47926 0.32902 0.0
C1329 C 0.38117 0.4713 0.31379 0.0
N1330 N 0.28092 0.43071 0.3317 0.0
N1331 N 0.35437 0.44961 0.31664 0.0
H1332 H 0.54739 0.91892 0.30545 0.0
H1333 H 0.60594 0.81724 0.33586 0.0
H1334 H 0.49352 0.83786 0.33052 0.0
H1335 H 0.66039 0.90339 0.3218 0.0
H1336 H 0.56403 0.8225 0.33078 0.0
H1337 H 0.58836 0.91166 0.3078 0.0
C1338 C 0.54418 0.89948 0.31131 0.0
C1339 C 0.51709 0.87902 0.31794 0.0
C1340 C 0.58513 0.84029 0.32886 0.0
C1341 C 0.56394 0.87051 0.32071 0.0
C1342 C 0.60908 0.83734 0.33195 0.0
C1343 C 0.6367 0.8602 0.33006 0.0
C1344 C 0.58882 0.86618 0.32341 0.0
C1345 C 0.63946 0.88543 0.32392 0.0
C1346 C 0.56759 0.89537 0.31272 0.0
C1347 C 0.51411 0.85416 0.32531 0.0
N1348 N 0.61588 0.8878 0.32097 0.0
N1349 N 0.53724 0.85063 0.32658 0.0
H1350 H 0.17627 0.64039 0.33557 0.0
H1351 H 0.13221 0.75584 0.31765 0.0
H1352 H 0.10501 0.62738 0.299 0.0
H1353 H 0.20726 0.77003 0.35022 0.0
H1354 H 0.12211 0.70902 0.31013 0.0
H1355 H 0.18826 0.68835 0.34077 0.0
C1356 C 0.16315 0.64774 0.3287 0.0
C1357 C 0.13934 0.62996 0.31721 0.0
C1358 C 0.14079 0.72241 0.31892 0.0
C1359 C 0.15291 0.68464 0.32286 0.0
C1360 C 0.14658 0.74916 0.32321 0.0
C1361 C 0.17037 0.76677 0.33487 0.0
C1362 C 0.15894 0.71324 0.32633 0.0
C1363 C 0.18834 0.75702 0.34155 0.0
C1364 C 0.16998 0.67505 0.33161 0.0
C1365 C 0.12326 0.64044 0.30826 0.0
N1366 N 0.18217 0.73091 0.33728 0.0
N1367 N 0.13022 0.66708 0.31139 0.0
H1368 H 0.87722 0.04519 0.36239 0.0
H1369 H 0.71495 0.92567 0.37965 0.0
H1370 H 0.81618 0.05649 0.39683 0.0
H1371 H 0.77884 0.91268 0.35066 0.0
H1372 H 0.75158 0.97343 0.3864 0.0
H1373 H 0.84139 0.99635 0.35808 0.0
C1374 C 0.85622 0.03727 0.36904 0.0
C1375 C 0.84943 0.05483 0.37972 0.0
C1376 C 0.75757 0.96011 0.37856 0.0
C1377 C 0.80836 0.99912 0.37497 0.0
C1378 C 0.73664 0.9328 0.37471 0.0
C1379 C 0.74366 0.91518 0.36426 0.0
C1380 C 0.78575 0.96991 0.37193 0.0
C1381 C 0.77223 0.92561 0.35835 0.0
C1382 C 0.83579 0.00946 0.36662 0.0
C1383 C 0.82209 0.04363 0.38828 0.0
N1384 N 0.79214 0.95227 0.36217 0.0
N1385 N 0.80248 0.01653 0.38561 0.0
H1386 H 0.99274 0.84086 0.36982 0.0
H1387 H 0.09362 0.77387 0.37502 0.0
H1388 H 0.96604 0.7601 0.39416 0.0
H1389 H 0.12626 0.85995 0.36181 0.0
H1390 H 0.04624 0.76822 0.38064 0.0
H1391 H 0.04139 0.84839 0.36558 0.0
C1392 C 0.99725 0.82487 0.37446 0.0
C1393 C 0.97534 0.79979 0.38227 0.0
C1394 C 0.06368 0.78836 0.37642 0.0
C1395 C 0.03074 0.80807 0.37734 0.0
C1396 C 0.0907 0.79154 0.37314 0.0
C1397 C 0.11369 0.81719 0.36733 0.0
C1398 C 0.05953 0.81109 0.3741 0.0
C1399 C 0.10893 0.8396 0.3656 0.0
C1400 C 0.02494 0.82911 0.37199 0.0
C1401 C 0.98225 0.77969 0.38801 0.0
N1402 N 0.08234 0.836 0.36882 0.0
N1403 N 1.00921 0.78418 0.38531 0.0
H1404 H 0.19292 0.14771 0.36589 0.0
H1405 H 0.23249 0.30472 0.3825 0.0
H1406 H 0.26364 0.20536 0.40203 0.0
H1407 H 0.1586 0.24493 0.34968 0.0
H1408 H 0.24385 0.26862 0.39047 0.0
H1409 H 0.17958 0.18308 0.36021 0.0
C1410 C 0.20564 0.16792 0.37255 0.0
C1411 C 0.22969 0.17396 0.38406 0.0
C1412 C 0.22515 0.26342 0.38152 0.0
C1413 C 0.21457 0.21438 0.37789 0.0
C1414 C 0.21863 0.28403 0.37698 0.0
C1415 C 0.19482 0.27798 0.3651 0.0
C1416 C 0.20771 0.23657 0.37416 0.0
C1417 C 0.17754 0.25073 0.35849 0.0
C1418 C 0.19804 0.18807 0.36938 0.0
C1419 C 0.24522 0.20017 0.39275 0.0
N1420 N 0.1844 0.2311 0.36302 0.0
N1421 N 0.23751 0.21953 0.38938 0.0
H1422 H 0.65852 0.48903 0.72233 0.0
H1423 H 0.74823 0.65313 0.70637 0.0
H1424 H 0.62954 0.54493 0.74065 0.0
H1425 H 0.78361 0.60013 0.69636 0.0
H1426 H 0.70228 0.6126 0.7148 0.0
H1427 H 0.70216 0.52834 0.70864 0.0
C1428 C 0.66124 0.50953 0.72335 0.0
C1429 C 0.64043 0.5137 0.73284 0.0
C1430 C 0.71996 0.60972 0.71053 0.0
C1431 C 0.69033 0.55875 0.71726 0.0
C1432 C 0.74612 0.63284 0.70565 0.0
C1433 C 0.76952 0.6299 0.70025 0.0
C1434 C 0.71723 0.58339 0.71036 0.0
C1435 C 0.76591 0.60325 0.69992 0.0
C1436 C 0.6862 0.53196 0.71562 0.0
C1437 C 0.64519 0.54076 0.73382 0.0
N1438 N 0.74024 0.58099 0.70494 0.0
N1439 N 0.66959 0.56218 0.72618 0.0
H1440 H 0.47988 0.08667 0.74017 0.0
H1441 H 0.42313 0.1855 0.69957 0.0
H1442 H 0.53663 0.17157 0.72349 0.0
H1443 H 0.36912 0.09865 0.7115 0.0
H1444 H 0.46512 0.18124 0.70723 0.0
H1445 H 0.43947 0.09086 0.72865 0.0
C1446 C 0.48385 0.10625 0.73405 0.0
C1447 C 0.51173 0.12889 0.73302 0.0
C1448 C 0.44412 0.16305 0.70798 0.0
C1449 C 0.46522 0.1339 0.71971 0.0
C1450 C 0.42014 0.16544 0.70345 0.0
C1451 C 0.39264 0.14217 0.70427 0.0
C1452 C 0.44052 0.1373 0.71379 0.0
C1453 C 0.38998 0.11697 0.71031 0.0
C1454 C 0.46071 0.10861 0.72739 0.0
C1455 C 0.51554 0.15357 0.72456 0.0
N1456 N 0.41353 0.11519 0.71476 0.0
N1457 N 0.49254 0.15551 0.7184 0.0
H1458 H 0.93667 0.3912 0.74382 0.0
H1459 H 0.8334 0.25451 0.68212 0.0
H1460 H 0.8549 0.37403 0.72081 0.0
H1461 H 0.90993 0.26834 0.71241 0.0
H1462 H 0.84278 0.29995 0.69325 0.0
H1463 H 0.92892 0.34788 0.72964 0.0
C1464 C 0.91699 0.37824 0.73585 0.0
C1465 C 0.89623 0.38611 0.73373 0.0
C1466 C 0.85755 0.29305 0.69737 0.0
C1467 C 0.88736 0.3365 0.71717 0.0
C1468 C 0.85231 0.26717 0.69094 0.0
C1469 C 0.87094 0.25759 0.69631 0.0
C1470 C 0.88161 0.30945 0.70923 0.0
C1471 C 0.89491 0.27478 0.70796 0.0
C1472 C 0.91265 0.35355 0.72765 0.0
C1473 C 0.8715 0.36881 0.72276 0.0
N1474 N 0.89951 0.29982 0.71403 0.0
N1475 N 0.86768 0.34472 0.71497 0.0
H1476 H 0.163 0.94955 0.66213 0.0
H1477 H 0.30833 0.08636 0.64212 0.0
H1478 H 0.18988 0.98091 0.60165 0.0
H1479 H 0.25249 0.08362 0.68983 0.0
H1480 H 0.26978 0.04239 0.62964 0.0
H1481 H 0.19993 0.99403 0.67523 0.0
C1482 C 0.17634 0.96564 0.65153 0.0
C1483 C 0.17317 0.961 0.63062 0.0
C1484 C 0.26617 0.05143 0.64295 0.0
C1485 C 0.21626 0.01159 0.64575 0.0
C1486 C 0.28817 0.07648 0.65017 0.0
C1487 C 0.28392 0.08872 0.66732 0.0
C1488 C 0.2399 0.03812 0.65315 0.0
C1489 C 0.25709 0.07482 0.6769 0.0
C1490 C 0.19757 0.99096 0.6591 0.0
C1491 C 0.19179 0.98283 0.61784 0.0
N1492 N 0.23617 0.05013 0.66982 0.0
N1493 N 0.2127 0.00696 0.6256 0.0
H1494 H 0.06332 0.20914 0.66279 0.0
H1495 H 0.94513 0.24553 0.65068 0.0
H1496 H 0.03737 0.21314 0.60194 0.0
H1497 H 0.91302 0.16232 0.67204 0.0
H1498 H 0.99027 0.24772 0.64145 0.0
H1499 H 0.01798 0.20398 0.67506 0.0
C1500 C 0.04829 0.20877 0.65192 0.0
C1501 C 0.05484 0.21199 0.63115 0.0
C1502 C 0.97345 0.22923 0.64854 0.0
C1503 C 1.00337 0.20702 0.64541 0.0
C1504 C 0.94778 0.22793 0.65382 0.0
C1505 C 0.92551 0.20397 0.66264 0.0
C1506 C 0.97706 0.20652 0.65227 0.0
C1507 C 0.92989 0.18151 0.66592 0.0
C1508 C 0.02249 0.20597 0.65904 0.0
C1509 C 0.03421 0.21174 0.61807 0.0
N1510 N 0.9553 0.18337 0.66087 0.0
N1511 N 1.00975 0.20976 0.62543 0.0
H1512 H 0.80542 0.85219 0.65972 0.0
H1513 H 0.79992 0.71106 0.64023 0.0
H1514 H 0.80544 0.82382 0.59917 0.0
H1515 H 0.8529 0.7654 0.68739 0.0
H1516 H 0.79294 0.7481 0.62732 0.0
H1517 H 0.81467 0.81653 0.67254 0.0
C1518 C 0.80761 0.83877 0.64903 0.0
C1519 C 0.80469 0.84132 0.6282 0.0
C1520 C 0.80598 0.75176 0.64055 0.0
C1521 C 0.81415 0.79972 0.64307 0.0
C1522 C 0.80993 0.73063 0.64803 0.0
C1523 C 0.82676 0.7349 0.66519 0.0
C1524 C 0.81842 0.77718 0.6505 0.0
C1525 C 0.83927 0.76089 0.67446 0.0
C1526 C 0.81269 0.81829 0.65645 0.0
C1527 C 0.80691 0.82251 0.61533 0.0
N1528 N 0.83462 0.781 0.66712 0.0
N1529 N 0.81124 0.80237 0.62299 0.0
H1530 H 0.03152 0.85577 0.66381 0.0
H1531 H 0.93389 0.69104 0.65897 0.0
H1532 H 0.06073 0.8022 0.64069 0.0
H1533 H 0.89954 0.74455 0.67051 0.0
H1534 H 0.98123 0.73165 0.65425 0.0
H1535 H 0.98353 0.81548 0.66833 0.0
C1536 C 0.02771 0.8355 0.65961 0.0
C1537 C 0.05004 0.8322 0.65198 0.0
C1538 C 0.9634 0.73458 0.65793 0.0
C1539 C 0.99547 0.78614 0.65711 0.0
C1540 C 0.93644 0.71141 0.66069 0.0
C1541 C 0.91302 0.71448 0.66577 0.0
C1542 C 0.96696 0.76111 0.66001 0.0
C1543 C 0.91723 0.74128 0.66731 0.0
C1544 C 1.0004 0.81256 0.66219 0.0
C1545 C 0.04411 0.80559 0.64671 0.0
N1546 N 0.94374 0.76359 0.66458 0.0
N1547 N 0.01746 0.78359 0.64947 0.0
H1548 H 0.21304 0.24822 0.63763 0.0
H1549 H 0.27313 0.14805 0.66903 0.0
H1550 H 0.15977 0.16716 0.66287 0.0
H1551 H 0.32683 0.23415 0.65445 0.0
H1552 H 0.2309 0.15271 0.66363 0.0
H1553 H 0.25432 0.24144 0.64011 0.0
C1554 C 0.21004 0.22889 0.64356 0.0
C1555 C 0.18303 0.20832 0.65026 0.0
C1556 C 0.25191 0.17061 0.66165 0.0
C1557 C 0.23022 0.20033 0.65314 0.0
C1558 C 0.27604 0.168 0.6649 0.0
C1559 C 0.30354 0.19103 0.66295 0.0
C1560 C 0.25529 0.19632 0.65598 0.0
C1561 C 0.306 0.21606 0.6566 0.0
C1562 C 0.23362 0.22505 0.64504 0.0
C1563 C 0.18029 0.18357 0.65766 0.0
N1564 N 0.28226 0.2181 0.6535 0.0
N1565 N 0.20358 0.1803 0.659 0.0
H1566 H 0.84044 0.97231 0.67187 0.0
H1567 H 0.80077 0.09042 0.65197 0.0
H1568 H 0.77148 0.96149 0.63361 0.0
H1569 H 0.87308 0.1025 0.68715 0.0
H1570 H 0.78984 0.04334 0.64482 0.0
H1571 H 0.85297 0.02036 0.67748 0.0
C1572 C 0.82792 0.98015 0.66473 0.0
C1573 C 0.80458 0.96297 0.65264 0.0
C1574 C 0.80808 0.0563 0.65412 0.0
C1575 C 0.81881 0.01775 0.65873 0.0
C1576 C 0.81435 0.08322 0.65822 0.0
C1577 C 0.83766 0.10038 0.67043 0.0
C1578 C 0.82526 0.04646 0.66227 0.0
C1579 C 0.85457 0.0899 0.67799 0.0
C1580 C 0.83507 0.00751 0.66788 0.0
C1581 C 0.78932 0.97408 0.64334 0.0
N1582 N 0.84798 0.06362 0.67385 0.0
N1583 N 0.79659 1.00076 0.64669 0.0
H1584 H 0.48294 0.38809 0.73209 0.0
H1585 H 0.4462 0.24257 0.6844 0.0
H1586 H 0.54249 0.37529 0.69703 0.0
H1587 H 0.38302 0.25715 0.71277 0.0
H1588 H 0.48252 0.29006 0.69137 0.0
H1589 H 0.44703 0.33924 0.72784 0.0
C1590 C 0.48841 0.3749 0.72353 0.0
C1591 C 0.5155 0.38569 0.71463 0.0
C1592 C 0.46073 0.28294 0.69608 0.0
C1593 C 0.47473 0.32987 0.7098 0.0
C1594 C 0.43987 0.25578 0.692 0.0
C1595 C 0.41132 0.24592 0.69764 0.0
C1596 C 0.45316 0.30047 0.70606 0.0
C1597 C 0.40469 0.26388 0.708 0.0
C1598 C 0.46795 0.34707 0.72109 0.0
C1599 C 0.52171 0.36774 0.70392 0.0
N1600 N 0.42543 0.29032 0.7118 0.0
N1601 N 0.50145 0.34075 0.70173 0.0
H1602 H 0.66084 0.17396 0.70126 0.0
H1603 H 0.76383 0.1096 0.70946 0.0
H1604 H 0.63516 0.09416 0.72706 0.0
H1605 H 0.7954 0.19529 0.69547 0.0
H1606 H 0.71605 0.10327 0.71447 0.0
H1607 H 0.70983 0.18218 0.69766 0.0
C1608 C 0.66563 0.15832 0.70634 0.0
C1609 C 0.64393 0.13332 0.7144 0.0
C1610 C 0.73334 0.12346 0.7102 0.0
C1611 C 0.69973 0.14241 0.71022 0.0
C1612 C 0.76059 0.12704 0.70727 0.0
C1613 C 0.78337 0.15275 0.70135 0.0
C1614 C 0.72877 0.14588 0.70745 0.0
C1615 C 0.77821 0.17487 0.69928 0.0
C1616 C 0.69352 0.16297 0.70425 0.0
C1617 C 0.6512 0.11368 0.72071 0.0
N1618 N 0.75141 0.17089 0.70215 0.0
N1619 N 0.67836 0.11856 0.71837 0.0
H1620 H 0.93382 0.543 0.73541 0.0
H1621 H 0.82285 0.57748 0.68197 0.0
H1622 H 0.86834 0.48764 0.69475 0.0
H1623 H 0.89658 0.63779 0.71466 0.0
H1624 H 0.83699 0.54318 0.68874 0.0
H1625 H 0.91839 0.57696 0.73017 0.0
C1626 C 0.91629 0.53815 0.72528 0.0
C1627 C 0.90262 0.51283 0.71515 0.0
C1628 C 0.85011 0.56392 0.69442 0.0
C1629 C 0.88455 0.55117 0.70936 0.0
C1630 C 0.84212 0.58359 0.69048 0.0
C1631 C 0.85888 0.61076 0.69738 0.0
C1632 C 0.8749 0.57133 0.70555 0.0
C1633 C 0.88313 0.61719 0.70888 0.0
C1634 C 0.90746 0.55744 0.72233 0.0
C1635 C 0.87965 0.50717 0.70254 0.0
N1636 N 0.89047 0.59763 0.71254 0.0
N1637 N 0.87136 0.52623 0.69995 0.0
H1638 H 0.41973 0.89658 0.2306 0.0
H1639 H 0.5559 0.00521 0.16639 0.0
H1640 H 0.50615 0.93755 0.25279 0.0
H1641 H 0.46964 0.96801 0.14427 0.0
H1642 H 0.53795 0.97838 0.19735 0.0
H1643 H 0.4374 0.92061 0.19838 0.0
C1644 C 0.44241 0.91069 0.22876 0.0
C1645 C 0.46143 0.91506 0.24456 0.0
C1646 C 0.52289 0.97597 0.18574 0.0
C1647 C 0.48186 0.94244 0.2075 0.0
C1648 C 0.53313 0.99139 0.16804 0.0
C1649 C 0.51425 0.98914 0.15272 0.0
C1650 C 0.49344 0.95803 0.1883 0.0
C1651 C 0.48502 0.97037 0.1556 0.0
C1652 C 0.45249 0.92427 0.21029 0.0
C1653 C 0.49065 0.93322 0.24106 0.0
N1654 N 0.4755 0.95568 0.17309 0.0
N1655 N 0.4999 0.94624 0.22299 0.0
H1656 H 0.11676 0.51995 0.22606 0.0
H1657 H 1.00369 0.54529 0.16626 0.0
H1658 H 0.07267 0.55906 0.25202 0.0
H1659 H 0.03879 0.49648 0.14288 0.0
H1660 H 0.03022 0.55196 0.19732 0.0
H1661 H 0.08966 0.51236 0.19507 0.0
C1662 C 0.10125 0.52677 0.22531 0.0
C1663 C 0.09704 0.54019 0.24171 0.0
C1664 C 0.03211 0.53976 0.18541 0.0
C1665 C 0.06621 0.53191 0.20613 0.0
C1666 C 0.01683 0.53581 0.16769 0.0
C1667 C 0.01888 0.52019 0.15191 0.0
C1668 C 0.04971 0.52809 0.18744 0.0
C1669 C 0.03678 0.50893 0.15452 0.0
C1670 C 0.08589 0.52257 0.20756 0.0
C1671 C 0.07697 0.549 0.23971 0.0
N1672 N 0.05148 0.51309 0.17194 0.0
N1673 N 0.06236 0.54473 0.22225 0.0
H1674 H 0.44361 0.54021 0.23096 0.0
H1675 H 0.57406 0.55038 0.16644 0.0
H1676 H 0.52897 0.5714 0.25355 0.0
H1677 H 0.48757 0.50947 0.14437 0.0
H1678 H 0.55743 0.55945 0.19802 0.0
H1679 H 0.45854 0.5292 0.19896 0.0
C1680 C 0.4654 0.54456 0.22926 0.0
C1681 C 0.48514 0.55703 0.24492 0.0
C1682 C 0.54199 0.54844 0.18633 0.0
C1683 C 0.5024 0.5448 0.20833 0.0
C1684 C 0.55149 0.54314 0.16826 0.0
C1685 C 0.53217 0.52886 0.15273 0.0
C1686 C 0.51289 0.53955 0.18903 0.0
C1687 C 0.50327 0.52067 0.15587 0.0
C1688 C 0.47394 0.53842 0.21096 0.0
C1689 C 0.51314 0.56235 0.2418 0.0
N1690 N 0.49448 0.52606 0.17369 0.0
N1691 N 0.52091 0.55632 0.22391 0.0
H1692 H 0.90274 0.41225 0.80544 0.0
H1693 H 0.04174 0.51824 0.86587 0.0
H1694 H 0.963 0.49332 0.78289 0.0
H1695 H 0.9713 0.44627 0.89321 0.0
H1696 H 0.01382 0.50913 0.83504 0.0
H1697 H 0.9279 0.42401 0.8376 0.0
C1698 C 0.92122 0.43258 0.80734 0.0
C1699 C 0.93093 0.45181 0.7915 0.0
C1700 C 1.0044 0.49544 0.84783 0.0
C1701 C 0.9599 0.46538 0.82815 0.0
C1702 C 0.02039 0.50052 0.86536 0.0
C1703 C 1.00883 0.48291 0.88206 0.0
C1704 C 0.97679 0.47239 0.84692 0.0
C1705 C 0.98093 0.46045 0.88071 0.0
C1706 C 0.9355 0.43933 0.82569 0.0
C1707 C 0.95476 0.47797 0.79477 0.0
N1708 N 0.96595 0.45571 0.86339 0.0
N1709 N 0.96863 0.48391 0.81268 0.0
H1710 H 0.60967 0.49734 0.80349 0.0
H1711 H 0.47114 0.46879 0.86699 0.0
H1712 H 0.5237 0.45394 0.78049 0.0
H1713 H 0.55692 0.51686 0.88967 0.0
H1714 H 0.49025 0.4614 0.83582 0.0
H1715 H 0.59106 0.50329 0.83561 0.0
C1716 C 0.5869 0.48914 0.80514 0.0
C1717 C 0.56825 0.47511 0.7892 0.0
C1718 C 0.50495 0.47354 0.84759 0.0
C1719 C 0.54677 0.4816 0.82605 0.0
C1720 C 0.49404 0.47788 0.8654 0.0
C1721 C 0.51244 0.4937 0.88095 0.0
C1722 C 0.53456 0.48507 0.84519 0.0
C1723 C 0.5419 0.50441 0.87815 0.0
C1724 C 0.57628 0.49241 0.82354 0.0
C1725 C 0.5389 0.46456 0.79238 0.0
N1726 N 0.55206 0.50001 0.86058 0.0
N1727 N 0.52912 0.46806 0.81038 0.0
H1728 H 0.56638 0.0705 0.78057 0.0
H1729 H 0.50471 0.05602 0.89281 0.0
H1730 H 0.53245 0.12041 0.80353 0.0
H1731 H 0.51859 0.99426 0.86463 0.0
H1732 H 0.52173 0.08394 0.86199 0.0
H1733 H 0.55586 0.04643 0.81307 0.0
C1734 C 0.557 0.07659 0.79252 0.0
C1735 C 0.5501 0.09736 0.78928 0.0
C1736 C 0.52118 0.06433 0.8626 0.0
C1737 C 0.53794 0.06988 0.8265 0.0
C1738 C 0.51165 0.04849 0.88023 0.0
C1739 C 0.51004 0.02268 0.88126 0.0
C1740 C 0.52945 0.05446 0.84592 0.0
C1741 C 0.5191 0.01385 0.86441 0.0
C1742 C 0.55084 0.06273 0.81102 0.0
C1743 C 0.53776 0.10426 0.80527 0.0
N1744 N 0.52836 0.02966 0.84746 0.0
N1745 N 0.53205 0.09055 0.82315 0.0
H1746 H 0.17634 0.27288 0.58677 0.0
H1747 H 0.13866 0.303 0.47619 0.0
H1748 H 0.09079 0.23307 0.56301 0.0
H1749 H 0.22403 0.34149 0.50015 0.0
H1750 H 0.12076 0.27598 0.5073 0.0
H1751 H 0.1942 0.29721 0.55475 0.0
C1752 C 0.16129 0.26911 0.57481 0.0
C1753 C 0.13196 0.25088 0.5777 0.0
C1754 C 0.14342 0.2903 0.50572 0.0
C1755 C 0.15233 0.27898 0.54088 0.0
C1756 C 0.15369 0.30561 0.48788 0.0
C1757 C 0.18291 0.32475 0.48553 0.0
C1758 C 0.16249 0.29406 0.52136 0.0
C1759 C 0.20128 0.3274 0.50137 0.0
C1760 C 0.17151 0.28314 0.55652 0.0
C1761 C 0.11351 0.24721 0.56164 0.0
N1762 N 0.19078 0.31235 0.51856 0.0
N1763 N 0.12398 0.26111 0.54398 0.0
H1764 H 0.73575 0.89268 0.58737 0.0
H1765 H 0.70264 0.82915 0.47629 0.0
H1766 H 0.77875 0.85311 0.5604 0.0
H1767 H 0.66841 0.87821 0.50064 0.0
H1768 H 0.72912 0.83588 0.50747 0.0
H1769 H 0.70916 0.88557 0.55625 0.0
C1770 C 0.73972 0.8826 0.57489 0.0
C1771 C 0.75965 0.87359 0.57652 0.0
C1772 C 0.71581 0.84517 0.50598 0.0
C1773 C 0.72893 0.86505 0.54085 0.0
C1774 C 0.70079 0.84147 0.48813 0.0
C1775 C 0.68324 0.85314 0.48578 0.0
C1776 C 0.71324 0.8606 0.52167 0.0
C1777 C 0.68133 0.86848 0.50183 0.0
C1778 C 0.7244 0.87843 0.55713 0.0
C1779 C 0.7634 0.86014 0.55993 0.0
N1780 N 0.69612 0.87175 0.51906 0.0
N1781 N 0.74822 0.85632 0.5428 0.0
H1782 H 0.15648 0.92955 0.56136 0.0
H1783 H 0.1819 0.82013 0.50129 0.0
H1784 H 0.13176 0.84873 0.58492 0.0
H1785 H 0.18948 0.89356 0.47403 0.0
H1786 H 0.16389 0.83016 0.53212 0.0
H1787 H 0.16906 0.91678 0.52936 0.0
C1788 C 0.15369 0.90908 0.55976 0.0
C1789 C 0.14327 0.89024 0.57587 0.0
C1790 C 0.16929 0.84397 0.51935 0.0
C1791 C 0.15764 0.87543 0.53923 0.0
C1792 C 0.17972 0.83834 0.50178 0.0
C1793 C 0.18736 0.85612 0.48508 0.0
C1794 C 0.16675 0.86773 0.52034 0.0
C1795 C 0.1837 0.8792 0.48648 0.0
C1796 C 0.16073 0.90174 0.54146 0.0
C1797 C 0.13965 0.86384 0.57287 0.0
N1798 N 0.17391 0.88446 0.50385 0.0
N1799 N 0.14709 0.8573 0.55497 0.0
H1800 H 0.63678 0.77473 0.1138 0.0
H1801 H 0.66148 0.84067 0.22386 0.0
H1802 H 0.58455 0.80569 0.13895 0.0
H1803 H 0.70213 0.79622 0.20162 0.0
H1804 H 0.63599 0.83198 0.19195 0.0
H1805 H 0.66436 0.78705 0.1448 0.0
C1806 C 0.63109 0.78411 0.12587 0.0
C1807 C 0.60807 0.78886 0.12386 0.0
C1808 C 0.65056 0.82421 0.19407 0.0
C1809 C 0.63981 0.80329 0.15941 0.0
C1810 C 0.665 0.82901 0.21233 0.0
C1811 C 0.68402 0.81916 0.21549 0.0
C1812 C 0.65522 0.80953 0.17882 0.0
C1813 C 0.68805 0.8046 0.19982 0.0
C1814 C 0.64691 0.79123 0.14355 0.0
C1815 C 0.60217 0.80173 0.13982 0.0
N1816 N 0.67379 0.80023 0.18222 0.0
N1817 N 0.61784 0.80837 0.15698 0.0
H1818 H 0.18798 0.78606 0.11174 0.0
H1819 H 0.22277 0.84982 0.22287 0.0
H1820 H 0.2734 0.83083 0.13559 0.0
H1821 H 0.13763 0.80125 0.19918 0.0
H1822 H 0.24193 0.84245 0.19149 0.0
H1823 H 0.16937 0.79095 0.144 0.0
C1824 C 0.20285 0.79675 0.1238 0.0
C1825 C 0.23235 0.80801 0.12088 0.0
C1826 C 0.21906 0.83336 0.19319 0.0
C1827 C 0.2111 0.81404 0.15797 0.0
C1828 C 0.20808 0.83743 0.21116 0.0
C1829 C 0.17852 0.82631 0.21365 0.0
C1830 C 0.20035 0.81804 0.1776 0.0
C1831 C 0.16058 0.81066 0.19784 0.0
C1832 C 0.1922 0.79968 0.14223 0.0
C1833 C 0.25055 0.82211 0.13704 0.0
N1834 N 0.17176 0.80708 0.18052 0.0
N1835 N 0.23965 0.82474 0.15486 0.0
H1836 H 0.16649 0.39136 0.11103 0.0
H1837 H 0.21381 0.3757 0.22224 0.0
H1838 H 0.24963 0.44821 0.13486 0.0
H1839 H 0.12826 0.32795 0.19909 0.0
H1840 H 0.22852 0.40183 0.19048 0.0
H1841 H 0.15361 0.36659 0.14294 0.0
C1842 C 0.18206 0.39873 0.12302 0.0
C1843 C 0.20909 0.42218 0.12027 0.0
C1844 C 0.20654 0.38562 0.19241 0.0
C1845 C 0.19448 0.39352 0.15709 0.0
C1846 C 0.19807 0.37081 0.21059 0.0
C1847 C 0.16977 0.34935 0.21335 0.0
C1848 C 0.18658 0.37892 0.17688 0.0
C1849 C 0.15043 0.34385 0.19758 0.0
C1850 C 0.1747 0.38448 0.14128 0.0
C1851 C 0.22858 0.43022 0.13626 0.0
N1852 N 0.1592 0.35841 0.1801 0.0
N1853 N 0.22086 0.41598 0.15402 0.0
H1854 H 0.75436 0.56422 0.89645 0.0
H1855 H 0.88996 0.67339 0.83202 0.0
H1856 H 0.84089 0.60519 0.91839 0.0
H1857 H 0.80364 0.63513 0.8099 0.0
H1858 H 0.87229 0.64664 0.86304 0.0
H1859 H 0.77181 0.58829 0.86423 0.0
C1860 C 0.77702 0.57834 0.89455 0.0
C1861 C 0.79613 0.5827 0.91029 0.0
C1862 C 0.85716 0.64398 0.85142 0.0
C1863 C 0.81633 0.61015 0.87321 0.0
C1864 C 0.86724 0.65936 0.83368 0.0
C1865 C 0.84826 0.65678 0.81834 0.0
C1866 C 0.82777 0.62576 0.854 0.0
C1867 C 0.8191 0.63775 0.82124 0.0
C1868 C 0.78698 0.59195 0.87607 0.0
C1869 C 0.82533 0.60088 0.90671 0.0
N1870 N 0.80974 0.62312 0.83876 0.0
N1871 N 0.83447 0.61394 0.88864 0.0
H1872 H 0.45037 0.18814 0.89274 0.0
H1873 H 0.33586 0.21105 0.83273 0.0
H1874 H 0.40507 0.22608 0.91863 0.0
H1875 H 0.3723 0.1633 0.80956 0.0
H1876 H 0.36252 0.21831 0.86381 0.0
H1877 H 0.42334 0.18025 0.86169 0.0
C1878 C 0.43461 0.19465 0.89196 0.0
C1879 C 0.43 0.20779 0.90837 0.0
C1880 C 0.36467 0.20622 0.85194 0.0
C1881 C 0.39925 0.19916 0.87272 0.0
C1882 C 0.34933 0.20193 0.83421 0.0
C1883 C 0.35172 0.18644 0.81849 0.0
C1884 C 0.38269 0.19502 0.85402 0.0
C1885 C 0.37001 0.17564 0.82115 0.0
C1886 C 0.4193 0.19027 0.87418 0.0
C1887 C 0.40965 0.21622 0.90631 0.0
N1888 N 0.38477 0.18013 0.83857 0.0
N1889 N 0.39507 0.21178 0.88883 0.0
H1890 H 0.7993 0.18229 0.91832 0.0
H1891 H 0.85867 0.23302 0.80633 0.0
H1892 H 0.82371 0.26339 0.89549 0.0
H1893 H 0.85409 0.16118 0.83414 0.0
H1894 H 0.83891 0.24111 0.83713 0.0
H1895 H 0.81226 0.1709 0.88576 0.0
C1896 C 0.80707 0.19757 0.90638 0.0
C1897 C 0.81064 0.22389 0.90966 0.0
C1898 C 0.84211 0.2235 0.83646 0.0
C1899 C 0.8256 0.21107 0.87242 0.0
C1900 C 0.85322 0.21878 0.81884 0.0
C1901 C 0.85821 0.19649 0.81771 0.0
C1902 C 0.83569 0.20567 0.85303 0.0
C1903 C 0.85097 0.17884 0.83446 0.0
C1904 C 0.81464 0.19114 0.88785 0.0
C1905 C 0.821 0.24298 0.89369 0.0
N1906 N 0.84012 0.18381 0.85142 0.0
N1907 N 0.82816 0.23622 0.8758 0.0
H1908 H 0.30388 0.10697 0.4468 0.0
H1909 H 0.32956 0.17437 0.55641 0.0
H1910 H 0.25251 0.13906 0.47165 0.0
H1911 H 0.37107 0.1308 0.53401 0.0
H1912 H 0.30384 0.16533 0.52457 0.0
H1913 H 0.3319 0.11984 0.47761 0.0
C1914 C 0.29848 0.11671 0.45877 0.0
C1915 C 0.27559 0.12164 0.45674 0.0
C1916 C 0.31866 0.15785 0.52663 0.0
C1917 C 0.30779 0.13668 0.49206 0.0
C1918 C 0.33323 0.16285 0.54485 0.0
C1919 C 0.35252 0.15331 0.54794 0.0
C1920 C 0.32345 0.14326 0.51138 0.0
C1921 C 0.35675 0.13891 0.53225 0.0
C1922 C 0.31456 0.12415 0.47634 0.0
C1923 C 0.27003 0.13496 0.47255 0.0
N1924 N 0.34232 0.13431 0.5147 0.0
N1925 N 0.28592 0.14188 0.48961 0.0
H1926 H 0.94314 0.16459 0.47002 0.0
H1927 H 0.80359 0.13414 0.53295 0.0
H1928 H 0.85775 0.12358 0.44593 0.0
H1929 H 0.88902 0.18327 0.55601 0.0
H1930 H 0.82334 0.12799 0.50165 0.0
H1931 H 0.92409 0.16999 0.50214 0.0
C1932 C 0.92043 0.15683 0.47142 0.0
C1933 C 0.90205 0.14355 0.45518 0.0
C1934 C 0.83783 0.14012 0.51353 0.0
C1935 C 0.88006 0.14938 0.49203 0.0
C1936 C 0.82654 0.14375 0.53142 0.0
C1937 C 0.84465 0.15949 0.54712 0.0
C1938 C 0.86752 0.15224 0.51121 0.0
C1939 C 0.87422 0.17085 0.54438 0.0
C1940 C 0.90955 0.15978 0.48981 0.0
C1941 C 0.87273 0.13356 0.45805 0.0
N1942 N 0.88474 0.16709 0.52674 0.0
N1943 N 0.86271 0.13668 0.47606 0.0
H1944 H 0.91688 0.78347 0.46871 0.0
H1945 H 0.79062 0.66165 0.53268 0.0
H1946 H 0.83257 0.72813 0.44594 0.0
H1947 H 0.87677 0.70833 0.55494 0.0
H1948 H 0.80593 0.68782 0.5014 0.0
H1949 H 0.90329 0.75768 0.50065 0.0
C1950 C 0.89562 0.76582 0.47034 0.0
C1951 C 0.87577 0.75818 0.45463 0.0
C1952 C 0.82159 0.69241 0.51307 0.0
C1953 C 0.85999 0.72882 0.4912 0.0
C1954 C 0.81285 0.67735 0.53097 0.0
C1955 C 0.83247 0.68249 0.54646 0.0
C1956 C 0.85025 0.71301 0.51045 0.0
C1957 C 0.86086 0.70369 0.54347 0.0
C1958 C 0.88783 0.75122 0.48862 0.0
C1959 C 0.84845 0.73522 0.45771 0.0
N1960 N 0.86893 0.71811 0.52579 0.0
N1961 N 0.8414 0.72152 0.47557 0.0
loop_
_geom_bond_atom_site_label_1
_geom_bond_atom_site_label_2
_geom_bond_distance
_geom_bond_site_symmetry_2
_ccdc_geom_bond_type
H0 C7 0.929 . S
H1 C10 0.930 . S
H2 C12 0.929 . S
H3 C4 0.969 . S
C4 H3 0.969 . S
C4 O5 1.550 . S
C4 H6 0.973 . S
O5 C4 1.550 . S
O5 C11 1.412 . S
H6 C4 0.973 . S
C7 H0 0.929 . S
C7 C8 1.400 . S
C7 C9 1.364 . S
C8 C7 1.400 . S
C8 C12 1.377 . S
C9 C7 1.364 . S
C9 C10 1.374 . S
C10 H1 0.930 . S
C10 C9 1.374 . S
C10 C11 1.383 . S
C11 O5 1.412 . S
C11 C10 1.383 . S
C11 C12 1.394 . S
C12 H2 0.929 . S
C12 C8 1.377 . S
C12 C11 1.394 . S
H13 C20 0.929 . S
H14 C23 0.930 . S
H15 C25 0.929 . S
H16 C17 0.969 . S
C17 H16 0.969 . S
C17 O18 1.550 . S
C17 H19 0.973 . S
O18 C17 1.550 . S
O18 C24 1.412 . S
H19 C17 0.973 . S
C20 H13 0.929 . S
C20 C21 1.400 . S
C20 C22 1.364 . S
C21 C20 1.400 . S
C21 C25 1.377 . S
C22 C20 1.364 . S
C22 C23 1.374 . S
C23 H14 0.930 . S
C23 C22 1.374 . S
C23 C24 1.383 . S
C24 O18 1.412 . S
C24 C23 1.383 . S
C24 C25 1.394 . S
C25 H15 0.929 . S
C25 C21 1.377 . S
C25 C24 1.394 . S
H26 C33 0.929 . S
H27 C36 0.930 . S
H28 C38 0.929 . S
H29 C30 0.969 . S
C30 H29 0.969 . S
C30 O31 1.550 . S
C30 H32 0.973 . S
O31 C30 1.550 . S
O31 C37 1.412 . S
H32 C30 0.973 . S
C33 H26 0.929 . S
C33 C34 1.400 . S
C33 C35 1.364 . S
C34 C33 1.400 . S
C34 C38 1.377 . S
C35 C33 1.364 . S
C35 C36 1.374 . S
C36 H27 0.930 . S
C36 C35 1.374 . S
C36 C37 1.383 . S
C37 O31 1.412 . S
C37 C36 1.383 . S
C37 C38 1.394 . S
C38 H28 0.929 . S
C38 C34 1.377 . S
C38 C37 1.394 . S
H39 C46 0.929 . S
H40 C49 0.930 . S
H41 C51 0.929 . S
H42 C43 0.969 . S
C43 H42 0.969 . S
C43 O44 1.550 . S
C43 H45 0.973 . S
O44 C43 1.550 . S
O44 C50 1.412 . S
H45 C43 0.973 . S
C46 H39 0.929 . S
C46 C47 1.400 . S
C46 C48 1.364 . S
C47 C46 1.400 . S
C47 C51 1.377 . S
C48 C46 1.364 . S
C48 C49 1.374 . S
C49 H40 0.930 . S
C49 C48 1.374 . S
C49 C50 1.383 . S
C50 O44 1.412 . S
C50 C49 1.383 . S
C50 C51 1.394 . S
C51 H41 0.929 . S
C51 C47 1.377 . S
C51 C50 1.394 . S
H52 C59 0.929 . S
H53 C62 0.930 . S
H54 C64 0.929 . S
H55 C56 0.969 . S
C56 H55 0.969 . S
C56 O57 1.550 . S
C56 H58 0.973 . S
O57 C56 1.550 . S
O57 C63 1.412 . S
H58 C56 0.973 . S
C59 H52 0.929 . S
C59 C60 1.400 . S
C59 C61 1.364 . S
C60 C59 1.400 . S
C60 C64 1.377 . S
C61 C59 1.364 . S
C61 C62 1.374 . S
C62 H53 0.930 . S
C62 C61 1.374 . S
C62 C63 1.383 . S
C63 O57 1.412 . S
C63 C62 1.383 . S
C63 C64 1.394 . S
C64 H54 0.929 . S
C64 C60 1.377 . S
C64 C63 1.394 . S
H65 C72 0.929 . S
H66 C75 0.930 . S
H67 C77 0.929 . S
H68 C69 0.969 . S
C69 H68 0.969 . S
C69 O70 1.550 . S
C69 H71 0.973 . S
O70 C69 1.550 . S
O70 C76 1.412 . S
H71 C69 0.973 . S
C72 H65 0.929 . S
C72 C73 1.400 . S
C72 C74 1.364 . S
C73 C72 1.400 . S
C73 C77 1.377 . S
C74 C72 1.364 . S
C74 C75 1.374 . S
C75 H66 0.930 . S
C75 C74 1.374 . S
C75 C76 1.383 . S
C76 O70 1.412 . S
C76 C75 1.383 . S
C76 C77 1.394 . S
C77 H67 0.929 . S
C77 C73 1.377 . S
C77 C76 1.394 . S
H78 C85 0.929 . S
H79 C88 0.930 . S
H80 C90 0.929 . S
H81 C82 0.969 . S
C82 H81 0.969 . S
C82 O83 1.550 . S
C82 H84 0.973 . S
O83 C82 1.550 . S
O83 C89 1.412 . S
H84 C82 0.973 . S
C85 H78 0.929 . S
C85 C86 1.400 . S
C85 C87 1.364 . S
C86 C85 1.400 . S
C86 C90 1.377 . S
C87 C85 1.364 . S
C87 C88 1.374 . S
C88 H79 0.930 . S
C88 C87 1.374 . S
C88 C89 1.383 . S
C89 O83 1.412 . S
C89 C88 1.383 . S
C89 C90 1.394 . S
C90 H80 0.929 . S
C90 C86 1.377 . S
C90 C89 1.394 . S
H91 C98 0.929 . S
H92 C101 0.930 . S
H93 C103 0.929 . S
H94 C95 0.969 . S
C95 H94 0.969 . S
C95 O96 1.550 . S
C95 H97 0.973 . S
O96 C95 1.550 . S
O96 C102 1.412 . S
H97 C95 0.973 . S
C98 H91 0.929 . S
C98 C99 1.400 . S
C98 C100 1.364 . S
C99 C98 1.400 . S
C99 C103 1.377 . S
C100 C98 1.364 . S
C100 C101 1.374 . S
C101 H92 0.930 . S
C101 C100 1.374 . S
C101 C102 1.383 . S
C102 O96 1.412 . S
C102 C101 1.383 . S
C102 C103 1.394 . S
C103 H93 0.929 . S
C103 C99 1.377 . S
C103 C102 1.394 . S
H104 C111 0.929 . S
H105 C114 0.930 . S
H106 C116 0.929 . S
H107 C108 0.969 . S
C108 H107 0.969 . S
C108 O109 1.550 . S
C108 H110 0.973 . S
O109 C108 1.550 . S
O109 C115 1.412 . S
H110 C108 0.973 . S
C111 H104 0.929 . S
C111 C112 1.400 . S
C111 C113 1.364 . S
C112 C111 1.400 . S
C112 C116 1.377 . S
C113 C111 1.364 . S
C113 C114 1.374 . S
C114 H105 0.930 . S
C114 C113 1.374 . S
C114 C115 1.383 . S
C115 O109 1.412 . S
C115 C114 1.383 . S
C115 C116 1.394 . S
C116 H106 0.929 . S
C116 C112 1.377 . S
C116 C115 1.394 . S
H117 C124 0.929 . S
H118 C127 0.930 . S
H119 C129 0.929 . S
H120 C121 0.969 . S
C121 H120 0.969 . S
C121 O122 1.550 . S
C121 H123 0.973 . S
O122 C121 1.550 . S
O122 C128 1.412 . S
H123 C121 0.973 . S
C124 H117 0.929 . S
C124 C125 1.400 . S
C124 C126 1.364 . S
C125 C124 1.400 . S
C125 C129 1.377 . S
C126 C124 1.364 . S
C126 C127 1.374 . S
C127 H118 0.930 . S
C127 C126 1.374 . S
C127 C128 1.383 . S
C128 O122 1.412 . S
C128 C127 1.383 . S
C128 C129 1.394 . S
C129 H119 0.929 . S
C129 C125 1.377 . S
C129 C128 1.394 . S
H130 C137 0.929 . S
H131 C140 0.930 . S
H132 C142 0.929 . S
H133 C134 0.969 . S
C134 H133 0.969 . S
C134 O135 1.550 . S
C134 H136 0.973 . S
O135 C134 1.550 . S
O135 C141 1.412 . S
H136 C134 0.973 . S
C137 H130 0.929 . S
C137 C138 1.400 . S
C137 C139 1.364 . S
C138 C137 1.400 . S
C138 C142 1.377 . S
C139 C137 1.364 . S
C139 C140 1.374 . S
C140 H131 0.930 . S
C140 C139 1.374 . S
C140 C141 1.383 . S
C141 O135 1.412 . S
C141 C140 1.383 . S
C141 C142 1.394 . S
C142 H132 0.929 . S
C142 C138 1.377 . S
C142 C141 1.394 . S
H143 C150 0.929 . S
H144 C153 0.930 . S
H145 C155 0.929 . S
H146 C147 0.969 . S
C147 H146 0.969 . S
C147 O148 1.550 . S
C147 H149 0.973 . S
O148 C147 1.550 . S
O148 C154 1.412 . S
H149 C147 0.973 . S
C150 H143 0.929 . S
C150 C151 1.400 . S
C150 C152 1.364 . S
C151 C150 1.400 . S
C151 C155 1.377 . S
C152 C150 1.364 . S
C152 C153 1.374 . S
C153 H144 0.930 . S
C153 C152 1.374 . S
C153 C154 1.383 . S
C154 O148 1.412 . S
C154 C153 1.383 . S
C154 C155 1.394 . S
C155 H145 0.929 . S
C155 C151 1.377 . S
C155 C154 1.394 . S
H156 C163 0.929 . S
H157 C166 0.930 . S
H158 C168 0.929 . S
H159 C160 0.969 . S
C160 H159 0.969 . S
C160 O161 1.550 . S
C160 H162 0.973 . S
O161 C160 1.550 . S
O161 C167 1.412 . S
H162 C160 0.973 . S
C163 H156 0.929 . S
C163 C164 1.400 . S
C163 C165 1.364 . S
C164 C163 1.400 . S
C164 C168 1.377 . S
C165 C163 1.364 . S
C165 C166 1.374 . S
C166 H157 0.930 . S
C166 C165 1.374 . S
C166 C167 1.383 . S
C167 O161 1.412 . S
C167 C166 1.383 . S
C167 C168 1.394 . S
C168 H158 0.929 . S
C168 C164 1.377 . S
C168 C167 1.394 . S
H169 C176 0.929 . S
H170 C179 0.930 . S
H171 C181 0.929 . S
H172 C173 0.969 . S
C173 H172 0.969 . S
C173 O174 1.550 . S
C173 H175 0.973 . S
O174 C173 1.550 . S
O174 C180 1.412 . S
H175 C173 0.973 . S
C176 H169 0.929 . S
C176 C177 1.400 . S
C176 C178 1.364 . S
C177 C176 1.400 . S
C177 C181 1.377 . S
C178 C176 1.364 . S
C178 C179 1.374 . S
C179 H170 0.930 . S
C179 C178 1.374 . S
C179 C180 1.383 . S
C180 O174 1.412 . S
C180 C179 1.383 . S
C180 C181 1.394 . S
C181 H171 0.929 . S
C181 C177 1.377 . S
C181 C180 1.394 . S
H182 C189 0.929 . S
H183 C192 0.930 . S
H184 C194 0.929 . S
H185 C186 0.969 . S
C186 H185 0.969 . S
C186 O187 1.550 . S
C186 H188 0.973 . S
O187 C186 1.550 . S
O187 C193 1.412 . S
H188 C186 0.973 . S
C189 H182 0.929 . S
C189 C190 1.400 . S
C189 C191 1.364 . S
C190 C189 1.400 . S
C190 C194 1.377 . S
C191 C189 1.364 . S
C191 C192 1.374 . S
C192 H183 0.930 . S
C192 C191 1.374 . S
C192 C193 1.383 . S
C193 O187 1.412 . S
C193 C192 1.383 . S
C193 C194 1.394 . S
C194 H184 0.929 . S
C194 C190 1.377 . S
C194 C193 1.394 . S
H195 C202 0.929 . S
H196 C205 0.930 . S
H197 C207 0.929 . S
H198 C199 0.969 . S
C199 H198 0.969 . S
C199 O200 1.550 . S
C199 H201 0.973 . S
O200 C199 1.550 . S
O200 C206 1.412 . S
H201 C199 0.973 . S
C202 H195 0.929 . S
C202 C203 1.400 . S
C202 C204 1.364 . S
C203 C202 1.400 . S
C203 C207 1.377 . S
C204 C202 1.364 . S
C204 C205 1.374 . S
C205 H196 0.930 . S
C205 C204 1.374 . S
C205 C206 1.383 . S
C206 O200 1.412 . S
C206 C205 1.383 . S
C206 C207 1.394 . S
C207 H197 0.929 . S
C207 C203 1.377 . S
C207 C206 1.394 . S
H208 C215 0.929 . S
H209 C218 0.930 . S
H210 C220 0.929 . S
H211 C212 0.969 . S
C212 H211 0.969 . S
C212 O213 1.550 . S
C212 H214 0.973 . S
O213 C212 1.550 . S
O213 C219 1.412 . S
H214 C212 0.973 . S
C215 H208 0.929 . S
C215 C216 1.400 . S
C215 C217 1.364 . S
C216 C215 1.400 . S
C216 C220 1.377 . S
C217 C215 1.364 . S
C217 C218 1.374 . S
C218 H209 0.930 . S
C218 C217 1.374 . S
C218 C219 1.383 . S
C219 O213 1.412 . S
C219 C218 1.383 . S
C219 C220 1.394 . S
C220 H210 0.929 . S
C220 C216 1.377 . S
C220 C219 1.394 . S
H221 C228 0.929 . S
H222 C231 0.930 . S
H223 C233 0.929 . S
H224 C225 0.969 . S
C225 H224 0.969 . S
C225 O226 1.550 . S
C225 H227 0.973 . S
O226 C225 1.550 . S
O226 C232 1.412 . S
H227 C225 0.973 . S
C228 H221 0.929 . S
C228 C229 1.400 . S
C228 C230 1.364 . S
C229 C228 1.400 . S
C229 C233 1.377 . S
C230 C228 1.364 . S
C230 C231 1.374 . S
C231 H222 0.930 . S
C231 C230 1.374 . S
C231 C232 1.383 . S
C232 O226 1.412 . S
C232 C231 1.383 . S
C232 C233 1.394 . S
C233 H223 0.929 . S
C233 C229 1.377 . S
C233 C232 1.394 . S
Tb234 N265 2.660 . S
Tb234 N272 2.600 . S
Tb234 O278 2.546 . S
Tb234 O279 2.610 1_566 S
Tb234 O281 2.320 1_565 S
Tb234 O282 2.552 1_565 S
Tb234 O283 2.413 1_565 S
Tb234 O285 2.362 1_556 S
Tb234 O286 2.424 . S
Tb234 C298 2.831 1_565 S
C235 C238 1.432 . S
C235 C239 1.414 . S
C235 N242 1.359 . S
C236 C238 1.417 . S
C236 C240 1.432 . S
C236 C248 1.410 . S
C237 C239 1.444 . S
C237 C240 1.317 . S
C237 H260 0.929 . S
C238 C235 1.432 . S
C238 C236 1.417 . S
C238 N246 1.360 . S
C239 C235 1.414 . S
C239 C237 1.444 . S
C239 C244 1.385 . S
C240 C236 1.432 . S
C240 C237 1.317 . S
C240 H252 0.930 . S
C241 C243 1.392 . S
C241 C244 1.370 . S
C241 H253 0.931 . S
N242 C235 1.359 . S
N242 C243 1.327 . S
N242 Tb245 2.600 . S
C243 C241 1.392 . S
C243 N242 1.327 . S
C243 H250 0.930 . S
C244 C239 1.385 . S
C244 C241 1.370 . S
C244 H263 0.930 . S
Tb245 N242 2.600 . S
Tb245 N246 2.660 . S
Tb245 O279 2.362 . S
Tb245 O280 2.421 . S
Tb245 O284 2.546 . S
Tb245 O285 2.610 1_545 S
Tb245 O287 2.320 1_545 S
Tb245 O288 2.552 1_545 S
Tb245 O289 2.413 1_545 S
Tb245 C309 2.833 . S
N246 C238 1.360 . S
N246 Tb245 2.660 . S
N246 C247 1.305 . S
C247 N246 1.305 . S
C247 C249 1.407 . S
C247 H254 0.930 . S
C248 C236 1.410 . S
C248 C249 1.345 . S
C248 H256 0.930 . S
C249 C247 1.407 . S
C249 C248 1.345 . S
C249 H251 0.930 . S
H250 C243 0.930 . S
H251 C249 0.930 . S
H252 C240 0.930 . S
H253 C241 0.931 . S
H254 C247 0.930 . S
H255 C269 0.930 . S
H256 C248 0.930 . S
H257 C275 0.930 . S
H258 C266 0.930 . S
H259 C273 0.931 . S
H260 C237 0.929 . S
H261 C267 0.930 . S
H262 C300 0.930 . S
H263 C244 0.930 . S
H264 C299 0.929 . S
N265 Tb234 2.660 . S
N265 C266 1.305 . S
N265 C270 1.360 . S
C266 H258 0.930 . S
C266 N265 1.305 . S
C266 C269 1.407 . S
C267 H261 0.930 . S
C267 C268 1.410 . S
C267 C269 1.345 . S
C268 C267 1.410 . S
C268 C270 1.417 . S
C268 C300 1.432 . S
C269 H255 0.930 . S
C269 C266 1.407 . S
C269 C267 1.345 . S
C270 N265 1.360 . S
C270 C268 1.417 . S
C270 C274 1.432 . S
H271 C276 0.930 . S
N272 Tb234 2.600 . S
N272 C274 1.359 . S
N272 C275 1.327 . S
C273 H259 0.931 . S
C273 C275 1.392 . S
C273 C276 1.370 . S
C274 C270 1.432 . S
C274 N272 1.359 . S
C274 C277 1.414 . S
C275 H257 0.930 . S
C275 N272 1.327 . S
C275 C273 1.392 . S
C276 H271 0.930 . S
C276 C273 1.370 . S
C276 C277 1.385 . S
C277 C274 1.414 . S
C277 C276 1.385 . S
C277 C299 1.444 . S
O278 Tb234 2.546 . S
O278 C298 1.226 1_565 S
O279 Tb234 2.610 1_544 S
O279 Tb245 2.362 . S
O279 C290 1.283 1_554 S
O280 Tb245 2.421 . S
O280 C297 1.262 . S
O281 Tb234 2.320 1_545 S
O281 C297 1.260 1_556 S
O282 Tb234 2.552 1_545 S
O282 C290 1.243 . S
O283 Tb234 2.413 1_545 S
O283 C298 1.278 . S
O284 Tb245 2.546 . S
O284 C309 1.251 . S
O285 Tb234 2.362 1_554 S
O285 Tb245 2.610 1_565 S
O285 C301 1.283 . S
O286 Tb234 2.424 . S
O286 C308 1.256 1_556 S
O287 Tb245 2.320 1_565 S
O287 C308 1.260 . S
O288 Tb245 2.552 1_565 S
O288 C301 1.243 . S
O289 Tb245 2.413 1_565 S
O289 C309 1.256 1_565 S
C290 O279 1.283 1_556 S
C290 O282 1.243 . S
C291 C293 1.382 . S
C291 C295 1.393 1_545 S
C291 C298 1.504 . S
C292 C293 1.400 . S
C292 C294 1.384 . S
C293 C291 1.382 . S
C293 C292 1.400 . S
C293 H310 0.930 . S
C294 C292 1.384 . S
C294 C296 1.392 1_545 S
C294 H311 0.931 . S
C295 C291 1.393 1_565 S
C295 C296 1.401 . S
C295 H312 0.930 . S
C296 C294 1.392 1_565 S
C296 C295 1.401 . S
C296 H313 0.930 . S
C297 O280 1.262 . S
C297 O281 1.260 1_554 S
C298 Tb234 2.831 1_545 S
C298 O278 1.226 1_545 S
C298 O283 1.278 . S
C298 C291 1.504 . S
C299 H264 0.929 . S
C299 C277 1.444 . S
C299 C300 1.317 . S
C300 H262 0.930 . S
C300 C268 1.432 . S
C300 C299 1.317 . S
C301 O285 1.283 . S
C301 O288 1.243 . S
C302 C303 1.337 1_545 S
C302 C306 1.431 . S
C302 C309 1.508 . S
C303 C302 1.337 1_565 S
C303 C304 1.400 . S
C303 H314 0.930 . S
C304 C303 1.400 . S
C304 C305 1.384 . S
C305 C304 1.384 . S
C305 C307 1.392 1_565 S
C305 H315 0.931 . S
C306 C302 1.431 . S
C306 C307 1.401 . S
C306 H316 0.930 . S
C307 C305 1.392 1_545 S
C307 C306 1.401 . S
C307 H317 0.930 . S
C308 O286 1.256 1_554 S
C308 O287 1.260 . S
C309 Tb245 2.833 . S
C309 O284 1.251 . S
C309 O289 1.256 1_545 S
C309 C302 1.508 . S
H310 C293 0.930 . S
H311 C294 0.931 . S
H312 C295 0.930 . S
H313 C296 0.930 . S
H314 C303 0.930 . S
H315 C305 0.931 . S
H316 C306 0.930 . S
H317 C307 0.930 . S
Tb318 N349 2.660 . S
Tb318 N356 2.600 . S
Tb318 O362 2.546 . S
Tb318 O363 2.610 1_456 S
Tb318 O365 2.320 1_455 S
Tb318 O366 2.552 1_455 S
Tb318 O367 2.413 . S
Tb318 O369 2.362 1_556 S
Tb318 O370 2.397 1_556 S
Tb318 C382 2.833 . S
C319 C322 1.432 . S
C319 C323 1.414 . S
C319 N326 1.359 . S
C320 C322 1.417 . S
C320 C324 1.432 . S
C320 C332 1.410 . S
C321 C323 1.444 . S
C321 C324 1.317 . S
C321 H344 0.929 . S
C322 C319 1.432 . S
C322 C320 1.417 . S
C322 N330 1.360 . S
C323 C319 1.414 . S
C323 C321 1.444 . S
C323 C328 1.385 . S
C324 C320 1.432 . S
C324 C321 1.317 . S
C324 H336 0.930 . S
C325 C327 1.392 . S
C325 C328 1.370 . S
C325 H337 0.931 . S
N326 C319 1.359 . S
N326 C327 1.327 . S
N326 Tb329 2.600 . S
C327 C325 1.392 . S
C327 N326 1.327 . S
C327 H334 0.930 . S
C328 C323 1.385 . S
C328 C325 1.370 . S
C328 H347 0.930 . S
Tb329 N326 2.600 . S
Tb329 N330 2.660 . S
Tb329 O363 2.362 . S
Tb329 O364 2.421 . S
Tb329 O368 2.546 . S
Tb329 O369 2.610 1_655 S
Tb329 O371 2.320 1_655 S
Tb329 O372 2.552 1_655 S
Tb329 O373 2.413 1_655 S
Tb329 C393 2.833 . S
N330 C322 1.360 . S
N330 Tb329 2.660 . S
N330 C331 1.305 . S
C331 N330 1.305 . S
C331 C333 1.407 . S
C331 H338 0.930 . S
C332 C320 1.410 . S
C332 C333 1.345 . S
C332 H340 0.930 . S
C333 C331 1.407 . S
C333 C332 1.345 . S
C333 H335 0.930 . S
H334 C327 0.930 . S
H335 C333 0.930 . S
H336 C324 0.930 . S
H337 C325 0.931 . S
H338 C331 0.930 . S
H339 C353 0.930 . S
H340 C332 0.930 . S
H341 C359 0.930 . S
H342 C350 0.930 . S
H343 C357 0.931 . S
H344 C321 0.929 . S
H345 C351 0.930 . S
H346 C384 0.930 . S
H347 C328 0.930 . S
H348 C383 0.929 . S
N349 Tb318 2.660 . S
N349 C350 1.305 . S
N349 C354 1.360 . S
C350 H342 0.930 . S
C350 N349 1.305 . S
C350 C353 1.407 . S
C351 H345 0.930 . S
C351 C352 1.410 . S
C351 C353 1.345 . S
C352 C351 1.410 . S
C352 C354 1.417 . S
C352 C384 1.432 . S
C353 H339 0.930 . S
C353 C350 1.407 . S
C353 C351 1.345 . S
C354 N349 1.360 . S
C354 C352 1.417 . S
C354 C358 1.432 . S
H355 C360 0.930 . S
N356 Tb318 2.600 . S
N356 C358 1.359 . S
N356 C359 1.327 . S
C357 H343 0.931 . S
C357 C359 1.392 . S
C357 C360 1.370 . S
C358 C354 1.432 . S
C358 N356 1.359 . S
C358 C361 1.414 . S
C359 H341 0.930 . S
C359 N356 1.327 . S
C359 C357 1.392 . S
C360 H355 0.930 . S
C360 C357 1.370 . S
C360 C361 1.385 . S
C361 C358 1.414 . S
C361 C360 1.385 . S
C361 C383 1.444 . S
O362 Tb318 2.546 . S
O362 C382 1.251 . S
O363 Tb318 2.610 1_654 S
O363 Tb329 2.362 . S
O363 C374 1.283 1_554 S
O364 Tb329 2.421 . S
O364 C381 1.262 . S
O365 Tb318 2.320 1_655 S
O365 C381 1.260 1_556 S
O366 Tb318 2.552 1_655 S
O366 C374 1.243 . S
O367 Tb318 2.413 . S
O367 C382 1.257 . S
O368 Tb329 2.546 . S
O368 C393 1.251 . S
O369 Tb318 2.362 1_554 S
O369 Tb329 2.610 1_455 S
O369 C385 1.283 . S
O370 Tb318 2.397 1_554 S
O370 C392 1.309 . S
O371 Tb329 2.320 1_455 S
O371 C392 1.260 . S
O372 Tb329 2.552 1_455 S
O372 C385 1.243 . S
O373 Tb329 2.413 1_455 S
O373 C393 1.256 1_455 S
C374 O363 1.283 1_556 S
C374 O366 1.243 . S
C375 C377 1.382 1_455 S
C375 C379 1.393 . S
C375 C382 1.500 . S
C376 C377 1.400 . S
C376 C378 1.384 . S
C377 C375 1.382 1_655 S
C377 C376 1.400 . S
C377 H394 0.930 . S
C378 C376 1.384 . S
C378 C380 1.392 1_655 S
C378 H395 0.931 . S
C379 C375 1.393 . S
C379 C380 1.401 . S
C379 H396 0.930 . S
C380 C378 1.392 1_455 S
C380 C379 1.401 . S
C380 H397 0.930 . S
C381 O364 1.262 . S
C381 O365 1.260 1_554 S
C382 Tb318 2.833 . S
C382 O362 1.251 . S
C382 O367 1.257 . S
C382 C375 1.500 . S
C383 H348 0.929 . S
C383 C361 1.444 . S
C383 C384 1.317 . S
C384 H346 0.930 . S
C384 C352 1.432 . S
C384 C383 1.317 . S
C385 O369 1.283 . S
C385 O372 1.243 . S
C386 C387 1.382 . S
C386 C390 1.393 1_455 S
C386 C393 1.500 1_455 S
C387 C386 1.382 . S
C387 C388 1.400 . S
C387 H398 0.930 . S
C388 C387 1.400 . S
C388 C389 1.384 . S
C389 C388 1.384 . S
C389 C391 1.392 1_455 S
C389 H399 0.931 . S
C390 C386 1.393 1_655 S
C390 C391 1.401 . S
C390 H400 0.930 . S
C391 C389 1.392 1_655 S
C391 C390 1.401 . S
C391 H401 0.930 . S
C392 O370 1.309 . S
C392 O371 1.260 . S
C393 Tb329 2.833 . S
C393 O368 1.251 . S
C393 O373 1.256 1_655 S
C393 C386 1.500 1_655 S
H394 C377 0.930 . S
H395 C378 0.931 . S
H396 C379 0.930 . S
H397 C380 0.930 . S
H398 C387 0.930 . S
H399 C389 0.931 . S
H400 C390 0.930 . S
H401 C391 0.930 . S
Tb402 N433 2.660 . S
Tb402 N440 2.600 . S
Tb402 O446 2.546 . S
Tb402 O447 2.610 . S
Tb402 O449 2.320 . S
Tb402 O450 2.552 . S
Tb402 O451 2.413 . S
Tb402 O453 2.362 . S
Tb402 O454 2.421 . S
Tb402 C466 2.833 . S
C403 C406 1.432 . S
C403 C407 1.414 . S
C403 N410 1.359 . S
C404 C406 1.417 . S
C404 C408 1.432 . S
C404 C416 1.410 . S
C405 C407 1.444 . S
C405 C408 1.317 . S
C405 H428 0.929 . S
C406 C403 1.432 . S
C406 C404 1.417 . S
C406 N414 1.360 . S
C407 C403 1.414 . S
C407 C405 1.444 . S
C407 C412 1.385 . S
C408 C404 1.432 . S
C408 C405 1.317 . S
C408 H420 0.930 . S
C409 C411 1.392 . S
C409 C412 1.370 . S
C409 H421 0.931 . S
N410 C403 1.359 . S
N410 C411 1.327 . S
N410 Tb413 2.600 . S
C411 C409 1.392 . S
C411 N410 1.327 . S
C411 H418 0.930 . S
C412 C407 1.385 . S
C412 C409 1.370 . S
C412 H431 0.930 . S
Tb413 N410 2.600 . S
Tb413 N414 2.660 . S
Tb413 O447 2.362 1_556 S
Tb413 O448 2.421 1_556 S
Tb413 O452 2.546 . S
Tb413 O453 2.610 1_556 S
Tb413 O455 2.320 . S
Tb413 O456 2.552 . S
Tb413 O457 2.413 . S
Tb413 C477 2.833 . S
N414 C406 1.360 . S
N414 Tb413 2.660 . S
N414 C415 1.305 . S
C415 N414 1.305 . S
C415 C417 1.407 . S
C415 H422 0.930 . S
C416 C404 1.410 . S
C416 C417 1.345 . S
C416 H424 0.930 . S
C417 C415 1.407 . S
C417 C416 1.345 . S
C417 H419 0.930 . S
H418 C411 0.930 . S
H419 C417 0.930 . S
H420 C408 0.930 . S
H421 C409 0.931 . S
H422 C415 0.930 . S
H423 C437 0.930 . S
H424 C416 0.930 . S
H425 C443 0.930 . S
H426 C434 0.930 . S
H427 C441 0.931 . S
H428 C405 0.929 . S
H429 C435 0.930 . S
H430 C468 0.930 . S
H431 C412 0.930 . S
H432 C467 0.929 . S
N433 Tb402 2.660 . S
N433 C434 1.305 . S
N433 C438 1.360 . S
C434 H426 0.930 . S
C434 N433 1.305 . S
C434 C437 1.407 . S
C435 H429 0.930 . S
C435 C436 1.410 . S
C435 C437 1.345 . S
C436 C435 1.410 . S
C436 C438 1.417 . S
C436 C468 1.432 . S
C437 H423 0.930 . S
C437 C434 1.407 . S
C437 C435 1.345 . S
C438 N433 1.360 . S
C438 C436 1.417 . S
C438 C442 1.432 . S
H439 C444 0.930 . S
N440 Tb402 2.600 . S
N440 C442 1.359 . S
N440 C443 1.327 . S
C441 H427 0.931 . S
C441 C443 1.392 . S
C441 C444 1.370 . S
C442 C438 1.432 . S
C442 N440 1.359 . S
C442 C445 1.414 . S
C443 H425 0.930 . S
C443 N440 1.327 . S
C443 C441 1.392 . S
C444 H439 0.930 . S
C444 C441 1.370 . S
C444 C445 1.385 . S
C445 C442 1.414 . S
C445 C444 1.385 . S
C445 C467 1.444 . S
O446 Tb402 2.546 . S
O446 C466 1.251 . S
O447 Tb402 2.610 . S
O447 Tb413 2.362 1_554 S
O447 C458 1.283 . S
O448 Tb413 2.421 1_554 S
O448 C465 1.262 . S
O449 Tb402 2.320 . S
O449 C465 1.260 . S
O450 Tb402 2.552 . S
O450 C458 1.243 . S
O451 Tb402 2.413 . S
O451 C466 1.256 . S
O452 Tb413 2.546 . S
O452 C477 1.251 . S
O453 Tb402 2.362 . S
O453 Tb413 2.610 1_554 S
O453 C469 1.283 1_554 S
O454 Tb402 2.421 . S
O454 C476 1.262 . S
O455 Tb413 2.320 . S
O455 C476 1.260 1_556 S
O456 Tb413 2.552 . S
O456 C469 1.243 . S
O457 Tb413 2.413 . S
O457 C477 1.256 . S
C458 O447 1.283 . S
C458 O450 1.243 . S
C459 C461 1.382 . S
C459 C463 1.393 . S
C459 C466 1.500 . S
C460 C461 1.400 . S
C460 C462 1.384 . S
C461 C459 1.382 . S
C461 C460 1.400 . S
C461 H478 0.930 . S
C462 C460 1.384 . S
C462 C464 1.392 . S
C462 H479 0.931 . S
C463 C459 1.393 . S
C463 C464 1.401 . S
C463 H480 0.930 . S
C464 C462 1.392 . S
C464 C463 1.401 . S
C464 H481 0.930 . S
C465 O448 1.262 . S
C465 O449 1.260 . S
C466 Tb402 2.833 . S
C466 O446 1.251 . S
C466 O451 1.256 . S
C466 C459 1.500 . S
C467 H432 0.929 . S
C467 C445 1.444 . S
C467 C468 1.317 . S
C468 H430 0.930 . S
C468 C436 1.432 . S
C468 C467 1.317 . S
C469 O453 1.283 1_556 S
C469 O456 1.243 . S
C470 C471 1.382 . S
C470 C474 1.393 . S
C470 C477 1.500 . S
C471 C470 1.382 . S
C471 C472 1.400 . S
C471 H482 0.930 . S
C472 C471 1.400 . S
C472 C473 1.384 . S
C473 C472 1.384 . S
C473 C475 1.392 . S
C473 H483 0.931 . S
C474 C470 1.393 . S
C474 C475 1.401 . S
C474 H484 0.930 . S
C475 C473 1.392 . S
C475 C474 1.401 . S
C475 H485 0.930 . S
C476 O454 1.262 . S
C476 O455 1.260 1_554 S
C477 Tb413 2.833 . S
C477 O452 1.251 . S
C477 O457 1.256 . S
C477 C470 1.500 . S
H478 C461 0.930 . S
H479 C462 0.931 . S
H480 C463 0.930 . S
H481 C464 0.930 . S
H482 C471 0.930 . S
H483 C473 0.931 . S
H484 C474 0.930 . S
H485 C475 0.930 . S
Tb486 N517 2.660 . S
Tb486 N524 2.600 . S
Tb486 O530 2.546 . S
Tb486 O531 2.610 . S
Tb486 O533 2.320 . S
Tb486 O534 2.552 . S
Tb486 O535 2.413 . S
Tb486 O537 2.362 . S
Tb486 O538 2.421 . S
Tb486 C550 2.833 . S
C487 C490 1.432 . S
C487 C491 1.414 . S
C487 N494 1.359 . S
C488 C490 1.417 . S
C488 C492 1.432 . S
C488 C500 1.410 . S
C489 C491 1.444 . S
C489 C492 1.317 . S
C489 H512 0.929 . S
C490 C487 1.432 . S
C490 C488 1.417 . S
C490 N498 1.360 . S
C491 C487 1.414 . S
C491 C489 1.444 . S
C491 C496 1.385 . S
C492 C488 1.432 . S
C492 C489 1.317 . S
C492 H504 0.930 . S
C493 C495 1.392 . S
C493 C496 1.370 . S
C493 H505 0.931 . S
N494 C487 1.359 . S
N494 C495 1.327 . S
N494 Tb497 2.600 . S
C495 C493 1.392 . S
C495 N494 1.327 . S
C495 H502 0.930 . S
C496 C491 1.385 . S
C496 C493 1.370 . S
C496 H515 0.930 . S
Tb497 N494 2.600 . S
Tb497 N498 2.660 . S
Tb497 O531 2.362 . S
Tb497 O532 2.421 . S
Tb497 O536 2.546 . S
Tb497 O537 2.610 . S
Tb497 O539 2.320 . S
Tb497 O540 2.552 . S
Tb497 O541 2.413 . S
Tb497 C561 2.833 . S
N498 C490 1.360 . S
N498 Tb497 2.660 . S
N498 C499 1.305 . S
C499 N498 1.305 . S
C499 C501 1.407 . S
C499 H506 0.930 . S
C500 C488 1.410 . S
C500 C501 1.345 . S
C500 H508 0.930 . S
C501 C499 1.407 . S
C501 C500 1.345 . S
C501 H503 0.930 . S
H502 C495 0.930 . S
H503 C501 0.930 . S
H504 C492 0.930 . S
H505 C493 0.931 . S
H506 C499 0.930 . S
H507 C521 0.930 . S
H508 C500 0.930 . S
H509 C527 0.930 . S
H510 C518 0.930 . S
H511 C525 0.931 . S
H512 C489 0.929 . S
H513 C519 0.957 . S
H514 C552 0.930 . S
H515 C496 0.930 . S
H516 C551 0.929 . S
N517 Tb486 2.660 . S
N517 C518 1.305 . S
N517 C522 1.360 . S
C518 H510 0.930 . S
C518 N517 1.305 . S
C518 C521 1.407 . S
C519 H513 0.957 . S
C519 C520 1.410 . S
C519 C521 1.345 . S
C520 C519 1.410 . S
C520 C522 1.417 . S
C520 C552 1.432 . S
C521 H507 0.930 . S
C521 C518 1.407 . S
C521 C519 1.345 . S
C522 N517 1.360 . S
C522 C520 1.417 . S
C522 C526 1.432 . S
H523 C528 0.930 . S
N524 Tb486 2.600 . S
N524 C526 1.359 . S
N524 C527 1.327 . S
C525 H511 0.931 . S
C525 C527 1.392 . S
C525 C528 1.370 . S
C526 C522 1.432 . S
C526 N524 1.359 . S
C526 C529 1.414 . S
C527 H509 0.930 . S
C527 N524 1.327 . S
C527 C525 1.392 . S
C528 H523 0.930 . S
C528 C525 1.370 . S
C528 C529 1.385 . S
C529 C526 1.414 . S
C529 C528 1.385 . S
C529 C551 1.444 . S
O530 Tb486 2.546 . S
O530 C550 1.251 . S
O531 Tb486 2.610 . S
O531 Tb497 2.362 . S
O531 C542 1.283 . S
O532 Tb497 2.421 . S
O532 C549 1.262 . S
O533 Tb486 2.320 . S
O533 C549 1.260 . S
O534 Tb486 2.552 . S
O534 C542 1.243 . S
O535 Tb486 2.413 . S
O535 C550 1.256 . S
O536 Tb497 2.546 . S
O536 C561 1.251 . S
O537 Tb486 2.362 . S
O537 Tb497 2.610 . S
O537 C553 1.283 . S
O538 Tb486 2.421 . S
O538 C560 1.262 . S
O539 Tb497 2.320 . S
O539 C560 1.260 . S
O540 Tb497 2.552 . S
O540 C553 1.243 . S
O541 Tb497 2.413 . S
O541 C561 1.256 . S
C542 O531 1.283 . S
C542 O534 1.243 . S
C543 C545 1.382 . S
C543 C547 1.393 . S
C543 C550 1.500 . S
C544 C545 1.400 . S
C544 C546 1.384 . S
C545 C543 1.382 . S
C545 C544 1.400 . S
C545 H562 0.930 . S
C546 C544 1.384 . S
C546 C548 1.392 . S
C546 H563 0.931 . S
C547 C543 1.393 . S
C547 C548 1.401 . S
C547 H564 0.930 . S
C548 C546 1.392 . S
C548 C547 1.401 . S
C548 H565 0.930 . S
C549 O532 1.262 . S
C549 O533 1.260 . S
C550 Tb486 2.833 . S
C550 O530 1.251 . S
C550 O535 1.256 . S
C550 C543 1.500 . S
C551 H516 0.929 . S
C551 C529 1.444 . S
C551 C552 1.317 . S
C552 H514 0.930 . S
C552 C520 1.432 . S
C552 C551 1.317 . S
C553 O537 1.283 . S
C553 O540 1.243 . S
C554 C555 1.382 . S
C554 C558 1.393 . S
C554 C561 1.500 . S
C555 C554 1.382 . S
C555 C556 1.400 . S
C555 H566 0.930 . S
C556 C555 1.400 . S
C556 C557 1.384 . S
C557 C556 1.384 . S
C557 C559 1.392 . S
C557 H567 0.931 . S
C558 C554 1.393 . S
C558 C559 1.401 . S
C558 H568 0.930 . S
C559 C557 1.392 . S
C559 C558 1.401 . S
C559 H569 0.930 . S
C560 O538 1.262 . S
C560 O539 1.260 . S
C561 Tb497 2.833 . S
C561 O536 1.251 . S
C561 O541 1.256 . S
C561 C554 1.500 . S
H562 C545 0.930 . S
H563 C546 0.931 . S
H564 C547 0.930 . S
H565 C548 0.930 . S
H566 C555 0.930 . S
H567 C557 0.931 . S
H568 C558 0.930 . S
H569 C559 0.930 . S
Tb570 N601 2.660 . S
Tb570 N608 2.600 . S
Tb570 O614 2.546 . S
Tb570 O615 2.610 . S
Tb570 O617 2.320 . S
Tb570 O618 2.552 . S
Tb570 O619 2.413 . S
Tb570 O621 2.362 . S
Tb570 O622 2.421 . S
Tb570 C634 2.833 . S
C571 C574 1.432 . S
C571 C575 1.414 . S
C571 N578 1.359 . S
C572 C574 1.417 . S
C572 C576 1.432 . S
C572 C584 1.410 . S
C573 C575 1.444 . S
C573 C576 1.317 . S
C573 H596 0.929 . S
C574 C571 1.432 . S
C574 C572 1.417 . S
C574 N582 1.360 . S
C575 C571 1.414 . S
C575 C573 1.444 . S
C575 C580 1.385 . S
C576 C572 1.432 . S
C576 C573 1.317 . S
C576 H588 0.930 . S
C577 C579 1.392 . S
C577 C580 1.370 . S
C577 H589 0.931 . S
N578 C571 1.359 . S
N578 C579 1.327 . S
N578 Tb581 2.600 . S
C579 C577 1.392 . S
C579 N578 1.327 . S
C579 H586 0.930 . S
C580 C575 1.385 . S
C580 C577 1.370 . S
C580 H599 0.930 . S
Tb581 N578 2.600 . S
Tb581 N582 2.660 . S
Tb581 O615 2.362 . S
Tb581 O616 2.421 . S
Tb581 O620 2.546 . S
Tb581 O621 2.610 . S
Tb581 O623 2.320 . S
Tb581 O624 2.552 . S
Tb581 O625 2.413 . S
Tb581 C645 2.833 . S
N582 C574 1.360 . S
N582 Tb581 2.660 . S
N582 C583 1.305 . S
C583 N582 1.305 . S
C583 C585 1.407 . S
C583 H590 0.930 . S
C584 C572 1.410 . S
C584 C585 1.345 . S
C584 H592 0.930 . S
C585 C583 1.407 . S
C585 C584 1.345 . S
C585 H587 0.930 . S
H586 C579 0.930 . S
H587 C585 0.930 . S
H588 C576 0.930 . S
H589 C577 0.931 . S
H590 C583 0.930 . S
H591 C605 0.930 . S
H592 C584 0.930 . S
H593 C611 0.930 . S
H594 C602 0.930 . S
H595 C609 0.931 . S
H596 C573 0.929 . S
H597 C603 0.930 . S
H598 C636 0.930 . S
H599 C580 0.930 . S
H600 C635 0.929 . S
N601 Tb570 2.660 . S
N601 C602 1.305 . S
N601 C606 1.360 . S
C602 H594 0.930 . S
C602 N601 1.305 . S
C602 C605 1.407 . S
C603 H597 0.930 . S
C603 C604 1.410 . S
C603 C605 1.345 . S
C604 C603 1.410 . S
C604 C606 1.417 . S
C604 C636 1.432 . S
C605 H591 0.930 . S
C605 C602 1.407 . S
C605 C603 1.345 . S
C606 N601 1.360 . S
C606 C604 1.417 . S
C606 C610 1.432 . S
H607 C612 0.930 . S
N608 Tb570 2.600 . S
N608 C610 1.359 . S
N608 C611 1.327 . S
C609 H595 0.931 . S
C609 C611 1.392 . S
C609 C612 1.370 . S
C610 C606 1.432 . S
C610 N608 1.359 . S
C610 C613 1.414 . S
C611 H593 0.930 . S
C611 N608 1.327 . S
C611 C609 1.392 . S
C612 H607 0.930 . S
C612 C609 1.370 . S
C612 C613 1.385 . S
C613 C610 1.414 . S
C613 C612 1.385 . S
C613 C635 1.444 . S
O614 Tb570 2.546 . S
O614 C634 1.251 . S
O615 Tb570 2.610 . S
O615 Tb581 2.362 . S
O615 C626 1.283 . S
O616 Tb581 2.421 . S
O616 C633 1.262 . S
O617 Tb570 2.320 . S
O617 C633 1.260 . S
O618 Tb570 2.552 . S
O618 C626 1.243 . S
O619 Tb570 2.413 . S
O619 C634 1.256 . S
O620 Tb581 2.546 . S
O620 C645 1.251 . S
O621 Tb570 2.362 . S
O621 Tb581 2.610 . S
O621 C637 1.283 . S
O622 Tb570 2.421 . S
O622 C644 1.262 . S
O623 Tb581 2.320 . S
O623 C644 1.260 . S
O624 Tb581 2.552 . S
O624 C637 1.243 . S
O625 Tb581 2.413 . S
O625 C645 1.256 . S
C626 O615 1.283 . S
C626 O618 1.243 . S
C627 C629 1.382 . S
C627 C631 1.393 . S
C627 C634 1.500 . S
C628 C629 1.400 . S
C628 C630 1.384 . S
C629 C627 1.382 . S
C629 C628 1.400 . S
C629 H646 0.930 . S
C630 C628 1.384 . S
C630 C632 1.392 . S
C630 H647 0.931 . S
C631 C627 1.393 . S
C631 C632 1.401 . S
C631 H648 0.930 . S
C632 C630 1.392 . S
C632 C631 1.401 . S
C632 H649 0.930 . S
C633 O616 1.262 . S
C633 O617 1.260 . S
C634 Tb570 2.833 . S
C634 O614 1.251 . S
C634 O619 1.256 . S
C634 C627 1.500 . S
C635 H600 0.929 . S
C635 C613 1.444 . S
C635 C636 1.317 . S
C636 H598 0.930 . S
C636 C604 1.432 . S
C636 C635 1.317 . S
C637 O621 1.283 . S
C637 O624 1.243 . S
C638 C639 1.382 . S
C638 C642 1.393 . S
C638 C645 1.500 . S
C639 C638 1.382 . S
C639 C640 1.400 . S
C639 H650 0.930 . S
C640 C639 1.400 . S
C640 C641 1.384 . S
C641 C640 1.384 . S
C641 C643 1.392 . S
C641 H651 0.931 . S
C642 C638 1.393 . S
C642 C643 1.401 . S
C642 H652 0.930 . S
C643 C641 1.392 . S
C643 C642 1.401 . S
C643 H653 0.930 . S
C644 O622 1.262 . S
C644 O623 1.260 . S
C645 Tb581 2.833 . S
C645 O620 1.251 . S
C645 O625 1.256 . S
C645 C638 1.500 . S
H646 C629 0.930 . S
H647 C630 0.931 . S
H648 C631 0.930 . S
H649 C632 0.930 . S
H650 C639 0.930 . S
H651 C641 0.931 . S
H652 C642 0.930 . S
H653 C643 0.930 . S
Tb654 N685 2.660 . S
Tb654 N692 2.600 . S
Tb654 O698 2.546 . S
Tb654 O699 2.610 . S
Tb654 O701 2.320 . S
Tb654 O702 2.552 . S
Tb654 O703 2.413 . S
Tb654 O705 2.362 . S
Tb654 O706 2.421 . S
Tb654 C718 2.833 . S
C655 C658 1.432 . S
C655 C659 1.414 . S
C655 N662 1.359 . S
C656 C658 1.417 . S
C656 C660 1.432 . S
C656 C668 1.410 . S
C657 C659 1.444 . S
C657 C660 1.317 . S
C657 H680 0.929 . S
C658 C655 1.432 . S
C658 C656 1.417 . S
C658 N666 1.360 . S
C659 C655 1.414 . S
C659 C657 1.444 . S
C659 C664 1.385 . S
C660 C656 1.432 . S
C660 C657 1.317 . S
C660 H672 0.930 . S
C661 C663 1.392 . S
C661 C664 1.370 . S
C661 H673 0.931 . S
N662 C655 1.359 . S
N662 C663 1.327 . S
N662 Tb665 2.600 . S
C663 C661 1.392 . S
C663 N662 1.327 . S
C663 H670 0.930 . S
C664 C659 1.385 . S
C664 C661 1.370 . S
C664 H683 0.930 . S
Tb665 N662 2.600 . S
Tb665 N666 2.660 . S
Tb665 O699 2.362 . S
Tb665 O700 2.421 . S
Tb665 O704 2.546 . S
Tb665 O705 2.610 . S
Tb665 O707 2.320 . S
Tb665 O708 2.552 . S
Tb665 O709 2.413 . S
Tb665 C729 2.833 . S
N666 C658 1.360 . S
N666 Tb665 2.660 . S
N666 C667 1.305 . S
C667 N666 1.305 . S
C667 C669 1.407 . S
C667 H674 0.930 . S
C668 C656 1.410 . S
C668 C669 1.345 . S
C668 H676 0.930 . S
C669 C667 1.407 . S
C669 C668 1.345 . S
C669 H671 0.930 . S
H670 C663 0.930 . S
H671 C669 0.930 . S
H672 C660 0.930 . S
H673 C661 0.931 . S
H674 C667 0.930 . S
H675 C689 0.930 . S
H676 C668 0.930 . S
H677 C695 0.930 . S
H678 C686 0.930 . S
H679 C693 0.931 . S
H680 C657 0.929 . S
H681 C687 0.930 . S
H682 C720 0.930 . S
H683 C664 0.930 . S
H684 C719 0.929 . S
N685 Tb654 2.660 . S
N685 C686 1.305 . S
N685 C690 1.360 . S
C686 H678 0.930 . S
C686 N685 1.305 . S
C686 C689 1.407 . S
C687 H681 0.930 . S
C687 C688 1.410 . S
C687 C689 1.345 . S
C688 C687 1.410 . S
C688 C690 1.417 . S
C688 C720 1.432 . S
C689 H675 0.930 . S
C689 C686 1.407 . S
C689 C687 1.345 . S
C690 N685 1.360 . S
C690 C688 1.417 . S
C690 C694 1.432 . S
H691 C696 0.930 . S
N692 Tb654 2.600 . S
N692 C694 1.359 . S
N692 C695 1.327 . S
C693 H679 0.931 . S
C693 C695 1.392 . S
C693 C696 1.370 . S
C694 C690 1.432 . S
C694 N692 1.359 . S
C694 C697 1.414 . S
C695 H677 0.930 . S
C695 N692 1.327 . S
C695 C693 1.392 . S
C696 H691 0.930 . S
C696 C693 1.370 . S
C696 C697 1.385 . S
C697 C694 1.414 . S
C697 C696 1.385 . S
C697 C719 1.444 . S
O698 Tb654 2.546 . S
O698 C718 1.251 . S
O699 Tb654 2.610 . S
O699 Tb665 2.362 . S
O699 C710 1.283 . S
O700 Tb665 2.421 . S
O700 C717 1.262 . S
O701 Tb654 2.320 . S
O701 C717 1.260 . S
O702 Tb654 2.552 . S
O702 C710 1.243 . S
O703 Tb654 2.413 . S
O703 C718 1.256 . S
O704 Tb665 2.546 . S
O704 C729 1.251 . S
O705 Tb654 2.362 . S
O705 Tb665 2.610 . S
O705 C721 1.283 . S
O706 Tb654 2.421 . S
O706 C728 1.262 . S
O707 Tb665 2.320 . S
O707 C728 1.260 . S
O708 Tb665 2.552 . S
O708 C721 1.243 . S
O709 Tb665 2.413 . S
O709 C729 1.256 . S
C710 O699 1.283 . S
C710 O702 1.243 . S
C711 C713 1.382 . S
C711 C715 1.393 . S
C711 C718 1.500 . S
C712 C713 1.400 . S
C712 C714 1.384 . S
C713 C711 1.382 . S
C713 C712 1.400 . S
C713 H730 0.930 . S
C714 C712 1.384 . S
C714 C716 1.392 . S
C714 H731 0.931 . S
C715 C711 1.393 . S
C715 C716 1.401 . S
C715 H732 0.930 . S
C716 C714 1.392 . S
C716 C715 1.401 . S
C716 H733 0.930 . S
C717 O700 1.262 . S
C717 O701 1.260 . S
C718 Tb654 2.833 . S
C718 O698 1.251 . S
C718 O703 1.256 . S
C718 C711 1.500 . S
C719 H684 0.929 . S
C719 C697 1.444 . S
C719 C720 1.317 . S
C720 H682 0.930 . S
C720 C688 1.432 . S
C720 C719 1.317 . S
C721 O705 1.283 . S
C721 O708 1.243 . S
C722 C723 1.382 . S
C722 C726 1.393 . S
C722 C729 1.500 . S
C723 C722 1.382 . S
C723 C724 1.400 . S
C723 H734 0.930 . S
C724 C723 1.400 . S
C724 C725 1.384 . S
C725 C724 1.384 . S
C725 C727 1.392 . S
C725 H735 0.931 . S
C726 C722 1.393 . S
C726 C727 1.401 . S
C726 H736 0.930 . S
C727 C725 1.392 . S
C727 C726 1.401 . S
C727 H737 0.930 . S
C728 O706 1.262 . S
C728 O707 1.260 . S
C729 Tb665 2.833 . S
C729 O704 1.251 . S
C729 O709 1.256 . S
C729 C722 1.500 . S
H730 C713 0.930 . S
H731 C714 0.931 . S
H732 C715 0.930 . S
H733 C716 0.930 . S
H734 C723 0.930 . S
H735 C725 0.931 . S
H736 C726 0.930 . S
H737 C727 0.930 . S
Tb738 N769 2.660 . S
Tb738 N776 2.600 . S
Tb738 O782 2.546 . S
Tb738 O783 2.610 . S
Tb738 O785 2.320 . S
Tb738 O786 2.552 . S
Tb738 O787 2.413 . S
Tb738 O789 2.362 . S
Tb738 O790 2.421 . S
Tb738 C802 2.833 . S
C739 C742 1.432 . S
C739 C743 1.414 . S
C739 N746 1.359 . S
C740 C742 1.417 . S
C740 C744 1.432 . S
C740 C752 1.410 . S
C741 C743 1.444 . S
C741 C744 1.317 . S
C741 H764 0.929 . S
C742 C739 1.432 . S
C742 C740 1.417 . S
C742 N750 1.360 . S
C743 C739 1.414 . S
C743 C741 1.444 . S
C743 C748 1.385 . S
C744 C740 1.432 . S
C744 C741 1.317 . S
C744 H756 0.930 . S
C745 C747 1.392 . S
C745 C748 1.370 . S
C745 H757 0.931 . S
N746 C739 1.359 . S
N746 C747 1.327 . S
N746 Tb749 2.600 . S
C747 C745 1.392 . S
C747 N746 1.327 . S
C747 H754 0.930 . S
C748 C743 1.385 . S
C748 C745 1.370 . S
C748 H767 0.930 . S
Tb749 N746 2.600 . S
Tb749 N750 2.660 . S
Tb749 O783 2.362 . S
Tb749 O784 2.421 . S
Tb749 O788 2.546 . S
Tb749 O789 2.610 . S
Tb749 O791 2.320 . S
Tb749 O792 2.552 . S
Tb749 O793 2.413 . S
Tb749 C813 2.833 . S
N750 C742 1.360 . S
N750 Tb749 2.660 . S
N750 C751 1.305 . S
C751 N750 1.305 . S
C751 C753 1.407 . S
C751 H758 0.930 . S
C752 C740 1.410 . S
C752 C753 1.345 . S
C752 H760 0.930 . S
C753 C751 1.407 . S
C753 C752 1.345 . S
C753 H755 0.930 . S
H754 C747 0.930 . S
H755 C753 0.930 . S
H756 C744 0.930 . S
H757 C745 0.931 . S
H758 C751 0.930 . S
H759 C773 0.930 . S
H760 C752 0.930 . S
H761 C779 0.930 . S
H762 C770 0.930 . S
H763 C777 0.931 . S
H764 C741 0.929 . S
H765 C771 0.930 . S
H766 C804 0.930 . S
H767 C748 0.930 . S
H768 C803 0.929 . S
N769 Tb738 2.660 . S
N769 C770 1.305 . S
N769 C774 1.360 . S
C770 H762 0.930 . S
C770 N769 1.305 . S
C770 C773 1.407 . S
C771 H765 0.930 . S
C771 C772 1.410 . S
C771 C773 1.345 . S
C772 C771 1.410 . S
C772 C774 1.417 . S
C772 C804 1.432 . S
C773 H759 0.930 . S
C773 C770 1.407 . S
C773 C771 1.345 . S
C774 N769 1.360 . S
C774 C772 1.417 . S
C774 C778 1.432 . S
H775 C780 0.930 . S
N776 Tb738 2.600 . S
N776 C778 1.359 . S
N776 C779 1.327 . S
C777 H763 0.931 . S
C777 C779 1.392 . S
C777 C780 1.370 . S
C778 C774 1.432 . S
C778 N776 1.359 . S
C778 C781 1.414 . S
C779 H761 0.930 . S
C779 N776 1.327 . S
C779 C777 1.392 . S
C780 H775 0.930 . S
C780 C777 1.370 . S
C780 C781 1.385 . S
C781 C778 1.414 . S
C781 C780 1.385 . S
C781 C803 1.444 . S
O782 Tb738 2.546 . S
O782 C802 1.251 . S
O783 Tb738 2.610 . S
O783 Tb749 2.362 . S
O783 C794 1.283 . S
O784 Tb749 2.421 . S
O784 C801 1.262 . S
O785 Tb738 2.320 . S
O785 C801 1.260 . S
O786 Tb738 2.552 . S
O786 C794 1.243 . S
O787 Tb738 2.413 . S
O787 C802 1.256 . S
O788 Tb749 2.546 . S
O788 C813 1.251 . S
O789 Tb738 2.362 . S
O789 Tb749 2.610 . S
O789 C805 1.283 . S
O790 Tb738 2.421 . S
O790 C812 1.262 . S
O791 Tb749 2.320 . S
O791 C812 1.260 . S
O792 Tb749 2.552 . S
O792 C805 1.243 . S
O793 Tb749 2.413 . S
O793 C813 1.256 . S
C794 O783 1.283 . S
C794 O786 1.243 . S
C795 C797 1.382 . S
C795 C799 1.393 . S
C795 C802 1.500 . S
C796 C797 1.400 . S
C796 C798 1.384 . S
C797 C795 1.382 . S
C797 C796 1.400 . S
C797 H814 0.930 . S
C798 C796 1.384 . S
C798 C800 1.392 . S
C798 H815 0.931 . S
C799 C795 1.393 . S
C799 C800 1.401 . S
C799 H816 0.930 . S
C800 C798 1.392 . S
C800 C799 1.401 . S
C800 H817 0.930 . S
C801 O784 1.262 . S
C801 O785 1.260 . S
C802 Tb738 2.833 . S
C802 O782 1.251 . S
C802 O787 1.256 . S
C802 C795 1.500 . S
C803 H768 0.929 . S
C803 C781 1.444 . S
C803 C804 1.317 . S
C804 H766 0.930 . S
C804 C772 1.432 . S
C804 C803 1.317 . S
C805 O789 1.283 . S
C805 O792 1.243 . S
C806 C807 1.382 . S
C806 C810 1.393 . S
C806 C813 1.500 . S
C807 C806 1.382 . S
C807 C808 1.400 . S
C807 H818 0.930 . S
C808 C807 1.400 . S
C808 C809 1.384 . S
C809 C808 1.384 . S
C809 C811 1.392 . S
C809 H819 0.931 . S
C810 C806 1.393 . S
C810 C811 1.401 . S
C810 H820 0.930 . S
C811 C809 1.392 . S
C811 C810 1.401 . S
C811 H821 0.930 . S
C812 O790 1.262 . S
C812 O791 1.260 . S
C813 Tb749 2.833 . S
C813 O788 1.251 . S
C813 O793 1.256 . S
C813 C806 1.500 . S
H814 C797 0.930 . S
H815 C798 0.931 . S
H816 C799 0.930 . S
H817 C800 0.930 . S
H818 C807 0.930 . S
H819 C809 0.931 . S
H820 C810 0.930 . S
H821 C811 0.930 . S
Tb822 N853 2.660 . S
Tb822 N860 2.600 . S
Tb822 O866 2.546 . S
Tb822 O867 2.610 . S
Tb822 O869 2.320 . S
Tb822 O870 2.552 . S
Tb822 O871 2.413 . S
Tb822 O873 2.362 . S
Tb822 O874 2.421 . S
Tb822 C886 2.833 . S
C823 C826 1.432 . S
C823 C827 1.414 . S
C823 N830 1.359 . S
C824 C826 1.417 . S
C824 C828 1.432 . S
C824 C836 1.410 . S
C825 C827 1.444 . S
C825 C828 1.317 . S
C825 H848 0.929 . S
C826 C823 1.432 . S
C826 C824 1.417 . S
C826 N834 1.360 . S
C827 C823 1.414 . S
C827 C825 1.444 . S
C827 C832 1.385 . S
C828 C824 1.432 . S
C828 C825 1.317 . S
C828 H840 0.930 . S
C829 C831 1.392 . S
C829 C832 1.370 . S
C829 H841 0.931 . S
N830 C823 1.359 . S
N830 C831 1.327 . S
N830 Tb833 2.600 . S
C831 C829 1.392 . S
C831 N830 1.327 . S
C831 H838 0.930 . S
C832 C827 1.385 . S
C832 C829 1.370 . S
C832 H851 0.930 . S
Tb833 N830 2.600 . S
Tb833 N834 2.660 . S
Tb833 O867 2.362 . S
Tb833 O868 2.421 . S
Tb833 O872 2.546 . S
Tb833 O873 2.610 . S
Tb833 O875 2.320 . S
Tb833 O876 2.552 . S
Tb833 O877 2.413 . S
Tb833 C897 2.833 . S
N834 C826 1.360 . S
N834 Tb833 2.660 . S
N834 C835 1.305 . S
C835 N834 1.305 . S
C835 C837 1.407 . S
C835 H842 0.930 . S
C836 C824 1.410 . S
C836 C837 1.345 . S
C836 H844 0.930 . S
C837 C835 1.407 . S
C837 C836 1.345 . S
C837 H839 0.930 . S
H838 C831 0.930 . S
H839 C837 0.930 . S
H840 C828 0.930 . S
H841 C829 0.931 . S
H842 C835 0.930 . S
H843 C857 0.930 . S
H844 C836 0.930 . S
H845 C863 0.930 . S
H846 C854 0.930 . S
H847 C861 0.931 . S
H848 C825 0.929 . S
H849 C855 0.930 . S
H850 C888 0.930 . S
H851 C832 0.930 . S
H852 C887 0.929 . S
N853 Tb822 2.660 . S
N853 C854 1.305 . S
N853 C858 1.360 . S
C854 H846 0.930 . S
C854 N853 1.305 . S
C854 C857 1.407 . S
C855 H849 0.930 . S
C855 C856 1.410 . S
C855 C857 1.345 . S
C856 C855 1.410 . S
C856 C858 1.417 . S
C856 C888 1.432 . S
C857 H843 0.930 . S
C857 C854 1.407 . S
C857 C855 1.345 . S
C858 N853 1.360 . S
C858 C856 1.417 . S
C858 C862 1.432 . S
H859 C864 0.930 . S
N860 Tb822 2.600 . S
N860 C862 1.359 . S
N860 C863 1.327 . S
C861 H847 0.931 . S
C861 C863 1.392 . S
C861 C864 1.370 . S
C862 C858 1.432 . S
C862 N860 1.359 . S
C862 C865 1.414 . S
C863 H845 0.930 . S
C863 N860 1.327 . S
C863 C861 1.392 . S
C864 H859 0.930 . S
C864 C861 1.370 . S
C864 C865 1.385 . S
C865 C862 1.414 . S
C865 C864 1.385 . S
C865 C887 1.444 . S
O866 Tb822 2.546 . S
O866 C886 1.251 . S
O867 Tb822 2.610 . S
O867 Tb833 2.362 . S
O867 C878 1.283 . S
O868 Tb833 2.421 . S
O868 C885 1.262 . S
O869 Tb822 2.320 . S
O869 C885 1.260 . S
O870 Tb822 2.552 . S
O870 C878 1.243 . S
O871 Tb822 2.413 . S
O871 C886 1.256 . S
O872 Tb833 2.546 . S
O872 C897 1.251 . S
O873 Tb822 2.362 . S
O873 Tb833 2.610 . S
O873 C889 1.283 . S
O874 Tb822 2.421 . S
O874 C896 1.262 . S
O875 Tb833 2.320 . S
O875 C896 1.260 . S
O876 Tb833 2.552 . S
O876 C889 1.243 . S
O877 Tb833 2.413 . S
O877 C897 1.256 . S
C878 O867 1.283 . S
C878 O870 1.243 . S
C879 C881 1.382 . S
C879 C883 1.393 . S
C879 C886 1.500 . S
C880 C881 1.400 . S
C880 C882 1.384 . S
C881 C879 1.382 . S
C881 C880 1.400 . S
C881 H898 0.930 . S
C882 C880 1.384 . S
C882 C884 1.392 . S
C882 H899 0.931 . S
C883 C879 1.393 . S
C883 C884 1.401 . S
C883 H900 0.930 . S
C884 C882 1.392 . S
C884 C883 1.401 . S
C884 H901 0.930 . S
C885 O868 1.262 . S
C885 O869 1.260 . S
C886 Tb822 2.833 . S
C886 O866 1.251 . S
C886 O871 1.256 . S
C886 C879 1.500 . S
C887 H852 0.929 . S
C887 C865 1.444 . S
C887 C888 1.317 . S
C888 H850 0.930 . S
C888 C856 1.432 . S
C888 C887 1.317 . S
C889 O873 1.283 . S
C889 O876 1.243 . S
C890 C891 1.382 . S
C890 C894 1.393 . S
C890 C897 1.500 . S
C891 C890 1.382 . S
C891 C892 1.400 . S
C891 H902 0.930 . S
C892 C891 1.400 . S
C892 C893 1.384 . S
C893 C892 1.384 . S
C893 C895 1.392 . S
C893 H903 0.931 . S
C894 C890 1.393 . S
C894 C895 1.401 . S
C894 H904 0.930 . S
C895 C893 1.392 . S
C895 C894 1.401 . S
C895 H905 0.930 . S
C896 O874 1.262 . S
C896 O875 1.260 . S
C897 Tb833 2.833 . S
C897 O872 1.251 . S
C897 O877 1.256 . S
C897 C890 1.500 . S
H898 C881 0.930 . S
H899 C882 0.931 . S
H900 C883 0.930 . S
H901 C884 0.930 . S
H902 C891 0.930 . S
H903 C893 0.931 . S
H904 C894 0.930 . S
H905 C895 0.930 . S
Tb906 N937 2.660 . S
Tb906 N944 2.600 . S
Tb906 O950 2.546 . S
Tb906 O951 2.610 . S
Tb906 O953 2.320 . S
Tb906 O954 2.552 . S
Tb906 O955 2.413 . S
Tb906 O957 2.362 . S
Tb906 O958 2.421 . S
Tb906 C970 2.833 . S
C907 C910 1.432 . S
C907 C911 1.414 . S
C907 N914 1.359 . S
C908 C910 1.417 . S
C908 C912 1.432 . S
C908 C920 1.410 . S
C909 C911 1.444 . S
C909 C912 1.317 . S
C909 H932 0.929 . S
C910 C907 1.432 . S
C910 C908 1.417 . S
C910 N918 1.360 . S
C911 C907 1.414 . S
C911 C909 1.444 . S
C911 C916 1.385 . S
C912 C908 1.432 . S
C912 C909 1.317 . S
C912 H924 0.930 . S
C913 C915 1.392 . S
C913 C916 1.370 . S
C913 H925 0.931 . S
N914 C907 1.359 . S
N914 C915 1.327 . S
N914 Tb917 2.600 . S
C915 C913 1.392 . S
C915 N914 1.327 . S
C915 H922 0.930 . S
C916 C911 1.385 . S
C916 C913 1.370 . S
C916 H935 0.930 . S
Tb917 N914 2.600 . S
Tb917 N918 2.660 . S
Tb917 O951 2.362 . S
Tb917 O952 2.421 . S
Tb917 O956 2.546 . S
Tb917 O957 2.610 . S
Tb917 O959 2.320 . S
Tb917 O960 2.552 . S
Tb917 O961 2.413 . S
Tb917 C981 2.833 . S
N918 C910 1.360 . S
N918 Tb917 2.660 . S
N918 C919 1.305 . S
C919 N918 1.305 . S
C919 C921 1.407 . S
C919 H926 0.930 . S
C920 C908 1.410 . S
C920 C921 1.345 . S
C920 H928 0.930 . S
C921 C919 1.407 . S
C921 C920 1.345 . S
C921 H923 0.930 . S
H922 C915 0.930 . S
H923 C921 0.930 . S
H924 C912 0.930 . S
H925 C913 0.931 . S
H926 C919 0.930 . S
H927 C941 0.930 . S
H928 C920 0.930 . S
H929 C947 0.930 . S
H930 C938 0.930 . S
H931 C945 0.931 . S
H932 C909 0.929 . S
H933 C939 0.930 1_455 S
H934 C972 0.930 1_455 S
H935 C916 0.930 . S
H936 C971 0.929 . S
N937 Tb906 2.660 . S
N937 C938 1.305 . S
N937 C942 1.360 . S
C938 H930 0.930 . S
C938 N937 1.305 . S
C938 C941 1.407 . S
C939 H933 0.930 1_655 S
C939 C940 1.410 . S
C939 C941 1.345 . S
C940 C939 1.410 . S
C940 C942 1.417 . S
C940 C972 1.432 . S
C941 H927 0.930 . S
C941 C938 1.407 . S
C941 C939 1.345 . S
C942 N937 1.360 . S
C942 C940 1.417 . S
C942 C946 1.432 . S
H943 C948 0.930 . S
N944 Tb906 2.600 . S
N944 C946 1.359 . S
N944 C947 1.327 . S
C945 H931 0.931 . S
C945 C947 1.392 . S
C945 C948 1.370 . S
C946 C942 1.432 . S
C946 N944 1.359 . S
C946 C949 1.414 . S
C947 H929 0.930 . S
C947 N944 1.327 . S
C947 C945 1.392 . S
C948 H943 0.930 . S
C948 C945 1.370 . S
C948 C949 1.385 . S
C949 C946 1.414 . S
C949 C948 1.385 . S
C949 C971 1.444 . S
O950 Tb906 2.546 . S
O950 C970 1.251 . S
O951 Tb906 2.610 . S
O951 Tb917 2.362 . S
O951 C962 1.283 . S
O952 Tb917 2.421 . S
O952 C969 1.262 . S
O953 Tb906 2.320 . S
O953 C969 1.260 . S
O954 Tb906 2.552 . S
O954 C962 1.243 . S
O955 Tb906 2.413 . S
O955 C970 1.256 . S
O956 Tb917 2.546 . S
O956 C981 1.251 . S
O957 Tb906 2.362 . S
O957 Tb917 2.610 . S
O957 C973 1.283 . S
O958 Tb906 2.421 . S
O958 C980 1.262 . S
O959 Tb917 2.320 . S
O959 C980 1.260 . S
O960 Tb917 2.552 . S
O960 C973 1.243 . S
O961 Tb917 2.413 . S
O961 C981 1.256 . S
C962 O951 1.283 . S
C962 O954 1.243 . S
C963 C965 1.382 . S
C963 C967 1.393 . S
C963 C970 1.500 . S
C964 C965 1.400 . S
C964 C966 1.384 . S
C965 C963 1.382 . S
C965 C964 1.400 . S
C965 H982 0.930 . S
C966 C964 1.384 . S
C966 C968 1.392 . S
C966 H983 0.931 . S
C967 C963 1.393 . S
C967 C968 1.401 . S
C967 H984 0.930 . S
C968 C966 1.392 . S
C968 C967 1.401 . S
C968 H985 0.930 . S
C969 O952 1.262 . S
C969 O953 1.260 . S
C970 Tb906 2.833 . S
C970 O950 1.251 . S
C970 O955 1.256 . S
C970 C963 1.500 . S
C971 H936 0.929 . S
C971 C949 1.444 . S
C971 C972 1.317 . S
C972 H934 0.930 1_655 S
C972 C940 1.432 . S
C972 C971 1.317 . S
C973 O957 1.283 . S
C973 O960 1.243 . S
C974 C975 1.382 . S
C974 C978 1.393 . S
C974 C981 1.500 . S
C975 C974 1.382 . S
C975 C976 1.400 . S
C975 H986 0.930 . S
C976 C975 1.400 . S
C976 C977 1.384 . S
C977 C976 1.384 . S
C977 C979 1.392 . S
C977 H987 0.931 . S
C978 C974 1.393 . S
C978 C979 1.401 . S
C978 H988 0.930 . S
C979 C977 1.392 . S
C979 C978 1.401 . S
C979 H989 0.930 . S
C980 O958 1.262 . S
C980 O959 1.260 . S
C981 Tb917 2.833 . S
C981 O956 1.251 . S
C981 O961 1.256 . S
C981 C974 1.500 . S
H982 C965 0.930 . S
H983 C966 0.931 . S
H984 C967 0.930 . S
H985 C968 0.930 . S
H986 C975 0.930 . S
H987 C977 0.931 . S
H988 C978 0.930 . S
H989 C979 0.930 . S
H990 C996 0.930 . S
H991 C1000 0.930 . S
H992 C1005 0.929 . S
H993 C1003 0.980 . S
H994 C998 0.929 . S
H995 C1004 0.929 . S
C996 H990 0.930 . S
C996 C997 1.367 . S
C996 C1004 1.378 . S
C997 C996 1.367 . S
C997 C1005 1.433 . S
C998 H994 0.929 . S
C998 C1000 1.378 . S
C998 C1002 1.350 . S
C999 C1002 1.463 . S
C999 C1004 1.350 . S
C999 N1007 1.427 . S
C1000 H991 0.930 . S
C1000 C998 1.378 . S
C1000 C1001 1.367 . S
C1001 C1000 1.367 . S
C1001 C1003 1.433 . S
C1002 C998 1.350 . S
C1002 C999 1.463 . S
C1002 N1006 1.427 . S
C1003 H993 0.980 . S
C1003 C1001 1.433 . S
C1003 N1006 1.384 . S
C1004 H995 0.929 . S
C1004 C996 1.378 . S
C1004 C999 1.350 . S
C1005 H992 0.929 . S
C1005 C997 1.433 . S
C1005 N1007 1.384 . S
N1006 C1002 1.427 . S
N1006 C1003 1.384 . S
N1007 C999 1.427 . S
N1007 C1005 1.384 . S
H1008 C1014 0.930 . S
H1009 C1018 0.930 . S
H1010 C1023 0.929 . S
H1011 C1021 0.929 . S
H1012 C1016 0.929 . S
H1013 C1022 0.929 . S
C1014 H1008 0.930 . S
C1014 C1015 1.367 . S
C1014 C1022 1.378 . S
C1015 C1014 1.367 . S
C1015 C1023 1.433 . S
C1016 H1012 0.929 . S
C1016 C1018 1.378 . S
C1016 C1020 1.350 . S
C1017 C1020 1.463 . S
C1017 C1022 1.350 . S
C1017 N1025 1.427 . S
C1018 H1009 0.930 . S
C1018 C1016 1.378 . S
C1018 C1019 1.367 . S
C1019 C1018 1.367 . S
C1019 C1021 1.433 . S
C1020 C1016 1.350 . S
C1020 C1017 1.463 . S
C1020 N1024 1.427 . S
C1021 H1011 0.929 . S
C1021 C1019 1.433 . S
C1021 N1024 1.384 . S
C1022 H1013 0.929 . S
C1022 C1014 1.378 . S
C1022 C1017 1.350 . S
C1023 H1010 0.929 . S
C1023 C1015 1.433 . S
C1023 N1025 1.384 . S
N1024 C1020 1.427 . S
N1024 C1021 1.384 . S
N1025 C1017 1.427 . S
N1025 C1023 1.384 . S
H1026 C1032 0.930 . S
H1027 C1036 0.930 . S
H1028 C1041 0.929 . S
H1029 C1039 0.929 1_556 S
H1030 C1034 0.929 . S
H1031 C1040 0.929 . S
C1032 H1026 0.930 . S
C1032 C1033 1.367 . S
C1032 C1040 1.378 . S
C1033 C1032 1.367 . S
C1033 C1041 1.433 . S
C1034 H1030 0.929 . S
C1034 C1036 1.378 . S
C1034 C1038 1.350 . S
C1035 C1038 1.463 . S
C1035 C1040 1.350 . S
C1035 N1043 1.427 . S
C1036 H1027 0.930 . S
C1036 C1034 1.378 . S
C1036 C1037 1.367 . S
C1037 C1036 1.367 . S
C1037 C1039 1.433 . S
C1038 C1034 1.350 . S
C1038 C1035 1.463 . S
C1038 N1042 1.427 . S
C1039 H1029 0.929 1_554 S
C1039 C1037 1.433 . S
C1039 N1042 1.384 . S
C1040 H1031 0.929 . S
C1040 C1032 1.378 . S
C1040 C1035 1.350 . S
C1041 H1028 0.929 . S
C1041 C1033 1.433 . S
C1041 N1043 1.384 . S
N1042 C1038 1.427 . S
N1042 C1039 1.384 . S
N1043 C1035 1.427 . S
N1043 C1041 1.384 . S
H1044 C1050 0.930 . S
H1045 C1054 0.930 . S
H1046 C1059 0.929 . S
H1047 C1057 0.929 . S
H1048 C1052 0.929 1_554 S
H1049 C1058 0.929 . S
C1050 H1044 0.930 . S
C1050 C1051 1.367 . S
C1050 C1058 1.378 . S
C1051 C1050 1.367 . S
C1051 C1059 1.433 . S
C1052 H1048 0.929 1_556 S
C1052 C1054 1.378 1_556 S
C1052 C1056 1.350 . S
C1053 C1056 1.463 . S
C1053 C1058 1.350 . S
C1053 N1061 1.427 . S
C1054 H1045 0.930 . S
C1054 C1052 1.378 1_554 S
C1054 C1055 1.367 1_554 S
C1055 C1054 1.367 1_556 S
C1055 C1057 1.433 . S
C1056 C1052 1.350 . S
C1056 C1053 1.463 . S
C1056 N1060 1.427 . S
C1057 H1047 0.929 . S
C1057 C1055 1.433 . S
C1057 N1060 1.384 . S
C1058 H1049 0.929 . S
C1058 C1050 1.378 . S
C1058 C1053 1.350 . S
C1059 H1046 0.929 . S
C1059 C1051 1.433 . S
C1059 N1061 1.384 . S
N1060 C1056 1.427 . S
N1060 C1057 1.384 . S
N1061 C1053 1.427 . S
N1061 C1059 1.384 . S
H1062 C1068 0.930 . S
H1063 C1072 0.930 . S
H1064 C1077 0.929 . S
H1065 C1075 0.929 . S
H1066 C1070 0.929 . S
H1067 C1076 0.929 . S
C1068 H1062 0.930 . S
C1068 C1069 1.367 . S
C1068 C1076 1.378 . S
C1069 C1068 1.367 . S
C1069 C1077 1.433 . S
C1070 H1066 0.929 . S
C1070 C1072 1.378 . S
C1070 C1074 1.350 . S
C1071 C1074 1.463 . S
C1071 C1076 1.350 . S
C1071 N1079 1.427 . S
C1072 H1063 0.930 . S
C1072 C1070 1.378 . S
C1072 C1073 1.367 . S
C1073 C1072 1.367 . S
C1073 C1075 1.433 . S
C1074 C1070 1.350 . S
C1074 C1071 1.463 . S
C1074 N1078 1.427 . S
C1075 H1065 0.929 . S
C1075 C1073 1.433 . S
C1075 N1078 1.384 . S
C1076 H1067 0.929 . S
C1076 C1068 1.378 . S
C1076 C1071 1.350 . S
C1077 H1064 0.929 . S
C1077 C1069 1.433 . S
C1077 N1079 1.384 . S
N1078 C1074 1.427 . S
N1078 C1075 1.384 . S
N1079 C1071 1.427 . S
N1079 C1077 1.384 . S
H1080 C1086 0.930 . S
H1081 C1090 0.930 . S
H1082 C1095 0.929 . S
H1083 C1093 0.929 . S
H1084 C1088 0.929 . S
H1085 C1094 0.929 . S
C1086 H1080 0.930 . S
C1086 C1087 1.367 . S
C1086 C1094 1.378 . S
C1087 C1086 1.367 . S
C1087 C1095 1.433 . S
C1088 H1084 0.929 . S
C1088 C1090 1.378 . S
C1088 C1092 1.350 1_554 S
C1089 C1092 1.463 . S
C1089 C1094 1.350 . S
C1089 N1097 1.427 . S
C1090 H1081 0.930 . S
C1090 C1088 1.378 . S
C1090 C1091 1.367 1_554 S
C1091 C1090 1.367 1_556 S
C1091 C1093 1.433 . S
C1092 C1088 1.350 1_556 S
C1092 C1089 1.463 . S
C1092 N1096 1.427 . S
C1093 H1083 0.929 . S
C1093 C1091 1.433 . S
C1093 N1096 1.384 . S
C1094 H1085 0.929 . S
C1094 C1086 1.378 . S
C1094 C1089 1.350 . S
C1095 H1082 0.929 . S
C1095 C1087 1.433 . S
C1095 N1097 1.384 . S
N1096 C1092 1.427 . S
N1096 C1093 1.384 . S
N1097 C1089 1.427 . S
N1097 C1095 1.384 . S
H1098 C1104 0.930 . S
H1099 C1108 0.930 . S
H1100 C1113 0.929 . S
H1101 C1111 0.929 . S
H1102 C1106 0.929 . S
H1103 C1112 0.929 1_554 S
C1104 H1098 0.930 . S
C1104 C1105 1.367 . S
C1104 C1112 1.378 . S
C1105 C1104 1.367 . S
C1105 C1113 1.433 . S
C1106 H1102 0.929 . S
C1106 C1108 1.378 . S
C1106 C1110 1.350 . S
C1107 C1110 1.463 . S
C1107 C1112 1.350 . S
C1107 N1115 1.427 . S
C1108 H1099 0.930 . S
C1108 C1106 1.378 . S
C1108 C1109 1.367 . S
C1109 C1108 1.367 . S
C1109 C1111 1.433 1_556 S
C1110 C1106 1.350 . S
C1110 C1107 1.463 . S
C1110 N1114 1.427 1_556 S
C1111 H1101 0.929 . S
C1111 C1109 1.433 1_554 S
C1111 N1114 1.384 . S
C1112 H1103 0.929 1_556 S
C1112 C1104 1.378 . S
C1112 C1107 1.350 . S
C1113 H1100 0.929 . S
C1113 C1105 1.433 . S
C1113 N1115 1.384 . S
N1114 C1110 1.427 1_554 S
N1114 C1111 1.384 . S
N1115 C1107 1.427 . S
N1115 C1113 1.384 . S
H1116 C1122 0.930 . S
H1117 C1126 0.930 . S
H1118 C1131 0.929 . S
H1119 C1129 0.929 . S
H1120 C1124 0.929 . S
H1121 C1130 0.929 . S
C1122 H1116 0.930 . S
C1122 C1123 1.367 . S
C1122 C1130 1.378 . S
C1123 C1122 1.367 . S
C1123 C1131 1.433 . S
C1124 H1120 0.929 . S
C1124 C1126 1.378 . S
C1124 C1128 1.350 1_554 S
C1125 C1128 1.463 . S
C1125 C1130 1.350 . S
C1125 N1133 1.427 . S
C1126 H1117 0.930 . S
C1126 C1124 1.378 . S
C1126 C1127 1.367 1_554 S
C1127 C1126 1.367 1_556 S
C1127 C1129 1.433 . S
C1128 C1124 1.350 1_556 S
C1128 C1125 1.463 . S
C1128 N1132 1.427 . S
C1129 H1119 0.929 . S
C1129 C1127 1.433 . S
C1129 N1132 1.384 . S
C1130 H1121 0.929 . S
C1130 C1122 1.378 . S
C1130 C1125 1.350 . S
C1131 H1118 0.929 . S
C1131 C1123 1.433 . S
C1131 N1133 1.384 . S
N1132 C1128 1.427 . S
N1132 C1129 1.384 . S
N1133 C1125 1.427 . S
N1133 C1131 1.384 . S
H1134 C1140 0.930 . S
H1135 C1144 0.930 . S
H1136 C1149 0.929 1_554 S
H1137 C1147 0.929 . S
H1138 C1142 0.929 . S
H1139 C1148 0.929 . S
C1140 H1134 0.930 . S
C1140 C1141 1.367 . S
C1140 C1148 1.378 . S
C1141 C1140 1.367 . S
C1141 C1149 1.433 . S
C1142 H1138 0.929 . S
C1142 C1144 1.378 . S
C1142 C1146 1.350 1_554 S
C1143 C1146 1.463 . S
C1143 C1148 1.350 . S
C1143 N1151 1.427 . S
C1144 H1135 0.930 . S
C1144 C1142 1.378 . S
C1144 C1145 1.367 1_554 S
C1145 C1144 1.367 1_556 S
C1145 C1147 1.433 . S
C1146 C1142 1.350 1_556 S
C1146 C1143 1.463 . S
C1146 N1150 1.427 . S
C1147 H1137 0.929 . S
C1147 C1145 1.433 . S
C1147 N1150 1.384 . S
C1148 H1139 0.929 . S
C1148 C1140 1.378 . S
C1148 C1143 1.350 . S
C1149 H1136 0.929 1_556 S
C1149 C1141 1.433 . S
C1149 N1151 1.384 . S
N1150 C1146 1.427 . S
N1150 C1147 1.384 . S
N1151 C1143 1.427 . S
N1151 C1149 1.384 . S
H1152 C1158 0.930 . S
H1153 C1162 0.930 . S
H1154 C1167 0.929 . S
H1155 C1165 0.929 . S
H1156 C1160 0.929 . S
H1157 C1166 0.929 . S
C1158 H1152 0.930 . S
C1158 C1159 1.367 . S
C1158 C1166 1.378 . S
C1159 C1158 1.367 . S
C1159 C1167 1.433 . S
C1160 H1156 0.929 . S
C1160 C1162 1.378 . S
C1160 C1164 1.350 . S
C1161 C1164 1.463 . S
C1161 C1166 1.350 . S
C1161 N1169 1.427 . S
C1162 H1153 0.930 . S
C1162 C1160 1.378 . S
C1162 C1163 1.367 . S
C1163 C1162 1.367 . S
C1163 C1165 1.433 . S
C1164 C1160 1.350 . S
C1164 C1161 1.463 . S
C1164 N1168 1.427 . S
C1165 H1155 0.929 . S
C1165 C1163 1.433 . S
C1165 N1168 1.384 . S
C1166 H1157 0.929 . S
C1166 C1158 1.378 . S
C1166 C1161 1.350 . S
C1167 H1154 0.929 . S
C1167 C1159 1.433 . S
C1167 N1169 1.384 . S
N1168 C1164 1.427 . S
N1168 C1165 1.384 . S
N1169 C1161 1.427 . S
N1169 C1167 1.384 . S
H1170 C1176 0.930 . S
H1171 C1180 0.930 . S
H1172 C1185 0.929 . S
H1173 C1183 0.929 . S
H1174 C1178 0.929 . S
H1175 C1184 0.929 . S
C1176 H1170 0.930 . S
C1176 C1177 1.367 . S
C1176 C1184 1.378 . S
C1177 C1176 1.367 . S
C1177 C1185 1.433 . S
C1178 H1174 0.929 . S
C1178 C1180 1.378 . S
C1178 C1182 1.350 . S
C1179 C1182 1.463 . S
C1179 C1184 1.350 . S
C1179 N1187 1.427 . S
C1180 H1171 0.930 . S
C1180 C1178 1.378 . S
C1180 C1181 1.367 . S
C1181 C1180 1.367 . S
C1181 C1183 1.433 . S
C1182 C1178 1.350 . S
C1182 C1179 1.463 . S
C1182 N1186 1.427 . S
C1183 H1173 0.929 . S
C1183 C1181 1.433 . S
C1183 N1186 1.384 . S
C1184 H1175 0.929 . S
C1184 C1176 1.378 . S
C1184 C1179 1.350 . S
C1185 H1172 0.929 . S
C1185 C1177 1.433 . S
C1185 N1187 1.384 . S
N1186 C1182 1.427 . S
N1186 C1183 1.384 . S
N1187 C1179 1.427 . S
N1187 C1185 1.384 . S
H1188 C1194 0.930 . S
H1189 C1198 0.930 . S
H1190 C1203 0.929 . S
H1191 C1201 0.929 . S
H1192 C1196 0.929 . S
H1193 C1202 0.929 . S
C1194 H1188 0.930 . S
C1194 C1195 1.367 . S
C1194 C1202 1.378 . S
C1195 C1194 1.367 . S
C1195 C1203 1.433 . S
C1196 H1192 0.929 . S
C1196 C1198 1.378 . S
C1196 C1200 1.350 . S
C1197 C1200 1.463 . S
C1197 C1202 1.350 . S
C1197 N1205 1.427 . S
C1198 H1189 0.930 . S
C1198 C1196 1.378 . S
C1198 C1199 1.367 . S
C1199 C1198 1.367 . S
C1199 C1201 1.433 . S
C1200 C1196 1.350 . S
C1200 C1197 1.463 . S
C1200 N1204 1.427 . S
C1201 H1191 0.929 . S
C1201 C1199 1.433 . S
C1201 N1204 1.384 . S
C1202 H1193 0.929 . S
C1202 C1194 1.378 . S
C1202 C1197 1.350 . S
C1203 H1190 0.929 . S
C1203 C1195 1.433 . S
C1203 N1205 1.384 . S
N1204 C1200 1.427 . S
N1204 C1201 1.384 . S
N1205 C1197 1.427 . S
N1205 C1203 1.384 . S
H1206 C1212 0.930 . S
H1207 C1216 0.930 . S
H1208 C1221 0.929 . S
H1209 C1219 0.929 . S
H1210 C1214 0.929 . S
H1211 C1220 0.929 1_455 S
C1212 H1206 0.930 . S
C1212 C1213 1.367 . S
C1212 C1220 1.378 . S
C1213 C1212 1.367 . S
C1213 C1221 1.433 . S
C1214 H1210 0.929 . S
C1214 C1216 1.378 . S
C1214 C1218 1.350 . S
C1215 C1218 1.463 1_655 S
C1215 C1220 1.350 . S
C1215 N1223 1.427 . S
C1216 H1207 0.930 . S
C1216 C1214 1.378 . S
C1216 C1217 1.367 . S
C1217 C1216 1.367 . S
C1217 C1219 1.433 . S
C1218 C1214 1.350 . S
C1218 C1215 1.463 1_455 S
C1218 N1222 1.427 . S
C1219 H1209 0.929 . S
C1219 C1217 1.433 . S
C1219 N1222 1.384 . S
C1220 H1211 0.929 1_655 S
C1220 C1212 1.378 . S
C1220 C1215 1.350 . S
C1221 H1208 0.929 . S
C1221 C1213 1.433 . S
C1221 N1223 1.384 . S
N1222 C1218 1.427 . S
N1222 C1219 1.384 . S
N1223 C1215 1.427 . S
N1223 C1221 1.384 . S
H1224 C1230 0.930 . S
H1225 C1234 0.930 . S
H1226 C1239 0.929 . S
H1227 C1237 0.929 . S
H1228 C1232 0.929 . S
H1229 C1238 0.929 . S
C1230 H1224 0.930 . S
C1230 C1231 1.367 . S
C1230 C1238 1.378 . S
C1231 C1230 1.367 . S
C1231 C1239 1.433 . S
C1232 H1228 0.929 . S
C1232 C1234 1.378 . S
C1232 C1236 1.350 . S
C1233 C1236 1.463 . S
C1233 C1238 1.350 . S
C1233 N1241 1.427 . S
C1234 H1225 0.930 . S
C1234 C1232 1.378 . S
C1234 C1235 1.367 . S
C1235 C1234 1.367 . S
C1235 C1237 1.433 . S
C1236 C1232 1.350 . S
C1236 C1233 1.463 . S
C1236 N1240 1.427 . S
C1237 H1227 0.929 . S
C1237 C1235 1.433 . S
C1237 N1240 1.384 . S
C1238 H1229 0.929 . S
C1238 C1230 1.378 . S
C1238 C1233 1.350 . S
C1239 H1226 0.929 . S
C1239 C1231 1.433 . S
C1239 N1241 1.384 . S
N1240 C1236 1.427 . S
N1240 C1237 1.384 . S
N1241 C1233 1.427 . S
N1241 C1239 1.384 . S
H1242 C1248 0.930 . S
H1243 C1252 0.930 . S
H1244 C1257 0.929 . S
H1245 C1255 0.929 . S
H1246 C1250 0.929 . S
H1247 C1256 0.929 . S
C1248 H1242 0.930 . S
C1248 C1249 1.367 . S
C1248 C1256 1.378 . S
C1249 C1248 1.367 . S
C1249 C1257 1.433 . S
C1250 H1246 0.929 . S
C1250 C1252 1.378 . S
C1250 C1254 1.350 . S
C1251 C1254 1.463 1_545 S
C1251 C1256 1.350 . S
C1251 N1259 1.427 . S
C1252 H1243 0.930 . S
C1252 C1250 1.378 . S
C1252 C1253 1.367 . S
C1253 C1252 1.367 . S
C1253 C1255 1.433 . S
C1254 C1250 1.350 . S
C1254 C1251 1.463 1_565 S
C1254 N1258 1.427 . S
C1255 H1245 0.929 . S
C1255 C1253 1.433 . S
C1255 N1258 1.384 . S
C1256 H1247 0.929 . S
C1256 C1248 1.378 . S
C1256 C1251 1.350 . S
C1257 H1244 0.929 . S
C1257 C1249 1.433 . S
C1257 N1259 1.384 . S
N1258 C1254 1.427 . S
N1258 C1255 1.384 . S
N1259 C1251 1.427 . S
N1259 C1257 1.384 . S
H1260 C1266 0.930 . S
H1261 C1270 0.930 . S
H1262 C1275 0.929 . S
H1263 C1273 0.929 . S
H1264 C1268 0.929 . S
H1265 C1274 0.929 . S
C1266 H1260 0.930 . S
C1266 C1267 1.367 . S
C1266 C1274 1.378 . S
C1267 C1266 1.367 . S
C1267 C1275 1.433 . S
C1268 H1264 0.929 . S
C1268 C1270 1.378 . S
C1268 C1272 1.350 . S
C1269 C1272 1.463 . S
C1269 C1274 1.350 . S
C1269 N1277 1.427 . S
C1270 H1261 0.930 . S
C1270 C1268 1.378 . S
C1270 C1271 1.367 . S
C1271 C1270 1.367 . S
C1271 C1273 1.433 . S
C1272 C1268 1.350 . S
C1272 C1269 1.463 . S
C1272 N1276 1.427 . S
C1273 H1263 0.929 . S
C1273 C1271 1.433 . S
C1273 N1276 1.384 . S
C1274 H1265 0.929 . S
C1274 C1266 1.378 . S
C1274 C1269 1.350 . S
C1275 H1262 0.929 . S
C1275 C1267 1.433 . S
C1275 N1277 1.384 . S
N1276 C1272 1.427 . S
N1276 C1273 1.384 . S
N1277 C1269 1.427 . S
N1277 C1275 1.384 . S
H1278 C1284 0.930 . S
H1279 C1288 0.930 . S
H1280 C1293 0.929 . S
H1281 C1291 0.929 . S
H1282 C1286 0.929 . S
H1283 C1292 0.929 . S
C1284 H1278 0.930 . S
C1284 C1285 1.367 . S
C1284 C1292 1.378 . S
C1285 C1284 1.367 . S
C1285 C1293 1.433 . S
C1286 H1282 0.929 . S
C1286 C1288 1.378 . S
C1286 C1290 1.350 . S
C1287 C1290 1.463 . S
C1287 C1292 1.350 . S
C1287 N1295 1.427 . S
C1288 H1279 0.930 . S
C1288 C1286 1.378 . S
C1288 C1289 1.367 . S
C1289 C1288 1.367 . S
C1289 C1291 1.433 . S
C1290 C1286 1.350 . S
C1290 C1287 1.463 . S
C1290 N1294 1.427 . S
C1291 H1281 0.929 . S
C1291 C1289 1.433 . S
C1291 N1294 1.384 . S
C1292 H1283 0.929 . S
C1292 C1284 1.378 . S
C1292 C1287 1.350 . S
C1293 H1280 0.929 . S
C1293 C1285 1.433 . S
C1293 N1295 1.384 . S
N1294 C1290 1.427 . S
N1294 C1291 1.384 . S
N1295 C1287 1.427 . S
N1295 C1293 1.384 . S
H1296 C1302 0.930 . S
H1297 C1306 0.930 . S
H1298 C1311 0.929 . S
H1299 C1309 0.929 . S
H1300 C1304 0.929 . S
H1301 C1310 0.929 . S
C1302 H1296 0.930 . S
C1302 C1303 1.367 . S
C1302 C1310 1.378 . S
C1303 C1302 1.367 . S
C1303 C1311 1.433 . S
C1304 H1300 0.929 . S
C1304 C1306 1.378 . S
C1304 C1308 1.350 . S
C1305 C1308 1.463 . S
C1305 C1310 1.350 . S
C1305 N1313 1.427 . S
C1306 H1297 0.930 . S
C1306 C1304 1.378 . S
C1306 C1307 1.367 . S
C1307 C1306 1.367 . S
C1307 C1309 1.433 . S
C1308 C1304 1.350 . S
C1308 C1305 1.463 . S
C1308 N1312 1.427 . S
C1309 H1299 0.929 . S
C1309 C1307 1.433 . S
C1309 N1312 1.384 . S
C1310 H1301 0.929 . S
C1310 C1302 1.378 . S
C1310 C1305 1.350 . S
C1311 H1298 0.929 . S
C1311 C1303 1.433 . S
C1311 N1313 1.384 . S
N1312 C1308 1.427 . S
N1312 C1309 1.384 . S
N1313 C1305 1.427 . S
N1313 C1311 1.384 . S
H1314 C1320 0.930 . S
H1315 C1324 0.930 . S
H1316 C1329 0.929 . S
H1317 C1327 0.929 . S
H1318 C1322 0.929 . S
H1319 C1328 0.929 . S
C1320 H1314 0.930 . S
C1320 C1321 1.367 . S
C1320 C1328 1.378 . S
C1321 C1320 1.367 . S
C1321 C1329 1.433 . S
C1322 H1318 0.929 . S
C1322 C1324 1.378 . S
C1322 C1326 1.350 . S
C1323 C1326 1.463 . S
C1323 C1328 1.350 . S
C1323 N1331 1.427 . S
C1324 H1315 0.930 . S
C1324 C1322 1.378 . S
C1324 C1325 1.367 . S
C1325 C1324 1.367 . S
C1325 C1327 1.433 . S
C1326 C1322 1.350 . S
C1326 C1323 1.463 . S
C1326 N1330 1.427 . S
C1327 H1317 0.929 . S
C1327 C1325 1.433 . S
C1327 N1330 1.384 . S
C1328 H1319 0.929 . S
C1328 C1320 1.378 . S
C1328 C1323 1.350 . S
C1329 H1316 0.929 . S
C1329 C1321 1.433 . S
C1329 N1331 1.384 . S
N1330 C1326 1.427 . S
N1330 C1327 1.384 . S
N1331 C1323 1.427 . S
N1331 C1329 1.384 . S
H1332 C1338 0.930 . S
H1333 C1342 0.930 . S
H1334 C1347 0.929 . S
H1335 C1345 0.929 . S
H1336 C1340 0.929 . S
H1337 C1346 0.929 . S
C1338 H1332 0.930 . S
C1338 C1339 1.367 . S
C1338 C1346 1.378 . S
C1339 C1338 1.367 . S
C1339 C1347 1.433 . S
C1340 H1336 0.929 . S
C1340 C1342 1.378 . S
C1340 C1344 1.350 . S
C1341 C1344 1.463 . S
C1341 C1346 1.350 . S
C1341 N1349 1.427 . S
C1342 H1333 0.930 . S
C1342 C1340 1.378 . S
C1342 C1343 1.367 . S
C1343 C1342 1.367 . S
C1343 C1345 1.433 . S
C1344 C1340 1.350 . S
C1344 C1341 1.463 . S
C1344 N1348 1.427 . S
C1345 H1335 0.929 . S
C1345 C1343 1.433 . S
C1345 N1348 1.384 . S
C1346 H1337 0.929 . S
C1346 C1338 1.378 . S
C1346 C1341 1.350 . S
C1347 H1334 0.929 . S
C1347 C1339 1.433 . S
C1347 N1349 1.384 . S
N1348 C1344 1.427 . S
N1348 C1345 1.384 . S
N1349 C1341 1.427 . S
N1349 C1347 1.384 . S
H1350 C1356 0.930 . S
H1351 C1360 0.930 . S
H1352 C1365 0.929 . S
H1353 C1363 0.929 . S
H1354 C1358 0.929 . S
H1355 C1364 0.929 . S
C1356 H1350 0.930 . S
C1356 C1357 1.367 . S
C1356 C1364 1.378 . S
C1357 C1356 1.367 . S
C1357 C1365 1.433 . S
C1358 H1354 0.929 . S
C1358 C1360 1.378 . S
C1358 C1362 1.350 . S
C1359 C1362 1.463 . S
C1359 C1364 1.350 . S
C1359 N1367 1.427 . S
C1360 H1351 0.930 . S
C1360 C1358 1.378 . S
C1360 C1361 1.367 . S
C1361 C1360 1.367 . S
C1361 C1363 1.433 . S
C1362 C1358 1.350 . S
C1362 C1359 1.463 . S
C1362 N1366 1.427 . S
C1363 H1353 0.929 . S
C1363 C1361 1.433 . S
C1363 N1366 1.384 . S
C1364 H1355 0.929 . S
C1364 C1356 1.378 . S
C1364 C1359 1.350 . S
C1365 H1352 0.929 . S
C1365 C1357 1.433 . S
C1365 N1367 1.384 . S
N1366 C1362 1.427 . S
N1366 C1363 1.384 . S
N1367 C1359 1.427 . S
N1367 C1365 1.384 . S
H1368 C1374 0.930 . S
H1369 C1378 0.930 . S
H1370 C1383 0.929 . S
H1371 C1381 0.929 . S
H1372 C1376 0.929 . S
H1373 C1382 0.929 . S
C1374 H1368 0.930 . S
C1374 C1375 1.367 . S
C1374 C1382 1.378 1_545 S
C1375 C1374 1.367 . S
C1375 C1383 1.433 . S
C1376 H1372 0.929 . S
C1376 C1378 1.378 . S
C1376 C1380 1.350 . S
C1377 C1380 1.463 . S
C1377 C1382 1.350 . S
C1377 N1385 1.427 . S
C1378 H1369 0.930 . S
C1378 C1376 1.378 . S
C1378 C1379 1.367 . S
C1379 C1378 1.367 . S
C1379 C1381 1.433 . S
C1380 C1376 1.350 . S
C1380 C1377 1.463 . S
C1380 N1384 1.427 . S
C1381 H1371 0.929 . S
C1381 C1379 1.433 . S
C1381 N1384 1.384 . S
C1382 H1373 0.929 . S
C1382 C1374 1.378 1_565 S
C1382 C1377 1.350 . S
C1383 H1370 0.929 . S
C1383 C1375 1.433 . S
C1383 N1385 1.384 1_545 S
N1384 C1380 1.427 . S
N1384 C1381 1.384 . S
N1385 C1377 1.427 . S
N1385 C1383 1.384 1_565 S
H1386 C1392 0.930 . S
H1387 C1396 0.930 . S
H1388 C1401 0.929 1_655 S
H1389 C1399 0.929 . S
H1390 C1394 0.929 . S
H1391 C1400 0.929 . S
C1392 H1386 0.930 . S
C1392 C1393 1.367 1_455 S
C1392 C1400 1.378 . S
C1393 C1392 1.367 1_655 S
C1393 C1401 1.433 1_655 S
C1394 H1390 0.929 . S
C1394 C1396 1.378 . S
C1394 C1398 1.350 . S
C1395 C1398 1.463 . S
C1395 C1400 1.350 . S
C1395 N1403 1.427 . S
C1396 H1387 0.930 . S
C1396 C1394 1.378 . S
C1396 C1397 1.367 . S
C1397 C1396 1.367 . S
C1397 C1399 1.433 . S
C1398 C1394 1.350 . S
C1398 C1395 1.463 . S
C1398 N1402 1.427 . S
C1399 H1389 0.929 . S
C1399 C1397 1.433 . S
C1399 N1402 1.384 . S
C1400 H1391 0.929 . S
C1400 C1392 1.378 . S
C1400 C1395 1.350 . S
C1401 H1388 0.929 1_455 S
C1401 C1393 1.433 1_455 S
C1401 N1403 1.384 . S
N1402 C1398 1.427 . S
N1402 C1399 1.384 . S
N1403 C1395 1.427 . S
N1403 C1401 1.384 . S
H1404 C1410 0.930 . S
H1405 C1414 0.930 . S
H1406 C1419 0.929 . S
H1407 C1417 0.929 . S
H1408 C1412 0.929 . S
H1409 C1418 0.929 . S
C1410 H1404 0.930 . S
C1410 C1411 1.367 . S
C1410 C1418 1.378 . S
C1411 C1410 1.367 . S
C1411 C1419 1.433 . S
C1412 H1408 0.929 . S
C1412 C1414 1.378 . S
C1412 C1416 1.350 . S
C1413 C1416 1.463 . S
C1413 C1418 1.350 . S
C1413 N1421 1.427 . S
C1414 H1405 0.930 . S
C1414 C1412 1.378 . S
C1414 C1415 1.367 . S
C1415 C1414 1.367 . S
C1415 C1417 1.433 . S
C1416 C1412 1.350 . S
C1416 C1413 1.463 . S
C1416 N1420 1.427 . S
C1417 H1407 0.929 . S
C1417 C1415 1.433 . S
C1417 N1420 1.384 . S
C1418 H1409 0.929 . S
C1418 C1410 1.378 . S
C1418 C1413 1.350 . S
C1419 H1406 0.929 . S
C1419 C1411 1.433 . S
C1419 N1421 1.384 . S
N1420 C1416 1.427 . S
N1420 C1417 1.384 . S
N1421 C1413 1.427 . S
N1421 C1419 1.384 . S
H1422 C1428 0.930 . S
H1423 C1432 0.930 . S
H1424 C1437 0.929 . S
H1425 C1435 0.929 . S
H1426 C1430 0.929 . S
H1427 C1436 0.929 . S
C1428 H1422 0.930 . S
C1428 C1429 1.367 . S
C1428 C1436 1.378 . S
C1429 C1428 1.367 . S
C1429 C1437 1.433 . S
C1430 H1426 0.929 . S
C1430 C1432 1.378 . S
C1430 C1434 1.350 . S
C1431 C1434 1.463 . S
C1431 C1436 1.350 . S
C1431 N1439 1.427 . S
C1432 H1423 0.930 . S
C1432 C1430 1.378 . S
C1432 C1433 1.367 . S
C1433 C1432 1.367 . S
C1433 C1435 1.433 . S
C1434 C1430 1.350 . S
C1434 C1431 1.463 . S
C1434 N1438 1.427 . S
C1435 H1425 0.929 . S
C1435 C1433 1.433 . S
C1435 N1438 1.384 . S
C1436 H1427 0.929 . S
C1436 C1428 1.378 . S
C1436 C1431 1.350 . S
C1437 H1424 0.929 . S
C1437 C1429 1.433 . S
C1437 N1439 1.384 . S
N1438 C1434 1.427 . S
N1438 C1435 1.384 . S
N1439 C1431 1.427 . S
N1439 C1437 1.384 . S
H1440 C1446 0.930 . S
H1441 C1450 0.930 . S
H1442 C1455 0.929 . S
H1443 C1453 0.929 . S
H1444 C1448 0.929 . S
H1445 C1454 0.929 . S
C1446 H1440 0.930 . S
C1446 C1447 1.367 . S
C1446 C1454 1.378 . S
C1447 C1446 1.367 . S
C1447 C1455 1.433 . S
C1448 H1444 0.929 . S
C1448 C1450 1.378 . S
C1448 C1452 1.350 . S
C1449 C1452 1.463 . S
C1449 C1454 1.350 . S
C1449 N1457 1.427 . S
C1450 H1441 0.930 . S
C1450 C1448 1.378 . S
C1450 C1451 1.367 . S
C1451 C1450 1.367 . S
C1451 C1453 1.433 . S
C1452 C1448 1.350 . S
C1452 C1449 1.463 . S
C1452 N1456 1.427 . S
C1453 H1443 0.929 . S
C1453 C1451 1.433 . S
C1453 N1456 1.384 . S
C1454 H1445 0.929 . S
C1454 C1446 1.378 . S
C1454 C1449 1.350 . S
C1455 H1442 0.929 . S
C1455 C1447 1.433 . S
C1455 N1457 1.384 . S
N1456 C1452 1.427 . S
N1456 C1453 1.384 . S
N1457 C1449 1.427 . S
N1457 C1455 1.384 . S
H1458 C1464 0.930 . S
H1459 C1468 0.930 . S
H1460 C1473 0.929 . S
H1461 C1471 0.929 . S
H1462 C1466 0.929 . S
H1463 C1472 0.929 . S
C1464 H1458 0.930 . S
C1464 C1465 1.367 . S
C1464 C1472 1.378 . S
C1465 C1464 1.367 . S
C1465 C1473 1.433 . S
C1466 H1462 0.929 . S
C1466 C1468 1.378 . S
C1466 C1470 1.350 . S
C1467 C1470 1.463 . S
C1467 C1472 1.350 . S
C1467 N1475 1.427 . S
C1468 H1459 0.930 . S
C1468 C1466 1.378 . S
C1468 C1469 1.367 . S
C1469 C1468 1.367 . S
C1469 C1471 1.433 . S
C1470 C1466 1.350 . S
C1470 C1467 1.463 . S
C1470 N1474 1.427 . S
C1471 H1461 0.929 . S
C1471 C1469 1.433 . S
C1471 N1474 1.384 . S
C1472 H1463 0.929 . S
C1472 C1464 1.378 . S
C1472 C1467 1.350 . S
C1473 H1460 0.929 . S
C1473 C1465 1.433 . S
C1473 N1475 1.384 . S
N1474 C1470 1.427 . S
N1474 C1471 1.384 . S
N1475 C1467 1.427 . S
N1475 C1473 1.384 . S
H1476 C1482 0.930 . S
H1477 C1486 0.930 . S
H1478 C1491 0.929 . S
H1479 C1489 0.929 . S
H1480 C1484 0.929 . S
H1481 C1490 0.929 . S
C1482 H1476 0.930 . S
C1482 C1483 1.367 . S
C1482 C1490 1.378 . S
C1483 C1482 1.367 . S
C1483 C1491 1.433 . S
C1484 H1480 0.929 . S
C1484 C1486 1.378 . S
C1484 C1488 1.350 . S
C1485 C1488 1.463 1_565 S
C1485 C1490 1.350 . S
C1485 N1493 1.427 . S
C1486 H1477 0.930 . S
C1486 C1484 1.378 . S
C1486 C1487 1.367 . S
C1487 C1486 1.367 . S
C1487 C1489 1.433 . S
C1488 C1484 1.350 . S
C1488 C1485 1.463 1_545 S
C1488 N1492 1.427 . S
C1489 H1479 0.929 . S
C1489 C1487 1.433 . S
C1489 N1492 1.384 . S
C1490 H1481 0.929 . S
C1490 C1482 1.378 . S
C1490 C1485 1.350 . S
C1491 H1478 0.929 . S
C1491 C1483 1.433 . S
C1491 N1493 1.384 . S
N1492 C1488 1.427 . S
N1492 C1489 1.384 . S
N1493 C1485 1.427 . S
N1493 C1491 1.384 . S
H1494 C1500 0.930 . S
H1495 C1504 0.930 . S
H1496 C1509 0.929 . S
H1497 C1507 0.929 . S
H1498 C1502 0.929 . S
H1499 C1508 0.929 . S
C1500 H1494 0.930 . S
C1500 C1501 1.367 . S
C1500 C1508 1.378 . S
C1501 C1500 1.367 . S
C1501 C1509 1.433 . S
C1502 H1498 0.929 . S
C1502 C1504 1.378 . S
C1502 C1506 1.350 . S
C1503 C1506 1.463 1_455 S
C1503 C1508 1.350 . S
C1503 N1511 1.427 . S
C1504 H1495 0.930 . S
C1504 C1502 1.378 . S
C1504 C1505 1.367 . S
C1505 C1504 1.367 . S
C1505 C1507 1.433 . S
C1506 C1502 1.350 . S
C1506 C1503 1.463 1_655 S
C1506 N1510 1.427 . S
C1507 H1497 0.929 . S
C1507 C1505 1.433 . S
C1507 N1510 1.384 . S
C1508 H1499 0.929 . S
C1508 C1500 1.378 . S
C1508 C1503 1.350 . S
C1509 H1496 0.929 . S
C1509 C1501 1.433 . S
C1509 N1511 1.384 . S
N1510 C1506 1.427 . S
N1510 C1507 1.384 . S
N1511 C1503 1.427 . S
N1511 C1509 1.384 . S
H1512 C1518 0.930 . S
H1513 C1522 0.930 . S
H1514 C1527 0.929 . S
H1515 C1525 0.929 . S
H1516 C1520 0.929 . S
H1517 C1526 0.929 . S
C1518 H1512 0.930 . S
C1518 C1519 1.367 . S
C1518 C1526 1.378 . S
C1519 C1518 1.367 . S
C1519 C1527 1.433 . S
C1520 H1516 0.929 . S
C1520 C1522 1.378 . S
C1520 C1524 1.350 . S
C1521 C1524 1.463 . S
C1521 C1526 1.350 . S
C1521 N1529 1.427 . S
C1522 H1513 0.930 . S
C1522 C1520 1.378 . S
C1522 C1523 1.367 . S
C1523 C1522 1.367 . S
C1523 C1525 1.433 . S
C1524 C1520 1.350 . S
C1524 C1521 1.463 . S
C1524 N1528 1.427 . S
C1525 H1515 0.929 . S
C1525 C1523 1.433 . S
C1525 N1528 1.384 . S
C1526 H1517 0.929 . S
C1526 C1518 1.378 . S
C1526 C1521 1.350 . S
C1527 H1514 0.929 . S
C1527 C1519 1.433 . S
C1527 N1529 1.384 . S
N1528 C1524 1.427 . S
N1528 C1525 1.384 . S
N1529 C1521 1.427 . S
N1529 C1527 1.384 . S
H1530 C1536 0.930 . S
H1531 C1540 0.930 . S
H1532 C1545 0.929 1_455 S
H1533 C1543 0.929 . S
H1534 C1538 0.929 . S
H1535 C1544 0.929 . S
C1536 H1530 0.930 . S
C1536 C1537 1.367 . S
C1536 C1544 1.378 1_455 S
C1537 C1536 1.367 . S
C1537 C1545 1.433 1_455 S
C1538 H1534 0.929 . S
C1538 C1540 1.378 . S
C1538 C1542 1.350 . S
C1539 C1542 1.463 . S
C1539 C1544 1.350 . S
C1539 N1547 1.427 . S
C1540 H1531 0.930 . S
C1540 C1538 1.378 . S
C1540 C1541 1.367 . S
C1541 C1540 1.367 . S
C1541 C1543 1.433 . S
C1542 C1538 1.350 . S
C1542 C1539 1.463 . S
C1542 N1546 1.427 . S
C1543 H1533 0.929 . S
C1543 C1541 1.433 . S
C1543 N1546 1.384 . S
C1544 H1535 0.929 . S
C1544 C1536 1.378 1_655 S
C1544 C1539 1.350 . S
C1545 H1532 0.929 1_655 S
C1545 C1537 1.433 1_655 S
C1545 N1547 1.384 . S
N1546 C1542 1.427 . S
N1546 C1543 1.384 . S
N1547 C1539 1.427 . S
N1547 C1545 1.384 . S
H1548 C1554 0.930 . S
H1549 C1558 0.930 . S
H1550 C1563 0.929 . S
H1551 C1561 0.929 . S
H1552 C1556 0.929 . S
H1553 C1562 0.929 . S
C1554 H1548 0.930 . S
C1554 C1555 1.367 . S
C1554 C1562 1.378 . S
C1555 C1554 1.367 . S
C1555 C1563 1.433 . S
C1556 H1552 0.929 . S
C1556 C1558 1.378 . S
C1556 C1560 1.350 . S
C1557 C1560 1.463 . S
C1557 C1562 1.350 . S
C1557 N1565 1.427 . S
C1558 H1549 0.930 . S
C1558 C1556 1.378 . S
C1558 C1559 1.367 . S
C1559 C1558 1.367 . S
C1559 C1561 1.433 . S
C1560 C1556 1.350 . S
C1560 C1557 1.463 . S
C1560 N1564 1.427 . S
C1561 H1551 0.929 . S
C1561 C1559 1.433 . S
C1561 N1564 1.384 . S
C1562 H1553 0.929 . S
C1562 C1554 1.378 . S
C1562 C1557 1.350 . S
C1563 H1550 0.929 . S
C1563 C1555 1.433 . S
C1563 N1565 1.384 . S
N1564 C1560 1.427 . S
N1564 C1561 1.384 . S
N1565 C1557 1.427 . S
N1565 C1563 1.384 . S
H1566 C1572 0.936 . S
H1567 C1576 0.930 . S
H1568 C1581 0.929 1_565 S
H1569 C1579 0.929 . S
H1570 C1574 0.929 . S
H1571 C1580 0.929 . S
C1572 H1566 0.936 . S
C1572 C1573 1.368 . S
C1572 C1580 1.371 1_565 S
C1573 C1572 1.368 . S
C1573 C1581 1.433 1_565 S
C1574 H1570 0.929 . S
C1574 C1576 1.378 . S
C1574 C1578 1.350 . S
C1575 C1578 1.463 . S
C1575 C1580 1.350 . S
C1575 N1583 1.427 . S
C1576 H1567 0.930 . S
C1576 C1574 1.378 . S
C1576 C1577 1.367 . S
C1577 C1576 1.367 . S
C1577 C1579 1.433 . S
C1578 C1574 1.350 . S
C1578 C1575 1.463 . S
C1578 N1582 1.427 . S
C1579 H1569 0.929 . S
C1579 C1577 1.433 . S
C1579 N1582 1.384 . S
C1580 H1571 0.929 . S
C1580 C1572 1.371 1_545 S
C1580 C1575 1.350 . S
C1581 H1568 0.929 1_545 S
C1581 C1573 1.433 1_545 S
C1581 N1583 1.384 . S
N1582 C1578 1.427 . S
N1582 C1579 1.384 . S
N1583 C1575 1.427 . S
N1583 C1581 1.384 . S
H1584 C1590 0.930 . S
H1585 C1594 0.930 . S
H1586 C1599 0.929 . S
H1587 C1597 0.929 . S
H1588 C1592 0.929 . S
H1589 C1598 0.929 . S
C1590 H1584 0.930 . S
C1590 C1591 1.367 . S
C1590 C1598 1.378 . S
C1591 C1590 1.367 . S
C1591 C1599 1.433 . S
C1592 H1588 0.929 . S
C1592 C1594 1.378 . S
C1592 C1596 1.350 . S
C1593 C1596 1.463 . S
C1593 C1598 1.350 . S
C1593 N1601 1.427 . S
C1594 H1585 0.930 . S
C1594 C1592 1.378 . S
C1594 C1595 1.367 . S
C1595 C1594 1.367 . S
C1595 C1597 1.433 . S
C1596 C1592 1.350 . S
C1596 C1593 1.463 . S
C1596 N1600 1.427 . S
C1597 H1587 0.929 . S
C1597 C1595 1.433 . S
C1597 N1600 1.384 . S
C1598 H1589 0.929 . S
C1598 C1590 1.378 . S
C1598 C1593 1.350 . S
C1599 H1586 0.929 . S
C1599 C1591 1.433 . S
C1599 N1601 1.384 . S
N1600 C1596 1.427 . S
N1600 C1597 1.384 . S
N1601 C1593 1.427 . S
N1601 C1599 1.384 . S
H1602 C1608 0.930 . S
H1603 C1612 0.930 . S
H1604 C1617 0.929 . S
H1605 C1615 0.929 . S
H1606 C1610 0.929 . S
H1607 C1616 0.929 . S
C1608 H1602 0.930 . S
C1608 C1609 1.367 . S
C1608 C1616 1.378 . S
C1609 C1608 1.367 . S
C1609 C1617 1.433 . S
C1610 H1606 0.929 . S
C1610 C1612 1.378 . S
C1610 C1614 1.350 . S
C1611 C1614 1.463 . S
C1611 C1616 1.350 . S
C1611 N1619 1.427 . S
C1612 H1603 0.930 . S
C1612 C1610 1.378 . S
C1612 C1613 1.367 . S
C1613 C1612 1.367 . S
C1613 C1615 1.433 . S
C1614 C1610 1.350 . S
C1614 C1611 1.463 . S
C1614 N1618 1.427 . S
C1615 H1605 0.929 . S
C1615 C1613 1.433 . S
C1615 N1618 1.384 . S
C1616 H1607 0.929 . S
C1616 C1608 1.378 . S
C1616 C1611 1.350 . S
C1617 H1604 0.929 . S
C1617 C1609 1.433 . S
C1617 N1619 1.384 . S
N1618 C1614 1.427 . S
N1618 C1615 1.384 . S
N1619 C1611 1.427 . S
N1619 C1617 1.384 . S
H1620 C1626 0.930 . S
H1621 C1630 0.930 . S
H1622 C1635 0.929 . S
H1623 C1633 0.929 . S
H1624 C1628 0.929 . S
H1625 C1634 0.929 . S
C1626 H1620 0.930 . S
C1626 C1627 1.367 . S
C1626 C1634 1.378 . S
C1627 C1626 1.367 . S
C1627 C1635 1.433 . S
C1628 H1624 0.929 . S
C1628 C1630 1.378 . S
C1628 C1632 1.350 . S
C1629 C1632 1.463 . S
C1629 C1634 1.350 . S
C1629 N1637 1.427 . S
C1630 H1621 0.930 . S
C1630 C1628 1.378 . S
C1630 C1631 1.367 . S
C1631 C1630 1.367 . S
C1631 C1633 1.433 . S
C1632 C1628 1.350 . S
C1632 C1629 1.463 . S
C1632 N1636 1.427 . S
C1633 H1623 0.929 . S
C1633 C1631 1.433 . S
C1633 N1636 1.384 . S
C1634 H1625 0.929 . S
C1634 C1626 1.378 . S
C1634 C1629 1.350 . S
C1635 H1622 0.929 . S
C1635 C1627 1.433 . S
C1635 N1637 1.384 . S
N1636 C1632 1.427 . S
N1636 C1633 1.384 . S
N1637 C1629 1.427 . S
N1637 C1635 1.384 . S
H1638 C1644 0.930 . S
H1639 C1648 0.930 . S
H1640 C1653 0.929 . S
H1641 C1651 0.929 . S
H1642 C1646 0.929 . S
H1643 C1652 0.929 . S
C1644 H1638 0.930 . S
C1644 C1645 1.367 . S
C1644 C1652 1.378 . S
C1645 C1644 1.367 . S
C1645 C1653 1.433 . S
C1646 H1642 0.929 . S
C1646 C1648 1.378 . S
C1646 C1650 1.350 . S
C1647 C1650 1.463 . S
C1647 C1652 1.350 . S
C1647 N1655 1.427 . S
C1648 H1639 0.930 . S
C1648 C1646 1.378 . S
C1648 C1649 1.367 . S
C1649 C1648 1.367 . S
C1649 C1651 1.433 . S
C1650 C1646 1.350 . S
C1650 C1647 1.463 . S
C1650 N1654 1.427 . S
C1651 H1641 0.929 . S
C1651 C1649 1.433 . S
C1651 N1654 1.384 . S
C1652 H1643 0.929 . S
C1652 C1644 1.378 . S
C1652 C1647 1.350 . S
C1653 H1640 0.929 . S
C1653 C1645 1.433 . S
C1653 N1655 1.384 . S
N1654 C1650 1.427 . S
N1654 C1651 1.384 . S
N1655 C1647 1.427 . S
N1655 C1653 1.384 . S
H1656 C1662 0.930 . S
H1657 C1666 0.930 . S
H1658 C1671 0.929 . S
H1659 C1669 0.929 . S
H1660 C1664 0.929 . S
H1661 C1670 0.929 . S
C1662 H1656 0.930 . S
C1662 C1663 1.367 . S
C1662 C1670 1.378 . S
C1663 C1662 1.367 . S
C1663 C1671 1.433 . S
C1664 H1660 0.929 . S
C1664 C1666 1.378 . S
C1664 C1668 1.350 . S
C1665 C1668 1.463 . S
C1665 C1670 1.350 . S
C1665 N1673 1.427 . S
C1666 H1657 0.930 . S
C1666 C1664 1.378 . S
C1666 C1667 1.367 . S
C1667 C1666 1.367 . S
C1667 C1669 1.433 . S
C1668 C1664 1.350 . S
C1668 C1665 1.463 . S
C1668 N1672 1.427 . S
C1669 H1659 0.929 . S
C1669 C1667 1.433 . S
C1669 N1672 1.384 . S
C1670 H1661 0.929 . S
C1670 C1662 1.378 . S
C1670 C1665 1.350 . S
C1671 H1658 0.929 . S
C1671 C1663 1.433 . S
C1671 N1673 1.384 . S
N1672 C1668 1.427 . S
N1672 C1669 1.384 . S
N1673 C1665 1.427 . S
N1673 C1671 1.384 . S
H1674 C1680 0.930 . S
H1675 C1684 0.930 . S
H1676 C1689 0.929 . S
H1677 C1687 0.929 . S
H1678 C1682 0.929 . S
H1679 C1688 0.929 . S
C1680 H1674 0.930 . S
C1680 C1681 1.367 . S
C1680 C1688 1.378 . S
C1681 C1680 1.367 . S
C1681 C1689 1.433 . S
C1682 H1678 0.929 . S
C1682 C1684 1.378 . S
C1682 C1686 1.350 . S
C1683 C1686 1.463 . S
C1683 C1688 1.350 . S
C1683 N1691 1.427 . S
C1684 H1675 0.930 . S
C1684 C1682 1.378 . S
C1684 C1685 1.367 . S
C1685 C1684 1.367 . S
C1685 C1687 1.433 . S
C1686 C1682 1.350 . S
C1686 C1683 1.463 . S
C1686 N1690 1.427 . S
C1687 H1677 0.929 . S
C1687 C1685 1.433 . S
C1687 N1690 1.384 . S
C1688 H1679 0.929 . S
C1688 C1680 1.378 . S
C1688 C1683 1.350 . S
C1689 H1676 0.929 . S
C1689 C1681 1.433 . S
C1689 N1691 1.384 . S
N1690 C1686 1.427 . S
N1690 C1687 1.384 . S
N1691 C1683 1.427 . S
N1691 C1689 1.384 . S
H1692 C1698 0.930 . S
H1693 C1702 0.930 . S
H1694 C1707 0.929 . S
H1695 C1705 0.929 . S
H1696 C1700 0.929 . S
H1697 C1706 0.929 . S
C1698 H1692 0.930 . S
C1698 C1699 1.367 . S
C1698 C1706 1.378 . S
C1699 C1698 1.367 . S
C1699 C1707 1.433 . S
C1700 H1696 0.929 . S
C1700 C1702 1.378 . S
C1700 C1704 1.350 . S
C1701 C1704 1.463 . S
C1701 C1706 1.350 . S
C1701 N1709 1.427 . S
C1702 H1693 0.930 . S
C1702 C1700 1.378 . S
C1702 C1703 1.367 . S
C1703 C1702 1.367 . S
C1703 C1705 1.433 . S
C1704 C1700 1.350 . S
C1704 C1701 1.463 . S
C1704 N1708 1.427 . S
C1705 H1695 0.929 . S
C1705 C1703 1.433 . S
C1705 N1708 1.384 . S
C1706 H1697 0.929 . S
C1706 C1698 1.378 . S
C1706 C1701 1.350 . S
C1707 H1694 0.929 . S
C1707 C1699 1.433 . S
C1707 N1709 1.384 . S
N1708 C1704 1.427 . S
N1708 C1705 1.384 . S
N1709 C1701 1.427 . S
N1709 C1707 1.384 . S
H1710 C1716 0.930 . S
H1711 C1720 0.930 . S
H1712 C1725 0.929 . S
H1713 C1723 0.929 . S
H1714 C1718 0.929 . S
H1715 C1724 0.929 . S
C1716 H1710 0.930 . S
C1716 C1717 1.367 . S
C1716 C1724 1.378 . S
C1717 C1716 1.367 . S
C1717 C1725 1.433 . S
C1718 H1714 0.929 . S
C1718 C1720 1.378 . S
C1718 C1722 1.350 . S
C1719 C1722 1.463 . S
C1719 C1724 1.350 . S
C1719 N1727 1.427 . S
C1720 H1711 0.930 . S
C1720 C1718 1.378 . S
C1720 C1721 1.367 . S
C1721 C1720 1.367 . S
C1721 C1723 1.433 . S
C1722 C1718 1.350 . S
C1722 C1719 1.463 . S
C1722 N1726 1.427 . S
C1723 H1713 0.929 . S
C1723 C1721 1.433 . S
C1723 N1726 1.384 . S
C1724 H1715 0.929 . S
C1724 C1716 1.378 . S
C1724 C1719 1.350 . S
C1725 H1712 0.929 . S
C1725 C1717 1.433 . S
C1725 N1727 1.384 . S
N1726 C1722 1.427 . S
N1726 C1723 1.384 . S
N1727 C1719 1.427 . S
N1727 C1725 1.384 . S
H1728 C1734 0.930 . S
H1729 C1738 0.930 . S
H1730 C1743 0.929 . S
H1731 C1741 0.929 . S
H1732 C1736 0.929 . S
H1733 C1742 0.929 . S
C1734 H1728 0.930 . S
C1734 C1735 1.367 . S
C1734 C1742 1.378 . S
C1735 C1734 1.367 . S
C1735 C1743 1.433 . S
C1736 H1732 0.929 . S
C1736 C1738 1.378 . S
C1736 C1740 1.350 . S
C1737 C1740 1.463 . S
C1737 C1742 1.350 . S
C1737 N1745 1.427 . S
C1738 H1729 0.930 . S
C1738 C1736 1.378 . S
C1738 C1739 1.367 . S
C1739 C1738 1.367 . S
C1739 C1741 1.433 . S
C1740 C1736 1.350 . S
C1740 C1737 1.463 . S
C1740 N1744 1.427 . S
C1741 H1731 0.929 . S
C1741 C1739 1.433 . S
C1741 N1744 1.384 . S
C1742 H1733 0.929 . S
C1742 C1734 1.378 . S
C1742 C1737 1.350 . S
C1743 H1730 0.929 . S
C1743 C1735 1.433 . S
C1743 N1745 1.384 . S
N1744 C1740 1.427 . S
N1744 C1741 1.384 . S
N1745 C1737 1.427 . S
N1745 C1743 1.384 . S
H1746 C1752 0.930 . S
H1747 C1756 0.930 . S
H1748 C1761 0.929 . S
H1749 C1759 0.929 . S
H1750 C1754 0.929 . S
H1751 C1760 0.929 . S
C1752 H1746 0.930 . S
C1752 C1753 1.367 . S
C1752 C1760 1.378 . S
C1753 C1752 1.367 . S
C1753 C1761 1.433 . S
C1754 H1750 0.929 . S
C1754 C1756 1.378 . S
C1754 C1758 1.350 . S
C1755 C1758 1.463 . S
C1755 C1760 1.350 . S
C1755 N1763 1.427 . S
C1756 H1747 0.930 . S
C1756 C1754 1.378 . S
C1756 C1757 1.367 . S
C1757 C1756 1.367 . S
C1757 C1759 1.433 . S
C1758 C1754 1.350 . S
C1758 C1755 1.463 . S
C1758 N1762 1.427 . S
C1759 H1749 0.929 . S
C1759 C1757 1.433 . S
C1759 N1762 1.384 . S
C1760 H1751 0.929 . S
C1760 C1752 1.378 . S
C1760 C1755 1.350 . S
C1761 H1748 0.929 . S
C1761 C1753 1.433 . S
C1761 N1763 1.384 . S
N1762 C1758 1.427 . S
N1762 C1759 1.384 . S
N1763 C1755 1.427 . S
N1763 C1761 1.384 . S
H1764 C1770 0.930 . S
H1765 C1774 0.930 . S
H1766 C1779 0.929 . S
H1767 C1777 0.929 . S
H1768 C1772 0.929 . S
H1769 C1778 0.929 . S
C1770 H1764 0.930 . S
C1770 C1771 1.367 . S
C1770 C1778 1.378 . S
C1771 C1770 1.367 . S
C1771 C1779 1.433 . S
C1772 H1768 0.929 . S
C1772 C1774 1.378 . S
C1772 C1776 1.350 . S
C1773 C1776 1.463 . S
C1773 C1778 1.350 . S
C1773 N1781 1.427 . S
C1774 H1765 0.930 . S
C1774 C1772 1.378 . S
C1774 C1775 1.367 . S
C1775 C1774 1.367 . S
C1775 C1777 1.433 . S
C1776 C1772 1.350 . S
C1776 C1773 1.463 . S
C1776 N1780 1.427 . S
C1777 H1767 0.929 . S
C1777 C1775 1.433 . S
C1777 N1780 1.384 . S
C1778 H1769 0.929 . S
C1778 C1770 1.378 . S
C1778 C1773 1.350 . S
C1779 H1766 0.929 . S
C1779 C1771 1.433 . S
C1779 N1781 1.384 . S
N1780 C1776 1.427 . S
N1780 C1777 1.384 . S
N1781 C1773 1.427 . S
N1781 C1779 1.384 . S
H1782 C1788 0.930 . S
H1783 C1792 0.930 . S
H1784 C1797 0.929 . S
H1785 C1795 0.929 . S
H1786 C1790 0.929 . S
H1787 C1796 0.929 . S
C1788 H1782 0.930 . S
C1788 C1789 1.367 . S
C1788 C1796 1.378 . S
C1789 C1788 1.367 . S
C1789 C1797 1.433 . S
C1790 H1786 0.929 . S
C1790 C1792 1.378 . S
C1790 C1794 1.350 . S
C1791 C1794 1.463 . S
C1791 C1796 1.350 . S
C1791 N1799 1.427 . S
C1792 H1783 0.930 . S
C1792 C1790 1.378 . S
C1792 C1793 1.367 . S
C1793 C1792 1.367 . S
C1793 C1795 1.433 . S
C1794 C1790 1.350 . S
C1794 C1791 1.463 . S
C1794 N1798 1.427 . S
C1795 H1785 0.929 . S
C1795 C1793 1.433 . S
C1795 N1798 1.384 . S
C1796 H1787 0.929 . S
C1796 C1788 1.378 . S
C1796 C1791 1.350 . S
C1797 H1784 0.929 . S
C1797 C1789 1.433 . S
C1797 N1799 1.384 . S
N1798 C1794 1.427 . S
N1798 C1795 1.384 . S
N1799 C1791 1.427 . S
N1799 C1797 1.384 . S
H1800 C1806 0.930 . S
H1801 C1810 0.930 . S
H1802 C1815 0.929 . S
H1803 C1813 0.929 . S
H1804 C1808 0.929 . S
H1805 C1814 0.929 . S
C1806 H1800 0.930 . S
C1806 C1807 1.367 . S
C1806 C1814 1.378 . S
C1807 C1806 1.367 . S
C1807 C1815 1.433 . S
C1808 H1804 0.929 . S
C1808 C1810 1.378 . S
C1808 C1812 1.350 . S
C1809 C1812 1.463 . S
C1809 C1814 1.350 . S
C1809 N1817 1.427 . S
C1810 H1801 0.930 . S
C1810 C1808 1.378 . S
C1810 C1811 1.367 . S
C1811 C1810 1.367 . S
C1811 C1813 1.433 . S
C1812 C1808 1.350 . S
C1812 C1809 1.463 . S
C1812 N1816 1.427 . S
C1813 H1803 0.929 . S
C1813 C1811 1.433 . S
C1813 N1816 1.384 . S
C1814 H1805 0.929 . S
C1814 C1806 1.378 . S
C1814 C1809 1.350 . S
C1815 H1802 0.929 . S
C1815 C1807 1.433 . S
C1815 N1817 1.384 . S
N1816 C1812 1.427 . S
N1816 C1813 1.384 . S
N1817 C1809 1.427 . S
N1817 C1815 1.384 . S
H1818 C1824 0.930 . S
H1819 C1828 0.930 . S
H1820 C1833 0.929 . S
H1821 C1831 0.929 . S
H1822 C1826 0.929 . S
H1823 C1832 0.929 . S
C1824 H1818 0.930 . S
C1824 C1825 1.367 . S
C1824 C1832 1.378 . S
C1825 C1824 1.367 . S
C1825 C1833 1.433 . S
C1826 H1822 0.929 . S
C1826 C1828 1.378 . S
C1826 C1830 1.350 . S
C1827 C1830 1.463 . S
C1827 C1832 1.350 . S
C1827 N1835 1.427 . S
C1828 H1819 0.930 . S
C1828 C1826 1.378 . S
C1828 C1829 1.367 . S
C1829 C1828 1.367 . S
C1829 C1831 1.433 . S
C1830 C1826 1.350 . S
C1830 C1827 1.463 . S
C1830 N1834 1.427 . S
C1831 H1821 0.929 . S
C1831 C1829 1.433 . S
C1831 N1834 1.384 . S
C1832 H1823 0.929 . S
C1832 C1824 1.378 . S
C1832 C1827 1.350 . S
C1833 H1820 0.929 . S
C1833 C1825 1.433 . S
C1833 N1835 1.384 . S
N1834 C1830 1.427 . S
N1834 C1831 1.384 . S
N1835 C1827 1.427 . S
N1835 C1833 1.384 . S
H1836 C1842 0.930 . S
H1837 C1846 0.930 . S
H1838 C1851 0.929 . S
H1839 C1849 0.929 . S
H1840 C1844 0.929 . S
H1841 C1850 0.929 . S
C1842 H1836 0.930 . S
C1842 C1843 1.367 . S
C1842 C1850 1.378 . S
C1843 C1842 1.367 . S
C1843 C1851 1.433 . S
C1844 H1840 0.929 . S
C1844 C1846 1.378 . S
C1844 C1848 1.350 . S
C1845 C1848 1.463 . S
C1845 C1850 1.350 . S
C1845 N1853 1.427 . S
C1846 H1837 0.930 . S
C1846 C1844 1.378 . S
C1846 C1847 1.367 . S
C1847 C1846 1.367 . S
C1847 C1849 1.433 . S
C1848 C1844 1.350 . S
C1848 C1845 1.463 . S
C1848 N1852 1.427 . S
C1849 H1839 0.929 . S
C1849 C1847 1.433 . S
C1849 N1852 1.384 . S
C1850 H1841 0.929 . S
C1850 C1842 1.378 . S
C1850 C1845 1.350 . S
C1851 H1838 0.929 . S
C1851 C1843 1.433 . S
C1851 N1853 1.384 . S
N1852 C1848 1.427 . S
N1852 C1849 1.384 . S
N1853 C1845 1.427 . S
N1853 C1851 1.384 . S
H1854 C1860 0.930 . S
H1855 C1864 0.930 . S
H1856 C1869 0.929 . S
H1857 C1867 0.929 . S
H1858 C1862 0.929 . S
H1859 C1868 0.929 . S
C1860 H1854 0.930 . S
C1860 C1861 1.367 . S
C1860 C1868 1.378 . S
C1861 C1860 1.367 . S
C1861 C1869 1.433 . S
C1862 H1858 0.929 . S
C1862 C1864 1.378 . S
C1862 C1866 1.350 . S
C1863 C1866 1.463 . S
C1863 C1868 1.350 . S
C1863 N1871 1.427 . S
C1864 H1855 0.930 . S
C1864 C1862 1.378 . S
C1864 C1865 1.367 . S
C1865 C1864 1.367 . S
C1865 C1867 1.433 . S
C1866 C1862 1.350 . S
C1866 C1863 1.463 . S
C1866 N1870 1.427 . S
C1867 H1857 0.929 . S
C1867 C1865 1.433 . S
C1867 N1870 1.384 . S
C1868 H1859 0.929 . S
C1868 C1860 1.378 . S
C1868 C1863 1.350 . S
C1869 H1856 0.929 . S
C1869 C1861 1.433 . S
C1869 N1871 1.384 . S
N1870 C1866 1.427 . S
N1870 C1867 1.384 . S
N1871 C1863 1.427 . S
N1871 C1869 1.384 . S
H1872 C1878 0.930 . S
H1873 C1882 0.930 . S
H1874 C1887 0.929 . S
H1875 C1885 0.929 . S
H1876 C1880 0.929 . S
H1877 C1886 0.929 . S
C1878 H1872 0.930 . S
C1878 C1879 1.367 . S
C1878 C1886 1.378 . S
C1879 C1878 1.367 . S
C1879 C1887 1.433 . S
C1880 H1876 0.929 . S
C1880 C1882 1.378 . S
C1880 C1884 1.350 . S
C1881 C1884 1.463 . S
C1881 C1886 1.350 . S
C1881 N1889 1.427 . S
C1882 H1873 0.930 . S
C1882 C1880 1.378 . S
C1882 C1883 1.367 . S
C1883 C1882 1.367 . S
C1883 C1885 1.433 . S
C1884 C1880 1.350 . S
C1884 C1881 1.463 . S
C1884 N1888 1.427 . S
C1885 H1875 0.929 . S
C1885 C1883 1.433 . S
C1885 N1888 1.384 . S
C1886 H1877 0.929 . S
C1886 C1878 1.378 . S
C1886 C1881 1.350 . S
C1887 H1874 0.929 . S
C1887 C1879 1.433 . S
C1887 N1889 1.384 . S
N1888 C1884 1.427 . S
N1888 C1885 1.384 . S
N1889 C1881 1.427 . S
N1889 C1887 1.384 . S
H1890 C1896 0.930 . S
H1891 C1900 0.930 . S
H1892 C1905 0.929 . S
H1893 C1903 0.929 . S
H1894 C1898 0.929 . S
H1895 C1904 0.929 . S
C1896 H1890 0.930 . S
C1896 C1897 1.367 . S
C1896 C1904 1.378 . S
C1897 C1896 1.367 . S
C1897 C1905 1.433 . S
C1898 H1894 0.929 . S
C1898 C1900 1.378 . S
C1898 C1902 1.350 . S
C1899 C1902 1.463 . S
C1899 C1904 1.350 . S
C1899 N1907 1.427 . S
C1900 H1891 0.930 . S
C1900 C1898 1.378 . S
C1900 C1901 1.367 . S
C1901 C1900 1.367 . S
C1901 C1903 1.433 . S
C1902 C1898 1.350 . S
C1902 C1899 1.463 . S
C1902 N1906 1.427 . S
C1903 H1893 0.929 . S
C1903 C1901 1.433 . S
C1903 N1906 1.384 . S
C1904 H1895 0.929 . S
C1904 C1896 1.378 . S
C1904 C1899 1.350 . S
C1905 H1892 0.929 . S
C1905 C1897 1.433 . S
C1905 N1907 1.384 . S
N1906 C1902 1.427 . S
N1906 C1903 1.384 . S
N1907 C1899 1.427 . S
N1907 C1905 1.384 . S
H1908 C1914 0.930 . S
H1909 C1918 0.930 . S
H1910 C1923 0.929 . S
H1911 C1921 0.929 . S
H1912 C1916 0.929 . S
H1913 C1922 0.929 . S
C1914 H1908 0.930 . S
C1914 C1915 1.367 . S
C1914 C1922 1.378 . S
C1915 C1914 1.367 . S
C1915 C1923 1.433 . S
C1916 H1912 0.929 . S
C1916 C1918 1.378 . S
C1916 C1920 1.350 . S
C1917 C1920 1.463 . S
C1917 C1922 1.350 . S
C1917 N1925 1.427 . S
C1918 H1909 0.930 . S
C1918 C1916 1.378 . S
C1918 C1919 1.367 . S
C1919 C1918 1.367 . S
C1919 C1921 1.433 . S
C1920 C1916 1.350 . S
C1920 C1917 1.463 . S
C1920 N1924 1.427 . S
C1921 H1911 0.929 . S
C1921 C1919 1.433 . S
C1921 N1924 1.384 . S
C1922 H1913 0.929 . S
C1922 C1914 1.378 . S
C1922 C1917 1.350 . S
C1923 H1910 0.929 . S
C1923 C1915 1.433 . S
C1923 N1925 1.384 . S
N1924 C1920 1.427 . S
N1924 C1921 1.384 . S
N1925 C1917 1.427 . S
N1925 C1923 1.384 . S
H1926 C1932 0.930 . S
H1927 C1936 0.930 . S
H1928 C1941 0.929 . S
H1929 C1939 0.929 . S
H1930 C1934 0.929 . S
H1931 C1940 0.929 . S
C1932 H1926 0.930 . S
C1932 C1933 1.367 . S
C1932 C1940 1.378 . S
C1933 C1932 1.367 . S
C1933 C1941 1.433 . S
C1934 H1930 0.929 . S
C1934 C1936 1.378 . S
C1934 C1938 1.350 . S
C1935 C1938 1.463 . S
C1935 C1940 1.350 . S
C1935 N1943 1.427 . S
C1936 H1927 0.930 . S
C1936 C1934 1.378 . S
C1936 C1937 1.367 . S
C1937 C1936 1.367 . S
C1937 C1939 1.433 . S
C1938 C1934 1.350 . S
C1938 C1935 1.463 . S
C1938 N1942 1.427 . S
C1939 H1929 0.929 . S
C1939 C1937 1.433 . S
C1939 N1942 1.384 . S
C1940 H1931 0.929 . S
C1940 C1932 1.378 . S
C1940 C1935 1.350 . S
C1941 H1928 0.929 . S
C1941 C1933 1.433 . S
C1941 N1943 1.384 . S
N1942 C1938 1.427 . S
N1942 C1939 1.384 . S
N1943 C1935 1.427 . S
N1943 C1941 1.384 . S
H1944 C1950 0.930 . S
H1945 C1954 0.930 . S
H1946 C1959 0.929 . S
H1947 C1957 0.929 . S
H1948 C1952 0.929 . S
H1949 C1958 0.929 . S
C1950 H1944 0.930 . S
C1950 C1951 1.367 . S
C1950 C1958 1.378 . S
C1951 C1950 1.367 . S
C1951 C1959 1.433 . S
C1952 H1948 0.929 . S
C1952 C1954 1.378 . S
C1952 C1956 1.350 . S
C1953 C1956 1.463 . S
C1953 C1958 1.350 . S
C1953 N1961 1.427 . S
C1954 H1945 0.930 . S
C1954 C1952 1.378 . S
C1954 C1955 1.367 . S
C1955 C1954 1.367 . S
C1955 C1957 1.433 . S
C1956 C1952 1.350 . S
C1956 C1953 1.463 . S
C1956 N1960 1.427 . S
C1957 H1947 0.929 . S
C1957 C1955 1.433 . S
C1957 N1960 1.384 . S
C1958 H1949 0.929 . S
C1958 C1950 1.378 . S
C1958 C1953 1.350 . S
C1959 H1946 0.929 . S
C1959 C1951 1.433 . S
C1959 N1961 1.384 . S
N1960 C1956 1.427 . S
N1960 C1957 1.384 . S
N1961 C1953 1.427 . S
N1961 C1959 1.384 . S
C997 C177 1.456 . S
C1001 C301 1.389 . S
C1015 C190 1.478 . S
C1019 C385 1.433 . S
C1033 C164 1.453 . S
C1037 C465 1.446 . S
C1051 C151 1.428 . S
C1055 C381 1.427 1_556 S
C1073 C469 1.378 . S
C1069 C125 1.440 . S
C1087 C138 1.406 . S
C1091 C297 1.399 1_556 S
C1109 C290 1.435 . S
C1105 C147 1.459 . S
C1127 C374 1.476 . S
C1123 C121 1.463 . S
C1141 C134 1.461 . S
C1145 C476 1.481 1_556 S
C1159 C173 1.441 . S
C1163 C392 1.447 . S
C1177 C186 1.415 . S
C1181 C458 1.426 . S
C1199 C308 1.438 . S
C1195 C160 1.415 . S
C1217 C553 1.404 . S
C1213 C21 1.452 . S
C1231 C34 1.480 . S
C1235 C637 1.431 . S
C1249 C8 1.447 . S
C1253 C717 1.442 . S
C1267 C229 1.431 . S
C1271 C633 1.430 . S
C1285 C203 1.439 . S
C1289 C721 1.382 . S
C1303 C216 1.411 . S
C1307 C549 1.405 . S
C1321 C225 1.459 . S
C1325 C542 1.436 . S
C1339 C199 1.461 . S
C1343 C626 1.477 . S
C1361 C728 1.481 . S
C1357 C212 1.477 . S
C1375 C17 1.446 . S
C1379 C644 1.449 . S
C1397 C710 1.411 . S
C1393 C30 1.431 . S
C1411 C4 1.432 . S
C1415 C560 1.431 . S
C1433 C805 1.394 . S
C1429 C99 1.455 . S
C1447 C112 1.482 . S
C1451 C889 1.419 . S
C1469 C969 1.445 . S
C1465 C86 1.447 . S
C1487 C885 1.428 . S
C1483 C73 1.433 . S
C1505 C973 1.370 . S
C1501 C47 1.441 . S
C1519 C60 1.411 . S
C1523 C801 1.402 . S
C1537 C69 1.458 . S
C1541 C794 1.436 . S
C1555 C43 1.461 . S
C1559 C878 1.477 . S
C1577 C980 1.482 . S
C1573 C56 1.477 . S
C1591 C95 1.430 . S
C1595 C896 1.456 . S
C1609 C108 1.430 . S
C1613 C962 1.410 . S
C1627 C82 1.415 . S
C1631 C812 1.437 . S
C1645 C204 1.558 . S
C1649 C304 1.428 . S
C1667 C388 1.461 . S
C1663 C217 1.621 . S
C1681 C230 1.570 . S
C1685 C460 1.386 . S
C1699 C87 1.586 . S
C1703 C376 1.381 . S
C1717 C100 1.580 . S
C1721 C472 1.429 . S
C1739 C292 1.371 . S
C1735 C113 1.532 . S
C1753 C48 1.563 . S
C1757 C556 1.433 . S
C1771 C61 1.622 . S
C1775 C640 1.478 . S
C1789 C74 1.563 . S
C1793 C712 1.378 . S
C1807 C165 1.586 . S
C1811 C628 1.393 . S
C1829 C724 1.451 . S
C1825 C178 1.579 . S
C1843 C191 1.529 . S
C1847 C544 1.374 . S
C1861 C126 1.558 . S
C1865 C808 1.427 . S
C1879 C139 1.621 . S
C1883 C892 1.461 . S
C1901 C964 1.390 . S
C1897 C152 1.570 . S
C1915 C9 1.586 . S
C1919 C880 1.391 . S
C1933 C22 1.581 . S
C1937 C976 1.430 . S
C1951 C35 1.532 . S
C1955 C796 1.354 . S
