# Generated by pormake.
# Topology rtl, (3,6)-cn, num edge types: 1
# Building blocks:
#     Node 0, Type 0, BuildingBlock: QEWDON_clean_linker_0, # of connection points: 3
#     Node 1, Type 0, BuildingBlock: QEWDON_clean_linker_0, # of connection points: 3
#     Node 2, Type 0, BuildingBlock: QEWDON_clean_linker_0, # of connection points: 3
#     Node 3, Type 0, BuildingBlock: QEWDON_clean_linker_0, # of connection points: 3
#     Node 4, Type 1, BuildingBlock: KUMJIN_clean_sbu_1, # of connection points: 6
#     Node 5, Type 1, BuildingBlock: KUMJIN_clean_sbu_1, # of connection points: 6
#     Edge 6, Type (0, 1), BuildingBlock: XUDNAN_clean_linker_2, # of connection points: 2
#     Edge 7, Type (0, 1), BuildingBlock: XUDNAN_clean_linker_2, # of connection points: 2
#     Edge 8, Type (0, 1), BuildingBlock: XUDNAN_clean_linker_2, # of connection points: 2
#     Edge 9, Type (0, 1), BuildingBlock: XUDNAN_clean_linker_2, # of connection points: 2
#     Edge 10, Type (0, 1), BuildingBlock: XUDNAN_clean_linker_2, # of connection points: 2
#     Edge 11, Type (0, 1), BuildingBlock: XUDNAN_clean_linker_2, # of connection points: 2
#     Edge 12, Type (0, 1), BuildingBlock: XUDNAN_clean_linker_2, # of connection points: 2
#     Edge 13, Type (0, 1), BuildingBlock: XUDNAN_clean_linker_2, # of connection points: 2
#     Edge 14, Type (0, 1), BuildingBlock: XUDNAN_clean_linker_2, # of connection points: 2
#     Edge 15, Type (0, 1), BuildingBlock: XUDNAN_clean_linker_2, # of connection points: 2
#     Edge 16, Type (0, 1), BuildingBlock: XUDNAN_clean_linker_2, # of connection points: 2
#     Edge 17, Type (0, 1), BuildingBlock: XUDNAN_clean_linker_2, # of connection points: 2
# Relax obj value: 0.085
# Max RMSD: 0.274
# Mean RMSD: 0.209
data_MOF--net-rtl--node1-KUMJIN_clean_sbu_1--node2-QEWDON_clean_linker_0--edge1-XUDNAN_clean_linker_2
_symmetry_space_group_name_H-M    P1
_symmetry_Int_Tables_number       1
_symmetry_cell_setting            triclinic
loop_
_symmetry_equiv_pos_as_xyz
'x, y, z'
_cell_length_a     37.637203
_cell_length_b     37.610258
_cell_length_c     26.558407
_cell_angle_alpha  78.768339
_cell_angle_beta   100.21929
_cell_angle_gamma 91.325261
loop_
_atom_site_label
_atom_site_type_symbol
_atom_site_fract_x
_atom_site_fract_y
_atom_site_fract_z
_atom_type_partial_charge
H0 H 0.25009 0.84701 0.10685 0.0
C1 C 0.23413 0.85254 0.06794 0.0
C2 C 0.19949 0.86837 0.05949 0.0
C3 C 0.24886 0.84414 0.02642 0.0
H4 H 0.15328 0.88837 1.00036 0.0
C5 C 0.17948 0.87506 0.00852 0.0
C6 C 0.19353 0.86617 0.96702 0.0
C7 C 0.22815 0.85057 0.97598 0.0
C8 C 0.28727 0.83257 0.03541 0.0
H9 H 0.23942 0.84486 0.94352 0.0
C10 C 0.29793 0.80058 0.02145 0.0
C11 C 0.33467 0.78977 0.03263 0.0
C12 C 0.31367 0.85405 0.05906 0.0
H13 H 0.30617 0.87889 0.06966 0.0
C14 C 0.34998 0.84401 0.06879 0.0
H15 H 0.27765 0.78364 1.00383 0.0
C16 C 0.36045 0.81216 0.05582 0.0
H17 H 0.38891 0.80512 0.0638 0.0
H18 H 0.3701 0.86093 0.08665 0.0
H19 H 0.72706 0.70842 0.5815 0.0
C20 C 0.71516 0.70015 0.61621 0.0
C21 C 0.68191 0.68198 0.61301 0.0
C22 C 0.73472 0.70443 0.6649 0.0
H23 H 0.6423 0.65521 0.65651 0.0
C24 C 0.66757 0.66976 0.6587 0.0
C25 C 0.6866 0.67413 0.7075 0.0
C26 C 0.7201 0.69156 0.71018 0.0
C27 C 0.77277 0.71663 0.67008 0.0
H28 H 0.73547 0.69412 0.74789 0.0
C29 C 0.78263 0.75096 0.64437 0.0
C30 C 0.81924 0.76151 0.65091 0.0
C31 C 0.79972 0.69302 0.70179 0.0
H32 H 0.79283 0.66646 0.72164 0.0
C33 C 0.83577 0.70321 0.70799 0.0
H34 H 0.76198 0.76932 0.61991 0.0
C35 C 0.84551 0.73713 0.68297 0.0
H36 H 0.87369 0.74457 0.68965 0.0
H37 H 0.85627 0.68481 0.73266 0.0
H38 H 0.79502 0.18973 0.15185 0.0
C39 C 0.80685 0.18417 0.11978 0.0
C40 C 0.83923 0.16395 0.12998 0.0
C41 C 0.78796 0.19472 0.06873 0.0
H42 H 0.87811 0.14011 0.09521 0.0
C43 C 0.85385 0.15667 0.08777 0.0
C44 C 0.83553 0.1675 0.03619 0.0
C45 C 0.80235 0.18627 0.02709 0.0
C46 C 0.7504 0.20843 0.06033 0.0
H47 H 0.7872 0.19356 0.98777 0.0
C48 C 0.74241 0.2427 0.06988 0.0
C49 C 0.70617 0.25381 0.06508 0.0
C50 C 0.72204 0.18557 0.04575 0.0
H51 H 0.72766 0.15903 0.03865 0.0
C52 C 0.68626 0.19631 0.04157 0.0
H53 H 0.7642 0.26055 0.08092 0.0
C54 C 0.67832 0.2301 0.05134 0.0
H55 H 0.65028 0.23812 0.04676 0.0
H56 H 0.66457 0.1784 0.03059 0.0
H57 H 0.33695 0.29875 0.5124 0.0
C58 C 0.34316 0.31219 0.47505 0.0
C59 C 0.36265 0.3447 0.47136 0.0
C60 C 0.33412 0.29546 0.43156 0.0
H61 H 0.38632 0.38632 0.41949 0.0
C62 C 0.37189 0.3609 0.42318 0.0
C63 C 0.36262 0.34488 0.37939 0.0
C64 C 0.34374 0.31209 0.38362 0.0
C65 C 0.31997 0.25808 0.43851 0.0
H66 H 0.33744 0.29905 0.35018 0.0
C67 C 0.28504 0.2501 0.44976 0.0
C68 C 0.27346 0.2138 0.45921 0.0
C69 C 0.34283 0.22968 0.43626 0.0
H70 H 0.36978 0.23526 0.42789 0.0
C71 C 0.33151 0.19383 0.44601 0.0
H72 H 0.26711 0.27188 0.45121 0.0
C73 C 0.29717 0.18588 0.45765 0.0
H74 H 0.28877 0.15785 0.46435 0.0
H75 H 0.34943 0.17211 0.4445 0.0
Eu76 Eu 0.04499 0.98388 0.50738 0.0
C77 C 0.02729 0.13468 0.55575 0.0
N78 N 0.03746 0.10501 0.59315 0.0
C79 C 0.08778 0.13701 0.63112 0.0
C80 C 0.04795 0.1665 0.5531 0.0
C81 C 0.06632 0.10608 0.63201 0.0
C82 C 0.07898 0.16712 0.59084 0.0
C83 C 0.98136 0.1653 0.48634 0.0
C84 C 0.9947 0.13394 0.52271 0.0
C85 C 1.00296 0.19633 0.48078 0.0
C86 C 0.03626 0.19692 0.51413 0.0
Eu87 Eu 1.00352 0.05187 0.58717 0.0
N88 N 0.9744 0.10374 0.53001 0.0
C89 C 0.94603 0.1651 0.45881 0.0
C90 C 0.93867 0.10495 0.50787 0.0
C91 C 0.92426 0.13513 0.4707 0.0
H92 H 0.07347 0.08246 0.66247 0.0
H93 H 0.89637 0.1353 0.45148 0.0
H94 H 0.03376 0.89757 0.56098 0.0
H95 H 0.17523 0.04747 0.48259 0.0
H96 H 0.92156 0.08207 0.51769 0.0
H97 H 0.93475 0.18858 0.43038 0.0
H98 H 0.11055 0.03575 0.45685 0.0
H99 H 0.11125 0.13748 0.66113 0.0
H100 H 0.99347 0.22049 0.4524 0.0
H101 H 0.05205 0.22145 0.51079 0.0
H102 H 0.06746 0.8487 0.62763 0.0
H103 H 0.09568 0.191 0.59012 0.0
H104 H 0.21058 0.01036 0.56228 0.0
N105 N 0.07686 0.93483 0.56591 0.0
C106 C 0.11179 0.94033 0.58568 0.0
C107 C 0.0802 0.87441 0.61638 0.0
C108 C 0.13198 0.91359 0.62398 0.0
C109 C 0.06127 0.90193 0.57866 0.0
C110 C 0.11547 0.88057 0.64003 0.0
N111 N 0.10826 0.99469 0.52394 0.0
C112 C 0.12534 0.02006 0.4926 0.0
C113 C 0.16523 0.97672 0.58006 0.0
C114 C 0.12799 0.97156 0.56432 0.0
C115 C 0.18199 1.00551 0.55167 0.0
C116 C 0.16216 0.02653 0.50672 0.0
H117 H 0.13004 0.85931 0.66941 0.0
H118 H 0.18408 0.90026 0.67347 0.0
H119 H 0.21337 0.95558 0.6347 0.0
O120 O 0.06963 0.95887 0.45391 0.0
O121 O 0.03805 0.96753 0.59234 0.0
O122 O 0.05317 0.01813 0.62625 0.0
O123 O 1.01193 0.95838 0.44816 0.0
O124 O 0.05578 0.04437 0.48956 0.0
O125 O 0.06121 0.05327 0.57249 0.0
O126 O 0.99062 0.02369 0.66161 0.0
O127 O 0.97128 0.04167 0.51044 0.0
O128 O 1.01379 0.03407 0.46061 0.0
O129 O 0.97696 0.08034 0.63518 0.0
O130 O 0.96636 1.00435 0.57153 0.0
O131 O 0.99332 0.96205 0.53481 0.0
C132 C 0.05354 0.98288 0.63079 0.0
C133 C 0.03528 0.96076 0.36988 0.0
C134 C 0.05758 0.95495 0.2907 0.0
C135 C 0.02827 0.97629 0.26071 0.0
C136 C 1.00644 0.98246 0.33917 0.0
C137 C 1.00301 0.99003 0.2849 0.0
C138 C 0.06082 0.94727 0.34536 0.0
C139 C 0.06759 0.0637 0.52505 0.0
C140 C 0.03903 0.95129 0.42725 0.0
C141 C 0.16826 0.92012 0.64326 0.0
C142 C 0.1849 0.95169 0.62129 0.0
C143 C 0.98114 0.04319 0.46497 0.0
C144 C 0.98959 0.05881 0.72634 0.0
C145 C 0.97409 0.07732 0.80344 0.0
C146 C 1.00952 0.06797 0.82989 0.0
C147 C 0.02475 0.05003 0.75335 0.0
C148 C 0.96464 0.07289 0.75116 0.0
C149 C 0.0346 0.05471 0.80483 0.0
C150 C 0.96702 0.97291 0.55576 0.0
C151 C 0.97787 0.05245 0.67292 0.0
H152 H 0.02524 0.98287 0.2186 0.0
H153 H 0.9865 0.99347 0.35694 0.0
H154 H 0.98068 1.00662 0.26147 0.0
H155 H 0.08302 0.93038 0.36887 0.0
H156 H 0.0178 0.07012 0.87033 0.0
H157 H 0.04442 0.03921 0.73489 0.0
H158 H 0.93781 0.08029 0.72943 0.0
H159 H 0.06167 0.04753 0.8257 0.0
Eu160 Eu 0.48501 0.49641 0.98039 0.0
C161 C 0.62959 0.55328 0.08327 0.0
N162 N 0.60967 0.52589 0.10516 0.0
C163 C 0.66297 0.48865 0.13614 0.0
C164 C 0.66689 0.54864 0.08473 0.0
C165 C 0.62621 0.49474 0.13423 0.0
C166 C 0.68328 0.51546 0.11042 0.0
C167 C 0.63331 0.61627 0.04098 0.0
C168 C 0.6131 0.58672 0.0617 0.0
C169 C 0.67002 0.61123 0.04001 0.0
C170 C 0.68677 0.57749 0.06182 0.0
Eu171 Eu 0.54709 0.53817 0.09618 0.0
N172 N 0.5775 0.59072 0.06262 0.0
C173 C 0.61621 0.65019 0.02301 0.0
C174 C 0.56139 0.62427 0.04915 0.0
C175 C 0.58026 0.65434 0.02801 0.0
H176 H 0.6111 0.47436 0.15596 0.0
H177 H 0.56711 0.68066 0.01561 0.0
H178 H 0.40317 0.53134 0.96925 0.0
H179 H 0.52713 0.35329 0.02492 0.0
H180 H 0.53354 0.62733 0.05296 0.0
H181 H 0.63079 0.67353 1.00667 0.0
H182 H 0.53167 0.41814 0.98878 0.0
H183 H 0.67568 0.46342 0.15785 0.0
H184 H 0.6859 0.63347 0.0236 0.0
H185 H 0.71532 0.57426 0.06196 0.0
H186 H 0.34285 0.51137 0.98808 0.0
H187 H 0.71182 0.51077 0.11226 0.0
H188 H 0.47316 0.32994 0.06119 0.0
N189 N 0.42734 0.47929 0.99837 0.0
C190 C 0.42264 0.44381 0.01832 0.0
C191 C 0.3651 0.49214 0.99703 0.0
C192 C 0.38901 0.4313 0.03053 0.0
C193 C 0.39914 0.50337 0.98638 0.0
C194 C 0.36011 0.45602 0.01982 0.0
N195 N 0.48259 0.43264 0.00972 0.0
C196 C 0.50879 0.40889 1.00695 0.0
C197 C 0.44708 0.38269 0.04474 0.0
C198 C 0.45136 0.41992 0.02526 0.0
C199 C 0.47539 0.35874 0.04661 0.0
C200 C 0.506 0.37183 0.02646 0.0
H201 H 0.33381 0.44744 0.02849 0.0
H202 H 0.35976 0.38454 0.06277 0.0
H203 H 0.41064 0.34192 0.07522 0.0
O204 O 0.47336 0.46961 0.91337 0.0
O205 O 0.46576 0.49991 0.05601 0.0
O206 O 0.5158 0.48709 0.11955 0.0
O207 O 0.46203 0.52685 0.90305 0.0
O208 O 0.54351 0.47772 1.00694 0.0
O209 O 0.55459 0.47813 0.09487 0.0
O210 O 0.52197 0.56231 0.14984 0.0
O211 O 0.54324 0.56498 0.0103 0.0
O212 O 0.53973 0.51818 0.96641 0.0
O213 O 0.57805 0.54616 0.17109 0.0
O214 O 0.49204 0.56503 0.06467 0.0
O215 O 0.47138 0.55531 0.98015 0.0
C216 C 0.48097 0.4843 0.10337 0.0
C217 C 0.42586 0.49373 0.84526 0.0
C218 C 0.39627 0.4694 0.76954 0.0
C219 C 0.36368 0.4858 0.77258 0.0
C220 C 0.39315 0.51009 0.84729 0.0
C221 C 0.36219 0.50581 0.81136 0.0
C222 C 0.42711 0.47314 0.80683 0.0
C223 C 0.56109 0.4656 0.05441 0.0
C224 C 0.45948 0.4985 0.88125 0.0
C225 C 0.38522 0.39459 0.05236 0.0
C226 C 0.41424 0.37035 0.05961 0.0
C227 C 0.55204 0.54998 0.97361 0.0
C228 C 0.54733 0.55109 0.23992 0.0
C229 C 0.56012 0.56647 0.32674 0.0
C230 C 0.53881 0.53701 0.34464 0.0
C231 C 0.52639 0.52183 0.2585 0.0
C232 C 0.56436 0.57297 0.27408 0.0
C233 C 0.52228 0.51485 0.31078 0.0
C234 C 0.47111 0.57325 0.01833 0.0
C235 C 0.55114 0.56051 0.18485 0.0
H236 H 0.33951 0.48405 0.74423 0.0
H237 H 0.39155 0.52648 0.87607 0.0
H238 H 0.33706 0.51861 0.81299 0.0
H239 H 0.45239 0.46025 0.80594 0.0
H240 H 0.53434 0.53137 0.38457 0.0
H241 H 0.51309 0.5047 0.23263 0.0
H242 H 0.58103 0.59508 0.25933 0.0
H243 H 0.5059 0.49241 0.32505 0.0
H244 H 0.25339 0.16857 0.54297 0.0
H245 H 0.21034 0.23522 0.3932 0.0
H246 H 0.15 0.20848 0.39834 0.0
H247 H 0.21093 0.0918 0.52636 0.0
H248 H 0.19987 0.07699 0.59051 0.0
H249 H 0.23791 0.10588 0.58195 0.0
H250 H 0.21289 0.15385 0.62397 0.0
H251 H 0.17529 0.12469 0.6356 0.0
H252 H 0.16731 0.17069 0.60048 0.0
H253 H 0.09815 0.1663 0.41219 0.0
H254 H 0.05685 0.11652 0.43804 0.0
H255 H 0.13204 0.0797 0.58157 0.0
C256 C 0.23085 0.17845 0.51228 0.0
C257 C 0.23626 0.20418 0.46789 0.0
C258 C 0.2065 0.21602 0.42787 0.0
C259 C 0.17222 0.20085 0.43043 0.0
C260 C 0.16803 0.17451 0.47388 0.0
C261 C 0.19633 0.16413 0.51482 0.0
C262 C 0.18536 0.13365 0.55546 0.0
C263 C 0.20994 0.10008 0.56403 0.0
C264 C 0.1852 0.1465 0.60693 0.0
C265 C 0.14731 0.12682 0.5294 0.0
C266 C 0.13764 0.15097 0.48264 0.0
C267 C 0.10507 0.14791 0.44933 0.0
C268 C 0.08191 0.11949 0.4641 0.0
C269 C 0.09116 0.09483 0.51202 0.0
C270 C 0.12403 0.09886 0.54534 0.0
H271 H 0.38301 0.74045 0.09634 0.0
H272 H 0.31443 0.76091 0.94398 0.0
H273 H 0.34004 0.70619 0.92369 0.0
H274 H 0.46048 0.71352 0.05584 0.0
H275 H 0.47429 0.67932 0.11345 0.0
H276 H 0.44835 0.71806 0.117 0.0
H277 H 0.40003 0.67564 0.15439 0.0
H278 H 0.42602 0.63675 0.15131 0.0
H279 H 0.37954 0.64183 0.11914 0.0
H280 H 0.37733 0.65074 0.91875 0.0
H281 H 0.42002 0.59936 0.93103 0.0
H282 H 0.46369 0.6174 0.08659 0.0
C283 C 0.37318 0.7334 0.05873 0.0
C284 C 0.34685 0.7551 0.0216 0.0
C285 C 0.33439 0.74455 0.97316 0.0
C286 C 0.34894 0.71363 0.96124 0.0
C287 C 0.37566 0.69344 0.99836 0.0
C288 C 0.38734 0.70284 0.04632 0.0
C289 C 0.41699 0.67761 0.07912 0.0
C290 C 0.4521 0.69838 0.09209 0.0
C291 C 0.40491 0.65672 0.12893 0.0
C292 C 0.42075 0.65276 0.04196 0.0
C293 C 0.39669 0.66205 0.9956 0.0
C294 C 0.39606 0.64316 0.9551 0.0
C295 C 0.42051 0.61404 0.9624 0.0
C296 C 0.44531 0.6041 0.00983 0.0
C297 C 0.44514 0.62395 0.04986 0.0
H298 H 0.87775 0.77826 0.60275 0.0
H299 H 0.78783 0.8276 0.64673 0.0
H300 H 0.81304 0.88836 0.61976 0.0
H301 H 0.94405 0.83391 0.6525 0.0
H302 H 0.97041 0.83615 0.60157 0.0
H303 H 0.94276 0.79733 0.6173 0.0
H304 H 0.90982 0.80712 0.52118 0.0
H305 H 0.93763 0.84586 0.50504 0.0
H306 H 0.88914 0.85051 0.49042 0.0
H307 H 0.85278 0.94325 0.59835 0.0
H308 H 0.90115 0.98698 0.58005 0.0
H309 H 0.96455 0.90081 0.55031 0.0
C310 C 0.86298 0.80187 0.60587 0.0
C311 C 0.83076 0.79815 0.62685 0.0
C312 C 0.81226 0.82977 0.63013 0.0
C313 C 0.82652 0.86438 0.61519 0.0
C314 C 0.8591 0.86694 0.59649 0.0
C315 C 0.8768 0.83645 0.59117 0.0
C316 C 0.91244 0.84604 0.57322 0.0
C317 C 0.94428 0.82724 0.61356 0.0
C318 C 0.91223 0.83684 0.51925 0.0
C319 C 0.91258 0.88659 0.57051 0.0
C320 C 0.88157 0.89828 0.58379 0.0
C321 C 0.87688 0.9344 0.58713 0.0
C322 C 0.90461 0.95905 0.57685 0.0
C323 C 0.93668 0.94752 0.56336 0.0
C324 C 0.94027 0.9108 0.5597 0.0
H325 H 0.65956 0.27316 0.1242 0.0
H326 H 0.72961 0.31778 0.01504 0.0
H327 H 0.70475 0.37899 0.00913 0.0
H328 H 0.58498 0.32239 0.06523 0.0
H329 H 0.56926 0.33122 0.12202 0.0
H330 H 0.59664 0.29171 0.12697 0.0
H331 H 0.64385 0.31053 0.19959 0.0
H332 H 0.61626 0.34959 0.19728 0.0
H333 H 0.66281 0.35528 0.18959 0.0
H334 H 0.6635 0.43127 0.99995 0.0
H335 H 0.6143 0.47387 0.99747 0.0
H336 H 0.57449 0.39903 0.11992 0.0
C337 C 0.67045 0.29609 0.10046 0.0
C338 C 0.69665 0.29088 0.07024 0.0
C339 C 0.70998 0.3213 0.03903 0.0
C340 C 0.6959 0.35612 0.03533 0.0
C341 C 0.66915 0.36017 0.06412 0.0
C342 C 0.65722 0.33119 0.09725 0.0
C343 C 0.62658 0.34265 0.12122 0.0
C344 C 0.59233 0.32071 0.10805 0.0
C345 C 0.63807 0.33931 0.18045 0.0
C346 C 0.62175 0.3821 0.09406 0.0
C347 C 0.64673 0.39155 0.06141 0.0
C348 C 0.64486 0.42475 0.027 0.0
C349 C 0.61688 0.4489 0.02594 0.0
C350 C 0.59174 0.44044 0.0601 0.0
C351 C 0.59441 0.40672 0.09505 0.0
H352 H 0.12857 0.8686 0.07442 0.0
H353 H 0.2372 0.89529 0.14266 0.0
H354 H 0.21306 0.91648 0.21203 0.0
H355 H 0.08716 0.94774 0.09368 0.0
H356 H 0.04609 0.92535 0.10729 0.0
H357 H 0.07218 0.90872 0.06592 0.0
H358 H 0.07601 0.84518 0.12581 0.0
H359 H 0.0499 0.86161 0.16739 0.0
H360 H 0.09352 0.84075 0.1945 0.0
H361 H 0.17688 0.93699 0.27266 0.0
H362 H 0.13107 0.95762 0.31721 0.0
H363 H 0.04596 0.9216 0.20604 0.0
C364 C 0.14744 0.87893 0.10375 0.0
C365 C 0.185 0.87979 0.10291 0.0
C366 C 0.20848 0.8933 0.14277 0.0
C367 C 0.19499 0.90574 0.18228 0.0
C368 C 0.15787 0.90489 0.18138 0.0
C369 C 0.13441 0.89201 0.14299 0.0
C370 C 0.0955 0.89592 0.14917 0.0
C371 C 0.07398 0.92093 0.10117 0.0
C372 C 0.07769 0.85864 0.15986 0.0
C373 C 0.10073 0.91339 0.19673 0.0
C374 C 0.13694 0.91791 0.21513 0.0
C375 C 0.14846 0.93352 0.25865 0.0
C376 C 0.12228 0.94503 0.2838 0.0
C377 C 0.08501 0.94126 0.26503 0.0
C378 C 0.07425 0.92509 0.22101 0.0
H379 H 0.61832 0.67723 0.73079 0.0
H380 H 0.72511 0.63029 0.79255 0.0
H381 H 0.70279 0.59615 0.86971 0.0
H382 H 0.59587 0.68503 0.85877 0.0
H383 H 0.54916 0.67394 0.84012 0.0
H384 H 0.57409 0.69679 0.79146 0.0
H385 H 0.55764 0.64592 0.73832 0.0
H386 H 0.53293 0.62285 0.78699 0.0
H387 H 0.56867 0.59947 0.76916 0.0
H388 H 0.66778 0.56188 0.93439 0.0
H389 H 0.62314 0.53381 0.98716 0.0
H390 H 0.53951 0.60514 0.88827 0.0
C391 C 0.63704 0.66013 0.76098 0.0
C392 C 0.67352 0.65656 0.75589 0.0
C393 C 0.69723 0.63386 0.79605 0.0
C394 C 0.68476 0.61422 0.83988 0.0
C395 C 0.64859 0.61793 0.84339 0.0
C396 C 0.62513 0.64071 0.80551 0.0
C397 C 0.58736 0.63905 0.81851 0.0
C398 C 0.57596 0.6759 0.82776 0.0
C399 C 0.56005 0.62604 0.7757 0.0
C400 C 0.59306 0.611 0.86875 0.0
C401 C 0.62861 0.59915 0.88221 0.0
C402 C 0.64005 0.57144 0.92478 0.0
C403 C 0.61453 0.55552 0.95444 0.0
C404 C 0.5783 0.56779 0.94225 0.0
C405 C 0.56737 0.59593 0.89894 0.0
H406 H 0.9113 0.15447 0.17613 0.0
H407 H 0.80252 0.13158 0.20636 0.0
H408 H 0.82733 0.09834 0.29434 0.0
H409 H 0.94886 0.06809 0.24096 0.0
H410 H 0.99181 0.08481 0.26828 0.0
H411 H 0.96647 0.10941 0.20805 0.0
H412 H 0.96706 0.16747 0.24689 0.0
H413 H 0.99331 0.14359 0.30689 0.0
H414 H 0.95138 0.16549 0.3077 0.0
H415 H 0.86301 0.06591 0.37749 0.0
H416 H 0.90819 0.03818 0.45326 0.0
H417 H 0.99436 0.08034 0.37021 0.0
C418 C 0.89272 0.14263 0.20137 0.0
C419 C 0.85488 0.14618 0.18435 0.0
C420 C 0.83154 0.13018 0.21871 0.0
C421 C 0.84537 0.11086 0.26869 0.0
C422 C 0.88264 0.10758 0.28394 0.0
C423 C 0.90608 0.12312 0.25159 0.0
C424 C 0.94506 0.1149 0.27774 0.0
C425 C 0.96418 0.093 0.24692 0.0
C426 C 0.96539 0.14995 0.28525 0.0
C427 C 0.93971 0.09215 0.32958 0.0
C428 C 0.90344 0.08836 0.33219 0.0
C429 C 0.89151 0.0688 0.37606 0.0
C430 C 0.91735 0.0532 0.41887 0.0
C431 C 0.95467 0.05737 0.41764 0.0
C432 C 0.96597 0.07661 0.37206 0.0
H433 H 0.3247 0.35441 0.54777 0.0
H434 H 0.42925 0.37217 0.50008 0.0
H435 H 0.44953 0.40385 0.57277 0.0
H436 H 0.3173 0.43908 0.58394 0.0
H437 H 0.29668 0.42188 0.64 0.0
H438 H 0.29062 0.39855 0.58602 0.0
H439 H 0.31577 0.33924 0.64827 0.0
H440 H 0.32167 0.36233 0.70257 0.0
H441 H 0.35943 0.3393 0.68925 0.0
H442 H 0.45717 0.43743 0.64554 0.0
H443 H 0.45287 0.46874 0.71728 0.0
H444 H 0.34476 0.42663 0.72251 0.0
C445 C 0.35204 0.36445 0.55321 0.0
C446 C 0.37526 0.36114 0.51788 0.0
C447 C 0.41075 0.37496 0.52603 0.0
C448 C 0.42263 0.3928 0.56741 0.0
C449 C 0.39887 0.39634 0.60077 0.0
C450 C 0.36445 0.38231 0.5946 0.0
C451 C 0.34415 0.39083 0.63543 0.0
C452 C 0.31018 0.41396 0.6098 0.0
C453 C 0.33471 0.35584 0.67099 0.0
C454 C 0.37236 0.41237 0.66474 0.0
C455 C 0.40369 0.4151 0.64407 0.0
C456 C 0.43303 0.43495 0.66279 0.0
C457 C 0.43037 0.45246 0.70394 0.0
C458 C 0.39869 0.44985 0.72644 0.0
C459 C 0.36936 0.42936 0.70635 0.0
H460 H 0.65863 0.61509 0.59727 0.0
H461 H 0.66523 0.72628 0.51653 0.0
H462 H 0.6343 0.70918 0.43419 0.0
H463 H 0.67597 0.57359 0.49271 0.0
H464 H 0.64557 0.5366 0.50611 0.0
H465 H 0.66765 0.55799 0.55816 0.0
H466 H 0.60545 0.5709 0.58036 0.0
H467 H 0.58317 0.54965 0.52828 0.0
H468 H 0.57131 0.59548 0.53016 0.0
H469 H 0.60058 0.67972 0.36158 0.0
H470 H 0.5703 0.64031 0.30341 0.0
H471 H 0.58936 0.54759 0.43153 0.0
C472 C 0.65331 0.63591 0.56231 0.0
C473 C 0.66387 0.67213 0.56324 0.0
C474 C 0.65724 0.69843 0.51653 0.0
C475 C 0.63963 0.68896 0.46976 0.0
C476 C 0.62929 0.653 0.47035 0.0
C477 C 0.63621 0.62685 0.51538 0.0
C478 C 0.62323 0.58997 0.50555 0.0
C479 C 0.655 0.56295 0.51626 0.0
C480 C 0.59406 0.57567 0.53801 0.0
C481 C 0.60755 0.59941 0.44797 0.0
C482 C 0.61114 0.6359 0.42841 0.0
C483 C 0.59803 0.65103 0.37641 0.0
C484 C 0.58108 0.62826 0.34352 0.0
C485 C 0.57761 0.59055 0.36243 0.0
C486 C 0.5911 0.57622 0.41559 0.0
H487 H 0.90506 0.17055 0.01649 0.0
H488 H 0.79711 0.1363 0.95895 0.0
H489 H 0.82032 0.11171 0.89121 0.0
H490 H 0.93256 0.19633 0.88846 0.0
H491 H 0.97827 0.18019 0.91301 0.0
H492 H 0.95277 0.19683 0.95515 0.0
H493 H 0.96447 0.13617 0.02155 0.0
H494 H 0.98976 0.11925 0.97948 0.0
H495 H 0.95184 0.09419 1.00039 0.0
H496 H 0.85606 0.08614 0.83486 0.0
H497 H 0.90081 0.06491 0.78998 0.0
H498 H 0.98535 0.11908 0.88014 0.0
C499 C 0.88628 0.15817 0.98928 0.0
C500 C 0.8492 0.15554 0.99282 0.0
C501 C 0.82548 0.13916 0.95649 0.0
C502 C 0.83846 0.1249 0.91808 0.0
C503 C 0.87521 0.12752 0.9161 0.0
C504 C 0.89873 0.14412 0.95031 0.0
C505 C 0.93706 0.1429 0.94017 0.0
C506 C 0.95097 0.18135 0.92318 0.0
C507 C 0.96226 0.12187 0.98826 0.0
C508 C 0.9315 0.12238 0.89561 0.0
C509 C 0.89564 0.11372 0.88243 0.0
C510 C 0.88412 0.09338 0.84415 0.0
C511 C 0.90987 0.08166 0.81849 0.0
C512 C 0.94687 0.09057 0.83063 0.0
C513 C 0.95752 0.11142 0.86979 0.0
H514 H 0.43066 0.35194 0.35609 0.0
H515 H 0.31855 0.38024 0.29266 0.0
H516 H 0.33689 0.41897 0.2149 0.0
H517 H 0.46752 0.43672 0.31601 0.0
H518 H 0.50743 0.42045 0.29846 0.0
H519 H 0.48614 0.39264 0.34767 0.0
H520 H 0.47927 0.3402 0.29653 0.0
H521 H 0.50164 0.36716 0.2478 0.0
H522 H 0.45769 0.34884 0.22899 0.0
H523 H 0.368 0.46029 0.1507 0.0
H524 H 0.40867 0.4943 0.09618 0.0
H525 H 0.50067 0.43471 0.19553 0.0
C526 C 0.41004 0.36568 0.32509 0.0
C527 C 0.37318 0.36303 0.32971 0.0
C528 C 0.34682 0.38168 0.28916 0.0
C529 C 0.35704 0.40384 0.24519 0.0
C530 C 0.39368 0.40654 0.24221 0.0
C531 C 0.41976 0.38734 0.28045 0.0
C532 C 0.45727 0.39525 0.26769 0.0
C533 C 0.481 0.41227 0.30998 0.0
C534 C 0.47501 0.36081 0.25978 0.0
C535 C 0.44829 0.42243 0.21683 0.0
C536 C 0.41147 0.42878 0.20326 0.0
C537 C 0.39673 0.45461 0.16002 0.0
C538 C 0.42006 0.4736 0.12895 0.0
C539 C 0.45763 0.46601 0.13999 0.0
C540 C 0.47197 0.44056 0.1853 0.0
H541 H 0.19551 0.92869 0.89595 0.0
H542 H 0.1423 0.82505 0.92103 0.0
H543 H 0.10091 0.84335 0.83642 0.0
H544 H 0.11696 0.98171 0.84104 0.0
H545 H 0.13738 0.01266 0.79387 0.0
H546 H 0.16469 0.99047 0.85402 0.0
H547 H 0.20709 0.96508 0.8022 0.0
H548 H 0.18001 0.98715 0.74169 0.0
H549 H 0.18841 0.939 0.75378 0.0
H550 H 0.06315 0.87448 0.75242 0.0
H551 H 0.03324 0.91509 0.67214 0.0
H552 H 0.11105 0.99877 0.70145 0.0
C553 C 0.17561 0.90969 0.88279 0.0
C554 C 0.17219 0.87529 0.91399 0.0
C555 C 0.14544 0.85125 0.89682 0.0
C556 C 0.12185 0.8615 0.84911 0.0
C557 C 0.12546 0.89588 0.8194 0.0
C558 C 0.15183 0.91954 0.83531 0.0
C559 C 0.14906 0.9554 0.79698 0.0
C560 C 0.14158 0.98691 0.82306 0.0
C561 C 0.18317 0.96204 0.77219 0.0
C562 C 0.11672 0.94841 0.75748 0.0
C563 C 0.10359 0.91389 0.77107 0.0
C564 C 0.07343 0.90143 0.74115 0.0
C565 C 0.05666 0.92464 0.69567 0.0
C566 C 0.07014 0.9598 0.6805 0.0
C567 C 0.10023 0.97198 0.71223 0.0
loop_
_geom_bond_atom_site_label_1
_geom_bond_atom_site_label_2
_geom_bond_distance
_geom_bond_site_symmetry_2
_ccdc_geom_bond_type
H0 C1 0.949 . S
C1 H0 0.949 . S
C1 C2 1.395 . S
C1 C3 1.391 . S
C2 C1 1.395 . S
C2 C5 1.390 . S
C3 C1 1.391 . S
C3 C7 1.387 1_554 S
C3 C8 1.491 . S
H4 C5 0.950 . S
C5 C2 1.390 . S
C5 H4 0.950 . S
C5 C6 1.378 1_554 S
C6 C5 1.378 1_556 S
C6 C7 1.409 . S
C7 C3 1.387 1_556 S
C7 C6 1.409 . S
C7 H9 0.951 . S
C8 C3 1.491 . S
C8 C10 1.382 . S
C8 C12 1.404 1_554 S
H9 C7 0.951 . S
C10 C8 1.382 . S
C10 C11 1.390 . S
C10 H15 0.949 . S
C11 C10 1.390 . S
C11 C16 1.399 . S
C12 C8 1.404 1_556 S
C12 H13 0.950 . S
C12 C14 1.375 . S
H13 C12 0.950 . S
C14 C12 1.375 . S
C14 C16 1.382 1_556 S
C14 H18 0.950 . S
H15 C10 0.949 . S
C16 C11 1.399 . S
C16 C14 1.382 1_554 S
C16 H17 0.952 . S
H17 C16 0.952 . S
H18 C14 0.950 . S
H19 C20 0.949 . S
C20 H19 0.949 . S
C20 C21 1.395 . S
C20 C22 1.391 . S
C21 C20 1.395 . S
C21 C24 1.390 . S
C22 C20 1.391 . S
C22 C26 1.387 . S
C22 C27 1.491 . S
H23 C24 0.950 . S
C24 C21 1.390 . S
C24 H23 0.950 . S
C24 C25 1.378 . S
C25 C24 1.378 . S
C25 C26 1.409 . S
C26 C22 1.387 . S
C26 C25 1.409 . S
C26 H28 0.951 . S
C27 C22 1.491 . S
C27 C29 1.382 . S
C27 C31 1.404 . S
H28 C26 0.951 . S
C29 C27 1.382 . S
C29 C30 1.390 . S
C29 H34 0.949 . S
C30 C29 1.390 . S
C30 C35 1.399 . S
C31 C27 1.404 . S
C31 H32 0.950 . S
C31 C33 1.375 . S
H32 C31 0.950 . S
C33 C31 1.375 . S
C33 C35 1.382 . S
C33 H37 0.950 . S
H34 C29 0.949 . S
C35 C30 1.399 . S
C35 C33 1.382 . S
C35 H36 0.952 . S
H36 C35 0.952 . S
H37 C33 0.950 . S
H38 C39 0.949 . S
C39 H38 0.949 . S
C39 C40 1.395 . S
C39 C41 1.391 . S
C40 C39 1.395 . S
C40 C43 1.390 . S
C41 C39 1.391 . S
C41 C45 1.387 1_554 S
C41 C46 1.491 . S
H42 C43 0.950 . S
C43 C40 1.390 . S
C43 H42 0.950 . S
C43 C44 1.378 . S
C44 C43 1.378 . S
C44 C45 1.409 1_554 S
C45 C41 1.387 1_556 S
C45 C44 1.409 1_556 S
C45 H47 0.951 . S
C46 C41 1.491 . S
C46 C48 1.382 . S
C46 C50 1.404 1_554 S
H47 C45 0.951 . S
C48 C46 1.382 . S
C48 C49 1.390 . S
C48 H53 0.949 . S
C49 C48 1.390 . S
C49 C54 1.399 1_554 S
C50 C46 1.404 1_556 S
C50 H51 0.950 . S
C50 C52 1.375 . S
H51 C50 0.950 . S
C52 C50 1.375 . S
C52 C54 1.382 . S
C52 H56 0.950 . S
H53 C48 0.949 . S
C54 C49 1.399 1_556 S
C54 C52 1.382 . S
C54 H55 0.952 . S
H55 C54 0.952 . S
H56 C52 0.950 . S
H57 C58 0.949 . S
C58 H57 0.949 . S
C58 C59 1.395 . S
C58 C60 1.391 . S
C59 C58 1.395 . S
C59 C62 1.390 . S
C60 C58 1.391 . S
C60 C64 1.387 . S
C60 C65 1.491 . S
H61 C62 0.950 . S
C62 C59 1.390 . S
C62 H61 0.950 . S
C62 C63 1.378 . S
C63 C62 1.378 . S
C63 C64 1.409 . S
C64 C60 1.387 . S
C64 C63 1.409 . S
C64 H66 0.951 . S
C65 C60 1.491 . S
C65 C67 1.382 . S
C65 C69 1.404 . S
H66 C64 0.951 . S
C67 C65 1.382 . S
C67 C68 1.390 . S
C67 H72 0.949 . S
C68 C67 1.390 . S
C68 C73 1.399 . S
C69 C65 1.404 . S
C69 H70 0.950 . S
C69 C71 1.375 . S
H70 C69 0.950 . S
C71 C69 1.375 . S
C71 C73 1.382 . S
C71 H75 0.950 . S
H72 C67 0.949 . S
C73 C68 1.399 . S
C73 C71 1.382 . S
C73 H74 0.952 . S
H74 C73 0.952 . S
H75 C71 0.950 . S
Eu76 N105 2.600 . S
Eu76 N111 2.562 . S
Eu76 O120 2.462 . S
Eu76 O121 2.373 . S
Eu76 O123 2.432 . S
Eu76 O124 2.291 1_565 S
Eu76 O128 2.335 1_465 S
Eu76 O131 2.372 1_455 S
Eu76 C140 2.787 . S
C77 N78 1.365 . S
C77 C80 1.405 . S
C77 C84 1.448 . S
N78 C77 1.365 . S
N78 C81 1.319 1_655 S
N78 Eu87 2.600 . S
C79 C81 1.397 . S
C79 C82 1.367 1_455 S
C79 H99 0.931 . S
C80 C77 1.405 . S
C80 C82 1.403 . S
C80 C86 1.439 . S
C81 N78 1.319 1_455 S
C81 C79 1.397 . S
C81 H92 0.930 . S
C82 C79 1.367 1_655 S
C82 C80 1.403 . S
C82 H103 0.929 . S
C83 C84 1.430 . S
C83 C85 1.387 . S
C83 C89 1.404 . S
C84 C77 1.448 . S
C84 C83 1.430 . S
C84 N88 1.351 . S
C85 C83 1.387 . S
C85 C86 1.374 . S
C85 H100 0.931 . S
C86 C80 1.439 . S
C86 C85 1.374 . S
C86 H101 0.931 . S
Eu87 N78 2.600 . S
Eu87 N88 2.562 . S
Eu87 O122 2.335 1_655 S
Eu87 O125 2.372 1_655 S
Eu87 O126 2.462 . S
Eu87 O127 2.373 . S
Eu87 O129 2.432 . S
Eu87 O130 2.291 1_545 S
Eu87 C151 2.787 . S
N88 C84 1.351 . S
N88 Eu87 2.562 . S
N88 C90 1.325 . S
C89 C83 1.404 . S
C89 C91 1.366 . S
C89 H97 0.930 . S
C90 N88 1.325 . S
C90 C91 1.416 . S
C90 H96 0.929 . S
C91 C89 1.366 . S
C91 C90 1.416 . S
C91 H93 0.930 . S
H92 C81 0.930 . S
H93 C91 0.930 . S
H94 C109 0.930 1_655 S
H95 C116 0.930 . S
H96 C90 0.929 . S
H97 C89 0.930 . S
H98 C112 0.929 . S
H99 C79 0.931 . S
H100 C85 0.931 . S
H101 C86 0.931 . S
H102 C107 0.931 1_655 S
H103 C82 0.929 . S
H104 C115 0.930 . S
N105 Eu76 2.600 . S
N105 C106 1.365 . S
N105 C109 1.319 . S
C106 N105 1.365 . S
C106 C108 1.405 . S
C106 C114 1.448 . S
C107 H102 0.931 1_455 S
C107 C109 1.397 . S
C107 C110 1.367 . S
C108 C106 1.405 . S
C108 C110 1.403 . S
C108 C141 1.439 . S
C109 H94 0.930 1_455 S
C109 N105 1.319 . S
C109 C107 1.397 . S
C110 C107 1.367 . S
C110 C108 1.403 . S
C110 H117 0.929 . S
N111 Eu76 2.562 . S
N111 C112 1.325 . S
N111 C114 1.351 . S
C112 H98 0.929 . S
C112 N111 1.325 . S
C112 C116 1.416 . S
C113 C114 1.430 . S
C113 C115 1.404 . S
C113 C142 1.387 . S
C114 C106 1.448 . S
C114 N111 1.351 . S
C114 C113 1.430 . S
C115 H104 0.930 . S
C115 C113 1.404 . S
C115 C116 1.366 . S
C116 H95 0.930 . S
C116 C112 1.416 . S
C116 C115 1.366 . S
H117 C110 0.929 . S
H118 C141 0.931 . S
H119 C142 0.931 . S
O120 Eu76 2.462 . S
O120 C140 1.252 . S
O121 Eu76 2.373 . S
O121 C132 1.249 . S
O122 Eu87 2.335 1_455 S
O122 C132 1.264 1_545 S
O123 Eu76 2.432 . S
O123 C140 1.268 . S
O124 Eu76 2.291 1_545 S
O124 C139 1.255 . S
O125 Eu87 2.372 1_455 S
O125 C139 1.257 . S
O126 Eu87 2.462 . S
O126 C151 1.252 . S
O127 Eu87 2.373 . S
O127 C143 1.249 . S
O128 Eu76 2.335 1_645 S
O128 C143 1.264 . S
O129 Eu87 2.432 . S
O129 C151 1.268 . S
O130 Eu87 2.291 1_565 S
O130 C150 1.255 . S
O131 Eu76 2.372 1_655 S
O131 C150 1.257 . S
C132 O121 1.249 . S
C132 O122 1.264 1_565 S
C133 C136 1.382 . S
C133 C138 1.390 . S
C133 C140 1.506 . S
C134 C135 1.398 . S
C134 C138 1.392 . S
C135 C134 1.398 . S
C135 C137 1.372 . S
C135 H152 0.931 . S
C136 C133 1.382 . S
C136 C137 1.390 . S
C136 H153 0.931 . S
C137 C135 1.372 . S
C137 C136 1.390 . S
C137 H154 0.929 . S
C138 C133 1.390 . S
C138 C134 1.392 . S
C138 H155 0.930 . S
C139 O124 1.255 . S
C139 O125 1.257 . S
C140 Eu76 2.787 . S
C140 O120 1.252 . S
C140 O123 1.268 . S
C140 C133 1.506 . S
C141 C108 1.439 . S
C141 H118 0.931 . S
C141 C142 1.374 . S
C142 C113 1.387 . S
C142 H119 0.931 . S
C142 C141 1.374 . S
C143 O127 1.249 . S
C143 O128 1.264 . S
C144 C147 1.382 . S
C144 C148 1.390 . S
C144 C151 1.506 . S
C145 C146 1.398 . S
C145 C148 1.392 . S
C146 C145 1.398 . S
C146 C149 1.372 . S
C146 H156 0.931 . S
C147 C144 1.382 . S
C147 C149 1.390 . S
C147 H157 0.931 . S
C148 C144 1.390 . S
C148 C145 1.392 . S
C148 H158 0.930 . S
C149 C146 1.372 . S
C149 C147 1.390 . S
C149 H159 0.929 . S
C150 O130 1.255 . S
C150 O131 1.257 . S
C151 Eu87 2.787 . S
C151 O126 1.252 . S
C151 O129 1.268 . S
C151 C144 1.506 . S
H152 C135 0.931 . S
H153 C136 0.931 . S
H154 C137 0.929 . S
H155 C138 0.930 . S
H156 C146 0.931 . S
H157 C147 0.931 . S
H158 C148 0.930 . S
H159 C149 0.929 . S
Eu160 N189 2.596 1_556 S
Eu160 N195 2.562 1_556 S
Eu160 O204 2.462 . S
Eu160 O205 2.373 1_556 S
Eu160 O207 2.432 . S
Eu160 O208 2.291 1_556 S
Eu160 O212 2.335 . S
Eu160 O215 2.372 1_556 S
Eu160 C224 2.787 . S
C161 N162 1.365 . S
C161 C164 1.405 . S
C161 C168 1.448 . S
N162 C161 1.365 . S
N162 C165 1.319 . S
N162 Eu171 2.600 . S
C163 C165 1.397 . S
C163 C166 1.367 . S
C163 H183 0.931 . S
C164 C161 1.405 . S
C164 C166 1.403 . S
C164 C170 1.439 . S
C165 N162 1.319 . S
C165 C163 1.397 . S
C165 H176 0.930 . S
C166 C163 1.367 . S
C166 C164 1.403 . S
C166 H187 0.929 . S
C167 C168 1.430 . S
C167 C169 1.387 . S
C167 C173 1.404 . S
C168 C161 1.448 . S
C168 C167 1.430 . S
C168 N172 1.351 . S
C169 C167 1.387 . S
C169 C170 1.374 . S
C169 H184 0.931 . S
C170 C164 1.439 . S
C170 C169 1.374 . S
C170 H185 0.931 . S
Eu171 N162 2.600 . S
Eu171 N172 2.562 . S
Eu171 O206 2.335 . S
Eu171 O209 2.372 . S
Eu171 O210 2.462 . S
Eu171 O211 2.373 . S
Eu171 O213 2.432 . S
Eu171 O214 2.291 . S
Eu171 C235 2.787 . S
N172 C168 1.351 . S
N172 Eu171 2.562 . S
N172 C174 1.325 . S
C173 C167 1.404 . S
C173 C175 1.366 . S
C173 H181 0.930 . S
C174 N172 1.325 . S
C174 C175 1.416 . S
C174 H180 0.929 . S
C175 C173 1.366 . S
C175 C174 1.416 . S
C175 H177 0.930 . S
H176 C165 0.930 . S
H177 C175 0.930 . S
H178 C193 0.930 . S
H179 C200 0.930 . S
H180 C174 0.929 . S
H181 C173 0.930 . S
H182 C196 0.929 . S
H183 C163 0.931 . S
H184 C169 0.931 . S
H185 C170 0.931 . S
H186 C191 0.931 . S
H187 C166 0.929 . S
H188 C199 0.930 . S
N189 Eu160 2.596 1_554 S
N189 C190 1.370 . S
N189 C193 1.320 1_554 S
C190 N189 1.370 . S
C190 C192 1.405 . S
C190 C198 1.448 . S
C191 H186 0.931 . S
C191 C193 1.397 . S
C191 C194 1.367 1_556 S
C192 C190 1.405 . S
C192 C194 1.403 . S
C192 C225 1.439 . S
C193 H178 0.930 . S
C193 N189 1.320 1_556 S
C193 C191 1.397 . S
C194 C191 1.367 1_554 S
C194 C192 1.403 . S
C194 H201 0.929 . S
N195 Eu160 2.562 1_554 S
N195 C196 1.325 . S
N195 C198 1.351 . S
C196 H182 0.929 . S
C196 N195 1.325 . S
C196 C200 1.416 . S
C197 C198 1.430 . S
C197 C199 1.404 . S
C197 C226 1.387 . S
C198 C190 1.448 . S
C198 N195 1.351 . S
C198 C197 1.430 . S
C199 H188 0.930 . S
C199 C197 1.404 . S
C199 C200 1.366 . S
C200 H179 0.930 . S
C200 C196 1.416 . S
C200 C199 1.366 . S
H201 C194 0.929 . S
H202 C225 0.931 . S
H203 C226 0.931 . S
O204 Eu160 2.462 . S
O204 C224 1.252 . S
O205 Eu160 2.373 1_554 S
O205 C216 1.249 . S
O206 Eu171 2.335 . S
O206 C216 1.264 . S
O207 Eu160 2.432 . S
O207 C224 1.268 . S
O208 Eu160 2.291 1_554 S
O208 C223 1.255 . S
O209 Eu171 2.372 . S
O209 C223 1.257 . S
O210 Eu171 2.462 . S
O210 C235 1.252 . S
O211 Eu171 2.373 . S
O211 C227 1.249 1_554 S
O212 Eu160 2.335 . S
O212 C227 1.264 . S
O213 Eu171 2.432 . S
O213 C235 1.268 . S
O214 Eu171 2.291 . S
O214 C234 1.255 . S
O215 Eu160 2.372 1_554 S
O215 C234 1.257 . S
C216 O205 1.249 . S
C216 O206 1.264 . S
C217 C220 1.382 . S
C217 C222 1.390 . S
C217 C224 1.506 . S
C218 C219 1.398 . S
C218 C222 1.392 . S
C219 C218 1.398 . S
C219 C221 1.372 . S
C219 H236 0.931 . S
C220 C217 1.382 . S
C220 C221 1.390 . S
C220 H237 0.931 . S
C221 C219 1.372 . S
C221 C220 1.390 . S
C221 H238 0.929 . S
C222 C217 1.390 . S
C222 C218 1.392 . S
C222 H239 0.930 . S
C223 O208 1.255 . S
C223 O209 1.257 . S
C224 Eu160 2.787 . S
C224 O204 1.252 . S
C224 O207 1.268 . S
C224 C217 1.506 . S
C225 C192 1.439 . S
C225 H202 0.931 . S
C225 C226 1.374 . S
C226 C197 1.387 . S
C226 H203 0.931 . S
C226 C225 1.374 . S
C227 O211 1.249 1_556 S
C227 O212 1.264 . S
C228 C231 1.382 . S
C228 C232 1.390 . S
C228 C235 1.506 . S
C229 C230 1.398 . S
C229 C232 1.392 . S
C230 C229 1.398 . S
C230 C233 1.372 . S
C230 H240 0.931 . S
C231 C228 1.382 . S
C231 C233 1.390 . S
C231 H241 0.931 . S
C232 C228 1.390 . S
C232 C229 1.392 . S
C232 H242 0.930 . S
C233 C230 1.372 . S
C233 C231 1.390 . S
C233 H243 0.929 . S
C234 O214 1.255 . S
C234 O215 1.257 . S
C235 Eu171 2.787 . S
C235 O210 1.252 . S
C235 O213 1.268 . S
C235 C228 1.506 . S
H236 C219 0.931 . S
H237 C220 0.931 . S
H238 C221 0.929 . S
H239 C222 0.930 . S
H240 C230 0.931 . S
H241 C231 0.931 . S
H242 C232 0.930 . S
H243 C233 0.929 . S
H244 C256 0.930 . S
H245 C258 0.930 . S
H246 C259 0.930 . S
H247 C263 0.959 . S
H248 C263 0.959 . S
H249 C263 0.961 . S
H250 C264 0.960 . S
H251 C264 0.961 . S
H252 C264 0.959 . S
H253 C267 0.929 . S
H254 C268 0.931 . S
H255 C270 0.930 . S
C256 H244 0.930 . S
C256 C257 1.399 . S
C256 C261 1.399 . S
C257 C256 1.399 . S
C257 C258 1.376 . S
C258 H245 0.930 . S
C258 C257 1.376 . S
C258 C259 1.388 . S
C259 H246 0.930 . S
C259 C258 1.388 . S
C259 C260 1.390 . S
C260 C259 1.390 . S
C260 C261 1.394 . S
C260 C266 1.465 . S
C261 C256 1.399 . S
C261 C260 1.394 . S
C261 C262 1.516 . S
C262 C261 1.516 . S
C262 C263 1.502 . S
C262 C264 1.561 . S
C262 C265 1.526 . S
C263 H247 0.959 . S
C263 H248 0.959 . S
C263 H249 0.961 . S
C263 C262 1.502 . S
C264 H250 0.960 . S
C264 H251 0.961 . S
C264 H252 0.959 . S
C264 C262 1.561 . S
C265 C262 1.526 . S
C265 C266 1.396 . S
C265 C270 1.390 . S
C266 C260 1.465 . S
C266 C265 1.396 . S
C266 C267 1.399 . S
C267 H253 0.929 . S
C267 C266 1.399 . S
C267 C268 1.385 . S
C268 H254 0.931 . S
C268 C267 1.385 . S
C268 C269 1.389 . S
C269 C268 1.389 . S
C269 C270 1.387 . S
C270 H255 0.930 . S
C270 C265 1.390 . S
C270 C269 1.387 . S
H271 C283 0.930 . S
H272 C285 0.930 1_556 S
H273 C286 0.930 . S
H274 C290 0.959 . S
H275 C290 0.959 . S
H276 C290 0.961 . S
H277 C291 0.960 . S
H278 C291 0.961 . S
H279 C291 0.959 . S
H280 C294 0.929 . S
H281 C295 0.931 . S
H282 C297 0.930 . S
C283 H271 0.930 . S
C283 C284 1.399 . S
C283 C288 1.399 . S
C284 C283 1.399 . S
C284 C285 1.376 . S
C285 H272 0.930 1_554 S
C285 C284 1.376 . S
C285 C286 1.388 1_554 S
C286 H273 0.930 . S
C286 C285 1.388 1_556 S
C286 C287 1.390 1_556 S
C287 C286 1.390 1_554 S
C287 C288 1.394 . S
C287 C293 1.465 . S
C288 C283 1.399 . S
C288 C287 1.394 . S
C288 C289 1.516 . S
C289 C288 1.516 . S
C289 C290 1.502 . S
C289 C291 1.561 . S
C289 C292 1.526 . S
C290 H274 0.959 . S
C290 H275 0.959 . S
C290 H276 0.961 . S
C290 C289 1.502 . S
C291 H277 0.960 . S
C291 H278 0.961 . S
C291 H279 0.959 . S
C291 C289 1.561 . S
C292 C289 1.526 . S
C292 C293 1.396 . S
C292 C297 1.390 . S
C293 C287 1.465 . S
C293 C292 1.396 . S
C293 C294 1.399 1_554 S
C294 H280 0.929 . S
C294 C293 1.399 1_556 S
C294 C295 1.385 . S
C295 H281 0.931 . S
C295 C294 1.385 . S
C295 C296 1.389 1_556 S
C296 C295 1.389 1_554 S
C296 C297 1.387 . S
C297 H282 0.930 . S
C297 C292 1.390 . S
C297 C296 1.387 . S
H298 C310 0.930 . S
H299 C312 0.930 . S
H300 C313 0.930 . S
H301 C317 0.959 . S
H302 C317 0.959 . S
H303 C317 0.961 . S
H304 C318 0.960 . S
H305 C318 0.961 . S
H306 C318 0.959 . S
H307 C321 0.929 . S
H308 C322 0.931 . S
H309 C324 0.930 . S
C310 H298 0.930 . S
C310 C311 1.399 . S
C310 C315 1.399 . S
C311 C310 1.399 . S
C311 C312 1.376 . S
C312 H299 0.930 . S
C312 C311 1.376 . S
C312 C313 1.388 . S
C313 H300 0.930 . S
C313 C312 1.388 . S
C313 C314 1.390 . S
C314 C313 1.390 . S
C314 C315 1.394 . S
C314 C320 1.465 . S
C315 C310 1.399 . S
C315 C314 1.394 . S
C315 C316 1.516 . S
C316 C315 1.516 . S
C316 C317 1.502 . S
C316 C318 1.561 . S
C316 C319 1.526 . S
C317 H301 0.959 . S
C317 H302 0.959 . S
C317 H303 0.961 . S
C317 C316 1.502 . S
C318 H304 0.960 . S
C318 H305 0.961 . S
C318 H306 0.959 . S
C318 C316 1.561 . S
C319 C316 1.526 . S
C319 C320 1.396 . S
C319 C324 1.390 . S
C320 C314 1.465 . S
C320 C319 1.396 . S
C320 C321 1.399 . S
C321 H307 0.929 . S
C321 C320 1.399 . S
C321 C322 1.385 . S
C322 H308 0.931 . S
C322 C321 1.385 . S
C322 C323 1.389 . S
C323 C322 1.389 . S
C323 C324 1.387 . S
C324 H309 0.930 . S
C324 C319 1.390 . S
C324 C323 1.387 . S
H325 C337 0.930 . S
H326 C339 0.930 . S
H327 C340 0.930 . S
H328 C344 0.959 . S
H329 C344 0.959 . S
H330 C344 0.961 . S
H331 C345 0.960 . S
H332 C345 0.961 . S
H333 C345 0.959 . S
H334 C348 0.929 . S
H335 C349 0.931 . S
H336 C351 0.930 . S
C337 H325 0.930 . S
C337 C338 1.399 . S
C337 C342 1.399 . S
C338 C337 1.399 . S
C338 C339 1.376 1_554 S
C339 H326 0.930 . S
C339 C338 1.376 1_556 S
C339 C340 1.388 . S
C340 H327 0.930 . S
C340 C339 1.388 . S
C340 C341 1.390 1_556 S
C341 C340 1.390 1_554 S
C341 C342 1.394 . S
C341 C347 1.465 . S
C342 C337 1.399 . S
C342 C341 1.394 . S
C342 C343 1.516 . S
C343 C342 1.516 . S
C343 C344 1.502 . S
C343 C345 1.561 . S
C343 C346 1.526 . S
C344 H328 0.959 . S
C344 H329 0.959 . S
C344 H330 0.961 . S
C344 C343 1.502 . S
C345 H331 0.960 . S
C345 H332 0.961 . S
C345 H333 0.959 . S
C345 C343 1.561 . S
C346 C343 1.526 . S
C346 C347 1.396 . S
C346 C351 1.390 . S
C347 C341 1.465 . S
C347 C346 1.396 . S
C347 C348 1.399 1_554 S
C348 H334 0.929 . S
C348 C347 1.399 1_556 S
C348 C349 1.385 . S
C349 H335 0.931 . S
C349 C348 1.385 . S
C349 C350 1.389 1_556 S
C350 C349 1.389 1_554 S
C350 C351 1.387 . S
C351 H336 0.930 . S
C351 C346 1.390 . S
C351 C350 1.387 . S
H352 C364 0.930 . S
H353 C366 0.930 . S
H354 C367 0.930 . S
H355 C371 0.959 . S
H356 C371 0.959 . S
H357 C371 0.961 . S
H358 C372 0.960 . S
H359 C372 0.961 . S
H360 C372 0.959 . S
H361 C375 0.929 . S
H362 C376 0.931 1_545 S
H363 C378 0.930 . S
C364 H352 0.930 . S
C364 C365 1.399 . S
C364 C369 1.399 . S
C365 C364 1.399 . S
C365 C366 1.376 . S
C366 H353 0.930 . S
C366 C365 1.376 . S
C366 C367 1.388 . S
C367 H354 0.930 . S
C367 C366 1.388 . S
C367 C368 1.390 . S
C368 C367 1.390 . S
C368 C369 1.394 . S
C368 C374 1.465 . S
C369 C364 1.399 . S
C369 C368 1.394 . S
C369 C370 1.516 . S
C370 C369 1.516 . S
C370 C371 1.502 . S
C370 C372 1.561 . S
C370 C373 1.526 . S
C371 H355 0.959 . S
C371 H356 0.959 . S
C371 H357 0.961 . S
C371 C370 1.502 . S
C372 H358 0.960 . S
C372 H359 0.961 . S
C372 H360 0.959 . S
C372 C370 1.561 . S
C373 C370 1.526 . S
C373 C374 1.396 . S
C373 C378 1.390 . S
C374 C368 1.465 . S
C374 C373 1.396 . S
C374 C375 1.399 . S
C375 H361 0.929 . S
C375 C374 1.399 . S
C375 C376 1.385 . S
C376 H362 0.931 1_565 S
C376 C375 1.385 . S
C376 C377 1.389 . S
C377 C376 1.389 . S
C377 C378 1.387 . S
C378 H363 0.930 . S
C378 C373 1.390 . S
C378 C377 1.387 . S
H379 C391 0.930 . S
H380 C393 0.930 . S
H381 C394 0.930 . S
H382 C398 0.959 . S
H383 C398 0.959 . S
H384 C398 0.961 . S
H385 C399 0.960 . S
H386 C399 0.961 . S
H387 C399 0.959 . S
H388 C402 0.929 . S
H389 C403 0.931 . S
H390 C405 0.930 . S
C391 H379 0.930 . S
C391 C392 1.399 . S
C391 C396 1.399 . S
C392 C391 1.399 . S
C392 C393 1.376 . S
C393 H380 0.930 . S
C393 C392 1.376 . S
C393 C394 1.388 . S
C394 H381 0.930 . S
C394 C393 1.388 . S
C394 C395 1.390 . S
C395 C394 1.390 . S
C395 C396 1.394 . S
C395 C401 1.465 . S
C396 C391 1.399 . S
C396 C395 1.394 . S
C396 C397 1.516 . S
C397 C396 1.516 . S
C397 C398 1.502 . S
C397 C399 1.561 . S
C397 C400 1.526 . S
C398 H382 0.959 . S
C398 H383 0.959 . S
C398 H384 0.961 . S
C398 C397 1.502 . S
C399 H385 0.960 . S
C399 H386 0.961 . S
C399 H387 0.959 . S
C399 C397 1.561 . S
C400 C397 1.526 . S
C400 C401 1.396 . S
C400 C405 1.390 . S
C401 C395 1.465 . S
C401 C400 1.396 . S
C401 C402 1.399 . S
C402 H388 0.929 . S
C402 C401 1.399 . S
C402 C403 1.385 . S
C403 H389 0.931 . S
C403 C402 1.385 . S
C403 C404 1.389 . S
C404 C403 1.389 . S
C404 C405 1.387 . S
C405 H390 0.930 . S
C405 C400 1.390 . S
C405 C404 1.387 . S
H406 C418 0.930 . S
H407 C420 0.930 . S
H408 C421 0.930 . S
H409 C425 0.959 . S
H410 C425 0.959 . S
H411 C425 0.961 . S
H412 C426 0.960 . S
H413 C426 0.961 . S
H414 C426 0.959 . S
H415 C429 0.929 . S
H416 C430 0.931 . S
H417 C432 0.930 . S
C418 H406 0.930 . S
C418 C419 1.399 . S
C418 C423 1.399 . S
C419 C418 1.399 . S
C419 C420 1.376 . S
C420 H407 0.930 . S
C420 C419 1.376 . S
C420 C421 1.388 . S
C421 H408 0.930 . S
C421 C420 1.388 . S
C421 C422 1.390 . S
C422 C421 1.390 . S
C422 C423 1.394 . S
C422 C428 1.465 . S
C423 C418 1.399 . S
C423 C422 1.394 . S
C423 C424 1.516 . S
C424 C423 1.516 . S
C424 C425 1.502 . S
C424 C426 1.561 . S
C424 C427 1.526 . S
C425 H409 0.959 . S
C425 H410 0.959 . S
C425 H411 0.961 . S
C425 C424 1.502 . S
C426 H412 0.960 . S
C426 H413 0.961 . S
C426 H414 0.959 . S
C426 C424 1.561 . S
C427 C424 1.526 . S
C427 C428 1.396 . S
C427 C432 1.390 . S
C428 C422 1.465 . S
C428 C427 1.396 . S
C428 C429 1.399 . S
C429 H415 0.929 . S
C429 C428 1.399 . S
C429 C430 1.385 . S
C430 H416 0.931 . S
C430 C429 1.385 . S
C430 C431 1.389 . S
C431 C430 1.389 . S
C431 C432 1.387 . S
C432 H417 0.930 . S
C432 C427 1.390 . S
C432 C431 1.387 . S
H433 C445 0.930 . S
H434 C447 0.930 . S
H435 C448 0.930 . S
H436 C452 0.959 . S
H437 C452 0.959 . S
H438 C452 0.961 . S
H439 C453 0.960 . S
H440 C453 0.961 . S
H441 C453 0.959 . S
H442 C456 0.929 . S
H443 C457 0.931 . S
H444 C459 0.930 . S
C445 H433 0.930 . S
C445 C446 1.399 . S
C445 C450 1.399 . S
C446 C445 1.399 . S
C446 C447 1.376 . S
C447 H434 0.930 . S
C447 C446 1.376 . S
C447 C448 1.388 . S
C448 H435 0.930 . S
C448 C447 1.388 . S
C448 C449 1.390 . S
C449 C448 1.390 . S
C449 C450 1.394 . S
C449 C455 1.465 . S
C450 C445 1.399 . S
C450 C449 1.394 . S
C450 C451 1.516 . S
C451 C450 1.516 . S
C451 C452 1.502 . S
C451 C453 1.561 . S
C451 C454 1.526 . S
C452 H436 0.959 . S
C452 H437 0.959 . S
C452 H438 0.961 . S
C452 C451 1.502 . S
C453 H439 0.960 . S
C453 H440 0.961 . S
C453 H441 0.959 . S
C453 C451 1.561 . S
C454 C451 1.526 . S
C454 C455 1.396 . S
C454 C459 1.390 . S
C455 C449 1.465 . S
C455 C454 1.396 . S
C455 C456 1.399 . S
C456 H442 0.929 . S
C456 C455 1.399 . S
C456 C457 1.385 . S
C457 H443 0.931 . S
C457 C456 1.385 . S
C457 C458 1.389 . S
C458 C457 1.389 . S
C458 C459 1.387 . S
C459 H444 0.930 . S
C459 C454 1.390 . S
C459 C458 1.387 . S
H460 C472 0.930 . S
H461 C474 0.930 . S
H462 C475 0.930 . S
H463 C479 0.959 . S
H464 C479 0.959 . S
H465 C479 0.961 . S
H466 C480 0.960 . S
H467 C480 0.961 . S
H468 C480 0.959 . S
H469 C483 0.929 . S
H470 C484 0.931 . S
H471 C486 0.930 . S
C472 H460 0.930 . S
C472 C473 1.399 . S
C472 C477 1.399 . S
C473 C472 1.399 . S
C473 C474 1.376 . S
C474 H461 0.930 . S
C474 C473 1.376 . S
C474 C475 1.388 . S
C475 H462 0.930 . S
C475 C474 1.388 . S
C475 C476 1.390 . S
C476 C475 1.390 . S
C476 C477 1.394 . S
C476 C482 1.465 . S
C477 C472 1.399 . S
C477 C476 1.394 . S
C477 C478 1.516 . S
C478 C477 1.516 . S
C478 C479 1.502 . S
C478 C480 1.561 . S
C478 C481 1.526 . S
C479 H463 0.959 . S
C479 H464 0.959 . S
C479 H465 0.961 . S
C479 C478 1.502 . S
C480 H466 0.960 . S
C480 H467 0.961 . S
C480 H468 0.959 . S
C480 C478 1.561 . S
C481 C478 1.526 . S
C481 C482 1.396 . S
C481 C486 1.390 . S
C482 C476 1.465 . S
C482 C481 1.396 . S
C482 C483 1.399 . S
C483 H469 0.929 . S
C483 C482 1.399 . S
C483 C484 1.385 . S
C484 H470 0.931 . S
C484 C483 1.385 . S
C484 C485 1.389 . S
C485 C484 1.389 . S
C485 C486 1.387 . S
C486 H471 0.930 . S
C486 C481 1.390 . S
C486 C485 1.387 . S
H487 C499 0.930 . S
H488 C501 0.930 1_554 S
H489 C502 0.930 . S
H490 C506 0.959 . S
H491 C506 0.959 . S
H492 C506 0.961 . S
H493 C507 0.960 . S
H494 C507 0.961 . S
H495 C507 0.959 . S
H496 C510 0.929 . S
H497 C511 0.931 . S
H498 C513 0.930 . S
C499 H487 0.930 . S
C499 C500 1.399 . S
C499 C504 1.399 . S
C500 C499 1.399 . S
C500 C501 1.376 . S
C501 H488 0.930 1_556 S
C501 C500 1.376 . S
C501 C502 1.388 . S
C502 H489 0.930 . S
C502 C501 1.388 . S
C502 C503 1.390 . S
C503 C502 1.390 . S
C503 C504 1.394 . S
C503 C509 1.465 . S
C504 C499 1.399 . S
C504 C503 1.394 . S
C504 C505 1.516 . S
C505 C504 1.516 . S
C505 C506 1.502 . S
C505 C507 1.561 . S
C505 C508 1.526 . S
C506 H490 0.959 . S
C506 H491 0.959 . S
C506 H492 0.961 . S
C506 C505 1.502 . S
C507 H493 0.960 . S
C507 H494 0.961 . S
C507 H495 0.959 . S
C507 C505 1.561 . S
C508 C505 1.526 . S
C508 C509 1.396 . S
C508 C513 1.390 . S
C509 C503 1.465 . S
C509 C508 1.396 . S
C509 C510 1.399 . S
C510 H496 0.929 . S
C510 C509 1.399 . S
C510 C511 1.385 . S
C511 H497 0.931 . S
C511 C510 1.385 . S
C511 C512 1.389 . S
C512 C511 1.389 . S
C512 C513 1.387 . S
C513 H498 0.930 . S
C513 C508 1.390 . S
C513 C512 1.387 . S
H514 C526 0.930 . S
H515 C528 0.930 . S
H516 C529 0.930 . S
H517 C533 0.959 . S
H518 C533 0.959 . S
H519 C533 0.961 . S
H520 C534 0.960 . S
H521 C534 0.961 . S
H522 C534 0.959 . S
H523 C537 0.929 . S
H524 C538 0.931 . S
H525 C540 0.930 . S
C526 H514 0.930 . S
C526 C527 1.399 . S
C526 C531 1.399 . S
C527 C526 1.399 . S
C527 C528 1.376 . S
C528 H515 0.930 . S
C528 C527 1.376 . S
C528 C529 1.388 . S
C529 H516 0.930 . S
C529 C528 1.388 . S
C529 C530 1.390 . S
C530 C529 1.390 . S
C530 C531 1.394 . S
C530 C536 1.465 . S
C531 C526 1.399 . S
C531 C530 1.394 . S
C531 C532 1.516 . S
C532 C531 1.516 . S
C532 C533 1.502 . S
C532 C534 1.561 . S
C532 C535 1.526 . S
C533 H517 0.959 . S
C533 H518 0.959 . S
C533 H519 0.961 . S
C533 C532 1.502 . S
C534 H520 0.960 . S
C534 H521 0.961 . S
C534 H522 0.959 . S
C534 C532 1.561 . S
C535 C532 1.526 . S
C535 C536 1.396 . S
C535 C540 1.390 . S
C536 C530 1.465 . S
C536 C535 1.396 . S
C536 C537 1.399 . S
C537 H523 0.929 . S
C537 C536 1.399 . S
C537 C538 1.385 . S
C538 H524 0.931 . S
C538 C537 1.385 . S
C538 C539 1.389 . S
C539 C538 1.389 . S
C539 C540 1.387 . S
C540 H525 0.930 . S
C540 C535 1.390 . S
C540 C539 1.387 . S
H541 C553 0.930 . S
H542 C555 0.930 . S
H543 C556 0.930 . S
H544 C560 0.959 . S
H545 C560 0.959 . S
H546 C560 0.961 . S
H547 C561 0.960 . S
H548 C561 0.961 . S
H549 C561 0.959 . S
H550 C564 0.929 . S
H551 C565 0.931 . S
H552 C567 0.930 . S
C553 H541 0.930 . S
C553 C554 1.399 . S
C553 C558 1.399 . S
C554 C553 1.399 . S
C554 C555 1.376 . S
C555 H542 0.930 . S
C555 C554 1.376 . S
C555 C556 1.388 . S
C556 H543 0.930 . S
C556 C555 1.388 . S
C556 C557 1.390 . S
C557 C556 1.390 . S
C557 C558 1.394 . S
C557 C563 1.465 . S
C558 C553 1.399 . S
C558 C557 1.394 . S
C558 C559 1.516 . S
C559 C558 1.516 . S
C559 C560 1.502 . S
C559 C561 1.561 . S
C559 C562 1.526 . S
C560 H544 0.959 . S
C560 H545 0.959 . S
C560 H546 0.961 . S
C560 C559 1.502 . S
C561 H547 0.960 . S
C561 H548 0.961 . S
C561 H549 0.959 . S
C561 C559 1.561 . S
C562 C559 1.526 . S
C562 C563 1.396 . S
C562 C567 1.390 . S
C563 C557 1.465 . S
C563 C562 1.396 . S
C563 C564 1.399 . S
C564 H550 0.929 . S
C564 C563 1.399 . S
C564 C565 1.385 . S
C565 H551 0.931 . S
C565 C564 1.385 . S
C565 C566 1.389 . S
C566 C565 1.389 . S
C566 C567 1.387 . S
C567 H552 0.930 . S
C567 C562 1.390 . S
C567 C566 1.387 . S
C269 C139 1.708 . S
C257 C68 1.646 . S
C284 C11 1.531 . S
C296 C234 1.688 . S
C311 C30 1.624 . S
C323 C150 1.732 . S
C338 C49 1.603 . S
C350 C223 1.683 . S
C377 C134 1.555 . S
C365 C2 1.656 . S
C404 C227 1.771 . S
C392 C25 1.774 . S
C419 C40 1.675 . S
C431 C143 1.713 . S
C446 C59 1.650 . S
C458 C218 1.534 . S
C485 C229 1.485 . S
C473 C21 1.580 . S
C512 C145 1.467 . S
C500 C44 1.600 1_556 S
C539 C216 1.664 . S
C527 C63 1.667 . S
C554 C6 1.621 . S
C566 C132 1.633 . S
