# Generated by pormake.
# Topology apo, (3,6)-cn, num edge types: 1
# Building blocks:
#     Node 0, Type 0, BuildingBlock: BELTOD_clean_linker_0, # of connection points: 3
#     Node 1, Type 0, BuildingBlock: BELTOD_clean_linker_0, # of connection points: 3
#     Node 2, Type 0, BuildingBlock: BELTOD_clean_linker_0, # of connection points: 3
#     Node 3, Type 0, BuildingBlock: BELTOD_clean_linker_0, # of connection points: 3
#     Node 4, Type 0, BuildingBlock: BELTOD_clean_linker_0, # of connection points: 3
#     Node 5, Type 0, BuildingBlock: BELTOD_clean_linker_0, # of connection points: 3
#     Node 6, Type 0, BuildingBlock: BELTOD_clean_linker_0, # of connection points: 3
#     Node 7, Type 0, BuildingBlock: BELTOD_clean_linker_0, # of connection points: 3
#     Node 8, Type 1, BuildingBlock: KUMJIN_clean_sbu_1, # of connection points: 6
#     Node 9, Type 1, BuildingBlock: KUMJIN_clean_sbu_1, # of connection points: 6
#     Node 10, Type 1, BuildingBlock: KUMJIN_clean_sbu_1, # of connection points: 6
#     Node 11, Type 1, BuildingBlock: KUMJIN_clean_sbu_1, # of connection points: 6
#     Edge 12, Type (0, 1), BuildingBlock: ZUJKAS_clean_linker_0, # of connection points: 2
#     Edge 13, Type (0, 1), BuildingBlock: ZUJKAS_clean_linker_0, # of connection points: 2
#     Edge 14, Type (0, 1), BuildingBlock: ZUJKAS_clean_linker_0, # of connection points: 2
#     Edge 15, Type (0, 1), BuildingBlock: ZUJKAS_clean_linker_0, # of connection points: 2
#     Edge 16, Type (0, 1), BuildingBlock: ZUJKAS_clean_linker_0, # of connection points: 2
#     Edge 17, Type (0, 1), BuildingBlock: ZUJKAS_clean_linker_0, # of connection points: 2
#     Edge 18, Type (0, 1), BuildingBlock: ZUJKAS_clean_linker_0, # of connection points: 2
#     Edge 19, Type (0, 1), BuildingBlock: ZUJKAS_clean_linker_0, # of connection points: 2
#     Edge 20, Type (0, 1), BuildingBlock: ZUJKAS_clean_linker_0, # of connection points: 2
#     Edge 21, Type (0, 1), BuildingBlock: ZUJKAS_clean_linker_0, # of connection points: 2
#     Edge 22, Type (0, 1), BuildingBlock: ZUJKAS_clean_linker_0, # of connection points: 2
#     Edge 23, Type (0, 1), BuildingBlock: ZUJKAS_clean_linker_0, # of connection points: 2
#     Edge 24, Type (0, 1), BuildingBlock: ZUJKAS_clean_linker_0, # of connection points: 2
#     Edge 25, Type (0, 1), BuildingBlock: ZUJKAS_clean_linker_0, # of connection points: 2
#     Edge 26, Type (0, 1), BuildingBlock: ZUJKAS_clean_linker_0, # of connection points: 2
#     Edge 27, Type (0, 1), BuildingBlock: ZUJKAS_clean_linker_0, # of connection points: 2
#     Edge 28, Type (0, 1), BuildingBlock: ZUJKAS_clean_linker_0, # of connection points: 2
#     Edge 29, Type (0, 1), BuildingBlock: ZUJKAS_clean_linker_0, # of connection points: 2
#     Edge 30, Type (0, 1), BuildingBlock: ZUJKAS_clean_linker_0, # of connection points: 2
#     Edge 31, Type (0, 1), BuildingBlock: ZUJKAS_clean_linker_0, # of connection points: 2
#     Edge 32, Type (0, 1), BuildingBlock: ZUJKAS_clean_linker_0, # of connection points: 2
#     Edge 33, Type (0, 1), BuildingBlock: ZUJKAS_clean_linker_0, # of connection points: 2
#     Edge 34, Type (0, 1), BuildingBlock: ZUJKAS_clean_linker_0, # of connection points: 2
#     Edge 35, Type (0, 1), BuildingBlock: ZUJKAS_clean_linker_0, # of connection points: 2
# Relax obj value: 0.010
# Max RMSD: 0.098
# Mean RMSD: 0.073
data_MOF--net-apo--node1-KUMJIN_clean_sbu_1--node2-BELTOD_clean_linker_0--edge1-ZUJKAS_clean_linker_0
_symmetry_space_group_name_H-M    P1
_symmetry_Int_Tables_number       1
_symmetry_cell_setting            triclinic
loop_
_symmetry_equiv_pos_as_xyz
'x, y, z'
_cell_length_a     34.424292
_cell_length_b     61.424707
_cell_length_c     73.506431
_cell_angle_alpha  89.732589
_cell_angle_beta   89.934378
_cell_angle_gamma 90.07835
loop_
_atom_site_label
_atom_site_type_symbol
_atom_site_fract_x
_atom_site_fract_y
_atom_site_fract_z
_atom_type_partial_charge
P0 P 0.34828 0.35389 0.40962 0.0
H1 H 0.32456 0.32186 0.43678 0.0
H2 H 0.31881 0.32338 0.46992 0.0
H3 H 0.34508 0.39217 0.4683 0.0
H4 H 0.35019 0.39058 0.43521 0.0
H5 H 0.35828 0.32373 0.37961 0.0
H6 H 0.31342 0.30045 0.36289 0.0
H7 H 0.21858 0.3233 0.39626 0.0
H8 H 0.26393 0.34674 0.41296 0.0
H9 H 0.41302 0.38264 0.40054 0.0
H10 H 0.28839 0.38307 0.3948 0.0
O11 O 0.3921 0.3424 0.4083 0.0
H12 H 0.41711 0.41745 0.38461 0.0
H13 H 0.29213 0.41825 0.37904 0.0
C14 C 0.33708 0.35615 0.43348 0.0
C15 C 0.32818 0.33736 0.44354 0.0
C16 C 0.32532 0.33822 0.4625 0.0
C17 C 0.33166 0.35788 0.47179 0.0
C18 C 0.33953 0.37683 0.46158 0.0
C19 C 0.34247 0.37593 0.44261 0.0
C20 C 0.31455 0.33658 0.39777 0.0
C21 C 0.32791 0.3236 0.38346 0.0
C22 C 0.30222 0.31026 0.37393 0.0
C23 C 0.2625 0.30984 0.37837 0.0
C24 C 0.24901 0.32328 0.39249 0.0
C25 C 0.27488 0.33656 0.40212 0.0
C26 C 0.35048 0.38006 0.39852 0.0
C27 C 0.38648 0.39026 0.39587 0.0
C28 C 0.38874 0.4103 0.38689 0.0
C29 C 0.35494 0.42065 0.38048 0.0
C30 C 0.31875 0.41057 0.38355 0.0
C31 C 0.31655 0.39049 0.39259 0.0
P32 P 0.27596 0.10317 0.91921 0.0
H33 H 0.30552 0.07185 0.8931 0.0
H34 H 0.27392 0.04603 0.87271 0.0
H35 H 0.16161 0.06814 0.89135 0.0
H36 H 0.1936 0.09432 0.91142 0.0
H37 H 0.34713 0.12898 0.91719 0.0
H38 H 0.36606 0.16041 0.8988 0.0
H39 H 0.25084 0.16275 0.87561 0.0
H40 H 0.23192 0.13128 0.89431 0.0
H41 H 0.23726 0.0739 0.94436 0.0
H42 H 0.2534 0.14321 0.93872 0.0
O43 O 0.31695 0.09131 0.92619 0.0
H44 H 0.20515 0.07929 0.97354 0.0
H45 H 0.2203 0.14888 0.96781 0.0
C46 C 0.2519 0.08457 0.90408 0.0
C47 C 0.2741 0.07108 0.89283 0.0
C48 C 0.25597 0.05627 0.88122 0.0
C49 C 0.21521 0.0548 0.88055 0.0
C50 C 0.19304 0.06889 0.89147 0.0
C51 C 0.21127 0.08373 0.90308 0.0
C52 C 0.28833 0.12759 0.90686 0.0
C53 C 0.32586 0.13627 0.90821 0.0
C54 C 0.33671 0.1542 0.89761 0.0
C55 C 0.31013 0.16388 0.88554 0.0
C56 C 0.27197 0.15567 0.88479 0.0
C57 C 0.26117 0.13765 0.89539 0.0
C58 C 0.24726 0.10813 0.93927 0.0
C59 C 0.23305 0.09034 0.94923 0.0
C60 C 0.2145 0.09349 0.96591 0.0
C61 C 0.20992 0.11456 0.97305 0.0
C62 C 0.22358 0.13243 0.9628 0.0
C63 C 0.24225 0.12923 0.94608 0.0
P64 P 0.84856 0.14274 0.59405 0.0
H65 H 0.84361 0.17751 0.5672 0.0
H66 H 0.84296 0.17768 0.53398 0.0
H67 H 0.8397 0.10731 0.53419 0.0
H68 H 0.83875 0.10736 0.56734 0.0
H69 H 0.84375 0.15417 0.63204 0.0
H70 H 0.79894 0.17642 0.64966 0.0
H71 H 0.73137 0.18857 0.60112 0.0
H72 H 0.77556 0.16542 0.58376 0.0
H73 H 0.9114 0.11115 0.59521 0.0
H74 H 0.79212 0.11447 0.61293 0.0
O75 O 0.89147 0.15469 0.59748 0.0
H76 H 0.9181 0.0755 0.60974 0.0
H77 H 0.79852 0.0787 0.62748 0.0
C78 C 0.84103 0.14248 0.56978 0.0
C79 C 0.84187 0.16215 0.56007 0.0
C80 C 0.84197 0.16219 0.54106 0.0
C81 C 0.84181 0.14248 0.53134 0.0
C82 C 0.83951 0.12279 0.54117 0.0
C83 C 0.83913 0.1228 0.56021 0.0
C84 C 0.8133 0.15836 0.60657 0.0
C85 C 0.81914 0.16154 0.62522 0.0
C86 C 0.79362 0.17443 0.63525 0.0
C87 C 0.76176 0.18461 0.62679 0.0
C88 C 0.75544 0.18092 0.60812 0.0
C89 C 0.78094 0.16782 0.5981 0.0
C90 C 0.8516 0.11564 0.60338 0.0
C91 C 0.88658 0.10412 0.60215 0.0
C92 C 0.89026 0.08366 0.61033 0.0
C93 C 0.85891 0.07434 0.61989 0.0
C94 C 0.82336 0.0856 0.62046 0.0
C95 C 0.81966 0.10603 0.61214 0.0
P96 P 0.77058 0.39775 0.08675 0.0
H97 H 0.79025 0.41519 0.12204 0.0
H98 H 0.75623 0.43883 0.14333 0.0
H99 H 0.6562 0.43928 0.10781 0.0
H100 H 0.68987 0.41482 0.08701 0.0
H101 H 0.84445 0.37447 0.08577 0.0
H102 H 0.86802 0.34185 0.10131 0.0
H103 H 0.75579 0.3336 0.12684 0.0
H104 H 0.73227 0.36629 0.11103 0.0
H105 H 0.73764 0.42677 0.05949 0.0
H106 H 0.75007 0.35746 0.06711 0.0
O107 O 0.80972 0.41258 0.08152 0.0
H108 H 0.71054 0.42066 0.02919 0.0
H109 H 0.72314 0.35126 0.03681 0.0
C110 C 0.74287 0.41347 0.10283 0.0
C111 C 0.76083 0.42022 0.11894 0.0
C112 C 0.74142 0.4339 0.13103 0.0
C113 C 0.70361 0.44129 0.1272 0.0
C114 C 0.68519 0.43386 0.11128 0.0
C115 C 0.70461 0.42 0.09924 0.0
C116 C 0.78687 0.37301 0.09755 0.0
C117 C 0.8249 0.36567 0.09472 0.0
C118 C 0.83839 0.34704 0.10366 0.0
C119 C 0.81393 0.33527 0.11548 0.0
C120 C 0.77532 0.34227 0.11778 0.0
C121 C 0.7619 0.361 0.10886 0.0
C122 C 0.74551 0.39261 0.06566 0.0
C123 C 0.73384 0.41022 0.05478 0.0
C124 C 0.7183 0.4067 0.03747 0.0
C125 C 0.71473 0.38547 0.03059 0.0
C126 C 0.7258 0.36781 0.04168 0.0
C127 C 0.741 0.37135 0.05908 0.0
P128 P 0.77784 0.60498 0.58554 0.0
H129 H 0.80491 0.63091 0.55503 0.0
H130 H 0.77756 0.63916 0.52514 0.0
H131 H 0.67322 0.60385 0.53957 0.0
H132 H 0.701 0.5955 0.56942 0.0
H133 H 0.82478 0.60945 0.61796 0.0
H134 H 0.84242 0.64044 0.6369 0.0
H135 H 0.77351 0.68268 0.60257 0.0
H136 H 0.75485 0.65138 0.58411 0.0
H137 H 0.76937 0.55796 0.5829 0.0
H138 H 0.72284 0.60954 0.61596 0.0
O139 O 0.81991 0.59306 0.58034 0.0
H140 H 0.73388 0.53109 0.60107 0.0
H141 H 0.68804 0.58275 0.63455 0.0
C142 C 0.7551 0.61256 0.5644 0.0
C143 C 0.77599 0.62514 0.55181 0.0
C144 C 0.7602 0.62993 0.53476 0.0
C145 C 0.72319 0.62214 0.52995 0.0
C146 C 0.70196 0.60989 0.54279 0.0
C147 C 0.71777 0.60518 0.5599 0.0
C148 C 0.78912 0.62818 0.59947 0.0
C149 C 0.81344 0.6254 0.61455 0.0
C150 C 0.82367 0.64318 0.6253 0.0
C151 C 0.80983 0.66416 0.62114 0.0
C152 C 0.78456 0.66676 0.60623 0.0
C153 C 0.77415 0.64888 0.59554 0.0
C154 C 0.74937 0.58564 0.59834 0.0
C155 C 0.75158 0.56347 0.59412 0.0
C156 C 0.73143 0.54813 0.60459 0.0
C157 C 0.70854 0.55472 0.61945 0.0
C158 C 0.70528 0.5771 0.62318 0.0
C159 C 0.72541 0.59244 0.61265 0.0
P160 P 0.82747 0.86012 0.09669 0.0
H161 H 0.83447 0.87082 0.13493 0.0
H162 H 0.83944 0.90526 0.15135 0.0
H163 H 0.82647 0.94052 0.10076 0.0
H164 H 0.8208 0.90602 0.08442 0.0
H165 H 0.81211 0.81397 0.09199 0.0
H166 H 0.76383 0.78925 0.10507 0.0
H167 H 0.70885 0.84366 0.13187 0.0
H168 H 0.75606 0.86829 0.11801 0.0
H169 H 0.88559 0.87822 0.07238 0.0
H170 H 0.77192 0.84928 0.06736 0.0
O171 O 0.86859 0.84751 0.10245 0.0
H172 H 0.89009 0.88143 0.03928 0.0
H173 H 0.7763 0.85236 0.03417 0.0
C174 C 0.82753 0.88582 0.10846 0.0
C175 C 0.83224 0.88597 0.1274 0.0
C176 C 0.8349 0.90565 0.13677 0.0
C177 C 0.83342 0.92557 0.12732 0.0
C178 C 0.82802 0.92539 0.10836 0.0
C179 C 0.82479 0.90566 0.09901 0.0
C180 C 0.78815 0.84288 0.10429 0.0
C181 C 0.78927 0.82058 0.10047 0.0
C182 C 0.7618 0.80645 0.10809 0.0
C183 C 0.73277 0.81435 0.11984 0.0
C184 C 0.73061 0.83695 0.12285 0.0
C185 C 0.75793 0.85109 0.11506 0.0
C186 C 0.82855 0.86345 0.07232 0.0
C187 C 0.86151 0.87266 0.06413 0.0
C188 C 0.86397 0.87457 0.04522 0.0
C189 C 0.83358 0.86711 0.0341 0.0
C190 C 0.80036 0.85804 0.04238 0.0
C191 C 0.79777 0.85635 0.06135 0.0
P192 P 0.26499 0.89537 0.42223 0.0
H193 H 0.29857 0.87914 0.45588 0.0
H194 H 0.27138 0.87119 0.48585 0.0
H195 H 0.15639 0.88555 0.46552 0.0
H196 H 0.18413 0.89389 0.43558 0.0
H197 H 0.31846 0.89072 0.39204 0.0
H198 H 0.337 0.86005 0.37292 0.0
H199 H 0.25678 0.81866 0.40232 0.0
H200 H 0.23867 0.84953 0.4216 0.0
H201 H 0.23851 0.93903 0.43072 0.0
H202 H 0.22431 0.89329 0.38689 0.0
O203 O 0.30616 0.90855 0.42696 0.0
H204 H 0.20175 0.96625 0.41354 0.0
H205 H 0.1887 0.92055 0.3694 0.0
C206 C 0.24348 0.88747 0.44363 0.0
C207 C 0.26748 0.88047 0.45786 0.0
C208 C 0.2518 0.87579 0.47498 0.0
C209 C 0.21165 0.87785 0.47818 0.0
C210 C 0.18749 0.88416 0.46363 0.0
C211 C 0.20328 0.88884 0.44647 0.0
C212 C 0.27769 0.87231 0.40839 0.0
C213 C 0.30496 0.87502 0.39441 0.0
C214 C 0.31528 0.8575 0.38338 0.0
C215 C 0.29838 0.83687 0.38607 0.0
C216 C 0.27068 0.83426 0.40004 0.0
C217 C 0.26024 0.8519 0.41104 0.0
C218 C 0.23448 0.91425 0.41003 0.0
C219 C 0.22735 0.93484 0.41741 0.0
C220 C 0.20657 0.95043 0.40751 0.0
C221 C 0.19259 0.9457 0.38998 0.0
C222 C 0.19874 0.92472 0.3829 0.0
C223 C 0.21942 0.90912 0.39286 0.0
P224 P 0.34352 0.64385 0.90711 0.0
H225 H 0.3816 0.63345 0.873 0.0
H226 H 0.38795 0.59996 0.85554 0.0
H227 H 0.3172 0.56605 0.89518 0.0
H228 H 0.31106 0.5998 0.91267 0.0
H229 H 0.33417 0.69084 0.90415 0.0
H230 H 0.28414 0.71386 0.89055 0.0
H231 H 0.21724 0.65656 0.87714 0.0
H232 H 0.26774 0.63359 0.89069 0.0
H233 H 0.37791 0.61189 0.93178 0.0
H234 H 0.30062 0.66685 0.93573 0.0
O235 O 0.38525 0.65728 0.90417 0.0
H236 H 0.37881 0.60864 0.96488 0.0
H237 H 0.30269 0.66436 0.96878 0.0
C238 C 0.3468 0.61894 0.89437 0.0
C239 C 0.36754 0.6188 0.87797 0.0
C240 C 0.37085 0.59967 0.86791 0.0
C241 C 0.35323 0.5803 0.87402 0.0
C242 C 0.33159 0.58063 0.89027 0.0
C243 C 0.32809 0.59988 0.90028 0.0
C244 C 0.30502 0.66052 0.89809 0.0
C245 C 0.3087 0.68323 0.89831 0.0
C246 C 0.2799 0.69638 0.89066 0.0
C247 C 0.24678 0.68703 0.88266 0.0
C248 C 0.24268 0.66423 0.88295 0.0
C249 C 0.27147 0.65109 0.89072 0.0
C250 C 0.33847 0.63927 0.93122 0.0
C251 C 0.36049 0.623 0.93975 0.0
C252 C 0.3614 0.62135 0.95872 0.0
C253 C 0.34096 0.6363 0.96958 0.0
C254 C 0.31825 0.65232 0.96092 0.0
C255 C 0.31713 0.65382 0.94194 0.0
Eu256 Eu 0.04817 0.13254 0.23407 0.0
C257 C 0.87005 0.12322 0.25155 0.0
N258 N 0.89157 0.14168 0.24971 0.0
C259 C 0.84191 0.15797 0.23138 0.0
C260 C 0.83361 0.12132 0.24294 0.0
C261 C 0.87794 0.15907 0.24007 0.0
C262 C 0.81969 0.13898 0.23276 0.0
C263 C 0.86382 0.08634 0.26323 0.0
C264 C 0.88527 0.10584 0.26149 0.0
C265 C 0.82759 0.08439 0.25461 0.0
C266 C 0.81254 0.10182 0.24451 0.0
Eu267 Eu 0.95178 0.14218 0.26489 0.0
N268 N 0.92086 0.108 0.26944 0.0
C269 C 0.87917 0.06942 0.27378 0.0
C270 C 0.93453 0.09207 0.28074 0.0
C271 C 0.91439 0.07243 0.28278 0.0
H272 H 0.89458 0.17393 0.23937 0.0
H273 H 0.92576 0.05977 0.29156 0.0
H274 H 0.11074 0.10677 0.26128 0.0
H275 H 0.06153 0.2126 0.20092 0.0
H276 H 0.96019 0.09449 0.28875 0.0
H277 H 0.86356 0.05421 0.27547 0.0
H278 H 0.03525 0.17583 0.20522 0.0
H279 H 0.83124 0.17178 0.22368 0.0
H280 H 0.81087 0.06949 0.25576 0.0
H281 H 0.78457 0.10003 0.23793 0.0
H282 H 0.17259 0.11434 0.27725 0.0
H283 H 0.79185 0.13814 0.22594 0.0
H284 H 0.11853 0.22457 0.2187 0.0
N285 N 0.10753 0.13822 0.24929 0.0
C286 C 0.12466 0.158 0.24694 0.0
C287 C 0.15937 0.12676 0.26881 0.0
C288 C 0.15964 0.1631 0.25594 0.0
C289 C 0.12444 0.12251 0.2598 0.0
C290 C 0.17695 0.14717 0.26695 0.0
N291 N 0.07276 0.16788 0.22731 0.0
C292 C 0.05817 0.18121 0.21406 0.0
C293 C 0.12356 0.19403 0.23333 0.0
C294 C 0.1064 0.17336 0.23594 0.0
C295 C 0.10622 0.20857 0.22111 0.0
C296 C 0.07389 0.20193 0.21114 0.0
H297 H 0.20383 0.15048 0.27409 0.0
H298 H 0.20264 0.1882 0.26076 0.0
H299 H 0.17128 0.21521 0.24085 0.0
O300 O 0.05956 0.12825 0.20462 0.0
O301 O 0.05477 0.14849 0.26177 0.0
O302 O 0.99871 0.16813 0.26407 0.0
O303 O 0.09058 0.10885 0.22486 0.0
O304 O 0.99619 0.14969 0.22107 0.0
O305 O 0.96981 0.16858 0.24508 0.0
O306 O 0.94166 0.14422 0.2946 0.0
O307 O 0.94425 0.1238 0.23814 0.0
O308 O 0.00251 0.10617 0.23566 0.0
O309 O 0.91177 0.16615 0.27576 0.0
O310 O 0.00162 0.12318 0.27802 0.0
O311 O 0.03296 0.10583 0.2542 0.0
C312 C 0.0352 0.16495 0.26835 0.0
C313 C 0.10666 0.10124 0.19348 0.0
C314 C 0.12385 0.09524 0.16163 0.0
C315 C 0.14476 0.0766 0.16681 0.0
C316 C 0.12808 0.08262 0.1983 0.0
C317 C 0.147 0.07043 0.18504 0.0
C318 C 0.10497 0.10768 0.17505 0.0
C319 C 0.97485 0.16572 0.22754 0.0
C320 C 0.08511 0.11307 0.20775 0.0
C321 C 0.17596 0.18391 0.25384 0.0
C322 C 0.15798 0.19933 0.24257 0.0
C323 C 0.96565 0.108 0.23156 0.0
C324 C 0.89687 0.17125 0.30765 0.0
C325 C 0.88028 0.1746 0.33987 0.0
C326 C 0.85962 0.19375 0.33587 0.0
C327 C 0.87586 0.1904 0.30404 0.0
C328 C 0.89876 0.16328 0.32564 0.0
C329 C 0.85737 0.20152 0.31807 0.0
C330 C 0.02471 0.10782 0.27163 0.0
C331 C 0.91715 0.16021 0.29255 0.0
H332 H 0.15975 0.06689 0.15674 0.0
H333 H 0.12986 0.07724 0.21233 0.0
H334 H 0.1633 0.05608 0.1889 0.0
H335 H 0.08852 0.12197 0.17111 0.0
H336 H 0.84479 0.20262 0.34652 0.0
H337 H 0.87389 0.19694 0.29036 0.0
H338 H 0.91496 0.14857 0.32862 0.0
H339 H 0.8413 0.21626 0.31514 0.0
Eu340 Eu 0.45167 0.36157 0.73723 0.0
C341 C 0.62679 0.38217 0.75206 0.0
N342 N 0.6089 0.36252 0.75386 0.0
C343 C 0.66195 0.34499 0.73877 0.0
C344 C 0.66294 0.38399 0.74313 0.0
C345 C 0.62615 0.344 0.74773 0.0
C346 C 0.68034 0.36509 0.73636 0.0
C347 C 0.62646 0.42114 0.75732 0.0
C348 C 0.60856 0.40054 0.759 0.0
C349 C 0.66231 0.42303 0.74831 0.0
C350 C 0.68045 0.40452 0.7412 0.0
Eu351 Eu 0.54808 0.36232 0.76865 0.0
N352 N 0.5735 0.39827 0.76743 0.0
C353 C 0.60805 0.4392 0.76498 0.0
C354 C 0.55701 0.41558 0.77604 0.0
C355 C 0.57348 0.43633 0.77462 0.0
H356 H 0.61257 0.32841 0.75004 0.0
H357 H 0.55982 0.45005 0.78124 0.0
H358 H 0.38652 0.39306 0.75807 0.0
H359 H 0.44695 0.27392 0.72301 0.0
H360 H 0.5319 0.41349 0.78453 0.0
H361 H 0.62083 0.45529 0.76396 0.0
H362 H 0.47128 0.31127 0.71987 0.0
H363 H 0.67542 0.33025 0.73381 0.0
H364 H 0.67641 0.43872 0.74689 0.0
H365 H 0.70814 0.40626 0.73432 0.0
H366 H 0.32427 0.38902 0.77459 0.0
H367 H 0.70808 0.36581 0.72941 0.0
H368 H 0.3878 0.26653 0.74113 0.0
N369 N 0.39187 0.35928 0.7527 0.0
C370 C 0.37571 0.33913 0.75417 0.0
C371 C 0.33851 0.37486 0.76897 0.0
C372 C 0.3403 0.33606 0.7635 0.0
C373 C 0.37381 0.3771 0.75972 0.0
C374 C 0.32174 0.35425 0.77093 0.0
N375 N 0.42967 0.3249 0.73795 0.0
C376 C 0.44704 0.3083 0.72875 0.0
C377 C 0.37944 0.30033 0.74835 0.0
C378 C 0.3953 0.32145 0.74675 0.0
C379 C 0.399 0.283 0.74018 0.0
C380 C 0.43256 0.28707 0.73007 0.0
H381 H 0.2945 0.35256 0.7782 0.0
H382 H 0.29781 0.31231 0.77257 0.0
H383 H 0.33197 0.28106 0.75927 0.0
O384 O 0.44414 0.35713 0.7079 0.0
O385 O 0.4482 0.34944 0.76649 0.0
O386 O 0.50736 0.33347 0.77112 0.0
O387 O 0.40695 0.37942 0.72231 0.0
O388 O 0.50632 0.34475 0.72674 0.0
O389 O 0.53795 0.33171 0.75227 0.0
O390 O 0.55476 0.36774 0.79795 0.0
O391 O 0.55192 0.376 0.73982 0.0
O392 O 0.49168 0.39068 0.73443 0.0
O393 O 0.59041 0.34386 0.78448 0.0
O394 O 0.49422 0.38037 0.77881 0.0
O395 O 0.46112 0.39247 0.75323 0.0
C396 C 0.46986 0.33445 0.7741 0.0
C397 C 0.38023 0.36138 0.69679 0.0
C398 C 0.3482 0.35444 0.66768 0.0
C399 C 0.31643 0.34546 0.67719 0.0
C400 C 0.34821 0.35235 0.70594 0.0
C401 C 0.31656 0.34442 0.69617 0.0
C402 C 0.38013 0.36237 0.67768 0.0
C403 C 0.53094 0.33128 0.73467 0.0
C404 C 0.41395 0.36981 0.70691 0.0
C405 C 0.32485 0.315 0.76534 0.0
C406 C 0.34438 0.2972 0.75781 0.0
C407 C 0.52945 0.39052 0.73201 0.0
C408 C 0.6181 0.36217 0.80958 0.0
C409 C 0.65085 0.36877 0.83854 0.0
C410 C 0.68406 0.37564 0.82893 0.0
C411 C 0.65162 0.36909 0.80031 0.0
C412 C 0.61772 0.36222 0.82873 0.0
C413 C 0.6843 0.37586 0.80995 0.0
C414 C 0.46987 0.39384 0.77064 0.0
C415 C 0.58382 0.35431 0.79952 0.0
H416 H 0.29115 0.33953 0.66998 0.0
H417 H 0.34748 0.35153 0.72062 0.0
H418 H 0.2919 0.33755 0.70333 0.0
H419 H 0.4051 0.36912 0.67063 0.0
H420 H 0.70978 0.38099 0.83612 0.0
H421 H 0.65281 0.36905 0.78563 0.0
H422 H 0.59203 0.35669 0.83595 0.0
H423 H 0.71001 0.38118 0.80269 0.0
Eu424 Eu 0.0424 0.85894 0.73805 0.0
C425 C 0.86859 0.84129 0.75432 0.0
N426 N 0.88589 0.86108 0.75235 0.0
C427 C 0.83451 0.8731 0.73281 0.0
C428 C 0.83367 0.8365 0.74515 0.0
C429 C 0.8693 0.87705 0.74202 0.0
C430 C 0.81668 0.85272 0.73432 0.0
C431 C 0.8693 0.80487 0.76723 0.0
C432 C 0.88663 0.82558 0.76509 0.0
C433 C 0.83486 0.79994 0.75788 0.0
C434 C 0.8171 0.81571 0.74687 0.0
Eu435 Eu 0.94442 0.86641 0.7683 0.0
N436 N 0.92027 0.8307 0.7739 0.0
C437 C 0.88653 0.78988 0.7791 0.0
C438 C 0.93486 0.81683 0.78676 0.0
C439 C 0.91899 0.79606 0.78917 0.0
H440 H 0.88301 0.89282 0.74092 0.0
H441 H 0.93131 0.785 0.79911 0.0
H442 H 0.10111 0.82768 0.76313 0.0
H443 H 0.06367 0.94281 0.71369 0.0
H444 H 0.95786 0.82179 0.79573 0.0
H445 H 0.87409 0.77384 0.78113 0.0
H446 H 0.03317 0.90676 0.71449 0.0
H447 H 0.82151 0.88575 0.72453 0.0
H448 H 0.8214 0.78406 0.75927 0.0
H449 H 0.79043 0.81168 0.73983 0.0
H450 H 0.16248 0.83107 0.78036 0.0
H451 H 0.78986 0.84966 0.72706 0.0
H452 H 0.12264 0.9499 0.7319 0.0
N453 N 0.10177 0.86046 0.75396 0.0
C454 C 0.12137 0.87969 0.75333 0.0
C455 C 0.15114 0.84489 0.7729 0.0
C456 C 0.15645 0.88238 0.76296 0.0
C457 C 0.11628 0.84305 0.76328 0.0
C458 C 0.17123 0.86467 0.77281 0.0
N459 N 0.07106 0.89398 0.73471 0.0
C460 C 0.05726 0.90982 0.72336 0.0
C461 C 0.12464 0.91727 0.74312 0.0
C462 C 0.10534 0.89698 0.74364 0.0
C463 C 0.10871 0.93409 0.73266 0.0
C464 C 0.07527 0.93021 0.72247 0.0
H465 H 0.19809 0.8661 0.78039 0.0
H466 H 0.20211 0.90509 0.77011 0.0
H467 H 0.17438 0.93559 0.75269 0.0
O468 O 0.05295 0.85764 0.70834 0.0
O469 O 0.04722 0.8754 0.7656 0.0
O470 O 0.98931 0.89348 0.76869 0.0
O471 O 0.08417 0.83606 0.72696 0.0
O472 O 0.99205 0.87769 0.7251 0.0
O473 O 0.95982 0.89399 0.74914 0.0
O474 O 0.93107 0.86893 0.79767 0.0
O475 O 0.93931 0.85083 0.74028 0.0
O476 O 0.99673 0.83249 0.73852 0.0
O477 O 0.90059 0.88918 0.77782 0.0
O478 O 0.99626 0.84916 0.7813 0.0
O479 O 0.02515 0.83155 0.75715 0.0
C480 C 0.02668 0.8917 0.77184 0.0
C481 C 0.09941 0.8317 0.69501 0.0
C482 C 0.11669 0.82934 0.66277 0.0
C483 C 0.1379 0.8103 0.66655 0.0
C484 C 0.12094 0.81267 0.69836 0.0
C485 C 0.14003 0.8021 0.68422 0.0
C486 C 0.09755 0.84009 0.67714 0.0
C487 C 0.9685 0.89267 0.73173 0.0
C488 C 0.07837 0.84208 0.71023 0.0
C489 C 0.17527 0.90267 0.7627 0.0
C490 C 0.15939 0.92006 0.75283 0.0
C491 C 0.96053 0.83508 0.73357 0.0
C492 C 0.88197 0.89441 0.80933 0.0
C493 C 0.86469 0.899 0.84137 0.0
C494 C 0.83976 0.91613 0.83644 0.0
C495 C 0.85667 0.91153 0.80479 0.0
C496 C 0.88561 0.88802 0.8277 0.0
C497 C 0.83572 0.92226 0.81827 0.0
C498 C 0.01874 0.83369 0.77471 0.0
C499 C 0.905 0.88391 0.79482 0.0
H500 H 0.15338 0.80188 0.65585 0.0
H501 H 0.12284 0.8058 0.71193 0.0
H502 H 0.15653 0.78746 0.68696 0.0
H503 H 0.08094 0.85471 0.67437 0.0
H504 H 0.82304 0.92467 0.84666 0.0
H505 H 0.85322 0.9168 0.7908 0.0
H506 H 0.90513 0.87491 0.83141 0.0
H507 H 0.81635 0.93544 0.81462 0.0
Eu508 Eu 0.44361 0.63822 0.23921 0.0
C509 C 0.60777 0.66848 0.25611 0.0
N510 N 0.59571 0.6474 0.25574 0.0
C511 C 0.65167 0.63738 0.23832 0.0
C512 C 0.64246 0.67484 0.24736 0.0
C513 C 0.61721 0.63179 0.24727 0.0
C514 C 0.66431 0.65901 0.23831 0.0
C515 C 0.59788 0.70552 0.26642 0.0
C516 C 0.58539 0.68366 0.26541 0.0
C517 C 0.63211 0.71198 0.25748 0.0
C518 C 0.65439 0.69667 0.24803 0.0
Eu519 Eu 0.5379 0.63928 0.27154 0.0
N520 N 0.55265 0.67688 0.27422 0.0
C521 C 0.57647 0.72008 0.27701 0.0
C522 C 0.53439 0.6905 0.28609 0.0
C523 C 0.54504 0.71242 0.28719 0.0
H524 H 0.6077 0.61504 0.24746 0.0
H525 H 0.52971 0.72323 0.2963 0.0
H526 H 0.38388 0.67908 0.25073 0.0
H527 H 0.41688 0.55046 0.23699 0.0
H528 H 0.51267 0.68444 0.29534 0.0
H529 H 0.5851 0.73699 0.27813 0.0
H530 H 0.45452 0.58416 0.23245 0.0
H531 H 0.66855 0.625 0.23149 0.0
H532 H 0.64205 0.7287 0.2581 0.0
H533 H 0.68108 0.70183 0.24148 0.0
H534 H 0.31773 0.68379 0.26319 0.0
H535 H 0.69108 0.66328 0.23139 0.0
H536 H 0.34999 0.55221 0.24919 0.0
N537 N 0.38035 0.64458 0.25023 0.0
C538 C 0.35772 0.62666 0.25278 0.0
C539 C 0.32871 0.66763 0.26044 0.0
C540 C 0.31958 0.62859 0.25961 0.0
C541 C 0.36631 0.66492 0.25362 0.0
C542 C 0.30529 0.64939 0.26353 0.0
N543 N 0.41011 0.60482 0.24261 0.0
C544 C 0.42563 0.58519 0.23796 0.0
C545 C 0.35012 0.58736 0.25134 0.0
C546 C 0.37279 0.60625 0.24865 0.0
C547 C 0.3664 0.5671 0.24723 0.0
C548 C 0.40422 0.56603 0.2404 0.0
H549 H 0.27615 0.65155 0.2688 0.0
H550 H 0.26765 0.61098 0.26759 0.0
H551 H 0.29441 0.57492 0.26042 0.0
O552 O 0.44979 0.6322 0.21004 0.0
O553 O 0.43858 0.62027 0.26637 0.0
O554 O 0.50043 0.60927 0.27443 0.0
O555 O 0.40165 0.65137 0.21986 0.0
O556 O 0.49545 0.61777 0.23023 0.0
O557 O 0.53423 0.60837 0.25501 0.0
O558 O 0.54702 0.64154 0.30094 0.0
O559 O 0.54117 0.65071 0.24203 0.0
O560 O 0.48305 0.66772 0.23832 0.0
O561 O 0.58592 0.62218 0.28476 0.0
O562 O 0.48028 0.65301 0.28193 0.0
O563 O 0.45348 0.66816 0.25627 0.0
C564 C 0.46249 0.60732 0.27519 0.0
C565 C 0.4266 0.66022 0.19094 0.0
C566 C 0.42335 0.66979 0.15867 0.0
C567 C 0.43827 0.69054 0.16285 0.0
C568 C 0.44114 0.68101 0.1948 0.0
C569 C 0.44718 0.69603 0.18079 0.0
C570 C 0.41787 0.65464 0.17291 0.0
C571 C 0.52222 0.60558 0.23814 0.0
C572 C 0.42015 0.64431 0.20563 0.0
C573 C 0.29697 0.6098 0.26232 0.0
C574 C 0.31219 0.58926 0.2582 0.0
C575 C 0.52017 0.66619 0.23467 0.0
C576 C 0.61221 0.63979 0.31059 0.0
C577 C 0.64444 0.64782 0.33941 0.0
C578 C 0.67421 0.6585 0.32972 0.0
C579 C 0.64241 0.65039 0.30122 0.0
C580 C 0.61341 0.6385 0.32968 0.0
C581 C 0.67312 0.65974 0.31077 0.0
C582 C 0.45701 0.6672 0.27404 0.0
C583 C 0.57902 0.63032 0.30074 0.0
H584 H 0.44236 0.70272 0.15232 0.0
H585 H 0.44744 0.68565 0.20866 0.0
H586 H 0.45839 0.71207 0.18386 0.0
H587 H 0.40699 0.63845 0.17001 0.0
H588 H 0.69875 0.66558 0.33677 0.0
H589 H 0.64244 0.65138 0.28656 0.0
H590 H 0.58996 0.63045 0.33692 0.0
H591 H 0.69631 0.66786 0.30344 0.0
H592 H 0.12956 0.94137 0.36737 0.0
H593 H 0.10046 0.96923 0.34776 0.0
H594 H 0.18152 0.01675 0.36819 0.0
H595 H 0.21175 0.9889 0.38726 0.0
H596 H 0.06553 0.00868 0.35604 0.0
H597 H 0.19665 0.02133 0.3133 0.0
H598 H 0.19162 0.99851 0.32868 0.0
H599 H 0.20517 0.02485 0.3372 0.0
C600 C 0.14142 0.95771 0.36758 0.0
C601 C 0.17319 0.96283 0.37883 0.0
C602 C 0.12456 0.97364 0.35647 0.0
C603 C 0.13922 0.99498 0.3563 0.0
C604 C 0.1702 1.0003 0.36785 0.0
H605 H 0.0265 0.10928 0.30892 0.0
H606 H 0.05356 0.08209 0.32979 0.0
C607 C 0.18713 0.98439 0.37893 0.0
C608 C 0.12229 0.01163 0.34396 0.0
H609 H 0.1447 0.04613 0.30891 0.0
C610 C 0.08278 0.01686 0.34571 0.0
C611 C 0.14475 0.02206 0.33033 0.0
C612 C 0.1868 0.01629 0.32709 0.0
C613 C 0.06521 0.03244 0.33434 0.0
C614 C 0.08798 0.04333 0.32108 0.0
C615 C 0.12738 0.03793 0.31921 0.0
C616 C 0.07131 0.0599 0.30856 0.0
C617 C 0.02227 0.03672 0.33635 0.0
C618 C 0.07318 0.05674 0.2897 0.0
C619 C 0.05808 0.0723 0.27775 0.0
C620 C 0.04081 0.09142 0.28442 0.0
C621 C 0.03925 0.09465 0.30334 0.0
C622 C 0.05452 0.07907 0.3153 0.0
H623 H 0.00731 0.02325 0.34368 0.0
H624 H 0.01801 0.05185 0.34429 0.0
H625 H 0.00828 0.03895 0.32287 0.0
H626 H 0.08616 0.04211 0.2842 0.0
H627 H 0.05979 0.06925 0.26327 0.0
H628 H 0.34927 0.57476 0.83716 0.0
H629 H 0.36351 0.5418 0.81987 0.0
H630 H 0.38407 0.50673 0.8699 0.0
H631 H 0.36971 0.53964 0.8873 0.0
H632 H 0.43278 0.51997 0.81985 0.0
H633 H 0.31425 0.46477 0.84241 0.0
H634 H 0.31298 0.49378 0.84619 0.0
H635 H 0.34149 0.47647 0.86075 0.0
C636 C 0.35657 0.55999 0.84449 0.0
C637 C 0.35845 0.55982 0.86361 0.0
C638 C 0.36456 0.54115 0.8346 0.0
C639 C 0.37445 0.52173 0.84359 0.0
C640 C 0.37563 0.52138 0.86268 0.0
H641 H 0.46766 0.39799 0.80769 0.0
H642 H 0.44308 0.42882 0.82526 0.0
C643 C 0.36748 0.54022 0.87261 0.0
C644 C 0.38623 0.50238 0.83291 0.0
H645 H 0.3657 0.4487 0.82544 0.0
C646 C 0.41792 0.50443 0.82097 0.0
C647 C 0.36694 0.48209 0.83447 0.0
C648 C 0.3318 0.47912 0.84652 0.0
C649 C 0.43119 0.4867 0.81075 0.0
C650 C 0.41194 0.46644 0.81233 0.0
C651 C 0.38032 0.4643 0.82427 0.0
C652 C 0.42457 0.44728 0.80171 0.0
C653 C 0.46623 0.48964 0.79862 0.0
C654 C 0.42156 0.44731 0.78268 0.0
C655 C 0.43554 0.42975 0.77259 0.0
C656 C 0.4528 0.41182 0.78138 0.0
C657 C 0.45477 0.4116 0.8005 0.0
C658 C 0.44065 0.42916 0.81057 0.0
H659 H 0.48265 0.5047 0.80191 0.0
H660 H 0.48613 0.47548 0.79981 0.0
H661 H 0.45657 0.49079 0.78425 0.0
H662 H 0.40879 0.46106 0.77561 0.0
H663 H 0.43353 0.43044 0.7579 0.0
H664 H 0.73763 0.51576 0.63136 0.0
H665 H 0.70566 0.48854 0.65056 0.0
H666 H 0.60433 0.52947 0.65427 0.0
H667 H 0.63555 0.55649 0.6345 0.0
H668 H 0.67787 0.49275 0.68589 0.0
H669 H 0.55879 0.47116 0.6383 0.0
H670 H 0.60107 0.48641 0.63119 0.0
H671 H 0.56243 0.49969 0.64329 0.0
C672 C 0.7083 0.51885 0.63601 0.0
C673 C 0.68902 0.53824 0.63123 0.0
C674 C 0.69021 0.50335 0.64712 0.0
C675 C 0.65244 0.50684 0.65364 0.0
C676 C 0.63323 0.52627 0.64912 0.0
H677 H 0.49879 0.43001 0.72276 0.0
H678 H 0.52903 0.4587 0.70432 0.0
C679 C 0.65129 0.5418 0.63798 0.0
C680 C 0.6335 0.49022 0.66537 0.0
H681 H 0.55576 0.45572 0.66786 0.0
C682 C 0.65122 0.48461 0.68194 0.0
C683 C 0.59871 0.47966 0.66018 0.0
C684 C 0.57924 0.48435 0.64221 0.0
C685 C 0.63486 0.46885 0.69355 0.0
C686 C 0.60021 0.45823 0.68831 0.0
C687 C 0.58232 0.46394 0.67182 0.0
C688 C 0.58227 0.44092 0.69963 0.0
C689 C 0.65443 0.46391 0.71145 0.0
C690 C 0.60201 0.42131 0.70285 0.0
C691 C 0.5847 0.40484 0.71324 0.0
C692 C 0.54741 0.40772 0.72065 0.0
C693 C 0.52754 0.42729 0.71721 0.0
C694 C 0.5448 0.44372 0.70675 0.0
H695 H 0.675 0.477 0.71544 0.0
H696 H 0.63263 0.46176 0.72247 0.0
H697 H 0.67108 0.44853 0.71023 0.0
H698 H 0.63062 0.41864 0.69715 0.0
H699 H 0.60036 0.38975 0.71528 0.0
H700 H 0.88156 0.95912 0.11789 0.0
H701 H 0.89696 0.99156 0.13571 0.0
H702 H 0.81424 0.97156 0.17665 0.0
H703 H 0.7995 0.93877 0.15908 0.0
H704 H 0.85606 0.02586 0.14817 0.0
H705 H 0.91171 0.97729 0.20641 0.0
H706 H 0.89995 0.9652 0.18481 0.0
H707 H 0.86205 0.97154 0.20081 0.0
C708 C 0.86634 0.96178 0.13059 0.0
C709 C 0.83961 0.94632 0.1372 0.0
C710 C 0.8752 0.9803 0.14078 0.0
C711 C 0.85738 0.98377 0.15772 0.0
C712 C 0.82918 0.96892 0.16389 0.0
H713 H 0.89163 0.10651 0.21747 0.0
H714 H 0.86176 0.07683 0.20032 0.0
C715 C 0.82067 0.95025 0.15381 0.0
C716 C 0.86954 0.00249 0.16914 0.0
H717 H 0.90952 0.01537 0.21021 0.0
C718 C 0.86765 0.0236 0.16176 0.0
C719 C 0.88511 0.99949 0.1868 0.0
C720 C 0.89023 0.97716 0.19514 0.0
C721 C 0.88128 0.04175 0.17146 0.0
C722 C 0.89635 0.03875 0.18921 0.0
C723 C 0.89768 0.01768 0.19667 0.0
C724 C 0.91358 0.05688 0.19983 0.0
C725 C 0.88081 0.0638 0.16232 0.0
C726 C 0.95223 0.05534 0.20572 0.0
C727 C 0.96895 0.07196 0.21595 0.0
C728 C 0.94742 0.09059 0.22055 0.0
C729 C 0.90877 0.09222 0.21452 0.0
C730 C 0.89184 0.0754 0.20443 0.0
H731 H 0.87756 0.06245 0.14733 0.0
H732 H 0.85586 0.07333 0.16755 0.0
H733 H 0.90787 0.07299 0.16526 0.0
H734 H 0.96962 0.04123 0.20234 0.0
H735 H 0.99884 0.07011 0.22029 0.0
H736 H 0.83414 0.06465 0.6543 0.0
H737 H 0.84829 0.03194 0.67223 0.0
H738 H 0.91064 0.00474 0.62683 0.0
H739 H 0.89616 0.03732 0.60866 0.0
H740 H 0.85664 0.97487 0.64768 0.0
H741 H 0.96322 0.02018 0.69 0.0
H742 H 0.91611 0.03244 0.68745 0.0
H743 H 0.94733 0.02988 0.66801 0.0
C744 C 0.85022 0.05155 0.648 0.0
C745 C 0.86421 0.05362 0.63009 0.0
C746 C 0.85851 0.03296 0.65831 0.0
C747 C 0.88083 0.0161 0.65089 0.0
C748 C 0.89349 0.01766 0.63279 0.0
H749 H 0.97216 0.89411 0.69442 0.0
H750 H 0.94949 0.92329 0.67433 0.0
C751 C 0.88539 0.03631 0.62249 0.0
C752 C 0.89268 0.9974 0.66235 0.0
H753 H 0.94988 0.98389 0.69853 0.0
C754 C 0.87708 0.97674 0.65879 0.0
C755 C 0.91935 1.00001 0.67677 0.0
C756 C 0.93781 0.02176 0.68079 0.0
C757 C 0.88686 0.95863 0.66961 0.0
C758 C 0.91358 0.96125 0.68406 0.0
C759 C 0.92933 0.98192 0.68748 0.0
C760 C 0.92555 0.9429 0.696 0.0
C761 C 0.86773 0.93702 0.66577 0.0
C762 C 0.92023 0.94438 0.71488 0.0
C763 C 0.93367 0.92793 0.72641 0.0
C764 C 0.95285 0.90962 0.71931 0.0
C765 C 0.95758 0.90799 0.70035 0.0
C766 C 0.94431 0.92457 0.68882 0.0
H767 H 0.84064 0.93903 0.65773 0.0
H768 H 0.88795 0.92676 0.65777 0.0
H769 H 0.86066 0.92825 0.6786 0.0
H770 H 0.90596 0.95842 0.72072 0.0
H771 H 0.92948 0.92976 0.74093 0.0
H772 H 0.73667 0.4759 0.14475 0.0
H773 H 0.70533 0.50227 0.16462 0.0
H774 H 0.59504 0.47047 0.15638 0.0
H775 H 0.62653 0.4433 0.13711 0.0
H776 H 0.64883 0.53109 0.15646 0.0
H777 H 0.59813 0.47561 0.21133 0.0
H778 H 0.63278 0.46732 0.19428 0.0
H779 H 0.58175 0.46796 0.18909 0.0
C780 C 0.70588 0.47417 0.14743 0.0
C781 C 0.68425 0.45728 0.13943 0.0
C782 C 0.68793 0.48943 0.15869 0.0
C783 C 0.64793 0.48819 0.16223 0.0
C784 C 0.6261 0.47149 0.15417 0.0
H785 H 0.50759 0.59509 0.2026 0.0
H786 H 0.53763 0.56648 0.18452 0.0
C787 C 0.64408 0.45613 0.14295 0.0
C788 C 0.62907 0.50494 0.17378 0.0
H789 H 0.57486 0.51204 0.21228 0.0
C790 C 0.63273 0.52691 0.16869 0.0
C791 C 0.6085 0.49952 0.18987 0.0
C792 C 0.60531 0.47635 0.1966 0.0
C793 C 0.61606 0.54358 0.1791 0.0
C794 C 0.59439 0.53811 0.19485 0.0
C795 C 0.59114 0.51618 0.2001 0.0
C796 C 0.57516 0.55499 0.20609 0.0
C797 C 0.62245 0.56693 0.17332 0.0
C798 C 0.58535 0.5576 0.22444 0.0
C799 C 0.56797 0.57388 0.23492 0.0
C800 C 0.53996 0.58784 0.22726 0.0
C801 C 0.52926 0.58482 0.20896 0.0
C802 C 0.54656 0.56852 0.19853 0.0
H803 H 0.6479 0.5686 0.16411 0.0
H804 H 0.59644 0.57281 0.16588 0.0
H805 H 0.62698 0.57758 0.1853 0.0
H806 H 0.60719 0.54724 0.23058 0.0
H807 H 0.57675 0.57559 0.24899 0.0
H808 H 0.40196 0.45554 0.38773 0.0
H809 H 0.411 0.48839 0.36938 0.0
H810 H 0.32322 0.4663 0.33191 0.0
H811 H 0.31498 0.43294 0.34987 0.0
H812 H 0.3889 0.47932 0.31453 0.0
H813 H 0.34473 0.54241 0.36381 0.0
H814 H 0.38087 0.52449 0.37302 0.0
H815 H 0.33377 0.51391 0.36712 0.0
C816 C 0.38448 0.45767 0.37561 0.0
C817 C 0.35783 0.44155 0.37024 0.0
C818 C 0.38932 0.47661 0.36526 0.0
C819 C 0.36736 0.47998 0.34942 0.0
C820 C 0.34023 0.46412 0.34417 0.0
H821 H 0.38797 0.60256 0.28784 0.0
H822 H 0.36063 0.57149 0.30452 0.0
C823 C 0.33539 0.44513 0.35452 0.0
C824 C 0.37496 0.49925 0.33768 0.0
H825 H 0.3835 0.55465 0.33845 0.0
C826 C 0.3872 0.49581 0.31969 0.0
C827 C 0.37217 0.5208 0.3443 0.0
C828 C 0.35676 0.52567 0.36306 0.0
C829 C 0.39852 0.51324 0.30845 0.0
C830 C 0.39828 0.53462 0.31551 0.0
C831 C 0.3842 0.5382 0.33316 0.0
C832 C 0.41438 0.55328 0.30509 0.0
C833 C 0.41094 0.50861 0.28916 0.0
C834 C 0.45372 0.55344 0.30009 0.0
C835 C 0.46934 0.57106 0.29049 0.0
C836 C 0.44593 0.58893 0.28575 0.0
C837 C 0.40662 0.58889 0.29102 0.0
C838 C 0.39099 0.57122 0.30063 0.0
H839 H 0.39881 0.49293 0.28425 0.0
H840 H 0.40163 0.52183 0.27978 0.0
H841 H 0.44309 0.50746 0.2886 0.0
H842 H 0.47246 0.53996 0.30373 0.0
H843 H 0.49972 0.57056 0.28666 0.0
H844 H 0.15002 0.0597 0.85944 0.0
H845 H 0.11806 0.03211 0.84067 0.0
H846 H 0.20574 0.98537 0.8558 0.0
H847 H 0.23714 0.01255 0.87499 0.0
H848 H 0.14841 0.00801 0.81105 0.0
H849 H 0.10371 0.95401 0.86817 0.0
H850 H 0.11945 0.98174 0.87159 0.0
H851 H 0.15455 0.96058 0.86784 0.0
C852 C 0.16227 0.04348 0.85892 0.0
C853 C 0.19606 0.03832 0.86879 0.0
C854 C 0.14413 0.0278 0.84809 0.0
C855 C 0.15925 0.00663 0.84704 0.0
C856 C 0.19324 0.00151 0.85665 0.0
H857 H 0.09436 0.8882 0.79091 0.0
H858 H 0.12758 0.91664 0.80817 0.0
C859 C 0.21139 0.01716 0.86745 0.0
C860 C 0.13961 0.98988 0.83586 0.0
H861 H 0.09524 0.94019 0.83835 0.0
C862 C 0.13658 0.99323 0.81701 0.0
C863 C 0.12429 0.9706 0.84369 0.0
C864 C 0.12528 0.96653 0.86395 0.0
C865 C 0.11924 0.97759 0.80572 0.0
C866 C 0.10406 0.95832 0.81357 0.0
C867 C 0.10703 0.95498 0.8324 0.0
C868 C 0.08463 0.94144 0.8025 0.0
C869 C 0.118 0.98154 0.78545 0.0
C870 C 0.04938 0.94595 0.79369 0.0
C871 C 0.03043 0.92975 0.78376 0.0
C872 C 0.04647 0.90879 0.78246 0.0
C873 C 0.08167 0.9043 0.79139 0.0
C874 C 0.10055 0.92048 0.80134 0.0
H875 H 0.13838 0.99465 0.78119 0.0
H876 H 0.12529 0.96644 0.77792 0.0
H877 H 0.08819 0.9865 0.78149 0.0
H878 H 0.03632 0.96193 0.79467 0.0
H879 H 0.00335 0.93369 0.77702 0.0
H880 H 0.14872 0.09271 0.9887 0.0
H881 H 0.12768 0.09395 0.02048 0.0
H882 H 0.21158 0.14435 0.03126 0.0
H883 H 0.23378 0.14283 0.99964 0.0
H884 H 0.19529 0.08954 0.05087 0.0
H885 H 0.0954 0.16069 0.05486 0.0
H886 H 0.09943 0.14468 0.03436 0.0
H887 H 0.1386 0.16215 0.04094 0.0
C888 C 0.1626 0.10417 0.99777 0.0
C889 C 0.19324 0.11752 0.9916 0.0
C890 C 0.15028 0.10497 0.01588 0.0
C891 C 0.16797 0.11931 0.02812 0.0
C892 C 0.1973 0.13336 0.02191 0.0
H893 H 0.14517 0.13387 0.14583 0.0
H894 H 0.15378 0.14109 0.11312 0.0
C895 C 0.20983 0.1325 0.00381 0.0
C896 C 0.15893 0.11773 0.04775 0.0
H897 H 0.10655 0.14097 0.08203 0.0
C898 C 0.17588 0.10075 0.05771 0.0
C899 C 0.13409 0.1326 0.05657 0.0
C900 C 0.11561 0.15112 0.04624 0.0
C901 C 0.16853 0.09813 0.07636 0.0
C902 C 0.14255 0.11253 0.08517 0.0
C903 C 0.12612 0.12982 0.07523 0.0
C904 C 0.13224 0.10961 0.10465 0.0
C905 C 0.1893 0.08016 0.08649 0.0
C906 C 0.11565 0.08995 0.11065 0.0
C907 C 0.11116 0.08576 0.12921 0.0
C908 C 0.12241 0.10132 0.14212 0.0
C909 C 0.13623 0.12165 0.13611 0.0
C910 C 0.14121 0.12575 0.11747 0.0
H911 H 0.21603 0.07493 0.07924 0.0
H912 H 0.19745 0.08536 0.10042 0.0
H913 H 0.16982 0.06581 0.08763 0.0
H914 H 0.10755 0.0775 0.10098 0.0
H915 H 0.10003 0.07005 0.13352 0.0
H916 H 0.30077 0.38879 0.49445 0.0
H917 H 0.30446 0.39009 0.52775 0.0
H918 H 0.36715 0.32938 0.52816 0.0
H919 H 0.36438 0.32818 0.49496 0.0
H920 H 0.27682 0.35925 0.55359 0.0
H921 H 0.43645 0.37047 0.55833 0.0
H922 H 0.40978 0.37493 0.53751 0.0
H923 H 0.4218 0.34774 0.54465 0.0
C924 C 0.31555 0.37579 0.50163 0.0
C925 C 0.3323 0.35839 0.49203 0.0
C926 C 0.3175 0.37652 0.52065 0.0
C927 C 0.33657 0.36 0.53039 0.0
C928 C 0.35284 0.34248 0.52089 0.0
H929 H 0.32187 0.32369 0.64377 0.0
H930 H 0.31851 0.32621 0.61062 0.0
C931 C 0.35079 0.34169 0.50191 0.0
C932 C 0.33895 0.36081 0.55053 0.0
H933 H 0.40321 0.36198 0.58591 0.0
C934 C 0.30441 0.35998 0.56067 0.0
C935 C 0.37498 0.36206 0.55973 0.0
C936 C 0.41289 0.36406 0.54953 0.0
C937 C 0.305 0.35969 0.57978 0.0
C938 C 0.34111 0.36 0.58896 0.0
C939 C 0.37559 0.36151 0.57884 0.0
C940 C 0.34365 0.35846 0.60908 0.0
C941 C 0.26696 0.35916 0.58999 0.0
C942 C 0.35987 0.37553 0.61919 0.0
C943 C 0.36175 0.37417 0.63819 0.0
C944 C 0.34765 0.35564 0.64743 0.0
C945 C 0.33223 0.33839 0.63716 0.0
C946 C 0.33031 0.33978 0.6182 0.0
H947 H 0.24238 0.36461 0.58132 0.0
H948 H 0.2609 0.34223 0.59451 0.0
H949 H 0.26824 0.36964 0.60225 0.0
H950 H 0.3705 0.39005 0.6124 0.0
H951 H 0.37347 0.38784 0.64565 0.0
H952 H 0.74674 0.3585 0.00524 0.0
H953 H 0.72869 0.35474 0.97325 0.0
H954 H 0.63514 0.40046 0.98085 0.0
H955 H 0.65355 0.40458 0.01284 0.0
H956 H 0.66317 0.34144 0.95623 0.0
H957 H 0.69286 0.42798 0.93889 0.0
H958 H 0.70702 0.41605 0.96034 0.0
H959 H 0.65756 0.42438 0.95663 0.0
C960 C 0.72207 0.36758 1.00015 0.0
C961 C 0.70172 0.38195 0.01154 0.0
C962 C 0.71185 0.36548 0.98184 0.0
C963 C 0.68104 0.37764 0.97453 0.0
C964 C 0.65969 0.39136 0.98604 0.0
H965 H 0.59595 0.38464 0.862 0.0
H966 H 0.59927 0.38586 0.89539 0.0
C967 C 0.67013 0.39364 0.00434 0.0
C968 C 0.6719 0.37615 0.9548 0.0
H969 H 0.66666 0.4061 0.91555 0.0
C970 C 0.66383 0.3556 0.94736 0.0
C971 C 0.67286 0.39463 0.94319 0.0
C972 C 0.68339 0.41697 0.95009 0.0
C973 C 0.65695 0.35303 0.92865 0.0
C974 C 0.65823 0.37145 0.9171 0.0
C975 C 0.66544 0.39204 0.92453 0.0
C976 C 0.65478 0.36952 0.89708 0.0
C977 C 0.64854 0.33063 0.92131 0.0
C978 C 0.68488 0.35996 0.88706 0.0
C979 C 0.68321 0.3594 0.86808 0.0
C980 C 0.65129 0.36832 0.85875 0.0
C981 C 0.62074 0.3775 0.86884 0.0
C982 C 0.62265 0.37827 0.88787 0.0
H983 H 0.64069 0.31894 0.93229 0.0
H984 H 0.62452 0.33126 0.91124 0.0
H985 H 0.67477 0.32441 0.91425 0.0
H986 H 0.71009 0.35332 0.89392 0.0
H987 H 0.70703 0.35208 0.86067 0.0
H988 H 0.80631 0.11579 0.50634 0.0
H989 H 0.81606 0.11529 0.47332 0.0
H990 H 0.89598 0.16913 0.47763 0.0
H991 H 0.8879 0.16911 0.51055 0.0
H992 H 0.80144 0.14651 0.44813 0.0
H993 H 0.95829 0.1274 0.4472 0.0
H994 H 0.92898 0.12451 0.46745 0.0
H995 H 0.94819 0.15072 0.46098 0.0
C996 C 0.82637 0.12733 0.50029 0.0
C997 C 0.84634 0.14247 0.51117 0.0
C998 C 0.83177 0.12708 0.4814 0.0
C999 C 0.85739 0.14187 0.47302 0.0
C1000 C 0.87684 0.15719 0.48381 0.0
H1001 H 0.89858 0.19813 0.36993 0.0
H1002 H 0.89411 0.18666 0.4018 0.0
C1003 C 0.87162 0.1574 0.50265 0.0
C1004 C 0.86263 0.14207 0.45295 0.0
H1005 H 0.9321 0.14316 0.41968 0.0
C1006 C 0.82991 0.14535 0.44188 0.0
C1007 C 0.89979 0.14039 0.44477 0.0
C1008 C 0.93573 0.13532 0.45571 0.0
C1009 C 0.83365 0.1482 0.42299 0.0
C1010 C 0.87099 0.14775 0.41501 0.0
C1011 C 0.90353 0.14358 0.42591 0.0
C1012 C 0.87689 0.15365 0.39568 0.0
C1013 C 0.79797 0.15266 0.41169 0.0
C1014 C 0.86953 0.13866 0.38174 0.0
C1015 C 0.87228 0.14514 0.36348 0.0
C1016 C 0.88203 0.16675 0.35898 0.0
C1017 C 0.89064 0.18144 0.37302 0.0
C1018 C 0.88823 0.17492 0.3912 0.0
H1019 H 0.77101 0.15289 0.42002 0.0
H1020 H 0.80106 0.16859 0.40463 0.0
H1021 H 0.79498 0.13996 0.40109 0.0
H1022 H 0.86077 0.12216 0.38501 0.0
H1023 H 0.86528 0.13355 0.35291 0.0
H1024 H 0.85933 0.90156 0.01372 0.0
H1025 H 0.86691 0.90356 0.98066 0.0
H1026 H 0.8244 0.83774 0.97594 0.0
H1027 H 0.81618 0.83577 0.00901 0.0
H1028 H 0.91212 0.87945 0.95825 0.0
H1029 H 0.75706 0.86904 0.93936 0.0
H1030 H 0.77223 0.87448 0.96237 0.0
H1031 H 0.77602 0.84744 0.95325 0.0
C1032 C 0.85152 0.88753 0.00563 0.0
C1033 C 0.83698 0.86854 0.01397 0.0
C1034 C 0.85582 0.88869 0.98674 0.0
C1035 C 0.84575 0.87091 0.97577 0.0
C1036 C 0.83147 0.85186 0.98406 0.0
H1037 H 0.85857 0.8584 0.8567 0.0
H1038 H 0.85742 0.84928 0.88934 0.0
C1039 C 0.82683 0.85074 0.00296 0.0
C1040 C 0.85107 0.8723 0.95572 0.0
H1041 H 0.80253 0.87008 0.91522 0.0
C1042 C 0.88815 0.87735 0.94886 0.0
C1043 C 0.81981 0.86948 0.94343 0.0
C1044 C 0.77896 0.865 0.94994 0.0
C1045 C 0.8947 0.8799 0.93011 0.0
C1046 C 0.86336 0.87742 0.9179 0.0
C1047 C 0.82653 0.87182 0.92465 0.0
C1048 C 0.86742 0.88234 0.89823 0.0
C1049 C 0.93503 0.88536 0.92346 0.0
C1050 C 0.87367 0.90387 0.89251 0.0
C1051 C 0.87407 0.90909 0.87401 0.0
C1052 C 0.86837 0.89287 0.86085 0.0
C1053 C 0.86336 0.87117 0.86656 0.0
C1054 C 0.86252 0.86598 0.88515 0.0
H1055 H 0.95744 0.88163 0.93387 0.0
H1056 H 0.94192 0.87626 0.91084 0.0
H1057 H 0.93662 0.90302 0.92026 0.0
H1058 H 0.87708 0.91676 0.90239 0.0
H1059 H 0.87816 0.92593 0.86997 0.0
H1060 H 0.72656 0.65971 0.50978 0.0
H1061 H 0.70677 0.66496 0.47811 0.0
H1062 H 0.66595 0.59861 0.47616 0.0
H1063 H 0.68574 0.5932 0.5078 0.0
H1064 H 0.73591 0.64184 0.44898 0.0
H1065 H 0.57585 0.63203 0.45315 0.0
H1066 H 0.60563 0.63688 0.47294 0.0
H1067 H 0.60283 0.6101 0.46326 0.0
C1068 C 0.71312 0.64627 0.50265 0.0
C1069 C 0.70779 0.62602 0.51131 0.0
C1070 C 0.70168 0.64933 0.48458 0.0
C1071 C 0.68449 0.63226 0.47483 0.0
C1072 C 0.67833 0.61217 0.48354 0.0
H1073 H 0.6284 0.61232 0.3609 0.0
H1074 H 0.63634 0.60901 0.39393 0.0
C1075 C 0.68971 0.6091 0.50163 0.0
C1076 C 0.67597 0.63499 0.45516 0.0
H1077 H 0.60356 0.63266 0.42345 0.0
C1078 C 0.70691 0.64 0.44342 0.0
C1079 C 0.63817 0.6324 0.44793 0.0
C1080 C 0.60361 0.62775 0.45997 0.0
C1081 C 0.70127 0.64217 0.4246 0.0
C1082 C 0.66348 0.63967 0.41735 0.0
C1083 C 0.63248 0.63461 0.42907 0.0
C1084 C 0.65583 0.64219 0.3976 0.0
C1085 C 0.73601 0.64662 0.41259 0.0
C1086 C 0.66312 0.66211 0.38882 0.0
C1087 C 0.6586 0.66406 0.37 0.0
C1088 C 0.6464 0.64615 0.35959 0.0
C1089 C 0.63762 0.62645 0.36854 0.0
C1090 C 0.64226 0.6245 0.38739 0.0
H1091 H 0.76374 0.64262 0.41956 0.0
H1092 H 0.7343 0.6371 0.39981 0.0
H1093 H 0.73667 0.66416 0.40894 0.0
H1094 H 0.67279 0.6761 0.39652 0.0
H1095 H 0.66483 0.67958 0.36358 0.0
H1096 H 0.40688 0.62814 0.98933 0.0
H1097 H 0.41558 0.63052 0.02218 0.0
H1098 H 0.295 0.64769 0.02855 0.0
H1099 H 0.28556 0.64474 0.99564 0.0
H1100 H 0.35008 0.67669 0.04545 0.0
H1101 H 0.3758 0.59017 0.064 0.0
H1102 H 0.40394 0.59998 0.04504 0.0
H1103 H 0.35201 0.59825 0.04314 0.0
C1104 C 0.38186 0.63186 0.99769 0.0
C1105 C 0.34544 0.63618 0.98976 0.0
C1106 C 0.38698 0.63328 0.0165 0.0
C1107 C 0.35587 0.63907 0.02779 0.0
C1108 C 0.31935 0.64312 0.02004 0.0
H1109 H 0.36076 0.64611 0.14663 0.0
H1110 H 0.34287 0.63798 0.11516 0.0
C1111 C 0.3141 0.64156 1.00122 0.0
C1112 C 0.36232 0.64241 0.04751 0.0
H1113 H 0.39153 0.61667 0.08645 0.0
C1114 C 0.35879 0.66355 0.05446 0.0
C1115 C 0.37344 0.62519 0.05923 0.0
C1116 C 0.37624 0.60206 0.05257 0.0
C1117 C 0.36737 0.66806 0.07272 0.0
C1118 C 0.37995 0.65101 0.08426 0.0
C1119 C 0.38221 0.62973 0.07749 0.0
C1120 C 0.39163 0.65515 0.1033 0.0
C1121 C 0.36314 0.69106 0.07956 0.0
C1122 C 0.42537 0.66714 0.10701 0.0
C1123 C 0.43598 0.6716 0.12496 0.0
C1124 C 0.41295 0.6642 0.13958 0.0
C1125 C 0.37945 0.65184 0.13576 0.0
C1126 C 0.36902 0.64728 0.11778 0.0
H1127 H 0.34568 0.7013 0.07013 0.0
H1128 H 0.34922 0.69118 0.09319 0.0
H1129 H 0.39237 0.69853 0.08087 0.0
H1130 H 0.44348 0.67308 0.09599 0.0
H1131 H 0.46234 0.68077 0.12736 0.0
H1132 H 0.15511 0.9012 0.49582 0.0
H1133 H 0.13199 0.89641 0.52713 0.0
H1134 H 0.2089 0.84169 0.53402 0.0
H1135 H 0.2317 0.84607 0.50272 0.0
H1136 H 0.09789 0.85907 0.54508 0.0
H1137 H 0.23813 0.88388 0.57584 0.0
H1138 H 0.22611 0.88941 0.55236 0.0
H1139 H 0.24238 0.86278 0.55912 0.0
C1140 C 0.16672 0.88794 0.5039 0.0
C1141 C 0.19554 0.87412 0.49677 0.0
C1142 C 0.15361 0.88531 0.52182 0.0
C1143 C 0.16925 0.86895 0.53298 0.0
C1144 C 0.19707 0.85472 0.52575 0.0
H1145 H 0.10264 0.80649 0.63176 0.0
H1146 H 0.11043 0.81894 0.60036 0.0
C1147 C 0.2101 0.85728 0.50786 0.0
C1148 C 0.15694 0.86676 0.55225 0.0
H1149 H 0.19207 0.86708 0.59567 0.0
C1150 C 0.11833 0.86103 0.55617 0.0
C1151 C 0.18347 0.86972 0.56671 0.0
C1152 C 0.22476 0.87699 0.56337 0.0
C1153 C 0.10604 0.85717 0.57415 0.0
C1154 C 0.13319 0.85891 0.58852 0.0
C1155 C 0.17131 0.86563 0.58464 0.0
C1156 C 0.1237 0.85228 0.60747 0.0
C1157 C 0.06421 0.85109 0.5776 0.0
C1158 C 0.12848 0.86689 0.62196 0.0
C1159 C 0.12416 0.85976 0.63999 0.0
C1160 C 0.1156 0.83782 0.64381 0.0
C1161 C 0.1095 0.82346 0.62924 0.0
C1162 C 0.11358 0.8306 0.61127 0.0
H1163 H 0.04503 0.85695 0.56646 0.0
H1164 H 0.06164 0.8331 0.57829 0.0
H1165 H 0.05372 0.85789 0.59068 0.0
H1166 H 0.13659 0.88365 0.61932 0.0
H1167 H 0.12936 0.87113 0.65094 0.0
H1168 H 0.19005 0.3195 0.3651 0.0
H1169 H 0.14689 0.29574 0.34748 0.0
H1170 H 0.23127 0.24408 0.35083 0.0
H1171 H 0.27418 0.26752 0.36861 0.0
H1172 H 0.16586 0.27462 0.31333 0.0
H1173 H 0.1281 0.21549 0.36792 0.0
H1174 H 0.14772 0.24216 0.37263 0.0
H1175 H 0.17922 0.2206 0.36532 0.0
C1176 C 0.19914 0.30298 0.36228 0.0
C1177 C 0.23552 0.29538 0.36825 0.0
C1178 C 0.17459 0.2895 0.35213 0.0
C1179 C 0.18576 0.26811 0.34802 0.0
C1180 C 0.22189 0.26044 0.35406 0.0
H1181 H 0.10208 0.15847 0.2874 0.0
H1182 H 0.1371 0.18458 0.30623 0.0
C1183 C 0.24651 0.27392 0.36408 0.0
C1184 C 0.16038 0.25392 0.33689 0.0
H1185 H 0.1114 0.20555 0.33768 0.0
C1186 C 0.15354 0.25963 0.31867 0.0
C1187 C 0.14455 0.23436 0.34392 0.0
C1188 C 0.14991 0.22781 0.36356 0.0
C1189 C 0.13237 0.24589 0.30708 0.0
C1190 C 0.11698 0.22616 0.31405 0.0
C1191 C 0.12324 0.22067 0.33237 0.0
C1192 C 0.09553 0.21059 0.30241 0.0
C1193 C 0.12793 0.25215 0.28731 0.0
C1194 C 0.0603 0.21646 0.29412 0.0
C1195 C 0.04041 0.2016 0.28314 0.0
C1196 C 0.05542 0.18061 0.2803 0.0
C1197 C 0.09025 0.17467 0.28895 0.0
C1198 C 0.11013 0.18951 0.29985 0.0
H1199 H 0.14871 0.26515 0.28323 0.0
H1200 H 0.13244 0.23783 0.27838 0.0
H1201 H 0.09807 0.25832 0.28498 0.0
H1202 H 0.04811 0.2325 0.29621 0.0
H1203 H 0.01351 0.20662 0.27675 0.0
H1204 H 0.37766 0.16699 0.86623 0.0
H1205 H 0.39951 0.197 0.84678 0.0
H1206 H 0.29293 0.23146 0.85743 0.0
H1207 H 0.27102 0.20158 0.87723 0.0
H1208 H 0.36075 0.21521 0.81502 0.0
H1209 H 0.38142 0.27513 0.87083 0.0
H1210 H 0.37788 0.24621 0.87505 0.0
H1211 H 0.33508 0.26163 0.86979 0.0
C1212 C 0.35898 0.18104 0.86458 0.0
C1213 C 0.32276 0.18201 0.87342 0.0
C1214 C 0.37139 0.19808 0.85335 0.0
C1215 C 0.34801 0.21651 0.85083 0.0
C1216 C 0.31158 0.21746 0.85939 0.0
H1217 H 0.40135 0.3374 0.79262 0.0
H1218 H 0.36863 0.30878 0.81018 0.0
C1219 C 0.29901 0.20033 0.87058 0.0
C1220 C 0.36216 0.2347 0.83929 0.0
H1221 H 0.39521 0.28708 0.84103 0.0
C1222 C 0.36814 0.23097 0.82067 0.0
C1223 C 0.37156 0.25523 0.84671 0.0
C1224 C 0.36648 0.25989 0.8667 0.0
C1225 C 0.38354 0.24724 0.80926 0.0
C1226 C 0.39409 0.26755 0.8168 0.0
C1227 C 0.38723 0.27145 0.83533 0.0
C1228 C 0.41348 0.28471 0.80582 0.0
C1229 C 0.38815 0.2426 0.78923 0.0
C1230 C 0.44976 0.28075 0.79775 0.0
C1231 C 0.46836 0.29701 0.78762 0.0
C1232 C 0.45102 0.31754 0.78542 0.0
C1233 C 0.41506 0.3216 0.79381 0.0
C1234 C 0.39644 0.30533 0.80392 0.0
H1235 H 0.36871 0.22918 0.78479 0.0
H1236 H 0.38184 0.2573 0.78089 0.0
H1237 H 0.41854 0.23758 0.7865 0.0
H1238 H 0.46382 0.2651 0.79938 0.0
H1239 H 0.49607 0.29342 0.78132 0.0
H1240 H 0.78285 0.21366 0.65316 0.0
H1241 H 0.741 0.2372 0.67117 0.0
H1242 H 0.64085 0.21394 0.64188 0.0
H1243 H 0.68237 0.18941 0.62436 0.0
H1244 H 0.69528 0.2702 0.66075 0.0
H1245 H 0.60557 0.20629 0.694 0.0
H1246 H 0.64952 0.20012 0.68166 0.0
H1247 H 0.60496 0.20513 0.6696 0.0
C1248 C 0.75184 0.21319 0.65073 0.0
C1249 C 0.73601 0.19937 0.63742 0.0
C1250 C 0.72797 0.22685 0.66095 0.0
C1251 C 0.68768 0.2271 0.65811 0.0
C1252 C 0.67174 0.21368 0.64461 0.0
H1253 H 0.53834 0.33136 0.69765 0.0
H1254 H 0.57466 0.30577 0.67882 0.0
C1255 C 0.69563 0.19987 0.63442 0.0
C1256 C 0.66278 0.24186 0.66906 0.0
H1257 H 0.58593 0.24291 0.69852 0.0
C1258 C 0.67137 0.26422 0.66901 0.0
C1259 C 0.63192 0.23402 0.68005 0.0
C1260 C 0.6226 0.21006 0.68152 0.0
C1261 C 0.64995 0.27895 0.67956 0.0
C1262 C 0.61837 0.2712 0.69011 0.0
C1263 C 0.60988 0.24884 0.69027 0.0
C1264 C 0.59446 0.28602 0.70143 0.0
C1265 C 0.66204 0.30258 0.67969 0.0
C1266 C 0.59217 0.28292 0.72033 0.0
C1267 C 0.57097 0.29737 0.73113 0.0
C1268 C 0.55178 0.31526 0.72322 0.0
C1269 C 0.55309 0.31789 0.70421 0.0
C1270 C 0.5741 0.30337 0.69342 0.0
H1271 H 0.69246 0.30475 0.67494 0.0
H1272 H 0.64289 0.31196 0.67039 0.0
H1273 H 0.65937 0.3096 0.69353 0.0
H1274 H 0.60737 0.26953 0.72678 0.0
H1275 H 0.57 0.29466 0.74569 0.0
H1276 H 0.88369 0.33159 0.13286 0.0
H1277 H 0.90886 0.30043 0.14986 0.0
H1278 H 0.80394 0.26455 0.13851 0.0
H1279 H 0.77836 0.29584 0.12153 0.0
H1280 H 0.82481 0.26107 0.17391 0.0
H1281 H 0.95238 0.24406 0.13042 0.0
H1282 H 0.95153 0.27175 0.13803 0.0
H1283 H 0.91363 0.26193 0.12332 0.0
C1284 C 0.86616 0.31697 0.13376 0.0
C1285 C 0.82914 0.31613 0.1257 0.0
C1286 C 0.88064 0.29913 0.14345 0.0
C1287 C 0.85868 0.27996 0.14513 0.0
C1288 C 0.82153 0.27912 0.13728 0.0
H1289 H 0.95958 0.16061 0.19124 0.0
H1290 H 0.92917 0.187 0.17055 0.0
C1291 C 0.80689 0.29704 0.12764 0.0
C1292 C 0.87397 0.2612 0.15575 0.0
H1293 H 0.95271 0.22779 0.16016 0.0
C1294 C 0.85258 0.25364 0.17078 0.0
C1295 C 0.90988 0.25121 0.1515 0.0
C1296 C 0.93298 0.25749 0.13482 0.0
C1297 C 0.86687 0.237 0.1821 0.0
C1298 C 0.90392 0.22801 0.17852 0.0
C1299 C 0.92457 0.23491 0.16306 0.0
C1300 C 0.92228 0.21196 0.19098 0.0
C1301 C 0.84206 0.22919 0.19778 0.0
C1302 C 0.9292 0.21739 0.20921 0.0
C1303 C 0.94644 0.2024 0.22102 0.0
C1304 C 0.95746 0.18169 0.21479 0.0
C1305 C 0.95135 0.17643 0.19643 0.0
C1306 C 0.93393 0.19145 0.18461 0.0
H1307 H 0.81079 0.23257 0.19534 0.0
H1308 H 0.84576 0.21145 0.20016 0.0
H1309 H 0.85076 0.23791 0.21032 0.0
H1310 H 0.92146 0.23333 0.21431 0.0
H1311 H 0.95124 0.20706 0.23503 0.0
H1312 H 0.88209 0.67224 0.63503 0.0
H1313 H 0.90283 0.70295 0.65356 0.0
H1314 H 0.78814 0.73074 0.64978 0.0
H1315 H 0.76652 0.69947 0.6319 0.0
H1316 H 0.90493 0.74609 0.64506 0.0
H1317 H 0.80723 0.73197 0.70421 0.0
H1318 H 0.81451 0.71185 0.68674 0.0
H1319 H 0.78284 0.73461 0.68274 0.0
C1320 C 0.861 0.68466 0.63838 0.0
C1321 C 0.82247 0.68321 0.63212 0.0
C1322 C 0.87304 0.70233 0.64885 0.0
C1323 C 0.84691 0.71898 0.6533 0.0
C1324 C 0.8086 0.71785 0.64683 0.0
H1325 H 0.89095 0.83799 0.71563 0.0
H1326 H 0.8611 0.81072 0.69582 0.0
C1327 C 0.79643 0.70009 0.63641 0.0
C1328 C 0.86035 0.73762 0.66444 0.0
H1329 H 0.84664 0.76351 0.70501 0.0
C1330 C 0.8921 0.74992 0.65814 0.0
C1331 C 0.8435 0.74264 0.6815 0.0
C1332 C 0.81036 0.72949 0.68932 0.0
C1333 C 0.90774 0.76691 0.66851 0.0
C1334 C 0.89136 0.77163 0.68567 0.0
C1335 C 0.859 0.75979 0.6918 0.0
C1336 C 0.90888 0.78802 0.69785 0.0
C1337 C 0.94183 0.77965 0.66113 0.0
C1338 C 0.94533 0.78411 0.70569 0.0
C1339 C 0.96208 0.79944 0.71726 0.0
C1340 C 0.94265 0.81898 0.72122 0.0
C1341 C 0.9062 0.8229 0.71323 0.0
C1342 C 0.88925 0.80743 0.70179 0.0
H1343 H 0.94555 0.77728 0.64625 0.0
H1344 H 0.93828 0.79731 0.66386 0.0
H1345 H 0.96878 0.77413 0.66801 0.0
H1346 H 0.96072 0.76911 0.70293 0.0
H1347 H 0.99018 0.79588 0.72318 0.0
H1348 H 0.75138 0.77463 0.13438 0.0
H1349 H 0.71029 0.75027 0.15221 0.0
H1350 H 0.61488 0.7953 0.1472 0.0
H1351 H 0.65532 0.8194 0.12849 0.0
H1352 H 0.67783 0.7594 0.18475 0.0
H1353 H 0.56213 0.73801 0.13532 0.0
H1354 H 0.60712 0.75079 0.12848 0.0
H1355 H 0.56901 0.76672 0.13851 0.0
C1356 C 0.72137 0.77917 0.1366 0.0
C1357 C 0.70669 0.79899 0.12984 0.0
C1358 C 0.69798 0.76527 0.14698 0.0
C1359 C 0.65935 0.77081 0.1509 0.0
C1360 C 0.64435 0.79046 0.14406 0.0
H1361 H 0.4957 0.7073 0.22586 0.0
H1362 H 0.52747 0.73344 0.2053 0.0
C1363 C 0.66772 0.80436 0.13356 0.0
C1364 C 0.63596 0.75658 0.16313 0.0
H1365 H 0.55349 0.72557 0.16569 0.0
C1366 C 0.65066 0.75202 0.18054 0.0
C1367 C 0.60037 0.74703 0.15768 0.0
C1368 C 0.5838 0.75069 0.13893 0.0
C1369 C 0.63101 0.73806 0.19258 0.0
C1370 C 0.59583 0.72828 0.18706 0.0
C1371 C 0.58053 0.73315 0.16984 0.0
C1372 C 0.57557 0.71223 0.19882 0.0
C1373 C 0.64807 0.73373 0.21111 0.0
C1374 C 0.5919 0.69161 0.20175 0.0
C1375 C 0.57357 0.67658 0.21322 0.0
C1376 C 0.53874 0.68196 0.22211 0.0
C1377 C 0.52229 0.7026 0.21905 0.0
C1378 C 0.54044 0.71757 0.20738 0.0
H1379 H 0.67099 0.74572 0.21468 0.0
H1380 H 0.62505 0.73413 0.22169 0.0
H1381 H 0.66124 0.71725 0.21121 0.0
H1382 H 0.6189 0.68716 0.19517 0.0
H1383 H 0.5867 0.66073 0.21512 0.0
H1384 H 0.31073 0.83681 0.34927 0.0
H1385 H 0.33416 0.80684 0.33046 0.0
H1386 H 0.33661 0.76483 0.37761 0.0
H1387 H 0.31323 0.79478 0.39655 0.0
H1388 H 0.40371 0.7848 0.33438 0.0
H1389 H 0.27927 0.7276 0.34035 0.0
H1390 H 0.27579 0.75591 0.34667 0.0
H1391 H 0.29853 0.73663 0.36172 0.0
C1392 C 0.31618 0.82119 0.35565 0.0
C1393 C 0.31016 0.81821 0.37444 0.0
C1394 C 0.32942 0.80405 0.34486 0.0
C1395 C 0.33674 0.78352 0.35257 0.0
C1396 C 0.33035 0.78039 0.37128 0.0
H1397 H 0.43938 0.66452 0.31024 0.0
H1398 H 0.40971 0.69262 0.32933 0.0
C1399 C 0.31701 0.79753 0.3821 0.0
C1400 C 0.35305 0.76583 0.34117 0.0
H1401 H 0.33618 0.71416 0.32598 0.0
C1402 C 0.38885 0.7694 0.33247 0.0
C1403 C 0.33371 0.74569 0.33878 0.0
C1404 C 0.29453 0.74122 0.34723 0.0
C1405 C 0.40605 0.75332 0.32161 0.0
C1406 C 0.38663 0.73325 0.31913 0.0
C1407 C 0.35096 0.72958 0.32791 0.0
C1408 C 0.40297 0.71592 0.30741 0.0
C1409 C 0.44526 0.75779 0.31316 0.0
C1410 C 0.40833 0.71958 0.28871 0.0
C1411 C 0.42528 0.7036 0.27781 0.0
C1412 C 0.43696 0.6836 0.28538 0.0
C1413 C 0.43076 0.67979 0.30404 0.0
C1414 C 0.41375 0.69579 0.31494 0.0
H1415 H 0.46043 0.77152 0.31993 0.0
H1416 H 0.4641 0.74314 0.31386 0.0
H1417 H 0.44133 0.76216 0.29861 0.0
H1418 H 0.39971 0.73489 0.28258 0.0
H1419 H 0.42996 0.70711 0.26352 0.0
H1420 H 0.21681 0.72583 0.89439 0.0
H1421 H 0.17256 0.75017 0.87805 0.0
H1422 H 0.16725 0.70462 0.83365 0.0
H1423 H 0.21134 0.6802 0.84991 0.0
H1424 H 0.18564 0.76954 0.84508 0.0
H1425 H 0.05327 0.71831 0.8415 0.0
H1426 H 0.0931 0.71216 0.85663 0.0
H1427 H 0.09579 0.7049 0.83298 0.0
C1428 C 0.20601 0.72094 0.88119 0.0
C1429 C 0.21755 0.70106 0.87346 0.0
C1430 C 0.18063 0.73483 0.87191 0.0
C1431 C 0.16616 0.72909 0.85474 0.0
C1432 C 0.17724 0.70914 0.84707 0.0
H1433 H 0.04665 0.79324 0.76694 0.0
H1434 H 0.08078 0.76825 0.78741 0.0
C1435 C 0.2025 0.69521 0.85638 0.0
C1436 C 0.14164 0.7446 0.84431 0.0
H1437 H 0.05505 0.74957 0.822 0.0
C1438 C 0.1569 0.76527 0.84022 0.0
C1439 C 0.10416 0.73899 0.83794 0.0
C1440 C 0.08542 0.71746 0.84263 0.0
C1441 C 0.13622 0.78022 0.82947 0.0
C1442 C 0.0991 0.77444 0.82285 0.0
C1443 C 0.08355 0.75392 0.82712 0.0
C1444 C 0.07667 0.78923 0.81087 0.0
C1445 C 0.15471 0.80183 0.82478 0.0
C1446 C 0.06246 0.80913 0.81741 0.0
C1447 C 0.04289 0.82344 0.80575 0.0
C1448 C 0.03736 0.81809 0.78736 0.0
C1449 C 0.05077 0.7979 0.781 0.0
C1450 C 0.07015 0.78358 0.79267 0.0
H1451 H 0.18622 0.8021 0.82803 0.0
H1452 H 0.15094 0.80561 0.8101 0.0
H1453 H 0.14032 0.8149 0.83267 0.0
H1454 H 0.06681 0.81365 0.83149 0.0
H1455 H 0.03283 0.83887 0.81104 0.0
loop_
_geom_bond_atom_site_label_1
_geom_bond_atom_site_label_2
_geom_bond_distance
_geom_bond_site_symmetry_2
_ccdc_geom_bond_type
P0 O11 1.490 . S
P0 C14 1.812 . S
P0 C20 1.803 . S
P0 C26 1.819 . S
H1 C15 0.941 . S
H2 C16 0.939 . S
H3 C18 0.940 . S
H4 C19 0.940 . S
H5 C21 0.939 . S
H6 C22 0.942 . S
H7 C24 0.940 . S
H8 C25 0.939 . S
H9 C27 0.941 . S
H10 C31 0.939 . S
O11 P0 1.490 . S
H12 C28 0.939 . S
H13 C30 0.940 . S
C14 P0 1.812 . S
C14 C15 1.389 . S
C14 C19 1.391 . S
C15 H1 0.941 . S
C15 C14 1.389 . S
C15 C16 1.397 . S
C16 H2 0.939 . S
C16 C15 1.397 . S
C16 C17 1.378 . S
C17 C16 1.378 . S
C17 C18 1.378 . S
C18 H3 0.940 . S
C18 C17 1.378 . S
C18 C19 1.396 . S
C19 H4 0.940 . S
C19 C14 1.391 . S
C19 C18 1.396 . S
C20 P0 1.803 . S
C20 C21 1.378 . S
C20 C25 1.400 . S
C21 H5 0.939 . S
C21 C20 1.378 . S
C21 C22 1.361 . S
C22 H6 0.942 . S
C22 C21 1.361 . S
C22 C23 1.369 . S
C23 C22 1.369 . S
C23 C24 1.404 . S
C24 H7 0.940 . S
C24 C23 1.404 . S
C24 C25 1.389 . S
C25 H8 0.939 . S
C25 C20 1.400 . S
C25 C24 1.389 . S
C26 P0 1.819 . S
C26 C27 1.391 . S
C26 C31 1.391 . S
C27 H9 0.941 . S
C27 C26 1.391 . S
C27 C28 1.396 . S
C28 H12 0.939 . S
C28 C27 1.396 . S
C28 C29 1.397 . S
C29 C28 1.397 . S
C29 C30 1.385 . S
C30 H13 0.940 . S
C30 C29 1.385 . S
C30 C31 1.388 . S
C31 H10 0.939 . S
C31 C26 1.391 . S
C31 C30 1.388 . S
P32 O43 1.490 . S
P32 C46 1.812 . S
P32 C52 1.803 . S
P32 C58 1.819 . S
H33 C47 0.941 . S
H34 C48 0.939 . S
H35 C50 0.940 . S
H36 C51 0.940 . S
H37 C53 0.939 . S
H38 C54 0.942 . S
H39 C56 0.940 . S
H40 C57 0.939 . S
H41 C59 0.941 . S
H42 C63 0.939 . S
O43 P32 1.490 . S
H44 C60 0.939 . S
H45 C62 0.940 . S
C46 P32 1.812 . S
C46 C47 1.389 . S
C46 C51 1.391 . S
C47 H33 0.941 . S
C47 C46 1.389 . S
C47 C48 1.397 . S
C48 H34 0.939 . S
C48 C47 1.397 . S
C48 C49 1.378 . S
C49 C48 1.378 . S
C49 C50 1.378 . S
C50 H35 0.940 . S
C50 C49 1.378 . S
C50 C51 1.396 . S
C51 H36 0.940 . S
C51 C46 1.391 . S
C51 C50 1.396 . S
C52 P32 1.803 . S
C52 C53 1.378 . S
C52 C57 1.400 . S
C53 H37 0.939 . S
C53 C52 1.378 . S
C53 C54 1.361 . S
C54 H38 0.942 . S
C54 C53 1.361 . S
C54 C55 1.369 . S
C55 C54 1.369 . S
C55 C56 1.404 . S
C56 H39 0.940 . S
C56 C55 1.404 . S
C56 C57 1.389 . S
C57 H40 0.939 . S
C57 C52 1.400 . S
C57 C56 1.389 . S
C58 P32 1.819 . S
C58 C59 1.391 . S
C58 C63 1.391 . S
C59 H41 0.941 . S
C59 C58 1.391 . S
C59 C60 1.396 . S
C60 H44 0.939 . S
C60 C59 1.396 . S
C60 C61 1.397 . S
C61 C60 1.397 . S
C61 C62 1.385 . S
C62 H45 0.940 . S
C62 C61 1.385 . S
C62 C63 1.388 . S
C63 H42 0.939 . S
C63 C58 1.391 . S
C63 C62 1.388 . S
P64 O75 1.490 . S
P64 C78 1.812 . S
P64 C84 1.803 . S
P64 C90 1.819 . S
H65 C79 0.941 . S
H66 C80 0.939 . S
H67 C82 0.940 . S
H68 C83 0.940 . S
H69 C85 0.939 . S
H70 C86 0.942 . S
H71 C88 0.940 . S
H72 C89 0.939 . S
H73 C91 0.941 . S
H74 C95 0.939 . S
O75 P64 1.490 . S
H76 C92 0.939 . S
H77 C94 0.940 . S
C78 P64 1.812 . S
C78 C79 1.389 . S
C78 C83 1.391 . S
C79 H65 0.941 . S
C79 C78 1.389 . S
C79 C80 1.397 . S
C80 H66 0.939 . S
C80 C79 1.397 . S
C80 C81 1.378 . S
C81 C80 1.378 . S
C81 C82 1.378 . S
C82 H67 0.940 . S
C82 C81 1.378 . S
C82 C83 1.396 . S
C83 H68 0.940 . S
C83 C78 1.391 . S
C83 C82 1.396 . S
C84 P64 1.803 . S
C84 C85 1.378 . S
C84 C89 1.400 . S
C85 H69 0.939 . S
C85 C84 1.378 . S
C85 C86 1.361 . S
C86 H70 0.942 . S
C86 C85 1.361 . S
C86 C87 1.369 . S
C87 C86 1.369 . S
C87 C88 1.404 . S
C88 H71 0.940 . S
C88 C87 1.404 . S
C88 C89 1.389 . S
C89 H72 0.939 . S
C89 C84 1.400 . S
C89 C88 1.389 . S
C90 P64 1.819 . S
C90 C91 1.391 . S
C90 C95 1.391 . S
C91 H73 0.941 . S
C91 C90 1.391 . S
C91 C92 1.396 . S
C92 H76 0.939 . S
C92 C91 1.396 . S
C92 C93 1.397 . S
C93 C92 1.397 . S
C93 C94 1.385 . S
C94 H77 0.940 . S
C94 C93 1.385 . S
C94 C95 1.388 . S
C95 H74 0.939 . S
C95 C90 1.391 . S
C95 C94 1.388 . S
P96 O107 1.490 . S
P96 C110 1.812 . S
P96 C116 1.803 . S
P96 C122 1.819 . S
H97 C111 0.941 . S
H98 C112 0.939 . S
H99 C114 0.940 . S
H100 C115 0.940 . S
H101 C117 0.939 . S
H102 C118 0.942 . S
H103 C120 0.940 . S
H104 C121 0.939 . S
H105 C123 0.941 . S
H106 C127 0.939 . S
O107 P96 1.490 . S
H108 C124 0.939 . S
H109 C126 0.940 . S
C110 P96 1.812 . S
C110 C111 1.389 . S
C110 C115 1.391 . S
C111 H97 0.941 . S
C111 C110 1.389 . S
C111 C112 1.397 . S
C112 H98 0.939 . S
C112 C111 1.397 . S
C112 C113 1.378 . S
C113 C112 1.378 . S
C113 C114 1.378 . S
C114 H99 0.940 . S
C114 C113 1.378 . S
C114 C115 1.396 . S
C115 H100 0.940 . S
C115 C110 1.391 . S
C115 C114 1.396 . S
C116 P96 1.803 . S
C116 C117 1.378 . S
C116 C121 1.400 . S
C117 H101 0.939 . S
C117 C116 1.378 . S
C117 C118 1.361 . S
C118 H102 0.942 . S
C118 C117 1.361 . S
C118 C119 1.369 . S
C119 C118 1.369 . S
C119 C120 1.404 . S
C120 H103 0.940 . S
C120 C119 1.404 . S
C120 C121 1.389 . S
C121 H104 0.939 . S
C121 C116 1.400 . S
C121 C120 1.389 . S
C122 P96 1.819 . S
C122 C123 1.391 . S
C122 C127 1.391 . S
C123 H105 0.941 . S
C123 C122 1.391 . S
C123 C124 1.396 . S
C124 H108 0.939 . S
C124 C123 1.396 . S
C124 C125 1.397 . S
C125 C124 1.397 . S
C125 C126 1.385 . S
C126 H109 0.940 . S
C126 C125 1.385 . S
C126 C127 1.388 . S
C127 H106 0.939 . S
C127 C122 1.391 . S
C127 C126 1.388 . S
P128 O139 1.490 . S
P128 C142 1.812 . S
P128 C148 1.803 . S
P128 C154 1.819 . S
H129 C143 0.941 . S
H130 C144 0.939 . S
H131 C146 0.940 . S
H132 C147 0.940 . S
H133 C149 0.939 . S
H134 C150 0.942 . S
H135 C152 0.940 . S
H136 C153 0.939 . S
H137 C155 0.941 . S
H138 C159 0.939 . S
O139 P128 1.490 . S
H140 C156 0.939 . S
H141 C158 0.940 . S
C142 P128 1.812 . S
C142 C143 1.389 . S
C142 C147 1.391 . S
C143 H129 0.941 . S
C143 C142 1.389 . S
C143 C144 1.397 . S
C144 H130 0.939 . S
C144 C143 1.397 . S
C144 C145 1.378 . S
C145 C144 1.378 . S
C145 C146 1.378 . S
C146 H131 0.940 . S
C146 C145 1.378 . S
C146 C147 1.396 . S
C147 H132 0.940 . S
C147 C142 1.391 . S
C147 C146 1.396 . S
C148 P128 1.803 . S
C148 C149 1.378 . S
C148 C153 1.400 . S
C149 H133 0.939 . S
C149 C148 1.378 . S
C149 C150 1.361 . S
C150 H134 0.942 . S
C150 C149 1.361 . S
C150 C151 1.369 . S
C151 C150 1.369 . S
C151 C152 1.404 . S
C152 H135 0.940 . S
C152 C151 1.404 . S
C152 C153 1.389 . S
C153 H136 0.939 . S
C153 C148 1.400 . S
C153 C152 1.389 . S
C154 P128 1.819 . S
C154 C155 1.391 . S
C154 C159 1.391 . S
C155 H137 0.941 . S
C155 C154 1.391 . S
C155 C156 1.396 . S
C156 H140 0.939 . S
C156 C155 1.396 . S
C156 C157 1.397 . S
C157 C156 1.397 . S
C157 C158 1.385 . S
C158 H141 0.940 . S
C158 C157 1.385 . S
C158 C159 1.388 . S
C159 H138 0.939 . S
C159 C154 1.391 . S
C159 C158 1.388 . S
P160 O171 1.490 . S
P160 C174 1.812 . S
P160 C180 1.803 . S
P160 C186 1.819 . S
H161 C175 0.941 . S
H162 C176 0.939 . S
H163 C178 0.940 . S
H164 C179 0.940 . S
H165 C181 0.939 . S
H166 C182 0.942 . S
H167 C184 0.940 . S
H168 C185 0.939 . S
H169 C187 0.941 . S
H170 C191 0.939 . S
O171 P160 1.490 . S
H172 C188 0.939 . S
H173 C190 0.940 . S
C174 P160 1.812 . S
C174 C175 1.389 . S
C174 C179 1.391 . S
C175 H161 0.941 . S
C175 C174 1.389 . S
C175 C176 1.397 . S
C176 H162 0.939 . S
C176 C175 1.397 . S
C176 C177 1.378 . S
C177 C176 1.378 . S
C177 C178 1.378 . S
C178 H163 0.940 . S
C178 C177 1.378 . S
C178 C179 1.396 . S
C179 H164 0.940 . S
C179 C174 1.391 . S
C179 C178 1.396 . S
C180 P160 1.803 . S
C180 C181 1.378 . S
C180 C185 1.400 . S
C181 H165 0.939 . S
C181 C180 1.378 . S
C181 C182 1.361 . S
C182 H166 0.942 . S
C182 C181 1.361 . S
C182 C183 1.369 . S
C183 C182 1.369 . S
C183 C184 1.404 . S
C184 H167 0.940 . S
C184 C183 1.404 . S
C184 C185 1.389 . S
C185 H168 0.939 . S
C185 C180 1.400 . S
C185 C184 1.389 . S
C186 P160 1.819 . S
C186 C187 1.391 . S
C186 C191 1.391 . S
C187 H169 0.941 . S
C187 C186 1.391 . S
C187 C188 1.396 . S
C188 H172 0.939 . S
C188 C187 1.396 . S
C188 C189 1.397 . S
C189 C188 1.397 . S
C189 C190 1.385 . S
C190 H173 0.940 . S
C190 C189 1.385 . S
C190 C191 1.388 . S
C191 H170 0.939 . S
C191 C186 1.391 . S
C191 C190 1.388 . S
P192 O203 1.490 . S
P192 C206 1.812 . S
P192 C212 1.803 . S
P192 C218 1.819 . S
H193 C207 0.941 . S
H194 C208 0.939 . S
H195 C210 0.940 . S
H196 C211 0.940 . S
H197 C213 0.939 . S
H198 C214 0.942 . S
H199 C216 0.940 . S
H200 C217 0.939 . S
H201 C219 0.941 . S
H202 C223 0.939 . S
O203 P192 1.490 . S
H204 C220 0.939 . S
H205 C222 0.940 . S
C206 P192 1.812 . S
C206 C207 1.389 . S
C206 C211 1.391 . S
C207 H193 0.941 . S
C207 C206 1.389 . S
C207 C208 1.397 . S
C208 H194 0.939 . S
C208 C207 1.397 . S
C208 C209 1.378 . S
C209 C208 1.378 . S
C209 C210 1.378 . S
C210 H195 0.940 . S
C210 C209 1.378 . S
C210 C211 1.396 . S
C211 H196 0.940 . S
C211 C206 1.391 . S
C211 C210 1.396 . S
C212 P192 1.803 . S
C212 C213 1.378 . S
C212 C217 1.400 . S
C213 H197 0.939 . S
C213 C212 1.378 . S
C213 C214 1.361 . S
C214 H198 0.942 . S
C214 C213 1.361 . S
C214 C215 1.369 . S
C215 C214 1.369 . S
C215 C216 1.404 . S
C216 H199 0.940 . S
C216 C215 1.404 . S
C216 C217 1.389 . S
C217 H200 0.939 . S
C217 C212 1.400 . S
C217 C216 1.389 . S
C218 P192 1.819 . S
C218 C219 1.391 . S
C218 C223 1.391 . S
C219 H201 0.941 . S
C219 C218 1.391 . S
C219 C220 1.396 . S
C220 H204 0.939 . S
C220 C219 1.396 . S
C220 C221 1.397 . S
C221 C220 1.397 . S
C221 C222 1.385 . S
C222 H205 0.940 . S
C222 C221 1.385 . S
C222 C223 1.388 . S
C223 H202 0.939 . S
C223 C218 1.391 . S
C223 C222 1.388 . S
P224 O235 1.490 . S
P224 C238 1.812 . S
P224 C244 1.803 . S
P224 C250 1.819 . S
H225 C239 0.941 . S
H226 C240 0.939 . S
H227 C242 0.940 . S
H228 C243 0.940 . S
H229 C245 0.939 . S
H230 C246 0.942 . S
H231 C248 0.940 . S
H232 C249 0.939 . S
H233 C251 0.941 . S
H234 C255 0.939 . S
O235 P224 1.490 . S
H236 C252 0.939 . S
H237 C254 0.940 . S
C238 P224 1.812 . S
C238 C239 1.389 . S
C238 C243 1.391 . S
C239 H225 0.941 . S
C239 C238 1.389 . S
C239 C240 1.397 . S
C240 H226 0.939 . S
C240 C239 1.397 . S
C240 C241 1.378 . S
C241 C240 1.378 . S
C241 C242 1.378 . S
C242 H227 0.940 . S
C242 C241 1.378 . S
C242 C243 1.396 . S
C243 H228 0.940 . S
C243 C238 1.391 . S
C243 C242 1.396 . S
C244 P224 1.803 . S
C244 C245 1.378 . S
C244 C249 1.400 . S
C245 H229 0.939 . S
C245 C244 1.378 . S
C245 C246 1.361 . S
C246 H230 0.942 . S
C246 C245 1.361 . S
C246 C247 1.369 . S
C247 C246 1.369 . S
C247 C248 1.404 . S
C248 H231 0.940 . S
C248 C247 1.404 . S
C248 C249 1.389 . S
C249 H232 0.939 . S
C249 C244 1.400 . S
C249 C248 1.389 . S
C250 P224 1.819 . S
C250 C251 1.391 . S
C250 C255 1.391 . S
C251 H233 0.941 . S
C251 C250 1.391 . S
C251 C252 1.396 . S
C252 H236 0.939 . S
C252 C251 1.396 . S
C252 C253 1.397 . S
C253 C252 1.397 . S
C253 C254 1.385 . S
C254 H237 0.940 . S
C254 C253 1.385 . S
C254 C255 1.388 . S
C255 H234 0.939 . S
C255 C250 1.391 . S
C255 C254 1.388 . S
Eu256 N285 2.600 . S
Eu256 N291 2.562 . S
Eu256 O300 2.462 . S
Eu256 O301 2.373 . S
Eu256 O303 2.432 . S
Eu256 O304 2.291 . S
Eu256 O308 2.335 . S
Eu256 O311 2.372 . S
Eu256 C320 2.787 . S
C257 N258 1.365 . S
C257 C260 1.405 . S
C257 C264 1.448 . S
N258 C257 1.365 . S
N258 C261 1.319 . S
N258 Eu267 2.600 . S
C259 C261 1.397 . S
C259 C262 1.367 . S
C259 H279 0.931 . S
C260 C257 1.405 . S
C260 C262 1.403 . S
C260 C266 1.439 . S
C261 N258 1.319 . S
C261 C259 1.397 . S
C261 H272 0.930 . S
C262 C259 1.367 . S
C262 C260 1.403 . S
C262 H283 0.929 . S
C263 C264 1.430 . S
C263 C265 1.387 . S
C263 C269 1.404 . S
C264 C257 1.448 . S
C264 C263 1.430 . S
C264 N268 1.351 . S
C265 C263 1.387 . S
C265 C266 1.374 . S
C265 H280 0.931 . S
C266 C260 1.439 . S
C266 C265 1.374 . S
C266 H281 0.931 . S
Eu267 N258 2.600 . S
Eu267 N268 2.562 . S
Eu267 O302 2.335 1_655 S
Eu267 O305 2.372 . S
Eu267 O306 2.462 . S
Eu267 O307 2.373 . S
Eu267 O309 2.432 . S
Eu267 O310 2.291 1_655 S
Eu267 C331 2.787 . S
N268 C264 1.351 . S
N268 Eu267 2.562 . S
N268 C270 1.325 . S
C269 C263 1.404 . S
C269 C271 1.366 . S
C269 H277 0.930 . S
C270 N268 1.325 . S
C270 C271 1.416 . S
C270 H276 0.929 . S
C271 C269 1.366 . S
C271 C270 1.416 . S
C271 H273 0.930 . S
H272 C261 0.930 . S
H273 C271 0.930 . S
H274 C289 0.930 . S
H275 C296 0.930 . S
H276 C270 0.929 . S
H277 C269 0.930 . S
H278 C292 0.929 . S
H279 C259 0.931 . S
H280 C265 0.931 . S
H281 C266 0.931 . S
H282 C287 0.931 . S
H283 C262 0.929 . S
H284 C295 0.930 . S
N285 Eu256 2.600 . S
N285 C286 1.365 . S
N285 C289 1.319 . S
C286 N285 1.365 . S
C286 C288 1.405 . S
C286 C294 1.448 . S
C287 H282 0.931 . S
C287 C289 1.397 . S
C287 C290 1.367 . S
C288 C286 1.405 . S
C288 C290 1.403 . S
C288 C321 1.439 . S
C289 H274 0.930 . S
C289 N285 1.319 . S
C289 C287 1.397 . S
C290 C287 1.367 . S
C290 C288 1.403 . S
C290 H297 0.929 . S
N291 Eu256 2.562 . S
N291 C292 1.325 . S
N291 C294 1.351 . S
C292 H278 0.929 . S
C292 N291 1.325 . S
C292 C296 1.416 . S
C293 C294 1.430 . S
C293 C295 1.404 . S
C293 C322 1.387 . S
C294 C286 1.448 . S
C294 N291 1.351 . S
C294 C293 1.430 . S
C295 H284 0.930 . S
C295 C293 1.404 . S
C295 C296 1.366 . S
C296 H275 0.930 . S
C296 C292 1.416 . S
C296 C295 1.366 . S
H297 C290 0.929 . S
H298 C321 0.931 . S
H299 C322 0.931 . S
O300 Eu256 2.462 . S
O300 C320 1.252 . S
O301 Eu256 2.373 . S
O301 C312 1.249 . S
O302 Eu267 2.335 1_455 S
O302 C312 1.264 . S
O303 Eu256 2.432 . S
O303 C320 1.268 . S
O304 Eu256 2.291 . S
O304 C319 1.255 1_455 S
O305 Eu267 2.372 . S
O305 C319 1.257 . S
O306 Eu267 2.462 . S
O306 C331 1.252 . S
O307 Eu267 2.373 . S
O307 C323 1.249 . S
O308 Eu256 2.335 . S
O308 C323 1.264 1_455 S
O309 Eu267 2.432 . S
O309 C331 1.268 . S
O310 Eu267 2.291 1_455 S
O310 C330 1.255 . S
O311 Eu256 2.372 . S
O311 C330 1.257 . S
C312 O301 1.249 . S
C312 O302 1.264 . S
C313 C316 1.382 . S
C313 C318 1.390 . S
C313 C320 1.506 . S
C314 C315 1.398 . S
C314 C318 1.392 . S
C315 C314 1.398 . S
C315 C317 1.372 . S
C315 H332 0.931 . S
C316 C313 1.382 . S
C316 C317 1.390 . S
C316 H333 0.931 . S
C317 C315 1.372 . S
C317 C316 1.390 . S
C317 H334 0.929 . S
C318 C313 1.390 . S
C318 C314 1.392 . S
C318 H335 0.930 . S
C319 O304 1.255 1_655 S
C319 O305 1.257 . S
C320 Eu256 2.787 . S
C320 O300 1.252 . S
C320 O303 1.268 . S
C320 C313 1.506 . S
C321 C288 1.439 . S
C321 H298 0.931 . S
C321 C322 1.374 . S
C322 C293 1.387 . S
C322 H299 0.931 . S
C322 C321 1.374 . S
C323 O307 1.249 . S
C323 O308 1.264 1_655 S
C324 C327 1.382 . S
C324 C328 1.390 . S
C324 C331 1.506 . S
C325 C326 1.398 . S
C325 C328 1.392 . S
C326 C325 1.398 . S
C326 C329 1.372 . S
C326 H336 0.931 . S
C327 C324 1.382 . S
C327 C329 1.390 . S
C327 H337 0.931 . S
C328 C324 1.390 . S
C328 C325 1.392 . S
C328 H338 0.930 . S
C329 C326 1.372 . S
C329 C327 1.390 . S
C329 H339 0.929 . S
C330 O310 1.255 . S
C330 O311 1.257 . S
C331 Eu267 2.787 . S
C331 O306 1.252 . S
C331 O309 1.268 . S
C331 C324 1.506 . S
H332 C315 0.931 . S
H333 C316 0.931 . S
H334 C317 0.929 . S
H335 C318 0.930 . S
H336 C326 0.931 . S
H337 C327 0.931 . S
H338 C328 0.930 . S
H339 C329 0.929 . S
Eu340 N369 2.600 . S
Eu340 N375 2.562 . S
Eu340 O384 2.462 . S
Eu340 O385 2.373 . S
Eu340 O387 2.432 . S
Eu340 O388 2.291 . S
Eu340 O392 2.335 . S
Eu340 O395 2.372 . S
Eu340 C404 2.787 . S
C341 N342 1.365 . S
C341 C344 1.405 . S
C341 C348 1.448 . S
N342 C341 1.365 . S
N342 C345 1.319 . S
N342 Eu351 2.600 . S
C343 C345 1.397 . S
C343 C346 1.367 . S
C343 H363 0.931 . S
C344 C341 1.405 . S
C344 C346 1.403 . S
C344 C350 1.439 . S
C345 N342 1.319 . S
C345 C343 1.397 . S
C345 H356 0.930 . S
C346 C343 1.367 . S
C346 C344 1.403 . S
C346 H367 0.929 . S
C347 C348 1.430 . S
C347 C349 1.387 . S
C347 C353 1.404 . S
C348 C341 1.448 . S
C348 C347 1.430 . S
C348 N352 1.351 . S
C349 C347 1.387 . S
C349 C350 1.374 . S
C349 H364 0.931 . S
C350 C344 1.439 . S
C350 C349 1.374 . S
C350 H365 0.931 . S
Eu351 N342 2.600 . S
Eu351 N352 2.562 . S
Eu351 O386 2.335 . S
Eu351 O389 2.372 . S
Eu351 O390 2.462 . S
Eu351 O391 2.373 . S
Eu351 O393 2.432 . S
Eu351 O394 2.291 . S
Eu351 C415 2.787 . S
N352 C348 1.351 . S
N352 Eu351 2.562 . S
N352 C354 1.325 . S
C353 C347 1.404 . S
C353 C355 1.366 . S
C353 H361 0.930 . S
C354 N352 1.325 . S
C354 C355 1.416 . S
C354 H360 0.929 . S
C355 C353 1.366 . S
C355 C354 1.416 . S
C355 H357 0.930 . S
H356 C345 0.930 . S
H357 C355 0.930 . S
H358 C373 0.930 . S
H359 C380 0.930 . S
H360 C354 0.929 . S
H361 C353 0.930 . S
H362 C376 0.929 . S
H363 C343 0.931 . S
H364 C349 0.931 . S
H365 C350 0.931 . S
H366 C371 0.931 . S
H367 C346 0.929 . S
H368 C379 0.930 . S
N369 Eu340 2.600 . S
N369 C370 1.365 . S
N369 C373 1.319 . S
C370 N369 1.365 . S
C370 C372 1.405 . S
C370 C378 1.448 . S
C371 H366 0.931 . S
C371 C373 1.397 . S
C371 C374 1.367 . S
C372 C370 1.405 . S
C372 C374 1.403 . S
C372 C405 1.439 . S
C373 H358 0.930 . S
C373 N369 1.319 . S
C373 C371 1.397 . S
C374 C371 1.367 . S
C374 C372 1.403 . S
C374 H381 0.929 . S
N375 Eu340 2.562 . S
N375 C376 1.325 . S
N375 C378 1.351 . S
C376 H362 0.929 . S
C376 N375 1.325 . S
C376 C380 1.416 . S
C377 C378 1.430 . S
C377 C379 1.404 . S
C377 C406 1.387 . S
C378 C370 1.448 . S
C378 N375 1.351 . S
C378 C377 1.430 . S
C379 H368 0.930 . S
C379 C377 1.404 . S
C379 C380 1.366 . S
C380 H359 0.930 . S
C380 C376 1.416 . S
C380 C379 1.366 . S
H381 C374 0.929 . S
H382 C405 0.931 . S
H383 C406 0.931 . S
O384 Eu340 2.462 . S
O384 C404 1.252 . S
O385 Eu340 2.373 . S
O385 C396 1.249 . S
O386 Eu351 2.335 . S
O386 C396 1.264 . S
O387 Eu340 2.432 . S
O387 C404 1.268 . S
O388 Eu340 2.291 . S
O388 C403 1.255 . S
O389 Eu351 2.372 . S
O389 C403 1.257 . S
O390 Eu351 2.462 . S
O390 C415 1.252 . S
O391 Eu351 2.373 . S
O391 C407 1.249 . S
O392 Eu340 2.335 . S
O392 C407 1.264 . S
O393 Eu351 2.432 . S
O393 C415 1.268 . S
O394 Eu351 2.291 . S
O394 C414 1.255 . S
O395 Eu340 2.372 . S
O395 C414 1.257 . S
C396 O385 1.249 . S
C396 O386 1.264 . S
C397 C400 1.382 . S
C397 C402 1.390 . S
C397 C404 1.506 . S
C398 C399 1.398 . S
C398 C402 1.392 . S
C399 C398 1.398 . S
C399 C401 1.372 . S
C399 H416 0.931 . S
C400 C397 1.382 . S
C400 C401 1.390 . S
C400 H417 0.931 . S
C401 C399 1.372 . S
C401 C400 1.390 . S
C401 H418 0.929 . S
C402 C397 1.390 . S
C402 C398 1.392 . S
C402 H419 0.930 . S
C403 O388 1.255 . S
C403 O389 1.257 . S
C404 Eu340 2.787 . S
C404 O384 1.252 . S
C404 O387 1.268 . S
C404 C397 1.506 . S
C405 C372 1.439 . S
C405 H382 0.931 . S
C405 C406 1.374 . S
C406 C377 1.387 . S
C406 H383 0.931 . S
C406 C405 1.374 . S
C407 O391 1.249 . S
C407 O392 1.264 . S
C408 C411 1.382 . S
C408 C412 1.390 . S
C408 C415 1.506 . S
C409 C410 1.398 . S
C409 C412 1.392 . S
C410 C409 1.398 . S
C410 C413 1.372 . S
C410 H420 0.931 . S
C411 C408 1.382 . S
C411 C413 1.390 . S
C411 H421 0.931 . S
C412 C408 1.390 . S
C412 C409 1.392 . S
C412 H422 0.930 . S
C413 C410 1.372 . S
C413 C411 1.390 . S
C413 H423 0.929 . S
C414 O394 1.255 . S
C414 O395 1.257 . S
C415 Eu351 2.787 . S
C415 O390 1.252 . S
C415 O393 1.268 . S
C415 C408 1.506 . S
H416 C399 0.931 . S
H417 C400 0.931 . S
H418 C401 0.929 . S
H419 C402 0.930 . S
H420 C410 0.931 . S
H421 C411 0.931 . S
H422 C412 0.930 . S
H423 C413 0.929 . S
Eu424 N453 2.600 . S
Eu424 N459 2.562 . S
Eu424 O468 2.462 . S
Eu424 O469 2.373 . S
Eu424 O471 2.432 . S
Eu424 O472 2.291 . S
Eu424 O476 2.335 . S
Eu424 O479 2.372 . S
Eu424 C488 2.787 . S
C425 N426 1.365 . S
C425 C428 1.405 . S
C425 C432 1.448 . S
N426 C425 1.365 . S
N426 C429 1.319 . S
N426 Eu435 2.600 . S
C427 C429 1.397 . S
C427 C430 1.367 . S
C427 H447 0.931 . S
C428 C425 1.405 . S
C428 C430 1.403 . S
C428 C434 1.439 . S
C429 N426 1.319 . S
C429 C427 1.397 . S
C429 H440 0.930 . S
C430 C427 1.367 . S
C430 C428 1.403 . S
C430 H451 0.929 . S
C431 C432 1.430 . S
C431 C433 1.387 . S
C431 C437 1.404 . S
C432 C425 1.448 . S
C432 C431 1.430 . S
C432 N436 1.351 . S
C433 C431 1.387 . S
C433 C434 1.374 . S
C433 H448 0.931 . S
C434 C428 1.439 . S
C434 C433 1.374 . S
C434 H449 0.931 . S
Eu435 N426 2.600 . S
Eu435 N436 2.562 . S
Eu435 O470 2.335 1_655 S
Eu435 O473 2.372 . S
Eu435 O474 2.462 . S
Eu435 O475 2.373 . S
Eu435 O477 2.432 . S
Eu435 O478 2.291 1_655 S
Eu435 C499 2.787 . S
N436 C432 1.351 . S
N436 Eu435 2.562 . S
N436 C438 1.325 . S
C437 C431 1.404 . S
C437 C439 1.366 . S
C437 H445 0.930 . S
C438 N436 1.325 . S
C438 C439 1.416 . S
C438 H444 0.929 . S
C439 C437 1.366 . S
C439 C438 1.416 . S
C439 H441 0.930 . S
H440 C429 0.930 . S
H441 C439 0.930 . S
H442 C457 0.930 . S
H443 C464 0.930 . S
H444 C438 0.929 . S
H445 C437 0.930 . S
H446 C460 0.929 . S
H447 C427 0.931 . S
H448 C433 0.931 . S
H449 C434 0.931 . S
H450 C455 0.931 . S
H451 C430 0.929 . S
H452 C463 0.930 . S
N453 Eu424 2.600 . S
N453 C454 1.365 . S
N453 C457 1.319 . S
C454 N453 1.365 . S
C454 C456 1.405 . S
C454 C462 1.448 . S
C455 H450 0.931 . S
C455 C457 1.397 . S
C455 C458 1.367 . S
C456 C454 1.405 . S
C456 C458 1.403 . S
C456 C489 1.439 . S
C457 H442 0.930 . S
C457 N453 1.319 . S
C457 C455 1.397 . S
C458 C455 1.367 . S
C458 C456 1.403 . S
C458 H465 0.929 . S
N459 Eu424 2.562 . S
N459 C460 1.325 . S
N459 C462 1.351 . S
C460 H446 0.929 . S
C460 N459 1.325 . S
C460 C464 1.416 . S
C461 C462 1.430 . S
C461 C463 1.404 . S
C461 C490 1.387 . S
C462 C454 1.448 . S
C462 N459 1.351 . S
C462 C461 1.430 . S
C463 H452 0.930 . S
C463 C461 1.404 . S
C463 C464 1.366 . S
C464 H443 0.930 . S
C464 C460 1.416 . S
C464 C463 1.366 . S
H465 C458 0.929 . S
H466 C489 0.931 . S
H467 C490 0.931 . S
O468 Eu424 2.462 . S
O468 C488 1.252 . S
O469 Eu424 2.373 . S
O469 C480 1.249 . S
O470 Eu435 2.335 1_455 S
O470 C480 1.264 . S
O471 Eu424 2.432 . S
O471 C488 1.268 . S
O472 Eu424 2.291 . S
O472 C487 1.255 1_455 S
O473 Eu435 2.372 . S
O473 C487 1.257 . S
O474 Eu435 2.462 . S
O474 C499 1.252 . S
O475 Eu435 2.373 . S
O475 C491 1.249 . S
O476 Eu424 2.335 . S
O476 C491 1.264 1_455 S
O477 Eu435 2.432 . S
O477 C499 1.268 . S
O478 Eu435 2.291 1_455 S
O478 C498 1.255 . S
O479 Eu424 2.372 . S
O479 C498 1.257 . S
C480 O469 1.249 . S
C480 O470 1.264 . S
C481 C484 1.382 . S
C481 C486 1.390 . S
C481 C488 1.506 . S
C482 C483 1.398 . S
C482 C486 1.392 . S
C483 C482 1.398 . S
C483 C485 1.372 . S
C483 H500 0.931 . S
C484 C481 1.382 . S
C484 C485 1.390 . S
C484 H501 0.931 . S
C485 C483 1.372 . S
C485 C484 1.390 . S
C485 H502 0.929 . S
C486 C481 1.390 . S
C486 C482 1.392 . S
C486 H503 0.930 . S
C487 O472 1.255 1_655 S
C487 O473 1.257 . S
C488 Eu424 2.787 . S
C488 O468 1.252 . S
C488 O471 1.268 . S
C488 C481 1.506 . S
C489 C456 1.439 . S
C489 H466 0.931 . S
C489 C490 1.374 . S
C490 C461 1.387 . S
C490 H467 0.931 . S
C490 C489 1.374 . S
C491 O475 1.249 . S
C491 O476 1.264 1_655 S
C492 C495 1.382 . S
C492 C496 1.390 . S
C492 C499 1.506 . S
C493 C494 1.398 . S
C493 C496 1.392 . S
C494 C493 1.398 . S
C494 C497 1.372 . S
C494 H504 0.931 . S
C495 C492 1.382 . S
C495 C497 1.390 . S
C495 H505 0.931 . S
C496 C492 1.390 . S
C496 C493 1.392 . S
C496 H506 0.930 . S
C497 C494 1.372 . S
C497 C495 1.390 . S
C497 H507 0.929 . S
C498 O478 1.255 . S
C498 O479 1.257 . S
C499 Eu435 2.787 . S
C499 O474 1.252 . S
C499 O477 1.268 . S
C499 C492 1.506 . S
H500 C483 0.931 . S
H501 C484 0.931 . S
H502 C485 0.929 . S
H503 C486 0.930 . S
H504 C494 0.931 . S
H505 C495 0.931 . S
H506 C496 0.930 . S
H507 C497 0.929 . S
Eu508 N537 2.600 . S
Eu508 N543 2.562 . S
Eu508 O552 2.462 . S
Eu508 O553 2.373 . S
Eu508 O555 2.432 . S
Eu508 O556 2.291 . S
Eu508 O560 2.335 . S
Eu508 O563 2.372 . S
Eu508 C572 2.787 . S
C509 N510 1.365 . S
C509 C512 1.405 . S
C509 C516 1.448 . S
N510 C509 1.365 . S
N510 C513 1.319 . S
N510 Eu519 2.600 . S
C511 C513 1.397 . S
C511 C514 1.367 . S
C511 H531 0.931 . S
C512 C509 1.405 . S
C512 C514 1.403 . S
C512 C518 1.439 . S
C513 N510 1.319 . S
C513 C511 1.397 . S
C513 H524 0.930 . S
C514 C511 1.367 . S
C514 C512 1.403 . S
C514 H535 0.929 . S
C515 C516 1.430 . S
C515 C517 1.387 . S
C515 C521 1.404 . S
C516 C509 1.448 . S
C516 C515 1.430 . S
C516 N520 1.351 . S
C517 C515 1.387 . S
C517 C518 1.374 . S
C517 H532 0.931 . S
C518 C512 1.439 . S
C518 C517 1.374 . S
C518 H533 0.931 . S
Eu519 N510 2.600 . S
Eu519 N520 2.562 . S
Eu519 O554 2.335 . S
Eu519 O557 2.372 . S
Eu519 O558 2.462 . S
Eu519 O559 2.373 . S
Eu519 O561 2.432 . S
Eu519 O562 2.291 . S
Eu519 C583 2.787 . S
N520 C516 1.351 . S
N520 Eu519 2.562 . S
N520 C522 1.325 . S
C521 C515 1.404 . S
C521 C523 1.366 . S
C521 H529 0.930 . S
C522 N520 1.325 . S
C522 C523 1.416 . S
C522 H528 0.929 . S
C523 C521 1.366 . S
C523 C522 1.416 . S
C523 H525 0.930 . S
H524 C513 0.930 . S
H525 C523 0.930 . S
H526 C541 0.930 . S
H527 C548 0.930 . S
H528 C522 0.929 . S
H529 C521 0.930 . S
H530 C544 0.929 . S
H531 C511 0.931 . S
H532 C517 0.931 . S
H533 C518 0.931 . S
H534 C539 0.931 . S
H535 C514 0.929 . S
H536 C547 0.930 . S
N537 Eu508 2.600 . S
N537 C538 1.365 . S
N537 C541 1.319 . S
C538 N537 1.365 . S
C538 C540 1.405 . S
C538 C546 1.448 . S
C539 H534 0.931 . S
C539 C541 1.397 . S
C539 C542 1.367 . S
C540 C538 1.405 . S
C540 C542 1.403 . S
C540 C573 1.439 . S
C541 H526 0.930 . S
C541 N537 1.319 . S
C541 C539 1.397 . S
C542 C539 1.367 . S
C542 C540 1.403 . S
C542 H549 0.929 . S
N543 Eu508 2.562 . S
N543 C544 1.325 . S
N543 C546 1.351 . S
C544 H530 0.929 . S
C544 N543 1.325 . S
C544 C548 1.416 . S
C545 C546 1.430 . S
C545 C547 1.404 . S
C545 C574 1.387 . S
C546 C538 1.448 . S
C546 N543 1.351 . S
C546 C545 1.430 . S
C547 H536 0.930 . S
C547 C545 1.404 . S
C547 C548 1.366 . S
C548 H527 0.930 . S
C548 C544 1.416 . S
C548 C547 1.366 . S
H549 C542 0.929 . S
H550 C573 0.931 . S
H551 C574 0.931 . S
O552 Eu508 2.462 . S
O552 C572 1.252 . S
O553 Eu508 2.373 . S
O553 C564 1.249 . S
O554 Eu519 2.335 . S
O554 C564 1.264 . S
O555 Eu508 2.432 . S
O555 C572 1.268 . S
O556 Eu508 2.291 . S
O556 C571 1.255 . S
O557 Eu519 2.372 . S
O557 C571 1.257 . S
O558 Eu519 2.462 . S
O558 C583 1.252 . S
O559 Eu519 2.373 . S
O559 C575 1.249 . S
O560 Eu508 2.335 . S
O560 C575 1.264 . S
O561 Eu519 2.432 . S
O561 C583 1.268 . S
O562 Eu519 2.291 . S
O562 C582 1.255 . S
O563 Eu508 2.372 . S
O563 C582 1.257 . S
C564 O553 1.249 . S
C564 O554 1.264 . S
C565 C568 1.382 . S
C565 C570 1.390 . S
C565 C572 1.506 . S
C566 C567 1.398 . S
C566 C570 1.392 . S
C567 C566 1.398 . S
C567 C569 1.372 . S
C567 H584 0.931 . S
C568 C565 1.382 . S
C568 C569 1.390 . S
C568 H585 0.931 . S
C569 C567 1.372 . S
C569 C568 1.390 . S
C569 H586 0.929 . S
C570 C565 1.390 . S
C570 C566 1.392 . S
C570 H587 0.930 . S
C571 O556 1.255 . S
C571 O557 1.257 . S
C572 Eu508 2.787 . S
C572 O552 1.252 . S
C572 O555 1.268 . S
C572 C565 1.506 . S
C573 C540 1.439 . S
C573 H550 0.931 . S
C573 C574 1.374 . S
C574 C545 1.387 . S
C574 H551 0.931 . S
C574 C573 1.374 . S
C575 O559 1.249 . S
C575 O560 1.264 . S
C576 C579 1.382 . S
C576 C580 1.390 . S
C576 C583 1.506 . S
C577 C578 1.398 . S
C577 C580 1.392 . S
C578 C577 1.398 . S
C578 C581 1.372 . S
C578 H588 0.931 . S
C579 C576 1.382 . S
C579 C581 1.390 . S
C579 H589 0.931 . S
C580 C576 1.390 . S
C580 C577 1.392 . S
C580 H590 0.930 . S
C581 C578 1.372 . S
C581 C579 1.390 . S
C581 H591 0.929 . S
C582 O562 1.255 . S
C582 O563 1.257 . S
C583 Eu519 2.787 . S
C583 O558 1.252 . S
C583 O561 1.268 . S
C583 C576 1.506 . S
H584 C567 0.931 . S
H585 C568 0.931 . S
H586 C569 0.929 . S
H587 C570 0.930 . S
H588 C578 0.931 . S
H589 C579 0.931 . S
H590 C580 0.930 . S
H591 C581 0.929 . S
H592 C600 0.929 . S
H593 C602 0.930 . S
H594 C604 0.930 . S
H595 C607 0.929 . S
H596 C610 0.930 . S
H597 C612 0.976 . S
H598 C612 0.960 . S
H599 C612 0.960 . S
C600 H592 0.929 . S
C600 C601 1.377 . S
C600 C602 1.384 . S
C601 C600 1.377 . S
C601 C607 1.390 . S
C602 H593 0.930 . S
C602 C600 1.384 . S
C602 C603 1.372 . S
C603 C602 1.372 . S
C603 C604 1.400 . S
C603 C608 1.490 1_565 S
C604 H594 0.930 . S
C604 C603 1.400 . S
C604 C607 1.386 . S
H605 C621 0.930 . S
H606 C622 0.931 . S
C607 H595 0.929 . S
C607 C601 1.390 . S
C607 C604 1.386 . S
C608 C603 1.490 1_545 S
C608 C610 1.395 . S
C608 C611 1.403 . S
H609 C615 0.930 . S
C610 H596 0.930 . S
C610 C608 1.395 . S
C610 C613 1.403 . S
C611 C608 1.403 . S
C611 C612 1.524 1_545 S
C611 C615 1.400 . S
C612 H597 0.976 . S
C612 H598 0.960 . S
C612 H599 0.960 . S
C612 C611 1.524 1_565 S
C613 C610 1.403 . S
C613 C614 1.392 . S
C613 C617 1.495 . S
C614 C613 1.392 . S
C614 C615 1.385 . S
C614 C616 1.478 . S
C615 H609 0.930 . S
C615 C611 1.400 . S
C615 C614 1.385 . S
C616 C614 1.478 . S
C616 C618 1.381 . S
C616 C622 1.383 . S
C617 C613 1.495 . S
C617 H623 0.959 . S
C617 H624 0.961 . S
C617 H625 0.960 . S
C618 C616 1.381 . S
C618 C619 1.394 . S
C618 H626 0.930 . S
C619 C618 1.394 . S
C619 C620 1.383 . S
C619 H627 0.929 . S
C620 C619 1.383 . S
C620 C621 1.377 . S
C621 H605 0.930 . S
C621 C620 1.377 . S
C621 C622 1.379 . S
C622 H606 0.931 . S
C622 C616 1.383 . S
C622 C621 1.379 . S
H623 C617 0.959 . S
H624 C617 0.961 . S
H625 C617 0.960 . S
H626 C618 0.930 . S
H627 C619 0.929 . S
H628 C636 0.929 . S
H629 C638 0.930 . S
H630 C640 0.930 . S
H631 C643 0.929 . S
H632 C646 0.930 . S
H633 C648 0.960 . S
H634 C648 0.960 . S
H635 C648 0.960 . S
C636 H628 0.929 . S
C636 C637 1.377 . S
C636 C638 1.384 . S
C637 C636 1.377 . S
C637 C643 1.390 . S
C638 H629 0.930 . S
C638 C636 1.384 . S
C638 C639 1.372 . S
C639 C638 1.372 . S
C639 C640 1.400 . S
C639 C644 1.490 . S
C640 H630 0.930 . S
C640 C639 1.400 . S
C640 C643 1.386 . S
H641 C657 0.930 . S
H642 C658 0.931 . S
C643 H631 0.929 . S
C643 C637 1.390 . S
C643 C640 1.386 . S
C644 C639 1.490 . S
C644 C646 1.395 . S
C644 C647 1.403 . S
H645 C651 0.930 . S
C646 H632 0.930 . S
C646 C644 1.395 . S
C646 C649 1.403 . S
C647 C644 1.403 . S
C647 C648 1.524 . S
C647 C651 1.400 . S
C648 H633 0.960 . S
C648 H634 0.960 . S
C648 H635 0.960 . S
C648 C647 1.524 . S
C649 C646 1.403 . S
C649 C650 1.392 . S
C649 C653 1.495 . S
C650 C649 1.392 . S
C650 C651 1.385 . S
C650 C652 1.478 . S
C651 H645 0.930 . S
C651 C647 1.400 . S
C651 C650 1.385 . S
C652 C650 1.478 . S
C652 C654 1.381 . S
C652 C658 1.383 . S
C653 C649 1.495 . S
C653 H659 0.959 . S
C653 H660 0.961 . S
C653 H661 0.960 . S
C654 C652 1.381 . S
C654 C655 1.394 . S
C654 H662 0.930 . S
C655 C654 1.394 . S
C655 C656 1.383 . S
C655 H663 0.929 . S
C656 C655 1.383 . S
C656 C657 1.377 . S
C657 H641 0.930 . S
C657 C656 1.377 . S
C657 C658 1.379 . S
C658 H642 0.931 . S
C658 C652 1.383 . S
C658 C657 1.379 . S
H659 C653 0.959 . S
H660 C653 0.961 . S
H661 C653 0.960 . S
H662 C654 0.930 . S
H663 C655 0.929 . S
H664 C672 0.929 . S
H665 C674 0.930 . S
H666 C676 0.930 . S
H667 C679 0.929 . S
H668 C682 0.930 . S
H669 C684 0.960 . S
H670 C684 0.960 . S
H671 C684 0.960 . S
C672 H664 0.929 . S
C672 C673 1.377 . S
C672 C674 1.384 . S
C673 C672 1.377 . S
C673 C679 1.390 . S
C674 H665 0.930 . S
C674 C672 1.384 . S
C674 C675 1.372 . S
C675 C674 1.372 . S
C675 C676 1.400 . S
C675 C680 1.490 . S
C676 H666 0.930 . S
C676 C675 1.400 . S
C676 C679 1.386 . S
H677 C693 0.930 . S
H678 C694 0.931 . S
C679 H667 0.929 . S
C679 C673 1.390 . S
C679 C676 1.386 . S
C680 C675 1.490 . S
C680 C682 1.395 . S
C680 C683 1.403 . S
H681 C687 0.930 . S
C682 H668 0.930 . S
C682 C680 1.395 . S
C682 C685 1.403 . S
C683 C680 1.403 . S
C683 C684 1.524 . S
C683 C687 1.400 . S
C684 H669 0.960 . S
C684 H670 0.960 . S
C684 H671 0.960 . S
C684 C683 1.524 . S
C685 C682 1.403 . S
C685 C686 1.392 . S
C685 C689 1.495 . S
C686 C685 1.392 . S
C686 C687 1.385 . S
C686 C688 1.478 . S
C687 H681 0.930 . S
C687 C683 1.400 . S
C687 C686 1.385 . S
C688 C686 1.478 . S
C688 C690 1.381 . S
C688 C694 1.383 . S
C689 C685 1.495 . S
C689 H695 0.959 . S
C689 H696 0.961 . S
C689 H697 0.960 . S
C690 C688 1.381 . S
C690 C691 1.394 . S
C690 H698 0.930 . S
C691 C690 1.394 . S
C691 C692 1.383 . S
C691 H699 0.929 . S
C692 C691 1.383 . S
C692 C693 1.377 . S
C693 H677 0.930 . S
C693 C692 1.377 . S
C693 C694 1.379 . S
C694 H678 0.931 . S
C694 C688 1.383 . S
C694 C693 1.379 . S
H695 C689 0.959 . S
H696 C689 0.961 . S
H697 C689 0.960 . S
H698 C690 0.930 . S
H699 C691 0.929 . S
H700 C708 0.929 . S
H701 C710 0.930 . S
H702 C712 0.930 . S
H703 C715 0.929 . S
H704 C718 0.930 . S
H705 C720 0.960 . S
H706 C720 0.960 . S
H707 C720 0.960 . S
C708 H700 0.929 . S
C708 C709 1.377 . S
C708 C710 1.384 . S
C709 C708 1.377 . S
C709 C715 1.390 . S
C710 H701 0.930 . S
C710 C708 1.384 . S
C710 C711 1.372 . S
C711 C710 1.372 . S
C711 C712 1.400 . S
C711 C716 1.490 1_565 S
C712 H702 0.930 . S
C712 C711 1.400 . S
C712 C715 1.386 . S
H713 C729 0.930 . S
H714 C730 0.931 . S
C715 H703 0.929 . S
C715 C709 1.390 . S
C715 C712 1.386 . S
C716 C711 1.490 1_545 S
C716 C718 1.395 . S
C716 C719 1.403 . S
H717 C723 0.930 . S
C718 H704 0.930 . S
C718 C716 1.395 . S
C718 C721 1.403 . S
C719 C716 1.403 . S
C719 C720 1.524 1_545 S
C719 C723 1.400 . S
C720 H705 0.960 . S
C720 H706 0.960 . S
C720 H707 0.960 . S
C720 C719 1.524 1_565 S
C721 C718 1.403 . S
C721 C722 1.392 . S
C721 C725 1.495 . S
C722 C721 1.392 . S
C722 C723 1.385 . S
C722 C724 1.478 . S
C723 H717 0.930 . S
C723 C719 1.400 . S
C723 C722 1.385 . S
C724 C722 1.478 . S
C724 C726 1.381 . S
C724 C730 1.383 . S
C725 C721 1.495 . S
C725 H731 0.959 . S
C725 H732 0.961 . S
C725 H733 0.960 . S
C726 C724 1.381 . S
C726 C727 1.394 . S
C726 H734 0.930 . S
C727 C726 1.394 . S
C727 C728 1.383 . S
C727 H735 0.929 1_655 S
C728 C727 1.383 . S
C728 C729 1.377 . S
C729 H713 0.930 . S
C729 C728 1.377 . S
C729 C730 1.379 . S
C730 H714 0.931 . S
C730 C724 1.383 . S
C730 C729 1.379 . S
H731 C725 0.959 . S
H732 C725 0.961 . S
H733 C725 0.960 . S
H734 C726 0.930 . S
H735 C727 0.929 1_455 S
H736 C744 0.929 . S
H737 C746 0.930 . S
H738 C748 0.930 . S
H739 C751 0.929 . S
H740 C754 0.930 . S
H741 C756 0.960 . S
H742 C756 0.960 . S
H743 C756 0.960 . S
C744 H736 0.929 . S
C744 C745 1.377 . S
C744 C746 1.384 . S
C745 C744 1.377 . S
C745 C751 1.390 . S
C746 H737 0.930 . S
C746 C744 1.384 . S
C746 C747 1.372 . S
C747 C746 1.372 . S
C747 C748 1.400 . S
C747 C752 1.490 1_545 S
C748 H738 0.930 . S
C748 C747 1.400 . S
C748 C751 1.386 . S
H749 C765 0.930 . S
H750 C766 0.931 . S
C751 H739 0.929 . S
C751 C745 1.390 . S
C751 C748 1.386 . S
C752 C747 1.490 1_565 S
C752 C754 1.395 . S
C752 C755 1.403 . S
H753 C759 0.930 . S
C754 H740 0.930 . S
C754 C752 1.395 . S
C754 C757 1.403 . S
C755 C752 1.403 . S
C755 C756 1.524 1_565 S
C755 C759 1.400 . S
C756 H741 0.960 . S
C756 H742 0.960 . S
C756 H743 0.960 . S
C756 C755 1.524 1_545 S
C757 C754 1.403 . S
C757 C758 1.392 . S
C757 C761 1.495 . S
C758 C757 1.392 . S
C758 C759 1.385 . S
C758 C760 1.478 . S
C759 H753 0.930 . S
C759 C755 1.400 . S
C759 C758 1.385 . S
C760 C758 1.478 . S
C760 C762 1.381 . S
C760 C766 1.383 . S
C761 C757 1.495 . S
C761 H767 0.959 . S
C761 H768 0.961 . S
C761 H769 0.960 . S
C762 C760 1.381 . S
C762 C763 1.394 . S
C762 H770 0.930 . S
C763 C762 1.394 . S
C763 C764 1.383 . S
C763 H771 0.929 . S
C764 C763 1.383 . S
C764 C765 1.377 . S
C765 H749 0.930 . S
C765 C764 1.377 . S
C765 C766 1.379 . S
C766 H750 0.931 . S
C766 C760 1.383 . S
C766 C765 1.379 . S
H767 C761 0.959 . S
H768 C761 0.961 . S
H769 C761 0.960 . S
H770 C762 0.930 . S
H771 C763 0.929 . S
H772 C780 0.929 . S
H773 C782 0.930 . S
H774 C784 0.930 . S
H775 C787 0.929 . S
H776 C790 0.930 . S
H777 C792 0.960 . S
H778 C792 0.960 . S
H779 C792 0.960 . S
C780 H772 0.929 . S
C780 C781 1.377 . S
C780 C782 1.384 . S
C781 C780 1.377 . S
C781 C787 1.390 . S
C782 H773 0.930 . S
C782 C780 1.384 . S
C782 C783 1.372 . S
C783 C782 1.372 . S
C783 C784 1.400 . S
C783 C788 1.490 . S
C784 H774 0.930 . S
C784 C783 1.400 . S
C784 C787 1.386 . S
H785 C801 0.930 . S
H786 C802 0.931 . S
C787 H775 0.929 . S
C787 C781 1.390 . S
C787 C784 1.386 . S
C788 C783 1.490 . S
C788 C790 1.395 . S
C788 C791 1.403 . S
H789 C795 0.930 . S
C790 H776 0.930 . S
C790 C788 1.395 . S
C790 C793 1.403 . S
C791 C788 1.403 . S
C791 C792 1.524 . S
C791 C795 1.400 . S
C792 H777 0.960 . S
C792 H778 0.960 . S
C792 H779 0.960 . S
C792 C791 1.524 . S
C793 C790 1.403 . S
C793 C794 1.392 . S
C793 C797 1.495 . S
C794 C793 1.392 . S
C794 C795 1.385 . S
C794 C796 1.478 . S
C795 H789 0.930 . S
C795 C791 1.400 . S
C795 C794 1.385 . S
C796 C794 1.478 . S
C796 C798 1.381 . S
C796 C802 1.383 . S
C797 C793 1.495 . S
C797 H803 0.959 . S
C797 H804 0.961 . S
C797 H805 0.960 . S
C798 C796 1.381 . S
C798 C799 1.394 . S
C798 H806 0.930 . S
C799 C798 1.394 . S
C799 C800 1.383 . S
C799 H807 0.929 . S
C800 C799 1.383 . S
C800 C801 1.377 . S
C801 H785 0.930 . S
C801 C800 1.377 . S
C801 C802 1.379 . S
C802 H786 0.931 . S
C802 C796 1.383 . S
C802 C801 1.379 . S
H803 C797 0.959 . S
H804 C797 0.961 . S
H805 C797 0.960 . S
H806 C798 0.930 . S
H807 C799 0.929 . S
H808 C816 0.929 . S
H809 C818 0.930 . S
H810 C820 0.930 . S
H811 C823 0.929 . S
H812 C826 0.930 . S
H813 C828 0.960 . S
H814 C828 0.960 . S
H815 C828 0.960 . S
C816 H808 0.929 . S
C816 C817 1.377 . S
C816 C818 1.384 . S
C817 C816 1.377 . S
C817 C823 1.390 . S
C818 H809 0.930 . S
C818 C816 1.384 . S
C818 C819 1.372 . S
C819 C818 1.372 . S
C819 C820 1.400 . S
C819 C824 1.490 . S
C820 H810 0.930 . S
C820 C819 1.400 . S
C820 C823 1.386 . S
H821 C837 0.930 . S
H822 C838 0.931 . S
C823 H811 0.929 . S
C823 C817 1.390 . S
C823 C820 1.386 . S
C824 C819 1.490 . S
C824 C826 1.395 . S
C824 C827 1.403 . S
H825 C831 0.930 . S
C826 H812 0.930 . S
C826 C824 1.395 . S
C826 C829 1.403 . S
C827 C824 1.403 . S
C827 C828 1.524 . S
C827 C831 1.400 . S
C828 H813 0.960 . S
C828 H814 0.960 . S
C828 H815 0.960 . S
C828 C827 1.524 . S
C829 C826 1.403 . S
C829 C830 1.392 . S
C829 C833 1.495 . S
C830 C829 1.392 . S
C830 C831 1.385 . S
C830 C832 1.478 . S
C831 H825 0.930 . S
C831 C827 1.400 . S
C831 C830 1.385 . S
C832 C830 1.478 . S
C832 C834 1.381 . S
C832 C838 1.383 . S
C833 C829 1.495 . S
C833 H839 0.959 . S
C833 H840 0.961 . S
C833 H841 0.960 . S
C834 C832 1.381 . S
C834 C835 1.394 . S
C834 H842 0.930 . S
C835 C834 1.394 . S
C835 C836 1.383 . S
C835 H843 0.929 . S
C836 C835 1.383 . S
C836 C837 1.377 . S
C837 H821 0.930 . S
C837 C836 1.377 . S
C837 C838 1.379 . S
C838 H822 0.931 . S
C838 C832 1.383 . S
C838 C837 1.379 . S
H839 C833 0.959 . S
H840 C833 0.961 . S
H841 C833 0.960 . S
H842 C834 0.930 . S
H843 C835 0.929 . S
H844 C852 0.929 . S
H845 C854 0.930 . S
H846 C856 0.930 1_565 S
H847 C859 0.929 . S
H848 C862 0.930 1_545 S
H849 C864 0.960 . S
H850 C864 0.960 . S
H851 C864 0.960 . S
C852 H844 0.929 . S
C852 C853 1.377 . S
C852 C854 1.384 . S
C853 C852 1.377 . S
C853 C859 1.390 . S
C854 H845 0.930 . S
C854 C852 1.384 . S
C854 C855 1.372 . S
C855 C854 1.372 . S
C855 C856 1.400 . S
C855 C860 1.490 1_545 S
C856 H846 0.930 1_545 S
C856 C855 1.400 . S
C856 C859 1.386 . S
H857 C873 0.930 . S
H858 C874 0.931 . S
C859 H847 0.929 . S
C859 C853 1.390 . S
C859 C856 1.386 . S
C860 C855 1.490 1_565 S
C860 C862 1.395 . S
C860 C863 1.403 . S
H861 C867 0.930 . S
C862 H848 0.930 1_565 S
C862 C860 1.395 . S
C862 C865 1.403 . S
C863 C860 1.403 . S
C863 C864 1.524 . S
C863 C867 1.400 . S
C864 H849 0.960 . S
C864 H850 0.960 . S
C864 H851 0.960 . S
C864 C863 1.524 . S
C865 C862 1.403 . S
C865 C866 1.392 . S
C865 C869 1.495 . S
C866 C865 1.392 . S
C866 C867 1.385 . S
C866 C868 1.478 . S
C867 H861 0.930 . S
C867 C863 1.400 . S
C867 C866 1.385 . S
C868 C866 1.478 . S
C868 C870 1.381 . S
C868 C874 1.383 . S
C869 C865 1.495 . S
C869 H875 0.913 1_565 S
C869 H876 0.961 . S
C869 H877 0.960 . S
C870 C868 1.381 . S
C870 C871 1.394 . S
C870 H878 0.930 . S
C871 C870 1.394 . S
C871 C872 1.383 . S
C871 H879 0.929 . S
C872 C871 1.383 . S
C872 C873 1.377 . S
C873 H857 0.930 . S
C873 C872 1.377 . S
C873 C874 1.379 . S
C874 H858 0.931 . S
C874 C868 1.383 . S
C874 C873 1.379 . S
H875 C869 0.913 1_545 S
H876 C869 0.961 . S
H877 C869 0.960 . S
H878 C870 0.930 . S
H879 C871 0.929 . S
H880 C888 0.929 . S
H881 C890 0.930 . S
H882 C892 0.930 . S
H883 C895 0.929 . S
H884 C898 0.930 . S
H885 C900 0.960 . S
H886 C900 0.960 . S
H887 C900 0.960 . S
C888 H880 0.929 . S
C888 C889 1.377 . S
C888 C890 1.384 1_556 S
C889 C888 1.377 . S
C889 C895 1.390 . S
C890 H881 0.930 . S
C890 C888 1.384 1_554 S
C890 C891 1.372 . S
C891 C890 1.372 . S
C891 C892 1.400 . S
C891 C896 1.490 . S
C892 H882 0.930 . S
C892 C891 1.400 . S
C892 C895 1.386 1_554 S
H893 C909 0.930 . S
H894 C910 0.931 . S
C895 H883 0.929 . S
C895 C889 1.390 . S
C895 C892 1.386 1_556 S
C896 C891 1.490 . S
C896 C898 1.395 . S
C896 C899 1.403 . S
H897 C903 0.930 . S
C898 H884 0.930 . S
C898 C896 1.395 . S
C898 C901 1.403 . S
C899 C896 1.403 . S
C899 C900 1.524 . S
C899 C903 1.400 . S
C900 H885 0.960 . S
C900 H886 0.960 . S
C900 H887 0.960 . S
C900 C899 1.524 . S
C901 C898 1.403 . S
C901 C902 1.392 . S
C901 C905 1.495 . S
C902 C901 1.392 . S
C902 C903 1.385 . S
C902 C904 1.478 . S
C903 H897 0.930 . S
C903 C899 1.400 . S
C903 C902 1.385 . S
C904 C902 1.478 . S
C904 C906 1.381 . S
C904 C910 1.383 . S
C905 C901 1.495 . S
C905 H911 0.959 . S
C905 H912 0.961 . S
C905 H913 0.960 . S
C906 C904 1.381 . S
C906 C907 1.394 . S
C906 H914 0.930 . S
C907 C906 1.394 . S
C907 C908 1.383 . S
C907 H915 0.929 . S
C908 C907 1.383 . S
C908 C909 1.377 . S
C909 H893 0.930 . S
C909 C908 1.377 . S
C909 C910 1.379 . S
C910 H894 0.931 . S
C910 C904 1.383 . S
C910 C909 1.379 . S
H911 C905 0.959 . S
H912 C905 0.961 . S
H913 C905 0.960 . S
H914 C906 0.930 . S
H915 C907 0.929 . S
H916 C924 0.929 . S
H917 C926 0.930 . S
H918 C928 0.930 . S
H919 C931 0.929 . S
H920 C934 0.930 . S
H921 C936 0.960 . S
H922 C936 0.960 . S
H923 C936 0.960 . S
C924 H916 0.929 . S
C924 C925 1.377 . S
C924 C926 1.384 . S
C925 C924 1.377 . S
C925 C931 1.390 . S
C926 H917 0.930 . S
C926 C924 1.384 . S
C926 C927 1.372 . S
C927 C926 1.372 . S
C927 C928 1.400 . S
C927 C932 1.490 . S
C928 H918 0.930 . S
C928 C927 1.400 . S
C928 C931 1.386 . S
H929 C945 0.930 . S
H930 C946 0.931 . S
C931 H919 0.929 . S
C931 C925 1.390 . S
C931 C928 1.386 . S
C932 C927 1.490 . S
C932 C934 1.395 . S
C932 C935 1.403 . S
H933 C939 0.930 . S
C934 H920 0.930 . S
C934 C932 1.395 . S
C934 C937 1.403 . S
C935 C932 1.403 . S
C935 C936 1.524 . S
C935 C939 1.400 . S
C936 H921 0.960 . S
C936 H922 0.960 . S
C936 H923 0.960 . S
C936 C935 1.524 . S
C937 C934 1.403 . S
C937 C938 1.392 . S
C937 C941 1.495 . S
C938 C937 1.392 . S
C938 C939 1.385 . S
C938 C940 1.478 . S
C939 H933 0.930 . S
C939 C935 1.400 . S
C939 C938 1.385 . S
C940 C938 1.478 . S
C940 C942 1.381 . S
C940 C946 1.383 . S
C941 C937 1.495 . S
C941 H947 0.959 . S
C941 H948 0.961 . S
C941 H949 0.960 . S
C942 C940 1.381 . S
C942 C943 1.394 . S
C942 H950 0.930 . S
C943 C942 1.394 . S
C943 C944 1.383 . S
C943 H951 0.929 . S
C944 C943 1.383 . S
C944 C945 1.377 . S
C945 H929 0.930 . S
C945 C944 1.377 . S
C945 C946 1.379 . S
C946 H930 0.931 . S
C946 C940 1.383 . S
C946 C945 1.379 . S
H947 C941 0.959 . S
H948 C941 0.961 . S
H949 C941 0.960 . S
H950 C942 0.930 . S
H951 C943 0.929 . S
H952 C960 0.929 . S
H953 C962 0.930 . S
H954 C964 0.930 . S
H955 C967 0.929 . S
H956 C970 0.930 . S
H957 C972 0.960 . S
H958 C972 0.960 . S
H959 C972 0.960 . S
C960 H952 0.929 . S
C960 C961 1.377 . S
C960 C962 1.384 1_554 S
C961 C960 1.377 . S
C961 C967 1.390 . S
C962 H953 0.930 . S
C962 C960 1.384 1_556 S
C962 C963 1.372 . S
C963 C962 1.372 . S
C963 C964 1.400 . S
C963 C968 1.490 . S
C964 H954 0.930 . S
C964 C963 1.400 . S
C964 C967 1.386 1_556 S
H965 C981 0.930 . S
H966 C982 0.931 . S
C967 H955 0.929 . S
C967 C961 1.390 . S
C967 C964 1.386 1_554 S
C968 C963 1.490 . S
C968 C970 1.395 . S
C968 C971 1.403 . S
H969 C975 0.930 . S
C970 H956 0.930 . S
C970 C968 1.395 . S
C970 C973 1.403 . S
C971 C968 1.403 . S
C971 C972 1.524 . S
C971 C975 1.400 . S
C972 H957 0.960 . S
C972 H958 0.960 . S
C972 H959 0.960 . S
C972 C971 1.524 . S
C973 C970 1.403 . S
C973 C974 1.392 . S
C973 C977 1.495 . S
C974 C973 1.392 . S
C974 C975 1.385 . S
C974 C976 1.478 . S
C975 H969 0.930 . S
C975 C971 1.400 . S
C975 C974 1.385 . S
C976 C974 1.478 . S
C976 C978 1.381 . S
C976 C982 1.383 . S
C977 C973 1.495 . S
C977 H983 0.959 . S
C977 H984 0.961 . S
C977 H985 0.960 . S
C978 C976 1.381 . S
C978 C979 1.394 . S
C978 H986 0.930 . S
C979 C978 1.394 . S
C979 C980 1.383 . S
C979 H987 0.929 . S
C980 C979 1.383 . S
C980 C981 1.377 . S
C981 H965 0.930 . S
C981 C980 1.377 . S
C981 C982 1.379 . S
C982 H966 0.931 . S
C982 C976 1.383 . S
C982 C981 1.379 . S
H983 C977 0.959 . S
H984 C977 0.961 . S
H985 C977 0.960 . S
H986 C978 0.930 . S
H987 C979 0.929 . S
H988 C996 0.929 . S
H989 C998 0.930 . S
H990 C1000 0.930 . S
H991 C1003 0.929 . S
H992 C1006 0.930 . S
H993 C1008 0.960 . S
H994 C1008 0.960 . S
H995 C1008 0.960 . S
C996 H988 0.929 . S
C996 C997 1.377 . S
C996 C998 1.384 . S
C997 C996 1.377 . S
C997 C1003 1.390 . S
C998 H989 0.930 . S
C998 C996 1.384 . S
C998 C999 1.372 . S
C999 C998 1.372 . S
C999 C1000 1.400 . S
C999 C1004 1.490 . S
C1000 H990 0.930 . S
C1000 C999 1.400 . S
C1000 C1003 1.386 . S
H1001 C1017 0.930 . S
H1002 C1018 0.931 . S
C1003 H991 0.929 . S
C1003 C997 1.390 . S
C1003 C1000 1.386 . S
C1004 C999 1.490 . S
C1004 C1006 1.395 . S
C1004 C1007 1.403 . S
H1005 C1011 0.930 . S
C1006 H992 0.930 . S
C1006 C1004 1.395 . S
C1006 C1009 1.403 . S
C1007 C1004 1.403 . S
C1007 C1008 1.524 . S
C1007 C1011 1.400 . S
C1008 H993 0.960 . S
C1008 H994 0.960 . S
C1008 H995 0.960 . S
C1008 C1007 1.524 . S
C1009 C1006 1.403 . S
C1009 C1010 1.392 . S
C1009 C1013 1.495 . S
C1010 C1009 1.392 . S
C1010 C1011 1.385 . S
C1010 C1012 1.478 . S
C1011 H1005 0.930 . S
C1011 C1007 1.400 . S
C1011 C1010 1.385 . S
C1012 C1010 1.478 . S
C1012 C1014 1.381 . S
C1012 C1018 1.383 . S
C1013 C1009 1.495 . S
C1013 H1019 0.959 . S
C1013 H1020 0.961 . S
C1013 H1021 0.960 . S
C1014 C1012 1.381 . S
C1014 C1015 1.394 . S
C1014 H1022 0.930 . S
C1015 C1014 1.394 . S
C1015 C1016 1.383 . S
C1015 H1023 0.929 . S
C1016 C1015 1.383 . S
C1016 C1017 1.377 . S
C1017 H1001 0.930 . S
C1017 C1016 1.377 . S
C1017 C1018 1.379 . S
C1018 H1002 0.931 . S
C1018 C1012 1.383 . S
C1018 C1017 1.379 . S
H1019 C1013 0.959 . S
H1020 C1013 0.961 . S
H1021 C1013 0.960 . S
H1022 C1014 0.930 . S
H1023 C1015 0.929 . S
H1024 C1032 0.929 . S
H1025 C1034 0.930 . S
H1026 C1036 0.930 . S
H1027 C1039 0.930 . S
H1028 C1042 0.930 . S
H1029 C1044 0.960 . S
H1030 C1044 0.960 . S
H1031 C1044 0.960 . S
C1032 H1024 0.929 . S
C1032 C1033 1.377 . S
C1032 C1034 1.384 1_554 S
C1033 C1032 1.377 . S
C1033 C1039 1.393 . S
C1034 H1025 0.930 . S
C1034 C1032 1.384 1_556 S
C1034 C1035 1.372 . S
C1035 C1034 1.372 . S
C1035 C1036 1.400 . S
C1035 C1040 1.490 . S
C1036 H1026 0.930 . S
C1036 C1035 1.400 . S
C1036 C1039 1.381 1_556 S
H1037 C1053 0.930 . S
H1038 C1054 0.931 . S
C1039 H1027 0.930 . S
C1039 C1033 1.393 . S
C1039 C1036 1.381 1_554 S
C1040 C1035 1.490 . S
C1040 C1042 1.395 . S
C1040 C1043 1.403 . S
H1041 C1047 0.930 . S
C1042 H1028 0.930 . S
C1042 C1040 1.395 . S
C1042 C1045 1.403 . S
C1043 C1040 1.403 . S
C1043 C1044 1.524 . S
C1043 C1047 1.400 . S
C1044 H1029 0.960 . S
C1044 H1030 0.960 . S
C1044 H1031 0.960 . S
C1044 C1043 1.524 . S
C1045 C1042 1.403 . S
C1045 C1046 1.392 . S
C1045 C1049 1.495 . S
C1046 C1045 1.392 . S
C1046 C1047 1.385 . S
C1046 C1048 1.478 . S
C1047 H1041 0.930 . S
C1047 C1043 1.400 . S
C1047 C1046 1.385 . S
C1048 C1046 1.478 . S
C1048 C1050 1.381 . S
C1048 C1054 1.383 . S
C1049 C1045 1.495 . S
C1049 H1055 0.959 . S
C1049 H1056 0.961 . S
C1049 H1057 0.960 . S
C1050 C1048 1.381 . S
C1050 C1051 1.394 . S
C1050 H1058 0.930 . S
C1051 C1050 1.394 . S
C1051 C1052 1.383 . S
C1051 H1059 0.929 . S
C1052 C1051 1.383 . S
C1052 C1053 1.377 . S
C1053 H1037 0.930 . S
C1053 C1052 1.377 . S
C1053 C1054 1.379 . S
C1054 H1038 0.931 . S
C1054 C1048 1.383 . S
C1054 C1053 1.379 . S
H1055 C1049 0.959 . S
H1056 C1049 0.961 . S
H1057 C1049 0.960 . S
H1058 C1050 0.930 . S
H1059 C1051 0.929 . S
H1060 C1068 0.929 . S
H1061 C1070 0.930 . S
H1062 C1072 0.930 . S
H1063 C1075 0.929 . S
H1064 C1078 0.930 . S
H1065 C1080 0.960 . S
H1066 C1080 0.960 . S
H1067 C1080 0.960 . S
C1068 H1060 0.929 . S
C1068 C1069 1.377 . S
C1068 C1070 1.384 . S
C1069 C1068 1.377 . S
C1069 C1075 1.390 . S
C1070 H1061 0.930 . S
C1070 C1068 1.384 . S
C1070 C1071 1.372 . S
C1071 C1070 1.372 . S
C1071 C1072 1.400 . S
C1071 C1076 1.490 . S
C1072 H1062 0.930 . S
C1072 C1071 1.400 . S
C1072 C1075 1.386 . S
H1073 C1089 0.930 . S
H1074 C1090 0.931 . S
C1075 H1063 0.929 . S
C1075 C1069 1.390 . S
C1075 C1072 1.386 . S
C1076 C1071 1.490 . S
C1076 C1078 1.395 . S
C1076 C1079 1.403 . S
H1077 C1083 0.930 . S
C1078 H1064 0.930 . S
C1078 C1076 1.395 . S
C1078 C1081 1.403 . S
C1079 C1076 1.403 . S
C1079 C1080 1.524 . S
C1079 C1083 1.400 . S
C1080 H1065 0.960 . S
C1080 H1066 0.960 . S
C1080 H1067 0.960 . S
C1080 C1079 1.524 . S
C1081 C1078 1.403 . S
C1081 C1082 1.392 . S
C1081 C1085 1.495 . S
C1082 C1081 1.392 . S
C1082 C1083 1.385 . S
C1082 C1084 1.478 . S
C1083 H1077 0.930 . S
C1083 C1079 1.400 . S
C1083 C1082 1.385 . S
C1084 C1082 1.478 . S
C1084 C1086 1.381 . S
C1084 C1090 1.383 . S
C1085 C1081 1.495 . S
C1085 H1091 0.959 . S
C1085 H1092 0.961 . S
C1085 H1093 0.960 . S
C1086 C1084 1.381 . S
C1086 C1087 1.394 . S
C1086 H1094 0.930 . S
C1087 C1086 1.394 . S
C1087 C1088 1.383 . S
C1087 H1095 0.929 . S
C1088 C1087 1.383 . S
C1088 C1089 1.377 . S
C1089 H1073 0.930 . S
C1089 C1088 1.377 . S
C1089 C1090 1.379 . S
C1090 H1074 0.931 . S
C1090 C1084 1.383 . S
C1090 C1089 1.379 . S
H1091 C1085 0.959 . S
H1092 C1085 0.961 . S
H1093 C1085 0.960 . S
H1094 C1086 0.930 . S
H1095 C1087 0.929 . S
H1096 C1104 0.929 . S
H1097 C1106 0.930 . S
H1098 C1108 0.930 . S
H1099 C1111 0.929 . S
H1100 C1114 0.930 . S
H1101 C1116 0.960 . S
H1102 C1116 0.960 . S
H1103 C1116 0.960 . S
C1104 H1096 0.929 . S
C1104 C1105 1.377 . S
C1104 C1106 1.384 1_556 S
C1105 C1104 1.377 . S
C1105 C1111 1.390 . S
C1106 H1097 0.930 . S
C1106 C1104 1.384 1_554 S
C1106 C1107 1.372 . S
C1107 C1106 1.372 . S
C1107 C1108 1.400 . S
C1107 C1112 1.490 . S
C1108 H1098 0.930 . S
C1108 C1107 1.400 . S
C1108 C1111 1.386 1_554 S
H1109 C1125 0.930 . S
H1110 C1126 0.931 . S
C1111 H1099 0.929 . S
C1111 C1105 1.390 . S
C1111 C1108 1.386 1_556 S
C1112 C1107 1.490 . S
C1112 C1114 1.395 . S
C1112 C1115 1.403 . S
H1113 C1119 0.930 . S
C1114 H1100 0.930 . S
C1114 C1112 1.395 . S
C1114 C1117 1.403 . S
C1115 C1112 1.403 . S
C1115 C1116 1.524 . S
C1115 C1119 1.400 . S
C1116 H1101 0.960 . S
C1116 H1102 0.960 . S
C1116 H1103 0.960 . S
C1116 C1115 1.524 . S
C1117 C1114 1.403 . S
C1117 C1118 1.392 . S
C1117 C1121 1.495 . S
C1118 C1117 1.392 . S
C1118 C1119 1.385 . S
C1118 C1120 1.478 . S
C1119 H1113 0.930 . S
C1119 C1115 1.400 . S
C1119 C1118 1.385 . S
C1120 C1118 1.478 . S
C1120 C1122 1.381 . S
C1120 C1126 1.383 . S
C1121 C1117 1.495 . S
C1121 H1127 0.959 . S
C1121 H1128 0.961 . S
C1121 H1129 0.960 . S
C1122 C1120 1.381 . S
C1122 C1123 1.394 . S
C1122 H1130 0.930 . S
C1123 C1122 1.394 . S
C1123 C1124 1.383 . S
C1123 H1131 0.929 . S
C1124 C1123 1.383 . S
C1124 C1125 1.377 . S
C1125 H1109 0.930 . S
C1125 C1124 1.377 . S
C1125 C1126 1.379 . S
C1126 H1110 0.931 . S
C1126 C1120 1.383 . S
C1126 C1125 1.379 . S
H1127 C1121 0.959 . S
H1128 C1121 0.961 . S
H1129 C1121 0.960 . S
H1130 C1122 0.930 . S
H1131 C1123 0.929 . S
H1132 C1140 0.929 . S
H1133 C1142 0.930 . S
H1134 C1144 0.930 . S
H1135 C1147 0.929 . S
H1136 C1150 0.930 . S
H1137 C1152 0.960 . S
H1138 C1152 0.960 . S
H1139 C1152 0.960 . S
C1140 H1132 0.929 . S
C1140 C1141 1.377 . S
C1140 C1142 1.384 . S
C1141 C1140 1.377 . S
C1141 C1147 1.390 . S
C1142 H1133 0.930 . S
C1142 C1140 1.384 . S
C1142 C1143 1.372 . S
C1143 C1142 1.372 . S
C1143 C1144 1.400 . S
C1143 C1148 1.490 . S
C1144 H1134 0.930 . S
C1144 C1143 1.400 . S
C1144 C1147 1.386 . S
H1145 C1161 0.930 . S
H1146 C1162 0.931 . S
C1147 H1135 0.929 . S
C1147 C1141 1.390 . S
C1147 C1144 1.386 . S
C1148 C1143 1.490 . S
C1148 C1150 1.395 . S
C1148 C1151 1.403 . S
H1149 C1155 0.930 . S
C1150 H1136 0.930 . S
C1150 C1148 1.395 . S
C1150 C1153 1.403 . S
C1151 C1148 1.403 . S
C1151 C1152 1.524 . S
C1151 C1155 1.400 . S
C1152 H1137 0.960 . S
C1152 H1138 0.960 . S
C1152 H1139 0.960 . S
C1152 C1151 1.524 . S
C1153 C1150 1.403 . S
C1153 C1154 1.392 . S
C1153 C1157 1.495 . S
C1154 C1153 1.392 . S
C1154 C1155 1.385 . S
C1154 C1156 1.478 . S
C1155 H1149 0.930 . S
C1155 C1151 1.400 . S
C1155 C1154 1.385 . S
C1156 C1154 1.478 . S
C1156 C1158 1.381 . S
C1156 C1162 1.383 . S
C1157 C1153 1.495 . S
C1157 H1163 0.959 . S
C1157 H1164 0.961 . S
C1157 H1165 0.960 . S
C1158 C1156 1.381 . S
C1158 C1159 1.394 . S
C1158 H1166 0.930 . S
C1159 C1158 1.394 . S
C1159 C1160 1.383 . S
C1159 H1167 0.929 . S
C1160 C1159 1.383 . S
C1160 C1161 1.377 . S
C1161 H1145 0.930 . S
C1161 C1160 1.377 . S
C1161 C1162 1.379 . S
C1162 H1146 0.931 . S
C1162 C1156 1.383 . S
C1162 C1161 1.379 . S
H1163 C1157 0.959 . S
H1164 C1157 0.961 . S
H1165 C1157 0.960 . S
H1166 C1158 0.930 . S
H1167 C1159 0.929 . S
H1168 C1176 0.929 . S
H1169 C1178 0.930 . S
H1170 C1180 0.930 . S
H1171 C1183 0.929 . S
H1172 C1186 0.930 . S
H1173 C1188 0.960 . S
H1174 C1188 0.960 . S
H1175 C1188 0.960 . S
C1176 H1168 0.929 . S
C1176 C1177 1.377 . S
C1176 C1178 1.384 . S
C1177 C1176 1.377 . S
C1177 C1183 1.390 . S
C1178 H1169 0.930 . S
C1178 C1176 1.384 . S
C1178 C1179 1.372 . S
C1179 C1178 1.372 . S
C1179 C1180 1.400 . S
C1179 C1184 1.490 . S
C1180 H1170 0.930 . S
C1180 C1179 1.400 . S
C1180 C1183 1.386 . S
H1181 C1197 0.930 . S
H1182 C1198 0.931 . S
C1183 H1171 0.929 . S
C1183 C1177 1.390 . S
C1183 C1180 1.386 . S
C1184 C1179 1.490 . S
C1184 C1186 1.395 . S
C1184 C1187 1.403 . S
H1185 C1191 0.930 . S
C1186 H1172 0.930 . S
C1186 C1184 1.395 . S
C1186 C1189 1.403 . S
C1187 C1184 1.403 . S
C1187 C1188 1.524 . S
C1187 C1191 1.400 . S
C1188 H1173 0.960 . S
C1188 H1174 0.960 . S
C1188 H1175 0.960 . S
C1188 C1187 1.524 . S
C1189 C1186 1.403 . S
C1189 C1190 1.392 . S
C1189 C1193 1.495 . S
C1190 C1189 1.392 . S
C1190 C1191 1.385 . S
C1190 C1192 1.478 . S
C1191 H1185 0.930 . S
C1191 C1187 1.400 . S
C1191 C1190 1.385 . S
C1192 C1190 1.478 . S
C1192 C1194 1.381 . S
C1192 C1198 1.383 . S
C1193 C1189 1.495 . S
C1193 H1199 0.959 . S
C1193 H1200 0.961 . S
C1193 H1201 0.960 . S
C1194 C1192 1.381 . S
C1194 C1195 1.394 . S
C1194 H1202 0.930 . S
C1195 C1194 1.394 . S
C1195 C1196 1.383 . S
C1195 H1203 0.929 . S
C1196 C1195 1.383 . S
C1196 C1197 1.377 . S
C1197 H1181 0.930 . S
C1197 C1196 1.377 . S
C1197 C1198 1.379 . S
C1198 H1182 0.931 . S
C1198 C1192 1.383 . S
C1198 C1197 1.379 . S
H1199 C1193 0.959 . S
H1200 C1193 0.961 . S
H1201 C1193 0.960 . S
H1202 C1194 0.930 . S
H1203 C1195 0.929 . S
H1204 C1212 0.929 . S
H1205 C1214 0.930 . S
H1206 C1216 0.930 . S
H1207 C1219 0.929 . S
H1208 C1222 0.930 . S
H1209 C1224 0.960 . S
H1210 C1224 0.960 . S
H1211 C1224 0.960 . S
C1212 H1204 0.929 . S
C1212 C1213 1.377 . S
C1212 C1214 1.384 . S
C1213 C1212 1.377 . S
C1213 C1219 1.390 . S
C1214 H1205 0.930 . S
C1214 C1212 1.384 . S
C1214 C1215 1.372 . S
C1215 C1214 1.372 . S
C1215 C1216 1.400 . S
C1215 C1220 1.490 . S
C1216 H1206 0.930 . S
C1216 C1215 1.400 . S
C1216 C1219 1.386 . S
H1217 C1233 0.930 . S
H1218 C1234 0.931 . S
C1219 H1207 0.929 . S
C1219 C1213 1.390 . S
C1219 C1216 1.386 . S
C1220 C1215 1.490 . S
C1220 C1222 1.395 . S
C1220 C1223 1.403 . S
H1221 C1227 0.930 . S
C1222 H1208 0.930 . S
C1222 C1220 1.395 . S
C1222 C1225 1.403 . S
C1223 C1220 1.403 . S
C1223 C1224 1.524 . S
C1223 C1227 1.400 . S
C1224 H1209 0.960 . S
C1224 H1210 0.960 . S
C1224 H1211 0.960 . S
C1224 C1223 1.524 . S
C1225 C1222 1.403 . S
C1225 C1226 1.392 . S
C1225 C1229 1.495 . S
C1226 C1225 1.392 . S
C1226 C1227 1.385 . S
C1226 C1228 1.478 . S
C1227 H1221 0.930 . S
C1227 C1223 1.400 . S
C1227 C1226 1.385 . S
C1228 C1226 1.478 . S
C1228 C1230 1.381 . S
C1228 C1234 1.383 . S
C1229 C1225 1.495 . S
C1229 H1235 0.959 . S
C1229 H1236 0.961 . S
C1229 H1237 0.960 . S
C1230 C1228 1.381 . S
C1230 C1231 1.394 . S
C1230 H1238 0.930 . S
C1231 C1230 1.394 . S
C1231 C1232 1.383 . S
C1231 H1239 0.929 . S
C1232 C1231 1.383 . S
C1232 C1233 1.377 . S
C1233 H1217 0.930 . S
C1233 C1232 1.377 . S
C1233 C1234 1.379 . S
C1234 H1218 0.931 . S
C1234 C1228 1.383 . S
C1234 C1233 1.379 . S
H1235 C1229 0.959 . S
H1236 C1229 0.961 . S
H1237 C1229 0.960 . S
H1238 C1230 0.930 . S
H1239 C1231 0.929 . S
H1240 C1248 0.929 . S
H1241 C1250 0.930 . S
H1242 C1252 0.930 . S
H1243 C1255 0.929 . S
H1244 C1258 0.930 . S
H1245 C1260 0.960 . S
H1246 C1260 0.960 . S
H1247 C1260 0.960 . S
C1248 H1240 0.929 . S
C1248 C1249 1.377 . S
C1248 C1250 1.384 . S
C1249 C1248 1.377 . S
C1249 C1255 1.390 . S
C1250 H1241 0.930 . S
C1250 C1248 1.384 . S
C1250 C1251 1.372 . S
C1251 C1250 1.372 . S
C1251 C1252 1.400 . S
C1251 C1256 1.490 . S
C1252 H1242 0.930 . S
C1252 C1251 1.400 . S
C1252 C1255 1.386 . S
H1253 C1269 0.930 . S
H1254 C1270 0.931 . S
C1255 H1243 0.929 . S
C1255 C1249 1.390 . S
C1255 C1252 1.386 . S
C1256 C1251 1.490 . S
C1256 C1258 1.395 . S
C1256 C1259 1.403 . S
H1257 C1263 0.930 . S
C1258 H1244 0.930 . S
C1258 C1256 1.395 . S
C1258 C1261 1.403 . S
C1259 C1256 1.403 . S
C1259 C1260 1.524 . S
C1259 C1263 1.400 . S
C1260 H1245 0.960 . S
C1260 H1246 0.960 . S
C1260 H1247 0.960 . S
C1260 C1259 1.524 . S
C1261 C1258 1.403 . S
C1261 C1262 1.392 . S
C1261 C1265 1.495 . S
C1262 C1261 1.392 . S
C1262 C1263 1.385 . S
C1262 C1264 1.478 . S
C1263 H1257 0.930 . S
C1263 C1259 1.400 . S
C1263 C1262 1.385 . S
C1264 C1262 1.478 . S
C1264 C1266 1.381 . S
C1264 C1270 1.383 . S
C1265 C1261 1.495 . S
C1265 H1271 0.959 . S
C1265 H1272 0.961 . S
C1265 H1273 0.960 . S
C1266 C1264 1.381 . S
C1266 C1267 1.394 . S
C1266 H1274 0.930 . S
C1267 C1266 1.394 . S
C1267 C1268 1.383 . S
C1267 H1275 0.929 . S
C1268 C1267 1.383 . S
C1268 C1269 1.377 . S
C1269 H1253 0.930 . S
C1269 C1268 1.377 . S
C1269 C1270 1.379 . S
C1270 H1254 0.931 . S
C1270 C1264 1.383 . S
C1270 C1269 1.379 . S
H1271 C1265 0.959 . S
H1272 C1265 0.961 . S
H1273 C1265 0.960 . S
H1274 C1266 0.930 . S
H1275 C1267 0.929 . S
H1276 C1284 0.929 . S
H1277 C1286 0.930 . S
H1278 C1288 0.930 . S
H1279 C1291 0.929 . S
H1280 C1294 0.930 . S
H1281 C1296 0.960 . S
H1282 C1296 0.960 . S
H1283 C1296 0.960 . S
C1284 H1276 0.929 . S
C1284 C1285 1.377 . S
C1284 C1286 1.384 . S
C1285 C1284 1.377 . S
C1285 C1291 1.390 . S
C1286 H1277 0.930 . S
C1286 C1284 1.384 . S
C1286 C1287 1.372 . S
C1287 C1286 1.372 . S
C1287 C1288 1.400 . S
C1287 C1292 1.490 . S
C1288 H1278 0.930 . S
C1288 C1287 1.400 . S
C1288 C1291 1.386 . S
H1289 C1305 0.930 . S
H1290 C1306 0.931 . S
C1291 H1279 0.929 . S
C1291 C1285 1.390 . S
C1291 C1288 1.386 . S
C1292 C1287 1.490 . S
C1292 C1294 1.395 . S
C1292 C1295 1.403 . S
H1293 C1299 0.930 . S
C1294 H1280 0.930 . S
C1294 C1292 1.395 . S
C1294 C1297 1.403 . S
C1295 C1292 1.403 . S
C1295 C1296 1.524 . S
C1295 C1299 1.400 . S
C1296 H1281 0.960 . S
C1296 H1282 0.960 . S
C1296 H1283 0.960 . S
C1296 C1295 1.524 . S
C1297 C1294 1.403 . S
C1297 C1298 1.392 . S
C1297 C1301 1.495 . S
C1298 C1297 1.392 . S
C1298 C1299 1.385 . S
C1298 C1300 1.478 . S
C1299 H1293 0.930 . S
C1299 C1295 1.400 . S
C1299 C1298 1.385 . S
C1300 C1298 1.478 . S
C1300 C1302 1.381 . S
C1300 C1306 1.383 . S
C1301 C1297 1.495 . S
C1301 H1307 0.959 . S
C1301 H1308 0.961 . S
C1301 H1309 0.960 . S
C1302 C1300 1.381 . S
C1302 C1303 1.394 . S
C1302 H1310 0.930 . S
C1303 C1302 1.394 . S
C1303 C1304 1.383 . S
C1303 H1311 0.929 1_655 S
C1304 C1303 1.383 . S
C1304 C1305 1.377 . S
C1305 H1289 0.930 . S
C1305 C1304 1.377 . S
C1305 C1306 1.379 . S
C1306 H1290 0.931 . S
C1306 C1300 1.383 . S
C1306 C1305 1.379 . S
H1307 C1301 0.959 . S
H1308 C1301 0.961 . S
H1309 C1301 0.960 . S
H1310 C1302 0.930 . S
H1311 C1303 0.929 1_455 S
H1312 C1320 0.929 . S
H1313 C1322 0.930 . S
H1314 C1324 0.930 . S
H1315 C1327 0.929 . S
H1316 C1330 0.930 . S
H1317 C1332 0.960 . S
H1318 C1332 0.960 . S
H1319 C1332 0.960 . S
C1320 H1312 0.929 . S
C1320 C1321 1.377 . S
C1320 C1322 1.384 . S
C1321 C1320 1.377 . S
C1321 C1327 1.390 . S
C1322 H1313 0.930 . S
C1322 C1320 1.384 . S
C1322 C1323 1.372 . S
C1323 C1322 1.372 . S
C1323 C1324 1.400 . S
C1323 C1328 1.490 . S
C1324 H1314 0.930 . S
C1324 C1323 1.400 . S
C1324 C1327 1.386 . S
H1325 C1341 0.930 . S
H1326 C1342 0.931 . S
C1327 H1315 0.929 . S
C1327 C1321 1.390 . S
C1327 C1324 1.386 . S
C1328 C1323 1.490 . S
C1328 C1330 1.395 . S
C1328 C1331 1.403 . S
H1329 C1335 0.930 . S
C1330 H1316 0.930 . S
C1330 C1328 1.395 . S
C1330 C1333 1.403 . S
C1331 C1328 1.403 . S
C1331 C1332 1.524 . S
C1331 C1335 1.400 . S
C1332 H1317 0.960 . S
C1332 H1318 0.960 . S
C1332 H1319 0.960 . S
C1332 C1331 1.524 . S
C1333 C1330 1.403 . S
C1333 C1334 1.392 . S
C1333 C1337 1.495 . S
C1334 C1333 1.392 . S
C1334 C1335 1.385 . S
C1334 C1336 1.478 . S
C1335 H1329 0.930 . S
C1335 C1331 1.400 . S
C1335 C1334 1.385 . S
C1336 C1334 1.478 . S
C1336 C1338 1.381 . S
C1336 C1342 1.383 . S
C1337 C1333 1.495 . S
C1337 H1343 0.959 . S
C1337 H1344 0.961 . S
C1337 H1345 0.960 . S
C1338 C1336 1.381 . S
C1338 C1339 1.394 . S
C1338 H1346 0.930 . S
C1339 C1338 1.394 . S
C1339 C1340 1.383 . S
C1339 H1347 0.929 . S
C1340 C1339 1.383 . S
C1340 C1341 1.377 . S
C1341 H1325 0.930 . S
C1341 C1340 1.377 . S
C1341 C1342 1.379 . S
C1342 H1326 0.931 . S
C1342 C1336 1.383 . S
C1342 C1341 1.379 . S
H1343 C1337 0.959 . S
H1344 C1337 0.961 . S
H1345 C1337 0.960 . S
H1346 C1338 0.930 . S
H1347 C1339 0.929 . S
H1348 C1356 0.929 . S
H1349 C1358 0.930 . S
H1350 C1360 0.930 . S
H1351 C1363 0.929 . S
H1352 C1366 0.930 . S
H1353 C1368 0.960 . S
H1354 C1368 0.960 . S
H1355 C1368 0.960 . S
C1356 H1348 0.929 . S
C1356 C1357 1.377 . S
C1356 C1358 1.384 . S
C1357 C1356 1.377 . S
C1357 C1363 1.390 . S
C1358 H1349 0.930 . S
C1358 C1356 1.384 . S
C1358 C1359 1.372 . S
C1359 C1358 1.372 . S
C1359 C1360 1.400 . S
C1359 C1364 1.490 . S
C1360 H1350 0.930 . S
C1360 C1359 1.400 . S
C1360 C1363 1.386 . S
H1361 C1377 0.930 . S
H1362 C1378 0.931 . S
C1363 H1351 0.929 . S
C1363 C1357 1.390 . S
C1363 C1360 1.386 . S
C1364 C1359 1.490 . S
C1364 C1366 1.395 . S
C1364 C1367 1.403 . S
H1365 C1371 0.930 . S
C1366 H1352 0.930 . S
C1366 C1364 1.395 . S
C1366 C1369 1.403 . S
C1367 C1364 1.403 . S
C1367 C1368 1.524 . S
C1367 C1371 1.400 . S
C1368 H1353 0.960 . S
C1368 H1354 0.960 . S
C1368 H1355 0.960 . S
C1368 C1367 1.524 . S
C1369 C1366 1.403 . S
C1369 C1370 1.392 . S
C1369 C1373 1.495 . S
C1370 C1369 1.392 . S
C1370 C1371 1.385 . S
C1370 C1372 1.478 . S
C1371 H1365 0.930 . S
C1371 C1367 1.400 . S
C1371 C1370 1.385 . S
C1372 C1370 1.478 . S
C1372 C1374 1.381 . S
C1372 C1378 1.383 . S
C1373 C1369 1.495 . S
C1373 H1379 0.959 . S
C1373 H1380 0.961 . S
C1373 H1381 0.960 . S
C1374 C1372 1.381 . S
C1374 C1375 1.394 . S
C1374 H1382 0.930 . S
C1375 C1374 1.394 . S
C1375 C1376 1.383 . S
C1375 H1383 0.929 . S
C1376 C1375 1.383 . S
C1376 C1377 1.377 . S
C1377 H1361 0.930 . S
C1377 C1376 1.377 . S
C1377 C1378 1.379 . S
C1378 H1362 0.931 . S
C1378 C1372 1.383 . S
C1378 C1377 1.379 . S
H1379 C1373 0.959 . S
H1380 C1373 0.961 . S
H1381 C1373 0.960 . S
H1382 C1374 0.930 . S
H1383 C1375 0.929 . S
H1384 C1392 0.929 . S
H1385 C1394 0.930 . S
H1386 C1396 0.930 . S
H1387 C1399 0.929 . S
H1388 C1402 0.930 . S
H1389 C1404 0.960 . S
H1390 C1404 0.960 . S
H1391 C1404 0.960 . S
C1392 H1384 0.929 . S
C1392 C1393 1.377 . S
C1392 C1394 1.384 . S
C1393 C1392 1.377 . S
C1393 C1399 1.390 . S
C1394 H1385 0.930 . S
C1394 C1392 1.384 . S
C1394 C1395 1.372 . S
C1395 C1394 1.372 . S
C1395 C1396 1.400 . S
C1395 C1400 1.490 . S
C1396 H1386 0.930 . S
C1396 C1395 1.400 . S
C1396 C1399 1.386 . S
H1397 C1413 0.930 . S
H1398 C1414 0.931 . S
C1399 H1387 0.929 . S
C1399 C1393 1.390 . S
C1399 C1396 1.386 . S
C1400 C1395 1.490 . S
C1400 C1402 1.395 . S
C1400 C1403 1.403 . S
H1401 C1407 0.930 . S
C1402 H1388 0.930 . S
C1402 C1400 1.395 . S
C1402 C1405 1.403 . S
C1403 C1400 1.403 . S
C1403 C1404 1.524 . S
C1403 C1407 1.400 . S
C1404 H1389 0.960 . S
C1404 H1390 0.960 . S
C1404 H1391 0.960 . S
C1404 C1403 1.524 . S
C1405 C1402 1.403 . S
C1405 C1406 1.392 . S
C1405 C1409 1.495 . S
C1406 C1405 1.392 . S
C1406 C1407 1.385 . S
C1406 C1408 1.478 . S
C1407 H1401 0.930 . S
C1407 C1403 1.400 . S
C1407 C1406 1.385 . S
C1408 C1406 1.478 . S
C1408 C1410 1.381 . S
C1408 C1414 1.383 . S
C1409 C1405 1.495 . S
C1409 H1415 0.959 . S
C1409 H1416 0.961 . S
C1409 H1417 0.960 . S
C1410 C1408 1.381 . S
C1410 C1411 1.394 . S
C1410 H1418 0.930 . S
C1411 C1410 1.394 . S
C1411 C1412 1.383 . S
C1411 H1419 0.929 . S
C1412 C1411 1.383 . S
C1412 C1413 1.377 . S
C1413 H1397 0.930 . S
C1413 C1412 1.377 . S
C1413 C1414 1.379 . S
C1414 H1398 0.931 . S
C1414 C1408 1.383 . S
C1414 C1413 1.379 . S
H1415 C1409 0.959 . S
H1416 C1409 0.961 . S
H1417 C1409 0.960 . S
H1418 C1410 0.930 . S
H1419 C1411 0.929 . S
H1420 C1428 0.929 . S
H1421 C1430 0.930 . S
H1422 C1432 0.930 . S
H1423 C1435 0.929 . S
H1424 C1438 0.930 . S
H1425 C1440 0.960 . S
H1426 C1440 0.960 . S
H1427 C1440 0.960 . S
C1428 H1420 0.929 . S
C1428 C1429 1.377 . S
C1428 C1430 1.384 . S
C1429 C1428 1.377 . S
C1429 C1435 1.390 . S
C1430 H1421 0.930 . S
C1430 C1428 1.384 . S
C1430 C1431 1.372 . S
C1431 C1430 1.372 . S
C1431 C1432 1.400 . S
C1431 C1436 1.490 . S
C1432 H1422 0.930 . S
C1432 C1431 1.400 . S
C1432 C1435 1.386 . S
H1433 C1449 0.930 . S
H1434 C1450 0.931 . S
C1435 H1423 0.929 . S
C1435 C1429 1.390 . S
C1435 C1432 1.386 . S
C1436 C1431 1.490 . S
C1436 C1438 1.395 . S
C1436 C1439 1.403 . S
H1437 C1443 0.930 . S
C1438 H1424 0.930 . S
C1438 C1436 1.395 . S
C1438 C1441 1.403 . S
C1439 C1436 1.403 . S
C1439 C1440 1.524 . S
C1439 C1443 1.400 . S
C1440 H1425 0.960 . S
C1440 H1426 0.960 . S
C1440 H1427 0.960 . S
C1440 C1439 1.524 . S
C1441 C1438 1.403 . S
C1441 C1442 1.392 . S
C1441 C1445 1.495 . S
C1442 C1441 1.392 . S
C1442 C1443 1.385 . S
C1442 C1444 1.478 . S
C1443 H1437 0.930 . S
C1443 C1439 1.400 . S
C1443 C1442 1.385 . S
C1444 C1442 1.478 . S
C1444 C1446 1.381 . S
C1444 C1450 1.383 . S
C1445 C1441 1.495 . S
C1445 H1451 0.959 . S
C1445 H1452 0.961 . S
C1445 H1453 0.960 . S
C1446 C1444 1.381 . S
C1446 C1447 1.394 . S
C1446 H1454 0.930 . S
C1447 C1446 1.394 . S
C1447 C1448 1.383 . S
C1447 H1455 0.929 . S
C1448 C1447 1.383 . S
C1448 C1449 1.377 . S
C1449 H1433 0.930 . S
C1449 C1448 1.377 . S
C1449 C1450 1.379 . S
C1450 H1434 0.931 . S
C1450 C1444 1.383 . S
C1450 C1449 1.379 . S
H1451 C1445 0.959 . S
H1452 C1445 0.961 . S
H1453 C1445 0.960 . S
H1454 C1446 0.930 . S
H1455 C1447 0.929 . S
C601 C221 1.468 . S
C620 C330 1.478 . S
C656 C414 1.465 . S
C637 C241 1.444 . S
C692 C407 1.471 . S
C673 C157 1.457 . S
C709 C177 1.428 . S
C728 C323 1.466 . S
C764 C487 1.471 . S
C745 C93 1.433 . S
C800 C571 1.480 . S
C781 C113 1.475 . S
C817 C29 1.427 . S
C836 C564 1.473 . S
C853 C49 1.471 . S
C872 C480 1.478 . S
C908 C314 1.295 . S
C889 C61 1.506 . S
C944 C398 1.325 . S
C925 C17 1.477 . S
C980 C409 1.399 . S
C961 C125 1.521 . S
C1016 C325 1.359 . S
C997 C81 1.499 . S
C1052 C493 1.388 . S
C1033 C189 1.462 . S
C1069 C145 1.510 . S
C1088 C577 1.318 . S
C1124 C566 1.367 . S
C1105 C253 1.480 . S
C1141 C209 1.525 . S
C1160 C482 1.425 . S
C1196 C312 1.574 . S
C1177 C23 1.528 . S
C1232 C396 1.588 . S
C1213 C55 1.570 . S
C1249 C87 1.520 . S
C1268 C403 1.557 . S
C1304 C319 1.544 . S
C1285 C119 1.561 . S
C1340 C491 1.565 . S
C1321 C151 1.562 . S
C1357 C183 1.524 . S
C1376 C575 1.588 . S
C1393 C215 1.556 . S
C1412 C582 1.547 . S
C1429 C247 1.527 . S
C1448 C498 1.555 . S
