# Generated by pormake.
# Topology rtl, (3,6)-cn, num edge types: 1
# Building blocks:
#     Node 0, Type 0, BuildingBlock: BELTOD_clean_linker_0, # of connection points: 3
#     Node 1, Type 0, BuildingBlock: BELTOD_clean_linker_0, # of connection points: 3
#     Node 2, Type 0, BuildingBlock: BELTOD_clean_linker_0, # of connection points: 3
#     Node 3, Type 0, BuildingBlock: BELTOD_clean_linker_0, # of connection points: 3
#     Node 4, Type 1, BuildingBlock: KUMJIN_clean_sbu_1, # of connection points: 6
#     Node 5, Type 1, BuildingBlock: KUMJIN_clean_sbu_1, # of connection points: 6
#     Edge 6, Type (0, 1), BuildingBlock: EZIPEK_clean_linker_0, # of connection points: 2
#     Edge 7, Type (0, 1), BuildingBlock: EZIPEK_clean_linker_0, # of connection points: 2
#     Edge 8, Type (0, 1), BuildingBlock: EZIPEK_clean_linker_0, # of connection points: 2
#     Edge 9, Type (0, 1), BuildingBlock: EZIPEK_clean_linker_0, # of connection points: 2
#     Edge 10, Type (0, 1), BuildingBlock: EZIPEK_clean_linker_0, # of connection points: 2
#     Edge 11, Type (0, 1), BuildingBlock: EZIPEK_clean_linker_0, # of connection points: 2
#     Edge 12, Type (0, 1), BuildingBlock: EZIPEK_clean_linker_0, # of connection points: 2
#     Edge 13, Type (0, 1), BuildingBlock: EZIPEK_clean_linker_0, # of connection points: 2
#     Edge 14, Type (0, 1), BuildingBlock: EZIPEK_clean_linker_0, # of connection points: 2
#     Edge 15, Type (0, 1), BuildingBlock: EZIPEK_clean_linker_0, # of connection points: 2
#     Edge 16, Type (0, 1), BuildingBlock: EZIPEK_clean_linker_0, # of connection points: 2
#     Edge 17, Type (0, 1), BuildingBlock: EZIPEK_clean_linker_0, # of connection points: 2
# Relax obj value: 0.020
# Max RMSD: 0.119
# Mean RMSD: 0.074
data_MOF--net-rtl--node1-KUMJIN_clean_sbu_1--node2-BELTOD_clean_linker_0--edge1-EZIPEK_clean_linker_0
_symmetry_space_group_name_H-M    P1
_symmetry_Int_Tables_number       1
_symmetry_cell_setting            triclinic
loop_
_symmetry_equiv_pos_as_xyz
'x, y, z'
_cell_length_a     28.647893
_cell_length_b     29.354033
_cell_length_c     25.965745
_cell_angle_alpha  75.395614
_cell_angle_beta   99.973277
_cell_angle_gamma 90.482358
loop_
_atom_site_label
_atom_site_type_symbol
_atom_site_fract_x
_atom_site_fract_y
_atom_site_fract_z
_atom_type_partial_charge
P0 P 0.27003 0.89755 0.01991 0.0
H1 H 0.28443 0.8554 0.13712 0.0
H2 H 0.23992 0.86421 0.20733 0.0
H3 H 0.139 0.9591 0.08604 0.0
H4 H 0.18367 0.95138 0.01648 0.0
H5 H 0.35928 0.86844 0.99676 0.0
H6 H 0.39592 0.79101 0.00565 0.0
H7 H 0.27797 0.72343 0.07291 0.0
H8 H 0.2409 0.80119 0.06363 0.0
H9 H 0.27615 0.96234 0.91511 0.0
H10 H 0.17933 0.8603 0.98241 0.0
O11 O 0.31165 0.9377 0.01948 0.0
H12 H 0.22117 0.9823 0.8283 0.0
H13 H 0.12391 0.88096 0.89575 0.0
C14 C 0.23643 0.90136 0.07131 0.0
C15 C 0.25242 0.87762 0.12559 0.0
C16 C 0.22723 0.88273 0.16556 0.0
C17 C 0.18594 0.91184 0.15156 0.0
C18 C 0.17047 0.93608 0.09742 0.0
C19 C 0.19583 0.93132 0.05772 0.0
C20 C 0.29803 0.84047 0.03087 0.0
C21 C 0.34155 0.83705 0.01414 0.0
C22 C 0.36236 0.79299 0.01898 0.0
C23 C 0.33975 0.75175 0.04031 0.0
C24 C 0.29603 0.75502 0.05682 0.0
C25 C 0.27508 0.79924 0.05172 0.0
C26 C 0.23144 0.91026 0.95521 0.0
C27 C 0.24317 0.94422 0.91122 0.0
C28 C 0.21187 0.95565 0.86181 0.0
C29 C 0.16849 0.93329 0.85594 0.0
C30 C 0.1572 0.89863 0.8997 0.0
C31 C 0.18875 0.88686 0.94891 0.0
P32 P 0.71094 0.68689 0.6688 0.0
H33 H 0.76105 0.64758 0.60135 0.0
H34 H 0.73691 0.62824 0.51449 0.0
H35 H 0.59558 0.68367 0.50325 0.0
H36 H 0.62028 0.70467 0.58993 0.0
H37 H 0.78643 0.71709 0.74179 0.0
H38 H 0.84096 0.78195 0.72806 0.0
H39 H 0.76303 0.83872 0.56691 0.0
H40 H 0.7078 0.77387 0.58075 0.0
H41 H 0.62248 0.6361 0.67086 0.0
H42 H 0.70182 0.72534 0.76071 0.0
O43 O 0.74968 0.64308 0.70324 0.0
H44 H 0.57258 0.61464 0.7397 0.0
H45 H 0.65347 0.70133 0.83149 0.0
C46 C 0.692 0.67594 0.60307 0.0
C47 C 0.72486 0.65574 0.58032 0.0
C48 C 0.71121 0.64487 0.53068 0.0
C49 C 0.66444 0.65414 0.50282 0.0
C50 C 0.63179 0.67602 0.52444 0.0
C51 C 0.64577 0.68762 0.57396 0.0
C52 C 0.74339 0.74035 0.66213 0.0
C53 C 0.78019 0.74408 0.70398 0.0
C54 C 0.81127 0.78107 0.69623 0.0
C55 C 0.80599 0.81489 0.64648 0.0
C56 C 0.76743 0.81297 0.60564 0.0
C57 C 0.7361 0.77591 0.61354 0.0
C58 C 0.66516 0.68366 0.70935 0.0
C59 C 0.6279 0.65293 0.70388 0.0
C60 C 0.59958 0.64022 0.7436 0.0
C61 C 0.60927 0.65642 0.79072 0.0
C62 C 0.64502 0.68889 0.79519 0.0
C63 C 0.67263 0.70255 0.75465 0.0
P64 P 0.81261 0.18844 0.08053 0.0
H65 H 0.85507 0.23551 0.98886 0.0
H66 H 0.87199 0.21179 0.91021 0.0
H67 H 0.7969 0.08399 0.95554 0.0
H68 H 0.78087 0.10741 0.036 0.0
H69 H 0.79813 0.26338 0.13089 0.0
H70 H 0.73125 0.31773 0.12189 0.0
H71 H 0.64863 0.25331 0.00578 0.0
H72 H 0.71614 0.19831 0.01483 0.0
H73 H 0.87092 0.10184 0.11679 0.0
H74 H 0.76392 0.16838 0.17449 0.0
O75 O 0.86069 0.21859 0.09489 0.0
H76 H 0.89694 0.05184 0.20814 0.0
H77 H 0.79044 0.11876 0.26572 0.0
C78 C 0.81777 0.17266 0.01895 0.0
C79 C 0.84202 0.20242 0.98203 0.0
C80 C 0.85162 0.18895 0.93704 0.0
C81 C 0.83653 0.14574 0.92761 0.0
C82 C 0.80942 0.11717 0.96261 0.0
C83 C 0.80027 0.13052 0.00831 0.0
C84 C 0.76232 0.22745 0.07277 0.0
C85 C 0.7658 0.26095 0.10323 0.0
C86 C 0.72766 0.29179 0.09836 0.0
C87 C 0.68528 0.28947 0.06314 0.0
C88 C 0.68125 0.2555 0.0331 0.0
C89 C 0.71965 0.22436 0.03814 0.0
C90 C 0.81544 0.13889 0.13855 0.0
C91 C 0.85129 0.10398 0.14825 0.0
C92 C 0.86616 0.07538 0.20042 0.0
C93 C 0.84557 0.08171 0.24353 0.0
C94 C 0.80631 0.11299 0.23282 0.0
C95 C 0.7914 0.14155 0.18058 0.0
P96 P 0.38279 0.26054 0.48976 0.0
H97 H 0.43473 0.23173 0.60035 0.0
H98 H 0.45037 0.27061 0.67199 0.0
H99 H 0.36892 0.39342 0.56798 0.0
H100 H 0.35343 0.35315 0.49736 0.0
H101 H 0.36108 0.16071 0.51766 0.0
H102 H 0.28774 0.11969 0.53177 0.0
H103 H 0.21106 0.25319 0.49326 0.0
H104 H 0.28472 0.29454 0.47876 0.0
H105 H 0.44521 0.33582 0.45411 0.0
H106 H 0.32094 0.27446 0.38303 0.0
O107 O 0.42664 0.22091 0.49782 0.0
H108 H 0.45234 0.38552 0.36478 0.0
H109 H 0.32814 0.32448 0.29345 0.0
C110 C 0.39553 0.29066 0.54245 0.0
C111 C 0.42217 0.26794 0.59252 0.0
C112 C 0.43233 0.29142 0.6335 0.0
C113 C 0.41765 0.33917 0.6249 0.0
C114 C 0.38683 0.35959 0.57553 0.0
C115 C 0.37656 0.33596 0.53479 0.0
C116 C 0.32817 0.23069 0.49648 0.0
C117 C 0.32854 0.18131 0.5118 0.0
C118 C 0.28682 0.15785 0.5202 0.0
C119 C 0.24419 0.18346 0.5137 0.0
C120 C 0.24374 0.23292 0.49855 0.0
C121 C 0.28557 0.2564 0.49004 0.0
C122 C 0.38213 0.30198 0.42532 0.0
C123 C 0.41869 0.33399 0.41955 0.0
C124 C 0.42272 0.36245 0.36872 0.0
C125 C 0.39043 0.35901 0.32284 0.0
C126 C 0.35287 0.3281 0.32868 0.0
C127 C 0.34889 0.29951 0.37969 0.0
Eu128 Eu 0.04601 0.96274 0.52797 0.0
C129 C 0.90145 0.12358 0.45315 0.0
N130 N 0.94574 0.12366 0.48193 0.0
C131 C 0.96228 0.19369 0.41801 0.0
C132 C 0.88655 0.15759 0.40391 0.0
C133 C 0.97543 0.1591 0.4665 0.0
C134 C 0.91783 0.19263 0.38622 0.0
C135 C 0.82485 0.08805 0.44409 0.0
C136 C 0.87115 0.08918 0.47307 0.0
C137 C 0.81034 0.12085 0.3941 0.0
C138 C 0.8411 0.15559 0.37408 0.0
Eu139 Eu 0.9665 0.06366 0.56258 0.0
N140 N 0.88656 0.05748 0.52119 0.0
C141 C 0.79429 0.0544 0.4666 0.0
C142 C 0.85572 0.02686 0.5448 0.0
C143 C 0.80957 0.02419 0.51761 0.0
H144 H 0.00942 0.16045 0.49155 0.0
H145 H 0.78567 0.99917 0.53635 0.0
H146 H 0.97817 0.887 0.4778 0.0
H147 H 0.22291 0.93309 0.65374 0.0
H148 H 0.86596 0.00521 0.5851 0.0
H149 H 0.75849 0.05233 0.44564 0.0
H150 H 0.15571 0.98021 0.59071 0.0
H151 H 0.98636 0.22117 0.40528 0.0
H152 H 0.77515 0.12008 0.37097 0.0
H153 H 0.82926 0.18096 0.33575 0.0
H154 H 0.9741 0.80064 0.48886 0.0
H155 H 0.90778 0.21934 0.34855 0.0
H156 H 0.21979 0.8462 0.68142 0.0
N157 N 0.03972 0.88125 0.53803 0.0
C158 C 0.07443 0.85268 0.57312 0.0
C159 C 0.00235 0.8148 0.51303 0.0
C160 C 0.07354 0.80341 0.5811 0.0
C161 C 0.00459 0.86347 0.50694 0.0
C162 C 0.03663 0.78456 0.55081 0.0
N163 N 0.11351 0.92081 0.58635 0.0
C164 C 0.15365 0.94232 0.60346 0.0
C165 C 0.1504 0.84471 0.63309 0.0
C166 C 0.11237 0.8731 0.59843 0.0
C167 C 0.18994 0.86674 0.65442 0.0
C168 C 0.19186 0.91577 0.63887 0.0
H169 H 0.03478 0.74688 0.55556 0.0
H170 H 0.10988 0.73682 0.62482 0.0
H171 H 0.17711 0.77301 0.67065 0.0
O172 O 0.05517 0.00367 0.44824 0.0
O173 O 0.07092 0.98153 0.60762 0.0
O174 O 0.00675 0.01034 0.63566 0.0
O175 O 0.08384 0.93239 0.47731 0.0
O176 O 0.0808 0.0331 0.52516 0.0
O177 O 0.04328 0.08397 0.56331 0.0
O178 O 0.91996 0.08768 0.61046 0.0
O179 O 0.97871 0.05748 0.4808 0.0
O180 O 0.97117 0.98076 0.48352 0.0
O181 O 0.98214 0.12579 0.59256 0.0
O182 O 0.94957 0.98776 0.60046 0.0
O183 O 0.97763 0.93531 0.55759 0.0
C184 C 0.04917 0.98979 0.6452 0.0
C185 C 0.05544 0.95938 0.38403 0.0
C186 C 0.06813 0.9424 0.30039 0.0
C187 C 0.0189 0.94057 0.28439 0.0
C188 C 0.00636 0.95636 0.36812 0.0
C189 C 0.9882 0.94745 0.31828 0.0
C190 C 0.08626 0.95195 0.35025 0.0
C191 C 0.07816 0.07187 0.54165 0.0
C192 C 0.07507 0.96896 0.43621 0.0
C193 C 0.11018 0.77481 0.6176 0.0
C194 C 0.14846 0.79543 0.6437 0.0
C195 C 0.95847 0.02464 0.4596 0.0
C196 C 0.95836 0.12778 0.67509 0.0
C197 C 0.93405 0.12955 0.76043 0.0
C198 C 0.97864 0.14607 0.77772 0.0
C199 C 0.00234 0.1455 0.69313 0.0
C200 C 0.92417 0.11967 0.70929 0.0
C201 C 0.01253 0.15386 0.7443 0.0
C202 C 0.95291 0.94515 0.59249 0.0
C203 C 0.94727 0.12156 0.61932 0.0
H204 H 0.00441 0.93341 0.24595 0.0
H205 H 0.98212 0.96053 0.39425 0.0
H206 H 0.95028 0.94556 0.30609 0.0
H207 H 0.12427 0.95345 0.36267 0.0
H208 H 0.98695 0.1536 0.817 0.0
H209 H 0.02908 0.15319 0.66765 0.0
H210 H 0.8897 0.10704 0.69581 0.0
H211 H 0.04663 0.16709 0.7578 0.0
Eu212 Eu 0.44251 0.48422 0.99592 0.0
C213 C 0.65408 0.51895 0.09248 0.0
N214 N 0.62303 0.48968 0.11732 0.0
C215 C 0.68363 0.42818 0.15048 0.0
C216 C 0.70071 0.50302 0.09377 0.0
C217 C 0.63797 0.44569 0.14861 0.0
C218 C 0.71489 0.45669 0.12219 0.0
C219 C 0.67188 0.59736 0.04352 0.0
C220 C 0.64006 0.56572 0.06803 0.0
C221 C 0.71765 0.58109 0.04282 0.0
C222 C 0.73204 0.53406 0.0679 0.0
Eu223 Eu 0.54531 0.52221 0.10715 0.0
N224 N 0.59535 0.58045 0.06872 0.0
C225 C 0.65691 0.64458 0.02105 0.0
C226 C 0.58134 0.62682 0.04936 0.0
C227 C 0.61167 0.65948 0.02463 0.0
H228 H 0.61449 0.42361 0.17172 0.0
H229 H 0.6001 0.69606 0.00822 0.0
H230 H 0.34099 0.5448 0.99818 0.0
H231 H 0.46768 0.29729 0.01108 0.0
H232 H 0.54647 0.63853 0.05219 0.0
H233 H 0.68029 0.66996 0.00175 0.0
H234 H 0.48789 0.38097 0.99096 0.0
H235 H 0.69473 0.39278 0.17393 0.0
H236 H 0.74248 0.60479 0.02381 0.0
H237 H 0.76781 0.52228 0.06803 0.0
H238 H 0.26414 0.52686 0.02599 0.0
H239 H 0.75033 0.44308 0.12392 0.0
H240 H 0.39209 0.27323 0.04195 0.0
N241 N 0.36512 0.47273 0.01734 0.0
C242 C 0.35218 0.42705 0.03054 0.0
C243 C 0.28885 0.49844 0.02826 0.0
C244 C 0.30747 0.4154 0.04501 0.0
C245 C 0.33323 0.50839 0.01358 0.0
C246 C 0.27616 0.45176 0.04481 0.0
N247 N 0.42564 0.40374 0.01305 0.0
C248 C 0.45535 0.37081 0.0056 0.0
C249 C 0.36974 0.34432 0.03888 0.0
C250 C 0.38291 0.39174 0.02746 0.0
C251 C 0.40097 0.31001 0.03361 0.0
C252 C 0.44374 0.32341 0.01635 0.0
H253 H 0.24154 0.44423 0.05568 0.0
H254 H 0.26078 0.35855 0.0694 0.0
H255 H 0.31529 0.29637 0.06406 0.0
O256 O 0.45496 0.47154 0.91997 0.0
O257 O 0.45168 0.43932 0.08115 0.0
O258 O 0.47476 0.49322 0.1299 0.0
O259 O 0.38838 0.50385 0.92322 0.0
O260 O 0.51879 0.45453 0.01144 0.0
O261 O 0.5437 0.44658 0.10225 0.0
O262 O 0.55249 0.57113 0.15904 0.0
O263 O 0.55447 0.54075 0.01838 0.0
O264 O 0.47853 0.55288 0.97039 0.0
O265 O 0.57188 0.49767 0.19405 0.0
O266 O 0.48623 0.57766 0.07338 0.0
O267 O 0.42258 0.54836 0.02321 0.0
C268 C 0.45367 0.45396 0.12493 0.0
C269 C 0.38657 0.45169 0.86673 0.0
C270 C 0.38244 0.40783 0.79829 0.0
C271 C 0.34103 0.38699 0.81347 0.0
C272 C 0.34492 0.43068 0.88161 0.0
C273 C 0.32239 0.39845 0.85506 0.0
C274 C 0.40517 0.44003 0.82503 0.0
C275 C 0.54533 0.43319 0.05799 0.0
C276 C 0.41192 0.48469 0.89498 0.0
C277 C 0.29485 0.36807 0.0579 0.0
C278 C 0.32585 0.33265 0.05476 0.0
C279 C 0.52424 0.55742 0.9732 0.0
C280 C 0.61265 0.55276 0.2365 0.0
C281 C 0.64659 0.58402 0.31289 0.0
C282 C 0.69219 0.57631 0.30319 0.0
C283 C 0.65855 0.54537 0.22742 0.0
C284 C 0.60676 0.57266 0.27901 0.0
C285 C 0.69805 0.55726 0.26051 0.0
C286 C 0.44196 0.57983 0.04811 0.0
C287 C 0.57071 0.53946 0.2026 0.0
H288 H 0.3233 0.36194 0.79317 0.0
H289 H 0.32982 0.43897 0.91373 0.0
H290 H 0.29045 0.38229 0.86679 0.0
H291 H 0.43738 0.45585 0.81341 0.0
H292 H 0.72322 0.58497 0.3288 0.0
H293 H 0.66402 0.53017 0.19515 0.0
H294 H 0.57146 0.57855 0.28639 0.0
H295 H 0.73333 0.55138 0.25326 0.0
C296 C 0.16597 0.15505 0.47582 0.0
C297 C 0.19984 0.15802 0.52149 0.0
C298 C 0.15445 0.10394 0.58101 0.0
C299 C 0.11874 0.10371 0.53576 0.0
N300 N 0.0862 0.13632 0.44171 0.0
N301 N 0.22232 0.14283 0.61827 0.0
C302 C 0.12328 0.1315 0.48363 0.0
C303 C 0.19278 0.1348 0.57438 0.0
N304 N 0.17539 0.1731 0.42487 0.0
N305 N 0.15306 0.07305 0.62973 0.0
H306 H 0.2508 0.16512 0.61482 0.0
H307 H 0.21615 0.13078 0.65772 0.0
H308 H 0.1261 0.04939 0.63552 0.0
H309 H 0.18056 0.06793 0.66283 0.0
H310 H 0.15462 0.16712 0.39027 0.0
H311 H 0.20615 0.19086 0.4173 0.0
H312 H 0.08512 0.1599 0.40406 0.0
H313 H 0.05443 0.12003 0.44665 0.0
C314 C 0.38989 0.67971 0.0928 0.0
C315 C 0.36179 0.70524 0.04378 0.0
C316 C 0.38613 0.64931 0.99672 0.0
C317 C 0.41223 0.62183 0.04655 0.0
N318 N 0.42912 0.60553 0.14423 0.0
N319 N 0.32434 0.70921 0.95223 0.0
C320 C 0.41127 0.6355 0.09528 0.0
C321 C 0.35702 0.68826 0.9968 0.0
N322 N 0.39731 0.69832 0.13668 0.0
N323 N 0.39122 0.64045 0.94874 0.0
H324 H 0.30289 0.73828 0.95059 0.0
H325 H 0.31539 0.69516 0.91892 0.0
H326 H 0.41288 0.61342 0.94573 0.0
H327 H 0.37752 0.66287 0.91123 0.0
H328 H 0.42214 0.68419 0.1714 0.0
H329 H 0.38117 0.72997 0.13693 0.0
H330 H 0.42471 0.61146 0.18102 0.0
H331 H 0.4442 0.57238 0.14838 0.0
C332 C 0.84653 0.89037 0.65247 0.0
C333 C 0.84471 0.84797 0.63559 0.0
C334 C 0.9238 0.86141 0.61283 0.0
C335 C 0.92166 0.90776 0.61918 0.0
N336 N 0.89722 0.94958 0.67968 0.0
N337 N 0.88156 0.79319 0.59783 0.0
C338 C 0.8876 0.91793 0.64904 0.0
C339 C 0.88333 0.8335 0.61525 0.0
N340 N 0.80874 0.9048 0.67076 0.0
N341 N 0.96657 0.84125 0.61383 0.0
H342 H 0.85318 0.77071 0.60018 0.0
H343 H 0.90685 0.78417 0.5773 0.0
H344 H 0.99777 0.8585 0.6216 0.0
H345 H 0.97146 0.80552 0.6166 0.0
H346 H 0.80594 0.93797 0.67787 0.0
H347 H 0.77847 0.88507 0.67448 0.0
H348 H 0.87524 0.95587 0.70536 0.0
H349 H 0.93046 0.964 0.68589 0.0
C350 C 0.6465 0.36936 0.02259 0.0
C351 C 0.64602 0.32398 0.0577 0.0
C352 C 0.58066 0.34962 0.09497 0.0
C353 C 0.58096 0.39549 0.05959 0.0
N354 N 0.62467 0.45173 0.00335 0.0
N355 N 0.6092 0.26771 0.12134 0.0
C356 C 0.61633 0.40598 0.02648 0.0
C357 C 0.61202 0.3132 0.09217 0.0
N358 N 0.67541 0.37729 0.98472 0.0
N359 N 0.55264 0.34158 0.13362 0.0
H360 H 0.63233 0.24058 0.12098 0.0
H361 H 0.58197 0.25574 0.14255 0.0
H362 H 0.53112 0.36759 0.13893 0.0
H363 H 0.5538 0.31062 0.16407 0.0
H364 H 0.67334 0.40799 0.95363 0.0
H365 H 0.69858 0.35144 0.98125 0.0
H366 H 0.65356 0.46229 0.98435 0.0
H367 H 0.60591 0.47972 0.00873 0.0
C368 C 0.13146 0.88116 0.21781 0.0
C369 C 0.15897 0.91815 0.19337 0.0
C370 C 0.12577 0.97159 0.23769 0.0
C371 C 0.10073 0.93379 0.26493 0.0
N372 N 0.08759 0.85043 0.29021 0.0
N373 N 0.1905 0.9952 0.18896 0.0
C374 C 0.10597 0.88785 0.2578 0.0
C375 C 0.15863 0.96239 0.20609 0.0
N376 N 0.12804 0.84041 0.20122 0.0
N377 N 0.11673 0.01659 0.24015 0.0
H378 H 0.21548 0.98943 0.16621 0.0
H379 H 0.1952 0.02619 0.20155 0.0
H380 H 0.09261 0.0249 0.26253 0.0
H381 H 0.13002 0.04613 0.21635 0.0
H382 H 0.10431 0.81445 0.2132 0.0
H383 H 0.14607 0.83412 0.17194 0.0
H384 H 0.0945 0.81553 0.29071 0.0
H385 H 0.06901 0.85392 0.32027 0.0
C386 C 0.55514 0.65757 0.85841 0.0
C387 C 0.58755 0.63298 0.83841 0.0
C388 C 0.56977 0.55915 0.89853 0.0
C389 C 0.54284 0.58383 0.92434 0.0
N390 N 0.51164 0.65784 0.93087 0.0
N391 N 0.63477 0.562 0.85035 0.0
C392 C 0.53591 0.63355 0.90481 0.0
C393 C 0.59771 0.58431 0.86193 0.0
N394 N 0.54164 0.7032 0.83214 0.0
N395 N 0.56603 0.5118 0.90553 0.0
H396 H 0.65748 0.57942 0.82507 0.0
H397 H 0.64591 0.5274 0.87062 0.0
H398 H 0.54267 0.49274 0.9283 0.0
H399 H 0.58164 0.49287 0.88354 0.0
H400 H 0.51458 0.72159 0.84126 0.0
H401 H 0.55516 0.72161 0.79832 0.0
H402 H 0.50981 0.69445 0.92237 0.0
H403 H 0.49594 0.64125 0.9637 0.0
C404 C 0.91239 0.09246 0.31392 0.0
C405 C 0.8729 0.06624 0.29937 0.0
C406 C 0.88694 0.01387 0.39108 0.0
C407 C 0.9297 0.03718 0.40363 0.0
N408 N 0.9889 0.09002 0.36908 0.0
N409 N 0.82529 0.99858 0.32096 0.0
C410 C 0.94399 0.07411 0.36289 0.0
C411 C 0.86099 0.02579 0.33702 0.0
N412 N 0.91958 0.13551 0.28131 0.0
N413 N 0.86974 0.98216 0.43103 0.0
H414 H 0.80498 0.00728 0.28214 0.0
H415 H 0.81818 0.96585 0.34464 0.0
H416 H 0.88656 0.97331 0.47131 0.0
H417 H 0.83639 0.96796 0.42532 0.0
H418 H 0.94486 0.15829 0.29327 0.0
H419 H 0.89749 0.15068 0.24466 0.0
H420 H 0.0024 0.1135 0.33836 0.0
H421 H 0.01459 0.07519 0.40212 0.0
C422 C 0.41163 0.41252 0.65988 0.0
C423 C 0.42816 0.36537 0.66899 0.0
C424 C 0.43198 0.35449 0.7659 0.0
C425 C 0.40245 0.39565 0.7545 0.0
N426 N 0.36781 0.46727 0.69086 0.0
N427 N 0.48966 0.31559 0.73231 0.0
C428 C 0.39404 0.42626 0.70168 0.0
C429 C 0.449 0.34243 0.72276 0.0
N430 N 0.418 0.44497 0.61403 0.0
N431 N 0.44336 0.3267 0.8174 0.0
H432 H 0.50727 0.31372 0.70082 0.0
H433 H 0.50889 0.30127 0.77095 0.0
H434 H 0.43314 0.3354 0.85051 0.0
H435 H 0.46079 0.29386 0.82639 0.0
H436 H 0.4106 0.48091 0.60724 0.0
H437 H 0.43609 0.43598 0.58613 0.0
H438 H 0.35671 0.48811 0.6517 0.0
H439 H 0.35465 0.47883 0.72059 0.0
C440 C 0.64164 0.58976 0.45657 0.0
C441 C 0.64996 0.63822 0.45246 0.0
C442 C 0.64744 0.6526 0.35465 0.0
C443 C 0.64148 0.60372 0.35924 0.0
N444 N 0.6244 0.52699 0.41111 0.0
N445 N 0.65236 0.71747 0.39791 0.0
C446 C 0.63558 0.57273 0.40917 0.0
C447 C 0.64991 0.67026 0.40139 0.0
N448 N 0.64133 0.55984 0.50635 0.0
N449 N 0.65226 0.68168 0.30575 0.0
H450 H 0.65546 0.73125 0.43159 0.0
H451 H 0.64838 0.74347 0.36172 0.0
H452 H 0.64791 0.67034 0.27028 0.0
H453 H 0.66201 0.71655 0.30009 0.0
H454 H 0.64133 0.52334 0.51387 0.0
H455 H 0.64276 0.57157 0.54131 0.0
H456 H 0.615 0.50349 0.44462 0.0
H457 H 0.62155 0.51286 0.37772 0.0
C458 C 0.83424 0.15816 0.82824 0.0
C459 C 0.85123 0.13106 0.88166 0.0
C460 C 0.90826 0.08977 0.84734 0.0
C461 C 0.89848 0.12391 0.79702 0.0
N462 N 0.85233 0.19181 0.739 0.0
N463 N 0.90594 0.07138 0.94311 0.0
C464 C 0.86076 0.15787 0.78678 0.0
C465 C 0.88799 0.09612 0.89143 0.0
N466 N 0.793 0.18452 0.81759 0.0
N467 N 0.93759 0.05173 0.8529 0.0
H468 H 0.89231 0.07485 0.97666 0.0
H469 H 0.93646 0.0497 0.95318 0.0
H470 H 0.95269 0.04648 0.82092 0.0
H471 H 0.94304 0.0234 0.88705 0.0
H472 H 0.77641 0.20194 0.7787 0.0
H473 H 0.77298 0.18502 0.84746 0.0
H474 H 0.82926 0.22082 0.73189 0.0
H475 H 0.87062 0.19269 0.70741 0.0
C476 C 0.42432 0.35584 0.24144 0.0
C477 C 0.40041 0.3823 0.26826 0.0
C478 C 0.40103 0.45286 0.19359 0.0
C479 C 0.42883 0.42733 0.16916 0.0
N480 N 0.44644 0.34951 0.15853 0.0
N481 N 0.36624 0.45575 0.27187 0.0
C482 C 0.43437 0.37737 0.18941 0.0
C483 C 0.38837 0.43072 0.2446 0.0
N484 N 0.4401 0.31053 0.26704 0.0
N485 N 0.38352 0.497 0.1656 0.0
H486 H 0.35474 0.44005 0.30803 0.0
H487 H 0.36144 0.49225 0.26048 0.0
H488 H 0.3885 0.5121 0.12612 0.0
H489 H 0.35995 0.51662 0.17849 0.0
H490 H 0.46385 0.29198 0.25298 0.0
H491 H 0.43304 0.29263 0.30484 0.0
H492 H 0.44464 0.31295 0.16913 0.0
H493 H 0.45284 0.36187 0.1196 0.0
C494 C 0.11149 0.99189 0.78715 0.0
C495 C 0.13466 0.94671 0.80394 0.0
C496 C 0.09165 0.92707 0.723 0.0
C497 C 0.07478 0.97456 0.70196 0.0
N498 N 0.07341 0.05414 0.71202 0.0
N499 N 0.15182 0.87307 0.78434 0.0
C500 C 0.08552 0.00751 0.73368 0.0
C501 C 0.12602 0.91464 0.771 0.0
N502 N 0.11338 0.01948 0.82268 0.0
N503 N 0.07335 0.89345 0.69817 0.0
H504 H 0.1779 0.86285 0.81885 0.0
H505 H 0.15021 0.85068 0.75874 0.0
H506 H 0.04693 0.90147 0.66396 0.0
H507 H 0.0808 0.85749 0.71444 0.0
H508 H 0.09302 0.05057 0.81445 0.0
H509 H 0.13176 0.00905 0.86237 0.0
H510 H 0.08593 0.08027 0.73102 0.0
H511 H 0.05477 0.06736 0.67293 0.0
loop_
_geom_bond_atom_site_label_1
_geom_bond_atom_site_label_2
_geom_bond_distance
_geom_bond_site_symmetry_2
_ccdc_geom_bond_type
P0 O11 1.490 . S
P0 C14 1.812 . S
P0 C20 1.803 . S
P0 C26 1.819 1_554 S
H1 C15 0.941 . S
H2 C16 0.939 . S
H3 C18 0.940 . S
H4 C19 0.940 . S
H5 C21 0.939 1_556 S
H6 C22 0.942 . S
H7 C24 0.940 . S
H8 C25 0.939 . S
H9 C27 0.941 . S
H10 C31 0.939 . S
O11 P0 1.490 . S
H12 C28 0.939 1_545 S
H13 C30 0.940 . S
C14 P0 1.812 . S
C14 C15 1.389 . S
C14 C19 1.391 . S
C15 H1 0.941 . S
C15 C14 1.389 . S
C15 C16 1.397 . S
C16 H2 0.939 . S
C16 C15 1.397 . S
C16 C17 1.378 . S
C17 C16 1.378 . S
C17 C18 1.378 . S
C18 H3 0.940 . S
C18 C17 1.378 . S
C18 C19 1.396 . S
C19 H4 0.940 . S
C19 C14 1.391 . S
C19 C18 1.396 . S
C20 P0 1.803 . S
C20 C21 1.378 . S
C20 C25 1.400 . S
C21 H5 0.939 1_554 S
C21 C20 1.378 . S
C21 C22 1.361 . S
C22 H6 0.942 . S
C22 C21 1.361 . S
C22 C23 1.369 . S
C23 C22 1.369 . S
C23 C24 1.404 . S
C24 H7 0.940 . S
C24 C23 1.404 . S
C24 C25 1.389 . S
C25 H8 0.939 . S
C25 C20 1.400 . S
C25 C24 1.389 . S
C26 P0 1.819 1_556 S
C26 C27 1.391 . S
C26 C31 1.391 . S
C27 H9 0.941 . S
C27 C26 1.391 . S
C27 C28 1.396 . S
C28 H12 0.939 1_565 S
C28 C27 1.396 . S
C28 C29 1.397 . S
C29 C28 1.397 . S
C29 C30 1.385 . S
C30 H13 0.940 . S
C30 C29 1.385 . S
C30 C31 1.388 . S
C31 H10 0.939 . S
C31 C26 1.391 . S
C31 C30 1.388 . S
P32 O43 1.490 . S
P32 C46 1.812 . S
P32 C52 1.803 . S
P32 C58 1.819 . S
H33 C47 0.941 . S
H34 C48 0.939 . S
H35 C50 0.940 . S
H36 C51 0.940 . S
H37 C53 0.939 . S
H38 C54 0.942 . S
H39 C56 0.940 . S
H40 C57 0.939 . S
H41 C59 0.941 . S
H42 C63 0.939 . S
O43 P32 1.490 . S
H44 C60 0.939 . S
H45 C62 0.940 . S
C46 P32 1.812 . S
C46 C47 1.389 . S
C46 C51 1.391 . S
C47 H33 0.941 . S
C47 C46 1.389 . S
C47 C48 1.397 . S
C48 H34 0.939 . S
C48 C47 1.397 . S
C48 C49 1.378 . S
C49 C48 1.378 . S
C49 C50 1.378 . S
C50 H35 0.940 . S
C50 C49 1.378 . S
C50 C51 1.396 . S
C51 H36 0.940 . S
C51 C46 1.391 . S
C51 C50 1.396 . S
C52 P32 1.803 . S
C52 C53 1.378 . S
C52 C57 1.400 . S
C53 H37 0.939 . S
C53 C52 1.378 . S
C53 C54 1.361 . S
C54 H38 0.942 . S
C54 C53 1.361 . S
C54 C55 1.369 . S
C55 C54 1.369 . S
C55 C56 1.404 . S
C56 H39 0.940 . S
C56 C55 1.404 . S
C56 C57 1.389 . S
C57 H40 0.939 . S
C57 C52 1.400 . S
C57 C56 1.389 . S
C58 P32 1.819 . S
C58 C59 1.391 . S
C58 C63 1.391 . S
C59 H41 0.941 . S
C59 C58 1.391 . S
C59 C60 1.396 . S
C60 H44 0.939 . S
C60 C59 1.396 . S
C60 C61 1.397 . S
C61 C60 1.397 . S
C61 C62 1.385 . S
C62 H45 0.940 . S
C62 C61 1.385 . S
C62 C63 1.388 . S
C63 H42 0.939 . S
C63 C58 1.391 . S
C63 C62 1.388 . S
P64 O75 1.490 . S
P64 C78 1.812 . S
P64 C84 1.803 . S
P64 C90 1.819 . S
H65 C79 0.941 . S
H66 C80 0.939 . S
H67 C82 0.940 1_554 S
H68 C83 0.940 . S
H69 C85 0.939 . S
H70 C86 0.942 . S
H71 C88 0.940 . S
H72 C89 0.939 . S
H73 C91 0.941 . S
H74 C95 0.939 . S
O75 P64 1.490 . S
H76 C92 0.939 . S
H77 C94 0.940 . S
C78 P64 1.812 . S
C78 C79 1.389 1_554 S
C78 C83 1.391 . S
C79 H65 0.941 . S
C79 C78 1.389 1_556 S
C79 C80 1.397 . S
C80 H66 0.939 . S
C80 C79 1.397 . S
C80 C81 1.378 . S
C81 C80 1.378 . S
C81 C82 1.378 . S
C82 H67 0.940 1_556 S
C82 C81 1.378 . S
C82 C83 1.396 1_556 S
C83 H68 0.940 . S
C83 C78 1.391 . S
C83 C82 1.396 1_554 S
C84 P64 1.803 . S
C84 C85 1.378 . S
C84 C89 1.400 . S
C85 H69 0.939 . S
C85 C84 1.378 . S
C85 C86 1.361 . S
C86 H70 0.942 . S
C86 C85 1.361 . S
C86 C87 1.369 . S
C87 C86 1.369 . S
C87 C88 1.404 . S
C88 H71 0.940 . S
C88 C87 1.404 . S
C88 C89 1.389 . S
C89 H72 0.939 . S
C89 C84 1.400 . S
C89 C88 1.389 . S
C90 P64 1.819 . S
C90 C91 1.391 . S
C90 C95 1.391 . S
C91 H73 0.941 . S
C91 C90 1.391 . S
C91 C92 1.396 . S
C92 H76 0.939 . S
C92 C91 1.396 . S
C92 C93 1.397 . S
C93 C92 1.397 . S
C93 C94 1.385 . S
C94 H77 0.940 . S
C94 C93 1.385 . S
C94 C95 1.388 . S
C95 H74 0.939 . S
C95 C90 1.391 . S
C95 C94 1.388 . S
P96 O107 1.490 . S
P96 C110 1.812 . S
P96 C116 1.803 . S
P96 C122 1.819 . S
H97 C111 0.941 . S
H98 C112 0.939 . S
H99 C114 0.940 . S
H100 C115 0.940 . S
H101 C117 0.939 . S
H102 C118 0.942 . S
H103 C120 0.940 . S
H104 C121 0.939 . S
H105 C123 0.941 . S
H106 C127 0.939 . S
O107 P96 1.490 . S
H108 C124 0.939 . S
H109 C126 0.940 . S
C110 P96 1.812 . S
C110 C111 1.389 . S
C110 C115 1.391 . S
C111 H97 0.941 . S
C111 C110 1.389 . S
C111 C112 1.397 . S
C112 H98 0.939 . S
C112 C111 1.397 . S
C112 C113 1.378 . S
C113 C112 1.378 . S
C113 C114 1.378 . S
C114 H99 0.940 . S
C114 C113 1.378 . S
C114 C115 1.396 . S
C115 H100 0.940 . S
C115 C110 1.391 . S
C115 C114 1.396 . S
C116 P96 1.803 . S
C116 C117 1.378 . S
C116 C121 1.400 . S
C117 H101 0.939 . S
C117 C116 1.378 . S
C117 C118 1.361 . S
C118 H102 0.942 . S
C118 C117 1.361 . S
C118 C119 1.369 . S
C119 C118 1.369 . S
C119 C120 1.404 . S
C120 H103 0.940 . S
C120 C119 1.404 . S
C120 C121 1.389 . S
C121 H104 0.939 . S
C121 C116 1.400 . S
C121 C120 1.389 . S
C122 P96 1.819 . S
C122 C123 1.391 . S
C122 C127 1.391 . S
C123 H105 0.941 . S
C123 C122 1.391 . S
C123 C124 1.396 . S
C124 H108 0.939 . S
C124 C123 1.396 . S
C124 C125 1.397 . S
C125 C124 1.397 . S
C125 C126 1.385 . S
C126 H109 0.940 . S
C126 C125 1.385 . S
C126 C127 1.388 . S
C127 H106 0.939 . S
C127 C122 1.391 . S
C127 C126 1.388 . S
Eu128 N157 2.600 . S
Eu128 N163 2.562 . S
Eu128 O172 2.462 . S
Eu128 O173 2.373 . S
Eu128 O175 2.432 . S
Eu128 O176 2.291 1_565 S
Eu128 O180 2.335 1_465 S
Eu128 O183 2.372 1_455 S
Eu128 C192 2.787 . S
C129 N130 1.365 . S
C129 C132 1.405 . S
C129 C136 1.448 . S
N130 C129 1.365 . S
N130 C133 1.319 . S
N130 Eu139 2.600 . S
C131 C133 1.397 . S
C131 C134 1.367 . S
C131 H151 0.931 1_655 S
C132 C129 1.405 . S
C132 C134 1.403 . S
C132 C138 1.439 . S
C133 N130 1.319 . S
C133 C131 1.397 . S
C133 H144 0.930 1_655 S
C134 C131 1.367 . S
C134 C132 1.403 . S
C134 H155 0.929 . S
C135 C136 1.430 . S
C135 C137 1.387 . S
C135 C141 1.404 . S
C136 C129 1.448 . S
C136 C135 1.430 . S
C136 N140 1.351 . S
C137 C135 1.387 . S
C137 C138 1.374 . S
C137 H152 0.931 . S
C138 C132 1.439 . S
C138 C137 1.374 . S
C138 H153 0.931 . S
Eu139 N130 2.600 . S
Eu139 N140 2.562 . S
Eu139 O174 2.335 1_655 S
Eu139 O177 2.372 1_655 S
Eu139 O178 2.462 . S
Eu139 O179 2.373 . S
Eu139 O181 2.432 . S
Eu139 O182 2.291 1_545 S
Eu139 C203 2.787 . S
N140 C136 1.351 . S
N140 Eu139 2.562 . S
N140 C142 1.325 . S
C141 C135 1.404 . S
C141 C143 1.366 . S
C141 H149 0.930 . S
C142 N140 1.325 . S
C142 C143 1.416 . S
C142 H148 0.929 . S
C143 C141 1.366 . S
C143 C142 1.416 . S
C143 H145 0.930 . S
H144 C133 0.930 1_455 S
H145 C143 0.930 . S
H146 C161 0.930 1_655 S
H147 C168 0.930 . S
H148 C142 0.929 . S
H149 C141 0.930 . S
H150 C164 0.929 . S
H151 C131 0.931 1_455 S
H152 C137 0.931 . S
H153 C138 0.931 . S
H154 C159 0.931 1_655 S
H155 C134 0.929 . S
H156 C167 0.930 . S
N157 Eu128 2.600 . S
N157 C158 1.365 . S
N157 C161 1.319 . S
C158 N157 1.365 . S
C158 C160 1.405 . S
C158 C166 1.448 . S
C159 H154 0.931 1_455 S
C159 C161 1.397 . S
C159 C162 1.367 . S
C160 C158 1.405 . S
C160 C162 1.403 . S
C160 C193 1.439 . S
C161 H146 0.930 1_455 S
C161 N157 1.319 . S
C161 C159 1.397 . S
C162 C159 1.367 . S
C162 C160 1.403 . S
C162 H169 0.929 . S
N163 Eu128 2.562 . S
N163 C164 1.325 . S
N163 C166 1.351 . S
C164 H150 0.929 . S
C164 N163 1.325 . S
C164 C168 1.416 . S
C165 C166 1.430 . S
C165 C167 1.404 . S
C165 C194 1.387 . S
C166 C158 1.448 . S
C166 N163 1.351 . S
C166 C165 1.430 . S
C167 H156 0.930 . S
C167 C165 1.404 . S
C167 C168 1.366 . S
C168 H147 0.930 . S
C168 C164 1.416 . S
C168 C167 1.366 . S
H169 C162 0.929 . S
H170 C193 0.931 . S
H171 C194 0.931 . S
O172 Eu128 2.462 . S
O172 C192 1.252 . S
O173 Eu128 2.373 . S
O173 C184 1.249 . S
O174 Eu139 2.335 1_455 S
O174 C184 1.264 1_545 S
O175 Eu128 2.432 . S
O175 C192 1.268 . S
O176 Eu128 2.291 1_545 S
O176 C191 1.255 . S
O177 Eu139 2.372 1_455 S
O177 C191 1.257 . S
O178 Eu139 2.462 . S
O178 C203 1.252 . S
O179 Eu139 2.373 . S
O179 C195 1.249 . S
O180 Eu128 2.335 1_645 S
O180 C195 1.264 . S
O181 Eu139 2.432 . S
O181 C203 1.268 . S
O182 Eu139 2.291 1_565 S
O182 C202 1.255 . S
O183 Eu128 2.372 1_655 S
O183 C202 1.257 . S
C184 O173 1.249 . S
C184 O174 1.264 1_565 S
C185 C188 1.382 . S
C185 C190 1.390 . S
C185 C192 1.506 . S
C186 C187 1.398 . S
C186 C190 1.392 . S
C187 C186 1.398 . S
C187 C189 1.372 . S
C187 H204 0.931 . S
C188 C185 1.382 . S
C188 C189 1.390 . S
C188 H205 0.931 . S
C189 C187 1.372 . S
C189 C188 1.390 . S
C189 H206 0.929 . S
C190 C185 1.390 . S
C190 C186 1.392 . S
C190 H207 0.930 . S
C191 O176 1.255 . S
C191 O177 1.257 . S
C192 Eu128 2.787 . S
C192 O172 1.252 . S
C192 O175 1.268 . S
C192 C185 1.506 . S
C193 C160 1.439 . S
C193 H170 0.931 . S
C193 C194 1.374 . S
C194 C165 1.387 . S
C194 H171 0.931 . S
C194 C193 1.374 . S
C195 O179 1.249 . S
C195 O180 1.264 . S
C196 C199 1.382 . S
C196 C200 1.390 . S
C196 C203 1.506 . S
C197 C198 1.398 . S
C197 C200 1.392 . S
C198 C197 1.398 . S
C198 C201 1.372 . S
C198 H208 0.931 . S
C199 C196 1.382 . S
C199 C201 1.390 . S
C199 H209 0.931 . S
C200 C196 1.390 . S
C200 C197 1.392 . S
C200 H210 0.930 . S
C201 C198 1.372 . S
C201 C199 1.390 . S
C201 H211 0.929 . S
C202 O182 1.255 . S
C202 O183 1.257 . S
C203 Eu139 2.787 . S
C203 O178 1.252 . S
C203 O181 1.268 . S
C203 C196 1.506 . S
H204 C187 0.931 . S
H205 C188 0.931 . S
H206 C189 0.929 . S
H207 C190 0.930 . S
H208 C198 0.931 . S
H209 C199 0.931 . S
H210 C200 0.930 . S
H211 C201 0.929 . S
Eu212 N241 2.598 1_556 S
Eu212 N247 2.561 1_556 S
Eu212 O256 2.468 . S
Eu212 O257 2.365 1_556 S
Eu212 O259 2.438 . S
Eu212 O260 2.290 1_556 S
Eu212 O264 2.339 . S
Eu212 O267 2.369 1_556 S
Eu212 C276 2.794 . S
C213 N214 1.365 . S
C213 C216 1.405 . S
C213 C220 1.448 . S
N214 C213 1.365 . S
N214 C217 1.319 . S
N214 Eu223 2.600 . S
C215 C217 1.397 . S
C215 C218 1.367 . S
C215 H235 0.931 . S
C216 C213 1.405 . S
C216 C218 1.403 . S
C216 C222 1.439 . S
C217 N214 1.319 . S
C217 C215 1.397 . S
C217 H228 0.930 . S
C218 C215 1.367 . S
C218 C216 1.403 . S
C218 H239 0.929 . S
C219 C220 1.430 . S
C219 C221 1.387 . S
C219 C225 1.404 . S
C220 C213 1.448 . S
C220 C219 1.430 . S
C220 N224 1.351 . S
C221 C219 1.387 . S
C221 C222 1.374 . S
C221 H236 0.931 . S
C222 C216 1.439 . S
C222 C221 1.374 . S
C222 H237 0.931 . S
Eu223 N214 2.600 . S
Eu223 N224 2.562 . S
Eu223 O258 2.335 . S
Eu223 O261 2.372 . S
Eu223 O262 2.462 . S
Eu223 O263 2.373 . S
Eu223 O265 2.432 . S
Eu223 O266 2.291 . S
Eu223 C287 2.787 . S
N224 C220 1.351 . S
N224 Eu223 2.562 . S
N224 C226 1.325 . S
C225 C219 1.404 . S
C225 C227 1.366 . S
C225 H233 0.930 . S
C226 N224 1.325 . S
C226 C227 1.416 . S
C226 H232 0.929 . S
C227 C225 1.366 . S
C227 C226 1.416 . S
C227 H229 0.930 . S
H228 C217 0.930 . S
H229 C227 0.930 . S
H230 C245 0.930 . S
H231 C252 0.930 . S
H232 C226 0.929 . S
H233 C225 0.930 . S
H234 C248 0.929 . S
H235 C215 0.931 . S
H236 C221 0.931 . S
H237 C222 0.931 . S
H238 C243 0.931 . S
H239 C218 0.929 . S
H240 C251 0.930 . S
N241 Eu212 2.598 1_554 S
N241 C242 1.365 . S
N241 C245 1.319 1_554 S
C242 N241 1.365 . S
C242 C244 1.405 . S
C242 C250 1.448 . S
C243 H238 0.931 . S
C243 C245 1.397 . S
C243 C246 1.367 1_556 S
C244 C242 1.405 . S
C244 C246 1.403 . S
C244 C277 1.439 . S
C245 H230 0.930 . S
C245 N241 1.319 1_556 S
C245 C243 1.397 . S
C246 C243 1.367 1_554 S
C246 C244 1.403 . S
C246 H253 0.929 . S
N247 Eu212 2.561 1_554 S
N247 C248 1.325 . S
N247 C250 1.351 . S
C248 H234 0.929 . S
C248 N247 1.325 . S
C248 C252 1.416 . S
C249 C250 1.430 . S
C249 C251 1.404 . S
C249 C278 1.387 . S
C250 C242 1.448 . S
C250 N247 1.351 . S
C250 C249 1.430 . S
C251 H240 0.930 . S
C251 C249 1.404 . S
C251 C252 1.366 . S
C252 H231 0.930 . S
C252 C248 1.416 . S
C252 C251 1.366 . S
H253 C246 0.929 . S
H254 C277 0.931 . S
H255 C278 0.931 . S
O256 Eu212 2.468 . S
O256 C276 1.252 . S
O257 Eu212 2.365 1_554 S
O257 C268 1.249 . S
O258 Eu223 2.335 . S
O258 C268 1.264 . S
O259 Eu212 2.438 . S
O259 C276 1.268 . S
O260 Eu212 2.290 1_554 S
O260 C275 1.255 . S
O261 Eu223 2.372 . S
O261 C275 1.257 . S
O262 Eu223 2.462 . S
O262 C287 1.252 . S
O263 Eu223 2.373 . S
O263 C279 1.249 1_554 S
O264 Eu212 2.339 . S
O264 C279 1.264 . S
O265 Eu223 2.432 . S
O265 C287 1.268 . S
O266 Eu223 2.291 . S
O266 C286 1.255 . S
O267 Eu212 2.369 1_554 S
O267 C286 1.257 . S
C268 O257 1.249 . S
C268 O258 1.264 . S
C269 C272 1.382 . S
C269 C274 1.390 . S
C269 C276 1.506 . S
C270 C271 1.398 . S
C270 C274 1.392 . S
C271 C270 1.398 . S
C271 C273 1.372 . S
C271 H288 0.931 . S
C272 C269 1.382 . S
C272 C273 1.390 . S
C272 H289 0.931 . S
C273 C271 1.372 . S
C273 C272 1.390 . S
C273 H290 0.929 . S
C274 C269 1.390 . S
C274 C270 1.392 . S
C274 H291 0.930 . S
C275 O260 1.255 . S
C275 O261 1.257 . S
C276 Eu212 2.794 . S
C276 O256 1.252 . S
C276 O259 1.268 . S
C276 C269 1.506 . S
C277 C244 1.439 . S
C277 H254 0.931 . S
C277 C278 1.374 . S
C278 C249 1.387 . S
C278 H255 0.931 . S
C278 C277 1.374 . S
C279 O263 1.249 1_556 S
C279 O264 1.264 . S
C280 C283 1.382 . S
C280 C284 1.390 . S
C280 C287 1.506 . S
C281 C282 1.398 . S
C281 C284 1.392 . S
C282 C281 1.398 . S
C282 C285 1.372 . S
C282 H292 0.931 . S
C283 C280 1.382 . S
C283 C285 1.390 . S
C283 H293 0.931 . S
C284 C280 1.390 . S
C284 C281 1.392 . S
C284 H294 0.930 . S
C285 C282 1.372 . S
C285 C283 1.390 . S
C285 H295 0.929 . S
C286 O266 1.255 . S
C286 O267 1.257 . S
C287 Eu223 2.787 . S
C287 O262 1.252 . S
C287 O265 1.268 . S
C287 C280 1.506 . S
H288 C271 0.931 . S
H289 C272 0.931 . S
H290 C273 0.929 . S
H291 C274 0.930 . S
H292 C282 0.931 . S
H293 C283 0.931 . S
H294 C284 0.930 . S
H295 C285 0.929 . S
C296 C297 1.363 . S
C296 C302 1.379 . S
C296 N304 1.356 . S
C297 C296 1.363 . S
C297 C303 1.363 . S
C298 C299 1.363 . S
C298 C303 1.379 . S
C298 N305 1.356 . S
C299 C298 1.363 . S
C299 C302 1.363 . S
N300 C302 1.356 . S
N300 H312 0.984 . S
N300 H313 0.985 . S
N301 C303 1.356 . S
N301 H306 0.984 . S
N301 H307 0.985 . S
C302 C296 1.379 . S
C302 C299 1.363 . S
C302 N300 1.356 . S
C303 C297 1.363 . S
C303 C298 1.379 . S
C303 N301 1.356 . S
N304 C296 1.356 . S
N304 H310 0.984 . S
N304 H311 0.984 . S
N305 C298 1.356 . S
N305 H308 0.984 . S
N305 H309 0.985 . S
H306 N301 0.984 . S
H307 N301 0.985 . S
H308 N305 0.984 . S
H309 N305 0.985 . S
H310 N304 0.984 . S
H311 N304 0.984 . S
H312 N300 0.984 . S
H313 N300 0.985 . S
C314 C315 1.363 . S
C314 C320 1.379 . S
C314 N322 1.356 . S
C315 C314 1.363 . S
C315 C321 1.363 . S
C316 C317 1.363 . S
C316 C321 1.379 . S
C316 N323 1.356 1_554 S
C317 C316 1.363 . S
C317 C320 1.363 . S
N318 C320 1.356 . S
N318 H330 0.984 . S
N318 H331 0.985 . S
N319 C321 1.356 1_556 S
N319 H324 0.984 . S
N319 H325 0.985 . S
C320 C314 1.379 . S
C320 C317 1.363 . S
C320 N318 1.356 . S
C321 C315 1.363 . S
C321 C316 1.379 . S
C321 N319 1.356 1_554 S
N322 C314 1.356 . S
N322 H328 0.984 . S
N322 H329 0.984 . S
N323 C316 1.356 1_556 S
N323 H326 0.984 . S
N323 H327 0.985 . S
H324 N319 0.984 . S
H325 N319 0.985 . S
H326 N323 0.984 . S
H327 N323 0.985 . S
H328 N322 0.984 . S
H329 N322 0.984 . S
H330 N318 0.984 . S
H331 N318 0.985 . S
C332 C333 1.363 . S
C332 C338 1.379 . S
C332 N340 1.356 . S
C333 C332 1.363 . S
C333 C339 1.363 . S
C334 C335 1.363 . S
C334 C339 1.379 . S
C334 N341 1.356 . S
C335 C334 1.363 . S
C335 C338 1.363 . S
N336 C338 1.356 . S
N336 H348 0.984 1_565 S
N336 H349 0.985 . S
N337 C339 1.356 . S
N337 H342 0.984 . S
N337 H343 0.985 . S
C338 C332 1.379 . S
C338 C335 1.363 . S
C338 N336 1.356 . S
C339 C333 1.363 . S
C339 C334 1.379 . S
C339 N337 1.356 . S
N340 C332 1.356 . S
N340 H346 0.984 . S
N340 H347 0.984 . S
N341 C334 1.356 . S
N341 H344 0.984 . S
N341 H345 0.985 . S
H342 N337 0.984 . S
H343 N337 0.985 . S
H344 N341 0.984 . S
H345 N341 0.985 . S
H346 N340 0.984 . S
H347 N340 0.984 . S
H348 N336 0.984 1_545 S
H349 N336 0.985 . S
C350 C351 1.363 . S
C350 C356 1.379 . S
C350 N358 1.356 1_554 S
C351 C350 1.363 . S
C351 C357 1.363 . S
C352 C353 1.363 . S
C352 C357 1.379 . S
C352 N359 1.356 . S
C353 C352 1.363 . S
C353 C356 1.363 . S
N354 C356 1.356 1_556 S
N354 H366 0.984 . S
N354 H367 0.985 1_556 S
N355 C357 1.356 . S
N355 H360 0.984 . S
N355 H361 0.985 . S
C356 C350 1.379 . S
C356 C353 1.363 . S
C356 N354 1.356 1_554 S
C357 C351 1.363 . S
C357 C352 1.379 . S
C357 N355 1.356 . S
N358 C350 1.356 1_556 S
N358 H364 0.984 . S
N358 H365 0.985 1_556 S
N359 C352 1.356 . S
N359 H362 0.984 . S
N359 H363 0.985 . S
H360 N355 0.984 . S
H361 N355 0.985 . S
H362 N359 0.984 . S
H363 N359 0.985 . S
H364 N358 0.984 . S
H365 N358 0.985 1_554 S
H366 N354 0.984 . S
H367 N354 0.985 1_554 S
C368 C369 1.363 . S
C368 C374 1.379 . S
C368 N376 1.356 . S
C369 C368 1.363 . S
C369 C375 1.363 . S
C370 C371 1.363 . S
C370 C375 1.379 . S
C370 N377 1.356 1_565 S
C371 C370 1.363 . S
C371 C374 1.363 . S
N372 C374 1.356 . S
N372 H384 0.984 . S
N372 H385 0.985 . S
N373 C375 1.356 . S
N373 H378 0.984 . S
N373 H379 0.985 1_565 S
C374 C368 1.379 . S
C374 C371 1.363 . S
C374 N372 1.356 . S
C375 C369 1.363 . S
C375 C370 1.379 . S
C375 N373 1.356 . S
N376 C368 1.356 . S
N376 H382 0.984 . S
N376 H383 0.984 . S
N377 C370 1.356 1_545 S
N377 H380 0.984 . S
N377 H381 0.985 . S
H378 N373 0.984 . S
H379 N373 0.985 1_545 S
H380 N377 0.984 . S
H381 N377 0.985 . S
H382 N376 0.984 . S
H383 N376 0.984 . S
H384 N372 0.984 . S
H385 N372 0.985 . S
C386 C387 1.363 . S
C386 C392 1.379 . S
C386 N394 1.356 . S
C387 C386 1.363 . S
C387 C393 1.363 . S
C388 C389 1.363 . S
C388 C393 1.379 . S
C388 N395 1.356 . S
C389 C388 1.363 . S
C389 C392 1.363 . S
N390 C392 1.356 . S
N390 H402 0.984 . S
N390 H403 0.985 . S
N391 C393 1.356 . S
N391 H396 0.984 . S
N391 H397 0.985 . S
C392 C386 1.379 . S
C392 C389 1.363 . S
C392 N390 1.356 . S
C393 C387 1.363 . S
C393 C388 1.379 . S
C393 N391 1.356 . S
N394 C386 1.356 . S
N394 H400 0.984 . S
N394 H401 0.984 . S
N395 C388 1.356 . S
N395 H398 0.984 . S
N395 H399 0.985 . S
H396 N391 0.984 . S
H397 N391 0.985 . S
H398 N395 0.984 . S
H399 N395 0.985 . S
H400 N394 0.984 . S
H401 N394 0.984 . S
H402 N390 0.984 . S
H403 N390 0.985 . S
C404 C405 1.363 . S
C404 C410 1.379 . S
C404 N412 1.356 . S
C405 C404 1.363 . S
C405 C411 1.363 . S
C406 C407 1.363 . S
C406 C411 1.379 . S
C406 N413 1.356 1_545 S
C407 C406 1.363 . S
C407 C410 1.363 . S
N408 C410 1.356 . S
N408 H420 0.984 . S
N408 H421 0.985 . S
N409 C411 1.356 1_565 S
N409 H414 0.984 1_565 S
N409 H415 0.985 . S
C410 C404 1.379 . S
C410 C407 1.363 . S
C410 N408 1.356 . S
C411 C405 1.363 . S
C411 C406 1.379 . S
C411 N409 1.356 1_545 S
N412 C404 1.356 . S
N412 H418 0.984 . S
N412 H419 0.984 . S
N413 C406 1.356 1_565 S
N413 H416 0.984 . S
N413 H417 0.985 . S
H414 N409 0.984 1_545 S
H415 N409 0.985 . S
H416 N413 0.984 . S
H417 N413 0.985 . S
H418 N412 0.984 . S
H419 N412 0.984 . S
H420 N408 0.984 . S
H421 N408 0.985 . S
C422 C423 1.363 . S
C422 C428 1.379 . S
C422 N430 1.356 . S
C423 C422 1.363 . S
C423 C429 1.363 . S
C424 C425 1.363 . S
C424 C429 1.379 . S
C424 N431 1.356 . S
C425 C424 1.363 . S
C425 C428 1.363 . S
N426 C428 1.356 . S
N426 H438 0.984 . S
N426 H439 0.985 . S
N427 C429 1.356 . S
N427 H432 0.984 . S
N427 H433 0.985 . S
C428 C422 1.379 . S
C428 C425 1.363 . S
C428 N426 1.356 . S
C429 C423 1.363 . S
C429 C424 1.379 . S
C429 N427 1.356 . S
N430 C422 1.356 . S
N430 H436 0.984 . S
N430 H437 0.984 . S
N431 C424 1.356 . S
N431 H434 0.984 . S
N431 H435 0.985 . S
H432 N427 0.984 . S
H433 N427 0.985 . S
H434 N431 0.984 . S
H435 N431 0.985 . S
H436 N430 0.984 . S
H437 N430 0.984 . S
H438 N426 0.984 . S
H439 N426 0.985 . S
C440 C441 1.363 . S
C440 C446 1.379 . S
C440 N448 1.356 . S
C441 C440 1.363 . S
C441 C447 1.363 . S
C442 C443 1.363 . S
C442 C447 1.379 . S
C442 N449 1.356 . S
C443 C442 1.363 . S
C443 C446 1.363 . S
N444 C446 1.356 . S
N444 H456 0.984 . S
N444 H457 0.985 . S
N445 C447 1.356 . S
N445 H450 0.984 . S
N445 H451 0.985 . S
C446 C440 1.379 . S
C446 C443 1.363 . S
C446 N444 1.356 . S
C447 C441 1.363 . S
C447 C442 1.379 . S
C447 N445 1.356 . S
N448 C440 1.356 . S
N448 H454 0.984 . S
N448 H455 0.984 . S
N449 C442 1.356 . S
N449 H452 0.984 . S
N449 H453 0.985 . S
H450 N445 0.984 . S
H451 N445 0.985 . S
H452 N449 0.984 . S
H453 N449 0.985 . S
H454 N448 0.984 . S
H455 N448 0.984 . S
H456 N444 0.984 . S
H457 N444 0.985 . S
C458 C459 1.363 . S
C458 C464 1.379 . S
C458 N466 1.356 . S
C459 C458 1.363 . S
C459 C465 1.363 . S
C460 C461 1.363 . S
C460 C465 1.379 . S
C460 N467 1.356 . S
C461 C460 1.363 . S
C461 C464 1.363 . S
N462 C464 1.356 . S
N462 H474 0.984 . S
N462 H475 0.985 . S
N463 C465 1.356 . S
N463 H468 0.984 . S
N463 H469 0.985 1_545 S
C464 C458 1.379 . S
C464 C461 1.363 . S
C464 N462 1.356 . S
C465 C459 1.363 . S
C465 C460 1.379 . S
C465 N463 1.356 . S
N466 C458 1.356 . S
N466 H472 0.984 . S
N466 H473 0.984 . S
N467 C460 1.356 . S
N467 H470 0.984 . S
N467 H471 0.985 1_545 S
H468 N463 0.984 . S
H469 N463 0.985 1_565 S
H470 N467 0.984 . S
H471 N467 0.985 1_565 S
H472 N466 0.984 . S
H473 N466 0.984 . S
H474 N462 0.984 . S
H475 N462 0.985 . S
C476 C477 1.363 . S
C476 C482 1.379 . S
C476 N484 1.356 . S
C477 C476 1.363 . S
C477 C483 1.363 . S
C478 C479 1.363 . S
C478 C483 1.379 . S
C478 N485 1.356 . S
C479 C478 1.363 . S
C479 C482 1.363 . S
N480 C482 1.356 . S
N480 H492 0.984 . S
N480 H493 0.985 . S
N481 C483 1.356 . S
N481 H486 0.984 . S
N481 H487 0.985 . S
C482 C476 1.379 . S
C482 C479 1.363 . S
C482 N480 1.356 . S
C483 C477 1.363 . S
C483 C478 1.379 . S
C483 N481 1.356 . S
N484 C476 1.356 . S
N484 H490 0.984 . S
N484 H491 0.984 . S
N485 C478 1.356 . S
N485 H488 0.984 . S
N485 H489 0.985 . S
H486 N481 0.984 . S
H487 N481 0.985 . S
H488 N485 0.984 . S
H489 N485 0.985 . S
H490 N484 0.984 . S
H491 N484 0.984 . S
H492 N480 0.984 . S
H493 N480 0.985 . S
C494 C495 1.363 . S
C494 C500 1.379 . S
C494 N502 1.356 1_565 S
C495 C494 1.363 . S
C495 C501 1.363 . S
C496 C497 1.363 . S
C496 C501 1.379 . S
C496 N503 1.356 . S
C497 C496 1.363 . S
C497 C500 1.363 . S
N498 C500 1.356 1_545 S
N498 H510 0.984 . S
N498 H511 0.985 . S
N499 C501 1.356 . S
N499 H504 0.984 . S
N499 H505 0.985 . S
C500 C494 1.379 . S
C500 C497 1.363 . S
C500 N498 1.356 1_565 S
C501 C495 1.363 . S
C501 C496 1.379 . S
C501 N499 1.356 . S
N502 C494 1.356 1_545 S
N502 H508 0.984 . S
N502 H509 0.984 1_545 S
N503 C496 1.356 . S
N503 H506 0.984 . S
N503 H507 0.985 . S
H504 N499 0.984 . S
H505 N499 0.985 . S
H506 N503 0.984 . S
H507 N503 0.985 . S
H508 N502 0.984 . S
H509 N502 0.984 1_565 S
H510 N498 0.984 . S
H511 N498 0.985 . S
C299 C191 1.654 . S
C297 C119 1.635 . S
C315 C23 1.641 . S
C317 C286 1.622 . S
C333 C55 1.565 . S
C335 C202 1.655 . S
C351 C87 1.525 . S
C353 C275 1.622 . S
C371 C186 1.399 . S
C369 C17 1.539 . S
C389 C279 1.618 . S
C387 C61 1.536 . S
C405 C93 1.495 . S
C407 C195 1.636 . S
C423 C113 1.517 . S
C425 C270 1.402 . S
C443 C281 1.402 . S
C441 C49 1.487 . S
C461 C197 1.399 . S
C459 C81 1.490 . S
C479 C268 1.619 . S
C477 C125 1.610 . S
C495 C29 1.635 . S
C497 C184 1.636 . S
