# Generated by pormake.
# Topology the, (3,8)-cn, num edge types: 1
# Building blocks:
#     Node 0, Type 0, BuildingBlock: KAKCAD_clean_linker_0, # of connection points: 3
#     Node 1, Type 0, BuildingBlock: KAKCAD_clean_linker_0, # of connection points: 3
#     Node 2, Type 0, BuildingBlock: KAKCAD_clean_linker_0, # of connection points: 3
#     Node 3, Type 0, BuildingBlock: KAKCAD_clean_linker_0, # of connection points: 3
#     Node 4, Type 0, BuildingBlock: KAKCAD_clean_linker_0, # of connection points: 3
#     Node 5, Type 0, BuildingBlock: KAKCAD_clean_linker_0, # of connection points: 3
#     Node 6, Type 0, BuildingBlock: KAKCAD_clean_linker_0, # of connection points: 3
#     Node 7, Type 0, BuildingBlock: KAKCAD_clean_linker_0, # of connection points: 3
#     Node 8, Type 1, BuildingBlock: GIZVER_clean_sbu_0, # of connection points: 8
#     Node 9, Type 1, BuildingBlock: GIZVER_clean_sbu_0, # of connection points: 8
#     Node 10, Type 1, BuildingBlock: GIZVER_clean_sbu_0, # of connection points: 8
#     Edge 11, Type (0, 1), BuildingBlock: UVAHIK_clean_linker_0, # of connection points: 2
#     Edge 12, Type (0, 1), BuildingBlock: UVAHIK_clean_linker_0, # of connection points: 2
#     Edge 13, Type (0, 1), BuildingBlock: UVAHIK_clean_linker_0, # of connection points: 2
#     Edge 14, Type (0, 1), BuildingBlock: UVAHIK_clean_linker_0, # of connection points: 2
#     Edge 15, Type (0, 1), BuildingBlock: UVAHIK_clean_linker_0, # of connection points: 2
#     Edge 16, Type (0, 1), BuildingBlock: UVAHIK_clean_linker_0, # of connection points: 2
#     Edge 17, Type (0, 1), BuildingBlock: UVAHIK_clean_linker_0, # of connection points: 2
#     Edge 18, Type (0, 1), BuildingBlock: UVAHIK_clean_linker_0, # of connection points: 2
#     Edge 19, Type (0, 1), BuildingBlock: UVAHIK_clean_linker_0, # of connection points: 2
#     Edge 20, Type (0, 1), BuildingBlock: UVAHIK_clean_linker_0, # of connection points: 2
#     Edge 21, Type (0, 1), BuildingBlock: UVAHIK_clean_linker_0, # of connection points: 2
#     Edge 22, Type (0, 1), BuildingBlock: UVAHIK_clean_linker_0, # of connection points: 2
#     Edge 23, Type (0, 1), BuildingBlock: UVAHIK_clean_linker_0, # of connection points: 2
#     Edge 24, Type (0, 1), BuildingBlock: UVAHIK_clean_linker_0, # of connection points: 2
#     Edge 25, Type (0, 1), BuildingBlock: UVAHIK_clean_linker_0, # of connection points: 2
#     Edge 26, Type (0, 1), BuildingBlock: UVAHIK_clean_linker_0, # of connection points: 2
#     Edge 27, Type (0, 1), BuildingBlock: UVAHIK_clean_linker_0, # of connection points: 2
#     Edge 28, Type (0, 1), BuildingBlock: UVAHIK_clean_linker_0, # of connection points: 2
#     Edge 29, Type (0, 1), BuildingBlock: UVAHIK_clean_linker_0, # of connection points: 2
#     Edge 30, Type (0, 1), BuildingBlock: UVAHIK_clean_linker_0, # of connection points: 2
#     Edge 31, Type (0, 1), BuildingBlock: UVAHIK_clean_linker_0, # of connection points: 2
#     Edge 32, Type (0, 1), BuildingBlock: UVAHIK_clean_linker_0, # of connection points: 2
#     Edge 33, Type (0, 1), BuildingBlock: UVAHIK_clean_linker_0, # of connection points: 2
#     Edge 34, Type (0, 1), BuildingBlock: UVAHIK_clean_linker_0, # of connection points: 2
# Relax obj value: 0.043
# Max RMSD: 0.140
# Mean RMSD: 0.063
data_MOF--net-the--node1-GIZVER_clean_sbu_0--node2-KAKCAD_clean_linker_0--edge1-UVAHIK_clean_linker_0
_symmetry_space_group_name_H-M    P1
_symmetry_Int_Tables_number       1
_symmetry_cell_setting            triclinic
loop_
_symmetry_equiv_pos_as_xyz
'x, y, z'
_cell_length_a     61.607099
_cell_length_b     58.114846
_cell_length_c     53.811129
_cell_angle_alpha  87.204524
_cell_angle_beta   93.39591
_cell_angle_gamma 99.949571
loop_
_atom_site_label
_atom_site_type_symbol
_atom_site_fract_x
_atom_site_fract_y
_atom_site_fract_z
_atom_type_partial_charge
C0 C 0.33078 0.36455 0.29359 0.0
C1 C 0.33508 0.38911 0.29223 0.0
C2 C 0.32558 0.35249 0.31611 0.0
C3 C 0.32442 0.36474 0.33773 0.0
C4 C 0.32812 0.3893 0.33627 0.0
C5 C 0.33353 0.40138 0.31375 0.0
C6 C 0.32005 0.35187 0.36186 0.0
C7 C 0.33126 0.33333 0.36919 0.0
C8 C 0.32738 0.32111 0.39203 0.0
C9 C 0.312 0.32732 0.40747 0.0
C10 C 0.30023 0.34535 0.40024 0.0
C11 C 0.30458 0.35784 0.37754 0.0
C12 C 0.28276 0.35022 0.41605 0.0
C13 C 0.26833 0.3316 0.42701 0.0
C14 C 0.28034 0.37327 0.42033 0.0
C15 C 0.26372 0.37757 0.43518 0.0
C16 C 0.24919 0.35891 0.44596 0.0
C17 C 0.33861 0.30118 0.39964 0.0
C18 C 0.33887 0.28324 0.38318 0.0
C19 C 0.3477 0.29918 0.42403 0.0
C20 C 0.3563 0.27926 0.43208 0.0
C21 C 0.35585 0.26087 0.41595 0.0
C22 C 0.34735 0.26322 0.39128 0.0
C23 C 0.2518 0.33589 0.44186 0.0
H24 H 0.33206 0.35461 0.27738 0.0
H25 H 0.32258 0.33355 0.31665 0.0
H26 H 0.32742 0.39917 0.35268 0.0
H27 H 0.33663 0.42032 0.3132 0.0
H28 H 0.34333 0.32868 0.35733 0.0
H29 H 0.29537 0.37161 0.3716 0.0
H30 H 0.30885 0.3177 0.42503 0.0
H31 H 0.26956 0.31363 0.4238 0.0
H32 H 0.29132 0.38795 0.41228 0.0
H33 H 0.26192 0.39551 0.43771 0.0
H34 H 0.33173 0.28428 0.36436 0.0
H35 H 0.34793 0.31294 0.43697 0.0
H36 H 0.24096 0.32115 0.45003 0.0
H37 H 0.34655 0.24927 0.37846 0.0
H38 H 0.36318 0.27822 0.45102 0.0
C39 C 0.76324 0.38077 0.34158 0.0
C40 C 0.77678 0.36687 0.35494 0.0
C41 C 0.74315 0.37053 0.33005 0.0
C42 C 0.73634 0.34607 0.33117 0.0
C43 C 0.75026 0.33224 0.34426 0.0
C44 C 0.77009 0.34254 0.35622 0.0
C45 C 0.7149 0.33496 0.31886 0.0
C46 C 0.70657 0.34467 0.29653 0.0
C47 C 0.68657 0.3341 0.28481 0.0
C48 C 0.67516 0.31317 0.29525 0.0
C49 C 0.68292 0.30318 0.31767 0.0
C50 C 0.70263 0.31448 0.32946 0.0
C51 C 0.67039 0.28107 0.32877 0.0
C52 C 0.64719 0.27613 0.32629 0.0
C53 C 0.68149 0.26453 0.34171 0.0
C54 C 0.66978 0.24376 0.35188 0.0
C55 C 0.6466 0.23863 0.349 0.0
C56 C 0.67703 0.34525 0.26217 0.0
C57 C 0.67643 0.36936 0.26104 0.0
C58 C 0.66719 0.3317 0.24224 0.0
C59 C 0.65639 0.34185 0.22206 0.0
C60 C 0.65508 0.3658 0.22136 0.0
C61 C 0.66554 0.3795 0.24091 0.0
C62 C 0.63552 0.25515 0.33596 0.0
H63 H 0.76799 0.39962 0.34052 0.0
H64 H 0.73283 0.38189 0.32062 0.0
H65 H 0.74602 0.31336 0.34511 0.0
H66 H 0.78037 0.33144 0.3662 0.0
H67 H 0.7158 0.36026 0.28788 0.0
H68 H 0.7082 0.30757 0.34729 0.0
H69 H 0.66 0.30479 0.28593 0.0
H70 H 0.63789 0.2885 0.31693 0.0
H71 H 0.69933 0.26742 0.34379 0.0
H72 H 0.679 0.23182 0.36213 0.0
H73 H 0.68371 0.38027 0.27615 0.0
H74 H 0.66757 0.31313 0.2424 0.0
H75 H 0.61776 0.25186 0.33288 0.0
H76 H 0.66508 0.39805 0.2408 0.0
H77 H 0.6484 0.33075 0.20743 0.0
C78 C 0.6637 0.65194 0.26072 0.0
C79 C 0.65491 0.6644 0.24062 0.0
C80 C 0.67468 0.66359 0.28118 0.0
C81 C 0.67727 0.68808 0.28211 0.0
C82 C 0.6683 0.70056 0.26211 0.0
C83 C 0.65724 0.68886 0.24163 0.0
C84 C 0.68945 0.70041 0.30379 0.0
C85 C 0.70854 0.69303 0.31465 0.0
C86 C 0.71988 0.70386 0.33558 0.0
C87 C 0.71216 0.72281 0.34532 0.0
C88 C 0.69313 0.73066 0.33474 0.0
C89 C 0.68189 0.71924 0.314 0.0
C90 C 0.68478 0.75046 0.34563 0.0
C91 C 0.68597 0.75314 0.37159 0.0
C92 C 0.6754 0.7668 0.33018 0.0
C93 C 0.66724 0.7851 0.34039 0.0
C94 C 0.66844 0.78771 0.36629 0.0
C95 C 0.7394 0.69488 0.34762 0.0
C96 C 0.73943 0.67068 0.35015 0.0
C97 C 0.75799 0.71025 0.3569 0.0
C98 C 0.77608 0.7016 0.36851 0.0
C99 C 0.77602 0.67738 0.37113 0.0
C100 C 0.75749 0.66207 0.36165 0.0
C101 C 0.67803 0.7716 0.38176 0.0
H102 H 0.66182 0.63306 0.26084 0.0
H103 H 0.68094 0.65333 0.29645 0.0
H104 H 0.67019 0.71944 0.26205 0.0
H105 H 0.65085 0.69903 0.22638 0.0
H106 H 0.7148 0.67894 0.30654 0.0
H107 H 0.6668 0.72452 0.30623 0.0
H108 H 0.72089 0.73132 0.36134 0.0
H109 H 0.69266 0.74072 0.38417 0.0
H110 H 0.67453 0.76562 0.31011 0.0
H111 H 0.66018 0.79739 0.32795 0.0
H112 H 0.72533 0.65829 0.34353 0.0
H113 H 0.75866 0.72899 0.35506 0.0
H114 H 0.67893 0.77296 0.40181 0.0
H115 H 0.75695 0.64333 0.36297 0.0
H116 H 0.78996 0.71392 0.37576 0.0
C117 C 0.31648 0.65888 0.23416 0.0
C118 C 0.33877 0.65624 0.23712 0.0
C119 C 0.30737 0.67177 0.25092 0.0
C120 C 0.32031 0.68233 0.27107 0.0
C121 C 0.34267 0.67996 0.27377 0.0
C122 C 0.35178 0.66719 0.25699 0.0
C123 C 0.31047 0.69506 0.28975 0.0
C124 C 0.28924 0.68639 0.29798 0.0
C125 C 0.28053 0.69729 0.31691 0.0
C126 C 0.29312 0.71722 0.32754 0.0
C127 C 0.31424 0.72642 0.31938 0.0
C128 C 0.32269 0.71528 0.30038 0.0
C129 C 0.32776 0.74709 0.33139 0.0
C130 C 0.31809 0.76611 0.33768 0.0
C131 C 0.35039 0.74766 0.33724 0.0
C132 C 0.36296 0.7666 0.34937 0.0
C133 C 0.35325 0.78548 0.35599 0.0
C134 C 0.25867 0.68719 0.32642 0.0
C135 C 0.24014 0.68159 0.30998 0.0
C136 C 0.25631 0.68281 0.35208 0.0
C137 C 0.23587 0.67284 0.36114 0.0
C138 C 0.21716 0.66735 0.34479 0.0
C139 C 0.21958 0.67195 0.31906 0.0
C140 C 0.33069 0.7851 0.3498 0.0
H141 H 0.30592 0.65057 0.21919 0.0
H142 H 0.29015 0.67343 0.24809 0.0
H143 H 0.3531 0.68755 0.28921 0.0
H144 H 0.3691 0.66589 0.25964 0.0
H145 H 0.27982 0.67051 0.29049 0.0
H146 H 0.33882 0.72248 0.29373 0.0
H147 H 0.28654 0.72535 0.34247 0.0
H148 H 0.30075 0.76635 0.33321 0.0
H149 H 0.35834 0.73322 0.33291 0.0
H150 H 0.38035 0.76646 0.35355 0.0
H151 H 0.24152 0.68496 0.29011 0.0
H152 H 0.27041 0.68664 0.36513 0.0
H153 H 0.32264 0.79925 0.35478 0.0
H154 H 0.20556 0.66835 0.30589 0.0
H155 H 0.2349 0.66907 0.38098 0.0
C156 C 0.23947 0.65745 0.69533 0.0
C157 C 0.23591 0.65702 0.66926 0.0
C158 C 0.25967 0.66821 0.70613 0.0
C159 C 0.27683 0.67888 0.69115 0.0
C160 C 0.27325 0.67856 0.6651 0.0
C161 C 0.25307 0.66777 0.6543 0.0
C162 C 0.29835 0.69035 0.70264 0.0
C163 C 0.30827 0.67979 0.72347 0.0
C164 C 0.32874 0.69041 0.73415 0.0
C165 C 0.33896 0.71213 0.72421 0.0
C166 C 0.32934 0.72285 0.70349 0.0
C167 C 0.30918 0.71184 0.69266 0.0
C168 C 0.34068 0.74542 0.69294 0.0
C169 C 0.34575 0.76506 0.70775 0.0
C170 C 0.34722 0.74718 0.66827 0.0
C171 C 0.35919 0.76811 0.65877 0.0
C172 C 0.36432 0.78773 0.67361 0.0
C173 C 0.33992 0.67858 0.75509 0.0
C174 C 0.32826 0.6684 0.77569 0.0
C175 C 0.36251 0.67748 0.75459 0.0
C176 C 0.37322 0.6665 0.7742 0.0
C177 C 0.36165 0.6565 0.79491 0.0
C178 C 0.33905 0.65761 0.79548 0.0
C179 C 0.35725 0.78615 0.69806 0.0
H180 H 0.22653 0.64968 0.70745 0.0
H181 H 0.26175 0.66845 0.72625 0.0
H182 H 0.28622 0.68631 0.653 0.0
H183 H 0.25108 0.66743 0.63418 0.0
H184 H 0.30046 0.66289 0.73082 0.0
H185 H 0.30172 0.72032 0.67679 0.0
H186 H 0.35462 0.72062 0.73243 0.0
H187 H 0.34083 0.76405 0.72683 0.0
H188 H 0.34356 0.73219 0.65658 0.0
H189 H 0.36448 0.76898 0.63985 0.0
H190 H 0.31087 0.66907 0.77664 0.0
H191 H 0.37189 0.68494 0.73887 0.0
H192 H 0.36115 0.80105 0.70986 0.0
H193 H 0.32967 0.64991 0.8111 0.0
H194 H 0.39067 0.66612 0.77329 0.0
C195 C 0.32663 0.3495 0.77298 0.0
C196 C 0.34964 0.35187 0.77646 0.0
C197 C 0.31551 0.33739 0.75281 0.0
C198 C 0.32721 0.32784 0.73525 0.0
C199 C 0.35037 0.33057 0.73879 0.0
C200 C 0.36139 0.34217 0.75929 0.0
C201 C 0.31544 0.31532 0.71329 0.0
C202 C 0.29604 0.3219 0.7021 0.0
C203 C 0.28512 0.31045 0.68127 0.0
C204 C 0.29405 0.29251 0.67117 0.0
C205 C 0.31337 0.28555 0.68194 0.0
C206 C 0.3237 0.29683 0.70317 0.0
C207 C 0.32298 0.26676 0.67083 0.0
C208 C 0.30934 0.24679 0.66139 0.0
C209 C 0.34595 0.26886 0.66921 0.0
C210 C 0.35502 0.25159 0.65829 0.0
C211 C 0.34139 0.23176 0.64856 0.0
C212 C 0.26427 0.31714 0.67017 0.0
C213 C 0.24736 0.32007 0.68552 0.0
C214 C 0.26095 0.32031 0.64424 0.0
C215 C 0.24122 0.32645 0.63392 0.0
C216 C 0.22422 0.32935 0.64926 0.0
C217 C 0.22757 0.32596 0.67521 0.0
C218 C 0.31842 0.22952 0.65039 0.0
H219 H 0.31721 0.35672 0.78611 0.0
H220 H 0.29769 0.33535 0.75122 0.0
H221 H 0.36017 0.32408 0.72552 0.0
H222 H 0.3792 0.344 0.76146 0.0
H223 H 0.28959 0.33638 0.70912 0.0
H224 H 0.33806 0.29084 0.71206 0.0
H225 H 0.28589 0.28395 0.65487 0.0
H226 H 0.2916 0.24443 0.66257 0.0
H227 H 0.35697 0.28409 0.67603 0.0
H228 H 0.37279 0.25378 0.65756 0.0
H229 H 0.24929 0.3174 0.70554 0.0
H230 H 0.27376 0.3184 0.63194 0.0
H231 H 0.30739 0.2146 0.64294 0.0
H232 H 0.21477 0.32751 0.68766 0.0
H233 H 0.23947 0.32926 0.61391 0.0
C234 C 0.69235 0.24466 0.66555 0.0
C235 C 0.6694 0.24156 0.66038 0.0
C236 C 0.70355 0.26498 0.67657 0.0
C237 C 0.6921 0.28275 0.6826 0.0
C238 C 0.66914 0.2796 0.67744 0.0
C239 C 0.65795 0.25926 0.66653 0.0
C240 C 0.70403 0.30463 0.69393 0.0
C241 C 0.72479 0.31534 0.68578 0.0
C242 C 0.7359 0.33629 0.69589 0.0
C243 C 0.72593 0.34654 0.71438 0.0
C244 C 0.70518 0.3362 0.72281 0.0
C245 C 0.69446 0.31515 0.71257 0.0
C246 C 0.69449 0.34773 0.74182 0.0
C247 C 0.70703 0.35886 0.76192 0.0
C248 C 0.67172 0.34825 0.73963 0.0
C249 C 0.6618 0.35984 0.75686 0.0
C250 C 0.6744 0.37135 0.77669 0.0
C251 C 0.75773 0.34774 0.68685 0.0
C252 C 0.7739 0.3344 0.68197 0.0
C253 C 0.76262 0.37218 0.68319 0.0
C254 C 0.7832 0.38302 0.67515 0.0
C255 C 0.79942 0.36971 0.67045 0.0
C256 C 0.79449 0.34525 0.67382 0.0
C257 C 0.69712 0.37055 0.77909 0.0
H258 H 0.70163 0.23125 0.66133 0.0
H259 H 0.72117 0.26664 0.68061 0.0
H260 H 0.65983 0.29306 0.68138 0.0
H261 H 0.64033 0.25762 0.66242 0.0
H262 H 0.73201 0.30778 0.67093 0.0
H263 H 0.67875 0.30673 0.71942 0.0
H264 H 0.7343 0.36277 0.7221 0.0
H265 H 0.72455 0.35857 0.76441 0.0
H266 H 0.66156 0.3401 0.72428 0.0
H267 H 0.64421 0.35976 0.7546 0.0
H268 H 0.7708 0.31557 0.68486 0.0
H269 H 0.75043 0.38298 0.68625 0.0
H270 H 0.70741 0.37936 0.79397 0.0
H271 H 0.80669 0.33451 0.67061 0.0
H272 H 0.7863 0.40185 0.67228 0.0
C273 C 0.65254 0.65119 0.70994 0.0
C274 C 0.66589 0.64372 0.72977 0.0
C275 C 0.662 0.66244 0.68867 0.0
C276 C 0.685 0.66642 0.68677 0.0
C277 C 0.69836 0.65928 0.70676 0.0
C278 C 0.68891 0.64804 0.72801 0.0
C279 C 0.69499 0.67729 0.66369 0.0
C280 C 0.68746 0.69663 0.65156 0.0
C281 C 0.69679 0.70674 0.62952 0.0
C282 C 0.71355 0.69705 0.61952 0.0
C283 C 0.72143 0.67804 0.63162 0.0
C284 C 0.71211 0.66822 0.65364 0.0
C285 C 0.73998 0.66902 0.62164 0.0
C286 C 0.73973 0.66408 0.59634 0.0
C287 C 0.75844 0.66616 0.63726 0.0
C288 C 0.77653 0.65883 0.62767 0.0
C289 C 0.7764 0.65392 0.60231 0.0
C290 C 0.68958 0.72776 0.6172 0.0
C291 C 0.66718 0.72994 0.61536 0.0
C292 C 0.70516 0.74581 0.60706 0.0
C293 C 0.69851 0.7655 0.59522 0.0
C294 C 0.67613 0.76776 0.59346 0.0
C295 C 0.66053 0.74976 0.60368 0.0
C296 C 0.75772 0.65648 0.58678 0.0
H297 H 0.63473 0.64786 0.7106 0.0
H298 H 0.65126 0.66747 0.67345 0.0
H299 H 0.71617 0.66245 0.706 0.0
H300 H 0.69965 0.64286 0.74316 0.0
H301 H 0.67479 0.70422 0.65971 0.0
H302 H 0.71795 0.65318 0.66267 0.0
H303 H 0.72078 0.70453 0.60244 0.0
H304 H 0.72555 0.66601 0.584 0.0
H305 H 0.75912 0.6702 0.65676 0.0
H306 H 0.7908 0.65751 0.64007 0.0
H307 H 0.65475 0.71626 0.62279 0.0
H308 H 0.7226 0.74487 0.60848 0.0
H309 H 0.75693 0.65247 0.56727 0.0
H310 H 0.64319 0.7511 0.60299 0.0
H311 H 0.71093 0.77892 0.58736 0.0
Co312 Co 0.03939 0.46851 0.54288 0.0
Co313 Co 0.05314 0.48639 0.50295 0.0
Co314 Co 0.01101 0.50786 0.50783 0.0
O315 O 0.02498 0.47917 0.51217 0.0
H316 H 0.01691 0.46632 0.50288 0.0
O317 O 0.99678 0.53613 0.50315 0.0
Co318 Co 0.96596 0.53367 0.49351 0.0
Co319 Co 0.99041 0.54446 0.53477 0.0
H320 H 0.0059 0.54901 0.4947 0.0
O321 O 0.06265 0.46396 0.48637 0.0
O322 O 0.06857 0.47262 0.52721 0.0
O323 O 0.06339 0.51839 0.493 0.0
O324 O 0.02936 0.52137 0.47863 0.0
O325 O 0.98804 0.49029 0.48458 0.0
O326 O 0.93804 0.53411 0.48375 0.0
O327 O 0.96682 0.56373 0.48193 0.0
O328 O 0.96093 0.50153 0.50323 0.0
O329 O 0.99277 0.49387 0.53667 0.0
O330 O 0.9926 0.52239 0.56248 0.0
O331 O 0.96044 0.54242 0.52733 0.0
O332 O 0.98416 0.57387 0.54048 0.0
C333 C 0.0459 0.43714 0.55803 0.0
C334 C 0.0456 0.52028 0.54891 0.0
C335 C 0.05025 0.52869 0.47933 0.0
C336 C 0.07223 0.4609 0.5082 0.0
C337 C 0.94579 0.55582 0.47782 0.0
C338 C 0.96758 0.4878 0.48882 0.0
C339 C 0.98884 0.50085 0.55785 0.0
C340 C 0.96412 0.56374 0.53482 0.0
O341 O 0.05146 0.45642 0.56983 0.0
O342 O 0.03475 0.43741 0.53657 0.0
O343 O 0.03333 0.52655 0.53089 0.0
O344 O 0.04711 0.49904 0.55358 0.0
Co345 Co 0.53739 0.96833 0.49644 0.0
Co346 Co 0.54838 0.98587 0.54018 0.0
Co347 Co 0.51068 0.01109 0.51356 0.0
O348 O 0.53846 0.9984 0.51008 0.0
H349 H 0.55001 0.01001 0.50337 0.0
O350 O 0.48306 0.02393 0.51692 0.0
Co351 Co 0.48385 0.0551 0.52765 0.0
Co352 Co 0.47309 0.03384 0.4854 0.0
H353 H 0.47163 0.01271 0.52449 0.0
O354 O 0.57756 0.98185 0.54569 0.0
O355 O 0.54942 0.95669 0.52852 0.0
O356 O 0.52819 0.98047 0.56641 0.0
O357 O 0.49976 0.98882 0.54219 0.0
O358 O 0.52742 0.03409 0.53728 0.0
O359 O 0.48208 0.08305 0.53831 0.0
O360 O 0.45582 0.05088 0.53808 0.0
O361 O 0.51365 0.06368 0.51925 0.0
O362 O 0.52153 0.03338 0.48503 0.0
O363 O 0.49288 0.03621 0.4587 0.0
O364 O 0.47346 0.0644 0.49378 0.0
O365 O 0.44435 0.03917 0.47872 0.0
C366 C 0.55797 0.95233 0.47705 0.0
C367 C 0.49328 0.96621 0.49319 0.0
C368 C 0.50762 0.97975 0.56217 0.0
C369 C 0.56996 0.96158 0.53656 0.0
C370 C 0.46217 0.07289 0.5431 0.0
C371 C 0.5284 0.05606 0.53329 0.0
C372 C 0.5135 0.03969 0.46384 0.0
C373 C 0.45304 0.06012 0.48522 0.0
O374 O 0.53848 0.94153 0.48262 0.0
O375 O 0.56481 0.97366 0.48423 0.0
O376 O 0.49379 0.98816 0.48976 0.0
O377 O 0.50842 0.95883 0.50672 0.0
Co378 Co 0.47462 0.51483 0.05993 0.0
Co379 Co 0.4665 0.47324 0.0419 0.0
Co380 Co 0.50252 0.50585 0.00981 0.0
O381 O 0.47455 0.50285 0.02745 0.0
H382 H 0.46254 0.50676 0.01662 0.0
O383 O 0.53033 0.50903 0.99197 0.0
Co384 Co 0.53026 0.49793 0.95904 0.0
Co385 Co 0.53826 0.53921 0.97843 0.0
H386 H 0.54236 0.50489 1.00264 0.0
O387 O 0.43756 0.46194 0.04976 0.0
O388 O 0.4642 0.48291 0.07379 0.0
O389 O 0.48846 0.45335 0.04431 0.0
O390 O 0.51534 0.48145 0.03168 0.0
O391 O 0.48725 0.48132 0.98676 0.0
O392 O 0.5329 0.48711 0.92927 0.0
O393 O 0.55856 0.49301 0.96095 0.0
O394 O 0.50012 0.50059 0.95288 0.0
O395 O 0.48971 0.53013 0.98789 0.0
O396 O 0.5164 0.55933 0.97746 0.0
O397 O 0.53939 0.53034 0.94595 0.0
O398 O 0.56687 0.55091 0.96917 0.0
C399 C 0.45278 0.5284 0.07984 0.0
C400 C 0.51878 0.52642 0.05655 0.0
C401 C 0.50879 0.46139 0.04217 0.0
C402 C 0.44427 0.47116 0.07096 0.0
C403 C 0.55271 0.48595 0.93847 0.0
C404 C 0.48578 0.48534 0.96325 0.0
C405 C 0.49609 0.55068 0.97852 0.0
C406 C 0.55921 0.54242 0.94792 0.0
O407 O 0.47236 0.5265 0.08923 0.0
O408 O 0.44667 0.52104 0.05752 0.0
O409 O 0.51789 0.5303 0.03298 0.0
O410 O 0.50424 0.51104 0.06641 0.0
C411 C 0.20945 0.34997 0.45605 0.0
C412 C 0.23053 0.36337 0.46014 0.0
C413 C 0.19134 0.35551 0.46733 0.0
C414 C 0.17285 0.38993 0.51534 0.0
H415 H 0.12708 0.39829 0.46484 0.0
C416 C 0.10707 0.44853 0.52592 0.0
C417 C 0.08749 0.44402 0.51099 0.0
C418 C 0.1231 0.43426 0.5249 0.0
C419 C 0.13926 0.3955 0.4795 0.0
H420 H 0.24939 0.39212 0.48053 0.0
H421 H 0.21748 0.40214 0.49991 0.0
H422 H 0.15796 0.38105 0.45404 0.0
H423 H 0.06788 0.41973 0.48586 0.0
H424 H 0.09492 0.39394 0.48544 0.0
H425 H 0.15416 0.40484 0.54075 0.0
C426 C 0.2151 0.38724 0.4881 0.0
C427 C 0.15711 0.38568 0.47318 0.0
C428 C 0.23328 0.38171 0.47675 0.0
C429 C 0.08319 0.4239 0.49697 0.0
C430 C 0.09876 0.40923 0.49666 0.0
C431 C 0.15475 0.3996 0.52181 0.0
C432 C 0.19389 0.3746 0.48289 0.0
C433 C 0.1742 0.38303 0.4909 0.0
C434 C 0.11946 0.41497 0.50939 0.0
C435 C 0.1378 0.4027 0.50385 0.0
H436 H 0.20673 0.33583 0.44323 0.0
H437 H 0.17516 0.3454 0.46314 0.0
H438 H 0.18585 0.38801 0.52935 0.0
H439 H 0.11062 0.46392 0.53702 0.0
H440 H 0.1388 0.43925 0.53501 0.0
C441 C 0.61259 0.21519 0.36771 0.0
C442 C 0.63402 0.2162 0.35939 0.0
C443 C 0.60058 0.19413 0.37676 0.0
C444 C 0.60416 0.14092 0.41036 0.0
H445 H 0.54958 0.11385 0.37541 0.0
C446 C 0.55113 0.05667 0.44934 0.0
C447 C 0.52812 0.05539 0.447 0.0
C448 C 0.56506 0.07397 0.43605 0.0
C449 C 0.5646 0.12125 0.38567 0.0
H450 H 0.6594 0.1953 0.35432 0.0
H451 H 0.63875 0.15893 0.37151 0.0
H452 H 0.57171 0.14939 0.35842 0.0
H453 H 0.50169 0.07098 0.4284 0.0
H454 H 0.52569 0.10149 0.40622 0.0
H455 H 0.59665 0.11393 0.43845 0.0
C456 C 0.63133 0.17457 0.37055 0.0
C457 C 0.57733 0.14151 0.37576 0.0
C458 C 0.64319 0.19552 0.36092 0.0
C459 C 0.51933 0.07126 0.43043 0.0
C460 C 0.53321 0.08881 0.41757 0.0
C461 C 0.59119 0.12095 0.42062 0.0
C462 C 0.60987 0.1737 0.3783 0.0
C463 C 0.5971 0.15158 0.38812 0.0
C464 C 0.55632 0.09073 0.42049 0.0
C465 C 0.57106 0.11092 0.40855 0.0
H466 H 0.60505 0.2307 0.36752 0.0
H467 H 0.58411 0.19385 0.38293 0.0
H468 H 0.61933 0.14853 0.42026 0.0
H469 H 0.55842 0.04463 0.46189 0.0
H470 H 0.58269 0.07441 0.43839 0.0
C471 C 0.79135 0.64771 0.39949 0.0
C472 C 0.79502 0.66798 0.38388 0.0
C473 C 0.80904 0.63841 0.41097 0.0
C474 C 0.86879 0.63816 0.40622 0.0
H475 H 0.86285 0.60803 0.47191 0.0
C476 C 0.93777 0.59404 0.45821 0.0
C477 C 0.93026 0.57141 0.46811 0.0
C478 C 0.92266 0.60836 0.44912 0.0
C479 C 0.86479 0.61638 0.45356 0.0
H480 H 0.82041 0.69441 0.36831 0.0
H481 H 0.8513 0.6785 0.38889 0.0
H482 H 0.83405 0.62863 0.4541 0.0
H483 H 0.90097 0.54635 0.47673 0.0
H484 H 0.87492 0.57122 0.46123 0.0
H485 H 0.8996 0.62571 0.40583 0.0
C486 C 0.83467 0.6696 0.39195 0.0
C487 C 0.8482 0.62811 0.44326 0.0
C488 C 0.81693 0.67889 0.38036 0.0
C489 C 0.9074 0.5636 0.46907 0.0
C490 C 0.8924 0.57795 0.46038 0.0
C491 C 0.88551 0.62656 0.41666 0.0
C492 C 0.83096 0.64918 0.40735 0.0
C493 C 0.8497 0.63869 0.4192 0.0
C494 C 0.8998 0.60045 0.45019 0.0
C495 C 0.88344 0.6151 0.44022 0.0
H496 H 0.77475 0.63899 0.40296 0.0
H497 H 0.80547 0.62248 0.42238 0.0
H498 H 0.87047 0.64591 0.38757 0.0
H499 H 0.95527 0.60061 0.45731 0.0
H500 H 0.92884 0.62568 0.44148 0.0
C501 C 0.38204 0.80082 0.38886 0.0
C502 C 0.36656 0.80521 0.36973 0.0
C503 C 0.39485 0.81921 0.4016 0.0
C504 C 0.39803 0.88124 0.41642 0.0
H505 H 0.45962 0.87752 0.43193 0.0
C506 C 0.46163 0.95616 0.46145 0.0
C507 C 0.47663 0.94903 0.47974 0.0
C508 C 0.44726 0.93954 0.44758 0.0
C509 C 0.4424 0.87875 0.42797 0.0
H510 H 0.35237 0.83251 0.34912 0.0
H511 H 0.3748 0.8647 0.37143 0.0
H512 H 0.43655 0.84692 0.40846 0.0
H513 H 0.48757 0.91878 0.49849 0.0
H514 H 0.46257 0.89011 0.47466 0.0
H515 H 0.40404 0.91317 0.4361 0.0
C516 C 0.37684 0.84694 0.3767 0.0
C517 C 0.42916 0.86117 0.4145 0.0
C518 C 0.364 0.82849 0.36391 0.0
C519 C 0.47643 0.92497 0.48438 0.0
C520 C 0.46216 0.90847 0.47059 0.0
C521 C 0.41134 0.8989 0.42994 0.0
C522 C 0.39255 0.84252 0.39557 0.0
C523 C 0.40674 0.86199 0.40885 0.0
C524 C 0.44768 0.91551 0.45172 0.0
C525 C 0.43361 0.89765 0.43618 0.0
H526 H 0.38412 0.78309 0.39422 0.0
H527 H 0.40644 0.81512 0.41639 0.0
H528 H 0.38078 0.88233 0.41251 0.0
H529 H 0.46136 0.97456 0.45742 0.0
H530 H 0.43631 0.94552 0.43313 0.0
C531 C 0.20496 0.65441 0.63607 0.0
C532 C 0.21461 0.64496 0.65774 0.0
C533 C 0.18533 0.64262 0.62487 0.0
C534 C 0.15213 0.58339 0.62111 0.0
H535 H 0.10564 0.61561 0.59307 0.0
C536 C 0.06951 0.53141 0.5869 0.0
C537 C 0.06074 0.53796 0.56343 0.0
C538 C 0.08667 0.5462 0.59907 0.0
C539 C 0.11856 0.6064 0.60065 0.0
H540 H 0.21096 0.61567 0.68461 0.0
H541 H 0.17663 0.59545 0.66547 0.0
H542 H 0.13898 0.63796 0.61293 0.0
H543 H 0.06227 0.56581 0.53497 0.0
H544 H 0.09259 0.59175 0.55626 0.0
H545 H 0.13197 0.55192 0.60883 0.0
C546 C 0.18436 0.61184 0.65692 0.0
C547 C 0.13767 0.6192 0.61201 0.0
C548 C 0.20395 0.62361 0.6681 0.0
C549 C 0.06864 0.56032 0.55308 0.0
C550 C 0.08602 0.57515 0.56527 0.0
C551 C 0.13311 0.57067 0.60983 0.0
C552 C 0.1749 0.62106 0.63502 0.0
C553 C 0.15462 0.60779 0.62255 0.0
C554 C 0.09569 0.5679 0.58805 0.0
C555 C 0.11597 0.58194 0.59965 0.0
H556 H 0.21257 0.67096 0.62774 0.0
H557 H 0.1786 0.65015 0.60794 0.0
H558 H 0.16504 0.57406 0.62844 0.0
H559 H 0.0636 0.51444 0.59555 0.0
H560 H 0.0933 0.54033 0.6169 0.0
C561 C 0.34266 0.18975 0.63961 0.0
C562 C 0.35113 0.21373 0.63625 0.0
C563 C 0.35203 0.17294 0.62815 0.0
C564 C 0.38849 0.16628 0.57708 0.0
H565 H 0.3976 0.10962 0.61437 0.0
C566 C 0.45241 0.11155 0.55174 0.0
C567 C 0.44676 0.08703 0.55252 0.0
C568 C 0.43822 0.12536 0.56025 0.0
C569 C 0.39486 0.12518 0.60358 0.0
H570 H 0.3759 0.2387 0.61768 0.0
H571 H 0.39255 0.20953 0.59841 0.0
H572 H 0.37773 0.13702 0.63267 0.0
H573 H 0.4216 0.0578 0.5628 0.0
H574 H 0.39684 0.08212 0.5784 0.0
H575 H 0.40624 0.1548 0.54836 0.0
C576 C 0.37847 0.20365 0.60961 0.0
C577 C 0.38346 0.14091 0.61405 0.0
C578 C 0.3691 0.22042 0.621 0.0
C579 C 0.42645 0.07663 0.56203 0.0
C580 C 0.41232 0.09053 0.57099 0.0
C581 C 0.39997 0.15066 0.56672 0.0
C582 C 0.37008 0.17967 0.61301 0.0
C583 C 0.38051 0.16191 0.60113 0.0
C584 C 0.41808 0.11506 0.57012 0.0
C585 C 0.40367 0.13016 0.58003 0.0
H586 H 0.32897 0.18392 0.6514 0.0
H587 H 0.34501 0.15466 0.63104 0.0
H588 H 0.38607 0.18195 0.5663 0.0
H589 H 0.46783 0.12022 0.54437 0.0
H590 H 0.44326 0.14418 0.55957 0.0
C591 C 0.83154 0.37218 0.643 0.0
C592 C 0.82137 0.38141 0.66205 0.0
C593 C 0.85177 0.38374 0.63452 0.0
C594 C 0.88661 0.44232 0.63219 0.0
H595 H 0.93151 0.40866 0.61238 0.0
C596 C 0.96855 0.49204 0.59725 0.0
C597 C 0.97518 0.48431 0.57498 0.0
C598 C 0.95216 0.47809 0.61081 0.0
C599 C 0.9191 0.4183 0.61775 0.0
H600 H 0.82496 0.40954 0.68781 0.0
H601 H 0.86021 0.42959 0.67316 0.0
H602 H 0.89795 0.3871 0.63008 0.0
H603 H 0.97077 0.45503 0.55053 0.0
H604 H 0.94218 0.43084 0.5741 0.0
H605 H 0.90748 0.47345 0.61958 0.0
C606 C 0.85236 0.41369 0.66436 0.0
C607 C 0.89983 0.40594 0.62784 0.0
C608 C 0.83213 0.40219 0.67278 0.0
C609 C 0.96611 0.4616 0.56758 0.0
C610 C 0.94969 0.44767 0.58114 0.0
C611 C 0.90584 0.45464 0.62217 0.0
C612 C 0.86234 0.40477 0.64494 0.0
C613 C 0.88327 0.4178 0.63505 0.0
C614 C 0.94199 0.45606 0.60246 0.0
C615 C 0.92228 0.44281 0.61468 0.0
H616 H 0.82359 0.35634 0.63416 0.0
H617 H 0.85881 0.37652 0.61931 0.0
H618 H 0.87407 0.45203 0.63707 0.0
H619 H 0.97528 0.50934 0.60365 0.0
H620 H 0.94697 0.48488 0.62746 0.0
C621 C 0.64935 0.78764 0.56697 0.0
C622 C 0.66916 0.78911 0.58165 0.0
C623 C 0.64211 0.80787 0.55725 0.0
C624 C 0.6477 0.86997 0.57047 0.0
H625 H 0.61372 0.87302 0.50773 0.0
C626 C 0.60698 0.94948 0.54298 0.0
C627 C 0.58444 0.94389 0.53589 0.0
C628 C 0.62035 0.93234 0.54387 0.0
C629 C 0.62326 0.87242 0.52525 0.0
H630 H 0.69723 0.81305 0.59694 0.0
H631 H 0.68495 0.84823 0.57934 0.0
H632 H 0.63212 0.83945 0.51793 0.0
H633 H 0.55846 0.91624 0.523 0.0
H634 H 0.58176 0.88633 0.52476 0.0
H635 H 0.63845 0.90255 0.57812 0.0
C636 C 0.67481 0.83144 0.57571 0.0
C637 C 0.63372 0.85319 0.53113 0.0
C638 C 0.68197 0.81124 0.58558 0.0
C639 C 0.57575 0.92109 0.52866 0.0
C640 C 0.58914 0.90398 0.52945 0.0
C641 C 0.63737 0.88919 0.56454 0.0
C642 C 0.65458 0.83003 0.56187 0.0
C643 C 0.64565 0.85153 0.55407 0.0
C644 C 0.61144 0.9093 0.53765 0.0
C645 C 0.62467 0.89039 0.54212 0.0
H646 H 0.63928 0.77085 0.56323 0.0
H647 H 0.62635 0.80615 0.54688 0.0
H648 H 0.65641 0.8691 0.58848 0.0
H649 H 0.61424 0.96697 0.54834 0.0
H650 H 0.63757 0.93699 0.54993 0.0
C651 C 0.37569 0.22751 0.40978 0.0
C652 C 0.36366 0.23906 0.42505 0.0
C653 C 0.38282 0.20688 0.41831 0.0
C654 C 0.3966 0.17445 0.47526 0.0
H655 H 0.39208 0.12289 0.43104 0.0
C656 C 0.4178 0.0748 0.47357 0.0
C657 C 0.44001 0.07922 0.48232 0.0
C658 C 0.40593 0.09316 0.46941 0.0
C659 C 0.39319 0.137 0.44373 0.0
H660 H 0.34932 0.23774 0.4611 0.0
H661 H 0.36216 0.20189 0.47612 0.0
H662 H 0.37602 0.15724 0.41757 0.0
H663 H 0.46698 0.10624 0.49432 0.0
H664 H 0.44623 0.13816 0.48722 0.0
H665 H 0.41415 0.15431 0.50125 0.0
C666 C 0.36617 0.20895 0.45763 0.0
C667 C 0.38422 0.15675 0.43591 0.0
C668 C 0.35892 0.22951 0.44905 0.0
C669 C 0.44989 0.10223 0.4876 0.0
C670 C 0.43797 0.12052 0.48368 0.0
C671 C 0.40572 0.15474 0.48303 0.0
C672 C 0.37816 0.19742 0.44232 0.0
C673 C 0.38617 0.17581 0.45143 0.0
C674 C 0.41602 0.11622 0.47409 0.0
C675 C 0.40438 0.13599 0.46717 0.0
H676 H 0.37988 0.23458 0.39135 0.0
H677 H 0.39235 0.19854 0.40627 0.0
H678 H 0.3984 0.18894 0.48756 0.0
H679 H 0.40967 0.05724 0.46948 0.0
H680 H 0.38895 0.08936 0.46222 0.0
C681 C 0.81381 0.39281 0.35467 0.0
C682 C 0.79776 0.3777 0.36778 0.0
C683 C 0.83372 0.40277 0.3668 0.0
C684 C 0.86811 0.39798 0.42637 0.0
H685 H 0.89628 0.46019 0.40529 0.0
C686 C 0.93123 0.46117 0.48617 0.0
C687 C 0.95095 0.47104 0.47506 0.0
C688 C 0.91423 0.44747 0.47246 0.0
C689 C 0.88869 0.4427 0.41118 0.0
H690 H 0.78959 0.36148 0.40382 0.0
H691 H 0.82363 0.37971 0.42537 0.0
H692 H 0.86282 0.44165 0.38283 0.0
H693 H 0.96853 0.47407 0.44104 0.0
H694 H 0.93832 0.45066 0.4167 0.0
H695 H 0.89348 0.39994 0.45571 0.0
C696 C 0.8215 0.38325 0.40553 0.0
C697 C 0.86953 0.43194 0.39825 0.0
C698 C 0.80184 0.37291 0.39326 0.0
C699 C 0.95357 0.4665 0.4501 0.0
C700 C 0.93629 0.45327 0.43617 0.0
C701 C 0.88698 0.40899 0.43961 0.0
C702 C 0.83784 0.39827 0.39249 0.0
C703 C 0.85882 0.40944 0.40572 0.0
C704 C 0.9164 0.44384 0.44719 0.0
C705 C 0.89739 0.43147 0.43218 0.0
H706 H 0.81112 0.39659 0.33493 0.0
H707 H 0.84593 0.4138 0.35588 0.0
H708 H 0.86082 0.38047 0.43243 0.0
H709 H 0.9288 0.46441 0.50539 0.0
H710 H 0.89901 0.44048 0.48132 0.0
C711 C 0.67121 0.82035 0.39608 0.0
C712 C 0.65934 0.80689 0.37714 0.0
C713 C 0.66253 0.83837 0.40622 0.0
C714 C 0.6187 0.87532 0.39384 0.0
H715 H 0.62765 0.88633 0.46451 0.0
C716 C 0.56241 0.92223 0.44735 0.0
C717 C 0.57222 0.93957 0.46374 0.0
C718 C 0.57521 0.90854 0.43603 0.0
C719 C 0.62525 0.88364 0.44469 0.0
H720 H 0.62881 0.80144 0.35443 0.0
H721 H 0.61339 0.83225 0.37244 0.0
H722 H 0.64542 0.85701 0.44652 0.0
H723 H 0.60313 0.95606 0.48141 0.0
H724 H 0.62565 0.93148 0.46198 0.0
H725 H 0.59772 0.90121 0.39236 0.0
C726 C 0.62974 0.82954 0.37901 0.0
C727 C 0.63547 0.86686 0.43431 0.0
C728 C 0.63853 0.81174 0.36871 0.0
C729 C 0.59521 0.94303 0.46856 0.0
C730 C 0.60803 0.92887 0.45763 0.0
C731 C 0.60827 0.89179 0.40429 0.0
C732 C 0.64163 0.84322 0.39784 0.0
C733 C 0.63205 0.86218 0.40878 0.0
C734 C 0.5981 0.9115 0.44122 0.0
C735 C 0.61116 0.89589 0.42987 0.0
H736 H 0.68739 0.81716 0.40281 0.0
H737 H 0.67235 0.84866 0.42041 0.0
H738 H 0.61611 0.87277 0.37402 0.0
H739 H 0.54472 0.91911 0.44337 0.0
H740 H 0.56707 0.89514 0.42371 0.0
C741 C 0.18932 0.66248 0.37796 0.0
C742 C 0.19539 0.65654 0.35462 0.0
C743 C 0.16965 0.65132 0.38796 0.0
C744 C 0.12797 0.59708 0.38231 0.0
H745 H 0.09855 0.62748 0.42983 0.0
C746 C 0.05437 0.54814 0.4369 0.0
C747 C 0.06005 0.54795 0.46255 0.0
C748 C 0.06688 0.564 0.42062 0.0
C749 C 0.10647 0.61887 0.41637 0.0
H750 H 0.18484 0.63447 0.32322 0.0
H751 H 0.15007 0.61598 0.34001 0.0
H752 H 0.12802 0.6504 0.40622 0.0
H753 H 0.0821 0.56484 0.49159 0.0
H754 H 0.1033 0.59311 0.46336 0.0
H755 H 0.10625 0.56555 0.39263 0.0
C756 C 0.16087 0.6288 0.35099 0.0
C757 C 0.12353 0.6319 0.40302 0.0
C758 C 0.18075 0.63972 0.34115 0.0
C759 C 0.0774 0.56475 0.47186 0.0
C760 C 0.08947 0.58093 0.45574 0.0
C761 C 0.11062 0.58417 0.39532 0.0
C762 C 0.1552 0.63414 0.37475 0.0
C763 C 0.13503 0.62104 0.38639 0.0
C764 C 0.08479 0.58025 0.42992 0.0
C765 C 0.10015 0.59481 0.41298 0.0
H766 H 0.19986 0.67568 0.38872 0.0
H767 H 0.16616 0.65577 0.40644 0.0
H768 H 0.1365 0.58791 0.37 0.0
H769 H 0.04119 0.53517 0.42932 0.0
H770 H 0.06301 0.56316 0.40075 0.0
C771 C 0.36975 0.83078 0.66307 0.0
C772 C 0.37779 0.80954 0.66394 0.0
C773 C 0.38266 0.85136 0.65399 0.0
C774 C 0.43843 0.88083 0.64905 0.0
H775 H 0.42011 0.9121 0.5881 0.0
C776 C 0.49978 0.94729 0.59436 0.0
C777 C 0.49224 0.96472 0.57881 0.0
C778 C 0.48495 0.93065 0.60717 0.0
C779 C 0.42535 0.90404 0.60547 0.0
H780 H 0.40554 0.79305 0.65653 0.0
H781 H 0.42847 0.82925 0.64146 0.0
H782 H 0.39552 0.87867 0.60585 0.0
H783 H 0.46325 0.9791 0.56569 0.0
H784 H 0.43742 0.95079 0.58905 0.0
H785 H 0.46793 0.90626 0.64935 0.0
C786 C 0.41208 0.82986 0.64741 0.0
C787 C 0.41126 0.88475 0.61548 0.0
C788 C 0.39899 0.80922 0.65589 0.0
C789 C 0.46959 0.96583 0.57742 0.0
C790 C 0.45475 0.94939 0.59064 0.0
C791 C 0.45231 0.90041 0.6394 0.0
C792 C 0.404 0.85106 0.64632 0.0
C793 C 0.41792 0.87272 0.63703 0.0
C794 C 0.46215 0.93117 0.60521 0.0
C795 C 0.44624 0.91199 0.6171 0.0
H796 H 0.35342 0.83138 0.66918 0.0
H797 H 0.37615 0.86755 0.65329 0.0
H798 H 0.44377 0.8719 0.66586 0.0
H799 H 0.51708 0.94571 0.59568 0.0
H800 H 0.49142 0.91677 0.61771 0.0
C801 C 0.19366 0.32751 0.61543 0.0
C802 C 0.20315 0.33601 0.63839 0.0
C803 C 0.17378 0.33366 0.60553 0.0
C804 C 0.12423 0.35476 0.62424 0.0
H805 H 0.11879 0.37806 0.55582 0.0
C806 C 0.06424 0.41613 0.59228 0.0
C807 C 0.0556 0.4166 0.56754 0.0
C808 C 0.0786 0.40083 0.60014 0.0
C809 C 0.11983 0.37114 0.57481 0.0
H810 H 0.19923 0.35836 0.66842 0.0
H811 H 0.16452 0.36855 0.6515 0.0
H812 H 0.15197 0.3627 0.5707 0.0
H813 H 0.05364 0.39979 0.53225 0.0
H814 H 0.07904 0.37295 0.54595 0.0
H815 H 0.09238 0.36349 0.62859 0.0
C816 C 0.17233 0.35687 0.64131 0.0
C817 C 0.13889 0.36241 0.58336 0.0
C818 C 0.19225 0.35095 0.65105 0.0
C819 C 0.06019 0.39998 0.55137 0.0
C820 C 0.07488 0.38475 0.55917 0.0
C821 C 0.10518 0.36332 0.61568 0.0
C822 C 0.16279 0.34825 0.6185 0.0
C823 C 0.14157 0.35481 0.6084 0.0
C824 C 0.08479 0.38553 0.58347 0.0
C825 C 0.10303 0.37237 0.59109 0.0
H826 H 0.20136 0.31574 0.60525 0.0
H827 H 0.16679 0.32666 0.58797 0.0
H828 H 0.12559 0.34852 0.64347 0.0
H829 H 0.06096 0.42862 0.60528 0.0
H830 H 0.08596 0.40217 0.6189 0.0
C831 C 0.66638 0.21094 0.62826 0.0
C832 C 0.65745 0.22016 0.64828 0.0
C833 C 0.65468 0.19145 0.61618 0.0
C834 C 0.60875 0.14147 0.62318 0.0
H835 H 0.60537 0.14438 0.55094 0.0
C836 C 0.56013 0.06598 0.56485 0.0
C837 C 0.54617 0.07305 0.54539 0.0
C838 C 0.57578 0.08254 0.57725 0.0
C839 C 0.60617 0.14328 0.57112 0.0
H840 H 0.62951 0.21559 0.67179 0.0
H841 H 0.60902 0.18177 0.65057 0.0
H842 H 0.6285 0.17578 0.57351 0.0
H843 H 0.53818 0.103 0.52327 0.0
H844 H 0.56537 0.13165 0.54472 0.0
H845 H 0.5859 0.10926 0.62073 0.0
C846 C 0.62512 0.18954 0.64427 0.0
C847 C 0.61959 0.16118 0.58406 0.0
C848 C 0.63676 0.2091 0.65626 0.0
C849 C 0.54863 0.09691 0.53819 0.0
C850 C 0.56434 0.11337 0.5504 0.0
C851 C 0.59542 0.12349 0.61022 0.0
C852 C 0.63383 0.18061 0.62392 0.0
C853 C 0.62079 0.16068 0.61025 0.0
C854 C 0.57795 0.10645 0.57024 0.0
C855 C 0.59369 0.12438 0.58403 0.0
H856 H 0.68221 0.21913 0.62152 0.0
H857 H 0.66195 0.18489 0.60071 0.0
H858 H 0.6095 0.14043 0.64336 0.0
H859 H 0.55866 0.04774 0.57086 0.0
H860 H 0.58616 0.07665 0.59234 0.0
C861 C 0.80282 0.65441 0.56834 0.0
C862 C 0.79583 0.64642 0.59216 0.0
C863 C 0.82152 0.64784 0.55922 0.0
C864 C 0.87321 0.62928 0.58019 0.0
H865 H 0.87113 0.60052 0.51635 0.0
C866 C 0.92369 0.56479 0.53279 0.0
C867 C 0.94551 0.57629 0.53706 0.0
C868 C 0.90603 0.57631 0.53583 0.0
C869 C 0.87194 0.60875 0.53408 0.0
H870 H 0.80263 0.62464 0.62466 0.0
H871 H 0.83557 0.61381 0.60898 0.0
H872 H 0.83862 0.61502 0.52931 0.0
H873 H 0.96595 0.60911 0.54719 0.0
H874 H 0.93497 0.62907 0.55305 0.0
H875 H 0.90625 0.62259 0.58531 0.0
C876 C 0.82663 0.62527 0.59752 0.0
C877 C 0.85345 0.61708 0.54143 0.0
C878 C 0.80782 0.63155 0.6065 0.0
C879 C 0.94932 0.59972 0.54394 0.0
C880 C 0.93163 0.61116 0.54725 0.0
C881 C 0.89175 0.62126 0.57271 0.0
C882 C 0.8337 0.63346 0.57389 0.0
C883 C 0.85381 0.6269 0.56481 0.0
C884 C 0.90984 0.59944 0.54355 0.0
C885 C 0.89113 0.61048 0.54983 0.0
H886 H 0.79415 0.66613 0.55694 0.0
H887 H 0.82676 0.65441 0.54096 0.0
H888 H 0.87389 0.63699 0.59821 0.0
H889 H 0.92019 0.54672 0.52753 0.0
H890 H 0.88938 0.56679 0.53311 0.0
C891 C 0.36052 0.41988 0.26888 0.0
C892 C 0.34222 0.40171 0.26869 0.0
C893 C 0.36867 0.43018 0.24654 0.0
C894 C 0.36974 0.41653 0.1806 0.0
H895 H 0.39651 0.48181 0.17305 0.0
C896 C 0.40853 0.45372 0.08955 0.0
C897 C 0.42982 0.46698 0.0923 0.0
C898 C 0.39548 0.44827 0.11008 0.0
C899 C 0.38914 0.46353 0.17494 0.0
H900 H 0.31733 0.381 0.24508 0.0
H901 H 0.33132 0.3992 0.20606 0.0
H902 H 0.37746 0.46775 0.21087 0.0
H903 H 0.45376 0.48569 0.11861 0.0
H904 H 0.43097 0.47615 0.15441 0.0
H905 H 0.38165 0.41218 0.14493 0.0
C906 C 0.33972 0.40512 0.22343 0.0
C907 C 0.37825 0.45547 0.1966 0.0
C908 C 0.33167 0.39472 0.24576 0.0
C909 C 0.43744 0.47542 0.11584 0.0
C910 C 0.42434 0.47007 0.13635 0.0
C911 C 0.38051 0.42459 0.15897 0.0
C912 C 0.35861 0.42261 0.22353 0.0
C913 C 0.36866 0.43179 0.1998 0.0
C914 C 0.4034 0.45601 0.13378 0.0
C915 C 0.39055 0.4481 0.15601 0.0
H916 H 0.36913 0.42546 0.28627 0.0
H917 H 0.3834 0.44338 0.24733 0.0
H918 H 0.36295 0.3981 0.18262 0.0
H919 H 0.40206 0.44712 0.07163 0.0
H920 H 0.37928 0.4377 0.10746 0.0
C921 C 0.37021 0.64949 0.8407 0.0
C922 C 0.37326 0.64504 0.8158 0.0
C923 C 0.38184 0.63937 0.86025 0.0
C924 C 0.41156 0.59021 0.87587 0.0
H925 H 0.44084 0.62894 0.92881 0.0
C926 C 0.4857 0.5861 0.9552 0.0
C927 C 0.47956 0.56313 0.96495 0.0
C928 C 0.47099 0.59656 0.93942 0.0
C929 C 0.43273 0.6179 0.91417 0.0
H930 H 0.39048 0.62602 0.79195 0.0
H931 H 0.4107 0.60834 0.82601 0.0
H932 H 0.41849 0.64585 0.896 0.0
H933 H 0.4527 0.53357 0.96647 0.0
H934 H 0.42716 0.55185 0.93899 0.0
H935 H 0.42606 0.56238 0.89372 0.0
C936 C 0.39934 0.61966 0.83044 0.0
C937 C 0.4198 0.62753 0.8955 0.0
C938 C 0.3879 0.62995 0.81091 0.0
C939 C 0.45803 0.55128 0.95937 0.0
C940 C 0.44342 0.56167 0.94343 0.0
C941 C 0.42429 0.58053 0.89465 0.0
C942 C 0.39656 0.62436 0.85533 0.0
C943 C 0.40928 0.61386 0.87597 0.0
C944 C 0.44988 0.58424 0.93286 0.0
C945 C 0.43522 0.59432 0.91388 0.0
H946 H 0.35916 0.66117 0.84504 0.0
H947 H 0.37923 0.64319 0.87924 0.0
H948 H 0.40351 0.57916 0.86121 0.0
H949 H 0.50213 0.59575 0.95909 0.0
H950 H 0.47653 0.61392 0.93148 0.0
C951 C 0.37475 0.35358 0.81493 0.0
C952 C 0.36148 0.36466 0.79779 0.0
C953 C 0.38627 0.36576 0.83482 0.0
C954 C 0.39097 0.42179 0.86875 0.0
H955 H 0.44733 0.40574 0.89248 0.0
C956 C 0.46045 0.48144 0.92511 0.0
C957 C 0.46835 0.47146 0.94744 0.0
C958 C 0.44543 0.46791 0.90888 0.0
C959 C 0.43151 0.41024 0.88617 0.0
H960 H 0.34995 0.3971 0.78769 0.0
H961 H 0.37091 0.41886 0.82141 0.0
H962 H 0.42566 0.38344 0.85967 0.0
H963 H 0.46654 0.43961 0.97045 0.0
H964 H 0.44081 0.41567 0.94147 0.0
H965 H 0.39783 0.44961 0.89444 0.0
C966 C 0.37187 0.40052 0.82036 0.0
C967 C 0.41893 0.39737 0.86741 0.0
C968 C 0.35994 0.38814 0.80084 0.0
C969 C 0.46061 0.44777 0.95345 0.0
C970 C 0.44602 0.43407 0.93686 0.0
C971 C 0.40384 0.43499 0.88708 0.0
C972 C 0.38526 0.38955 0.83771 0.0
C973 C 0.39844 0.40295 0.85831 0.0
C974 C 0.43844 0.44401 0.91436 0.0
C975 C 0.42421 0.42934 0.89594 0.0
H976 H 0.37603 0.33539 0.81306 0.0
H977 H 0.39586 0.35638 0.84796 0.0
H978 H 0.37513 0.42642 0.86285 0.0
H979 H 0.4661 0.49968 0.92006 0.0
H980 H 0.43989 0.47593 0.8916 0.0
C981 C 0.67032 0.38437 0.82 0.0
C982 C 0.66394 0.38451 0.79445 0.0
C983 C 0.66052 0.39686 0.83654 0.0
C984 C 0.62748 0.44469 0.83812 0.0
H985 H 0.61248 0.41708 0.90326 0.0
C986 C 0.56391 0.47554 0.89717 0.0
C987 C 0.56837 0.47711 0.92302 0.0
C988 C 0.57785 0.46614 0.88245 0.0
C989 C 0.61686 0.42518 0.88528 0.0
H990 H 0.64237 0.39831 0.76634 0.0
H991 H 0.62485 0.41933 0.79515 0.0
H992 H 0.63212 0.39663 0.8757 0.0
H993 H 0.59125 0.47046 0.95361 0.0
H994 H 0.61557 0.45364 0.92778 0.0
H995 H 0.61162 0.4729 0.84746 0.0
C996 C 0.63769 0.40989 0.80242 0.0
C997 C 0.62814 0.41346 0.86945 0.0
C998 C 0.64752 0.39749 0.7859 0.0
C999 C 0.58737 0.46945 0.93375 0.0
C1000 C 0.60121 0.45973 0.919 0.0
C1001 C 0.61609 0.45629 0.85386 0.0
C1002 C 0.64407 0.4098 0.82797 0.0
C1003 C 0.63331 0.4229 0.8455 0.0
C1004 C 0.5965 0.45785 0.8932 0.0
C1005 C 0.61037 0.44653 0.87747 0.0
H1006 H 0.68274 0.37439 0.82732 0.0
H1007 H 0.66601 0.39653 0.85603 0.0
H1008 H 0.63163 0.45278 0.82007 0.0
H1009 H 0.5495 0.48143 0.88827 0.0
H1010 H 0.57364 0.46476 0.86268 0.0
C1011 C 0.63793 0.63863 0.76247 0.0
C1012 C 0.65581 0.63122 0.75206 0.0
C1013 C 0.62822 0.62667 0.78323 0.0
C1014 C 0.63859 0.58677 0.83618 0.0
H1015 H 0.57489 0.57702 0.8389 0.0
C1016 C 0.56355 0.53976 0.90225 0.0
C1017 C 0.5722 0.54806 0.92552 0.0
C1018 C 0.57484 0.54681 0.8807 0.0
C1019 C 0.59267 0.57929 0.83832 0.0
H1020 H 0.67741 0.60531 0.75515 0.0
H1021 H 0.66044 0.58443 0.79148 0.0
H1022 H 0.59217 0.59548 0.8018 0.0
H1023 H 0.6 0.56946 0.94454 0.0
H1024 H 0.61948 0.58216 0.90687 0.0
H1025 H 0.63903 0.57048 0.87274 0.0
C1026 C 0.65413 0.59968 0.78374 0.0
C1027 C 0.60259 0.59017 0.81719 0.0
C1028 C 0.66385 0.61164 0.76296 0.0
C1029 C 0.59283 0.56281 0.9269 0.0
C1030 C 0.60409 0.56996 0.90531 0.0
C1031 C 0.62865 0.57588 0.85737 0.0
C1032 C 0.63615 0.60701 0.79403 0.0
C1033 C 0.62566 0.59431 0.816 0.0
C1034 C 0.59497 0.56245 0.88191 0.0
C1035 C 0.60559 0.57226 0.85877 0.0
H1036 H 0.6316 0.65387 0.75476 0.0
H1037 H 0.61466 0.63302 0.79101 0.0
H1038 H 0.65642 0.58982 0.83587 0.0
H1039 H 0.54776 0.52825 0.90053 0.0
H1040 H 0.56759 0.54038 0.863 0.0
C1041 C 0.62371 0.65792 0.20783 0.0
C1042 C 0.64331 0.65179 0.21884 0.0
C1043 C 0.61229 0.64525 0.18819 0.0
C1044 C 0.60543 0.58715 0.16079 0.0
H1045 H 0.57461 0.61653 0.10649 0.0
C1046 C 0.53716 0.53472 0.09865 0.0
C1047 C 0.53566 0.54058 0.073 0.0
C1048 C 0.55203 0.54849 0.11472 0.0
C1049 C 0.58333 0.60807 0.12136 0.0
H1050 H 0.66677 0.62815 0.21694 0.0
H1051 H 0.64695 0.60616 0.18274 0.0
H1052 H 0.59754 0.64076 0.13722 0.0
H1053 H 0.54899 0.56546 0.04413 0.0
H1054 H 0.57515 0.58961 0.07236 0.0
H1055 H 0.59133 0.5545 0.14499 0.0
C1056 C 0.64011 0.62044 0.18962 0.0
C1057 C 0.59627 0.62195 0.13916 0.0
C1058 C 0.65149 0.63307 0.20926 0.0
C1059 C 0.54972 0.56044 0.06377 0.0
C1060 C 0.56459 0.57436 0.07997 0.0
C1061 C 0.5925 0.57331 0.14307 0.0
C1062 C 0.62021 0.62615 0.17902 0.0
C1063 C 0.60731 0.61164 0.15926 0.0
C1064 C 0.56585 0.56858 0.10568 0.0
C1065 C 0.58103 0.58355 0.12331 0.0
H1066 H 0.61682 0.67209 0.21489 0.0
H1067 H 0.59688 0.64998 0.18072 0.0
H1068 H 0.6135 0.57854 0.1761 0.0
H1069 H 0.52661 0.51957 0.10648 0.0
H1070 H 0.55229 0.54367 0.13443 0.0
C1071 C 0.36368 0.6277 0.22916 0.0
C1072 C 0.34845 0.64187 0.2199 0.0
C1073 C 0.3734 0.61478 0.21311 0.0
C1074 C 0.36745 0.58928 0.15124 0.0
H1075 H 0.43058 0.59136 0.16121 0.0
C1076 C 0.42016 0.54854 0.08394 0.0
C1077 C 0.43783 0.53864 0.09497 0.0
C1078 C 0.40774 0.56036 0.09843 0.0
C1079 C 0.41289 0.59027 0.15834 0.0
H1080 H 0.33126 0.65313 0.18633 0.0
H1081 H 0.34811 0.63023 0.1583 0.0
H1082 H 0.41187 0.61342 0.18776 0.0
H1083 H 0.45532 0.53188 0.13002 0.0
H1084 H 0.43345 0.55171 0.15519 0.0
H1085 H 0.36853 0.56585 0.12189 0.0
C1086 C 0.35243 0.62917 0.17808 0.0
C1087 C 0.40217 0.60301 0.17355 0.0
C1088 C 0.34277 0.64227 0.19416 0.0
C1089 C 0.44209 0.53972 0.12086 0.0
C1090 C 0.4296 0.55123 0.1353 0.0
C1091 C 0.37819 0.57635 0.13604 0.0
C1092 C 0.36807 0.61551 0.18737 0.0
C1093 C 0.37931 0.60249 0.17038 0.0
C1094 C 0.41268 0.56229 0.12423 0.0
C1095 C 0.40103 0.57649 0.13961 0.0
H1096 H 0.36805 0.62647 0.24892 0.0
H1097 H 0.38507 0.60407 0.22091 0.0
H1098 H 0.34978 0.58846 0.14843 0.0
H1099 H 0.4165 0.54795 0.06402 0.0
H1100 H 0.39484 0.5687 0.08929 0.0
C1101 C 0.64252 0.36991 0.17614 0.0
C1102 C 0.64189 0.37614 0.201 0.0
C1103 C 0.62918 0.37875 0.15731 0.0
C1104 C 0.57764 0.40291 0.1482 0.0
H1105 H 0.599 0.42398 0.08318 0.0
C1106 C 0.54777 0.459 0.05749 0.0
C1107 C 0.52532 0.44876 0.05551 0.0
C1108 C 0.56273 0.44882 0.07321 0.0
C1109 C 0.59281 0.4182 0.10127 0.0
H1110 H 0.62677 0.39667 0.22545 0.0
H1111 H 0.60377 0.41225 0.19265 0.0
H1112 H 0.62401 0.40986 0.11516 0.0
H1113 H 0.50138 0.41894 0.0675 0.0
H1114 H 0.52746 0.40118 0.09462 0.0
H1115 H 0.54661 0.41154 0.13461 0.0
C1116 C 0.61446 0.4004 0.18772 0.0
C1117 C 0.60708 0.40994 0.11952 0.0
C1118 C 0.62786 0.39168 0.20649 0.0
C1119 C 0.51847 0.42745 0.06865 0.0
C1120 C 0.53341 0.41733 0.08437 0.0
C1121 C 0.56338 0.41101 0.12997 0.0
C1122 C 0.61478 0.39387 0.16294 0.0
C1123 C 0.59969 0.40235 0.14326 0.0
C1124 C 0.55558 0.42819 0.08735 0.0
C1125 C 0.57078 0.41882 0.10629 0.0
H1126 H 0.65329 0.35814 0.17124 0.0
H1127 H 0.62974 0.37327 0.13844 0.0
H1128 H 0.57132 0.39694 0.16618 0.0
H1129 H 0.55366 0.47542 0.0477 0.0
H1130 H 0.57966 0.45771 0.07515 0.0
loop_
_geom_bond_atom_site_label_1
_geom_bond_atom_site_label_2
_geom_bond_distance
_geom_bond_site_symmetry_2
_ccdc_geom_bond_type
C0 C1 1.386 . S
C0 C2 1.397 . S
C0 H24 0.931 . S
C1 C0 1.386 . S
C1 C5 1.397 . S
C2 C0 1.397 . S
C2 C3 1.384 . S
C2 H25 0.930 . S
C3 C2 1.384 . S
C3 C4 1.377 . S
C3 C6 1.481 . S
C4 C3 1.377 . S
C4 C5 1.389 . S
C4 H26 0.929 . S
C5 C1 1.397 . S
C5 C4 1.389 . S
C5 H27 0.931 . S
C6 C3 1.481 . S
C6 C7 1.387 . S
C6 C11 1.390 . S
C7 C6 1.387 . S
C7 C8 1.401 . S
C7 H28 0.930 . S
C8 C7 1.401 . S
C8 C9 1.376 . S
C8 C17 1.511 . S
C9 C8 1.376 . S
C9 C10 1.392 . S
C9 H30 0.931 . S
C10 C9 1.392 . S
C10 C11 1.361 . S
C10 C12 1.500 . S
C11 C6 1.390 . S
C11 C10 1.361 . S
C11 H29 0.931 . S
C12 C10 1.500 . S
C12 C13 1.371 . S
C12 C14 1.365 . S
C13 C12 1.371 . S
C13 C23 1.386 . S
C13 H31 0.931 . S
C14 C12 1.365 . S
C14 C15 1.409 . S
C14 H32 0.929 . S
C15 C14 1.409 . S
C15 C16 1.380 . S
C15 H33 0.930 . S
C16 C15 1.380 . S
C16 C23 1.357 . S
C17 C8 1.511 . S
C17 C18 1.341 . S
C17 C19 1.371 . S
C18 C17 1.341 . S
C18 C22 1.394 . S
C18 H34 0.930 . S
C19 C17 1.371 . S
C19 C20 1.392 . S
C19 H35 0.931 . S
C20 C19 1.392 . S
C20 C21 1.331 . S
C20 H38 0.932 . S
C21 C20 1.331 . S
C21 C22 1.336 . S
C22 C18 1.394 . S
C22 C21 1.336 . S
C22 H37 0.929 . S
C23 C13 1.386 . S
C23 C16 1.357 . S
C23 H36 0.928 . S
H24 C0 0.931 . S
H25 C2 0.930 . S
H26 C4 0.929 . S
H27 C5 0.931 . S
H28 C7 0.930 . S
H29 C11 0.931 . S
H30 C9 0.931 . S
H31 C13 0.931 . S
H32 C14 0.929 . S
H33 C15 0.930 . S
H34 C18 0.930 . S
H35 C19 0.931 . S
H36 C23 0.928 . S
H37 C22 0.929 . S
H38 C20 0.932 . S
C39 C40 1.386 . S
C39 C41 1.397 . S
C39 H63 0.931 . S
C40 C39 1.386 . S
C40 C44 1.397 . S
C41 C39 1.397 . S
C41 C42 1.384 . S
C41 H64 0.930 . S
C42 C41 1.384 . S
C42 C43 1.377 . S
C42 C45 1.481 . S
C43 C42 1.377 . S
C43 C44 1.389 . S
C43 H65 0.929 . S
C44 C40 1.397 . S
C44 C43 1.389 . S
C44 H66 0.931 . S
C45 C42 1.481 . S
C45 C46 1.387 . S
C45 C50 1.390 . S
C46 C45 1.387 . S
C46 C47 1.401 . S
C46 H67 0.930 . S
C47 C46 1.401 . S
C47 C48 1.376 . S
C47 C56 1.511 . S
C48 C47 1.376 . S
C48 C49 1.392 . S
C48 H69 0.931 . S
C49 C48 1.392 . S
C49 C50 1.361 . S
C49 C51 1.500 . S
C50 C45 1.390 . S
C50 C49 1.361 . S
C50 H68 0.931 . S
C51 C49 1.500 . S
C51 C52 1.371 . S
C51 C53 1.365 . S
C52 C51 1.371 . S
C52 C62 1.386 . S
C52 H70 0.931 . S
C53 C51 1.365 . S
C53 C54 1.409 . S
C53 H71 0.929 . S
C54 C53 1.409 . S
C54 C55 1.380 . S
C54 H72 0.930 . S
C55 C54 1.380 . S
C55 C62 1.357 . S
C56 C47 1.511 . S
C56 C57 1.341 . S
C56 C58 1.371 . S
C57 C56 1.341 . S
C57 C61 1.394 . S
C57 H73 0.930 . S
C58 C56 1.371 . S
C58 C59 1.392 . S
C58 H74 0.931 . S
C59 C58 1.392 . S
C59 C60 1.331 . S
C59 H77 0.932 . S
C60 C59 1.331 . S
C60 C61 1.336 . S
C61 C57 1.394 . S
C61 C60 1.336 . S
C61 H76 0.929 . S
C62 C52 1.386 . S
C62 C55 1.357 . S
C62 H75 0.928 . S
H63 C39 0.931 . S
H64 C41 0.930 . S
H65 C43 0.929 . S
H66 C44 0.931 . S
H67 C46 0.930 . S
H68 C50 0.931 . S
H69 C48 0.931 . S
H70 C52 0.931 . S
H71 C53 0.929 . S
H72 C54 0.930 . S
H73 C57 0.930 . S
H74 C58 0.931 . S
H75 C62 0.928 . S
H76 C61 0.929 . S
H77 C59 0.932 . S
C78 C79 1.386 . S
C78 C80 1.397 . S
C78 H102 0.931 . S
C79 C78 1.386 . S
C79 C83 1.397 . S
C80 C78 1.397 . S
C80 C81 1.384 . S
C80 H103 0.930 . S
C81 C80 1.384 . S
C81 C82 1.377 . S
C81 C84 1.481 . S
C82 C81 1.377 . S
C82 C83 1.389 . S
C82 H104 0.929 . S
C83 C79 1.397 . S
C83 C82 1.389 . S
C83 H105 0.931 . S
C84 C81 1.481 . S
C84 C85 1.387 . S
C84 C89 1.390 . S
C85 C84 1.387 . S
C85 C86 1.401 . S
C85 H106 0.930 . S
C86 C85 1.401 . S
C86 C87 1.376 . S
C86 C95 1.511 . S
C87 C86 1.376 . S
C87 C88 1.392 . S
C87 H108 0.931 . S
C88 C87 1.392 . S
C88 C89 1.361 . S
C88 C90 1.500 . S
C89 C84 1.390 . S
C89 C88 1.361 . S
C89 H107 0.931 . S
C90 C88 1.500 . S
C90 C91 1.371 . S
C90 C92 1.365 . S
C91 C90 1.371 . S
C91 C101 1.386 . S
C91 H109 0.931 . S
C92 C90 1.365 . S
C92 C93 1.409 . S
C92 H110 0.929 . S
C93 C92 1.409 . S
C93 C94 1.380 . S
C93 H111 0.930 . S
C94 C93 1.380 . S
C94 C101 1.357 . S
C95 C86 1.511 . S
C95 C96 1.341 . S
C95 C97 1.371 . S
C96 C95 1.341 . S
C96 C100 1.394 . S
C96 H112 0.930 . S
C97 C95 1.371 . S
C97 C98 1.392 . S
C97 H113 0.931 . S
C98 C97 1.392 . S
C98 C99 1.331 . S
C98 H116 0.932 . S
C99 C98 1.331 . S
C99 C100 1.336 . S
C100 C96 1.394 . S
C100 C99 1.336 . S
C100 H115 0.929 . S
C101 C91 1.386 . S
C101 C94 1.357 . S
C101 H114 0.928 . S
H102 C78 0.931 . S
H103 C80 0.930 . S
H104 C82 0.929 . S
H105 C83 0.931 . S
H106 C85 0.930 . S
H107 C89 0.931 . S
H108 C87 0.931 . S
H109 C91 0.931 . S
H110 C92 0.929 . S
H111 C93 0.930 . S
H112 C96 0.930 . S
H113 C97 0.931 . S
H114 C101 0.928 . S
H115 C100 0.929 . S
H116 C98 0.932 . S
C117 C118 1.386 . S
C117 C119 1.397 . S
C117 H141 0.931 . S
C118 C117 1.386 . S
C118 C122 1.397 . S
C119 C117 1.397 . S
C119 C120 1.384 . S
C119 H142 0.930 . S
C120 C119 1.384 . S
C120 C121 1.377 . S
C120 C123 1.481 . S
C121 C120 1.377 . S
C121 C122 1.389 . S
C121 H143 0.929 . S
C122 C118 1.397 . S
C122 C121 1.389 . S
C122 H144 0.931 . S
C123 C120 1.481 . S
C123 C124 1.387 . S
C123 C128 1.390 . S
C124 C123 1.387 . S
C124 C125 1.401 . S
C124 H145 0.930 . S
C125 C124 1.401 . S
C125 C126 1.376 . S
C125 C134 1.511 . S
C126 C125 1.376 . S
C126 C127 1.392 . S
C126 H147 0.931 . S
C127 C126 1.392 . S
C127 C128 1.361 . S
C127 C129 1.500 . S
C128 C123 1.390 . S
C128 C127 1.361 . S
C128 H146 0.931 . S
C129 C127 1.500 . S
C129 C130 1.371 . S
C129 C131 1.365 . S
C130 C129 1.371 . S
C130 C140 1.386 . S
C130 H148 0.931 . S
C131 C129 1.365 . S
C131 C132 1.409 . S
C131 H149 0.929 . S
C132 C131 1.409 . S
C132 C133 1.380 . S
C132 H150 0.930 . S
C133 C132 1.380 . S
C133 C140 1.357 . S
C134 C125 1.511 . S
C134 C135 1.341 . S
C134 C136 1.371 . S
C135 C134 1.341 . S
C135 C139 1.394 . S
C135 H151 0.930 . S
C136 C134 1.371 . S
C136 C137 1.392 . S
C136 H152 0.931 . S
C137 C136 1.392 . S
C137 C138 1.331 . S
C137 H155 0.932 . S
C138 C137 1.331 . S
C138 C139 1.336 . S
C139 C135 1.394 . S
C139 C138 1.336 . S
C139 H154 0.929 . S
C140 C130 1.386 . S
C140 C133 1.357 . S
C140 H153 0.928 . S
H141 C117 0.931 . S
H142 C119 0.930 . S
H143 C121 0.929 . S
H144 C122 0.931 . S
H145 C124 0.930 . S
H146 C128 0.931 . S
H147 C126 0.931 . S
H148 C130 0.931 . S
H149 C131 0.929 . S
H150 C132 0.930 . S
H151 C135 0.930 . S
H152 C136 0.931 . S
H153 C140 0.928 . S
H154 C139 0.929 . S
H155 C137 0.932 . S
C156 C157 1.386 . S
C156 C158 1.397 . S
C156 H180 0.931 . S
C157 C156 1.386 . S
C157 C161 1.397 . S
C158 C156 1.397 . S
C158 C159 1.384 . S
C158 H181 0.930 . S
C159 C158 1.384 . S
C159 C160 1.377 . S
C159 C162 1.481 . S
C160 C159 1.377 . S
C160 C161 1.389 . S
C160 H182 0.929 . S
C161 C157 1.397 . S
C161 C160 1.389 . S
C161 H183 0.931 . S
C162 C159 1.481 . S
C162 C163 1.387 . S
C162 C167 1.390 . S
C163 C162 1.387 . S
C163 C164 1.401 . S
C163 H184 0.930 . S
C164 C163 1.401 . S
C164 C165 1.376 . S
C164 C173 1.511 . S
C165 C164 1.376 . S
C165 C166 1.392 . S
C165 H186 0.931 . S
C166 C165 1.392 . S
C166 C167 1.361 . S
C166 C168 1.500 . S
C167 C162 1.390 . S
C167 C166 1.361 . S
C167 H185 0.931 . S
C168 C166 1.500 . S
C168 C169 1.371 . S
C168 C170 1.365 . S
C169 C168 1.371 . S
C169 C179 1.386 . S
C169 H187 0.931 . S
C170 C168 1.365 . S
C170 C171 1.409 . S
C170 H188 0.929 . S
C171 C170 1.409 . S
C171 C172 1.380 . S
C171 H189 0.930 . S
C172 C171 1.380 . S
C172 C179 1.357 . S
C173 C164 1.511 . S
C173 C174 1.341 . S
C173 C175 1.371 . S
C174 C173 1.341 . S
C174 C178 1.394 . S
C174 H190 0.930 . S
C175 C173 1.371 . S
C175 C176 1.392 . S
C175 H191 0.931 . S
C176 C175 1.392 . S
C176 C177 1.331 . S
C176 H194 0.932 . S
C177 C176 1.331 . S
C177 C178 1.336 . S
C178 C174 1.394 . S
C178 C177 1.336 . S
C178 H193 0.929 . S
C179 C169 1.386 . S
C179 C172 1.357 . S
C179 H192 0.928 . S
H180 C156 0.931 . S
H181 C158 0.930 . S
H182 C160 0.929 . S
H183 C161 0.931 . S
H184 C163 0.930 . S
H185 C167 0.931 . S
H186 C165 0.931 . S
H187 C169 0.931 . S
H188 C170 0.929 . S
H189 C171 0.930 . S
H190 C174 0.930 . S
H191 C175 0.931 . S
H192 C179 0.928 . S
H193 C178 0.929 . S
H194 C176 0.932 . S
C195 C196 1.386 . S
C195 C197 1.397 . S
C195 H219 0.931 . S
C196 C195 1.386 . S
C196 C200 1.397 . S
C197 C195 1.397 . S
C197 C198 1.384 . S
C197 H220 0.930 . S
C198 C197 1.384 . S
C198 C199 1.377 . S
C198 C201 1.481 . S
C199 C198 1.377 . S
C199 C200 1.389 . S
C199 H221 0.929 . S
C200 C196 1.397 . S
C200 C199 1.389 . S
C200 H222 0.931 . S
C201 C198 1.481 . S
C201 C202 1.387 . S
C201 C206 1.390 . S
C202 C201 1.387 . S
C202 C203 1.401 . S
C202 H223 0.930 . S
C203 C202 1.401 . S
C203 C204 1.376 . S
C203 C212 1.511 . S
C204 C203 1.376 . S
C204 C205 1.392 . S
C204 H225 0.931 . S
C205 C204 1.392 . S
C205 C206 1.361 . S
C205 C207 1.500 . S
C206 C201 1.390 . S
C206 C205 1.361 . S
C206 H224 0.931 . S
C207 C205 1.500 . S
C207 C208 1.371 . S
C207 C209 1.365 . S
C208 C207 1.371 . S
C208 C218 1.386 . S
C208 H226 0.931 . S
C209 C207 1.365 . S
C209 C210 1.409 . S
C209 H227 0.929 . S
C210 C209 1.409 . S
C210 C211 1.380 . S
C210 H228 0.930 . S
C211 C210 1.380 . S
C211 C218 1.357 . S
C212 C203 1.511 . S
C212 C213 1.341 . S
C212 C214 1.371 . S
C213 C212 1.341 . S
C213 C217 1.394 . S
C213 H229 0.930 . S
C214 C212 1.371 . S
C214 C215 1.392 . S
C214 H230 0.931 . S
C215 C214 1.392 . S
C215 C216 1.331 . S
C215 H233 0.932 . S
C216 C215 1.331 . S
C216 C217 1.336 . S
C217 C213 1.394 . S
C217 C216 1.336 . S
C217 H232 0.929 . S
C218 C208 1.386 . S
C218 C211 1.357 . S
C218 H231 0.928 . S
H219 C195 0.931 . S
H220 C197 0.930 . S
H221 C199 0.929 . S
H222 C200 0.931 . S
H223 C202 0.930 . S
H224 C206 0.931 . S
H225 C204 0.931 . S
H226 C208 0.931 . S
H227 C209 0.929 . S
H228 C210 0.930 . S
H229 C213 0.930 . S
H230 C214 0.931 . S
H231 C218 0.928 . S
H232 C217 0.929 . S
H233 C215 0.932 . S
C234 C235 1.386 . S
C234 C236 1.397 . S
C234 H258 0.931 . S
C235 C234 1.386 . S
C235 C239 1.397 . S
C236 C234 1.397 . S
C236 C237 1.384 . S
C236 H259 0.930 . S
C237 C236 1.384 . S
C237 C238 1.377 . S
C237 C240 1.481 . S
C238 C237 1.377 . S
C238 C239 1.389 . S
C238 H260 0.929 . S
C239 C235 1.397 . S
C239 C238 1.389 . S
C239 H261 0.931 . S
C240 C237 1.481 . S
C240 C241 1.387 . S
C240 C245 1.390 . S
C241 C240 1.387 . S
C241 C242 1.401 . S
C241 H262 0.930 . S
C242 C241 1.401 . S
C242 C243 1.376 . S
C242 C251 1.511 . S
C243 C242 1.376 . S
C243 C244 1.392 . S
C243 H264 0.931 . S
C244 C243 1.392 . S
C244 C245 1.361 . S
C244 C246 1.500 . S
C245 C240 1.390 . S
C245 C244 1.361 . S
C245 H263 0.931 . S
C246 C244 1.500 . S
C246 C247 1.371 . S
C246 C248 1.365 . S
C247 C246 1.371 . S
C247 C257 1.386 . S
C247 H265 0.931 . S
C248 C246 1.365 . S
C248 C249 1.409 . S
C248 H266 0.929 . S
C249 C248 1.409 . S
C249 C250 1.380 . S
C249 H267 0.930 . S
C250 C249 1.380 . S
C250 C257 1.357 . S
C251 C242 1.511 . S
C251 C252 1.341 . S
C251 C253 1.371 . S
C252 C251 1.341 . S
C252 C256 1.394 . S
C252 H268 0.930 . S
C253 C251 1.371 . S
C253 C254 1.392 . S
C253 H269 0.931 . S
C254 C253 1.392 . S
C254 C255 1.331 . S
C254 H272 0.932 . S
C255 C254 1.331 . S
C255 C256 1.336 . S
C256 C252 1.394 . S
C256 C255 1.336 . S
C256 H271 0.929 . S
C257 C247 1.386 . S
C257 C250 1.357 . S
C257 H270 0.928 . S
H258 C234 0.931 . S
H259 C236 0.930 . S
H260 C238 0.929 . S
H261 C239 0.931 . S
H262 C241 0.930 . S
H263 C245 0.931 . S
H264 C243 0.931 . S
H265 C247 0.931 . S
H266 C248 0.929 . S
H267 C249 0.930 . S
H268 C252 0.930 . S
H269 C253 0.931 . S
H270 C257 0.928 . S
H271 C256 0.929 . S
H272 C254 0.932 . S
C273 C274 1.386 . S
C273 C275 1.397 . S
C273 H297 0.931 . S
C274 C273 1.386 . S
C274 C278 1.397 . S
C275 C273 1.397 . S
C275 C276 1.384 . S
C275 H298 0.930 . S
C276 C275 1.384 . S
C276 C277 1.377 . S
C276 C279 1.481 . S
C277 C276 1.377 . S
C277 C278 1.389 . S
C277 H299 0.929 . S
C278 C274 1.397 . S
C278 C277 1.389 . S
C278 H300 0.931 . S
C279 C276 1.481 . S
C279 C280 1.387 . S
C279 C284 1.390 . S
C280 C279 1.387 . S
C280 C281 1.401 . S
C280 H301 0.930 . S
C281 C280 1.401 . S
C281 C282 1.376 . S
C281 C290 1.511 . S
C282 C281 1.376 . S
C282 C283 1.392 . S
C282 H303 0.931 . S
C283 C282 1.392 . S
C283 C284 1.361 . S
C283 C285 1.500 . S
C284 C279 1.390 . S
C284 C283 1.361 . S
C284 H302 0.931 . S
C285 C283 1.500 . S
C285 C286 1.371 . S
C285 C287 1.365 . S
C286 C285 1.371 . S
C286 C296 1.386 . S
C286 H304 0.931 . S
C287 C285 1.365 . S
C287 C288 1.409 . S
C287 H305 0.929 . S
C288 C287 1.409 . S
C288 C289 1.380 . S
C288 H306 0.930 . S
C289 C288 1.380 . S
C289 C296 1.357 . S
C290 C281 1.511 . S
C290 C291 1.341 . S
C290 C292 1.371 . S
C291 C290 1.341 . S
C291 C295 1.394 . S
C291 H307 0.930 . S
C292 C290 1.371 . S
C292 C293 1.392 . S
C292 H308 0.931 . S
C293 C292 1.392 . S
C293 C294 1.331 . S
C293 H311 0.932 . S
C294 C293 1.331 . S
C294 C295 1.336 . S
C295 C291 1.394 . S
C295 C294 1.336 . S
C295 H310 0.929 . S
C296 C286 1.386 . S
C296 C289 1.357 . S
C296 H309 0.928 . S
H297 C273 0.931 . S
H298 C275 0.930 . S
H299 C277 0.929 . S
H300 C278 0.931 . S
H301 C280 0.930 . S
H302 C284 0.931 . S
H303 C282 0.931 . S
H304 C286 0.931 . S
H305 C287 0.929 . S
H306 C288 0.930 . S
H307 C291 0.930 . S
H308 C292 0.931 . S
H309 C296 0.928 . S
H310 C295 0.929 . S
H311 C293 0.932 . S
Co312 O315 2.042 . S
Co312 O322 2.264 . S
Co312 O341 2.286 . S
Co312 O342 2.069 . S
Co312 O344 2.015 . S
Co313 O315 2.122 . S
Co313 O321 2.073 . S
Co313 O322 2.327 . S
Co313 O323 1.976 . S
Co314 O315 2.087 . S
Co314 O317 2.087 1_455 S
Co314 O324 2.111 . S
Co314 O325 2.143 1_455 S
Co314 O329 2.111 1_455 S
Co314 O343 2.143 . S
O315 Co312 2.042 . S
O315 Co313 2.122 . S
O315 Co314 2.087 . S
O315 H316 0.980 . S
H316 O315 0.980 . S
O317 Co314 2.087 1_655 S
O317 Co318 2.042 . S
O317 Co319 2.122 . S
O317 H320 0.980 . S
Co318 O317 2.042 . S
Co318 O326 2.286 . S
Co318 O327 2.069 . S
Co318 O328 2.015 . S
Co318 O331 2.264 . S
Co319 O317 2.122 . S
Co319 O330 1.976 . S
Co319 O331 2.327 . S
Co319 O332 2.073 . S
H320 O317 0.980 . S
O321 Co313 2.073 . S
O321 C336 1.245 . S
O322 Co312 2.264 . S
O322 Co313 2.327 . S
O322 C336 1.257 . S
O323 Co313 1.976 . S
O323 C335 1.251 . S
O324 Co314 2.111 . S
O324 C335 1.274 . S
O325 Co314 2.143 1_655 S
O325 C338 1.246 . S
O326 Co318 2.286 . S
O326 C337 1.259 . S
O327 Co318 2.069 . S
O327 C337 1.289 . S
O328 Co318 2.015 . S
O328 C338 1.257 . S
O329 Co314 2.111 1_655 S
O329 C339 1.274 . S
O330 Co319 1.976 . S
O330 C339 1.251 . S
O331 Co318 2.264 . S
O331 Co319 2.327 . S
O331 C340 1.257 . S
O332 Co319 2.073 . S
O332 C340 1.245 . S
C333 O341 1.259 . S
C333 O342 1.289 . S
C334 O343 1.246 . S
C334 O344 1.257 . S
C335 O323 1.251 . S
C335 O324 1.274 . S
C336 O321 1.245 . S
C336 O322 1.257 . S
C337 O326 1.259 . S
C337 O327 1.289 . S
C338 O325 1.246 . S
C338 O328 1.257 . S
C339 O329 1.274 . S
C339 O330 1.251 . S
C340 O331 1.257 . S
C340 O332 1.245 . S
O341 Co312 2.286 . S
O341 C333 1.259 . S
O342 Co312 2.069 . S
O342 C333 1.289 . S
O343 Co314 2.143 . S
O343 C334 1.246 . S
O344 Co312 2.015 . S
O344 C334 1.257 . S
Co345 O348 2.042 . S
Co345 O355 2.264 . S
Co345 O374 2.286 . S
Co345 O375 2.069 . S
Co345 O377 2.015 . S
Co346 O348 2.122 . S
Co346 O354 2.073 . S
Co346 O355 2.327 . S
Co346 O356 1.976 . S
Co347 O348 2.087 1_545 S
Co347 O350 2.087 . S
Co347 O357 2.111 1_545 S
Co347 O358 2.143 . S
Co347 O362 2.111 . S
Co347 O376 2.143 1_545 S
O348 Co345 2.042 . S
O348 Co346 2.122 . S
O348 Co347 2.087 1_565 S
O348 H349 0.980 . S
H349 O348 0.980 . S
O350 Co347 2.087 . S
O350 Co351 2.042 . S
O350 Co352 2.122 . S
O350 H353 0.980 . S
Co351 O350 2.042 . S
Co351 O359 2.286 . S
Co351 O360 2.069 . S
Co351 O361 2.015 . S
Co351 O364 2.264 . S
Co352 O350 2.122 . S
Co352 O363 1.976 . S
Co352 O364 2.327 . S
Co352 O365 2.073 . S
H353 O350 0.980 . S
O354 Co346 2.073 . S
O354 C369 1.245 . S
O355 Co345 2.264 . S
O355 Co346 2.327 . S
O355 C369 1.257 . S
O356 Co346 1.976 . S
O356 C368 1.251 . S
O357 Co347 2.111 1_565 S
O357 C368 1.274 . S
O358 Co347 2.143 . S
O358 C371 1.246 . S
O359 Co351 2.286 . S
O359 C370 1.259 . S
O360 Co351 2.069 . S
O360 C370 1.289 . S
O361 Co351 2.015 . S
O361 C371 1.257 . S
O362 Co347 2.111 . S
O362 C372 1.274 . S
O363 Co352 1.976 . S
O363 C372 1.251 . S
O364 Co351 2.264 . S
O364 Co352 2.327 . S
O364 C373 1.257 . S
O365 Co352 2.073 . S
O365 C373 1.245 . S
C366 O374 1.259 . S
C366 O375 1.289 . S
C367 O376 1.246 . S
C367 O377 1.257 . S
C368 O356 1.251 . S
C368 O357 1.274 . S
C369 O354 1.245 . S
C369 O355 1.257 . S
C370 O359 1.259 . S
C370 O360 1.289 . S
C371 O358 1.246 . S
C371 O361 1.257 . S
C372 O362 1.274 . S
C372 O363 1.251 . S
C373 O364 1.257 . S
C373 O365 1.245 . S
O374 Co345 2.286 . S
O374 C366 1.259 . S
O375 Co345 2.069 . S
O375 C366 1.289 . S
O376 Co347 2.143 1_565 S
O376 C367 1.246 . S
O377 Co345 2.015 . S
O377 C367 1.257 . S
Co378 O381 2.042 . S
Co378 O388 2.264 . S
Co378 O407 2.286 . S
Co378 O408 2.069 . S
Co378 O410 2.015 . S
Co379 O381 2.122 . S
Co379 O387 2.073 . S
Co379 O388 2.327 . S
Co379 O389 1.976 . S
Co380 O381 2.087 . S
Co380 O383 2.087 1_554 S
Co380 O390 2.111 . S
Co380 O391 2.143 1_554 S
Co380 O395 2.111 1_554 S
Co380 O409 2.143 . S
O381 Co378 2.042 . S
O381 Co379 2.122 . S
O381 Co380 2.087 . S
O381 H382 0.980 . S
H382 O381 0.980 . S
O383 Co380 2.087 1_556 S
O383 Co384 2.042 . S
O383 Co385 2.122 . S
O383 H386 0.980 . S
Co384 O383 2.042 . S
Co384 O392 2.286 . S
Co384 O393 2.069 . S
Co384 O394 2.015 . S
Co384 O397 2.264 . S
Co385 O383 2.122 . S
Co385 O396 1.976 . S
Co385 O397 2.327 . S
Co385 O398 2.073 . S
H386 O383 0.980 . S
O387 Co379 2.073 . S
O387 C402 1.245 . S
O388 Co378 2.264 . S
O388 Co379 2.327 . S
O388 C402 1.257 . S
O389 Co379 1.976 . S
O389 C401 1.251 . S
O390 Co380 2.111 . S
O390 C401 1.274 . S
O391 Co380 2.143 1_556 S
O391 C404 1.246 . S
O392 Co384 2.286 . S
O392 C403 1.259 . S
O393 Co384 2.069 . S
O393 C403 1.289 . S
O394 Co384 2.015 . S
O394 C404 1.257 . S
O395 Co380 2.111 1_556 S
O395 C405 1.274 . S
O396 Co385 1.976 . S
O396 C405 1.251 . S
O397 Co384 2.264 . S
O397 Co385 2.327 . S
O397 C406 1.257 . S
O398 Co385 2.073 . S
O398 C406 1.245 . S
C399 O407 1.259 . S
C399 O408 1.289 . S
C400 O409 1.246 . S
C400 O410 1.257 . S
C401 O389 1.251 . S
C401 O390 1.274 . S
C402 O387 1.245 . S
C402 O388 1.257 . S
C403 O392 1.259 . S
C403 O393 1.289 . S
C404 O391 1.246 . S
C404 O394 1.257 . S
C405 O395 1.274 . S
C405 O396 1.251 . S
C406 O397 1.257 . S
C406 O398 1.245 . S
O407 Co378 2.286 . S
O407 C399 1.259 . S
O408 Co378 2.069 . S
O408 C399 1.289 . S
O409 Co380 2.143 . S
O409 C400 1.246 . S
O410 Co378 2.015 . S
O410 C400 1.257 . S
C411 C412 1.349 . S
C411 C413 1.327 . S
C411 H436 0.950 . S
C412 C411 1.349 . S
C412 C428 1.349 . S
C413 C411 1.327 . S
C413 C432 1.429 . S
C413 H437 0.950 . S
C414 C431 1.574 . S
C414 C433 1.368 . S
C414 H438 0.949 . S
H415 C419 0.949 . S
C416 C417 1.349 . S
C416 C418 1.327 . S
C416 H439 0.950 . S
C417 C416 1.349 . S
C417 C429 1.349 . S
C418 C416 1.327 . S
C418 C434 1.429 . S
C418 H440 0.950 . S
C419 H415 0.949 . S
C419 C427 1.574 . S
C419 C435 1.368 . S
H420 C428 0.950 . S
H421 C426 0.950 . S
H422 C427 0.949 . S
H423 C429 0.950 . S
H424 C430 0.950 . S
H425 C431 0.949 . S
C426 H421 0.950 . S
C426 C428 1.327 . S
C426 C432 1.429 . S
C427 C419 1.574 . S
C427 H422 0.949 . S
C427 C433 1.368 . S
C428 C412 1.349 . S
C428 H420 0.950 . S
C428 C426 1.327 . S
C429 C417 1.349 . S
C429 H423 0.950 . S
C429 C430 1.327 . S
C430 H424 0.950 . S
C430 C429 1.327 . S
C430 C434 1.429 . S
C431 C414 1.574 . S
C431 H425 0.949 . S
C431 C435 1.368 . S
C432 C413 1.429 . S
C432 C426 1.429 . S
C432 C433 1.523 . S
C433 C414 1.368 . S
C433 C427 1.368 . S
C433 C432 1.523 . S
C434 C418 1.429 . S
C434 C430 1.429 . S
C434 C435 1.523 . S
C435 C419 1.368 . S
C435 C431 1.368 . S
C435 C434 1.523 . S
H436 C411 0.950 . S
H437 C413 0.950 . S
H438 C414 0.949 . S
H439 C416 0.950 . S
H440 C418 0.950 . S
C441 C442 1.349 . S
C441 C443 1.327 . S
C441 H466 0.950 . S
C442 C441 1.349 . S
C442 C458 1.349 . S
C443 C441 1.327 . S
C443 C462 1.429 . S
C443 H467 0.950 . S
C444 C461 1.574 . S
C444 C463 1.368 . S
C444 H468 0.949 . S
H445 C449 0.949 . S
C446 C447 1.349 . S
C446 C448 1.327 . S
C446 H469 0.950 . S
C447 C446 1.349 . S
C447 C459 1.349 . S
C448 C446 1.327 . S
C448 C464 1.429 . S
C448 H470 0.950 . S
C449 H445 0.949 . S
C449 C457 1.574 . S
C449 C465 1.368 . S
H450 C458 0.950 . S
H451 C456 0.950 . S
H452 C457 0.949 . S
H453 C459 0.950 . S
H454 C460 0.950 . S
H455 C461 0.949 . S
C456 H451 0.950 . S
C456 C458 1.327 . S
C456 C462 1.429 . S
C457 C449 1.574 . S
C457 H452 0.949 . S
C457 C463 1.368 . S
C458 C442 1.349 . S
C458 H450 0.950 . S
C458 C456 1.327 . S
C459 C447 1.349 . S
C459 H453 0.950 . S
C459 C460 1.327 . S
C460 H454 0.950 . S
C460 C459 1.327 . S
C460 C464 1.429 . S
C461 C444 1.574 . S
C461 H455 0.949 . S
C461 C465 1.368 . S
C462 C443 1.429 . S
C462 C456 1.429 . S
C462 C463 1.523 . S
C463 C444 1.368 . S
C463 C457 1.368 . S
C463 C462 1.523 . S
C464 C448 1.429 . S
C464 C460 1.429 . S
C464 C465 1.523 . S
C465 C449 1.368 . S
C465 C461 1.368 . S
C465 C464 1.523 . S
H466 C441 0.950 . S
H467 C443 0.950 . S
H468 C444 0.949 . S
H469 C446 0.950 . S
H470 C448 0.950 . S
C471 C472 1.349 . S
C471 C473 1.327 . S
C471 H496 0.950 . S
C472 C471 1.349 . S
C472 C488 1.349 . S
C473 C471 1.327 . S
C473 C492 1.429 . S
C473 H497 0.950 . S
C474 C491 1.574 . S
C474 C493 1.368 . S
C474 H498 0.949 . S
H475 C479 0.949 . S
C476 C477 1.349 . S
C476 C478 1.327 . S
C476 H499 0.950 . S
C477 C476 1.349 . S
C477 C489 1.349 . S
C478 C476 1.327 . S
C478 C494 1.429 . S
C478 H500 0.950 . S
C479 H475 0.949 . S
C479 C487 1.574 . S
C479 C495 1.368 . S
H480 C488 0.950 . S
H481 C486 0.950 . S
H482 C487 0.949 . S
H483 C489 0.950 . S
H484 C490 0.950 . S
H485 C491 0.949 . S
C486 H481 0.950 . S
C486 C488 1.327 . S
C486 C492 1.429 . S
C487 C479 1.574 . S
C487 H482 0.949 . S
C487 C493 1.368 . S
C488 C472 1.349 . S
C488 H480 0.950 . S
C488 C486 1.327 . S
C489 C477 1.349 . S
C489 H483 0.950 . S
C489 C490 1.327 . S
C490 H484 0.950 . S
C490 C489 1.327 . S
C490 C494 1.429 . S
C491 C474 1.574 . S
C491 H485 0.949 . S
C491 C495 1.368 . S
C492 C473 1.429 . S
C492 C486 1.429 . S
C492 C493 1.523 . S
C493 C474 1.368 . S
C493 C487 1.368 . S
C493 C492 1.523 . S
C494 C478 1.429 . S
C494 C490 1.429 . S
C494 C495 1.523 . S
C495 C479 1.368 . S
C495 C491 1.368 . S
C495 C494 1.523 . S
H496 C471 0.950 . S
H497 C473 0.950 . S
H498 C474 0.949 . S
H499 C476 0.950 . S
H500 C478 0.950 . S
C501 C502 1.349 . S
C501 C503 1.327 . S
C501 H526 0.950 . S
C502 C501 1.349 . S
C502 C518 1.349 . S
C503 C501 1.327 . S
C503 C522 1.429 . S
C503 H527 0.950 . S
C504 C521 1.574 . S
C504 C523 1.368 . S
C504 H528 0.949 . S
H505 C509 0.949 . S
C506 C507 1.349 . S
C506 C508 1.327 . S
C506 H529 0.950 . S
C507 C506 1.349 . S
C507 C519 1.349 . S
C508 C506 1.327 . S
C508 C524 1.429 . S
C508 H530 0.950 . S
C509 H505 0.949 . S
C509 C517 1.574 . S
C509 C525 1.368 . S
H510 C518 0.950 . S
H511 C516 0.950 . S
H512 C517 0.949 . S
H513 C519 0.950 . S
H514 C520 0.950 . S
H515 C521 0.949 . S
C516 H511 0.950 . S
C516 C518 1.327 . S
C516 C522 1.429 . S
C517 C509 1.574 . S
C517 H512 0.949 . S
C517 C523 1.368 . S
C518 C502 1.349 . S
C518 H510 0.950 . S
C518 C516 1.327 . S
C519 C507 1.349 . S
C519 H513 0.950 . S
C519 C520 1.327 . S
C520 H514 0.950 . S
C520 C519 1.327 . S
C520 C524 1.429 . S
C521 C504 1.574 . S
C521 H515 0.949 . S
C521 C525 1.368 . S
C522 C503 1.429 . S
C522 C516 1.429 . S
C522 C523 1.523 . S
C523 C504 1.368 . S
C523 C517 1.368 . S
C523 C522 1.523 . S
C524 C508 1.429 . S
C524 C520 1.429 . S
C524 C525 1.523 . S
C525 C509 1.368 . S
C525 C521 1.368 . S
C525 C524 1.523 . S
H526 C501 0.950 . S
H527 C503 0.950 . S
H528 C504 0.949 . S
H529 C506 0.950 . S
H530 C508 0.950 . S
C531 C532 1.349 . S
C531 C533 1.327 . S
C531 H556 0.950 . S
C532 C531 1.349 . S
C532 C548 1.349 . S
C533 C531 1.327 . S
C533 C552 1.429 . S
C533 H557 0.950 . S
C534 C551 1.574 . S
C534 C553 1.368 . S
C534 H558 0.949 . S
H535 C539 0.949 . S
C536 C537 1.349 . S
C536 C538 1.327 . S
C536 H559 0.950 . S
C537 C536 1.349 . S
C537 C549 1.349 . S
C538 C536 1.327 . S
C538 C554 1.429 . S
C538 H560 0.950 . S
C539 H535 0.949 . S
C539 C547 1.574 . S
C539 C555 1.368 . S
H540 C548 0.950 . S
H541 C546 0.950 . S
H542 C547 0.949 . S
H543 C549 0.950 . S
H544 C550 0.950 . S
H545 C551 0.949 . S
C546 H541 0.950 . S
C546 C548 1.327 . S
C546 C552 1.429 . S
C547 C539 1.574 . S
C547 H542 0.949 . S
C547 C553 1.368 . S
C548 C532 1.349 . S
C548 H540 0.950 . S
C548 C546 1.327 . S
C549 C537 1.349 . S
C549 H543 0.950 . S
C549 C550 1.327 . S
C550 H544 0.950 . S
C550 C549 1.327 . S
C550 C554 1.429 . S
C551 C534 1.574 . S
C551 H545 0.949 . S
C551 C555 1.368 . S
C552 C533 1.429 . S
C552 C546 1.429 . S
C552 C553 1.523 . S
C553 C534 1.368 . S
C553 C547 1.368 . S
C553 C552 1.523 . S
C554 C538 1.429 . S
C554 C550 1.429 . S
C554 C555 1.523 . S
C555 C539 1.368 . S
C555 C551 1.368 . S
C555 C554 1.523 . S
H556 C531 0.950 . S
H557 C533 0.950 . S
H558 C534 0.949 . S
H559 C536 0.950 . S
H560 C538 0.950 . S
C561 C562 1.349 . S
C561 C563 1.327 . S
C561 H586 0.950 . S
C562 C561 1.349 . S
C562 C578 1.349 . S
C563 C561 1.327 . S
C563 C582 1.429 . S
C563 H587 0.950 . S
C564 C581 1.574 . S
C564 C583 1.368 . S
C564 H588 0.949 . S
H565 C569 0.949 . S
C566 C567 1.349 . S
C566 C568 1.327 . S
C566 H589 0.950 . S
C567 C566 1.349 . S
C567 C579 1.349 . S
C568 C566 1.327 . S
C568 C584 1.429 . S
C568 H590 0.950 . S
C569 H565 0.949 . S
C569 C577 1.574 . S
C569 C585 1.368 . S
H570 C578 0.950 . S
H571 C576 0.950 . S
H572 C577 0.949 . S
H573 C579 0.950 . S
H574 C580 0.950 . S
H575 C581 0.949 . S
C576 H571 0.950 . S
C576 C578 1.327 . S
C576 C582 1.429 . S
C577 C569 1.574 . S
C577 H572 0.949 . S
C577 C583 1.368 . S
C578 C562 1.349 . S
C578 H570 0.950 . S
C578 C576 1.327 . S
C579 C567 1.349 . S
C579 H573 0.950 . S
C579 C580 1.327 . S
C580 H574 0.950 . S
C580 C579 1.327 . S
C580 C584 1.429 . S
C581 C564 1.574 . S
C581 H575 0.949 . S
C581 C585 1.368 . S
C582 C563 1.429 . S
C582 C576 1.429 . S
C582 C583 1.523 . S
C583 C564 1.368 . S
C583 C577 1.368 . S
C583 C582 1.523 . S
C584 C568 1.429 . S
C584 C580 1.429 . S
C584 C585 1.523 . S
C585 C569 1.368 . S
C585 C581 1.368 . S
C585 C584 1.523 . S
H586 C561 0.950 . S
H587 C563 0.950 . S
H588 C564 0.949 . S
H589 C566 0.950 . S
H590 C568 0.950 . S
C591 C592 1.349 . S
C591 C593 1.327 . S
C591 H616 0.950 . S
C592 C591 1.349 . S
C592 C608 1.349 . S
C593 C591 1.327 . S
C593 C612 1.429 . S
C593 H617 0.950 . S
C594 C611 1.574 . S
C594 C613 1.368 . S
C594 H618 0.949 . S
H595 C599 0.949 . S
C596 C597 1.349 . S
C596 C598 1.327 . S
C596 H619 0.950 . S
C597 C596 1.349 . S
C597 C609 1.349 . S
C598 C596 1.327 . S
C598 C614 1.429 . S
C598 H620 0.950 . S
C599 H595 0.949 . S
C599 C607 1.574 . S
C599 C615 1.368 . S
H600 C608 0.950 . S
H601 C606 0.950 . S
H602 C607 0.949 . S
H603 C609 0.950 . S
H604 C610 0.950 . S
H605 C611 0.949 . S
C606 H601 0.950 . S
C606 C608 1.327 . S
C606 C612 1.429 . S
C607 C599 1.574 . S
C607 H602 0.949 . S
C607 C613 1.368 . S
C608 C592 1.349 . S
C608 H600 0.950 . S
C608 C606 1.327 . S
C609 C597 1.349 . S
C609 H603 0.950 . S
C609 C610 1.327 . S
C610 H604 0.950 . S
C610 C609 1.327 . S
C610 C614 1.429 . S
C611 C594 1.574 . S
C611 H605 0.949 . S
C611 C615 1.368 . S
C612 C593 1.429 . S
C612 C606 1.429 . S
C612 C613 1.523 . S
C613 C594 1.368 . S
C613 C607 1.368 . S
C613 C612 1.523 . S
C614 C598 1.429 . S
C614 C610 1.429 . S
C614 C615 1.523 . S
C615 C599 1.368 . S
C615 C611 1.368 . S
C615 C614 1.523 . S
H616 C591 0.950 . S
H617 C593 0.950 . S
H618 C594 0.949 . S
H619 C596 0.950 . S
H620 C598 0.950 . S
C621 C622 1.349 . S
C621 C623 1.327 . S
C621 H646 0.950 . S
C622 C621 1.349 . S
C622 C638 1.349 . S
C623 C621 1.327 . S
C623 C642 1.429 . S
C623 H647 0.950 . S
C624 C641 1.574 . S
C624 C643 1.368 . S
C624 H648 0.949 . S
H625 C629 0.949 . S
C626 C627 1.349 . S
C626 C628 1.327 . S
C626 H649 0.950 . S
C627 C626 1.349 . S
C627 C639 1.349 . S
C628 C626 1.327 . S
C628 C644 1.429 . S
C628 H650 0.950 . S
C629 H625 0.949 . S
C629 C637 1.574 . S
C629 C645 1.368 . S
H630 C638 0.950 . S
H631 C636 0.950 . S
H632 C637 0.949 . S
H633 C639 0.950 . S
H634 C640 0.950 . S
H635 C641 0.949 . S
C636 H631 0.950 . S
C636 C638 1.327 . S
C636 C642 1.429 . S
C637 C629 1.574 . S
C637 H632 0.949 . S
C637 C643 1.368 . S
C638 C622 1.349 . S
C638 H630 0.950 . S
C638 C636 1.327 . S
C639 C627 1.349 . S
C639 H633 0.950 . S
C639 C640 1.327 . S
C640 H634 0.950 . S
C640 C639 1.327 . S
C640 C644 1.429 . S
C641 C624 1.574 . S
C641 H635 0.949 . S
C641 C645 1.368 . S
C642 C623 1.429 . S
C642 C636 1.429 . S
C642 C643 1.523 . S
C643 C624 1.368 . S
C643 C637 1.368 . S
C643 C642 1.523 . S
C644 C628 1.429 . S
C644 C640 1.429 . S
C644 C645 1.523 . S
C645 C629 1.368 . S
C645 C641 1.368 . S
C645 C644 1.523 . S
H646 C621 0.950 . S
H647 C623 0.950 . S
H648 C624 0.949 . S
H649 C626 0.950 . S
H650 C628 0.950 . S
C651 C652 1.349 . S
C651 C653 1.327 . S
C651 H676 0.950 . S
C652 C651 1.349 . S
C652 C668 1.349 . S
C653 C651 1.327 . S
C653 C672 1.429 . S
C653 H677 0.950 . S
C654 C671 1.574 . S
C654 C673 1.368 . S
C654 H678 0.949 . S
H655 C659 0.949 . S
C656 C657 1.349 . S
C656 C658 1.327 . S
C656 H679 0.950 . S
C657 C656 1.349 . S
C657 C669 1.349 . S
C658 C656 1.327 . S
C658 C674 1.429 . S
C658 H680 0.950 . S
C659 H655 0.949 . S
C659 C667 1.574 . S
C659 C675 1.368 . S
H660 C668 0.950 . S
H661 C666 0.950 . S
H662 C667 0.949 . S
H663 C669 0.950 . S
H664 C670 0.950 . S
H665 C671 0.949 . S
C666 H661 0.950 . S
C666 C668 1.327 . S
C666 C672 1.429 . S
C667 C659 1.574 . S
C667 H662 0.949 . S
C667 C673 1.368 . S
C668 C652 1.349 . S
C668 H660 0.950 . S
C668 C666 1.327 . S
C669 C657 1.349 . S
C669 H663 0.950 . S
C669 C670 1.327 . S
C670 H664 0.950 . S
C670 C669 1.327 . S
C670 C674 1.429 . S
C671 C654 1.574 . S
C671 H665 0.949 . S
C671 C675 1.368 . S
C672 C653 1.429 . S
C672 C666 1.429 . S
C672 C673 1.523 . S
C673 C654 1.368 . S
C673 C667 1.368 . S
C673 C672 1.523 . S
C674 C658 1.429 . S
C674 C670 1.429 . S
C674 C675 1.523 . S
C675 C659 1.368 . S
C675 C671 1.368 . S
C675 C674 1.523 . S
H676 C651 0.950 . S
H677 C653 0.950 . S
H678 C654 0.949 . S
H679 C656 0.950 . S
H680 C658 0.950 . S
C681 C682 1.349 . S
C681 C683 1.327 . S
C681 H706 0.950 . S
C682 C681 1.349 . S
C682 C698 1.349 . S
C683 C681 1.327 . S
C683 C702 1.429 . S
C683 H707 0.950 . S
C684 C701 1.574 . S
C684 C703 1.368 . S
C684 H708 0.949 . S
H685 C689 0.949 . S
C686 C687 1.349 . S
C686 C688 1.327 . S
C686 H709 0.950 . S
C687 C686 1.349 . S
C687 C699 1.349 . S
C688 C686 1.327 . S
C688 C704 1.429 . S
C688 H710 0.950 . S
C689 H685 0.949 . S
C689 C697 1.574 . S
C689 C705 1.368 . S
H690 C698 0.950 . S
H691 C696 0.950 . S
H692 C697 0.949 . S
H693 C699 0.950 . S
H694 C700 0.950 . S
H695 C701 0.949 . S
C696 H691 0.950 . S
C696 C698 1.327 . S
C696 C702 1.429 . S
C697 C689 1.574 . S
C697 H692 0.949 . S
C697 C703 1.368 . S
C698 C682 1.349 . S
C698 H690 0.950 . S
C698 C696 1.327 . S
C699 C687 1.349 . S
C699 H693 0.950 . S
C699 C700 1.327 . S
C700 H694 0.950 . S
C700 C699 1.327 . S
C700 C704 1.429 . S
C701 C684 1.574 . S
C701 H695 0.949 . S
C701 C705 1.368 . S
C702 C683 1.429 . S
C702 C696 1.429 . S
C702 C703 1.523 . S
C703 C684 1.368 . S
C703 C697 1.368 . S
C703 C702 1.523 . S
C704 C688 1.429 . S
C704 C700 1.429 . S
C704 C705 1.523 . S
C705 C689 1.368 . S
C705 C701 1.368 . S
C705 C704 1.523 . S
H706 C681 0.950 . S
H707 C683 0.950 . S
H708 C684 0.949 . S
H709 C686 0.950 . S
H710 C688 0.950 . S
C711 C712 1.349 . S
C711 C713 1.327 . S
C711 H736 0.950 . S
C712 C711 1.349 . S
C712 C728 1.349 . S
C713 C711 1.327 . S
C713 C732 1.429 . S
C713 H737 0.950 . S
C714 C731 1.574 . S
C714 C733 1.368 . S
C714 H738 0.949 . S
H715 C719 0.949 . S
C716 C717 1.349 . S
C716 C718 1.327 . S
C716 H739 0.950 . S
C717 C716 1.349 . S
C717 C729 1.349 . S
C718 C716 1.327 . S
C718 C734 1.429 . S
C718 H740 0.950 . S
C719 H715 0.949 . S
C719 C727 1.574 . S
C719 C735 1.368 . S
H720 C728 0.950 . S
H721 C726 0.950 . S
H722 C727 0.949 . S
H723 C729 0.950 . S
H724 C730 0.950 . S
H725 C731 0.949 . S
C726 H721 0.950 . S
C726 C728 1.327 . S
C726 C732 1.429 . S
C727 C719 1.574 . S
C727 H722 0.949 . S
C727 C733 1.368 . S
C728 C712 1.349 . S
C728 H720 0.950 . S
C728 C726 1.327 . S
C729 C717 1.349 . S
C729 H723 0.950 . S
C729 C730 1.327 . S
C730 H724 0.950 . S
C730 C729 1.327 . S
C730 C734 1.429 . S
C731 C714 1.574 . S
C731 H725 0.949 . S
C731 C735 1.368 . S
C732 C713 1.429 . S
C732 C726 1.429 . S
C732 C733 1.523 . S
C733 C714 1.368 . S
C733 C727 1.368 . S
C733 C732 1.523 . S
C734 C718 1.429 . S
C734 C730 1.429 . S
C734 C735 1.523 . S
C735 C719 1.368 . S
C735 C731 1.368 . S
C735 C734 1.523 . S
H736 C711 0.950 . S
H737 C713 0.950 . S
H738 C714 0.949 . S
H739 C716 0.950 . S
H740 C718 0.950 . S
C741 C742 1.349 . S
C741 C743 1.327 . S
C741 H766 0.950 . S
C742 C741 1.349 . S
C742 C758 1.349 . S
C743 C741 1.327 . S
C743 C762 1.429 . S
C743 H767 0.950 . S
C744 C761 1.574 . S
C744 C763 1.368 . S
C744 H768 0.949 . S
H745 C749 0.949 . S
C746 C747 1.349 . S
C746 C748 1.327 . S
C746 H769 0.950 . S
C747 C746 1.349 . S
C747 C759 1.349 . S
C748 C746 1.327 . S
C748 C764 1.429 . S
C748 H770 0.950 . S
C749 H745 0.949 . S
C749 C757 1.574 . S
C749 C765 1.368 . S
H750 C758 0.950 . S
H751 C756 0.950 . S
H752 C757 0.949 . S
H753 C759 0.950 . S
H754 C760 0.950 . S
H755 C761 0.949 . S
C756 H751 0.950 . S
C756 C758 1.327 . S
C756 C762 1.429 . S
C757 C749 1.574 . S
C757 H752 0.949 . S
C757 C763 1.368 . S
C758 C742 1.349 . S
C758 H750 0.950 . S
C758 C756 1.327 . S
C759 C747 1.349 . S
C759 H753 0.950 . S
C759 C760 1.327 . S
C760 H754 0.950 . S
C760 C759 1.327 . S
C760 C764 1.429 . S
C761 C744 1.574 . S
C761 H755 0.949 . S
C761 C765 1.368 . S
C762 C743 1.429 . S
C762 C756 1.429 . S
C762 C763 1.523 . S
C763 C744 1.368 . S
C763 C757 1.368 . S
C763 C762 1.523 . S
C764 C748 1.429 . S
C764 C760 1.429 . S
C764 C765 1.523 . S
C765 C749 1.368 . S
C765 C761 1.368 . S
C765 C764 1.523 . S
H766 C741 0.950 . S
H767 C743 0.950 . S
H768 C744 0.949 . S
H769 C746 0.950 . S
H770 C748 0.950 . S
C771 C772 1.349 . S
C771 C773 1.327 . S
C771 H796 0.950 . S
C772 C771 1.349 . S
C772 C788 1.349 . S
C773 C771 1.327 . S
C773 C792 1.429 . S
C773 H797 0.950 . S
C774 C791 1.574 . S
C774 C793 1.368 . S
C774 H798 0.949 . S
H775 C779 0.949 . S
C776 C777 1.349 . S
C776 C778 1.327 . S
C776 H799 0.950 . S
C777 C776 1.349 . S
C777 C789 1.349 . S
C778 C776 1.327 . S
C778 C794 1.429 . S
C778 H800 0.950 . S
C779 H775 0.949 . S
C779 C787 1.574 . S
C779 C795 1.368 . S
H780 C788 0.950 . S
H781 C786 0.950 . S
H782 C787 0.949 . S
H783 C789 0.950 . S
H784 C790 0.950 . S
H785 C791 0.949 . S
C786 H781 0.950 . S
C786 C788 1.327 . S
C786 C792 1.429 . S
C787 C779 1.574 . S
C787 H782 0.949 . S
C787 C793 1.368 . S
C788 C772 1.349 . S
C788 H780 0.950 . S
C788 C786 1.327 . S
C789 C777 1.349 . S
C789 H783 0.950 . S
C789 C790 1.327 . S
C790 H784 0.950 . S
C790 C789 1.327 . S
C790 C794 1.429 . S
C791 C774 1.574 . S
C791 H785 0.949 . S
C791 C795 1.368 . S
C792 C773 1.429 . S
C792 C786 1.429 . S
C792 C793 1.523 . S
C793 C774 1.368 . S
C793 C787 1.368 . S
C793 C792 1.523 . S
C794 C778 1.429 . S
C794 C790 1.429 . S
C794 C795 1.523 . S
C795 C779 1.368 . S
C795 C791 1.368 . S
C795 C794 1.523 . S
H796 C771 0.950 . S
H797 C773 0.950 . S
H798 C774 0.949 . S
H799 C776 0.950 . S
H800 C778 0.950 . S
C801 C802 1.349 . S
C801 C803 1.327 . S
C801 H826 0.950 . S
C802 C801 1.349 . S
C802 C818 1.349 . S
C803 C801 1.327 . S
C803 C822 1.429 . S
C803 H827 0.950 . S
C804 C821 1.574 . S
C804 C823 1.368 . S
C804 H828 0.949 . S
H805 C809 0.949 . S
C806 C807 1.349 . S
C806 C808 1.327 . S
C806 H829 0.950 . S
C807 C806 1.349 . S
C807 C819 1.349 . S
C808 C806 1.327 . S
C808 C824 1.429 . S
C808 H830 0.950 . S
C809 H805 0.949 . S
C809 C817 1.574 . S
C809 C825 1.368 . S
H810 C818 0.950 . S
H811 C816 0.950 . S
H812 C817 0.949 . S
H813 C819 0.950 . S
H814 C820 0.950 . S
H815 C821 0.949 . S
C816 H811 0.950 . S
C816 C818 1.327 . S
C816 C822 1.429 . S
C817 C809 1.574 . S
C817 H812 0.949 . S
C817 C823 1.368 . S
C818 C802 1.349 . S
C818 H810 0.950 . S
C818 C816 1.327 . S
C819 C807 1.349 . S
C819 H813 0.950 . S
C819 C820 1.327 . S
C820 H814 0.950 . S
C820 C819 1.327 . S
C820 C824 1.429 . S
C821 C804 1.574 . S
C821 H815 0.949 . S
C821 C825 1.368 . S
C822 C803 1.429 . S
C822 C816 1.429 . S
C822 C823 1.523 . S
C823 C804 1.368 . S
C823 C817 1.368 . S
C823 C822 1.523 . S
C824 C808 1.429 . S
C824 C820 1.429 . S
C824 C825 1.523 . S
C825 C809 1.368 . S
C825 C821 1.368 . S
C825 C824 1.523 . S
H826 C801 0.950 . S
H827 C803 0.950 . S
H828 C804 0.949 . S
H829 C806 0.950 . S
H830 C808 0.950 . S
C831 C832 1.349 . S
C831 C833 1.327 . S
C831 H856 0.950 . S
C832 C831 1.349 . S
C832 C848 1.349 . S
C833 C831 1.327 . S
C833 C852 1.429 . S
C833 H857 0.950 . S
C834 C851 1.574 . S
C834 C853 1.368 . S
C834 H858 0.949 . S
H835 C839 0.949 . S
C836 C837 1.349 . S
C836 C838 1.327 . S
C836 H859 0.950 . S
C837 C836 1.349 . S
C837 C849 1.349 . S
C838 C836 1.327 . S
C838 C854 1.429 . S
C838 H860 0.950 . S
C839 H835 0.949 . S
C839 C847 1.574 . S
C839 C855 1.368 . S
H840 C848 0.950 . S
H841 C846 0.950 . S
H842 C847 0.949 . S
H843 C849 0.950 . S
H844 C850 0.950 . S
H845 C851 0.949 . S
C846 H841 0.950 . S
C846 C848 1.327 . S
C846 C852 1.429 . S
C847 C839 1.574 . S
C847 H842 0.949 . S
C847 C853 1.368 . S
C848 C832 1.349 . S
C848 H840 0.950 . S
C848 C846 1.327 . S
C849 C837 1.349 . S
C849 H843 0.950 . S
C849 C850 1.327 . S
C850 H844 0.950 . S
C850 C849 1.327 . S
C850 C854 1.429 . S
C851 C834 1.574 . S
C851 H845 0.949 . S
C851 C855 1.368 . S
C852 C833 1.429 . S
C852 C846 1.429 . S
C852 C853 1.523 . S
C853 C834 1.368 . S
C853 C847 1.368 . S
C853 C852 1.523 . S
C854 C838 1.429 . S
C854 C850 1.429 . S
C854 C855 1.523 . S
C855 C839 1.368 . S
C855 C851 1.368 . S
C855 C854 1.523 . S
H856 C831 0.950 . S
H857 C833 0.950 . S
H858 C834 0.949 . S
H859 C836 0.950 . S
H860 C838 0.950 . S
C861 C862 1.349 . S
C861 C863 1.327 . S
C861 H886 0.950 . S
C862 C861 1.349 . S
C862 C878 1.349 . S
C863 C861 1.327 . S
C863 C882 1.429 . S
C863 H887 0.950 . S
C864 C881 1.574 . S
C864 C883 1.368 . S
C864 H888 0.949 . S
H865 C869 0.949 . S
C866 C867 1.349 . S
C866 C868 1.327 . S
C866 H889 0.950 . S
C867 C866 1.349 . S
C867 C879 1.349 . S
C868 C866 1.327 . S
C868 C884 1.429 . S
C868 H890 0.950 . S
C869 H865 0.949 . S
C869 C877 1.574 . S
C869 C885 1.368 . S
H870 C878 0.950 . S
H871 C876 0.950 . S
H872 C877 0.949 . S
H873 C879 0.950 . S
H874 C880 0.950 . S
H875 C881 0.949 . S
C876 H871 0.950 . S
C876 C878 1.327 . S
C876 C882 1.429 . S
C877 C869 1.574 . S
C877 H872 0.949 . S
C877 C883 1.368 . S
C878 C862 1.349 . S
C878 H870 0.950 . S
C878 C876 1.327 . S
C879 C867 1.349 . S
C879 H873 0.950 . S
C879 C880 1.327 . S
C880 H874 0.950 . S
C880 C879 1.327 . S
C880 C884 1.429 . S
C881 C864 1.574 . S
C881 H875 0.949 . S
C881 C885 1.368 . S
C882 C863 1.429 . S
C882 C876 1.429 . S
C882 C883 1.523 . S
C883 C864 1.368 . S
C883 C877 1.368 . S
C883 C882 1.523 . S
C884 C868 1.429 . S
C884 C880 1.429 . S
C884 C885 1.523 . S
C885 C869 1.368 . S
C885 C881 1.368 . S
C885 C884 1.523 . S
H886 C861 0.950 . S
H887 C863 0.950 . S
H888 C864 0.949 . S
H889 C866 0.950 . S
H890 C868 0.950 . S
C891 C892 1.349 . S
C891 C893 1.327 . S
C891 H916 0.950 . S
C892 C891 1.349 . S
C892 C908 1.349 . S
C893 C891 1.327 . S
C893 C912 1.429 . S
C893 H917 0.950 . S
C894 C911 1.574 . S
C894 C913 1.368 . S
C894 H918 0.949 . S
H895 C899 0.949 . S
C896 C897 1.349 . S
C896 C898 1.327 . S
C896 H919 0.950 . S
C897 C896 1.349 . S
C897 C909 1.349 . S
C898 C896 1.327 . S
C898 C914 1.429 . S
C898 H920 0.950 . S
C899 H895 0.949 . S
C899 C907 1.574 . S
C899 C915 1.368 . S
H900 C908 0.950 . S
H901 C906 0.950 . S
H902 C907 0.949 . S
H903 C909 0.950 . S
H904 C910 0.950 . S
H905 C911 0.949 . S
C906 H901 0.950 . S
C906 C908 1.327 . S
C906 C912 1.429 . S
C907 C899 1.574 . S
C907 H902 0.949 . S
C907 C913 1.368 . S
C908 C892 1.349 . S
C908 H900 0.950 . S
C908 C906 1.327 . S
C909 C897 1.349 . S
C909 H903 0.950 . S
C909 C910 1.327 . S
C910 H904 0.950 . S
C910 C909 1.327 . S
C910 C914 1.429 . S
C911 C894 1.574 . S
C911 H905 0.949 . S
C911 C915 1.368 . S
C912 C893 1.429 . S
C912 C906 1.429 . S
C912 C913 1.523 . S
C913 C894 1.368 . S
C913 C907 1.368 . S
C913 C912 1.523 . S
C914 C898 1.429 . S
C914 C910 1.429 . S
C914 C915 1.523 . S
C915 C899 1.368 . S
C915 C911 1.368 . S
C915 C914 1.523 . S
H916 C891 0.950 . S
H917 C893 0.950 . S
H918 C894 0.949 . S
H919 C896 0.950 . S
H920 C898 0.950 . S
C921 C922 1.349 . S
C921 C923 1.327 . S
C921 H946 0.950 . S
C922 C921 1.349 . S
C922 C938 1.349 . S
C923 C921 1.327 . S
C923 C942 1.429 . S
C923 H947 0.950 . S
C924 C941 1.574 . S
C924 C943 1.368 . S
C924 H948 0.949 . S
H925 C929 0.949 . S
C926 C927 1.349 . S
C926 C928 1.327 . S
C926 H949 0.950 . S
C927 C926 1.349 . S
C927 C939 1.349 . S
C928 C926 1.327 . S
C928 C944 1.429 . S
C928 H950 0.950 . S
C929 H925 0.949 . S
C929 C937 1.574 . S
C929 C945 1.368 . S
H930 C938 0.950 . S
H931 C936 0.950 . S
H932 C937 0.949 . S
H933 C939 0.950 . S
H934 C940 0.950 . S
H935 C941 0.949 . S
C936 H931 0.950 . S
C936 C938 1.327 . S
C936 C942 1.429 . S
C937 C929 1.574 . S
C937 H932 0.949 . S
C937 C943 1.368 . S
C938 C922 1.349 . S
C938 H930 0.950 . S
C938 C936 1.327 . S
C939 C927 1.349 . S
C939 H933 0.950 . S
C939 C940 1.327 . S
C940 H934 0.950 . S
C940 C939 1.327 . S
C940 C944 1.429 . S
C941 C924 1.574 . S
C941 H935 0.949 . S
C941 C945 1.368 . S
C942 C923 1.429 . S
C942 C936 1.429 . S
C942 C943 1.523 . S
C943 C924 1.368 . S
C943 C937 1.368 . S
C943 C942 1.523 . S
C944 C928 1.429 . S
C944 C940 1.429 . S
C944 C945 1.523 . S
C945 C929 1.368 . S
C945 C941 1.368 . S
C945 C944 1.523 . S
H946 C921 0.950 . S
H947 C923 0.950 . S
H948 C924 0.949 . S
H949 C926 0.950 . S
H950 C928 0.950 . S
C951 C952 1.349 . S
C951 C953 1.327 . S
C951 H976 0.950 . S
C952 C951 1.349 . S
C952 C968 1.349 . S
C953 C951 1.327 . S
C953 C972 1.429 . S
C953 H977 0.950 . S
C954 C971 1.574 . S
C954 C973 1.368 . S
C954 H978 0.949 . S
H955 C959 0.949 . S
C956 C957 1.349 . S
C956 C958 1.327 . S
C956 H979 0.950 . S
C957 C956 1.349 . S
C957 C969 1.349 . S
C958 C956 1.327 . S
C958 C974 1.429 . S
C958 H980 0.950 . S
C959 H955 0.949 . S
C959 C967 1.574 . S
C959 C975 1.368 . S
H960 C968 0.950 . S
H961 C966 0.950 . S
H962 C967 0.949 . S
H963 C969 0.950 . S
H964 C970 0.950 . S
H965 C971 0.949 . S
C966 H961 0.950 . S
C966 C968 1.327 . S
C966 C972 1.429 . S
C967 C959 1.574 . S
C967 H962 0.949 . S
C967 C973 1.368 . S
C968 C952 1.349 . S
C968 H960 0.950 . S
C968 C966 1.327 . S
C969 C957 1.349 . S
C969 H963 0.950 . S
C969 C970 1.327 . S
C970 H964 0.950 . S
C970 C969 1.327 . S
C970 C974 1.429 . S
C971 C954 1.574 . S
C971 H965 0.949 . S
C971 C975 1.368 . S
C972 C953 1.429 . S
C972 C966 1.429 . S
C972 C973 1.523 . S
C973 C954 1.368 . S
C973 C967 1.368 . S
C973 C972 1.523 . S
C974 C958 1.429 . S
C974 C970 1.429 . S
C974 C975 1.523 . S
C975 C959 1.368 . S
C975 C971 1.368 . S
C975 C974 1.523 . S
H976 C951 0.950 . S
H977 C953 0.950 . S
H978 C954 0.949 . S
H979 C956 0.950 . S
H980 C958 0.950 . S
C981 C982 1.349 . S
C981 C983 1.327 . S
C981 H1006 0.950 . S
C982 C981 1.349 . S
C982 C998 1.349 . S
C983 C981 1.327 . S
C983 C1002 1.429 . S
C983 H1007 0.950 . S
C984 C1001 1.574 . S
C984 C1003 1.368 . S
C984 H1008 0.949 . S
H985 C989 0.949 . S
C986 C987 1.349 . S
C986 C988 1.327 . S
C986 H1009 0.950 . S
C987 C986 1.349 . S
C987 C999 1.349 . S
C988 C986 1.327 . S
C988 C1004 1.429 . S
C988 H1010 0.950 . S
C989 H985 0.949 . S
C989 C997 1.574 . S
C989 C1005 1.368 . S
H990 C998 0.950 . S
H991 C996 0.950 . S
H992 C997 0.949 . S
H993 C999 0.950 . S
H994 C1000 0.950 . S
H995 C1001 0.949 . S
C996 H991 0.950 . S
C996 C998 1.327 . S
C996 C1002 1.429 . S
C997 C989 1.574 . S
C997 H992 0.949 . S
C997 C1003 1.368 . S
C998 C982 1.349 . S
C998 H990 0.950 . S
C998 C996 1.327 . S
C999 C987 1.349 . S
C999 H993 0.950 . S
C999 C1000 1.327 . S
C1000 H994 0.950 . S
C1000 C999 1.327 . S
C1000 C1004 1.429 . S
C1001 C984 1.574 . S
C1001 H995 0.949 . S
C1001 C1005 1.368 . S
C1002 C983 1.429 . S
C1002 C996 1.429 . S
C1002 C1003 1.523 . S
C1003 C984 1.368 . S
C1003 C997 1.368 . S
C1003 C1002 1.523 . S
C1004 C988 1.429 . S
C1004 C1000 1.429 . S
C1004 C1005 1.523 . S
C1005 C989 1.368 . S
C1005 C1001 1.368 . S
C1005 C1004 1.523 . S
H1006 C981 0.950 . S
H1007 C983 0.950 . S
H1008 C984 0.949 . S
H1009 C986 0.950 . S
H1010 C988 0.950 . S
C1011 C1012 1.349 . S
C1011 C1013 1.327 . S
C1011 H1036 0.950 . S
C1012 C1011 1.349 . S
C1012 C1028 1.349 . S
C1013 C1011 1.327 . S
C1013 C1032 1.429 . S
C1013 H1037 0.950 . S
C1014 C1031 1.574 . S
C1014 C1033 1.368 . S
C1014 H1038 0.949 . S
H1015 C1019 0.949 . S
C1016 C1017 1.349 . S
C1016 C1018 1.327 . S
C1016 H1039 0.950 . S
C1017 C1016 1.349 . S
C1017 C1029 1.349 . S
C1018 C1016 1.327 . S
C1018 C1034 1.429 . S
C1018 H1040 0.950 . S
C1019 H1015 0.949 . S
C1019 C1027 1.574 . S
C1019 C1035 1.368 . S
H1020 C1028 0.950 . S
H1021 C1026 0.950 . S
H1022 C1027 0.949 . S
H1023 C1029 0.950 . S
H1024 C1030 0.950 . S
H1025 C1031 0.949 . S
C1026 H1021 0.950 . S
C1026 C1028 1.327 . S
C1026 C1032 1.429 . S
C1027 C1019 1.574 . S
C1027 H1022 0.949 . S
C1027 C1033 1.368 . S
C1028 C1012 1.349 . S
C1028 H1020 0.950 . S
C1028 C1026 1.327 . S
C1029 C1017 1.349 . S
C1029 H1023 0.950 . S
C1029 C1030 1.327 . S
C1030 H1024 0.950 . S
C1030 C1029 1.327 . S
C1030 C1034 1.429 . S
C1031 C1014 1.574 . S
C1031 H1025 0.949 . S
C1031 C1035 1.368 . S
C1032 C1013 1.429 . S
C1032 C1026 1.429 . S
C1032 C1033 1.523 . S
C1033 C1014 1.368 . S
C1033 C1027 1.368 . S
C1033 C1032 1.523 . S
C1034 C1018 1.429 . S
C1034 C1030 1.429 . S
C1034 C1035 1.523 . S
C1035 C1019 1.368 . S
C1035 C1031 1.368 . S
C1035 C1034 1.523 . S
H1036 C1011 0.950 . S
H1037 C1013 0.950 . S
H1038 C1014 0.949 . S
H1039 C1016 0.950 . S
H1040 C1018 0.950 . S
C1041 C1042 1.349 . S
C1041 C1043 1.327 . S
C1041 H1066 0.950 . S
C1042 C1041 1.349 . S
C1042 C1058 1.349 . S
C1043 C1041 1.327 . S
C1043 C1062 1.429 . S
C1043 H1067 0.950 . S
C1044 C1061 1.574 . S
C1044 C1063 1.368 . S
C1044 H1068 0.949 . S
H1045 C1049 0.949 . S
C1046 C1047 1.349 . S
C1046 C1048 1.327 . S
C1046 H1069 0.950 . S
C1047 C1046 1.349 . S
C1047 C1059 1.349 . S
C1048 C1046 1.327 . S
C1048 C1064 1.429 . S
C1048 H1070 0.950 . S
C1049 H1045 0.949 . S
C1049 C1057 1.574 . S
C1049 C1065 1.368 . S
H1050 C1058 0.950 . S
H1051 C1056 0.950 . S
H1052 C1057 0.949 . S
H1053 C1059 0.950 . S
H1054 C1060 0.950 . S
H1055 C1061 0.949 . S
C1056 H1051 0.950 . S
C1056 C1058 1.327 . S
C1056 C1062 1.429 . S
C1057 C1049 1.574 . S
C1057 H1052 0.949 . S
C1057 C1063 1.368 . S
C1058 C1042 1.349 . S
C1058 H1050 0.950 . S
C1058 C1056 1.327 . S
C1059 C1047 1.349 . S
C1059 H1053 0.950 . S
C1059 C1060 1.327 . S
C1060 H1054 0.950 . S
C1060 C1059 1.327 . S
C1060 C1064 1.429 . S
C1061 C1044 1.574 . S
C1061 H1055 0.949 . S
C1061 C1065 1.368 . S
C1062 C1043 1.429 . S
C1062 C1056 1.429 . S
C1062 C1063 1.523 . S
C1063 C1044 1.368 . S
C1063 C1057 1.368 . S
C1063 C1062 1.523 . S
C1064 C1048 1.429 . S
C1064 C1060 1.429 . S
C1064 C1065 1.523 . S
C1065 C1049 1.368 . S
C1065 C1061 1.368 . S
C1065 C1064 1.523 . S
H1066 C1041 0.950 . S
H1067 C1043 0.950 . S
H1068 C1044 0.949 . S
H1069 C1046 0.950 . S
H1070 C1048 0.950 . S
C1071 C1072 1.349 . S
C1071 C1073 1.327 . S
C1071 H1096 0.950 . S
C1072 C1071 1.349 . S
C1072 C1088 1.349 . S
C1073 C1071 1.327 . S
C1073 C1092 1.429 . S
C1073 H1097 0.950 . S
C1074 C1091 1.574 . S
C1074 C1093 1.368 . S
C1074 H1098 0.949 . S
H1075 C1079 0.949 . S
C1076 C1077 1.349 . S
C1076 C1078 1.327 . S
C1076 H1099 0.950 . S
C1077 C1076 1.349 . S
C1077 C1089 1.349 . S
C1078 C1076 1.327 . S
C1078 C1094 1.429 . S
C1078 H1100 0.950 . S
C1079 H1075 0.949 . S
C1079 C1087 1.574 . S
C1079 C1095 1.368 . S
H1080 C1088 0.950 . S
H1081 C1086 0.950 . S
H1082 C1087 0.949 . S
H1083 C1089 0.950 . S
H1084 C1090 0.950 . S
H1085 C1091 0.949 . S
C1086 H1081 0.950 . S
C1086 C1088 1.327 . S
C1086 C1092 1.429 . S
C1087 C1079 1.574 . S
C1087 H1082 0.949 . S
C1087 C1093 1.368 . S
C1088 C1072 1.349 . S
C1088 H1080 0.950 . S
C1088 C1086 1.327 . S
C1089 C1077 1.349 . S
C1089 H1083 0.950 . S
C1089 C1090 1.327 . S
C1090 H1084 0.950 . S
C1090 C1089 1.327 . S
C1090 C1094 1.429 . S
C1091 C1074 1.574 . S
C1091 H1085 0.949 . S
C1091 C1095 1.368 . S
C1092 C1073 1.429 . S
C1092 C1086 1.429 . S
C1092 C1093 1.523 . S
C1093 C1074 1.368 . S
C1093 C1087 1.368 . S
C1093 C1092 1.523 . S
C1094 C1078 1.429 . S
C1094 C1090 1.429 . S
C1094 C1095 1.523 . S
C1095 C1079 1.368 . S
C1095 C1091 1.368 . S
C1095 C1094 1.523 . S
H1096 C1071 0.950 . S
H1097 C1073 0.950 . S
H1098 C1074 0.949 . S
H1099 C1076 0.950 . S
H1100 C1078 0.950 . S
C1101 C1102 1.349 . S
C1101 C1103 1.327 . S
C1101 H1126 0.950 . S
C1102 C1101 1.349 . S
C1102 C1118 1.349 . S
C1103 C1101 1.327 . S
C1103 C1122 1.429 . S
C1103 H1127 0.950 . S
C1104 C1121 1.574 . S
C1104 C1123 1.368 . S
C1104 H1128 0.949 . S
H1105 C1109 0.949 . S
C1106 C1107 1.349 . S
C1106 C1108 1.327 . S
C1106 H1129 0.950 . S
C1107 C1106 1.349 . S
C1107 C1119 1.349 . S
C1108 C1106 1.327 . S
C1108 C1124 1.429 . S
C1108 H1130 0.950 . S
C1109 H1105 0.949 . S
C1109 C1117 1.574 . S
C1109 C1125 1.368 . S
H1110 C1118 0.950 . S
H1111 C1116 0.950 . S
H1112 C1117 0.949 . S
H1113 C1119 0.950 . S
H1114 C1120 0.950 . S
H1115 C1121 0.949 . S
C1116 H1111 0.950 . S
C1116 C1118 1.327 . S
C1116 C1122 1.429 . S
C1117 C1109 1.574 . S
C1117 H1112 0.949 . S
C1117 C1123 1.368 . S
C1118 C1102 1.349 . S
C1118 H1110 0.950 . S
C1118 C1116 1.327 . S
C1119 C1107 1.349 . S
C1119 H1113 0.950 . S
C1119 C1120 1.327 . S
C1120 H1114 0.950 . S
C1120 C1119 1.327 . S
C1120 C1124 1.429 . S
C1121 C1104 1.574 . S
C1121 H1115 0.949 . S
C1121 C1125 1.368 . S
C1122 C1103 1.429 . S
C1122 C1116 1.429 . S
C1122 C1123 1.523 . S
C1123 C1104 1.368 . S
C1123 C1117 1.368 . S
C1123 C1122 1.523 . S
C1124 C1108 1.429 . S
C1124 C1120 1.429 . S
C1124 C1125 1.523 . S
C1125 C1109 1.368 . S
C1125 C1121 1.368 . S
C1125 C1124 1.523 . S
H1126 C1101 0.950 . S
H1127 C1103 0.950 . S
H1128 C1104 0.949 . S
H1129 C1106 0.950 . S
H1130 C1108 0.950 . S
C417 C336 0.974 . S
C412 C16 1.011 . S
C447 C372 1.671 . S
C442 C55 1.771 . S
C477 C337 1.384 . S
C472 C99 1.386 . S
C507 C367 1.503 . S
C502 C133 1.547 . S
C537 C334 1.473 . S
C532 C157 1.530 . S
C562 C211 1.706 . S
C567 C370 1.713 . S
C592 C255 1.078 . S
C597 C339 1.001 . S
C627 C369 1.412 . S
C622 C294 1.443 . S
C657 C373 1.412 . S
C652 C21 1.446 . S
C687 C338 1.467 . S
C682 C40 1.520 . S
C717 C366 1.712 . S
C712 C94 1.708 . S
C747 C335 1.001 . S
C742 C138 1.078 . S
C777 C368 1.676 . S
C772 C172 1.773 . S
C802 C216 1.393 . S
C807 C333 1.384 . S
C832 C235 1.557 . S
C837 C371 1.509 . S
C867 C340 0.980 . S
C862 C289 1.017 . S
C897 C402 1.758 . S
C892 C1 1.860 . S
C922 C177 2.041 . S
C927 C405 1.918 . S
C957 C404 1.704 . S
C952 C196 1.765 . S
C982 C250 2.144 . S
C987 C403 2.135 . S
C1017 C406 1.762 . S
C1012 C274 1.862 . S
C1042 C79 1.761 . S
C1047 C400 1.705 . S
C1077 C399 2.141 . S
C1072 C118 2.154 . S
C1102 C60 2.029 . S
C1107 C401 1.917 . S
