# Generated by pormake.
# Topology csq, (4,8)-cn, num edge types: 1
# Building blocks:
#     Node 0, Type 0, BuildingBlock: NAHDIM_clean_linker_0, # of connection points: 4
#     Node 1, Type 0, BuildingBlock: NAHDIM_clean_linker_0, # of connection points: 4
#     Node 2, Type 0, BuildingBlock: NAHDIM_clean_linker_0, # of connection points: 4
#     Node 3, Type 0, BuildingBlock: NAHDIM_clean_linker_0, # of connection points: 4
#     Node 4, Type 0, BuildingBlock: NAHDIM_clean_linker_0, # of connection points: 4
#     Node 5, Type 0, BuildingBlock: NAHDIM_clean_linker_0, # of connection points: 4
#     Node 6, Type 1, BuildingBlock: TAGTUT_clean_sbu_1, # of connection points: 8
#     Node 7, Type 1, BuildingBlock: TAGTUT_clean_sbu_1, # of connection points: 8
#     Node 8, Type 1, BuildingBlock: TAGTUT_clean_sbu_1, # of connection points: 8
#     Edge 9, Type (0, 1), BuildingBlock: XUDNAN_clean_linker_2, # of connection points: 2
#     Edge 10, Type (0, 1), BuildingBlock: XUDNAN_clean_linker_2, # of connection points: 2
#     Edge 11, Type (0, 1), BuildingBlock: XUDNAN_clean_linker_2, # of connection points: 2
#     Edge 12, Type (0, 1), BuildingBlock: XUDNAN_clean_linker_2, # of connection points: 2
#     Edge 13, Type (0, 1), BuildingBlock: XUDNAN_clean_linker_2, # of connection points: 2
#     Edge 14, Type (0, 1), BuildingBlock: XUDNAN_clean_linker_2, # of connection points: 2
#     Edge 15, Type (0, 1), BuildingBlock: XUDNAN_clean_linker_2, # of connection points: 2
#     Edge 16, Type (0, 1), BuildingBlock: XUDNAN_clean_linker_2, # of connection points: 2
#     Edge 17, Type (0, 1), BuildingBlock: XUDNAN_clean_linker_2, # of connection points: 2
#     Edge 18, Type (0, 1), BuildingBlock: XUDNAN_clean_linker_2, # of connection points: 2
#     Edge 19, Type (0, 1), BuildingBlock: XUDNAN_clean_linker_2, # of connection points: 2
#     Edge 20, Type (0, 1), BuildingBlock: XUDNAN_clean_linker_2, # of connection points: 2
#     Edge 21, Type (0, 1), BuildingBlock: XUDNAN_clean_linker_2, # of connection points: 2
#     Edge 22, Type (0, 1), BuildingBlock: XUDNAN_clean_linker_2, # of connection points: 2
#     Edge 23, Type (0, 1), BuildingBlock: XUDNAN_clean_linker_2, # of connection points: 2
#     Edge 24, Type (0, 1), BuildingBlock: XUDNAN_clean_linker_2, # of connection points: 2
#     Edge 25, Type (0, 1), BuildingBlock: XUDNAN_clean_linker_2, # of connection points: 2
#     Edge 26, Type (0, 1), BuildingBlock: XUDNAN_clean_linker_2, # of connection points: 2
#     Edge 27, Type (0, 1), BuildingBlock: XUDNAN_clean_linker_2, # of connection points: 2
#     Edge 28, Type (0, 1), BuildingBlock: XUDNAN_clean_linker_2, # of connection points: 2
#     Edge 29, Type (0, 1), BuildingBlock: XUDNAN_clean_linker_2, # of connection points: 2
#     Edge 30, Type (0, 1), BuildingBlock: XUDNAN_clean_linker_2, # of connection points: 2
#     Edge 31, Type (0, 1), BuildingBlock: XUDNAN_clean_linker_2, # of connection points: 2
#     Edge 32, Type (0, 1), BuildingBlock: XUDNAN_clean_linker_2, # of connection points: 2
# Relax obj value: 0.050
# Max RMSD: 0.134
# Mean RMSD: 0.089
data_MOF--net-csq--node1-TAGTUT_clean_sbu_1--node2-NAHDIM_clean_linker_0--edge1-XUDNAN_clean_linker_2
_symmetry_space_group_name_H-M    P1
_symmetry_Int_Tables_number       1
_symmetry_cell_setting            triclinic
loop_
_symmetry_equiv_pos_as_xyz
'x, y, z'
_cell_length_a     68.00762
_cell_length_b     66.772706
_cell_length_c     26.924511
_cell_angle_alpha  92.231682
_cell_angle_beta   92.167381
_cell_angle_gamma 119.88679
loop_
_atom_site_label
_atom_site_type_symbol
_atom_site_fract_x
_atom_site_fract_y
_atom_site_fract_z
_atom_type_partial_charge
C0 C 0.30609 0.48385 0.49385 0.0
C1 C 0.31686 0.47177 0.46569 0.0
C2 C 0.30605 0.47381 0.37938 0.0
C3 C 0.28982 0.45064 0.36609 0.0
C4 C 0.27332 0.44492 0.3269 0.0
C5 C 0.27293 0.46279 0.30095 0.0
C6 C 0.28985 0.48612 0.31317 0.0
C7 C 0.30648 0.49127 0.3517 0.0
C8 C 0.25587 0.41982 0.31421 0.0
C9 C 0.28979 0.50567 0.28699 0.0
C10 C 0.12361 0.4071 0.42307 0.0
C11 C 0.13932 0.43295 0.41681 0.0
C12 C 0.15761 0.43955 0.33888 0.0
C13 C 0.17317 0.46127 0.32334 0.0
C14 C 0.19126 0.46416 0.29512 0.0
C15 C 0.19356 0.44473 0.28179 0.0
C16 C 0.17734 0.42257 0.29605 0.0
C17 C 0.15943 0.42022 0.32424 0.0
C18 C 0.20818 0.48801 0.28038 0.0
C19 C 0.17913 0.40147 0.28205 0.0
C20 C 0.15699 0.42074 0.9481 0.0
C21 C 0.171 0.44393 0.96582 0.0
C22 C 0.19034 0.45052 0.99772 0.0
C23 C 0.19568 0.43354 0.01218 0.0
C24 C 0.18194 0.41029 0.99316 0.0
C25 C 0.16286 0.40425 0.96085 0.0
C26 C 0.20506 0.4756 0.016 0.0
C27 C 0.1873 0.39181 0.00739 0.0
C28 C 0.3251 0.49702 0.86495 0.0
C29 C 0.34095 0.49764 0.90793 0.0
C30 C 0.31357 0.47267 0.96658 0.0
C31 C 0.30754 0.4889 0.9842 0.0
C32 C 0.28964 0.48256 0.01563 0.0
C33 C 0.27725 0.45947 0.02949 0.0
C34 C 0.28368 0.44327 0.01329 0.0
C35 C 0.30189 0.45015 0.98237 0.0
C36 C 0.28339 0.50038 0.0325 0.0
C37 C 0.27077 0.4185 0.02726 0.0
C38 C 0.25332 0.45722 0.2656 0.0
C39 C 0.23333 0.45356 0.28624 0.0
C40 C 0.21384 0.4479 0.25631 0.0
C41 C 0.21409 0.44561 0.20394 0.0
C42 C 0.19463 0.43944 0.17269 0.0
C43 C 0.19506 0.4373 0.12117 0.0
C44 C 0.2151 0.44169 0.09891 0.0
C45 C 0.21585 0.44013 0.04656 0.0
C46 C 0.23618 0.44528 0.02563 0.0
C47 C 0.25598 0.45186 0.05544 0.0
C48 C 0.25543 0.45277 0.10797 0.0
C49 C 0.27479 0.45853 0.13926 0.0
C50 C 0.27406 0.45958 0.19096 0.0
C51 C 0.25412 0.45554 0.21323 0.0
C52 C 0.23438 0.44965 0.18233 0.0
C53 C 0.23495 0.44793 0.12971 0.0
C54 C 0.09919 0.40209 0.93001 0.0
C55 C 0.12298 0.42223 0.92279 0.0
O56 O 0.32159 0.47989 0.41841 0.0
O57 O 0.33007 0.47778 0.93391 0.0
O58 O 0.13778 0.41374 0.91856 0.0
O59 O 0.14055 0.43739 0.36675 0.0
H60 H 0.30476 0.45281 0.46312 0.0
H61 H 0.28991 0.48004 0.47374 0.0
H62 H 0.31773 0.50291 0.49699 0.0
H63 H 0.30222 0.47754 0.53181 0.0
H64 H 0.29002 0.43698 0.38608 0.0
H65 H 0.31935 0.50908 0.36189 0.0
H66 H 0.23924 0.4163 0.3274 0.0
H67 H 0.26063 0.40794 0.33188 0.0
H68 H 0.25364 0.41594 0.27322 0.0
H69 H 0.30361 0.52292 0.30229 0.0
H70 H 0.27322 0.50493 0.29051 0.0
H71 H 0.29187 0.50382 0.2467 0.0
H72 H 0.15657 0.43806 0.43356 0.0
H73 H 0.12077 0.40392 0.46308 0.0
H74 H 0.1314 0.39697 0.40937 0.0
H75 H 0.10693 0.40073 0.40223 0.0
H76 H 0.17135 0.47603 0.33424 0.0
H77 H 0.14682 0.40328 0.33456 0.0
H78 H 0.20997 0.48763 0.23958 0.0
H79 H 0.2251 0.49356 0.29915 0.0
H80 H 0.20315 0.50104 0.29058 0.0
H81 H 0.16494 0.38539 0.29531 0.0
H82 H 0.19545 0.40378 0.29821 0.0
H83 H 0.17913 0.39937 0.24094 0.0
H84 H 0.12782 0.43429 0.95662 0.0
H85 H 0.16695 0.45691 0.9544 0.0
H86 H 0.15209 0.38646 0.94636 0.0
H87 H 0.20513 0.4773 0.05719 0.0
H88 H 0.1991 0.48683 0.99974 0.0
H89 H 0.22286 0.48192 0.00642 0.0
H90 H 0.17438 0.37435 0.99108 0.0
H91 H 0.18828 0.39138 0.04857 0.0
H92 H 0.20416 0.39599 0.99445 0.0
H93 H 0.34562 0.51316 0.93306 0.0
H94 H 0.33442 0.51192 0.84168 0.0
H95 H 0.31069 0.49818 0.87985 0.0
H96 H 0.31798 0.48065 0.84118 0.0
H97 H 0.31631 0.50648 0.97312 0.0
H98 H 0.30665 0.43773 0.96906 0.0
H99 H 0.28185 0.50041 0.07341 0.0
H100 H 0.26662 0.49585 0.01443 0.0
H101 H 0.29608 0.51812 0.02301 0.0
H102 H 0.27874 0.40835 0.01442 0.0
H103 H 0.25308 0.4101 0.01044 0.0
H104 H 0.26983 0.41798 0.06831 0.0
H105 H 0.23295 0.45514 0.32643 0.0
H106 H 0.17882 0.43613 0.18778 0.0
H107 H 0.17953 0.43239 0.09897 0.0
H108 H 0.2367 0.44461 0.98537 0.0
H109 H 0.29065 0.46212 0.12404 0.0
H110 H 0.28939 0.4639 0.21331 0.0
H111 H 0.08697 0.40846 0.93362 0.0
H112 H 0.0995 0.39366 0.96456 0.0
H113 H 0.09318 0.38894 0.89806 0.0
C114 C 0.87466 0.36466 0.24772 0.0
C115 C 0.86872 0.35989 0.302 0.0
C116 C 0.85227 0.31758 0.29618 0.0
C117 C 0.85829 0.30048 0.29948 0.0
C118 C 0.84392 0.27795 0.27836 0.0
C119 C 0.8228 0.27239 0.25437 0.0
C120 C 0.81597 0.28923 0.25364 0.0
C121 C 0.83087 0.31174 0.27415 0.0
C122 C 0.85168 0.26038 0.27993 0.0
C123 C 0.7932 0.28363 0.22976 0.0
C124 C 0.7504 0.16206 0.45865 0.0
C125 C 0.73182 0.1596 0.42068 0.0
C126 C 0.74217 0.1614 0.33531 0.0
C127 C 0.73434 0.17547 0.31566 0.0
C128 C 0.7453 0.18977 0.27717 0.0
C129 C 0.76465 0.19014 0.2584 0.0
C130 C 0.77166 0.17482 0.27606 0.0
C131 C 0.76004 0.16033 0.31392 0.0
C132 C 0.73695 0.2054 0.25845 0.0
C133 C 0.79226 0.17479 0.2572 0.0
C134 C 0.73868 0.13604 0.92727 0.0
C135 C 0.72947 0.14975 0.94296 0.0
C136 C 0.74278 0.17048 0.97234 0.0
C137 C 0.76561 0.17735 0.98692 0.0
C138 C 0.77492 0.16358 0.97077 0.0
C139 C 0.76139 0.14327 0.94041 0.0
C140 C 0.73254 0.18515 0.98733 0.0
C141 C 0.79919 0.17034 0.98531 0.0
C142 C 0.90828 0.34778 0.89338 0.0
C143 C 0.89337 0.32329 0.90457 0.0
C144 C 0.85748 0.29903 0.94203 0.0
C145 C 0.83668 0.2967 0.95413 0.0
C146 C 0.82052 0.27705 0.97657 0.0
C147 C 0.82555 0.25952 0.98807 0.0
C148 C 0.84642 0.26156 0.97516 0.0
C149 C 0.86208 0.28118 0.95186 0.0
C150 C 0.79831 0.27531 0.98915 0.0
C151 C 0.85239 0.24324 0.98692 0.0
C152 C 0.80872 0.24968 0.22624 0.0
C153 C 0.79404 0.23073 0.25206 0.0
C154 C 0.77959 0.20912 0.22719 0.0
C155 C 0.77958 0.20635 0.17473 0.0
C156 C 0.765 0.18509 0.14809 0.0
C157 C 0.76524 0.1827 0.0964 0.0
C158 C 0.77987 0.20157 0.06938 0.0
C159 C 0.78017 0.19951 0.01685 0.0
C160 C 0.79497 0.2187 0.99141 0.0
C161 C 0.80981 0.23994 0.01696 0.0
C162 C 0.8099 0.2423 0.06935 0.0
C163 C 0.82492 0.26336 0.09615 0.0
C164 C 0.82464 0.26575 0.14748 0.0
C165 C 0.80943 0.24713 0.17416 0.0
C166 C 0.7946 0.2255 0.14821 0.0
C167 C 0.79476 0.22311 0.0956 0.0
C168 C 0.70095 0.07593 0.90896 0.0
C169 C 0.70357 0.09992 0.90519 0.0
O170 O 0.86776 0.33943 0.31405 0.0
O171 O 0.87269 0.3188 0.92171 0.0
O172 O 0.72615 0.11582 0.89932 0.0
O173 O 0.7333 0.14946 0.37606 0.0
H174 H 0.85206 0.35872 0.30749 0.0
H175 H 0.86134 0.35068 0.222 0.0
H176 H 0.89119 0.36565 0.24159 0.0
H177 H 0.87578 0.38124 0.23828 0.0
H178 H 0.87473 0.3051 0.3171 0.0
H179 H 0.82572 0.32464 0.2723 0.0
H180 H 0.83919 0.24502 0.29867 0.0
H181 H 0.86865 0.26748 0.29995 0.0
H182 H 0.85249 0.25441 0.24138 0.0
H183 H 0.78906 0.29745 0.23854 0.0
H184 H 0.77953 0.26704 0.24239 0.0
H185 H 0.79336 0.28152 0.18871 0.0
H186 H 0.7354 0.17761 0.41598 0.0
H187 H 0.74822 0.16814 0.49595 0.0
H188 H 0.76733 0.17499 0.44667 0.0
H189 H 0.75021 0.14541 0.46136 0.0
H190 H 0.72 0.17568 0.33134 0.0
H191 H 0.76572 0.14911 0.329 0.0
H192 H 0.7371 0.20559 0.21723 0.0
H193 H 0.74849 0.22335 0.27429 0.0
H194 H 0.71948 0.19995 0.26943 0.0
H195 H 0.79527 0.16158 0.27416 0.0
H196 H 0.80755 0.19211 0.26569 0.0
H197 H 0.79011 0.17135 0.21613 0.0
H198 H 0.69821 0.10398 0.94107 0.0
H199 H 0.71202 0.14445 0.93158 0.0
H200 H 0.76836 0.13264 0.92765 0.0
H201 H 0.73185 0.18596 0.02843 0.0
H202 H 0.71508 0.17821 0.97006 0.0
H203 H 0.74339 0.20312 0.97636 0.0
H204 H 0.80275 0.15613 0.97619 0.0
H205 H 0.8031 0.17533 0.02583 0.0
H206 H 0.81078 0.18557 0.96504 0.0
H207 H 0.89174 0.31008 0.87554 0.0
H208 H 0.93668 0.36002 0.94645 0.0
H209 H 0.89718 0.35589 0.89105 0.0
H210 H 0.90992 0.34712 0.85195 0.0
H211 H 0.83321 0.31047 0.9462 0.0
H212 H 0.87803 0.28261 0.94231 0.0
H213 H 0.79805 0.27743 0.03018 0.0
H214 H 0.78387 0.25796 0.97646 0.0
H215 H 0.79572 0.28875 0.97195 0.0
H216 H 0.86996 0.24817 0.97769 0.0
H217 H 0.84035 0.22682 0.96531 0.0
H218 H 0.85067 0.23994 0.02707 0.0
H219 H 0.79374 0.23288 0.29214 0.0
H220 H 0.75328 0.17009 0.16699 0.0
H221 H 0.75373 0.16591 0.07783 0.0
H222 H 0.7951 0.21701 0.95119 0.0
H223 H 0.83703 0.27834 0.07779 0.0
H224 H 0.83655 0.28245 0.16593 0.0
H225 H 0.70662 0.07075 0.87508 0.0
H226 H 0.68292 0.06285 0.91366 0.0
H227 H 0.71145 0.07611 0.94179 0.0
C228 C 0.52156 0.82369 0.37872 0.0
C229 C 0.53455 0.83771 0.33549 0.0
C230 C 0.52931 0.81631 0.25578 0.0
C231 C 0.55223 0.82543 0.24562 0.0
C232 C 0.55869 0.81383 0.21112 0.0
C233 C 0.54184 0.79297 0.18558 0.0
C234 C 0.51867 0.78431 0.19414 0.0
C235 C 0.5127 0.79621 0.229 0.0
C236 C 0.58353 0.82377 0.20214 0.0
C237 C 0.50027 0.76232 0.16688 0.0
C238 C 0.59075 0.6551 0.17688 0.0
C239 C 0.5747 0.6636 0.19341 0.0
C240 C 0.57892 0.7023 0.18682 0.0
C241 C 0.5557 0.69501 0.17872 0.0
C242 C 0.54872 0.71077 0.16534 0.0
C243 C 0.56526 0.73421 0.16071 0.0
C244 C 0.5885 0.74181 0.17214 0.0
C245 C 0.59499 0.7257 0.18492 0.0
C246 C 0.52381 0.70226 0.15411 0.0
C247 C 0.6066 0.76678 0.16869 0.0
C248 C 0.59779 0.73077 0.85959 0.0
C249 C 0.57597 0.72675 0.84673 0.0
C250 C 0.56784 0.74029 0.86934 0.0
C251 C 0.58229 0.75874 0.90428 0.0
C252 C 0.60509 0.76416 0.91389 0.0
C253 C 0.61247 0.74984 0.89219 0.0
C254 C 0.54351 0.73412 0.85796 0.0
C255 C 0.62138 0.78438 0.94909 0.0
C256 C 0.53835 0.89911 0.87424 0.0
C257 C 0.543 0.88366 0.90451 0.0
C258 C 0.55806 0.85778 0.89576 0.0
C259 C 0.53847 0.83609 0.89768 0.0
C260 C 0.53999 0.81698 0.91269 0.0
C261 C 0.56155 0.81986 0.927 0.0
C262 C 0.5814 0.84159 0.92331 0.0
C263 C 0.57938 0.86021 0.90689 0.0
C264 C 0.51855 0.79385 0.91407 0.0
C265 C 0.60469 0.84529 0.93786 0.0
C266 C 0.54846 0.78003 0.15044 0.0
C267 C 0.55234 0.76295 0.16918 0.0
C268 C 0.5588 0.75024 0.13824 0.0
C269 C 0.56096 0.75421 0.08705 0.0
C270 C 0.56658 0.74108 0.05466 0.0
C271 C 0.56987 0.74586 0.005 0.0
C272 C 0.56798 0.76417 0.98582 0.0
C273 C 0.57288 0.77015 0.93618 0.0
C274 C 0.57026 0.78804 0.91776 0.0
C275 C 0.56328 0.80053 0.94815 0.0
C276 C 0.55895 0.7952 0.99842 0.0
C277 C 0.55259 0.80783 0.03059 0.0
C278 C 0.54872 0.80264 0.08012 0.0
C279 C 0.55148 0.78491 0.09972 0.0
C280 C 0.55775 0.77192 0.06794 0.0
C281 C 0.56138 0.77699 0.01724 0.0
C282 C 0.64167 0.72174 0.84634 0.0
C283 C 0.6176 0.70877 0.86484 0.0
O284 O 0.52259 0.82644 0.2908 0.0
O285 O 0.55683 0.87653 0.88273 0.0
O286 O 0.60407 0.71587 0.8402 0.0
O287 O 0.58676 0.68759 0.1963 0.0
H288 H 0.55122 0.83838 0.33894 0.0
H289 H 0.52161 0.80707 0.37779 0.0
H290 H 0.50357 0.81955 0.37594 0.0
H291 H 0.52983 0.83338 0.41499 0.0
H292 H 0.56511 0.84164 0.26428 0.0
H293 H 0.49503 0.78954 0.23644 0.0
H294 H 0.58883 0.8109 0.21013 0.0
H295 H 0.5946 0.83996 0.22561 0.0
H296 H 0.58624 0.82752 0.16239 0.0
H297 H 0.48297 0.75829 0.17642 0.0
H298 H 0.50269 0.74762 0.17627 0.0
H299 H 0.50149 0.76386 0.12604 0.0
H300 H 0.56041 0.6568 0.16437 0.0
H301 H 0.58162 0.63592 0.17129 0.0
H302 H 0.60519 0.66079 0.20511 0.0
H303 H 0.59765 0.66233 0.14095 0.0
H304 H 0.54299 0.67709 0.18203 0.0
H305 H 0.61281 0.73121 0.19219 0.0
H306 H 0.5208 0.70438 0.11433 0.0
H307 H 0.51859 0.71285 0.17686 0.0
H308 H 0.51293 0.68377 0.16168 0.0
H309 H 0.62341 0.77047 0.18505 0.0
H310 H 0.60167 0.77844 0.18812 0.0
H311 H 0.60833 0.77089 0.12898 0.0
H312 H 0.61898 0.71302 0.90572 0.0
H313 H 0.56491 0.71221 0.82084 0.0
H314 H 0.6296 0.75347 0.90129 0.0
H315 H 0.53424 0.72946 0.89256 0.0
H316 H 0.53453 0.7194 0.8295 0.0
H317 H 0.54299 0.74934 0.84433 0.0
H318 H 0.63935 0.78944 0.94372 0.0
H319 H 0.61784 0.77955 0.98808 0.0
H320 H 0.6192 0.79959 0.94389 0.0
H321 H 0.52809 0.86983 0.92216 0.0
H322 H 0.55544 0.93167 0.91663 0.0
H323 H 0.51939 0.88932 0.8656 0.0
H324 H 0.54239 0.89668 0.83498 0.0
H325 H 0.52202 0.83408 0.88718 0.0
H326 H 0.5944 0.877 0.90436 0.0
H327 H 0.5147 0.78994 0.95338 0.0
H328 H 0.52089 0.7799 0.89662 0.0
H329 H 0.50372 0.7936 0.89462 0.0
H330 H 0.61823 0.86366 0.93639 0.0
H331 H 0.60853 0.83444 0.91227 0.0
H332 H 0.60509 0.83984 0.97616 0.0
H333 H 0.55075 0.75983 0.20846 0.0
H334 H 0.56862 0.72699 0.06731 0.0
H335 H 0.57417 0.73511 0.98203 0.0
H336 H 0.57413 0.79258 0.8797 0.0
H337 H 0.55062 0.82196 0.01795 0.0
H338 H 0.54388 0.81295 0.10307 0.0
H339 H 0.64127 0.71826 0.80551 0.0
H340 H 0.65292 0.71658 0.86614 0.0
H341 H 0.64919 0.74069 0.85374 0.0
C342 C 0.82802 0.51832 0.38097 0.0
C343 C 0.85024 0.52735 0.35462 0.0
C344 C 0.84401 0.54951 0.29102 0.0
C345 C 0.828 0.53036 0.25999 0.0
C346 C 0.81519 0.53306 0.2215 0.0
C347 C 0.81844 0.55532 0.21381 0.0
C348 C 0.83548 0.57479 0.24292 0.0
C349 C 0.84816 0.57162 0.28101 0.0
C350 C 0.79733 0.51194 0.19066 0.0
C351 C 0.83951 0.59878 0.23538 0.0
C352 C 0.66865 0.53756 0.35699 0.0
C353 C 0.69053 0.54858 0.33273 0.0
C354 C 0.70872 0.54042 0.26418 0.0
C355 C 0.72674 0.56329 0.26284 0.0
C356 C 0.7445 0.56861 0.23146 0.0
C357 C 0.74433 0.55072 0.20117 0.0
C358 C 0.72581 0.52784 0.20123 0.0
C359 C 0.70816 0.52306 0.23252 0.0
C360 C 0.76387 0.59323 0.2319 0.0
C361 C 0.72513 0.50824 0.16986 0.0
C362 C 0.71882 0.56033 0.86485 0.0
C363 C 0.73819 0.58176 0.87879 0.0
C364 C 0.75498 0.58337 0.91335 0.0
C365 C 0.75254 0.56303 0.93357 0.0
C366 C 0.73284 0.54142 0.91985 0.0
C367 C 0.71599 0.54047 0.88647 0.0
C368 C 0.77544 0.6068 0.92779 0.0
C369 C 0.72976 0.51924 0.9396 0.0
C370 C 0.91854 0.59769 0.91102 0.0
C371 C 0.89995 0.57427 0.88723 0.0
C372 C 0.86462 0.57413 0.89288 0.0
C373 C 0.86217 0.59335 0.90354 0.0
C374 C 0.84426 0.59143 0.93106 0.0
C375 C 0.82803 0.56953 0.94669 0.0
C376 C 0.83021 0.54988 0.93478 0.0
C377 C 0.84872 0.5525 0.90848 0.0
C378 C 0.84262 0.61279 0.94304 0.0
C379 C 0.81288 0.52612 0.94925 0.0
C380 C 0.80169 0.55759 0.18111 0.0
C381 C 0.78234 0.55501 0.20291 0.0
C382 C 0.76481 0.55526 0.17486 0.0
C383 C 0.76659 0.5584 0.12326 0.0
C384 C 0.74938 0.55899 0.09391 0.0
C385 C 0.75096 0.56125 0.0428 0.0
C386 C 0.76974 0.56286 0.0191 0.0
C387 C 0.77108 0.56422 0.9669 0.0
C388 C 0.79023 0.56627 0.94484 0.0
C389 C 0.80824 0.56705 0.97329 0.0
C390 C 0.8071 0.56541 0.02547 0.0
C391 C 0.82483 0.56599 0.05537 0.0
C392 C 0.82316 0.56351 0.10642 0.0
C393 C 0.80386 0.56073 0.12959 0.0
C394 C 0.78611 0.5609 0.10047 0.0
C395 C 0.78768 0.56312 0.04832 0.0
C396 C 0.68521 0.56304 0.75666 0.0
C397 C 0.70633 0.56877 0.78669 0.0
O398 O 0.85531 0.54746 0.33156 0.0
O399 O 0.88227 0.57663 0.86686 0.0
O400 O 0.70236 0.55834 0.83163 0.0
O401 O 0.6918 0.53428 0.29578 0.0
H402 H 0.84843 0.51386 0.32632 0.0
H403 H 0.81346 0.51327 0.35357 0.0
H404 H 0.82901 0.53183 0.40805 0.0
H405 H 0.82458 0.50278 0.40105 0.0
H406 H 0.8249 0.51317 0.26625 0.0
H407 H 0.86076 0.58635 0.30459 0.0
H408 H 0.7802 0.50859 0.19966 0.0
H409 H 0.79849 0.49626 0.19762 0.0
H410 H 0.79905 0.515 0.15041 0.0
H411 H 0.85491 0.61237 0.25737 0.0
H412 H 0.82458 0.59995 0.2468 0.0
H413 H 0.84137 0.60226 0.19533 0.0
H414 H 0.7061 0.55774 0.35854 0.0
H415 H 0.6734 0.53659 0.39703 0.0
H416 H 0.66042 0.51832 0.34785 0.0
H417 H 0.65314 0.55717 0.33555 0.0
H418 H 0.72725 0.57699 0.28669 0.0
H419 H 0.6941 0.50552 0.23353 0.0
H420 H 0.76785 0.59836 0.19319 0.0
H421 H 0.77929 0.5945 0.25075 0.0
H422 H 0.75999 0.60563 0.25173 0.0
H423 H 0.70954 0.49141 0.17429 0.0
H424 H 0.7402 0.50662 0.18032 0.0
H425 H 0.72587 0.51201 0.12998 0.0
H426 H 0.71972 0.58739 0.78909 0.0
H427 H 0.74007 0.59732 0.86344 0.0
H428 H 0.70081 0.52406 0.87586 0.0
H429 H 0.77954 0.60893 0.96866 0.0
H430 H 0.77279 0.62115 0.91647 0.0
H431 H 0.79031 0.60821 0.9092 0.0
H432 H 0.71501 0.50368 0.92033 0.0
H433 H 0.72697 0.51917 0.97994 0.0
H434 H 0.74529 0.518 0.93522 0.0
H435 H 0.89374 0.5617 0.91687 0.0
H436 H 0.93282 0.59611 0.92801 0.0
H437 H 0.91156 0.6038 0.94086 0.0
H438 H 0.92514 0.6108 0.88271 0.0
H439 H 0.87457 0.60995 0.89093 0.0
H440 H 0.85065 0.53765 0.8993 0.0
H441 H 0.8391 0.61378 0.98273 0.0
H442 H 0.82832 0.61184 0.91983 0.0
H443 H 0.85842 0.62891 0.93554 0.0
H444 H 0.81565 0.51234 0.9324 0.0
H445 H 0.79546 0.52231 0.93748 0.0
H446 H 0.81386 0.52557 0.99036 0.0
H447 H 0.78065 0.5522 0.24236 0.0
H448 H 0.73445 0.55755 0.11017 0.0
H449 H 0.73716 0.56151 0.02197 0.0
H450 H 0.79109 0.56723 0.90476 0.0
H451 H 0.84009 0.5681 0.0395 0.0
H452 H 0.83715 0.56375 0.12758 0.0
H453 H 0.68516 0.54275 0.69322 0.0
H454 H 0.6858 0.58011 0.75346 0.0
H455 H 0.67114 0.5564 0.78307 0.0
C456 C 0.29795 0.84742 0.80174 0.0
C457 C 0.3165 0.86638 0.83768 0.0
C458 C 0.30411 0.8474 0.91605 0.0
C459 C 0.28758 0.8536 0.9253 0.0
C460 C 0.27118 0.84207 0.95962 0.0
C461 C 0.27102 0.82369 0.98445 0.0
C462 C 0.28826 0.81812 0.97682 0.0
C463 C 0.30485 0.83039 0.94334 0.0
C464 C 0.25336 0.84885 0.9676 0.0
C465 C 0.28843 0.79834 0.00178 0.0
C466 C 0.13981 0.71253 0.76807 0.0
C467 C 0.14763 0.70719 0.81737 0.0
C468 C 0.15866 0.73083 0.8953 0.0
C469 C 0.17438 0.72478 0.91419 0.0
C470 C 0.19122 0.73904 0.95115 0.0
C471 C 0.19228 0.7597 0.96956 0.0
C472 C 0.1757 0.76518 0.95256 0.0
C473 C 0.15887 0.75046 0.9159 0.0
C474 C 0.20831 0.7324 0.96948 0.0
C475 C 0.17627 0.78701 0.97182 0.0
C476 C 0.14515 0.72889 0.26636 0.0
C477 C 0.1599 0.72102 0.25223 0.0
C478 C 0.18185 0.73664 0.23865 0.0
C479 C 0.18884 0.76047 0.23794 0.0
C480 C 0.17443 0.76853 0.25524 0.0
C481 C 0.15286 0.75258 0.2701 0.0
C482 C 0.19712 0.72751 0.22279 0.0
C483 C 0.18142 0.79383 0.2562 0.0
C484 C 0.33573 0.91262 0.33299 0.0
C485 C 0.32871 0.89409 0.37116 0.0
C486 C 0.30578 0.85777 0.31911 0.0
C487 C 0.30506 0.83768 0.29967 0.0
C488 C 0.28652 0.82119 0.26844 0.0
C489 C 0.26844 0.82516 0.25566 0.0
C490 C 0.26899 0.84541 0.27527 0.0
C491 C 0.28745 0.86132 0.30734 0.0
C492 C 0.28631 0.7996 0.24889 0.0
C493 C 0.25009 0.85031 0.26213 0.0
C494 C 0.25087 0.80805 0.01139 0.0
C495 C 0.23155 0.79198 0.98214 0.0
C496 C 0.21175 0.77636 0.00361 0.0
C497 C 0.21103 0.7765 0.05588 0.0
C498 C 0.19127 0.76104 0.07847 0.0
C499 C 0.19073 0.76121 0.12997 0.0
C500 C 0.21007 0.77652 0.16096 0.0
C501 C 0.20977 0.77641 0.21347 0.0
C502 C 0.22917 0.7921 0.24314 0.0
C503 C 0.24892 0.80822 0.22178 0.0
C504 C 0.24957 0.80854 0.16929 0.0
C505 C 0.26905 0.82465 0.14642 0.0
C506 C 0.26952 0.82467 0.0947 0.0
C507 C 0.25055 0.80857 0.06393 0.0
C508 C 0.23057 0.79253 0.08621 0.0
C509 C 0.23011 0.79249 0.13887 0.0
C510 C 0.08707 0.6936 0.23189 0.0
C511 C 0.10889 0.69358 0.24772 0.0
O512 O 0.3193 0.85695 0.88062 0.0
O513 O 0.3245 0.87321 0.34837 0.0
O514 O 0.12328 0.71403 0.27572 0.0
O515 O 0.14357 0.71851 0.85635 0.0
H516 H 0.31169 0.87962 0.84743 0.0
H517 H 0.28134 0.83938 0.81891 0.0
H518 H 0.3022 0.83372 0.79234 0.0
H519 H 0.29612 0.8549 0.76688 0.0
H520 H 0.28713 0.86716 0.90554 0.0
H521 H 0.31784 0.82593 0.93634 0.0
H522 H 0.23717 0.8359 0.94712 0.0
H523 H 0.25839 0.86614 0.95392 0.0
H524 H 0.25018 0.84904 0.00773 0.0
H525 H 0.30268 0.79584 0.99083 0.0
H526 H 0.27217 0.78204 0.99196 0.0
H527 H 0.28991 0.80163 0.04284 0.0
H528 H 0.16624 0.71404 0.81543 0.0
H529 H 0.14246 0.70319 0.7363 0.0
H530 H 0.14987 0.7314 0.76316 0.0
H531 H 0.12156 0.70745 0.76738 0.0
H532 H 0.17373 0.70911 0.8996 0.0
H533 H 0.14643 0.75476 0.90153 0.0
H534 H 0.20935 0.73299 0.01081 0.0
H535 H 0.22539 0.74506 0.95779 0.0
H536 H 0.20398 0.71481 0.95468 0.0
H537 H 0.16184 0.78852 0.9556 0.0
H538 H 0.19244 0.80233 0.96279 0.0
H539 H 0.17576 0.78735 0.01299 0.0
H540 H 0.11673 0.69243 0.21287 0.0
H541 H 0.15413 0.70266 0.25118 0.0
H542 H 0.14143 0.75843 0.2822 0.0
H543 H 0.19694 0.72645 0.18152 0.0
H544 H 0.19142 0.70995 0.23569 0.0
H545 H 0.21492 0.73935 0.23752 0.0
H546 H 0.16747 0.79696 0.26656 0.0
H547 H 0.1869 0.80065 0.21919 0.0
H548 H 0.19609 0.80372 0.28373 0.0
H549 H 0.31313 0.89174 0.38833 0.0
H550 H 0.33981 0.92949 0.35181 0.0
H551 H 0.32182 0.90783 0.30404 0.0
H552 H 0.35085 0.91482 0.31403 0.0
H553 H 0.31915 0.83496 0.30909 0.0
H554 H 0.28741 0.87651 0.32253 0.0
H555 H 0.287 0.79953 0.20776 0.0
H556 H 0.27024 0.78402 0.25744 0.0
H557 H 0.30088 0.7983 0.26505 0.0
H558 H 0.25409 0.86787 0.27638 0.0
H559 H 0.2343 0.83736 0.27828 0.0
H560 H 0.24668 0.84871 0.22108 0.0
H561 H 0.23195 0.79156 0.94184 0.0
H562 H 0.17596 0.74869 0.05656 0.0
H563 H 0.1749 0.74903 0.14503 0.0
H564 H 0.22876 0.79203 0.28338 0.0
H565 H 0.28418 0.8374 0.16827 0.0
H566 H 0.28494 0.83738 0.07905 0.0
H567 H 0.07838 0.69484 0.26504 0.0
H568 H 0.07531 0.67753 0.20872 0.0
H569 H 0.09119 0.70866 0.20944 0.0
C570 C 0.4247 0.3056 0.49977 0.0
C571 C 0.44114 0.31397 0.4581 0.0
C572 C 0.44081 0.28963 0.38751 0.0
C573 C 0.46444 0.30046 0.38375 0.0
C574 C 0.47395 0.28983 0.35512 0.0
C575 C 0.45953 0.2681 0.32937 0.0
C576 C 0.4357 0.25743 0.33214 0.0
C577 C 0.42665 0.26846 0.36098 0.0
C578 C 0.49939 0.30189 0.3519 0.0
C579 C 0.41981 0.23442 0.30453 0.0
C580 C 0.49271 0.12655 0.40719 0.0
C581 C 0.48316 0.14054 0.38724 0.0
C582 C 0.495 0.17877 0.3577 0.0
C583 C 0.47328 0.1729 0.33739 0.0
C584 C 0.46937 0.18956 0.3162 0.0
C585 C 0.48748 0.21261 0.31543 0.0
C586 C 0.50931 0.21864 0.33609 0.0
C587 C 0.51281 0.20157 0.35672 0.0
C588 C 0.44588 0.18249 0.29422 0.0
C589 C 0.52896 0.24307 0.33586 0.0
C590 C 0.5167 0.20359 0.00524 0.0
C591 C 0.49392 0.19275 0.01646 0.0
C592 C 0.48506 0.20548 0.03949 0.0
C593 C 0.49959 0.22941 0.05251 0.0
C594 C 0.52242 0.24052 0.03914 0.0
C595 C 0.53065 0.22743 0.01509 0.0
C596 C 0.46044 0.19317 0.05166 0.0
C597 C 0.53832 0.266 0.05207 0.0
C598 C 0.42937 0.34996 0.03502 0.0
C599 C 0.44907 0.34571 0.02537 0.0
C600 C 0.45015 0.30958 0.03142 0.0
C601 C 0.43627 0.28562 0.03199 0.0
C602 C 0.44491 0.27176 0.04892 0.0
C603 C 0.46813 0.28222 0.06524 0.0
C604 C 0.48262 0.30629 0.06191 0.0
C605 C 0.47349 0.31978 0.04493 0.0
C606 C 0.42904 0.24609 0.05134 0.0
C607 C 0.50756 0.31784 0.07806 0.0
C608 C 0.46927 0.25693 0.29785 0.0
C609 C 0.47518 0.24182 0.3196 0.0
C610 C 0.48358 0.23007 0.2913 0.0
C611 C 0.48653 0.23372 0.24007 0.0
C612 C 0.49521 0.22243 0.21069 0.0
C613 C 0.49739 0.22558 0.16004 0.0
C614 C 0.49053 0.23977 0.13651 0.0
C615 C 0.49162 0.24217 0.08452 0.0
C616 C 0.48464 0.2564 0.06231 0.0
C617 C 0.47655 0.26839 0.09083 0.0
C618 C 0.47538 0.26622 0.14285 0.0
C619 C 0.46725 0.27799 0.17255 0.0
C620 C 0.46554 0.27524 0.22339 0.0
C621 C 0.47173 0.26049 0.24653 0.0
C622 C 0.48032 0.24877 0.21753 0.0
C623 C 0.48221 0.2517 0.16564 0.0
C624 C 0.55703 0.19058 0.02583 0.0
C625 C 0.53127 0.17763 0.01438 0.0
O626 O 0.43104 0.29903 0.41608 0.0
O627 O 0.44024 0.32203 0.0178 0.0
O628 O 0.52548 0.191 0.9859 0.0
O629 O 0.49939 0.163 0.37832 0.0
H630 H 0.45642 0.31342 0.47252 0.0
H631 H 0.42109 0.28809 0.50927 0.0
H632 H 0.40834 0.30453 0.48809 0.0
H633 H 0.43231 0.31753 0.53372 0.0
H634 H 0.47549 0.3173 0.4026 0.0
H635 H 0.40844 0.26041 0.36362 0.0
H636 H 0.50589 0.29054 0.36484 0.0
H637 H 0.50832 0.31863 0.37459 0.0
H638 H 0.50357 0.30516 0.3125 0.0
H639 H 0.40172 0.22818 0.31144 0.0
H640 H 0.4242 0.22127 0.31604 0.0
H641 H 0.42184 0.23596 0.26389 0.0
H642 H 0.46861 0.13951 0.40713 0.0
H643 H 0.48385 0.09999 0.34966 0.0
H644 H 0.48646 0.12279 0.44574 0.0
H645 H 0.51086 0.13911 0.42087 0.0
H646 H 0.45932 0.1553 0.33751 0.0
H647 H 0.5295 0.20597 0.37237 0.0
H648 H 0.44668 0.18656 0.2545 0.0
H649 H 0.43924 0.19251 0.31418 0.0
H650 H 0.43373 0.16373 0.29662 0.0
H651 H 0.54463 0.24525 0.35553 0.0
H652 H 0.52439 0.25531 0.35388 0.0
H653 H 0.53258 0.24779 0.29683 0.0
H654 H 0.52299 0.17457 0.05049 0.0
H655 H 0.48326 0.17427 0.00791 0.0
H656 H 0.54821 0.23556 0.00558 0.0
H657 H 0.45937 0.1907 0.09219 0.0
H658 H 0.45056 0.17591 0.0312 0.0
H659 H 0.45248 0.20372 0.04247 0.0
H660 H 0.55566 0.27196 0.03963 0.0
H661 H 0.53952 0.26968 0.093 0.0
H662 H 0.53145 0.27618 0.03436 0.0
H663 H 0.46094 0.35264 0.05929 0.0
H664 H 0.43568 0.36866 0.04375 0.0
H665 H 0.42035 0.34041 0.06736 0.0
H666 H 0.41705 0.34382 0.00194 0.0
H667 H 0.41837 0.27788 0.0206 0.0
H668 H 0.48458 0.33822 0.04278 0.0
H669 H 0.42762 0.24159 0.09082 0.0
H670 H 0.43601 0.2363 0.03171 0.0
H671 H 0.41175 0.24042 0.03446 0.0
H672 H 0.51697 0.33628 0.06906 0.0
H673 H 0.51532 0.30851 0.05974 0.0
H674 H 0.50956 0.31697 0.1189 0.0
H675 H 0.47274 0.23878 0.35877 0.0
H676 H 0.50042 0.211 0.22648 0.0
H677 H 0.50428 0.21648 0.13951 0.0
H678 H 0.48523 0.25792 0.02236 0.0
H679 H 0.462 0.2894 0.15687 0.0
H680 H 0.45907 0.28467 0.24421 0.0
H681 H 0.56598 0.19384 0.99079 0.0
H682 H 0.56209 0.1804 0.04948 0.0
H683 H 0.56247 0.20746 0.04637 0.0
C684 C 0.99477 0.45173 0.76678 0.0
C685 C 0.05816 0.48181 0.69944 0.0
C686 C 0.05078 0.55898 0.69569 0.0
Mg687 Mg 0.00889 0.46012 0.65746 0.0
O688 O 0.00864 0.4876 0.67454 0.0
Mg689 Mg 0.0275 0.50689 0.73525 0.0
Mg690 Mg 0.02054 0.51199 0.62601 0.0
O691 O 0.03223 0.53595 0.57588 0.0
Mg692 Mg 0.0311 0.56311 0.58832 0.0
Mg693 Mg 0.01414 0.51586 0.51473 0.0
C694 C 0.98666 0.46455 0.55559 0.0
C695 C 0.05074 0.50056 0.55052 0.0
O696 O 0.00602 0.4737 0.77805 0.0
O697 O 0.99337 0.44286 0.72276 0.0
O698 O 0.05435 0.49558 0.72645 0.0
O699 O 0.04362 0.46785 0.66544 0.0
O700 O 0.98996 0.45135 0.58417 0.0
O701 O 0.99532 0.48627 0.56668 0.0
C702 C 0.99066 0.52255 0.70404 0.0
O703 O 0.99509 0.52212 0.65804 0.0
O704 O 0.00062 0.51741 0.73847 0.0
O705 O 0.03567 0.54843 0.47055 0.0
O706 O 0.04849 0.57985 0.52401 0.0
O707 O 0.98661 0.5261 0.51941 0.0
C708 C 0.04726 0.57048 0.4806 0.0
O709 O 0.99649 0.55529 0.57595 0.0
O710 O 0.04652 0.57066 0.6644 0.0
C711 C 0.98213 0.54001 0.54361 0.0
O712 O 0.04591 0.53796 0.6855 0.0
O713 O 0.04598 0.502 0.59573 0.0
O714 O 0.04118 0.50507 0.51411 0.0
C715 C 0.50061 0.04675 0.78164 0.0
C716 C 0.45994 0.97782 0.70866 0.0
C717 C 0.53943 0.98169 0.68465 0.0
Mg718 Mg 0.48596 0.02728 0.6723 0.0
O719 O 0.51305 0.02635 0.6787 0.0
Mg720 Mg 0.51646 0.00933 0.7352 0.0
Mg721 Mg 0.52206 0.01222 0.62382 0.0
O722 O 0.53097 0.99787 0.5694 0.0
Mg723 Mg 0.55867 0.99822 0.57807 0.0
Mg724 Mg 0.52677 0.0138 0.51168 0.0
C725 C 0.5042 0.04238 0.56361 0.0
C726 C 0.47703 0.97839 0.54966 0.0
O727 O 0.50868 0.03309 0.78701 0.0
O728 O 0.49203 0.04834 0.73976 0.0
O729 O 0.4788 0.98141 0.72887 0.0
O730 O 0.45858 0.99303 0.68386 0.0
O731 O 0.49067 0.04052 0.59767 0.0
O732 O 0.51886 0.03566 0.56893 0.0
C733 C 0.56654 0.04526 0.69987 0.0
O734 O 0.55936 0.03897 0.65382 0.0
O735 O 0.55338 0.03664 0.73539 0.0
O736 O 0.53458 0.98926 0.4616 0.0
O737 O 0.55455 0.97806 0.51077 0.0
O738 O 0.5646 0.04192 0.51562 0.0
C739 C 0.5448 0.97765 0.46881 0.0
O740 O 0.58529 0.03273 0.56609 0.0
O741 O 0.55372 0.98401 0.65212 0.0
C742 C 0.58361 0.04664 0.53733 0.0
O743 O 0.52503 0.98861 0.67776 0.0
O744 O 0.48493 0.98554 0.59499 0.0
O745 O 0.48958 0.9862 0.51287 0.0
C746 C 0.53575 0.57178 0.48222 0.0
C747 C 0.56793 0.53147 0.50871 0.0
C748 C 0.48603 0.46498 0.55619 0.0
Mg749 Mg 0.55487 0.56052 0.57644 0.0
O750 O 0.52474 0.53661 0.57549 0.0
Mg751 Mg 0.5125 0.51595 0.51251 0.0
Mg752 Mg 0.51701 0.5128 0.62503 0.0
O753 O 0.50919 0.48888 0.67415 0.0
Mg754 Mg 0.47867 0.4654 0.67279 0.0
Mg755 Mg 0.52215 0.50916 0.73742 0.0
C756 C 0.54854 0.56059 0.69374 0.0
C757 C 0.5642 0.51704 0.67132 0.0
O758 O 0.52231 0.54994 0.47168 0.0
O759 O 0.54904 0.57967 0.52188 0.0
O760 O 0.54692 0.51949 0.49393 0.0
O761 O 0.57487 0.5476 0.54311 0.0
O762 O 0.55969 0.57029 0.65587 0.0
O763 O 0.53031 0.54062 0.68973 0.0
C764 C 0.4702 0.50874 0.57712 0.0
O765 O 0.48069 0.50786 0.61703 0.0
O766 O 0.47902 0.51215 0.53483 0.0
O767 O 0.51215 0.47461 0.77659 0.0
O768 O 0.48456 0.44576 0.72587 0.0
O769 O 0.48807 0.50606 0.75679 0.0
C770 C 0.49827 0.45294 0.76486 0.0
O771 O 0.45926 0.47891 0.70761 0.0
O772 O 0.47412 0.45526 0.59314 0.0
C773 C 0.46696 0.4949 0.74254 0.0
O774 O 0.50422 0.48491 0.56112 0.0
O775 O 0.55322 0.51797 0.63241 0.0
O776 O 0.55577 0.51305 0.71404 0.0
H777 H 0.105 0.44122 0.38533 0.0
H778 H 0.15246 0.45428 0.51117 0.0
H779 H 0.13566 0.47379 0.55911 0.0
H780 H 0.10472 0.49553 0.40018 0.0
H781 H 0.07483 0.48219 0.38208 0.0
H782 H 0.09128 0.47014 0.35756 0.0
H783 H 0.06313 0.43042 0.39025 0.0
H784 H 0.04669 0.44238 0.41514 0.0
H785 H 0.05754 0.42864 0.45533 0.0
H786 H 0.11218 0.49018 0.59455 0.0
H787 H 0.08504 0.50353 0.61314 0.0
H788 H 0.05366 0.48025 0.46319 0.0
C789 C 0.11215 0.44861 0.4226 0.0
C790 C 0.13038 0.44673 0.44419 0.0
C791 C 0.13881 0.45597 0.49365 0.0
C792 C 0.12932 0.46698 0.52117 0.0
C793 C 0.11137 0.46855 0.49872 0.0
C794 C 0.10297 0.45973 0.45044 0.0
C795 C 0.08325 0.46316 0.43525 0.0
C796 C 0.08887 0.47868 0.39116 0.0
C797 C 0.06136 0.43976 0.4233 0.0
C798 C 0.08183 0.47528 0.48251 0.0
C799 C 0.09808 0.47812 0.51885 0.0
C800 C 0.0995 0.48818 0.56621 0.0
C801 C 0.08394 0.49559 0.57655 0.0
C802 C 0.06729 0.49298 0.53962 0.0
C803 C 0.06637 0.48275 0.49202 0.0
H804 H 0.71294 0.11936 0.47336 0.0
H805 H 0.69655 0.16778 0.40626 0.0
H806 H 0.65755 0.14577 0.43386 0.0
H807 H 0.6604 0.06866 0.44382 0.0
H808 H 0.65989 0.0559 0.50186 0.0
H809 H 0.68665 0.07583 0.47798 0.0
H810 H 0.69828 0.10134 0.56075 0.0
H811 H 0.67144 0.08154 0.58478 0.0
H812 H 0.6801 0.11176 0.58293 0.0
H813 H 0.62002 0.11765 0.46536 0.0
H814 H 0.58621 0.08472 0.49673 0.0
H815 H 0.62773 0.05597 0.54771 0.0
C816 C 0.70137 0.12567 0.46515 0.0
C817 C 0.70807 0.14575 0.43863 0.0
C818 C 0.69195 0.15273 0.42726 0.0
C819 C 0.66979 0.14039 0.44291 0.0
C820 C 0.66399 0.12111 0.47014 0.0
C821 C 0.67931 0.11381 0.48131 0.0
C822 C 0.66859 0.09223 0.51022 0.0
C823 C 0.6689 0.07196 0.48175 0.0
C824 C 0.6803 0.09701 0.56278 0.0
C825 C 0.64467 0.08817 0.51226 0.0
C826 C 0.64242 0.10512 0.48919 0.0
C827 C 0.62163 0.10442 0.48401 0.0
C828 C 0.60252 0.08564 0.50195 0.0
C829 C 0.60435 0.06784 0.52493 0.0
C830 C 0.62584 0.06948 0.53105 0.0
H831 H 0.54527 0.61869 0.21305 0.0
H832 H 0.58498 0.68746 0.28695 0.0
H833 H 0.57339 0.67112 0.36788 0.0
H834 H 0.49926 0.59378 0.30257 0.0
H835 H 0.4983 0.56629 0.29904 0.0
H836 H 0.50569 0.58364 0.24581 0.0
H837 H 0.54324 0.58263 0.24281 0.0
H838 H 0.53598 0.56534 0.29586 0.0
H839 H 0.56256 0.59225 0.29755 0.0
H840 H 0.56197 0.64756 0.44088 0.0
H841 H 0.55341 0.61815 0.50151 0.0
H842 H 0.52259 0.56397 0.38202 0.0
C843 C 0.551 0.63034 0.24624 0.0
C844 C 0.56572 0.65438 0.24327 0.0
C845 C 0.5734 0.66904 0.28769 0.0
C846 C 0.56685 0.65992 0.33406 0.0
C847 C 0.5528 0.6361 0.33566 0.0
C848 C 0.54501 0.62145 0.29298 0.0
C849 C 0.53269 0.59629 0.30548 0.0
C850 C 0.50748 0.58429 0.28714 0.0
C851 C 0.54432 0.58338 0.28418 0.0
C852 C 0.53554 0.59911 0.36185 0.0
C853 C 0.54674 0.62224 0.37837 0.0
C854 C 0.5529 0.62938 0.42852 0.0
C855 C 0.54804 0.61251 0.46265 0.0
C856 C 0.53731 0.58873 0.44652 0.0
C857 C 0.53045 0.58195 0.39557 0.0
H858 H 0.8713 0.50174 0.36856 0.0
H859 H 0.87203 0.56371 0.42595 0.0
H860 H 0.90332 0.57147 0.48776 0.0
H861 H 0.88459 0.48524 0.48827 0.0
H862 H 0.90226 0.47521 0.46137 0.0
H863 H 0.87871 0.47348 0.42454 0.0
H864 H 0.90579 0.49707 0.35744 0.0
H865 H 0.92929 0.49853 0.39366 0.0
H866 H 0.93045 0.5248 0.37555 0.0
H867 H 0.93607 0.57356 0.53983 0.0
H868 H 0.96913 0.5713 0.57376 0.0
H869 H 0.94671 0.508 0.48126 0.0
C870 C 0.878 0.51689 0.39429 0.0
C871 C 0.86945 0.53227 0.39224 0.0
C872 C 0.87853 0.55184 0.42672 0.0
C873 C 0.89616 0.55628 0.46209 0.0
C874 C 0.90434 0.54086 0.46276 0.0
C875 C 0.89557 0.52158 0.42967 0.0
C876 C 0.9082 0.50844 0.43609 0.0
C877 C 0.8925 0.48416 0.45362 0.0
C878 C 0.91908 0.50716 0.38783 0.0
C879 C 0.92596 0.52379 0.47675 0.0
C880 C 0.92323 0.54216 0.49239 0.0
C881 C 0.93828 0.55916 0.52814 0.0
C882 C 0.957 0.55771 0.54725 0.0
C883 C 0.9606 0.53954 0.53005 0.0
C884 C 0.94447 0.52209 0.49535 0.0
H885 H 0.37079 0.89808 0.36431 0.0
H886 H 0.32958 0.90941 0.46815 0.0
H887 H 0.36214 0.92713 0.53095 0.0
H888 H 0.4066 0.88807 0.45882 0.0
H889 H 0.43164 0.90357 0.42473 0.0
H890 H 0.40401 0.88777 0.39188 0.0
H891 H 0.41133 0.92505 0.3503 0.0
H892 H 0.43885 0.9409 0.38301 0.0
H893 H 0.41869 0.95079 0.38898 0.0
H894 H 0.40029 0.94785 0.57827 0.0
H895 H 0.4411 0.97175 0.60361 0.0
H896 H 0.45772 0.94799 0.46816 0.0
C897 C 0.36847 0.90367 0.40082 0.0
C898 C 0.34758 0.90204 0.41172 0.0
C899 C 0.34533 0.91016 0.45937 0.0
C900 C 0.36371 0.92019 0.49527 0.0
C901 C 0.38423 0.92201 0.48291 0.0
C902 C 0.3867 0.91393 0.43681 0.0
C903 C 0.41115 0.92039 0.43056 0.0
C904 C 0.41348 0.89865 0.42625 0.0
C905 C 0.42055 0.93517 0.38557 0.0
C906 C 0.42225 0.93434 0.4793 0.0
C907 C 0.40638 0.93454 0.5096 0.0
C908 C 0.41281 0.94746 0.55521 0.0
C909 C 0.43607 0.9609 0.56959 0.0
C910 C 0.4526 0.96158 0.53832 0.0
C911 C 0.44547 0.94772 0.49307 0.0
H912 H 0.4824 0.35362 0.4764 0.0
H913 H 0.41368 0.3292 0.41638 0.0
H914 H 0.422 0.36961 0.41365 0.0
H915 H 0.48633 0.39368 0.55745 0.0
H916 H 0.51555 0.41523 0.55061 0.0
H917 H 0.50607 0.38536 0.535 0.0
H918 H 0.52014 0.39538 0.44633 0.0
H919 H 0.52955 0.42548 0.46179 0.0
H920 H 0.51015 0.41052 0.40821 0.0
H921 H 0.43384 0.41009 0.4403 0.0
H922 H 0.44859 0.44678 0.49169 0.0
H923 H 0.5111 0.44677 0.52655 0.0
C924 C 0.46945 0.35689 0.46077 0.0
C925 C 0.44742 0.33839 0.4467 0.0
C926 C 0.43069 0.34319 0.42726 0.0
C927 C 0.43534 0.36609 0.42526 0.0
C928 C 0.45698 0.38402 0.44158 0.0
C929 C 0.47395 0.37967 0.45796 0.0
C930 C 0.49469 0.40156 0.47996 0.0
C931 C 0.50098 0.39878 0.53392 0.0
C932 C 0.51482 0.40865 0.4471 0.0
C933 C 0.48598 0.41846 0.47781 0.0
C934 C 0.46437 0.40817 0.45436 0.0
C935 C 0.45112 0.41875 0.4566 0.0
C936 C 0.45962 0.43966 0.48559 0.0
C937 C 0.48127 0.44987 0.51113 0.0
C938 C 0.49503 0.43982 0.50494 0.0
H939 H 0.59181 0.92221 0.88304 0.0
H940 H 0.52007 0.89827 0.98049 0.0
H941 H 0.50778 0.92323 0.91173 0.0
H942 H 0.59661 0.98314 0.84576 0.0
H943 H 0.6053 0.98163 0.78399 0.0
H944 H 0.61129 0.96744 0.833 0.0
H945 H 0.59025 0.92841 0.77932 0.0
H946 H 0.58473 0.94295 0.7304 0.0
H947 H 0.56151 0.91798 0.75478 0.0
H948 H 0.50639 0.94587 0.82845 0.0
H949 H 0.5072 0.96599 0.75327 0.0
H950 H 0.57197 0.97239 0.7209 0.0
C951 C 0.57694 0.92345 0.89076 0.0
C952 C 0.55552 0.90426 0.93416 0.0
C953 C 0.53137 0.90825 0.95261 0.0
C954 C 0.52327 0.92266 0.90813 0.0
C955 C 0.54056 0.93567 0.85749 0.0
C956 C 0.56645 0.93693 0.84968 0.0
C957 C 0.57571 0.94963 0.80401 0.0
C958 C 0.59858 0.97177 0.81751 0.0
C959 C 0.57819 0.93381 0.76483 0.0
C960 C 0.55719 0.95529 0.78693 0.0
C961 C 0.53847 0.94783 0.81664 0.0
C962 C 0.52066 0.95182 0.80521 0.0
C963 C 0.52133 0.96336 0.76252 0.0
C964 C 0.53968 0.97079 0.73138 0.0
C965 C 0.55773 0.9668 0.74413 0.0
H966 H 0.67996 0.51516 0.78239 0.0
H967 H 0.72661 0.58964 0.69044 0.0
H968 H 0.68402 0.58165 0.64337 0.0
H969 H 0.62846 0.4843 0.66864 0.0
H970 H 0.60635 0.4721 0.71157 0.0
H971 H 0.63437 0.47715 0.72922 0.0
H972 H 0.63681 0.50253 0.80775 0.0
H973 H 0.60845 0.49644 0.79033 0.0
H974 H 0.63118 0.52598 0.80025 0.0
H975 H 0.63783 0.56571 0.62697 0.0
H976 H 0.5968 0.55218 0.62337 0.0
H977 H 0.58548 0.49664 0.71663 0.0
C978 C 0.68122 0.52658 0.75373 0.0
C979 C 0.70763 0.55508 0.74775 0.0
C980 C 0.7108 0.57398 0.69556 0.0
C981 C 0.6842 0.56949 0.6685 0.0
C982 C 0.65803 0.54559 0.68491 0.0
C983 C 0.65633 0.52464 0.72387 0.0
C984 C 0.63167 0.50848 0.73005 0.0
C985 C 0.62482 0.48407 0.7086 0.0
C986 C 0.62675 0.50837 0.78534 0.0
C987 C 0.62014 0.5192 0.69896 0.0
C988 C 0.63463 0.53886 0.67371 0.0
C989 C 0.62638 0.5504 0.64538 0.0
C990 C 0.60303 0.54241 0.64287 0.0
C991 C 0.58812 0.52307 0.66856 0.0
C992 C 0.59675 0.51134 0.69633 0.0
H993 H 0.10206 0.6779 0.82622 0.0
H994 H 0.16587 0.67857 0.8195 0.0
H995 H 0.14532 0.63588 0.81441 0.0
H996 H 0.06866 0.61934 0.8876 0.0
H997 H 0.0436 0.61221 0.84863 0.0
H998 H 0.0631 0.64191 0.87002 0.0
H999 H 0.0672 0.65378 0.77877 0.0
H1000 H 0.04763 0.62441 0.75759 0.0
H1001 H 0.0755 0.63912 0.73379 0.0
H1002 H 0.11859 0.59489 0.78913 0.0
H1003 H 0.08926 0.56147 0.73617 0.0
H1004 H 0.04238 0.58672 0.75526 0.0
C1005 C 0.11166 0.66895 0.82562 0.0
C1006 C 0.13548 0.68141 0.8234 0.0
C1007 C 0.14759 0.66929 0.82157 0.0
C1008 C 0.13604 0.64503 0.81914 0.0
C1009 C 0.11237 0.63311 0.81873 0.0
C1010 C 0.10029 0.64474 0.8221 0.0
C1011 C 0.07513 0.62849 0.81016 0.0
C1012 C 0.06184 0.6253 0.8569 0.0
C1013 C 0.06587 0.63695 0.76754 0.0
C1014 C 0.07524 0.60651 0.79456 0.0
C1015 C 0.09666 0.60912 0.80236 0.0
C1016 C 0.10162 0.59235 0.78419 0.0
C1017 C 0.08482 0.57331 0.75436 0.0
C1018 C 0.06368 0.57167 0.74225 0.0
C1019 C 0.05837 0.58756 0.76518 0.0
H1020 H 0.52195 0.16512 0.91267 0.0
H1021 H 0.52453 0.13802 0.05513 0.0
H1022 H 0.51513 0.1006 0.01193 0.0
H1023 H 0.47405 0.11118 0.85527 0.0
H1024 H 0.48556 0.11627 0.79485 0.0
H1025 H 0.49146 0.14039 0.83744 0.0
H1026 H 0.5347 0.15683 0.83074 0.0
H1027 H 0.52895 0.13275 0.78837 0.0
H1028 H 0.54686 0.13891 0.84448 0.0
H1029 H 0.50872 0.06743 0.95227 0.0
H1030 H 0.50353 0.04027 0.88105 0.0
H1031 H 0.5028 0.08859 0.77881 0.0
C1032 C 0.5201 0.15121 0.93497 0.0
C1033 C 0.52364 0.15434 0.98743 0.0
C1034 C 0.52158 0.13581 0.01497 0.0
C1035 C 0.51627 0.11456 0.99079 0.0
C1036 C 0.51289 0.11207 0.93905 0.0
C1037 C 0.51446 0.12981 0.91156 0.0
C1038 C 0.51048 0.1229 0.85635 0.0
C1039 C 0.48911 0.12267 0.83472 0.0
C1040 C 0.5315 0.13879 0.82836 0.0
C1041 C 0.50691 0.09868 0.85697 0.0
C1042 C 0.50843 0.09273 0.90497 0.0
C1043 C 0.50714 0.07175 0.91455 0.0
C1044 C 0.50427 0.05648 0.87394 0.0
C1045 C 0.50249 0.06222 0.82452 0.0
C1046 C 0.50363 0.08351 0.81621 0.0
H1047 H 0.34676 0.47117 0.83303 0.0
H1048 H 0.38462 0.52956 0.94123 0.0
H1049 H 0.42053 0.53565 0.90913 0.0
H1050 H 0.38586 0.44971 0.83597 0.0
H1051 H 0.38223 0.44202 0.76999 0.0
H1052 H 0.35938 0.44186 0.80201 0.0
H1053 H 0.35788 0.46998 0.74022 0.0
H1054 H 0.38077 0.47022 0.70823 0.0
H1055 H 0.38332 0.49705 0.73212 0.0
H1056 H 0.45217 0.53603 0.86521 0.0
H1057 H 0.47805 0.52945 0.81462 0.0
H1058 H 0.42001 0.47147 0.73255 0.0
C1059 C 0.36258 0.48532 0.84979 0.0
C1060 C 0.36281 0.50019 0.88911 0.0
C1061 C 0.38397 0.51815 0.9107 0.0
C1062 C 0.40446 0.52179 0.89266 0.0
C1063 C 0.40359 0.50733 0.85293 0.0
C1064 C 0.38325 0.48941 0.83176 0.0
C1065 C 0.38722 0.4765 0.78923 0.0
C1066 C 0.37814 0.45101 0.79998 0.0
C1067 C 0.37667 0.47857 0.73952 0.0
C1068 C 0.41298 0.48982 0.79039 0.0
C1069 C 0.422 0.50759 0.82729 0.0
C1070 C 0.44533 0.52218 0.83615 0.0
C1071 C 0.4599 0.51829 0.8071 0.0
C1072 C 0.45113 0.49991 0.76958 0.0
C1073 C 0.42729 0.48571 0.76078 0.0
H1074 H 0.93514 0.32097 0.88348 0.0
H1075 H 0.89671 0.35054 0.00504 0.0
H1076 H 0.92309 0.39582 0.96602 0.0
H1077 H 0.99453 0.38387 0.88748 0.0
H1078 H 0.99818 0.38117 0.8221 0.0
H1079 H 0.98306 0.35559 0.85593 0.0
H1080 H 0.94795 0.34044 0.79266 0.0
H1081 H 0.9636 0.36585 0.75876 0.0
H1082 H 0.93628 0.35891 0.78009 0.0
H1083 H 0.95071 0.43084 0.90461 0.0
H1084 H 0.97394 0.45912 0.84463 0.0
H1085 H 0.98839 0.40868 0.77544 0.0
C1086 C 0.93408 0.33501 0.90213 0.0
C1087 C 0.91044 0.32978 0.94256 0.0
C1088 C 0.90937 0.35378 0.97854 0.0
C1089 C 0.92498 0.38147 0.95243 0.0
C1090 C 0.94316 0.38509 0.90317 0.0
C1091 C 0.94827 0.36345 0.88011 0.0
C1092 C 0.96383 0.37305 0.83894 0.0
C1093 C 0.98622 0.37344 0.8519 0.0
C1094 C 0.95222 0.35872 0.78974 0.0
C1095 C 0.96751 0.39776 0.83794 0.0
C1096 C 0.95668 0.40419 0.87362 0.0
C1097 C 0.9591 0.42619 0.87684 0.0
C1098 C 0.97235 0.44214 0.84286 0.0
C1099 C 0.98264 0.43582 0.80549 0.0
C1100 C 0.98035 0.41362 0.80357 0.0
H1101 H 0.92186 0.54995 0.90134 0.0
H1102 H 0.90162 0.58053 0.78537 0.0
H1103 H 0.92044 0.56838 0.72384 0.0
H1104 H 0.97664 0.56859 0.86123 0.0
H1105 H 0.9773 0.54303 0.87784 0.0
H1106 H 0.96033 0.55213 0.91107 0.0
H1107 H 0.9246 0.51181 0.89009 0.0
H1108 H 0.94151 0.50257 0.85686 0.0
H1109 H 0.9166 0.50068 0.82602 0.0
H1110 H 0.94299 0.55367 0.67545 0.0
H1111 H 0.96858 0.53984 0.64674 0.0
H1112 H 0.97492 0.52087 0.79634 0.0
C1113 C 0.92097 0.55363 0.86275 0.0
C1114 C 0.90968 0.56551 0.84786 0.0
C1115 C 0.90962 0.57084 0.79737 0.0
C1116 C 0.92032 0.56408 0.76221 0.0
C1117 C 0.93126 0.55229 0.77826 0.0
C1118 C 0.93172 0.54724 0.82748 0.0
C1119 C 0.94589 0.5359 0.8363 0.0
C1120 C 0.96624 0.55081 0.87381 0.0
C1121 C 0.93127 0.51128 0.85331 0.0
C1122 C 0.9535 0.53547 0.78447 0.0
C1123 C 0.94478 0.54476 0.75123 0.0
C1124 C 0.94989 0.54638 0.70129 0.0
C1125 C 0.9645 0.53853 0.68526 0.0
C1126 C 0.97403 0.52949 0.71919 0.0
C1127 C 0.96811 0.52777 0.76925 0.0
H1128 H 0.33291 0.90493 0.78368 0.0
H1129 H 0.34953 0.85376 0.83319 0.0
H1130 H 0.38648 0.87437 0.7954 0.0
H1131 H 0.36178 0.91417 0.66398 0.0
H1132 H 0.37101 0.94463 0.66794 0.0
H1133 H 0.34478 0.92437 0.69364 0.0
H1134 H 0.35906 0.94762 0.77938 0.0
H1135 H 0.38521 0.9679 0.75392 0.0
H1136 H 0.38584 0.95325 0.80827 0.0
H1137 H 0.42322 0.90307 0.76264 0.0
H1138 H 0.45699 0.93748 0.73569 0.0
H1139 H 0.41606 0.96926 0.70365 0.0
C1140 C 0.34428 0.89799 0.78608 0.0
C1141 C 0.33868 0.87817 0.81254 0.0
C1142 C 0.35374 0.86926 0.81416 0.0
C1143 C 0.37465 0.88071 0.7924 0.0
C1144 C 0.37995 0.90064 0.76796 0.0
C1145 C 0.36509 0.90904 0.76405 0.0
C1146 C 0.37545 0.93153 0.7383 0.0
C1147 C 0.36248 0.92848 0.68798 0.0
C1148 C 0.37646 0.95123 0.77199 0.0
C1149 C 0.39892 0.93514 0.73094 0.0
C1150 C 0.40103 0.91691 0.74753 0.0
C1151 C 0.42167 0.91722 0.74861 0.0
C1152 C 0.44077 0.93689 0.73342 0.0
C1153 C 0.43911 0.95599 0.71741 0.0
C1154 C 0.41775 0.95476 0.71487 0.0
H1155 H 0.47638 0.39241 0.01964 0.0
H1156 H 0.44774 0.32765 0.92925 0.0
H1157 H 0.46388 0.34917 0.85548 0.0
H1158 H 0.46144 0.42027 0.93481 0.0
H1159 H 0.48621 0.44854 0.94702 0.0
H1160 H 0.4769 0.42832 0.99488 0.0
H1161 H 0.51666 0.43193 0.00309 0.0
H1162 H 0.52612 0.45223 0.95509 0.0
H1163 H 0.52844 0.42653 0.94874 0.0
H1164 H 0.4779 0.37687 0.79007 0.0
H1165 H 0.48698 0.40893 0.73632 0.0
H1166 H 0.50557 0.45644 0.86691 0.0
C1167 C 0.47414 0.38281 0.98453 0.0
C1168 C 0.46118 0.35835 0.98064 0.0
C1169 C 0.45794 0.34633 0.93374 0.0
C1170 C 0.46711 0.35842 0.89146 0.0
C1171 C 0.47934 0.38253 0.89644 0.0
C1172 C 0.48285 0.39464 0.94173 0.0
C1173 C 0.49381 0.42045 0.93564 0.0
C1174 C 0.47868 0.42994 0.95416 0.0
C1175 C 0.51768 0.43356 0.96222 0.0
C1176 C 0.49501 0.42083 0.87956 0.0
C1177 C 0.48705 0.39878 0.85795 0.0
C1178 C 0.48454 0.39425 0.80654 0.0
C1179 C 0.48965 0.41258 0.77634 0.0
C1180 C 0.49707 0.43516 0.79753 0.0
C1181 C 0.50043 0.43946 0.8498 0.0
H1182 H 0.12209 0.46263 0.91869 0.0
H1183 H 0.12091 0.40806 0.82406 0.0
H1184 H 0.11281 0.4242 0.75005 0.0
H1185 H 0.07641 0.46064 0.86485 0.0
H1186 H 0.08621 0.49124 0.87018 0.0
H1187 H 0.09772 0.47921 0.91291 0.0
H1188 H 0.13841 0.50806 0.88852 0.0
H1189 H 0.12692 0.52018 0.84533 0.0
H1190 H 0.14492 0.50938 0.82403 0.0
H1191 H 0.09671 0.44076 0.69029 0.0
H1192 H 0.07297 0.45504 0.65171 0.0
H1193 H 0.08585 0.49991 0.78439 0.0
C1194 C 0.12112 0.45473 0.88211 0.0
C1195 C 0.12255 0.4344 0.87688 0.0
C1196 C 0.12033 0.42394 0.82867 0.0
C1197 C 0.1158 0.43305 0.78646 0.0
C1198 C 0.11379 0.45277 0.79303 0.0
C1199 C 0.11666 0.46365 0.83972 0.0
C1200 C 0.11036 0.48239 0.83801 0.0
C1201 C 0.09156 0.47808 0.87353 0.0
C1202 C 0.13141 0.50643 0.84965 0.0
C1203 C 0.10183 0.47918 0.78392 0.0
C1204 C 0.10453 0.46247 0.75816 0.0
C1205 C 0.09506 0.4543 0.70967 0.0
C1206 C 0.08156 0.46253 0.68799 0.0
C1207 C 0.07753 0.47863 0.71496 0.0
C1208 C 0.08889 0.48793 0.76237 0.0
H1209 H 0.66397 0.10089 0.90975 0.0
H1210 H 0.70853 0.09686 0.80412 0.0
H1211 H 0.6802 0.08958 0.73496 0.0
H1212 H 0.61547 0.05561 0.86003 0.0
H1213 H 0.59726 0.06752 0.87132 0.0
H1214 H 0.62285 0.07741 0.91006 0.0
H1215 H 0.63633 0.11973 0.88901 0.0
H1216 H 0.61062 0.10989 0.85006 0.0
H1217 H 0.63791 0.12682 0.82482 0.0
H1218 H 0.64411 0.07576 0.67996 0.0
H1219 H 0.60411 0.05606 0.64628 0.0
H1220 H 0.58396 0.07026 0.78809 0.0
C1221 C 0.6681 0.09933 0.87186 0.0
C1222 C 0.68848 0.09968 0.86211 0.0
C1223 C 0.69309 0.09694 0.81219 0.0
C1224 C 0.67714 0.09287 0.77275 0.0
C1225 C 0.65682 0.09192 0.78384 0.0
C1226 C 0.65245 0.09538 0.83228 0.0
C1227 C 0.62842 0.09076 0.83549 0.0
C1228 C 0.61524 0.07169 0.87129 0.0
C1229 C 0.62833 0.11314 0.85074 0.0
C1230 C 0.61946 0.08271 0.78198 0.0
C1231 C 0.63614 0.08399 0.75229 0.0
C1232 C 0.63105 0.07516 0.70267 0.0
C1233 C 0.60825 0.064 0.68366 0.0
C1234 C 0.59086 0.06151 0.71445 0.0
C1235 C 0.59685 0.07191 0.76346 0.0
H1236 H 0.63263 0.68011 0.81928 0.0
H1237 H 0.57576 0.67765 0.89269 0.0
H1238 H 0.55354 0.63537 0.87283 0.0
H1239 H 0.60299 0.64504 0.72004 0.0
H1240 H 0.61963 0.63097 0.714 0.0
H1241 H 0.63233 0.65954 0.74364 0.0
H1242 H 0.64346 0.64526 0.82238 0.0
H1243 H 0.63052 0.61643 0.79283 0.0
H1244 H 0.62185 0.62112 0.85256 0.0
H1245 H 0.53527 0.5952 0.83089 0.0
H1246 H 0.52269 0.56254 0.76762 0.0
H1247 H 0.59193 0.59137 0.72485 0.0
C1248 C 0.61578 0.67089 0.8326 0.0
C1249 C 0.60595 0.68248 0.85754 0.0
C1250 C 0.58366 0.66918 0.87359 0.0
C1251 C 0.57097 0.64514 0.86279 0.0
C1252 C 0.58094 0.63443 0.83679 0.0
C1253 C 0.60298 0.64692 0.82244 0.0
C1254 C 0.60894 0.63211 0.78956 0.0
C1255 C 0.61638 0.64253 0.73884 0.0
C1256 C 0.62728 0.62852 0.81593 0.0
C1257 C 0.5863 0.60985 0.78445 0.0
C1258 C 0.57049 0.61117 0.81312 0.0
C1259 C 0.54765 0.59372 0.80933 0.0
C1260 C 0.54063 0.57514 0.77351 0.0
C1261 C 0.5564 0.57452 0.74163 0.0
C1262 C 0.57962 0.59137 0.74927 0.0
H1263 H 0.44005 0.095 0.38361 0.0
H1264 H 0.51737 0.1444 0.30797 0.0
H1265 H 0.53413 0.11879 0.36339 0.0
H1266 H 0.46632 0.09289 0.5088 0.0
H1267 H 0.44565 0.06353 0.51995 0.0
H1268 H 0.4384 0.07924 0.47718 0.0
H1269 H 0.42728 0.04584 0.40929 0.0
H1270 H 0.43546 0.03087 0.45234 0.0
H1271 H 0.44806 0.03781 0.39325 0.0
H1272 H 0.53738 0.09033 0.43413 0.0
H1273 H 0.53836 0.06702 0.50239 0.0
H1274 H 0.46734 0.04278 0.52309 0.0
C1275 C 0.45688 0.0983 0.37601 0.0
C1276 C 0.47764 0.12485 0.34606 0.0
C1277 C 0.50618 0.12996 0.32892 0.0
C1278 C 0.51668 0.11472 0.3652 0.0
C1279 C 0.49844 0.09336 0.4054 0.0
C1280 C 0.46982 0.08483 0.4096 0.0
C1281 C 0.46082 0.06743 0.44801 0.0
C1282 C 0.45231 0.07631 0.491 0.0
C1283 C 0.44179 0.04411 0.4243 0.0
C1284 C 0.48196 0.06594 0.46485 0.0
C1285 C 0.502 0.07961 0.44069 0.0
C1286 C 0.52214 0.0797 0.45301 0.0
C1287 C 0.52252 0.06633 0.49157 0.0
C1288 C 0.50295 0.05334 0.51792 0.0
C1289 C 0.48253 0.05282 0.50351 0.0
H1290 H 0.36151 0.50559 0.45328 0.0
H1291 H 0.32079 0.44847 0.5435 0.0
H1292 H 0.35579 0.45513 0.59047 0.0
H1293 H 0.40474 0.4923 0.43917 0.0
H1294 H 0.42734 0.52202 0.44101 0.0
H1295 H 0.399 0.51449 0.4194 0.0
H1296 H 0.3998 0.54426 0.48547 0.0
H1297 H 0.42813 0.55172 0.50761 0.0
H1298 H 0.40586 0.54229 0.55029 0.0
H1299 H 0.39549 0.46597 0.62243 0.0
H1300 H 0.43629 0.47828 0.63252 0.0
H1301 H 0.45067 0.52761 0.52013 0.0
C1302 C 0.35989 0.49448 0.48296 0.0
C1303 C 0.33844 0.47622 0.49425 0.0
C1304 C 0.33712 0.46235 0.53392 0.0
C1305 C 0.35685 0.46611 0.56095 0.0
C1306 C 0.37777 0.48392 0.54805 0.0
C1307 C 0.37938 0.49781 0.50984 0.0
C1308 C 0.40389 0.51449 0.50043 0.0
C1309 C 0.40904 0.51057 0.44685 0.0
C1310 C 0.40976 0.53968 0.51163 0.0
C1311 C 0.41584 0.50736 0.53827 0.0
C1312 C 0.40055 0.49005 0.56618 0.0
C1313 C 0.40764 0.47983 0.6015 0.0
C1314 C 0.43089 0.48709 0.60744 0.0
C1315 C 0.44666 0.5042 0.57793 0.0
C1316 C 0.439 0.5147 0.54367 0.0
H1317 H 0.90712 0.3638 0.35222 0.0
H1318 H 0.8708 0.40101 0.32746 0.0
H1319 H 0.89961 0.43381 0.38316 0.0
H1320 H 0.91991 0.37931 0.48051 0.0
H1321 H 0.94752 0.38169 0.48131 0.0
H1322 H 0.92556 0.36248 0.43533 0.0
H1323 H 0.9522 0.3831 0.36516 0.0
H1324 H 0.97423 0.40252 0.41102 0.0
H1325 H 0.96463 0.41396 0.3622 0.0
H1326 H 0.93114 0.46147 0.44413 0.0
H1327 H 0.9611 0.48072 0.51195 0.0
H1328 H 0.97572 0.42453 0.50019 0.0
C1329 C 0.90517 0.37881 0.35844 0.0
C1330 C 0.8865 0.37975 0.33615 0.0
C1331 C 0.88485 0.39991 0.34472 0.0
C1332 C 0.90117 0.41862 0.37595 0.0
C1333 C 0.91908 0.4169 0.39809 0.0
C1334 C 0.9211 0.39746 0.39 0.0
C1335 C 0.94098 0.39924 0.42117 0.0
C1336 C 0.933 0.37952 0.45669 0.0
C1337 C 0.95908 0.39974 0.38789 0.0
C1338 C 0.94943 0.42243 0.44922 0.0
C1339 C 0.93691 0.43257 0.43442 0.0
C1340 C 0.94117 0.45379 0.45573 0.0
C1341 C 0.95836 0.46469 0.49397 0.0
C1342 C 0.97087 0.45423 0.51093 0.0
C1343 C 0.96649 0.43296 0.48777 0.0
H1344 H 0.5039 0.85281 0.35505 0.0
H1345 H 0.5742 0.8779 0.32343 0.0
H1346 H 0.58234 0.91814 0.33737 0.0
H1347 H 0.49868 0.9021 0.30636 0.0
H1348 H 0.48176 0.90174 0.35663 0.0
H1349 H 0.48015 0.87524 0.33334 0.0
H1350 H 0.4903 0.86824 0.42236 0.0
H1351 H 0.49176 0.89453 0.44573 0.0
H1352 H 0.51581 0.89042 0.45624 0.0
H1353 H 0.5847 0.95455 0.36957 0.0
H1354 H 0.5813 0.98428 0.42003 0.0
H1355 H 0.50977 0.93617 0.43219 0.0
C1356 C 0.52093 0.86674 0.35037 0.0
C1357 C 0.53857 0.8622 0.33921 0.0
C1358 C 0.56052 0.88098 0.33263 0.0
C1359 C 0.56525 0.90389 0.3401 0.0
C1360 C 0.54777 0.90776 0.35354 0.0
C1361 C 0.52601 0.8897 0.35846 0.0
C1362 C 0.51109 0.89836 0.37983 0.0
C1363 C 0.49178 0.89411 0.34175 0.0
C1364 C 0.50171 0.88724 0.42894 0.0
C1365 C 0.52816 0.92396 0.38853 0.0
C1366 C 0.5491 0.92909 0.37195 0.0
C1367 C 0.56827 0.95095 0.38132 0.0
C1368 C 0.56621 0.96773 0.40983 0.0
C1369 C 0.54514 0.96257 0.4283 0.0
C1370 C 0.52578 0.9407 0.4164 0.0
H1371 H 0.69613 0.59129 0.39364 0.0
H1372 H 0.6552 0.53335 0.24124 0.0
H1373 H 0.61565 0.51026 0.29966 0.0
H1374 H 0.66034 0.54475 0.49952 0.0
H1375 H 0.65659 0.56556 0.53636 0.0
H1376 H 0.68092 0.57517 0.49946 0.0
H1377 H 0.6701 0.60233 0.45419 0.0
H1378 H 0.64638 0.59325 0.49246 0.0
H1379 H 0.64176 0.59047 0.42559 0.0
H1380 H 0.58687 0.49975 0.37472 0.0
H1381 H 0.55964 0.49913 0.43303 0.0
H1382 H 0.61425 0.55833 0.51913 0.0
C1383 C 0.68128 0.57629 0.37586 0.0
C1384 C 0.68172 0.56208 0.315 0.0
C1385 C 0.65515 0.53974 0.27875 0.0
C1386 C 0.63133 0.52464 0.31624 0.0
C1387 C 0.63302 0.53436 0.37997 0.0
C1388 C 0.65628 0.55936 0.40832 0.0
C1389 C 0.64894 0.56468 0.45635 0.0
C1390 C 0.66251 0.56241 0.50052 0.0
C1391 C 0.65196 0.58911 0.45717 0.0
C1392 C 0.62366 0.5457 0.45487 0.0
C1393 C 0.61557 0.52917 0.41403 0.0
C1394 C 0.59282 0.51209 0.40674 0.0
C1395 C 0.57747 0.51188 0.44014 0.0
C1396 C 0.58484 0.5288 0.48037 0.0
C1397 C 0.60824 0.54518 0.48865 0.0
H1398 H 0.10277 0.68923 0.34847 0.0
H1399 H 0.10086 0.65091 0.2129 0.0
H1400 H 0.08744 0.61549 0.25892 0.0
H1401 H 0.12139 0.65899 0.4344 0.0
H1402 H 0.10404 0.65986 0.48248 0.0
H1403 H 0.11556 0.6825 0.43972 0.0
H1404 H 0.07499 0.67482 0.41583 0.0
H1405 H 0.06334 0.6521 0.45817 0.0
H1406 H 0.05315 0.64608 0.39351 0.0
H1407 H 0.07091 0.58364 0.31816 0.0
H1408 H 0.0534 0.55799 0.38641 0.0
H1409 H 0.06709 0.61769 0.4833 0.0
C1410 C 0.10013 0.67354 0.32882 0.0
C1411 C 0.10334 0.67287 0.2774 0.0
C1412 C 0.09895 0.65182 0.25254 0.0
C1413 C 0.09131 0.63166 0.27832 0.0
C1414 C 0.08821 0.63289 0.32898 0.0
C1415 C 0.09268 0.65334 0.35404 0.0
C1416 C 0.08683 0.6498 0.40783 0.0
C1417 C 0.10823 0.66361 0.44319 0.0
C1418 C 0.06848 0.65606 0.41948 0.0
C1419 C 0.07777 0.62404 0.40876 0.0
C1420 C 0.07882 0.61459 0.36307 0.0
C1421 C 0.07028 0.59089 0.35432 0.0
C1422 C 0.0603 0.57645 0.39328 0.0
C1423 C 0.05895 0.5858 0.44036 0.0
C1424 C 0.06807 0.60997 0.44804 0.0
loop_
_geom_bond_atom_site_label_1
_geom_bond_atom_site_label_2
_geom_bond_distance
_geom_bond_site_symmetry_2
_ccdc_geom_bond_type
C0 C1 1.560 . S
C0 H61 0.959 . S
C0 H62 0.959 . S
C0 H63 0.960 . S
C1 C0 1.560 . S
C1 O56 1.426 . S
C1 H60 0.980 . S
C2 C3 1.407 . S
C2 C7 1.418 . S
C2 O56 1.334 . S
C3 C2 1.407 . S
C3 C4 1.360 . S
C3 H64 0.929 . S
C4 C3 1.360 . S
C4 C5 1.401 . S
C4 C8 1.527 . S
C5 C4 1.401 . S
C5 C6 1.405 . S
C5 C38 1.587 . S
C6 C5 1.405 . S
C6 C7 1.332 . S
C6 C9 1.496 . S
C7 C2 1.418 . S
C7 C6 1.332 . S
C7 H65 0.929 . S
C8 C4 1.527 . S
C8 H66 0.959 . S
C8 H67 0.961 . S
C8 H68 0.961 . S
C9 C6 1.496 . S
C9 H69 0.960 . S
C9 H70 0.960 . S
C9 H71 0.961 . S
C10 C11 1.517 . S
C10 H73 0.961 . S
C10 H74 0.960 . S
C10 H75 0.959 . S
C11 C10 1.517 . S
C11 O59 1.468 . S
C11 H72 0.980 . S
C12 C13 1.349 . S
C12 C17 1.367 . S
C12 O59 1.408 . S
C13 C12 1.349 . S
C13 C14 1.407 . S
C13 H76 0.930 . S
C14 C13 1.407 . S
C14 C15 1.449 . S
C14 C18 1.535 . S
C15 C14 1.449 . S
C15 C16 1.384 . S
C15 C40 1.553 . S
C16 C15 1.384 . S
C16 C17 1.364 . S
C16 C19 1.450 . S
C17 C12 1.367 . S
C17 C16 1.364 . S
C17 H77 0.931 . S
C18 C14 1.535 . S
C18 H78 0.959 . S
C18 H79 0.961 . S
C18 H80 0.959 . S
C19 C16 1.450 . S
C19 H81 0.960 . S
C19 H82 0.960 . S
C19 H83 0.960 . S
C20 C21 1.309 1_556 S
C20 C25 1.304 . S
C20 O58 1.435 . S
C21 C20 1.309 1_554 S
C21 C22 1.476 . S
C21 H85 0.930 . S
C22 C21 1.476 . S
C22 C23 1.400 . S
C22 C26 1.567 . S
C23 C22 1.400 . S
C23 C24 1.373 . S
C23 C45 1.432 . S
C24 C23 1.373 . S
C24 C25 1.339 1_554 S
C24 C27 1.530 . S
C25 C20 1.304 . S
C25 C24 1.339 1_556 S
C25 H86 0.930 . S
C26 C22 1.567 . S
C26 H87 0.961 . S
C26 H88 0.960 . S
C26 H89 0.958 . S
C27 C24 1.530 . S
C27 H90 0.961 . S
C27 H91 0.960 . S
C27 H92 0.960 . S
C28 C29 1.530 . S
C28 H94 0.961 . S
C28 H95 0.961 . S
C28 H96 0.959 . S
C29 C28 1.530 . S
C29 O57 1.412 . S
C29 H93 0.980 . S
C30 C31 1.288 1_556 S
C30 C35 1.377 . S
C30 O57 1.393 . S
C31 C30 1.288 1_554 S
C31 C32 1.369 . S
C31 H97 0.932 1_554 S
C32 C31 1.369 . S
C32 C33 1.398 . S
C32 C36 1.527 . S
C33 C32 1.398 . S
C33 C34 1.380 . S
C33 C47 1.497 . S
C34 C33 1.380 . S
C34 C35 1.383 1_554 S
C34 C37 1.603 . S
C35 C30 1.377 . S
C35 C34 1.383 1_556 S
C35 H98 0.929 . S
C36 C32 1.527 . S
C36 H99 0.961 . S
C36 H100 0.959 . S
C36 H101 0.959 . S
C37 C34 1.603 . S
C37 H102 0.960 . S
C37 H103 0.962 . S
C37 H104 0.961 . S
C38 C5 1.587 . S
C38 C39 1.360 . S
C38 C51 1.412 . S
C39 C38 1.360 . S
C39 C40 1.365 . S
C39 H105 0.929 . S
C40 C15 1.553 . S
C40 C39 1.365 . S
C40 C41 1.404 . S
C41 C40 1.404 . S
C41 C42 1.395 . S
C41 C52 1.451 . S
C42 C41 1.395 . S
C42 C43 1.322 . S
C42 H106 0.930 . S
C43 C42 1.322 . S
C43 C44 1.459 . S
C43 H107 0.929 . S
C44 C43 1.459 . S
C44 C45 1.445 . S
C44 C53 1.395 . S
C45 C23 1.432 . S
C45 C44 1.445 . S
C45 C46 1.370 . S
C46 C45 1.370 . S
C46 C47 1.438 . S
C46 H108 0.930 . S
C47 C33 1.497 . S
C47 C46 1.438 . S
C47 C48 1.360 . S
C48 C47 1.360 . S
C48 C49 1.401 . S
C48 C53 1.446 . S
C49 C48 1.401 . S
C49 C50 1.347 . S
C49 H109 0.929 . S
C50 C49 1.347 . S
C50 C51 1.455 . S
C50 H110 0.930 . S
C51 C38 1.412 . S
C51 C50 1.455 . S
C51 C52 1.331 . S
C52 C41 1.451 . S
C52 C51 1.331 . S
C52 C53 1.497 . S
C53 C44 1.395 . S
C53 C48 1.446 . S
C53 C52 1.497 . S
C54 C55 1.582 . S
C54 H111 0.962 . S
C54 H112 0.959 . S
C54 H113 0.958 . S
C55 C54 1.582 . S
C55 O58 1.458 . S
C55 H84 0.980 . S
O56 C1 1.426 . S
O56 C2 1.334 . S
O57 C29 1.412 . S
O57 C30 1.393 . S
O58 C20 1.435 . S
O58 C55 1.458 . S
O59 C11 1.468 . S
O59 C12 1.408 . S
H60 C1 0.980 . S
H61 C0 0.959 . S
H62 C0 0.959 . S
H63 C0 0.960 . S
H64 C3 0.929 . S
H65 C7 0.929 . S
H66 C8 0.959 . S
H67 C8 0.961 . S
H68 C8 0.961 . S
H69 C9 0.960 . S
H70 C9 0.960 . S
H71 C9 0.961 . S
H72 C11 0.980 . S
H73 C10 0.961 . S
H74 C10 0.960 . S
H75 C10 0.959 . S
H76 C13 0.930 . S
H77 C17 0.931 . S
H78 C18 0.959 . S
H79 C18 0.961 . S
H80 C18 0.959 . S
H81 C19 0.960 . S
H82 C19 0.960 . S
H83 C19 0.960 . S
H84 C55 0.980 . S
H85 C21 0.930 . S
H86 C25 0.930 . S
H87 C26 0.961 . S
H88 C26 0.960 . S
H89 C26 0.958 . S
H90 C27 0.961 . S
H91 C27 0.960 . S
H92 C27 0.960 . S
H93 C29 0.980 . S
H94 C28 0.961 . S
H95 C28 0.961 . S
H96 C28 0.959 . S
H97 C31 0.932 1_556 S
H98 C35 0.929 . S
H99 C36 0.961 . S
H100 C36 0.959 . S
H101 C36 0.959 . S
H102 C37 0.960 . S
H103 C37 0.962 . S
H104 C37 0.961 . S
H105 C39 0.929 . S
H106 C42 0.930 . S
H107 C43 0.929 . S
H108 C46 0.930 . S
H109 C49 0.929 . S
H110 C50 0.930 . S
H111 C54 0.962 . S
H112 C54 0.959 . S
H113 C54 0.958 . S
C114 C115 1.560 . S
C114 H175 0.959 . S
C114 H176 0.959 . S
C114 H177 0.960 . S
C115 C114 1.560 . S
C115 O170 1.426 . S
C115 H174 0.980 . S
C116 C117 1.407 . S
C116 C121 1.418 . S
C116 O170 1.334 . S
C117 C116 1.407 . S
C117 C118 1.360 . S
C117 H178 0.929 . S
C118 C117 1.360 . S
C118 C119 1.401 . S
C118 C122 1.527 . S
C119 C118 1.401 . S
C119 C120 1.405 . S
C119 C152 1.587 . S
C120 C119 1.405 . S
C120 C121 1.332 . S
C120 C123 1.496 . S
C121 C116 1.418 . S
C121 C120 1.332 . S
C121 H179 0.929 . S
C122 C118 1.527 . S
C122 H180 0.959 . S
C122 H181 0.961 . S
C122 H182 0.961 . S
C123 C120 1.496 . S
C123 H183 0.960 . S
C123 H184 0.960 . S
C123 H185 0.961 . S
C124 C125 1.517 . S
C124 H187 0.961 . S
C124 H188 0.960 . S
C124 H189 0.959 . S
C125 C124 1.517 . S
C125 O173 1.468 . S
C125 H186 0.980 . S
C126 C127 1.349 . S
C126 C131 1.367 . S
C126 O173 1.408 . S
C127 C126 1.349 . S
C127 C128 1.407 . S
C127 H190 0.930 . S
C128 C127 1.407 . S
C128 C129 1.449 . S
C128 C132 1.535 . S
C129 C128 1.449 . S
C129 C130 1.384 . S
C129 C154 1.553 . S
C130 C129 1.384 . S
C130 C131 1.364 . S
C130 C133 1.450 . S
C131 C126 1.367 . S
C131 C130 1.364 . S
C131 H191 0.931 . S
C132 C128 1.535 . S
C132 H192 0.959 . S
C132 H193 0.961 . S
C132 H194 0.959 . S
C133 C130 1.450 . S
C133 H195 0.960 . S
C133 H196 0.960 . S
C133 H197 0.960 . S
C134 C135 1.309 . S
C134 C139 1.304 . S
C134 O172 1.435 . S
C135 C134 1.309 . S
C135 C136 1.476 1_556 S
C135 H199 0.930 . S
C136 C135 1.476 1_554 S
C136 C137 1.400 . S
C136 C140 1.567 . S
C137 C136 1.400 . S
C137 C138 1.373 1_554 S
C137 C159 1.432 . S
C138 C137 1.373 1_556 S
C138 C139 1.339 . S
C138 C141 1.530 1_556 S
C139 C134 1.304 . S
C139 C138 1.339 . S
C139 H200 0.930 . S
C140 C136 1.567 . S
C140 H201 0.961 . S
C140 H202 0.960 . S
C140 H203 0.958 . S
C141 C138 1.530 1_554 S
C141 H204 0.961 1_554 S
C141 H205 0.960 . S
C141 H206 0.960 1_554 S
C142 C143 1.530 . S
C142 H208 0.961 . S
C142 H209 0.961 . S
C142 H210 0.959 . S
C143 C142 1.530 . S
C143 O171 1.412 . S
C143 H207 0.980 . S
C144 C145 1.288 . S
C144 C149 1.377 . S
C144 O171 1.393 . S
C145 C144 1.288 . S
C145 C146 1.369 1_556 S
C145 H211 0.932 . S
C146 C145 1.369 1_554 S
C146 C147 1.398 . S
C146 C150 1.527 . S
C147 C146 1.398 . S
C147 C148 1.380 . S
C147 C161 1.497 . S
C148 C147 1.380 . S
C148 C149 1.383 1_554 S
C148 C151 1.603 . S
C149 C144 1.377 . S
C149 C148 1.383 1_556 S
C149 H212 0.929 . S
C150 C146 1.527 . S
C150 H213 0.961 . S
C150 H214 0.959 1_554 S
C150 H215 0.959 . S
C151 C148 1.603 . S
C151 H216 0.960 1_554 S
C151 H217 0.962 . S
C151 H218 0.961 . S
C152 C119 1.587 . S
C152 C153 1.360 . S
C152 C165 1.412 . S
C153 C152 1.360 . S
C153 C154 1.365 . S
C153 H219 0.929 . S
C154 C129 1.553 . S
C154 C153 1.365 . S
C154 C155 1.404 . S
C155 C154 1.404 . S
C155 C156 1.395 . S
C155 C166 1.451 . S
C156 C155 1.395 . S
C156 C157 1.322 . S
C156 H220 0.930 . S
C157 C156 1.322 . S
C157 C158 1.459 . S
C157 H221 0.929 . S
C158 C157 1.459 . S
C158 C159 1.445 . S
C158 C167 1.395 . S
C159 C137 1.432 . S
C159 C158 1.445 . S
C159 C160 1.370 . S
C160 C159 1.370 . S
C160 C161 1.438 . S
C160 H222 0.930 1_554 S
C161 C147 1.497 . S
C161 C160 1.438 . S
C161 C162 1.360 . S
C162 C161 1.360 . S
C162 C163 1.401 . S
C162 C167 1.446 . S
C163 C162 1.401 . S
C163 C164 1.347 . S
C163 H223 0.929 . S
C164 C163 1.347 . S
C164 C165 1.455 . S
C164 H224 0.930 . S
C165 C152 1.412 . S
C165 C164 1.455 . S
C165 C166 1.331 . S
C166 C155 1.451 . S
C166 C165 1.331 . S
C166 C167 1.497 . S
C167 C158 1.395 . S
C167 C162 1.446 . S
C167 C166 1.497 . S
C168 C169 1.582 . S
C168 H225 0.962 . S
C168 H226 0.959 . S
C168 H227 0.958 . S
C169 C168 1.582 . S
C169 O172 1.458 . S
C169 H198 0.980 . S
O170 C115 1.426 . S
O170 C116 1.334 . S
O171 C143 1.412 . S
O171 C144 1.393 . S
O172 C134 1.435 . S
O172 C169 1.458 . S
O173 C125 1.468 . S
O173 C126 1.408 . S
H174 C115 0.980 . S
H175 C114 0.959 . S
H176 C114 0.959 . S
H177 C114 0.960 . S
H178 C117 0.929 . S
H179 C121 0.929 . S
H180 C122 0.959 . S
H181 C122 0.961 . S
H182 C122 0.961 . S
H183 C123 0.960 . S
H184 C123 0.960 . S
H185 C123 0.961 . S
H186 C125 0.980 . S
H187 C124 0.961 . S
H188 C124 0.960 . S
H189 C124 0.959 . S
H190 C127 0.930 . S
H191 C131 0.931 . S
H192 C132 0.959 . S
H193 C132 0.961 . S
H194 C132 0.959 . S
H195 C133 0.960 . S
H196 C133 0.960 . S
H197 C133 0.960 . S
H198 C169 0.980 . S
H199 C135 0.930 . S
H200 C139 0.930 . S
H201 C140 0.961 . S
H202 C140 0.960 . S
H203 C140 0.958 . S
H204 C141 0.961 1_556 S
H205 C141 0.960 . S
H206 C141 0.960 1_556 S
H207 C143 0.980 . S
H208 C142 0.961 . S
H209 C142 0.961 . S
H210 C142 0.959 . S
H211 C145 0.932 . S
H212 C149 0.929 . S
H213 C150 0.961 . S
H214 C150 0.959 1_556 S
H215 C150 0.959 . S
H216 C151 0.960 1_556 S
H217 C151 0.962 . S
H218 C151 0.961 . S
H219 C153 0.929 . S
H220 C156 0.930 . S
H221 C157 0.929 . S
H222 C160 0.930 1_556 S
H223 C163 0.929 . S
H224 C164 0.930 . S
H225 C168 0.962 . S
H226 C168 0.959 . S
H227 C168 0.958 . S
C228 C229 1.560 . S
C228 H289 0.959 . S
C228 H290 0.959 . S
C228 H291 0.960 . S
C229 C228 1.560 . S
C229 O284 1.426 . S
C229 H288 0.980 . S
C230 C231 1.407 . S
C230 C235 1.418 . S
C230 O284 1.334 . S
C231 C230 1.407 . S
C231 C232 1.360 . S
C231 H292 0.929 . S
C232 C231 1.360 . S
C232 C233 1.401 . S
C232 C236 1.527 . S
C233 C232 1.401 . S
C233 C234 1.405 . S
C233 C266 1.587 . S
C234 C233 1.405 . S
C234 C235 1.332 . S
C234 C237 1.496 . S
C235 C230 1.418 . S
C235 C234 1.332 . S
C235 H293 0.929 . S
C236 C232 1.527 . S
C236 H294 0.959 . S
C236 H295 0.961 . S
C236 H296 0.961 . S
C237 C234 1.496 . S
C237 H297 0.960 . S
C237 H298 0.960 . S
C237 H299 0.961 . S
C238 C239 1.517 . S
C238 H301 0.961 . S
C238 H302 0.960 . S
C238 H303 0.959 . S
C239 C238 1.517 . S
C239 O287 1.468 . S
C239 H300 0.980 . S
C240 C241 1.349 . S
C240 C245 1.367 . S
C240 O287 1.408 . S
C241 C240 1.349 . S
C241 C242 1.407 . S
C241 H304 0.930 . S
C242 C241 1.407 . S
C242 C243 1.449 . S
C242 C246 1.535 . S
C243 C242 1.449 . S
C243 C244 1.384 . S
C243 C268 1.553 . S
C244 C243 1.384 . S
C244 C245 1.364 . S
C244 C247 1.450 . S
C245 C240 1.367 . S
C245 C244 1.364 . S
C245 H305 0.931 . S
C246 C242 1.535 . S
C246 H306 0.959 . S
C246 H307 0.961 . S
C246 H308 0.959 . S
C247 C244 1.450 . S
C247 H309 0.960 . S
C247 H310 0.960 . S
C247 H311 0.960 . S
C248 C249 1.309 . S
C248 C253 1.304 . S
C248 O286 1.435 . S
C249 C248 1.309 . S
C249 C250 1.476 . S
C249 H313 0.930 . S
C250 C249 1.476 . S
C250 C251 1.400 . S
C250 C254 1.567 . S
C251 C250 1.400 . S
C251 C252 1.373 . S
C251 C273 1.432 . S
C252 C251 1.373 . S
C252 C253 1.339 . S
C252 C255 1.530 . S
C253 C248 1.304 . S
C253 C252 1.339 . S
C253 H314 0.930 . S
C254 C250 1.567 . S
C254 H315 0.961 . S
C254 H316 0.960 . S
C254 H317 0.958 . S
C255 C252 1.530 . S
C255 H318 0.961 . S
C255 H319 0.960 . S
C255 H320 0.960 . S
C256 C257 1.530 . S
C256 H322 0.961 . S
C256 H323 0.961 . S
C256 H324 0.959 . S
C257 C256 1.530 . S
C257 O285 1.412 . S
C257 H321 0.980 . S
C258 C259 1.288 . S
C258 C263 1.377 . S
C258 O285 1.393 . S
C259 C258 1.288 . S
C259 C260 1.369 . S
C259 H325 0.932 . S
C260 C259 1.369 . S
C260 C261 1.398 . S
C260 C264 1.527 . S
C261 C260 1.398 . S
C261 C262 1.380 . S
C261 C275 1.497 . S
C262 C261 1.380 . S
C262 C263 1.383 . S
C262 C265 1.603 . S
C263 C258 1.377 . S
C263 C262 1.383 . S
C263 H326 0.929 . S
C264 C260 1.527 . S
C264 H327 0.961 . S
C264 H328 0.959 . S
C264 H329 0.959 . S
C265 C262 1.603 . S
C265 H330 0.960 . S
C265 H331 0.962 . S
C265 H332 0.961 . S
C266 C233 1.587 . S
C266 C267 1.360 . S
C266 C279 1.412 . S
C267 C266 1.360 . S
C267 C268 1.365 . S
C267 H333 0.929 . S
C268 C243 1.553 . S
C268 C267 1.365 . S
C268 C269 1.404 . S
C269 C268 1.404 . S
C269 C270 1.395 . S
C269 C280 1.451 . S
C270 C269 1.395 . S
C270 C271 1.322 . S
C270 H334 0.930 . S
C271 C270 1.322 . S
C271 C272 1.459 1_554 S
C271 H335 0.929 . S
C272 C271 1.459 1_556 S
C272 C273 1.445 . S
C272 C281 1.395 1_556 S
C273 C251 1.432 . S
C273 C272 1.445 . S
C273 C274 1.370 . S
C274 C273 1.370 . S
C274 C275 1.438 . S
C274 H336 0.930 . S
C275 C261 1.497 . S
C275 C274 1.438 . S
C275 C276 1.360 . S
C276 C275 1.360 . S
C276 C277 1.401 1_556 S
C276 C281 1.446 1_556 S
C277 C276 1.401 1_554 S
C277 C278 1.347 . S
C277 H337 0.929 1_554 S
C278 C277 1.347 . S
C278 C279 1.455 . S
C278 H338 0.930 . S
C279 C266 1.412 . S
C279 C278 1.455 . S
C279 C280 1.331 . S
C280 C269 1.451 . S
C280 C279 1.331 . S
C280 C281 1.497 . S
C281 C272 1.395 1_554 S
C281 C276 1.446 1_554 S
C281 C280 1.497 . S
C282 C283 1.582 . S
C282 H339 0.962 . S
C282 H340 0.959 . S
C282 H341 0.958 . S
C283 C282 1.582 . S
C283 O286 1.458 . S
C283 H312 0.980 . S
O284 C229 1.426 . S
O284 C230 1.334 . S
O285 C257 1.412 . S
O285 C258 1.393 . S
O286 C248 1.435 . S
O286 C283 1.458 . S
O287 C239 1.468 . S
O287 C240 1.408 . S
H288 C229 0.980 . S
H289 C228 0.959 . S
H290 C228 0.959 . S
H291 C228 0.960 . S
H292 C231 0.929 . S
H293 C235 0.929 . S
H294 C236 0.959 . S
H295 C236 0.961 . S
H296 C236 0.961 . S
H297 C237 0.960 . S
H298 C237 0.960 . S
H299 C237 0.961 . S
H300 C239 0.980 . S
H301 C238 0.961 . S
H302 C238 0.960 . S
H303 C238 0.959 . S
H304 C241 0.930 . S
H305 C245 0.931 . S
H306 C246 0.959 . S
H307 C246 0.961 . S
H308 C246 0.959 . S
H309 C247 0.960 . S
H310 C247 0.960 . S
H311 C247 0.960 . S
H312 C283 0.980 . S
H313 C249 0.930 . S
H314 C253 0.930 . S
H315 C254 0.961 . S
H316 C254 0.960 . S
H317 C254 0.958 . S
H318 C255 0.961 . S
H319 C255 0.960 . S
H320 C255 0.960 . S
H321 C257 0.980 . S
H322 C256 0.961 . S
H323 C256 0.961 . S
H324 C256 0.959 . S
H325 C259 0.932 . S
H326 C263 0.929 . S
H327 C264 0.961 . S
H328 C264 0.959 . S
H329 C264 0.959 . S
H330 C265 0.960 . S
H331 C265 0.962 . S
H332 C265 0.961 . S
H333 C267 0.929 . S
H334 C270 0.930 . S
H335 C271 0.929 . S
H336 C274 0.930 . S
H337 C277 0.929 1_556 S
H338 C278 0.930 . S
H339 C282 0.962 . S
H340 C282 0.959 . S
H341 C282 0.958 . S
C342 C343 1.560 . S
C342 H403 0.959 . S
C342 H404 0.959 . S
C342 H405 0.960 . S
C343 C342 1.560 . S
C343 O398 1.426 . S
C343 H402 0.980 . S
C344 C345 1.407 . S
C344 C349 1.418 . S
C344 O398 1.334 . S
C345 C344 1.407 . S
C345 C346 1.360 . S
C345 H406 0.929 . S
C346 C345 1.360 . S
C346 C347 1.401 . S
C346 C350 1.527 . S
C347 C346 1.401 . S
C347 C348 1.405 . S
C347 C380 1.587 . S
C348 C347 1.405 . S
C348 C349 1.332 . S
C348 C351 1.496 . S
C349 C344 1.418 . S
C349 C348 1.332 . S
C349 H407 0.929 . S
C350 C346 1.527 . S
C350 H408 0.959 . S
C350 H409 0.961 . S
C350 H410 0.961 . S
C351 C348 1.496 . S
C351 H411 0.960 . S
C351 H412 0.960 . S
C351 H413 0.961 . S
C352 C353 1.517 . S
C352 H415 0.961 . S
C352 H416 0.960 . S
C352 H417 0.959 . S
C353 C352 1.517 . S
C353 O401 1.468 . S
C353 H414 0.980 . S
C354 C355 1.349 . S
C354 C359 1.367 . S
C354 O401 1.408 . S
C355 C354 1.349 . S
C355 C356 1.407 . S
C355 H418 0.930 . S
C356 C355 1.407 . S
C356 C357 1.449 . S
C356 C360 1.535 . S
C357 C356 1.449 . S
C357 C358 1.384 . S
C357 C382 1.553 . S
C358 C357 1.384 . S
C358 C359 1.364 . S
C358 C361 1.450 . S
C359 C354 1.367 . S
C359 C358 1.364 . S
C359 H419 0.931 . S
C360 C356 1.535 . S
C360 H420 0.959 . S
C360 H421 0.961 . S
C360 H422 0.959 . S
C361 C358 1.450 . S
C361 H423 0.960 . S
C361 H424 0.960 . S
C361 H425 0.960 . S
C362 C363 1.309 . S
C362 C367 1.304 . S
C362 O400 1.435 . S
C363 C362 1.309 . S
C363 C364 1.476 . S
C363 H427 0.930 . S
C364 C363 1.476 . S
C364 C365 1.400 . S
C364 C368 1.567 . S
C365 C364 1.400 . S
C365 C366 1.373 . S
C365 C387 1.432 . S
C366 C365 1.373 . S
C366 C367 1.339 . S
C366 C369 1.530 . S
C367 C362 1.304 . S
C367 C366 1.339 . S
C367 H428 0.930 . S
C368 C364 1.567 . S
C368 H429 0.980 . S
C368 H430 0.960 . S
C368 H431 0.958 . S
C369 C366 1.530 . S
C369 H432 0.961 . S
C369 H433 0.960 . S
C369 H434 0.960 . S
C370 C371 1.530 . S
C370 H436 0.961 . S
C370 H437 0.961 . S
C370 H438 0.959 . S
C371 C370 1.530 . S
C371 O399 1.412 . S
C371 H435 0.980 . S
C372 C373 1.288 . S
C372 C377 1.377 . S
C372 O399 1.393 . S
C373 C372 1.288 . S
C373 C374 1.369 . S
C373 H439 0.932 . S
C374 C373 1.369 . S
C374 C375 1.398 . S
C374 C378 1.527 . S
C375 C374 1.398 . S
C375 C376 1.380 . S
C375 C389 1.497 . S
C376 C375 1.380 . S
C376 C377 1.383 . S
C376 C379 1.603 . S
C377 C372 1.377 . S
C377 C376 1.383 . S
C377 H440 0.929 . S
C378 C374 1.527 . S
C378 H441 0.961 . S
C378 H442 0.959 . S
C378 H443 0.959 . S
C379 C376 1.603 . S
C379 H444 0.960 . S
C379 H445 0.962 . S
C379 H446 0.961 . S
C380 C347 1.587 . S
C380 C381 1.360 . S
C380 C393 1.412 . S
C381 C380 1.360 . S
C381 C382 1.365 . S
C381 H447 0.929 . S
C382 C357 1.553 . S
C382 C381 1.365 . S
C382 C383 1.404 . S
C383 C382 1.404 . S
C383 C384 1.395 . S
C383 C394 1.451 . S
C384 C383 1.395 . S
C384 C385 1.322 . S
C384 H448 0.930 . S
C385 C384 1.322 . S
C385 C386 1.459 . S
C385 H449 0.929 . S
C386 C385 1.459 . S
C386 C387 1.445 1_554 S
C386 C395 1.395 . S
C387 C365 1.432 . S
C387 C386 1.445 1_556 S
C387 C388 1.370 . S
C388 C387 1.370 . S
C388 C389 1.438 . S
C388 H450 0.930 . S
C389 C375 1.497 . S
C389 C388 1.438 . S
C389 C390 1.360 1_556 S
C390 C389 1.360 1_554 S
C390 C391 1.401 . S
C390 C395 1.446 . S
C391 C390 1.401 . S
C391 C392 1.347 . S
C391 H451 0.929 . S
C392 C391 1.347 . S
C392 C393 1.455 . S
C392 H452 0.930 . S
C393 C380 1.412 . S
C393 C392 1.455 . S
C393 C394 1.331 . S
C394 C383 1.451 . S
C394 C393 1.331 . S
C394 C395 1.497 . S
C395 C386 1.395 . S
C395 C390 1.446 . S
C395 C394 1.497 . S
C396 C397 1.582 . S
C396 H453 0.962 . S
C396 H454 0.959 . S
C396 H455 0.958 . S
C397 C396 1.582 . S
C397 O400 1.458 . S
C397 H426 0.980 . S
O398 C343 1.426 . S
O398 C344 1.334 . S
O399 C371 1.412 . S
O399 C372 1.393 . S
O400 C362 1.435 . S
O400 C397 1.458 . S
O401 C353 1.468 . S
O401 C354 1.408 . S
H402 C343 0.980 . S
H403 C342 0.959 . S
H404 C342 0.959 . S
H405 C342 0.960 . S
H406 C345 0.929 . S
H407 C349 0.929 . S
H408 C350 0.959 . S
H409 C350 0.961 . S
H410 C350 0.961 . S
H411 C351 0.960 . S
H412 C351 0.960 . S
H413 C351 0.961 . S
H414 C353 0.980 . S
H415 C352 0.961 . S
H416 C352 0.960 . S
H417 C352 0.959 . S
H418 C355 0.930 . S
H419 C359 0.931 . S
H420 C360 0.959 . S
H421 C360 0.961 . S
H422 C360 0.959 . S
H423 C361 0.960 . S
H424 C361 0.960 . S
H425 C361 0.960 . S
H426 C397 0.980 . S
H427 C363 0.930 . S
H428 C367 0.930 . S
H429 C368 0.980 . S
H430 C368 0.960 . S
H431 C368 0.958 . S
H432 C369 0.961 . S
H433 C369 0.960 . S
H434 C369 0.960 . S
H435 C371 0.980 . S
H436 C370 0.961 . S
H437 C370 0.961 . S
H438 C370 0.959 . S
H439 C373 0.932 . S
H440 C377 0.929 . S
H441 C378 0.961 . S
H442 C378 0.959 . S
H443 C378 0.959 . S
H444 C379 0.960 . S
H445 C379 0.962 . S
H446 C379 0.961 . S
H447 C381 0.929 . S
H448 C384 0.930 . S
H449 C385 0.929 . S
H450 C388 0.930 . S
H451 C391 0.929 . S
H452 C392 0.930 . S
H453 C396 0.962 . S
H454 C396 0.959 . S
H455 C396 0.958 . S
C456 C457 1.560 . S
C456 H517 0.959 . S
C456 H518 0.959 . S
C456 H519 0.960 . S
C457 C456 1.560 . S
C457 O512 1.426 . S
C457 H516 0.980 . S
C458 C459 1.407 . S
C458 C463 1.418 . S
C458 O512 1.334 . S
C459 C458 1.407 . S
C459 C460 1.360 . S
C459 H520 0.929 . S
C460 C459 1.360 . S
C460 C461 1.401 . S
C460 C464 1.527 . S
C461 C460 1.401 . S
C461 C462 1.405 . S
C461 C494 1.587 . S
C462 C461 1.405 . S
C462 C463 1.332 . S
C462 C465 1.496 . S
C463 C458 1.418 . S
C463 C462 1.332 . S
C463 H521 0.929 . S
C464 C460 1.527 . S
C464 H522 0.959 . S
C464 H523 0.961 . S
C464 H524 0.961 . S
C465 C462 1.496 . S
C465 H525 0.960 . S
C465 H526 0.960 . S
C465 H527 0.961 1_556 S
C466 C467 1.517 . S
C466 H529 0.961 . S
C466 H530 0.960 . S
C466 H531 0.959 . S
C467 C466 1.517 . S
C467 O515 1.468 . S
C467 H528 0.980 . S
C468 C469 1.349 . S
C468 C473 1.367 . S
C468 O515 1.408 . S
C469 C468 1.349 . S
C469 C470 1.407 . S
C469 H532 0.930 . S
C470 C469 1.407 . S
C470 C471 1.449 . S
C470 C474 1.535 . S
C471 C470 1.449 . S
C471 C472 1.384 . S
C471 C496 1.553 . S
C472 C471 1.384 . S
C472 C473 1.364 . S
C472 C475 1.450 . S
C473 C468 1.367 . S
C473 C472 1.364 . S
C473 H533 0.931 . S
C474 C470 1.535 . S
C474 H534 0.959 . S
C474 H535 0.961 . S
C474 H536 0.959 . S
C475 C472 1.450 . S
C475 H537 0.960 . S
C475 H538 0.960 . S
C475 H539 0.960 1_556 S
C476 C477 1.309 . S
C476 C481 1.304 . S
C476 O514 1.435 . S
C477 C476 1.309 . S
C477 C478 1.476 . S
C477 H541 0.930 . S
C478 C477 1.476 . S
C478 C479 1.400 . S
C478 C482 1.567 . S
C479 C478 1.400 . S
C479 C480 1.373 . S
C479 C501 1.432 . S
C480 C479 1.373 . S
C480 C481 1.339 . S
C480 C483 1.530 . S
C481 C476 1.304 . S
C481 C480 1.339 . S
C481 H542 0.930 . S
C482 C478 1.567 . S
C482 H543 0.961 . S
C482 H544 0.960 . S
C482 H545 0.958 . S
C483 C480 1.530 . S
C483 H546 0.961 . S
C483 H547 0.960 . S
C483 H548 0.960 . S
C484 C485 1.530 . S
C484 H550 0.961 . S
C484 H551 0.961 . S
C484 H552 0.959 . S
C485 C484 1.530 . S
C485 O513 1.412 . S
C485 H549 0.980 . S
C486 C487 1.288 . S
C486 C491 1.377 . S
C486 O513 1.393 . S
C487 C486 1.288 . S
C487 C488 1.369 . S
C487 H553 0.932 . S
C488 C487 1.369 . S
C488 C489 1.398 . S
C488 C492 1.527 . S
C489 C488 1.398 . S
C489 C490 1.380 . S
C489 C503 1.497 . S
C490 C489 1.380 . S
C490 C491 1.383 . S
C490 C493 1.603 . S
C491 C486 1.377 . S
C491 C490 1.383 . S
C491 H554 0.929 . S
C492 C488 1.527 . S
C492 H555 0.961 . S
C492 H556 0.959 . S
C492 H557 0.959 . S
C493 C490 1.603 . S
C493 H558 0.960 . S
C493 H559 0.962 . S
C493 H560 0.961 . S
C494 C461 1.587 . S
C494 C495 1.360 . S
C494 C507 1.412 1_556 S
C495 C494 1.360 . S
C495 C496 1.365 . S
C495 H561 0.929 . S
C496 C471 1.553 . S
C496 C495 1.365 . S
C496 C497 1.404 1_556 S
C497 C496 1.404 1_554 S
C497 C498 1.395 . S
C497 C508 1.451 . S
C498 C497 1.395 . S
C498 C499 1.322 . S
C498 H562 0.930 . S
C499 C498 1.322 . S
C499 C500 1.459 . S
C499 H563 0.929 . S
C500 C499 1.459 . S
C500 C501 1.445 . S
C500 C509 1.395 . S
C501 C479 1.432 . S
C501 C500 1.445 . S
C501 C502 1.370 . S
C502 C501 1.370 . S
C502 C503 1.438 . S
C502 H564 0.930 . S
C503 C489 1.497 . S
C503 C502 1.438 . S
C503 C504 1.360 . S
C504 C503 1.360 . S
C504 C505 1.401 . S
C504 C509 1.446 . S
C505 C504 1.401 . S
C505 C506 1.347 . S
C505 H565 0.929 . S
C506 C505 1.347 . S
C506 C507 1.455 . S
C506 H566 0.930 . S
C507 C494 1.412 1_554 S
C507 C506 1.455 . S
C507 C508 1.331 . S
C508 C497 1.451 . S
C508 C507 1.331 . S
C508 C509 1.497 . S
C509 C500 1.395 . S
C509 C504 1.446 . S
C509 C508 1.497 . S
C510 C511 1.582 . S
C510 H567 0.962 . S
C510 H568 0.959 . S
C510 H569 0.958 . S
C511 C510 1.582 . S
C511 O514 1.458 . S
C511 H540 0.980 . S
O512 C457 1.426 . S
O512 C458 1.334 . S
O513 C485 1.412 . S
O513 C486 1.393 . S
O514 C476 1.435 . S
O514 C511 1.458 . S
O515 C467 1.468 . S
O515 C468 1.408 . S
H516 C457 0.980 . S
H517 C456 0.959 . S
H518 C456 0.959 . S
H519 C456 0.960 . S
H520 C459 0.929 . S
H521 C463 0.929 . S
H522 C464 0.959 . S
H523 C464 0.961 . S
H524 C464 0.961 . S
H525 C465 0.960 . S
H526 C465 0.960 . S
H527 C465 0.961 1_554 S
H528 C467 0.980 . S
H529 C466 0.961 . S
H530 C466 0.960 . S
H531 C466 0.959 . S
H532 C469 0.930 . S
H533 C473 0.931 . S
H534 C474 0.959 . S
H535 C474 0.961 . S
H536 C474 0.959 . S
H537 C475 0.960 . S
H538 C475 0.960 . S
H539 C475 0.960 1_554 S
H540 C511 0.980 . S
H541 C477 0.930 . S
H542 C481 0.930 . S
H543 C482 0.961 . S
H544 C482 0.960 . S
H545 C482 0.958 . S
H546 C483 0.961 . S
H547 C483 0.960 . S
H548 C483 0.960 . S
H549 C485 0.980 . S
H550 C484 0.961 . S
H551 C484 0.961 . S
H552 C484 0.959 . S
H553 C487 0.932 . S
H554 C491 0.929 . S
H555 C492 0.961 . S
H556 C492 0.959 . S
H557 C492 0.959 . S
H558 C493 0.960 . S
H559 C493 0.962 . S
H560 C493 0.961 . S
H561 C495 0.929 . S
H562 C498 0.930 . S
H563 C499 0.929 . S
H564 C502 0.930 . S
H565 C505 0.929 . S
H566 C506 0.930 . S
H567 C510 0.962 . S
H568 C510 0.959 . S
H569 C510 0.958 . S
C570 C571 1.560 . S
C570 H631 0.959 . S
C570 H632 0.959 . S
C570 H633 0.960 . S
C571 C570 1.560 . S
C571 O626 1.426 . S
C571 H630 0.980 . S
C572 C573 1.407 . S
C572 C577 1.418 . S
C572 O626 1.334 . S
C573 C572 1.407 . S
C573 C574 1.360 . S
C573 H634 0.929 . S
C574 C573 1.360 . S
C574 C575 1.401 . S
C574 C578 1.527 . S
C575 C574 1.401 . S
C575 C576 1.405 . S
C575 C608 1.587 . S
C576 C575 1.405 . S
C576 C577 1.332 . S
C576 C579 1.496 . S
C577 C572 1.418 . S
C577 C576 1.332 . S
C577 H635 0.929 . S
C578 C574 1.527 . S
C578 H636 0.959 . S
C578 H637 0.961 . S
C578 H638 0.961 . S
C579 C576 1.496 . S
C579 H639 0.960 . S
C579 H640 0.960 . S
C579 H641 0.961 . S
C580 C581 1.517 . S
C580 H643 0.961 . S
C580 H644 0.960 . S
C580 H645 0.959 . S
C581 C580 1.517 . S
C581 O629 1.468 . S
C581 H642 0.980 . S
C582 C583 1.349 . S
C582 C587 1.367 . S
C582 O629 1.408 . S
C583 C582 1.349 . S
C583 C584 1.407 . S
C583 H646 0.930 . S
C584 C583 1.407 . S
C584 C585 1.449 . S
C584 C588 1.535 . S
C585 C584 1.449 . S
C585 C586 1.384 . S
C585 C610 1.553 . S
C586 C585 1.384 . S
C586 C587 1.364 . S
C586 C589 1.450 . S
C587 C582 1.367 . S
C587 C586 1.364 . S
C587 H647 0.931 . S
C588 C584 1.535 . S
C588 H648 0.959 . S
C588 H649 0.961 . S
C588 H650 0.959 . S
C589 C586 1.450 . S
C589 H651 0.960 . S
C589 H652 0.960 . S
C589 H653 0.960 . S
C590 C591 1.309 . S
C590 C595 1.304 . S
C590 O628 1.435 . S
C591 C590 1.309 . S
C591 C592 1.476 . S
C591 H655 0.930 . S
C592 C591 1.476 . S
C592 C593 1.400 . S
C592 C596 1.567 . S
C593 C592 1.400 . S
C593 C594 1.373 . S
C593 C615 1.432 . S
C594 C593 1.373 . S
C594 C595 1.339 . S
C594 C597 1.530 . S
C595 C590 1.304 . S
C595 C594 1.339 . S
C595 H656 0.930 . S
C596 C592 1.567 . S
C596 H657 0.961 . S
C596 H658 0.960 . S
C596 H659 0.958 . S
C597 C594 1.530 . S
C597 H660 0.961 . S
C597 H661 0.960 . S
C597 H662 0.960 . S
C598 C599 1.530 . S
C598 H664 0.961 . S
C598 H665 0.961 . S
C598 H666 0.959 . S
C599 C598 1.530 . S
C599 O627 1.412 . S
C599 H663 0.980 1_556 S
C600 C601 1.288 . S
C600 C605 1.377 . S
C600 O627 1.393 1_554 S
C601 C600 1.288 . S
C601 C602 1.369 . S
C601 H667 0.932 . S
C602 C601 1.369 . S
C602 C603 1.398 . S
C602 C606 1.527 . S
C603 C602 1.398 . S
C603 C604 1.380 . S
C603 C617 1.497 . S
C604 C603 1.380 . S
C604 C605 1.383 . S
C604 C607 1.603 . S
C605 C600 1.377 . S
C605 C604 1.383 . S
C605 H668 0.929 . S
C606 C602 1.527 . S
C606 H669 0.961 . S
C606 H670 0.959 . S
C606 H671 0.959 . S
C607 C604 1.603 . S
C607 H672 0.960 . S
C607 H673 0.962 . S
C607 H674 0.961 . S
C608 C575 1.587 . S
C608 C609 1.360 . S
C608 C621 1.412 . S
C609 C608 1.360 . S
C609 C610 1.365 . S
C609 H675 0.929 . S
C610 C585 1.553 . S
C610 C609 1.365 . S
C610 C611 1.404 . S
C611 C610 1.404 . S
C611 C612 1.395 . S
C611 C622 1.451 . S
C612 C611 1.395 . S
C612 C613 1.322 . S
C612 H676 0.930 . S
C613 C612 1.322 . S
C613 C614 1.459 . S
C613 H677 0.929 . S
C614 C613 1.459 . S
C614 C615 1.445 . S
C614 C623 1.395 . S
C615 C593 1.432 . S
C615 C614 1.445 . S
C615 C616 1.370 . S
C616 C615 1.370 . S
C616 C617 1.438 . S
C616 H678 0.930 . S
C617 C603 1.497 . S
C617 C616 1.438 . S
C617 C618 1.360 . S
C618 C617 1.360 . S
C618 C619 1.401 . S
C618 C623 1.446 . S
C619 C618 1.401 . S
C619 C620 1.347 . S
C619 H679 0.929 . S
C620 C619 1.347 . S
C620 C621 1.455 . S
C620 H680 0.930 . S
C621 C608 1.412 . S
C621 C620 1.455 . S
C621 C622 1.331 . S
C622 C611 1.451 . S
C622 C621 1.331 . S
C622 C623 1.497 . S
C623 C614 1.395 . S
C623 C618 1.446 . S
C623 C622 1.497 . S
C624 C625 1.582 . S
C624 H681 0.962 . S
C624 H682 0.959 . S
C624 H683 0.958 . S
C625 C624 1.582 . S
C625 O628 1.458 1_556 S
C625 H654 0.980 1_556 S
O626 C571 1.426 . S
O626 C572 1.334 . S
O627 C599 1.412 . S
O627 C600 1.393 1_556 S
O628 C590 1.435 . S
O628 C625 1.458 1_554 S
O629 C581 1.468 . S
O629 C582 1.408 . S
H630 C571 0.980 . S
H631 C570 0.959 . S
H632 C570 0.959 . S
H633 C570 0.960 . S
H634 C573 0.929 . S
H635 C577 0.929 . S
H636 C578 0.959 . S
H637 C578 0.961 . S
H638 C578 0.961 . S
H639 C579 0.960 . S
H640 C579 0.960 . S
H641 C579 0.961 . S
H642 C581 0.980 . S
H643 C580 0.961 . S
H644 C580 0.960 . S
H645 C580 0.959 . S
H646 C583 0.930 . S
H647 C587 0.931 . S
H648 C588 0.959 . S
H649 C588 0.961 . S
H650 C588 0.959 . S
H651 C589 0.960 . S
H652 C589 0.960 . S
H653 C589 0.960 . S
H654 C625 0.980 1_554 S
H655 C591 0.930 . S
H656 C595 0.930 . S
H657 C596 0.961 . S
H658 C596 0.960 . S
H659 C596 0.958 . S
H660 C597 0.961 . S
H661 C597 0.960 . S
H662 C597 0.960 . S
H663 C599 0.980 1_554 S
H664 C598 0.961 . S
H665 C598 0.961 . S
H666 C598 0.959 . S
H667 C601 0.932 . S
H668 C605 0.929 . S
H669 C606 0.961 . S
H670 C606 0.959 . S
H671 C606 0.959 . S
H672 C607 0.960 . S
H673 C607 0.962 . S
H674 C607 0.961 . S
H675 C609 0.929 . S
H676 C612 0.930 . S
H677 C613 0.929 . S
H678 C616 0.930 . S
H679 C619 0.929 . S
H680 C620 0.930 . S
H681 C624 0.962 . S
H682 C624 0.959 . S
H683 C624 0.958 . S
C684 O696 1.241 . S
C684 O697 1.280 . S
C685 O698 1.277 . S
C685 O699 1.245 . S
C686 O710 1.247 . S
C686 O712 1.289 . S
Mg687 O688 1.926 . S
Mg687 O697 1.984 1_455 S
Mg687 O699 1.988 . S
Mg687 O700 2.061 1_455 S
O688 Mg687 1.926 . S
O688 Mg689 1.986 . S
O688 Mg690 1.917 . S
Mg689 O688 1.986 . S
Mg689 O696 2.042 1_455 S
Mg689 O698 2.041 . S
Mg689 O704 2.038 1_455 S
Mg689 O712 2.238 . S
Mg690 O688 1.917 . S
Mg690 O691 1.917 . S
Mg690 O701 2.106 1_455 S
Mg690 O703 2.079 1_455 S
Mg690 O712 2.106 . S
Mg690 O713 2.079 . S
O691 Mg690 1.917 . S
O691 Mg692 1.926 . S
O691 Mg693 1.986 . S
Mg692 O691 1.926 . S
Mg692 O706 1.984 . S
Mg692 O709 1.988 1_455 S
Mg692 O710 2.061 . S
Mg693 O691 1.986 . S
Mg693 O701 2.238 1_455 S
Mg693 O705 2.042 . S
Mg693 O707 2.041 1_455 S
Mg693 O714 2.038 . S
C694 O700 1.247 . S
C694 O701 1.289 . S
C695 O713 1.245 . S
C695 O714 1.274 . S
O696 C684 1.241 . S
O696 Mg689 2.042 1_655 S
O697 C684 1.280 . S
O697 Mg687 1.984 1_655 S
O698 C685 1.277 . S
O698 Mg689 2.041 . S
O699 C685 1.245 . S
O699 Mg687 1.988 . S
O700 Mg687 2.061 1_655 S
O700 C694 1.247 . S
O701 Mg690 2.106 1_655 S
O701 Mg693 2.238 1_655 S
O701 C694 1.289 . S
C702 O703 1.245 . S
C702 O704 1.274 . S
O703 Mg690 2.079 1_655 S
O703 C702 1.245 . S
O704 Mg689 2.038 1_655 S
O704 C702 1.274 . S
O705 Mg693 2.042 . S
O705 C708 1.241 . S
O706 Mg692 1.984 . S
O706 C708 1.280 . S
O707 Mg693 2.041 1_655 S
O707 C711 1.277 . S
C708 O705 1.241 . S
C708 O706 1.280 . S
O709 Mg692 1.988 1_655 S
O709 C711 1.245 . S
O710 C686 1.247 . S
O710 Mg692 2.061 . S
C711 O707 1.277 . S
C711 O709 1.245 . S
O712 C686 1.289 . S
O712 Mg689 2.238 . S
O712 Mg690 2.106 . S
O713 Mg690 2.079 . S
O713 C695 1.245 . S
O714 Mg693 2.038 . S
O714 C695 1.274 . S
C715 O727 1.241 . S
C715 O728 1.280 . S
C716 O729 1.277 . S
C716 O730 1.245 . S
C717 O741 1.247 . S
C717 O743 1.289 . S
Mg718 O719 1.926 . S
Mg718 O728 1.984 . S
Mg718 O730 1.988 1_545 S
Mg718 O731 2.061 . S
O719 Mg718 1.926 . S
O719 Mg720 1.986 . S
O719 Mg721 1.917 . S
Mg720 O719 1.986 . S
Mg720 O727 2.042 . S
Mg720 O729 2.041 1_545 S
Mg720 O735 2.038 . S
Mg720 O743 2.238 1_545 S
Mg721 O719 1.917 . S
Mg721 O722 1.917 . S
Mg721 O732 2.106 . S
Mg721 O734 2.079 . S
Mg721 O743 2.106 1_545 S
Mg721 O744 2.079 1_545 S
O722 Mg721 1.917 . S
O722 Mg723 1.895 1_545 S
O722 Mg724 1.986 . S
Mg723 O722 1.895 1_565 S
Mg723 O737 2.014 . S
Mg723 O740 1.947 1_565 S
Mg723 O741 2.080 . S
Mg724 O722 1.986 . S
Mg724 O732 2.238 . S
Mg724 O736 2.042 1_545 S
Mg724 O738 2.041 . S
Mg724 O745 2.038 1_545 S
C725 O731 1.247 . S
C725 O732 1.289 . S
C726 O744 1.245 . S
C726 O745 1.274 . S
O727 C715 1.241 . S
O727 Mg720 2.042 . S
O728 C715 1.280 . S
O728 Mg718 1.984 . S
O729 C716 1.277 . S
O729 Mg720 2.041 1_565 S
O730 C716 1.245 . S
O730 Mg718 1.988 1_565 S
O731 Mg718 2.061 . S
O731 C725 1.247 . S
O732 Mg721 2.106 . S
O732 Mg724 2.238 . S
O732 C725 1.289 . S
C733 O734 1.245 . S
C733 O735 1.274 . S
O734 Mg721 2.079 . S
O734 C733 1.245 . S
O735 Mg720 2.038 . S
O735 C733 1.274 . S
O736 Mg724 2.042 1_565 S
O736 C739 1.241 . S
O737 Mg723 2.014 . S
O737 C739 1.280 . S
O738 Mg724 2.041 . S
O738 C742 1.277 . S
C739 O736 1.241 . S
C739 O737 1.280 . S
O740 Mg723 1.947 1_545 S
O740 C742 1.245 . S
O741 C717 1.247 . S
O741 Mg723 2.080 . S
C742 O738 1.277 . S
C742 O740 1.245 . S
O743 C717 1.289 . S
O743 Mg720 2.238 1_565 S
O743 Mg721 2.106 1_565 S
O744 Mg721 2.079 1_565 S
O744 C726 1.245 . S
O745 Mg724 2.038 1_565 S
O745 C726 1.274 . S
C746 O758 1.241 . S
C746 O759 1.280 . S
C747 O760 1.277 . S
C747 O761 1.245 . S
C748 O772 1.247 . S
C748 O774 1.289 . S
Mg749 O750 1.926 . S
Mg749 O759 1.984 . S
Mg749 O761 1.988 . S
Mg749 O762 2.061 . S
O750 Mg749 1.926 . S
O750 Mg751 1.986 . S
O750 Mg752 1.917 . S
Mg751 O750 1.986 . S
Mg751 O758 2.042 . S
Mg751 O760 2.041 . S
Mg751 O766 2.038 . S
Mg751 O774 2.238 . S
Mg752 O750 1.917 . S
Mg752 O753 1.917 . S
Mg752 O763 2.106 . S
Mg752 O765 2.079 . S
Mg752 O774 2.106 . S
Mg752 O775 2.079 . S
O753 Mg752 1.917 . S
O753 Mg754 1.926 . S
O753 Mg755 1.986 . S
Mg754 O753 1.926 . S
Mg754 O768 1.984 . S
Mg754 O771 1.988 . S
Mg754 O772 2.061 . S
Mg755 O753 1.986 . S
Mg755 O763 2.238 . S
Mg755 O767 2.042 . S
Mg755 O769 2.041 . S
Mg755 O776 2.038 . S
C756 O762 1.247 . S
C756 O763 1.289 . S
C757 O775 1.245 . S
C757 O776 1.274 . S
O758 C746 1.241 . S
O758 Mg751 2.042 . S
O759 C746 1.280 . S
O759 Mg749 1.984 . S
O760 C747 1.277 . S
O760 Mg751 2.041 . S
O761 C747 1.245 . S
O761 Mg749 1.988 . S
O762 Mg749 2.061 . S
O762 C756 1.247 . S
O763 Mg752 2.106 . S
O763 Mg755 2.238 . S
O763 C756 1.289 . S
C764 O765 1.245 . S
C764 O766 1.274 . S
O765 Mg752 2.079 . S
O765 C764 1.245 . S
O766 Mg751 2.038 . S
O766 C764 1.274 . S
O767 Mg755 2.042 . S
O767 C770 1.241 . S
O768 Mg754 1.984 . S
O768 C770 1.280 . S
O769 Mg755 2.041 . S
O769 C773 1.277 . S
C770 O767 1.241 . S
C770 O768 1.280 . S
O771 Mg754 1.988 . S
O771 C773 1.245 . S
O772 C748 1.247 . S
O772 Mg754 2.061 . S
C773 O769 1.277 . S
C773 O771 1.245 . S
O774 C748 1.289 . S
O774 Mg751 2.238 . S
O774 Mg752 2.106 . S
O775 Mg752 2.079 . S
O775 C757 1.245 . S
O776 Mg755 2.038 . S
O776 C757 1.274 . S
H777 C789 0.930 . S
H778 C791 0.930 . S
H779 C792 0.930 . S
H780 C796 0.959 . S
H781 C796 0.959 . S
H782 C796 0.961 . S
H783 C797 0.960 . S
H784 C797 0.961 . S
H785 C797 0.959 . S
H786 C800 0.929 . S
H787 C801 0.931 . S
H788 C803 0.930 . S
C789 H777 0.930 . S
C789 C790 1.399 . S
C789 C794 1.399 . S
C790 C789 1.399 . S
C790 C791 1.376 . S
C791 H778 0.930 . S
C791 C790 1.376 . S
C791 C792 1.388 . S
C792 H779 0.930 . S
C792 C791 1.388 . S
C792 C793 1.390 . S
C793 C792 1.390 . S
C793 C794 1.394 . S
C793 C799 1.465 . S
C794 C789 1.399 . S
C794 C793 1.394 . S
C794 C795 1.516 . S
C795 C794 1.516 . S
C795 C796 1.502 . S
C795 C797 1.561 . S
C795 C798 1.526 . S
C796 H780 0.959 . S
C796 H781 0.959 . S
C796 H782 0.961 . S
C796 C795 1.502 . S
C797 H783 0.960 . S
C797 H784 0.961 . S
C797 H785 0.959 . S
C797 C795 1.561 . S
C798 C795 1.526 . S
C798 C799 1.396 . S
C798 C803 1.390 . S
C799 C793 1.465 . S
C799 C798 1.396 . S
C799 C800 1.399 . S
C800 H786 0.929 . S
C800 C799 1.399 . S
C800 C801 1.385 . S
C801 H787 0.931 . S
C801 C800 1.385 . S
C801 C802 1.389 . S
C802 C801 1.389 . S
C802 C803 1.387 . S
C803 H788 0.930 . S
C803 C798 1.390 . S
C803 C802 1.387 . S
H804 C816 0.930 . S
H805 C818 0.930 . S
H806 C819 0.930 . S
H807 C823 0.959 . S
H808 C823 0.959 . S
H809 C823 0.961 . S
H810 C824 0.960 . S
H811 C824 0.961 . S
H812 C824 0.959 . S
H813 C827 0.929 . S
H814 C828 0.931 . S
H815 C830 0.930 . S
C816 H804 0.930 . S
C816 C817 1.399 . S
C816 C821 1.399 . S
C817 C816 1.399 . S
C817 C818 1.376 . S
C818 H805 0.930 . S
C818 C817 1.376 . S
C818 C819 1.388 . S
C819 H806 0.930 . S
C819 C818 1.388 . S
C819 C820 1.390 . S
C820 C819 1.390 . S
C820 C821 1.394 . S
C820 C826 1.465 . S
C821 C816 1.399 . S
C821 C820 1.394 . S
C821 C822 1.516 . S
C822 C821 1.516 . S
C822 C823 1.502 . S
C822 C824 1.561 . S
C822 C825 1.526 . S
C823 H807 0.959 . S
C823 H808 0.959 . S
C823 H809 0.961 . S
C823 C822 1.502 . S
C824 H810 0.960 . S
C824 H811 0.961 . S
C824 H812 0.959 . S
C824 C822 1.561 . S
C825 C822 1.526 . S
C825 C826 1.396 . S
C825 C830 1.390 . S
C826 C820 1.465 . S
C826 C825 1.396 . S
C826 C827 1.399 . S
C827 H813 0.929 . S
C827 C826 1.399 . S
C827 C828 1.385 . S
C828 H814 0.931 . S
C828 C827 1.385 . S
C828 C829 1.389 . S
C829 C828 1.389 . S
C829 C830 1.387 . S
C830 H815 0.930 . S
C830 C825 1.390 . S
C830 C829 1.387 . S
H831 C843 0.930 . S
H832 C845 0.930 . S
H833 C846 0.930 . S
H834 C850 0.959 . S
H835 C850 0.959 . S
H836 C850 0.961 . S
H837 C851 0.960 . S
H838 C851 0.961 . S
H839 C851 0.959 . S
H840 C854 0.929 . S
H841 C855 0.931 . S
H842 C857 0.930 . S
C843 H831 0.930 . S
C843 C844 1.399 . S
C843 C848 1.399 . S
C844 C843 1.399 . S
C844 C845 1.376 . S
C845 H832 0.930 . S
C845 C844 1.376 . S
C845 C846 1.388 . S
C846 H833 0.930 . S
C846 C845 1.388 . S
C846 C847 1.390 . S
C847 C846 1.390 . S
C847 C848 1.394 . S
C847 C853 1.465 . S
C848 C843 1.399 . S
C848 C847 1.394 . S
C848 C849 1.516 . S
C849 C848 1.516 . S
C849 C850 1.502 . S
C849 C851 1.561 . S
C849 C852 1.526 . S
C850 H834 0.959 . S
C850 H835 0.959 . S
C850 H836 0.961 . S
C850 C849 1.502 . S
C851 H837 0.960 . S
C851 H838 0.961 . S
C851 H839 0.959 . S
C851 C849 1.561 . S
C852 C849 1.526 . S
C852 C853 1.396 . S
C852 C857 1.390 . S
C853 C847 1.465 . S
C853 C852 1.396 . S
C853 C854 1.399 . S
C854 H840 0.929 . S
C854 C853 1.399 . S
C854 C855 1.385 . S
C855 H841 0.931 . S
C855 C854 1.385 . S
C855 C856 1.389 . S
C856 C855 1.389 . S
C856 C857 1.387 . S
C857 H842 0.930 . S
C857 C852 1.390 . S
C857 C856 1.387 . S
H858 C870 0.930 . S
H859 C872 0.930 . S
H860 C873 0.930 . S
H861 C877 0.959 . S
H862 C877 0.959 . S
H863 C877 0.961 . S
H864 C878 0.960 . S
H865 C878 0.961 . S
H866 C878 0.959 . S
H867 C881 0.929 . S
H868 C882 0.931 . S
H869 C884 0.930 . S
C870 H858 0.930 . S
C870 C871 1.399 . S
C870 C875 1.399 . S
C871 C870 1.399 . S
C871 C872 1.376 . S
C872 H859 0.930 . S
C872 C871 1.376 . S
C872 C873 1.388 . S
C873 H860 0.930 . S
C873 C872 1.388 . S
C873 C874 1.390 . S
C874 C873 1.390 . S
C874 C875 1.394 . S
C874 C880 1.465 . S
C875 C870 1.399 . S
C875 C874 1.394 . S
C875 C876 1.516 . S
C876 C875 1.516 . S
C876 C877 1.502 . S
C876 C878 1.561 . S
C876 C879 1.526 . S
C877 H861 0.959 . S
C877 H862 0.959 . S
C877 H863 0.961 . S
C877 C876 1.502 . S
C878 H864 0.960 . S
C878 H865 0.961 . S
C878 H866 0.959 . S
C878 C876 1.561 . S
C879 C876 1.526 . S
C879 C880 1.396 . S
C879 C884 1.390 . S
C880 C874 1.465 . S
C880 C879 1.396 . S
C880 C881 1.399 . S
C881 H867 0.929 . S
C881 C880 1.399 . S
C881 C882 1.385 . S
C882 H868 0.931 . S
C882 C881 1.385 . S
C882 C883 1.389 . S
C883 C882 1.389 . S
C883 C884 1.387 . S
C884 H869 0.930 . S
C884 C879 1.390 . S
C884 C883 1.387 . S
H885 C897 0.930 . S
H886 C899 0.930 . S
H887 C900 0.930 . S
H888 C904 0.959 . S
H889 C904 0.959 . S
H890 C904 0.961 . S
H891 C905 0.960 . S
H892 C905 0.961 . S
H893 C905 0.959 . S
H894 C908 0.929 . S
H895 C909 0.931 . S
H896 C911 0.930 . S
C897 H885 0.930 . S
C897 C898 1.399 . S
C897 C902 1.399 . S
C898 C897 1.399 . S
C898 C899 1.376 . S
C899 H886 0.930 . S
C899 C898 1.376 . S
C899 C900 1.388 . S
C900 H887 0.930 . S
C900 C899 1.388 . S
C900 C901 1.390 . S
C901 C900 1.390 . S
C901 C902 1.394 . S
C901 C907 1.465 . S
C902 C897 1.399 . S
C902 C901 1.394 . S
C902 C903 1.516 . S
C903 C902 1.516 . S
C903 C904 1.502 . S
C903 C905 1.561 . S
C903 C906 1.526 . S
C904 H888 0.959 . S
C904 H889 0.959 . S
C904 H890 0.961 . S
C904 C903 1.502 . S
C905 H891 0.960 . S
C905 H892 0.961 . S
C905 H893 0.959 . S
C905 C903 1.561 . S
C906 C903 1.526 . S
C906 C907 1.396 . S
C906 C911 1.390 . S
C907 C901 1.465 . S
C907 C906 1.396 . S
C907 C908 1.399 . S
C908 H894 0.929 . S
C908 C907 1.399 . S
C908 C909 1.385 . S
C909 H895 0.931 . S
C909 C908 1.385 . S
C909 C910 1.389 . S
C910 C909 1.389 . S
C910 C911 1.387 . S
C911 H896 0.930 . S
C911 C906 1.390 . S
C911 C910 1.387 . S
H912 C924 0.930 . S
H913 C926 0.930 . S
H914 C927 0.930 . S
H915 C931 0.959 . S
H916 C931 0.959 . S
H917 C931 0.961 . S
H918 C932 0.960 . S
H919 C932 0.961 . S
H920 C932 0.959 . S
H921 C935 0.929 . S
H922 C936 0.931 . S
H923 C938 0.930 . S
C924 H912 0.930 . S
C924 C925 1.399 . S
C924 C929 1.399 . S
C925 C924 1.399 . S
C925 C926 1.376 . S
C926 H913 0.930 . S
C926 C925 1.376 . S
C926 C927 1.388 . S
C927 H914 0.930 . S
C927 C926 1.388 . S
C927 C928 1.390 . S
C928 C927 1.390 . S
C928 C929 1.394 . S
C928 C934 1.465 . S
C929 C924 1.399 . S
C929 C928 1.394 . S
C929 C930 1.516 . S
C930 C929 1.516 . S
C930 C931 1.502 . S
C930 C932 1.561 . S
C930 C933 1.526 . S
C931 H915 0.959 . S
C931 H916 0.959 . S
C931 H917 0.961 . S
C931 C930 1.502 . S
C932 H918 0.960 . S
C932 H919 0.961 . S
C932 H920 0.959 . S
C932 C930 1.561 . S
C933 C930 1.526 . S
C933 C934 1.396 . S
C933 C938 1.390 . S
C934 C928 1.465 . S
C934 C933 1.396 . S
C934 C935 1.399 . S
C935 H921 0.929 . S
C935 C934 1.399 . S
C935 C936 1.385 . S
C936 H922 0.931 . S
C936 C935 1.385 . S
C936 C937 1.389 . S
C937 C936 1.389 . S
C937 C938 1.387 . S
C938 H923 0.930 . S
C938 C933 1.390 . S
C938 C937 1.387 . S
H939 C951 0.930 . S
H940 C953 0.930 . S
H941 C954 0.930 . S
H942 C958 0.959 . S
H943 C958 0.959 . S
H944 C958 0.961 . S
H945 C959 0.960 . S
H946 C959 0.961 . S
H947 C959 0.959 . S
H948 C962 0.929 . S
H949 C963 0.931 . S
H950 C965 0.930 . S
C951 H939 0.930 . S
C951 C952 1.399 . S
C951 C956 1.399 . S
C952 C951 1.399 . S
C952 C953 1.376 . S
C953 H940 0.930 . S
C953 C952 1.376 . S
C953 C954 1.388 . S
C954 H941 0.930 . S
C954 C953 1.388 . S
C954 C955 1.390 . S
C955 C954 1.390 . S
C955 C956 1.394 . S
C955 C961 1.465 . S
C956 C951 1.399 . S
C956 C955 1.394 . S
C956 C957 1.516 . S
C957 C956 1.516 . S
C957 C958 1.502 . S
C957 C959 1.561 . S
C957 C960 1.526 . S
C958 H942 0.959 . S
C958 H943 0.959 . S
C958 H944 0.961 . S
C958 C957 1.502 . S
C959 H945 0.960 . S
C959 H946 0.961 . S
C959 H947 0.959 . S
C959 C957 1.561 . S
C960 C957 1.526 . S
C960 C961 1.396 . S
C960 C965 1.390 . S
C961 C955 1.465 . S
C961 C960 1.396 . S
C961 C962 1.399 . S
C962 H948 0.929 . S
C962 C961 1.399 . S
C962 C963 1.385 . S
C963 H949 0.931 . S
C963 C962 1.385 . S
C963 C964 1.389 . S
C964 C963 1.389 . S
C964 C965 1.387 . S
C965 H950 0.930 . S
C965 C960 1.390 . S
C965 C964 1.387 . S
H966 C978 0.930 . S
H967 C980 0.930 . S
H968 C981 0.930 . S
H969 C985 0.959 . S
H970 C985 0.959 . S
H971 C985 0.961 . S
H972 C986 0.960 . S
H973 C986 0.961 . S
H974 C986 0.959 . S
H975 C989 0.929 . S
H976 C990 0.931 . S
H977 C992 0.930 . S
C978 H966 0.930 . S
C978 C979 1.399 . S
C978 C983 1.399 . S
C979 C978 1.399 . S
C979 C980 1.376 . S
C980 H967 0.930 . S
C980 C979 1.376 . S
C980 C981 1.388 . S
C981 H968 0.930 . S
C981 C980 1.388 . S
C981 C982 1.390 . S
C982 C981 1.390 . S
C982 C983 1.394 . S
C982 C988 1.465 . S
C983 C978 1.399 . S
C983 C982 1.394 . S
C983 C984 1.516 . S
C984 C983 1.516 . S
C984 C985 1.502 . S
C984 C986 1.561 . S
C984 C987 1.526 . S
C985 H969 0.959 . S
C985 H970 0.959 . S
C985 H971 0.961 . S
C985 C984 1.502 . S
C986 H972 0.960 . S
C986 H973 0.961 . S
C986 H974 0.959 . S
C986 C984 1.561 . S
C987 C984 1.526 . S
C987 C988 1.396 . S
C987 C992 1.390 . S
C988 C982 1.465 . S
C988 C987 1.396 . S
C988 C989 1.399 . S
C989 H975 0.929 . S
C989 C988 1.399 . S
C989 C990 1.385 . S
C990 H976 0.931 . S
C990 C989 1.385 . S
C990 C991 1.389 . S
C991 C990 1.389 . S
C991 C992 1.387 . S
C992 H977 0.930 . S
C992 C987 1.390 . S
C992 C991 1.387 . S
H993 C1005 0.930 . S
H994 C1007 0.930 . S
H995 C1008 0.930 . S
H996 C1012 0.959 . S
H997 C1012 0.959 . S
H998 C1012 0.961 . S
H999 C1013 0.960 . S
H1000 C1013 0.961 . S
H1001 C1013 0.959 . S
H1002 C1016 0.929 . S
H1003 C1017 0.931 . S
H1004 C1019 0.930 . S
C1005 H993 0.930 . S
C1005 C1006 1.399 . S
C1005 C1010 1.399 . S
C1006 C1005 1.399 . S
C1006 C1007 1.376 . S
C1007 H994 0.930 . S
C1007 C1006 1.376 . S
C1007 C1008 1.388 . S
C1008 H995 0.930 . S
C1008 C1007 1.388 . S
C1008 C1009 1.390 . S
C1009 C1008 1.390 . S
C1009 C1010 1.394 . S
C1009 C1015 1.465 . S
C1010 C1005 1.399 . S
C1010 C1009 1.394 . S
C1010 C1011 1.516 . S
C1011 C1010 1.516 . S
C1011 C1012 1.502 . S
C1011 C1013 1.561 . S
C1011 C1014 1.526 . S
C1012 H996 0.959 . S
C1012 H997 0.959 . S
C1012 H998 0.961 . S
C1012 C1011 1.502 . S
C1013 H999 0.960 . S
C1013 H1000 0.961 . S
C1013 H1001 0.959 . S
C1013 C1011 1.561 . S
C1014 C1011 1.526 . S
C1014 C1015 1.396 . S
C1014 C1019 1.390 . S
C1015 C1009 1.465 . S
C1015 C1014 1.396 . S
C1015 C1016 1.399 . S
C1016 H1002 0.929 . S
C1016 C1015 1.399 . S
C1016 C1017 1.385 . S
C1017 H1003 0.931 . S
C1017 C1016 1.385 . S
C1017 C1018 1.389 . S
C1018 C1017 1.389 . S
C1018 C1019 1.387 . S
C1019 H1004 0.930 . S
C1019 C1014 1.390 . S
C1019 C1018 1.387 . S
H1020 C1032 0.930 . S
H1021 C1034 0.930 1_554 S
H1022 C1035 0.930 . S
H1023 C1039 0.959 . S
H1024 C1039 0.959 . S
H1025 C1039 0.961 . S
H1026 C1040 0.960 . S
H1027 C1040 0.961 . S
H1028 C1040 0.959 . S
H1029 C1043 0.929 . S
H1030 C1044 0.931 . S
H1031 C1046 0.930 . S
C1032 H1020 0.930 . S
C1032 C1033 1.399 . S
C1032 C1037 1.399 . S
C1033 C1032 1.399 . S
C1033 C1034 1.376 . S
C1034 H1021 0.930 1_556 S
C1034 C1033 1.376 . S
C1034 C1035 1.388 . S
C1035 H1022 0.930 . S
C1035 C1034 1.388 . S
C1035 C1036 1.390 . S
C1036 C1035 1.390 . S
C1036 C1037 1.394 . S
C1036 C1042 1.465 . S
C1037 C1032 1.399 . S
C1037 C1036 1.394 . S
C1037 C1038 1.516 . S
C1038 C1037 1.516 . S
C1038 C1039 1.502 . S
C1038 C1040 1.561 . S
C1038 C1041 1.526 . S
C1039 H1023 0.959 . S
C1039 H1024 0.959 . S
C1039 H1025 0.961 . S
C1039 C1038 1.502 . S
C1040 H1026 0.960 . S
C1040 H1027 0.961 . S
C1040 H1028 0.959 . S
C1040 C1038 1.561 . S
C1041 C1038 1.526 . S
C1041 C1042 1.396 . S
C1041 C1046 1.390 . S
C1042 C1036 1.465 . S
C1042 C1041 1.396 . S
C1042 C1043 1.399 . S
C1043 H1029 0.929 . S
C1043 C1042 1.399 . S
C1043 C1044 1.385 . S
C1044 H1030 0.931 . S
C1044 C1043 1.385 . S
C1044 C1045 1.389 . S
C1045 C1044 1.389 . S
C1045 C1046 1.387 . S
C1046 H1031 0.930 . S
C1046 C1041 1.390 . S
C1046 C1045 1.387 . S
H1047 C1059 0.930 . S
H1048 C1061 0.930 . S
H1049 C1062 0.930 . S
H1050 C1066 0.959 . S
H1051 C1066 0.959 . S
H1052 C1066 0.961 . S
H1053 C1067 0.960 . S
H1054 C1067 0.961 . S
H1055 C1067 0.959 . S
H1056 C1070 0.929 . S
H1057 C1071 0.931 . S
H1058 C1073 0.930 . S
C1059 H1047 0.930 . S
C1059 C1060 1.399 . S
C1059 C1064 1.399 . S
C1060 C1059 1.399 . S
C1060 C1061 1.376 . S
C1061 H1048 0.930 . S
C1061 C1060 1.376 . S
C1061 C1062 1.388 . S
C1062 H1049 0.930 . S
C1062 C1061 1.388 . S
C1062 C1063 1.390 . S
C1063 C1062 1.390 . S
C1063 C1064 1.394 . S
C1063 C1069 1.465 . S
C1064 C1059 1.399 . S
C1064 C1063 1.394 . S
C1064 C1065 1.516 . S
C1065 C1064 1.516 . S
C1065 C1066 1.502 . S
C1065 C1067 1.561 . S
C1065 C1068 1.526 . S
C1066 H1050 0.959 . S
C1066 H1051 0.959 . S
C1066 H1052 0.961 . S
C1066 C1065 1.502 . S
C1067 H1053 0.960 . S
C1067 H1054 0.961 . S
C1067 H1055 0.959 . S
C1067 C1065 1.561 . S
C1068 C1065 1.526 . S
C1068 C1069 1.396 . S
C1068 C1073 1.390 . S
C1069 C1063 1.465 . S
C1069 C1068 1.396 . S
C1069 C1070 1.399 . S
C1070 H1056 0.929 . S
C1070 C1069 1.399 . S
C1070 C1071 1.385 . S
C1071 H1057 0.931 . S
C1071 C1070 1.385 . S
C1071 C1072 1.389 . S
C1072 C1071 1.389 . S
C1072 C1073 1.387 . S
C1073 H1058 0.930 . S
C1073 C1068 1.390 . S
C1073 C1072 1.387 . S
H1074 C1086 0.930 . S
H1075 C1088 0.930 . S
H1076 C1089 0.930 . S
H1077 C1093 0.959 . S
H1078 C1093 0.959 . S
H1079 C1093 0.961 . S
H1080 C1094 0.960 . S
H1081 C1094 0.961 . S
H1082 C1094 0.959 . S
H1083 C1097 0.929 . S
H1084 C1098 0.931 . S
H1085 C1100 0.930 . S
C1086 H1074 0.930 . S
C1086 C1087 1.399 . S
C1086 C1091 1.399 . S
C1087 C1086 1.399 . S
C1087 C1088 1.376 . S
C1088 H1075 0.930 . S
C1088 C1087 1.376 . S
C1088 C1089 1.388 . S
C1089 H1076 0.930 . S
C1089 C1088 1.388 . S
C1089 C1090 1.390 . S
C1090 C1089 1.390 . S
C1090 C1091 1.394 . S
C1090 C1096 1.465 . S
C1091 C1086 1.399 . S
C1091 C1090 1.394 . S
C1091 C1092 1.516 . S
C1092 C1091 1.516 . S
C1092 C1093 1.502 . S
C1092 C1094 1.561 . S
C1092 C1095 1.526 . S
C1093 H1077 0.959 . S
C1093 H1078 0.959 . S
C1093 H1079 0.961 . S
C1093 C1092 1.502 . S
C1094 H1080 0.960 . S
C1094 H1081 0.961 . S
C1094 H1082 0.959 . S
C1094 C1092 1.561 . S
C1095 C1092 1.526 . S
C1095 C1096 1.396 . S
C1095 C1100 1.390 . S
C1096 C1090 1.465 . S
C1096 C1095 1.396 . S
C1096 C1097 1.399 . S
C1097 H1083 0.929 . S
C1097 C1096 1.399 . S
C1097 C1098 1.385 . S
C1098 H1084 0.931 . S
C1098 C1097 1.385 . S
C1098 C1099 1.389 . S
C1099 C1098 1.389 . S
C1099 C1100 1.387 . S
C1100 H1085 0.930 . S
C1100 C1095 1.390 . S
C1100 C1099 1.387 . S
H1101 C1113 0.930 . S
H1102 C1115 0.930 . S
H1103 C1116 0.930 . S
H1104 C1120 0.959 . S
H1105 C1120 0.959 . S
H1106 C1120 0.961 . S
H1107 C1121 0.960 . S
H1108 C1121 0.961 . S
H1109 C1121 0.959 . S
H1110 C1124 0.929 . S
H1111 C1125 0.931 . S
H1112 C1127 0.930 . S
C1113 H1101 0.930 . S
C1113 C1114 1.399 . S
C1113 C1118 1.399 . S
C1114 C1113 1.399 . S
C1114 C1115 1.376 . S
C1115 H1102 0.930 . S
C1115 C1114 1.376 . S
C1115 C1116 1.388 . S
C1116 H1103 0.930 . S
C1116 C1115 1.388 . S
C1116 C1117 1.390 . S
C1117 C1116 1.390 . S
C1117 C1118 1.394 . S
C1117 C1123 1.465 . S
C1118 C1113 1.399 . S
C1118 C1117 1.394 . S
C1118 C1119 1.516 . S
C1119 C1118 1.516 . S
C1119 C1120 1.502 . S
C1119 C1121 1.561 . S
C1119 C1122 1.526 . S
C1120 H1104 0.959 . S
C1120 H1105 0.959 . S
C1120 H1106 0.961 . S
C1120 C1119 1.502 . S
C1121 H1107 0.960 . S
C1121 H1108 0.961 . S
C1121 H1109 0.959 . S
C1121 C1119 1.561 . S
C1122 C1119 1.526 . S
C1122 C1123 1.396 . S
C1122 C1127 1.390 . S
C1123 C1117 1.465 . S
C1123 C1122 1.396 . S
C1123 C1124 1.399 . S
C1124 H1110 0.929 . S
C1124 C1123 1.399 . S
C1124 C1125 1.385 . S
C1125 H1111 0.931 . S
C1125 C1124 1.385 . S
C1125 C1126 1.389 . S
C1126 C1125 1.389 . S
C1126 C1127 1.387 . S
C1127 H1112 0.930 . S
C1127 C1122 1.390 . S
C1127 C1126 1.387 . S
H1128 C1140 0.930 . S
H1129 C1142 0.930 . S
H1130 C1143 0.930 . S
H1131 C1147 0.959 . S
H1132 C1147 0.959 . S
H1133 C1147 0.961 . S
H1134 C1148 0.960 . S
H1135 C1148 0.961 . S
H1136 C1148 0.959 . S
H1137 C1151 0.929 . S
H1138 C1152 0.931 . S
H1139 C1154 0.930 . S
C1140 H1128 0.930 . S
C1140 C1141 1.399 . S
C1140 C1145 1.399 . S
C1141 C1140 1.399 . S
C1141 C1142 1.376 . S
C1142 H1129 0.930 . S
C1142 C1141 1.376 . S
C1142 C1143 1.388 . S
C1143 H1130 0.930 . S
C1143 C1142 1.388 . S
C1143 C1144 1.390 . S
C1144 C1143 1.390 . S
C1144 C1145 1.394 . S
C1144 C1150 1.465 . S
C1145 C1140 1.399 . S
C1145 C1144 1.394 . S
C1145 C1146 1.516 . S
C1146 C1145 1.516 . S
C1146 C1147 1.502 . S
C1146 C1148 1.561 . S
C1146 C1149 1.526 . S
C1147 H1131 0.959 . S
C1147 H1132 0.959 . S
C1147 H1133 0.961 . S
C1147 C1146 1.502 . S
C1148 H1134 0.960 . S
C1148 H1135 0.961 . S
C1148 H1136 0.959 . S
C1148 C1146 1.561 . S
C1149 C1146 1.526 . S
C1149 C1150 1.396 . S
C1149 C1154 1.390 . S
C1150 C1144 1.465 . S
C1150 C1149 1.396 . S
C1150 C1151 1.399 . S
C1151 H1137 0.929 . S
C1151 C1150 1.399 . S
C1151 C1152 1.385 . S
C1152 H1138 0.931 . S
C1152 C1151 1.385 . S
C1152 C1153 1.389 . S
C1153 C1152 1.389 . S
C1153 C1154 1.387 . S
C1154 H1139 0.930 . S
C1154 C1149 1.390 . S
C1154 C1153 1.387 . S
H1155 C1167 0.930 . S
H1156 C1169 0.930 . S
H1157 C1170 0.930 . S
H1158 C1174 0.959 . S
H1159 C1174 0.959 . S
H1160 C1174 0.961 . S
H1161 C1175 0.960 . S
H1162 C1175 0.961 . S
H1163 C1175 0.959 . S
H1164 C1178 0.929 . S
H1165 C1179 0.931 . S
H1166 C1181 0.930 . S
C1167 H1155 0.930 . S
C1167 C1168 1.399 . S
C1167 C1172 1.399 . S
C1168 C1167 1.399 . S
C1168 C1169 1.376 . S
C1169 H1156 0.930 . S
C1169 C1168 1.376 . S
C1169 C1170 1.388 . S
C1170 H1157 0.930 . S
C1170 C1169 1.388 . S
C1170 C1171 1.390 . S
C1171 C1170 1.390 . S
C1171 C1172 1.394 . S
C1171 C1177 1.465 . S
C1172 C1167 1.399 . S
C1172 C1171 1.394 . S
C1172 C1173 1.516 . S
C1173 C1172 1.516 . S
C1173 C1174 1.502 . S
C1173 C1175 1.561 . S
C1173 C1176 1.526 . S
C1174 H1158 0.959 . S
C1174 H1159 0.959 . S
C1174 H1160 0.961 . S
C1174 C1173 1.502 . S
C1175 H1161 0.960 . S
C1175 H1162 0.961 . S
C1175 H1163 0.959 . S
C1175 C1173 1.561 . S
C1176 C1173 1.526 . S
C1176 C1177 1.396 . S
C1176 C1181 1.390 . S
C1177 C1171 1.465 . S
C1177 C1176 1.396 . S
C1177 C1178 1.399 . S
C1178 H1164 0.929 . S
C1178 C1177 1.399 . S
C1178 C1179 1.385 . S
C1179 H1165 0.931 . S
C1179 C1178 1.385 . S
C1179 C1180 1.389 . S
C1180 C1179 1.389 . S
C1180 C1181 1.387 . S
C1181 H1166 0.930 . S
C1181 C1176 1.390 . S
C1181 C1180 1.387 . S
H1182 C1194 0.930 . S
H1183 C1196 0.930 . S
H1184 C1197 0.930 . S
H1185 C1201 0.959 . S
H1186 C1201 0.959 . S
H1187 C1201 0.961 . S
H1188 C1202 0.960 . S
H1189 C1202 0.961 . S
H1190 C1202 0.959 . S
H1191 C1205 0.929 . S
H1192 C1206 0.931 . S
H1193 C1208 0.930 . S
C1194 H1182 0.930 . S
C1194 C1195 1.399 . S
C1194 C1199 1.399 . S
C1195 C1194 1.399 . S
C1195 C1196 1.376 . S
C1196 H1183 0.930 . S
C1196 C1195 1.376 . S
C1196 C1197 1.388 . S
C1197 H1184 0.930 . S
C1197 C1196 1.388 . S
C1197 C1198 1.390 . S
C1198 C1197 1.390 . S
C1198 C1199 1.394 . S
C1198 C1204 1.465 . S
C1199 C1194 1.399 . S
C1199 C1198 1.394 . S
C1199 C1200 1.516 . S
C1200 C1199 1.516 . S
C1200 C1201 1.502 . S
C1200 C1202 1.561 . S
C1200 C1203 1.526 . S
C1201 H1185 0.959 . S
C1201 H1186 0.959 . S
C1201 H1187 0.961 . S
C1201 C1200 1.502 . S
C1202 H1188 0.960 . S
C1202 H1189 0.961 . S
C1202 H1190 0.959 . S
C1202 C1200 1.561 . S
C1203 C1200 1.526 . S
C1203 C1204 1.396 . S
C1203 C1208 1.390 . S
C1204 C1198 1.465 . S
C1204 C1203 1.396 . S
C1204 C1205 1.399 . S
C1205 H1191 0.929 . S
C1205 C1204 1.399 . S
C1205 C1206 1.385 . S
C1206 H1192 0.931 . S
C1206 C1205 1.385 . S
C1206 C1207 1.389 . S
C1207 C1206 1.389 . S
C1207 C1208 1.387 . S
C1208 H1193 0.930 . S
C1208 C1203 1.390 . S
C1208 C1207 1.387 . S
H1209 C1221 0.930 . S
H1210 C1223 0.930 . S
H1211 C1224 0.930 . S
H1212 C1228 0.959 . S
H1213 C1228 0.959 . S
H1214 C1228 0.961 . S
H1215 C1229 0.960 . S
H1216 C1229 0.961 . S
H1217 C1229 0.959 . S
H1218 C1232 0.929 . S
H1219 C1233 0.931 . S
H1220 C1235 0.930 . S
C1221 H1209 0.930 . S
C1221 C1222 1.399 . S
C1221 C1226 1.399 . S
C1222 C1221 1.399 . S
C1222 C1223 1.376 . S
C1223 H1210 0.930 . S
C1223 C1222 1.376 . S
C1223 C1224 1.388 . S
C1224 H1211 0.930 . S
C1224 C1223 1.388 . S
C1224 C1225 1.390 . S
C1225 C1224 1.390 . S
C1225 C1226 1.394 . S
C1225 C1231 1.465 . S
C1226 C1221 1.399 . S
C1226 C1225 1.394 . S
C1226 C1227 1.516 . S
C1227 C1226 1.516 . S
C1227 C1228 1.502 . S
C1227 C1229 1.561 . S
C1227 C1230 1.526 . S
C1228 H1212 0.959 . S
C1228 H1213 0.959 . S
C1228 H1214 0.961 . S
C1228 C1227 1.502 . S
C1229 H1215 0.960 . S
C1229 H1216 0.961 . S
C1229 H1217 0.959 . S
C1229 C1227 1.561 . S
C1230 C1227 1.526 . S
C1230 C1231 1.396 . S
C1230 C1235 1.390 . S
C1231 C1225 1.465 . S
C1231 C1230 1.396 . S
C1231 C1232 1.399 . S
C1232 H1218 0.929 . S
C1232 C1231 1.399 . S
C1232 C1233 1.385 . S
C1233 H1219 0.931 . S
C1233 C1232 1.385 . S
C1233 C1234 1.389 . S
C1234 C1233 1.389 . S
C1234 C1235 1.387 . S
C1235 H1220 0.930 . S
C1235 C1230 1.390 . S
C1235 C1234 1.387 . S
H1236 C1248 0.930 . S
H1237 C1250 0.930 . S
H1238 C1251 0.930 . S
H1239 C1255 0.959 . S
H1240 C1255 0.959 . S
H1241 C1255 0.961 . S
H1242 C1256 0.960 . S
H1243 C1256 0.961 . S
H1244 C1256 0.959 . S
H1245 C1259 0.929 . S
H1246 C1260 0.931 . S
H1247 C1262 0.930 . S
C1248 H1236 0.930 . S
C1248 C1249 1.399 . S
C1248 C1253 1.399 . S
C1249 C1248 1.399 . S
C1249 C1250 1.376 . S
C1250 H1237 0.930 . S
C1250 C1249 1.376 . S
C1250 C1251 1.388 . S
C1251 H1238 0.930 . S
C1251 C1250 1.388 . S
C1251 C1252 1.390 . S
C1252 C1251 1.390 . S
C1252 C1253 1.394 . S
C1252 C1258 1.465 . S
C1253 C1248 1.399 . S
C1253 C1252 1.394 . S
C1253 C1254 1.516 . S
C1254 C1253 1.516 . S
C1254 C1255 1.502 . S
C1254 C1256 1.561 . S
C1254 C1257 1.526 . S
C1255 H1239 0.959 . S
C1255 H1240 0.959 . S
C1255 H1241 0.961 . S
C1255 C1254 1.502 . S
C1256 H1242 0.960 . S
C1256 H1243 0.961 . S
C1256 H1244 0.959 . S
C1256 C1254 1.561 . S
C1257 C1254 1.526 . S
C1257 C1258 1.396 . S
C1257 C1262 1.390 . S
C1258 C1252 1.465 . S
C1258 C1257 1.396 . S
C1258 C1259 1.399 . S
C1259 H1245 0.929 . S
C1259 C1258 1.399 . S
C1259 C1260 1.385 . S
C1260 H1246 0.931 . S
C1260 C1259 1.385 . S
C1260 C1261 1.389 . S
C1261 C1260 1.389 . S
C1261 C1262 1.387 . S
C1262 H1247 0.930 . S
C1262 C1257 1.390 . S
C1262 C1261 1.387 . S
H1263 C1275 0.930 . S
H1264 C1277 0.930 . S
H1265 C1278 0.930 . S
H1266 C1282 0.959 . S
H1267 C1282 0.959 . S
H1268 C1282 0.961 . S
H1269 C1283 0.960 . S
H1270 C1283 0.961 . S
H1271 C1283 0.959 . S
H1272 C1286 0.929 . S
H1273 C1287 0.931 . S
H1274 C1289 0.930 . S
C1275 H1263 0.930 . S
C1275 C1276 1.399 . S
C1275 C1280 1.399 . S
C1276 C1275 1.399 . S
C1276 C1277 1.376 . S
C1277 H1264 0.930 . S
C1277 C1276 1.376 . S
C1277 C1278 1.388 . S
C1278 H1265 0.930 . S
C1278 C1277 1.388 . S
C1278 C1279 1.390 . S
C1279 C1278 1.390 . S
C1279 C1280 1.394 . S
C1279 C1285 1.465 . S
C1280 C1275 1.399 . S
C1280 C1279 1.394 . S
C1280 C1281 1.516 . S
C1281 C1280 1.516 . S
C1281 C1282 1.502 . S
C1281 C1283 1.561 . S
C1281 C1284 1.526 . S
C1282 H1266 0.959 . S
C1282 H1267 0.959 . S
C1282 H1268 0.961 . S
C1282 C1281 1.502 . S
C1283 H1269 0.960 . S
C1283 H1270 0.961 . S
C1283 H1271 0.959 . S
C1283 C1281 1.561 . S
C1284 C1281 1.526 . S
C1284 C1285 1.396 . S
C1284 C1289 1.390 . S
C1285 C1279 1.465 . S
C1285 C1284 1.396 . S
C1285 C1286 1.399 . S
C1286 H1272 0.929 . S
C1286 C1285 1.399 . S
C1286 C1287 1.385 . S
C1287 H1273 0.931 . S
C1287 C1286 1.385 . S
C1287 C1288 1.389 . S
C1288 C1287 1.389 . S
C1288 C1289 1.387 . S
C1289 H1274 0.930 . S
C1289 C1284 1.390 . S
C1289 C1288 1.387 . S
H1290 C1302 0.930 . S
H1291 C1304 0.930 . S
H1292 C1305 0.930 . S
H1293 C1309 0.959 . S
H1294 C1309 0.959 . S
H1295 C1309 0.961 . S
H1296 C1310 0.960 . S
H1297 C1310 0.961 . S
H1298 C1310 0.959 . S
H1299 C1313 0.929 . S
H1300 C1314 0.931 . S
H1301 C1316 0.930 . S
C1302 H1290 0.930 . S
C1302 C1303 1.399 . S
C1302 C1307 1.399 . S
C1303 C1302 1.399 . S
C1303 C1304 1.376 . S
C1304 H1291 0.930 . S
C1304 C1303 1.376 . S
C1304 C1305 1.388 . S
C1305 H1292 0.930 . S
C1305 C1304 1.388 . S
C1305 C1306 1.390 . S
C1306 C1305 1.390 . S
C1306 C1307 1.394 . S
C1306 C1312 1.465 . S
C1307 C1302 1.399 . S
C1307 C1306 1.394 . S
C1307 C1308 1.516 . S
C1308 C1307 1.516 . S
C1308 C1309 1.502 . S
C1308 C1310 1.561 . S
C1308 C1311 1.526 . S
C1309 H1293 0.959 . S
C1309 H1294 0.959 . S
C1309 H1295 0.961 . S
C1309 C1308 1.502 . S
C1310 H1296 0.960 . S
C1310 H1297 0.961 . S
C1310 H1298 0.959 . S
C1310 C1308 1.561 . S
C1311 C1308 1.526 . S
C1311 C1312 1.396 . S
C1311 C1316 1.390 . S
C1312 C1306 1.465 . S
C1312 C1311 1.396 . S
C1312 C1313 1.399 . S
C1313 H1299 0.929 . S
C1313 C1312 1.399 . S
C1313 C1314 1.385 . S
C1314 H1300 0.931 . S
C1314 C1313 1.385 . S
C1314 C1315 1.389 . S
C1315 C1314 1.389 . S
C1315 C1316 1.387 . S
C1316 H1301 0.930 . S
C1316 C1311 1.390 . S
C1316 C1315 1.387 . S
H1317 C1329 0.930 . S
H1318 C1331 0.930 . S
H1319 C1332 0.930 . S
H1320 C1336 0.959 . S
H1321 C1336 0.959 . S
H1322 C1336 0.961 . S
H1323 C1337 0.960 . S
H1324 C1337 0.961 . S
H1325 C1337 0.959 . S
H1326 C1340 0.929 . S
H1327 C1341 0.931 . S
H1328 C1343 0.930 . S
C1329 H1317 0.930 . S
C1329 C1330 1.399 . S
C1329 C1334 1.399 . S
C1330 C1329 1.399 . S
C1330 C1331 1.376 . S
C1331 H1318 0.930 . S
C1331 C1330 1.376 . S
C1331 C1332 1.388 . S
C1332 H1319 0.930 . S
C1332 C1331 1.388 . S
C1332 C1333 1.390 . S
C1333 C1332 1.390 . S
C1333 C1334 1.394 . S
C1333 C1339 1.465 . S
C1334 C1329 1.399 . S
C1334 C1333 1.394 . S
C1334 C1335 1.516 . S
C1335 C1334 1.516 . S
C1335 C1336 1.502 . S
C1335 C1337 1.561 . S
C1335 C1338 1.526 . S
C1336 H1320 0.959 . S
C1336 H1321 0.959 . S
C1336 H1322 0.961 . S
C1336 C1335 1.502 . S
C1337 H1323 0.960 . S
C1337 H1324 0.961 . S
C1337 H1325 0.959 . S
C1337 C1335 1.561 . S
C1338 C1335 1.526 . S
C1338 C1339 1.396 . S
C1338 C1343 1.390 . S
C1339 C1333 1.465 . S
C1339 C1338 1.396 . S
C1339 C1340 1.399 . S
C1340 H1326 0.929 . S
C1340 C1339 1.399 . S
C1340 C1341 1.385 . S
C1341 H1327 0.931 . S
C1341 C1340 1.385 . S
C1341 C1342 1.389 . S
C1342 C1341 1.389 . S
C1342 C1343 1.387 . S
C1343 H1328 0.930 . S
C1343 C1338 1.390 . S
C1343 C1342 1.387 . S
H1344 C1356 0.930 . S
H1345 C1358 0.930 . S
H1346 C1359 0.930 . S
H1347 C1363 0.959 . S
H1348 C1363 0.959 . S
H1349 C1363 0.961 . S
H1350 C1364 0.960 . S
H1351 C1364 0.961 . S
H1352 C1364 0.959 . S
H1353 C1367 0.929 . S
H1354 C1368 0.931 . S
H1355 C1370 0.930 . S
C1356 H1344 0.930 . S
C1356 C1357 1.399 . S
C1356 C1361 1.399 . S
C1357 C1356 1.399 . S
C1357 C1358 1.376 . S
C1358 H1345 0.930 . S
C1358 C1357 1.376 . S
C1358 C1359 1.388 . S
C1359 H1346 0.930 . S
C1359 C1358 1.388 . S
C1359 C1360 1.390 . S
C1360 C1359 1.390 . S
C1360 C1361 1.394 . S
C1360 C1366 1.465 . S
C1361 C1356 1.399 . S
C1361 C1360 1.394 . S
C1361 C1362 1.516 . S
C1362 C1361 1.516 . S
C1362 C1363 1.502 . S
C1362 C1364 1.561 . S
C1362 C1365 1.526 . S
C1363 H1347 0.959 . S
C1363 H1348 0.959 . S
C1363 H1349 0.961 . S
C1363 C1362 1.502 . S
C1364 H1350 0.960 . S
C1364 H1351 0.961 . S
C1364 H1352 0.959 . S
C1364 C1362 1.561 . S
C1365 C1362 1.526 . S
C1365 C1366 1.396 . S
C1365 C1370 1.390 . S
C1366 C1360 1.465 . S
C1366 C1365 1.396 . S
C1366 C1367 1.399 . S
C1367 H1353 0.929 . S
C1367 C1366 1.399 . S
C1367 C1368 1.385 . S
C1368 H1354 0.931 . S
C1368 C1367 1.385 . S
C1368 C1369 1.389 . S
C1369 C1368 1.389 . S
C1369 C1370 1.387 . S
C1370 H1355 0.930 . S
C1370 C1365 1.390 . S
C1370 C1369 1.387 . S
H1371 C1383 0.930 . S
H1372 C1385 0.930 . S
H1373 C1386 0.930 . S
H1374 C1390 0.959 . S
H1375 C1390 0.959 . S
H1376 C1390 0.961 . S
H1377 C1391 0.960 . S
H1378 C1391 0.961 . S
H1379 C1391 0.959 . S
H1380 C1394 0.929 . S
H1381 C1395 0.931 . S
H1382 C1397 0.930 . S
C1383 H1371 0.930 . S
C1383 C1384 1.399 . S
C1383 C1388 1.399 . S
C1384 C1383 1.399 . S
C1384 C1385 1.376 . S
C1385 H1372 0.930 . S
C1385 C1384 1.376 . S
C1385 C1386 1.388 . S
C1386 H1373 0.930 . S
C1386 C1385 1.388 . S
C1386 C1387 1.390 . S
C1387 C1386 1.390 . S
C1387 C1388 1.394 . S
C1387 C1393 1.465 . S
C1388 C1383 1.399 . S
C1388 C1387 1.394 . S
C1388 C1389 1.516 . S
C1389 C1388 1.516 . S
C1389 C1390 1.502 . S
C1389 C1391 1.561 . S
C1389 C1392 1.526 . S
C1390 H1374 0.959 . S
C1390 H1375 0.959 . S
C1390 H1376 0.961 . S
C1390 C1389 1.502 . S
C1391 H1377 0.960 . S
C1391 H1378 0.961 . S
C1391 H1379 0.959 . S
C1391 C1389 1.561 . S
C1392 C1389 1.526 . S
C1392 C1393 1.396 . S
C1392 C1397 1.390 . S
C1393 C1387 1.465 . S
C1393 C1392 1.396 . S
C1393 C1394 1.399 . S
C1394 H1380 0.929 . S
C1394 C1393 1.399 . S
C1394 C1395 1.385 . S
C1395 H1381 0.931 . S
C1395 C1394 1.385 . S
C1395 C1396 1.389 . S
C1396 C1395 1.389 . S
C1396 C1397 1.387 . S
C1397 H1382 0.930 . S
C1397 C1392 1.390 . S
C1397 C1396 1.387 . S
H1398 C1410 0.930 . S
H1399 C1412 0.930 . S
H1400 C1413 0.930 . S
H1401 C1417 0.959 . S
H1402 C1417 0.959 . S
H1403 C1417 0.961 . S
H1404 C1418 0.960 . S
H1405 C1418 0.961 . S
H1406 C1418 0.959 . S
H1407 C1421 0.929 . S
H1408 C1422 0.931 . S
H1409 C1424 0.930 . S
C1410 H1398 0.930 . S
C1410 C1411 1.399 . S
C1410 C1415 1.399 . S
C1411 C1410 1.399 . S
C1411 C1412 1.376 . S
C1412 H1399 0.930 . S
C1412 C1411 1.376 . S
C1412 C1413 1.388 . S
C1413 H1400 0.930 . S
C1413 C1412 1.388 . S
C1413 C1414 1.390 . S
C1414 C1413 1.390 . S
C1414 C1415 1.394 . S
C1414 C1420 1.465 . S
C1415 C1410 1.399 . S
C1415 C1414 1.394 . S
C1415 C1416 1.516 . S
C1416 C1415 1.516 . S
C1416 C1417 1.502 . S
C1416 C1418 1.561 . S
C1416 C1419 1.526 . S
C1417 H1401 0.959 . S
C1417 H1402 0.959 . S
C1417 H1403 0.961 . S
C1417 C1416 1.502 . S
C1418 H1404 0.960 . S
C1418 H1405 0.961 . S
C1418 H1406 0.959 . S
C1418 C1416 1.561 . S
C1419 C1416 1.526 . S
C1419 C1420 1.396 . S
C1419 C1424 1.390 . S
C1420 C1414 1.465 . S
C1420 C1419 1.396 . S
C1420 C1421 1.399 . S
C1421 H1407 0.929 . S
C1421 C1420 1.399 . S
C1421 C1422 1.385 . S
C1422 H1408 0.931 . S
C1422 C1421 1.385 . S
C1422 C1423 1.389 . S
C1423 C1422 1.389 . S
C1423 C1424 1.387 . S
C1424 H1409 0.930 . S
C1424 C1419 1.390 . S
C1424 C1423 1.387 . S
C790 C11 1.560 . S
C802 C695 1.946 . S
C817 C125 1.311 . S
C829 C742 1.648 . S
C856 C746 1.918 . S
C844 C239 1.328 . S
C883 C711 1.410 . S
C871 C343 1.186 . S
C898 C485 1.342 . S
C910 C726 1.797 . S
C937 C748 0.877 . S
C925 C571 0.944 . S
C964 C717 1.482 . S
C952 C257 0.923 . S
C979 C397 0.883 . S
C991 C757 1.459 . S
C1018 C686 1.458 . S
C1006 C467 1.114 . S
C1033 C625 0.999 . S
C1045 C715 1.510 . S
C1060 C29 1.524 . S
C1072 C773 1.985 . S
C1099 C684 1.578 . S
C1087 C143 1.049 . S
C1126 C702 1.861 . S
C1114 C371 1.668 . S
C1153 C716 1.411 . S
C1141 C457 1.243 . S
C1180 C770 1.818 . S
C1168 C599 1.659 . S
C1207 C685 1.543 . S
C1195 C55 1.259 . S
C1234 C733 1.766 . S
C1222 C169 1.533 . S
C1249 C283 0.928 . S
C1261 C756 0.977 . S
C1288 C725 1.329 . S
C1276 C581 0.999 . S
C1315 C764 1.189 . S
C1303 C1 1.004 . S
C1342 C694 1.108 . S
C1330 C115 0.841 . S
C1369 C739 1.191 . S
C1357 C229 1.035 . S
C1384 C353 1.235 . S
C1396 C747 1.975 . S
C1411 C511 1.168 . S
C1423 C708 1.500 . S
