# Generated by pormake.
# Topology ptr, (4,4)-cn, num edge types: 1
# Building blocks:
#     Node 0, Type 0, BuildingBlock: QUQFOY_clean_sbu_1, # of connection points: 4
#     Node 1, Type 0, BuildingBlock: QUQFOY_clean_sbu_1, # of connection points: 4
#     Node 2, Type 0, BuildingBlock: QUQFOY_clean_sbu_1, # of connection points: 4
#     Node 3, Type 0, BuildingBlock: QUQFOY_clean_sbu_1, # of connection points: 4
#     Node 4, Type 0, BuildingBlock: QUQFOY_clean_sbu_1, # of connection points: 4
#     Node 5, Type 0, BuildingBlock: QUQFOY_clean_sbu_1, # of connection points: 4
#     Node 6, Type 0, BuildingBlock: QUQFOY_clean_sbu_1, # of connection points: 4
#     Node 7, Type 0, BuildingBlock: QUQFOY_clean_sbu_1, # of connection points: 4
#     Node 8, Type 0, BuildingBlock: QUQFOY_clean_sbu_1, # of connection points: 4
#     Node 9, Type 0, BuildingBlock: QUQFOY_clean_sbu_1, # of connection points: 4
#     Node 10, Type 0, BuildingBlock: QUQFOY_clean_sbu_1, # of connection points: 4
#     Node 11, Type 0, BuildingBlock: QUQFOY_clean_sbu_1, # of connection points: 4
#     Node 12, Type 0, BuildingBlock: QUQFOY_clean_sbu_1, # of connection points: 4
#     Node 13, Type 0, BuildingBlock: QUQFOY_clean_sbu_1, # of connection points: 4
#     Node 14, Type 0, BuildingBlock: QUQFOY_clean_sbu_1, # of connection points: 4
#     Node 15, Type 0, BuildingBlock: QUQFOY_clean_sbu_1, # of connection points: 4
#     Node 16, Type 0, BuildingBlock: QUQFOY_clean_sbu_1, # of connection points: 4
#     Node 17, Type 0, BuildingBlock: QUQFOY_clean_sbu_1, # of connection points: 4
#     Node 18, Type 1, BuildingBlock: NAWXER_clean_linker_0, # of connection points: 4
#     Node 19, Type 1, BuildingBlock: NAWXER_clean_linker_0, # of connection points: 4
#     Node 20, Type 1, BuildingBlock: NAWXER_clean_linker_0, # of connection points: 4
#     Node 21, Type 1, BuildingBlock: NAWXER_clean_linker_0, # of connection points: 4
#     Node 22, Type 1, BuildingBlock: NAWXER_clean_linker_0, # of connection points: 4
#     Node 23, Type 1, BuildingBlock: NAWXER_clean_linker_0, # of connection points: 4
#     Node 24, Type 1, BuildingBlock: NAWXER_clean_linker_0, # of connection points: 4
#     Node 25, Type 1, BuildingBlock: NAWXER_clean_linker_0, # of connection points: 4
#     Node 26, Type 1, BuildingBlock: NAWXER_clean_linker_0, # of connection points: 4
#     Node 27, Type 1, BuildingBlock: NAWXER_clean_linker_0, # of connection points: 4
#     Node 28, Type 1, BuildingBlock: NAWXER_clean_linker_0, # of connection points: 4
#     Node 29, Type 1, BuildingBlock: NAWXER_clean_linker_0, # of connection points: 4
#     Node 30, Type 1, BuildingBlock: NAWXER_clean_linker_0, # of connection points: 4
#     Node 31, Type 1, BuildingBlock: NAWXER_clean_linker_0, # of connection points: 4
#     Node 32, Type 1, BuildingBlock: NAWXER_clean_linker_0, # of connection points: 4
#     Node 33, Type 1, BuildingBlock: NAWXER_clean_linker_0, # of connection points: 4
#     Node 34, Type 1, BuildingBlock: NAWXER_clean_linker_0, # of connection points: 4
#     Node 35, Type 1, BuildingBlock: NAWXER_clean_linker_0, # of connection points: 4
#     Edge 36, Type (0, 1), BuildingBlock: ZUJKAS_clean_linker_0, # of connection points: 2
#     Edge 37, Type (0, 1), BuildingBlock: ZUJKAS_clean_linker_0, # of connection points: 2
#     Edge 38, Type (0, 1), BuildingBlock: ZUJKAS_clean_linker_0, # of connection points: 2
#     Edge 39, Type (0, 1), BuildingBlock: ZUJKAS_clean_linker_0, # of connection points: 2
#     Edge 40, Type (0, 1), BuildingBlock: ZUJKAS_clean_linker_0, # of connection points: 2
#     Edge 41, Type (0, 1), BuildingBlock: ZUJKAS_clean_linker_0, # of connection points: 2
#     Edge 42, Type (0, 1), BuildingBlock: ZUJKAS_clean_linker_0, # of connection points: 2
#     Edge 43, Type (0, 1), BuildingBlock: ZUJKAS_clean_linker_0, # of connection points: 2
#     Edge 44, Type (0, 1), BuildingBlock: ZUJKAS_clean_linker_0, # of connection points: 2
#     Edge 45, Type (0, 1), BuildingBlock: ZUJKAS_clean_linker_0, # of connection points: 2
#     Edge 46, Type (0, 1), BuildingBlock: ZUJKAS_clean_linker_0, # of connection points: 2
#     Edge 47, Type (0, 1), BuildingBlock: ZUJKAS_clean_linker_0, # of connection points: 2
#     Edge 48, Type (0, 1), BuildingBlock: ZUJKAS_clean_linker_0, # of connection points: 2
#     Edge 49, Type (0, 1), BuildingBlock: ZUJKAS_clean_linker_0, # of connection points: 2
#     Edge 50, Type (0, 1), BuildingBlock: ZUJKAS_clean_linker_0, # of connection points: 2
#     Edge 51, Type (0, 1), BuildingBlock: ZUJKAS_clean_linker_0, # of connection points: 2
#     Edge 52, Type (0, 1), BuildingBlock: ZUJKAS_clean_linker_0, # of connection points: 2
#     Edge 53, Type (0, 1), BuildingBlock: ZUJKAS_clean_linker_0, # of connection points: 2
#     Edge 54, Type (0, 1), BuildingBlock: ZUJKAS_clean_linker_0, # of connection points: 2
#     Edge 55, Type (0, 1), BuildingBlock: ZUJKAS_clean_linker_0, # of connection points: 2
#     Edge 56, Type (0, 1), BuildingBlock: ZUJKAS_clean_linker_0, # of connection points: 2
#     Edge 57, Type (0, 1), BuildingBlock: ZUJKAS_clean_linker_0, # of connection points: 2
#     Edge 58, Type (0, 1), BuildingBlock: ZUJKAS_clean_linker_0, # of connection points: 2
#     Edge 59, Type (0, 1), BuildingBlock: ZUJKAS_clean_linker_0, # of connection points: 2
#     Edge 60, Type (0, 1), BuildingBlock: ZUJKAS_clean_linker_0, # of connection points: 2
#     Edge 61, Type (0, 1), BuildingBlock: ZUJKAS_clean_linker_0, # of connection points: 2
#     Edge 62, Type (0, 1), BuildingBlock: ZUJKAS_clean_linker_0, # of connection points: 2
#     Edge 63, Type (0, 1), BuildingBlock: ZUJKAS_clean_linker_0, # of connection points: 2
#     Edge 64, Type (0, 1), BuildingBlock: ZUJKAS_clean_linker_0, # of connection points: 2
#     Edge 65, Type (0, 1), BuildingBlock: ZUJKAS_clean_linker_0, # of connection points: 2
#     Edge 66, Type (0, 1), BuildingBlock: ZUJKAS_clean_linker_0, # of connection points: 2
#     Edge 67, Type (0, 1), BuildingBlock: ZUJKAS_clean_linker_0, # of connection points: 2
#     Edge 68, Type (0, 1), BuildingBlock: ZUJKAS_clean_linker_0, # of connection points: 2
#     Edge 69, Type (0, 1), BuildingBlock: ZUJKAS_clean_linker_0, # of connection points: 2
#     Edge 70, Type (0, 1), BuildingBlock: ZUJKAS_clean_linker_0, # of connection points: 2
#     Edge 71, Type (0, 1), BuildingBlock: ZUJKAS_clean_linker_0, # of connection points: 2
#     Edge 72, Type (0, 1), BuildingBlock: ZUJKAS_clean_linker_0, # of connection points: 2
#     Edge 73, Type (0, 1), BuildingBlock: ZUJKAS_clean_linker_0, # of connection points: 2
#     Edge 74, Type (0, 1), BuildingBlock: ZUJKAS_clean_linker_0, # of connection points: 2
#     Edge 75, Type (0, 1), BuildingBlock: ZUJKAS_clean_linker_0, # of connection points: 2
#     Edge 76, Type (0, 1), BuildingBlock: ZUJKAS_clean_linker_0, # of connection points: 2
#     Edge 77, Type (0, 1), BuildingBlock: ZUJKAS_clean_linker_0, # of connection points: 2
#     Edge 78, Type (0, 1), BuildingBlock: ZUJKAS_clean_linker_0, # of connection points: 2
#     Edge 79, Type (0, 1), BuildingBlock: ZUJKAS_clean_linker_0, # of connection points: 2
#     Edge 80, Type (0, 1), BuildingBlock: ZUJKAS_clean_linker_0, # of connection points: 2
#     Edge 81, Type (0, 1), BuildingBlock: ZUJKAS_clean_linker_0, # of connection points: 2
#     Edge 82, Type (0, 1), BuildingBlock: ZUJKAS_clean_linker_0, # of connection points: 2
#     Edge 83, Type (0, 1), BuildingBlock: ZUJKAS_clean_linker_0, # of connection points: 2
#     Edge 84, Type (0, 1), BuildingBlock: ZUJKAS_clean_linker_0, # of connection points: 2
#     Edge 85, Type (0, 1), BuildingBlock: ZUJKAS_clean_linker_0, # of connection points: 2
#     Edge 86, Type (0, 1), BuildingBlock: ZUJKAS_clean_linker_0, # of connection points: 2
#     Edge 87, Type (0, 1), BuildingBlock: ZUJKAS_clean_linker_0, # of connection points: 2
#     Edge 88, Type (0, 1), BuildingBlock: ZUJKAS_clean_linker_0, # of connection points: 2
#     Edge 89, Type (0, 1), BuildingBlock: ZUJKAS_clean_linker_0, # of connection points: 2
#     Edge 90, Type (0, 1), BuildingBlock: ZUJKAS_clean_linker_0, # of connection points: 2
#     Edge 91, Type (0, 1), BuildingBlock: ZUJKAS_clean_linker_0, # of connection points: 2
#     Edge 92, Type (0, 1), BuildingBlock: ZUJKAS_clean_linker_0, # of connection points: 2
#     Edge 93, Type (0, 1), BuildingBlock: ZUJKAS_clean_linker_0, # of connection points: 2
#     Edge 94, Type (0, 1), BuildingBlock: ZUJKAS_clean_linker_0, # of connection points: 2
#     Edge 95, Type (0, 1), BuildingBlock: ZUJKAS_clean_linker_0, # of connection points: 2
#     Edge 96, Type (0, 1), BuildingBlock: ZUJKAS_clean_linker_0, # of connection points: 2
#     Edge 97, Type (0, 1), BuildingBlock: ZUJKAS_clean_linker_0, # of connection points: 2
#     Edge 98, Type (0, 1), BuildingBlock: ZUJKAS_clean_linker_0, # of connection points: 2
#     Edge 99, Type (0, 1), BuildingBlock: ZUJKAS_clean_linker_0, # of connection points: 2
#     Edge 100, Type (0, 1), BuildingBlock: ZUJKAS_clean_linker_0, # of connection points: 2
#     Edge 101, Type (0, 1), BuildingBlock: ZUJKAS_clean_linker_0, # of connection points: 2
#     Edge 102, Type (0, 1), BuildingBlock: ZUJKAS_clean_linker_0, # of connection points: 2
#     Edge 103, Type (0, 1), BuildingBlock: ZUJKAS_clean_linker_0, # of connection points: 2
#     Edge 104, Type (0, 1), BuildingBlock: ZUJKAS_clean_linker_0, # of connection points: 2
#     Edge 105, Type (0, 1), BuildingBlock: ZUJKAS_clean_linker_0, # of connection points: 2
#     Edge 106, Type (0, 1), BuildingBlock: ZUJKAS_clean_linker_0, # of connection points: 2
#     Edge 107, Type (0, 1), BuildingBlock: ZUJKAS_clean_linker_0, # of connection points: 2
# Relax obj value: 0.009
# Max RMSD: 0.056
# Mean RMSD: 0.039
data_MOF--net-ptr--node1-QUQFOY_clean_sbu_1--node2-NAWXER_clean_linker_0--edge1-ZUJKAS_clean_linker_0
_symmetry_space_group_name_H-M    P1
_symmetry_Int_Tables_number       1
_symmetry_cell_setting            triclinic
loop_
_symmetry_equiv_pos_as_xyz
'x, y, z'
_cell_length_a     110.91253
_cell_length_b     110.91021
_cell_length_c     81.755966
_cell_angle_alpha  90.155862
_cell_angle_beta   89.858575
_cell_angle_gamma 119.93063
loop_
_atom_site_label
_atom_site_type_symbol
_atom_site_fract_x
_atom_site_fract_y
_atom_site_fract_z
_atom_type_partial_charge
O0 O 0.01111 0.37128 0.03643 0.0
Cd1 Cd 0.01736 0.36359 0.01719 0.0
Cd2 Cd 0.9898 0.3492 0.01196 0.0
O3 O 0.98856 0.35669 0.0348 0.0
O4 O 0.03657 0.36806 0.02306 0.0
O5 O 0.01897 0.34651 0.02113 0.0
C6 C 0.0319 0.35489 0.02459 0.0
C7 C 0.97552 0.32586 0.0047 0.0
C8 C 0.9989 0.36658 0.04208 0.0
C9 C 0.00773 0.37087 0.98694 0.0
O10 O 0.9956 0.36285 0.99253 0.0
O11 O 0.01833 0.37205 0.99437 0.0
O12 O 0.97068 0.33423 0.00612 0.0
O13 O 0.98848 0.33059 0.00819 0.0
O14 O 0.63332 0.6387 0.03946 0.0
Cd15 Cd 0.63904 0.65208 0.01975 0.0
Cd16 Cd 0.65257 0.63826 0.0115 0.0
O17 O 0.64616 0.62908 0.03422 0.0
O18 O 0.63436 0.66644 0.02693 0.0
O19 O 0.65592 0.67117 0.02226 0.0
C20 C 0.64749 0.67534 0.02704 0.0
C21 C 0.67557 0.64751 0.00273 0.0
C22 C 0.63766 0.63045 0.04342 0.0
C23 C 0.62949 0.635 0.98918 0.0
O24 O 0.63797 0.63093 0.99307 0.0
O25 O 0.62873 0.64418 0.99776 0.0
O26 O 0.66724 0.63427 0.0037 0.0
O27 O 0.67099 0.65562 0.00743 0.0
O28 O 0.37199 0.0096 0.99393 0.0
Cd29 Cd 0.36433 0.01571 0.01332 0.0
Cd30 Cd 0.35055 0.98817 0.01867 0.0
O31 O 0.35826 0.98692 0.99602 0.0
O32 O 0.36868 0.03488 0.00733 0.0
O33 O 0.34719 0.01724 0.00947 0.0
C34 C 0.3555 0.03014 0.00583 0.0
C35 C 0.32709 0.97415 0.02554 0.0
C36 C 0.36776 0.99739 0.98849 0.0
C37 C 0.37209 0.00638 0.0436 0.0
O38 O 0.36415 0.99417 0.03815 0.0
O39 O 0.37306 0.01686 0.03608 0.0
O40 O 0.33535 0.96914 0.02445 0.0
O41 O 0.33205 0.98713 0.02202 0.0
O42 O 0.99566 0.63313 0.99246 0.0
Cd43 Cd 0.9892 0.64052 0.01181 0.0
Cd44 Cd 0.01663 0.65409 0.0182 0.0
O45 O 0.01829 0.64659 0.99558 0.0
O46 O 0.97026 0.63656 0.00539 0.0
O47 O 0.98802 0.6579 0.00842 0.0
C48 C 0.97515 0.64981 0.00445 0.0
C49 C 0.03068 0.67747 0.02539 0.0
C50 C 0.008 0.63734 0.98754 0.0
C51 C 0.99769 0.63236 0.04249 0.0
O52 O 0.01007 0.64036 0.03759 0.0
O53 O 0.98746 0.63144 0.03444 0.0
O54 O 0.03559 0.66912 0.02452 0.0
O55 O 0.01779 0.67266 0.02149 0.0
O56 O 0.37357 0.36667 0.99101 0.0
Cd57 Cd 0.36712 0.3524 0.00977 0.0
Cd58 Cd 0.35253 0.36515 0.01821 0.0
O59 O 0.36004 0.37552 0.99618 0.0
O60 O 0.37143 0.33798 1.00181 0.0
O61 O 0.34999 0.33361 0.00673 0.0
C62 C 0.35823 0.32929 1.00165 0.0
C63 C 0.32913 0.35589 0.02538 0.0
C64 C 0.36916 0.37491 0.9873 0.0
C65 C 0.37481 0.36751 0.04159 0.0
O66 O 0.36601 0.37122 0.03786 0.0
O67 O 0.37665 0.35939 0.03224 0.0
O68 O 0.33769 0.36911 0.02546 0.0
O69 O 0.33375 0.34783 0.02057 0.0
O70 O 0.63285 0.99399 0.03789 0.0
Cd71 Cd 0.64016 0.98725 0.01875 0.0
Cd72 Cd 0.65401 0.01475 0.01211 0.0
O73 O 0.6464 0.01659 0.03461 0.0
O74 O 0.63589 0.96829 0.02554 0.0
O75 O 0.65735 0.98573 0.02217 0.0
C76 C 0.6491 0.97296 0.02638 0.0
C77 C 0.67738 0.02895 0.00491 0.0
C78 C 0.63708 0.00638 0.04266 0.0
C79 C 0.63228 0.99563 0.98782 0.0
O80 O 0.64038 0.00803 0.9926 0.0
O81 O 0.63115 0.98541 0.99607 0.0
O82 O 0.6689 0.03372 0.00563 0.0
O83 O 0.6727 0.01612 0.00899 0.0
O84 O 0.67476 0.70498 0.37202 0.0
Cd85 Cd 0.68184 0.69786 0.35308 0.0
Cd86 Cd 0.65439 0.68406 0.34546 0.0
O87 O 0.65224 0.69165 0.36785 0.0
O88 O 0.7008 0.70238 0.36021 0.0
O89 O 0.68357 0.68082 0.35678 0.0
C90 C 0.69628 0.68921 0.36115 0.0
C91 C 0.63997 0.66075 0.33821 0.0
C92 C 0.66227 0.7008 0.3763 0.0
C93 C 0.67408 0.70598 0.32176 0.0
O94 O 0.66155 0.69771 0.32597 0.0
O95 O 0.68407 0.70715 0.33052 0.0
O96 O 0.63534 0.66933 0.33896 0.0
O97 O 0.65279 0.66528 0.34223 0.0
O98 O 0.29711 0.97127 0.37247 0.0
Cd99 Cd 0.30425 0.98519 0.35328 0.0
Cd100 Cd 0.3177 0.97084 0.34624 0.0
O101 O 0.31032 0.96181 0.3689 0.0
O102 O 0.29968 0.99971 0.36008 0.0
O103 O 0.32127 0.004 0.35699 0.0
C104 C 0.31284 0.00836 0.36114 0.0
C105 C 0.34063 0.97845 0.33812 0.0
C106 C 0.30124 0.96301 0.37716 0.0
C107 C 0.29581 0.96865 0.32241 0.0
O108 O 0.30372 0.96411 0.32712 0.0
O109 O 0.29504 0.97799 0.33064 0.0
O110 O 0.33157 0.96541 0.33931 0.0
O111 O 0.33684 0.98732 0.34234 0.0
O112 O 0.04095 0.34305 0.32552 0.0
Cd113 Cd 0.03363 0.34991 0.34458 0.0
Cd114 Cd 0.02017 0.32236 0.35154 0.0
O115 O 0.02754 0.32045 0.32898 0.0
O116 O 0.0384 0.36903 0.33783 0.0
O117 O 0.01673 0.35186 0.34063 0.0
C118 C 0.02526 0.36463 0.33663 0.0
C119 C 0.99696 0.30788 0.35913 0.0
C120 C 0.03675 0.33064 0.32081 0.0
C121 C 0.04183 0.34178 0.37558 0.0
O122 O 0.03408 0.32933 0.37075 0.0
O123 O 0.04249 0.35185 0.36743 0.0
O124 O 0.0056 0.30333 0.35822 0.0
O125 O 1.00138 0.32066 0.35503 0.0
O126 O 0.66373 0.96446 0.32577 0.0
Cd127 Cd 0.65585 0.97035 0.34515 0.0
Cd128 Cd 0.68346 0.98504 0.35315 0.0
O129 O 0.68611 0.97816 0.33055 0.0
O130 O 0.63665 0.96501 0.33805 0.0
O131 O 0.65305 0.98684 0.34213 0.0
C132 C 0.6405 0.97806 0.33759 0.0
C133 C 0.69761 0.00829 0.36092 0.0
C134 C 0.67635 0.96916 0.32166 0.0
C135 C 0.66404 0.96222 0.37625 0.0
O136 O 0.67648 0.971 0.37225 0.0
O137 O 0.65394 0.96072 0.36745 0.0
O138 O 0.70231 0.99976 0.36026 0.0
O139 O 0.68486 0.00372 0.35658 0.0
O140 O 0.0419 0.70007 0.32657 0.0
Cd141 Cd 0.03454 0.68595 0.34561 0.0
Cd142 Cd 0.02014 0.69907 0.35213 0.0
O143 O 0.02722 0.70787 0.32933 0.0
O144 O 0.03929 0.67142 0.33946 0.0
O145 O 0.01763 0.66724 0.3413 0.0
C146 C 0.02615 0.66282 0.33787 0.0
C147 C 0.99682 0.68995 0.35954 0.0
C148 C 0.03696 0.70754 0.32149 0.0
C149 C 0.04194 0.70236 0.37651 0.0
O150 O 0.03402 0.70675 0.37138 0.0
O151 O 0.04293 0.693 0.3686 0.0
O152 O 0.00519 0.70317 0.35844 0.0
O153 O 1.00158 0.68177 0.35579 0.0
O154 O 0.29924 0.32825 0.37032 0.0
Cd155 Cd 0.30653 0.32145 0.35119 0.0
Cd156 Cd 0.3199 0.34892 0.34378 0.0
O157 O 0.31243 0.35082 0.36632 0.0
O158 O 0.30251 0.30252 0.35777 0.0
O159 O 0.32387 0.3203 0.35507 0.0
C160 C 0.31574 0.30742 0.35894 0.0
C161 C 0.34315 0.36347 0.33635 0.0
C162 C 0.3034 0.34071 0.37477 0.0
C163 C 0.29825 0.3292 0.31994 0.0
O164 O 0.30614 0.34173 0.32442 0.0
O165 O 0.29744 0.31925 0.32847 0.0
O166 O 0.33444 0.36797 0.33702 0.0
O167 O 0.33877 0.35073 0.34059 0.0
O168 O 0.34133 0.03891 0.70602 0.0
Cd169 Cd 0.34991 0.03331 0.68713 0.0
Cd170 Cd 0.32252 0.01885 0.6776 0.0
O171 O 0.31917 0.0264 0.69933 0.0
O172 O 0.36882 0.03865 0.69535 0.0
O173 O 0.3528 0.01687 0.69016 0.0
C174 C 0.36511 0.02563 0.69544 0.0
C175 C 0.30821 0.9955 0.67031 0.0
C176 C 0.32862 0.03487 0.70896 0.0
C177 C 0.34309 0.04153 0.65512 0.0
O178 O 0.33053 0.03247 0.65818 0.0
O179 O 0.35274 0.04337 0.66494 0.0
O180 O 0.30385 0.0043 0.66976 0.0
O181 O 0.3207 0.99986 0.67557 0.0
O182 O 0.96415 0.30248 0.70376 0.0
Cd183 Cd 0.97137 0.31704 0.68517 0.0
Cd184 Cd 0.98476 0.30286 0.67699 0.0
O185 O 0.97733 0.29312 0.69928 0.0
O186 O 0.96622 0.33099 0.69264 0.0
O187 O 0.98803 0.33595 0.68969 0.0
C188 C 0.97929 0.33988 0.69398 0.0
C189 C 0.00789 0.31129 0.66912 0.0
C190 C 0.96824 0.29406 0.70784 0.0
C191 C 0.96316 0.30148 0.65349 0.0
O192 O 0.97084 0.29656 0.65782 0.0
O193 O 0.96254 0.31068 0.6622 0.0
O194 O 0.99906 0.29814 0.66967 0.0
O195 O 0.00373 0.31976 0.67376 0.0
O196 O 0.70672 0.67417 0.6587 0.0
Cd197 Cd 0.69961 0.6812 0.67787 0.0
Cd198 Cd 0.68665 0.65393 0.68527 0.0
O199 O 0.69336 0.65161 0.66251 0.0
O200 O 0.70393 0.70011 0.67074 0.0
O201 O 0.68245 0.68277 0.67425 0.0
C202 C 0.69074 0.69549 0.66986 0.0
C203 C 0.66365 0.63989 0.6939 0.0
C204 C 0.70246 0.66172 0.65413 0.0
C205 C 0.70885 0.67369 0.70845 0.0
O206 O 0.70123 0.66118 0.70373 0.0
O207 O 0.70896 0.6836 0.70052 0.0
O208 O 0.67212 0.63513 0.69275 0.0
O209 O 0.6681 0.6526 0.68944 0.0
O210 O 0.3294 0.29847 0.65883 0.0
Cd211 Cd 0.32173 0.30467 0.67817 0.0
Cd212 Cd 0.34908 0.31858 0.68635 0.0
O213 O 0.3518 0.31201 0.66363 0.0
O214 O 0.30275 0.30013 0.67103 0.0
O215 O 0.31976 0.32167 0.67527 0.0
C216 C 0.30711 0.31329 0.67072 0.0
C217 C 0.36314 0.34168 0.69468 0.0
C218 C 0.34201 0.30307 0.65472 0.0
C219 C 0.32931 0.29576 0.70907 0.0
O220 O 0.34185 0.30417 0.70505 0.0
O221 O 0.31936 0.29486 0.70046 0.0
O222 O 0.36785 0.33316 0.69386 0.0
O223 O 0.35044 0.3372 0.69017 0.0
O224 O 0.70548 0.03355 0.65687 0.0
Cd225 Cd 0.69933 0.01991 0.67642 0.0
Cd226 Cd 0.68666 0.03475 0.68461 0.0
O227 O 0.69321 0.04381 0.66192 0.0
O228 O 0.70424 0.00584 0.66874 0.0
O229 O 0.6826 1.0007 0.67369 0.0
C230 C 0.69116 0.9968 0.66861 0.0
C231 C 0.6637 0.02612 0.69319 0.0
C232 C 0.70156 0.04211 0.65283 0.0
C233 C 0.70925 0.03699 0.70701 0.0
O234 O 0.70138 0.04175 0.7029 0.0
O235 O 0.70939 0.02735 0.69867 0.0
O236 O 0.67235 0.0393 0.69232 0.0
O237 O 0.66799 0.01772 0.68864 0.0
O238 O 0.9633 0.66144 0.70316 0.0
Cd239 Cd 0.97062 0.65399 0.68477 0.0
Cd240 Cd 0.98517 0.68147 0.67743 0.0
O241 O 0.97786 0.68387 0.69987 0.0
O242 O 0.9655 0.63495 0.69228 0.0
O243 O 0.9873 0.65175 0.68911 0.0
C244 C 0.97859 0.63914 0.69349 0.0
C245 C 0.00854 0.69568 0.67016 0.0
C246 C 0.96807 0.67395 0.7078 0.0
C247 C 0.96327 0.66207 0.65334 0.0
O248 O 0.97141 0.67451 0.65796 0.0
O249 O 0.96204 0.65192 0.66183 0.0
O250 O 0.99998 0.70035 0.6705 0.0
O251 O 0.00394 0.68293 0.67457 0.0
C252 C 0.20778 0.32909 0.12891 0.0
C253 C 0.20521 0.32001 0.11565 0.0
C254 C 0.1969 0.32755 0.13896 0.0
C255 C 0.18321 0.31682 0.1361 0.0
C256 C 0.19149 0.30926 0.11281 0.0
C257 C 0.18059 0.30775 0.12286 0.0
C258 C 0.17153 0.31565 0.14613 0.0
C259 C 0.19773 0.30649 0.18065 0.0
C260 C 0.20348 0.31597 0.19372 0.0
C261 C 0.18755 0.30655 0.17061 0.0
C262 C 0.18297 0.31613 0.1734 0.0
C263 C 0.1988 0.32548 0.1965 0.0
C264 C 0.18862 0.3255 0.18651 0.0
C265 C 0.17179 0.31605 0.16342 0.0
C266 C 0.11531 0.30774 0.18154 0.0
C267 C 0.11938 0.31743 0.19443 0.0
C268 C 0.1253 0.3074 0.17134 0.0
C269 C 0.13954 0.31677 0.17382 0.0
C270 C 0.13364 0.32671 0.1969 0.0
C271 C 0.14359 0.32633 0.18677 0.0
C272 C 0.15038 0.31632 0.16363 0.0
C273 C 0.12759 0.3299 0.12976 0.0
C274 C 0.12085 0.32084 0.11658 0.0
C275 C 0.13694 0.3282 0.13955 0.0
C276 C 0.13963 0.3173 0.13653 0.0
C277 C 0.12358 0.30993 0.11355 0.0
C278 C 0.13297 0.30825 0.12336 0.0
C279 C 0.15009 0.3159 0.14634 0.0
H280 H 0.21822 0.33742 0.1315 0.0
H281 H 0.19917 0.33494 0.1488 0.0
H282 H 0.18914 0.30221 0.10257 0.0
H283 H 0.17009 0.29953 0.12028 0.0
H284 H 0.20113 0.29905 0.17816 0.0
H285 H 0.18312 0.29898 0.16082 0.0
H286 H 0.2028 0.33274 0.20663 0.0
H287 H 0.18516 0.33289 0.18903 0.0
H288 H 0.10441 0.30046 0.17932 0.0
H289 H 0.12191 0.2997 0.16167 0.0
H290 H 0.13714 0.33413 0.20689 0.0
H291 H 0.1545 0.33356 0.18904 0.0
H292 H 0.12566 0.33835 0.13251 0.0
H293 H 0.14224 0.33558 0.14934 0.0
H294 H 0.1187 0.30289 0.10337 0.0
H295 H 0.13504 0.29989 0.12064 0.0
N296 N 0.16064 0.3155 0.13828 0.0
N297 N 0.16124 0.31643 0.17143 0.0
C298 C 0.67628 0.87848 0.12996 0.0
C299 C 0.68595 0.88567 0.11741 0.0
C300 C 0.67764 0.86897 0.13982 0.0
C301 C 0.68869 0.8664 0.13739 0.0
C302 C 0.69698 0.883 0.11497 0.0
C303 C 0.69825 0.87336 0.12478 0.0
C304 C 0.68986 0.85597 0.14749 0.0
C305 C 0.69948 0.89197 0.18144 0.0
C306 C 0.6901 0.88846 0.19458 0.0
C307 C 0.6993 0.88157 0.17151 0.0
C308 C 0.68971 0.86748 0.17452 0.0
C309 C 0.68055 0.87435 0.19753 0.0
C310 C 0.68041 0.86399 0.18767 0.0
C311 C 0.68973 0.85621 0.16476 0.0
C312 C 0.6978 0.80788 0.18341 0.0
C313 C 0.68963 0.80396 0.19769 0.0
C314 C 0.69772 0.81771 0.17274 0.0
C315 C 0.68918 0.8235 0.17594 0.0
C316 C 0.68117 0.80979 0.20088 0.0
C317 C 0.68095 0.81943 0.19014 0.0
C318 C 0.68936 0.83447 0.16539 0.0
C319 C 0.67452 0.79722 0.13246 0.0
C320 C 0.68317 0.7991 0.11896 0.0
C321 C 0.6766 0.80856 0.14203 0.0
C322 C 0.6875 0.82201 0.13847 0.0
C323 C 0.69405 0.81259 0.11537 0.0
C324 C 0.69612 0.82394 0.12496 0.0
C325 C 0.68933 0.83416 0.14808 0.0
H326 H 0.66745 0.87996 0.13197 0.0
H327 H 0.66991 0.86343 0.1492 0.0
H328 H 0.70471 0.88842 0.10558 0.0
H329 H 0.7068 0.87145 0.12262 0.0
H330 H 0.70695 0.90275 0.17883 0.0
H331 H 0.70682 0.88453 0.16169 0.0
H332 H 0.67335 0.87127 0.20772 0.0
H333 H 0.67302 0.8532 0.19035 0.0
H334 H 0.70454 0.80366 0.18077 0.0
H335 H 0.70455 0.82097 0.1622 0.0
H336 H 0.67466 0.80686 0.21171 0.0
H337 H 0.67433 0.82376 0.19299 0.0
H338 H 0.66611 0.78697 0.13564 0.0
H339 H 0.66955 0.80682 0.1521 0.0
H340 H 0.70077 0.81443 0.10493 0.0
H341 H 0.70445 0.83425 0.12183 0.0
N342 N 0.68971 0.84499 0.13982 0.0
N343 N 0.68948 0.84546 0.17297 0.0
C344 C 0.12565 0.79822 0.12922 0.0
C345 C 0.11894 0.80084 0.11628 0.0
C346 C 0.1351 0.80906 0.13921 0.0
C347 C 0.13796 0.82275 0.13658 0.0
C348 C 0.12178 0.81455 0.1137 0.0
C349 C 0.13129 0.82541 0.12368 0.0
C350 C 0.14865 0.83441 0.14645 0.0
C351 C 0.11422 0.8087 0.18259 0.0
C352 C 0.11827 0.80298 0.19536 0.0
C353 C 0.12417 0.81858 0.17199 0.0
C354 C 0.13833 0.82286 0.1739 0.0
C355 C 0.13245 0.80716 0.19701 0.0
C356 C 0.14235 0.81705 0.18649 0.0
C357 C 0.14918 0.83407 0.1637 0.0
C358 C 0.19665 0.89072 0.18166 0.0
C359 C 0.20249 0.88673 0.19433 0.0
C360 C 0.1865 0.88069 0.17137 0.0
C361 C 0.18203 0.8665 0.17356 0.0
C362 C 0.19799 0.87253 0.19643 0.0
C363 C 0.18783 0.86254 0.18623 0.0
C364 C 0.17069 0.85558 0.16354 0.0
C365 C 0.20627 0.87874 0.12863 0.0
C366 C 0.2036 0.88549 0.11579 0.0
C367 C 0.19548 0.86932 0.1387 0.0
C368 C 0.18179 0.86654 0.13625 0.0
C369 C 0.18989 0.8827 0.11337 0.0
C370 C 0.17908 0.87323 0.12342 0.0
C371 C 0.1702 0.85596 0.14629 0.0
H372 H 0.12363 0.78777 0.13161 0.0
H373 H 0.14039 0.80676 0.14877 0.0
H374 H 0.11693 0.81693 0.10371 0.0
H375 H 0.13349 0.83592 0.12127 0.0
H376 H 0.10343 0.80588 0.18109 0.0
H377 H 0.12083 0.82314 0.1626 0.0
H378 H 0.13593 0.80279 0.20648 0.0
H379 H 0.15321 0.82019 0.18822 0.0
H380 H 0.19991 0.90158 0.17971 0.0
H381 H 0.18195 0.884 0.16192 0.0
H382 H 0.20208 0.86908 0.20625 0.0
H383 H 0.18445 0.85166 0.18828 0.0
H384 H 0.21672 0.88071 0.13089 0.0
H385 H 0.19782 0.86403 0.14822 0.0
H386 H 0.18746 0.88759 0.10345 0.0
H387 H 0.16857 0.87109 0.12116 0.0
N388 N 0.15915 0.84539 0.13843 0.0
N389 N 0.1602 0.84463 0.17151 0.0
C390 C 0.32359 0.12271 0.84647 0.0
C391 C 0.31256 0.11532 0.83546 0.0
C392 C 0.32351 0.13257 0.85709 0.0
C393 C 0.31236 0.1352 0.85695 0.0
C394 C 0.30135 0.11787 0.83548 0.0
C395 C 0.30132 0.12781 0.84602 0.0
C396 C 0.3127 0.14643 0.86712 0.0
C397 C 0.30967 0.1136 0.90199 0.0
C398 C 0.32072 0.11835 0.91322 0.0
C399 C 0.3078 0.12305 0.89251 0.0
C400 C 0.31705 0.13743 0.89393 0.0
C401 C 0.32975 0.13277 0.91485 0.0
C402 C 0.32791 0.14218 0.90535 0.0
C403 C 0.31531 0.14771 0.88413 0.0
C404 C 0.30868 0.19735 0.90194 0.0
C405 C 0.31872 0.20285 0.91439 0.0
C406 C 0.3073 0.18631 0.89223 0.0
C407 C 0.31627 0.1809 0.89441 0.0
C408 C 0.32738 0.19715 0.91692 0.0
C409 C 0.32619 0.18633 0.90702 0.0
C410 C 0.31512 0.16921 0.88429 0.0
C411 C 0.32364 0.2031 0.84784 0.0
C412 C 0.31339 0.19948 0.83573 0.0
C413 C 0.32337 0.19297 0.85824 0.0
C414 C 0.3127 0.17904 0.85698 0.0
C415 C 0.30276 0.18549 0.83446 0.0
C416 C 0.30246 0.1754 0.84492 0.0
C417 C 0.31275 0.16802 0.86719 0.0
H418 H 0.33234 0.12093 0.84678 0.0
H419 H 0.3323 0.13837 0.86513 0.0
H420 H 0.2928 0.1125 0.827 0.0
H421 H 0.29272 0.12981 0.84556 0.0
H422 H 0.30254 0.10258 0.90037 0.0
H423 H 0.29908 0.11909 0.88417 0.0
H424 H 0.33819 0.13683 0.92361 0.0
H425 H 0.33507 0.15322 0.90686 0.0
H426 H 0.30174 0.20144 0.89992 0.0
H427 H 0.29914 0.18198 0.88312 0.0
H428 H 0.33523 0.20124 0.92641 0.0
H429 H 0.33315 0.18228 0.90913 0.0
H430 H 0.33193 0.21376 0.84927 0.0
H431 H 0.33165 0.19602 0.86708 0.0
H432 H 0.29485 0.18226 0.82509 0.0
H433 H 0.29426 0.16468 0.84351 0.0
N434 N 0.31149 0.1566 0.85938 0.0
N435 N 0.31641 0.15904 0.89198 0.0
C436 C 0.8908 0.19631 0.90218 0.0
C437 C 0.88607 0.20259 0.91356 0.0
C438 C 0.88135 0.1851 0.89256 0.0
C439 C 0.86697 0.18006 0.89392 0.0
C440 C 0.87166 0.1973 0.9151 0.0
C441 C 0.86224 0.18618 0.90543 0.0
C442 C 0.85669 0.16803 0.8841 0.0
C443 C 0.88204 0.20076 0.84613 0.0
C444 C 0.88909 0.1968 0.8349 0.0
C445 C 0.87226 0.19104 0.85698 0.0
C446 C 0.8694 0.1772 0.85691 0.0
C447 C 0.88633 0.18297 0.83507 0.0
C448 C 0.87652 0.17326 0.84587 0.0
C449 C 0.85813 0.16647 0.86716 0.0
C450 C 0.80198 0.11947 0.84763 0.0
C451 C 0.80627 0.11375 0.8351 0.0
C452 C 0.81174 0.12939 0.85833 0.0
C453 C 0.82592 0.13346 0.85703 0.0
C454 C 0.82042 0.11783 0.83375 0.0
C455 C 0.83013 0.12755 0.84463 0.0
C456 C 0.83664 0.14484 0.86726 0.0
C457 C 0.80757 0.11219 0.90291 0.0
C458 C 0.80102 0.11684 0.914 0.0
C459 C 0.81872 0.12169 0.89325 0.0
C460 C 0.82342 0.13602 0.8943 0.0
C461 C 0.80602 0.13123 0.9153 0.0
C462 C 0.81709 0.14068 0.9056 0.0
C463 C 0.83522 0.14634 0.88425 0.0
H464 H 0.90181 0.20012 0.90059 0.0
H465 H 0.8853 0.18031 0.88419 0.0
H466 H 0.86759 0.20164 0.92397 0.0
H467 H 0.85121 0.18237 0.90692 0.0
H468 H 0.88371 0.21125 0.84615 0.0
H469 H 0.86662 0.19426 0.86504 0.0
H470 H 0.89168 0.17959 0.82676 0.0
H471 H 0.87441 0.16261 0.84552 0.0
H472 H 0.79116 0.11668 0.84873 0.0
H473 H 0.80821 0.13418 0.86726 0.0
H474 H 0.82399 0.11357 0.8242 0.0
H475 H 0.841 0.13062 0.84319 0.0
H476 H 0.80398 0.1012 0.90154 0.0
H477 H 0.82367 0.11782 0.88499 0.0
H478 H 0.80148 0.13523 0.92395 0.0
H479 H 0.82065 0.15168 0.90685 0.0
N480 N 0.84527 0.15792 0.8919 0.0
N481 N 0.84809 0.15493 0.8595 0.0
C482 C 0.80748 0.69609 0.90228 0.0
C483 C 0.80074 0.68482 0.91316 0.0
C484 C 0.81888 0.69785 0.89299 0.0
C485 C 0.82363 0.68828 0.89425 0.0
C486 C 0.80584 0.67554 0.91474 0.0
C487 C 0.81717 0.67728 0.90543 0.0
C488 C 0.83552 0.68973 0.88437 0.0
C489 C 0.80209 0.68264 0.8478 0.0
C490 C 0.80627 0.69255 0.83523 0.0
C491 C 0.81192 0.68256 0.8584 0.0
C492 C 0.82608 0.69267 0.85699 0.0
C493 C 0.82041 0.70257 0.83372 0.0
C494 C 0.83021 0.70265 0.8445 0.0
C495 C 0.83686 0.69222 0.86732 0.0
C496 C 0.88384 0.68274 0.84809 0.0
C497 C 0.88957 0.69263 0.8355 0.0
C498 C 0.87389 0.68267 0.85872 0.0
C499 C 0.86982 0.69277 0.85727 0.0
C500 C 0.88547 0.70267 0.83401 0.0
C501 C 0.87572 0.70275 0.8448 0.0
C502 C 0.85848 0.69227 0.86748 0.0
C503 C 0.8913 0.69618 0.90306 0.0
C504 C 0.88663 0.68518 0.91437 0.0
C505 C 0.8818 0.69781 0.89338 0.0
C506 C 0.86746 0.68834 0.89461 0.0
C507 C 0.87223 0.67599 0.91587 0.0
C508 C 0.86278 0.67756 0.90613 0.0
C509 C 0.85712 0.68975 0.88453 0.0
H510 H 0.80382 0.70342 0.90073 0.0
H511 H 0.82392 0.70666 0.88479 0.0
H512 H 0.80111 0.66693 0.92325 0.0
H513 H 0.82077 0.66987 0.90681 0.0
H514 H 0.79128 0.67464 0.84902 0.0
H515 H 0.80847 0.67435 0.86741 0.0
H516 H 0.8239 0.71033 0.82413 0.0
H517 H 0.84106 0.71043 0.84297 0.0
H518 H 0.88665 0.67473 0.84931 0.0
H519 H 0.86912 0.67447 0.86773 0.0
H520 H 0.88974 0.71042 0.82442 0.0
H521 H 0.87263 0.71055 0.84326 0.0
H522 H 0.9023 0.70344 0.90154 0.0
H523 H 0.88569 0.70647 0.88495 0.0
H524 H 0.86821 0.6676 0.92469 0.0
H525 H 0.85177 0.67025 0.90752 0.0
N526 N 0.84567 0.68851 0.89221 0.0
N527 N 0.84832 0.69348 0.85966 0.0
C528 C 0.78177 0.64349 0.46126 0.0
C529 C 0.78624 0.65485 0.45053 0.0
C530 C 0.79142 0.64166 0.47034 0.0
C531 C 0.80573 0.65125 0.46906 0.0
C532 C 0.8006 0.66419 0.44896 0.0
C533 C 0.81022 0.66238 0.45808 0.0
C534 C 0.81618 0.6496 0.47861 0.0
C535 C 0.79057 0.6565 0.51672 0.0
C536 C 0.78349 0.64538 0.5277 0.0
C537 C 0.80055 0.65679 0.50597 0.0
C538 C 0.80356 0.6459 0.50587 0.0
C539 C 0.78645 0.63443 0.52743 0.0
C540 C 0.79645 0.63475 0.51672 0.0
C541 C 0.81488 0.6466 0.49553 0.0
C542 C 0.87161 0.65753 0.51435 0.0
C543 C 0.86802 0.64701 0.52609 0.0
C544 C 0.86149 0.6574 0.50407 0.0
C545 C 0.84759 0.64661 0.50508 0.0
C546 C 0.85408 0.63623 0.52706 0.0
C547 C 0.84399 0.63608 0.51672 0.0
C548 C 0.83656 0.64687 0.49511 0.0
C549 C 0.86574 0.64355 0.45951 0.0
C550 C 0.87213 0.65463 0.44834 0.0
C551 C 0.85455 0.64182 0.46914 0.0
C552 C 0.84963 0.65128 0.46801 0.0
C553 C 0.86692 0.66384 0.44693 0.0
C554 C 0.85579 0.66216 0.45662 0.0
C555 C 0.83781 0.64973 0.47814 0.0
H556 H 0.7708 0.63612 0.46281 0.0
H557 H 0.78768 0.63273 0.47834 0.0
H558 H 0.80445 0.67288 0.44057 0.0
H559 H 0.8212 0.66981 0.45667 0.0
H560 H 0.78877 0.66524 0.5168 0.0
H561 H 0.80618 0.66572 0.49806 0.0
H562 H 0.78109 0.62562 0.53557 0.0
H563 H 0.79868 0.62629 0.51695 0.0
H564 H 0.88224 0.66594 0.51318 0.0
H565 H 0.86451 0.6659 0.49556 0.0
H566 H 0.85088 0.6281 0.53614 0.0
H567 H 0.8333 0.62777 0.51793 0.0
H568 H 0.8695 0.63628 0.46097 0.0
H569 H 0.84972 0.63308 0.47745 0.0
H570 H 0.87135 0.67231 0.43822 0.0
H571 H 0.85207 0.66947 0.45532 0.0
N572 N 0.82761 0.65108 0.47063 0.0
N573 N 0.82508 0.6453 0.50306 0.0
C574 C 0.34266 0.21383 0.4649 0.0
C575 C 0.35099 0.21937 0.45089 0.0
C576 C 0.34377 0.20405 0.47455 0.0
C577 C 0.3535 0.19987 0.47066 0.0
C578 C 0.36041 0.21488 0.4467 0.0
C579 C 0.36165 0.20522 0.4565 0.0
C580 C 0.35469 0.18942 0.48078 0.0
C581 C 0.36546 0.22574 0.51479 0.0
C582 C 0.35599 0.22237 0.52781 0.0
C583 C 0.36519 0.21525 0.50495 0.0
C584 C 0.35543 0.20121 0.50796 0.0
C585 C 0.34635 0.2083 0.53084 0.0
C586 C 0.34614 0.19785 0.52109 0.0
C587 C 0.35511 0.18984 0.49807 0.0
C588 C 0.36429 0.14227 0.5164 0.0
C589 C 0.35637 0.13833 0.53088 0.0
C590 C 0.36372 0.15181 0.50567 0.0
C591 C 0.35497 0.15731 0.50905 0.0
C592 C 0.34763 0.14383 0.53419 0.0
C593 C 0.34696 0.15321 0.52342 0.0
C594 C 0.35477 0.16813 0.49857 0.0
C595 C 0.33982 0.13065 0.46595 0.0
C596 C 0.34828 0.13259 0.45222 0.0
C597 C 0.34185 0.14199 0.4755 0.0
C598 C 0.35249 0.1555 0.47165 0.0
C599 C 0.35889 0.14614 0.44836 0.0
C600 C 0.3609 0.15749 0.45791 0.0
C601 C 0.35431 0.16765 0.48127 0.0
H602 H 0.33507 0.21684 0.46822 0.0
H603 H 0.33687 0.19965 0.48495 0.0
H604 H 0.36694 0.21896 0.43595 0.0
H605 H 0.36907 0.202 0.45308 0.0
H606 H 0.37301 0.23649 0.51216 0.0
H607 H 0.37267 0.21809 0.4951 0.0
H608 H 0.33909 0.20533 0.54095 0.0
H609 H 0.33862 0.18709 0.52376 0.0
H610 H 0.37123 0.1383 0.51364 0.0
H611 H 0.37037 0.15511 0.49497 0.0
H612 H 0.34128 0.14086 0.54514 0.0
H613 H 0.34017 0.15733 0.52639 0.0
H614 H 0.33162 0.12035 0.46934 0.0
H615 H 0.33497 0.1402 0.48576 0.0
H616 H 0.36545 0.14802 0.43774 0.0
H617 H 0.36903 0.16784 0.45457 0.0
N618 N 0.3544 0.17837 0.47308 0.0
N619 N 0.35508 0.17918 0.5062 0.0
C620 C 0.79403 0.13116 0.46198 0.0
C621 C 0.7874 0.1334 0.44865 0.0
C622 C 0.8034 0.14228 0.47171 0.0
C623 C 0.80625 0.15588 0.46843 0.0
C624 C 0.79032 0.14704 0.44534 0.0
C625 C 0.79974 0.15818 0.45506 0.0
C626 C 0.81658 0.16778 0.4783 0.0
C627 C 0.78108 0.14179 0.51312 0.0
C628 C 0.78499 0.13764 0.52744 0.0
C629 C 0.79123 0.15147 0.50252 0.0
C630 C 0.80545 0.15689 0.50588 0.0
C631 C 0.79919 0.14304 0.53073 0.0
C632 C 0.80929 0.15254 0.52008 0.0
C633 C 0.81652 0.16788 0.4956 0.0
C634 C 0.86286 0.2249 0.51373 0.0
C635 C 0.86843 0.22121 0.527 0.0
C636 C 0.8532 0.21468 0.50318 0.0
C637 C 0.84899 0.20059 0.50568 0.0
C638 C 0.86435 0.2071 0.52919 0.0
C639 C 0.85466 0.19692 0.51875 0.0
C640 C 0.83799 0.18946 0.49555 0.0
C641 C 0.87471 0.21224 0.46224 0.0
C642 C 0.87244 0.21863 0.44868 0.0
C643 C 0.86359 0.20289 0.47195 0.0
C644 C 0.84995 0.19982 0.46845 0.0
C645 C 0.85878 0.21553 0.44516 0.0
C646 C 0.84763 0.20613 0.45489 0.0
C647 C 0.83806 0.18941 0.47827 0.0
H648 H 0.79196 0.12078 0.46492 0.0
H649 H 0.80855 0.14026 0.48169 0.0
H650 H 0.78554 0.14915 0.43504 0.0
H651 H 0.80193 0.16861 0.45217 0.0
H652 H 0.7702 0.13789 0.51039 0.0
H653 H 0.78794 0.15496 0.49197 0.0
H654 H 0.80251 0.13991 0.54158 0.0
H655 H 0.82016 0.15658 0.52302 0.0
H656 H 0.86562 0.23563 0.51178 0.0
H657 H 0.84876 0.21774 0.49337 0.0
H658 H 0.86862 0.20387 0.53903 0.0
H659 H 0.85156 0.18612 0.52091 0.0
H660 H 0.8851 0.21446 0.46538 0.0
H661 H 0.86564 0.19787 0.48204 0.0
H662 H 0.85666 0.22013 0.43468 0.0
H663 H 0.83718 0.20377 0.45181 0.0
N664 N 0.8273 0.1786 0.47032 0.0
N665 N 0.82727 0.1787 0.50346 0.0
C666 C 0.98033 0.5322 0.17995 0.0
C667 C 0.98971 0.53823 0.16686 0.0
C668 C 0.98083 0.5222 0.18989 0.0
C669 C 0.99077 0.5181 0.18698 0.0
C670 C 0.99954 0.534 0.1639 0.0
C671 C 1.0 0.52399 0.17379 0.0
C672 C 0.99124 0.50724 0.19703 0.0
C673 C 0.00316 0.54367 0.23032 0.0
C674 C 0.99472 0.54093 0.24424 0.0
C675 C 1.00203 0.53278 0.2206 0.0
C676 C 0.99219 0.5189 0.22433 0.0
C677 C 0.98509 0.52705 0.24819 0.0
C678 C 0.98385 0.51614 0.23833 0.0
C679 C 0.99115 0.50722 0.21434 0.0
C680 C 0.00403 0.4622 0.23102 0.0
C681 C 0.99488 0.45578 0.24422 0.0
C682 C 0.00275 0.47177 0.22113 0.0
C683 C 0.99223 0.47503 0.22413 0.0
C684 C 0.98436 0.45907 0.2472 0.0
C685 C 0.98312 0.46868 0.23733 0.0
C686 C 0.99125 0.4857 0.21426 0.0
C687 C 0.98107 0.4504 0.17884 0.0
C688 C 0.99068 0.45401 0.16592 0.0
C689 C 0.98145 0.46066 0.18921 0.0
C690 C 0.99148 0.47471 0.18689 0.0
C691 C 1.00081 0.4681 0.16383 0.0
C692 C 1.00112 0.47832 0.1741 0.0
C693 C 0.99151 0.48584 0.19698 0.0
H694 H 0.97265 0.53526 0.18258 0.0
H695 H 0.97337 0.51757 0.19975 0.0
H696 H 0.00674 0.53824 0.15374 0.0
H697 H 0.00764 0.52087 0.17117 0.0
H698 H 0.0109 0.55424 0.22718 0.0
H699 H 0.00904 0.53522 0.21032 0.0
H700 H 0.97844 0.52462 0.25883 0.0
H701 H 0.97632 0.50554 0.24162 0.0
H702 H 0.0122 0.45985 0.22833 0.0
H703 H 0.01016 0.47679 0.21131 0.0
H704 H 0.97727 0.45445 0.25741 0.0
H705 H 0.97504 0.47118 0.24002 0.0
H706 H 0.97299 0.43971 0.18067 0.0
H707 H 0.9737 0.45765 0.19876 0.0
H708 H 0.00855 0.47126 0.15424 0.0
H709 H 0.00893 0.4891 0.17206 0.0
N710 N 0.99154 0.49662 0.18908 0.0
N711 N 0.99103 0.49637 0.22225 0.0
C712 C 0.47488 0.44608 0.18131 0.0
C713 C 0.4707 0.45011 0.16709 0.0
C714 C 0.48472 0.45613 0.19188 0.0
C715 C 0.49029 0.47039 0.18859 0.0
C716 C 0.47627 0.46435 0.16389 0.0
C717 C 0.48594 0.47435 0.17449 0.0
C718 C 0.5014 0.48136 0.19883 0.0
C719 C 0.46466 0.4592 0.23263 0.0
C720 C 0.46696 0.45271 0.24607 0.0
C721 C 0.47574 0.46846 0.22278 0.0
C722 C 0.48935 0.47132 0.22605 0.0
C723 C 0.48061 0.45564 0.24935 0.0
C724 C 0.4917 0.46494 0.23951 0.0
C725 C 0.50124 0.48158 0.21612 0.0
C726 C 0.54676 0.53976 0.23155 0.0
C727 C 0.55235 0.5373 0.24573 0.0
C728 C 0.53724 0.52868 0.2219 0.0
C729 C 0.53336 0.5149 0.22596 0.0
C730 C 0.54823 0.5235 0.25001 0.0
C731 C 0.53882 0.51242 0.24022 0.0
C732 C 0.52295 0.50302 0.21606 0.0
C733 C 0.55877 0.52848 0.18135 0.0
C734 C 0.55498 0.53288 0.16712 0.0
C735 C 0.54853 0.51873 0.19181 0.0
C736 C 0.53434 0.5135 0.18842 0.0
C737 C 0.5408 0.52757 0.16374 0.0
C738 C 0.53062 0.518 0.17425 0.0
C739 C 0.52315 0.50271 0.19876 0.0
H740 H 0.47087 0.43517 0.18399 0.0
H741 H 0.48818 0.45275 0.20238 0.0
H742 H 0.47311 0.46778 0.15316 0.0
H743 H 0.4901 0.48525 0.17161 0.0
H744 H 0.45428 0.45712 0.22971 0.0
H745 H 0.47369 0.47351 0.21272 0.0
H746 H 0.48276 0.45098 0.25974 0.0
H747 H 0.50214 0.46715 0.2424 0.0
H748 H 0.5495 0.55025 0.22815 0.0
H749 H 0.53276 0.5309 0.21138 0.0
H750 H 0.55237 0.52129 0.26086 0.0
H751 H 0.53583 0.50189 0.24376 0.0
H752 H 0.56962 0.53231 0.18415 0.0
H753 H 0.5517 0.51514 0.20237 0.0
H754 H 0.53757 0.53089 0.15298 0.0
H755 H 0.51978 0.5141 0.17128 0.0
N756 N 0.51234 0.49194 0.19094 0.0
N757 N 0.51206 0.49236 0.22403 0.0
C758 C 0.4694 0.01908 0.23476 0.0
C759 C 0.46274 0.00799 0.24588 0.0
C760 C 0.48057 0.02058 0.22524 0.0
C761 C 0.48521 0.01091 0.22647 0.0
C762 C 0.46765 0.99853 0.24733 0.0
C763 C 0.47877 1.00001 0.23778 0.0
C764 C 0.49707 0.0123 0.21656 0.0
C765 C 0.46372 0.00507 0.17992 0.0
C766 C 0.46761 0.01562 0.16816 0.0
C767 C 0.47365 0.00493 0.19032 0.0
C768 C 0.48766 0.01549 0.18938 0.0
C769 C 0.48165 0.02615 0.16725 0.0
C770 C 0.49156 0.02604 0.1777 0.0
C771 C 0.49848 0.01502 0.19956 0.0
C772 C 0.54551 0.0057 0.18029 0.0
C773 C 0.55221 0.01634 0.16862 0.0
C774 C 0.53521 0.00533 0.19052 0.0
C775 C 0.53155 0.01575 0.18954 0.0
C776 C 0.54844 0.02669 0.16761 0.0
C777 C 0.53819 0.02636 0.17791 0.0
C778 C 0.5201 0.01511 0.19964 0.0
C779 C 0.55301 0.01927 0.23513 0.0
C780 C 0.54853 0.00818 0.24627 0.0
C781 C 0.5434 0.02073 0.22549 0.0
C782 C 0.52911 0.01102 0.22662 0.0
C783 C 0.53418 0.99868 0.24761 0.0
C784 C 0.5246 1.00011 0.23794 0.0
C785 C 0.51868 0.01237 0.21664 0.0
H786 H 0.46588 0.02653 0.23326 0.0
H787 H 0.48561 0.02933 0.21696 0.0
H788 H 0.46298 0.99003 0.256 0.0
H789 H 0.48227 0.99254 0.23915 0.0
H790 H 0.453 0.99683 0.18105 0.0
H791 H 0.4704 0.99642 0.19886 0.0
H792 H 0.48508 0.0343 0.15815 0.0
H793 H 0.50233 0.03418 0.17655 0.0
H794 H 0.54819 0.99759 0.18149 0.0
H795 H 0.52996 0.99677 0.19901 0.0
H796 H 0.55315 0.03489 0.15858 0.0
H797 H 0.53539 0.03438 0.17672 0.0
H798 H 0.56397 0.02675 0.23372 0.0
H799 H 0.54714 0.02948 0.21722 0.0
H800 H 0.53031 0.9902 0.25629 0.0
H801 H 0.51363 0.9926 0.23923 0.0
N802 N 0.50719 0.01101 0.22436 0.0
N803 N 0.50999 0.0164 0.19185 0.0
C804 C 0.54371 0.00179 0.79893 0.0
C805 C 0.54117 0.99284 0.78556 0.0
C806 C 0.53275 1.00036 0.80878 0.0
C807 C 0.51903 0.98984 0.80559 0.0
C808 C 0.52742 0.98234 0.78235 0.0
C809 C 0.51645 0.98093 0.7922 0.0
C810 C 0.5073 0.98869 0.8155 0.0
C811 C 0.53258 0.97831 0.84988 0.0
C812 C 0.53836 0.98753 0.86317 0.0
C813 C 0.52262 0.97878 0.83985 0.0
C814 C 0.51831 0.98854 0.84284 0.0
C815 C 0.53395 0.99722 0.86617 0.0
C816 C 0.52399 0.99766 0.85617 0.0
C817 C 0.50737 0.98888 0.8328 0.0
C818 C 0.45058 0.97993 0.85019 0.0
C819 C 0.45434 0.98939 0.86329 0.0
C820 C 0.46079 0.97991 0.84011 0.0
C821 C 0.47495 0.9894 0.84287 0.0
C822 C 0.46853 0.99881 0.86604 0.0
C823 C 0.4787 0.99876 0.85601 0.0
C824 C 0.486 0.98921 0.83282 0.0
C825 C 0.46313 0.00251 0.79868 0.0
C826 C 0.45591 0.99293 0.78607 0.0
C827 C 0.47274 1.00114 0.80836 0.0
C828 C 0.47533 0.99013 0.80569 0.0
C829 C 0.45862 0.98195 0.78339 0.0
C830 C 0.46832 0.98065 0.79301 0.0
C831 C 0.48586 0.98891 0.81554 0.0
H832 H 0.55418 0.00994 0.80181 0.0
H833 H 0.535 0.00763 0.81875 0.0
H834 H 0.52509 0.9754 0.772 0.0
H835 H 0.50593 0.97287 0.78936 0.0
H836 H 0.53578 0.97074 0.84722 0.0
H837 H 0.51816 0.97139 0.8299 0.0
H838 H 0.538 0.0043 0.87646 0.0
H839 H 0.52071 0.00517 0.85885 0.0
H840 H 0.43975 0.97256 0.84772 0.0
H841 H 0.45762 0.97234 0.83032 0.0
H842 H 0.4718 0.00605 0.8762 0.0
H843 H 0.48956 0.00606 0.85851 0.0
H844 H 0.46159 0.01129 0.80088 0.0
H845 H 0.47832 0.00883 0.81776 0.0
H846 H 0.45317 0.97429 0.77393 0.0
H847 H 0.47025 0.97214 0.79066 0.0
N848 N 0.49648 0.9886 0.80756 0.0
N849 N 0.49676 0.98922 0.84074 0.0
C850 C 1.00124 0.54136 0.79774 0.0
C851 C 0.01093 0.54855 0.78521 0.0
C852 C 0.00248 0.5317 0.80747 0.0
C853 C 0.01342 0.52899 0.80492 0.0
C854 C 0.02185 0.54573 0.78265 0.0
C855 C 0.023 0.53595 0.79232 0.0
C856 C 0.01448 0.51843 0.81488 0.0
C857 C 0.02452 0.55424 0.84905 0.0
C858 C 0.01515 0.55088 0.86217 0.0
C859 C 0.02414 0.54377 0.83911 0.0
C860 C 0.01435 0.52973 0.84205 0.0
C861 C 0.0054 0.53681 0.8651 0.0
C862 C 0.00507 0.52636 0.8552 0.0
C863 C 0.01418 0.51842 0.83216 0.0
C864 C 0.02357 0.47102 0.85011 0.0
C865 C 0.01407 0.46534 0.86315 0.0
C866 C 0.02351 0.48113 0.83994 0.0
C867 C 0.01391 0.48571 0.8426 0.0
C868 C 0.00454 0.47002 0.8658 0.0
C869 C 0.00453 0.48014 0.8557 0.0
C870 C 0.01397 0.49678 0.83241 0.0
C871 C 1.00078 0.46017 0.79894 0.0
C872 C 0.00981 0.46248 0.7857 0.0
C873 C 0.00228 0.47125 0.80858 0.0
C874 C 0.01295 0.48489 0.80534 0.0
C875 C 0.02044 0.47616 0.78242 0.0
C876 C 0.02192 0.48726 0.79208 0.0
C877 C 0.01425 0.49676 0.81511 0.0
H878 H 0.9925 0.54296 0.79984 0.0
H879 H 0.99473 0.52617 0.81683 0.0
H880 H 0.02959 0.55115 0.77327 0.0
H881 H 0.03146 0.53394 0.79008 0.0
H882 H 0.03213 0.56498 0.84645 0.0
H883 H 0.03166 0.54664 0.8293 0.0
H884 H 0.9982 0.53384 0.87527 0.0
H885 H 0.99753 0.5156 0.85784 0.0
H886 H 0.03101 0.46762 0.84773 0.0
H887 H 0.03108 0.4855 0.83016 0.0
H888 H 0.99726 0.46606 0.87591 0.0
H889 H 0.99713 0.48362 0.85811 0.0
H890 H 0.99254 0.44976 0.80189 0.0
H891 H 0.99496 0.46917 0.81844 0.0
H892 H 0.02743 0.47832 0.77218 0.0
H893 H 0.0301 0.49772 0.7892 0.0
N894 N 0.01458 0.50764 0.80703 0.0
N895 N 0.01388 0.50757 0.84022 0.0
C896 C 0.5325 0.5567 0.79544 0.0
C897 C 0.53917 0.55204 0.78455 0.0
C898 C 0.52099 0.54719 0.80461 0.0
C899 C 0.51602 0.53283 0.80324 0.0
C900 C 0.53388 0.53763 0.78287 0.0
C901 C 0.52243 0.52816 0.79207 0.0
C902 C 0.50394 0.52251 0.81295 0.0
C903 C 0.53708 0.54785 0.85024 0.0
C904 C 0.53323 0.55454 0.86208 0.0
C905 C 0.52718 0.53805 0.83957 0.0
C906 C 0.51325 0.53491 0.84029 0.0
C907 C 0.51927 0.55138 0.86275 0.0
C908 C 0.5094 0.54163 0.85202 0.0
C909 C 0.50243 0.52378 0.82995 0.0
C910 C 0.45594 0.46739 0.84886 0.0
C911 C 0.44926 0.47119 0.86079 0.0
C912 C 0.46602 0.47741 0.83856 0.0
C913 C 0.46946 0.49141 0.83969 0.0
C914 C 0.45276 0.48523 0.86191 0.0
C915 C 0.46278 0.49522 0.85152 0.0
C916 C 0.4808 0.50231 0.82964 0.0
C917 C 0.44814 0.47315 0.79421 0.0
C918 C 0.45281 0.46668 0.78304 0.0
C919 C 0.45764 0.48438 0.80377 0.0
C920 C 0.47198 0.48924 0.80255 0.0
C921 C 0.46721 0.47186 0.78154 0.0
C922 C 0.47667 0.48301 0.79115 0.0
C923 C 0.48229 0.50105 0.81263 0.0
H924 H 0.53631 0.56771 0.79707 0.0
H925 H 0.516 0.55107 0.81278 0.0
H926 H 0.53855 0.53365 0.77436 0.0
H927 H 0.51867 0.51713 0.79059 0.0
H928 H 0.54774 0.55008 0.84929 0.0
H929 H 0.53039 0.53272 0.831 0.0
H930 H 0.51587 0.55612 0.87189 0.0
H931 H 0.49868 0.53922 0.85301 0.0
H932 H 0.45345 0.45668 0.84755 0.0
H933 H 0.47132 0.47422 0.82993 0.0
H934 H 0.44805 0.48861 0.87113 0.0
H935 H 0.46542 0.50599 0.85283 0.0
H936 H 0.43714 0.46944 0.79574 0.0
H937 H 0.45374 0.48926 0.81211 0.0
H938 H 0.47123 0.46737 0.77281 0.0
H939 H 0.48768 0.48668 0.78977 0.0
N940 N 0.49384 0.51116 0.80503 0.0
N941 N 0.49088 0.51368 0.83754 0.0
C942 C 0.65744 0.78835 0.51568 0.0
C943 C 0.647 0.78165 0.50379 0.0
C944 C 0.65733 0.79828 0.52617 0.0
C945 C 0.64664 0.80155 0.52521 0.0
C946 C 0.63629 0.78493 0.5029 0.0
C947 C 0.63615 0.79481 0.51344 0.0
C948 C 0.64696 0.81284 0.53531 0.0
C949 C 0.64356 0.78004 0.57026 0.0
C950 C 0.65481 0.78467 0.58118 0.0
C951 C 0.64168 0.78957 0.56099 0.0
C952 C 0.65111 0.80392 0.56229 0.0
C953 C 0.66395 0.79907 0.58283 0.0
C954 C 0.66209 0.80856 0.57353 0.0
C955 C 0.64956 0.81423 0.55234 0.0
C956 C 0.64395 0.86466 0.56933 0.0
C957 C 0.65412 0.8702 0.58164 0.0
C958 C 0.64229 0.85341 0.55982 0.0
C959 C 0.65109 0.8478 0.56207 0.0
C960 C 0.66261 0.86432 0.58424 0.0
C961 C 0.66113 0.85328 0.57454 0.0
C962 C 0.64962 0.83586 0.55217 0.0
C963 C 0.65806 0.86898 0.51433 0.0
C964 C 0.64738 0.86518 0.50276 0.0
C965 C 0.65784 0.85912 0.52516 0.0
C966 C 0.64685 0.84529 0.52476 0.0
C967 C 0.63634 0.85135 0.50252 0.0
C968 C 0.63614 0.8415 0.51333 0.0
C969 C 0.64706 0.83445 0.53512 0.0
H970 H 0.6658 0.78603 0.5168 0.0
H971 H 0.6658 0.80362 0.53477 0.0
H972 H 0.62822 0.78018 0.49372 0.0
H973 H 0.62793 0.79732 0.51228 0.0
H974 H 0.63634 0.76903 0.56864 0.0
H975 H 0.63288 0.7857 0.55277 0.0
H976 H 0.67254 0.80303 0.59137 0.0
H977 H 0.66939 0.81958 0.57495 0.0
H978 H 0.63714 0.86889 0.56726 0.0
H979 H 0.63402 0.84905 0.55085 0.0
H980 H 0.67056 0.86843 0.59362 0.0
H981 H 0.66796 0.84909 0.5767 0.0
H982 H 0.66685 0.87947 0.51467 0.0
H983 H 0.66645 0.86222 0.53353 0.0
H984 H 0.62787 0.84809 0.4939 0.0
H985 H 0.62761 0.83087 0.5127 0.0
N986 N 0.64573 0.82295 0.52746 0.0
N987 N 0.65083 0.82571 0.56002 0.0
C988 C 0.14134 0.78152 0.5164 0.0
C989 C 0.13524 0.78559 0.5041 0.0
C990 C 0.15122 0.7914 0.52706 0.0
C991 C 0.15516 0.80551 0.52565 0.0
C992 C 0.13903 0.79971 0.503 0.0
C993 C 0.14896 0.80955 0.51355 0.0
C994 C 0.16643 0.81631 0.53581 0.0
C995 C 0.13089 0.79201 0.5702 0.0
C996 C 0.13347 0.78447 0.58217 0.0
C997 C 0.14173 0.80199 0.56065 0.0
C998 C 0.1554 0.80466 0.56278 0.0
C999 C 0.14722 0.78727 0.58436 0.0
C1000 C 0.15808 0.79734 0.57485 0.0
C1001 C 0.16696 0.81557 0.55303 0.0
C1002 C 0.21177 0.87309 0.57085 0.0
C1003 C 0.21924 0.87045 0.58285 0.0
C1004 C 0.20186 0.8623 0.56119 0.0
C1005 C 0.19921 0.84862 0.56323 0.0
C1006 C 0.21643 0.85669 0.585 0.0
C1007 C 0.20644 0.84588 0.57536 0.0
C1008 C 0.18846 0.83713 0.55324 0.0
C1009 C 0.223 0.86384 0.51785 0.0
C1010 C 0.21901 0.86983 0.50535 0.0
C1011 C 0.213 0.85361 0.52807 0.0
C1012 C 0.19881 0.84922 0.52603 0.0
C1013 C 0.2048 0.8654 0.50339 0.0
C1014 C 0.19483 0.85517 0.51355 0.0
C1015 C 0.18793 0.83782 0.53601 0.0
H1016 H 0.13883 0.77079 0.51747 0.0
H1017 H 0.15609 0.78806 0.53607 0.0
H1018 H 0.13437 0.8032 0.49392 0.0
H1019 H 0.15184 0.82038 0.51222 0.0
H1020 H 0.12053 0.79044 0.56842 0.0
H1021 H 0.13944 0.80781 0.55178 0.0
H1022 H 0.1496 0.7816 0.59334 0.0
H1023 H 0.16858 0.79932 0.5768 0.0
H1024 H 0.21337 0.88346 0.56912 0.0
H1025 H 0.19611 0.86463 0.55227 0.0
H1026 H 0.22204 0.85428 0.59402 0.0
H1027 H 0.20446 0.83538 0.57724 0.0
H1028 H 0.23386 0.86705 0.5197 0.0
H1029 H 0.21633 0.84895 0.53734 0.0
H1030 H 0.20133 0.8696 0.49371 0.0
H1031 H 0.18395 0.85185 0.51161 0.0
N1032 N 0.1769 0.82741 0.52803 0.0
N1033 N 0.178 0.82599 0.56108 0.0
C1034 C 0.22395 0.3607 0.5151 0.0
C1035 C 0.22035 0.3514 0.50186 0.0
C1036 C 0.21362 0.36048 0.5252 0.0
C1037 C 0.19951 0.35091 0.52229 0.0
C1038 C 0.20622 0.34187 0.49899 0.0
C1039 C 0.19593 0.34169 0.50903 0.0
C1040 C 0.18831 0.35091 0.53224 0.0
C1041 C 0.21123 0.33771 0.56643 0.0
C1042 C 0.21759 0.34669 0.57979 0.0
C1043 C 0.2018 0.33918 0.55651 0.0
C1044 C 0.19863 0.34976 0.55959 0.0
C1045 C 0.21435 0.35724 0.5829 0.0
C1046 C 0.20488 0.35868 0.57297 0.0
C1047 C 0.1882 0.351 0.54953 0.0
C1048 C 0.1299 0.33745 0.56485 0.0
C1049 C 0.13209 0.34603 0.57852 0.0
C1050 C 0.14107 0.33919 0.55521 0.0
C1051 C 0.1547 0.34967 0.55889 0.0
C1052 C 0.14575 0.35651 0.5822 0.0
C1053 C 0.15695 0.35824 0.57255 0.0
C1054 C 0.16666 0.35107 0.5492 0.0
C1055 C 0.14235 0.36206 0.51371 0.0
C1056 C 0.1367 0.35282 0.5004 0.0
C1057 C 0.15193 0.36136 0.52422 0.0
C1058 C 0.15603 0.35139 0.52166 0.0
C1059 C 0.14072 0.34273 0.49807 0.0
C1060 C 0.15035 0.34212 0.50848 0.0
C1061 C 0.16685 0.35105 0.53192 0.0
H1062 H 0.23474 0.36815 0.51766 0.0
H1063 H 0.21665 0.36793 0.53511 0.0
H1064 H 0.20306 0.33474 0.48873 0.0
H1065 H 0.18511 0.33432 0.50641 0.0
H1066 H 0.21355 0.32953 0.56362 0.0
H1067 H 0.19684 0.33189 0.54655 0.0
H1068 H 0.2189 0.3642 0.59323 0.0
H1069 H 0.20245 0.36679 0.57573 0.0
H1070 H 0.11951 0.32935 0.56158 0.0
H1071 H 0.13906 0.33215 0.54506 0.0
H1072 H 0.14783 0.36317 0.59277 0.0
H1073 H 0.16739 0.36626 0.57576 0.0
H1074 H 0.13967 0.37009 0.51576 0.0
H1075 H 0.15641 0.36884 0.53409 0.0
H1076 H 0.13641 0.33526 0.48817 0.0
H1077 H 0.15336 0.33434 0.50625 0.0
N1078 N 0.17761 0.35089 0.52416 0.0
N1079 N 0.17741 0.35115 0.55733 0.0
H1080 H 0.9747 0.35859 0.05923 0.0
H1081 H 0.97127 0.37069 0.08235 0.0
H1082 H 0.01475 0.40194 0.08077 0.0
H1083 H 0.01834 0.38979 0.0581 0.0
H1084 H 0.00588 0.39459 0.1118 0.0
H1085 H 0.96929 0.40595 0.07796 0.0
H1086 H 0.96385 0.3878 0.0796 0.0
H1087 H 0.97917 0.39914 0.06801 0.0
C1088 C 0.98354 0.368 0.06387 0.0
C1089 C 0.99677 0.37327 0.05671 0.0
C1090 C 0.98155 0.37494 0.07703 0.0
C1091 C 0.9927 0.38738 0.08309 0.0
C1092 C 0.00597 0.3924 0.07627 0.0
H1093 H 0.99503 0.45628 0.13281 0.0
H1094 H 0.99481 0.4391 0.11399 0.0
C1095 C 0.008 0.38543 0.06326 0.0
C1096 C 0.99067 0.39545 0.09628 0.0
H1097 H 0.9742 0.41373 0.10525 0.0
C1098 C 0.99888 0.39871 0.11044 0.0
C1099 C 0.98165 0.40093 0.09439 0.0
C1100 C 0.97307 0.39841 0.07913 0.0
C1101 C 0.99856 0.40754 0.12257 0.0
C1102 C 0.98951 0.413 0.12069 0.0
C1103 C 0.98106 0.40947 0.10672 0.0
C1104 C 0.98941 0.42322 0.13239 0.0
C1105 C 0.00839 0.41144 0.13689 0.0
C1106 C 0.9863 0.41999 0.14902 0.0
C1107 C 0.98667 0.42992 0.15993 0.0
C1108 C 0.99001 0.44325 0.15438 0.0
C1109 C 0.99275 0.44628 0.13762 0.0
C1110 C 0.99248 0.4364 0.12679 0.0
H1111 H 0.0169 0.40914 0.13447 0.0
H1112 H 0.01309 0.42267 0.13987 0.0
H1113 H 0.00254 0.40536 0.14777 0.0
H1114 H 0.98361 0.40979 0.15358 0.0
H1115 H 0.98455 0.42723 0.17274 0.0
H1116 H 0.62402 0.63445 0.06881 0.0
H1117 H 0.61274 0.61912 0.09207 0.0
H1118 H 0.62671 0.59136 0.07476 0.0
H1119 H 0.63842 0.6069 0.0517 0.0
H1120 H 0.5918 0.59345 0.09013 0.0
H1121 H 0.63499 0.5925 0.12278 0.0
H1122 H 0.63792 0.60525 0.10728 0.0
H1123 H 0.63429 0.58807 0.10156 0.0
C1124 C 0.62491 0.6252 0.07009 0.0
C1125 C 0.63209 0.62188 0.05837 0.0
C1126 C 0.61845 0.61645 0.08341 0.0
C1127 C 0.61896 0.60413 0.08529 0.0
C1128 C 0.62644 0.60095 0.07383 0.0
H1129 H 0.55539 0.53085 0.13394 0.0
H1130 H 0.57166 0.54819 0.11468 0.0
C1131 C 0.63305 0.60981 0.06057 0.0
C1132 C 0.61056 0.59405 0.09828 0.0
H1133 H 0.61191 0.57463 0.12988 0.0
C1134 C 0.59625 0.58944 0.0989 0.0
C1135 C 0.61635 0.58891 0.10985 0.0
C1136 C 0.63176 0.59404 0.11047 0.0
C1137 C 0.58755 0.57967 0.11051 0.0
C1138 C 0.5932 0.57401 0.12155 0.0
C1139 C 0.60756 0.57884 0.12125 0.0
C1140 C 0.58426 0.56298 0.13335 0.0
C1141 C 0.57238 0.57562 0.11092 0.0
C1142 C 0.58634 0.56525 0.15028 0.0
C1143 C 0.5771 0.55527 0.16135 0.0
C1144 C 0.56563 0.5429 0.15563 0.0
C1145 C 0.56397 0.54041 0.13869 0.0
C1146 C 0.57325 0.55031 0.12768 0.0
H1147 H 0.57062 0.58367 0.10513 0.0
H1148 H 0.56622 0.56577 0.10402 0.0
H1149 H 0.56838 0.57397 0.12366 0.0
H1150 H 0.59483 0.57493 0.15491 0.0
H1151 H 0.57862 0.55745 0.17433 0.0
H1152 H 0.37276 0.98618 0.06193 0.0
H1153 H 0.38861 0.98915 0.08419 0.0
H1154 H 0.4074 0.0337 0.08045 0.0
H1155 H 0.3915 0.03086 0.05807 0.0
H1156 H 0.41835 0.00419 0.08067 0.0
H1157 H 0.40005 0.02556 0.13039 0.0
H1158 H 0.38928 0.01625 0.11308 0.0
H1159 H 0.40313 0.03387 0.11074 0.0
C1160 C 0.38013 0.99663 0.06593 0.0
C1161 C 0.38086 0.00829 0.05815 0.0
C1162 C 0.38919 0.9983 0.07867 0.0
C1163 C 0.39912 0.01163 0.08403 0.0
C1164 C 0.39968 0.02331 0.07663 0.0
H1165 H 0.46523 0.03763 0.15675 0.0
H1166 H 0.44895 0.03715 0.13621 0.0
C1167 C 0.39061 0.02166 0.06381 0.0
C1168 C 0.40944 0.01319 0.09656 0.0
H1169 H 0.41999 0.02373 0.13582 0.0
C1170 C 0.41872 0.00846 0.09273 0.0
C1171 C 0.40996 0.01888 0.11221 0.0
C1172 C 0.40003 0.02387 0.11699 0.0
C1173 C 0.42851 0.00924 0.10415 0.0
C1174 C 0.4288 0.01458 0.11997 0.0
C1175 C 0.4197 0.01957 0.12371 0.0
C1176 C 0.43835 0.01483 0.13285 0.0
C1177 C 0.43858 0.00451 0.09904 0.0
C1178 C 0.43761 0.00242 0.13801 0.0
C1179 C 0.44697 0.00267 0.1496 0.0
C1180 C 0.45721 0.01534 0.15642 0.0
C1181 C 0.45765 0.02772 0.15156 0.0
C1182 C 0.44828 0.02746 0.13991 0.0
H1183 H 0.4397 0.00459 0.08553 0.0
H1184 H 0.44901 0.01121 0.1045 0.0
H1185 H 0.43463 0.99368 0.10332 0.0
H1186 H 0.42985 0.99252 0.13296 0.0
H1187 H 0.44638 0.99294 0.15291 0.0
H1188 H 0.36381 0.97293 0.97501 0.0
H1189 H 0.37694 0.97027 0.95246 0.0
H1190 H 0.40018 0.01479 0.94638 0.0
H1191 H 0.38728 0.01759 0.96885 0.0
H1192 H 0.38133 0.98 0.91872 0.0
H1193 H 0.43006 0.00356 0.95507 0.0
H1194 H 0.41317 0.99737 0.96426 0.0
H1195 H 0.4218 0.01395 0.95412 0.0
C1196 C 0.37163 0.98215 0.96878 0.0
C1197 C 0.37459 0.99549 0.97387 0.0
C1198 C 0.37911 0.9806 0.9559 0.0
C1199 C 0.38969 0.99235 0.94797 0.0
C1200 C 0.39223 0.00561 0.95255 0.0
H1201 H 0.45324 0.01174 0.87569 0.0
H1202 H 0.43665 0.01163 0.89552 0.0
C1203 C 0.3848 0.00717 0.96538 0.0
C1204 C 0.39848 0.99091 0.93532 0.0
H1205 H 0.43212 1.00009 0.92678 0.0
C1206 C 0.39242 0.98428 0.92048 0.0
C1207 C 0.41292 0.99647 0.93772 0.0
C1208 C 0.41989 0.00313 0.9537 0.0
C1209 C 0.40055 0.98351 0.90773 0.0
C1210 C 0.41505 0.98934 0.91003 0.0
C1211 C 0.42102 0.99572 0.925 0.0
C1212 C 0.42435 0.9892 0.89707 0.0
C1213 C 0.39365 0.97685 0.89174 0.0
C1214 C 0.42291 0.97661 0.8913 0.0
C1215 C 0.43242 0.97664 0.87999 0.0
C1216 C 0.44362 0.98927 0.87435 0.0
C1217 C 0.44485 0.00185 0.87995 0.0
C1218 C 0.43534 0.0018 0.89122 0.0
H1219 H 0.38319 0.97582 0.89062 0.0
H1220 H 0.40015 0.98298 0.88122 0.0
H1221 H 0.39236 0.96628 0.891 0.0
H1222 H 0.41467 0.96677 0.8959 0.0
H1223 H 0.43129 0.96679 0.8761 0.0
H1224 H 0.98723 0.37027 0.96793 0.0
H1225 H 0.98974 0.38577 0.94545 0.0
H1226 H 0.03436 0.40668 0.9504 0.0
H1227 H 0.03199 0.3911 0.97292 0.0
H1228 H 0.00259 0.41487 0.94874 0.0
H1229 H 0.0282 0.3999 0.9006 0.0
H1230 H 0.01927 0.38884 0.91785 0.0
H1231 H 0.0363 0.40372 0.92042 0.0
C1232 C 0.99761 0.37803 0.96414 0.0
C1233 C 0.00942 0.37945 0.97229 0.0
C1234 C 0.99901 0.38689 0.95127 0.0
C1235 C 0.01223 0.3973 0.94618 0.0
C1236 C 0.02407 0.39856 0.95396 0.0
H1237 H 0.0367 0.4651 0.87623 0.0
H1238 H 0.03673 0.44858 0.89608 0.0
C1239 C 0.02269 0.38968 0.96688 0.0
C1240 C 0.01343 0.40744 0.93358 0.0
H1241 H 0.02529 0.41923 0.895 0.0
C1242 C 0.00754 0.41581 0.93697 0.0
C1243 C 0.02001 0.40873 0.91833 0.0
C1244 C 0.02623 0.39977 0.91395 0.0
C1245 C 0.008 0.42542 0.92552 0.0
C1246 C 0.01428 0.42649 0.91011 0.0
C1247 C 0.02042 0.41832 0.9068 0.0
C1248 C 0.01432 0.43591 0.89723 0.0
C1249 C 1.0019 0.43446 0.93012 0.0
C1250 C 1.00172 0.43402 0.89098 0.0
C1251 C 1.00166 0.44341 0.87966 0.0
C1252 C 0.01422 0.45482 0.87426 0.0
C1253 C 0.02686 0.45638 0.88007 0.0
C1254 C 0.0269 0.44698 0.89145 0.0
H1255 H 1.00097 0.43507 0.9436 0.0
H1256 H 0.00834 0.44517 0.92527 0.0
H1257 H 0.99132 0.42996 0.92482 0.0
H1258 H 0.9919 0.42536 0.895 0.0
H1259 H 0.99177 0.44175 0.87518 0.0
H1260 H 0.60964 0.64053 0.97704 0.0
H1261 H 0.59307 0.62828 0.95483 0.0
H1262 H 0.61139 0.60238 0.94726 0.0
H1263 H 0.62791 0.61445 0.96928 0.0
H1264 H 0.59866 0.6235 0.92015 0.0
H1265 H 0.5689 0.57519 0.95657 0.0
H1266 H 0.5803 0.59188 0.96584 0.0
H1267 H 0.58742 0.58222 0.95624 0.0
C1268 C 0.6102 0.63229 0.97057 0.0
C1269 C 0.62005 0.62842 0.97505 0.0
C1270 C 0.60074 0.62532 0.95789 0.0
C1271 C 0.60092 0.61432 0.94959 0.0
C1272 C 0.61098 0.61073 0.95368 0.0
H1273 H 0.55368 0.55201 0.87765 0.0
H1274 H 0.57012 0.56746 0.89816 0.0
C1275 C 0.62045 0.61769 0.96626 0.0
C1276 C 0.59042 0.60627 0.9369 0.0
H1277 H 0.56372 0.57369 0.92828 0.0
C1278 C 0.59092 0.61264 0.92192 0.0
C1279 C 0.58036 0.59213 0.93932 0.0
C1280 C 0.57908 0.58493 0.9554 0.0
C1281 C 0.58192 0.60506 0.90902 0.0
C1282 C 0.57202 0.59082 0.91134 0.0
C1283 C 0.57135 0.58458 0.92648 0.0
C1284 C 0.5625 0.58202 0.89813 0.0
C1285 C 0.58343 0.61221 0.89285 0.0
C1286 C 0.55274 0.58506 0.89126 0.0
C1287 C 0.5434 0.5763 0.87935 0.0
C1288 C 0.54356 0.56426 0.87418 0.0
C1289 C 0.5534 0.5613 0.88109 0.0
C1290 C 0.56274 0.57007 0.89293 0.0
H1291 H 0.59361 0.62197 0.89181 0.0
H1292 H 0.58239 0.60526 0.88248 0.0
H1293 H 0.5751 0.61492 0.89172 0.0
H1294 H 0.55217 0.59407 0.8953 0.0
H1295 H 0.53603 0.57895 0.87422 0.0
H1296 H 0.98829 0.61738 0.96777 0.0
H1297 H 0.99183 0.60538 0.94484 0.0
H1298 H 0.03627 0.63054 0.95072 0.0
H1299 H 0.03284 0.64254 0.97395 0.0
H1300 H 0.0061 0.61528 0.91521 0.0
H1301 H 0.02943 0.59069 0.95331 0.0
H1302 H 0.02048 0.59898 0.96212 0.0
H1303 H 0.03789 0.60933 0.95445 0.0
C1304 C 0.99884 0.62044 0.96419 0.0
C1305 C 0.01029 0.63086 0.97283 0.0
C1306 C 1.00083 0.61357 0.95104 0.0
C1307 C 0.01429 0.61691 0.94623 0.0
C1308 C 0.02578 0.62762 0.95443 0.0
H1309 H 0.03824 0.57354 0.87477 0.0
H1310 H 0.03903 0.591 0.89385 0.0
C1311 C 0.0238 0.63451 0.96765 0.0
C1312 C 0.01614 0.60888 0.93289 0.0
H1313 H 0.02724 0.58571 0.92512 0.0
C1314 C 0.0108 0.60888 0.91734 0.0
C1315 C 0.02229 0.60054 0.9357 0.0
C1316 C 0.02776 0.59974 0.95231 0.0
C1317 C 0.01131 0.60065 0.90456 0.0
C1318 C 0.01711 0.59203 0.9075 0.0
C1319 C 0.02281 0.59233 0.92291 0.0
C1320 C 0.01669 0.58206 0.89508 0.0
C1321 C 0.00562 0.60125 0.88803 0.0
C1322 C 0.00387 0.57123 0.88947 0.0
C1323 C 0.00339 0.56128 0.87856 0.0
C1324 C 0.01572 0.56191 0.87308 0.0
C1325 C 0.02856 0.57287 0.87858 0.0
C1326 C 0.02903 0.5828 0.88955 0.0
H1327 H 0.00538 0.61107 0.88642 0.0
H1328 H 0.01191 0.60035 0.87801 0.0
H1329 H 0.9948 0.59245 0.88691 0.0
H1330 H 0.99421 0.5703 0.89381 0.0
H1331 H 0.99334 0.55304 0.87446 0.0
H1332 H 0.38967 0.37703 0.96694 0.0
H1333 H 0.4007 0.39319 0.94435 0.0
H1334 H 0.37334 0.40984 0.95208 0.0
H1335 H 0.36237 0.39384 0.97505 0.0
H1336 H 0.39006 0.39669 0.91559 0.0
H1337 H 0.41161 0.44464 0.95365 0.0
H1338 H 0.40441 0.42752 0.96248 0.0
H1339 H 0.39308 0.43347 0.95491 0.0
C1340 C 0.38594 0.3841 0.96387 0.0
C1341 C 0.37519 0.3842 0.97293 0.0
C1342 C 0.39226 0.39332 0.95091 0.0
C1343 C 0.38801 0.40288 0.94668 0.0
C1344 C 0.377 0.40276 0.95536 0.0
H1345 H 0.42505 0.46898 0.87282 0.0
H1346 H 0.40903 0.45224 0.89286 0.0
C1347 C 0.37068 0.39355 0.96842 0.0
C1348 C 0.3953 0.41298 0.9333 0.0
H1349 H 0.41611 0.44764 0.92534 0.0
C1350 C 0.39569 0.40784 0.9177 0.0
C1351 C 0.40263 0.42753 0.93606 0.0
C1352 C 0.40306 0.43367 0.95269 0.0
C1353 C 0.40337 0.41682 0.90488 0.0
C1354 C 0.41097 0.43131 0.90777 0.0
C1355 C 0.41025 0.43651 0.92318 0.0
C1356 C 0.42039 0.44119 0.89525 0.0
C1357 C 0.40335 0.41073 0.88835 0.0
C1358 C 0.43216 0.44059 0.8901 0.0
C1359 C 0.44141 0.45022 0.87881 0.0
C1360 C 0.43911 0.46067 0.87242 0.0
C1361 C 0.42725 0.46119 0.8776 0.0
C1362 C 0.41803 0.45158 0.88898 0.0
H1363 H 0.39431 0.40006 0.88692 0.0
H1364 H 0.40312 0.41738 0.87836 0.0
H1365 H 0.41298 0.41012 0.88699 0.0
H1366 H 0.43433 0.43283 0.89506 0.0
H1367 H 0.45057 0.44966 0.87542 0.0
H1368 H 0.6121 0.97072 0.97508 0.0
H1369 H 0.5969 0.96714 0.95167 0.0
H1370 H 0.61749 0.01147 0.94395 0.0
H1371 H 0.63279 0.01514 0.96707 0.0
H1372 H 0.57866 0.97721 0.94876 0.0
H1373 H 0.61681 0.99697 0.898 0.0
H1374 H 0.62076 0.99257 0.91776 0.0
H1375 H 0.6217 0.00908 0.91465 0.0
C1376 C 0.61353 0.97969 0.96826 0.0
C1377 C 0.62369 0.99322 0.97297 0.0
C1378 C 0.60482 0.97762 0.9549 0.0
C1379 C 0.6062 0.98902 0.94592 0.0
C1380 C 0.61645 0.0025 0.95045 0.0
H1381 H 0.56206 0.00928 0.87592 0.0
H1382 H 0.57825 0.0083 0.89539 0.0
C1383 C 0.62513 0.00458 0.96378 0.0
C1384 C 0.59631 0.98701 0.93258 0.0
H1385 H 0.59468 0.99515 0.89268 0.0
C1386 C 0.58211 0.98092 0.93642 0.0
C1387 C 0.60085 0.99188 0.91651 0.0
C1388 C 0.61584 0.99787 0.91142 0.0
C1389 C 0.57243 0.98016 0.92483 0.0
C1390 C 0.57705 0.98544 0.90891 0.0
C1391 C 0.59118 0.99115 0.90492 0.0
C1392 C 0.56751 0.98582 0.89651 0.0
C1393 C 0.55744 0.97428 0.92992 0.0
C1394 C 0.55625 0.9735 0.89046 0.0
C1395 C 0.54692 0.97402 0.87939 0.0
C1396 C 0.54871 0.9869 0.87415 0.0
C1397 C 0.56025 0.99921 0.87991 0.0
C1398 C 0.56957 0.99867 0.89094 0.0
H1399 H 0.55615 0.97328 0.94342 0.0
H1400 H 0.55329 0.98094 0.92545 0.0
H1401 H 0.55109 0.96378 0.92447 0.0
H1402 H 0.55459 0.96347 0.89443 0.0
H1403 H 0.5381 0.96435 0.87527 0.0
H1404 H 0.61619 0.98685 0.06163 0.0
H1405 H 0.60419 0.99063 0.08435 0.0
H1406 H 0.63107 0.03498 0.07982 0.0
H1407 H 0.64304 0.03132 0.05674 0.0
H1408 H 0.61353 0.00353 0.11418 0.0
H1409 H 0.5925 0.03078 0.07703 0.0
H1410 H 0.60033 0.02151 0.06788 0.0
H1411 H 0.61109 0.03849 0.07658 0.0
C1412 C 0.61962 0.99743 0.06545 0.0
C1413 C 0.63053 0.00879 0.05723 0.0
C1414 C 0.61274 0.99956 0.07848 0.0
C1415 C 0.61656 0.01308 0.08361 0.0
C1416 C 0.62774 0.02446 0.07583 0.0
H1417 H 0.57644 0.03878 0.15758 0.0
H1418 H 0.59308 0.03879 0.13783 0.0
C1419 C 0.63463 0.02234 0.0627 0.0
C1420 C 0.60862 0.0151 0.09695 0.0
H1421 H 0.58711 0.02817 0.10516 0.0
C1422 C 0.60781 0.00898 0.11223 0.0
C1423 C 0.60116 0.02222 0.09439 0.0
C1424 C 0.60117 0.02854 0.07806 0.0
C1425 C 0.59963 0.00965 0.12495 0.0
C1426 C 0.59194 0.01648 0.12226 0.0
C1427 C 0.59304 0.02295 0.10716 0.0
C1428 C 0.58214 0.01645 0.13466 0.0
C1429 C 0.59927 0.00301 0.14117 0.0
C1430 C 0.57041 0.0039 0.13931 0.0
C1431 C 0.56081 0.00385 0.15045 0.0
C1432 C 0.56272 0.01638 0.15718 0.0
C1433 C 0.57454 0.02895 0.15252 0.0
C1434 C 0.58411 0.02898 0.14131 0.0
H1435 H 0.60839 0.00153 0.1427 0.0
H1436 H 0.59902 0.00942 0.15149 0.0
H1437 H 0.58972 0.99264 0.14183 0.0
H1438 H 0.56853 0.99413 0.13405 0.0
H1439 H 0.5517 0.99401 0.15346 0.0
H1440 H 0.01724 0.63192 0.06235 0.0
H1441 H 0.01348 0.61631 0.08517 0.0
H1442 H 0.9691 0.59743 0.07904 0.0
H1443 H 0.97274 0.61292 0.05593 0.0
H1444 H 0.99902 0.61194 0.11476 0.0
H1445 H 0.97572 0.56424 0.0761 0.0
H1446 H 0.98484 0.58151 0.06749 0.0
H1447 H 0.96739 0.57456 0.07502 0.0
C1448 C 0.00666 0.6245 0.06585 0.0
C1449 C 0.99529 0.6236 0.05717 0.0
C1450 C 0.00454 0.6156 0.07895 0.0
C1451 C 0.99103 0.60556 0.08364 0.0
C1452 C 0.97962 0.60493 0.07541 0.0
H1453 H 0.96663 0.53785 0.15425 0.0
H1454 H 0.96588 0.55461 0.1354 0.0
C1455 C 0.98173 0.61384 0.06226 0.0
C1456 C 0.98904 0.59561 0.09688 0.0
H1457 H 0.97778 0.5613 0.10424 0.0
C1458 C 0.99429 0.60085 0.1125 0.0
C1459 C 0.98285 0.58115 0.0939 0.0
C1460 C 0.97746 0.57498 0.07721 0.0
C1461 C 0.99367 0.59204 0.12519 0.0
C1462 C 0.98785 0.57764 0.12207 0.0
C1463 C 0.98223 0.57234 0.10659 0.0
C1464 C 0.98822 0.56802 0.13436 0.0
C1465 C 0.99927 0.59822 0.1418 0.0
C1466 C 1.00102 0.56998 0.13999 0.0
C1467 C 1.00148 0.56046 0.15077 0.0
C1468 C 0.98914 0.54873 0.15608 0.0
C1469 C 0.97631 0.54687 0.15056 0.0
C1470 C 0.97587 0.55639 0.13972 0.0
H1471 H 0.99947 0.60826 0.14355 0.0
H1472 H 0.99294 0.59099 0.15173 0.0
H1473 H 0.01009 0.60025 0.14295 0.0
H1474 H 0.0107 0.57873 0.13577 0.0
H1475 H 0.01152 0.56226 0.15489 0.0
H1476 H 0.39879 0.36757 0.04988 0.0
H1477 H 0.41408 0.3794 0.07311 0.0
H1478 H 0.38542 0.39224 0.09039 0.0
H1479 H 0.37031 0.38081 0.06699 0.0
H1480 H 0.41101 0.41363 0.08887 0.0
H1481 H 0.41247 0.37053 0.12108 0.0
H1482 H 0.41713 0.37157 0.09989 0.0
H1483 H 0.3998 0.36755 0.10546 0.0
C1484 C 0.39564 0.37273 0.05877 0.0
C1485 C 0.38336 0.3733 0.05653 0.0
C1486 C 0.40435 0.37941 0.07212 0.0
C1487 C 0.40083 0.38658 0.08363 0.0
C1488 C 0.38835 0.38676 0.08169 0.0
H1489 H 0.44604 0.42635 0.17373 0.0
H1490 H 0.42886 0.4103 0.15392 0.0
C1491 C 0.37972 0.38022 0.06829 0.0
C1492 C 0.41068 0.39497 0.09683 0.0
H1493 H 0.42986 0.39364 0.12873 0.0
C1494 C 0.41502 0.40921 0.09766 0.0
C1495 C 0.41583 0.3892 0.10843 0.0
C1496 C 0.41096 0.37385 0.10881 0.0
C1497 C 0.42455 0.41788 0.10949 0.0
C1498 C 0.43022 0.41227 0.12058 0.0
C1499 C 0.42564 0.39796 0.12007 0.0
C1500 C 0.44102 0.4212 0.13263 0.0
C1501 C 0.42835 0.43298 0.1101 0.0
C1502 C 0.4537 0.43236 0.12723 0.0
C1503 C 0.46344 0.44153 0.13846 0.0
C1504 C 0.46077 0.43964 0.15535 0.0
C1505 C 0.44837 0.42806 0.16079 0.0
C1506 C 0.43855 0.41891 0.1495 0.0
H1507 H 0.42028 0.43464 0.10418 0.0
H1508 H 0.42974 0.43682 0.1229 0.0
H1509 H 0.43827 0.43934 0.10343 0.0
H1510 H 0.45598 0.43411 0.11428 0.0
H1511 H 0.47303 0.45019 0.13391 0.0
H1512 H 0.63702 0.69537 0.38894 0.0
H1513 H 0.63294 0.70763 0.41142 0.0
H1514 H 0.67718 0.73311 0.41861 0.0
H1515 H 0.6814 0.72102 0.39631 0.0
H1516 H 0.6433 0.71227 0.44598 0.0
H1517 H 0.66234 0.7607 0.40965 0.0
H1518 H 0.65692 0.74398 0.40035 0.0
H1519 H 0.67368 0.75348 0.40991 0.0
C1520 C 0.64588 0.7035 0.39539 0.0
C1521 C 0.65954 0.70728 0.39071 0.0
C1522 C 0.64352 0.71048 0.40823 0.0
C1523 C 0.65477 0.72138 0.41649 0.0
C1524 C 0.66837 0.72484 0.41222 0.0
H1525 H 0.67002 0.7839 0.48849 0.0
H1526 H 0.67105 0.76832 0.46812 0.0
C1527 C 0.67074 0.71788 0.39948 0.0
C1528 C 0.65246 0.72951 0.42925 0.0
H1529 H 0.65861 0.76221 0.43795 0.0
C1530 C 0.64652 0.72316 0.44423 0.0
C1531 C 0.65668 0.74369 0.42687 0.0
C1532 C 0.66266 0.75088 0.41079 0.0
C1533 C 0.64515 0.7308 0.45716 0.0
C1534 C 0.64962 0.74507 0.45487 0.0
C1535 C 0.65527 0.7513 0.43973 0.0
C1536 C 0.64887 0.7539 0.46806 0.0
C1537 C 0.63942 0.72365 0.47332 0.0
C1538 C 0.63606 0.75097 0.47485 0.0
C1539 C 0.63545 0.7598 0.48668 0.0
C1540 C 0.64764 0.77181 0.49185 0.0
C1541 C 0.66046 0.77464 0.48505 0.0
C1542 C 0.66105 0.7658 0.47329 0.0
H1543 H 0.63977 0.71385 0.47435 0.0
H1544 H 0.6453 0.73057 0.48369 0.0
H1545 H 0.6284 0.72103 0.47443 0.0
H1546 H 0.62649 0.742 0.47079 0.0
H1547 H 0.62541 0.75725 0.49173 0.0
H1548 H 0.30523 0.9422 0.38945 0.0
H1549 H 0.29286 0.92657 0.41234 0.0
H1550 H 0.27045 0.94847 0.42099 0.0
H1551 H 0.28258 0.964 0.39819 0.0
H1552 H 0.29014 0.93212 0.44645 0.0
H1553 H 0.23973 0.90762 0.41343 0.0
H1554 H 0.2562 0.91806 0.40323 0.0
H1555 H 0.24826 0.92627 0.41443 0.0
C1556 C 0.29774 0.94376 0.3963 0.0
C1557 C 0.2948 0.95427 0.39185 0.0
C1558 C 0.2907 0.93482 0.40938 0.0
C1559 C 0.28057 0.93622 0.41815 0.0
C1560 C 0.27804 0.94705 0.41417 0.0
H1561 H 0.22029 0.89363 0.49402 0.0
H1562 H 0.23619 0.90979 0.47354 0.0
C1563 C 0.28503 0.95595 0.40114 0.0
C1564 C 0.27227 0.92616 0.43114 0.0
H1565 H 0.23891 0.90232 0.44166 0.0
C1566 C 0.27895 0.92551 0.44539 0.0
C1567 C 0.25769 0.91752 0.42966 0.0
C1568 C 0.25003 0.91726 0.41431 0.0
C1569 C 0.27135 0.91679 0.45848 0.0
C1570 C 0.25672 0.90839 0.45713 0.0
C1571 C 0.25011 0.90885 0.44272 0.0
C1572 C 0.24794 0.89916 0.47052 0.0
C1573 C 0.27893 0.91694 0.47383 0.0
C1574 C 0.24933 0.88786 0.47571 0.0
C1575 C 0.24021 0.87855 0.4874 0.0
C1576 C 0.22946 0.88033 0.49401 0.0
C1577 C 0.22833 0.89185 0.48902 0.0
C1578 C 0.23744 0.90114 0.47738 0.0
H1579 H 0.28954 0.92619 0.47439 0.0
H1580 H 0.27305 0.91683 0.48489 0.0
H1581 H 0.27997 0.9075 0.4741 0.0
H1582 H 0.25718 0.88598 0.47034 0.0
H1583 H 0.24124 0.86969 0.4908 0.0
H1584 H 0.04532 0.32295 0.39336 0.0
H1585 H 0.06069 0.32739 0.41657 0.0
H1586 H 0.07341 0.37101 0.41486 0.0
H1587 H 0.05826 0.36671 0.39119 0.0
H1588 H 0.09535 0.36755 0.41749 0.0
H1589 H 0.05674 0.33447 0.4638 0.0
H1590 H 0.05524 0.32462 0.44574 0.0
H1591 H 0.05176 0.33884 0.44468 0.0
C1592 C 0.05124 0.33349 0.39799 0.0
C1593 C 0.05052 0.34447 0.3904 0.0
C1594 C 0.05997 0.33599 0.41139 0.0
C1595 C 0.068 0.34949 0.41772 0.0
C1596 C 0.06722 0.36048 0.41028 0.0
H1597 H 0.11575 0.35855 0.50716 0.0
H1598 H 0.09964 0.3599 0.48783 0.0
C1599 C 0.05855 0.35801 0.39675 0.0
C1600 C 0.0779 0.35215 0.43132 0.0
H1601 H 0.08047 0.34017 0.46884 0.0
C1602 C 0.09206 0.36172 0.42882 0.0
C1603 C 0.07362 0.34478 0.44629 0.0
C1604 C 0.05848 0.33523 0.45036 0.0
C1605 C 0.10212 0.36354 0.44047 0.0
C1606 C 0.09796 0.3553 0.45481 0.0
C1607 C 0.08372 0.34632 0.45773 0.0
C1608 C 0.1082 0.35527 0.46648 0.0
C1609 C 0.11712 0.37426 0.43722 0.0
C1610 C 0.11831 0.35214 0.46096 0.0
C1611 C 0.12764 0.35155 0.47192 0.0
C1612 C 0.12693 0.35383 0.48875 0.0
C1613 C 0.11674 0.35692 0.49428 0.0
C1614 C 0.10745 0.35761 0.48326 0.0
H1615 H 0.11793 0.38274 0.42927 0.0
H1616 H 0.12284 0.37891 0.44876 0.0
H1617 H 0.12227 0.36923 0.43075 0.0
H1618 H 0.11889 0.34995 0.44816 0.0
H1619 H 0.13544 0.34933 0.46715 0.0
H1620 H 0.03221 0.30567 0.30832 0.0
H1621 H 0.04463 0.30206 0.28568 0.0
H1622 H 0.06831 0.34635 0.27772 0.0
H1623 H 0.05611 0.3501 0.30028 0.0
H1624 H 0.04819 0.31074 0.2516 0.0
H1625 H 0.09791 0.33467 0.28604 0.0
H1626 H 0.08133 0.32905 0.29581 0.0
H1627 H 0.08991 0.34529 0.28496 0.0
C1628 C 0.03998 0.31464 0.30167 0.0
C1629 C 0.04326 0.32819 0.30625 0.0
C1630 C 0.04705 0.31255 0.28874 0.0
C1631 C 0.05753 0.32396 0.28024 0.0
C1632 C 0.06042 0.33742 0.28433 0.0
H1633 H 0.11884 0.34026 0.20612 0.0
H1634 H 0.10285 0.34093 0.22624 0.0
C1635 C 0.05339 0.33953 0.29722 0.0
C1636 C 0.06585 0.32194 0.26744 0.0
H1637 H 0.09908 0.33026 0.25784 0.0
C1638 C 0.0593 0.3149 0.25297 0.0
C1639 C 0.08032 0.32733 0.26933 0.0
C1640 C 0.08779 0.3344 0.28493 0.0
C1641 C 0.06697 0.31355 0.24006 0.0
C1642 C 0.0815 0.31923 0.24184 0.0
C1643 C 0.08796 0.326 0.25646 0.0
C1644 C 0.09035 0.31857 0.22864 0.0
C1645 C 0.05955 0.30647 0.22446 0.0
C1646 C 0.08858 0.30576 0.22322 0.0
C1647 C 0.09774 0.30535 0.21173 0.0
C1648 C 0.10892 0.31775 0.20557 0.0
C1649 C 0.11046 0.33053 0.21078 0.0
C1650 C 0.10129 0.33093 0.22222 0.0
H1651 H 0.04914 0.30557 0.22363 0.0
H1652 H 0.06579 0.31223 0.2136 0.0
H1653 H 0.0581 0.29583 0.22407 0.0
H1654 H 0.08037 0.2961 0.22826 0.0
H1655 H 0.09638 0.29534 0.20812 0.0
H1656 H 0.69858 0.72908 0.31299 0.0
H1657 H 0.70232 0.74521 0.2906 0.0
H1658 H 0.65991 0.71902 0.27488 0.0
H1659 H 0.65596 0.70307 0.29745 0.0
H1660 H 0.70016 0.74309 0.25712 0.0
H1661 H 0.66151 0.75585 0.28269 0.0
H1662 H 0.66767 0.74603 0.29395 0.0
H1663 H 0.65439 0.73764 0.27864 0.0
C1664 C 0.69008 0.72669 0.30468 0.0
C1665 C 0.67691 0.71489 0.30715 0.0
C1666 C 0.69224 0.73592 0.29189 0.0
C1667 C 0.6813 0.73349 0.2813 0.0
C1668 C 0.66839 0.7213 0.28317 0.0
H1669 H 0.68743 0.77868 0.19126 0.0
H1670 H 0.68625 0.76161 0.21115 0.0
C1671 C 0.66617 0.71215 0.29604 0.0
C1672 C 0.6832 0.74397 0.26879 0.0
H1673 H 0.67043 0.76479 0.25639 0.0
C1674 C 0.69369 0.74787 0.25695 0.0
C1675 C 0.67491 0.75038 0.26877 0.0
C1676 C 0.66408 0.74738 0.28178 0.0
C1677 C 0.696 0.75788 0.24497 0.0
C1678 C 0.68738 0.76392 0.24463 0.0
C1679 C 0.67697 0.76009 0.25656 0.0
C1680 C 0.68907 0.77452 0.23234 0.0
C1681 C 0.70785 0.76212 0.23306 0.0
C1682 C 0.69087 0.78737 0.2376 0.0
C1683 C 0.69131 0.797 0.22631 0.0
C1684 C 0.69003 0.79401 0.20948 0.0
C1685 C 0.68858 0.7813 0.20415 0.0
C1686 C 0.68798 0.77157 0.2155 0.0
H1687 H 0.71574 0.75963 0.2378 0.0
H1688 H 0.70373 0.75634 0.22142 0.0
H1689 H 0.71306 0.77343 0.23039 0.0
H1690 H 0.69174 0.78989 0.25052 0.0
H1691 H 0.69258 0.80678 0.23075 0.0
H1692 H 0.29579 0.9493 0.30171 0.0
H1693 H 0.2802 0.93763 0.2788 0.0
H1694 H 0.26009 0.96185 0.28688 0.0
H1695 H 0.27578 0.97375 0.30987 0.0
H1696 H 0.25096 0.92183 0.28181 0.0
H1697 H 0.26724 0.96483 0.23689 0.0
H1698 H 0.27811 0.96578 0.25382 0.0
H1699 H 0.26345 0.96817 0.25726 0.0
C1700 C 0.28817 0.9523 0.29855 0.0
C1701 C 0.28703 0.96246 0.30769 0.0
C1702 C 0.27926 0.94561 0.28543 0.0
C1703 C 0.26906 0.94894 0.28107 0.0
C1704 C 0.26804 0.95928 0.28989 0.0
H1705 H 0.20228 0.90901 0.20872 0.0
H1706 H 0.21837 0.92482 0.2295 0.0
C1707 C 0.27698 0.96602 0.30307 0.0
C1708 C 0.25893 0.94082 0.26804 0.0
H1709 H 0.24807 0.94299 0.22963 0.0
C1710 C 0.25032 0.92646 0.27041 0.0
C1711 C 0.25804 0.94692 0.25326 0.0
C1712 C 0.26725 0.96226 0.25001 0.0
C1713 C 0.24092 0.91799 0.25834 0.0
C1714 C 0.24031 0.924 0.24334 0.0
C1715 C 0.24865 0.93842 0.24111 0.0
C1716 C 0.2313 0.91531 0.22977 0.0
C1717 C 0.23166 0.90268 0.26179 0.0
C1718 C 0.23352 0.90504 0.22269 0.0
C1719 C 0.2244 0.89604 0.21084 0.0
C1720 C 0.21291 0.89718 0.20575 0.0
C1721 C 0.21107 0.9079 0.21232 0.0
C1722 C 0.22021 0.91691 0.22423 0.0
H1723 H 0.23072 0.90047 0.27512 0.0
H1724 H 0.22109 0.8988 0.25667 0.0
H1725 H 0.2362 0.89679 0.25598 0.0
H1726 H 0.24219 0.90383 0.22655 0.0
H1727 H 0.22626 0.88808 0.20578 0.0
H1728 H 0.70198 0.97496 0.31007 0.0
H1729 H 0.70689 0.96461 0.28626 0.0
H1730 H 0.66298 0.94033 0.27604 0.0
H1731 H 0.65797 0.95067 0.29954 0.0
H1732 H 0.6977 0.93661 0.28153 0.0
H1733 H 0.67903 0.95643 0.23131 0.0
H1734 H 0.6825 0.96389 0.2516 0.0
H1735 H 0.66633 0.9483 0.24721 0.0
C1736 C 0.69338 0.96756 0.30262 0.0
C1737 C 0.67958 0.96367 0.30673 0.0
C1738 C 0.69621 0.96165 0.28903 0.0
C1739 C 0.68532 0.95186 0.27922 0.0
C1740 C 0.67157 0.9481 0.28319 0.0
H1741 H 0.668 0.89014 0.20675 0.0
H1742 H 0.66843 0.9069 0.22658 0.0
C1743 C 0.66873 0.95396 0.29674 0.0
C1744 C 0.68812 0.94477 0.26554 0.0
H1745 H 0.68141 0.93653 0.22505 0.0
C1746 C 0.69437 0.93677 0.26911 0.0
C1747 C 0.68376 0.94501 0.24936 0.0
C1748 C 0.67766 0.95398 0.24458 0.0
C1749 C 0.69572 0.92843 0.25712 0.0
C1750 C 0.69087 0.92826 0.24108 0.0
C1751 C 0.68507 0.93664 0.23737 0.0
C1752 C 0.69088 0.91875 0.22831 0.0
C1753 C 0.70171 0.91935 0.26188 0.0
C1754 C 0.70337 0.92004 0.22244 0.0
C1755 C 0.70316 0.91042 0.21115 0.0
C1756 C 0.69043 0.89936 0.20553 0.0
C1757 C 0.67796 0.89841 0.21104 0.0
C1758 C 0.67819 0.90802 0.22228 0.0
H1759 H 0.70248 0.9187 0.27537 0.0
H1760 H 0.69525 0.90866 0.25694 0.0
H1761 H 0.71232 0.92375 0.25665 0.0
H1762 H 0.71328 0.92837 0.22677 0.0
H1763 H 0.71294 0.91141 0.20721 0.0
H1764 H 0.02801 0.72342 0.30559 0.0
H1765 H 0.03872 0.73856 0.2819 0.0
H1766 H 0.07049 0.72697 0.28069 0.0
H1767 H 0.05972 0.71161 0.304 0.0
H1768 H 0.06399 0.76095 0.27944 0.0
H1769 H 0.05949 0.72243 0.23332 0.0
H1770 H 0.05006 0.7174 0.25242 0.0
H1771 H 0.06789 0.72133 0.25149 0.0
C1772 C 0.03718 0.72396 0.30016 0.0
C1773 C 0.04297 0.71625 0.30668 0.0
C1774 C 0.04329 0.73262 0.28661 0.0
C1775 C 0.05527 0.73372 0.27931 0.0
C1776 C 0.06103 0.72601 0.28579 0.0
H1777 H 0.12132 0.80171 0.22841 0.0
H1778 H 0.10479 0.78494 0.24778 0.0
C1779 C 0.0549 0.71729 0.29923 0.0
C1780 C 0.06235 0.74361 0.26565 0.0
H1781 H 0.07669 0.74632 0.22787 0.0
C1782 C 0.06659 0.75771 0.26807 0.0
C1783 C 0.06552 0.73938 0.25066 0.0
C1784 C 0.06036 0.72428 0.24674 0.0
C1785 C 0.07451 0.76778 0.25628 0.0
C1786 C 0.0786 0.76369 0.24185 0.0
C1787 C 0.07375 0.7495 0.23905 0.0
C1788 C 0.08848 0.774 0.22994 0.0
C1789 C 0.07844 0.78271 0.25946 0.0
C1790 C 0.08501 0.7732 0.21331 0.0
C1791 C 0.0946 0.78265 0.20206 0.0
C1792 C 0.10788 0.79302 0.20723 0.0
C1793 C 0.11128 0.79376 0.22392 0.0
C1794 C 0.10173 0.7843 0.2351 0.0
H1795 H 0.07083 0.78338 0.26774 0.0
H1796 H 0.08876 0.78816 0.26551 0.0
H1797 H 0.07906 0.78824 0.24791 0.0
H1798 H 0.07489 0.76524 0.20902 0.0
H1799 H 0.0917 0.78165 0.18929 0.0
H1800 H 0.2786 0.30382 0.3077 0.0
H1801 H 0.26333 0.29935 0.28411 0.0
H1802 H 0.28268 0.34346 0.2753 0.0
H1803 H 0.29804 0.34803 0.29862 0.0
H1804 H 0.2444 0.30854 0.28033 0.0
H1805 H 0.28286 0.32836 0.22988 0.0
H1806 H 0.28687 0.32451 0.24991 0.0
H1807 H 0.28728 0.34069 0.24622 0.0
C1808 C 0.27973 0.31256 0.30061 0.0
C1809 C 0.28957 0.32629 0.30507 0.0
C1810 C 0.27099 0.30998 0.28714 0.0
C1811 C 0.27201 0.32106 0.2778 0.0
C1812 C 0.28192 0.33473 0.28209 0.0
H1813 H 0.22701 0.33826 0.20593 0.0
H1814 H 0.24343 0.33808 0.22569 0.0
C1815 C 0.29064 0.33733 0.29553 0.0
C1816 C 0.26211 0.31848 0.26427 0.0
H1817 H 0.26044 0.32563 0.22399 0.0
C1818 C 0.24786 0.31206 0.26794 0.0
C1819 C 0.26666 0.32311 0.24812 0.0
C1820 C 0.28174 0.32943 0.24323 0.0
C1821 C 0.23812 0.31074 0.2561 0.0
C1822 C 0.24274 0.31578 0.2401 0.0
C1823 C 0.25693 0.32181 0.23629 0.0
C1824 C 0.23312 0.31565 0.22744 0.0
C1825 C 0.22305 0.30453 0.26101 0.0
C1826 C 0.22203 0.30308 0.22161 0.0
C1827 C 0.21257 0.30315 0.21037 0.0
C1828 C 0.21405 0.3158 0.20474 0.0
C1829 C 0.22544 0.32835 0.21023 0.0
C1830 C 0.23488 0.32826 0.22143 0.0
H1831 H 0.22168 0.30377 0.27451 0.0
H1832 H 0.21863 0.31085 0.25615 0.0
H1833 H 0.21699 0.2939 0.25581 0.0
H1834 H 0.22061 0.29322 0.22591 0.0
H1835 H 0.20388 0.2933 0.20645 0.0
H1836 H 0.30837 0.36583 0.3872 0.0
H1837 H 0.29717 0.36982 0.41085 0.0
H1838 H 0.27312 0.32559 0.41913 0.0
H1839 H 0.28431 0.3215 0.39577 0.0
H1840 H 0.26902 0.3602 0.41478 0.0
H1841 H 0.28806 0.34037 0.46465 0.0
H1842 H 0.29596 0.3445 0.4446 0.0
H1843 H 0.28034 0.32815 0.44818 0.0
C1844 C 0.30082 0.35696 0.39417 0.0
C1845 C 0.29727 0.34334 0.38958 0.0
C1846 C 0.29443 0.35926 0.40767 0.0
C1847 C 0.28447 0.34802 0.41691 0.0
C1848 C 0.281 0.33444 0.41243 0.0
H1849 H 0.2219 0.32937 0.48915 0.0
H1850 H 0.23862 0.32994 0.46918 0.0
C1851 C 0.28736 0.33213 0.39896 0.0
C1852 C 0.27698 0.3503 0.43056 0.0
H1853 H 0.26815 0.3427 0.4708 0.0
C1854 C 0.26899 0.35658 0.4271 0.0
C1855 C 0.27697 0.34556 0.44662 0.0
C1856 C 0.2859 0.3394 0.4513 0.0
C1857 C 0.26047 0.35766 0.43907 0.0
C1858 C 0.2601 0.3525 0.45498 0.0
C1859 C 0.26842 0.3466 0.45858 0.0
C1860 C 0.25053 0.35239 0.46777 0.0
C1861 C 0.25145 0.36375 0.4344 0.0
C1862 C 0.25186 0.36485 0.47386 0.0
C1863 C 0.24227 0.36456 0.48523 0.0
C1864 C 0.23118 0.3518 0.49073 0.0
C1865 C 0.23017 0.33936 0.48497 0.0
C1866 C 0.23977 0.33967 0.47364 0.0
H1867 H 0.25087 0.36465 0.42093 0.0
H1868 H 0.24073 0.35727 0.43925 0.0
H1869 H 0.25586 0.37431 0.43977 0.0
H1870 H 0.26022 0.37479 0.46966 0.0
H1871 H 0.2433 0.37432 0.48936 0.0
H1872 H 0.63933 0.9401 0.38667 0.0
H1873 H 0.63576 0.9243 0.40938 0.0
H1874 H 0.67934 0.94827 0.42144 0.0
H1875 H 0.68307 0.96396 0.39869 0.0
H1876 H 0.67021 0.92049 0.41892 0.0
H1877 H 0.63471 0.92924 0.45875 0.0
H1878 H 0.62887 0.92487 0.43798 0.0
H1879 H 0.64457 0.94091 0.44234 0.0
C1880 C 0.64813 0.94212 0.39428 0.0
C1881 C 0.6615 0.95329 0.39081 0.0
C1882 C 0.64605 0.93311 0.40732 0.0
C1883 C 0.65726 0.93519 0.41722 0.0
C1884 C 0.67054 0.94649 0.41399 0.0
H1885 H 0.65557 0.89275 0.50748 0.0
H1886 H 0.65785 0.90976 0.48685 0.0
C1887 C 0.67264 0.95546 0.40096 0.0
C1888 C 0.65542 0.9251 0.43025 0.0
H1889 H 0.63788 0.91015 0.46563 0.0
C1890 C 0.66317 0.91827 0.42916 0.0
C1891 C 0.64634 0.92231 0.44369 0.0
C1892 C 0.63823 0.9298 0.4459 0.0
C1893 C 0.66198 0.90861 0.44102 0.0
C1894 C 0.65258 0.90549 0.45418 0.0
C1895 C 0.64498 0.91247 0.45544 0.0
C1896 C 0.65062 0.89506 0.46679 0.0
C1897 C 0.67096 0.90198 0.43947 0.0
C1898 C 0.64557 0.88111 0.4624 0.0
C1899 C 0.64436 0.87141 0.4741 0.0
C1900 C 0.64808 0.87543 0.4905 0.0
C1901 C 0.65281 0.88935 0.49493 0.0
C1902 C 0.65402 0.89906 0.48319 0.0
H1903 H 0.68002 0.90805 0.43129 0.0
H1904 H 0.67485 0.90099 0.45161 0.0
H1905 H 0.66469 0.8914 0.43419 0.0
H1906 H 0.64269 0.87776 0.44985 0.0
H1907 H 0.64081 0.86082 0.4702 0.0
H1908 H 0.04497 0.72484 0.39372 0.0
H1909 H 0.06031 0.73641 0.41685 0.0
H1910 H 0.07345 0.70577 0.41644 0.0
H1911 H 0.05836 0.6943 0.3929 0.0
H1912 H 0.06167 0.72801 0.44745 0.0
H1913 H 0.11026 0.74162 0.41347 0.0
H1914 H 0.09367 0.73489 0.40342 0.0
H1915 H 0.09788 0.72334 0.41416 0.0
C1916 C 0.05107 0.7205 0.39854 0.0
C1917 C 0.05052 0.70871 0.39133 0.0
C1918 C 0.05984 0.72713 0.41181 0.0
C1919 C 0.06822 0.72211 0.41821 0.0
C1920 C 0.06733 0.71003 0.41146 0.0
H1921 H 0.11479 0.75844 0.50948 0.0
H1922 H 0.09863 0.74179 0.48947 0.0
C1923 C 0.05863 0.70344 0.39806 0.0
C1924 C 0.07807 0.72982 0.4317 0.0
H1925 H 0.11263 0.74811 0.44125 0.0
C1926 C 0.07281 0.73234 0.44615 0.0
C1927 C 0.09262 0.73558 0.4299 0.0
C1928 C 0.09899 0.73386 0.41436 0.0
C1929 C 0.0817 0.7407 0.45872 0.0
C1930 C 0.09625 0.74642 0.45694 0.0
C1931 C 0.10148 0.74364 0.44264 0.0
C1932 C 0.1063 0.75618 0.46915 0.0
C1933 C 0.07546 0.74381 0.47344 0.0
C1934 C 0.1163 0.76965 0.46429 0.0
C1935 C 0.12571 0.77909 0.47559 0.0
C1936 C 0.12532 0.77532 0.49208 0.0
C1937 C 0.11543 0.76171 0.49688 0.0
C1938 C 0.10606 0.75222 0.4855 0.0
H1939 H 0.06463 0.74143 0.47111 0.0
H1940 H 0.07522 0.73731 0.48387 0.0
H1941 H 0.08177 0.75491 0.47708 0.0
H1942 H 0.11676 0.77292 0.45171 0.0
H1943 H 0.13337 0.78934 0.47133 0.0
H1944 H 0.30371 0.0335 0.71583 0.0
H1945 H 0.29871 0.04509 0.73828 0.0
H1946 H 0.34029 0.06099 0.75681 0.0
H1947 H 0.34543 0.04957 0.73447 0.0
H1948 H 0.31631 0.04865 0.78118 0.0
H1949 H 0.31857 0.08955 0.73972 0.0
H1950 H 0.30799 0.07163 0.73361 0.0
H1951 H 0.32654 0.07929 0.73444 0.0
C1952 C 0.31174 0.03933 0.72478 0.0
C1953 C 0.32501 0.04069 0.72328 0.0
C1954 C 0.30887 0.04597 0.73756 0.0
C1955 C 0.31917 0.05396 0.74909 0.0
C1956 C 0.33222 0.05488 0.748 0.0
H1957 H 0.3346 0.11914 0.81672 0.0
H1958 H 0.33522 0.10332 0.79622 0.0
C1959 C 0.33514 0.04837 0.73519 0.0
C1960 C 0.3167 0.06197 0.76185 0.0
H1961 H 0.31477 0.09146 0.76769 0.0
C1962 C 0.31581 0.05792 0.77826 0.0
C1963 C 0.31622 0.07413 0.75794 0.0
C1964 C 0.31744 0.07904 0.7405 0.0
C1965 C 0.31455 0.06583 0.79092 0.0
C1966 C 0.31422 0.07806 0.787 0.0
C1967 C 0.31498 0.08203 0.77059 0.0
C1968 C 0.3138 0.08729 0.79983 0.0
C1969 C 0.31398 0.06133 0.80843 0.0
C1970 C 0.30154 0.08347 0.80861 0.0
C1971 C 0.30114 0.0925 0.82031 0.0
C1972 C 0.31303 0.10546 0.82348 0.0
C1973 C 0.32533 0.10916 0.81473 0.0
C1974 C 0.32568 0.10018 0.80296 0.0
H1975 H 0.31582 0.0524 0.80952 0.0
H1976 H 0.32186 0.07013 0.81586 0.0
H1977 H 0.30359 0.05825 0.81365 0.0
H1978 H 0.29224 0.07358 0.80627 0.0
H1979 H 0.29154 0.08934 0.82692 0.0
H1980 H 0.97209 0.27274 0.71849 0.0
H1981 H 0.95984 0.2564 0.7408 0.0
H1982 H 0.93778 0.27824 0.75206 0.0
H1983 H 0.94978 0.29447 0.72973 0.0
H1984 H 0.95781 0.26027 0.77467 0.0
H1985 H 0.90653 0.23818 0.74395 0.0
H1986 H 0.92272 0.24906 0.73343 0.0
H1987 H 0.91527 0.25673 0.74645 0.0
C1988 C 0.9647 0.27413 0.72578 0.0
C1989 C 0.96181 0.28484 0.72219 0.0
C1990 C 0.95772 0.26478 0.73853 0.0
C1991 C 0.94772 0.26596 0.74788 0.0
C1992 C 0.94524 0.27697 0.74476 0.0
H1993 H 0.90804 0.22459 0.83898 0.0
H1994 H 0.92281 0.24124 0.81811 0.0
C1995 C 0.95217 0.28628 0.73202 0.0
C1996 C 0.93957 0.25548 0.7606 0.0
H1997 H 0.90641 0.23132 0.77144 0.0
C1998 C 0.94658 0.25389 0.77397 0.0
C1999 C 0.92494 0.24703 0.75951 0.0
C2000 C 0.91691 0.2477 0.745 0.0
C2001 C 0.93929 0.24427 0.78647 0.0
C2002 C 0.9246 0.23619 0.78566 0.0
C2003 C 0.91766 0.23761 0.77213 0.0
C2004 C 0.91617 0.22605 0.79858 0.0
C2005 C 0.94739 0.2427 0.80028 0.0
C2006 C 0.90733 0.21202 0.7945 0.0
C2007 C 0.89873 0.20253 0.80633 0.0
C2008 C 0.89874 0.20686 0.82253 0.0
C2009 C 0.90769 0.22092 0.82662 0.0
C2010 C 0.91628 0.23042 0.81474 0.0
H2011 H 0.95845 0.24672 0.79688 0.0
H2012 H 0.94715 0.24872 0.81102 0.0
H2013 H 0.94276 0.23163 0.80398 0.0
H2014 H 0.90698 0.20844 0.78208 0.0
H2015 H 0.89181 0.19187 0.80265 0.0
H2016 H 0.72215 0.69766 0.72674 0.0
H2017 H 0.73785 0.70233 0.74995 0.0
H2018 H 0.73253 0.6612 0.74515 0.0
H2019 H 0.71645 0.65628 0.72256 0.0
H2020 H 0.73185 0.6669 0.776 0.0
H2021 H 0.77757 0.71185 0.74746 0.0
H2022 H 0.76283 0.71429 0.74966 0.0
H2023 H 0.76182 0.70092 0.73625 0.0
C2024 C 0.72432 0.68962 0.73068 0.0
C2025 C 0.71809 0.67662 0.72276 0.0
C2026 C 0.73338 0.69234 0.74387 0.0
C2027 C 0.73663 0.68223 0.74911 0.0
C2028 C 0.73023 0.66919 0.74135 0.0
H2029 H 0.8081 0.69268 0.80203 0.0
H2030 H 0.79081 0.69068 0.78207 0.0
C2031 C 0.72103 0.66639 0.7284 0.0
C2032 C 0.74664 0.68503 0.76265 0.0
H2033 H 0.78025 0.70646 0.77466 0.0
C2034 C 0.74243 0.67557 0.77572 0.0
C2035 C 0.76051 0.69626 0.76221 0.0
C2036 C 0.76602 0.70634 0.74808 0.0
C2037 C 0.75172 0.67682 0.78812 0.0
C2038 C 0.76552 0.68818 0.78784 0.0
C2039 C 0.76966 0.69781 0.77496 0.0
C2040 C 0.77609 0.68981 0.80016 0.0
C2041 C 0.74678 0.66557 0.80095 0.0
C2042 C 0.77371 0.69019 0.81701 0.0
C2043 C 0.7835 0.69108 0.82844 0.0
C2044 C 0.79601 0.69199 0.82322 0.0
C2045 C 0.79858 0.69207 0.80638 0.0
C2046 C 0.7887 0.69093 0.79498 0.0
H2047 H 0.73748 0.65582 0.79681 0.0
H2048 H 0.75507 0.66315 0.80414 0.0
H2049 H 0.74385 0.66914 0.81218 0.0
H2050 H 0.76428 0.68977 0.82133 0.0
H2051 H 0.78136 0.69118 0.84136 0.0
H2052 H 0.69862 0.63671 0.64281 0.0
H2053 H 0.71106 0.6329 0.62039 0.0
H2054 H 0.73297 0.67686 0.60998 0.0
H2055 H 0.72079 0.68081 0.63243 0.0
H2056 H 0.71351 0.63909 0.58664 0.0
H2057 H 0.7643 0.6682 0.61843 0.0
H2058 H 0.74794 0.66272 0.62865 0.0
H2059 H 0.75548 0.67794 0.61589 0.0
C2060 C 0.706 0.64556 0.63567 0.0
C2061 C 0.70882 0.65909 0.63955 0.0
C2062 C 0.71309 0.64336 0.62286 0.0
C2063 C 0.72313 0.65463 0.61374 0.0
C2064 C 0.72549 0.66805 0.6171 0.0
H2065 H 0.76433 0.65392 0.52333 0.0
H2066 H 0.74912 0.65546 0.54395 0.0
C2067 C 0.71846 0.67027 0.6299 0.0
C2068 C 0.7315 0.65248 0.60111 0.0
H2069 H 0.76487 0.66167 0.59092 0.0
C2070 C 0.72473 0.64398 0.58757 0.0
C2071 C 0.74612 0.65869 0.60251 0.0
C2072 C 0.7539 0.66729 0.61722 0.0
C2073 C 0.73224 0.64177 0.57518 0.0
C2074 C 0.74692 0.6484 0.5763 0.0
C2075 C 0.75363 0.65669 0.59001 0.0
C2076 C 0.75559 0.64685 0.56352 0.0
C2077 C 0.72439 0.63219 0.56117 0.0
C2078 C 0.76447 0.64174 0.56772 0.0
C2079 C 0.77333 0.64106 0.55604 0.0
C2080 C 0.77354 0.64551 0.53988 0.0
C2081 C 0.76452 0.6505 0.53568 0.0
C2082 C 0.75568 0.65122 0.5474 0.0
H2083 H 0.7133 0.62508 0.56435 0.0
H2084 H 0.72472 0.6385 0.55049 0.0
H2085 H 0.72915 0.62585 0.55749 0.0
H2086 H 0.76467 0.63843 0.58012 0.0
H2087 H 0.78029 0.63739 0.55982 0.0
H2088 H 0.36723 0.06569 0.6479 0.0
H2089 H 0.37109 0.0819 0.62553 0.0
H2090 H 0.33002 0.05394 0.60694 0.0
H2091 H 0.32596 0.03785 0.62935 0.0
H2092 H 0.37018 0.07995 0.59128 0.0
H2093 H 0.329 0.0897 0.61536 0.0
H2094 H 0.33581 0.08062 0.62698 0.0
H2095 H 0.32303 0.07168 0.61128 0.0
C2096 C 0.35908 0.06292 0.63895 0.0
C2097 C 0.34621 0.05056 0.64056 0.0
C2098 C 0.3613 0.0722 0.62617 0.0
C2099 C 0.35072 0.06926 0.61479 0.0
C2100 C 0.33819 0.05657 0.61582 0.0
H2101 H 0.35546 0.11358 0.52469 0.0
H2102 H 0.35519 0.09703 0.54474 0.0
C2103 C 0.33592 0.04736 0.62862 0.0
C2104 C 0.35245 0.07974 0.60237 0.0
H2105 H 0.33837 0.09926 0.58941 0.0
C2106 C 0.36327 0.08422 0.59087 0.0
C2107 C 0.34355 0.08546 0.60203 0.0
C2108 C 0.33228 0.08174 0.61466 0.0
C2109 C 0.36527 0.09412 0.57885 0.0
C2110 C 0.35605 0.09946 0.57819 0.0
C2111 C 0.34536 0.09509 0.58983 0.0
C2112 C 0.35736 0.10984 0.56581 0.0
C2113 C 0.37738 0.09894 0.56721 0.0
C2114 C 0.35854 0.12247 0.57096 0.0
C2115 C 0.35851 0.13181 0.55957 0.0
C2116 C 0.35732 0.12874 0.54276 0.0
C2117 C 0.35652 0.11627 0.53755 0.0
C2118 C 0.35643 0.10684 0.549 0.0
H2119 H 0.38551 0.09688 0.57211 0.0
H2120 H 0.37364 0.09323 0.55547 0.0
H2121 H 0.38217 0.11025 0.56466 0.0
H2122 H 0.35928 0.12502 0.58386 0.0
H2123 H 0.35933 0.14142 0.56394 0.0
H2124 H 0.95927 0.27944 0.63472 0.0
H2125 H 0.94401 0.2694 0.61121 0.0
H2126 H 0.93219 0.30094 0.61461 0.0
H2127 H 0.94722 0.31088 0.63858 0.0
H2128 H 0.90995 0.27603 0.611 0.0
H2129 H 0.9485 0.28155 0.5645 0.0
H2130 H 0.94964 0.2726 0.58212 0.0
H2131 H 0.95354 0.29039 0.58398 0.0
C2132 C 0.95357 0.28437 0.6304 0.0
C2133 C 0.95451 0.296 0.63855 0.0
C2134 C 0.94491 0.27867 0.61683 0.0
C2135 C 0.93716 0.28458 0.61088 0.0
C2136 C 0.93816 0.29627 0.61889 0.0
H2137 H 0.88957 0.24783 0.52061 0.0
H2138 H 0.90574 0.26502 0.5402 0.0
C2139 C 0.94675 0.30193 0.63259 0.0
C2140 C 0.92732 0.27788 0.59708 0.0
H2141 H 0.92465 0.26393 0.55907 0.0
C2142 C 0.91321 0.27359 0.59954 0.0
C2143 C 0.93156 0.27494 0.58195 0.0
C2144 C 0.94667 0.28026 0.57791 0.0
C2145 C 0.90315 0.26576 0.58769 0.0
C2146 C 0.90724 0.26177 0.57318 0.0
C2147 C 0.92144 0.26676 0.5703 0.0
C2148 C 0.89694 0.25174 0.56135 0.0
C2149 C 0.88822 0.26179 0.59093 0.0
C2150 C 0.88667 0.23853 0.56668 0.0
C2151 C 0.87732 0.22878 0.55558 0.0
C2152 C 0.87818 0.23188 0.53879 0.0
C2153 C 0.88849 0.24513 0.53346 0.0
C2154 C 0.8978 0.25495 0.54463 0.0
H2155 H 0.88758 0.2695 0.59905 0.0
H2156 H 0.88258 0.26095 0.57941 0.0
H2157 H 0.88287 0.25158 0.59724 0.0
H2158 H 0.88599 0.23565 0.57944 0.0
H2159 H 0.86941 0.21878 0.56021 0.0
H2160 H 0.32358 0.28371 0.63331 0.0
H2161 H 0.32868 0.27319 0.61001 0.0
H2162 H 0.37265 0.29916 0.61885 0.0
H2163 H 0.36766 0.30966 0.64243 0.0
H2164 H 0.34422 0.28488 0.58146 0.0
H2165 H 0.36708 0.25973 0.61938 0.0
H2166 H 0.35726 0.26711 0.62817 0.0
H2167 H 0.37491 0.27825 0.62168 0.0
C2168 C 0.33436 0.28726 0.6303 0.0
C2169 C 0.34521 0.29746 0.63986 0.0
C2170 C 0.33724 0.28123 0.61694 0.0
C2171 C 0.35102 0.28523 0.61285 0.0
C2172 C 0.36192 0.29573 0.62199 0.0
H2173 H 0.3787 0.24511 0.54096 0.0
H2174 H 0.37882 0.2622 0.56018 0.0
C2175 C 0.35905 0.30177 0.63541 0.0
C2176 C 0.35381 0.27807 0.59925 0.0
H2177 H 0.36608 0.25591 0.59099 0.0
C2178 C 0.34909 0.27863 0.58351 0.0
C2179 C 0.36022 0.26995 0.60195 0.0
C2180 C 0.36508 0.26858 0.61871 0.0
C2181 C 0.35039 0.2711 0.57044 0.0
C2182 C 0.35636 0.26263 0.57327 0.0
C2183 C 0.36152 0.26244 0.58887 0.0
C2184 C 0.35644 0.25308 0.56058 0.0
C2185 C 0.34528 0.27223 0.55375 0.0
C2186 C 0.34383 0.24231 0.55443 0.0
C2187 C 0.34373 0.23258 0.54347 0.0
C2188 C 0.35624 0.23336 0.53849 0.0
C2189 C 0.3689 0.24432 0.54442 0.0
C2190 C 0.36898 0.25404 0.55546 0.0
H2191 H 0.34499 0.28206 0.55245 0.0
H2192 H 0.35197 0.27176 0.54393 0.0
H2193 H 0.33454 0.26343 0.55197 0.0
H2194 H 0.33401 0.24121 0.55844 0.0
H2195 H 0.33382 0.22434 0.53903 0.0
H2196 H 0.71573 0.03814 0.62799 0.0
H2197 H 0.72772 0.05366 0.60508 0.0
H2198 H 0.71332 0.08134 0.62129 0.0
H2199 H 0.70095 0.06566 0.64407 0.0
H2200 H 0.7128 0.07875 0.58756 0.0
H2201 H 0.76383 0.08985 0.61244 0.0
H2202 H 0.75215 0.07171 0.6087 0.0
H2203 H 0.7479 0.08069 0.624 0.0
C2204 C 0.71499 0.04746 0.62662 0.0
C2205 C 0.70753 0.05075 0.63799 0.0
C2206 C 0.72191 0.05635 0.61354 0.0
C2207 C 0.7217 0.06882 0.61171 0.0
C2208 C 0.71369 0.07181 0.62255 0.0
H2209 H 0.7848 0.14076 0.56043 0.0
H2210 H 0.76842 0.12428 0.5803 0.0
C2211 C 0.70664 0.06284 0.63557 0.0
C2212 C 0.7304 0.07905 0.59903 0.0
H2213 H 0.76401 0.09886 0.58618 0.0
C2214 C 0.72401 0.08319 0.58724 0.0
C2215 C 0.74505 0.085 0.59882 0.0
C2216 C 0.75267 0.08171 0.61175 0.0
C2217 C 0.73185 0.09299 0.57512 0.0
C2218 C 0.74645 0.09858 0.57461 0.0
C2219 C 0.75282 0.0945 0.58649 0.0
C2220 C 0.7555 0.10898 0.56224 0.0
C2221 C 0.72449 0.09749 0.56323 0.0
C2222 C 0.75362 0.10594 0.54542 0.0
C2223 C 0.76294 0.11543 0.534 0.0
C2224 C 0.77442 0.12799 0.53926 0.0
C2225 C 0.77613 0.13109 0.55606 0.0
C2226 C 0.76676 0.1217 0.56741 0.0
H2227 H 0.7142 0.0953 0.568 0.0
H2228 H 0.73083 0.10878 0.56052 0.0
H2229 H 0.72271 0.09166 0.55161 0.0
H2230 H 0.7452 0.09607 0.54115 0.0
H2231 H 0.76146 0.11274 0.52113 0.0
H2232 H 0.94445 0.63695 0.63977 0.0
H2233 H 0.9293 0.63288 0.61619 0.0
H2234 H 0.94715 0.67716 0.61001 0.0
H2235 H 0.96246 0.68133 0.63328 0.0
H2236 H 0.90954 0.64054 0.61317 0.0
H2237 H 0.94848 0.6649 0.56372 0.0
H2238 H 0.95276 0.66075 0.58343 0.0
H2239 H 0.95191 0.67641 0.58073 0.0
C2240 C 0.94529 0.64583 0.63325 0.0
C2241 C 0.95471 0.65947 0.63842 0.0
C2242 C 0.93661 0.64348 0.61979 0.0
C2243 C 0.93724 0.65471 0.61117 0.0
C2244 C 0.94672 0.66833 0.6162 0.0
H2245 H 0.88892 0.66994 0.54135 0.0
H2246 H 0.90575 0.67077 0.5612 0.0
C2247 C 0.95541 0.67069 0.62961 0.0
C2248 C 0.92735 0.65228 0.59765 0.0
H2249 H 0.92555 0.66088 0.55799 0.0
C2250 C 0.91303 0.6448 0.60103 0.0
C2251 C 0.93192 0.65786 0.58181 0.0
C2252 C 0.94711 0.66531 0.57714 0.0
C2253 C 0.90318 0.64325 0.58921 0.0
C2254 C 0.90778 0.6492 0.57356 0.0
C2255 C 0.92207 0.65638 0.57004 0.0
C2256 C 0.89793 0.64859 0.56092 0.0
C2257 C 0.88795 0.63571 0.59375 0.0
C2258 C 0.88811 0.63585 0.55396 0.0
C2259 C 0.87853 0.63534 0.54248 0.0
C2260 C 0.87861 0.64757 0.53772 0.0
C2261 C 0.88866 0.66034 0.54453 0.0
C2262 C 0.89825 0.66083 0.55596 0.0
H2263 H 0.88634 0.63402 0.60715 0.0
H2264 H 0.88289 0.64163 0.58955 0.0
H2265 H 0.88268 0.6254 0.58762 0.0
H2266 H 0.88785 0.6263 0.55745 0.0
H2267 H 0.8711 0.62536 0.53729 0.0
H2268 H 0.94302 0.65653 0.72187 0.0
H2269 H 0.93182 0.66139 0.74458 0.0
H2270 H 0.96757 0.70249 0.74947 0.0
H2271 H 0.97863 0.69789 0.72614 0.0
H2272 H 0.93821 0.66696 0.77543 0.0
H2273 H 0.93736 0.71204 0.74744 0.0
H2274 H 0.94219 0.70116 0.73604 0.0
H2275 H 0.95454 0.71447 0.74947 0.0
C2276 C 0.94853 0.66663 0.72774 0.0
C2277 C 0.96169 0.67686 0.72211 0.0
C2278 C 0.9421 0.66939 0.74076 0.0
C2279 C 0.94872 0.6824 0.7486 0.0
C2280 C 0.96206 0.69252 0.74334 0.0
H2281 H 0.91306 0.69112 0.84139 0.0
H2282 H 0.92869 0.6897 0.82117 0.0
C2283 C 0.96842 0.68984 0.73008 0.0
C2284 C 0.94151 0.68515 0.76226 0.0
H2285 H 0.92935 0.70656 0.77469 0.0
C2286 C 0.93629 0.67564 0.77528 0.0
C2287 C 0.93887 0.69639 0.76199 0.0
C2288 C 0.94341 0.70652 0.74792 0.0
C2289 C 0.92828 0.67685 0.78781 0.0
C2290 C 0.92584 0.68823 0.78769 0.0
C2291 C 0.9313 0.6979 0.77485 0.0
C2292 C 0.9169 0.68981 0.80013 0.0
C2293 C 0.922 0.66555 0.8006 0.0
C2294 C 0.90542 0.69096 0.79508 0.0
C2295 C 0.89671 0.69211 0.80658 0.0
C2296 C 0.89922 0.692 0.8234 0.0
C2297 C 0.91081 0.69104 0.82849 0.0
C2298 C 0.91968 0.69015 0.81695 0.0
H2299 H 0.92157 0.65582 0.79636 0.0
H2300 H 0.92851 0.66909 0.81178 0.0
H2301 H 0.9113 0.66313 0.80388 0.0
H2302 H 0.90304 0.69074 0.7822 0.0
H2303 H 0.8878 0.69275 0.80233 0.0
H2304 H 0.34819 0.29392 0.72879 0.0
H2305 H 0.34359 0.27789 0.75139 0.0
H2306 H 0.29945 0.26094 0.74499 0.0
H2307 H 0.30394 0.2768 0.72204 0.0
H2308 H 0.32991 0.27432 0.78061 0.0
H2309 H 0.3032 0.22631 0.7428 0.0
H2310 H 0.31286 0.24342 0.73389 0.0
H2311 H 0.29566 0.23734 0.74186 0.0
C2312 C 0.33748 0.28682 0.73217 0.0
C2313 C 0.32643 0.28659 0.72348 0.0
C2314 C 0.33488 0.27766 0.74513 0.0
C2315 C 0.32118 0.26805 0.74971 0.0
C2316 C 0.3101 0.26806 0.74143 0.0
H2317 H 0.29176 0.20211 0.82347 0.0
H2318 H 0.29292 0.219 0.80338 0.0
C2319 C 0.31269 0.27719 0.72838 0.0
C2320 C 0.31865 0.25799 0.76306 0.0
H2321 H 0.30464 0.22333 0.77115 0.0
C2322 C 0.32434 0.26317 0.77856 0.0
C2323 C 0.31137 0.24343 0.76036 0.0
C2324 C 0.30551 0.23725 0.74381 0.0
C2325 C 0.32305 0.2542 0.79139 0.0
C2326 C 0.31601 0.23969 0.78859 0.0
C2327 C 0.31001 0.23447 0.77324 0.0
C2328 C 0.31533 0.22977 0.80118 0.0
C2329 C 0.32922 0.26033 0.80784 0.0
C2330 C 0.32754 0.23017 0.80648 0.0
C2331 C 0.32692 0.22046 0.81781 0.0
C2332 C 0.31405 0.21012 0.82409 0.0
C2333 C 0.30183 0.20981 0.81878 0.0
C2334 C 0.30247 0.2195 0.80737 0.0
H2335 H 0.331 0.27107 0.80924 0.0
H2336 H 0.32235 0.25379 0.81791 0.0
H2337 H 0.3394 0.26078 0.80911 0.0
H2338 H 0.33756 0.23782 0.80159 0.0
H2339 H 0.33652 0.22085 0.82133 0.0
H2340 H 0.71707 0.06193 0.72154 0.0
H2341 H 0.73322 0.07282 0.74415 0.0
H2342 H 0.73847 0.03691 0.74788 0.0
H2343 H 0.72272 0.02617 0.72463 0.0
H2344 H 0.73237 0.06607 0.77476 0.0
H2345 H 0.77821 0.06695 0.74612 0.0
H2346 H 0.76254 0.06233 0.73484 0.0
H2347 H 0.76345 0.04979 0.74795 0.0
C2348 C 0.72166 0.05632 0.72713 0.0
C2349 C 0.71867 0.0432 0.72121 0.0
C2350 C 0.73091 0.06258 0.7401 0.0
C2351 C 0.73728 0.05582 0.7476 0.0
C2352 C 0.73402 0.04253 0.74201 0.0
H2353 H 0.78128 0.09022 0.84069 0.0
H2354 H 0.76437 0.07483 0.82029 0.0
C2355 C 0.72493 0.03634 0.7288 0.0
C2356 C 0.74722 0.06281 0.76129 0.0
H2357 H 0.7807 0.07459 0.77356 0.0
C2358 C 0.74294 0.06791 0.7745 0.0
C2359 C 0.76107 0.06535 0.76089 0.0
C2360 C 0.76666 0.06094 0.74663 0.0
C2361 C 0.75215 0.07574 0.78709 0.0
C2362 C 0.76593 0.07807 0.78686 0.0
C2363 C 0.77012 0.07272 0.77382 0.0
C2364 C 0.77641 0.08679 0.79939 0.0
C2365 C 0.74715 0.08193 0.80008 0.0
C2366 C 0.7891 0.09827 0.79448 0.0
C2367 C 0.79888 0.10683 0.80609 0.0
C2368 C 0.79613 0.10418 0.82287 0.0
C2369 C 0.78356 0.09258 0.82782 0.0
C2370 C 0.77387 0.08385 0.81617 0.0
H2371 H 0.73792 0.08252 0.79595 0.0
H2372 H 0.74408 0.07527 0.81114 0.0
H2373 H 0.75545 0.09255 0.80354 0.0
H2374 H 0.79134 0.10077 0.78163 0.0
H2375 H 0.80846 0.11576 0.80195 0.0
H2376 H 0.02482 0.32805 0.03232 0.0
H2377 H 0.03921 0.32038 0.04676 0.0
H2378 H 0.07359 0.36248 0.04675 0.0
H2379 H 0.05939 0.37023 0.03244 0.0
H2380 H 0.06716 0.32414 0.03906 0.0
H2381 H 0.06556 0.35074 0.09599 0.0
H2382 H 0.05341 0.34681 0.07942 0.0
H2383 H 0.07074 0.36144 0.07799 0.0
C2384 C 0.0355 0.33563 0.0352 0.0
C2385 C 0.04091 0.34977 0.03136 0.0
C2386 C 0.04369 0.33123 0.04345 0.0
C2387 C 0.05737 0.34091 0.04804 0.0
C2388 C 0.06299 0.35489 0.04352 0.0
H2389 H 0.12441 0.34544 0.10477 0.0
H2390 H 0.10847 0.34917 0.08781 0.0
C2391 C 0.05485 0.35928 0.03529 0.0
C2392 C 0.06566 0.33667 0.05821 0.0
H2393 H 0.08145 0.34232 0.09545 0.0
C2394 C 0.07021 0.32798 0.05145 0.0
C2395 C 0.06955 0.34169 0.07437 0.0
C2396 C 0.06448 0.35059 0.08247 0.0
C2397 C 0.07903 0.32462 0.06023 0.0
C2398 C 0.08318 0.32992 0.07627 0.0
C2399 C 0.07833 0.33833 0.08313 0.0
C2400 C 0.09295 0.32736 0.08602 0.0
C2401 C 0.08424 0.31587 0.05208 0.0
C2402 C 0.08951 0.31384 0.09072 0.0
C2403 C 0.09861 0.31167 0.10049 0.0
C2404 C 0.11126 0.323 0.10586 0.0
C2405 C 0.11467 0.33651 0.10105 0.0
C2406 C 0.1056 0.33865 0.09128 0.0
H2407 H 0.08272 0.31534 0.03861 0.0
H2408 H 0.09546 0.32006 0.05466 0.0
H2409 H 0.07843 0.30512 0.05696 0.0
H2410 H 0.07967 0.305 0.0871 0.0
H2411 H 0.0956 0.30116 0.10414 0.0
H2412 H 0.63197 0.68677 0.03719 0.0
H2413 H 0.63998 0.70891 0.05121 0.0
H2414 H 0.68246 0.71809 0.04659 0.0
H2415 H 0.67453 0.69587 0.03238 0.0
H2416 H 0.6552 0.71576 0.08102 0.0
H2417 H 0.68385 0.7547 0.03227 0.0
H2418 H 0.67131 0.73677 0.02774 0.0
H2419 H 0.6883 0.7413 0.03504 0.0
C2420 C 0.64305 0.69356 0.03889 0.0
C2421 C 0.65261 0.68953 0.03368 0.0
C2422 C 0.6476 0.70622 0.04694 0.0
C2423 C 0.66181 0.71517 0.04988 0.0
C2424 C 0.67146 0.71142 0.04424 0.0
H2425 H 0.70241 0.79315 0.10574 0.0
H2426 H 0.69799 0.77295 0.08903 0.0
C2427 C 0.6669 0.69871 0.03616 0.0
C2428 C 0.66626 0.72785 0.05994 0.0
H2429 H 0.68408 0.76338 0.05876 0.0
C2430 C 0.66153 0.72617 0.07616 0.0
C2431 C 0.67464 0.74141 0.05362 0.0
C2432 C 0.67978 0.74375 0.03618 0.0
C2433 C 0.66482 0.73768 0.0862 0.0
C2434 C 0.67283 0.75125 0.07975 0.0
C2435 C 0.67788 0.75296 0.06365 0.0
C2436 C 0.6756 0.76373 0.08939 0.0
C2437 C 0.65977 0.73519 0.10369 0.0
C2438 C 0.6645 0.76538 0.09484 0.0
C2439 C 0.66698 0.77687 0.10435 0.0
C2440 C 0.68064 0.78704 0.10852 0.0
C2441 C 0.69178 0.78554 0.10269 0.0
C2442 C 0.68927 0.774 0.09318 0.0
H2443 H 0.65737 0.72473 0.10802 0.0
H2444 H 0.66762 0.74318 0.112 0.0
H2445 H 0.65009 0.73577 0.10455 0.0
H2446 H 0.65388 0.75775 0.09173 0.0
H2447 H 0.65818 0.77786 0.10831 0.0
H2448 H 0.30739 0.98176 0.03136 0.0
H2449 H 0.2845 0.96767 0.04414 0.0
H2450 H 0.2916 0.93288 0.04694 0.0
H2451 H 0.31427 0.94674 0.03397 0.0
H2452 H 0.2648 0.92524 0.03698 0.0
H2453 H 0.27956 0.95827 0.09291 0.0
H2454 H 0.28133 0.96714 0.07393 0.0
H2455 H 0.29221 0.95975 0.07795 0.0
C2456 C 0.30401 0.97107 0.03454 0.0
C2457 C 0.31271 0.96541 0.03175 0.0
C2458 C 0.29097 0.96306 0.04196 0.0
C2459 C 0.28646 0.94931 0.04678 0.0
C2460 C 0.29489 0.94349 0.0434 0.0
H2461 H 0.22418 0.88184 0.10247 0.0
H2462 H 0.2433 0.89777 0.08477 0.0
C2463 C 0.30788 0.95145 0.03599 0.0
C2464 C 0.27317 0.94096 0.05577 0.0
H2465 H 0.25703 0.93876 0.09221 0.0
C2466 C 0.26305 0.92825 0.049 0.0
C2467 C 0.27089 0.9449 0.07146 0.0
C2468 C 0.28159 0.9582 0.07961 0.0
C2469 C 0.25084 0.91928 0.0576 0.0
C2470 C 0.24879 0.92302 0.07348 0.0
C2471 C 0.25865 0.93593 0.08003 0.0
C2472 C 0.23694 0.91331 0.08391 0.0
C2473 C 0.24028 0.90582 0.04966 0.0
C2474 C 0.22718 0.91688 0.08958 0.0
C2475 C 0.21626 0.90781 0.09981 0.0
C2476 C 0.21504 0.89509 0.10472 0.0
C2477 C 0.22489 0.89161 0.09905 0.0
C2478 C 0.23574 0.90063 0.08878 0.0
H2479 H 0.24138 0.9063 0.03613 0.0
H2480 H 0.24187 0.89727 0.05409 0.0
H2481 H 0.22951 0.90324 0.05284 0.0
H2482 H 0.22801 0.92668 0.08608 0.0
H2483 H 0.20892 0.91086 0.10411 0.0
H2484 H 0.32848 0.02307 0.99907 0.0
H2485 H 0.32056 0.03707 0.98422 0.0
H2486 H 0.3628 0.07102 0.98156 0.0
H2487 H 0.37081 0.05724 0.99635 0.0
H2488 H 0.32612 0.06662 0.99113 0.0
H2489 H 0.34799 0.05993 0.93279 0.0
H2490 H 0.34411 0.04837 0.95 0.0
H2491 H 0.35947 0.06525 0.95014 0.0
C2492 C 0.33605 0.03359 0.99553 0.0
C2493 C 0.35029 0.039 0.9988 0.0
C2494 C 0.33151 0.04156 0.98705 0.0
C2495 C 0.34113 0.05499 0.98163 0.0
C2496 C 0.35524 0.06061 0.9855 0.0
H2497 H 0.34542 0.11985 0.921 0.0
H2498 H 0.34918 0.10394 0.93795 0.0
C2499 C 0.35978 0.05272 0.994 0.0
C2500 C 0.33668 0.063 0.97128 0.0
H2501 H 0.34031 0.07638 0.93286 0.0
C2502 C 0.32907 0.06866 0.97834 0.0
C2503 C 0.34057 0.06561 0.95462 0.0
C2504 C 0.3484 0.0594 0.94634 0.0
C2505 C 0.32571 0.07737 0.96931 0.0
C2506 C 0.32986 0.08022 0.95271 0.0
C2507 C 0.33717 0.07423 0.94559 0.0
C2508 C 0.32732 0.08988 0.94266 0.0
C2509 C 0.31827 0.08389 0.9778 0.0
C2510 C 0.31377 0.08721 0.93951 0.0
C2511 C 0.31158 0.09639 0.92992 0.0
C2512 C 0.32292 0.10839 0.92321 0.0
C2513 C 0.33646 0.11088 0.92621 0.0
C2514 C 0.33863 0.10173 0.93581 0.0
H2515 H 0.31881 0.08336 0.99133 0.0
H2516 H 0.32274 0.09495 0.97418 0.0
H2517 H 0.30714 0.07824 0.97422 0.0
H2518 H 0.30487 0.07798 0.94438 0.0
H2519 H 0.30102 0.09418 0.92796 0.0
H2520 H 0.98249 0.30563 0.99919 0.0
H2521 H 0.96824 0.28302 0.98582 0.0
H2522 H 0.93449 0.29159 0.98143 0.0
H2523 H 0.94846 0.31393 0.99505 0.0
H2524 H 0.9254 0.26482 0.99079 0.0
H2525 H 0.96058 0.27845 0.93697 0.0
H2526 H 0.96858 0.27948 0.95639 0.0
H2527 H 0.96228 0.29122 0.9519 0.0
C2528 C 0.97198 0.30262 0.99552 0.0
C2529 C 0.96665 0.31163 0.9981 0.0
C2530 C 0.96389 0.28975 0.98775 0.0
C2531 C 0.9504 0.28574 0.9823 0.0
C2532 C 0.9449 0.29449 0.98544 0.0
H2533 H 0.8846 0.22565 0.92251 0.0
H2534 H 0.90049 0.24484 0.94011 0.0
C2535 C 0.95292 0.30728 0.99324 0.0
C2536 C 0.94196 0.27261 0.97303 0.0
H2537 H 0.94059 0.25618 0.93704 0.0
C2538 C 0.92877 0.2629 0.97909 0.0
C2539 C 0.94636 0.2701 0.95774 0.0
C2540 C 0.96016 0.28039 0.95025 0.0
C2541 C 0.91978 0.25089 0.97018 0.0
C2542 C 0.92404 0.24858 0.95475 0.0
C2543 C 0.93738 0.25802 0.9489 0.0
C2544 C 0.91447 0.23685 0.94412 0.0
C2545 C 0.90573 0.24081 0.97727 0.0
C2546 C 0.91722 0.22612 0.94028 0.0
C2547 C 0.90806 0.21502 0.93031 0.0
C2548 C 0.89605 0.21452 0.92387 0.0
C2549 C 0.89354 0.22549 0.92752 0.0
C2550 C 0.90264 0.23651 0.93755 0.0
H2551 H 0.90533 0.24227 0.99067 0.0
H2552 H 0.89768 0.24249 0.9714 0.0
H2553 H 0.90307 0.22989 0.97486 0.0
H2554 H 0.92634 0.22623 0.94519 0.0
H2555 H 0.91027 0.2067 0.92792 0.0
H2556 H 0.69558 0.67482 0.9977 0.0
H2557 H 0.71775 0.68349 0.98305 0.0
H2558 H 0.70925 0.6414 0.97638 0.0
H2559 H 0.68723 0.63265 0.99095 0.0
H2560 H 0.74125 0.67748 0.98922 0.0
H2561 H 0.71486 0.65906 0.9292 0.0
H2562 H 0.70653 0.66182 0.94669 0.0
H2563 H 0.70807 0.64648 0.94544 0.0
C2564 C 0.69851 0.66743 0.99327 0.0
C2565 C 0.68959 0.65304 0.99541 0.0
C2566 C 0.71116 0.6724 0.9849 0.0
C2567 C 0.715 0.66305 0.97847 0.0
C2568 C 0.70637 0.64875 0.98109 0.0
H2569 H 0.77707 0.66017 0.91949 0.0
H2570 H 0.75692 0.65629 0.93565 0.0
C2571 C 0.6938 0.64379 0.98948 0.0
C2572 C 0.7278 0.66805 0.96853 0.0
H2573 H 0.73888 0.66612 0.93014 0.0
C2574 C 0.7408 0.67518 0.97626 0.0
C2575 C 0.72711 0.665 0.95165 0.0
C2576 C 0.71341 0.65777 0.94266 0.0
C2577 C 0.75314 0.67881 0.96765 0.0
C2578 C 0.75242 0.67542 0.95083 0.0
C2579 C 0.73942 0.66867 0.94304 0.0
C2580 C 0.76488 0.67805 0.94124 0.0
C2581 C 0.76677 0.68567 0.97678 0.0
C2582 C 0.77603 0.6916 0.93886 0.0
C2583 C 0.78767 0.69385 0.92972 0.0
C2584 C 0.78834 0.68259 0.92272 0.0
C2585 C 0.77704 0.66906 0.92495 0.0
C2586 C 0.76545 0.66683 0.93409 0.0
H2587 H 0.76521 0.68471 0.99024 0.0
H2588 H 0.77327 0.68105 0.9732 0.0
H2589 H 0.7726 0.6969 0.9737 0.0
H2590 H 0.7757 0.70044 0.94399 0.0
H2591 H 0.79621 0.7044 0.92831 0.0
H2592 H 0.94826 0.63503 0.99409 0.0
H2593 H 0.93456 0.64382 0.98074 0.0
H2594 H 0.96835 0.68589 0.98671 0.0
H2595 H 0.98233 0.67713 0.99983 0.0
H2596 H 0.92553 0.66151 0.99094 0.0
H2597 H 0.96124 0.68385 0.9377 0.0
H2598 H 0.96266 0.67237 0.95217 0.0
H2599 H 0.96904 0.69031 0.95736 0.0
C2600 C 0.95279 0.64617 0.99268 0.0
C2601 C 0.96645 0.65538 0.99792 0.0
C2602 C 0.94492 0.65118 0.98503 0.0
C2603 C 0.95051 0.66549 0.98244 0.0
C2604 C 0.96394 0.67478 0.98824 0.0
H2605 H 0.91074 0.70521 0.92897 0.0
H2606 H 0.92679 0.70167 0.94616 0.0
C2607 C 0.97187 0.66976 0.99586 0.0
C2608 C 0.94223 0.67046 0.97337 0.0
H2609 H 0.94122 0.68611 0.93783 0.0
C2610 C 0.92901 0.66698 0.97939 0.0
C2611 C 0.94678 0.67761 0.95829 0.0
C2612 C 0.96065 0.68118 0.95088 0.0
C2613 C 0.92013 0.6702 0.9706 0.0
C2614 C 0.92453 0.67697 0.95533 0.0
C2615 C 0.93791 0.68091 0.94955 0.0
C2616 C 0.91501 0.67922 0.94472 0.0
C2617 C 0.90603 0.6662 0.97762 0.0
C2618 C 0.90326 0.66778 0.93795 0.0
C2619 C 0.89418 0.66974 0.92798 0.0
C2620 C 0.89663 0.68322 0.92458 0.0
C2621 C 0.90858 0.69469 0.93119 0.0
C2622 C 0.91772 0.69271 0.94111 0.0
H2623 H 0.90556 0.66424 0.99099 0.0
H2624 H 0.90337 0.67446 0.97534 0.0
H2625 H 0.89803 0.65652 0.97159 0.0
H2626 H 0.90115 0.65729 0.94033 0.0
H2627 H 0.88529 0.66067 0.92282 0.0
H2628 H 0.33162 0.30706 0.00341 0.0
H2629 H 0.32283 0.28389 0.99131 0.0
H2630 H 0.36367 0.29669 0.9719 0.0
H2631 H 0.37258 0.3195 0.98442 0.0
H2632 H 0.3209 0.276 0.9606 0.0
H2633 H 0.35512 0.26073 0.99217 0.0
H2634 H 0.35384 0.27566 0.99842 0.0
H2635 H 0.36528 0.27702 0.98193 0.0
C2636 C 0.33875 0.30484 0.99675 0.0
C2637 C 0.35283 0.31507 0.99503 0.0
C2638 C 0.33371 0.29161 0.98981 0.0
C2639 C 0.34265 0.28841 0.98097 0.0
C2640 C 0.35666 0.2987 0.97911 0.0
H2641 H 0.32211 0.22774 0.90424 0.0
H2642 H 0.32654 0.24777 0.92118 0.0
C2643 C 0.36172 0.31181 0.98621 0.0
C2644 C 0.33729 0.27461 0.97297 0.0
H2645 H 0.3446 0.24843 0.96718 0.0
C2646 C 0.32596 0.26986 0.96221 0.0
C2647 C 0.34366 0.2664 0.9753 0.0
C2648 C 0.35504 0.27015 0.98773 0.0
C2649 C 0.32122 0.25749 0.95323 0.0
C2650 C 0.32831 0.24988 0.9546 0.0
C2651 C 0.33927 0.25433 0.96587 0.0
C2652 C 0.32484 0.23748 0.94427 0.0
C2653 C 0.30858 0.25269 0.94249 0.0
C2654 C 0.32279 0.22511 0.9515 0.0
C2655 C 0.32062 0.2138 0.9418 0.0
C2656 C 0.32031 0.21457 0.92468 0.0
C2657 C 0.3221 0.22683 0.91743 0.0
C2658 C 0.32453 0.23824 0.92712 0.0
H2659 H 0.30168 0.25652 0.94718 0.0
H2660 H 0.31196 0.25697 0.93001 0.0
H2661 H 0.30246 0.24117 0.94166 0.0
H2662 H 0.32302 0.22425 0.96468 0.0
H2663 H 0.31922 0.20444 0.94768 0.0
H2664 H 0.69747 0.02176 0.99969 0.0
H2665 H 0.7203 0.03595 0.98678 0.0
H2666 H 0.71211 0.06993 0.98211 0.0
H2667 H 0.68955 0.05601 0.99519 0.0
H2668 H 0.72547 0.04681 0.95588 0.0
H2669 H 0.75096 0.08961 1.00078 0.0
H2670 H 0.73537 0.07346 0.00553 0.0
H2671 H 0.73431 0.087 0.99464 0.0
C2672 C 0.70065 0.03234 0.99617 0.0
C2673 C 0.6917 0.03777 0.99854 0.0
C2674 C 0.71368 0.04042 0.98875 0.0
C2675 C 0.71802 0.05409 0.98369 0.0
C2676 C 0.70917 0.05955 0.98626 0.0
H2677 H 0.77756 0.11789 0.92202 0.0
H2678 H 0.75827 0.10198 0.93949 0.0
C2679 C 0.6962 0.05153 0.99368 0.0
C2680 C 0.73133 0.06239 0.97469 0.0
H2681 H 0.7607 0.09437 0.97361 0.0
C2682 C 0.7333 0.05711 0.9599 0.0
C2683 C 0.74156 0.07582 0.97995 0.0
C2684 C 0.74052 0.08174 0.99618 0.0
C2685 C 0.74487 0.06519 0.94984 0.0
C2686 C 0.75474 0.07884 0.95478 0.0
C2687 C 0.75304 0.08393 0.96982 0.0
C2688 C 0.7665 0.08829 0.94411 0.0
C2689 C 0.74617 0.05934 0.93369 0.0
C2690 C 0.77756 0.08587 0.94096 0.0
C2691 C 0.78873 0.09505 0.93109 0.0
C2692 C 0.78903 0.10682 0.9242 0.0
C2693 C 0.77783 0.1091 0.92733 0.0
C2694 C 0.76674 0.09997 0.93724 0.0
H2695 H 0.73665 0.04938 0.93061 0.0
H2696 H 0.74828 0.06691 0.9237 0.0
H2697 H 0.75508 0.05743 0.93423 0.0
H2698 H 0.77764 0.07699 0.94632 0.0
H2699 H 0.79725 0.09307 0.92915 0.0
H2700 H 0.63408 0.94729 0.0401 0.0
H2701 H 0.64277 0.93352 0.05343 0.0
H2702 H 0.68482 0.96444 0.04082 0.0
H2703 H 0.67619 0.9786 0.02787 0.0
H2704 H 0.6569 0.92147 0.04297 0.0
H2705 H 0.68832 0.96155 0.08943 0.0
H2706 H 0.67624 0.96313 0.07613 0.0
H2707 H 0.6931 0.96714 0.06867 0.0
C2708 C 0.64519 0.95117 0.04007 0.0
C2709 C 0.65446 0.96411 0.03303 0.0
C2710 C 0.65015 0.94326 0.04771 0.0
C2711 C 0.66447 0.94805 0.04843 0.0
C2712 C 0.67375 0.9607 0.04081 0.0
H2713 H 0.69133 0.89043 0.08445 0.0
H2714 H 0.68783 0.90627 0.06703 0.0
C2715 C 0.66879 0.96873 0.03329 0.0
C2716 C 0.66951 0.93976 0.05743 0.0
H2717 H 0.6892 0.94075 0.09003 0.0
C2718 C 0.66403 0.9257 0.05321 0.0
C2719 C 0.67867 0.94525 0.07093 0.0
C2720 C 0.68434 0.96005 0.07669 0.0
C2721 C 0.66719 0.9169 0.06229 0.0
C2722 C 0.67647 0.92242 0.07569 0.0
C2723 C 0.68218 0.93656 0.0797 0.0
C2724 C 0.67965 0.91353 0.08637 0.0
C2725 C 0.66005 0.90166 0.05787 0.0
C2726 C 0.67687 0.91281 0.1032 0.0
C2727 C 0.6792 0.90403 0.11329 0.0
C2728 C 0.6843 0.89567 0.10678 0.0
C2729 C 0.68746 0.89673 0.08996 0.0
C2730 C 0.68527 0.90564 0.0799 0.0
H2731 H 0.65064 0.8985 0.05027 0.0
H2732 H 0.66732 0.89957 0.05069 0.0
H2733 H 0.65693 0.89505 0.06899 0.0
H2734 H 0.67265 0.91889 0.10852 0.0
H2735 H 0.67695 0.90378 0.12623 0.0
H2736 H 0.05793 0.69005 0.03447 0.0
H2737 H 0.07174 0.71267 0.04759 0.0
H2738 H 0.03724 0.72014 0.04386 0.0
H2739 H 0.02319 0.69731 0.0309 0.0
H2740 H 0.07969 0.73956 0.03747 0.0
H2741 H 0.04603 0.72496 0.09283 0.0
H2742 H 0.04466 0.71227 0.07798 0.0
H2743 H 0.03741 0.72323 0.07367 0.0
C2744 C 0.05327 0.69652 0.03631 0.0
C2745 C 0.03941 0.69182 0.03175 0.0
C2746 C 0.0612 0.70947 0.04381 0.0
C2747 C 0.05545 0.71799 0.04696 0.0
C2748 C 0.04179 0.7136 0.04184 0.0
H2749 H 0.09366 0.79555 0.1043 0.0
H2750 H 0.07793 0.77644 0.08622 0.0
C2751 C 0.03381 0.7006 0.03433 0.0
C2752 C 0.06377 0.73126 0.05601 0.0
H2753 H 0.06565 0.74742 0.09235 0.0
C2754 C 0.07657 0.74133 0.04941 0.0
C2755 C 0.05967 0.73356 0.07159 0.0
C2756 C 0.04625 0.72292 0.07956 0.0
C2757 C 0.08549 0.75351 0.05808 0.0
C2758 C 0.0816 0.75559 0.07387 0.0
C2759 C 0.0686 0.74578 0.08024 0.0
C2760 C 0.09125 0.76742 0.08438 0.0
C2761 C 0.09906 0.76403 0.05031 0.0
C2762 C 0.10385 0.76858 0.08946 0.0
C2763 C 0.11283 0.77943 0.09975 0.0
C2764 C 0.10936 0.78935 0.10525 0.0
C2765 C 0.0967 0.78816 0.10015 0.0
C2766 C 0.08768 0.77723 0.08988 0.0
H2767 H 0.09871 0.76294 0.03678 0.0
H2768 H 0.10167 0.77481 0.05346 0.0
H2769 H 0.10752 0.76237 0.05491 0.0
H2770 H 0.1067 0.76098 0.08558 0.0
H2771 H 0.12255 0.78011 0.10332 0.0
H2772 H 0.31682 0.37058 0.03563 0.0
H2773 H 0.29409 0.36166 0.04851 0.0
H2774 H 0.28601 0.31966 0.04223 0.0
H2775 H 0.30895 0.32853 0.02948 0.0
H2776 H 0.2672 0.34333 0.03738 0.0
H2777 H 0.2807 0.32215 0.09157 0.0
H2778 H 0.29366 0.33389 0.0773 0.0
H2779 H 0.28264 0.3159 0.07199 0.0
C2780 C 0.3102 0.35943 0.03687 0.0
C2781 C 0.31476 0.35027 0.03163 0.0
C2782 C 0.29719 0.35435 0.04422 0.0
C2783 C 0.28845 0.34002 0.04657 0.0
C2784 C 0.29271 0.33078 0.04082 0.0
H2785 H 0.21038 0.30013 0.10283 0.0
H2786 H 0.22957 0.30369 0.08474 0.0
C2787 C 0.30577 0.33586 0.03343 0.0
C2788 C 0.27509 0.33496 0.05546 0.0
H2789 H 0.25843 0.31982 0.09121 0.0
C2790 C 0.26523 0.33808 0.04909 0.0
C2791 C 0.27253 0.3281 0.07072 0.0
C2792 C 0.28296 0.32488 0.07842 0.0
C2793 C 0.25299 0.33476 0.0577 0.0
C2794 C 0.25066 0.32834 0.0732 0.0
C2795 C 0.26027 0.32476 0.07932 0.0
C2796 C 0.23878 0.32607 0.08371 0.0
C2797 C 0.24269 0.33823 0.05017 0.0
C2798 C 0.2377 0.33747 0.08927 0.0
C2799 C 0.22679 0.33548 0.09956 0.0
C2800 C 0.21674 0.32203 0.1046 0.0
C2801 C 0.21786 0.31061 0.09903 0.0
C2802 C 0.22884 0.31262 0.08876 0.0
H2803 H 0.2439 0.33928 0.03666 0.0
H2804 H 0.23183 0.33015 0.05307 0.0
H2805 H 0.24448 0.34831 0.05517 0.0
H2806 H 0.2454 0.34796 0.08576 0.0
H2807 H 0.22617 0.34449 0.10349 0.0
H2808 H 0.72285 0.70468 0.3723 0.0
H2809 H 0.73678 0.69655 0.38651 0.0
H2810 H 0.70393 0.65407 0.38053 0.0
H2811 H 0.6898 0.66213 0.36624 0.0
H2812 H 0.72672 0.67926 0.41632 0.0
H2813 H 0.741 0.65503 0.36565 0.0
H2814 H 0.73604 0.66803 0.36196 0.0
H2815 H 0.72308 0.65067 0.36744 0.0
C2816 C 0.71862 0.69359 0.37378 0.0
C2817 C 0.70518 0.68405 0.36814 0.0
C2818 C 0.7266 0.68897 0.38194 0.0
C2819 C 0.7214 0.67473 0.38451 0.0
C2820 C 0.70817 0.66511 0.37851 0.0
H2821 H 0.76231 0.63524 0.43531 0.0
H2822 H 0.74557 0.63907 0.41997 0.0
C2823 C 0.70011 0.66973 0.37037 0.0
C2824 C 0.72957 0.67017 0.39441 0.0
H2825 H 0.74939 0.65456 0.39195 0.0
C2826 C 0.73163 0.6738 0.41103 0.0
C2827 C 0.73582 0.66293 0.38748 0.0
C2828 C 0.73399 0.65895 0.36963 0.0
C2829 C 0.73995 0.67055 0.4209 0.0
C2830 C 0.74669 0.66381 0.41384 0.0
C2831 C 0.74428 0.6598 0.39731 0.0
C2832 C 0.75673 0.66141 0.42325 0.0
C2833 C 0.74138 0.67433 0.43882 0.0
C2834 C 0.76864 0.6727 0.43004 0.0
C2835 C 0.77813 0.67055 0.43893 0.0
C2836 C 0.77603 0.65705 0.44109 0.0
C2837 C 0.76415 0.64575 0.43411 0.0
C2838 C 0.75463 0.64793 0.42522 0.0
H2839 H 0.73243 0.6753 0.44325 0.0
H2840 H 0.74217 0.66645 0.44638 0.0
H2841 H 0.75096 0.68452 0.44066 0.0
H2842 H 0.77063 0.68323 0.42841 0.0
H2843 H 0.78707 0.67948 0.44426 0.0
H2844 H 0.3398 0.02854 0.36771 0.0
H2845 H 0.34756 0.05066 0.38217 0.0
H2846 H 0.30516 0.042 0.38484 0.0
H2847 H 0.29731 0.02 0.37052 0.0
H2848 H 0.34283 0.07424 0.37506 0.0
H2849 H 0.31895 0.04698 0.43328 0.0
H2850 H 0.32241 0.03859 0.41641 0.0
H2851 H 0.30751 0.04094 0.41592 0.0
C2852 C 0.33215 0.03144 0.3712 0.0
C2853 C 0.31792 0.02245 0.36808 0.0
C2854 C 0.3366 0.04406 0.37947 0.0
C2855 C 0.32689 0.04782 0.3848 0.0
C2856 C 0.31278 0.03917 0.38105 0.0
H2857 H 0.32332 0.11087 0.44221 0.0
H2858 H 0.3192 0.09085 0.42555 0.0
C2859 C 0.30834 0.02661 0.3728 0.0
C2860 C 0.33129 0.0605 0.39482 0.0
H2861 H 0.32683 0.07117 0.43243 0.0
C2862 C 0.33947 0.07362 0.38765 0.0
C2863 C 0.32689 0.05961 0.41125 0.0
C2864 C 0.31855 0.04579 0.41976 0.0
C2865 C 0.34291 0.0859 0.39632 0.0
C2866 C 0.33824 0.08499 0.41265 0.0
C2867 C 0.33034 0.07185 0.41989 0.0
C2868 C 0.34099 0.09745 0.42234 0.0
C2869 C 0.35107 0.09971 0.38774 0.0
C2870 C 0.35463 0.1078 0.42617 0.0
C2871 C 0.35703 0.11927 0.43576 0.0
C2872 C 0.34582 0.12054 0.44182 0.0
C2873 C 0.33219 0.11013 0.43794 0.0
C2874 C 0.32981 0.09871 0.42834 0.0
H2875 H 0.35101 0.09845 0.37424 0.0
H2876 H 0.34682 0.10665 0.39068 0.0
H2877 H 0.36204 0.10489 0.39192 0.0
H2878 H 0.36342 0.10689 0.42199 0.0
H2879 H 0.36765 0.12699 0.43871 0.0
H2880 H 0.97677 0.31476 0.36544 0.0
H2881 H 0.95447 0.30044 0.3795 0.0
H2882 H 0.96295 0.26656 0.38212 0.0
H2883 H 0.98513 0.28069 0.3682 0.0
H2884 H 0.93087 0.27217 0.37198 0.0
H2885 H 0.95759 0.27538 0.43053 0.0
H2886 H 0.96613 0.28724 0.41379 0.0
H2887 H 0.96382 0.27001 0.41325 0.0
C2888 C 0.9738 0.3042 0.36883 0.0
C2889 C 0.98279 0.29891 0.36582 0.0
C2890 C 0.96107 0.29605 0.37686 0.0
C2891 C 0.9572 0.28254 0.38206 0.0
C2892 C 0.96586 0.27705 0.37842 0.0
H2893 H 0.89411 0.21553 0.43801 0.0
H2894 H 0.91405 0.23162 0.42147 0.0
C2895 C 0.97853 0.28514 0.37041 0.0
C2896 C 0.94443 0.27429 0.39191 0.0
H2897 H 0.93344 0.25898 0.42928 0.0
C2898 C 0.93138 0.26938 0.38456 0.0
C2899 C 0.94517 0.27073 0.40832 0.0
C2900 C 0.95891 0.2762 0.41703 0.0
C2901 C 0.91902 0.26049 0.39303 0.0
C2902 C 0.9198 0.25663 0.40932 0.0
C2903 C 0.93286 0.26188 0.41676 0.0
C2904 C 0.90729 0.24674 0.41875 0.0
C2905 C 0.90529 0.25487 0.38429 0.0
C2906 C 0.89685 0.2499 0.42276 0.0
C2907 C 0.88543 0.24071 0.43229 0.0
C2908 C 0.88431 0.22825 0.43811 0.0
C2909 C 0.89475 0.22511 0.43395 0.0
C2910 C 0.90612 0.23427 0.42442 0.0
H2911 H 0.90666 0.25631 0.37084 0.0
H2912 H 0.89844 0.24363 0.3869 0.0
H2913 H 0.89993 0.26046 0.38868 0.0
H2914 H 0.89768 0.25959 0.4188 0.0
H2915 H 0.87765 0.24351 0.43544 0.0
H2916 H 0.99836 0.35832 0.33061 0.0
H2917 H 0.9907 0.37306 0.31708 0.0
H2918 H 0.03333 0.40614 0.31341 0.0
H2919 H 0.04103 0.39166 0.32711 0.0
H2920 H 0.01545 0.41551 0.3229 0.0
H2921 H 0.99527 0.38134 0.26807 0.0
H2922 H 0.98793 0.37307 0.28728 0.0
H2923 H 0.00603 0.3794 0.28315 0.0
C2924 C 0.00608 0.36878 0.32706 0.0
C2925 C 0.02031 0.37378 0.32985 0.0
C2926 C 1.00169 0.37715 0.31922 0.0
C2927 C 0.01147 0.39061 0.31395 0.0
C2928 C 0.02561 0.39577 0.31728 0.0
H2929 H 0.01906 0.45848 0.25637 0.0
H2930 H 0.02191 0.44233 0.27404 0.0
C2931 C 0.02999 0.38745 0.32512 0.0
C2932 C 0.00718 0.39933 0.30465 0.0
H2933 H 0.99333 0.40154 0.26824 0.0
C2934 C 0.01053 0.41241 0.311 0.0
C2935 C 1.00075 0.39528 0.28911 0.0
C2936 C 0.99737 0.38157 0.28139 0.0
C2937 C 0.00781 0.42163 0.30214 0.0
C2938 C 1.00174 0.41773 0.28643 0.0
C2939 C 0.99799 0.40449 0.28029 0.0
C2940 C 0.99989 0.42752 0.27584 0.0
C2941 C 0.01149 0.43549 0.30965 0.0
C2942 C 0.98658 0.4244 0.27068 0.0
C2943 C 0.98492 0.43358 0.26047 0.0
C2944 C 0.99656 0.44597 0.25508 0.0
C2945 C 0.00989 0.44898 0.26018 0.0
C2946 C 0.01152 0.43983 0.27043 0.0
H2947 H 0.01241 0.43535 0.32317 0.0
H2948 H 0.02167 0.4436 0.30474 0.0
H2949 H 0.00358 0.43847 0.3066 0.0
H2950 H 0.97747 0.41488 0.2746 0.0
H2951 H 0.97453 0.43089 0.25661 0.0
H2952 H 0.61178 0.64686 0.33497 0.0
H2953 H 0.59719 0.62457 0.32143 0.0
H2954 H 0.63332 0.62047 0.31242 0.0
H2955 H 0.64794 0.64259 0.32649 0.0
H2956 H 0.5986 0.61913 0.29036 0.0
H2957 H 0.60616 0.58182 0.32768 0.0
H2958 H 0.61153 0.59925 0.33459 0.0
H2959 H 0.62224 0.59616 0.32056 0.0
C2960 C 0.61659 0.64108 0.33039 0.0
C2961 C 0.63102 0.64648 0.33181 0.0
C2962 C 0.60824 0.62835 0.32262 0.0
C2963 C 0.61411 0.62075 0.31598 0.0
C2964 C 0.62847 0.62594 0.31775 0.0
H2965 H 0.57486 0.56177 0.23605 0.0
H2966 H 0.59029 0.58171 0.25314 0.0
C2967 C 0.63684 0.63864 0.32574 0.0
C2968 C 0.60533 0.60806 0.30607 0.0
H2969 H 0.59513 0.57361 0.30178 0.0
C2970 C 0.5978 0.60916 0.29293 0.0
C2971 C 0.60417 0.59501 0.30948 0.0
C2972 C 0.61134 0.59292 0.32394 0.0
C2973 C 0.58922 0.59766 0.28308 0.0
C2974 C 0.58846 0.58473 0.2861 0.0
C2975 C 0.59586 0.58356 0.29934 0.0
C2976 C 0.57976 0.57227 0.27585 0.0
C2977 C 0.58081 0.59943 0.26978 0.0
C2978 C 0.5691 0.56009 0.283 0.0
C2979 C 0.56038 0.54861 0.27327 0.0
C2980 C 0.56215 0.54911 0.2562 0.0
C2981 C 0.5731 0.56117 0.24913 0.0
C2982 C 0.58189 0.57258 0.25888 0.0
H2983 H 0.57945 0.60856 0.27214 0.0
H2984 H 0.58633 0.60117 0.25793 0.0
H2985 H 0.57037 0.59003 0.26863 0.0
H2986 H 0.56729 0.55958 0.29607 0.0
H2987 H 0.552 0.53949 0.27905 0.0
H2988 H 0.36178 0.00506 0.33192 0.0
H2989 H 0.38353 0.01192 0.31704 0.0
H2990 H 0.37244 0.96885 0.31292 0.0
H2991 H 0.35081 0.9619 0.3277 0.0
H2992 H 0.40601 0.00466 0.32353 0.0
H2993 H 0.37788 0.98444 0.26476 0.0
H2994 H 0.37034 0.98848 0.28206 0.0
H2995 H 0.37107 0.97266 0.28178 0.0
C2996 C 0.36406 0.99707 0.32802 0.0
C2997 C 0.35451 0.98293 0.3309 0.0
C2998 C 0.37647 1.00101 0.31952 0.0
C2999 C 0.37945 0.99086 0.3137 0.0
C3000 C 0.37022 0.97681 0.31714 0.0
H3001 H 0.43897 0.98372 0.25343 0.0
H3002 H 0.41945 0.98066 0.27029 0.0
C3003 C 0.35788 0.97288 0.32565 0.0
C3004 C 0.39192 0.99476 0.30348 0.0
H3005 H 0.40169 0.99075 0.26514 0.0
C3006 C 0.40513 0.00177 0.31072 0.0
C3007 C 0.39068 0.99095 0.28679 0.0
C3008 C 0.37675 0.98382 0.27829 0.0
C3009 C 0.41713 0.00459 0.30183 0.0
C3010 C 0.41586 1.00053 0.28519 0.0
C3011 C 0.40265 0.99382 0.27789 0.0
C3012 C 0.42798 0.0026 0.27525 0.0
C3013 C 0.43098 0.01138 0.31049 0.0
C3014 C 0.43924 0.01598 0.27228 0.0
C3015 C 0.45052 0.01777 0.26275 0.0
C3016 C 0.45072 0.0062 0.2559 0.0
C3017 C 0.43931 0.99284 0.25874 0.0
C3018 C 0.42808 0.99107 0.26829 0.0
H3019 H 0.42973 0.01075 0.324 0.0
H3020 H 0.4372 0.00647 0.30686 0.0
H3021 H 0.43693 0.02254 0.30708 0.0
H3022 H 0.43927 0.02506 0.27724 0.0
H3023 H 0.45915 0.02819 0.26091 0.0
H3024 H 0.64582 0.00479 0.33273 0.0
H3025 H 0.63059 0.01204 0.31959 0.0
H3026 H 0.59887 0.96904 0.31384 0.0
H3027 H 0.61381 0.96175 0.32713 0.0
H3028 H 0.62024 0.00592 0.28834 0.0
H3029 H 0.57661 0.98569 0.33247 0.0
H3030 H 0.59328 0.98749 0.33749 0.0
H3031 H 0.5806 0.97257 0.32621 0.0
C3032 C 0.6355 0.9969 0.32892 0.0
C3033 C 0.63102 0.98269 0.33105 0.0
C3034 C 0.62683 1.00106 0.32137 0.0
C3035 C 0.6135 0.9911 0.31594 0.0
C3036 C 0.60896 0.97694 0.31827 0.0
H3037 H 0.54804 0.98399 0.2544 0.0
H3038 H 0.56433 0.98113 0.27178 0.0
C3039 C 0.61758 0.97278 0.3258 0.0
C3040 C 0.60462 0.99533 0.30685 0.0
H3041 H 0.57179 0.99069 0.30546 0.0
C3042 C 0.60972 0.00279 0.29221 0.0
C3043 C 0.5909 0.99125 0.31191 0.0
C3044 C 0.58507 0.98393 0.32797 0.0
C3045 C 0.60125 0.00572 0.28213 0.0
C3046 C 0.58738 1.00117 0.28691 0.0
C3047 C 0.58241 0.99408 0.30178 0.0
C3048 C 0.57765 0.00313 0.27634 0.0
C3049 C 0.607 0.01316 0.26613 0.0
C3050 C 0.5797 0.01646 0.27321 0.0
C3051 C 0.57033 0.01814 0.26338 0.0
C3052 C 0.5587 0.0065 0.25651 0.0
C3053 C 0.55674 0.99317 0.25967 0.0
C3054 C 0.56608 0.99151 0.26954 0.0
H3055 H 0.61705 0.01382 0.2629 0.0
H3056 H 0.59948 0.00779 0.25606 0.0
H3057 H 0.60874 0.0239 0.26704 0.0
H3058 H 0.58847 0.02555 0.27855 0.0
H3059 H 0.57205 0.02854 0.26143 0.0
H3060 H 1.0006 0.64473 0.32491 0.0
H3061 H 0.99382 0.62283 0.3106 0.0
H3062 H 0.03381 0.62712 0.32156 0.0
H3063 H 0.04079 0.64917 0.33537 0.0
H3064 H 0.02808 0.62208 0.29014 0.0
H3065 H 0.9822 0.58405 0.32564 0.0
H3066 H 0.98057 0.59842 0.3184 0.0
H3067 H 0.99389 0.60141 0.33301 0.0
C3068 C 0.00784 0.64086 0.32452 0.0
C3069 C 0.02124 0.64869 0.33124 0.0
C3070 C 0.00393 0.6283 0.3164 0.0
C3071 C 0.01325 0.62323 0.31512 0.0
C3072 C 0.02643 0.63081 0.32237 0.0
H3073 H 0.99627 0.5427 0.27763 0.0
H3074 H 1.00033 0.56251 0.29481 0.0
C3075 C 0.0304 0.64341 0.33029 0.0
C3076 C 0.00981 0.6107 0.30511 0.0
H3077 H 0.98602 0.57624 0.29993 0.0
C3078 C 0.01891 0.61205 0.29235 0.0
C3079 C 0.99792 0.59755 0.30807 0.0
C3080 C 0.98816 0.5952 0.32213 0.0
C3081 C 0.01644 0.6007 0.28243 0.0
C3082 C 0.00428 0.58769 0.28498 0.0
C3083 C 0.99524 0.58626 0.29785 0.0
C3084 C 1.00097 0.57539 0.27461 0.0
C3085 C 0.02707 0.60273 0.26956 0.0
C3086 C 0.99964 0.5759 0.25759 0.0
C3087 C 0.99744 0.56465 0.24775 0.0
C3088 C 0.99628 0.55256 0.25477 0.0
C3089 C 0.99705 0.55185 0.27188 0.0
C3090 C 0.99939 0.56317 0.2817 0.0
H3091 H 0.03741 0.61189 0.2723 0.0
H3092 H 0.02827 0.5934 0.26848 0.0
H3093 H 0.02363 0.60456 0.25755 0.0
H3094 H 1.00043 0.58507 0.25187 0.0
H3095 H 0.99663 0.56541 0.23463 0.0
H3096 H 0.35479 0.39046 0.32645 0.0
H3097 H 0.37727 0.40468 0.31321 0.0
H3098 H 0.3864 0.37136 0.31832 0.0
H3099 H 0.3637 0.35689 0.33139 0.0
H3100 H 0.40431 0.41385 0.32354 0.0
H3101 H 0.39113 0.37925 0.26919 0.0
H3102 H 0.37819 0.37761 0.28382 0.0
H3103 H 0.38968 0.37107 0.28859 0.0
C3104 C 0.36159 0.38615 0.32487 0.0
C3105 C 0.35739 0.37248 0.32987 0.0
C3106 C 0.37446 0.39431 0.3173 0.0
C3107 C 0.38342 0.389 0.31451 0.0
C3108 C 0.37952 0.37556 0.32004 0.0
H3109 H 0.46166 0.42771 0.25894 0.0
H3110 H 0.44225 0.41209 0.27668 0.0
C3111 C 0.36659 0.36735 0.32762 0.0
C3112 C 0.39663 0.39754 0.30546 0.0
H3113 H 0.41338 0.39924 0.26965 0.0
C3114 C 0.40633 0.41062 0.31181 0.0
C3115 C 0.39926 0.39331 0.29014 0.0
C3116 C 0.38899 0.3796 0.28241 0.0
C3117 C 0.4185 0.41964 0.30318 0.0
C3118 C 0.42094 0.41556 0.28768 0.0
C3119 C 0.41146 0.40233 0.28154 0.0
C3120 C 0.43288 0.42515 0.27729 0.0
C3121 C 0.42864 0.43348 0.31071 0.0
C3122 C 0.43395 0.43757 0.2716 0.0
C3123 C 0.44501 0.4465 0.2615 0.0
C3124 C 0.45521 0.44316 0.25682 0.0
C3125 C 0.45407 0.43066 0.26248 0.0
C3126 C 0.44296 0.4217 0.27255 0.0
H3127 H 0.42731 0.43343 0.32418 0.0
H3128 H 0.43955 0.43629 0.30798 0.0
H3129 H 0.42682 0.44167 0.30552 0.0
H3130 H 0.42616 0.44032 0.27488 0.0
H3131 H 0.44563 0.45609 0.25748 0.0
H3132 H 0.30178 0.27927 0.36281 0.0
H3133 H 0.3097 0.26516 0.37703 0.0
H3134 H 0.3497 0.30166 0.3852 0.0
H3135 H 0.34195 0.31585 0.37054 0.0
H3136 H 0.35201 0.27868 0.37775 0.0
H3137 H 0.31265 0.26599 0.42642 0.0
H3138 H 0.30506 0.26104 0.40645 0.0
H3139 H 0.31641 0.27914 0.4112 0.0
C3140 C 0.31232 0.28429 0.36747 0.0
C3141 C 0.32119 0.29871 0.36571 0.0
C3142 C 0.3168 0.27621 0.37568 0.0
C3143 C 0.33016 0.28241 0.38257 0.0
C3144 C 0.3393 0.29668 0.38011 0.0
H3145 H 0.35001 0.24234 0.461 0.0
H3146 H 0.34645 0.25855 0.44424 0.0
C3147 C 0.33487 0.30477 0.37171 0.0
C3148 C 0.33431 0.27407 0.39287 0.0
H3149 H 0.32456 0.25315 0.42655 0.0
C3150 C 0.34607 0.27314 0.38848 0.0
C3151 C 0.32672 0.26709 0.40707 0.0
C3152 C 0.3146 0.26846 0.41318 0.0
C3153 C 0.35022 0.26512 0.39765 0.0
C3154 C 0.3422 0.25759 0.41138 0.0
C3155 C 0.33064 0.2588 0.41595 0.0
C3156 C 0.34551 0.24836 0.42126 0.0
C3157 C 0.36327 0.26501 0.3927 0.0
C3158 C 0.34622 0.23725 0.41395 0.0
C3159 C 0.34837 0.22805 0.42351 0.0
C3160 C 0.3496 0.22963 0.4406 0.0
C3161 C 0.34898 0.2408 0.44787 0.0
C3162 C 0.34699 0.25008 0.4383 0.0
H3163 H 0.37037 0.27442 0.38552 0.0
H3164 H 0.36898 0.26445 0.40355 0.0
H3165 H 0.36043 0.25579 0.38488 0.0
H3166 H 0.34471 0.23545 0.4009 0.0
H3167 H 0.34861 0.21942 0.41759 0.0
H3168 H 0.72464 0.02034 0.37072 0.0
H3169 H 0.73875 0.04304 0.38351 0.0
H3170 H 0.70499 0.05152 0.37844 0.0
H3171 H 0.69063 0.02859 0.3658 0.0
H3172 H 0.74739 0.06979 0.37236 0.0
H3173 H 0.71365 0.05737 0.42742 0.0
H3174 H 0.71197 0.04418 0.41315 0.0
H3175 H 0.70516 0.05538 0.4081 0.0
C3176 C 0.7202 0.02703 0.37223 0.0
C3177 C 0.70646 0.02259 0.36734 0.0
C3178 C 0.7283 0.04003 0.37954 0.0
C3179 C 0.72285 0.04889 0.38218 0.0
C3180 C 0.7093 0.04473 0.37681 0.0
H3181 H 0.76223 0.12802 0.43624 0.0
H3182 H 0.74631 0.10842 0.4189 0.0
C3183 C 0.70115 0.03167 0.36949 0.0
C3184 C 0.73141 0.06231 0.39083 0.0
H3185 H 0.7336 0.07961 0.42635 0.0
C3186 C 0.74433 0.07198 0.38411 0.0
C3187 C 0.72739 0.06517 0.40616 0.0
C3188 C 0.71385 0.05496 0.41425 0.0
C3189 C 0.75343 0.08432 0.39241 0.0
C3190 C 0.7496 0.08697 0.40795 0.0
C3191 C 0.7365 0.07754 0.41444 0.0
C3192 C 0.75936 0.09905 0.41806 0.0
C3193 C 0.76711 0.0944 0.3845 0.0
C3194 C 0.77189 0.10019 0.42347 0.0
C3195 C 0.78098 0.11135 0.43334 0.0
C3196 C 0.77771 0.12159 0.43807 0.0
C3197 C 0.76512 0.1204 0.43266 0.0
C3198 C 0.75599 0.10918 0.42282 0.0
H3199 H 0.7668 0.0929 0.37103 0.0
H3200 H 0.76993 0.10534 0.3871 0.0
H3201 H 0.77543 0.09269 0.3895 0.0
H3202 H 0.77458 0.09236 0.42017 0.0
H3203 H 0.79063 0.11201 0.43716 0.0
H3204 H 0.97678 0.66276 0.36507 0.0
H3205 H 0.95384 0.65427 0.37765 0.0
H3206 H 0.96188 0.69644 0.38151 0.0
H3207 H 0.98456 0.70493 0.36875 0.0
H3208 H 0.94833 0.66036 0.40825 0.0
H3209 H 0.92326 0.67704 0.36218 0.0
H3210 H 0.93893 0.67644 0.35789 0.0
H3211 H 0.93982 0.69114 0.36845 0.0
C3212 C 0.97355 0.67019 0.36836 0.0
C3213 C 0.98248 0.68452 0.36584 0.0
C3214 C 0.96046 0.66533 0.37558 0.0
C3215 C 0.95604 0.6747 0.38029 0.0
C3216 C 0.96489 0.68898 0.37761 0.0
H3217 H 0.89539 0.67919 0.44018 0.0
H3218 H 0.91493 0.68261 0.42308 0.0
C3219 C 0.97792 0.69383 0.37039 0.0
C3220 C 0.94263 0.6698 0.38903 0.0
H3221 H 0.91316 0.67231 0.38915 0.0
C3222 C 0.94052 0.66275 0.40395 0.0
C3223 C 0.93243 0.6729 0.38339 0.0
C3224 C 0.93364 0.67967 0.36702 0.0
C3225 C 0.92881 0.65934 0.41373 0.0
C3226 C 0.91895 0.663 0.4084 0.0
C3227 C 0.92081 0.66962 0.39325 0.0
C3228 C 0.90699 0.66069 0.41873 0.0
C3229 C 0.92734 0.65238 0.43003 0.0
C3230 C 0.89601 0.64721 0.42186 0.0
C3231 C 0.8847 0.64521 0.4315 0.0
C3232 C 0.88419 0.65666 0.4382 0.0
C3233 C 0.89529 0.67014 0.43503 0.0
C3234 C 0.90652 0.67213 0.42533 0.0
H3235 H 0.93688 0.65209 0.43344 0.0
H3236 H 0.92498 0.65787 0.4398 0.0
H3237 H 0.91854 0.64152 0.42946 0.0
H3238 H 0.8961 0.63826 0.41668 0.0
H3239 H 0.87626 0.6347 0.43347 0.0
H3240 H 0.36123 0.99914 0.69646 0.0
H3241 H 0.37621 0.99163 0.70967 0.0
H3242 H 0.40478 0.03405 0.72371 0.0
H3243 H 0.39017 0.04165 0.7102 0.0
H3244 H 0.41845 0.02138 0.71287 0.0
H3245 H 0.37868 0.98778 0.7585 0.0
H3246 H 0.37344 0.98319 0.7376 0.0
H3247 H 0.37647 0.99963 0.74546 0.0
C3248 C 0.37075 0.00687 0.70226 0.0
C3249 C 0.37446 0.02098 0.70234 0.0
C3250 C 0.37925 0.00255 0.70993 0.0
C3251 C 0.39149 0.01224 0.71798 0.0
C3252 C 0.39537 0.02637 0.71764 0.0
H3253 H 0.4375 0.00141 0.79538 0.0
H3254 H 0.42199 0.00542 0.778 0.0
C3255 C 0.38698 0.0307 0.7099 0.0
C3256 C 0.40027 0.00783 0.727 0.0
H3257 H 0.40016 0.98821 0.75922 0.0
C3258 C 0.41444 0.01407 0.72296 0.0
C3259 C 0.39506 0.99844 0.74031 0.0
C3260 C 0.38012 0.99195 0.74586 0.0
C3261 C 0.42359 0.01135 0.73197 0.0
C3262 C 0.41835 0.00182 0.74514 0.0
C3263 C 0.40414 0.99543 0.74904 0.0
C3264 C 0.42757 0.99894 0.7556 0.0
C3265 C 0.43887 0.01918 0.72769 0.0
C3266 C 0.43573 0.99375 0.74887 0.0
C3267 C 0.44483 0.99168 0.75874 0.0
C3268 C 0.44582 0.99458 0.77562 0.0
C3269 C 0.43727 0.99935 0.78239 0.0
C3270 C 0.42827 0.00152 0.77249 0.0
H3271 H 0.44166 0.02861 0.72031 0.0
H3272 H 0.4454 0.02239 0.73888 0.0
H3273 H 0.44145 0.01233 0.72036 0.0
H3274 H 0.43515 0.99139 0.73594 0.0
H3275 H 0.45129 0.98809 0.75304 0.0
H3276 H 0.00593 0.36044 0.70125 0.0
H3277 H 0.01294 0.38228 0.71599 0.0
H3278 H 0.97014 0.37244 0.71795 0.0
H3279 H 0.96305 0.3507 0.70338 0.0
H3280 H 0.00778 0.40536 0.7089 0.0
H3281 H 0.98307 0.37752 0.76653 0.0
H3282 H 0.98694 0.36936 0.74975 0.0
H3283 H 0.97189 0.37144 0.74895 0.0
C3284 C 0.99804 0.36301 0.70467 0.0
C3285 C 0.98392 0.35377 0.70126 0.0
C3286 C 1.00206 0.37547 0.71309 0.0
C3287 C 0.99202 0.37883 0.71829 0.0
C3288 C 0.97802 0.36992 0.71429 0.0
H3289 H 0.98541 0.44068 0.77446 0.0
H3290 H 0.98222 0.42096 0.75785 0.0
C3291 C 0.974 0.35751 0.70589 0.0
C3292 C 0.99596 0.39139 0.72837 0.0
H3293 H 0.9903 0.4016 0.76566 0.0
C3294 C 0.0041 0.40459 0.72137 0.0
C3295 C 0.99116 0.39031 0.74463 0.0
C3296 C 0.98288 0.37641 0.753 0.0
C3297 C 0.00709 0.41676 0.73002 0.0
C3298 C 1.00198 0.41564 0.74616 0.0
C3299 C 0.99414 0.40243 0.75326 0.0
C3300 C 0.00418 0.42794 0.75578 0.0
C3301 C 0.01524 0.43065 0.72163 0.0
C3302 C 0.01761 0.4384 0.76021 0.0
C3303 C 0.01947 0.44969 0.76979 0.0
C3304 C 0.00793 0.45067 0.77522 0.0
C3305 C 0.99451 0.44017 0.7707 0.0
C3306 C 0.99267 0.42892 0.76112 0.0
H3307 H 0.01566 0.42951 0.70817 0.0
H3308 H 0.01061 0.43733 0.72421 0.0
H3309 H 0.02606 0.43606 0.72633 0.0
H3310 H 0.02663 0.43771 0.75652 0.0
H3311 H 0.02993 0.4575 0.77325 0.0
H3312 H 0.65232 0.61339 0.70543 0.0
H3313 H 0.63032 0.59987 0.71995 0.0
H3314 H 0.6213 0.63316 0.71386 0.0
H3315 H 0.64341 0.64688 0.69925 0.0
H3316 H 0.62337 0.6101 0.7497 0.0
H3317 H 0.58486 0.59657 0.69944 0.0
H3318 H 0.60274 0.60131 0.69556 0.0
H3319 H 0.59854 0.61442 0.7012 0.0
C3320 C 0.64561 0.61781 0.70696 0.0
C3321 C 0.64964 0.63124 0.70118 0.0
C3322 C 0.63304 0.61006 0.7153 0.0
C3323 C 0.62418 0.61549 0.71792 0.0
C3324 C 0.62794 0.62873 0.7118 0.0
H3325 H 0.54402 0.57623 0.76954 0.0
H3326 H 0.5647 0.59266 0.75406 0.0
C3327 C 0.64059 0.63655 0.70349 0.0
C3328 C 0.61145 0.60754 0.72793 0.0
H3329 H 0.576 0.58845 0.72584 0.0
C3330 C 0.613 0.60542 0.74452 0.0
C3331 C 0.59796 0.60158 0.72115 0.0
C3332 C 0.59581 0.60346 0.70334 0.0
C3333 C 0.60142 0.59732 0.75449 0.0
C3334 C 0.58793 0.59087 0.74759 0.0
C3335 C 0.58635 0.59334 0.7311 0.0
C3336 C 0.57544 0.58103 0.7571 0.0
C3337 C 0.60377 0.59581 0.77237 0.0
C3338 C 0.57455 0.56898 0.7638 0.0
C3339 C 0.56284 0.55966 0.77276 0.0
C3340 C 0.55166 0.56209 0.77508 0.0
C3341 C 0.55252 0.57413 0.7682 0.0
C3342 C 0.56428 0.58348 0.75925 0.0
H3343 H 0.61381 0.6046 0.77673 0.0
H3344 H 0.59524 0.59526 0.78005 0.0
H3345 H 0.60413 0.58608 0.77414 0.0
H3346 H 0.58291 0.56673 0.76203 0.0
H3347 H 0.56262 0.55059 0.77799 0.0
H3348 H 0.70599 0.72211 0.65875 0.0
H3349 H 0.69764 0.73591 0.6447 0.0
H3350 H 0.6553 0.70278 0.65073 0.0
H3351 H 0.66358 0.68877 0.66488 0.0
H3352 H 0.68052 0.72608 0.61501 0.0
H3353 H 0.65562 0.73936 0.66584 0.0
H3354 H 0.66867 0.73446 0.66946 0.0
H3355 H 0.65137 0.72149 0.66377 0.0
C3356 C 0.69488 0.71778 0.65732 0.0
C3357 C 0.68545 0.70431 0.66293 0.0
C3358 C 0.69014 0.7257 0.64924 0.0
C3359 C 0.67587 0.72039 0.64674 0.0
C3360 C 0.66636 0.70711 0.65271 0.0
H3361 H 0.63541 0.76047 0.59613 0.0
H3362 H 0.63955 0.74389 0.61141 0.0
C3363 C 0.6711 0.69912 0.66076 0.0
C3364 C 0.67117 0.72851 0.63694 0.0
H3365 H 0.65498 0.74778 0.6396 0.0
C3366 C 0.67488 0.73078 0.62035 0.0
C3367 C 0.66369 0.73448 0.64393 0.0
C3368 C 0.65962 0.73244 0.66175 0.0
C3369 C 0.67148 0.73903 0.61058 0.0
C3370 C 0.66449 0.74549 0.6177 0.0
C3371 C 0.6604 0.74288 0.63419 0.0
C3372 C 0.66191 0.75547 0.6084 0.0
C3373 C 0.67537 0.7407 0.59269 0.0
C3374 C 0.6731 0.76755 0.6018 0.0
C3375 C 0.67078 0.77695 0.59296 0.0
C3376 C 0.65719 0.77458 0.59065 0.0
C3377 C 0.64599 0.76253 0.59746 0.0
C3378 C 0.64833 0.75309 0.6063 0.0
H3379 H 0.67659 0.73192 0.58815 0.0
H3380 H 0.66743 0.74136 0.58511 0.0
H3381 H 0.68547 0.75042 0.59099 0.0
H3382 H 0.68369 0.76974 0.60353 0.0
H3383 H 0.67965 0.78603 0.58777 0.0
H3384 H 0.28234 0.98434 0.65698 0.0
H3385 H 0.26829 0.96134 0.64499 0.0
H3386 H 0.29965 0.95085 0.65773 0.0
H3387 H 0.31403 0.97413 0.66949 0.0
H3388 H 0.2912 0.9439 0.62651 0.0
H3389 H 0.24484 0.92405 0.66622 0.0
H3390 H 0.24911 0.94053 0.65752 0.0
H3391 H 0.26112 0.93936 0.67134 0.0
C3392 C 0.28621 0.97712 0.65744 0.0
C3393 C 0.2993 0.98108 0.66426 0.0
C3394 C 0.2781 0.9639 0.65066 0.0
C3395 C 0.28276 0.95424 0.65072 0.0
C3396 C 0.29578 0.95809 0.65766 0.0
H3397 H 0.22445 0.86996 0.61563 0.0
H3398 H 0.24107 0.88923 0.63272 0.0
C3399 C 0.30397 0.97139 0.66441 0.0
C3400 C 0.27438 0.94051 0.64258 0.0
H3401 H 0.24142 0.91274 0.64003 0.0
C3402 C 0.28037 0.93698 0.62963 0.0
C3403 C 0.26031 0.93132 0.64681 0.0
C3404 C 0.25352 0.93394 0.66135 0.0
C3405 C 0.2725 0.92488 0.62028 0.0
C3406 C 0.25816 0.91627 0.62372 0.0
C3407 C 0.25236 0.91943 0.6372 0.0
C3408 C 0.24883 0.90431 0.6131 0.0
C3409 C 0.27966 0.92151 0.60679 0.0
C3410 C 0.24763 0.90635 0.59637 0.0
C3411 C 0.23828 0.89531 0.58652 0.0
C3412 C 0.22972 0.88201 0.59322 0.0
C3413 C 0.231 0.87999 0.60998 0.0
C3414 C 0.24043 0.89103 0.61981 0.0
H3415 H 0.29094 0.92605 0.60933 0.0
H3416 H 0.27497 0.9101 0.60512 0.0
H3417 H 0.27864 0.92604 0.59515 0.0
H3418 H 0.25373 0.91656 0.59096 0.0
H3419 H 0.23772 0.89725 0.57365 0.0
H3420 H 0.0284 0.33827 0.66336 0.0
H3421 H 0.05057 0.34607 0.64904 0.0
H3422 H 0.04132 0.30354 0.64491 0.0
H3423 H 0.01925 0.29567 0.65907 0.0
H3424 H 0.07383 0.34098 0.65573 0.0
H3425 H 0.0469 0.31826 0.59701 0.0
H3426 H 0.03844 0.32141 0.61404 0.0
H3427 H 0.04066 0.30644 0.614 0.0
C3428 C 0.03117 0.3306 0.65957 0.0
C3429 C 0.022 0.31634 0.66224 0.0
C3430 C 0.04383 0.33508 0.65139 0.0
C3431 C 0.04745 0.32535 0.64569 0.0
C3432 C 0.0386 0.31119 0.64898 0.0
H3433 H 0.11024 0.32126 0.58873 0.0
H3434 H 0.09031 0.31743 0.60535 0.0
C3435 C 0.02601 0.30672 0.65714 0.0
C3436 C 0.06018 0.3298 0.63574 0.0
H3437 H 0.07101 0.32566 0.59809 0.0
C3438 C 0.07327 0.33778 0.64308 0.0
C3439 C 0.05937 0.32563 0.61923 0.0
C3440 C 0.0456 0.31757 0.61052 0.0
C3441 C 0.08558 0.3412 0.6345 0.0
C3442 C 0.08473 0.3367 0.6181 0.0
C3443 C 0.07164 0.32904 0.61068 0.0
C3444 C 0.0972 0.3393 0.60853 0.0
C3445 C 0.09935 0.34914 0.64322 0.0
C3446 C 0.1077 0.35288 0.60473 0.0
C3447 C 0.11912 0.35511 0.59514 0.0
C3448 C 0.12018 0.34379 0.58906 0.0
C3449 C 0.10966 0.33021 0.59299 0.0
C3450 C 0.09829 0.328 0.60257 0.0
H3451 H 0.09802 0.3491 0.6567 0.0
H3452 H 0.10613 0.34468 0.64037 0.0
H3453 H 0.10476 0.36011 0.63903 0.0
H3454 H 0.10693 0.36174 0.60891 0.0
H3455 H 0.12694 0.36569 0.59217 0.0
H3456 H 0.31375 0.34035 0.66526 0.0
H3457 H 0.29909 0.34848 0.65247 0.0
H3458 H 0.26555 0.30608 0.64857 0.0
H3459 H 0.27997 0.29793 0.66144 0.0
H3460 H 0.2876 0.34164 0.62142 0.0
H3461 H 0.24587 0.32551 0.66768 0.0
H3462 H 0.26232 0.32658 0.67213 0.0
H3463 H 0.24877 0.31155 0.66186 0.0
C3464 C 0.30317 0.33279 0.66192 0.0
C3465 C 0.29802 0.31849 0.66441 0.0
C3466 C 0.29482 0.33745 0.65458 0.0
C3467 C 0.28115 0.3279 0.64977 0.0
C3468 C 0.27594 0.31366 0.6525 0.0
H3469 H 0.21485 0.32232 0.59134 0.0
H3470 H 0.23099 0.31918 0.6087 0.0
C3471 C 0.28426 0.30901 0.65979 0.0
C3472 C 0.27257 0.33259 0.64085 0.0
H3473 H 0.2406 0.33009 0.64071 0.0
C3474 C 0.27742 0.33933 0.62575 0.0
C3475 C 0.25929 0.32957 0.64651 0.0
C3476 C 0.25381 0.32303 0.66301 0.0
C3477 C 0.26906 0.34251 0.6158 0.0
C3478 C 0.25558 0.33901 0.62122 0.0
C3479 C 0.25092 0.33269 0.63655 0.0
C3480 C 0.24588 0.34116 0.61079 0.0
C3481 C 0.27447 0.34901 0.59927 0.0
C3482 C 0.24884 0.35457 0.60633 0.0
C3483 C 0.23965 0.35641 0.59632 0.0
C3484 C 0.22733 0.34484 0.5906 0.0
C3485 C 0.22435 0.33144 0.59529 0.0
C3486 C 0.23351 0.32962 0.60532 0.0
H3487 H 0.28389 0.34855 0.59561 0.0
H3488 H 0.26637 0.34373 0.58974 0.0
H3489 H 0.27725 0.3601 0.59967 0.0
H3490 H 0.25824 0.36362 0.61061 0.0
H3491 H 0.24229 0.36686 0.59288 0.0
H3492 H 0.70615 0.98812 0.6508 0.0
H3493 H 0.69799 0.96567 0.6376 0.0
H3494 H 0.65708 0.95087 0.65805 0.0
H3495 H 0.66509 0.97369 0.67076 0.0
H3496 H 0.68845 0.94063 0.64867 0.0
H3497 H 0.64715 0.94116 0.6111 0.0
H3498 H 0.65964 0.95616 0.62246 0.0
H3499 H 0.64482 0.94228 0.63265 0.0
C3500 C 0.69541 0.9801 0.65254 0.0
C3501 C 0.68624 0.98272 0.66177 0.0
C3502 C 0.69075 0.96724 0.64496 0.0
C3503 C 0.67684 0.95661 0.64653 0.0
C3504 C 0.66775 0.95901 0.65623 0.0
H3505 H 0.655 0.87236 0.61491 0.0
H3506 H 0.65926 0.89254 0.63147 0.0
C3507 C 0.67237 0.97201 0.66363 0.0
C3508 C 0.67209 0.9431 0.63799 0.0
H3509 H 0.64871 0.92066 0.61008 0.0
C3510 C 0.67974 0.93626 0.64025 0.0
C3511 C 0.66084 0.93747 0.62681 0.0
C3512 C 0.65271 0.9447 0.62296 0.0
C3513 C 0.67666 0.92415 0.6315 0.0
C3514 C 0.66519 0.91832 0.62062 0.0
C3515 C 0.65741 0.92504 0.61852 0.0
C3516 C 0.66152 0.90565 0.61075 0.0
C3517 C 0.68613 0.91812 0.63351 0.0
C3518 C 0.66062 0.90599 0.59362 0.0
C3519 C 0.65784 0.89435 0.58418 0.0
C3520 C 0.65604 0.88218 0.59168 0.0
C3521 C 0.65657 0.8817 0.60883 0.0
C3522 C 0.65909 0.89325 0.61828 0.0
H3523 H 0.6965 0.92597 0.6383 0.0
H3524 H 0.68143 0.90943 0.64242 0.0
H3525 H 0.68765 0.91405 0.62173 0.0
H3526 H 0.66239 0.9154 0.58751 0.0
H3527 H 0.65752 0.89499 0.57098 0.0
H3528 H 0.02959 0.68944 0.66826 0.0
H3529 H 0.0528 0.70376 0.65631 0.0
H3530 H 0.04286 0.73585 0.64544 0.0
H3531 H 0.01995 0.72186 0.65767 0.0
H3532 H 0.05962 0.71266 0.62546 0.0
H3533 H 0.08041 0.75855 0.66605 0.0
H3534 H 0.06495 0.74237 0.67105 0.0
H3535 H 0.06396 0.75472 0.65765 0.0
C3536 C 0.03245 0.69964 0.66355 0.0
C3537 C 0.02294 0.70454 0.66402 0.0
C3538 C 0.0457 0.7078 0.65669 0.0
C3539 C 0.04969 0.72101 0.65022 0.0
C3540 C 0.04021 0.72589 0.65076 0.0
H3541 H 0.10658 0.76623 0.57296 0.0
H3542 H 0.08723 0.75027 0.59023 0.0
C3543 C 0.02704 0.71781 0.65768 0.0
C3544 C 0.06336 0.72937 0.64194 0.0
H3545 H 0.09142 0.76217 0.63963 0.0
C3546 C 0.06668 0.72343 0.62872 0.0
C3547 C 0.07274 0.74335 0.64634 0.0
C3548 C 0.07041 0.75006 0.66116 0.0
C3549 C 0.07873 0.73127 0.6193 0.0
C3550 C 0.08753 0.74556 0.62293 0.0
C3551 C 0.08458 0.75129 0.63665 0.0
C3552 C 0.0995 0.75489 0.61232 0.0
C3553 C 0.08188 0.72414 0.60557 0.0
C3554 C 0.11283 0.76314 0.61902 0.0
C3555 C 0.12389 0.77257 0.60922 0.0
C3556 C 0.12187 0.77398 0.59249 0.0
C3557 C 0.10853 0.76557 0.58581 0.0
C3558 C 0.09747 0.75624 0.59563 0.0
H3559 H 0.07724 0.71283 0.60796 0.0
H3560 H 0.07728 0.72531 0.59406 0.0
H3561 H 0.09326 0.72872 0.60375 0.0
H3562 H 0.11464 0.76238 0.63189 0.0
H3563 H 0.13394 0.779 0.61488 0.0
H3564 H 0.96255 0.61375 0.70748 0.0
H3565 H 0.97017 0.59929 0.72132 0.0
H3566 H 0.01282 0.62884 0.70929 0.0
H3567 H 0.00527 0.64368 0.69581 0.0
H3568 H 0.98347 0.58625 0.71119 0.0
H3569 H 0.01548 0.62561 0.75803 0.0
H3570 H 0.00393 0.62784 0.7445 0.0
H3571 H 0.02067 0.6312 0.73735 0.0
C3572 C 0.97356 0.61719 0.70771 0.0
C3573 C 0.98331 0.62993 0.70064 0.0
C3574 C 0.97791 0.60889 0.71564 0.0
C3575 C 0.99209 0.61308 0.71663 0.0
C3576 C 1.00185 0.62555 0.70906 0.0
H3577 H 0.01625 0.55341 0.75226 0.0
H3578 H 0.01316 0.56964 0.73509 0.0
C3579 C 0.99751 0.63397 0.70124 0.0
C3580 C 0.99648 0.60433 0.72578 0.0
H3581 H 0.01555 0.60436 0.75856 0.0
C3582 C 0.99054 0.59023 0.72151 0.0
C3583 C 0.00556 0.60948 0.73939 0.0
C3584 C 0.01169 0.62432 0.74522 0.0
C3585 C 0.99321 0.58108 0.73059 0.0
C3586 C 0.00245 0.58627 0.74404 0.0
C3587 C 0.00857 0.60042 0.74817 0.0
C3588 C 0.00527 0.57704 0.75458 0.0
C3589 C 0.98564 0.56585 0.72606 0.0
C3590 C 0.00247 0.57624 0.77142 0.0
C3591 C 0.00456 0.56722 0.78138 0.0
C3592 C 0.00943 0.55872 0.77471 0.0
C3593 C 0.01257 0.55982 0.75789 0.0
C3594 C 0.01061 0.56897 0.74797 0.0
H3595 H 0.97629 0.56303 0.71847 0.0
H3596 H 0.99268 0.56349 0.71882 0.0
H3597 H 0.98232 0.55918 0.73713 0.0
H3598 H 0.99846 0.58246 0.77685 0.0
H3599 H 0.00234 0.56692 0.79432 0.0
H3600 H 0.38974 0.3532 0.70591 0.0
H3601 H 0.40367 0.37573 0.71914 0.0
H3602 H 0.37064 0.385 0.71198 0.0
H3603 H 0.35642 0.36223 0.69895 0.0
H3604 H 0.41331 0.40235 0.70809 0.0
H3605 H 0.37763 0.39097 0.76103 0.0
H3606 H 0.37596 0.37762 0.74702 0.0
H3607 H 0.36994 0.38934 0.74125 0.0
C3608 C 0.38542 0.36002 0.70707 0.0
C3609 C 0.37191 0.35586 0.70146 0.0
C3610 C 0.39342 0.37292 0.71464 0.0
C3611 C 0.38813 0.38196 0.71681 0.0
C3612 C 0.37482 0.37806 0.71076 0.0
H3613 H 0.42867 0.4624 0.76836 0.0
H3614 H 0.4125 0.4425 0.75161 0.0
C3615 C 0.36675 0.36509 0.7032 0.0
C3616 C 0.39661 0.39534 0.72559 0.0
H3617 H 0.39793 0.413 0.7605 0.0
C3618 C 0.4099 0.40471 0.71949 0.0
C3619 C 0.39215 0.39843 0.74047 0.0
C3620 C 0.3782 0.38854 0.74795 0.0
C3621 C 0.41894 0.41695 0.728 0.0
C3622 C 0.41463 0.41983 0.74308 0.0
C3623 C 0.40118 0.41073 0.74893 0.0
C3624 C 0.42425 0.4318 0.75339 0.0
C3625 C 0.43308 0.42667 0.72085 0.0
C3626 C 0.43604 0.43221 0.76019 0.0
C3627 C 0.44521 0.44345 0.7699 0.0
C3628 C 0.44279 0.45456 0.77301 0.0
C3629 C 0.43081 0.45399 0.76636 0.0
C3630 C 0.4216 0.44268 0.7567 0.0
H3631 H 0.43347 0.42488 0.70753 0.0
H3632 H 0.43598 0.4377 0.72285 0.0
H3633 H 0.44097 0.42489 0.72699 0.0
H3634 H 0.43812 0.42377 0.75807 0.0
H3635 H 0.45412 0.44336 0.77511 0.0
H3636 H 0.64354 0.9991 0.69933 0.0
H3637 H 0.62091 0.99103 0.71258 0.0
H3638 H 0.62959 0.03342 0.7162 0.0
H3639 H 0.65199 0.04151 0.70286 0.0
H3640 H 0.61642 0.9981 0.74366 0.0
H3641 H 0.59043 0.01373 0.69751 0.0
H3642 H 0.60582 0.01267 0.69294 0.0
H3643 H 0.60727 0.02776 0.7031 0.0
C3644 C 0.64053 0.00667 0.70273 0.0
C3645 C 0.64956 0.02095 0.69998 0.0
C3646 C 0.62761 0.00205 0.71032 0.0
C3647 C 0.62347 0.0116 0.71516 0.0
C3648 C 0.63241 0.02582 0.71224 0.0
H3649 H 0.56279 0.01722 0.77405 0.0
H3650 H 0.5821 0.02038 0.75665 0.0
C3651 C 0.64528 0.03044 0.70469 0.0
C3652 C 0.61026 0.00694 0.72423 0.0
H3653 H 0.5807 0.00928 0.72457 0.0
C3654 C 0.60848 1.00032 0.73938 0.0
C3655 C 0.59993 0.00987 0.71862 0.0
C3656 C 0.60087 0.01627 0.70207 0.0
C3657 C 0.59698 0.99716 0.74943 0.0
C3658 C 0.58692 1.00056 0.74406 0.0
C3659 C 0.58847 0.00676 0.72869 0.0
C3660 C 0.57509 0.99841 0.75456 0.0
C3661 C 0.59598 0.99078 0.76601 0.0
C3662 C 0.56467 0.98498 0.75905 0.0
C3663 C 0.55363 0.98314 0.76907 0.0
C3664 C 0.55282 0.9947 0.77479 0.0
C3665 C 0.56322 0.00811 0.7701 0.0
C3666 C 0.57421 0.00993 0.76005 0.0
H3667 H 0.60588 0.99126 0.76958 0.0
H3668 H 0.59319 0.99612 0.77553 0.0
H3669 H 0.58768 0.97968 0.76574 0.0
H3670 H 0.56507 0.97594 0.75476 0.0
H3671 H 0.54583 0.97268 0.77252 0.0
loop_
_geom_bond_atom_site_label_1
_geom_bond_atom_site_label_2
_geom_bond_distance
_geom_bond_site_symmetry_2
_ccdc_geom_bond_type
O0 Cd1 2.223 . S
O0 C8 1.315 . S
Cd1 O0 2.223 . S
Cd1 O4 2.297 . S
Cd1 O5 2.439 . S
Cd1 O11 2.240 1_554 S
Cd2 O3 2.240 . S
Cd2 O10 2.223 1_554 S
Cd2 O12 2.297 1_554 S
Cd2 O13 2.429 1_554 S
O3 Cd2 2.240 . S
O3 C8 1.279 1_655 S
O4 Cd1 2.297 . S
O4 C6 1.247 . S
O5 Cd1 2.439 . S
O5 C6 1.208 . S
C6 O4 1.247 . S
C6 O5 1.208 . S
C7 O12 1.247 . S
C7 O13 1.223 . S
C8 O0 1.315 . S
C8 O3 1.279 1_455 S
C9 O10 1.333 . S
C9 O11 1.262 1_655 S
O10 Cd2 2.223 1_556 S
O10 C9 1.333 . S
O11 Cd1 2.240 1_556 S
O11 C9 1.262 1_455 S
O12 Cd2 2.297 1_556 S
O12 C7 1.247 . S
O13 Cd2 2.429 1_556 S
O13 C7 1.223 . S
O14 Cd15 2.223 . S
O14 C22 1.315 . S
Cd15 O14 2.223 . S
Cd15 O18 2.297 . S
Cd15 O19 2.439 . S
Cd15 O25 2.240 1_554 S
Cd16 O17 2.240 . S
Cd16 O24 2.223 1_554 S
Cd16 O26 2.297 1_554 S
Cd16 O27 2.439 1_554 S
O17 Cd16 2.240 . S
O17 C22 1.279 . S
O18 Cd15 2.297 . S
O18 C20 1.247 . S
O19 Cd15 2.439 . S
O19 C20 1.208 . S
C20 O18 1.247 . S
C20 O19 1.208 . S
C21 O26 1.247 . S
C21 O27 1.208 . S
C22 O14 1.315 . S
C22 O17 1.279 . S
C23 O24 1.315 . S
C23 O25 1.279 . S
O24 Cd16 2.223 1_556 S
O24 C23 1.315 . S
O25 Cd15 2.240 1_556 S
O25 C23 1.279 . S
O26 Cd16 2.297 1_556 S
O26 C21 1.247 . S
O27 Cd16 2.439 1_556 S
O27 C21 1.208 . S
O28 Cd29 2.223 1_556 S
O28 C36 1.315 . S
Cd29 O28 2.223 1_554 S
Cd29 O32 2.297 1_554 S
Cd29 O33 2.434 1_554 S
Cd29 O39 2.240 . S
Cd30 O31 2.240 1_554 S
Cd30 O38 2.223 . S
Cd30 O40 2.297 . S
Cd30 O41 2.439 . S
O31 Cd30 2.240 1_556 S
O31 C36 1.279 1_565 S
O32 Cd29 2.297 1_556 S
O32 C34 1.247 . S
O33 Cd29 2.434 1_556 S
O33 C34 1.215 . S
C34 O32 1.247 . S
C34 O33 1.215 . S
C35 O40 1.247 . S
C35 O41 1.208 . S
C36 O28 1.315 . S
C36 O31 1.279 1_545 S
C37 O38 1.337 . S
C37 O39 1.258 1_565 S
O38 Cd30 2.223 . S
O38 C37 1.337 . S
O39 Cd29 2.240 . S
O39 C37 1.258 1_545 S
O40 Cd30 2.297 . S
O40 C35 1.247 . S
O41 Cd30 2.439 . S
O41 C35 1.208 . S
O42 Cd43 2.223 1_556 S
O42 C50 1.315 . S
Cd43 O42 2.223 1_554 S
Cd43 O46 2.297 1_554 S
Cd43 O47 2.422 1_554 S
Cd43 O53 2.240 . S
Cd44 O45 2.240 1_554 S
Cd44 O52 2.223 . S
Cd44 O54 2.297 . S
Cd44 O55 2.439 . S
O45 Cd44 2.240 1_556 S
O45 C50 1.279 1_455 S
O46 Cd43 2.297 1_556 S
O46 C48 1.247 . S
O47 Cd43 2.422 1_556 S
O47 C48 1.233 . S
C48 O46 1.247 . S
C48 O47 1.233 . S
C49 O54 1.247 . S
C49 O55 1.208 . S
C50 O42 1.315 . S
C50 O45 1.279 1_655 S
C51 O52 1.315 . S
C51 O53 1.279 1_455 S
O52 Cd44 2.223 . S
O52 C51 1.315 . S
O53 Cd43 2.240 . S
O53 C51 1.279 1_655 S
O54 Cd44 2.297 . S
O54 C49 1.247 . S
O55 Cd44 2.439 . S
O55 C49 1.208 . S
O56 Cd57 2.223 1_556 S
O56 C64 1.315 . S
Cd57 O56 2.223 1_554 S
Cd57 O60 2.297 1_554 S
Cd57 O61 2.439 1_554 S
Cd57 O67 2.240 . S
Cd58 O59 2.240 1_554 S
Cd58 O66 2.223 . S
Cd58 O68 2.297 . S
Cd58 O69 2.439 . S
O59 Cd58 2.240 1_556 S
O59 C64 1.279 . S
O60 Cd57 2.297 1_556 S
O60 C62 1.247 . S
O61 Cd57 2.439 1_556 S
O61 C62 1.208 . S
C62 O60 1.247 . S
C62 O61 1.208 . S
C63 O68 1.247 . S
C63 O69 1.208 . S
C64 O56 1.315 . S
C64 O59 1.279 . S
C65 O66 1.315 . S
C65 O67 1.279 . S
O66 Cd58 2.223 . S
O66 C65 1.315 . S
O67 Cd57 2.240 . S
O67 C65 1.279 . S
O68 Cd58 2.297 . S
O68 C63 1.247 . S
O69 Cd58 2.439 . S
O69 C63 1.208 . S
O70 Cd71 2.223 . S
O70 C78 1.315 . S
Cd71 O70 2.223 . S
Cd71 O74 2.297 . S
Cd71 O75 2.439 . S
Cd71 O81 2.240 1_554 S
Cd72 O73 2.240 . S
Cd72 O80 2.223 1_554 S
Cd72 O82 2.297 1_554 S
Cd72 O83 2.441 1_554 S
O73 Cd72 2.240 . S
O73 C78 1.279 1_545 S
O74 Cd71 2.297 . S
O74 C76 1.247 . S
O75 Cd71 2.439 . S
O75 C76 1.208 . S
C76 O74 1.247 . S
C76 O75 1.208 . S
C77 O82 1.247 . S
C77 O83 1.205 . S
C78 O70 1.315 . S
C78 O73 1.279 1_565 S
C79 O80 1.315 . S
C79 O81 1.279 1_545 S
O80 Cd72 2.223 1_556 S
O80 C79 1.315 . S
O81 Cd71 2.240 1_556 S
O81 C79 1.279 1_565 S
O82 Cd72 2.297 1_556 S
O82 C77 1.247 . S
O83 Cd72 2.441 1_556 S
O83 C77 1.205 . S
O84 Cd85 2.223 . S
O84 C92 1.315 . S
Cd85 O84 2.223 . S
Cd85 O88 2.297 . S
Cd85 O89 2.439 . S
Cd85 O95 2.240 . S
Cd86 O87 2.240 . S
Cd86 O94 2.223 . S
Cd86 O96 2.297 . S
Cd86 O97 2.439 . S
O87 Cd86 2.240 . S
O87 C92 1.279 . S
O88 Cd85 2.297 . S
O88 C90 1.247 . S
O89 Cd85 2.439 . S
O89 C90 1.208 . S
C90 O88 1.247 . S
C90 O89 1.208 . S
C91 O96 1.247 . S
C91 O97 1.208 . S
C92 O84 1.315 . S
C92 O87 1.279 . S
C93 O94 1.315 . S
C93 O95 1.279 . S
O94 Cd86 2.223 . S
O94 C93 1.315 . S
O95 Cd85 2.240 . S
O95 C93 1.279 . S
O96 Cd86 2.297 . S
O96 C91 1.247 . S
O97 Cd86 2.439 . S
O97 C91 1.208 . S
O98 Cd99 2.223 . S
O98 C106 1.315 . S
Cd99 O98 2.223 . S
Cd99 O102 2.297 1_565 S
Cd99 O103 2.439 1_565 S
Cd99 O109 2.240 . S
Cd100 O101 2.240 . S
Cd100 O108 2.223 . S
Cd100 O110 2.297 . S
Cd100 O111 2.439 . S
O101 Cd100 2.240 . S
O101 C106 1.279 . S
O102 Cd99 2.297 1_545 S
O102 C104 1.247 . S
O103 Cd99 2.439 1_545 S
O103 C104 1.208 . S
C104 O102 1.247 . S
C104 O103 1.208 . S
C105 O110 1.247 . S
C105 O111 1.208 . S
C106 O98 1.315 . S
C106 O101 1.279 . S
C107 O108 1.315 . S
C107 O109 1.279 . S
O108 Cd100 2.223 . S
O108 C107 1.315 . S
O109 Cd99 2.240 . S
O109 C107 1.279 . S
O110 Cd100 2.297 . S
O110 C105 1.247 . S
O111 Cd100 2.439 . S
O111 C105 1.208 . S
O112 Cd113 2.223 . S
O112 C120 1.315 . S
Cd113 O112 2.223 . S
Cd113 O116 2.297 . S
Cd113 O117 2.439 . S
Cd113 O123 2.240 . S
Cd114 O115 2.240 . S
Cd114 O122 2.223 . S
Cd114 O124 2.297 1_455 S
Cd114 O125 2.439 1_455 S
O115 Cd114 2.240 . S
O115 C120 1.279 . S
O116 Cd113 2.297 . S
O116 C118 1.247 . S
O117 Cd113 2.439 . S
O117 C118 1.208 . S
C118 O116 1.247 . S
C118 O117 1.208 . S
C119 O124 1.247 . S
C119 O125 1.208 . S
C120 O112 1.315 . S
C120 O115 1.279 . S
C121 O122 1.315 . S
C121 O123 1.279 . S
O122 Cd114 2.223 . S
O122 C121 1.315 . S
O123 Cd113 2.240 . S
O123 C121 1.279 . S
O124 Cd114 2.297 1_655 S
O124 C119 1.247 . S
O125 Cd114 2.439 1_655 S
O125 C119 1.208 . S
O126 Cd127 2.223 . S
O126 C134 1.315 . S
Cd127 O126 2.223 . S
Cd127 O130 2.297 . S
Cd127 O131 2.439 . S
Cd127 O137 2.240 . S
Cd128 O129 2.240 . S
Cd128 O136 2.223 . S
Cd128 O138 2.297 1_565 S
Cd128 O139 2.439 1_565 S
O129 Cd128 2.240 . S
O129 C134 1.279 . S
O130 Cd127 2.297 . S
O130 C132 1.247 . S
O131 Cd127 2.439 . S
O131 C132 1.208 . S
C132 O130 1.247 . S
C132 O131 1.208 . S
C133 O138 1.247 . S
C133 O139 1.208 . S
C134 O126 1.315 . S
C134 O129 1.279 . S
C135 O136 1.315 . S
C135 O137 1.279 . S
O136 Cd128 2.223 . S
O136 C135 1.315 . S
O137 Cd127 2.240 . S
O137 C135 1.279 . S
O138 Cd128 2.297 1_545 S
O138 C133 1.247 . S
O139 Cd128 2.439 1_545 S
O139 C133 1.208 . S
O140 Cd141 2.223 . S
O140 C148 1.315 . S
Cd141 O140 2.223 . S
Cd141 O144 2.297 . S
Cd141 O145 2.439 . S
Cd141 O151 2.240 . S
Cd142 O143 2.240 . S
Cd142 O150 2.223 . S
Cd142 O152 2.297 1_455 S
Cd142 O153 2.439 1_455 S
O143 Cd142 2.240 . S
O143 C148 1.279 . S
O144 Cd141 2.297 . S
O144 C146 1.247 . S
O145 Cd141 2.439 . S
O145 C146 1.208 . S
C146 O144 1.247 . S
C146 O145 1.208 . S
C147 O152 1.247 . S
C147 O153 1.208 . S
C148 O140 1.315 . S
C148 O143 1.279 . S
C149 O150 1.315 . S
C149 O151 1.279 . S
O150 Cd142 2.223 . S
O150 C149 1.315 . S
O151 Cd141 2.240 . S
O151 C149 1.279 . S
O152 Cd142 2.297 1_655 S
O152 C147 1.247 . S
O153 Cd142 2.439 1_655 S
O153 C147 1.208 . S
O154 Cd155 2.223 . S
O154 C162 1.315 . S
Cd155 O154 2.223 . S
Cd155 O158 2.297 . S
Cd155 O159 2.439 . S
Cd155 O165 2.240 . S
Cd156 O157 2.240 . S
Cd156 O164 2.223 . S
Cd156 O166 2.297 . S
Cd156 O167 2.439 . S
O157 Cd156 2.240 . S
O157 C162 1.279 . S
O158 Cd155 2.297 . S
O158 C160 1.247 . S
O159 Cd155 2.439 . S
O159 C160 1.208 . S
C160 O158 1.247 . S
C160 O159 1.208 . S
C161 O166 1.247 . S
C161 O167 1.208 . S
C162 O154 1.315 . S
C162 O157 1.279 . S
C163 O164 1.315 . S
C163 O165 1.279 . S
O164 Cd156 2.223 . S
O164 C163 1.315 . S
O165 Cd155 2.240 . S
O165 C163 1.279 . S
O166 Cd156 2.297 . S
O166 C161 1.247 . S
O167 Cd156 2.439 . S
O167 C161 1.208 . S
O168 Cd169 2.223 . S
O168 C176 1.315 . S
Cd169 O168 2.223 . S
Cd169 O172 2.297 . S
Cd169 O173 2.439 . S
Cd169 O179 2.240 . S
Cd170 O171 2.240 . S
Cd170 O178 2.223 . S
Cd170 O180 2.297 1_545 S
Cd170 O181 2.439 1_545 S
O171 Cd170 2.240 . S
O171 C176 1.279 . S
O172 Cd169 2.297 . S
O172 C174 1.247 . S
O173 Cd169 2.439 . S
O173 C174 1.208 . S
C174 O172 1.247 . S
C174 O173 1.208 . S
C175 O180 1.247 . S
C175 O181 1.208 . S
C176 O168 1.315 . S
C176 O171 1.279 . S
C177 O178 1.315 . S
C177 O179 1.279 . S
O178 Cd170 2.223 . S
O178 C177 1.315 . S
O179 Cd169 2.240 . S
O179 C177 1.279 . S
O180 Cd170 2.297 1_565 S
O180 C175 1.247 . S
O181 Cd170 2.439 1_565 S
O181 C175 1.208 . S
O182 Cd183 2.223 . S
O182 C190 1.315 . S
Cd183 O182 2.223 . S
Cd183 O186 2.297 . S
Cd183 O187 2.439 . S
Cd183 O193 2.240 . S
Cd184 O185 2.240 . S
Cd184 O192 2.223 . S
Cd184 O194 2.297 1_655 S
Cd184 O195 2.439 1_655 S
O185 Cd184 2.240 . S
O185 C190 1.279 . S
O186 Cd183 2.297 . S
O186 C188 1.247 . S
O187 Cd183 2.439 . S
O187 C188 1.208 . S
C188 O186 1.247 . S
C188 O187 1.208 . S
C189 O194 1.247 . S
C189 O195 1.208 . S
C190 O182 1.315 . S
C190 O185 1.279 . S
C191 O192 1.315 . S
C191 O193 1.279 . S
O192 Cd184 2.223 . S
O192 C191 1.315 . S
O193 Cd183 2.240 . S
O193 C191 1.279 . S
O194 Cd184 2.297 1_455 S
O194 C189 1.247 . S
O195 Cd184 2.439 1_455 S
O195 C189 1.208 . S
O196 Cd197 2.223 . S
O196 C204 1.315 . S
Cd197 O196 2.223 . S
Cd197 O200 2.297 . S
Cd197 O201 2.439 . S
Cd197 O207 2.240 . S
Cd198 O199 2.240 . S
Cd198 O206 2.223 . S
Cd198 O208 2.297 . S
Cd198 O209 2.439 . S
O199 Cd198 2.240 . S
O199 C204 1.279 . S
O200 Cd197 2.297 . S
O200 C202 1.247 . S
O201 Cd197 2.439 . S
O201 C202 1.208 . S
C202 O200 1.247 . S
C202 O201 1.208 . S
C203 O208 1.247 . S
C203 O209 1.208 . S
C204 O196 1.315 . S
C204 O199 1.279 . S
C205 O206 1.315 . S
C205 O207 1.279 . S
O206 Cd198 2.223 . S
O206 C205 1.315 . S
O207 Cd197 2.240 . S
O207 C205 1.279 . S
O208 Cd198 2.297 . S
O208 C203 1.247 . S
O209 Cd198 2.439 . S
O209 C203 1.208 . S
O210 Cd211 2.223 . S
O210 C218 1.315 . S
Cd211 O210 2.223 . S
Cd211 O214 2.297 . S
Cd211 O215 2.439 . S
Cd211 O221 2.240 . S
Cd212 O213 2.240 . S
Cd212 O220 2.223 . S
Cd212 O222 2.297 . S
Cd212 O223 2.439 . S
O213 Cd212 2.240 . S
O213 C218 1.279 . S
O214 Cd211 2.297 . S
O214 C216 1.247 . S
O215 Cd211 2.439 . S
O215 C216 1.208 . S
C216 O214 1.247 . S
C216 O215 1.208 . S
C217 O222 1.247 . S
C217 O223 1.208 . S
C218 O210 1.315 . S
C218 O213 1.279 . S
C219 O220 1.315 . S
C219 O221 1.279 . S
O220 Cd212 2.223 . S
O220 C219 1.315 . S
O221 Cd211 2.240 . S
O221 C219 1.279 . S
O222 Cd212 2.297 . S
O222 C217 1.247 . S
O223 Cd212 2.439 . S
O223 C217 1.208 . S
O224 Cd225 2.223 . S
O224 C232 1.315 . S
Cd225 O224 2.223 . S
Cd225 O228 2.297 1_545 S
Cd225 O229 2.439 1_545 S
Cd225 O235 2.240 . S
Cd226 O227 2.240 . S
Cd226 O234 2.223 . S
Cd226 O236 2.297 . S
Cd226 O237 2.439 . S
O227 Cd226 2.240 . S
O227 C232 1.279 . S
O228 Cd225 2.297 1_565 S
O228 C230 1.247 . S
O229 Cd225 2.439 1_565 S
O229 C230 1.208 . S
C230 O228 1.247 . S
C230 O229 1.208 . S
C231 O236 1.247 . S
C231 O237 1.208 . S
C232 O224 1.315 . S
C232 O227 1.279 . S
C233 O234 1.315 . S
C233 O235 1.279 . S
O234 Cd226 2.223 . S
O234 C233 1.315 . S
O235 Cd225 2.240 . S
O235 C233 1.279 . S
O236 Cd226 2.297 . S
O236 C231 1.247 . S
O237 Cd226 2.439 . S
O237 C231 1.208 . S
O238 Cd239 2.223 . S
O238 C246 1.315 . S
Cd239 O238 2.223 . S
Cd239 O242 2.297 . S
Cd239 O243 2.439 . S
Cd239 O249 2.240 . S
Cd240 O241 2.240 . S
Cd240 O248 2.223 . S
Cd240 O250 2.297 1_655 S
Cd240 O251 2.439 1_655 S
O241 Cd240 2.240 . S
O241 C246 1.279 . S
O242 Cd239 2.297 . S
O242 C244 1.247 . S
O243 Cd239 2.439 . S
O243 C244 1.208 . S
C244 O242 1.247 . S
C244 O243 1.208 . S
C245 O250 1.247 . S
C245 O251 1.208 . S
C246 O238 1.315 . S
C246 O241 1.279 . S
C247 O248 1.315 . S
C247 O249 1.279 . S
O248 Cd240 2.223 . S
O248 C247 1.315 . S
O249 Cd239 2.240 . S
O249 C247 1.279 . S
O250 Cd240 2.297 1_455 S
O250 C245 1.247 . S
O251 Cd240 2.439 1_455 S
O251 C245 1.208 . S
C252 C253 1.384 . S
C252 C254 1.384 . S
C252 H280 0.931 . S
C253 C252 1.384 . S
C253 C256 1.382 . S
C254 C252 1.384 . S
C254 C255 1.381 . S
C254 H281 0.930 . S
C255 C254 1.381 . S
C255 C257 1.381 . S
C255 C258 1.487 . S
C256 C253 1.382 . S
C256 C257 1.387 . S
C256 H282 0.930 . S
C257 C255 1.381 . S
C257 C256 1.387 . S
C257 H283 0.931 . S
C258 C255 1.487 . S
C258 C265 1.399 . S
C258 N296 1.343 . S
C259 C260 1.384 . S
C259 C261 1.384 . S
C259 H284 0.931 . S
C260 C259 1.384 . S
C260 C263 1.382 . S
C261 C259 1.384 . S
C261 C262 1.381 . S
C261 H285 0.930 . S
C262 C261 1.381 . S
C262 C264 1.381 . S
C262 C265 1.487 . S
C263 C260 1.382 . S
C263 C264 1.387 . S
C263 H286 0.930 . S
C264 C262 1.381 . S
C264 C263 1.387 . S
C264 H287 0.931 . S
C265 C258 1.399 . S
C265 C262 1.487 . S
C265 N297 1.343 . S
C266 C267 1.384 . S
C266 C268 1.384 . S
C266 H288 0.931 . S
C267 C266 1.384 . S
C267 C270 1.382 . S
C268 C266 1.384 . S
C268 C269 1.381 . S
C268 H289 0.930 . S
C269 C268 1.381 . S
C269 C271 1.381 . S
C269 C272 1.487 . S
C270 C267 1.382 . S
C270 C271 1.387 . S
C270 H290 0.930 . S
C271 C269 1.381 . S
C271 C270 1.387 . S
C271 H291 0.931 . S
C272 C269 1.487 . S
C272 C279 1.399 . S
C272 N297 1.343 . S
C273 C274 1.384 . S
C273 C275 1.384 . S
C273 H292 0.931 . S
C274 C273 1.384 . S
C274 C277 1.382 . S
C275 C273 1.384 . S
C275 C276 1.381 . S
C275 H293 0.930 . S
C276 C275 1.381 . S
C276 C278 1.381 . S
C276 C279 1.487 . S
C277 C274 1.382 . S
C277 C278 1.387 . S
C277 H294 0.930 . S
C278 C276 1.381 . S
C278 C277 1.387 . S
C278 H295 0.931 . S
C279 C272 1.399 . S
C279 C276 1.487 . S
C279 N296 1.343 . S
H280 C252 0.931 . S
H281 C254 0.930 . S
H282 C256 0.930 . S
H283 C257 0.931 . S
H284 C259 0.931 . S
H285 C261 0.930 . S
H286 C263 0.930 . S
H287 C264 0.931 . S
H288 C266 0.931 . S
H289 C268 0.930 . S
H290 C270 0.930 . S
H291 C271 0.931 . S
H292 C273 0.931 . S
H293 C275 0.930 . S
H294 C277 0.930 . S
H295 C278 0.931 . S
N296 C258 1.343 . S
N296 C279 1.343 . S
N297 C265 1.343 . S
N297 C272 1.343 . S
C298 C299 1.384 . S
C298 C300 1.384 . S
C298 H326 0.931 . S
C299 C298 1.384 . S
C299 C302 1.382 . S
C300 C298 1.384 . S
C300 C301 1.381 . S
C300 H327 0.930 . S
C301 C300 1.381 . S
C301 C303 1.381 . S
C301 C304 1.487 . S
C302 C299 1.382 . S
C302 C303 1.387 . S
C302 H328 0.930 . S
C303 C301 1.381 . S
C303 C302 1.387 . S
C303 H329 0.931 . S
C304 C301 1.487 . S
C304 C311 1.399 . S
C304 N342 1.343 . S
C305 C306 1.384 . S
C305 C307 1.384 . S
C305 H330 0.931 . S
C306 C305 1.384 . S
C306 C309 1.382 . S
C307 C305 1.384 . S
C307 C308 1.381 . S
C307 H331 0.930 . S
C308 C307 1.381 . S
C308 C310 1.381 . S
C308 C311 1.487 . S
C309 C306 1.382 . S
C309 C310 1.387 . S
C309 H332 0.930 . S
C310 C308 1.381 . S
C310 C309 1.387 . S
C310 H333 0.931 . S
C311 C304 1.399 . S
C311 C308 1.487 . S
C311 N343 1.343 . S
C312 C313 1.384 . S
C312 C314 1.384 . S
C312 H334 0.931 . S
C313 C312 1.384 . S
C313 C316 1.382 . S
C314 C312 1.384 . S
C314 C315 1.381 . S
C314 H335 0.930 . S
C315 C314 1.381 . S
C315 C317 1.381 . S
C315 C318 1.487 . S
C316 C313 1.382 . S
C316 C317 1.387 . S
C316 H336 0.930 . S
C317 C315 1.381 . S
C317 C316 1.387 . S
C317 H337 0.931 . S
C318 C315 1.487 . S
C318 C325 1.399 . S
C318 N343 1.343 . S
C319 C320 1.384 . S
C319 C321 1.384 . S
C319 H338 0.931 . S
C320 C319 1.384 . S
C320 C323 1.382 . S
C321 C319 1.384 . S
C321 C322 1.381 . S
C321 H339 0.930 . S
C322 C321 1.381 . S
C322 C324 1.381 . S
C322 C325 1.487 . S
C323 C320 1.382 . S
C323 C324 1.387 . S
C323 H340 0.930 . S
C324 C322 1.381 . S
C324 C323 1.387 . S
C324 H341 0.931 . S
C325 C318 1.399 . S
C325 C322 1.487 . S
C325 N342 1.343 . S
H326 C298 0.931 . S
H327 C300 0.930 . S
H328 C302 0.930 . S
H329 C303 0.931 . S
H330 C305 0.931 . S
H331 C307 0.930 . S
H332 C309 0.930 . S
H333 C310 0.931 . S
H334 C312 0.931 . S
H335 C314 0.930 . S
H336 C316 0.930 . S
H337 C317 0.931 . S
H338 C319 0.931 . S
H339 C321 0.930 . S
H340 C323 0.930 . S
H341 C324 0.931 . S
N342 C304 1.343 . S
N342 C325 1.343 . S
N343 C311 1.343 . S
N343 C318 1.343 . S
C344 C345 1.384 . S
C344 C346 1.384 . S
C344 H372 0.931 . S
C345 C344 1.384 . S
C345 C348 1.382 . S
C346 C344 1.384 . S
C346 C347 1.381 . S
C346 H373 0.930 . S
C347 C346 1.381 . S
C347 C349 1.381 . S
C347 C350 1.487 . S
C348 C345 1.382 . S
C348 C349 1.387 . S
C348 H374 0.930 . S
C349 C347 1.381 . S
C349 C348 1.387 . S
C349 H375 0.931 . S
C350 C347 1.487 . S
C350 C357 1.399 . S
C350 N388 1.343 . S
C351 C352 1.384 . S
C351 C353 1.384 . S
C351 H376 0.931 . S
C352 C351 1.384 . S
C352 C355 1.382 . S
C353 C351 1.384 . S
C353 C354 1.381 . S
C353 H377 0.930 . S
C354 C353 1.381 . S
C354 C356 1.381 . S
C354 C357 1.487 . S
C355 C352 1.382 . S
C355 C356 1.387 . S
C355 H378 0.930 . S
C356 C354 1.381 . S
C356 C355 1.387 . S
C356 H379 0.931 . S
C357 C350 1.399 . S
C357 C354 1.487 . S
C357 N389 1.343 . S
C358 C359 1.384 . S
C358 C360 1.384 . S
C358 H380 0.931 . S
C359 C358 1.384 . S
C359 C362 1.382 . S
C360 C358 1.384 . S
C360 C361 1.381 . S
C360 H381 0.930 . S
C361 C360 1.381 . S
C361 C363 1.381 . S
C361 C364 1.487 . S
C362 C359 1.382 . S
C362 C363 1.387 . S
C362 H382 0.930 . S
C363 C361 1.381 . S
C363 C362 1.387 . S
C363 H383 0.931 . S
C364 C361 1.487 . S
C364 C371 1.399 . S
C364 N389 1.343 . S
C365 C366 1.384 . S
C365 C367 1.384 . S
C365 H384 0.931 . S
C366 C365 1.384 . S
C366 C369 1.382 . S
C367 C365 1.384 . S
C367 C368 1.381 . S
C367 H385 0.930 . S
C368 C367 1.381 . S
C368 C370 1.381 . S
C368 C371 1.487 . S
C369 C366 1.382 . S
C369 C370 1.387 . S
C369 H386 0.930 . S
C370 C368 1.381 . S
C370 C369 1.387 . S
C370 H387 0.931 . S
C371 C364 1.399 . S
C371 C368 1.487 . S
C371 N388 1.343 . S
H372 C344 0.931 . S
H373 C346 0.930 . S
H374 C348 0.930 . S
H375 C349 0.931 . S
H376 C351 0.931 . S
H377 C353 0.930 . S
H378 C355 0.930 . S
H379 C356 0.931 . S
H380 C358 0.931 . S
H381 C360 0.930 . S
H382 C362 0.930 . S
H383 C363 0.931 . S
H384 C365 0.931 . S
H385 C367 0.930 . S
H386 C369 0.930 . S
H387 C370 0.931 . S
N388 C350 1.343 . S
N388 C371 1.343 . S
N389 C357 1.343 . S
N389 C364 1.343 . S
C390 C391 1.384 . S
C390 C392 1.384 . S
C390 H418 0.931 . S
C391 C390 1.384 . S
C391 C394 1.382 . S
C392 C390 1.384 . S
C392 C393 1.381 . S
C392 H419 0.930 . S
C393 C392 1.381 . S
C393 C395 1.381 . S
C393 C396 1.487 . S
C394 C391 1.382 . S
C394 C395 1.387 . S
C394 H420 0.930 . S
C395 C393 1.381 . S
C395 C394 1.387 . S
C395 H421 0.931 . S
C396 C393 1.487 . S
C396 C403 1.399 . S
C396 N434 1.343 . S
C397 C398 1.384 . S
C397 C399 1.384 . S
C397 H422 0.931 . S
C398 C397 1.384 . S
C398 C401 1.382 . S
C399 C397 1.384 . S
C399 C400 1.381 . S
C399 H423 0.930 . S
C400 C399 1.381 . S
C400 C402 1.381 . S
C400 C403 1.487 . S
C401 C398 1.382 . S
C401 C402 1.387 . S
C401 H424 0.930 . S
C402 C400 1.381 . S
C402 C401 1.387 . S
C402 H425 0.931 . S
C403 C396 1.399 . S
C403 C400 1.487 . S
C403 N435 1.343 . S
C404 C405 1.384 . S
C404 C406 1.384 . S
C404 H426 0.931 . S
C405 C404 1.384 . S
C405 C408 1.382 . S
C406 C404 1.384 . S
C406 C407 1.381 . S
C406 H427 0.930 . S
C407 C406 1.381 . S
C407 C409 1.381 . S
C407 C410 1.487 . S
C408 C405 1.382 . S
C408 C409 1.387 . S
C408 H428 0.930 . S
C409 C407 1.381 . S
C409 C408 1.387 . S
C409 H429 0.931 . S
C410 C407 1.487 . S
C410 C417 1.399 . S
C410 N435 1.343 . S
C411 C412 1.384 . S
C411 C413 1.384 . S
C411 H430 0.931 . S
C412 C411 1.384 . S
C412 C415 1.382 . S
C413 C411 1.384 . S
C413 C414 1.381 . S
C413 H431 0.930 . S
C414 C413 1.381 . S
C414 C416 1.381 . S
C414 C417 1.487 . S
C415 C412 1.382 . S
C415 C416 1.387 . S
C415 H432 0.930 . S
C416 C414 1.381 . S
C416 C415 1.387 . S
C416 H433 0.931 . S
C417 C410 1.399 . S
C417 C414 1.487 . S
C417 N434 1.343 . S
H418 C390 0.931 . S
H419 C392 0.930 . S
H420 C394 0.930 . S
H421 C395 0.931 . S
H422 C397 0.931 . S
H423 C399 0.930 . S
H424 C401 0.930 . S
H425 C402 0.931 . S
H426 C404 0.931 . S
H427 C406 0.930 . S
H428 C408 0.930 . S
H429 C409 0.931 . S
H430 C411 0.931 . S
H431 C413 0.930 . S
H432 C415 0.930 . S
H433 C416 0.931 . S
N434 C396 1.343 . S
N434 C417 1.343 . S
N435 C403 1.343 . S
N435 C410 1.343 . S
C436 C437 1.384 . S
C436 C438 1.384 . S
C436 H464 0.931 . S
C437 C436 1.384 . S
C437 C440 1.382 . S
C438 C436 1.384 . S
C438 C439 1.381 . S
C438 H465 0.930 . S
C439 C438 1.381 . S
C439 C441 1.381 . S
C439 C442 1.487 . S
C440 C437 1.382 . S
C440 C441 1.387 . S
C440 H466 0.930 . S
C441 C439 1.381 . S
C441 C440 1.387 . S
C441 H467 0.931 . S
C442 C439 1.487 . S
C442 C449 1.399 . S
C442 N480 1.343 . S
C443 C444 1.384 . S
C443 C445 1.384 . S
C443 H468 0.931 . S
C444 C443 1.384 . S
C444 C447 1.382 . S
C445 C443 1.384 . S
C445 C446 1.381 . S
C445 H469 0.930 . S
C446 C445 1.381 . S
C446 C448 1.381 . S
C446 C449 1.487 . S
C447 C444 1.382 . S
C447 C448 1.387 . S
C447 H470 0.930 . S
C448 C446 1.381 . S
C448 C447 1.387 . S
C448 H471 0.931 . S
C449 C442 1.399 . S
C449 C446 1.487 . S
C449 N481 1.343 . S
C450 C451 1.384 . S
C450 C452 1.384 . S
C450 H472 0.931 . S
C451 C450 1.384 . S
C451 C454 1.382 . S
C452 C450 1.384 . S
C452 C453 1.381 . S
C452 H473 0.930 . S
C453 C452 1.381 . S
C453 C455 1.381 . S
C453 C456 1.487 . S
C454 C451 1.382 . S
C454 C455 1.387 . S
C454 H474 0.930 . S
C455 C453 1.381 . S
C455 C454 1.387 . S
C455 H475 0.931 . S
C456 C453 1.487 . S
C456 C463 1.399 . S
C456 N481 1.343 . S
C457 C458 1.384 . S
C457 C459 1.384 . S
C457 H476 0.931 . S
C458 C457 1.384 . S
C458 C461 1.382 . S
C459 C457 1.384 . S
C459 C460 1.381 . S
C459 H477 0.930 . S
C460 C459 1.381 . S
C460 C462 1.381 . S
C460 C463 1.487 . S
C461 C458 1.382 . S
C461 C462 1.387 . S
C461 H478 0.930 . S
C462 C460 1.381 . S
C462 C461 1.387 . S
C462 H479 0.931 . S
C463 C456 1.399 . S
C463 C460 1.487 . S
C463 N480 1.343 . S
H464 C436 0.931 . S
H465 C438 0.930 . S
H466 C440 0.930 . S
H467 C441 0.931 . S
H468 C443 0.931 . S
H469 C445 0.930 . S
H470 C447 0.930 . S
H471 C448 0.931 . S
H472 C450 0.931 . S
H473 C452 0.930 . S
H474 C454 0.930 . S
H475 C455 0.931 . S
H476 C457 0.931 . S
H477 C459 0.930 . S
H478 C461 0.930 . S
H479 C462 0.931 . S
N480 C442 1.343 . S
N480 C463 1.343 . S
N481 C449 1.343 . S
N481 C456 1.343 . S
C482 C483 1.384 . S
C482 C484 1.384 . S
C482 H510 0.931 . S
C483 C482 1.384 . S
C483 C486 1.382 . S
C484 C482 1.384 . S
C484 C485 1.381 . S
C484 H511 0.930 . S
C485 C484 1.381 . S
C485 C487 1.381 . S
C485 C488 1.487 . S
C486 C483 1.382 . S
C486 C487 1.387 . S
C486 H512 0.930 . S
C487 C485 1.381 . S
C487 C486 1.387 . S
C487 H513 0.931 . S
C488 C485 1.487 . S
C488 C495 1.399 . S
C488 N526 1.343 . S
C489 C490 1.384 . S
C489 C491 1.384 . S
C489 H514 0.931 . S
C490 C489 1.384 . S
C490 C493 1.382 . S
C491 C489 1.384 . S
C491 C492 1.381 . S
C491 H515 0.930 . S
C492 C491 1.381 . S
C492 C494 1.381 . S
C492 C495 1.487 . S
C493 C490 1.382 . S
C493 C494 1.387 . S
C493 H516 0.930 . S
C494 C492 1.381 . S
C494 C493 1.387 . S
C494 H517 0.931 . S
C495 C488 1.399 . S
C495 C492 1.487 . S
C495 N527 1.343 . S
C496 C497 1.384 . S
C496 C498 1.384 . S
C496 H518 0.931 . S
C497 C496 1.384 . S
C497 C500 1.382 . S
C498 C496 1.384 . S
C498 C499 1.381 . S
C498 H519 0.930 . S
C499 C498 1.381 . S
C499 C501 1.381 . S
C499 C502 1.487 . S
C500 C497 1.382 . S
C500 C501 1.387 . S
C500 H520 0.930 . S
C501 C499 1.381 . S
C501 C500 1.387 . S
C501 H521 0.931 . S
C502 C499 1.487 . S
C502 C509 1.399 . S
C502 N527 1.343 . S
C503 C504 1.384 . S
C503 C505 1.384 . S
C503 H522 0.931 . S
C504 C503 1.384 . S
C504 C507 1.382 . S
C505 C503 1.384 . S
C505 C506 1.381 . S
C505 H523 0.930 . S
C506 C505 1.381 . S
C506 C508 1.381 . S
C506 C509 1.487 . S
C507 C504 1.382 . S
C507 C508 1.387 . S
C507 H524 0.930 . S
C508 C506 1.381 . S
C508 C507 1.387 . S
C508 H525 0.931 . S
C509 C502 1.399 . S
C509 C506 1.487 . S
C509 N526 1.343 . S
H510 C482 0.931 . S
H511 C484 0.930 . S
H512 C486 0.930 . S
H513 C487 0.931 . S
H514 C489 0.931 . S
H515 C491 0.930 . S
H516 C493 0.930 . S
H517 C494 0.931 . S
H518 C496 0.931 . S
H519 C498 0.930 . S
H520 C500 0.930 . S
H521 C501 0.931 . S
H522 C503 0.931 . S
H523 C505 0.930 . S
H524 C507 0.930 . S
H525 C508 0.931 . S
N526 C488 1.343 . S
N526 C509 1.343 . S
N527 C495 1.343 . S
N527 C502 1.343 . S
C528 C529 1.384 . S
C528 C530 1.384 . S
C528 H556 0.931 . S
C529 C528 1.384 . S
C529 C532 1.382 . S
C530 C528 1.384 . S
C530 C531 1.381 . S
C530 H557 0.930 . S
C531 C530 1.381 . S
C531 C533 1.381 . S
C531 C534 1.487 . S
C532 C529 1.382 . S
C532 C533 1.387 . S
C532 H558 0.930 . S
C533 C531 1.381 . S
C533 C532 1.387 . S
C533 H559 0.931 . S
C534 C531 1.487 . S
C534 C541 1.399 . S
C534 N572 1.343 . S
C535 C536 1.384 . S
C535 C537 1.384 . S
C535 H560 0.931 . S
C536 C535 1.384 . S
C536 C539 1.382 . S
C537 C535 1.384 . S
C537 C538 1.381 . S
C537 H561 0.930 . S
C538 C537 1.381 . S
C538 C540 1.381 . S
C538 C541 1.487 . S
C539 C536 1.382 . S
C539 C540 1.387 . S
C539 H562 0.930 . S
C540 C538 1.381 . S
C540 C539 1.387 . S
C540 H563 0.931 . S
C541 C534 1.399 . S
C541 C538 1.487 . S
C541 N573 1.343 . S
C542 C543 1.384 . S
C542 C544 1.384 . S
C542 H564 0.931 . S
C543 C542 1.384 . S
C543 C546 1.382 . S
C544 C542 1.384 . S
C544 C545 1.381 . S
C544 H565 0.930 . S
C545 C544 1.381 . S
C545 C547 1.381 . S
C545 C548 1.487 . S
C546 C543 1.382 . S
C546 C547 1.387 . S
C546 H566 0.930 . S
C547 C545 1.381 . S
C547 C546 1.387 . S
C547 H567 0.931 . S
C548 C545 1.487 . S
C548 C555 1.399 . S
C548 N573 1.343 . S
C549 C550 1.384 . S
C549 C551 1.384 . S
C549 H568 0.931 . S
C550 C549 1.384 . S
C550 C553 1.382 . S
C551 C549 1.384 . S
C551 C552 1.381 . S
C551 H569 0.930 . S
C552 C551 1.381 . S
C552 C554 1.381 . S
C552 C555 1.487 . S
C553 C550 1.382 . S
C553 C554 1.387 . S
C553 H570 0.930 . S
C554 C552 1.381 . S
C554 C553 1.387 . S
C554 H571 0.931 . S
C555 C548 1.399 . S
C555 C552 1.487 . S
C555 N572 1.343 . S
H556 C528 0.931 . S
H557 C530 0.930 . S
H558 C532 0.930 . S
H559 C533 0.931 . S
H560 C535 0.931 . S
H561 C537 0.930 . S
H562 C539 0.930 . S
H563 C540 0.931 . S
H564 C542 0.931 . S
H565 C544 0.930 . S
H566 C546 0.930 . S
H567 C547 0.931 . S
H568 C549 0.931 . S
H569 C551 0.930 . S
H570 C553 0.930 . S
H571 C554 0.931 . S
N572 C534 1.343 . S
N572 C555 1.343 . S
N573 C541 1.343 . S
N573 C548 1.343 . S
C574 C575 1.384 . S
C574 C576 1.384 . S
C574 H602 0.931 . S
C575 C574 1.384 . S
C575 C578 1.382 . S
C576 C574 1.384 . S
C576 C577 1.381 . S
C576 H603 0.930 . S
C577 C576 1.381 . S
C577 C579 1.381 . S
C577 C580 1.487 . S
C578 C575 1.382 . S
C578 C579 1.387 . S
C578 H604 0.930 . S
C579 C577 1.381 . S
C579 C578 1.387 . S
C579 H605 0.931 . S
C580 C577 1.487 . S
C580 C587 1.399 . S
C580 N618 1.343 . S
C581 C582 1.384 . S
C581 C583 1.384 . S
C581 H606 0.931 . S
C582 C581 1.384 . S
C582 C585 1.382 . S
C583 C581 1.384 . S
C583 C584 1.381 . S
C583 H607 0.930 . S
C584 C583 1.381 . S
C584 C586 1.381 . S
C584 C587 1.487 . S
C585 C582 1.382 . S
C585 C586 1.387 . S
C585 H608 0.930 . S
C586 C584 1.381 . S
C586 C585 1.387 . S
C586 H609 0.931 . S
C587 C580 1.399 . S
C587 C584 1.487 . S
C587 N619 1.343 . S
C588 C589 1.384 . S
C588 C590 1.384 . S
C588 H610 0.931 . S
C589 C588 1.384 . S
C589 C592 1.382 . S
C590 C588 1.384 . S
C590 C591 1.381 . S
C590 H611 0.930 . S
C591 C590 1.381 . S
C591 C593 1.381 . S
C591 C594 1.487 . S
C592 C589 1.382 . S
C592 C593 1.387 . S
C592 H612 0.930 . S
C593 C591 1.381 . S
C593 C592 1.387 . S
C593 H613 0.931 . S
C594 C591 1.487 . S
C594 C601 1.399 . S
C594 N619 1.343 . S
C595 C596 1.384 . S
C595 C597 1.384 . S
C595 H614 0.931 . S
C596 C595 1.384 . S
C596 C599 1.382 . S
C597 C595 1.384 . S
C597 C598 1.381 . S
C597 H615 0.930 . S
C598 C597 1.381 . S
C598 C600 1.381 . S
C598 C601 1.487 . S
C599 C596 1.382 . S
C599 C600 1.387 . S
C599 H616 0.930 . S
C600 C598 1.381 . S
C600 C599 1.387 . S
C600 H617 0.931 . S
C601 C594 1.399 . S
C601 C598 1.487 . S
C601 N618 1.343 . S
H602 C574 0.931 . S
H603 C576 0.930 . S
H604 C578 0.930 . S
H605 C579 0.931 . S
H606 C581 0.931 . S
H607 C583 0.930 . S
H608 C585 0.930 . S
H609 C586 0.931 . S
H610 C588 0.931 . S
H611 C590 0.930 . S
H612 C592 0.930 . S
H613 C593 0.931 . S
H614 C595 0.931 . S
H615 C597 0.930 . S
H616 C599 0.930 . S
H617 C600 0.931 . S
N618 C580 1.343 . S
N618 C601 1.343 . S
N619 C587 1.343 . S
N619 C594 1.343 . S
C620 C621 1.384 . S
C620 C622 1.384 . S
C620 H648 0.931 . S
C621 C620 1.384 . S
C621 C624 1.382 . S
C622 C620 1.384 . S
C622 C623 1.381 . S
C622 H649 0.930 . S
C623 C622 1.381 . S
C623 C625 1.381 . S
C623 C626 1.487 . S
C624 C621 1.382 . S
C624 C625 1.387 . S
C624 H650 0.930 . S
C625 C623 1.381 . S
C625 C624 1.387 . S
C625 H651 0.931 . S
C626 C623 1.487 . S
C626 C633 1.399 . S
C626 N664 1.343 . S
C627 C628 1.384 . S
C627 C629 1.384 . S
C627 H652 0.931 . S
C628 C627 1.384 . S
C628 C631 1.382 . S
C629 C627 1.384 . S
C629 C630 1.381 . S
C629 H653 0.930 . S
C630 C629 1.381 . S
C630 C632 1.381 . S
C630 C633 1.487 . S
C631 C628 1.382 . S
C631 C632 1.387 . S
C631 H654 0.930 . S
C632 C630 1.381 . S
C632 C631 1.387 . S
C632 H655 0.931 . S
C633 C626 1.399 . S
C633 C630 1.487 . S
C633 N665 1.343 . S
C634 C635 1.384 . S
C634 C636 1.384 . S
C634 H656 0.931 . S
C635 C634 1.384 . S
C635 C638 1.382 . S
C636 C634 1.384 . S
C636 C637 1.381 . S
C636 H657 0.930 . S
C637 C636 1.381 . S
C637 C639 1.381 . S
C637 C640 1.487 . S
C638 C635 1.382 . S
C638 C639 1.387 . S
C638 H658 0.930 . S
C639 C637 1.381 . S
C639 C638 1.387 . S
C639 H659 0.931 . S
C640 C637 1.487 . S
C640 C647 1.399 . S
C640 N665 1.343 . S
C641 C642 1.384 . S
C641 C643 1.384 . S
C641 H660 0.931 . S
C642 C641 1.384 . S
C642 C645 1.382 . S
C643 C641 1.384 . S
C643 C644 1.381 . S
C643 H661 0.930 . S
C644 C643 1.381 . S
C644 C646 1.381 . S
C644 C647 1.487 . S
C645 C642 1.382 . S
C645 C646 1.387 . S
C645 H662 0.930 . S
C646 C644 1.381 . S
C646 C645 1.387 . S
C646 H663 0.931 . S
C647 C640 1.399 . S
C647 C644 1.487 . S
C647 N664 1.343 . S
H648 C620 0.931 . S
H649 C622 0.930 . S
H650 C624 0.930 . S
H651 C625 0.931 . S
H652 C627 0.931 . S
H653 C629 0.930 . S
H654 C631 0.930 . S
H655 C632 0.931 . S
H656 C634 0.931 . S
H657 C636 0.930 . S
H658 C638 0.930 . S
H659 C639 0.931 . S
H660 C641 0.931 . S
H661 C643 0.930 . S
H662 C645 0.930 . S
H663 C646 0.931 . S
N664 C626 1.343 . S
N664 C647 1.343 . S
N665 C633 1.343 . S
N665 C640 1.343 . S
C666 C667 1.384 . S
C666 C668 1.384 . S
C666 H694 0.931 . S
C667 C666 1.384 . S
C667 C670 1.382 1_655 S
C668 C666 1.384 . S
C668 C669 1.385 1_655 S
C668 H695 0.930 . S
C669 C668 1.385 1_455 S
C669 C671 1.379 . S
C669 C672 1.475 . S
C670 C667 1.382 1_455 S
C670 C671 1.387 . S
C670 H696 0.930 . S
C671 C669 1.379 . S
C671 C670 1.387 . S
C671 H697 0.931 . S
C672 C669 1.475 . S
C672 C679 1.398 1_455 S
C672 N710 1.314 . S
C673 C674 1.384 . S
C673 C675 1.384 . S
C673 H698 0.931 . S
C674 C673 1.384 . S
C674 C677 1.382 1_455 S
C675 C673 1.384 . S
C675 C676 1.380 . S
C675 H699 0.930 . S
C676 C675 1.380 . S
C676 C678 1.385 1_455 S
C676 C679 1.488 1_455 S
C677 C674 1.382 1_655 S
C677 C678 1.387 . S
C677 H700 0.930 . S
C678 C676 1.385 1_655 S
C678 C677 1.387 . S
C678 H701 0.931 . S
C679 C672 1.398 1_655 S
C679 C676 1.488 1_655 S
C679 N711 1.368 . S
C680 C681 1.384 . S
C680 C682 1.384 . S
C680 H702 0.931 . S
C681 C680 1.384 . S
C681 C684 1.382 1_455 S
C682 C680 1.384 . S
C682 C683 1.385 . S
C682 H703 0.930 . S
C683 C682 1.385 . S
C683 C685 1.379 1_455 S
C683 C686 1.484 1_455 S
C684 C681 1.382 1_655 S
C684 C685 1.387 . S
C684 H704 0.930 . S
C685 C683 1.379 1_655 S
C685 C684 1.387 . S
C685 H705 0.931 . S
C686 C683 1.484 1_655 S
C686 C693 1.398 1_655 S
C686 N711 1.314 . S
C687 C688 1.384 . S
C687 C689 1.384 . S
C687 H706 0.931 . S
C688 C687 1.384 . S
C688 C691 1.382 1_655 S
C689 C687 1.384 . S
C689 C690 1.380 1_655 S
C689 H707 0.930 . S
C690 C689 1.380 1_455 S
C690 C692 1.385 . S
C690 C693 1.497 . S
C691 C688 1.382 1_455 S
C691 C692 1.387 . S
C691 H708 0.930 . S
C692 C690 1.385 . S
C692 C691 1.387 . S
C692 H709 0.931 . S
C693 C686 1.398 1_455 S
C693 C690 1.497 . S
C693 N710 1.368 . S
H694 C666 0.931 . S
H695 C668 0.930 . S
H696 C670 0.930 . S
H697 C671 0.931 . S
H698 C673 0.931 . S
H699 C675 0.930 . S
H700 C677 0.930 . S
H701 C678 0.931 . S
H702 C680 0.931 . S
H703 C682 0.930 . S
H704 C684 0.930 . S
H705 C685 0.931 . S
H706 C687 0.931 . S
H707 C689 0.930 . S
H708 C691 0.930 . S
H709 C692 0.931 . S
N710 C672 1.314 . S
N710 C693 1.368 . S
N711 C679 1.368 . S
N711 C686 1.314 . S
C712 C713 1.384 . S
C712 C714 1.384 . S
C712 H740 0.931 . S
C713 C712 1.384 . S
C713 C716 1.382 . S
C714 C712 1.384 . S
C714 C715 1.381 . S
C714 H741 0.930 . S
C715 C714 1.381 . S
C715 C717 1.381 . S
C715 C718 1.487 . S
C716 C713 1.382 . S
C716 C717 1.387 . S
C716 H742 0.930 . S
C717 C715 1.381 . S
C717 C716 1.387 . S
C717 H743 0.931 . S
C718 C715 1.487 . S
C718 C725 1.399 . S
C718 N756 1.343 . S
C719 C720 1.384 . S
C719 C721 1.384 . S
C719 H744 0.931 . S
C720 C719 1.384 . S
C720 C723 1.382 . S
C721 C719 1.384 . S
C721 C722 1.381 . S
C721 H745 0.930 . S
C722 C721 1.381 . S
C722 C724 1.381 . S
C722 C725 1.487 . S
C723 C720 1.382 . S
C723 C724 1.387 . S
C723 H746 0.930 . S
C724 C722 1.381 . S
C724 C723 1.387 . S
C724 H747 0.931 . S
C725 C718 1.399 . S
C725 C722 1.487 . S
C725 N757 1.343 . S
C726 C727 1.384 . S
C726 C728 1.384 . S
C726 H748 0.931 . S
C727 C726 1.384 . S
C727 C730 1.382 . S
C728 C726 1.384 . S
C728 C729 1.381 . S
C728 H749 0.930 . S
C729 C728 1.381 . S
C729 C731 1.381 . S
C729 C732 1.487 . S
C730 C727 1.382 . S
C730 C731 1.387 . S
C730 H750 0.930 . S
C731 C729 1.381 . S
C731 C730 1.387 . S
C731 H751 0.931 . S
C732 C729 1.487 . S
C732 C739 1.399 . S
C732 N757 1.343 . S
C733 C734 1.384 . S
C733 C735 1.384 . S
C733 H752 0.931 . S
C734 C733 1.384 . S
C734 C737 1.382 . S
C735 C733 1.384 . S
C735 C736 1.381 . S
C735 H753 0.930 . S
C736 C735 1.381 . S
C736 C738 1.381 . S
C736 C739 1.487 . S
C737 C734 1.382 . S
C737 C738 1.387 . S
C737 H754 0.930 . S
C738 C736 1.381 . S
C738 C737 1.387 . S
C738 H755 0.931 . S
C739 C732 1.399 . S
C739 C736 1.487 . S
C739 N756 1.343 . S
H740 C712 0.931 . S
H741 C714 0.930 . S
H742 C716 0.930 . S
H743 C717 0.931 . S
H744 C719 0.931 . S
H745 C721 0.930 . S
H746 C723 0.930 . S
H747 C724 0.931 . S
H748 C726 0.931 . S
H749 C728 0.930 . S
H750 C730 0.930 . S
H751 C731 0.931 . S
H752 C733 0.931 . S
H753 C735 0.930 . S
H754 C737 0.930 . S
H755 C738 0.931 . S
N756 C718 1.343 . S
N756 C739 1.343 . S
N757 C725 1.343 . S
N757 C732 1.343 . S
C758 C759 1.384 1_545 S
C758 C760 1.384 . S
C758 H786 0.931 . S
C759 C758 1.384 1_565 S
C759 C762 1.382 . S
C760 C758 1.384 . S
C760 C761 1.381 1_545 S
C760 H787 0.930 . S
C761 C760 1.381 1_565 S
C761 C763 1.381 . S
C761 C764 1.487 . S
C762 C759 1.382 . S
C762 C763 1.387 . S
C762 H788 0.930 . S
C763 C761 1.381 . S
C763 C762 1.387 . S
C763 H789 0.931 . S
C764 C761 1.487 . S
C764 C771 1.391 1_565 S
C764 N802 1.343 . S
C765 C766 1.384 1_565 S
C765 C767 1.384 . S
C765 H790 0.931 . S
C766 C765 1.384 1_545 S
C766 C769 1.382 . S
C767 C765 1.384 . S
C767 C768 1.381 1_565 S
C767 H791 0.930 . S
C768 C767 1.381 1_545 S
C768 C770 1.381 . S
C768 C771 1.529 . S
C769 C766 1.382 . S
C769 C770 1.387 . S
C769 H792 0.930 . S
C770 C768 1.381 . S
C770 C769 1.387 . S
C770 H793 0.931 . S
C771 C764 1.391 1_545 S
C771 C768 1.529 . S
C771 N803 1.315 . S
C772 C773 1.384 1_565 S
C772 C774 1.384 . S
C772 H794 0.931 . S
C773 C772 1.384 1_545 S
C773 C776 1.382 . S
C774 C772 1.384 . S
C774 C775 1.381 1_565 S
C774 H795 0.930 . S
C775 C774 1.381 1_545 S
C775 C777 1.381 . S
C775 C778 1.458 . S
C776 C773 1.382 . S
C776 C777 1.387 . S
C776 H796 0.930 . S
C777 C775 1.381 . S
C777 C776 1.387 . S
C777 H797 0.931 . S
C778 C775 1.458 . S
C778 C785 1.391 1_545 S
C778 N803 1.388 . S
C779 C780 1.384 1_545 S
C779 C781 1.384 . S
C779 H798 0.931 . S
C780 C779 1.384 1_565 S
C780 C783 1.382 . S
C781 C779 1.384 . S
C781 C782 1.381 1_545 S
C781 H799 0.930 . S
C782 C781 1.381 1_565 S
C782 C784 1.381 . S
C782 C785 1.487 . S
C783 C780 1.382 . S
C783 C784 1.387 . S
C783 H800 0.930 . S
C784 C782 1.381 . S
C784 C783 1.387 . S
C784 H801 0.931 . S
C785 C778 1.391 1_565 S
C785 C782 1.487 . S
C785 N802 1.343 . S
H786 C758 0.931 . S
H787 C760 0.930 . S
H788 C762 0.930 . S
H789 C763 0.931 . S
H790 C765 0.931 . S
H791 C767 0.930 . S
H792 C769 0.930 . S
H793 C770 0.931 . S
H794 C772 0.931 . S
H795 C774 0.930 . S
H796 C776 0.930 . S
H797 C777 0.931 . S
H798 C779 0.931 . S
H799 C781 0.930 . S
H800 C783 0.930 . S
H801 C784 0.931 . S
N802 C764 1.343 . S
N802 C785 1.343 . S
N803 C771 1.315 . S
N803 C778 1.388 . S
C804 C805 1.384 . S
C804 C806 1.384 . S
C804 H832 0.931 . S
C805 C804 1.384 . S
C805 C808 1.382 1_545 S
C806 C804 1.384 . S
C806 C807 1.380 . S
C806 H833 0.930 . S
C807 C806 1.380 . S
C807 C809 1.385 1_545 S
C807 C810 1.488 1_545 S
C808 C805 1.382 1_565 S
C808 C809 1.387 . S
C808 H834 0.930 . S
C809 C807 1.385 1_565 S
C809 C808 1.387 . S
C809 H835 0.931 . S
C810 C807 1.488 1_565 S
C810 C817 1.398 1_565 S
C810 N848 1.368 . S
C811 C812 1.384 . S
C811 C813 1.384 . S
C811 H836 0.931 . S
C812 C811 1.384 . S
C812 C815 1.382 1_565 S
C813 C811 1.384 . S
C813 C814 1.384 1_565 S
C813 H837 0.930 . S
C814 C813 1.384 1_545 S
C814 C816 1.380 . S
C814 C817 1.475 . S
C815 C812 1.382 1_545 S
C815 C816 1.387 . S
C815 H838 0.930 . S
C816 C814 1.380 . S
C816 C815 1.387 . S
C816 H839 0.931 . S
C817 C810 1.398 1_545 S
C817 C814 1.475 . S
C817 N849 1.314 . S
C818 C819 1.384 . S
C818 C820 1.384 . S
C818 H840 0.931 . S
C819 C818 1.384 . S
C819 C822 1.382 1_565 S
C820 C818 1.384 . S
C820 C821 1.380 1_565 S
C820 H841 0.930 . S
C821 C820 1.380 1_545 S
C821 C823 1.385 . S
C821 C824 1.497 . S
C822 C819 1.382 1_545 S
C822 C823 1.387 . S
C822 H842 0.930 . S
C823 C821 1.385 . S
C823 C822 1.387 . S
C823 H843 0.931 . S
C824 C821 1.497 . S
C824 C831 1.398 1_545 S
C824 N849 1.368 . S
C825 C826 1.384 . S
C825 C827 1.384 . S
C825 H844 0.931 . S
C826 C825 1.384 . S
C826 C829 1.382 1_545 S
C827 C825 1.384 . S
C827 C828 1.384 . S
C827 H845 0.930 . S
C828 C827 1.384 . S
C828 C830 1.380 1_545 S
C828 C831 1.484 1_545 S
C829 C826 1.382 1_565 S
C829 C830 1.387 . S
C829 H846 0.930 . S
C830 C828 1.380 1_565 S
C830 C829 1.387 . S
C830 H847 0.931 . S
C831 C824 1.398 1_565 S
C831 C828 1.484 1_565 S
C831 N848 1.314 . S
H832 C804 0.931 . S
H833 C806 0.930 . S
H834 C808 0.930 . S
H835 C809 0.931 . S
H836 C811 0.931 . S
H837 C813 0.930 . S
H838 C815 0.930 . S
H839 C816 0.931 . S
H840 C818 0.931 . S
H841 C820 0.930 . S
H842 C822 0.930 . S
H843 C823 0.931 . S
H844 C825 0.931 . S
H845 C827 0.930 . S
H846 C829 0.930 . S
H847 C830 0.931 . S
N848 C810 1.368 . S
N848 C831 1.314 . S
N849 C817 1.314 . S
N849 C824 1.368 . S
C850 C851 1.384 . S
C850 C852 1.384 . S
C850 H878 0.931 . S
C851 C850 1.384 . S
C851 C854 1.382 1_655 S
C852 C850 1.384 . S
C852 C853 1.389 . S
C852 H879 0.930 . S
C853 C852 1.389 . S
C853 C855 1.377 1_655 S
C853 C856 1.483 1_655 S
C854 C851 1.382 1_455 S
C854 C855 1.387 . S
C854 H880 0.930 . S
C855 C853 1.377 1_455 S
C855 C854 1.387 . S
C855 H881 0.931 . S
C856 C853 1.483 1_455 S
C856 C863 1.399 1_455 S
C856 N894 1.315 . S
C857 C858 1.384 . S
C857 C859 1.384 . S
C857 H882 0.931 . S
C858 C857 1.384 . S
C858 C861 1.382 1_455 S
C859 C857 1.384 . S
C859 C860 1.381 1_455 S
C859 H883 0.930 . S
C860 C859 1.381 1_655 S
C860 C862 1.382 . S
C860 C863 1.498 . S
C861 C858 1.382 1_655 S
C861 C862 1.387 . S
C861 H884 0.930 . S
C862 C860 1.382 . S
C862 C861 1.387 . S
C862 H885 0.931 . S
C863 C856 1.399 1_655 S
C863 C860 1.498 . S
C863 N895 1.367 . S
C864 C865 1.384 . S
C864 C866 1.384 . S
C864 H886 0.931 . S
C865 C864 1.384 . S
C865 C868 1.382 1_455 S
C866 C864 1.384 . S
C866 C867 1.389 1_455 S
C866 H887 0.930 . S
C867 C866 1.389 1_655 S
C867 C869 1.377 . S
C867 C870 1.474 . S
C868 C865 1.382 1_655 S
C868 C869 1.387 . S
C868 H888 0.930 . S
C869 C867 1.377 . S
C869 C868 1.387 . S
C869 H889 0.931 . S
C870 C867 1.474 . S
C870 C877 1.399 1_655 S
C870 N895 1.315 . S
C871 C872 1.384 . S
C871 C873 1.384 . S
C871 H890 0.931 . S
C872 C871 1.384 . S
C872 C875 1.382 1_655 S
C873 C871 1.384 . S
C873 C874 1.381 . S
C873 H891 0.930 . S
C874 C873 1.381 . S
C874 C876 1.382 1_655 S
C874 C877 1.489 1_655 S
C875 C872 1.382 1_455 S
C875 C876 1.387 . S
C875 H892 0.930 . S
C876 C874 1.382 1_455 S
C876 C875 1.387 . S
C876 H893 0.931 . S
C877 C870 1.399 1_455 S
C877 C874 1.489 1_455 S
C877 N894 1.367 . S
H878 C850 0.931 . S
H879 C852 0.930 . S
H880 C854 0.930 . S
H881 C855 0.931 . S
H882 C857 0.931 . S
H883 C859 0.930 . S
H884 C861 0.930 . S
H885 C862 0.931 . S
H886 C864 0.931 . S
H887 C866 0.930 . S
H888 C868 0.930 . S
H889 C869 0.931 . S
H890 C871 0.931 . S
H891 C873 0.930 . S
H892 C875 0.930 . S
H893 C876 0.931 . S
N894 C856 1.315 . S
N894 C877 1.367 . S
N895 C863 1.367 . S
N895 C870 1.315 . S
C896 C897 1.384 . S
C896 C898 1.384 . S
C896 H924 0.931 . S
C897 C896 1.384 . S
C897 C900 1.382 . S
C898 C896 1.384 . S
C898 C899 1.381 . S
C898 H925 0.930 . S
C899 C898 1.381 . S
C899 C901 1.381 . S
C899 C902 1.487 . S
C900 C897 1.382 . S
C900 C901 1.387 . S
C900 H926 0.930 . S
C901 C899 1.381 . S
C901 C900 1.387 . S
C901 H927 0.931 . S
C902 C899 1.487 . S
C902 C909 1.399 . S
C902 N940 1.343 . S
C903 C904 1.384 . S
C903 C905 1.384 . S
C903 H928 0.931 . S
C904 C903 1.384 . S
C904 C907 1.382 . S
C905 C903 1.384 . S
C905 C906 1.381 . S
C905 H929 0.930 . S
C906 C905 1.381 . S
C906 C908 1.381 . S
C906 C909 1.487 . S
C907 C904 1.382 . S
C907 C908 1.387 . S
C907 H930 0.930 . S
C908 C906 1.381 . S
C908 C907 1.387 . S
C908 H931 0.931 . S
C909 C902 1.399 . S
C909 C906 1.487 . S
C909 N941 1.343 . S
C910 C911 1.384 . S
C910 C912 1.384 . S
C910 H932 0.931 . S
C911 C910 1.384 . S
C911 C914 1.382 . S
C912 C910 1.384 . S
C912 C913 1.381 . S
C912 H933 0.930 . S
C913 C912 1.381 . S
C913 C915 1.381 . S
C913 C916 1.487 . S
C914 C911 1.382 . S
C914 C915 1.387 . S
C914 H934 0.930 . S
C915 C913 1.381 . S
C915 C914 1.387 . S
C915 H935 0.931 . S
C916 C913 1.487 . S
C916 C923 1.399 . S
C916 N941 1.343 . S
C917 C918 1.384 . S
C917 C919 1.384 . S
C917 H936 0.931 . S
C918 C917 1.384 . S
C918 C921 1.382 . S
C919 C917 1.384 . S
C919 C920 1.381 . S
C919 H937 0.930 . S
C920 C919 1.381 . S
C920 C922 1.381 . S
C920 C923 1.487 . S
C921 C918 1.382 . S
C921 C922 1.387 . S
C921 H938 0.930 . S
C922 C920 1.381 . S
C922 C921 1.387 . S
C922 H939 0.931 . S
C923 C916 1.399 . S
C923 C920 1.487 . S
C923 N940 1.343 . S
H924 C896 0.931 . S
H925 C898 0.930 . S
H926 C900 0.930 . S
H927 C901 0.931 . S
H928 C903 0.931 . S
H929 C905 0.930 . S
H930 C907 0.930 . S
H931 C908 0.931 . S
H932 C910 0.931 . S
H933 C912 0.930 . S
H934 C914 0.930 . S
H935 C915 0.931 . S
H936 C917 0.931 . S
H937 C919 0.930 . S
H938 C921 0.930 . S
H939 C922 0.931 . S
N940 C902 1.343 . S
N940 C923 1.343 . S
N941 C909 1.343 . S
N941 C916 1.343 . S
C942 C943 1.384 . S
C942 C944 1.384 . S
C942 H970 0.931 . S
C943 C942 1.384 . S
C943 C946 1.382 . S
C944 C942 1.384 . S
C944 C945 1.381 . S
C944 H971 0.930 . S
C945 C944 1.381 . S
C945 C947 1.381 . S
C945 C948 1.487 . S
C946 C943 1.382 . S
C946 C947 1.387 . S
C946 H972 0.930 . S
C947 C945 1.381 . S
C947 C946 1.387 . S
C947 H973 0.931 . S
C948 C945 1.487 . S
C948 C955 1.399 . S
C948 N986 1.343 . S
C949 C950 1.384 . S
C949 C951 1.384 . S
C949 H974 0.931 . S
C950 C949 1.384 . S
C950 C953 1.382 . S
C951 C949 1.384 . S
C951 C952 1.381 . S
C951 H975 0.930 . S
C952 C951 1.381 . S
C952 C954 1.381 . S
C952 C955 1.487 . S
C953 C950 1.382 . S
C953 C954 1.387 . S
C953 H976 0.930 . S
C954 C952 1.381 . S
C954 C953 1.387 . S
C954 H977 0.931 . S
C955 C948 1.399 . S
C955 C952 1.487 . S
C955 N987 1.343 . S
C956 C957 1.384 . S
C956 C958 1.384 . S
C956 H978 0.931 . S
C957 C956 1.384 . S
C957 C960 1.382 . S
C958 C956 1.384 . S
C958 C959 1.381 . S
C958 H979 0.930 . S
C959 C958 1.381 . S
C959 C961 1.381 . S
C959 C962 1.487 . S
C960 C957 1.382 . S
C960 C961 1.387 . S
C960 H980 0.930 . S
C961 C959 1.381 . S
C961 C960 1.387 . S
C961 H981 0.931 . S
C962 C959 1.487 . S
C962 C969 1.399 . S
C962 N987 1.343 . S
C963 C964 1.384 . S
C963 C965 1.384 . S
C963 H982 0.931 . S
C964 C963 1.384 . S
C964 C967 1.382 . S
C965 C963 1.384 . S
C965 C966 1.381 . S
C965 H983 0.930 . S
C966 C965 1.381 . S
C966 C968 1.381 . S
C966 C969 1.487 . S
C967 C964 1.382 . S
C967 C968 1.387 . S
C967 H984 0.930 . S
C968 C966 1.381 . S
C968 C967 1.387 . S
C968 H985 0.931 . S
C969 C962 1.399 . S
C969 C966 1.487 . S
C969 N986 1.343 . S
H970 C942 0.931 . S
H971 C944 0.930 . S
H972 C946 0.930 . S
H973 C947 0.931 . S
H974 C949 0.931 . S
H975 C951 0.930 . S
H976 C953 0.930 . S
H977 C954 0.931 . S
H978 C956 0.931 . S
H979 C958 0.930 . S
H980 C960 0.930 . S
H981 C961 0.931 . S
H982 C963 0.931 . S
H983 C965 0.930 . S
H984 C967 0.930 . S
H985 C968 0.931 . S
N986 C948 1.343 . S
N986 C969 1.343 . S
N987 C955 1.343 . S
N987 C962 1.343 . S
C988 C989 1.384 . S
C988 C990 1.384 . S
C988 H1016 0.931 . S
C989 C988 1.384 . S
C989 C992 1.382 . S
C990 C988 1.384 . S
C990 C991 1.381 . S
C990 H1017 0.930 . S
C991 C990 1.381 . S
C991 C993 1.381 . S
C991 C994 1.487 . S
C992 C989 1.382 . S
C992 C993 1.387 . S
C992 H1018 0.930 . S
C993 C991 1.381 . S
C993 C992 1.387 . S
C993 H1019 0.931 . S
C994 C991 1.487 . S
C994 C1001 1.399 . S
C994 N1032 1.343 . S
C995 C996 1.384 . S
C995 C997 1.384 . S
C995 H1020 0.931 . S
C996 C995 1.384 . S
C996 C999 1.382 . S
C997 C995 1.384 . S
C997 C998 1.381 . S
C997 H1021 0.930 . S
C998 C997 1.381 . S
C998 C1000 1.381 . S
C998 C1001 1.487 . S
C999 C996 1.382 . S
C999 C1000 1.387 . S
C999 H1022 0.930 . S
C1000 C998 1.381 . S
C1000 C999 1.387 . S
C1000 H1023 0.931 . S
C1001 C994 1.399 . S
C1001 C998 1.487 . S
C1001 N1033 1.343 . S
C1002 C1003 1.384 . S
C1002 C1004 1.384 . S
C1002 H1024 0.931 . S
C1003 C1002 1.384 . S
C1003 C1006 1.382 . S
C1004 C1002 1.384 . S
C1004 C1005 1.381 . S
C1004 H1025 0.930 . S
C1005 C1004 1.381 . S
C1005 C1007 1.381 . S
C1005 C1008 1.487 . S
C1006 C1003 1.382 . S
C1006 C1007 1.387 . S
C1006 H1026 0.930 . S
C1007 C1005 1.381 . S
C1007 C1006 1.387 . S
C1007 H1027 0.931 . S
C1008 C1005 1.487 . S
C1008 C1015 1.399 . S
C1008 N1033 1.343 . S
C1009 C1010 1.384 . S
C1009 C1011 1.384 . S
C1009 H1028 0.931 . S
C1010 C1009 1.384 . S
C1010 C1013 1.382 . S
C1011 C1009 1.384 . S
C1011 C1012 1.381 . S
C1011 H1029 0.930 . S
C1012 C1011 1.381 . S
C1012 C1014 1.381 . S
C1012 C1015 1.487 . S
C1013 C1010 1.382 . S
C1013 C1014 1.387 . S
C1013 H1030 0.930 . S
C1014 C1012 1.381 . S
C1014 C1013 1.387 . S
C1014 H1031 0.931 . S
C1015 C1008 1.399 . S
C1015 C1012 1.487 . S
C1015 N1032 1.343 . S
H1016 C988 0.931 . S
H1017 C990 0.930 . S
H1018 C992 0.930 . S
H1019 C993 0.931 . S
H1020 C995 0.931 . S
H1021 C997 0.930 . S
H1022 C999 0.930 . S
H1023 C1000 0.931 . S
H1024 C1002 0.931 . S
H1025 C1004 0.930 . S
H1026 C1006 0.930 . S
H1027 C1007 0.931 . S
H1028 C1009 0.931 . S
H1029 C1011 0.930 . S
H1030 C1013 0.930 . S
H1031 C1014 0.931 . S
N1032 C994 1.343 . S
N1032 C1015 1.343 . S
N1033 C1001 1.343 . S
N1033 C1008 1.343 . S
C1034 C1035 1.384 . S
C1034 C1036 1.384 . S
C1034 H1062 0.931 . S
C1035 C1034 1.384 . S
C1035 C1038 1.382 . S
C1036 C1034 1.384 . S
C1036 C1037 1.381 . S
C1036 H1063 0.930 . S
C1037 C1036 1.381 . S
C1037 C1039 1.381 . S
C1037 C1040 1.487 . S
C1038 C1035 1.382 . S
C1038 C1039 1.387 . S
C1038 H1064 0.930 . S
C1039 C1037 1.381 . S
C1039 C1038 1.387 . S
C1039 H1065 0.931 . S
C1040 C1037 1.487 . S
C1040 C1047 1.399 . S
C1040 N1078 1.343 . S
C1041 C1042 1.384 . S
C1041 C1043 1.384 . S
C1041 H1066 0.931 . S
C1042 C1041 1.384 . S
C1042 C1045 1.382 . S
C1043 C1041 1.384 . S
C1043 C1044 1.381 . S
C1043 H1067 0.930 . S
C1044 C1043 1.381 . S
C1044 C1046 1.381 . S
C1044 C1047 1.487 . S
C1045 C1042 1.382 . S
C1045 C1046 1.387 . S
C1045 H1068 0.930 . S
C1046 C1044 1.381 . S
C1046 C1045 1.387 . S
C1046 H1069 0.931 . S
C1047 C1040 1.399 . S
C1047 C1044 1.487 . S
C1047 N1079 1.343 . S
C1048 C1049 1.384 . S
C1048 C1050 1.384 . S
C1048 H1070 0.931 . S
C1049 C1048 1.384 . S
C1049 C1052 1.382 . S
C1050 C1048 1.384 . S
C1050 C1051 1.381 . S
C1050 H1071 0.930 . S
C1051 C1050 1.381 . S
C1051 C1053 1.381 . S
C1051 C1054 1.487 . S
C1052 C1049 1.382 . S
C1052 C1053 1.387 . S
C1052 H1072 0.930 . S
C1053 C1051 1.381 . S
C1053 C1052 1.387 . S
C1053 H1073 0.931 . S
C1054 C1051 1.487 . S
C1054 C1061 1.399 . S
C1054 N1079 1.343 . S
C1055 C1056 1.384 . S
C1055 C1057 1.384 . S
C1055 H1074 0.931 . S
C1056 C1055 1.384 . S
C1056 C1059 1.382 . S
C1057 C1055 1.384 . S
C1057 C1058 1.381 . S
C1057 H1075 0.930 . S
C1058 C1057 1.381 . S
C1058 C1060 1.381 . S
C1058 C1061 1.487 . S
C1059 C1056 1.382 . S
C1059 C1060 1.387 . S
C1059 H1076 0.930 . S
C1060 C1058 1.381 . S
C1060 C1059 1.387 . S
C1060 H1077 0.931 . S
C1061 C1054 1.399 . S
C1061 C1058 1.487 . S
C1061 N1078 1.343 . S
H1062 C1034 0.931 . S
H1063 C1036 0.930 . S
H1064 C1038 0.930 . S
H1065 C1039 0.931 . S
H1066 C1041 0.931 . S
H1067 C1043 0.930 . S
H1068 C1045 0.930 . S
H1069 C1046 0.931 . S
H1070 C1048 0.931 . S
H1071 C1050 0.930 . S
H1072 C1052 0.930 . S
H1073 C1053 0.931 . S
H1074 C1055 0.931 . S
H1075 C1057 0.930 . S
H1076 C1059 0.930 . S
H1077 C1060 0.931 . S
N1078 C1040 1.343 . S
N1078 C1061 1.343 . S
N1079 C1047 1.343 . S
N1079 C1054 1.343 . S
H1080 C1088 0.929 . S
H1081 C1090 0.930 . S
H1082 C1092 0.930 . S
H1083 C1095 0.929 . S
H1084 C1098 0.930 . S
H1085 C1100 0.960 . S
H1086 C1100 0.960 . S
H1087 C1100 0.960 . S
C1088 H1080 0.929 . S
C1088 C1089 1.390 . S
C1088 C1090 1.384 . S
C1089 C1088 1.390 . S
C1089 C1095 1.392 1_655 S
C1090 H1081 0.930 . S
C1090 C1088 1.384 . S
C1090 C1091 1.372 . S
C1091 C1090 1.372 . S
C1091 C1092 1.400 1_655 S
C1091 C1096 1.490 . S
C1092 H1082 0.930 . S
C1092 C1091 1.400 1_455 S
C1092 C1095 1.386 . S
H1093 C1109 0.930 . S
H1094 C1110 0.931 . S
C1095 H1083 0.929 . S
C1095 C1089 1.392 1_455 S
C1095 C1092 1.386 . S
C1096 C1091 1.490 . S
C1096 C1098 1.395 1_655 S
C1096 C1099 1.403 . S
H1097 C1103 0.930 . S
C1098 H1084 0.930 . S
C1098 C1096 1.395 1_455 S
C1098 C1101 1.403 . S
C1099 C1096 1.403 . S
C1099 C1100 1.524 . S
C1099 C1103 1.400 . S
C1100 H1085 0.960 . S
C1100 H1086 0.960 . S
C1100 H1087 0.960 . S
C1100 C1099 1.524 . S
C1101 C1098 1.403 . S
C1101 C1102 1.389 1_455 S
C1101 C1105 1.495 . S
C1102 C1101 1.389 1_655 S
C1102 C1103 1.387 . S
C1102 C1104 1.476 1_655 S
C1103 H1097 0.930 . S
C1103 C1099 1.400 . S
C1103 C1102 1.387 . S
C1104 C1102 1.476 1_455 S
C1104 C1106 1.385 1_455 S
C1104 C1110 1.382 . S
C1105 C1101 1.495 . S
C1105 H1111 0.959 . S
C1105 H1112 0.961 . S
C1105 H1113 0.960 . S
C1106 C1104 1.385 1_655 S
C1106 C1107 1.394 . S
C1106 H1114 0.930 . S
C1107 C1106 1.394 . S
C1107 C1108 1.383 . S
C1107 H1115 0.929 . S
C1108 C1107 1.383 . S
C1108 C1109 1.377 1_655 S
C1109 H1093 0.930 . S
C1109 C1108 1.377 1_455 S
C1109 C1110 1.379 . S
C1110 H1094 0.931 . S
C1110 C1104 1.382 . S
C1110 C1109 1.379 . S
H1111 C1105 0.959 . S
H1112 C1105 0.961 . S
H1113 C1105 0.960 . S
H1114 C1106 0.930 . S
H1115 C1107 0.929 . S
H1116 C1124 0.929 . S
H1117 C1126 0.930 . S
H1118 C1128 0.930 . S
H1119 C1131 0.929 . S
H1120 C1134 0.930 . S
H1121 C1136 0.960 . S
H1122 C1136 0.960 . S
H1123 C1136 0.960 . S
C1124 H1116 0.929 . S
C1124 C1125 1.377 . S
C1124 C1126 1.384 . S
C1125 C1124 1.377 . S
C1125 C1131 1.390 . S
C1126 H1117 0.930 . S
C1126 C1124 1.384 . S
C1126 C1127 1.372 . S
C1127 C1126 1.372 . S
C1127 C1128 1.400 . S
C1127 C1132 1.490 . S
C1128 H1118 0.930 . S
C1128 C1127 1.400 . S
C1128 C1131 1.386 . S
H1129 C1145 0.930 . S
H1130 C1146 0.931 . S
C1131 H1119 0.929 . S
C1131 C1125 1.390 . S
C1131 C1128 1.386 . S
C1132 C1127 1.490 . S
C1132 C1134 1.395 . S
C1132 C1135 1.403 . S
H1133 C1139 0.930 . S
C1134 H1120 0.930 . S
C1134 C1132 1.395 . S
C1134 C1137 1.403 . S
C1135 C1132 1.403 . S
C1135 C1136 1.524 . S
C1135 C1139 1.400 . S
C1136 H1121 0.960 . S
C1136 H1122 0.960 . S
C1136 H1123 0.960 . S
C1136 C1135 1.524 . S
C1137 C1134 1.403 . S
C1137 C1138 1.392 . S
C1137 C1141 1.495 . S
C1138 C1137 1.392 . S
C1138 C1139 1.385 . S
C1138 C1140 1.478 . S
C1139 H1133 0.930 . S
C1139 C1135 1.400 . S
C1139 C1138 1.385 . S
C1140 C1138 1.478 . S
C1140 C1142 1.381 . S
C1140 C1146 1.383 . S
C1141 C1137 1.495 . S
C1141 H1147 0.959 . S
C1141 H1148 0.961 . S
C1141 H1149 0.960 . S
C1142 C1140 1.381 . S
C1142 C1143 1.394 . S
C1142 H1150 0.930 . S
C1143 C1142 1.394 . S
C1143 C1144 1.383 . S
C1143 H1151 0.929 . S
C1144 C1143 1.383 . S
C1144 C1145 1.377 . S
C1145 H1129 0.930 . S
C1145 C1144 1.377 . S
C1145 C1146 1.379 . S
C1146 H1130 0.931 . S
C1146 C1140 1.383 . S
C1146 C1145 1.379 . S
H1147 C1141 0.959 . S
H1148 C1141 0.961 . S
H1149 C1141 0.960 . S
H1150 C1142 0.930 . S
H1151 C1143 0.929 . S
H1152 C1160 0.929 . S
H1153 C1162 0.930 . S
H1154 C1164 0.930 . S
H1155 C1167 0.929 . S
H1156 C1170 0.930 . S
H1157 C1172 0.960 . S
H1158 C1172 0.960 . S
H1159 C1172 0.960 . S
C1160 H1152 0.929 . S
C1160 C1161 1.377 1_565 S
C1160 C1162 1.384 . S
C1161 C1160 1.377 1_545 S
C1161 C1167 1.390 . S
C1162 H1153 0.930 . S
C1162 C1160 1.384 . S
C1162 C1163 1.372 1_565 S
C1163 C1162 1.372 1_545 S
C1163 C1164 1.400 . S
C1163 C1168 1.490 . S
C1164 H1154 0.930 . S
C1164 C1163 1.400 . S
C1164 C1167 1.386 . S
H1165 C1181 0.930 . S
H1166 C1182 0.931 . S
C1167 H1155 0.929 . S
C1167 C1161 1.390 . S
C1167 C1164 1.386 . S
C1168 C1163 1.490 . S
C1168 C1170 1.395 1_545 S
C1168 C1171 1.403 . S
H1169 C1175 0.930 . S
C1170 H1156 0.930 . S
C1170 C1168 1.395 1_565 S
C1170 C1173 1.403 . S
C1171 C1168 1.403 . S
C1171 C1172 1.524 . S
C1171 C1175 1.400 . S
C1172 H1157 0.960 . S
C1172 H1158 0.960 . S
C1172 H1159 0.960 . S
C1172 C1171 1.524 . S
C1173 C1170 1.403 . S
C1173 C1174 1.403 . S
C1173 C1177 1.495 . S
C1174 C1173 1.403 . S
C1174 C1175 1.365 1_565 S
C1174 C1176 1.481 . S
C1175 H1169 0.930 . S
C1175 C1171 1.400 . S
C1175 C1174 1.365 1_545 S
C1176 C1174 1.481 . S
C1176 C1178 1.389 . S
C1176 C1182 1.379 1_565 S
C1177 C1173 1.495 . S
C1177 H1183 0.959 . S
C1177 H1184 0.961 . S
C1177 H1185 0.960 . S
C1178 C1176 1.389 . S
C1178 C1179 1.394 . S
C1178 H1186 0.930 . S
C1179 C1178 1.394 . S
C1179 C1180 1.383 1_565 S
C1179 H1187 0.929 . S
C1180 C1179 1.383 1_545 S
C1180 C1181 1.377 . S
C1181 H1165 0.930 . S
C1181 C1180 1.377 . S
C1181 C1182 1.379 . S
C1182 H1166 0.931 . S
C1182 C1176 1.379 1_545 S
C1182 C1181 1.379 . S
H1183 C1177 0.959 . S
H1184 C1177 0.961 . S
H1185 C1177 0.960 . S
H1186 C1178 0.930 . S
H1187 C1179 0.929 . S
H1188 C1196 0.929 . S
H1189 C1198 0.930 . S
H1190 C1200 0.930 . S
H1191 C1203 0.929 . S
H1192 C1206 0.930 . S
H1193 C1208 0.960 . S
H1194 C1208 0.960 1_565 S
H1195 C1208 0.960 . S
C1196 H1188 0.929 . S
C1196 C1197 1.406 . S
C1196 C1198 1.384 . S
C1197 C1196 1.406 . S
C1197 C1203 1.376 1_565 S
C1198 H1189 0.930 . S
C1198 C1196 1.384 . S
C1198 C1199 1.372 . S
C1199 C1198 1.372 . S
C1199 C1200 1.400 1_565 S
C1199 C1204 1.490 . S
C1200 H1190 0.930 . S
C1200 C1199 1.400 1_545 S
C1200 C1203 1.386 . S
H1201 C1217 0.930 . S
H1202 C1218 0.931 . S
C1203 H1191 0.929 . S
C1203 C1197 1.376 1_545 S
C1203 C1200 1.386 . S
C1204 C1199 1.490 . S
C1204 C1206 1.395 . S
C1204 C1207 1.413 1_565 S
H1205 C1211 0.926 . S
C1206 H1192 0.930 . S
C1206 C1204 1.395 . S
C1206 C1209 1.403 . S
C1207 C1204 1.413 1_545 S
C1207 C1208 1.523 . S
C1207 C1211 1.395 . S
C1208 H1193 0.960 . S
C1208 H1194 0.960 1_545 S
C1208 H1195 0.960 . S
C1208 C1207 1.523 . S
C1209 C1206 1.403 . S
C1209 C1210 1.392 . S
C1209 C1213 1.495 . S
C1210 C1209 1.392 . S
C1210 C1211 1.385 1_565 S
C1210 C1212 1.478 . S
C1211 H1205 0.926 . S
C1211 C1207 1.395 . S
C1211 C1210 1.385 1_545 S
C1212 C1210 1.478 . S
C1212 C1214 1.381 . S
C1212 C1218 1.383 1_565 S
C1213 C1209 1.495 . S
C1213 H1219 0.959 . S
C1213 H1220 0.961 1_565 S
C1213 H1221 0.960 . S
C1214 C1212 1.381 . S
C1214 C1215 1.394 . S
C1214 H1222 0.930 . S
C1215 C1214 1.394 . S
C1215 C1216 1.383 . S
C1215 H1223 0.929 . S
C1216 C1215 1.383 . S
C1216 C1217 1.377 1_565 S
C1217 H1201 0.930 . S
C1217 C1216 1.377 1_545 S
C1217 C1218 1.379 . S
C1218 H1202 0.931 . S
C1218 C1212 1.383 1_545 S
C1218 C1217 1.379 . S
H1219 C1213 0.959 . S
H1220 C1213 0.961 1_545 S
H1221 C1213 0.960 . S
H1222 C1214 0.930 . S
H1223 C1215 0.929 . S
H1224 C1232 0.929 . S
H1225 C1234 0.930 . S
H1226 C1236 0.930 . S
H1227 C1239 0.929 . S
H1228 C1242 0.930 . S
H1229 C1244 0.960 . S
H1230 C1244 0.960 . S
H1231 C1244 0.960 . S
C1232 H1224 0.929 . S
C1232 C1233 1.377 1_655 S
C1232 C1234 1.384 . S
C1233 C1232 1.377 1_455 S
C1233 C1239 1.390 . S
C1234 H1225 0.930 . S
C1234 C1232 1.384 . S
C1234 C1235 1.372 1_655 S
C1235 C1234 1.372 1_455 S
C1235 C1236 1.400 . S
C1235 C1240 1.490 . S
C1236 H1226 0.930 . S
C1236 C1235 1.400 . S
C1236 C1239 1.386 . S
H1237 C1253 0.930 . S
H1238 C1254 0.931 . S
C1239 H1227 0.929 . S
C1239 C1233 1.390 . S
C1239 C1236 1.386 . S
C1240 C1235 1.490 . S
C1240 C1242 1.395 1_455 S
C1240 C1243 1.403 . S
H1241 C1247 0.930 . S
C1242 H1228 0.930 . S
C1242 C1240 1.395 1_655 S
C1242 C1245 1.403 . S
C1243 C1240 1.403 . S
C1243 C1244 1.524 . S
C1243 C1247 1.400 . S
C1244 H1229 0.960 . S
C1244 H1230 0.960 . S
C1244 H1231 0.960 . S
C1244 C1243 1.524 . S
C1245 C1242 1.403 . S
C1245 C1246 1.369 1_655 S
C1245 C1249 1.495 . S
C1246 C1245 1.369 1_455 S
C1246 C1247 1.438 . S
C1246 C1248 1.487 . S
C1247 H1241 0.930 . S
C1247 C1243 1.400 . S
C1247 C1246 1.438 . S
C1248 C1246 1.487 . S
C1248 C1250 1.299 1_455 S
C1248 C1254 1.435 . S
C1249 C1245 1.495 . S
C1249 H1255 0.959 . S
C1249 H1256 0.961 . S
C1249 H1257 0.960 . S
C1250 C1248 1.299 1_655 S
C1250 C1251 1.394 . S
C1250 H1258 0.930 . S
C1251 C1250 1.394 . S
C1251 C1252 1.383 1_655 S
C1251 H1259 0.929 . S
C1252 C1251 1.383 1_455 S
C1252 C1253 1.377 . S
C1253 H1237 0.930 . S
C1253 C1252 1.377 . S
C1253 C1254 1.379 . S
C1254 H1238 0.931 . S
C1254 C1248 1.435 . S
C1254 C1253 1.379 . S
H1255 C1249 0.959 . S
H1256 C1249 0.961 . S
H1257 C1249 0.960 . S
H1258 C1250 0.930 . S
H1259 C1251 0.929 . S
H1260 C1268 0.929 . S
H1261 C1270 0.930 . S
H1262 C1272 0.930 . S
H1263 C1275 0.929 . S
H1264 C1278 0.930 . S
H1265 C1280 0.960 . S
H1266 C1280 0.960 . S
H1267 C1280 0.960 . S
C1268 H1260 0.929 . S
C1268 C1269 1.377 . S
C1268 C1270 1.384 . S
C1269 C1268 1.377 . S
C1269 C1275 1.390 . S
C1270 H1261 0.930 . S
C1270 C1268 1.384 . S
C1270 C1271 1.372 . S
C1271 C1270 1.372 . S
C1271 C1272 1.400 . S
C1271 C1276 1.490 . S
C1272 H1262 0.930 . S
C1272 C1271 1.400 . S
C1272 C1275 1.386 . S
H1273 C1289 0.930 . S
H1274 C1290 0.931 . S
C1275 H1263 0.929 . S
C1275 C1269 1.390 . S
C1275 C1272 1.386 . S
C1276 C1271 1.490 . S
C1276 C1278 1.395 . S
C1276 C1279 1.403 . S
H1277 C1283 0.930 . S
C1278 H1264 0.930 . S
C1278 C1276 1.395 . S
C1278 C1281 1.403 . S
C1279 C1276 1.403 . S
C1279 C1280 1.524 . S
C1279 C1283 1.400 . S
C1280 H1265 0.960 . S
C1280 H1266 0.960 . S
C1280 H1267 0.960 . S
C1280 C1279 1.524 . S
C1281 C1278 1.403 . S
C1281 C1282 1.392 . S
C1281 C1285 1.495 . S
C1282 C1281 1.392 . S
C1282 C1283 1.385 . S
C1282 C1284 1.478 . S
C1283 H1277 0.930 . S
C1283 C1279 1.400 . S
C1283 C1282 1.385 . S
C1284 C1282 1.478 . S
C1284 C1286 1.381 . S
C1284 C1290 1.383 . S
C1285 C1281 1.495 . S
C1285 H1291 0.959 . S
C1285 H1292 0.961 . S
C1285 H1293 0.960 . S
C1286 C1284 1.381 . S
C1286 C1287 1.394 . S
C1286 H1294 0.930 . S
C1287 C1286 1.394 . S
C1287 C1288 1.383 . S
C1287 H1295 0.929 . S
C1288 C1287 1.383 . S
C1288 C1289 1.377 . S
C1289 H1273 0.930 . S
C1289 C1288 1.377 . S
C1289 C1290 1.379 . S
C1290 H1274 0.931 . S
C1290 C1284 1.383 . S
C1290 C1289 1.379 . S
H1291 C1285 0.959 . S
H1292 C1285 0.961 . S
H1293 C1285 0.960 . S
H1294 C1286 0.930 . S
H1295 C1287 0.929 . S
H1296 C1304 0.929 . S
H1297 C1306 0.930 . S
H1298 C1308 0.930 . S
H1299 C1311 0.929 . S
H1300 C1314 0.930 . S
H1301 C1316 0.960 . S
H1302 C1316 0.960 . S
H1303 C1316 0.960 . S
C1304 H1296 0.929 . S
C1304 C1305 1.377 1_655 S
C1304 C1306 1.384 . S
C1305 C1304 1.377 1_455 S
C1305 C1311 1.390 . S
C1306 H1297 0.930 . S
C1306 C1304 1.384 . S
C1306 C1307 1.372 1_655 S
C1307 C1306 1.372 1_455 S
C1307 C1308 1.400 . S
C1307 C1312 1.466 . S
C1308 H1298 0.930 . S
C1308 C1307 1.400 . S
C1308 C1311 1.386 . S
H1309 C1325 0.930 . S
H1310 C1326 0.931 . S
C1311 H1299 0.929 . S
C1311 C1305 1.390 . S
C1311 C1308 1.386 . S
C1312 C1307 1.466 . S
C1312 C1314 1.350 1_455 S
C1312 C1315 1.473 . S
H1313 C1319 0.930 . S
C1314 H1300 0.930 . S
C1314 C1312 1.350 1_655 S
C1314 C1317 1.403 . S
C1315 C1312 1.473 . S
C1315 C1316 1.524 . S
C1315 C1319 1.400 . S
C1316 H1301 0.960 . S
C1316 H1302 0.960 . S
C1316 H1303 0.960 . S
C1316 C1315 1.524 . S
C1317 C1314 1.403 . S
C1317 C1318 1.469 . S
C1317 C1321 1.495 . S
C1318 C1317 1.469 . S
C1318 C1319 1.337 1_655 S
C1318 C1320 1.471 . S
C1319 H1313 0.930 . S
C1319 C1315 1.400 . S
C1319 C1318 1.337 1_455 S
C1320 C1318 1.471 . S
C1320 C1322 1.393 . S
C1320 C1326 1.346 1_655 S
C1321 C1317 1.495 . S
C1321 H1327 0.959 . S
C1321 H1328 0.961 . S
C1321 H1329 0.960 . S
C1322 C1320 1.393 . S
C1322 C1323 1.394 . S
C1322 H1330 0.930 . S
C1323 C1322 1.394 . S
C1323 C1324 1.383 1_655 S
C1323 H1331 0.929 . S
C1324 C1323 1.383 1_455 S
C1324 C1325 1.377 . S
C1325 H1309 0.930 . S
C1325 C1324 1.377 . S
C1325 C1326 1.379 . S
C1326 H1310 0.931 . S
C1326 C1320 1.346 1_455 S
C1326 C1325 1.379 . S
H1327 C1321 0.959 . S
H1328 C1321 0.961 . S
H1329 C1321 0.960 . S
H1330 C1322 0.930 . S
H1331 C1323 0.929 . S
H1332 C1340 0.929 . S
H1333 C1342 0.930 . S
H1334 C1344 0.930 . S
H1335 C1347 0.929 . S
H1336 C1350 0.930 . S
H1337 C1352 0.960 . S
H1338 C1352 0.960 . S
H1339 C1352 0.960 . S
C1340 H1332 0.929 . S
C1340 C1341 1.377 . S
C1340 C1342 1.384 . S
C1341 C1340 1.377 . S
C1341 C1347 1.390 . S
C1342 H1333 0.930 . S
C1342 C1340 1.384 . S
C1342 C1343 1.372 . S
C1343 C1342 1.372 . S
C1343 C1344 1.400 . S
C1343 C1348 1.490 . S
C1344 H1334 0.930 . S
C1344 C1343 1.400 . S
C1344 C1347 1.386 . S
H1345 C1361 0.930 . S
H1346 C1362 0.931 . S
C1347 H1335 0.929 . S
C1347 C1341 1.390 . S
C1347 C1344 1.386 . S
C1348 C1343 1.490 . S
C1348 C1350 1.395 . S
C1348 C1351 1.403 . S
H1349 C1355 0.930 . S
C1350 H1336 0.930 . S
C1350 C1348 1.395 . S
C1350 C1353 1.403 . S
C1351 C1348 1.403 . S
C1351 C1352 1.524 . S
C1351 C1355 1.400 . S
C1352 H1337 0.960 . S
C1352 H1338 0.960 . S
C1352 H1339 0.960 . S
C1352 C1351 1.524 . S
C1353 C1350 1.403 . S
C1353 C1354 1.392 . S
C1353 C1357 1.495 . S
C1354 C1353 1.392 . S
C1354 C1355 1.385 . S
C1354 C1356 1.478 . S
C1355 H1349 0.930 . S
C1355 C1351 1.400 . S
C1355 C1354 1.385 . S
C1356 C1354 1.478 . S
C1356 C1358 1.381 . S
C1356 C1362 1.383 . S
C1357 C1353 1.495 . S
C1357 H1363 0.959 . S
C1357 H1364 0.961 . S
C1357 H1365 0.960 . S
C1358 C1356 1.381 . S
C1358 C1359 1.394 . S
C1358 H1366 0.930 . S
C1359 C1358 1.394 . S
C1359 C1360 1.383 . S
C1359 H1367 0.929 . S
C1360 C1359 1.383 . S
C1360 C1361 1.377 . S
C1361 H1345 0.930 . S
C1361 C1360 1.377 . S
C1361 C1362 1.379 . S
C1362 H1346 0.931 . S
C1362 C1356 1.383 . S
C1362 C1361 1.379 . S
H1363 C1357 0.959 . S
H1364 C1357 0.961 . S
H1365 C1357 0.960 . S
H1366 C1358 0.930 . S
H1367 C1359 0.929 . S
H1368 C1376 0.929 . S
H1369 C1378 0.930 . S
H1370 C1380 0.930 . S
H1371 C1383 0.929 . S
H1372 C1386 0.930 . S
H1373 C1388 0.960 . S
H1374 C1388 0.914 1_565 S
H1375 C1388 0.960 . S
C1376 H1368 0.929 . S
C1376 C1377 1.377 . S
C1376 C1378 1.384 . S
C1377 C1376 1.377 . S
C1377 C1383 1.390 1_565 S
C1378 H1369 0.930 . S
C1378 C1376 1.384 . S
C1378 C1379 1.372 . S
C1379 C1378 1.372 . S
C1379 C1380 1.400 1_565 S
C1379 C1384 1.490 . S
C1380 H1370 0.930 . S
C1380 C1379 1.400 1_545 S
C1380 C1383 1.386 . S
H1381 C1397 0.930 . S
H1382 C1398 0.931 . S
C1383 H1371 0.929 . S
C1383 C1377 1.390 1_545 S
C1383 C1380 1.386 . S
C1384 C1379 1.490 . S
C1384 C1386 1.395 . S
C1384 C1387 1.403 1_565 S
H1385 C1391 0.930 . S
C1386 H1372 0.930 . S
C1386 C1384 1.395 . S
C1386 C1389 1.403 . S
C1387 C1384 1.403 1_545 S
C1387 C1388 1.524 . S
C1387 C1391 1.400 . S
C1388 H1373 0.960 . S
C1388 H1374 0.914 1_545 S
C1388 H1375 0.960 . S
C1388 C1387 1.524 . S
C1389 C1386 1.403 . S
C1389 C1390 1.392 . S
C1389 C1393 1.495 . S
C1390 C1389 1.392 . S
C1390 C1391 1.385 1_565 S
C1390 C1392 1.478 . S
C1391 H1385 0.930 . S
C1391 C1387 1.400 . S
C1391 C1390 1.385 1_545 S
C1392 C1390 1.478 . S
C1392 C1394 1.381 . S
C1392 C1398 1.383 1_565 S
C1393 C1389 1.495 . S
C1393 H1399 0.959 . S
C1393 H1400 0.961 . S
C1393 H1401 0.960 . S
C1394 C1392 1.381 . S
C1394 C1395 1.394 . S
C1394 H1402 0.930 . S
C1395 C1394 1.394 . S
C1395 C1396 1.383 . S
C1395 H1403 0.929 . S
C1396 C1395 1.383 . S
C1396 C1397 1.377 1_565 S
C1397 H1381 0.930 . S
C1397 C1396 1.377 1_545 S
C1397 C1398 1.379 . S
C1398 H1382 0.931 . S
C1398 C1392 1.383 1_545 S
C1398 C1397 1.379 . S
H1399 C1393 0.959 . S
H1400 C1393 0.961 . S
H1401 C1393 0.960 . S
H1402 C1394 0.930 . S
H1403 C1395 0.929 . S
H1404 C1412 0.929 . S
H1405 C1414 0.930 . S
H1406 C1416 0.930 . S
H1407 C1419 0.929 . S
H1408 C1422 0.938 . S
H1409 C1424 0.960 . S
H1410 C1424 0.960 1_565 S
H1411 C1424 0.960 . S
C1412 H1404 0.929 . S
C1412 C1413 1.377 1_565 S
C1412 C1414 1.384 . S
C1413 C1412 1.377 1_545 S
C1413 C1419 1.390 . S
C1414 H1405 0.930 . S
C1414 C1412 1.384 . S
C1414 C1415 1.277 1_565 S
C1415 C1414 1.277 1_545 S
C1415 C1416 1.460 . S
C1415 C1420 1.490 . S
C1416 H1406 0.930 . S
C1416 C1415 1.460 . S
C1416 C1419 1.386 . S
H1417 C1433 0.930 . S
H1418 C1434 0.931 . S
C1419 H1407 0.929 . S
C1419 C1413 1.390 . S
C1419 C1416 1.386 . S
C1420 C1415 1.490 . S
C1420 C1422 1.379 1_545 S
C1420 C1423 1.457 . S
H1421 C1427 0.930 . S
C1422 H1408 0.938 . S
C1422 C1420 1.379 1_565 S
C1422 C1425 1.399 . S
C1423 C1420 1.457 . S
C1423 C1424 1.524 . S
C1423 C1427 1.400 . S
C1424 H1409 0.960 . S
C1424 H1410 0.960 1_545 S
C1424 H1411 0.960 . S
C1424 C1423 1.524 . S
C1425 C1422 1.399 . S
C1425 C1426 1.392 1_565 S
C1425 C1429 1.495 . S
C1426 C1425 1.392 1_545 S
C1426 C1427 1.385 . S
C1426 C1428 1.478 . S
C1427 H1421 0.930 . S
C1427 C1423 1.400 . S
C1427 C1426 1.385 . S
C1428 C1426 1.478 . S
C1428 C1430 1.381 1_545 S
C1428 C1434 1.383 . S
C1429 C1425 1.495 . S
C1429 H1435 0.959 . S
C1429 H1436 0.961 1_565 S
C1429 H1437 0.960 . S
C1430 C1428 1.381 1_565 S
C1430 C1431 1.394 . S
C1430 H1438 0.930 . S
C1431 C1430 1.394 . S
C1431 C1432 1.383 1_565 S
C1431 H1439 0.929 . S
C1432 C1431 1.383 1_545 S
C1432 C1433 1.377 . S
C1433 H1417 0.930 . S
C1433 C1432 1.377 . S
C1433 C1434 1.379 . S
C1434 H1418 0.931 . S
C1434 C1428 1.383 . S
C1434 C1433 1.379 . S
H1435 C1429 0.959 . S
H1436 C1429 0.961 1_545 S
H1437 C1429 0.960 . S
H1438 C1430 0.930 . S
H1439 C1431 0.929 . S
H1440 C1448 0.929 . S
H1441 C1450 0.930 . S
H1442 C1452 0.930 . S
H1443 C1455 0.929 . S
H1444 C1458 0.930 . S
H1445 C1460 0.960 . S
H1446 C1460 0.960 . S
H1447 C1460 0.960 . S
C1448 H1440 0.929 . S
C1448 C1449 1.377 1_455 S
C1448 C1450 1.384 . S
C1449 C1448 1.377 1_655 S
C1449 C1455 1.390 . S
C1450 H1441 0.930 . S
C1450 C1448 1.384 . S
C1450 C1451 1.343 1_455 S
C1451 C1450 1.343 1_655 S
C1451 C1452 1.456 . S
C1451 C1456 1.486 . S
C1452 H1442 0.930 . S
C1452 C1451 1.456 . S
C1452 C1455 1.386 . S
H1453 C1469 0.930 . S
H1454 C1470 0.931 . S
C1455 H1443 0.929 . S
C1455 C1449 1.390 . S
C1455 C1452 1.386 . S
C1456 C1451 1.486 . S
C1456 C1458 1.386 1_655 S
C1456 C1459 1.393 . S
H1457 C1463 0.930 . S
C1458 H1444 0.930 . S
C1458 C1456 1.386 1_455 S
C1458 C1461 1.403 . S
C1459 C1456 1.393 . S
C1459 C1460 1.524 . S
C1459 C1463 1.400 . S
C1460 H1445 0.960 . S
C1460 H1446 0.960 . S
C1460 H1447 0.960 . S
C1460 C1459 1.524 . S
C1461 C1458 1.403 . S
C1461 C1462 1.397 1_455 S
C1461 C1465 1.495 . S
C1462 C1461 1.397 1_655 S
C1462 C1463 1.389 . S
C1462 C1464 1.494 . S
C1463 H1457 0.930 . S
C1463 C1459 1.400 . S
C1463 C1462 1.389 . S
C1464 C1462 1.494 . S
C1464 C1466 1.319 1_655 S
C1464 C1470 1.420 . S
C1465 C1461 1.495 . S
C1465 H1471 0.959 . S
C1465 H1472 0.961 . S
C1465 H1473 0.960 . S
C1466 C1464 1.319 1_455 S
C1466 C1467 1.394 . S
C1466 H1474 0.930 . S
C1467 C1466 1.394 . S
C1467 C1468 1.383 1_455 S
C1467 H1475 0.929 . S
C1468 C1467 1.383 1_655 S
C1468 C1469 1.377 . S
C1469 H1453 0.930 . S
C1469 C1468 1.377 . S
C1469 C1470 1.379 . S
C1470 H1454 0.931 . S
C1470 C1464 1.420 . S
C1470 C1469 1.379 . S
H1471 C1465 0.959 . S
H1472 C1465 0.961 . S
H1473 C1465 0.960 . S
H1474 C1466 0.930 . S
H1475 C1467 0.929 . S
H1476 C1484 0.929 . S
H1477 C1486 0.930 . S
H1478 C1488 0.930 . S
H1479 C1491 0.929 . S
H1480 C1494 0.930 . S
H1481 C1496 0.960 . S
H1482 C1496 0.960 . S
H1483 C1496 0.960 . S
C1484 H1476 0.929 . S
C1484 C1485 1.377 . S
C1484 C1486 1.384 . S
C1485 C1484 1.377 . S
C1485 C1491 1.390 . S
C1486 H1477 0.930 . S
C1486 C1484 1.384 . S
C1486 C1487 1.372 . S
C1487 C1486 1.372 . S
C1487 C1488 1.400 . S
C1487 C1492 1.490 . S
C1488 H1478 0.930 . S
C1488 C1487 1.400 . S
C1488 C1491 1.386 . S
H1489 C1505 0.930 . S
H1490 C1506 0.931 . S
C1491 H1479 0.929 . S
C1491 C1485 1.390 . S
C1491 C1488 1.386 . S
C1492 C1487 1.490 . S
C1492 C1494 1.395 . S
C1492 C1495 1.403 . S
H1493 C1499 0.930 . S
C1494 H1480 0.930 . S
C1494 C1492 1.395 . S
C1494 C1497 1.403 . S
C1495 C1492 1.403 . S
C1495 C1496 1.524 . S
C1495 C1499 1.400 . S
C1496 H1481 0.960 . S
C1496 H1482 0.960 . S
C1496 H1483 0.960 . S
C1496 C1495 1.524 . S
C1497 C1494 1.403 . S
C1497 C1498 1.392 . S
C1497 C1501 1.495 . S
C1498 C1497 1.392 . S
C1498 C1499 1.385 . S
C1498 C1500 1.478 . S
C1499 H1493 0.930 . S
C1499 C1495 1.400 . S
C1499 C1498 1.385 . S
C1500 C1498 1.478 . S
C1500 C1502 1.381 . S
C1500 C1506 1.383 . S
C1501 C1497 1.495 . S
C1501 H1507 0.959 . S
C1501 H1508 0.961 . S
C1501 H1509 0.960 . S
C1502 C1500 1.381 . S
C1502 C1503 1.394 . S
C1502 H1510 0.930 . S
C1503 C1502 1.394 . S
C1503 C1504 1.383 . S
C1503 H1511 0.929 . S
C1504 C1503 1.383 . S
C1504 C1505 1.377 . S
C1505 H1489 0.930 . S
C1505 C1504 1.377 . S
C1505 C1506 1.379 . S
C1506 H1490 0.931 . S
C1506 C1500 1.383 . S
C1506 C1505 1.379 . S
H1507 C1501 0.959 . S
H1508 C1501 0.961 . S
H1509 C1501 0.960 . S
H1510 C1502 0.930 . S
H1511 C1503 0.929 . S
H1512 C1520 0.929 . S
H1513 C1522 0.930 . S
H1514 C1524 0.930 . S
H1515 C1527 0.929 . S
H1516 C1530 0.930 . S
H1517 C1532 0.960 . S
H1518 C1532 0.960 . S
H1519 C1532 0.960 . S
C1520 H1512 0.929 . S
C1520 C1521 1.377 . S
C1520 C1522 1.384 . S
C1521 C1520 1.377 . S
C1521 C1527 1.390 . S
C1522 H1513 0.930 . S
C1522 C1520 1.384 . S
C1522 C1523 1.372 . S
C1523 C1522 1.372 . S
C1523 C1524 1.400 . S
C1523 C1528 1.490 . S
C1524 H1514 0.930 . S
C1524 C1523 1.400 . S
C1524 C1527 1.386 . S
H1525 C1541 0.930 . S
H1526 C1542 0.931 . S
C1527 H1515 0.929 . S
C1527 C1521 1.390 . S
C1527 C1524 1.386 . S
C1528 C1523 1.490 . S
C1528 C1530 1.395 . S
C1528 C1531 1.403 . S
H1529 C1535 0.930 . S
C1530 H1516 0.930 . S
C1530 C1528 1.395 . S
C1530 C1533 1.403 . S
C1531 C1528 1.403 . S
C1531 C1532 1.524 . S
C1531 C1535 1.400 . S
C1532 H1517 0.960 . S
C1532 H1518 0.960 . S
C1532 H1519 0.960 . S
C1532 C1531 1.524 . S
C1533 C1530 1.403 . S
C1533 C1534 1.392 . S
C1533 C1537 1.495 . S
C1534 C1533 1.392 . S
C1534 C1535 1.385 . S
C1534 C1536 1.478 . S
C1535 H1529 0.930 . S
C1535 C1531 1.400 . S
C1535 C1534 1.385 . S
C1536 C1534 1.478 . S
C1536 C1538 1.381 . S
C1536 C1542 1.383 . S
C1537 C1533 1.495 . S
C1537 H1543 0.959 . S
C1537 H1544 0.961 . S
C1537 H1545 0.960 . S
C1538 C1536 1.381 . S
C1538 C1539 1.394 . S
C1538 H1546 0.930 . S
C1539 C1538 1.394 . S
C1539 C1540 1.383 . S
C1539 H1547 0.929 . S
C1540 C1539 1.383 . S
C1540 C1541 1.377 . S
C1541 H1525 0.930 . S
C1541 C1540 1.377 . S
C1541 C1542 1.379 . S
C1542 H1526 0.931 . S
C1542 C1536 1.383 . S
C1542 C1541 1.379 . S
H1543 C1537 0.959 . S
H1544 C1537 0.961 . S
H1545 C1537 0.960 . S
H1546 C1538 0.930 . S
H1547 C1539 0.929 . S
H1548 C1556 0.929 . S
H1549 C1558 0.930 . S
H1550 C1560 0.930 . S
H1551 C1563 0.929 . S
H1552 C1566 0.930 . S
H1553 C1568 0.960 . S
H1554 C1568 0.960 . S
H1555 C1568 0.960 . S
C1556 H1548 0.929 . S
C1556 C1557 1.377 . S
C1556 C1558 1.384 . S
C1557 C1556 1.377 . S
C1557 C1563 1.390 . S
C1558 H1549 0.930 . S
C1558 C1556 1.384 . S
C1558 C1559 1.372 . S
C1559 C1558 1.372 . S
C1559 C1560 1.400 . S
C1559 C1564 1.490 . S
C1560 H1550 0.930 . S
C1560 C1559 1.400 . S
C1560 C1563 1.386 . S
H1561 C1577 0.930 . S
H1562 C1578 0.931 . S
C1563 H1551 0.929 . S
C1563 C1557 1.390 . S
C1563 C1560 1.386 . S
C1564 C1559 1.490 . S
C1564 C1566 1.395 . S
C1564 C1567 1.403 . S
H1565 C1571 0.930 . S
C1566 H1552 0.930 . S
C1566 C1564 1.395 . S
C1566 C1569 1.403 . S
C1567 C1564 1.403 . S
C1567 C1568 1.524 . S
C1567 C1571 1.400 . S
C1568 H1553 0.960 . S
C1568 H1554 0.960 . S
C1568 H1555 0.960 . S
C1568 C1567 1.524 . S
C1569 C1566 1.403 . S
C1569 C1570 1.392 . S
C1569 C1573 1.495 . S
C1570 C1569 1.392 . S
C1570 C1571 1.385 . S
C1570 C1572 1.478 . S
C1571 H1565 0.930 . S
C1571 C1567 1.400 . S
C1571 C1570 1.385 . S
C1572 C1570 1.478 . S
C1572 C1574 1.381 . S
C1572 C1578 1.383 . S
C1573 C1569 1.495 . S
C1573 H1579 0.959 . S
C1573 H1580 0.961 . S
C1573 H1581 0.960 . S
C1574 C1572 1.381 . S
C1574 C1575 1.394 . S
C1574 H1582 0.930 . S
C1575 C1574 1.394 . S
C1575 C1576 1.383 . S
C1575 H1583 0.929 . S
C1576 C1575 1.383 . S
C1576 C1577 1.377 . S
C1577 H1561 0.930 . S
C1577 C1576 1.377 . S
C1577 C1578 1.379 . S
C1578 H1562 0.931 . S
C1578 C1572 1.383 . S
C1578 C1577 1.379 . S
H1579 C1573 0.959 . S
H1580 C1573 0.961 . S
H1581 C1573 0.960 . S
H1582 C1574 0.930 . S
H1583 C1575 0.929 . S
H1584 C1592 0.929 . S
H1585 C1594 0.930 . S
H1586 C1596 0.930 . S
H1587 C1599 0.929 . S
H1588 C1602 0.930 . S
H1589 C1604 0.960 . S
H1590 C1604 0.960 . S
H1591 C1604 0.960 . S
C1592 H1584 0.929 . S
C1592 C1593 1.377 . S
C1592 C1594 1.384 . S
C1593 C1592 1.377 . S
C1593 C1599 1.390 . S
C1594 H1585 0.930 . S
C1594 C1592 1.384 . S
C1594 C1595 1.372 . S
C1595 C1594 1.372 . S
C1595 C1596 1.400 . S
C1595 C1600 1.490 . S
C1596 H1586 0.930 . S
C1596 C1595 1.400 . S
C1596 C1599 1.386 . S
H1597 C1613 0.930 . S
H1598 C1614 0.931 . S
C1599 H1587 0.929 . S
C1599 C1593 1.390 . S
C1599 C1596 1.386 . S
C1600 C1595 1.490 . S
C1600 C1602 1.395 . S
C1600 C1603 1.403 . S
H1601 C1607 0.930 . S
C1602 H1588 0.930 . S
C1602 C1600 1.395 . S
C1602 C1605 1.403 . S
C1603 C1600 1.403 . S
C1603 C1604 1.524 . S
C1603 C1607 1.400 . S
C1604 H1589 0.960 . S
C1604 H1590 0.960 . S
C1604 H1591 0.960 . S
C1604 C1603 1.524 . S
C1605 C1602 1.403 . S
C1605 C1606 1.392 . S
C1605 C1609 1.495 . S
C1606 C1605 1.392 . S
C1606 C1607 1.385 . S
C1606 C1608 1.478 . S
C1607 H1601 0.930 . S
C1607 C1603 1.400 . S
C1607 C1606 1.385 . S
C1608 C1606 1.478 . S
C1608 C1610 1.381 . S
C1608 C1614 1.383 . S
C1609 C1605 1.495 . S
C1609 H1615 0.959 . S
C1609 H1616 0.961 . S
C1609 H1617 0.960 . S
C1610 C1608 1.381 . S
C1610 C1611 1.394 . S
C1610 H1618 0.930 . S
C1611 C1610 1.394 . S
C1611 C1612 1.383 . S
C1611 H1619 0.929 . S
C1612 C1611 1.383 . S
C1612 C1613 1.377 . S
C1613 H1597 0.930 . S
C1613 C1612 1.377 . S
C1613 C1614 1.379 . S
C1614 H1598 0.931 . S
C1614 C1608 1.383 . S
C1614 C1613 1.379 . S
H1615 C1609 0.959 . S
H1616 C1609 0.961 . S
H1617 C1609 0.960 . S
H1618 C1610 0.930 . S
H1619 C1611 0.929 . S
H1620 C1628 0.929 . S
H1621 C1630 0.930 . S
H1622 C1632 0.930 . S
H1623 C1635 0.929 . S
H1624 C1638 0.930 . S
H1625 C1640 0.960 . S
H1626 C1640 0.960 . S
H1627 C1640 0.960 . S
C1628 H1620 0.929 . S
C1628 C1629 1.377 . S
C1628 C1630 1.384 . S
C1629 C1628 1.377 . S
C1629 C1635 1.390 . S
C1630 H1621 0.930 . S
C1630 C1628 1.384 . S
C1630 C1631 1.372 . S
C1631 C1630 1.372 . S
C1631 C1632 1.400 . S
C1631 C1636 1.490 . S
C1632 H1622 0.930 . S
C1632 C1631 1.400 . S
C1632 C1635 1.386 . S
H1633 C1649 0.930 . S
H1634 C1650 0.931 . S
C1635 H1623 0.929 . S
C1635 C1629 1.390 . S
C1635 C1632 1.386 . S
C1636 C1631 1.490 . S
C1636 C1638 1.395 . S
C1636 C1639 1.403 . S
H1637 C1643 0.930 . S
C1638 H1624 0.930 . S
C1638 C1636 1.395 . S
C1638 C1641 1.403 . S
C1639 C1636 1.403 . S
C1639 C1640 1.524 . S
C1639 C1643 1.400 . S
C1640 H1625 0.960 . S
C1640 H1626 0.960 . S
C1640 H1627 0.960 . S
C1640 C1639 1.524 . S
C1641 C1638 1.403 . S
C1641 C1642 1.392 . S
C1641 C1645 1.495 . S
C1642 C1641 1.392 . S
C1642 C1643 1.385 . S
C1642 C1644 1.478 . S
C1643 H1637 0.930 . S
C1643 C1639 1.400 . S
C1643 C1642 1.385 . S
C1644 C1642 1.478 . S
C1644 C1646 1.381 . S
C1644 C1650 1.383 . S
C1645 C1641 1.495 . S
C1645 H1651 0.959 . S
C1645 H1652 0.961 . S
C1645 H1653 0.960 . S
C1646 C1644 1.381 . S
C1646 C1647 1.394 . S
C1646 H1654 0.930 . S
C1647 C1646 1.394 . S
C1647 C1648 1.383 . S
C1647 H1655 0.929 . S
C1648 C1647 1.383 . S
C1648 C1649 1.377 . S
C1649 H1633 0.930 . S
C1649 C1648 1.377 . S
C1649 C1650 1.379 . S
C1650 H1634 0.931 . S
C1650 C1644 1.383 . S
C1650 C1649 1.379 . S
H1651 C1645 0.959 . S
H1652 C1645 0.961 . S
H1653 C1645 0.960 . S
H1654 C1646 0.930 . S
H1655 C1647 0.929 . S
H1656 C1664 0.929 . S
H1657 C1666 0.930 . S
H1658 C1668 0.930 . S
H1659 C1671 0.929 . S
H1660 C1674 0.930 . S
H1661 C1676 0.960 . S
H1662 C1676 0.960 . S
H1663 C1676 0.960 . S
C1664 H1656 0.929 . S
C1664 C1665 1.377 . S
C1664 C1666 1.384 . S
C1665 C1664 1.377 . S
C1665 C1671 1.390 . S
C1666 H1657 0.930 . S
C1666 C1664 1.384 . S
C1666 C1667 1.372 . S
C1667 C1666 1.372 . S
C1667 C1668 1.400 . S
C1667 C1672 1.490 . S
C1668 H1658 0.930 . S
C1668 C1667 1.400 . S
C1668 C1671 1.386 . S
H1669 C1685 0.930 . S
H1670 C1686 0.931 . S
C1671 H1659 0.929 . S
C1671 C1665 1.390 . S
C1671 C1668 1.386 . S
C1672 C1667 1.490 . S
C1672 C1674 1.395 . S
C1672 C1675 1.403 . S
H1673 C1679 0.930 . S
C1674 H1660 0.930 . S
C1674 C1672 1.395 . S
C1674 C1677 1.403 . S
C1675 C1672 1.403 . S
C1675 C1676 1.524 . S
C1675 C1679 1.400 . S
C1676 H1661 0.960 . S
C1676 H1662 0.960 . S
C1676 H1663 0.960 . S
C1676 C1675 1.524 . S
C1677 C1674 1.403 . S
C1677 C1678 1.392 . S
C1677 C1681 1.495 . S
C1678 C1677 1.392 . S
C1678 C1679 1.385 . S
C1678 C1680 1.478 . S
C1679 H1673 0.930 . S
C1679 C1675 1.400 . S
C1679 C1678 1.385 . S
C1680 C1678 1.478 . S
C1680 C1682 1.381 . S
C1680 C1686 1.383 . S
C1681 C1677 1.495 . S
C1681 H1687 0.959 . S
C1681 H1688 0.961 . S
C1681 H1689 0.960 . S
C1682 C1680 1.381 . S
C1682 C1683 1.394 . S
C1682 H1690 0.930 . S
C1683 C1682 1.394 . S
C1683 C1684 1.383 . S
C1683 H1691 0.929 . S
C1684 C1683 1.383 . S
C1684 C1685 1.377 . S
C1685 H1669 0.930 . S
C1685 C1684 1.377 . S
C1685 C1686 1.379 . S
C1686 H1670 0.931 . S
C1686 C1680 1.383 . S
C1686 C1685 1.379 . S
H1687 C1681 0.959 . S
H1688 C1681 0.961 . S
H1689 C1681 0.960 . S
H1690 C1682 0.930 . S
H1691 C1683 0.929 . S
H1692 C1700 0.929 . S
H1693 C1702 0.930 . S
H1694 C1704 0.930 . S
H1695 C1707 0.929 . S
H1696 C1710 0.930 . S
H1697 C1712 0.960 . S
H1698 C1712 0.960 . S
H1699 C1712 0.960 . S
C1700 H1692 0.929 . S
C1700 C1701 1.377 . S
C1700 C1702 1.384 . S
C1701 C1700 1.377 . S
C1701 C1707 1.390 . S
C1702 H1693 0.930 . S
C1702 C1700 1.384 . S
C1702 C1703 1.372 . S
C1703 C1702 1.372 . S
C1703 C1704 1.400 . S
C1703 C1708 1.490 . S
C1704 H1694 0.930 . S
C1704 C1703 1.400 . S
C1704 C1707 1.386 . S
H1705 C1721 0.930 . S
H1706 C1722 0.931 . S
C1707 H1695 0.929 . S
C1707 C1701 1.390 . S
C1707 C1704 1.386 . S
C1708 C1703 1.490 . S
C1708 C1710 1.395 . S
C1708 C1711 1.403 . S
H1709 C1715 0.930 . S
C1710 H1696 0.930 . S
C1710 C1708 1.395 . S
C1710 C1713 1.403 . S
C1711 C1708 1.403 . S
C1711 C1712 1.524 . S
C1711 C1715 1.400 . S
C1712 H1697 0.960 . S
C1712 H1698 0.960 . S
C1712 H1699 0.960 . S
C1712 C1711 1.524 . S
C1713 C1710 1.403 . S
C1713 C1714 1.392 . S
C1713 C1717 1.495 . S
C1714 C1713 1.392 . S
C1714 C1715 1.385 . S
C1714 C1716 1.478 . S
C1715 H1709 0.930 . S
C1715 C1711 1.400 . S
C1715 C1714 1.385 . S
C1716 C1714 1.478 . S
C1716 C1718 1.381 . S
C1716 C1722 1.383 . S
C1717 C1713 1.495 . S
C1717 H1723 0.959 . S
C1717 H1724 0.961 . S
C1717 H1725 0.960 . S
C1718 C1716 1.381 . S
C1718 C1719 1.394 . S
C1718 H1726 0.930 . S
C1719 C1718 1.394 . S
C1719 C1720 1.383 . S
C1719 H1727 0.929 . S
C1720 C1719 1.383 . S
C1720 C1721 1.377 . S
C1721 H1705 0.930 . S
C1721 C1720 1.377 . S
C1721 C1722 1.379 . S
C1722 H1706 0.931 . S
C1722 C1716 1.383 . S
C1722 C1721 1.379 . S
H1723 C1717 0.959 . S
H1724 C1717 0.961 . S
H1725 C1717 0.960 . S
H1726 C1718 0.930 . S
H1727 C1719 0.929 . S
H1728 C1736 0.929 . S
H1729 C1738 0.930 . S
H1730 C1740 0.930 . S
H1731 C1743 0.929 . S
H1732 C1746 0.930 . S
H1733 C1748 0.960 . S
H1734 C1748 0.960 . S
H1735 C1748 0.960 . S
C1736 H1728 0.929 . S
C1736 C1737 1.377 . S
C1736 C1738 1.384 . S
C1737 C1736 1.377 . S
C1737 C1743 1.390 . S
C1738 H1729 0.930 . S
C1738 C1736 1.384 . S
C1738 C1739 1.372 . S
C1739 C1738 1.372 . S
C1739 C1740 1.400 . S
C1739 C1744 1.490 . S
C1740 H1730 0.930 . S
C1740 C1739 1.400 . S
C1740 C1743 1.386 . S
H1741 C1757 0.930 . S
H1742 C1758 0.931 . S
C1743 H1731 0.929 . S
C1743 C1737 1.390 . S
C1743 C1740 1.386 . S
C1744 C1739 1.490 . S
C1744 C1746 1.395 . S
C1744 C1747 1.403 . S
H1745 C1751 0.930 . S
C1746 H1732 0.930 . S
C1746 C1744 1.395 . S
C1746 C1749 1.403 . S
C1747 C1744 1.403 . S
C1747 C1748 1.524 . S
C1747 C1751 1.400 . S
C1748 H1733 0.960 . S
C1748 H1734 0.960 . S
C1748 H1735 0.960 . S
C1748 C1747 1.524 . S
C1749 C1746 1.403 . S
C1749 C1750 1.392 . S
C1749 C1753 1.495 . S
C1750 C1749 1.392 . S
C1750 C1751 1.385 . S
C1750 C1752 1.478 . S
C1751 H1745 0.930 . S
C1751 C1747 1.400 . S
C1751 C1750 1.385 . S
C1752 C1750 1.478 . S
C1752 C1754 1.381 . S
C1752 C1758 1.383 . S
C1753 C1749 1.495 . S
C1753 H1759 0.959 . S
C1753 H1760 0.961 . S
C1753 H1761 0.960 . S
C1754 C1752 1.381 . S
C1754 C1755 1.394 . S
C1754 H1762 0.930 . S
C1755 C1754 1.394 . S
C1755 C1756 1.383 . S
C1755 H1763 0.929 . S
C1756 C1755 1.383 . S
C1756 C1757 1.377 . S
C1757 H1741 0.930 . S
C1757 C1756 1.377 . S
C1757 C1758 1.379 . S
C1758 H1742 0.931 . S
C1758 C1752 1.383 . S
C1758 C1757 1.379 . S
H1759 C1753 0.959 . S
H1760 C1753 0.961 . S
H1761 C1753 0.960 . S
H1762 C1754 0.930 . S
H1763 C1755 0.929 . S
H1764 C1772 0.929 . S
H1765 C1774 0.930 . S
H1766 C1776 0.930 . S
H1767 C1779 0.929 . S
H1768 C1782 0.930 . S
H1769 C1784 0.960 . S
H1770 C1784 0.960 . S
H1771 C1784 0.960 . S
C1772 H1764 0.929 . S
C1772 C1773 1.377 . S
C1772 C1774 1.384 . S
C1773 C1772 1.377 . S
C1773 C1779 1.390 . S
C1774 H1765 0.930 . S
C1774 C1772 1.384 . S
C1774 C1775 1.372 . S
C1775 C1774 1.372 . S
C1775 C1776 1.400 . S
C1775 C1780 1.490 . S
C1776 H1766 0.930 . S
C1776 C1775 1.400 . S
C1776 C1779 1.386 . S
H1777 C1793 0.930 . S
H1778 C1794 0.931 . S
C1779 H1767 0.929 . S
C1779 C1773 1.390 . S
C1779 C1776 1.386 . S
C1780 C1775 1.490 . S
C1780 C1782 1.395 . S
C1780 C1783 1.403 . S
H1781 C1787 0.930 . S
C1782 H1768 0.930 . S
C1782 C1780 1.395 . S
C1782 C1785 1.403 . S
C1783 C1780 1.403 . S
C1783 C1784 1.524 . S
C1783 C1787 1.400 . S
C1784 H1769 0.960 . S
C1784 H1770 0.960 . S
C1784 H1771 0.960 . S
C1784 C1783 1.524 . S
C1785 C1782 1.403 . S
C1785 C1786 1.392 . S
C1785 C1789 1.495 . S
C1786 C1785 1.392 . S
C1786 C1787 1.385 . S
C1786 C1788 1.478 . S
C1787 H1781 0.930 . S
C1787 C1783 1.400 . S
C1787 C1786 1.385 . S
C1788 C1786 1.478 . S
C1788 C1790 1.381 . S
C1788 C1794 1.383 . S
C1789 C1785 1.495 . S
C1789 H1795 0.959 . S
C1789 H1796 0.961 . S
C1789 H1797 0.960 . S
C1790 C1788 1.381 . S
C1790 C1791 1.394 . S
C1790 H1798 0.930 . S
C1791 C1790 1.394 . S
C1791 C1792 1.383 . S
C1791 H1799 0.929 . S
C1792 C1791 1.383 . S
C1792 C1793 1.377 . S
C1793 H1777 0.930 . S
C1793 C1792 1.377 . S
C1793 C1794 1.379 . S
C1794 H1778 0.931 . S
C1794 C1788 1.383 . S
C1794 C1793 1.379 . S
H1795 C1789 0.959 . S
H1796 C1789 0.961 . S
H1797 C1789 0.960 . S
H1798 C1790 0.930 . S
H1799 C1791 0.929 . S
H1800 C1808 0.929 . S
H1801 C1810 0.930 . S
H1802 C1812 0.930 . S
H1803 C1815 0.929 . S
H1804 C1818 0.930 . S
H1805 C1820 0.960 . S
H1806 C1820 0.960 . S
H1807 C1820 0.960 . S
C1808 H1800 0.929 . S
C1808 C1809 1.377 . S
C1808 C1810 1.384 . S
C1809 C1808 1.377 . S
C1809 C1815 1.390 . S
C1810 H1801 0.930 . S
C1810 C1808 1.384 . S
C1810 C1811 1.372 . S
C1811 C1810 1.372 . S
C1811 C1812 1.400 . S
C1811 C1816 1.490 . S
C1812 H1802 0.930 . S
C1812 C1811 1.400 . S
C1812 C1815 1.386 . S
H1813 C1829 0.930 . S
H1814 C1830 0.931 . S
C1815 H1803 0.929 . S
C1815 C1809 1.390 . S
C1815 C1812 1.386 . S
C1816 C1811 1.490 . S
C1816 C1818 1.395 . S
C1816 C1819 1.403 . S
H1817 C1823 0.930 . S
C1818 H1804 0.930 . S
C1818 C1816 1.395 . S
C1818 C1821 1.403 . S
C1819 C1816 1.403 . S
C1819 C1820 1.524 . S
C1819 C1823 1.400 . S
C1820 H1805 0.960 . S
C1820 H1806 0.960 . S
C1820 H1807 0.960 . S
C1820 C1819 1.524 . S
C1821 C1818 1.403 . S
C1821 C1822 1.392 . S
C1821 C1825 1.495 . S
C1822 C1821 1.392 . S
C1822 C1823 1.385 . S
C1822 C1824 1.478 . S
C1823 H1817 0.930 . S
C1823 C1819 1.400 . S
C1823 C1822 1.385 . S
C1824 C1822 1.478 . S
C1824 C1826 1.381 . S
C1824 C1830 1.383 . S
C1825 C1821 1.495 . S
C1825 H1831 0.959 . S
C1825 H1832 0.961 . S
C1825 H1833 0.960 . S
C1826 C1824 1.381 . S
C1826 C1827 1.394 . S
C1826 H1834 0.930 . S
C1827 C1826 1.394 . S
C1827 C1828 1.383 . S
C1827 H1835 0.929 . S
C1828 C1827 1.383 . S
C1828 C1829 1.377 . S
C1829 H1813 0.930 . S
C1829 C1828 1.377 . S
C1829 C1830 1.379 . S
C1830 H1814 0.931 . S
C1830 C1824 1.383 . S
C1830 C1829 1.379 . S
H1831 C1825 0.959 . S
H1832 C1825 0.961 . S
H1833 C1825 0.960 . S
H1834 C1826 0.930 . S
H1835 C1827 0.929 . S
H1836 C1844 0.929 . S
H1837 C1846 0.930 . S
H1838 C1848 0.930 . S
H1839 C1851 0.929 . S
H1840 C1854 0.930 . S
H1841 C1856 0.960 . S
H1842 C1856 0.960 . S
H1843 C1856 0.960 . S
C1844 H1836 0.929 . S
C1844 C1845 1.377 . S
C1844 C1846 1.384 . S
C1845 C1844 1.377 . S
C1845 C1851 1.390 . S
C1846 H1837 0.930 . S
C1846 C1844 1.384 . S
C1846 C1847 1.372 . S
C1847 C1846 1.372 . S
C1847 C1848 1.400 . S
C1847 C1852 1.490 . S
C1848 H1838 0.930 . S
C1848 C1847 1.400 . S
C1848 C1851 1.386 . S
H1849 C1865 0.930 . S
H1850 C1866 0.931 . S
C1851 H1839 0.929 . S
C1851 C1845 1.390 . S
C1851 C1848 1.386 . S
C1852 C1847 1.490 . S
C1852 C1854 1.395 . S
C1852 C1855 1.403 . S
H1853 C1859 0.930 . S
C1854 H1840 0.930 . S
C1854 C1852 1.395 . S
C1854 C1857 1.403 . S
C1855 C1852 1.403 . S
C1855 C1856 1.524 . S
C1855 C1859 1.400 . S
C1856 H1841 0.960 . S
C1856 H1842 0.960 . S
C1856 H1843 0.960 . S
C1856 C1855 1.524 . S
C1857 C1854 1.403 . S
C1857 C1858 1.392 . S
C1857 C1861 1.495 . S
C1858 C1857 1.392 . S
C1858 C1859 1.385 . S
C1858 C1860 1.478 . S
C1859 H1853 0.930 . S
C1859 C1855 1.400 . S
C1859 C1858 1.385 . S
C1860 C1858 1.478 . S
C1860 C1862 1.381 . S
C1860 C1866 1.383 . S
C1861 C1857 1.495 . S
C1861 H1867 0.959 . S
C1861 H1868 0.961 . S
C1861 H1869 0.960 . S
C1862 C1860 1.381 . S
C1862 C1863 1.394 . S
C1862 H1870 0.930 . S
C1863 C1862 1.394 . S
C1863 C1864 1.383 . S
C1863 H1871 0.929 . S
C1864 C1863 1.383 . S
C1864 C1865 1.377 . S
C1865 H1849 0.930 . S
C1865 C1864 1.377 . S
C1865 C1866 1.379 . S
C1866 H1850 0.931 . S
C1866 C1860 1.383 . S
C1866 C1865 1.379 . S
H1867 C1861 0.959 . S
H1868 C1861 0.961 . S
H1869 C1861 0.960 . S
H1870 C1862 0.930 . S
H1871 C1863 0.929 . S
H1872 C1880 0.929 . S
H1873 C1882 0.930 . S
H1874 C1884 0.930 . S
H1875 C1887 0.929 . S
H1876 C1890 0.930 . S
H1877 C1892 0.960 . S
H1878 C1892 0.960 . S
H1879 C1892 0.960 . S
C1880 H1872 0.929 . S
C1880 C1881 1.377 . S
C1880 C1882 1.384 . S
C1881 C1880 1.377 . S
C1881 C1887 1.390 . S
C1882 H1873 0.930 . S
C1882 C1880 1.384 . S
C1882 C1883 1.372 . S
C1883 C1882 1.372 . S
C1883 C1884 1.400 . S
C1883 C1888 1.490 . S
C1884 H1874 0.930 . S
C1884 C1883 1.400 . S
C1884 C1887 1.386 . S
H1885 C1901 0.930 . S
H1886 C1902 0.931 . S
C1887 H1875 0.929 . S
C1887 C1881 1.390 . S
C1887 C1884 1.386 . S
C1888 C1883 1.490 . S
C1888 C1890 1.395 . S
C1888 C1891 1.403 . S
H1889 C1895 0.930 . S
C1890 H1876 0.930 . S
C1890 C1888 1.395 . S
C1890 C1893 1.403 . S
C1891 C1888 1.403 . S
C1891 C1892 1.524 . S
C1891 C1895 1.400 . S
C1892 H1877 0.960 . S
C1892 H1878 0.960 . S
C1892 H1879 0.960 . S
C1892 C1891 1.524 . S
C1893 C1890 1.403 . S
C1893 C1894 1.392 . S
C1893 C1897 1.495 . S
C1894 C1893 1.392 . S
C1894 C1895 1.385 . S
C1894 C1896 1.478 . S
C1895 H1889 0.930 . S
C1895 C1891 1.400 . S
C1895 C1894 1.385 . S
C1896 C1894 1.478 . S
C1896 C1898 1.381 . S
C1896 C1902 1.383 . S
C1897 C1893 1.495 . S
C1897 H1903 0.959 . S
C1897 H1904 0.961 . S
C1897 H1905 0.960 . S
C1898 C1896 1.381 . S
C1898 C1899 1.394 . S
C1898 H1906 0.930 . S
C1899 C1898 1.394 . S
C1899 C1900 1.383 . S
C1899 H1907 0.929 . S
C1900 C1899 1.383 . S
C1900 C1901 1.377 . S
C1901 H1885 0.930 . S
C1901 C1900 1.377 . S
C1901 C1902 1.379 . S
C1902 H1886 0.931 . S
C1902 C1896 1.383 . S
C1902 C1901 1.379 . S
H1903 C1897 0.959 . S
H1904 C1897 0.961 . S
H1905 C1897 0.960 . S
H1906 C1898 0.930 . S
H1907 C1899 0.929 . S
H1908 C1916 0.929 . S
H1909 C1918 0.930 . S
H1910 C1920 0.930 . S
H1911 C1923 0.929 . S
H1912 C1926 0.930 . S
H1913 C1928 0.960 . S
H1914 C1928 0.960 . S
H1915 C1928 0.960 . S
C1916 H1908 0.929 . S
C1916 C1917 1.377 . S
C1916 C1918 1.384 . S
C1917 C1916 1.377 . S
C1917 C1923 1.390 . S
C1918 H1909 0.930 . S
C1918 C1916 1.384 . S
C1918 C1919 1.372 . S
C1919 C1918 1.372 . S
C1919 C1920 1.400 . S
C1919 C1924 1.490 . S
C1920 H1910 0.930 . S
C1920 C1919 1.400 . S
C1920 C1923 1.386 . S
H1921 C1937 0.930 . S
H1922 C1938 0.931 . S
C1923 H1911 0.929 . S
C1923 C1917 1.390 . S
C1923 C1920 1.386 . S
C1924 C1919 1.490 . S
C1924 C1926 1.395 . S
C1924 C1927 1.403 . S
H1925 C1931 0.930 . S
C1926 H1912 0.930 . S
C1926 C1924 1.395 . S
C1926 C1929 1.403 . S
C1927 C1924 1.403 . S
C1927 C1928 1.524 . S
C1927 C1931 1.400 . S
C1928 H1913 0.960 . S
C1928 H1914 0.960 . S
C1928 H1915 0.960 . S
C1928 C1927 1.524 . S
C1929 C1926 1.403 . S
C1929 C1930 1.392 . S
C1929 C1933 1.495 . S
C1930 C1929 1.392 . S
C1930 C1931 1.385 . S
C1930 C1932 1.478 . S
C1931 H1925 0.930 . S
C1931 C1927 1.400 . S
C1931 C1930 1.385 . S
C1932 C1930 1.478 . S
C1932 C1934 1.381 . S
C1932 C1938 1.383 . S
C1933 C1929 1.495 . S
C1933 H1939 0.959 . S
C1933 H1940 0.961 . S
C1933 H1941 0.960 . S
C1934 C1932 1.381 . S
C1934 C1935 1.394 . S
C1934 H1942 0.930 . S
C1935 C1934 1.394 . S
C1935 C1936 1.383 . S
C1935 H1943 0.929 . S
C1936 C1935 1.383 . S
C1936 C1937 1.377 . S
C1937 H1921 0.930 . S
C1937 C1936 1.377 . S
C1937 C1938 1.379 . S
C1938 H1922 0.931 . S
C1938 C1932 1.383 . S
C1938 C1937 1.379 . S
H1939 C1933 0.959 . S
H1940 C1933 0.961 . S
H1941 C1933 0.960 . S
H1942 C1934 0.930 . S
H1943 C1935 0.929 . S
H1944 C1952 0.929 . S
H1945 C1954 0.930 . S
H1946 C1956 0.930 . S
H1947 C1959 0.929 . S
H1948 C1962 0.930 . S
H1949 C1964 0.960 . S
H1950 C1964 0.960 . S
H1951 C1964 0.960 . S
C1952 H1944 0.929 . S
C1952 C1953 1.377 . S
C1952 C1954 1.384 . S
C1953 C1952 1.377 . S
C1953 C1959 1.390 . S
C1954 H1945 0.930 . S
C1954 C1952 1.384 . S
C1954 C1955 1.372 . S
C1955 C1954 1.372 . S
C1955 C1956 1.400 . S
C1955 C1960 1.490 . S
C1956 H1946 0.930 . S
C1956 C1955 1.400 . S
C1956 C1959 1.386 . S
H1957 C1973 0.930 . S
H1958 C1974 0.931 . S
C1959 H1947 0.929 . S
C1959 C1953 1.390 . S
C1959 C1956 1.386 . S
C1960 C1955 1.490 . S
C1960 C1962 1.395 . S
C1960 C1963 1.403 . S
H1961 C1967 0.930 . S
C1962 H1948 0.930 . S
C1962 C1960 1.395 . S
C1962 C1965 1.403 . S
C1963 C1960 1.403 . S
C1963 C1964 1.524 . S
C1963 C1967 1.400 . S
C1964 H1949 0.960 . S
C1964 H1950 0.960 . S
C1964 H1951 0.960 . S
C1964 C1963 1.524 . S
C1965 C1962 1.403 . S
C1965 C1966 1.392 . S
C1965 C1969 1.495 . S
C1966 C1965 1.392 . S
C1966 C1967 1.385 . S
C1966 C1968 1.478 . S
C1967 H1961 0.930 . S
C1967 C1963 1.400 . S
C1967 C1966 1.385 . S
C1968 C1966 1.478 . S
C1968 C1970 1.381 . S
C1968 C1974 1.383 . S
C1969 C1965 1.495 . S
C1969 H1975 0.959 . S
C1969 H1976 0.961 . S
C1969 H1977 0.960 . S
C1970 C1968 1.381 . S
C1970 C1971 1.394 . S
C1970 H1978 0.930 . S
C1971 C1970 1.394 . S
C1971 C1972 1.383 . S
C1971 H1979 0.929 . S
C1972 C1971 1.383 . S
C1972 C1973 1.377 . S
C1973 H1957 0.930 . S
C1973 C1972 1.377 . S
C1973 C1974 1.379 . S
C1974 H1958 0.931 . S
C1974 C1968 1.383 . S
C1974 C1973 1.379 . S
H1975 C1969 0.959 . S
H1976 C1969 0.961 . S
H1977 C1969 0.960 . S
H1978 C1970 0.930 . S
H1979 C1971 0.929 . S
H1980 C1988 0.929 . S
H1981 C1990 0.930 . S
H1982 C1992 0.930 . S
H1983 C1995 0.929 . S
H1984 C1998 0.930 . S
H1985 C2000 0.960 . S
H1986 C2000 0.960 . S
H1987 C2000 0.960 . S
C1988 H1980 0.929 . S
C1988 C1989 1.377 . S
C1988 C1990 1.384 . S
C1989 C1988 1.377 . S
C1989 C1995 1.390 . S
C1990 H1981 0.930 . S
C1990 C1988 1.384 . S
C1990 C1991 1.372 . S
C1991 C1990 1.372 . S
C1991 C1992 1.400 . S
C1991 C1996 1.490 . S
C1992 H1982 0.930 . S
C1992 C1991 1.400 . S
C1992 C1995 1.386 . S
H1993 C2009 0.930 . S
H1994 C2010 0.931 . S
C1995 H1983 0.929 . S
C1995 C1989 1.390 . S
C1995 C1992 1.386 . S
C1996 C1991 1.490 . S
C1996 C1998 1.395 . S
C1996 C1999 1.403 . S
H1997 C2003 0.930 . S
C1998 H1984 0.930 . S
C1998 C1996 1.395 . S
C1998 C2001 1.403 . S
C1999 C1996 1.403 . S
C1999 C2000 1.524 . S
C1999 C2003 1.400 . S
C2000 H1985 0.960 . S
C2000 H1986 0.960 . S
C2000 H1987 0.960 . S
C2000 C1999 1.524 . S
C2001 C1998 1.403 . S
C2001 C2002 1.392 . S
C2001 C2005 1.495 . S
C2002 C2001 1.392 . S
C2002 C2003 1.385 . S
C2002 C2004 1.478 . S
C2003 H1997 0.930 . S
C2003 C1999 1.400 . S
C2003 C2002 1.385 . S
C2004 C2002 1.478 . S
C2004 C2006 1.381 . S
C2004 C2010 1.383 . S
C2005 C2001 1.495 . S
C2005 H2011 0.959 . S
C2005 H2012 0.961 . S
C2005 H2013 0.960 . S
C2006 C2004 1.381 . S
C2006 C2007 1.394 . S
C2006 H2014 0.930 . S
C2007 C2006 1.394 . S
C2007 C2008 1.383 . S
C2007 H2015 0.929 . S
C2008 C2007 1.383 . S
C2008 C2009 1.377 . S
C2009 H1993 0.930 . S
C2009 C2008 1.377 . S
C2009 C2010 1.379 . S
C2010 H1994 0.931 . S
C2010 C2004 1.383 . S
C2010 C2009 1.379 . S
H2011 C2005 0.959 . S
H2012 C2005 0.961 . S
H2013 C2005 0.960 . S
H2014 C2006 0.930 . S
H2015 C2007 0.929 . S
H2016 C2024 0.929 . S
H2017 C2026 0.930 . S
H2018 C2028 0.930 . S
H2019 C2031 0.929 . S
H2020 C2034 0.930 . S
H2021 C2036 0.960 . S
H2022 C2036 0.960 . S
H2023 C2036 0.960 . S
C2024 H2016 0.929 . S
C2024 C2025 1.377 . S
C2024 C2026 1.384 . S
C2025 C2024 1.377 . S
C2025 C2031 1.390 . S
C2026 H2017 0.930 . S
C2026 C2024 1.384 . S
C2026 C2027 1.372 . S
C2027 C2026 1.372 . S
C2027 C2028 1.400 . S
C2027 C2032 1.490 . S
C2028 H2018 0.930 . S
C2028 C2027 1.400 . S
C2028 C2031 1.386 . S
H2029 C2045 0.930 . S
H2030 C2046 0.931 . S
C2031 H2019 0.929 . S
C2031 C2025 1.390 . S
C2031 C2028 1.386 . S
C2032 C2027 1.490 . S
C2032 C2034 1.395 . S
C2032 C2035 1.403 . S
H2033 C2039 0.930 . S
C2034 H2020 0.930 . S
C2034 C2032 1.395 . S
C2034 C2037 1.403 . S
C2035 C2032 1.403 . S
C2035 C2036 1.524 . S
C2035 C2039 1.400 . S
C2036 H2021 0.960 . S
C2036 H2022 0.960 . S
C2036 H2023 0.960 . S
C2036 C2035 1.524 . S
C2037 C2034 1.403 . S
C2037 C2038 1.392 . S
C2037 C2041 1.495 . S
C2038 C2037 1.392 . S
C2038 C2039 1.385 . S
C2038 C2040 1.478 . S
C2039 H2033 0.930 . S
C2039 C2035 1.400 . S
C2039 C2038 1.385 . S
C2040 C2038 1.478 . S
C2040 C2042 1.381 . S
C2040 C2046 1.383 . S
C2041 C2037 1.495 . S
C2041 H2047 0.959 . S
C2041 H2048 0.961 . S
C2041 H2049 0.960 . S
C2042 C2040 1.381 . S
C2042 C2043 1.394 . S
C2042 H2050 0.930 . S
C2043 C2042 1.394 . S
C2043 C2044 1.383 . S
C2043 H2051 0.929 . S
C2044 C2043 1.383 . S
C2044 C2045 1.377 . S
C2045 H2029 0.930 . S
C2045 C2044 1.377 . S
C2045 C2046 1.379 . S
C2046 H2030 0.931 . S
C2046 C2040 1.383 . S
C2046 C2045 1.379 . S
H2047 C2041 0.959 . S
H2048 C2041 0.961 . S
H2049 C2041 0.960 . S
H2050 C2042 0.930 . S
H2051 C2043 0.929 . S
H2052 C2060 0.929 . S
H2053 C2062 0.930 . S
H2054 C2064 0.930 . S
H2055 C2067 0.929 . S
H2056 C2070 0.930 . S
H2057 C2072 0.960 . S
H2058 C2072 0.960 . S
H2059 C2072 0.960 . S
C2060 H2052 0.929 . S
C2060 C2061 1.377 . S
C2060 C2062 1.384 . S
C2061 C2060 1.377 . S
C2061 C2067 1.390 . S
C2062 H2053 0.930 . S
C2062 C2060 1.384 . S
C2062 C2063 1.372 . S
C2063 C2062 1.372 . S
C2063 C2064 1.400 . S
C2063 C2068 1.490 . S
C2064 H2054 0.930 . S
C2064 C2063 1.400 . S
C2064 C2067 1.386 . S
H2065 C2081 0.930 . S
H2066 C2082 0.931 . S
C2067 H2055 0.929 . S
C2067 C2061 1.390 . S
C2067 C2064 1.386 . S
C2068 C2063 1.490 . S
C2068 C2070 1.395 . S
C2068 C2071 1.403 . S
H2069 C2075 0.930 . S
C2070 H2056 0.930 . S
C2070 C2068 1.395 . S
C2070 C2073 1.403 . S
C2071 C2068 1.403 . S
C2071 C2072 1.524 . S
C2071 C2075 1.400 . S
C2072 H2057 0.960 . S
C2072 H2058 0.960 . S
C2072 H2059 0.960 . S
C2072 C2071 1.524 . S
C2073 C2070 1.403 . S
C2073 C2074 1.392 . S
C2073 C2077 1.495 . S
C2074 C2073 1.392 . S
C2074 C2075 1.385 . S
C2074 C2076 1.478 . S
C2075 H2069 0.930 . S
C2075 C2071 1.400 . S
C2075 C2074 1.385 . S
C2076 C2074 1.478 . S
C2076 C2078 1.381 . S
C2076 C2082 1.383 . S
C2077 C2073 1.495 . S
C2077 H2083 0.959 . S
C2077 H2084 0.961 . S
C2077 H2085 0.960 . S
C2078 C2076 1.381 . S
C2078 C2079 1.394 . S
C2078 H2086 0.930 . S
C2079 C2078 1.394 . S
C2079 C2080 1.383 . S
C2079 H2087 0.929 . S
C2080 C2079 1.383 . S
C2080 C2081 1.377 . S
C2081 H2065 0.930 . S
C2081 C2080 1.377 . S
C2081 C2082 1.379 . S
C2082 H2066 0.931 . S
C2082 C2076 1.383 . S
C2082 C2081 1.379 . S
H2083 C2077 0.959 . S
H2084 C2077 0.961 . S
H2085 C2077 0.960 . S
H2086 C2078 0.930 . S
H2087 C2079 0.929 . S
H2088 C2096 0.929 . S
H2089 C2098 0.930 . S
H2090 C2100 0.930 . S
H2091 C2103 0.929 . S
H2092 C2106 0.930 . S
H2093 C2108 0.960 . S
H2094 C2108 0.960 . S
H2095 C2108 0.960 . S
C2096 H2088 0.929 . S
C2096 C2097 1.377 . S
C2096 C2098 1.384 . S
C2097 C2096 1.377 . S
C2097 C2103 1.390 . S
C2098 H2089 0.930 . S
C2098 C2096 1.384 . S
C2098 C2099 1.372 . S
C2099 C2098 1.372 . S
C2099 C2100 1.400 . S
C2099 C2104 1.490 . S
C2100 H2090 0.930 . S
C2100 C2099 1.400 . S
C2100 C2103 1.386 . S
H2101 C2117 0.930 . S
H2102 C2118 0.931 . S
C2103 H2091 0.929 . S
C2103 C2097 1.390 . S
C2103 C2100 1.386 . S
C2104 C2099 1.490 . S
C2104 C2106 1.395 . S
C2104 C2107 1.403 . S
H2105 C2111 0.930 . S
C2106 H2092 0.930 . S
C2106 C2104 1.395 . S
C2106 C2109 1.403 . S
C2107 C2104 1.403 . S
C2107 C2108 1.524 . S
C2107 C2111 1.400 . S
C2108 H2093 0.960 . S
C2108 H2094 0.960 . S
C2108 H2095 0.960 . S
C2108 C2107 1.524 . S
C2109 C2106 1.403 . S
C2109 C2110 1.392 . S
C2109 C2113 1.495 . S
C2110 C2109 1.392 . S
C2110 C2111 1.385 . S
C2110 C2112 1.478 . S
C2111 H2105 0.930 . S
C2111 C2107 1.400 . S
C2111 C2110 1.385 . S
C2112 C2110 1.478 . S
C2112 C2114 1.381 . S
C2112 C2118 1.383 . S
C2113 C2109 1.495 . S
C2113 H2119 0.959 . S
C2113 H2120 0.961 . S
C2113 H2121 0.960 . S
C2114 C2112 1.381 . S
C2114 C2115 1.394 . S
C2114 H2122 0.930 . S
C2115 C2114 1.394 . S
C2115 C2116 1.383 . S
C2115 H2123 0.929 . S
C2116 C2115 1.383 . S
C2116 C2117 1.377 . S
C2117 H2101 0.930 . S
C2117 C2116 1.377 . S
C2117 C2118 1.379 . S
C2118 H2102 0.931 . S
C2118 C2112 1.383 . S
C2118 C2117 1.379 . S
H2119 C2113 0.959 . S
H2120 C2113 0.961 . S
H2121 C2113 0.960 . S
H2122 C2114 0.930 . S
H2123 C2115 0.929 . S
H2124 C2132 0.929 . S
H2125 C2134 0.930 . S
H2126 C2136 0.930 . S
H2127 C2139 0.929 . S
H2128 C2142 0.930 . S
H2129 C2144 0.960 . S
H2130 C2144 0.960 . S
H2131 C2144 0.960 . S
C2132 H2124 0.929 . S
C2132 C2133 1.377 . S
C2132 C2134 1.384 . S
C2133 C2132 1.377 . S
C2133 C2139 1.390 . S
C2134 H2125 0.930 . S
C2134 C2132 1.384 . S
C2134 C2135 1.372 . S
C2135 C2134 1.372 . S
C2135 C2136 1.400 . S
C2135 C2140 1.490 . S
C2136 H2126 0.930 . S
C2136 C2135 1.400 . S
C2136 C2139 1.386 . S
H2137 C2153 0.930 . S
H2138 C2154 0.931 . S
C2139 H2127 0.929 . S
C2139 C2133 1.390 . S
C2139 C2136 1.386 . S
C2140 C2135 1.490 . S
C2140 C2142 1.395 . S
C2140 C2143 1.403 . S
H2141 C2147 0.930 . S
C2142 H2128 0.930 . S
C2142 C2140 1.395 . S
C2142 C2145 1.403 . S
C2143 C2140 1.403 . S
C2143 C2144 1.524 . S
C2143 C2147 1.400 . S
C2144 H2129 0.960 . S
C2144 H2130 0.960 . S
C2144 H2131 0.960 . S
C2144 C2143 1.524 . S
C2145 C2142 1.403 . S
C2145 C2146 1.392 . S
C2145 C2149 1.495 . S
C2146 C2145 1.392 . S
C2146 C2147 1.385 . S
C2146 C2148 1.478 . S
C2147 H2141 0.930 . S
C2147 C2143 1.400 . S
C2147 C2146 1.385 . S
C2148 C2146 1.478 . S
C2148 C2150 1.381 . S
C2148 C2154 1.383 . S
C2149 C2145 1.495 . S
C2149 H2155 0.959 . S
C2149 H2156 0.961 . S
C2149 H2157 0.960 . S
C2150 C2148 1.381 . S
C2150 C2151 1.394 . S
C2150 H2158 0.930 . S
C2151 C2150 1.394 . S
C2151 C2152 1.383 . S
C2151 H2159 0.929 . S
C2152 C2151 1.383 . S
C2152 C2153 1.377 . S
C2153 H2137 0.930 . S
C2153 C2152 1.377 . S
C2153 C2154 1.379 . S
C2154 H2138 0.931 . S
C2154 C2148 1.383 . S
C2154 C2153 1.379 . S
H2155 C2149 0.959 . S
H2156 C2149 0.961 . S
H2157 C2149 0.960 . S
H2158 C2150 0.930 . S
H2159 C2151 0.929 . S
H2160 C2168 0.929 . S
H2161 C2170 0.930 . S
H2162 C2172 0.930 . S
H2163 C2175 0.929 . S
H2164 C2178 0.930 . S
H2165 C2180 0.960 . S
H2166 C2180 0.960 . S
H2167 C2180 0.960 . S
C2168 H2160 0.929 . S
C2168 C2169 1.377 . S
C2168 C2170 1.384 . S
C2169 C2168 1.377 . S
C2169 C2175 1.390 . S
C2170 H2161 0.930 . S
C2170 C2168 1.384 . S
C2170 C2171 1.372 . S
C2171 C2170 1.372 . S
C2171 C2172 1.400 . S
C2171 C2176 1.490 . S
C2172 H2162 0.930 . S
C2172 C2171 1.400 . S
C2172 C2175 1.386 . S
H2173 C2189 0.930 . S
H2174 C2190 0.931 . S
C2175 H2163 0.929 . S
C2175 C2169 1.390 . S
C2175 C2172 1.386 . S
C2176 C2171 1.490 . S
C2176 C2178 1.395 . S
C2176 C2179 1.403 . S
H2177 C2183 0.930 . S
C2178 H2164 0.930 . S
C2178 C2176 1.395 . S
C2178 C2181 1.403 . S
C2179 C2176 1.403 . S
C2179 C2180 1.524 . S
C2179 C2183 1.400 . S
C2180 H2165 0.960 . S
C2180 H2166 0.960 . S
C2180 H2167 0.960 . S
C2180 C2179 1.524 . S
C2181 C2178 1.403 . S
C2181 C2182 1.392 . S
C2181 C2185 1.495 . S
C2182 C2181 1.392 . S
C2182 C2183 1.385 . S
C2182 C2184 1.478 . S
C2183 H2177 0.930 . S
C2183 C2179 1.400 . S
C2183 C2182 1.385 . S
C2184 C2182 1.478 . S
C2184 C2186 1.381 . S
C2184 C2190 1.383 . S
C2185 C2181 1.495 . S
C2185 H2191 0.959 . S
C2185 H2192 0.961 . S
C2185 H2193 0.960 . S
C2186 C2184 1.381 . S
C2186 C2187 1.394 . S
C2186 H2194 0.930 . S
C2187 C2186 1.394 . S
C2187 C2188 1.383 . S
C2187 H2195 0.929 . S
C2188 C2187 1.383 . S
C2188 C2189 1.377 . S
C2189 H2173 0.930 . S
C2189 C2188 1.377 . S
C2189 C2190 1.379 . S
C2190 H2174 0.931 . S
C2190 C2184 1.383 . S
C2190 C2189 1.379 . S
H2191 C2185 0.959 . S
H2192 C2185 0.961 . S
H2193 C2185 0.960 . S
H2194 C2186 0.930 . S
H2195 C2187 0.929 . S
H2196 C2204 0.929 . S
H2197 C2206 0.930 . S
H2198 C2208 0.930 . S
H2199 C2211 0.929 . S
H2200 C2214 0.930 . S
H2201 C2216 0.960 . S
H2202 C2216 0.960 . S
H2203 C2216 0.960 . S
C2204 H2196 0.929 . S
C2204 C2205 1.377 . S
C2204 C2206 1.384 . S
C2205 C2204 1.377 . S
C2205 C2211 1.390 . S
C2206 H2197 0.930 . S
C2206 C2204 1.384 . S
C2206 C2207 1.372 . S
C2207 C2206 1.372 . S
C2207 C2208 1.400 . S
C2207 C2212 1.490 . S
C2208 H2198 0.930 . S
C2208 C2207 1.400 . S
C2208 C2211 1.386 . S
H2209 C2225 0.930 . S
H2210 C2226 0.931 . S
C2211 H2199 0.929 . S
C2211 C2205 1.390 . S
C2211 C2208 1.386 . S
C2212 C2207 1.490 . S
C2212 C2214 1.395 . S
C2212 C2215 1.403 . S
H2213 C2219 0.930 . S
C2214 H2200 0.930 . S
C2214 C2212 1.395 . S
C2214 C2217 1.403 . S
C2215 C2212 1.403 . S
C2215 C2216 1.524 . S
C2215 C2219 1.400 . S
C2216 H2201 0.960 . S
C2216 H2202 0.960 . S
C2216 H2203 0.960 . S
C2216 C2215 1.524 . S
C2217 C2214 1.403 . S
C2217 C2218 1.392 . S
C2217 C2221 1.495 . S
C2218 C2217 1.392 . S
C2218 C2219 1.385 . S
C2218 C2220 1.478 . S
C2219 H2213 0.930 . S
C2219 C2215 1.400 . S
C2219 C2218 1.385 . S
C2220 C2218 1.478 . S
C2220 C2222 1.381 . S
C2220 C2226 1.383 . S
C2221 C2217 1.495 . S
C2221 H2227 0.959 . S
C2221 H2228 0.961 . S
C2221 H2229 0.960 . S
C2222 C2220 1.381 . S
C2222 C2223 1.394 . S
C2222 H2230 0.930 . S
C2223 C2222 1.394 . S
C2223 C2224 1.383 . S
C2223 H2231 0.929 . S
C2224 C2223 1.383 . S
C2224 C2225 1.377 . S
C2225 H2209 0.930 . S
C2225 C2224 1.377 . S
C2225 C2226 1.379 . S
C2226 H2210 0.931 . S
C2226 C2220 1.383 . S
C2226 C2225 1.379 . S
H2227 C2221 0.959 . S
H2228 C2221 0.961 . S
H2229 C2221 0.960 . S
H2230 C2222 0.930 . S
H2231 C2223 0.929 . S
H2232 C2240 0.929 . S
H2233 C2242 0.930 . S
H2234 C2244 0.930 . S
H2235 C2247 0.929 . S
H2236 C2250 0.930 . S
H2237 C2252 0.960 . S
H2238 C2252 0.960 . S
H2239 C2252 0.960 . S
C2240 H2232 0.929 . S
C2240 C2241 1.377 . S
C2240 C2242 1.384 . S
C2241 C2240 1.377 . S
C2241 C2247 1.390 . S
C2242 H2233 0.930 . S
C2242 C2240 1.384 . S
C2242 C2243 1.372 . S
C2243 C2242 1.372 . S
C2243 C2244 1.400 . S
C2243 C2248 1.490 . S
C2244 H2234 0.930 . S
C2244 C2243 1.400 . S
C2244 C2247 1.386 . S
H2245 C2261 0.930 . S
H2246 C2262 0.931 . S
C2247 H2235 0.929 . S
C2247 C2241 1.390 . S
C2247 C2244 1.386 . S
C2248 C2243 1.490 . S
C2248 C2250 1.395 . S
C2248 C2251 1.403 . S
H2249 C2255 0.930 . S
C2250 H2236 0.930 . S
C2250 C2248 1.395 . S
C2250 C2253 1.403 . S
C2251 C2248 1.403 . S
C2251 C2252 1.524 . S
C2251 C2255 1.400 . S
C2252 H2237 0.960 . S
C2252 H2238 0.960 . S
C2252 H2239 0.960 . S
C2252 C2251 1.524 . S
C2253 C2250 1.403 . S
C2253 C2254 1.392 . S
C2253 C2257 1.495 . S
C2254 C2253 1.392 . S
C2254 C2255 1.385 . S
C2254 C2256 1.478 . S
C2255 H2249 0.930 . S
C2255 C2251 1.400 . S
C2255 C2254 1.385 . S
C2256 C2254 1.478 . S
C2256 C2258 1.381 . S
C2256 C2262 1.383 . S
C2257 C2253 1.495 . S
C2257 H2263 0.959 . S
C2257 H2264 0.961 . S
C2257 H2265 0.960 . S
C2258 C2256 1.381 . S
C2258 C2259 1.394 . S
C2258 H2266 0.930 . S
C2259 C2258 1.394 . S
C2259 C2260 1.383 . S
C2259 H2267 0.929 . S
C2260 C2259 1.383 . S
C2260 C2261 1.377 . S
C2261 H2245 0.930 . S
C2261 C2260 1.377 . S
C2261 C2262 1.379 . S
C2262 H2246 0.931 . S
C2262 C2256 1.383 . S
C2262 C2261 1.379 . S
H2263 C2257 0.959 . S
H2264 C2257 0.961 . S
H2265 C2257 0.960 . S
H2266 C2258 0.930 . S
H2267 C2259 0.929 . S
H2268 C2276 0.929 . S
H2269 C2278 0.930 . S
H2270 C2280 0.930 . S
H2271 C2283 0.929 . S
H2272 C2286 0.930 . S
H2273 C2288 0.960 . S
H2274 C2288 0.960 . S
H2275 C2288 0.960 . S
C2276 H2268 0.929 . S
C2276 C2277 1.377 . S
C2276 C2278 1.384 . S
C2277 C2276 1.377 . S
C2277 C2283 1.390 . S
C2278 H2269 0.930 . S
C2278 C2276 1.384 . S
C2278 C2279 1.372 . S
C2279 C2278 1.372 . S
C2279 C2280 1.400 . S
C2279 C2284 1.490 . S
C2280 H2270 0.930 . S
C2280 C2279 1.400 . S
C2280 C2283 1.386 . S
H2281 C2297 0.930 . S
H2282 C2298 0.931 . S
C2283 H2271 0.929 . S
C2283 C2277 1.390 . S
C2283 C2280 1.386 . S
C2284 C2279 1.490 . S
C2284 C2286 1.395 . S
C2284 C2287 1.403 . S
H2285 C2291 0.930 . S
C2286 H2272 0.930 . S
C2286 C2284 1.395 . S
C2286 C2289 1.403 . S
C2287 C2284 1.403 . S
C2287 C2288 1.524 . S
C2287 C2291 1.400 . S
C2288 H2273 0.960 . S
C2288 H2274 0.960 . S
C2288 H2275 0.960 . S
C2288 C2287 1.524 . S
C2289 C2286 1.403 . S
C2289 C2290 1.392 . S
C2289 C2293 1.495 . S
C2290 C2289 1.392 . S
C2290 C2291 1.385 . S
C2290 C2292 1.478 . S
C2291 H2285 0.930 . S
C2291 C2287 1.400 . S
C2291 C2290 1.385 . S
C2292 C2290 1.478 . S
C2292 C2294 1.381 . S
C2292 C2298 1.383 . S
C2293 C2289 1.495 . S
C2293 H2299 0.959 . S
C2293 H2300 0.961 . S
C2293 H2301 0.960 . S
C2294 C2292 1.381 . S
C2294 C2295 1.394 . S
C2294 H2302 0.930 . S
C2295 C2294 1.394 . S
C2295 C2296 1.383 . S
C2295 H2303 0.929 . S
C2296 C2295 1.383 . S
C2296 C2297 1.377 . S
C2297 H2281 0.930 . S
C2297 C2296 1.377 . S
C2297 C2298 1.379 . S
C2298 H2282 0.931 . S
C2298 C2292 1.383 . S
C2298 C2297 1.379 . S
H2299 C2293 0.959 . S
H2300 C2293 0.961 . S
H2301 C2293 0.960 . S
H2302 C2294 0.930 . S
H2303 C2295 0.929 . S
H2304 C2312 0.929 . S
H2305 C2314 0.930 . S
H2306 C2316 0.930 . S
H2307 C2319 0.929 . S
H2308 C2322 0.930 . S
H2309 C2324 0.960 . S
H2310 C2324 0.960 . S
H2311 C2324 0.960 . S
C2312 H2304 0.929 . S
C2312 C2313 1.377 . S
C2312 C2314 1.384 . S
C2313 C2312 1.377 . S
C2313 C2319 1.390 . S
C2314 H2305 0.930 . S
C2314 C2312 1.384 . S
C2314 C2315 1.372 . S
C2315 C2314 1.372 . S
C2315 C2316 1.400 . S
C2315 C2320 1.490 . S
C2316 H2306 0.930 . S
C2316 C2315 1.400 . S
C2316 C2319 1.386 . S
H2317 C2333 0.930 . S
H2318 C2334 0.931 . S
C2319 H2307 0.929 . S
C2319 C2313 1.390 . S
C2319 C2316 1.386 . S
C2320 C2315 1.490 . S
C2320 C2322 1.395 . S
C2320 C2323 1.403 . S
H2321 C2327 0.930 . S
C2322 H2308 0.930 . S
C2322 C2320 1.395 . S
C2322 C2325 1.403 . S
C2323 C2320 1.403 . S
C2323 C2324 1.524 . S
C2323 C2327 1.400 . S
C2324 H2309 0.960 . S
C2324 H2310 0.960 . S
C2324 H2311 0.960 . S
C2324 C2323 1.524 . S
C2325 C2322 1.403 . S
C2325 C2326 1.392 . S
C2325 C2329 1.495 . S
C2326 C2325 1.392 . S
C2326 C2327 1.385 . S
C2326 C2328 1.478 . S
C2327 H2321 0.930 . S
C2327 C2323 1.400 . S
C2327 C2326 1.385 . S
C2328 C2326 1.478 . S
C2328 C2330 1.381 . S
C2328 C2334 1.383 . S
C2329 C2325 1.495 . S
C2329 H2335 0.959 . S
C2329 H2336 0.961 . S
C2329 H2337 0.960 . S
C2330 C2328 1.381 . S
C2330 C2331 1.394 . S
C2330 H2338 0.930 . S
C2331 C2330 1.394 . S
C2331 C2332 1.383 . S
C2331 H2339 0.929 . S
C2332 C2331 1.383 . S
C2332 C2333 1.377 . S
C2333 H2317 0.930 . S
C2333 C2332 1.377 . S
C2333 C2334 1.379 . S
C2334 H2318 0.931 . S
C2334 C2328 1.383 . S
C2334 C2333 1.379 . S
H2335 C2329 0.959 . S
H2336 C2329 0.961 . S
H2337 C2329 0.960 . S
H2338 C2330 0.930 . S
H2339 C2331 0.929 . S
H2340 C2348 0.929 . S
H2341 C2350 0.930 . S
H2342 C2352 0.930 . S
H2343 C2355 0.929 . S
H2344 C2358 0.930 . S
H2345 C2360 0.960 . S
H2346 C2360 0.960 . S
H2347 C2360 0.960 . S
C2348 H2340 0.929 . S
C2348 C2349 1.377 . S
C2348 C2350 1.384 . S
C2349 C2348 1.377 . S
C2349 C2355 1.390 . S
C2350 H2341 0.930 . S
C2350 C2348 1.384 . S
C2350 C2351 1.372 . S
C2351 C2350 1.372 . S
C2351 C2352 1.400 . S
C2351 C2356 1.490 . S
C2352 H2342 0.930 . S
C2352 C2351 1.400 . S
C2352 C2355 1.386 . S
H2353 C2369 0.930 . S
H2354 C2370 0.931 . S
C2355 H2343 0.929 . S
C2355 C2349 1.390 . S
C2355 C2352 1.386 . S
C2356 C2351 1.490 . S
C2356 C2358 1.395 . S
C2356 C2359 1.403 . S
H2357 C2363 0.930 . S
C2358 H2344 0.930 . S
C2358 C2356 1.395 . S
C2358 C2361 1.403 . S
C2359 C2356 1.403 . S
C2359 C2360 1.524 . S
C2359 C2363 1.400 . S
C2360 H2345 0.960 . S
C2360 H2346 0.960 . S
C2360 H2347 0.960 . S
C2360 C2359 1.524 . S
C2361 C2358 1.403 . S
C2361 C2362 1.392 . S
C2361 C2365 1.495 . S
C2362 C2361 1.392 . S
C2362 C2363 1.385 . S
C2362 C2364 1.478 . S
C2363 H2357 0.930 . S
C2363 C2359 1.400 . S
C2363 C2362 1.385 . S
C2364 C2362 1.478 . S
C2364 C2366 1.381 . S
C2364 C2370 1.383 . S
C2365 C2361 1.495 . S
C2365 H2371 0.959 . S
C2365 H2372 0.961 . S
C2365 H2373 0.960 . S
C2366 C2364 1.381 . S
C2366 C2367 1.394 . S
C2366 H2374 0.930 . S
C2367 C2366 1.394 . S
C2367 C2368 1.383 . S
C2367 H2375 0.929 . S
C2368 C2367 1.383 . S
C2368 C2369 1.377 . S
C2369 H2353 0.930 . S
C2369 C2368 1.377 . S
C2369 C2370 1.379 . S
C2370 H2354 0.931 . S
C2370 C2364 1.383 . S
C2370 C2369 1.379 . S
H2371 C2365 0.959 . S
H2372 C2365 0.961 . S
H2373 C2365 0.960 . S
H2374 C2366 0.930 . S
H2375 C2367 0.929 . S
H2376 C2384 0.929 . S
H2377 C2386 0.930 . S
H2378 C2388 0.930 . S
H2379 C2391 0.929 . S
H2380 C2394 0.930 . S
H2381 C2396 0.960 . S
H2382 C2396 0.960 . S
H2383 C2396 0.960 . S
C2384 H2376 0.929 . S
C2384 C2385 1.377 . S
C2384 C2386 1.384 . S
C2385 C2384 1.377 . S
C2385 C2391 1.390 . S
C2386 H2377 0.930 . S
C2386 C2384 1.384 . S
C2386 C2387 1.372 . S
C2387 C2386 1.372 . S
C2387 C2388 1.400 . S
C2387 C2392 1.490 . S
C2388 H2378 0.930 . S
C2388 C2387 1.400 . S
C2388 C2391 1.386 . S
H2389 C2405 0.930 . S
H2390 C2406 0.931 . S
C2391 H2379 0.929 . S
C2391 C2385 1.390 . S
C2391 C2388 1.386 . S
C2392 C2387 1.490 . S
C2392 C2394 1.395 . S
C2392 C2395 1.403 . S
H2393 C2399 0.930 . S
C2394 H2380 0.930 . S
C2394 C2392 1.395 . S
C2394 C2397 1.403 . S
C2395 C2392 1.403 . S
C2395 C2396 1.524 . S
C2395 C2399 1.400 . S
C2396 H2381 0.960 . S
C2396 H2382 0.960 . S
C2396 H2383 0.960 . S
C2396 C2395 1.524 . S
C2397 C2394 1.403 . S
C2397 C2398 1.392 . S
C2397 C2401 1.495 . S
C2398 C2397 1.392 . S
C2398 C2399 1.385 . S
C2398 C2400 1.478 . S
C2399 H2393 0.930 . S
C2399 C2395 1.400 . S
C2399 C2398 1.385 . S
C2400 C2398 1.478 . S
C2400 C2402 1.381 . S
C2400 C2406 1.383 . S
C2401 C2397 1.495 . S
C2401 H2407 0.959 . S
C2401 H2408 0.961 . S
C2401 H2409 0.960 . S
C2402 C2400 1.381 . S
C2402 C2403 1.394 . S
C2402 H2410 0.930 . S
C2403 C2402 1.394 . S
C2403 C2404 1.383 . S
C2403 H2411 0.929 . S
C2404 C2403 1.383 . S
C2404 C2405 1.377 . S
C2405 H2389 0.930 . S
C2405 C2404 1.377 . S
C2405 C2406 1.379 . S
C2406 H2390 0.931 . S
C2406 C2400 1.383 . S
C2406 C2405 1.379 . S
H2407 C2401 0.959 . S
H2408 C2401 0.961 . S
H2409 C2401 0.960 . S
H2410 C2402 0.930 . S
H2411 C2403 0.929 . S
H2412 C2420 0.929 . S
H2413 C2422 0.930 . S
H2414 C2424 0.930 . S
H2415 C2427 0.929 . S
H2416 C2430 0.930 . S
H2417 C2432 0.960 . S
H2418 C2432 0.960 . S
H2419 C2432 0.960 . S
C2420 H2412 0.929 . S
C2420 C2421 1.377 . S
C2420 C2422 1.384 . S
C2421 C2420 1.377 . S
C2421 C2427 1.390 . S
C2422 H2413 0.930 . S
C2422 C2420 1.384 . S
C2422 C2423 1.372 . S
C2423 C2422 1.372 . S
C2423 C2424 1.400 . S
C2423 C2428 1.490 . S
C2424 H2414 0.930 . S
C2424 C2423 1.400 . S
C2424 C2427 1.386 . S
H2425 C2441 0.930 . S
H2426 C2442 0.931 . S
C2427 H2415 0.929 . S
C2427 C2421 1.390 . S
C2427 C2424 1.386 . S
C2428 C2423 1.490 . S
C2428 C2430 1.395 . S
C2428 C2431 1.403 . S
H2429 C2435 0.930 . S
C2430 H2416 0.930 . S
C2430 C2428 1.395 . S
C2430 C2433 1.403 . S
C2431 C2428 1.403 . S
C2431 C2432 1.524 . S
C2431 C2435 1.400 . S
C2432 H2417 0.960 . S
C2432 H2418 0.960 . S
C2432 H2419 0.960 . S
C2432 C2431 1.524 . S
C2433 C2430 1.403 . S
C2433 C2434 1.392 . S
C2433 C2437 1.495 . S
C2434 C2433 1.392 . S
C2434 C2435 1.385 . S
C2434 C2436 1.478 . S
C2435 H2429 0.930 . S
C2435 C2431 1.400 . S
C2435 C2434 1.385 . S
C2436 C2434 1.478 . S
C2436 C2438 1.381 . S
C2436 C2442 1.383 . S
C2437 C2433 1.495 . S
C2437 H2443 0.959 . S
C2437 H2444 0.961 . S
C2437 H2445 0.960 . S
C2438 C2436 1.381 . S
C2438 C2439 1.394 . S
C2438 H2446 0.930 . S
C2439 C2438 1.394 . S
C2439 C2440 1.383 . S
C2439 H2447 0.929 . S
C2440 C2439 1.383 . S
C2440 C2441 1.377 . S
C2441 H2425 0.930 . S
C2441 C2440 1.377 . S
C2441 C2442 1.379 . S
C2442 H2426 0.931 . S
C2442 C2436 1.383 . S
C2442 C2441 1.379 . S
H2443 C2437 0.959 . S
H2444 C2437 0.961 . S
H2445 C2437 0.960 . S
H2446 C2438 0.930 . S
H2447 C2439 0.929 . S
H2448 C2456 0.929 . S
H2449 C2458 0.930 . S
H2450 C2460 0.930 . S
H2451 C2463 0.929 . S
H2452 C2466 0.930 . S
H2453 C2468 0.960 . S
H2454 C2468 0.960 . S
H2455 C2468 0.960 . S
C2456 H2448 0.929 . S
C2456 C2457 1.377 . S
C2456 C2458 1.384 . S
C2457 C2456 1.377 . S
C2457 C2463 1.390 . S
C2458 H2449 0.930 . S
C2458 C2456 1.384 . S
C2458 C2459 1.372 . S
C2459 C2458 1.372 . S
C2459 C2460 1.400 . S
C2459 C2464 1.490 . S
C2460 H2450 0.930 . S
C2460 C2459 1.400 . S
C2460 C2463 1.386 . S
H2461 C2477 0.930 . S
H2462 C2478 0.931 . S
C2463 H2451 0.929 . S
C2463 C2457 1.390 . S
C2463 C2460 1.386 . S
C2464 C2459 1.490 . S
C2464 C2466 1.395 . S
C2464 C2467 1.403 . S
H2465 C2471 0.930 . S
C2466 H2452 0.930 . S
C2466 C2464 1.395 . S
C2466 C2469 1.403 . S
C2467 C2464 1.403 . S
C2467 C2468 1.524 . S
C2467 C2471 1.400 . S
C2468 H2453 0.960 . S
C2468 H2454 0.960 . S
C2468 H2455 0.960 . S
C2468 C2467 1.524 . S
C2469 C2466 1.403 . S
C2469 C2470 1.392 . S
C2469 C2473 1.495 . S
C2470 C2469 1.392 . S
C2470 C2471 1.385 . S
C2470 C2472 1.478 . S
C2471 H2465 0.930 . S
C2471 C2467 1.400 . S
C2471 C2470 1.385 . S
C2472 C2470 1.478 . S
C2472 C2474 1.381 . S
C2472 C2478 1.383 . S
C2473 C2469 1.495 . S
C2473 H2479 0.959 . S
C2473 H2480 0.961 . S
C2473 H2481 0.960 . S
C2474 C2472 1.381 . S
C2474 C2475 1.394 . S
C2474 H2482 0.930 . S
C2475 C2474 1.394 . S
C2475 C2476 1.383 . S
C2475 H2483 0.929 . S
C2476 C2475 1.383 . S
C2476 C2477 1.377 . S
C2477 H2461 0.930 . S
C2477 C2476 1.377 . S
C2477 C2478 1.379 . S
C2478 H2462 0.931 . S
C2478 C2472 1.383 . S
C2478 C2477 1.379 . S
H2479 C2473 0.959 . S
H2480 C2473 0.961 . S
H2481 C2473 0.960 . S
H2482 C2474 0.930 . S
H2483 C2475 0.929 . S
H2484 C2492 0.929 . S
H2485 C2494 0.930 . S
H2486 C2496 0.930 . S
H2487 C2499 0.929 . S
H2488 C2502 0.930 . S
H2489 C2504 0.960 . S
H2490 C2504 0.960 . S
H2491 C2504 0.960 . S
C2492 H2484 0.929 . S
C2492 C2493 1.377 . S
C2492 C2494 1.384 . S
C2493 C2492 1.377 . S
C2493 C2499 1.390 . S
C2494 H2485 0.930 . S
C2494 C2492 1.384 . S
C2494 C2495 1.372 . S
C2495 C2494 1.372 . S
C2495 C2496 1.400 . S
C2495 C2500 1.490 . S
C2496 H2486 0.930 . S
C2496 C2495 1.400 . S
C2496 C2499 1.386 . S
H2497 C2513 0.930 . S
H2498 C2514 0.931 . S
C2499 H2487 0.929 . S
C2499 C2493 1.390 . S
C2499 C2496 1.386 . S
C2500 C2495 1.490 . S
C2500 C2502 1.395 . S
C2500 C2503 1.403 . S
H2501 C2507 0.930 . S
C2502 H2488 0.930 . S
C2502 C2500 1.395 . S
C2502 C2505 1.403 . S
C2503 C2500 1.403 . S
C2503 C2504 1.524 . S
C2503 C2507 1.400 . S
C2504 H2489 0.960 . S
C2504 H2490 0.960 . S
C2504 H2491 0.960 . S
C2504 C2503 1.524 . S
C2505 C2502 1.403 . S
C2505 C2506 1.392 . S
C2505 C2509 1.495 . S
C2506 C2505 1.392 . S
C2506 C2507 1.385 . S
C2506 C2508 1.478 . S
C2507 H2501 0.930 . S
C2507 C2503 1.400 . S
C2507 C2506 1.385 . S
C2508 C2506 1.478 . S
C2508 C2510 1.381 . S
C2508 C2514 1.383 . S
C2509 C2505 1.495 . S
C2509 H2515 0.959 . S
C2509 H2516 0.961 . S
C2509 H2517 0.960 . S
C2510 C2508 1.381 . S
C2510 C2511 1.394 . S
C2510 H2518 0.930 . S
C2511 C2510 1.394 . S
C2511 C2512 1.383 . S
C2511 H2519 0.929 . S
C2512 C2511 1.383 . S
C2512 C2513 1.377 . S
C2513 H2497 0.930 . S
C2513 C2512 1.377 . S
C2513 C2514 1.379 . S
C2514 H2498 0.931 . S
C2514 C2508 1.383 . S
C2514 C2513 1.379 . S
H2515 C2509 0.959 . S
H2516 C2509 0.961 . S
H2517 C2509 0.960 . S
H2518 C2510 0.930 . S
H2519 C2511 0.929 . S
H2520 C2528 0.929 . S
H2521 C2530 0.930 . S
H2522 C2532 0.930 . S
H2523 C2535 0.929 . S
H2524 C2538 0.930 . S
H2525 C2540 0.960 . S
H2526 C2540 0.960 . S
H2527 C2540 0.960 . S
C2528 H2520 0.929 . S
C2528 C2529 1.377 . S
C2528 C2530 1.384 . S
C2529 C2528 1.377 . S
C2529 C2535 1.390 . S
C2530 H2521 0.930 . S
C2530 C2528 1.384 . S
C2530 C2531 1.372 . S
C2531 C2530 1.372 . S
C2531 C2532 1.400 . S
C2531 C2536 1.490 . S
C2532 H2522 0.930 . S
C2532 C2531 1.400 . S
C2532 C2535 1.386 . S
H2533 C2549 0.930 . S
H2534 C2550 0.931 . S
C2535 H2523 0.929 . S
C2535 C2529 1.390 . S
C2535 C2532 1.386 . S
C2536 C2531 1.490 . S
C2536 C2538 1.395 . S
C2536 C2539 1.403 . S
H2537 C2543 0.930 . S
C2538 H2524 0.930 . S
C2538 C2536 1.395 . S
C2538 C2541 1.403 . S
C2539 C2536 1.403 . S
C2539 C2540 1.524 . S
C2539 C2543 1.400 . S
C2540 H2525 0.960 . S
C2540 H2526 0.960 . S
C2540 H2527 0.960 . S
C2540 C2539 1.524 . S
C2541 C2538 1.403 . S
C2541 C2542 1.392 . S
C2541 C2545 1.495 . S
C2542 C2541 1.392 . S
C2542 C2543 1.385 . S
C2542 C2544 1.478 . S
C2543 H2537 0.930 . S
C2543 C2539 1.400 . S
C2543 C2542 1.385 . S
C2544 C2542 1.478 . S
C2544 C2546 1.381 . S
C2544 C2550 1.383 . S
C2545 C2541 1.495 . S
C2545 H2551 0.959 . S
C2545 H2552 0.961 . S
C2545 H2553 0.960 . S
C2546 C2544 1.381 . S
C2546 C2547 1.394 . S
C2546 H2554 0.930 . S
C2547 C2546 1.394 . S
C2547 C2548 1.383 . S
C2547 H2555 0.929 . S
C2548 C2547 1.383 . S
C2548 C2549 1.377 . S
C2549 H2533 0.930 . S
C2549 C2548 1.377 . S
C2549 C2550 1.379 . S
C2550 H2534 0.931 . S
C2550 C2544 1.383 . S
C2550 C2549 1.379 . S
H2551 C2545 0.959 . S
H2552 C2545 0.961 . S
H2553 C2545 0.960 . S
H2554 C2546 0.930 . S
H2555 C2547 0.929 . S
H2556 C2564 0.929 . S
H2557 C2566 0.930 . S
H2558 C2568 0.930 . S
H2559 C2571 0.929 . S
H2560 C2574 0.930 . S
H2561 C2576 0.960 . S
H2562 C2576 0.960 . S
H2563 C2576 0.960 . S
C2564 H2556 0.929 . S
C2564 C2565 1.377 . S
C2564 C2566 1.384 . S
C2565 C2564 1.377 . S
C2565 C2571 1.390 . S
C2566 H2557 0.930 . S
C2566 C2564 1.384 . S
C2566 C2567 1.372 . S
C2567 C2566 1.372 . S
C2567 C2568 1.400 . S
C2567 C2572 1.490 . S
C2568 H2558 0.930 . S
C2568 C2567 1.400 . S
C2568 C2571 1.386 . S
H2569 C2585 0.930 . S
H2570 C2586 0.931 . S
C2571 H2559 0.929 . S
C2571 C2565 1.390 . S
C2571 C2568 1.386 . S
C2572 C2567 1.490 . S
C2572 C2574 1.395 . S
C2572 C2575 1.403 . S
H2573 C2579 0.930 . S
C2574 H2560 0.930 . S
C2574 C2572 1.395 . S
C2574 C2577 1.403 . S
C2575 C2572 1.403 . S
C2575 C2576 1.524 . S
C2575 C2579 1.400 . S
C2576 H2561 0.960 . S
C2576 H2562 0.960 . S
C2576 H2563 0.960 . S
C2576 C2575 1.524 . S
C2577 C2574 1.403 . S
C2577 C2578 1.392 . S
C2577 C2581 1.495 . S
C2578 C2577 1.392 . S
C2578 C2579 1.385 . S
C2578 C2580 1.478 . S
C2579 H2573 0.930 . S
C2579 C2575 1.400 . S
C2579 C2578 1.385 . S
C2580 C2578 1.478 . S
C2580 C2582 1.381 . S
C2580 C2586 1.383 . S
C2581 C2577 1.495 . S
C2581 H2587 0.959 . S
C2581 H2588 0.961 . S
C2581 H2589 0.960 . S
C2582 C2580 1.381 . S
C2582 C2583 1.394 . S
C2582 H2590 0.930 . S
C2583 C2582 1.394 . S
C2583 C2584 1.383 . S
C2583 H2591 0.929 . S
C2584 C2583 1.383 . S
C2584 C2585 1.377 . S
C2585 H2569 0.930 . S
C2585 C2584 1.377 . S
C2585 C2586 1.379 . S
C2586 H2570 0.931 . S
C2586 C2580 1.383 . S
C2586 C2585 1.379 . S
H2587 C2581 0.959 . S
H2588 C2581 0.961 . S
H2589 C2581 0.960 . S
H2590 C2582 0.930 . S
H2591 C2583 0.929 . S
H2592 C2600 0.929 . S
H2593 C2602 0.930 . S
H2594 C2604 0.930 . S
H2595 C2607 0.929 . S
H2596 C2610 0.930 . S
H2597 C2612 0.960 . S
H2598 C2612 0.960 . S
H2599 C2612 0.960 . S
C2600 H2592 0.929 . S
C2600 C2601 1.377 . S
C2600 C2602 1.384 . S
C2601 C2600 1.377 . S
C2601 C2607 1.390 . S
C2602 H2593 0.930 . S
C2602 C2600 1.384 . S
C2602 C2603 1.372 . S
C2603 C2602 1.372 . S
C2603 C2604 1.400 . S
C2603 C2608 1.490 . S
C2604 H2594 0.930 . S
C2604 C2603 1.400 . S
C2604 C2607 1.386 . S
H2605 C2621 0.930 . S
H2606 C2622 0.931 . S
C2607 H2595 0.929 . S
C2607 C2601 1.390 . S
C2607 C2604 1.386 . S
C2608 C2603 1.490 . S
C2608 C2610 1.395 . S
C2608 C2611 1.403 . S
H2609 C2615 0.930 . S
C2610 H2596 0.930 . S
C2610 C2608 1.395 . S
C2610 C2613 1.403 . S
C2611 C2608 1.403 . S
C2611 C2612 1.524 . S
C2611 C2615 1.400 . S
C2612 H2597 0.960 . S
C2612 H2598 0.960 . S
C2612 H2599 0.960 . S
C2612 C2611 1.524 . S
C2613 C2610 1.403 . S
C2613 C2614 1.392 . S
C2613 C2617 1.495 . S
C2614 C2613 1.392 . S
C2614 C2615 1.385 . S
C2614 C2616 1.478 . S
C2615 H2609 0.930 . S
C2615 C2611 1.400 . S
C2615 C2614 1.385 . S
C2616 C2614 1.478 . S
C2616 C2618 1.381 . S
C2616 C2622 1.383 . S
C2617 C2613 1.495 . S
C2617 H2623 0.959 . S
C2617 H2624 0.961 . S
C2617 H2625 0.960 . S
C2618 C2616 1.381 . S
C2618 C2619 1.394 . S
C2618 H2626 0.930 . S
C2619 C2618 1.394 . S
C2619 C2620 1.383 . S
C2619 H2627 0.929 . S
C2620 C2619 1.383 . S
C2620 C2621 1.377 . S
C2621 H2605 0.930 . S
C2621 C2620 1.377 . S
C2621 C2622 1.379 . S
C2622 H2606 0.931 . S
C2622 C2616 1.383 . S
C2622 C2621 1.379 . S
H2623 C2617 0.959 . S
H2624 C2617 0.961 . S
H2625 C2617 0.960 . S
H2626 C2618 0.930 . S
H2627 C2619 0.929 . S
H2628 C2636 0.929 . S
H2629 C2638 0.930 . S
H2630 C2640 0.930 . S
H2631 C2643 0.929 . S
H2632 C2646 0.930 . S
H2633 C2648 0.960 . S
H2634 C2648 0.960 . S
H2635 C2648 0.960 . S
C2636 H2628 0.929 . S
C2636 C2637 1.377 . S
C2636 C2638 1.384 . S
C2637 C2636 1.377 . S
C2637 C2643 1.390 . S
C2638 H2629 0.930 . S
C2638 C2636 1.384 . S
C2638 C2639 1.372 . S
C2639 C2638 1.372 . S
C2639 C2640 1.400 . S
C2639 C2644 1.490 . S
C2640 H2630 0.930 . S
C2640 C2639 1.400 . S
C2640 C2643 1.386 . S
H2641 C2657 0.930 . S
H2642 C2658 0.931 . S
C2643 H2631 0.929 . S
C2643 C2637 1.390 . S
C2643 C2640 1.386 . S
C2644 C2639 1.490 . S
C2644 C2646 1.395 . S
C2644 C2647 1.403 . S
H2645 C2651 0.930 . S
C2646 H2632 0.930 . S
C2646 C2644 1.395 . S
C2646 C2649 1.403 . S
C2647 C2644 1.403 . S
C2647 C2648 1.524 . S
C2647 C2651 1.400 . S
C2648 H2633 0.960 . S
C2648 H2634 0.960 . S
C2648 H2635 0.960 . S
C2648 C2647 1.524 . S
C2649 C2646 1.403 . S
C2649 C2650 1.392 . S
C2649 C2653 1.495 . S
C2650 C2649 1.392 . S
C2650 C2651 1.385 . S
C2650 C2652 1.478 . S
C2651 H2645 0.930 . S
C2651 C2647 1.400 . S
C2651 C2650 1.385 . S
C2652 C2650 1.478 . S
C2652 C2654 1.381 . S
C2652 C2658 1.383 . S
C2653 C2649 1.495 . S
C2653 H2659 0.959 . S
C2653 H2660 0.961 . S
C2653 H2661 0.960 . S
C2654 C2652 1.381 . S
C2654 C2655 1.394 . S
C2654 H2662 0.930 . S
C2655 C2654 1.394 . S
C2655 C2656 1.383 . S
C2655 H2663 0.929 . S
C2656 C2655 1.383 . S
C2656 C2657 1.377 . S
C2657 H2641 0.930 . S
C2657 C2656 1.377 . S
C2657 C2658 1.379 . S
C2658 H2642 0.931 . S
C2658 C2652 1.383 . S
C2658 C2657 1.379 . S
H2659 C2653 0.959 . S
H2660 C2653 0.961 . S
H2661 C2653 0.960 . S
H2662 C2654 0.930 . S
H2663 C2655 0.929 . S
H2664 C2672 0.929 . S
H2665 C2674 0.930 . S
H2666 C2676 0.930 . S
H2667 C2679 0.929 . S
H2668 C2682 0.930 . S
H2669 C2684 0.960 . S
H2670 C2684 0.960 . S
H2671 C2684 0.960 . S
C2672 H2664 0.929 . S
C2672 C2673 1.377 . S
C2672 C2674 1.384 . S
C2673 C2672 1.377 . S
C2673 C2679 1.390 . S
C2674 H2665 0.930 . S
C2674 C2672 1.384 . S
C2674 C2675 1.372 . S
C2675 C2674 1.372 . S
C2675 C2676 1.400 . S
C2675 C2680 1.490 . S
C2676 H2666 0.930 . S
C2676 C2675 1.400 . S
C2676 C2679 1.386 . S
H2677 C2693 0.930 . S
H2678 C2694 0.931 . S
C2679 H2667 0.929 . S
C2679 C2673 1.390 . S
C2679 C2676 1.386 . S
C2680 C2675 1.490 . S
C2680 C2682 1.395 . S
C2680 C2683 1.403 . S
H2681 C2687 0.930 . S
C2682 H2668 0.930 . S
C2682 C2680 1.395 . S
C2682 C2685 1.403 . S
C2683 C2680 1.403 . S
C2683 C2684 1.524 . S
C2683 C2687 1.400 . S
C2684 H2669 0.960 . S
C2684 H2670 0.960 . S
C2684 H2671 0.960 . S
C2684 C2683 1.524 . S
C2685 C2682 1.403 . S
C2685 C2686 1.392 . S
C2685 C2689 1.495 . S
C2686 C2685 1.392 . S
C2686 C2687 1.385 . S
C2686 C2688 1.478 . S
C2687 H2681 0.930 . S
C2687 C2683 1.400 . S
C2687 C2686 1.385 . S
C2688 C2686 1.478 . S
C2688 C2690 1.381 . S
C2688 C2694 1.383 . S
C2689 C2685 1.495 . S
C2689 H2695 0.959 . S
C2689 H2696 0.961 . S
C2689 H2697 0.960 . S
C2690 C2688 1.381 . S
C2690 C2691 1.394 . S
C2690 H2698 0.930 . S
C2691 C2690 1.394 . S
C2691 C2692 1.383 . S
C2691 H2699 0.929 . S
C2692 C2691 1.383 . S
C2692 C2693 1.377 . S
C2693 H2677 0.930 . S
C2693 C2692 1.377 . S
C2693 C2694 1.379 . S
C2694 H2678 0.931 . S
C2694 C2688 1.383 . S
C2694 C2693 1.379 . S
H2695 C2689 0.959 . S
H2696 C2689 0.961 . S
H2697 C2689 0.960 . S
H2698 C2690 0.930 . S
H2699 C2691 0.929 . S
H2700 C2708 0.929 . S
H2701 C2710 0.930 . S
H2702 C2712 0.930 . S
H2703 C2715 0.929 . S
H2704 C2718 0.930 . S
H2705 C2720 0.960 . S
H2706 C2720 0.960 . S
H2707 C2720 0.960 . S
C2708 H2700 0.929 . S
C2708 C2709 1.377 . S
C2708 C2710 1.384 . S
C2709 C2708 1.377 . S
C2709 C2715 1.390 . S
C2710 H2701 0.930 . S
C2710 C2708 1.384 . S
C2710 C2711 1.372 . S
C2711 C2710 1.372 . S
C2711 C2712 1.400 . S
C2711 C2716 1.490 . S
C2712 H2702 0.930 . S
C2712 C2711 1.400 . S
C2712 C2715 1.386 . S
H2713 C2729 0.930 . S
H2714 C2730 0.931 . S
C2715 H2703 0.929 . S
C2715 C2709 1.390 . S
C2715 C2712 1.386 . S
C2716 C2711 1.490 . S
C2716 C2718 1.395 . S
C2716 C2719 1.403 . S
H2717 C2723 0.930 . S
C2718 H2704 0.930 . S
C2718 C2716 1.395 . S
C2718 C2721 1.403 . S
C2719 C2716 1.403 . S
C2719 C2720 1.524 . S
C2719 C2723 1.400 . S
C2720 H2705 0.960 . S
C2720 H2706 0.960 . S
C2720 H2707 0.960 . S
C2720 C2719 1.524 . S
C2721 C2718 1.403 . S
C2721 C2722 1.392 . S
C2721 C2725 1.495 . S
C2722 C2721 1.392 . S
C2722 C2723 1.385 . S
C2722 C2724 1.478 . S
C2723 H2717 0.930 . S
C2723 C2719 1.400 . S
C2723 C2722 1.385 . S
C2724 C2722 1.478 . S
C2724 C2726 1.381 . S
C2724 C2730 1.383 . S
C2725 C2721 1.495 . S
C2725 H2731 0.959 . S
C2725 H2732 0.961 . S
C2725 H2733 0.960 . S
C2726 C2724 1.381 . S
C2726 C2727 1.394 . S
C2726 H2734 0.930 . S
C2727 C2726 1.394 . S
C2727 C2728 1.383 . S
C2727 H2735 0.929 . S
C2728 C2727 1.383 . S
C2728 C2729 1.377 . S
C2729 H2713 0.930 . S
C2729 C2728 1.377 . S
C2729 C2730 1.379 . S
C2730 H2714 0.931 . S
C2730 C2724 1.383 . S
C2730 C2729 1.379 . S
H2731 C2725 0.959 . S
H2732 C2725 0.961 . S
H2733 C2725 0.960 . S
H2734 C2726 0.930 . S
H2735 C2727 0.929 . S
H2736 C2744 0.929 . S
H2737 C2746 0.930 . S
H2738 C2748 0.930 . S
H2739 C2751 0.929 . S
H2740 C2754 0.930 . S
H2741 C2756 0.960 . S
H2742 C2756 0.960 . S
H2743 C2756 0.960 . S
C2744 H2736 0.929 . S
C2744 C2745 1.377 . S
C2744 C2746 1.384 . S
C2745 C2744 1.377 . S
C2745 C2751 1.390 . S
C2746 H2737 0.930 . S
C2746 C2744 1.384 . S
C2746 C2747 1.372 . S
C2747 C2746 1.372 . S
C2747 C2748 1.400 . S
C2747 C2752 1.490 . S
C2748 H2738 0.930 . S
C2748 C2747 1.400 . S
C2748 C2751 1.386 . S
H2749 C2765 0.930 . S
H2750 C2766 0.931 . S
C2751 H2739 0.929 . S
C2751 C2745 1.390 . S
C2751 C2748 1.386 . S
C2752 C2747 1.490 . S
C2752 C2754 1.395 . S
C2752 C2755 1.403 . S
H2753 C2759 0.930 . S
C2754 H2740 0.930 . S
C2754 C2752 1.395 . S
C2754 C2757 1.403 . S
C2755 C2752 1.403 . S
C2755 C2756 1.524 . S
C2755 C2759 1.400 . S
C2756 H2741 0.960 . S
C2756 H2742 0.960 . S
C2756 H2743 0.960 . S
C2756 C2755 1.524 . S
C2757 C2754 1.403 . S
C2757 C2758 1.392 . S
C2757 C2761 1.495 . S
C2758 C2757 1.392 . S
C2758 C2759 1.385 . S
C2758 C2760 1.478 . S
C2759 H2753 0.930 . S
C2759 C2755 1.400 . S
C2759 C2758 1.385 . S
C2760 C2758 1.478 . S
C2760 C2762 1.381 . S
C2760 C2766 1.383 . S
C2761 C2757 1.495 . S
C2761 H2767 0.959 . S
C2761 H2768 0.961 . S
C2761 H2769 0.960 . S
C2762 C2760 1.381 . S
C2762 C2763 1.394 . S
C2762 H2770 0.930 . S
C2763 C2762 1.394 . S
C2763 C2764 1.383 . S
C2763 H2771 0.929 . S
C2764 C2763 1.383 . S
C2764 C2765 1.377 . S
C2765 H2749 0.930 . S
C2765 C2764 1.377 . S
C2765 C2766 1.379 . S
C2766 H2750 0.931 . S
C2766 C2760 1.383 . S
C2766 C2765 1.379 . S
H2767 C2761 0.959 . S
H2768 C2761 0.961 . S
H2769 C2761 0.960 . S
H2770 C2762 0.930 . S
H2771 C2763 0.929 . S
H2772 C2780 0.929 . S
H2773 C2782 0.930 . S
H2774 C2784 0.930 . S
H2775 C2787 0.929 . S
H2776 C2790 0.930 . S
H2777 C2792 0.960 . S
H2778 C2792 0.960 . S
H2779 C2792 0.960 . S
C2780 H2772 0.929 . S
C2780 C2781 1.377 . S
C2780 C2782 1.384 . S
C2781 C2780 1.377 . S
C2781 C2787 1.390 . S
C2782 H2773 0.930 . S
C2782 C2780 1.384 . S
C2782 C2783 1.372 . S
C2783 C2782 1.372 . S
C2783 C2784 1.400 . S
C2783 C2788 1.490 . S
C2784 H2774 0.930 . S
C2784 C2783 1.400 . S
C2784 C2787 1.386 . S
H2785 C2801 0.930 . S
H2786 C2802 0.931 . S
C2787 H2775 0.929 . S
C2787 C2781 1.390 . S
C2787 C2784 1.386 . S
C2788 C2783 1.490 . S
C2788 C2790 1.395 . S
C2788 C2791 1.403 . S
H2789 C2795 0.930 . S
C2790 H2776 0.930 . S
C2790 C2788 1.395 . S
C2790 C2793 1.403 . S
C2791 C2788 1.403 . S
C2791 C2792 1.524 . S
C2791 C2795 1.400 . S
C2792 H2777 0.960 . S
C2792 H2778 0.960 . S
C2792 H2779 0.960 . S
C2792 C2791 1.524 . S
C2793 C2790 1.403 . S
C2793 C2794 1.392 . S
C2793 C2797 1.495 . S
C2794 C2793 1.392 . S
C2794 C2795 1.385 . S
C2794 C2796 1.478 . S
C2795 H2789 0.930 . S
C2795 C2791 1.400 . S
C2795 C2794 1.385 . S
C2796 C2794 1.478 . S
C2796 C2798 1.381 . S
C2796 C2802 1.383 . S
C2797 C2793 1.495 . S
C2797 H2803 0.959 . S
C2797 H2804 0.961 . S
C2797 H2805 0.960 . S
C2798 C2796 1.381 . S
C2798 C2799 1.394 . S
C2798 H2806 0.930 . S
C2799 C2798 1.394 . S
C2799 C2800 1.383 . S
C2799 H2807 0.929 . S
C2800 C2799 1.383 . S
C2800 C2801 1.377 . S
C2801 H2785 0.930 . S
C2801 C2800 1.377 . S
C2801 C2802 1.379 . S
C2802 H2786 0.931 . S
C2802 C2796 1.383 . S
C2802 C2801 1.379 . S
H2803 C2797 0.959 . S
H2804 C2797 0.961 . S
H2805 C2797 0.960 . S
H2806 C2798 0.930 . S
H2807 C2799 0.929 . S
H2808 C2816 0.929 . S
H2809 C2818 0.930 . S
H2810 C2820 0.930 . S
H2811 C2823 0.929 . S
H2812 C2826 0.930 . S
H2813 C2828 0.960 . S
H2814 C2828 0.960 . S
H2815 C2828 0.960 . S
C2816 H2808 0.929 . S
C2816 C2817 1.377 . S
C2816 C2818 1.384 . S
C2817 C2816 1.377 . S
C2817 C2823 1.390 . S
C2818 H2809 0.930 . S
C2818 C2816 1.384 . S
C2818 C2819 1.372 . S
C2819 C2818 1.372 . S
C2819 C2820 1.400 . S
C2819 C2824 1.490 . S
C2820 H2810 0.930 . S
C2820 C2819 1.400 . S
C2820 C2823 1.386 . S
H2821 C2837 0.930 . S
H2822 C2838 0.931 . S
C2823 H2811 0.929 . S
C2823 C2817 1.390 . S
C2823 C2820 1.386 . S
C2824 C2819 1.490 . S
C2824 C2826 1.395 . S
C2824 C2827 1.403 . S
H2825 C2831 0.930 . S
C2826 H2812 0.930 . S
C2826 C2824 1.395 . S
C2826 C2829 1.403 . S
C2827 C2824 1.403 . S
C2827 C2828 1.524 . S
C2827 C2831 1.400 . S
C2828 H2813 0.960 . S
C2828 H2814 0.960 . S
C2828 H2815 0.960 . S
C2828 C2827 1.524 . S
C2829 C2826 1.403 . S
C2829 C2830 1.392 . S
C2829 C2833 1.495 . S
C2830 C2829 1.392 . S
C2830 C2831 1.385 . S
C2830 C2832 1.478 . S
C2831 H2825 0.930 . S
C2831 C2827 1.400 . S
C2831 C2830 1.385 . S
C2832 C2830 1.478 . S
C2832 C2834 1.381 . S
C2832 C2838 1.383 . S
C2833 C2829 1.495 . S
C2833 H2839 0.959 . S
C2833 H2840 0.961 . S
C2833 H2841 0.960 . S
C2834 C2832 1.381 . S
C2834 C2835 1.394 . S
C2834 H2842 0.930 . S
C2835 C2834 1.394 . S
C2835 C2836 1.383 . S
C2835 H2843 0.929 . S
C2836 C2835 1.383 . S
C2836 C2837 1.377 . S
C2837 H2821 0.930 . S
C2837 C2836 1.377 . S
C2837 C2838 1.379 . S
C2838 H2822 0.931 . S
C2838 C2832 1.383 . S
C2838 C2837 1.379 . S
H2839 C2833 0.959 . S
H2840 C2833 0.961 . S
H2841 C2833 0.960 . S
H2842 C2834 0.930 . S
H2843 C2835 0.929 . S
H2844 C2852 0.929 . S
H2845 C2854 0.930 . S
H2846 C2856 0.930 . S
H2847 C2859 0.929 . S
H2848 C2862 0.930 . S
H2849 C2864 0.960 . S
H2850 C2864 0.960 . S
H2851 C2864 0.960 . S
C2852 H2844 0.929 . S
C2852 C2853 1.377 . S
C2852 C2854 1.384 . S
C2853 C2852 1.377 . S
C2853 C2859 1.390 . S
C2854 H2845 0.930 . S
C2854 C2852 1.384 . S
C2854 C2855 1.372 . S
C2855 C2854 1.372 . S
C2855 C2856 1.400 . S
C2855 C2860 1.490 . S
C2856 H2846 0.930 . S
C2856 C2855 1.400 . S
C2856 C2859 1.386 . S
H2857 C2873 0.930 . S
H2858 C2874 0.931 . S
C2859 H2847 0.929 . S
C2859 C2853 1.390 . S
C2859 C2856 1.386 . S
C2860 C2855 1.490 . S
C2860 C2862 1.395 . S
C2860 C2863 1.403 . S
H2861 C2867 0.930 . S
C2862 H2848 0.930 . S
C2862 C2860 1.395 . S
C2862 C2865 1.403 . S
C2863 C2860 1.403 . S
C2863 C2864 1.524 . S
C2863 C2867 1.400 . S
C2864 H2849 0.960 . S
C2864 H2850 0.960 . S
C2864 H2851 0.960 . S
C2864 C2863 1.524 . S
C2865 C2862 1.403 . S
C2865 C2866 1.392 . S
C2865 C2869 1.495 . S
C2866 C2865 1.392 . S
C2866 C2867 1.385 . S
C2866 C2868 1.478 . S
C2867 H2861 0.930 . S
C2867 C2863 1.400 . S
C2867 C2866 1.385 . S
C2868 C2866 1.478 . S
C2868 C2870 1.381 . S
C2868 C2874 1.383 . S
C2869 C2865 1.495 . S
C2869 H2875 0.959 . S
C2869 H2876 0.961 . S
C2869 H2877 0.960 . S
C2870 C2868 1.381 . S
C2870 C2871 1.394 . S
C2870 H2878 0.930 . S
C2871 C2870 1.394 . S
C2871 C2872 1.383 . S
C2871 H2879 0.929 . S
C2872 C2871 1.383 . S
C2872 C2873 1.377 . S
C2873 H2857 0.930 . S
C2873 C2872 1.377 . S
C2873 C2874 1.379 . S
C2874 H2858 0.931 . S
C2874 C2868 1.383 . S
C2874 C2873 1.379 . S
H2875 C2869 0.959 . S
H2876 C2869 0.961 . S
H2877 C2869 0.960 . S
H2878 C2870 0.930 . S
H2879 C2871 0.929 . S
H2880 C2888 0.929 . S
H2881 C2890 0.930 . S
H2882 C2892 0.930 . S
H2883 C2895 0.929 . S
H2884 C2898 0.930 . S
H2885 C2900 0.960 . S
H2886 C2900 0.960 . S
H2887 C2900 0.960 . S
C2888 H2880 0.929 . S
C2888 C2889 1.377 . S
C2888 C2890 1.384 . S
C2889 C2888 1.377 . S
C2889 C2895 1.390 . S
C2890 H2881 0.930 . S
C2890 C2888 1.384 . S
C2890 C2891 1.372 . S
C2891 C2890 1.372 . S
C2891 C2892 1.400 . S
C2891 C2896 1.490 . S
C2892 H2882 0.930 . S
C2892 C2891 1.400 . S
C2892 C2895 1.386 . S
H2893 C2909 0.930 . S
H2894 C2910 0.931 . S
C2895 H2883 0.929 . S
C2895 C2889 1.390 . S
C2895 C2892 1.386 . S
C2896 C2891 1.490 . S
C2896 C2898 1.395 . S
C2896 C2899 1.403 . S
H2897 C2903 0.930 . S
C2898 H2884 0.930 . S
C2898 C2896 1.395 . S
C2898 C2901 1.403 . S
C2899 C2896 1.403 . S
C2899 C2900 1.524 . S
C2899 C2903 1.400 . S
C2900 H2885 0.960 . S
C2900 H2886 0.960 . S
C2900 H2887 0.960 . S
C2900 C2899 1.524 . S
C2901 C2898 1.403 . S
C2901 C2902 1.392 . S
C2901 C2905 1.495 . S
C2902 C2901 1.392 . S
C2902 C2903 1.385 . S
C2902 C2904 1.478 . S
C2903 H2897 0.930 . S
C2903 C2899 1.400 . S
C2903 C2902 1.385 . S
C2904 C2902 1.478 . S
C2904 C2906 1.381 . S
C2904 C2910 1.383 . S
C2905 C2901 1.495 . S
C2905 H2911 0.959 . S
C2905 H2912 0.961 . S
C2905 H2913 0.960 . S
C2906 C2904 1.381 . S
C2906 C2907 1.394 . S
C2906 H2914 0.930 . S
C2907 C2906 1.394 . S
C2907 C2908 1.383 . S
C2907 H2915 0.929 . S
C2908 C2907 1.383 . S
C2908 C2909 1.377 . S
C2909 H2893 0.930 . S
C2909 C2908 1.377 . S
C2909 C2910 1.379 . S
C2910 H2894 0.931 . S
C2910 C2904 1.383 . S
C2910 C2909 1.379 . S
H2911 C2905 0.959 . S
H2912 C2905 0.961 . S
H2913 C2905 0.960 . S
H2914 C2906 0.930 . S
H2915 C2907 0.929 . S
H2916 C2924 0.964 . S
H2917 C2926 0.930 . S
H2918 C2928 0.930 . S
H2919 C2931 0.929 . S
H2920 C2934 0.930 . S
H2921 C2936 0.960 . S
H2922 C2936 0.960 . S
H2923 C2936 0.960 1_455 S
C2924 H2916 0.964 . S
C2924 C2925 1.311 1_655 S
C2924 C2926 1.420 . S
C2925 C2924 1.311 1_455 S
C2925 C2931 1.390 . S
C2926 H2917 0.930 . S
C2926 C2924 1.420 . S
C2926 C2927 1.372 1_655 S
C2927 C2926 1.372 1_455 S
C2927 C2928 1.400 . S
C2927 C2932 1.490 . S
C2928 H2918 0.930 . S
C2928 C2927 1.400 . S
C2928 C2931 1.386 . S
H2929 C2945 0.930 . S
H2930 C2946 0.931 . S
C2931 H2919 0.929 . S
C2931 C2925 1.390 . S
C2931 C2928 1.386 . S
C2932 C2927 1.490 . S
C2932 C2934 1.395 . S
C2932 C2935 1.403 . S
H2933 C2939 0.930 1_655 S
C2934 H2920 0.930 . S
C2934 C2932 1.395 . S
C2934 C2937 1.403 . S
C2935 C2932 1.403 . S
C2935 C2936 1.524 1_455 S
C2935 C2939 1.400 . S
C2936 H2921 0.960 . S
C2936 H2922 0.960 . S
C2936 H2923 0.960 1_655 S
C2936 C2935 1.524 1_655 S
C2937 C2934 1.403 . S
C2937 C2938 1.392 . S
C2937 C2941 1.495 . S
C2938 C2937 1.392 . S
C2938 C2939 1.385 . S
C2938 C2940 1.478 . S
C2939 H2933 0.930 1_455 S
C2939 C2935 1.400 . S
C2939 C2938 1.385 . S
C2940 C2938 1.478 . S
C2940 C2942 1.381 1_455 S
C2940 C2946 1.383 . S
C2941 C2937 1.495 . S
C2941 H2947 0.959 . S
C2941 H2948 0.961 . S
C2941 H2949 0.960 . S
C2942 C2940 1.381 1_655 S
C2942 C2943 1.394 . S
C2942 H2950 0.930 . S
C2943 C2942 1.394 . S
C2943 C2944 1.383 1_655 S
C2943 H2951 0.929 . S
C2944 C2943 1.383 1_455 S
C2944 C2945 1.377 . S
C2945 H2929 0.930 . S
C2945 C2944 1.377 . S
C2945 C2946 1.379 . S
C2946 H2930 0.931 . S
C2946 C2940 1.383 . S
C2946 C2945 1.379 . S
H2947 C2941 0.959 . S
H2948 C2941 0.961 . S
H2949 C2941 0.960 . S
H2950 C2942 0.930 . S
H2951 C2943 0.929 . S
H2952 C2960 0.929 . S
H2953 C2962 0.930 . S
H2954 C2964 0.930 . S
H2955 C2967 0.929 . S
H2956 C2970 0.930 . S
H2957 C2972 0.960 . S
H2958 C2972 0.960 . S
H2959 C2972 0.960 . S
C2960 H2952 0.929 . S
C2960 C2961 1.377 . S
C2960 C2962 1.384 . S
C2961 C2960 1.377 . S
C2961 C2967 1.390 . S
C2962 H2953 0.930 . S
C2962 C2960 1.384 . S
C2962 C2963 1.372 . S
C2963 C2962 1.372 . S
C2963 C2964 1.400 . S
C2963 C2968 1.490 . S
C2964 H2954 0.930 . S
C2964 C2963 1.400 . S
C2964 C2967 1.386 . S
H2965 C2981 0.930 . S
H2966 C2982 0.931 . S
C2967 H2955 0.929 . S
C2967 C2961 1.390 . S
C2967 C2964 1.386 . S
C2968 C2963 1.490 . S
C2968 C2970 1.395 . S
C2968 C2971 1.403 . S
H2969 C2975 0.930 . S
C2970 H2956 0.930 . S
C2970 C2968 1.395 . S
C2970 C2973 1.403 . S
C2971 C2968 1.403 . S
C2971 C2972 1.524 . S
C2971 C2975 1.400 . S
C2972 H2957 0.960 . S
C2972 H2958 0.960 . S
C2972 H2959 0.960 . S
C2972 C2971 1.524 . S
C2973 C2970 1.403 . S
C2973 C2974 1.392 . S
C2973 C2977 1.495 . S
C2974 C2973 1.392 . S
C2974 C2975 1.385 . S
C2974 C2976 1.478 . S
C2975 H2969 0.930 . S
C2975 C2971 1.400 . S
C2975 C2974 1.385 . S
C2976 C2974 1.478 . S
C2976 C2978 1.381 . S
C2976 C2982 1.383 . S
C2977 C2973 1.495 . S
C2977 H2983 0.959 . S
C2977 H2984 0.961 . S
C2977 H2985 0.960 . S
C2978 C2976 1.381 . S
C2978 C2979 1.394 . S
C2978 H2986 0.930 . S
C2979 C2978 1.394 . S
C2979 C2980 1.383 . S
C2979 H2987 0.929 . S
C2980 C2979 1.383 . S
C2980 C2981 1.377 . S
C2981 H2965 0.930 . S
C2981 C2980 1.377 . S
C2981 C2982 1.379 . S
C2982 H2966 0.931 . S
C2982 C2976 1.383 . S
C2982 C2981 1.379 . S
H2983 C2977 0.959 . S
H2984 C2977 0.961 . S
H2985 C2977 0.960 . S
H2986 C2978 0.930 . S
H2987 C2979 0.929 . S
H2988 C2996 0.929 . S
H2989 C2998 0.930 . S
H2990 C3000 0.930 . S
H2991 C3003 0.929 . S
H2992 C3006 0.930 . S
H2993 C3008 0.960 . S
H2994 C3008 0.960 1_545 S
H2995 C3008 0.960 . S
C2996 H2988 0.929 . S
C2996 C2997 1.377 1_545 S
C2996 C2998 1.384 . S
C2997 C2996 1.377 1_565 S
C2997 C3003 1.390 . S
C2998 H2989 0.930 . S
C2998 C2996 1.384 . S
C2998 C2999 1.372 1_545 S
C2999 C2998 1.372 1_565 S
C2999 C3000 1.400 . S
C2999 C3004 1.490 . S
C3000 H2990 0.930 . S
C3000 C2999 1.400 . S
C3000 C3003 1.386 . S
H3001 C3017 0.930 . S
H3002 C3018 0.931 . S
C3003 H2991 0.929 . S
C3003 C2997 1.390 . S
C3003 C3000 1.386 . S
C3004 C2999 1.490 . S
C3004 C3006 1.395 . S
C3004 C3007 1.403 . S
H3005 C3011 0.930 . S
C3006 H2992 0.930 . S
C3006 C3004 1.395 . S
C3006 C3009 1.403 . S
C3007 C3004 1.403 . S
C3007 C3008 1.524 . S
C3007 C3011 1.400 . S
C3008 H2993 0.960 . S
C3008 H2994 0.960 1_565 S
C3008 H2995 0.960 . S
C3008 C3007 1.524 . S
C3009 C3006 1.403 . S
C3009 C3010 1.392 . S
C3009 C3013 1.495 . S
C3010 C3009 1.392 . S
C3010 C3011 1.385 . S
C3010 C3012 1.478 . S
C3011 H3005 0.930 . S
C3011 C3007 1.400 . S
C3011 C3010 1.385 . S
C3012 C3010 1.478 . S
C3012 C3014 1.381 1_565 S
C3012 C3018 1.383 . S
C3013 C3009 1.495 . S
C3013 H3019 0.959 . S
C3013 H3020 0.961 . S
C3013 H3021 0.960 1_565 S
C3014 C3012 1.381 1_545 S
C3014 C3015 1.394 . S
C3014 H3022 0.930 . S
C3015 C3014 1.394 . S
C3015 C3016 1.383 1_545 S
C3015 H3023 0.929 . S
C3016 C3015 1.383 1_565 S
C3016 C3017 1.377 . S
C3017 H3001 0.930 . S
C3017 C3016 1.377 . S
C3017 C3018 1.379 . S
C3018 H3002 0.931 . S
C3018 C3012 1.383 . S
C3018 C3017 1.379 . S
H3019 C3013 0.959 . S
H3020 C3013 0.961 . S
H3021 C3013 0.960 1_545 S
H3022 C3014 0.930 . S
H3023 C3015 0.929 . S
H3024 C3032 0.929 . S
H3025 C3034 0.930 . S
H3026 C3036 0.930 . S
H3027 C3039 0.929 . S
H3028 C3042 0.930 . S
H3029 C3044 0.960 . S
H3030 C3044 0.960 . S
H3031 C3044 0.960 . S
C3032 H3024 0.929 . S
C3032 C3033 1.377 1_545 S
C3032 C3034 1.384 . S
C3033 C3032 1.377 1_565 S
C3033 C3039 1.390 . S
C3034 H3025 0.930 . S
C3034 C3032 1.384 . S
C3034 C3035 1.372 1_545 S
C3035 C3034 1.372 1_565 S
C3035 C3036 1.400 . S
C3035 C3040 1.490 . S
C3036 H3026 0.930 . S
C3036 C3035 1.400 . S
C3036 C3039 1.386 . S
H3037 C3053 0.930 . S
H3038 C3054 0.931 . S
C3039 H3027 0.929 . S
C3039 C3033 1.390 . S
C3039 C3036 1.386 . S
C3040 C3035 1.490 . S
C3040 C3042 1.395 1_565 S
C3040 C3043 1.403 . S
H3041 C3047 0.930 . S
C3042 H3028 0.930 . S
C3042 C3040 1.395 1_545 S
C3042 C3045 1.403 . S
C3043 C3040 1.403 . S
C3043 C3044 1.524 . S
C3043 C3047 1.400 . S
C3044 H3029 0.960 . S
C3044 H3030 0.960 . S
C3044 H3031 0.960 . S
C3044 C3043 1.524 . S
C3045 C3042 1.403 . S
C3045 C3046 1.392 1_545 S
C3045 C3049 1.495 . S
C3046 C3045 1.392 1_565 S
C3046 C3047 1.385 . S
C3046 C3048 1.478 . S
C3047 H3041 0.930 . S
C3047 C3043 1.400 . S
C3047 C3046 1.385 . S
C3048 C3046 1.478 . S
C3048 C3050 1.381 1_565 S
C3048 C3054 1.383 . S
C3049 C3045 1.495 . S
C3049 H3055 0.959 . S
C3049 H3056 0.961 . S
C3049 H3057 0.960 . S
C3050 C3048 1.381 1_545 S
C3050 C3051 1.394 . S
C3050 H3058 0.930 . S
C3051 C3050 1.394 . S
C3051 C3052 1.383 1_545 S
C3051 H3059 0.929 . S
C3052 C3051 1.383 1_565 S
C3052 C3053 1.377 . S
C3053 H3037 0.930 . S
C3053 C3052 1.377 . S
C3053 C3054 1.379 . S
C3054 H3038 0.931 . S
C3054 C3048 1.383 . S
C3054 C3053 1.379 . S
H3055 C3049 0.959 . S
H3056 C3049 0.961 . S
H3057 C3049 0.960 . S
H3058 C3050 0.930 . S
H3059 C3051 0.929 . S
H3060 C3068 0.929 . S
H3061 C3070 0.930 . S
H3062 C3072 0.930 . S
H3063 C3075 0.929 . S
H3064 C3078 0.930 . S
H3065 C3080 0.960 . S
H3066 C3080 0.960 . S
H3067 C3080 0.960 . S
C3068 H3060 0.929 . S
C3068 C3069 1.377 . S
C3068 C3070 1.384 . S
C3069 C3068 1.377 . S
C3069 C3075 1.390 . S
C3070 H3061 0.930 . S
C3070 C3068 1.384 . S
C3070 C3071 1.372 . S
C3071 C3070 1.372 . S
C3071 C3072 1.400 . S
C3071 C3076 1.490 . S
C3072 H3062 0.930 . S
C3072 C3071 1.400 . S
C3072 C3075 1.386 . S
H3073 C3089 0.930 . S
H3074 C3090 0.931 . S
C3075 H3063 0.929 . S
C3075 C3069 1.390 . S
C3075 C3072 1.386 . S
C3076 C3071 1.490 . S
C3076 C3078 1.395 . S
C3076 C3079 1.403 1_455 S
H3077 C3083 0.930 . S
C3078 H3064 0.930 . S
C3078 C3076 1.395 . S
C3078 C3081 1.403 . S
C3079 C3076 1.403 1_655 S
C3079 C3080 1.524 . S
C3079 C3083 1.400 . S
C3080 H3065 0.960 . S
C3080 H3066 0.960 . S
C3080 H3067 0.960 . S
C3080 C3079 1.524 . S
C3081 C3078 1.403 . S
C3081 C3082 1.392 . S
C3081 C3085 1.495 . S
C3082 C3081 1.392 . S
C3082 C3083 1.385 1_455 S
C3082 C3084 1.478 . S
C3083 H3077 0.930 . S
C3083 C3079 1.400 . S
C3083 C3082 1.385 1_655 S
C3084 C3082 1.478 . S
C3084 C3086 1.381 . S
C3084 C3090 1.383 . S
C3085 C3081 1.495 . S
C3085 H3091 0.959 . S
C3085 H3092 0.961 . S
C3085 H3093 0.960 . S
C3086 C3084 1.381 . S
C3086 C3087 1.383 . S
C3086 H3094 0.944 . S
C3087 C3086 1.383 . S
C3087 C3088 1.406 . S
C3087 H3095 0.920 1_455 S
C3088 C3087 1.406 . S
C3088 C3089 1.377 . S
C3089 H3073 0.930 . S
C3089 C3088 1.377 . S
C3089 C3090 1.379 . S
C3090 H3074 0.931 . S
C3090 C3084 1.383 . S
C3090 C3089 1.379 . S
H3091 C3085 0.959 . S
H3092 C3085 0.961 . S
H3093 C3085 0.960 . S
H3094 C3086 0.944 . S
H3095 C3087 0.920 1_655 S
H3096 C3104 0.929 . S
H3097 C3106 0.930 . S
H3098 C3108 0.930 . S
H3099 C3111 0.929 . S
H3100 C3114 0.930 . S
H3101 C3116 0.960 . S
H3102 C3116 0.960 . S
H3103 C3116 0.960 . S
C3104 H3096 0.929 . S
C3104 C3105 1.377 . S
C3104 C3106 1.384 . S
C3105 C3104 1.377 . S
C3105 C3111 1.390 . S
C3106 H3097 0.930 . S
C3106 C3104 1.384 . S
C3106 C3107 1.372 . S
C3107 C3106 1.372 . S
C3107 C3108 1.400 . S
C3107 C3112 1.490 . S
C3108 H3098 0.930 . S
C3108 C3107 1.400 . S
C3108 C3111 1.386 . S
H3109 C3125 0.930 . S
H3110 C3126 0.931 . S
C3111 H3099 0.929 . S
C3111 C3105 1.390 . S
C3111 C3108 1.386 . S
C3112 C3107 1.490 . S
C3112 C3114 1.395 . S
C3112 C3115 1.403 . S
H3113 C3119 0.930 . S
C3114 H3100 0.930 . S
C3114 C3112 1.395 . S
C3114 C3117 1.403 . S
C3115 C3112 1.403 . S
C3115 C3116 1.524 . S
C3115 C3119 1.400 . S
C3116 H3101 0.960 . S
C3116 H3102 0.960 . S
C3116 H3103 0.960 . S
C3116 C3115 1.524 . S
C3117 C3114 1.403 . S
C3117 C3118 1.392 . S
C3117 C3121 1.495 . S
C3118 C3117 1.392 . S
C3118 C3119 1.385 . S
C3118 C3120 1.478 . S
C3119 H3113 0.930 . S
C3119 C3115 1.400 . S
C3119 C3118 1.385 . S
C3120 C3118 1.478 . S
C3120 C3122 1.381 . S
C3120 C3126 1.383 . S
C3121 C3117 1.495 . S
C3121 H3127 0.959 . S
C3121 H3128 0.961 . S
C3121 H3129 0.960 . S
C3122 C3120 1.381 . S
C3122 C3123 1.394 . S
C3122 H3130 0.930 . S
C3123 C3122 1.394 . S
C3123 C3124 1.383 . S
C3123 H3131 0.929 . S
C3124 C3123 1.383 . S
C3124 C3125 1.377 . S
C3125 H3109 0.930 . S
C3125 C3124 1.377 . S
C3125 C3126 1.379 . S
C3126 H3110 0.931 . S
C3126 C3120 1.383 . S
C3126 C3125 1.379 . S
H3127 C3121 0.959 . S
H3128 C3121 0.961 . S
H3129 C3121 0.960 . S
H3130 C3122 0.930 . S
H3131 C3123 0.929 . S
H3132 C3140 0.929 . S
H3133 C3142 0.930 . S
H3134 C3144 0.930 . S
H3135 C3147 0.929 . S
H3136 C3150 0.930 . S
H3137 C3152 0.960 . S
H3138 C3152 0.960 . S
H3139 C3152 0.960 . S
C3140 H3132 0.929 . S
C3140 C3141 1.377 . S
C3140 C3142 1.384 . S
C3141 C3140 1.377 . S
C3141 C3147 1.390 . S
C3142 H3133 0.930 . S
C3142 C3140 1.384 . S
C3142 C3143 1.372 . S
C3143 C3142 1.372 . S
C3143 C3144 1.400 . S
C3143 C3148 1.490 . S
C3144 H3134 0.930 . S
C3144 C3143 1.400 . S
C3144 C3147 1.386 . S
H3145 C3161 0.930 . S
H3146 C3162 0.931 . S
C3147 H3135 0.929 . S
C3147 C3141 1.390 . S
C3147 C3144 1.386 . S
C3148 C3143 1.490 . S
C3148 C3150 1.395 . S
C3148 C3151 1.403 . S
H3149 C3155 0.930 . S
C3150 H3136 0.930 . S
C3150 C3148 1.395 . S
C3150 C3153 1.403 . S
C3151 C3148 1.403 . S
C3151 C3152 1.524 . S
C3151 C3155 1.400 . S
C3152 H3137 0.960 . S
C3152 H3138 0.960 . S
C3152 H3139 0.960 . S
C3152 C3151 1.524 . S
C3153 C3150 1.403 . S
C3153 C3154 1.392 . S
C3153 C3157 1.495 . S
C3154 C3153 1.392 . S
C3154 C3155 1.385 . S
C3154 C3156 1.478 . S
C3155 H3149 0.930 . S
C3155 C3151 1.400 . S
C3155 C3154 1.385 . S
C3156 C3154 1.478 . S
C3156 C3158 1.381 . S
C3156 C3162 1.383 . S
C3157 C3153 1.495 . S
C3157 H3163 0.959 . S
C3157 H3164 0.961 . S
C3157 H3165 0.960 . S
C3158 C3156 1.381 . S
C3158 C3159 1.394 . S
C3158 H3166 0.930 . S
C3159 C3158 1.394 . S
C3159 C3160 1.383 . S
C3159 H3167 0.929 . S
C3160 C3159 1.383 . S
C3160 C3161 1.377 . S
C3161 H3145 0.930 . S
C3161 C3160 1.377 . S
C3161 C3162 1.379 . S
C3162 H3146 0.931 . S
C3162 C3156 1.383 . S
C3162 C3161 1.379 . S
H3163 C3157 0.959 . S
H3164 C3157 0.961 . S
H3165 C3157 0.960 . S
H3166 C3158 0.930 . S
H3167 C3159 0.929 . S
H3168 C3176 0.929 . S
H3169 C3178 0.930 . S
H3170 C3180 0.930 . S
H3171 C3183 0.929 . S
H3172 C3186 0.930 . S
H3173 C3188 0.960 . S
H3174 C3188 0.960 . S
H3175 C3188 0.960 . S
C3176 H3168 0.929 . S
C3176 C3177 1.377 . S
C3176 C3178 1.384 . S
C3177 C3176 1.377 . S
C3177 C3183 1.390 . S
C3178 H3169 0.930 . S
C3178 C3176 1.384 . S
C3178 C3179 1.372 . S
C3179 C3178 1.372 . S
C3179 C3180 1.400 . S
C3179 C3184 1.490 . S
C3180 H3170 0.930 . S
C3180 C3179 1.400 . S
C3180 C3183 1.386 . S
H3181 C3197 0.930 . S
H3182 C3198 0.931 . S
C3183 H3171 0.929 . S
C3183 C3177 1.390 . S
C3183 C3180 1.386 . S
C3184 C3179 1.490 . S
C3184 C3186 1.395 . S
C3184 C3187 1.403 . S
H3185 C3191 0.930 . S
C3186 H3172 0.930 . S
C3186 C3184 1.395 . S
C3186 C3189 1.403 . S
C3187 C3184 1.403 . S
C3187 C3188 1.524 . S
C3187 C3191 1.400 . S
C3188 H3173 0.960 . S
C3188 H3174 0.960 . S
C3188 H3175 0.960 . S
C3188 C3187 1.524 . S
C3189 C3186 1.403 . S
C3189 C3190 1.392 . S
C3189 C3193 1.495 . S
C3190 C3189 1.392 . S
C3190 C3191 1.385 . S
C3190 C3192 1.478 . S
C3191 H3185 0.930 . S
C3191 C3187 1.400 . S
C3191 C3190 1.385 . S
C3192 C3190 1.478 . S
C3192 C3194 1.381 . S
C3192 C3198 1.383 . S
C3193 C3189 1.495 . S
C3193 H3199 0.959 . S
C3193 H3200 0.961 . S
C3193 H3201 0.960 . S
C3194 C3192 1.381 . S
C3194 C3195 1.394 . S
C3194 H3202 0.930 . S
C3195 C3194 1.394 . S
C3195 C3196 1.383 . S
C3195 H3203 0.929 . S
C3196 C3195 1.383 . S
C3196 C3197 1.377 . S
C3197 H3181 0.930 . S
C3197 C3196 1.377 . S
C3197 C3198 1.379 . S
C3198 H3182 0.931 . S
C3198 C3192 1.383 . S
C3198 C3197 1.379 . S
H3199 C3193 0.959 . S
H3200 C3193 0.961 . S
H3201 C3193 0.960 . S
H3202 C3194 0.930 . S
H3203 C3195 0.929 . S
H3204 C3212 0.929 . S
H3205 C3214 0.930 . S
H3206 C3216 0.930 . S
H3207 C3219 0.929 . S
H3208 C3222 0.930 . S
H3209 C3224 0.960 . S
H3210 C3224 0.960 . S
H3211 C3224 0.960 . S
C3212 H3204 0.929 . S
C3212 C3213 1.377 . S
C3212 C3214 1.384 . S
C3213 C3212 1.377 . S
C3213 C3219 1.390 . S
C3214 H3205 0.930 . S
C3214 C3212 1.384 . S
C3214 C3215 1.372 . S
C3215 C3214 1.372 . S
C3215 C3216 1.400 . S
C3215 C3220 1.490 . S
C3216 H3206 0.930 . S
C3216 C3215 1.400 . S
C3216 C3219 1.386 . S
H3217 C3233 0.930 . S
H3218 C3234 0.931 . S
C3219 H3207 0.929 . S
C3219 C3213 1.390 . S
C3219 C3216 1.386 . S
C3220 C3215 1.490 . S
C3220 C3222 1.395 . S
C3220 C3223 1.403 . S
H3221 C3227 0.930 . S
C3222 H3208 0.930 . S
C3222 C3220 1.395 . S
C3222 C3225 1.403 . S
C3223 C3220 1.403 . S
C3223 C3224 1.524 . S
C3223 C3227 1.400 . S
C3224 H3209 0.960 . S
C3224 H3210 0.960 . S
C3224 H3211 0.960 . S
C3224 C3223 1.524 . S
C3225 C3222 1.403 . S
C3225 C3226 1.392 . S
C3225 C3229 1.495 . S
C3226 C3225 1.392 . S
C3226 C3227 1.385 . S
C3226 C3228 1.478 . S
C3227 H3221 0.930 . S
C3227 C3223 1.400 . S
C3227 C3226 1.385 . S
C3228 C3226 1.478 . S
C3228 C3230 1.381 . S
C3228 C3234 1.383 . S
C3229 C3225 1.495 . S
C3229 H3235 0.959 . S
C3229 H3236 0.961 . S
C3229 H3237 0.960 . S
C3230 C3228 1.381 . S
C3230 C3231 1.394 . S
C3230 H3238 0.930 . S
C3231 C3230 1.394 . S
C3231 C3232 1.383 . S
C3231 H3239 0.929 . S
C3232 C3231 1.383 . S
C3232 C3233 1.377 . S
C3233 H3217 0.930 . S
C3233 C3232 1.377 . S
C3233 C3234 1.379 . S
C3234 H3218 0.931 . S
C3234 C3228 1.383 . S
C3234 C3233 1.379 . S
H3235 C3229 0.959 . S
H3236 C3229 0.961 . S
H3237 C3229 0.960 . S
H3238 C3230 0.930 . S
H3239 C3231 0.929 . S
H3240 C3248 0.961 . S
H3241 C3250 0.930 . S
H3242 C3252 0.930 . S
H3243 C3255 0.929 . S
H3244 C3258 0.930 . S
H3245 C3260 0.960 . S
H3246 C3260 0.960 . S
H3247 C3260 0.960 1_545 S
C3248 H3240 0.961 . S
C3248 C3249 1.317 1_565 S
C3248 C3250 1.417 . S
C3249 C3248 1.317 1_545 S
C3249 C3255 1.390 . S
C3250 H3241 0.930 . S
C3250 C3248 1.417 . S
C3250 C3251 1.372 1_565 S
C3251 C3250 1.372 1_545 S
C3251 C3252 1.400 . S
C3251 C3256 1.490 . S
C3252 H3242 0.930 . S
C3252 C3251 1.400 . S
C3252 C3255 1.386 . S
H3253 C3269 0.930 . S
H3254 C3270 0.931 . S
C3255 H3243 0.929 . S
C3255 C3249 1.390 . S
C3255 C3252 1.386 . S
C3256 C3251 1.490 . S
C3256 C3258 1.395 . S
C3256 C3259 1.403 . S
H3257 C3263 0.930 1_565 S
C3258 H3244 0.930 . S
C3258 C3256 1.395 . S
C3258 C3261 1.403 . S
C3259 C3256 1.403 . S
C3259 C3260 1.524 1_545 S
C3259 C3263 1.400 . S
C3260 H3245 0.960 . S
C3260 H3246 0.960 . S
C3260 H3247 0.960 1_565 S
C3260 C3259 1.524 1_565 S
C3261 C3258 1.403 . S
C3261 C3262 1.392 . S
C3261 C3265 1.495 . S
C3262 C3261 1.392 . S
C3262 C3263 1.385 . S
C3262 C3264 1.478 . S
C3263 H3257 0.930 1_545 S
C3263 C3259 1.400 . S
C3263 C3262 1.385 . S
C3264 C3262 1.478 . S
C3264 C3266 1.381 1_545 S
C3264 C3270 1.383 . S
C3265 C3261 1.495 . S
C3265 H3271 0.959 . S
C3265 H3272 0.961 . S
C3265 H3273 0.960 . S
C3266 C3264 1.381 1_565 S
C3266 C3267 1.394 . S
C3266 H3274 0.930 . S
C3267 C3266 1.394 . S
C3267 C3268 1.383 1_565 S
C3267 H3275 0.929 . S
C3268 C3267 1.383 1_545 S
C3268 C3269 1.377 . S
C3269 H3253 0.930 . S
C3269 C3268 1.377 . S
C3269 C3270 1.379 . S
C3270 H3254 0.931 . S
C3270 C3264 1.383 . S
C3270 C3269 1.379 . S
H3271 C3265 0.959 . S
H3272 C3265 0.961 . S
H3273 C3265 0.960 . S
H3274 C3266 0.930 . S
H3275 C3267 0.929 . S
H3276 C3284 0.929 . S
H3277 C3286 0.930 . S
H3278 C3288 0.930 . S
H3279 C3291 0.929 . S
H3280 C3294 0.930 . S
H3281 C3296 0.960 . S
H3282 C3296 0.960 . S
H3283 C3296 0.960 . S
C3284 H3276 0.929 . S
C3284 C3285 1.377 1_455 S
C3284 C3286 1.384 . S
C3285 C3284 1.377 1_655 S
C3285 C3291 1.390 . S
C3286 H3277 0.930 . S
C3286 C3284 1.384 . S
C3286 C3287 1.372 1_455 S
C3287 C3286 1.372 1_655 S
C3287 C3288 1.400 . S
C3287 C3292 1.490 . S
C3288 H3278 0.930 . S
C3288 C3287 1.400 . S
C3288 C3291 1.386 . S
H3289 C3305 0.930 . S
H3290 C3306 0.931 . S
C3291 H3279 0.929 . S
C3291 C3285 1.390 . S
C3291 C3288 1.386 . S
C3292 C3287 1.490 . S
C3292 C3294 1.395 1_655 S
C3292 C3295 1.403 . S
H3293 C3299 0.930 . S
C3294 H3280 0.930 . S
C3294 C3292 1.395 1_455 S
C3294 C3297 1.403 . S
C3295 C3292 1.403 . S
C3295 C3296 1.524 . S
C3295 C3299 1.400 . S
C3296 H3281 0.960 . S
C3296 H3282 0.960 . S
C3296 H3283 0.960 . S
C3296 C3295 1.524 . S
C3297 C3294 1.403 . S
C3297 C3298 1.392 1_455 S
C3297 C3301 1.495 . S
C3298 C3297 1.392 1_655 S
C3298 C3299 1.385 . S
C3298 C3300 1.478 . S
C3299 H3293 0.930 . S
C3299 C3295 1.400 . S
C3299 C3298 1.385 . S
C3300 C3298 1.478 . S
C3300 C3302 1.381 1_655 S
C3300 C3306 1.383 . S
C3301 C3297 1.495 . S
C3301 H3307 0.959 . S
C3301 H3308 0.961 . S
C3301 H3309 0.960 . S
C3302 C3300 1.381 1_455 S
C3302 C3303 1.394 . S
C3302 H3310 0.930 . S
C3303 C3302 1.394 . S
C3303 C3304 1.383 1_455 S
C3303 H3311 0.929 . S
C3304 C3303 1.383 1_655 S
C3304 C3305 1.377 . S
C3305 H3289 0.930 . S
C3305 C3304 1.377 . S
C3305 C3306 1.379 . S
C3306 H3290 0.931 . S
C3306 C3300 1.383 . S
C3306 C3305 1.379 . S
H3307 C3301 0.959 . S
H3308 C3301 0.961 . S
H3309 C3301 0.960 . S
H3310 C3302 0.930 . S
H3311 C3303 0.929 . S
H3312 C3320 0.929 . S
H3313 C3322 0.930 . S
H3314 C3324 0.930 . S
H3315 C3327 0.929 . S
H3316 C3330 0.930 . S
H3317 C3332 0.960 . S
H3318 C3332 0.960 . S
H3319 C3332 0.960 . S
C3320 H3312 0.929 . S
C3320 C3321 1.377 . S
C3320 C3322 1.384 . S
C3321 C3320 1.377 . S
C3321 C3327 1.390 . S
C3322 H3313 0.930 . S
C3322 C3320 1.384 . S
C3322 C3323 1.372 . S
C3323 C3322 1.372 . S
C3323 C3324 1.400 . S
C3323 C3328 1.490 . S
C3324 H3314 0.930 . S
C3324 C3323 1.400 . S
C3324 C3327 1.386 . S
H3325 C3341 0.930 . S
H3326 C3342 0.931 . S
C3327 H3315 0.929 . S
C3327 C3321 1.390 . S
C3327 C3324 1.386 . S
C3328 C3323 1.490 . S
C3328 C3330 1.395 . S
C3328 C3331 1.403 . S
H3329 C3335 0.930 . S
C3330 H3316 0.930 . S
C3330 C3328 1.395 . S
C3330 C3333 1.403 . S
C3331 C3328 1.403 . S
C3331 C3332 1.524 . S
C3331 C3335 1.400 . S
C3332 H3317 0.960 . S
C3332 H3318 0.960 . S
C3332 H3319 0.960 . S
C3332 C3331 1.524 . S
C3333 C3330 1.403 . S
C3333 C3334 1.392 . S
C3333 C3337 1.495 . S
C3334 C3333 1.392 . S
C3334 C3335 1.385 . S
C3334 C3336 1.478 . S
C3335 H3329 0.930 . S
C3335 C3331 1.400 . S
C3335 C3334 1.385 . S
C3336 C3334 1.478 . S
C3336 C3338 1.381 . S
C3336 C3342 1.383 . S
C3337 C3333 1.495 . S
C3337 H3343 0.959 . S
C3337 H3344 0.961 . S
C3337 H3345 0.960 . S
C3338 C3336 1.381 . S
C3338 C3339 1.394 . S
C3338 H3346 0.930 . S
C3339 C3338 1.394 . S
C3339 C3340 1.383 . S
C3339 H3347 0.929 . S
C3340 C3339 1.383 . S
C3340 C3341 1.377 . S
C3341 H3325 0.930 . S
C3341 C3340 1.377 . S
C3341 C3342 1.379 . S
C3342 H3326 0.931 . S
C3342 C3336 1.383 . S
C3342 C3341 1.379 . S
H3343 C3337 0.959 . S
H3344 C3337 0.961 . S
H3345 C3337 0.960 . S
H3346 C3338 0.930 . S
H3347 C3339 0.929 . S
H3348 C3356 0.929 . S
H3349 C3358 0.930 . S
H3350 C3360 0.930 . S
H3351 C3363 0.929 . S
H3352 C3366 0.930 . S
H3353 C3368 0.960 . S
H3354 C3368 0.960 . S
H3355 C3368 0.960 . S
C3356 H3348 0.929 . S
C3356 C3357 1.377 . S
C3356 C3358 1.384 . S
C3357 C3356 1.377 . S
C3357 C3363 1.390 . S
C3358 H3349 0.930 . S
C3358 C3356 1.384 . S
C3358 C3359 1.372 . S
C3359 C3358 1.372 . S
C3359 C3360 1.400 . S
C3359 C3364 1.490 . S
C3360 H3350 0.930 . S
C3360 C3359 1.400 . S
C3360 C3363 1.386 . S
H3361 C3377 0.930 . S
H3362 C3378 0.931 . S
C3363 H3351 0.929 . S
C3363 C3357 1.390 . S
C3363 C3360 1.386 . S
C3364 C3359 1.490 . S
C3364 C3366 1.395 . S
C3364 C3367 1.403 . S
H3365 C3371 0.930 . S
C3366 H3352 0.930 . S
C3366 C3364 1.395 . S
C3366 C3369 1.403 . S
C3367 C3364 1.403 . S
C3367 C3368 1.524 . S
C3367 C3371 1.400 . S
C3368 H3353 0.960 . S
C3368 H3354 0.960 . S
C3368 H3355 0.960 . S
C3368 C3367 1.524 . S
C3369 C3366 1.403 . S
C3369 C3370 1.392 . S
C3369 C3373 1.495 . S
C3370 C3369 1.392 . S
C3370 C3371 1.385 . S
C3370 C3372 1.478 . S
C3371 H3365 0.930 . S
C3371 C3367 1.400 . S
C3371 C3370 1.385 . S
C3372 C3370 1.478 . S
C3372 C3374 1.381 . S
C3372 C3378 1.383 . S
C3373 C3369 1.495 . S
C3373 H3379 0.959 . S
C3373 H3380 0.961 . S
C3373 H3381 0.960 . S
C3374 C3372 1.381 . S
C3374 C3375 1.394 . S
C3374 H3382 0.930 . S
C3375 C3374 1.394 . S
C3375 C3376 1.383 . S
C3375 H3383 0.929 . S
C3376 C3375 1.383 . S
C3376 C3377 1.377 . S
C3377 H3361 0.930 . S
C3377 C3376 1.377 . S
C3377 C3378 1.379 . S
C3378 H3362 0.931 . S
C3378 C3372 1.383 . S
C3378 C3377 1.379 . S
H3379 C3373 0.959 . S
H3380 C3373 0.961 . S
H3381 C3373 0.960 . S
H3382 C3374 0.930 . S
H3383 C3375 0.929 . S
H3384 C3392 0.929 . S
H3385 C3394 0.930 . S
H3386 C3396 0.930 . S
H3387 C3399 0.929 . S
H3388 C3402 0.930 . S
H3389 C3404 0.960 . S
H3390 C3404 0.960 . S
H3391 C3404 0.960 . S
C3392 H3384 0.929 . S
C3392 C3393 1.377 . S
C3392 C3394 1.384 . S
C3393 C3392 1.377 . S
C3393 C3399 1.390 . S
C3394 H3385 0.930 . S
C3394 C3392 1.384 . S
C3394 C3395 1.372 . S
C3395 C3394 1.372 . S
C3395 C3396 1.400 . S
C3395 C3400 1.490 . S
C3396 H3386 0.930 . S
C3396 C3395 1.400 . S
C3396 C3399 1.386 . S
H3397 C3413 0.930 . S
H3398 C3414 0.931 . S
C3399 H3387 0.929 . S
C3399 C3393 1.390 . S
C3399 C3396 1.386 . S
C3400 C3395 1.490 . S
C3400 C3402 1.395 . S
C3400 C3403 1.403 . S
H3401 C3407 0.930 . S
C3402 H3388 0.930 . S
C3402 C3400 1.395 . S
C3402 C3405 1.403 . S
C3403 C3400 1.403 . S
C3403 C3404 1.524 . S
C3403 C3407 1.400 . S
C3404 H3389 0.960 . S
C3404 H3390 0.960 . S
C3404 H3391 0.960 . S
C3404 C3403 1.524 . S
C3405 C3402 1.403 . S
C3405 C3406 1.392 . S
C3405 C3409 1.495 . S
C3406 C3405 1.392 . S
C3406 C3407 1.385 . S
C3406 C3408 1.478 . S
C3407 H3401 0.930 . S
C3407 C3403 1.400 . S
C3407 C3406 1.385 . S
C3408 C3406 1.478 . S
C3408 C3410 1.381 . S
C3408 C3414 1.383 . S
C3409 C3405 1.495 . S
C3409 H3415 0.959 . S
C3409 H3416 0.961 . S
C3409 H3417 0.960 . S
C3410 C3408 1.381 . S
C3410 C3411 1.394 . S
C3410 H3418 0.930 . S
C3411 C3410 1.394 . S
C3411 C3412 1.383 . S
C3411 H3419 0.929 . S
C3412 C3411 1.383 . S
C3412 C3413 1.377 . S
C3413 H3397 0.930 . S
C3413 C3412 1.377 . S
C3413 C3414 1.379 . S
C3414 H3398 0.931 . S
C3414 C3408 1.383 . S
C3414 C3413 1.379 . S
H3415 C3409 0.959 . S
H3416 C3409 0.961 . S
H3417 C3409 0.960 . S
H3418 C3410 0.930 . S
H3419 C3411 0.929 . S
H3420 C3428 0.929 . S
H3421 C3430 0.930 . S
H3422 C3432 0.930 . S
H3423 C3435 0.929 . S
H3424 C3438 0.930 . S
H3425 C3440 0.960 . S
H3426 C3440 0.960 . S
H3427 C3440 0.960 . S
C3428 H3420 0.929 . S
C3428 C3429 1.377 . S
C3428 C3430 1.384 . S
C3429 C3428 1.377 . S
C3429 C3435 1.390 . S
C3430 H3421 0.930 . S
C3430 C3428 1.384 . S
C3430 C3431 1.372 . S
C3431 C3430 1.372 . S
C3431 C3432 1.400 . S
C3431 C3436 1.490 . S
C3432 H3422 0.930 . S
C3432 C3431 1.400 . S
C3432 C3435 1.386 . S
H3433 C3449 0.930 . S
H3434 C3450 0.931 . S
C3435 H3423 0.929 . S
C3435 C3429 1.390 . S
C3435 C3432 1.386 . S
C3436 C3431 1.490 . S
C3436 C3438 1.395 . S
C3436 C3439 1.403 . S
H3437 C3443 0.930 . S
C3438 H3424 0.930 . S
C3438 C3436 1.395 . S
C3438 C3441 1.403 . S
C3439 C3436 1.403 . S
C3439 C3440 1.524 . S
C3439 C3443 1.400 . S
C3440 H3425 0.960 . S
C3440 H3426 0.960 . S
C3440 H3427 0.960 . S
C3440 C3439 1.524 . S
C3441 C3438 1.403 . S
C3441 C3442 1.392 . S
C3441 C3445 1.495 . S
C3442 C3441 1.392 . S
C3442 C3443 1.385 . S
C3442 C3444 1.478 . S
C3443 H3437 0.930 . S
C3443 C3439 1.400 . S
C3443 C3442 1.385 . S
C3444 C3442 1.478 . S
C3444 C3446 1.381 . S
C3444 C3450 1.383 . S
C3445 C3441 1.495 . S
C3445 H3451 0.959 . S
C3445 H3452 0.961 . S
C3445 H3453 0.960 . S
C3446 C3444 1.381 . S
C3446 C3447 1.394 . S
C3446 H3454 0.930 . S
C3447 C3446 1.394 . S
C3447 C3448 1.383 . S
C3447 H3455 0.929 . S
C3448 C3447 1.383 . S
C3448 C3449 1.377 . S
C3449 H3433 0.930 . S
C3449 C3448 1.377 . S
C3449 C3450 1.379 . S
C3450 H3434 0.931 . S
C3450 C3444 1.383 . S
C3450 C3449 1.379 . S
H3451 C3445 0.959 . S
H3452 C3445 0.961 . S
H3453 C3445 0.960 . S
H3454 C3446 0.930 . S
H3455 C3447 0.929 . S
H3456 C3464 0.929 . S
H3457 C3466 0.930 . S
H3458 C3468 0.930 . S
H3459 C3471 0.929 . S
H3460 C3474 0.930 . S
H3461 C3476 0.960 . S
H3462 C3476 0.960 . S
H3463 C3476 0.960 . S
C3464 H3456 0.929 . S
C3464 C3465 1.377 . S
C3464 C3466 1.384 . S
C3465 C3464 1.377 . S
C3465 C3471 1.390 . S
C3466 H3457 0.930 . S
C3466 C3464 1.384 . S
C3466 C3467 1.372 . S
C3467 C3466 1.372 . S
C3467 C3468 1.400 . S
C3467 C3472 1.490 . S
C3468 H3458 0.930 . S
C3468 C3467 1.400 . S
C3468 C3471 1.386 . S
H3469 C3485 0.930 . S
H3470 C3486 0.931 . S
C3471 H3459 0.929 . S
C3471 C3465 1.390 . S
C3471 C3468 1.386 . S
C3472 C3467 1.490 . S
C3472 C3474 1.395 . S
C3472 C3475 1.403 . S
H3473 C3479 0.930 . S
C3474 H3460 0.930 . S
C3474 C3472 1.395 . S
C3474 C3477 1.403 . S
C3475 C3472 1.403 . S
C3475 C3476 1.524 . S
C3475 C3479 1.400 . S
C3476 H3461 0.960 . S
C3476 H3462 0.960 . S
C3476 H3463 0.960 . S
C3476 C3475 1.524 . S
C3477 C3474 1.403 . S
C3477 C3478 1.392 . S
C3477 C3481 1.495 . S
C3478 C3477 1.392 . S
C3478 C3479 1.385 . S
C3478 C3480 1.478 . S
C3479 H3473 0.930 . S
C3479 C3475 1.400 . S
C3479 C3478 1.385 . S
C3480 C3478 1.478 . S
C3480 C3482 1.381 . S
C3480 C3486 1.383 . S
C3481 C3477 1.495 . S
C3481 H3487 0.959 . S
C3481 H3488 0.961 . S
C3481 H3489 0.960 . S
C3482 C3480 1.381 . S
C3482 C3483 1.394 . S
C3482 H3490 0.930 . S
C3483 C3482 1.394 . S
C3483 C3484 1.383 . S
C3483 H3491 0.929 . S
C3484 C3483 1.383 . S
C3484 C3485 1.377 . S
C3485 H3469 0.930 . S
C3485 C3484 1.377 . S
C3485 C3486 1.379 . S
C3486 H3470 0.931 . S
C3486 C3480 1.383 . S
C3486 C3485 1.379 . S
H3487 C3481 0.959 . S
H3488 C3481 0.961 . S
H3489 C3481 0.960 . S
H3490 C3482 0.930 . S
H3491 C3483 0.929 . S
H3492 C3500 0.929 . S
H3493 C3502 0.930 . S
H3494 C3504 0.930 . S
H3495 C3507 0.929 . S
H3496 C3510 0.930 . S
H3497 C3512 0.960 . S
H3498 C3512 0.960 . S
H3499 C3512 0.960 . S
C3500 H3492 0.929 . S
C3500 C3501 1.377 . S
C3500 C3502 1.384 . S
C3501 C3500 1.377 . S
C3501 C3507 1.390 . S
C3502 H3493 0.930 . S
C3502 C3500 1.384 . S
C3502 C3503 1.372 . S
C3503 C3502 1.372 . S
C3503 C3504 1.400 . S
C3503 C3508 1.490 . S
C3504 H3494 0.930 . S
C3504 C3503 1.400 . S
C3504 C3507 1.386 . S
H3505 C3521 0.930 . S
H3506 C3522 0.931 . S
C3507 H3495 0.929 . S
C3507 C3501 1.390 . S
C3507 C3504 1.386 . S
C3508 C3503 1.490 . S
C3508 C3510 1.395 . S
C3508 C3511 1.403 . S
H3509 C3515 0.930 . S
C3510 H3496 0.930 . S
C3510 C3508 1.395 . S
C3510 C3513 1.403 . S
C3511 C3508 1.403 . S
C3511 C3512 1.524 . S
C3511 C3515 1.400 . S
C3512 H3497 0.960 . S
C3512 H3498 0.960 . S
C3512 H3499 0.960 . S
C3512 C3511 1.524 . S
C3513 C3510 1.403 . S
C3513 C3514 1.392 . S
C3513 C3517 1.495 . S
C3514 C3513 1.392 . S
C3514 C3515 1.385 . S
C3514 C3516 1.478 . S
C3515 H3509 0.930 . S
C3515 C3511 1.400 . S
C3515 C3514 1.385 . S
C3516 C3514 1.478 . S
C3516 C3518 1.381 . S
C3516 C3522 1.383 . S
C3517 C3513 1.495 . S
C3517 H3523 0.959 . S
C3517 H3524 0.961 . S
C3517 H3525 0.960 . S
C3518 C3516 1.381 . S
C3518 C3519 1.394 . S
C3518 H3526 0.930 . S
C3519 C3518 1.394 . S
C3519 C3520 1.383 . S
C3519 H3527 0.929 . S
C3520 C3519 1.383 . S
C3520 C3521 1.377 . S
C3521 H3505 0.930 . S
C3521 C3520 1.377 . S
C3521 C3522 1.379 . S
C3522 H3506 0.931 . S
C3522 C3516 1.383 . S
C3522 C3521 1.379 . S
H3523 C3517 0.959 . S
H3524 C3517 0.961 . S
H3525 C3517 0.960 . S
H3526 C3518 0.930 . S
H3527 C3519 0.929 . S
H3528 C3536 0.929 . S
H3529 C3538 0.930 . S
H3530 C3540 0.930 . S
H3531 C3543 0.929 . S
H3532 C3546 0.930 . S
H3533 C3548 0.960 . S
H3534 C3548 0.960 . S
H3535 C3548 0.960 . S
C3536 H3528 0.929 . S
C3536 C3537 1.377 . S
C3536 C3538 1.384 . S
C3537 C3536 1.377 . S
C3537 C3543 1.390 . S
C3538 H3529 0.930 . S
C3538 C3536 1.384 . S
C3538 C3539 1.372 . S
C3539 C3538 1.372 . S
C3539 C3540 1.400 . S
C3539 C3544 1.490 . S
C3540 H3530 0.930 . S
C3540 C3539 1.400 . S
C3540 C3543 1.386 . S
H3541 C3557 0.930 . S
H3542 C3558 0.931 . S
C3543 H3531 0.929 . S
C3543 C3537 1.390 . S
C3543 C3540 1.386 . S
C3544 C3539 1.490 . S
C3544 C3546 1.395 . S
C3544 C3547 1.403 . S
H3545 C3551 0.930 . S
C3546 H3532 0.930 . S
C3546 C3544 1.395 . S
C3546 C3549 1.403 . S
C3547 C3544 1.403 . S
C3547 C3548 1.524 . S
C3547 C3551 1.400 . S
C3548 H3533 0.960 . S
C3548 H3534 0.960 . S
C3548 H3535 0.960 . S
C3548 C3547 1.524 . S
C3549 C3546 1.403 . S
C3549 C3550 1.392 . S
C3549 C3553 1.495 . S
C3550 C3549 1.392 . S
C3550 C3551 1.385 . S
C3550 C3552 1.478 . S
C3551 H3545 0.930 . S
C3551 C3547 1.400 . S
C3551 C3550 1.385 . S
C3552 C3550 1.478 . S
C3552 C3554 1.381 . S
C3552 C3558 1.383 . S
C3553 C3549 1.495 . S
C3553 H3559 0.959 . S
C3553 H3560 0.961 . S
C3553 H3561 0.960 . S
C3554 C3552 1.381 . S
C3554 C3555 1.394 . S
C3554 H3562 0.930 . S
C3555 C3554 1.394 . S
C3555 C3556 1.383 . S
C3555 H3563 0.929 . S
C3556 C3555 1.383 . S
C3556 C3557 1.377 . S
C3557 H3541 0.930 . S
C3557 C3556 1.377 . S
C3557 C3558 1.379 . S
C3558 H3542 0.931 . S
C3558 C3552 1.383 . S
C3558 C3557 1.379 . S
H3559 C3553 0.959 . S
H3560 C3553 0.961 . S
H3561 C3553 0.960 . S
H3562 C3554 0.930 . S
H3563 C3555 0.929 . S
H3564 C3572 0.929 . S
H3565 C3574 0.930 . S
H3566 C3576 0.930 . S
H3567 C3579 0.929 . S
H3568 C3582 0.930 . S
H3569 C3584 0.960 . S
H3570 C3584 0.960 . S
H3571 C3584 0.960 . S
C3572 H3564 0.929 . S
C3572 C3573 1.377 . S
C3572 C3574 1.384 . S
C3573 C3572 1.377 . S
C3573 C3579 1.390 . S
C3574 H3565 0.930 . S
C3574 C3572 1.384 . S
C3574 C3575 1.372 . S
C3575 C3574 1.372 . S
C3575 C3576 1.400 . S
C3575 C3580 1.490 . S
C3576 H3566 0.930 . S
C3576 C3575 1.400 . S
C3576 C3579 1.386 . S
H3577 C3593 0.930 . S
H3578 C3594 0.931 . S
C3579 H3567 0.929 . S
C3579 C3573 1.390 . S
C3579 C3576 1.386 . S
C3580 C3575 1.490 . S
C3580 C3582 1.395 . S
C3580 C3583 1.403 1_655 S
H3581 C3587 0.930 . S
C3582 H3568 0.930 . S
C3582 C3580 1.395 . S
C3582 C3585 1.403 . S
C3583 C3580 1.403 1_455 S
C3583 C3584 1.524 . S
C3583 C3587 1.400 . S
C3584 H3569 0.960 . S
C3584 H3570 0.960 . S
C3584 H3571 0.960 . S
C3584 C3583 1.524 . S
C3585 C3582 1.403 . S
C3585 C3586 1.392 . S
C3585 C3589 1.495 . S
C3586 C3585 1.392 . S
C3586 C3587 1.385 1_655 S
C3586 C3588 1.478 . S
C3587 H3581 0.930 . S
C3587 C3583 1.400 . S
C3587 C3586 1.385 1_455 S
C3588 C3586 1.478 . S
C3588 C3590 1.381 . S
C3588 C3594 1.383 . S
C3589 C3585 1.495 . S
C3589 H3595 0.959 . S
C3589 H3596 0.961 . S
C3589 H3597 0.960 . S
C3590 C3588 1.381 . S
C3590 C3591 1.394 . S
C3590 H3598 0.930 . S
C3591 C3590 1.394 . S
C3591 C3592 1.383 . S
C3591 H3599 0.929 . S
C3592 C3591 1.383 . S
C3592 C3593 1.377 . S
C3593 H3577 0.930 . S
C3593 C3592 1.377 . S
C3593 C3594 1.379 . S
C3594 H3578 0.931 . S
C3594 C3588 1.383 . S
C3594 C3593 1.379 . S
H3595 C3589 0.959 . S
H3596 C3589 0.961 . S
H3597 C3589 0.960 . S
H3598 C3590 0.930 . S
H3599 C3591 0.929 . S
H3600 C3608 0.929 . S
H3601 C3610 0.930 . S
H3602 C3612 0.930 . S
H3603 C3615 0.929 . S
H3604 C3618 0.930 . S
H3605 C3620 0.960 . S
H3606 C3620 0.960 . S
H3607 C3620 0.960 . S
C3608 H3600 0.929 . S
C3608 C3609 1.377 . S
C3608 C3610 1.384 . S
C3609 C3608 1.377 . S
C3609 C3615 1.390 . S
C3610 H3601 0.930 . S
C3610 C3608 1.384 . S
C3610 C3611 1.372 . S
C3611 C3610 1.372 . S
C3611 C3612 1.400 . S
C3611 C3616 1.490 . S
C3612 H3602 0.930 . S
C3612 C3611 1.400 . S
C3612 C3615 1.386 . S
H3613 C3629 0.930 . S
H3614 C3630 0.931 . S
C3615 H3603 0.929 . S
C3615 C3609 1.390 . S
C3615 C3612 1.386 . S
C3616 C3611 1.490 . S
C3616 C3618 1.395 . S
C3616 C3619 1.403 . S
H3617 C3623 0.930 . S
C3618 H3604 0.930 . S
C3618 C3616 1.395 . S
C3618 C3621 1.403 . S
C3619 C3616 1.403 . S
C3619 C3620 1.524 . S
C3619 C3623 1.400 . S
C3620 H3605 0.960 . S
C3620 H3606 0.960 . S
C3620 H3607 0.960 . S
C3620 C3619 1.524 . S
C3621 C3618 1.403 . S
C3621 C3622 1.392 . S
C3621 C3625 1.495 . S
C3622 C3621 1.392 . S
C3622 C3623 1.385 . S
C3622 C3624 1.478 . S
C3623 H3617 0.930 . S
C3623 C3619 1.400 . S
C3623 C3622 1.385 . S
C3624 C3622 1.478 . S
C3624 C3626 1.381 . S
C3624 C3630 1.383 . S
C3625 C3621 1.495 . S
C3625 H3631 0.959 . S
C3625 H3632 0.961 . S
C3625 H3633 0.960 . S
C3626 C3624 1.381 . S
C3626 C3627 1.394 . S
C3626 H3634 0.930 . S
C3627 C3626 1.394 . S
C3627 C3628 1.383 . S
C3627 H3635 0.929 . S
C3628 C3627 1.383 . S
C3628 C3629 1.377 . S
C3629 H3613 0.930 . S
C3629 C3628 1.377 . S
C3629 C3630 1.379 . S
C3630 H3614 0.931 . S
C3630 C3624 1.383 . S
C3630 C3629 1.379 . S
H3631 C3625 0.959 . S
H3632 C3625 0.961 . S
H3633 C3625 0.960 . S
H3634 C3626 0.930 . S
H3635 C3627 0.929 . S
H3636 C3644 0.929 . S
H3637 C3646 0.930 . S
H3638 C3648 0.930 . S
H3639 C3651 0.929 . S
H3640 C3654 0.930 . S
H3641 C3656 0.959 . S
H3642 C3656 0.962 . S
H3643 C3656 0.959 1_545 S
C3644 H3636 0.929 . S
C3644 C3645 1.377 1_565 S
C3644 C3646 1.384 . S
C3645 C3644 1.377 1_545 S
C3645 C3651 1.390 . S
C3646 H3637 0.930 . S
C3646 C3644 1.384 . S
C3646 C3647 1.372 1_565 S
C3647 C3646 1.372 1_545 S
C3647 C3648 1.400 . S
C3647 C3652 1.490 . S
C3648 H3638 0.930 . S
C3648 C3647 1.400 . S
C3648 C3651 1.386 . S
H3649 C3665 0.930 . S
H3650 C3666 0.931 . S
C3651 H3639 0.929 . S
C3651 C3645 1.390 . S
C3651 C3648 1.386 . S
C3652 C3647 1.490 . S
C3652 C3654 1.395 . S
C3652 C3655 1.403 . S
H3653 C3659 0.930 . S
C3654 H3640 0.930 . S
C3654 C3652 1.395 . S
C3654 C3657 1.403 . S
C3655 C3652 1.403 . S
C3655 C3656 1.523 1_545 S
C3655 C3659 1.400 . S
C3656 H3641 0.959 . S
C3656 H3642 0.962 . S
C3656 H3643 0.959 1_565 S
C3656 C3655 1.523 1_565 S
C3657 C3654 1.403 . S
C3657 C3658 1.392 . S
C3657 C3661 1.495 . S
C3658 C3657 1.392 . S
C3658 C3659 1.385 . S
C3658 C3660 1.478 . S
C3659 H3653 0.930 . S
C3659 C3655 1.400 . S
C3659 C3658 1.385 . S
C3660 C3658 1.478 . S
C3660 C3662 1.381 1_545 S
C3660 C3666 1.383 . S
C3661 C3657 1.495 . S
C3661 H3667 0.959 . S
C3661 H3668 0.961 . S
C3661 H3669 0.960 . S
C3662 C3660 1.381 1_565 S
C3662 C3663 1.394 . S
C3662 H3670 0.930 . S
C3663 C3662 1.394 . S
C3663 C3664 1.383 1_565 S
C3663 H3671 0.929 . S
C3664 C3663 1.383 1_545 S
C3664 C3665 1.377 . S
C3665 H3649 0.930 . S
C3665 C3664 1.377 . S
C3665 C3666 1.379 . S
C3666 H3650 0.931 . S
C3666 C3660 1.383 . S
C3666 C3665 1.379 . S
H3667 C3661 0.959 . S
H3668 C3661 0.961 . S
H3669 C3661 0.960 . S
H3670 C3662 0.930 . S
H3671 C3663 0.929 . S
C1089 C8 1.432 1_655 S
C1108 C688 1.464 . S
C1125 C22 1.555 . S
C1144 C734 1.546 . S
C1180 C766 1.481 . S
C1161 C37 1.459 1_545 S
C1197 C36 1.431 1_565 S
C1216 C819 1.467 . S
C1233 C9 1.454 1_455 S
C1252 C865 1.482 . S
C1269 C23 1.555 . S
C1288 C904 1.569 . S
C1305 C50 1.438 1_455 S
C1324 C858 1.452 . S
C1360 C911 1.557 . S
C1341 C64 1.554 . S
C1396 C812 1.488 . S
C1377 C79 1.465 1_565 S
C1413 C78 1.435 1_545 S
C1432 C773 1.456 . S
C1468 C667 1.486 . S
C1449 C51 1.458 1_655 S
C1485 C65 1.556 . S
C1504 C713 1.548 . S
C1521 C92 1.619 . S
C1540 C943 1.631 . S
C1557 C106 1.626 . S
C1576 C1010 1.622 . S
C1612 C1056 1.591 . S
C1593 C121 1.582 . S
C1629 C120 1.530 . S
C1648 C267 1.536 . S
C1665 C93 1.571 . S
C1684 C313 1.585 . S
C1701 C107 1.575 . S
C1720 C359 1.566 . S
C1737 C134 1.526 . S
C1756 C306 1.536 . S
C1773 C148 1.577 . S
C1792 C352 1.591 . S
C1828 C260 1.582 . S
C1809 C163 1.572 . S
C1864 C1035 1.617 . S
C1845 C162 1.624 . S
C1900 C964 1.581 . S
C1881 C135 1.583 . S
C1936 C989 1.611 . S
C1917 C149 1.626 . S
C1953 C176 1.531 . S
C1972 C391 1.537 . S
C1989 C190 1.575 . S
C2008 C444 1.591 . S
C2025 C205 1.575 . S
C2044 C490 1.578 . S
C2061 C204 1.618 . S
C2080 C536 1.633 . S
C2116 C589 1.594 . S
C2097 C177 1.584 . S
C2152 C635 1.627 . S
C2133 C191 1.622 . S
C2188 C582 1.615 . S
C2169 C218 1.621 . S
C2224 C628 1.629 . S
C2205 C232 1.622 . S
C2241 C247 1.582 . S
C2260 C543 1.587 . S
C2296 C497 1.528 . S
C2277 C246 1.528 . S
C2313 C219 1.569 . S
C2332 C412 1.581 . S
C2368 C451 1.580 . S
C2349 C233 1.581 . S
C2404 C274 1.571 . S
C2385 C6 1.555 . S
C2421 C20 1.480 . S
C2440 C320 1.496 . S
C2476 C366 1.569 . S
C2457 C35 1.558 . S
C2512 C398 1.569 . S
C2493 C34 1.553 . S
C2548 C437 1.558 . S
C2529 C7 1.557 . S
C2584 C483 1.498 . S
C2565 C21 1.488 . S
C2601 C48 1.555 . S
C2620 C504 1.577 . S
C2637 C62 1.481 . S
C2656 C405 1.503 . S
C2673 C77 1.549 . S
C2692 C458 1.557 . S
C2709 C76 1.559 . S
C2728 C299 1.575 . S
C2764 C345 1.568 . S
C2745 C49 1.546 . S
C2781 C63 1.483 . S
C2800 C253 1.501 . S
C2836 C529 1.531 . S
C2817 C90 1.519 . S
C2853 C104 1.589 . S
C2872 C596 1.614 . S
C2889 C119 1.589 . S
C2908 C642 1.616 . S
C2944 C681 1.483 . S
C2925 C118 1.440 . S
C2961 C91 1.535 . S
C2980 C727 1.549 . S
C2997 C105 1.448 . S
C3016 C759 1.488 . S
C3033 C132 1.436 . S
C3052 C780 1.468 . S
C3069 C146 1.450 . S
C3088 C674 1.483 . S
C3124 C720 1.558 . S
C3105 C161 1.537 . S
C3141 C160 1.525 . S
C3160 C575 1.555 . S
C3177 C133 1.583 . S
C3196 C621 1.605 . S
C3232 C550 1.607 . S
C3213 C147 1.581 . S
C3268 C826 1.483 . S
C3249 C174 1.440 . S
C3285 C188 1.445 . S
C3304 C872 1.486 . S
C3321 C203 1.532 . S
C3340 C897 1.538 . S
C3376 C950 1.524 . S
C3357 C202 1.521 . S
C3412 C1003 1.606 . S
C3393 C175 1.582 . S
C3429 C189 1.588 . S
C3448 C1049 1.616 . S
C3465 C216 1.528 . S
C3484 C1042 1.546 . S
C3501 C230 1.585 . S
C3520 C957 1.590 . S
C3556 C996 1.607 . S
C3537 C245 1.582 . S
C3592 C851 1.474 . S
C3573 C244 1.434 . S
C3628 C918 1.546 . S
C3609 C217 1.538 . S
C3645 C231 1.450 . S
C3664 C805 1.481 . S
