# Generated by pormake.
# Topology pth, (4,4)-cn, num edge types: 1
# Building blocks:
#     Node 0, Type 0, BuildingBlock: AZAVOO_clean_sbu_0, # of connection points: 4
#     Node 1, Type 0, BuildingBlock: AZAVOO_clean_sbu_0, # of connection points: 4
#     Node 2, Type 0, BuildingBlock: AZAVOO_clean_sbu_0, # of connection points: 4
#     Node 3, Type 1, BuildingBlock: NAWXER_clean_linker_0, # of connection points: 4
#     Node 4, Type 1, BuildingBlock: NAWXER_clean_linker_0, # of connection points: 4
#     Node 5, Type 1, BuildingBlock: NAWXER_clean_linker_0, # of connection points: 4
#     Edge 6, Type (0, 1), BuildingBlock: EZIPEK_clean_linker_0, # of connection points: 2
#     Edge 7, Type (0, 1), BuildingBlock: EZIPEK_clean_linker_0, # of connection points: 2
#     Edge 8, Type (0, 1), BuildingBlock: EZIPEK_clean_linker_0, # of connection points: 2
#     Edge 9, Type (0, 1), BuildingBlock: EZIPEK_clean_linker_0, # of connection points: 2
#     Edge 10, Type (0, 1), BuildingBlock: EZIPEK_clean_linker_0, # of connection points: 2
#     Edge 11, Type (0, 1), BuildingBlock: EZIPEK_clean_linker_0, # of connection points: 2
#     Edge 12, Type (0, 1), BuildingBlock: EZIPEK_clean_linker_0, # of connection points: 2
#     Edge 13, Type (0, 1), BuildingBlock: EZIPEK_clean_linker_0, # of connection points: 2
#     Edge 14, Type (0, 1), BuildingBlock: EZIPEK_clean_linker_0, # of connection points: 2
#     Edge 15, Type (0, 1), BuildingBlock: EZIPEK_clean_linker_0, # of connection points: 2
#     Edge 16, Type (0, 1), BuildingBlock: EZIPEK_clean_linker_0, # of connection points: 2
#     Edge 17, Type (0, 1), BuildingBlock: EZIPEK_clean_linker_0, # of connection points: 2
# Relax obj value: 0.065
# Max RMSD: 0.213
# Mean RMSD: 0.105
data_MOF--net-pth--node1-AZAVOO_clean_sbu_0--node2-NAWXER_clean_linker_0--edge1-EZIPEK_clean_linker_0
_symmetry_space_group_name_H-M    P1
_symmetry_Int_Tables_number       1
_symmetry_cell_setting            triclinic
loop_
_symmetry_equiv_pos_as_xyz
'x, y, z'
_cell_length_a     22.315142
_cell_length_b     22.809085
_cell_length_c     50.167507
_cell_angle_alpha  91.00353
_cell_angle_beta   93.116751
_cell_angle_gamma 122.28062
loop_
_atom_site_label
_atom_site_type_symbol
_atom_site_fract_x
_atom_site_fract_y
_atom_site_fract_z
_atom_type_partial_charge
Mg0 Mg 0.10034 0.06893 0.0311 0.0
O1 O 0.00603 0.99321 0.00225 0.0
O2 O 0.99202 0.05345 0.97059 0.0
Mg3 Mg 0.07719 0.16881 0.97969 0.0
C4 C 0.97437 0.99614 0.9809 0.0
C5 C 0.11062 0.96842 0.06903 0.0
O6 O 0.17663 0.00555 0.06247 0.0
O7 O 0.03811 0.10829 0.05095 0.0
O8 O 0.03456 0.17547 0.01961 0.0
O9 O 0.17511 0.06266 0.00469 0.0
O10 O 0.14512 0.14058 0.00189 0.0
C11 C 0.02316 0.15224 0.04302 0.0
C12 C 0.17963 0.11492 0.99301 0.0
O13 O 0.06563 0.98202 0.05967 0.0
Mg14 Mg 0.95314 1e-05 0.36875 0.0
O15 O 0.06681 0.05488 0.38765 0.0
O16 O 0.09473 0.15603 0.40733 0.0
Mg17 Mg 0.99621 0.16375 0.4022 0.0
C18 C 0.11031 0.11149 0.40111 0.0
C19 C 0.92183 0.87202 0.33313 0.0
O20 O 0.85642 0.85375 0.33695 0.0
O21 O 0.98491 0.07506 0.33504 0.0
O22 O 0.00012 0.1691 0.35689 0.0
O23 O 0.91132 0.94932 0.4076 0.0
O24 O 0.92755 0.04977 0.39678 0.0
C25 C 0.99706 0.13649 0.33543 0.0
C26 C 0.90805 0.00281 0.41388 0.0
O27 O 0.9736 0.92855 0.34405 0.0
Mg28 Mg 0.98808 0.95661 0.68019 0.0
O29 O 0.06236 0.04936 0.70919 0.0
O30 O 0.00197 0.04899 0.74331 0.0
Mg31 Mg 0.88684 0.95739 0.73509 0.0
C32 C 0.05949 0.07486 0.73155 0.0
C33 C 0.08152 0.96361 0.6356 0.0
O34 O 0.0419 0.89613 0.6378 0.0
O35 O 0.93387 0.01016 0.66381 0.0
O36 O 0.86914 0.00447 0.69746 0.0
O37 O 0.01168 0.8879 0.70406 0.0
O38 O 0.92358 0.90349 0.71043 0.0
C39 C 0.88837 0.02015 0.67373 0.0
C40 C 0.95839 0.87538 0.71745 0.0
O41 O 0.07174 0.00352 0.65005 0.0
C42 C 0.9425 0.27954 0.22915 0.0
C43 C 0.99134 0.30051 0.25156 0.0
C44 C 0.93954 0.32911 0.21414 0.0
C45 C 0.98704 0.40037 0.2208 0.0
C46 C 0.03905 0.37148 0.2581 0.0
C47 C 0.03692 0.42097 0.24285 0.0
C48 C 0.98361 0.45421 0.20598 0.0
C49 C 0.02978 0.3379 0.14514 0.0
C50 C 0.97907 0.30791 0.12321 0.0
C51 C 0.02936 0.38492 0.1632 0.0
C52 C 0.97734 0.40161 0.15986 0.0
C53 C 0.92673 0.324 0.11993 0.0
C54 C 0.926 0.3707 0.13812 0.0
C55 C 0.97874 0.45456 0.17778 0.0
C56 C 0.06577 0.74639 0.16002 0.0
C57 C 0.0262 0.73616 0.13579 0.0
C58 C 0.05037 0.68991 0.17523 0.0
C59 C 0.99473 0.6224 0.16652 0.0
C60 C 0.9699 0.6691 0.12724 0.0
C61 C 0.95458 0.61254 0.14243 0.0
C62 C 0.98348 0.56155 0.18089 0.0
C63 C 0.92381 0.67295 0.23749 0.0
C64 C 0.96538 0.69798 0.26183 0.0
C65 C 0.93042 0.62858 0.22008 0.0
C66 C 0.97939 0.6092 0.22662 0.0
C67 C 0.01418 0.67872 0.2685 0.0
C68 C 0.02086 0.63435 0.25107 0.0
C69 C 0.98394 0.55903 0.20901 0.0
H70 H 0.90471 0.22487 0.22407 0.0
H71 H 0.89909 0.31166 0.19776 0.0
H72 H 0.07667 0.38849 0.27546 0.0
H73 H 0.07383 0.47553 0.24847 0.0
H74 H 0.07132 0.32693 0.14764 0.0
H75 H 0.07075 0.40957 0.17934 0.0
H76 H 0.88798 0.30213 0.10286 0.0
H77 H 0.88592 0.38347 0.13502 0.0
H78 H 0.10982 0.7978 0.16673 0.0
H79 H 0.08366 0.69877 0.19328 0.0
H80 H 0.93914 0.66043 0.10849 0.0
H81 H 0.91207 0.56091 0.13516 0.0
H82 H 0.8855 0.68696 0.23218 0.0
H83 H 0.89612 0.60826 0.20179 0.0
H84 H 0.04647 0.69751 0.28729 0.0
H85 H 0.05841 0.6196 0.2567 0.0
N86 N 0.98528 0.50612 0.22044 0.0
N87 N 0.97949 0.50853 0.16639 0.0
C88 C 0.78506 0.12268 0.50374 0.0
C89 C 0.76425 0.08127 0.47988 0.0
C90 C 0.74173 0.14406 0.51341 0.0
C91 C 0.67377 0.11909 0.5008 0.0
C92 C 0.69927 0.0616 0.466 0.0
C93 C 0.65414 0.07943 0.47652 0.0
C94 C 0.62095 0.13036 0.5129 0.0
C95 C 0.69529 0.0424 0.5773 0.0
C96 C 0.73277 0.09036 0.59907 0.0
C97 C 0.6548 0.05372 0.55839 0.0
C98 C 0.65271 0.11402 0.56069 0.0
C99 C 0.72895 0.14954 0.60183 0.0
C100 C 0.68898 0.16122 0.58276 0.0
C101 C 0.61107 0.12722 0.54064 0.0
C102 C 0.31625 0.05058 0.54541 0.0
C103 C 0.32154 0.08141 0.57055 0.0
C104 C 0.37738 0.07136 0.53213 0.0
C105 C 0.44454 0.12402 0.54364 0.0
C106 C 0.38794 0.13584 0.58161 0.0
C107 C 0.44909 0.15683 0.56828 0.0
C108 C 0.51011 0.13612 0.53254 0.0
C109 C 0.4023 0.19823 0.47425 0.0
C110 C 0.36801 0.14947 0.45255 0.0
C111 C 0.45529 0.19871 0.4906 0.0
C112 C 0.47441 0.15023 0.48548 0.0
C113 C 0.39029 0.10413 0.44634 0.0
C114 C 0.44368 0.10493 0.4626 0.0
C115 C 0.52158 0.14264 0.50506 0.0
H116 H 0.83511 0.13893 0.51475 0.0
H117 H 0.76084 0.17845 0.53119 0.0
H118 H 0.68238 0.03035 0.44738 0.0
H119 H 0.6028 0.06028 0.46599 0.0
H120 H 0.69698 0.99597 0.57512 0.0
H121 H 0.62567 0.01583 0.54186 0.0
H122 H 0.75679 0.18646 0.61874 0.0
H123 H 0.68692 0.20742 0.58506 0.0
H124 H 0.2654 0.00789 0.53681 0.0
H125 H 0.37242 0.04326 0.51368 0.0
H126 H 0.39277 0.15964 0.60114 0.0
H127 H 0.50032 0.19667 0.57773 0.0
H128 H 0.38545 0.23337 0.47932 0.0
H129 H 0.47921 0.23494 0.50789 0.0
H130 H 0.36398 0.06599 0.42971 0.0
H131 H 0.45784 0.06733 0.45823 0.0
N132 N 0.57578 0.13837 0.49623 0.0
N133 N 0.55615 0.13012 0.54926 0.0
C134 C 0.34622 0.27626 0.81108 0.0
C135 C 0.31639 0.29547 0.79032 0.0
C136 C 0.40729 0.32667 0.82641 0.0
C137 C 0.43802 0.39758 0.82201 0.0
C138 C 0.34908 0.36588 0.78495 0.0
C139 C 0.40906 0.41646 0.80076 0.0
C140 C 0.50056 0.45285 0.83889 0.0
C141 C 0.34068 0.32916 0.90085 0.0
C142 C 0.36422 0.29227 0.91547 0.0
C143 C 0.38625 0.38108 0.88442 0.0
C144 C 0.45581 0.39678 0.88273 0.0
C145 C 0.43301 0.30656 0.913 0.0
C146 C 0.47884 0.35919 0.89702 0.0
C147 C 0.50645 0.45409 0.86711 0.0
C148 C 0.73462 0.75392 0.89367 0.0
C149 C 0.76344 0.74724 0.91811 0.0
C150 C 0.68637 0.69496 0.87742 0.0
C151 C 0.6671 0.62839 0.88515 0.0
C152 C 0.74326 0.68093 0.92618 0.0
C153 C 0.69524 0.62193 0.90986 0.0
C154 C 0.61399 0.56533 0.86847 0.0
C155 C 0.79922 0.67251 0.81831 0.0
C156 C 0.78668 0.69674 0.7945 0.0
C157 C 0.74265 0.62921 0.83351 0.0
C158 C 0.67293 0.60996 0.82516 0.0
C159 C 0.71723 0.6773 0.78602 0.0
C160 C 0.66067 0.63392 0.80118 0.0
C161 C 0.6123 0.5608 0.84029 0.0
H162 H 0.32254 0.22206 0.81522 0.0
H163 H 0.4304 0.30985 0.84155 0.0
H164 H 0.32748 0.38168 0.76878 0.0
H165 H 0.43227 0.4706 0.79661 0.0
H166 H 0.28776 0.31881 0.90266 0.0
H167 H 0.36796 0.40997 0.87356 0.0
H168 H 0.45191 0.27862 0.92421 0.0
H169 H 0.53249 0.37088 0.89588 0.0
H170 H 0.74947 0.80477 0.88723 0.0
H171 H 0.66352 0.70148 0.85898 0.0
H172 H 0.76509 0.67499 0.94502 0.0
H173 H 0.68049 0.57123 0.91646 0.0
H174 H 0.85251 0.68651 0.82489 0.0
H175 H 0.75323 0.6096 0.85149 0.0
H176 H 0.70684 0.69532 0.76754 0.0
H177 H 0.60733 0.61904 0.79419 0.0
N178 N 0.55458 0.50593 0.82656 0.0
N179 N 0.56206 0.51069 0.8808 0.0
C180 C 0.05954 0.26269 0.06832 0.0
C181 C 0.00911 0.19042 0.06333 0.0
C182 C 0.9398 0.19349 0.09904 0.0
C183 C 0.98671 0.26679 0.10198 0.0
N184 N 0.08138 0.37277 0.08518 0.0
N185 N 0.89671 0.08793 0.07137 0.0
C186 C 0.04351 0.30186 0.08528 0.0
C187 C 0.94783 0.15588 0.078 0.0
N188 N 0.12472 0.29348 0.05812 0.0
N189 N 0.88914 0.15983 0.11679 0.0
H190 H 0.90138 0.05923 0.05612 0.0
H191 H 0.84755 0.06165 0.0795 0.0
H192 H 0.88156 0.18596 0.13222 0.0
H193 H 0.85817 0.106 0.11746 0.0
H194 H 0.16591 0.34427 0.06356 0.0
H195 H 0.14076 0.2665 0.04658 0.0
H196 H 0.11829 0.40043 0.07127 0.0
H197 H 0.07105 0.40372 0.09719 0.0
C198 C 0.91846 0.07797 0.45217 0.0
C199 C 0.88081 0.01128 0.43909 0.0
C200 C 0.77765 0.98442 0.46335 0.0
C201 C 0.80873 0.05663 0.46932 0.0
N202 N 0.91002 0.17426 0.46664 0.0
N203 N 0.7726 0.89754 0.43331 0.0
C204 C 0.88016 0.10419 0.46351 0.0
C205 C 0.81021 0.96269 0.44543 0.0
N206 N 0.9908 0.11619 0.45338 0.0
N207 N 0.71751 0.93692 0.47492 0.0
H208 H 0.79489 0.87829 0.42095 0.0
H209 H 0.71816 0.86365 0.43469 0.0
H210 H 0.69398 0.95141 0.48884 0.0
H211 H 0.69587 0.88359 0.47294 0.0
H212 H 0.02154 0.16382 0.46418 0.0
H213 H 0.01893 0.09542 0.44612 0.0
H214 H 0.95997 0.21008 0.46028 0.0
H215 H 0.88256 0.19666 0.47288 0.0
C216 C 0.93967 0.85595 0.76558 0.0
C217 C 0.93462 0.82803 0.73959 0.0
C218 C 0.85175 0.71106 0.75375 0.0
C219 C 0.84552 0.74088 0.77765 0.0
N220 N 0.88343 0.84146 0.80703 0.0
N221 N 0.88874 0.72917 0.70848 0.0
C222 C 0.89043 0.81323 0.78405 0.0
C223 C 0.8927 0.75533 0.73369 0.0
N224 N 0.99212 0.92321 0.77245 0.0
N225 N 0.81822 0.64052 0.75033 0.0
H226 H 0.92012 0.75992 0.69364 0.0
H227 H 0.85229 0.67778 0.7019 0.0
H228 H 0.78773 0.60697 0.76476 0.0
H229 H 0.82561 0.61563 0.73443 0.0
H230 H 0.00243 0.94592 0.79169 0.0
H231 H 0.03021 0.95374 0.75929 0.0
H232 H 0.90896 0.89471 0.81128 0.0
H233 H 0.84866 0.81157 0.82124 0.0
C234 C 0.05808 0.90642 0.11058 0.0
C235 C 0.08791 0.90866 0.08603 0.0
C236 C 0.08226 0.80078 0.09526 0.0
C237 C 0.04668 0.79529 0.11856 0.0
N238 N 0.99024 0.83629 0.14637 0.0
N239 N 0.1146 0.85089 0.05226 0.0
C240 C 0.03149 0.84625 0.12565 0.0
C241 C 0.0963 0.8539 0.0776 0.0
N242 N 0.05791 0.9629 0.12005 0.0
N243 N 0.10467 0.75655 0.0904 0.0
H244 H 0.12365 0.88784 0.03842 0.0
H245 H 0.11399 0.80827 0.04408 0.0
H246 H 0.09552 0.71685 0.10286 0.0
H247 H 0.13777 0.76303 0.07536 0.0
H248 H 0.04393 0.9672 0.13913 0.0
H249 H 0.07777 0.00832 0.10979 0.0
H250 H 0.97093 0.86779 0.1507 0.0
H251 H 0.97024 0.79301 0.15795 0.0
C252 C 0.24349 0.17113 0.40439 0.0
C253 C 0.17673 0.12064 0.41351 0.0
C254 C 0.23601 0.09203 0.44883 0.0
C255 C 0.30245 0.13946 0.43873 0.0
N256 N 0.37065 0.21882 0.40561 0.0
N257 N 0.10761 0.02705 0.44226 0.0
C258 C 0.30658 0.17762 0.41612 0.0
C259 C 0.17249 0.07921 0.43506 0.0
N260 N 0.24639 0.21312 0.38472 0.0
N261 N 0.23387 0.06094 0.47218 0.0
H262 H 0.05944 0.01817 0.43397 0.0
H263 H 0.10093 0.98936 0.45531 0.0
H264 H 0.27884 0.06691 0.48247 0.0
H265 H 0.1884 0.03307 0.48253 0.0
H266 H 0.2934 0.25589 0.37903 0.0
H267 H 0.20103 0.20747 0.37489 0.0
H268 H 0.3768 0.24275 0.38762 0.0
H269 H 0.41786 0.2257 0.41412 0.0
C270 C 0.12772 0.19152 0.75682 0.0
C271 C 0.12634 0.13345 0.7453 0.0
C272 C 0.25315 0.18914 0.75897 0.0
C273 C 0.25146 0.2414 0.77398 0.0
N274 N 0.18229 0.28464 0.79121 0.0
N275 N 0.18535 0.07043 0.74116 0.0
C276 C 0.18739 0.24061 0.77402 0.0
C277 C 0.18846 0.13043 0.74783 0.0
N278 N 0.07341 0.20135 0.75063 0.0
N279 N 0.31663 0.19614 0.75481 0.0
H280 H 0.13855 0.02436 0.73448 0.0
H281 H 0.22787 0.06418 0.74519 0.0
H282 H 0.36545 0.2394 0.76204 0.0
H283 H 0.321 0.16265 0.74183 0.0
H284 H 0.07515 0.24628 0.75656 0.0
H285 H 0.03027 0.16833 0.73716 0.0
H286 H 0.13453 0.28118 0.79386 0.0
H287 H 0.22397 0.32001 0.80474 0.0
C288 C 0.88649 0.10293 0.64173 0.0
C289 C 0.84912 0.04151 0.65587 0.0
C290 C 0.73596 0.0206 0.63631 0.0
C291 C 0.77341 0.07648 0.61957 0.0
N292 N 0.88457 0.16552 0.60346 0.0
N293 N 0.73855 0.93319 0.66175 0.0
C294 C 0.84888 0.11649 0.62152 0.0
C295 C 0.77383 0.99804 0.65199 0.0
N296 N 0.95737 0.14915 0.64811 0.0
N297 N 0.66422 0.98961 0.63753 0.0
H298 H 0.76401 0.91231 0.67213 0.0
H299 H 0.68465 0.89702 0.65701 0.0
H300 H 0.63456 0.00512 0.62646 0.0
H301 H 0.63556 0.95336 0.65147 0.0
H302 H 0.9859 0.19799 0.64029 0.0
H303 H 0.98624 0.14137 0.66313 0.0
H304 H 0.93926 0.19094 0.60211 0.0
H305 H 0.85886 0.17676 0.58832 0.0
C306 C 0.93953 0.88798 0.95352 0.0
C307 C 0.91922 0.93034 0.96623 0.0
C308 C 0.79497 0.84819 0.94975 0.0
C309 C 0.81675 0.81008 0.93489 0.0
N310 N 0.91076 0.79972 0.91883 0.0
N311 N 0.82919 0.95456 0.97512 0.0
C312 C 0.88929 0.83147 0.93581 0.0
C313 C 0.84733 0.91163 0.96388 0.0
N314 N 0.00665 0.90117 0.95846 0.0
N315 N 0.72411 0.82242 0.95105 0.0
H316 H 0.86507 -0.00098 0.98708 0.0
H317 H 0.77969 0.94835 0.97147 0.0
H318 H 0.68442 0.7762 0.94094 0.0
H319 H 0.70427 0.84365 0.96372 0.0
H320 H 0.02161 0.86725 0.95229 0.0
H321 H 0.04626 0.943 0.9706 0.0
H322 H 0.96389 0.81829 0.91624 0.0
H323 H 0.8757 0.75823 0.90545 0.0
C324 C 0.91145 0.75923 0.32189 0.0
C325 C 0.93503 0.8282 0.31533 0.0
C326 C 0.98623 0.81418 0.27548 0.0
C327 C 0.95642 0.74325 0.28064 0.0
N328 N 0.8821 0.64493 0.30645 0.0
N329 N 0.98473 0.91834 0.28377 0.0
C330 C 0.91669 0.7148 0.30324 0.0
C331 C 0.97002 0.85509 0.2916 0.0
N332 N 0.88652 0.73701 0.34638 0.0
N333 N 0.03123 0.84277 0.25551 0.0
H334 H 0.97283 0.94959 0.29478 0.0
H335 H 0.00294 0.93726 0.26524 0.0
H336 H 0.04376 0.81419 0.24313 0.0
H337 H 0.06077 0.89583 0.25264 0.0
H338 H 0.87579 0.68995 0.35347 0.0
H339 H 0.88257 0.7683 0.36068 0.0
H340 H 0.84583 0.61997 0.32081 0.0
H341 H 0.8852 0.61074 0.29337 0.0
C342 C 0.1447 0.03359 0.59689 0.0
C343 C 0.14222 0.99341 0.61861 0.0
C344 C 0.25324 0.00551 0.60692 0.0
C345 C 0.25913 0.05084 0.58678 0.0
N346 N 0.21599 0.11512 0.56425 0.0
N347 N 0.20047 0.95229 0.64762 0.0
C348 C 0.20634 0.06692 0.5822 0.0
C349 C 0.19812 0.9822 0.62451 0.0
N350 N 0.08712 0.03776 0.58976 0.0
N351 N 0.29931 0.98327 0.60881 0.0
H352 H 0.16191 0.93564 0.6614 0.0
H353 H 0.24402 0.94993 0.65443 0.0
H354 H 0.34097 -0.00046 0.59646 0.0
H355 H 0.29259 0.94406 0.62105 0.0
H356 H 0.08255 0.06009 0.57247 0.0
H357 H 0.04104 0.01384 0.60002 0.0
H358 H 0.1834 0.13477 0.56204 0.0
H359 H 0.2599 0.1394 0.5528 0.0
C360 C 0.298 0.21018 0.98143 0.0
C361 C 0.23046 0.1517 0.97269 0.0
C362 C 0.25589 0.17891 0.92607 0.0
C363 C 0.31895 0.24248 0.93505 0.0
N364 N 0.39438 0.32437 0.97145 0.0
N365 N 0.14104 0.08276 0.93715 0.0
C366 C 0.33891 0.25953 0.96279 0.0
C367 C 0.20829 0.13638 0.94509 0.0
N368 N 0.32288 0.21868 0.00763 0.0
N369 N 0.24234 0.15868 0.89949 0.0
H370 H 0.10587 0.04973 0.95063 0.0
H371 H 0.11876 0.07377 0.91758 0.0
H372 H 0.27637 0.18853 0.88506 0.0
H373 H 0.20076 0.10989 0.89202 0.0
H374 H 0.37471 0.25654 0.01462 0.0
H375 H 0.29387 0.18371 0.02193 0.0
H376 H 0.40624 0.34208 0.99147 0.0
H377 H 0.42461 0.36315 0.95854 0.0
C378 C 0.04988 0.20103 0.29427 0.0
C379 C 0.99129 0.16572 0.31013 0.0
C380 C 0.93037 0.21403 0.28623 0.0
C381 C 0.98834 0.24885 0.26992 0.0
N382 N 0.0957 0.26403 0.25421 0.0
N383 N 0.86819 0.12169 0.31629 0.0
C384 C 0.04579 0.23854 0.27258 0.0
C385 C 0.92892 0.16652 0.30435 0.0
N386 N 0.11009 0.20085 0.30062 0.0
N387 N 0.87906 0.22965 0.28578 0.0
H388 H 0.86529 0.08588 0.32967 0.0
H389 H 0.81913 0.11512 0.31088 0.0
H390 H 0.87854 0.2655 0.27333 0.0
H391 H 0.84036 0.21177 0.29951 0.0
H392 H 0.15764 0.23189 0.29178 0.0
H393 H 0.11335 0.1719 0.31587 0.0
H394 H 0.13548 0.25328 0.25364 0.0
H395 H 0.09363 0.29128 0.23805 0.0
loop_
_geom_bond_atom_site_label_1
_geom_bond_atom_site_label_2
_geom_bond_distance
_geom_bond_site_symmetry_2
_ccdc_geom_bond_type
Mg0 O1 2.036 1_545 S
Mg0 O7 1.986 . S
Mg0 O9 2.114 . S
Mg0 O10 2.251 . S
Mg0 O13 2.011 1_545 S
O1 Mg0 2.036 1_565 S
O1 C4 1.240 1_454 S
O2 Mg3 2.028 1_655 S
O2 C4 1.248 1_545 S
Mg3 O2 2.028 1_455 S
Mg3 O8 2.032 1_556 S
Mg3 O10 2.079 1_556 S
C4 O1 1.240 1_656 S
C4 O2 1.248 1_565 S
C5 O6 1.264 . S
C5 O13 1.248 . S
O6 C5 1.264 . S
O7 Mg0 1.986 . S
O7 C11 1.246 . S
O8 Mg3 2.032 1_554 S
O8 C11 1.259 . S
O9 Mg0 2.114 . S
O9 C12 1.252 1_554 S
O10 Mg0 2.251 . S
O10 Mg3 2.079 1_554 S
O10 C12 1.273 1_554 S
C11 O7 1.246 . S
C11 O8 1.259 . S
C12 O9 1.252 1_556 S
C12 O10 1.273 1_556 S
O13 Mg0 2.011 1_565 S
O13 C5 1.248 . S
Mg14 O15 2.028 1_655 S
Mg14 O21 1.986 1_655 S
Mg14 O23 2.114 1_545 S
Mg14 O24 2.251 . S
Mg14 O27 2.010 1_545 S
O15 Mg14 2.028 1_455 S
O15 C18 1.250 . S
O16 Mg17 2.028 . S
O16 C18 1.248 . S
Mg17 O16 2.028 . S
Mg17 O22 2.032 . S
Mg17 O24 2.079 1_455 S
C18 O15 1.250 . S
C18 O16 1.248 . S
C19 O20 1.264 . S
C19 O27 1.249 . S
O20 C19 1.264 . S
O21 Mg14 1.986 1_455 S
O21 C25 1.246 . S
O22 Mg17 2.032 . S
O22 C25 1.259 . S
O23 Mg14 2.114 1_565 S
O23 C26 1.252 . S
O24 Mg14 2.251 . S
O24 Mg17 2.079 1_655 S
O24 C26 1.273 1_545 S
C25 O21 1.246 . S
C25 O22 1.259 . S
C26 O23 1.252 . S
C26 O24 1.273 1_565 S
O27 Mg14 2.010 1_565 S
O27 C19 1.249 . S
Mg28 O29 2.028 1_565 S
Mg28 O35 1.986 1_465 S
Mg28 O37 2.114 1_455 S
Mg28 O38 2.251 1_455 S
Mg28 O41 2.010 . S
O29 Mg28 2.028 1_545 S
O29 C32 1.250 . S
O30 Mg31 2.028 1_455 S
O30 C32 1.248 . S
Mg31 O30 2.028 1_655 S
Mg31 O36 2.032 . S
Mg31 O38 2.079 1_545 S
C32 O29 1.250 . S
C32 O30 1.248 . S
C33 O34 1.264 . S
C33 O41 1.249 . S
O34 C33 1.264 . S
O35 Mg28 1.986 1_645 S
O35 C39 1.246 . S
O36 Mg31 2.032 . S
O36 C39 1.259 . S
O37 Mg28 2.114 1_655 S
O37 C40 1.252 . S
O38 Mg28 2.251 1_655 S
O38 Mg31 2.079 1_565 S
O38 C40 1.273 . S
C39 O35 1.246 . S
C39 O36 1.259 . S
C40 O37 1.252 . S
C40 O38 1.273 . S
O41 Mg28 2.010 . S
O41 C33 1.249 . S
C42 C43 1.384 1_655 S
C42 C44 1.384 . S
C42 H70 0.931 . S
C43 C42 1.384 1_455 S
C43 C46 1.382 . S
C44 C42 1.384 . S
C44 C45 1.381 1_655 S
C44 H71 0.930 . S
C45 C44 1.381 1_455 S
C45 C47 1.381 . S
C45 C48 1.487 . S
C46 C43 1.382 . S
C46 C47 1.387 . S
C46 H72 0.930 . S
C47 C45 1.381 . S
C47 C46 1.387 . S
C47 H73 0.931 . S
C48 C45 1.487 . S
C48 C55 1.399 . S
C48 N86 1.343 . S
C49 C50 1.384 . S
C49 C51 1.384 . S
C49 H74 0.931 . S
C50 C49 1.384 . S
C50 C53 1.382 1_455 S
C51 C49 1.384 . S
C51 C52 1.381 . S
C51 H75 0.930 . S
C52 C51 1.381 . S
C52 C54 1.381 1_455 S
C52 C55 1.487 . S
C53 C50 1.382 1_655 S
C53 C54 1.387 . S
C53 H76 0.930 . S
C54 C52 1.381 1_655 S
C54 C53 1.387 . S
C54 H77 0.931 . S
C55 C48 1.399 . S
C55 C52 1.487 . S
C55 N87 1.343 . S
C56 C57 1.384 . S
C56 C58 1.384 . S
C56 H78 0.931 . S
C57 C56 1.384 . S
C57 C60 1.382 1_455 S
C58 C56 1.384 . S
C58 C59 1.381 . S
C58 H79 0.930 . S
C59 C58 1.381 . S
C59 C61 1.381 1_455 S
C59 C62 1.487 . S
C60 C57 1.382 1_655 S
C60 C61 1.387 . S
C60 H80 0.930 . S
C61 C59 1.381 1_655 S
C61 C60 1.387 . S
C61 H81 0.931 . S
C62 C59 1.487 . S
C62 C69 1.399 . S
C62 N87 1.343 . S
C63 C64 1.384 1_655 S
C63 C65 1.384 . S
C63 H82 0.931 . S
C64 C63 1.384 1_455 S
C64 C67 1.382 . S
C65 C63 1.384 . S
C65 C66 1.381 1_655 S
C65 H83 0.930 . S
C66 C65 1.381 1_455 S
C66 C68 1.381 . S
C66 C69 1.487 . S
C67 C64 1.382 . S
C67 C68 1.387 . S
C67 H84 0.930 . S
C68 C66 1.381 . S
C68 C67 1.387 . S
C68 H85 0.931 . S
C69 C62 1.399 . S
C69 C66 1.487 . S
C69 N86 1.343 . S
H70 C42 0.931 . S
H71 C44 0.930 . S
H72 C46 0.930 . S
H73 C47 0.931 . S
H74 C49 0.931 . S
H75 C51 0.930 . S
H76 C53 0.930 . S
H77 C54 0.931 . S
H78 C56 0.931 . S
H79 C58 0.930 . S
H80 C60 0.930 . S
H81 C61 0.931 . S
H82 C63 0.931 . S
H83 C65 0.930 . S
H84 C67 0.930 . S
H85 C68 0.931 . S
N86 C48 1.343 . S
N86 C69 1.343 . S
N87 C55 1.343 . S
N87 C62 1.343 . S
C88 C89 1.384 . S
C88 C90 1.384 . S
C88 H116 0.931 . S
C89 C88 1.384 . S
C89 C92 1.382 . S
C90 C88 1.384 . S
C90 C91 1.381 . S
C90 H117 0.930 . S
C91 C90 1.381 . S
C91 C93 1.381 . S
C91 C94 1.487 . S
C92 C89 1.382 . S
C92 C93 1.387 . S
C92 H118 0.930 1_545 S
C93 C91 1.381 . S
C93 C92 1.387 . S
C93 H119 0.931 1_545 S
C94 C91 1.487 . S
C94 C101 1.399 . S
C94 N132 1.343 . S
C95 C96 1.384 . S
C95 C97 1.384 . S
C95 H120 0.931 1_545 S
C96 C95 1.384 . S
C96 C99 1.382 . S
C97 C95 1.384 . S
C97 C98 1.381 . S
C97 H121 0.930 1_545 S
C98 C97 1.381 . S
C98 C100 1.381 . S
C98 C101 1.487 . S
C99 C96 1.382 . S
C99 C100 1.387 . S
C99 H122 0.930 . S
C100 C98 1.381 . S
C100 C99 1.387 . S
C100 H123 0.931 . S
C101 C94 1.399 . S
C101 C98 1.487 . S
C101 N133 1.343 . S
C102 C103 1.384 . S
C102 C104 1.384 . S
C102 H124 0.931 1_545 S
C103 C102 1.384 . S
C103 C106 1.382 . S
C104 C102 1.384 . S
C104 C105 1.381 . S
C104 H125 0.930 1_545 S
C105 C104 1.381 . S
C105 C107 1.381 . S
C105 C108 1.487 . S
C106 C103 1.382 . S
C106 C107 1.387 . S
C106 H126 0.930 . S
C107 C105 1.381 . S
C107 C106 1.387 . S
C107 H127 0.931 . S
C108 C105 1.487 . S
C108 C115 1.399 . S
C108 N133 1.343 . S
C109 C110 1.384 . S
C109 C111 1.384 . S
C109 H128 0.931 . S
C110 C109 1.384 . S
C110 C113 1.382 . S
C111 C109 1.384 . S
C111 C112 1.381 . S
C111 H129 0.930 . S
C112 C111 1.381 . S
C112 C114 1.381 . S
C112 C115 1.487 . S
C113 C110 1.382 . S
C113 C114 1.387 . S
C113 H130 0.930 1_545 S
C114 C112 1.381 . S
C114 C113 1.387 . S
C114 H131 0.931 1_545 S
C115 C108 1.399 . S
C115 C112 1.487 . S
C115 N132 1.343 . S
H116 C88 0.931 . S
H117 C90 0.930 . S
H118 C92 0.930 1_565 S
H119 C93 0.931 1_565 S
H120 C95 0.931 1_565 S
H121 C97 0.930 1_565 S
H122 C99 0.930 . S
H123 C100 0.931 . S
H124 C102 0.931 1_565 S
H125 C104 0.930 1_565 S
H126 C106 0.930 . S
H127 C107 0.931 . S
H128 C109 0.931 . S
H129 C111 0.930 . S
H130 C113 0.930 1_565 S
H131 C114 0.931 1_565 S
N132 C94 1.343 . S
N132 C115 1.343 . S
N133 C101 1.343 . S
N133 C108 1.343 . S
C134 C135 1.384 . S
C134 C136 1.384 . S
C134 H162 0.931 . S
C135 C134 1.384 . S
C135 C138 1.382 . S
C136 C134 1.384 . S
C136 C137 1.381 . S
C136 H163 0.930 . S
C137 C136 1.381 . S
C137 C139 1.381 . S
C137 C140 1.487 . S
C138 C135 1.382 . S
C138 C139 1.387 . S
C138 H164 0.930 . S
C139 C137 1.381 . S
C139 C138 1.387 . S
C139 H165 0.931 . S
C140 C137 1.487 . S
C140 C147 1.399 . S
C140 N178 1.343 . S
C141 C142 1.384 . S
C141 C143 1.384 . S
C141 H166 0.931 . S
C142 C141 1.384 . S
C142 C145 1.382 . S
C143 C141 1.384 . S
C143 C144 1.381 . S
C143 H167 0.930 . S
C144 C143 1.381 . S
C144 C146 1.381 . S
C144 C147 1.487 . S
C145 C142 1.382 . S
C145 C146 1.387 . S
C145 H168 0.930 . S
C146 C144 1.381 . S
C146 C145 1.387 . S
C146 H169 0.931 . S
C147 C140 1.399 . S
C147 C144 1.487 . S
C147 N179 1.343 . S
C148 C149 1.384 . S
C148 C150 1.384 . S
C148 H170 0.931 . S
C149 C148 1.384 . S
C149 C152 1.382 . S
C150 C148 1.384 . S
C150 C151 1.381 . S
C150 H171 0.930 . S
C151 C150 1.381 . S
C151 C153 1.381 . S
C151 C154 1.487 . S
C152 C149 1.382 . S
C152 C153 1.387 . S
C152 H172 0.930 . S
C153 C151 1.381 . S
C153 C152 1.387 . S
C153 H173 0.931 . S
C154 C151 1.487 . S
C154 C161 1.399 . S
C154 N179 1.343 . S
C155 C156 1.384 . S
C155 C157 1.384 . S
C155 H174 0.931 . S
C156 C155 1.384 . S
C156 C159 1.382 . S
C157 C155 1.384 . S
C157 C158 1.381 . S
C157 H175 0.930 . S
C158 C157 1.381 . S
C158 C160 1.381 . S
C158 C161 1.487 . S
C159 C156 1.382 . S
C159 C160 1.387 . S
C159 H176 0.930 . S
C160 C158 1.381 . S
C160 C159 1.387 . S
C160 H177 0.931 . S
C161 C154 1.399 . S
C161 C158 1.487 . S
C161 N178 1.343 . S
H162 C134 0.931 . S
H163 C136 0.930 . S
H164 C138 0.930 . S
H165 C139 0.931 . S
H166 C141 0.931 . S
H167 C143 0.930 . S
H168 C145 0.930 . S
H169 C146 0.931 . S
H170 C148 0.931 . S
H171 C150 0.930 . S
H172 C152 0.930 . S
H173 C153 0.931 . S
H174 C155 0.931 . S
H175 C157 0.930 . S
H176 C159 0.930 . S
H177 C160 0.931 . S
N178 C140 1.343 . S
N178 C161 1.343 . S
N179 C147 1.343 . S
N179 C154 1.343 . S
C180 C181 1.363 . S
C180 C186 1.379 . S
C180 N188 1.356 . S
C181 C180 1.363 . S
C181 C187 1.363 1_455 S
C182 C183 1.363 1_655 S
C182 C187 1.379 . S
C182 N189 1.356 . S
C183 C182 1.363 1_455 S
C183 C186 1.363 . S
N184 C186 1.356 . S
N184 H196 0.984 . S
N184 H197 0.985 . S
N185 C187 1.356 . S
N185 H190 0.984 . S
N185 H191 0.985 . S
C186 C180 1.379 . S
C186 C183 1.363 . S
C186 N184 1.356 . S
C187 C181 1.363 1_655 S
C187 C182 1.379 . S
C187 N185 1.356 . S
N188 C180 1.356 . S
N188 H194 0.984 . S
N188 H195 0.984 . S
N189 C182 1.356 . S
N189 H192 0.984 . S
N189 H193 0.985 . S
H190 N185 0.984 . S
H191 N185 0.985 . S
H192 N189 0.984 . S
H193 N189 0.985 . S
H194 N188 0.984 . S
H195 N188 0.984 . S
H196 N184 0.984 . S
H197 N184 0.985 . S
C198 C199 1.363 . S
C198 C204 1.379 . S
C198 N206 1.356 . S
C199 C198 1.363 . S
C199 C205 1.363 1_545 S
C200 C201 1.363 1_565 S
C200 C205 1.379 . S
C200 N207 1.356 . S
C201 C200 1.363 1_545 S
C201 C204 1.363 . S
N202 C204 1.356 . S
N202 H214 0.984 . S
N202 H215 0.985 . S
N203 C205 1.356 . S
N203 H208 0.984 . S
N203 H209 0.985 . S
C204 C198 1.379 . S
C204 C201 1.363 . S
C204 N202 1.356 . S
C205 C199 1.363 1_565 S
C205 C200 1.379 . S
C205 N203 1.356 . S
N206 C198 1.356 . S
N206 H212 0.984 . S
N206 H213 0.984 . S
N207 C200 1.356 . S
N207 H210 0.984 . S
N207 H211 0.985 . S
H208 N203 0.984 . S
H209 N203 0.985 . S
H210 N207 0.984 . S
H211 N207 0.985 . S
H212 N206 0.984 . S
H213 N206 0.984 . S
H214 N202 0.984 . S
H215 N202 0.985 . S
C216 C217 1.363 . S
C216 C222 1.379 . S
C216 N224 1.356 . S
C217 C216 1.363 . S
C217 C223 1.363 . S
C218 C219 1.363 . S
C218 C223 1.379 . S
C218 N225 1.356 . S
C219 C218 1.363 . S
C219 C222 1.363 . S
N220 C222 1.356 . S
N220 H232 0.984 . S
N220 H233 0.985 . S
N221 C223 1.356 . S
N221 H226 0.984 . S
N221 H227 0.985 . S
C222 C216 1.379 . S
C222 C219 1.363 . S
C222 N220 1.356 . S
C223 C217 1.363 . S
C223 C218 1.379 . S
C223 N221 1.356 . S
N224 C216 1.356 . S
N224 H230 0.984 . S
N224 H231 0.984 . S
N225 C218 1.356 . S
N225 H228 0.984 . S
N225 H229 0.985 . S
H226 N221 0.984 . S
H227 N221 0.985 . S
H228 N225 0.984 . S
H229 N225 0.985 . S
H230 N224 0.984 . S
H231 N224 0.984 . S
H232 N220 0.984 . S
H233 N220 0.985 . S
C234 C235 1.363 . S
C234 C240 1.379 . S
C234 N242 1.356 . S
C235 C234 1.363 . S
C235 C241 1.363 . S
C236 C237 1.363 . S
C236 C241 1.379 . S
C236 N243 1.356 1_455 S
C237 C236 1.363 . S
C237 C240 1.363 . S
N238 C240 1.356 . S
N238 H250 0.984 . S
N238 H251 0.985 . S
N239 C241 1.356 . S
N239 H244 0.984 . S
N239 H245 0.985 1_455 S
C240 C234 1.379 . S
C240 C237 1.363 . S
C240 N238 1.356 . S
C241 C235 1.363 . S
C241 C236 1.379 . S
C241 N239 1.356 . S
N242 C234 1.356 . S
N242 H248 0.984 . S
N242 H249 0.983 1_565 S
N243 C236 1.356 1_655 S
N243 H246 0.984 . S
N243 H247 0.985 . S
H244 N239 0.984 . S
H245 N239 0.985 1_655 S
H246 N243 0.984 . S
H247 N243 0.985 . S
H248 N242 0.984 . S
H249 N242 0.983 1_545 S
H250 N238 0.984 . S
H251 N238 0.985 . S
C252 C253 1.363 . S
C252 C258 1.379 . S
C252 N260 1.356 . S
C253 C252 1.363 . S
C253 C259 1.363 . S
C254 C255 1.363 . S
C254 C259 1.379 . S
C254 N261 1.356 1_545 S
C255 C254 1.363 . S
C255 C258 1.363 . S
N256 C258 1.356 . S
N256 H268 0.984 . S
N256 H269 0.985 . S
N257 C259 1.356 1_565 S
N257 H262 0.984 . S
N257 H263 0.985 . S
C258 C252 1.379 . S
C258 C255 1.363 . S
C258 N256 1.356 . S
C259 C253 1.363 . S
C259 C254 1.379 . S
C259 N257 1.356 1_545 S
N260 C252 1.356 . S
N260 H266 0.984 . S
N260 H267 0.984 . S
N261 C254 1.356 1_565 S
N261 H264 0.984 . S
N261 H265 0.985 . S
H262 N257 0.984 . S
H263 N257 0.985 . S
H264 N261 0.984 . S
H265 N261 0.985 . S
H266 N260 0.984 . S
H267 N260 0.984 . S
H268 N256 0.984 . S
H269 N256 0.985 . S
C270 C271 1.363 . S
C270 C276 1.379 . S
C270 N278 1.356 . S
C271 C270 1.363 . S
C271 C277 1.363 . S
C272 C273 1.363 . S
C272 C277 1.379 . S
C272 N279 1.356 . S
C273 C272 1.363 . S
C273 C276 1.363 . S
N274 C276 1.356 . S
N274 H286 0.984 . S
N274 H287 0.985 . S
N275 C277 1.356 . S
N275 H280 0.984 . S
N275 H281 0.985 . S
C276 C270 1.379 . S
C276 C273 1.363 . S
C276 N274 1.356 . S
C277 C271 1.363 . S
C277 C272 1.379 . S
C277 N275 1.356 . S
N278 C270 1.356 . S
N278 H284 0.984 . S
N278 H285 0.984 . S
N279 C272 1.356 . S
N279 H282 0.984 . S
N279 H283 0.985 . S
H280 N275 0.984 . S
H281 N275 0.985 . S
H282 N279 0.984 . S
H283 N279 0.985 . S
H284 N278 0.984 . S
H285 N278 0.984 . S
H286 N274 0.984 . S
H287 N274 0.985 . S
C288 C289 1.363 . S
C288 C294 1.379 . S
C288 N296 1.356 . S
C289 C288 1.363 . S
C289 C295 1.363 . S
C290 C291 1.363 . S
C290 C295 1.379 . S
C290 N297 1.356 1_545 S
C291 C290 1.363 . S
C291 C294 1.363 . S
N292 C294 1.356 . S
N292 H304 0.984 . S
N292 H305 0.985 . S
N293 C295 1.356 1_565 S
N293 H298 0.984 . S
N293 H299 0.985 . S
C294 C288 1.379 . S
C294 C291 1.363 . S
C294 N292 1.356 . S
C295 C289 1.363 . S
C295 C290 1.379 . S
C295 N293 1.356 1_545 S
N296 C288 1.356 . S
N296 H302 0.984 . S
N296 H303 0.984 . S
N297 C290 1.356 1_565 S
N297 H300 0.984 . S
N297 H301 0.985 . S
H298 N293 0.984 . S
H299 N293 0.985 . S
H300 N297 0.984 . S
H301 N297 0.985 . S
H302 N296 0.984 . S
H303 N296 0.984 . S
H304 N292 0.984 . S
H305 N292 0.985 . S
C306 C307 1.363 . S
C306 C312 1.379 . S
C306 N314 1.356 1_556 S
C307 C306 1.363 . S
C307 C313 1.363 . S
C308 C309 1.363 . S
C308 C313 1.379 . S
C308 N315 1.356 . S
C309 C308 1.363 . S
C309 C312 1.363 . S
N310 C312 1.356 . S
N310 H322 0.984 . S
N310 H323 0.985 . S
N311 C313 1.356 . S
N311 H316 0.984 1_565 S
N311 H317 0.985 1_565 S
C312 C306 1.379 . S
C312 C309 1.363 . S
C312 N310 1.356 . S
C313 C307 1.363 . S
C313 C308 1.379 . S
C313 N311 1.356 . S
N314 C306 1.356 1_554 S
N314 H320 0.984 . S
N314 H321 0.984 . S
N315 C308 1.356 . S
N315 H318 0.984 . S
N315 H319 0.985 . S
H316 N311 0.984 1_545 S
H317 N311 0.985 1_545 S
H318 N315 0.984 . S
H319 N315 0.985 . S
H320 N314 0.984 . S
H321 N314 0.984 . S
H322 N310 0.984 . S
H323 N310 0.985 . S
C324 C325 1.363 . S
C324 C330 1.379 1_655 S
C324 N332 1.356 . S
C325 C324 1.363 . S
C325 C331 1.363 . S
C326 C327 1.371 . S
C326 C331 1.370 1_455 S
C326 N333 1.360 . S
C327 C326 1.371 . S
C327 C330 1.363 . S
N328 C330 1.356 . S
N328 H340 0.984 . S
N328 H341 0.985 . S
N329 C331 1.356 . S
N329 H334 0.984 . S
N329 H335 0.985 . S
C330 C324 1.379 1_455 S
C330 C327 1.363 . S
C330 N328 1.356 . S
C331 C325 1.363 . S
C331 C326 1.370 1_655 S
C331 N329 1.356 . S
N332 C324 1.356 . S
N332 H338 0.984 . S
N332 H339 0.984 . S
N333 C326 1.360 . S
N333 H336 0.984 . S
N333 H337 0.985 . S
H334 N329 0.984 . S
H335 N329 0.985 . S
H336 N333 0.984 . S
H337 N333 0.985 . S
H338 N332 0.984 . S
H339 N332 0.984 . S
H340 N328 0.984 . S
H341 N328 0.985 . S
C342 C343 1.363 . S
C342 C348 1.379 . S
C342 N350 1.356 . S
C343 C342 1.363 . S
C343 C349 1.363 1_545 S
C344 C345 1.363 . S
C344 C349 1.379 1_545 S
C344 N351 1.361 . S
C345 C344 1.363 . S
C345 C348 1.363 . S
N346 C348 1.356 . S
N346 H358 0.984 . S
N346 H359 0.985 . S
N347 C349 1.356 . S
N347 H352 0.984 . S
N347 H353 0.985 . S
C348 C342 1.379 . S
C348 C345 1.363 . S
C348 N346 1.356 . S
C349 C343 1.363 1_565 S
C349 C344 1.379 1_565 S
C349 N347 1.356 . S
N350 C342 1.356 . S
N350 H356 0.984 . S
N350 H357 0.984 . S
N351 C344 1.361 . S
N351 H354 0.985 . S
N351 H355 0.979 1_545 S
H352 N347 0.984 . S
H353 N347 0.985 . S
H354 N351 0.985 . S
H355 N351 0.979 1_565 S
H356 N350 0.984 . S
H357 N350 0.984 . S
H358 N346 0.984 . S
H359 N346 0.985 . S
C360 C361 1.363 . S
C360 C366 1.379 . S
C360 N368 1.356 1_556 S
C361 C360 1.363 . S
C361 C367 1.363 . S
C362 C363 1.363 . S
C362 C367 1.379 . S
C362 N369 1.356 . S
C363 C362 1.363 . S
C363 C366 1.363 . S
N364 C366 1.356 . S
N364 H376 0.984 . S
N364 H377 0.985 . S
N365 C367 1.356 . S
N365 H370 0.984 . S
N365 H371 0.985 . S
C366 C360 1.379 . S
C366 C363 1.363 . S
C366 N364 1.356 . S
C367 C361 1.363 . S
C367 C362 1.379 . S
C367 N365 1.356 . S
N368 C360 1.356 1_554 S
N368 H374 0.984 . S
N368 H375 0.984 . S
N369 C362 1.356 . S
N369 H372 0.984 . S
N369 H373 0.985 . S
H370 N365 0.984 . S
H371 N365 0.985 . S
H372 N369 0.984 . S
H373 N369 0.985 . S
H374 N368 0.984 . S
H375 N368 0.984 . S
H376 N364 0.984 . S
H377 N364 0.985 . S
C378 C379 1.363 . S
C378 C384 1.379 . S
C378 N386 1.356 . S
C379 C378 1.363 . S
C379 C385 1.363 . S
C380 C381 1.366 . S
C380 C385 1.384 . S
C380 N387 1.348 1_455 S
C381 C380 1.366 . S
C381 C384 1.363 . S
N382 C384 1.356 . S
N382 H394 0.984 . S
N382 H395 0.985 . S
N383 C385 1.356 1_655 S
N383 H388 0.984 1_655 S
N383 H389 0.985 . S
C384 C378 1.379 . S
C384 C381 1.363 . S
C384 N382 1.356 . S
C385 C379 1.363 . S
C385 C380 1.384 . S
C385 N383 1.356 1_455 S
N386 C378 1.356 . S
N386 H392 0.984 . S
N386 H393 0.984 . S
N387 C380 1.348 1_655 S
N387 H390 0.984 . S
N387 H391 0.985 . S
H388 N383 0.984 1_455 S
H389 N383 0.985 . S
H390 N387 0.984 . S
H391 N387 0.985 . S
H392 N386 0.984 . S
H393 N386 0.984 . S
H394 N382 0.984 . S
H395 N382 0.985 . S
C183 C50 1.430 . S
C181 C11 1.410 . S
C199 C26 1.555 1_545 S
C201 C89 1.570 . S
C217 C40 1.445 . S
C219 C156 1.462 . S
C235 C5 1.289 . S
C237 C57 1.434 . S
C255 C110 1.547 . S
C253 C18 1.535 . S
C271 C32 1.424 . S
C273 C135 1.438 . S
C291 C96 1.323 . S
C289 C39 1.309 . S
C307 C4 1.435 . S
C309 C149 1.451 . S
C327 C64 1.447 . S
C325 C19 1.307 . S
C345 C103 1.382 . S
C343 C33 1.242 1_545 S
C363 C142 1.469 . S
C361 C12 1.456 . S
C379 C25 1.420 . S
C381 C43 1.441 . S
