# Generated by pormake.
# Topology hwx, (6,3)-cn, num edge types: 1
# Building blocks:
#     Node 0, Type 0, BuildingBlock: IZENUY_clean_sbu_0, # of connection points: 6
#     Node 1, Type 0, BuildingBlock: IZENUY_clean_sbu_0, # of connection points: 6
#     Node 2, Type 0, BuildingBlock: IZENUY_clean_sbu_0, # of connection points: 6
#     Node 3, Type 0, BuildingBlock: IZENUY_clean_sbu_0, # of connection points: 6
#     Node 4, Type 1, BuildingBlock: VETTIZ_charged_linker_0, # of connection points: 3
#     Node 5, Type 1, BuildingBlock: VETTIZ_charged_linker_0, # of connection points: 3
#     Node 6, Type 1, BuildingBlock: VETTIZ_charged_linker_0, # of connection points: 3
#     Node 7, Type 1, BuildingBlock: VETTIZ_charged_linker_0, # of connection points: 3
#     Node 8, Type 1, BuildingBlock: VETTIZ_charged_linker_0, # of connection points: 3
#     Node 9, Type 1, BuildingBlock: VETTIZ_charged_linker_0, # of connection points: 3
#     Node 10, Type 1, BuildingBlock: VETTIZ_charged_linker_0, # of connection points: 3
#     Node 11, Type 1, BuildingBlock: VETTIZ_charged_linker_0, # of connection points: 3
#     Edge 12, Type (0, 1), BuildingBlock: XIVTED_clean_linker_0, # of connection points: 2
#     Edge 13, Type (0, 1), BuildingBlock: XIVTED_clean_linker_0, # of connection points: 2
#     Edge 14, Type (0, 1), BuildingBlock: XIVTED_clean_linker_0, # of connection points: 2
#     Edge 15, Type (0, 1), BuildingBlock: XIVTED_clean_linker_0, # of connection points: 2
#     Edge 16, Type (0, 1), BuildingBlock: XIVTED_clean_linker_0, # of connection points: 2
#     Edge 17, Type (0, 1), BuildingBlock: XIVTED_clean_linker_0, # of connection points: 2
#     Edge 18, Type (0, 1), BuildingBlock: XIVTED_clean_linker_0, # of connection points: 2
#     Edge 19, Type (0, 1), BuildingBlock: XIVTED_clean_linker_0, # of connection points: 2
#     Edge 20, Type (0, 1), BuildingBlock: XIVTED_clean_linker_0, # of connection points: 2
#     Edge 21, Type (0, 1), BuildingBlock: XIVTED_clean_linker_0, # of connection points: 2
#     Edge 22, Type (0, 1), BuildingBlock: XIVTED_clean_linker_0, # of connection points: 2
#     Edge 23, Type (0, 1), BuildingBlock: XIVTED_clean_linker_0, # of connection points: 2
#     Edge 24, Type (0, 1), BuildingBlock: XIVTED_clean_linker_0, # of connection points: 2
#     Edge 25, Type (0, 1), BuildingBlock: XIVTED_clean_linker_0, # of connection points: 2
#     Edge 26, Type (0, 1), BuildingBlock: XIVTED_clean_linker_0, # of connection points: 2
#     Edge 27, Type (0, 1), BuildingBlock: XIVTED_clean_linker_0, # of connection points: 2
#     Edge 28, Type (0, 1), BuildingBlock: XIVTED_clean_linker_0, # of connection points: 2
#     Edge 29, Type (0, 1), BuildingBlock: XIVTED_clean_linker_0, # of connection points: 2
#     Edge 30, Type (0, 1), BuildingBlock: XIVTED_clean_linker_0, # of connection points: 2
#     Edge 31, Type (0, 1), BuildingBlock: XIVTED_clean_linker_0, # of connection points: 2
#     Edge 32, Type (0, 1), BuildingBlock: XIVTED_clean_linker_0, # of connection points: 2
#     Edge 33, Type (0, 1), BuildingBlock: XIVTED_clean_linker_0, # of connection points: 2
#     Edge 34, Type (0, 1), BuildingBlock: XIVTED_clean_linker_0, # of connection points: 2
#     Edge 35, Type (0, 1), BuildingBlock: XIVTED_clean_linker_0, # of connection points: 2
# Relax obj value: 0.054
# Max RMSD: 0.077
# Mean RMSD: 0.070
data_MOF--net-hwx--node1-IZENUY_clean_sbu_0--node2-VETTIZ_charged_linker_0--edge1-XIVTED_clean_linker_0
_symmetry_space_group_name_H-M    P1
_symmetry_Int_Tables_number       1
_symmetry_cell_setting            triclinic
loop_
_symmetry_equiv_pos_as_xyz
'x, y, z'
_cell_length_a     57.505904
_cell_length_b     57.447276
_cell_length_c     28.103989
_cell_angle_alpha  89.978788
_cell_angle_beta   89.969357
_cell_angle_gamma 90.014377
loop_
_atom_site_label
_atom_site_type_symbol
_atom_site_fract_x
_atom_site_fract_y
_atom_site_fract_z
_atom_type_partial_charge
Fe0 Fe 0.23619 0.20934 0.05642 0.0
Fe1 Fe 0.23677 0.20857 0.94733 0.0
O2 O 0.23125 0.19438 0.00228 0.0
Fe3 Fe 0.22081 0.16526 0.00368 0.0
O4 O 0.20336 0.1693 0.05793 0.0
O5 O 0.2058 0.20677 0.07309 0.0
O6 O 0.22949 0.23834 0.03316 0.0
C7 C 0.21812 0.24494 0.99716 0.0
C8 C 0.25182 0.16378 0.07707 0.0
O9 O 0.21669 0.23211 0.96094 0.0
C10 C 0.25311 0.16473 0.9273 0.0
O11 O 0.2668 0.21277 0.04297 0.0
O12 O 0.2619 0.22515 0.9695 0.0
O13 O 0.24595 0.15535 0.03743 0.0
O14 O 0.24402 0.18331 0.09029 0.0
C15 C 0.19488 0.18379 0.93098 0.0
O16 O 0.25722 0.18628 0.92883 0.0
O17 O 0.23618 0.15599 0.94983 0.0
C18 C 0.27464 0.2224 0.00592 0.0
O19 O 0.21267 0.19452 0.91598 0.0
O20 O 0.19503 0.17295 0.97003 0.0
C21 C 0.19535 0.18755 0.07733 0.0
Fe22 Fe 0.26256 0.70909 0.55215 0.0
Fe23 Fe 0.28102 0.66566 0.50028 0.0
O24 O 0.26819 0.69376 0.49866 0.0
Fe25 Fe 0.26087 0.70648 0.44327 0.0
O26 O 0.26602 0.73659 0.46239 0.0
O27 O 0.28072 0.73343 0.5341 0.0
O28 O 0.288 0.69756 0.58361 0.0
C29 C 0.30638 0.68779 0.56881 0.0
C30 C 0.22275 0.71841 0.49566 0.0
O31 O 0.30664 0.67649 0.53039 0.0
C32 C 0.24866 0.65911 0.4306 0.0
O33 O 0.24392 0.68596 0.57416 0.0
O34 O 0.26746 0.65709 0.55666 0.0
O35 O 0.23042 0.70805 0.45933 0.0
O36 O 0.23609 0.72336 0.53008 0.0
C37 C 0.30305 0.68743 0.42188 0.0
O38 O 0.25626 0.65268 0.47052 0.0
O39 O 0.25416 0.67878 0.41364 0.0
C40 C 0.24981 0.66491 0.57829 0.0
O41 O 0.29696 0.66921 0.44406 0.0
O42 O 0.29094 0.7057 0.42395 0.0
C43 C 0.27762 0.74503 0.49655 0.0
Fe44 Fe 0.76188 0.80028 0.93978 0.0
Fe45 Fe 0.76332 0.80028 0.04893 0.0
O46 O 0.76833 0.81455 0.99407 0.0
Fe47 Fe 0.7798 0.84323 0.99356 0.0
O48 O 0.76475 0.85219 0.93908 0.0
O49 O 0.74155 0.82298 0.9225 0.0
O50 O 0.73698 0.78408 0.96323 0.0
C51 C 0.72443 0.78726 -0.00035 0.0
C52 C 0.8045 0.8232 0.92125 0.0
O53 O 0.73253 0.79704 0.03625 0.0
C54 C 0.80464 0.82155 0.06832 0.0
O55 O 0.78162 0.77647 0.95295 0.0
O56 O 0.7699 0.77106 0.02662 0.0
O57 O 0.80528 0.83386 0.96048 0.0
O58 O 0.78579 0.81391 0.90691 0.0
C59 C 0.74883 0.84662 0.06683 0.0
O60 O 0.79376 0.80255 0.06536 0.0
O61 O 0.79702 0.83964 0.04794 0.0
C62 C 0.78086 0.76421 0.99017 0.0
O63 O 0.75583 0.82693 0.08119 0.0
O64 O 0.75505 0.85439 0.02676 0.0
C65 C 0.74671 0.84426 0.91906 0.0
Fe66 Fe 0.71572 0.34016 0.49776 0.0
Fe67 Fe 0.73492 0.29811 0.55284 0.0
O68 O 0.72969 0.31258 0.49814 0.0
Fe69 Fe 0.73845 0.29951 0.44392 0.0
O70 O 0.75708 0.32398 0.42935 0.0
O71 O 0.7315 0.35123 0.44559 0.0
O72 O 0.73846 0.35298 0.53423 0.0
C73 C 0.74446 0.34533 0.57446 0.0
C74 C 0.69469 0.31943 0.42154 0.0
O75 O 0.73919 0.32486 0.58717 0.0
C76 C 0.72144 0.26154 0.49141 0.0
O77 O 0.69728 0.33411 0.5498 0.0
O78 O 0.70418 0.29739 0.56663 0.0
O79 O 0.71428 0.31138 0.40924 0.0
O80 O 0.69204 0.32935 0.46121 0.0
C81 C 0.77578 0.28953 0.50616 0.0
O82 O 0.73147 0.26873 0.52864 0.0
O83 O 0.72048 0.27402 0.45454 0.0
C84 C 0.6912 0.31504 0.56881 0.0
O85 O 0.76611 0.29777 0.54276 0.0
O86 O 0.76422 0.28536 0.46884 0.0
C87 C 0.75039 0.34484 0.42646 0.0
C88 C 0.18273 0.54621 0.84704 0.0
C89 C 0.18393 0.57068 0.84465 0.0
C90 C 0.18124 0.58367 0.88685 0.0
C91 C 0.17809 0.54816 0.93281 0.0
C92 C 0.17975 0.53536 0.89136 0.0
C93 C 0.17897 0.50955 0.90073 0.0
H94 H 0.17757 0.42108 0.06024 0.0
C95 C 0.17678 0.53175 0.97314 0.0
C96 C 0.17699 0.50906 0.95469 0.0
H97 H 0.18082 0.41664 0.90662 0.0
H98 H 0.17771 0.45835 0.90092 0.0
H99 H 0.21355 0.46261 0.06783 0.0
H100 H 0.1386 0.46237 0.06646 0.0
H101 H 0.14778 0.48215 0.1104 0.0
H102 H 0.15516 0.45175 0.11608 0.0
H103 H 0.1967 0.45242 0.11742 0.0
H104 H 0.20409 0.48272 0.11061 0.0
C105 C 0.20215 0.4988 0.88315 0.0
C106 C 0.15698 0.49953 0.8764 0.0
C107 C 0.18133 0.5632 0.1413 0.0
C108 C 0.18233 0.55262 0.18639 0.0
C109 C 0.17981 0.52823 0.1895 0.0
C110 C 0.17704 0.51463 0.14835 0.0
C111 C 0.17696 0.52549 0.10346 0.0
C112 C 0.17863 0.54943 0.1007 0.0
C113 C 0.17836 0.55812 0.0503 0.0
C114 C 0.17667 0.5354 0.02306 0.0
C115 C 0.176 0.51632 0.05423 0.0
C116 C 0.20171 0.57085 0.04087 0.0
C117 C 0.15638 0.57342 0.04351 0.0
C118 C 0.1777 0.42902 0.02529 0.0
C119 C 0.17956 0.41533 0.98386 0.0
C120 C 0.17915 0.42657 0.93918 0.0
C121 C 0.17758 0.45089 0.93591 0.0
C122 C 0.17661 0.46428 0.97771 0.0
C123 C 0.17644 0.45328 0.02143 0.0
C124 C 0.17604 0.47028 0.06215 0.0
C125 C 0.17586 0.49331 0.03568 0.0
C126 C 0.17627 0.4897 0.98619 0.0
C127 C 0.19862 0.46689 0.09147 0.0
C128 C 0.15333 0.46647 0.09071 0.0
H129 H 0.17682 0.5835 0.96151 0.0
H130 H 0.18443 0.5357 0.81524 0.0
H131 H 0.14231 0.51213 0.8783 0.0
H132 H 0.1504 0.48365 0.89399 0.0
H133 H 0.16028 0.49574 0.83824 0.0
H134 H 0.21698 0.51071 0.89055 0.0
H135 H 0.2017 0.49563 0.84417 0.0
H136 H 0.20666 0.48242 0.90143 0.0
H137 H 0.18355 0.58182 0.13727 0.0
H138 H 0.18015 0.51961 0.22377 0.0
H139 H 0.17546 0.49616 0.15301 0.0
H140 H 0.21635 0.56166 0.05868 0.0
H141 H 0.20124 0.58894 0.0548 0.0
H142 H 0.2066 0.57139 0.00294 0.0
H143 H 0.14205 0.5678 0.06753 0.0
H144 H 0.14897 0.57198 0.00731 0.0
H145 H 0.16011 0.59199 0.05138 0.0
H146 H 0.18236 0.60249 0.8863 0.0
C147 C 0.17825 0.57258 0.93072 0.0
C148 C 0.04994 0.79267 0.52099 0.0
C149 C 0.06275 0.78736 0.47969 0.0
C150 C 0.05305 0.79252 0.43483 0.0
C151 C 0.018 0.80676 0.47252 0.0
C152 C 0.02772 0.8024 0.51657 0.0
C153 C 0.01153 0.80865 0.55669 0.0
H154 H 0.90346 0.84007 0.62612 0.0
C155 C 0.99441 0.81611 0.48005 0.0
C156 C 0.9906 0.81762 0.52934 0.0
H157 H 0.96097 0.81971 0.71556 0.0
H158 H 0.98641 0.8185 0.64663 0.0
H159 H 0.93166 0.87542 0.56026 0.0
H160 H 0.91284 0.80342 0.54516 0.0
H161 H 0.90669 0.8175 0.49109 0.0
H162 H 0.8923 0.82695 0.54433 0.0
H163 H 0.90344 0.86693 0.53944 0.0
H164 H 0.92756 0.87105 0.49899 0.0
C165 C 0.02306 0.82804 0.58679 0.0
C166 C 0.00595 0.7861 0.58471 0.0
C167 C 0.94045 0.82738 0.33871 0.0
C168 C 0.91749 0.83553 0.33502 0.0
C169 C 0.90623 0.8442 0.37584 0.0
C170 C 0.91728 0.84381 0.42015 0.0
C171 C 0.93982 0.83458 0.42379 0.0
C172 C 0.95134 0.82732 0.3833 0.0
C173 C 0.97572 0.81936 0.39385 0.0
C174 C 0.97648 0.82213 0.44764 0.0
C175 C 0.95525 0.83062 0.4649 0.0
C176 C 0.99294 0.83602 0.36837 0.0
C177 C 0.97781 0.79354 0.37857 0.0
C178 C 0.92161 0.83554 0.63081 0.0
C179 C 0.93024 0.82961 0.67588 0.0
C180 C 0.954 0.82426 0.68099 0.0
C181 C 0.96861 0.82335 0.64091 0.0
C182 C 0.95926 0.82776 0.59546 0.0
C183 C 0.93626 0.83441 0.59131 0.0
C184 C 0.929 0.83816 0.54061 0.0
C185 C 0.95127 0.83208 0.51462 0.0
C186 C 0.9689 0.82582 0.54678 0.0
C187 C 0.92239 0.86416 0.53423 0.0
C188 C 0.90909 0.82078 0.52938 0.0
H189 H 0.02438 0.80553 0.39593 0.0
H190 H 0.05679 0.78883 0.55601 0.0
H191 H 0.00396 0.77106 0.56009 0.0
H192 H 0.98938 0.78696 0.60435 0.0
H193 H 0.02013 0.78184 0.61009 0.0
H194 H 0.03299 0.84027 0.56373 0.0
H195 H 0.03538 0.82059 0.61312 0.0
H196 H 0.01026 0.83905 0.60555 0.0
H197 H 0.94965 0.82107 0.30763 0.0
H198 H 0.88852 0.85056 0.37376 0.0
H199 H 0.90761 0.85016 0.45007 0.0
H200 H 0.98506 0.85343 0.36203 0.0
H201 H 0.99835 0.82897 0.33327 0.0
H202 H 0.00861 0.83964 0.39002 0.0
H203 H 0.96222 0.78354 0.39013 0.0
H204 H 0.99277 0.78451 0.39467 0.0
H205 H 0.97917 0.79201 0.33926 0.0
H206 H 0.06272 0.78912 0.40248 0.0
C207 C 0.03082 0.8022 0.43106 0.0
C208 C 0.81609 0.46626 0.16123 0.0
C209 C 0.81622 0.44182 0.16576 0.0
C210 C 0.81979 0.42813 0.12478 0.0
C211 C 0.82074 0.46272 0.07565 0.0
C212 C 0.81852 0.4763 0.11594 0.0
C213 C 0.81824 0.50191 0.10418 0.0
H214 H 0.81757 0.58672 0.93605 0.0
C215 C 0.8208 0.47825 0.03378 0.0
C216 C 0.81969 0.5013 0.05013 0.0
H217 H 0.81586 0.5947 0.08926 0.0
H218 H 0.8181 0.55318 0.09884 0.0
H219 H 0.85533 0.54333 0.93058 0.0
H220 H 0.78074 0.54821 0.9341 0.0
H221 H 0.78703 0.52328 0.90056 0.0
H222 H 0.79662 0.55142 0.8796 0.0
H223 H 0.83801 0.55594 0.88405 0.0
H224 H 0.8436 0.52514 0.88595 0.0
C225 C 0.84005 0.51324 0.1267 0.0
C226 C 0.79487 0.51222 0.12169 0.0
C227 C 0.81313 0.44292 0.8695 0.0
C228 C 0.80811 0.45247 0.82455 0.0
C229 C 0.80901 0.47687 0.81893 0.0
C230 C 0.81355 0.49144 0.85797 0.0
C231 C 0.81692 0.48157 0.90326 0.0
C232 C 0.81699 0.45766 0.90821 0.0
C233 C 0.81922 0.45011 0.95918 0.0
C234 C 0.82009 0.47346 0.98427 0.0
C235 C 0.81895 0.49182 0.95139 0.0
C236 C 0.84235 0.43651 0.96464 0.0
C237 C 0.79708 0.43601 0.97234 0.0
C238 C 0.81757 0.57965 0.97176 0.0
C239 C 0.8167 0.59433 0.01186 0.0
C240 C 0.81702 0.58406 0.05757 0.0
C241 C 0.81811 0.55983 0.06317 0.0
C242 C 0.8186 0.5455 0.02273 0.0
C243 C 0.81831 0.55547 0.97798 0.0
C244 C 0.81774 0.53755 0.93901 0.0
C245 C 0.81862 0.51519 0.96773 0.0
C246 C 0.81904 0.51992 0.01679 0.0
C247 C 0.83973 0.5406 0.90787 0.0
C248 C 0.79447 0.5402 0.91151 0.0
H249 H 0.82428 0.42697 0.05015 0.0
H250 H 0.81378 0.47729 0.19211 0.0
H251 H 0.78034 0.49988 0.1148 0.0
H252 H 0.78996 0.52838 0.10302 0.0
H253 H 0.79535 0.51569 0.16055 0.0
H254 H 0.85507 0.50103 0.12613 0.0
H255 H 0.83682 0.51813 0.16436 0.0
H256 H 0.84613 0.52871 0.10692 0.0
H257 H 0.81315 0.42427 0.8751 0.0
H258 H 0.80518 0.4848 0.78488 0.0
H259 H 0.81352 0.50986 0.85167 0.0
H260 H 0.85582 0.4432 0.93969 0.0
H261 H 0.8399 0.41771 0.95696 0.0
H262 H 0.85016 0.43853 0.00036 0.0
H263 H 0.78146 0.44338 0.95448 0.0
H264 H 0.79282 0.43651 0.01056 0.0
H265 H 0.79871 0.41756 0.96106 0.0
H266 H 0.81978 0.4093 0.12699 0.0
C267 C 0.82216 0.43842 0.07995 0.0
C268 C 0.06066 0.18516 0.35109 0.0
C269 C 0.08337 0.17627 0.34748 0.0
C270 C 0.09429 0.16737 0.38851 0.0
C271 C 0.06089 0.17805 0.43629 0.0
C272 C 0.04971 0.1857 0.39567 0.0
C273 C 0.02561 0.1946 0.40606 0.0
H274 H 0.94566 0.22828 0.56853 0.0
C275 C 0.04557 0.18272 0.47738 0.0
C276 C 0.02476 0.19222 0.45991 0.0
H277 H 0.93857 0.22611 0.41518 0.0
H278 H 0.97697 0.20989 0.40827 0.0
H279 H 0.96853 0.17621 0.5761 0.0
H280 H 0.99701 0.24544 0.57245 0.0
H281 H 0.01435 0.22943 0.61197 0.0
H282 H 0.98391 0.23364 0.62515 0.0
H283 H 0.96544 0.19652 0.62421 0.0
H284 H 0.99048 0.17779 0.61954 0.0
C285 C 0.0078 0.1784 0.38113 0.0
C286 C 0.02433 0.22036 0.39006 0.0
C287 C 0.07682 0.1722 0.64501 0.0
C288 C 0.06833 0.17893 0.68979 0.0
C289 C 0.04582 0.18839 0.69341 0.0
C290 C 0.03206 0.19148 0.65275 0.0
C291 C 0.04108 0.18545 0.60789 0.0
C292 C 0.06308 0.17588 0.60461 0.0
C293 C 0.07051 0.17217 0.55386 0.0
C294 C 0.04927 0.18088 0.52721 0.0
C295 C 0.03207 0.18852 0.55904 0.0
C296 C 0.07444 0.14577 0.54613 0.0
C297 C 0.09225 0.18752 0.54453 0.0
C298 C 0.95216 0.2241 0.53341 0.0
C299 C 0.93895 0.22887 0.49237 0.0
C300 C 0.94844 0.22326 0.44744 0.0
C301 C 0.97072 0.2136 0.44342 0.0
C302 C 0.98375 0.20929 0.4847 0.0
C303 C 0.97427 0.21414 0.52875 0.0
C304 C 0.99031 0.20758 0.5688 0.0
C305 C 0.01089 0.19784 0.54145 0.0
C306 C 0.00711 0.19928 0.49219 0.0
C307 C 0.97816 0.18864 0.59919 0.0
C308 C 0.99671 0.23004 0.59647 0.0
H309 H 0.09259 0.16156 0.46284 0.0
H310 H 0.05169 0.19167 0.31993 0.0
H311 H 0.04002 0.23003 0.40213 0.0
H312 H 0.00934 0.22977 0.40514 0.0
H313 H 0.02346 0.22169 0.35067 0.0
H314 H 0.01508 0.16069 0.37516 0.0
H315 H 0.00258 0.18543 0.3459 0.0
H316 H 0.99206 0.17545 0.403 0.0
H317 H 0.0943 0.1654 0.64121 0.0
H318 H 0.03906 0.19373 0.72769 0.0
H319 H 0.01516 0.199 0.65772 0.0
H320 H 0.06173 0.13534 0.56708 0.0
H321 H 0.09216 0.14049 0.55753 0.0
H322 H 0.07168 0.14036 0.50883 0.0
H323 H 0.09112 0.20421 0.56451 0.0
H324 H 0.09414 0.19283 0.50702 0.0
H325 H 0.1084 0.17854 0.55602 0.0
H326 H 0.1118 0.16047 0.38661 0.0
C327 C 0.08318 0.16819 0.43281 0.0
C328 C 0.67778 0.96305 0.65329 0.0
C329 C 0.67742 0.93858 0.65704 0.0
C330 C 0.67313 0.92528 0.61578 0.0
C331 C 0.67213 0.96031 0.56788 0.0
C332 C 0.67509 0.97351 0.60848 0.0
C333 C 0.67621 0.99918 0.59754 0.0
H334 H 0.67988 0.08518 0.43222 0.0
C335 C 0.6722 0.97617 0.52652 0.0
C336 C 0.67435 0.99903 0.54355 0.0
H337 H 0.68253 0.09184 0.58562 0.0
H338 H 0.6783 0.0504 0.5939 0.0
H339 H 0.71464 0.04503 0.42785 0.0
H340 H 0.63989 0.0437 0.42649 0.0
H341 H 0.65044 0.02536 0.38089 0.0
H342 H 0.65752 0.05586 0.37988 0.0
H343 H 0.69859 0.04932 0.37391 0.0
H344 H 0.70698 0.02063 0.39388 0.0
C345 C 0.70007 0.00851 0.61461 0.0
C346 C 0.65498 0.01109 0.62112 0.0
C347 C 0.67648 0.94195 0.36077 0.0
C348 C 0.6819 0.9516 0.31608 0.0
C349 C 0.68222 0.97606 0.31134 0.0
C350 C 0.67857 0.9905 0.35096 0.0
C351 C 0.67494 0.98043 0.39598 0.0
C352 C 0.67364 0.95652 0.4001 0.0
C353 C 0.67165 0.94865 0.45093 0.0
C354 C 0.67222 0.97178 0.47683 0.0
C355 C 0.6739 0.99034 0.44453 0.0
C356 C 0.69318 0.93332 0.46253 0.0
C357 C 0.64793 0.93621 0.45712 0.0
C358 C 0.67967 0.07782 0.46768 0.0
C359 C 0.68141 0.09211 0.50824 0.0
C360 C 0.68075 0.08152 0.55362 0.0
C361 C 0.6785 0.05733 0.55845 0.0
C362 C 0.6772 0.04336 0.51755 0.0
C363 C 0.67776 0.05366 0.47313 0.0
C364 C 0.67721 0.03605 0.43357 0.0
C365 C 0.67542 0.01354 0.46159 0.0
C366 C 0.67553 0.01788 0.51081 0.0
C367 C 0.7004 0.03781 0.40546 0.0
C368 C 0.6552 0.04042 0.40321 0.0
H369 H 0.66772 0.92483 0.54136 0.0
H370 H 0.68062 0.97384 0.68434 0.0
H371 H 0.6395 0.99946 0.6204 0.0
H372 H 0.64941 0.02699 0.60219 0.0
H373 H 0.6586 0.01543 0.6589 0.0
H374 H 0.71407 0.99564 0.60722 0.0
H375 H 0.69994 0.01188 0.65352 0.0
H376 H 0.70554 0.02452 0.59601 0.0
H377 H 0.67554 0.92328 0.36579 0.0
H378 H 0.6864 0.9841 0.27756 0.0
H379 H 0.67957 0.00895 0.34531 0.0
H380 H 0.70868 0.93905 0.44189 0.0
H381 H 0.68993 0.91477 0.4536 0.0
H382 H 0.69877 0.93453 0.49999 0.0
H383 H 0.63429 0.94469 0.43503 0.0
H384 H 0.64126 0.93715 0.49395 0.0
H385 H 0.64902 0.91769 0.44604 0.0
H386 H 0.67296 0.90645 0.61725 0.0
C387 C 0.67035 0.936 0.57144 0.0
C388 C 0.55911 0.33261 0.15125 0.0
C389 C 0.58311 0.3373 0.15225 0.0
C390 C 0.59449 0.34373 0.10985 0.0
C391 C 0.55919 0.33712 0.06531 0.0
C392 C 0.5475 0.33261 0.10728 0.0
C393 C 0.5224 0.3264 0.09858 0.0
H394 H 0.43881 0.29389 0.94324 0.0
C395 C 0.54314 0.33291 0.02537 0.0
C396 C 0.52138 0.32704 0.04444 0.0
H397 H 0.4333 0.30143 0.09603 0.0
H398 H 0.47242 0.31636 0.09925 0.0
H399 H 0.46446 0.34334 0.92594 0.0
H400 H 0.49117 0.27361 0.94176 0.0
H401 H 0.5048 0.28684 0.89264 0.0
H402 H 0.47386 0.2826 0.89184 0.0
H403 H 0.46232 0.32227 0.87902 0.0
H404 H 0.48786 0.34025 0.88621 0.0
C405 C 0.50693 0.34548 0.12137 0.0
C406 C 0.51817 0.30159 0.1184 0.0
C407 C 0.57608 0.32795 0.85861 0.0
C408 C 0.56641 0.32221 0.81438 0.0
C409 C 0.54221 0.31895 0.81061 0.0
C410 C 0.52799 0.3202 0.85125 0.0
C411 C 0.53814 0.32482 0.89587 0.0
C412 C 0.56171 0.32929 0.89859 0.0
C413 C 0.56961 0.33441 0.94836 0.0
C414 C 0.54698 0.33171 0.97556 0.0
C415 C 0.52867 0.32574 0.94486 0.0
C416 C 0.57883 0.3598 0.95 0.0
C417 C 0.58774 0.31563 0.96234 0.0
C418 C 0.44589 0.29901 0.97736 0.0
C419 C 0.43297 0.29612 0.01951 0.0
C420 C 0.44301 0.30293 0.06314 0.0
C421 C 0.46571 0.31172 0.06496 0.0
C422 C 0.47867 0.31362 0.02279 0.0
C423 C 0.46857 0.30782 0.97981 0.0
C424 C 0.48489 0.3114 0.93856 0.0
C425 C 0.50648 0.32014 0.96397 0.0
C426 C 0.50281 0.32108 0.01342 0.0
C427 C 0.47441 0.33015 0.90529 0.0
C428 C 0.48891 0.28748 0.9145 0.0
H429 H 0.59248 0.3482 0.0354 0.0
H430 H 0.54991 0.32779 0.18342 0.0
H431 H 0.5328 0.28986 0.10866 0.0
H432 H 0.50244 0.29322 0.10399 0.0
H433 H 0.51682 0.30183 0.15783 0.0
H434 H 0.51608 0.36254 0.1226 0.0
H435 H 0.50205 0.34084 0.15843 0.0
H436 H 0.49098 0.3489 0.10051 0.0
H437 H 0.5946 0.33095 0.86214 0.0
H438 H 0.53447 0.31466 0.7766 0.0
H439 H 0.50975 0.31702 0.84657 0.0
H440 H 0.57109 0.37068 0.92133 0.0
H441 H 0.59801 0.36038 0.94553 0.0
H442 H 0.57403 0.36884 0.9834 0.0
H443 H 0.5821 0.29813 0.94986 0.0
H444 H 0.59015 0.31375 0.00101 0.0
H445 H 0.60493 0.31939 0.94598 0.0
H446 H 0.61286 0.34795 0.11004 0.0
C447 C 0.58264 0.34383 0.06652 0.0
C448 C 0.32043 0.04733 0.34456 0.0
C449 C 0.32321 0.07171 0.34254 0.0
C450 C 0.33184 0.08337 0.38311 0.0
C451 C 0.32995 0.04778 0.42868 0.0
C452 C 0.32414 0.03571 0.38791 0.0
C453 C 0.32135 0.01002 0.39748 0.0
H454 H 0.30677 0.92318 0.55781 0.0
C455 C 0.32863 0.03164 0.46933 0.0
C456 C 0.32399 0.00935 0.45143 0.0
H457 H 0.3147 0.91762 0.40503 0.0
H458 H 0.32015 0.95907 0.39941 0.0
H459 H 0.34999 0.9616 0.57366 0.0
H460 H 0.27574 0.96755 0.55723 0.0
H461 H 0.28442 0.99032 0.59484 0.0
H462 H 0.28859 0.96051 0.61355 0.0
H463 H 0.32919 0.95005 0.61519 0.0
H464 H 0.33849 0.97987 0.61853 0.0
C465 C 0.34129 0.99684 0.3718 0.0
C466 C 0.2967 0.00246 0.38166 0.0
C467 C 0.32414 0.06588 0.63508 0.0
C468 C 0.31572 0.05718 0.67864 0.0
C469 C 0.31123 0.03303 0.68231 0.0
C470 C 0.31412 0.01821 0.64297 0.0
C471 C 0.32118 0.02758 0.59907 0.0
C472 C 0.3261 0.05106 0.59582 0.0
C473 C 0.3311 0.05861 0.54565 0.0
C474 C 0.32792 0.03582 0.51909 0.0
C475 C 0.32274 0.01757 0.55062 0.0
C476 C 0.35668 0.06692 0.54336 0.0
C477 C 0.31296 0.07743 0.53102 0.0
C478 C 0.30999 0.93082 0.52319 0.0
C479 C 0.31008 0.91697 0.48179 0.0
C480 C 0.31404 0.92781 0.43742 0.0
C481 C 0.31743 0.95188 0.43415 0.0
C482 C 0.31691 0.96545 0.4756 0.0
C483 C 0.31357 0.95491 0.51929 0.0
C484 C 0.31395 0.97228 0.55948 0.0
C485 C 0.31919 0.99469 0.53273 0.0
C486 C 0.32033 0.99059 0.4835 0.0
C487 C 0.33386 0.96566 0.59389 0.0
C488 C 0.28953 0.9727 0.58292 0.0
H489 H 0.34062 0.08163 0.45614 0.0
H490 H 0.31433 0.03766 0.31398 0.0
H491 H 0.28341 0.0147 0.39583 0.0
H492 H 0.29186 0.98501 0.39474 0.0
H493 H 0.29527 0.00234 0.34225 0.0
H494 H 0.35589 0.00863 0.36199 0.0
H495 H 0.33509 0.98851 0.33848 0.0
H496 H 0.34931 0.98339 0.39486 0.0
H497 H 0.32826 0.08414 0.63068 0.0
H498 H 0.30452 0.02564 0.71496 0.0
H499 H 0.31002 1.00014 0.64782 0.0
H500 H 0.36813 0.0552 0.56445 0.0
H501 H 0.35849 0.08477 0.55812 0.0
H502 H 0.36383 0.06662 0.50685 0.0
H503 H 0.29762 0.07764 0.55516 0.0
H504 H 0.30542 0.07425 0.49543 0.0
H505 H 0.32064 0.09517 0.53168 0.0
H506 H 0.33532 0.10189 0.38221 0.0
C507 C 0.33506 0.07159 0.42609 0.0
C508 C 0.5492 0.71763 0.02509 0.0
C509 C 0.56265 0.72236 0.98438 0.0
C510 C 0.55279 0.71868 0.93905 0.0
C511 C 0.51694 0.70549 0.97523 0.0
C512 C 0.5265 0.7092 0.01968 0.0
C513 C 0.50977 0.70341 0.05913 0.0
H514 H 0.40282 0.66677 0.12634 0.0
C515 C 0.4932 0.69634 0.98184 0.0
C516 C 0.48892 0.69489 0.03091 0.0
H517 H 0.45784 0.69366 0.21533 0.0
H518 H 0.48306 0.69708 0.14674 0.0
H519 H 0.40967 0.7046 0.0444 0.0
H520 H 0.43444 0.63426 0.05922 0.0
H521 H 0.42855 0.6384 0.99849 0.0
H522 H 0.40516 0.64049 0.04127 0.0
H523 H 0.39093 0.67959 0.04313 0.0
H524 H 0.40501 0.69004 0.99023 0.0
C525 C 0.5044 0.7261 0.08699 0.0
C526 C 0.52051 0.68374 0.08969 0.0
C527 C 0.44158 0.68188 0.8383 0.0
C528 C 0.41907 0.67269 0.83355 0.0
C529 C 0.40768 0.66361 0.87384 0.0
C530 C 0.41808 0.66477 0.91883 0.0
C531 C 0.4401 0.67511 0.92351 0.0
C532 C 0.45185 0.68263 0.88344 0.0
C533 C 0.47575 0.69164 0.89498 0.0
C534 C 0.47586 0.68943 0.94884 0.0
C535 C 0.45478 0.68013 0.96535 0.0
C536 C 0.47717 0.71738 0.87878 0.0
C537 C 0.49388 0.67536 0.8712 0.0
C538 C 0.42046 0.67299 0.13106 0.0
C539 C 0.42847 0.67987 0.17611 0.0
C540 C 0.45133 0.68836 0.18083 0.0
C541 C 0.46588 0.69037 0.14099 0.0
C542 C 0.45735 0.68418 0.09585 0.0
C543 C 0.43502 0.67553 0.09152 0.0
C544 C 0.42836 0.67116 0.04056 0.0
C545 C 0.45031 0.67882 0.01496 0.0
C546 C 0.46725 0.68628 0.04754 0.0
C547 C 0.40732 0.68699 0.02862 0.0
C548 C 0.42369 0.64477 0.03427 0.0
H549 H 0.52362 0.70789 0.89883 0.0
H550 H 0.55625 0.72012 0.06045 0.0
H551 H 0.52867 0.6703 0.06659 0.0
H552 H 0.50751 0.67435 0.1113 0.0
H553 H 0.5342 0.69068 0.1137 0.0
H554 H 0.50656 0.74178 0.06413 0.0
H555 H 0.51619 0.72814 0.118 0.0
H556 H 0.48615 0.72699 0.09932 0.0
H557 H 0.45082 0.68859 0.80762 0.0
H558 H 0.39032 0.65643 0.87078 0.0
H559 H 0.40833 0.65809 0.94838 0.0
H560 H 0.46087 0.72679 0.888 0.0
H561 H 0.4796 0.71862 0.83965 0.0
H562 H 0.49123 0.72719 0.89639 0.0
H563 H 0.48684 0.65748 0.86616 0.0
H564 H 0.50958 0.67287 0.89335 0.0
H565 H 0.49912 0.68198 0.83564 0.0
H566 H 0.56257 0.72257 0.90707 0.0
C567 C 0.53009 0.71023 0.93428 0.0
H568 H 0.17505 0.14771 0.11088 0.0
H569 H 0.08748 0.21325 0.28681 0.0
H570 H 0.17088 0.2226 0.1212 0.0
H571 H 0.10889 0.14185 0.30503 0.0
H572 H 0.11216 0.21589 0.21583 0.0
H573 H 0.14499 0.14443 0.17183 0.0
C574 C 0.16769 0.16349 0.12561 0.0
C575 C 0.17572 0.18549 0.1112 0.0
C576 C 0.11129 0.1996 0.23518 0.0
C577 C 0.1412 0.18177 0.18101 0.0
C578 C 0.09711 0.19803 0.27541 0.0
C579 C 0.09627 0.17732 0.30188 0.0
C580 C 0.12451 0.18025 0.22108 0.0
C581 C 0.10926 0.1582 0.28588 0.0
C582 C 0.15057 0.16157 0.16055 0.0
C583 C 0.16541 0.20529 0.13155 0.0
N584 N 0.12288 0.16013 0.24656 0.0
N585 N 0.14873 0.20297 0.16556 0.0
H586 H 0.25823 0.61898 0.59728 0.0
H587 H 0.16594 0.61159 0.80974 0.0
H588 H 0.21314 0.67586 0.63708 0.0
H589 H 0.21547 0.5575 0.77673 0.0
H590 H 0.17962 0.63359 0.74069 0.0
H591 H 0.23941 0.59458 0.65683 0.0
C592 C 0.2443 0.62636 0.6184 0.0
C593 C 0.23746 0.64964 0.61246 0.0
C594 C 0.18734 0.61681 0.74832 0.0
C595 C 0.21576 0.62165 0.68091 0.0
C596 C 0.17959 0.60426 0.78781 0.0
C597 C 0.18973 0.58275 0.79939 0.0
C598 C 0.2054 0.60781 0.72016 0.0
C599 C 0.20702 0.57391 0.7691 0.0
C600 C 0.23354 0.61236 0.65243 0.0
C601 C 0.21913 0.65808 0.64065 0.0
N602 N 0.21443 0.58656 0.73117 0.0
N603 N 0.20902 0.64414 0.67386 0.0
H604 H 0.82615 0.86142 0.0977 0.0
H605 H 0.91349 0.79784 0.27647 0.0
H606 H 0.82836 0.78671 0.1147 0.0
H607 H 0.89207 0.86943 0.29107 0.0
H608 H 0.88859 0.79428 0.20595 0.0
H609 H 0.85662 0.86518 0.15744 0.0
C610 C 0.83316 0.84576 0.11367 0.0
C611 C 0.82447 0.8237 0.10154 0.0
C612 C 0.88954 0.8108 0.22439 0.0
C613 C 0.85947 0.82798 0.1699 0.0
C614 C 0.90383 0.81289 0.2643 0.0
C615 C 0.90468 0.83394 0.28957 0.0
C616 C 0.8763 0.82998 0.20945 0.0
C617 C 0.89169 0.85286 0.27274 0.0
C618 C 0.85053 0.84796 0.14788 0.0
C619 C 0.83436 0.80407 0.12334 0.0
N620 N 0.87799 0.85042 0.23374 0.0
N621 N 0.85131 0.80667 0.15666 0.0
H622 H 0.75181 0.33685 0.66861 0.0
H623 H 0.81644 0.45615 0.72769 0.0
H624 H 0.76221 0.38949 0.56086 0.0
H625 H 0.7806 0.41381 0.83159 0.0
H626 H 0.80183 0.43034 0.66472 0.0
H627 H 0.76843 0.36291 0.72749 0.0
C628 C 0.75765 0.35389 0.65719 0.0
C629 C 0.75541 0.36104 0.60967 0.0
C630 C 0.79732 0.42678 0.70142 0.0
C631 C 0.7746 0.39107 0.67737 0.0
C632 C 0.80557 0.44151 0.73737 0.0
C633 C 0.80004 0.43705 0.78529 0.0
C634 C 0.78366 0.40741 0.71361 0.0
C635 C 0.78598 0.41767 0.79554 0.0
C636 C 0.76709 0.36881 0.69098 0.0
C637 C 0.76344 0.38335 0.59719 0.0
N638 N 0.77842 0.40359 0.76014 0.0
N639 N 0.77272 0.39763 0.63091 0.0
H640 H 0.69256 0.29455 0.3395 0.0
H641 H 0.5749 0.35255 0.24389 0.0
H642 H 0.65346 0.34409 0.42287 0.0
H643 H 0.62276 0.31224 0.1592 0.0
H644 H 0.6 0.34617 0.31381 0.0
H645 H 0.66336 0.29693 0.27745 0.0
C646 C 0.67776 0.30592 0.34485 0.0
C647 C 0.67566 0.31942 0.38618 0.0
C648 C 0.60489 0.33871 0.27987 0.0
C649 C 0.64201 0.32233 0.31471 0.0
C650 C 0.5906 0.3423 0.24016 0.0
C651 C 0.59703 0.33322 0.19571 0.0
C652 C 0.62546 0.3257 0.27488 0.0
C653 C 0.61743 0.31997 0.19261 0.0
C654 C 0.66104 0.30727 0.3093 0.0
C655 C 0.65584 0.33351 0.39138 0.0
N656 N 0.63089 0.31667 0.23153 0.0
N657 N 0.63983 0.33479 0.35576 0.0
H658 H 0.27697 0.17766 0.84712 0.0
H659 H 0.31735 0.0494 0.77598 0.0
H660 H 0.25928 0.11762 0.93211 0.0
H661 H 0.30011 0.10241 0.67253 0.0
H662 H 0.30485 0.07591 0.83927 0.0
H663 H 0.29526 0.15182 0.78864 0.0
C664 C 0.27723 0.15909 0.85382 0.0
C665 C 0.2664 0.14973 0.89428 0.0
C666 C 0.30408 0.08166 0.8026 0.0
C667 C 0.28741 0.12021 0.82787 0.0
C668 C 0.31107 0.06652 0.76633 0.0
C669 C 0.30988 0.07349 0.71837 0.0
C670 C 0.29625 0.10409 0.79102 0.0
C671 C 0.30198 0.09621 0.70865 0.0
C672 C 0.28754 0.14438 0.82036 0.0
C673 C 0.2672 0.12551 0.90109 0.0
N674 N 0.29554 0.11064 0.74456 0.0
N675 N 0.27751 0.11156 0.86819 0.0
H676 H 0.32679 0.72382 0.38167 0.0
H677 H 0.40031 0.64442 0.20595 0.0
H678 H 0.32509 0.64872 0.3876 0.0
H679 H 0.41969 0.71518 0.23847 0.0
H680 H 0.37104 0.64593 0.26926 0.0
H681 H 0.35928 0.72152 0.32551 0.0
C682 C 0.33326 0.70686 0.37121 0.0
C683 C 0.32315 0.68643 0.38916 0.0
C684 C 0.38187 0.66104 0.26287 0.0
C685 C 0.36015 0.6837 0.32487 0.0
C686 C 0.39849 0.66019 0.22675 0.0
C687 C 0.41238 0.6797 0.21715 0.0
C688 C 0.37885 0.68168 0.28892 0.0
C689 C 0.40943 0.69971 0.24511 0.0
C690 C 0.35186 0.70557 0.33939 0.0
C691 C 0.33235 0.66492 0.37467 0.0
N692 N 0.39279 0.70029 0.27943 0.0
N693 N 0.35019 0.66412 0.34303 0.0
H694 H 0.75376 0.89055 0.90187 0.0
H695 H 0.65857 0.89857 0.69506 0.0
H696 H 0.70928 0.83317 0.86221 0.0
H697 H 0.71049 0.95121 0.72234 0.0
H698 H 0.67286 0.8766 0.76362 0.0
H699 H 0.73393 0.91505 0.84399 0.0
C700 C 0.73973 0.88309 0.88117 0.0
C701 C 0.73341 0.85962 0.88658 0.0
C702 C 0.68096 0.89307 0.75483 0.0
C703 C 0.71055 0.88775 0.81997 0.0
C704 C 0.67286 0.90561 0.71561 0.0
C705 C 0.68349 0.9267 0.70246 0.0
C706 C 0.6998 0.90166 0.78126 0.0
C707 C 0.7016 0.93517 0.73115 0.0
C708 C 0.7284 0.89714 0.84806 0.0
C709 C 0.7149 0.85108 0.85901 0.0
N710 N 0.70929 0.92254 0.76888 0.0
N711 N 0.70423 0.86511 0.82664 0.0
H712 H 0.84641 0.84624 0.93133 0.0
H713 H 0.89057 0.80449 0.67539 0.0
H714 H 0.80924 0.79945 0.83816 0.0
H715 H 0.93244 0.84791 0.76655 0.0
H716 H 0.86155 0.80146 0.73787 0.0
H717 H 0.87901 0.84629 0.87472 0.0
C718 C 0.84512 0.83594 0.89917 0.0
C719 C 0.82493 0.82304 0.88923 0.0
C720 C 0.87705 0.81163 0.74459 0.0
C721 C 0.86204 0.82297 0.82475 0.0
C722 C 0.89359 0.81341 0.7088 0.0
C723 C 0.91371 0.82673 0.71572 0.0
C724 C 0.88046 0.82339 0.78781 0.0
C725 C 0.91705 0.83755 0.75994 0.0
C726 C 0.86372 0.83597 0.86697 0.0
C727 C 0.82427 0.8099 0.84719 0.0
N728 N 0.90042 0.83585 0.79435 0.0
N729 N 0.84245 0.8103 0.81659 0.0
H730 H 0.73987 0.39043 0.40759 0.0
H731 H 0.83662 0.40303 0.20479 0.0
H732 H 0.78998 0.3369 0.37406 0.0
H733 H 0.78318 0.45412 0.2314 0.0
H734 H 0.82328 0.38104 0.27408 0.0
H735 H 0.75894 0.41624 0.35072 0.0
C736 C 0.75498 0.38413 0.38854 0.0
C737 C 0.76312 0.3613 0.39524 0.0
C738 C 0.81462 0.39719 0.26508 0.0
C739 C 0.78507 0.39087 0.32986 0.0
C740 C 0.82221 0.40974 0.22546 0.0
C741 C 0.81083 0.43032 0.21187 0.0
C742 C 0.79545 0.40522 0.29134 0.0
C743 C 0.79254 0.43841 0.24058 0.0
C744 C 0.76587 0.39891 0.35603 0.0
C745 C 0.78293 0.35425 0.36977 0.0
N746 N 0.78527 0.42571 0.27861 0.0
N747 N 0.79309 0.36891 0.33795 0.0
H748 H 0.17865 0.21825 0.87408 0.0
H749 H 0.09272 0.14179 0.7249 0.0
H750 H 0.16409 0.14783 0.9184 0.0
H751 H 0.07969 0.2148 0.74825 0.0
H752 H 0.12167 0.14252 0.78937 0.0
H753 H 0.14521 0.21666 0.82031 0.0
C754 C 0.16834 0.20247 0.87248 0.0
C755 C 0.17407 0.18312 0.90048 0.0
C756 C 0.11219 0.15825 0.78073 0.0
C757 C 0.13617 0.18108 0.83875 0.0
C758 C 0.0958 0.15786 0.74404 0.0
C759 C 0.08386 0.17825 0.7316 0.0
C760 C 0.11704 0.17933 0.80393 0.0
C761 C 0.08844 0.19869 0.75717 0.0
C762 C 0.14924 0.20163 0.84209 0.0
C763 C 0.16012 0.16313 0.89741 0.0
N764 N 0.10496 0.19881 0.79168 0.0
N765 N 0.14194 0.16247 0.86642 0.0
H766 H 0.24578 0.61158 0.43938 0.0
H767 H 0.1665 0.59654 0.20762 0.0
H768 H 0.22153 0.66897 0.35354 0.0
H769 H 0.2102 0.54167 0.2627 0.0
H770 H 0.17981 0.62192 0.27173 0.0
H771 H 0.22616 0.58452 0.38519 0.0
C772 C 0.23615 0.6185 0.40944 0.0
C773 C 0.23549 0.64256 0.40063 0.0
C774 C 0.18631 0.60425 0.26997 0.0
C775 C 0.21291 0.61175 0.33897 0.0
C776 C 0.17879 0.58975 0.2333 0.0
C777 C 0.18752 0.567 0.22916 0.0
C778 C 0.20255 0.59595 0.30312 0.0
C779 C 0.20291 0.55901 0.26442 0.0
C780 C 0.22503 0.60305 0.37851 0.0
C781 C 0.22273 0.65055 0.36134 0.0
N782 N 0.21008 0.57353 0.29971 0.0
N783 N 0.21198 0.63519 0.33193 0.0
H784 H 0.3209 0.72104 0.63095 0.0
H785 H 0.39778 0.63766 0.78416 0.0
H786 H 0.33755 0.65226 0.57968 0.0
H787 H 0.41167 0.71139 0.78009 0.0
H788 H 0.37349 0.64179 0.71272 0.0
H789 H 0.35207 0.71759 0.68997 0.0
C790 C 0.3313 0.70532 0.63189 0.0
C791 C 0.3267 0.68689 0.60062 0.0
C792 C 0.38217 0.65697 0.72711 0.0
C793 C 0.36187 0.68265 0.66835 0.0
C794 C 0.3959 0.65463 0.76779 0.0
C795 C 0.40665 0.67423 0.78773 0.0
C796 C 0.37873 0.67914 0.70728 0.0
C797 C 0.40373 0.69587 0.76545 0.0
C798 C 0.34908 0.7034 0.66534 0.0
C799 C 0.34067 0.6669 0.6031 0.0
N800 N 0.3897 0.69784 0.7268 0.0
N801 N 0.3574 0.66511 0.63705 0.0
H802 H 0.73593 0.836 0.15744 0.0
H803 H 0.67472 0.95675 0.219 0.0
H804 H 0.73212 0.8913 0.05347 0.0
H805 H 0.70713 0.91138 0.32224 0.0
H806 H 0.68909 0.93117 0.15533 0.0
H807 H 0.7175 0.86126 0.21541 0.0
C808 C 0.73114 0.85346 0.14661 0.0
C809 C 0.73593 0.86162 0.10056 0.0
C810 C 0.69283 0.92689 0.19206 0.0
C811 C 0.71467 0.89074 0.1673 0.0
C812 C 0.68473 0.94147 0.22843 0.0
C813 C 0.68941 0.93615 0.27637 0.0
C814 C 0.70542 0.90678 0.20387 0.0
C815 C 0.70236 0.91598 0.28621 0.0
C816 C 0.72064 0.8679 0.1799 0.0
C817 C 0.72898 0.88437 0.08871 0.0
N818 N 0.70978 0.90207 0.25041 0.0
N819 N 0.71874 0.89824 0.12203 0.0
H820 H 0.65628 0.34741 0.57516 0.0
H821 H 0.60267 0.2923 0.80916 0.0
H822 H 0.67816 0.28104 0.63172 0.0
H823 H 0.56576 0.34386 0.72733 0.0
H824 H 0.63097 0.28854 0.74475 0.0
H825 H 0.62335 0.34723 0.63045 0.0
C826 C 0.65409 0.33274 0.59897 0.0
C827 C 0.67016 0.31432 0.59914 0.0
C828 C 0.61657 0.3005 0.74051 0.0
C829 C 0.63264 0.31411 0.66254 0.0
C830 C 0.60049 0.30269 0.77728 0.0
C831 C 0.58202 0.31847 0.77338 0.0
C832 C 0.61441 0.31452 0.69983 0.0
C833 C 0.57981 0.33148 0.73143 0.0
C834 C 0.63524 0.33262 0.63035 0.0
C835 C 0.66632 0.29568 0.63047 0.0
N836 N 0.59604 0.32946 0.69638 0.0
N837 N 0.64812 0.29619 0.66125 0.0
H838 H 0.26691 0.11809 0.07005 0.0
H839 H 0.30236 0.11439 0.34307 0.0
H840 H 0.26778 0.17782 0.16337 0.0
H841 H 0.32433 0.06017 0.24644 0.0
H842 H 0.28789 0.13656 0.27639 0.0
H843 H 0.28656 0.09532 0.13246 0.0
C844 C 0.27135 0.12646 0.10336 0.0
C845 C 0.26537 0.14983 0.11169 0.0
C846 C 0.29607 0.11992 0.26949 0.0
C847 C 0.28762 0.12396 0.18282 0.0
C848 C 0.3046 0.10724 0.30774 0.0
C849 C 0.31507 0.08542 0.30066 0.0
C850 C 0.29752 0.11074 0.22336 0.0
C851 C 0.31636 0.07684 0.25379 0.0
C852 C 0.28256 0.11347 0.13885 0.0
C853 C 0.27168 0.1598 0.1554 0.0
N854 N 0.30759 0.08949 0.21685 0.0
N855 N 0.28223 0.14679 0.18926 0.0
H856 H 0.19452 0.26733 0.92484 0.0
H857 H 0.20502 0.39146 0.05034 0.0
H858 H 0.22183 0.27807 0.06628 0.0
H859 H 0.16293 0.38053 0.92504 0.0
H860 H 0.21186 0.34981 0.0549 0.0
H861 H 0.1832 0.30852 0.92228 0.0
C862 C 0.198 0.27825 0.95543 0.0
C863 C 0.20933 0.2692 0.99569 0.0
C864 C 0.20099 0.35645 0.02652 0.0
C865 C 0.19658 0.31628 0.99281 0.0
C866 C 0.19691 0.38032 0.02406 0.0
C867 C 0.18322 0.38969 0.98739 0.0
C868 C 0.19157 0.34164 0.9918 0.0
C869 C 0.17382 0.37422 0.95364 0.0
C870 C 0.19153 0.30174 0.95393 0.0
C871 C 0.2133 0.2842 0.03433 0.0
N872 N 0.17826 0.35098 0.95654 0.0
N873 N 0.2071 0.30694 0.03174 0.0
H874 H 0.20191 0.74637 0.56203 0.0
H875 H 0.08067 0.75281 0.42341 0.0
H876 H 0.18856 0.71076 0.42948 0.0
H877 H 0.09766 0.79624 0.54385 0.0
H878 H 0.11914 0.73512 0.4284 0.0
H879 H 0.16263 0.76236 0.55965 0.0
C880 C 0.19071 0.74182 0.53249 0.0
C881 C 0.19862 0.72729 0.49573 0.0
C882 C 0.11446 0.74851 0.45375 0.0
C883 C 0.15359 0.74558 0.49286 0.0
C884 C 0.09254 0.75874 0.45076 0.0
C885 C 0.08595 0.77618 0.48306 0.0
C886 C 0.12995 0.75568 0.48942 0.0
C887 C 0.10189 0.78273 0.51845 0.0
C888 C 0.16828 0.75102 0.53113 0.0
C889 C 0.18327 0.72198 0.45846 0.0
N890 N 0.12316 0.77251 0.52062 0.0
N891 N 0.1615 0.73116 0.45795 0.0
H892 H 0.78646 0.73486 0.91399 0.0
H893 H 0.83485 0.62892 0.06892 0.0
H894 H 0.79622 0.73904 0.06597 0.0
H895 H 0.79383 0.61889 0.9417 0.0
H896 H 0.82898 0.67088 0.06157 0.0
H897 H 0.79795 0.69369 0.91675 0.0
C898 C 0.79136 0.72721 0.94777 0.0
C899 C 0.79023 0.74027 0.98989 0.0
C900 C 0.82143 0.65941 0.03518 0.0
C901 C 0.80348 0.69348 0.99316 0.0
C902 C 0.8246 0.63541 0.03948 0.0
C903 C 0.81465 0.62009 0.00618 0.0
C904 C 0.80855 0.66829 0.99691 0.0
C905 C 0.80213 0.62983 0.968 0.0
C906 C 0.79775 0.70375 0.94934 0.0
C907 C 0.79665 0.72949 0.03276 0.0
N908 N 0.79944 0.65328 0.96445 0.0
N909 N 0.80301 0.70673 0.03331 0.0
H910 H 0.80238 0.27721 0.58345 0.0
H911 H 0.9184 0.26032 0.43183 0.0
H912 H 0.8054 0.28645 0.43117 0.0
H913 H 0.90571 0.22222 0.56193 0.0
H914 H 0.87931 0.27654 0.43699 0.0
H915 H 0.84296 0.2637 0.58219 0.0
C916 C 0.81164 0.27659 0.5499 0.0
C917 C 0.80053 0.28277 0.50729 0.0
C918 C 0.88516 0.26466 0.46442 0.0
C919 C 0.8467 0.26767 0.50572 0.0
C920 C 0.90743 0.25522 0.46137 0.0
C921 C 0.91543 0.2396 0.4962 0.0
C922 C 0.87079 0.25877 0.50292 0.0
C923 C 0.90051 0.23434 0.53444 0.0
C924 C 0.83468 0.26879 0.54918 0.0
C925 C 0.81326 0.28161 0.46475 0.0
N926 N 0.87891 0.24391 0.53679 0.0
N927 N 0.83568 0.27426 0.46506 0.0
H928 H 0.71661 0.23236 0.41454 0.0
H929 H 0.66482 0.12698 0.56643 0.0
H930 H 0.70637 0.23577 0.5665 0.0
H931 H 0.70539 0.11615 0.43881 0.0
H932 H 0.67246 0.16868 0.56035 0.0
H933 H 0.70464 0.19128 0.41621 0.0
C934 C 0.71162 0.22454 0.4481 0.0
C935 C 0.71267 0.23737 0.49052 0.0
C936 C 0.67955 0.1571 0.53361 0.0
C937 C 0.69878 0.19074 0.49254 0.0
C938 C 0.67536 0.13324 0.53718 0.0
C939 C 0.68464 0.11778 0.50337 0.0
C940 C 0.69282 0.16572 0.4956 0.0
C941 C 0.69758 0.12725 0.46547 0.0
C942 C 0.70492 0.20113 0.44905 0.0
C943 C 0.70606 0.2264 0.53307 0.0
N944 N 0.70129 0.15058 0.46264 0.0
N945 N 0.69936 0.20374 0.533 0.0
H946 H 0.29541 0.24938 0.93758 0.0
H947 H 0.41408 0.26497 0.08257 0.0
H948 H 0.30762 0.21919 0.07612 0.0
H949 H 0.39831 0.30246 0.95336 0.0
H950 H 0.37573 0.24691 0.07931 0.0
H951 H 0.33383 0.26738 0.94074 0.0
C952 C 0.30618 0.24646 0.96863 0.0
C953 C 0.2982 0.23278 0.00672 0.0
C954 C 0.38063 0.25913 0.05172 0.0
C955 C 0.34227 0.25341 0.01052 0.0
C956 C 0.40249 0.26959 0.05372 0.0
C957 C 0.40946 0.28536 0.01827 0.0
C958 C 0.36558 0.26434 0.01388 0.0
C959 C 0.39383 0.29022 0.98118 0.0
C960 C 0.32811 0.25682 0.97044 0.0
C961 C 0.31297 0.22966 0.04599 0.0
N962 N 0.37264 0.27975 0.97995 0.0
N963 N 0.33427 0.23989 0.04686 0.0
H964 H 0.30062 0.77099 0.56441 0.0
H965 H 0.28493 0.89004 0.42 0.0
H966 H 0.27041 0.77591 0.4241 0.0
H967 H 0.32511 0.88554 0.54942 0.0
H968 H 0.27868 0.8482 0.42299 0.0
H969 H 0.30929 0.81278 0.56139 0.0
C970 C 0.29593 0.78077 0.5329 0.0
C971 C 0.28464 0.76987 0.49456 0.0
C972 C 0.28893 0.85629 0.45073 0.0
C973 C 0.29437 0.81768 0.49107 0.0
C974 C 0.29262 0.88025 0.44892 0.0
C975 C 0.30575 0.89142 0.4843 0.0
C976 C 0.29827 0.84323 0.48837 0.0
C977 C 0.31472 0.87776 0.52156 0.0
C978 C 0.30087 0.80463 0.53124 0.0
C979 C 0.27903 0.78348 0.45464 0.0
N980 N 0.31082 0.85438 0.52263 0.0
N981 N 0.28383 0.80661 0.45409 0.0
H982 H 0.69006 0.79339 0.06676 0.0
H983 H 0.60049 0.70993 0.93117 0.0
H984 H 0.70451 0.7589 0.93342 0.0
H985 H 0.58011 0.75434 0.04789 0.0
H986 H 0.63985 0.72534 0.93649 0.0
H987 H 0.6507 0.77693 0.06534 0.0
C988 C 0.685 0.78234 0.03729 0.0
C989 C 0.70061 0.77755 0.00013 0.0
C990 C 0.62679 0.73175 0.96098 0.0
C991 C 0.65578 0.75866 0.99842 0.0
C992 C 0.60426 0.72303 0.9578 0.0
C993 C 0.58688 0.73101 0.9888 0.0
C994 C 0.63213 0.74855 0.99556 0.0
C995 C 0.59298 0.74757 0.02344 0.0
C996 C 0.66254 0.773 0.03648 0.0
C997 C 0.69309 0.76317 0.9628 0.0
N998 N 0.61511 0.75585 0.02581 0.0
N999 N 0.67128 0.75423 0.96297 0.0
loop_
_geom_bond_atom_site_label_1
_geom_bond_atom_site_label_2
_geom_bond_distance
_geom_bond_site_symmetry_2
_ccdc_geom_bond_type
Fe0 O2 1.918 . S
Fe0 O5 1.997 . S
Fe0 O6 2.002 . S
Fe0 O11 1.976 . S
Fe0 O14 1.996 . S
Fe1 O2 1.918 1_556 S
Fe1 O9 1.997 . S
Fe1 O12 1.996 . S
Fe1 O16 1.976 . S
Fe1 O19 2.002 . S
O2 Fe0 1.918 . S
O2 Fe1 1.918 1_554 S
O2 Fe3 1.918 1_554 S
Fe3 O2 1.918 1_556 S
Fe3 O4 1.997 1_556 S
Fe3 O13 1.971 1_556 S
Fe3 O17 2.001 . S
Fe3 O20 2.002 . S
O4 Fe3 1.997 1_554 S
O4 C21 1.295 . S
O5 Fe0 1.997 . S
O5 C21 1.235 . S
O6 Fe0 2.002 . S
O6 C7 1.295 . S
C7 O6 1.295 . S
C7 O9 1.235 1_554 S
C8 O13 1.287 . S
C8 O14 1.255 . S
O9 Fe1 1.997 . S
O9 C7 1.235 1_556 S
C10 O16 1.287 . S
C10 O17 1.255 . S
O11 Fe0 1.976 . S
O11 C18 1.287 1_554 S
O12 Fe1 1.996 . S
O12 C18 1.255 . S
O13 Fe3 1.971 1_554 S
O13 C8 1.287 . S
O14 Fe0 1.996 . S
O14 C8 1.255 . S
C15 O19 1.295 . S
C15 O20 1.235 . S
O16 Fe1 1.976 . S
O16 C10 1.287 . S
O17 Fe3 2.001 . S
O17 C10 1.255 . S
C18 O11 1.287 1_556 S
C18 O12 1.255 . S
O19 Fe1 2.002 . S
O19 C15 1.295 . S
O20 Fe3 2.002 . S
O20 C15 1.235 . S
C21 O4 1.295 . S
C21 O5 1.235 . S
Fe22 O24 1.918 . S
Fe22 O27 1.997 . S
Fe22 O28 2.002 . S
Fe22 O33 1.976 . S
Fe22 O36 1.996 . S
Fe23 O24 1.918 . S
Fe23 O31 1.997 . S
Fe23 O34 1.996 . S
Fe23 O38 1.976 . S
Fe23 O41 2.002 . S
O24 Fe22 1.918 . S
O24 Fe23 1.918 . S
O24 Fe25 1.918 . S
Fe25 O24 1.918 . S
Fe25 O26 2.002 . S
Fe25 O35 1.976 . S
Fe25 O39 1.996 . S
Fe25 O42 1.997 . S
O26 Fe25 2.002 . S
O26 C43 1.295 . S
O27 Fe22 1.997 . S
O27 C43 1.235 . S
O28 Fe22 2.002 . S
O28 C29 1.295 . S
C29 O28 1.295 . S
C29 O31 1.235 . S
C30 O35 1.287 . S
C30 O36 1.255 . S
O31 Fe23 1.997 . S
O31 C29 1.235 . S
C32 O38 1.287 . S
C32 O39 1.255 . S
O33 Fe22 1.976 . S
O33 C40 1.287 . S
O34 Fe23 1.996 . S
O34 C40 1.255 . S
O35 Fe25 1.976 . S
O35 C30 1.287 . S
O36 Fe22 1.996 . S
O36 C30 1.255 . S
C37 O41 1.295 . S
C37 O42 1.235 . S
O38 Fe23 1.976 . S
O38 C32 1.287 . S
O39 Fe25 1.996 . S
O39 C32 1.255 . S
C40 O33 1.287 . S
C40 O34 1.255 . S
O41 Fe23 2.002 . S
O41 C37 1.295 . S
O42 Fe25 1.997 . S
O42 C37 1.235 . S
C43 O26 1.295 . S
C43 O27 1.235 . S
Fe44 O46 1.918 1_556 S
Fe44 O49 1.997 . S
Fe44 O50 2.002 . S
Fe44 O55 1.976 . S
Fe44 O58 1.996 . S
Fe45 O46 1.918 . S
Fe45 O53 1.997 . S
Fe45 O56 1.996 . S
Fe45 O60 1.976 . S
Fe45 O63 2.002 . S
O46 Fe44 1.918 1_554 S
O46 Fe45 1.918 . S
O46 Fe47 1.918 . S
Fe47 O46 1.918 . S
Fe47 O48 1.994 1_554 S
Fe47 O57 1.967 1_554 S
Fe47 O61 2.005 . S
Fe47 O64 2.006 . S
O48 Fe47 1.994 1_556 S
O48 C65 1.295 . S
O49 Fe44 1.997 . S
O49 C65 1.235 . S
O50 Fe44 2.002 . S
O50 C51 1.295 . S
C51 O50 1.295 . S
C51 O53 1.235 1_556 S
C52 O57 1.287 . S
C52 O58 1.255 . S
O53 Fe45 1.997 . S
O53 C51 1.235 1_554 S
C54 O60 1.287 . S
C54 O61 1.255 . S
O55 Fe44 1.976 . S
O55 C62 1.287 1_556 S
O56 Fe45 1.996 . S
O56 C62 1.255 . S
O57 Fe47 1.967 1_556 S
O57 C52 1.287 . S
O58 Fe44 1.996 . S
O58 C52 1.255 . S
C59 O63 1.295 . S
C59 O64 1.235 . S
O60 Fe45 1.976 . S
O60 C54 1.287 . S
O61 Fe47 2.005 . S
O61 C54 1.255 . S
C62 O55 1.287 1_554 S
C62 O56 1.255 . S
O63 Fe45 2.002 . S
O63 C59 1.295 . S
O64 Fe47 2.006 . S
O64 C59 1.235 . S
C65 O48 1.295 . S
C65 O49 1.235 . S
Fe66 O68 1.918 . S
Fe66 O71 1.997 . S
Fe66 O72 2.002 . S
Fe66 O77 1.976 . S
Fe66 O80 1.996 . S
Fe67 O68 1.918 . S
Fe67 O75 1.997 . S
Fe67 O78 1.996 . S
Fe67 O82 1.976 . S
Fe67 O85 2.002 . S
O68 Fe66 1.918 . S
O68 Fe67 1.918 . S
O68 Fe69 1.918 . S
Fe69 O68 1.918 . S
Fe69 O70 2.002 . S
Fe69 O79 1.976 . S
Fe69 O83 1.996 . S
Fe69 O86 1.997 . S
O70 Fe69 2.002 . S
O70 C87 1.295 . S
O71 Fe66 1.997 . S
O71 C87 1.235 . S
O72 Fe66 2.002 . S
O72 C73 1.295 . S
C73 O72 1.295 . S
C73 O75 1.235 . S
C74 O79 1.287 . S
C74 O80 1.255 . S
O75 Fe67 1.997 . S
O75 C73 1.235 . S
C76 O82 1.287 . S
C76 O83 1.255 . S
O77 Fe66 1.976 . S
O77 C84 1.287 . S
O78 Fe67 1.996 . S
O78 C84 1.255 . S
O79 Fe69 1.976 . S
O79 C74 1.287 . S
O80 Fe66 1.996 . S
O80 C74 1.255 . S
C81 O85 1.295 . S
C81 O86 1.235 . S
O82 Fe67 1.976 . S
O82 C76 1.287 . S
O83 Fe69 1.996 . S
O83 C76 1.255 . S
C84 O77 1.287 . S
C84 O78 1.255 . S
O85 Fe67 2.002 . S
O85 C81 1.295 . S
O86 Fe69 1.997 . S
O86 C81 1.235 . S
C87 O70 1.295 . S
C87 O71 1.235 . S
C88 C89 1.391 . S
C88 C92 1.391 . S
C88 H130 0.948 . S
C89 C88 1.391 . S
C89 C90 1.391 . S
C90 C89 1.391 . S
C90 H146 0.947 . S
C90 C147 1.392 . S
C91 C92 1.391 . S
C91 C95 1.397 . S
C91 C147 1.419 . S
C92 C88 1.391 . S
C92 C91 1.391 . S
C92 C93 1.399 . S
C93 C92 1.399 . S
C93 C96 1.396 . S
C93 C105 1.453 . S
C93 C106 1.684 . S
H94 C118 0.948 . S
C95 C91 1.397 . S
C95 C96 1.394 . S
C95 C114 1.723 1_556 S
C96 C93 1.396 . S
C96 C95 1.394 . S
C96 C126 1.723 . S
H97 C120 0.947 . S
H98 C121 0.948 . S
H99 C127 0.982 . S
H100 C128 0.979 . S
H101 C128 0.980 . S
H102 C128 0.983 . S
H103 C127 0.979 . S
H104 C127 0.977 . S
C105 C93 1.453 . S
C105 H134 0.982 . S
C105 H135 0.979 . S
C105 H136 0.977 . S
C106 C93 1.684 . S
C106 H131 0.979 . S
C106 H132 0.980 . S
C106 H133 0.983 . S
C107 C108 1.391 . S
C107 C112 1.391 . S
C107 H137 0.948 . S
C108 C107 1.391 . S
C108 C109 1.391 . S
C109 C108 1.391 . S
C109 C110 1.392 . S
C109 H138 0.947 . S
C110 C109 1.392 . S
C110 C111 1.419 . S
C110 H139 0.948 . S
C111 C110 1.419 . S
C111 C112 1.391 . S
C111 C115 1.397 . S
C112 C107 1.391 . S
C112 C111 1.391 . S
C112 C113 1.399 . S
C113 C112 1.399 . S
C113 C114 1.396 . S
C113 C116 1.453 . S
C113 C117 1.684 . S
C114 C95 1.723 1_554 S
C114 C113 1.396 . S
C114 C115 1.394 . S
C115 C111 1.397 . S
C115 C114 1.394 . S
C115 C125 1.723 . S
C116 C113 1.453 . S
C116 H140 0.982 . S
C116 H141 0.979 . S
C116 H142 0.977 1_554 S
C117 C113 1.684 . S
C117 H143 0.979 . S
C117 H144 0.980 1_554 S
C117 H145 0.983 . S
C118 H94 0.948 . S
C118 C119 1.391 1_554 S
C118 C123 1.391 . S
C119 C118 1.391 1_556 S
C119 C120 1.391 . S
C120 H97 0.947 . S
C120 C119 1.391 . S
C120 C121 1.392 . S
C121 H98 0.948 . S
C121 C120 1.392 . S
C121 C122 1.419 . S
C122 C121 1.419 . S
C122 C123 1.391 1_556 S
C122 C126 1.397 . S
C123 C118 1.391 . S
C123 C122 1.391 1_554 S
C123 C124 1.399 . S
C124 C123 1.399 . S
C124 C125 1.396 . S
C124 C127 1.453 . S
C124 C128 1.684 . S
C125 C115 1.723 . S
C125 C124 1.396 . S
C125 C126 1.394 1_554 S
C126 C96 1.723 . S
C126 C122 1.397 . S
C126 C125 1.394 1_556 S
C127 H99 0.982 . S
C127 H103 0.979 . S
C127 H104 0.977 . S
C127 C124 1.453 . S
C128 H100 0.979 . S
C128 H101 0.980 . S
C128 H102 0.983 . S
C128 C124 1.684 . S
H129 C147 0.948 . S
H130 C88 0.948 . S
H131 C106 0.979 . S
H132 C106 0.980 . S
H133 C106 0.983 . S
H134 C105 0.982 . S
H135 C105 0.979 . S
H136 C105 0.977 . S
H137 C107 0.948 . S
H138 C109 0.947 . S
H139 C110 0.948 . S
H140 C116 0.982 . S
H141 C116 0.979 . S
H142 C116 0.977 1_556 S
H143 C117 0.979 . S
H144 C117 0.980 1_556 S
H145 C117 0.983 . S
H146 C90 0.947 . S
C147 C90 1.392 . S
C147 C91 1.419 . S
C147 H129 0.948 . S
C148 C149 1.391 . S
C148 C152 1.391 . S
C148 H190 0.948 . S
C149 C148 1.391 . S
C149 C150 1.391 . S
C150 C149 1.391 . S
C150 H206 0.947 . S
C150 C207 1.392 . S
C151 C152 1.391 . S
C151 C155 1.397 . S
C151 C207 1.419 . S
C152 C148 1.391 . S
C152 C151 1.391 . S
C152 C153 1.399 . S
C153 C152 1.399 . S
C153 C156 1.421 . S
C153 C165 1.453 . S
C153 C166 1.684 . S
H154 C178 0.948 . S
C155 C151 1.397 . S
C155 C156 1.399 . S
C155 C174 1.723 1_455 S
C156 C153 1.421 . S
C156 C155 1.399 . S
C156 C186 1.694 1_455 S
H157 C180 0.947 . S
H158 C181 0.948 . S
H159 C187 0.982 . S
H160 C188 0.979 . S
H161 C188 0.980 . S
H162 C188 0.983 . S
H163 C187 0.979 . S
H164 C187 0.977 . S
C165 C153 1.453 . S
C165 H194 0.982 . S
C165 H195 0.979 . S
C165 H196 0.977 . S
C166 C153 1.684 . S
C166 H191 0.979 . S
C166 H192 0.980 . S
C166 H193 0.983 . S
C167 C168 1.391 . S
C167 C172 1.391 . S
C167 H197 0.948 . S
C168 C167 1.391 . S
C168 C169 1.391 . S
C169 C168 1.391 . S
C169 C170 1.392 . S
C169 H198 0.947 . S
C170 C169 1.392 . S
C170 C171 1.419 . S
C170 H199 0.948 . S
C171 C170 1.419 . S
C171 C172 1.391 . S
C171 C175 1.397 . S
C172 C167 1.391 . S
C172 C171 1.391 . S
C172 C173 1.399 . S
C173 C172 1.399 . S
C173 C174 1.396 . S
C173 C176 1.453 1_655 S
C173 C177 1.684 . S
C174 C155 1.723 1_655 S
C174 C173 1.396 . S
C174 C175 1.394 . S
C175 C171 1.397 . S
C175 C174 1.394 . S
C175 C185 1.723 . S
C176 C173 1.453 1_455 S
C176 H200 0.982 . S
C176 H201 0.979 . S
C176 H202 0.977 . S
C177 C173 1.684 . S
C177 H203 0.979 . S
C177 H204 0.980 1_655 S
C177 H205 0.983 . S
C178 H154 0.948 . S
C178 C179 1.391 . S
C178 C183 1.391 . S
C179 C178 1.391 . S
C179 C180 1.391 . S
C180 H157 0.947 . S
C180 C179 1.391 . S
C180 C181 1.392 . S
C181 H158 0.948 . S
C181 C180 1.392 . S
C181 C182 1.419 . S
C182 C181 1.419 . S
C182 C183 1.391 . S
C182 C186 1.397 . S
C183 C178 1.391 . S
C183 C182 1.391 . S
C183 C184 1.399 . S
C184 C183 1.399 . S
C184 C185 1.396 . S
C184 C187 1.453 . S
C184 C188 1.684 . S
C185 C175 1.723 . S
C185 C184 1.396 . S
C185 C186 1.394 . S
C186 C156 1.694 1_655 S
C186 C182 1.397 . S
C186 C185 1.394 . S
C187 H159 0.982 . S
C187 H163 0.979 . S
C187 H164 0.977 . S
C187 C184 1.453 . S
C188 H160 0.979 . S
C188 H161 0.980 . S
C188 H162 0.983 . S
C188 C184 1.684 . S
H189 C207 0.948 . S
H190 C148 0.948 . S
H191 C166 0.979 . S
H192 C166 0.980 . S
H193 C166 0.983 . S
H194 C165 0.982 . S
H195 C165 0.979 . S
H196 C165 0.977 . S
H197 C167 0.948 . S
H198 C169 0.947 . S
H199 C170 0.948 . S
H200 C176 0.982 . S
H201 C176 0.979 . S
H202 C176 0.977 . S
H203 C177 0.979 . S
H204 C177 0.980 1_455 S
H205 C177 0.983 . S
H206 C150 0.947 . S
C207 C150 1.392 . S
C207 C151 1.419 . S
C207 H189 0.948 . S
C208 C209 1.391 . S
C208 C212 1.391 . S
C208 H250 0.948 . S
C209 C208 1.391 . S
C209 C210 1.391 . S
C210 C209 1.391 . S
C210 H266 0.947 . S
C210 C267 1.392 . S
C211 C212 1.391 . S
C211 C215 1.397 . S
C211 C267 1.419 . S
C212 C208 1.391 . S
C212 C211 1.391 . S
C212 C213 1.399 . S
C213 C212 1.399 . S
C213 C216 1.396 . S
C213 C225 1.453 . S
C213 C226 1.684 . S
H214 C238 0.948 . S
C215 C211 1.397 . S
C215 C216 1.394 . S
C215 C234 1.723 1_554 S
C216 C213 1.396 . S
C216 C215 1.394 . S
C216 C246 1.723 . S
H217 C240 0.947 . S
H218 C241 0.948 . S
H219 C247 0.982 . S
H220 C248 0.979 . S
H221 C248 0.980 . S
H222 C248 0.983 . S
H223 C247 0.979 . S
H224 C247 0.977 . S
C225 C213 1.453 . S
C225 H254 0.982 . S
C225 H255 0.979 . S
C225 H256 0.977 . S
C226 C213 1.684 . S
C226 H251 0.979 . S
C226 H252 0.980 . S
C226 H253 0.983 . S
C227 C228 1.391 . S
C227 C232 1.391 . S
C227 H257 0.948 . S
C228 C227 1.391 . S
C228 C229 1.391 . S
C229 C228 1.391 . S
C229 C230 1.392 . S
C229 H258 0.947 . S
C230 C229 1.392 . S
C230 C231 1.419 . S
C230 H259 0.948 . S
C231 C230 1.419 . S
C231 C232 1.391 . S
C231 C235 1.397 . S
C232 C227 1.391 . S
C232 C231 1.391 . S
C232 C233 1.399 . S
C233 C232 1.399 . S
C233 C234 1.396 . S
C233 C236 1.453 . S
C233 C237 1.684 . S
C234 C215 1.723 1_556 S
C234 C233 1.396 . S
C234 C235 1.394 . S
C235 C231 1.397 . S
C235 C234 1.394 . S
C235 C245 1.723 . S
C236 C233 1.453 . S
C236 H260 0.982 . S
C236 H261 0.979 . S
C236 H262 0.977 1_556 S
C237 C233 1.684 . S
C237 H263 0.979 . S
C237 H264 0.980 1_556 S
C237 H265 0.983 . S
C238 H214 0.948 . S
C238 C239 1.391 1_556 S
C238 C243 1.391 . S
C239 C238 1.391 1_554 S
C239 C240 1.391 . S
C240 H217 0.947 . S
C240 C239 1.391 . S
C240 C241 1.392 . S
C241 H218 0.948 . S
C241 C240 1.392 . S
C241 C242 1.419 . S
C242 C241 1.419 . S
C242 C243 1.391 1_554 S
C242 C246 1.397 . S
C243 C238 1.391 . S
C243 C242 1.391 1_556 S
C243 C244 1.399 . S
C244 C243 1.399 . S
C244 C245 1.396 . S
C244 C247 1.453 . S
C244 C248 1.684 . S
C245 C235 1.723 . S
C245 C244 1.396 . S
C245 C246 1.394 1_556 S
C246 C216 1.723 . S
C246 C242 1.397 . S
C246 C245 1.394 1_554 S
C247 H219 0.982 . S
C247 H223 0.979 . S
C247 H224 0.977 . S
C247 C244 1.453 . S
C248 H220 0.979 . S
C248 H221 0.980 . S
C248 H222 0.983 . S
C248 C244 1.684 . S
H249 C267 0.948 . S
H250 C208 0.948 . S
H251 C226 0.979 . S
H252 C226 0.980 . S
H253 C226 0.983 . S
H254 C225 0.982 . S
H255 C225 0.979 . S
H256 C225 0.977 . S
H257 C227 0.948 . S
H258 C229 0.947 . S
H259 C230 0.948 . S
H260 C236 0.982 . S
H261 C236 0.979 . S
H262 C236 0.977 1_554 S
H263 C237 0.979 . S
H264 C237 0.980 1_554 S
H265 C237 0.983 . S
H266 C210 0.947 . S
C267 C210 1.392 . S
C267 C211 1.419 . S
C267 H249 0.948 . S
C268 C269 1.391 . S
C268 C272 1.391 . S
C268 H310 0.948 . S
C269 C268 1.391 . S
C269 C270 1.391 . S
C270 C269 1.391 . S
C270 H326 0.947 . S
C270 C327 1.392 . S
C271 C272 1.391 . S
C271 C275 1.397 . S
C271 C327 1.419 . S
C272 C268 1.391 . S
C272 C271 1.391 . S
C272 C273 1.399 . S
C273 C272 1.399 . S
C273 C276 1.396 . S
C273 C285 1.453 1_455 S
C273 C286 1.684 . S
H274 C298 0.948 . S
C275 C271 1.397 . S
C275 C276 1.394 . S
C275 C294 1.723 . S
C276 C273 1.396 . S
C276 C275 1.394 . S
C276 C306 1.723 1_455 S
H277 C300 0.947 . S
H278 C301 0.948 . S
H279 C307 0.982 . S
H280 C308 0.979 . S
H281 C308 0.980 . S
H282 C308 0.983 . S
H283 C307 0.979 . S
H284 C307 0.977 . S
C285 C273 1.453 1_655 S
C285 H314 0.980 1_655 S
C285 H315 0.979 . S
C285 H316 0.977 . S
C286 C273 1.684 . S
C286 H311 0.979 . S
C286 H312 0.980 1_455 S
C286 H313 0.983 . S
C287 C288 1.391 . S
C287 C292 1.391 . S
C287 H317 0.948 . S
C288 C287 1.391 . S
C288 C289 1.391 . S
C289 C288 1.391 . S
C289 C290 1.392 . S
C289 H318 0.947 . S
C290 C289 1.392 . S
C290 C291 1.419 . S
C290 H319 0.948 . S
C291 C290 1.419 . S
C291 C292 1.391 . S
C291 C295 1.397 . S
C292 C287 1.391 . S
C292 C291 1.391 . S
C292 C293 1.399 . S
C293 C292 1.399 . S
C293 C294 1.396 . S
C293 C296 1.453 . S
C293 C297 1.684 . S
C294 C275 1.723 . S
C294 C293 1.396 . S
C294 C295 1.394 . S
C295 C291 1.397 . S
C295 C294 1.394 . S
C295 C305 1.716 1_455 S
C296 C293 1.453 . S
C296 H320 0.982 . S
C296 H321 0.979 . S
C296 H322 0.977 . S
C297 C293 1.684 . S
C297 H323 0.979 . S
C297 H324 0.980 . S
C297 H325 0.983 . S
C298 H274 0.948 . S
C298 C299 1.391 . S
C298 C303 1.391 . S
C299 C298 1.391 . S
C299 C300 1.391 . S
C300 H277 0.947 . S
C300 C299 1.391 . S
C300 C301 1.392 . S
C301 H278 0.948 . S
C301 C300 1.392 . S
C301 C302 1.419 . S
C302 C301 1.419 . S
C302 C303 1.391 . S
C302 C306 1.397 . S
C303 C298 1.391 . S
C303 C302 1.391 . S
C303 C304 1.399 . S
C304 C303 1.399 . S
C304 C305 1.402 . S
C304 C307 1.453 . S
C304 C308 1.684 . S
C305 C295 1.716 1_655 S
C305 C304 1.402 . S
C305 C306 1.395 . S
C306 C276 1.723 1_655 S
C306 C302 1.397 . S
C306 C305 1.395 . S
C307 H279 0.982 . S
C307 H283 0.979 . S
C307 H284 0.977 . S
C307 C304 1.453 . S
C308 H280 0.979 . S
C308 H281 0.980 . S
C308 H282 0.983 . S
C308 C304 1.684 . S
H309 C327 0.948 . S
H310 C268 0.948 . S
H311 C286 0.979 . S
H312 C286 0.980 1_655 S
H313 C286 0.983 . S
H314 C285 0.980 1_455 S
H315 C285 0.979 . S
H316 C285 0.977 . S
H317 C287 0.948 . S
H318 C289 0.947 . S
H319 C290 0.948 . S
H320 C296 0.982 . S
H321 C296 0.979 . S
H322 C296 0.977 . S
H323 C297 0.979 . S
H324 C297 0.980 . S
H325 C297 0.983 . S
H326 C270 0.947 . S
C327 C270 1.392 . S
C327 C271 1.419 . S
C327 H309 0.948 . S
C328 C329 1.391 . S
C328 C332 1.391 . S
C328 H370 0.948 . S
C329 C328 1.391 . S
C329 C330 1.391 . S
C330 C329 1.391 . S
C330 H386 0.947 . S
C330 C387 1.392 . S
C331 C332 1.391 . S
C331 C335 1.397 . S
C331 C387 1.419 . S
C332 C328 1.391 . S
C332 C331 1.391 . S
C332 C333 1.399 . S
C333 C332 1.399 . S
C333 C336 1.396 . S
C333 C345 1.453 1_565 S
C333 C346 1.684 1_565 S
H334 C358 0.948 . S
C335 C331 1.397 . S
C335 C336 1.394 . S
C335 C354 1.723 . S
C336 C333 1.396 . S
C336 C335 1.394 . S
C336 C366 1.723 1_565 S
H337 C360 0.947 . S
H338 C361 0.948 . S
H339 C367 0.982 . S
H340 C368 0.979 . S
H341 C368 0.980 . S
H342 C368 0.983 . S
H343 C367 0.979 . S
H344 C367 0.977 . S
C345 C333 1.453 1_545 S
C345 H374 0.982 . S
C345 H375 0.979 . S
C345 H376 0.977 . S
C346 C333 1.684 1_545 S
C346 H371 0.979 . S
C346 H372 0.980 . S
C346 H373 0.983 . S
C347 C348 1.391 . S
C347 C352 1.391 . S
C347 H377 0.948 . S
C348 C347 1.391 . S
C348 C349 1.391 . S
C349 C348 1.391 . S
C349 C350 1.392 . S
C349 H378 0.947 . S
C350 C349 1.392 . S
C350 C351 1.419 . S
C350 H379 0.913 1_565 S
C351 C350 1.419 . S
C351 C352 1.391 . S
C351 C355 1.397 . S
C352 C347 1.391 . S
C352 C351 1.391 . S
C352 C353 1.399 . S
C353 C352 1.399 . S
C353 C354 1.396 . S
C353 C356 1.453 . S
C353 C357 1.684 . S
C354 C335 1.723 . S
C354 C353 1.396 . S
C354 C355 1.394 . S
C355 C351 1.397 . S
C355 C354 1.394 . S
C355 C365 1.723 1_565 S
C356 C353 1.453 . S
C356 H380 0.982 . S
C356 H381 0.979 . S
C356 H382 0.977 . S
C357 C353 1.684 . S
C357 H383 0.979 . S
C357 H384 0.980 . S
C357 H385 0.983 . S
C358 H334 0.948 . S
C358 C359 1.391 . S
C358 C363 1.391 . S
C359 C358 1.391 . S
C359 C360 1.391 . S
C360 H337 0.947 . S
C360 C359 1.391 . S
C360 C361 1.392 . S
C361 H338 0.948 . S
C361 C360 1.392 . S
C361 C362 1.419 . S
C362 C361 1.419 . S
C362 C363 1.391 . S
C362 C366 1.397 . S
C363 C358 1.391 . S
C363 C362 1.391 . S
C363 C364 1.399 . S
C364 C363 1.399 . S
C364 C365 1.396 . S
C364 C367 1.453 . S
C364 C368 1.684 . S
C365 C355 1.723 1_545 S
C365 C364 1.396 . S
C365 C366 1.394 . S
C366 C336 1.723 1_545 S
C366 C362 1.397 . S
C366 C365 1.394 . S
C367 H339 0.982 . S
C367 H343 0.979 . S
C367 H344 0.977 . S
C367 C364 1.453 . S
C368 H340 0.979 . S
C368 H341 0.980 . S
C368 H342 0.983 . S
C368 C364 1.684 . S
H369 C387 0.948 . S
H370 C328 0.948 . S
H371 C346 0.979 . S
H372 C346 0.980 . S
H373 C346 0.983 . S
H374 C345 0.982 . S
H375 C345 0.979 . S
H376 C345 0.977 . S
H377 C347 0.948 . S
H378 C349 0.947 . S
H379 C350 0.913 1_545 S
H380 C356 0.982 . S
H381 C356 0.979 . S
H382 C356 0.977 . S
H383 C357 0.979 . S
H384 C357 0.980 . S
H385 C357 0.983 . S
H386 C330 0.947 . S
C387 C330 1.392 . S
C387 C331 1.419 . S
C387 H369 0.948 . S
C388 C389 1.391 . S
C388 C392 1.391 . S
C388 H430 0.948 . S
C389 C388 1.391 . S
C389 C390 1.391 . S
C390 C389 1.391 . S
C390 H446 0.947 . S
C390 C447 1.392 . S
C391 C392 1.391 . S
C391 C395 1.397 . S
C391 C447 1.419 . S
C392 C388 1.391 . S
C392 C391 1.391 . S
C392 C393 1.399 . S
C393 C392 1.399 . S
C393 C396 1.396 . S
C393 C405 1.453 . S
C393 C406 1.684 . S
H394 C418 0.948 . S
C395 C391 1.397 . S
C395 C396 1.394 . S
C395 C414 1.723 1_554 S
C396 C393 1.396 . S
C396 C395 1.394 . S
C396 C426 1.723 . S
H397 C420 0.947 . S
H398 C421 0.948 . S
H399 C427 0.982 . S
H400 C428 0.979 . S
H401 C428 0.980 . S
H402 C428 0.983 . S
H403 C427 0.979 . S
H404 C427 0.977 . S
C405 C393 1.453 . S
C405 H434 0.982 . S
C405 H435 0.979 . S
C405 H436 0.977 . S
C406 C393 1.684 . S
C406 H431 0.979 . S
C406 H432 0.980 . S
C406 H433 0.983 . S
C407 C408 1.391 . S
C407 C412 1.391 . S
C407 H437 0.948 . S
C408 C407 1.391 . S
C408 C409 1.391 . S
C409 C408 1.391 . S
C409 C410 1.392 . S
C409 H438 0.947 . S
C410 C409 1.392 . S
C410 C411 1.419 . S
C410 H439 0.948 . S
C411 C410 1.419 . S
C411 C412 1.391 . S
C411 C415 1.397 . S
C412 C407 1.391 . S
C412 C411 1.391 . S
C412 C413 1.399 . S
C413 C412 1.399 . S
C413 C414 1.396 . S
C413 C416 1.453 . S
C413 C417 1.684 . S
C414 C395 1.723 1_556 S
C414 C413 1.396 . S
C414 C415 1.394 . S
C415 C411 1.397 . S
C415 C414 1.394 . S
C415 C425 1.723 . S
C416 C413 1.453 . S
C416 H440 0.982 . S
C416 H441 0.979 . S
C416 H442 0.977 1_556 S
C417 C413 1.684 . S
C417 H443 0.979 . S
C417 H444 0.980 1_556 S
C417 H445 0.983 . S
C418 H394 0.948 . S
C418 C419 1.391 1_556 S
C418 C423 1.391 . S
C419 C418 1.391 1_554 S
C419 C420 1.391 . S
C420 H397 0.947 . S
C420 C419 1.391 . S
C420 C421 1.392 . S
C421 H398 0.948 . S
C421 C420 1.392 . S
C421 C422 1.419 . S
C422 C421 1.419 . S
C422 C423 1.391 1_554 S
C422 C426 1.397 . S
C423 C418 1.391 . S
C423 C422 1.391 1_556 S
C423 C424 1.399 . S
C424 C423 1.399 . S
C424 C425 1.396 . S
C424 C427 1.453 . S
C424 C428 1.684 . S
C425 C415 1.723 . S
C425 C424 1.396 . S
C425 C426 1.394 1_556 S
C426 C396 1.723 . S
C426 C422 1.397 . S
C426 C425 1.394 1_554 S
C427 H399 0.982 . S
C427 H403 0.979 . S
C427 H404 0.977 . S
C427 C424 1.453 . S
C428 H400 0.979 . S
C428 H401 0.980 . S
C428 H402 0.983 . S
C428 C424 1.684 . S
H429 C447 0.948 . S
H430 C388 0.948 . S
H431 C406 0.979 . S
H432 C406 0.980 . S
H433 C406 0.983 . S
H434 C405 0.982 . S
H435 C405 0.979 . S
H436 C405 0.977 . S
H437 C407 0.948 . S
H438 C409 0.947 . S
H439 C410 0.948 . S
H440 C416 0.982 . S
H441 C416 0.979 . S
H442 C416 0.977 1_554 S
H443 C417 0.979 . S
H444 C417 0.980 1_554 S
H445 C417 0.983 . S
H446 C390 0.947 . S
C447 C390 1.392 . S
C447 C391 1.419 . S
C447 H429 0.948 . S
C448 C449 1.391 . S
C448 C452 1.391 . S
C448 H490 0.948 . S
C449 C448 1.391 . S
C449 C450 1.391 . S
C450 C449 1.391 . S
C450 H506 0.947 . S
C450 C507 1.392 . S
C451 C452 1.391 . S
C451 C455 1.397 . S
C451 C507 1.419 . S
C452 C448 1.391 . S
C452 C451 1.391 . S
C452 C453 1.399 . S
C453 C452 1.399 . S
C453 C456 1.396 . S
C453 C465 1.453 1_545 S
C453 C466 1.684 1_545 S
H454 C478 0.948 . S
C455 C451 1.397 . S
C455 C456 1.394 . S
C455 C474 1.723 . S
C456 C453 1.396 . S
C456 C455 1.394 . S
C456 C486 1.723 1_545 S
H457 C480 0.947 . S
H458 C481 0.948 . S
H459 C487 0.982 . S
H460 C488 0.979 . S
H461 C488 0.980 . S
H462 C488 0.983 . S
H463 C487 0.979 . S
H464 C487 0.977 . S
C465 C453 1.453 1_565 S
C465 H494 0.982 1_565 S
C465 H495 0.979 . S
C465 H496 0.977 . S
C466 C453 1.684 1_565 S
C466 H491 0.979 . S
C466 H492 0.980 . S
C466 H493 0.983 . S
C467 C468 1.391 . S
C467 C472 1.391 . S
C467 H497 0.948 . S
C468 C467 1.391 . S
C468 C469 1.391 . S
C469 C468 1.391 . S
C469 C470 1.392 . S
C469 H498 0.947 . S
C470 C469 1.392 . S
C470 C471 1.419 . S
C470 H499 0.948 . S
C471 C470 1.419 . S
C471 C472 1.391 . S
C471 C475 1.397 . S
C472 C467 1.391 . S
C472 C471 1.391 . S
C472 C473 1.399 . S
C473 C472 1.399 . S
C473 C474 1.396 . S
C473 C476 1.453 . S
C473 C477 1.684 . S
C474 C455 1.723 . S
C474 C473 1.396 . S
C474 C475 1.394 . S
C475 C471 1.397 . S
C475 C474 1.394 . S
C475 C485 1.723 1_545 S
C476 C473 1.453 . S
C476 H500 0.982 . S
C476 H501 0.979 . S
C476 H502 0.977 . S
C477 C473 1.684 . S
C477 H503 0.979 . S
C477 H504 0.980 . S
C477 H505 0.983 . S
C478 H454 0.948 . S
C478 C479 1.391 . S
C478 C483 1.391 . S
C479 C478 1.391 . S
C479 C480 1.391 . S
C480 H457 0.947 . S
C480 C479 1.391 . S
C480 C481 1.392 . S
C481 H458 0.948 . S
C481 C480 1.392 . S
C481 C482 1.419 . S
C482 C481 1.419 . S
C482 C483 1.391 . S
C482 C486 1.397 . S
C483 C478 1.391 . S
C483 C482 1.391 . S
C483 C484 1.399 . S
C484 C483 1.399 . S
C484 C485 1.396 . S
C484 C487 1.453 . S
C484 C488 1.684 . S
C485 C475 1.723 1_565 S
C485 C484 1.396 . S
C485 C486 1.394 . S
C486 C456 1.723 1_565 S
C486 C482 1.397 . S
C486 C485 1.394 . S
C487 H459 0.982 . S
C487 H463 0.979 . S
C487 H464 0.977 . S
C487 C484 1.453 . S
C488 H460 0.979 . S
C488 H461 0.980 . S
C488 H462 0.983 . S
C488 C484 1.684 . S
H489 C507 0.948 . S
H490 C448 0.948 . S
H491 C466 0.979 . S
H492 C466 0.980 . S
H493 C466 0.983 . S
H494 C465 0.982 1_545 S
H495 C465 0.979 . S
H496 C465 0.977 . S
H497 C467 0.948 . S
H498 C469 0.947 . S
H499 C470 0.948 . S
H500 C476 0.982 . S
H501 C476 0.979 . S
H502 C476 0.977 . S
H503 C477 0.979 . S
H504 C477 0.980 . S
H505 C477 0.983 . S
H506 C450 0.947 . S
C507 C450 1.392 . S
C507 C451 1.419 . S
C507 H489 0.948 . S
C508 C509 1.391 1_554 S
C508 C512 1.391 . S
C508 H550 0.948 . S
C509 C508 1.391 1_556 S
C509 C510 1.391 . S
C510 C509 1.391 . S
C510 H566 0.947 . S
C510 C567 1.392 . S
C511 C512 1.391 1_556 S
C511 C515 1.397 . S
C511 C567 1.419 . S
C512 C508 1.391 . S
C512 C511 1.391 1_554 S
C512 C513 1.399 . S
C513 C512 1.399 . S
C513 C516 1.396 . S
C513 C525 1.453 . S
C513 C526 1.684 . S
H514 C538 0.948 . S
C515 C511 1.397 . S
C515 C516 1.394 1_556 S
C515 C534 1.723 . S
C516 C513 1.396 . S
C516 C515 1.394 1_554 S
C516 C546 1.723 . S
H517 C540 0.947 . S
H518 C541 0.948 . S
H519 C547 0.982 . S
H520 C548 0.979 . S
H521 C548 0.980 1_556 S
H522 C548 0.983 . S
H523 C547 0.979 . S
H524 C547 0.977 1_556 S
C525 C513 1.453 . S
C525 H554 0.982 . S
C525 H555 0.979 . S
C525 H556 0.977 . S
C526 C513 1.684 . S
C526 H551 0.979 . S
C526 H552 0.980 . S
C526 H553 0.983 . S
C527 C528 1.391 . S
C527 C532 1.391 . S
C527 H557 0.948 . S
C528 C527 1.391 . S
C528 C529 1.391 . S
C529 C528 1.391 . S
C529 C530 1.392 . S
C529 H558 0.947 . S
C530 C529 1.392 . S
C530 C531 1.419 . S
C530 H559 0.948 . S
C531 C530 1.419 . S
C531 C532 1.391 . S
C531 C535 1.397 . S
C532 C527 1.391 . S
C532 C531 1.391 . S
C532 C533 1.399 . S
C533 C532 1.399 . S
C533 C534 1.396 . S
C533 C536 1.453 . S
C533 C537 1.684 . S
C534 C515 1.723 . S
C534 C533 1.396 . S
C534 C535 1.394 . S
C535 C531 1.397 . S
C535 C534 1.394 . S
C535 C545 1.723 1_556 S
C536 C533 1.453 . S
C536 H560 0.982 . S
C536 H561 0.979 . S
C536 H562 0.977 . S
C537 C533 1.684 . S
C537 H563 0.979 . S
C537 H564 0.980 . S
C537 H565 0.983 . S
C538 H514 0.948 . S
C538 C539 1.391 . S
C538 C543 1.391 . S
C539 C538 1.391 . S
C539 C540 1.391 . S
C540 H517 0.947 . S
C540 C539 1.391 . S
C540 C541 1.392 . S
C541 H518 0.948 . S
C541 C540 1.392 . S
C541 C542 1.419 . S
C542 C541 1.419 . S
C542 C543 1.391 . S
C542 C546 1.397 . S
C543 C538 1.391 . S
C543 C542 1.391 . S
C543 C544 1.399 . S
C544 C543 1.399 . S
C544 C545 1.396 . S
C544 C547 1.453 . S
C544 C548 1.684 . S
C545 C535 1.723 1_554 S
C545 C544 1.396 . S
C545 C546 1.394 . S
C546 C516 1.723 . S
C546 C542 1.397 . S
C546 C545 1.394 . S
C547 H519 0.982 . S
C547 H523 0.979 . S
C547 H524 0.977 1_554 S
C547 C544 1.453 . S
C548 H520 0.979 . S
C548 H521 0.980 1_554 S
C548 H522 0.983 . S
C548 C544 1.684 . S
H549 C567 0.948 . S
H550 C508 0.948 . S
H551 C526 0.979 . S
H552 C526 0.980 . S
H553 C526 0.983 . S
H554 C525 0.982 . S
H555 C525 0.979 . S
H556 C525 0.977 . S
H557 C527 0.948 . S
H558 C529 0.947 . S
H559 C530 0.948 . S
H560 C536 0.982 . S
H561 C536 0.979 . S
H562 C536 0.977 . S
H563 C537 0.979 . S
H564 C537 0.980 . S
H565 C537 0.983 . S
H566 C510 0.947 . S
C567 C510 1.392 . S
C567 C511 1.419 . S
C567 H549 0.948 . S
H568 C574 0.930 . S
H569 C578 0.930 . S
H570 C583 0.929 . S
H571 C581 0.929 . S
H572 C576 0.929 . S
H573 C582 0.929 . S
C574 H568 0.930 . S
C574 C575 1.367 . S
C574 C582 1.378 . S
C575 C574 1.367 . S
C575 C583 1.433 . S
C576 H572 0.929 . S
C576 C578 1.378 . S
C576 C580 1.350 . S
C577 C580 1.463 . S
C577 C582 1.350 . S
C577 N585 1.427 . S
C578 H569 0.930 . S
C578 C576 1.378 . S
C578 C579 1.367 . S
C579 C578 1.367 . S
C579 C581 1.433 . S
C580 C576 1.350 . S
C580 C577 1.463 . S
C580 N584 1.427 . S
C581 H571 0.929 . S
C581 C579 1.433 . S
C581 N584 1.384 . S
C582 H573 0.929 . S
C582 C574 1.378 . S
C582 C577 1.350 . S
C583 H570 0.929 . S
C583 C575 1.433 . S
C583 N585 1.384 . S
N584 C580 1.427 . S
N584 C581 1.384 . S
N585 C577 1.427 . S
N585 C583 1.384 . S
H586 C592 0.930 . S
H587 C596 0.930 . S
H588 C601 0.929 . S
H589 C599 0.929 . S
H590 C594 0.929 . S
H591 C600 0.929 . S
C592 H586 0.930 . S
C592 C593 1.367 . S
C592 C600 1.378 . S
C593 C592 1.367 . S
C593 C601 1.433 . S
C594 H590 0.929 . S
C594 C596 1.378 . S
C594 C598 1.350 . S
C595 C598 1.463 . S
C595 C600 1.350 . S
C595 N603 1.427 . S
C596 H587 0.930 . S
C596 C594 1.378 . S
C596 C597 1.367 . S
C597 C596 1.367 . S
C597 C599 1.433 . S
C598 C594 1.350 . S
C598 C595 1.463 . S
C598 N602 1.427 . S
C599 H589 0.929 . S
C599 C597 1.433 . S
C599 N602 1.384 . S
C600 H591 0.929 . S
C600 C592 1.378 . S
C600 C595 1.350 . S
C601 H588 0.929 . S
C601 C593 1.433 . S
C601 N603 1.384 . S
N602 C598 1.427 . S
N602 C599 1.384 . S
N603 C595 1.427 . S
N603 C601 1.384 . S
H604 C610 0.930 . S
H605 C614 0.930 . S
H606 C619 0.929 . S
H607 C617 0.929 . S
H608 C612 0.929 . S
H609 C618 0.929 . S
C610 H604 0.930 . S
C610 C611 1.367 . S
C610 C618 1.378 . S
C611 C610 1.367 . S
C611 C619 1.433 . S
C612 H608 0.929 . S
C612 C614 1.378 . S
C612 C616 1.350 . S
C613 C616 1.463 . S
C613 C618 1.350 . S
C613 N621 1.427 . S
C614 H605 0.930 . S
C614 C612 1.378 . S
C614 C615 1.367 . S
C615 C614 1.367 . S
C615 C617 1.433 . S
C616 C612 1.350 . S
C616 C613 1.463 . S
C616 N620 1.427 . S
C617 H607 0.929 . S
C617 C615 1.433 . S
C617 N620 1.384 . S
C618 H609 0.929 . S
C618 C610 1.378 . S
C618 C613 1.350 . S
C619 H606 0.929 . S
C619 C611 1.433 . S
C619 N621 1.384 . S
N620 C616 1.427 . S
N620 C617 1.384 . S
N621 C613 1.427 . S
N621 C619 1.384 . S
H622 C628 0.930 . S
H623 C632 0.930 . S
H624 C637 0.929 . S
H625 C635 0.929 . S
H626 C630 0.929 . S
H627 C636 0.929 . S
C628 H622 0.930 . S
C628 C629 1.367 . S
C628 C636 1.378 . S
C629 C628 1.367 . S
C629 C637 1.433 . S
C630 H626 0.929 . S
C630 C632 1.378 . S
C630 C634 1.350 . S
C631 C634 1.463 . S
C631 C636 1.350 . S
C631 N639 1.427 . S
C632 H623 0.930 . S
C632 C630 1.378 . S
C632 C633 1.367 . S
C633 C632 1.367 . S
C633 C635 1.433 . S
C634 C630 1.350 . S
C634 C631 1.463 . S
C634 N638 1.427 . S
C635 H625 0.929 . S
C635 C633 1.433 . S
C635 N638 1.384 . S
C636 H627 0.929 . S
C636 C628 1.378 . S
C636 C631 1.350 . S
C637 H624 0.929 . S
C637 C629 1.433 . S
C637 N639 1.384 . S
N638 C634 1.427 . S
N638 C635 1.384 . S
N639 C631 1.427 . S
N639 C637 1.384 . S
H640 C646 0.930 . S
H641 C650 0.930 . S
H642 C655 0.929 . S
H643 C653 0.929 . S
H644 C648 0.929 . S
H645 C654 0.929 . S
C646 H640 0.930 . S
C646 C647 1.367 . S
C646 C654 1.378 . S
C647 C646 1.367 . S
C647 C655 1.433 . S
C648 H644 0.929 . S
C648 C650 1.378 . S
C648 C652 1.350 . S
C649 C652 1.463 . S
C649 C654 1.350 . S
C649 N657 1.427 . S
C650 H641 0.930 . S
C650 C648 1.378 . S
C650 C651 1.367 . S
C651 C650 1.367 . S
C651 C653 1.433 . S
C652 C648 1.350 . S
C652 C649 1.463 . S
C652 N656 1.427 . S
C653 H643 0.929 . S
C653 C651 1.433 . S
C653 N656 1.384 . S
C654 H645 0.929 . S
C654 C646 1.378 . S
C654 C649 1.350 . S
C655 H642 0.929 . S
C655 C647 1.433 . S
C655 N657 1.384 . S
N656 C652 1.427 . S
N656 C653 1.384 . S
N657 C649 1.427 . S
N657 C655 1.384 . S
H658 C664 0.930 . S
H659 C668 0.930 . S
H660 C673 0.929 . S
H661 C671 0.929 . S
H662 C666 0.929 . S
H663 C672 0.929 . S
C664 H658 0.930 . S
C664 C665 1.367 . S
C664 C672 1.378 . S
C665 C664 1.367 . S
C665 C673 1.433 . S
C666 H662 0.929 . S
C666 C668 1.378 . S
C666 C670 1.350 . S
C667 C670 1.463 . S
C667 C672 1.350 . S
C667 N675 1.427 . S
C668 H659 0.930 . S
C668 C666 1.378 . S
C668 C669 1.367 . S
C669 C668 1.367 . S
C669 C671 1.433 . S
C670 C666 1.350 . S
C670 C667 1.463 . S
C670 N674 1.427 . S
C671 H661 0.929 . S
C671 C669 1.433 . S
C671 N674 1.384 . S
C672 H663 0.929 . S
C672 C664 1.378 . S
C672 C667 1.350 . S
C673 H660 0.929 . S
C673 C665 1.433 . S
C673 N675 1.384 . S
N674 C670 1.427 . S
N674 C671 1.384 . S
N675 C667 1.427 . S
N675 C673 1.384 . S
H676 C682 0.930 . S
H677 C686 0.930 . S
H678 C691 0.929 . S
H679 C689 0.929 . S
H680 C684 0.929 . S
H681 C690 0.929 . S
C682 H676 0.930 . S
C682 C683 1.367 . S
C682 C690 1.378 . S
C683 C682 1.367 . S
C683 C691 1.433 . S
C684 H680 0.929 . S
C684 C686 1.378 . S
C684 C688 1.350 . S
C685 C688 1.463 . S
C685 C690 1.350 . S
C685 N693 1.427 . S
C686 H677 0.930 . S
C686 C684 1.378 . S
C686 C687 1.367 . S
C687 C686 1.367 . S
C687 C689 1.433 . S
C688 C684 1.350 . S
C688 C685 1.463 . S
C688 N692 1.427 . S
C689 H679 0.929 . S
C689 C687 1.433 . S
C689 N692 1.384 . S
C690 H681 0.929 . S
C690 C682 1.378 . S
C690 C685 1.350 . S
C691 H678 0.929 . S
C691 C683 1.433 . S
C691 N693 1.384 . S
N692 C688 1.427 . S
N692 C689 1.384 . S
N693 C685 1.427 . S
N693 C691 1.384 . S
H694 C700 0.930 . S
H695 C704 0.930 . S
H696 C709 0.929 . S
H697 C707 0.929 . S
H698 C702 0.929 . S
H699 C708 0.929 . S
C700 H694 0.930 . S
C700 C701 1.367 . S
C700 C708 1.378 . S
C701 C700 1.367 . S
C701 C709 1.433 . S
C702 H698 0.929 . S
C702 C704 1.378 . S
C702 C706 1.350 . S
C703 C706 1.463 . S
C703 C708 1.350 . S
C703 N711 1.427 . S
C704 H695 0.930 . S
C704 C702 1.378 . S
C704 C705 1.367 . S
C705 C704 1.367 . S
C705 C707 1.433 . S
C706 C702 1.350 . S
C706 C703 1.463 . S
C706 N710 1.427 . S
C707 H697 0.929 . S
C707 C705 1.433 . S
C707 N710 1.384 . S
C708 H699 0.929 . S
C708 C700 1.378 . S
C708 C703 1.350 . S
C709 H696 0.929 . S
C709 C701 1.433 . S
C709 N711 1.384 . S
N710 C706 1.427 . S
N710 C707 1.384 . S
N711 C703 1.427 . S
N711 C709 1.384 . S
H712 C718 0.930 . S
H713 C722 0.930 . S
H714 C727 0.929 . S
H715 C725 0.929 . S
H716 C720 0.929 . S
H717 C726 0.929 . S
C718 H712 0.930 . S
C718 C719 1.367 . S
C718 C726 1.378 . S
C719 C718 1.367 . S
C719 C727 1.433 . S
C720 H716 0.929 . S
C720 C722 1.378 . S
C720 C724 1.350 . S
C721 C724 1.463 . S
C721 C726 1.350 . S
C721 N729 1.427 . S
C722 H713 0.930 . S
C722 C720 1.378 . S
C722 C723 1.367 . S
C723 C722 1.367 . S
C723 C725 1.433 . S
C724 C720 1.350 . S
C724 C721 1.463 . S
C724 N728 1.427 . S
C725 H715 0.929 . S
C725 C723 1.433 . S
C725 N728 1.384 . S
C726 H717 0.929 . S
C726 C718 1.378 . S
C726 C721 1.350 . S
C727 H714 0.929 . S
C727 C719 1.433 . S
C727 N729 1.384 . S
N728 C724 1.427 . S
N728 C725 1.384 . S
N729 C721 1.427 . S
N729 C727 1.384 . S
H730 C736 0.930 . S
H731 C740 0.930 . S
H732 C745 0.929 . S
H733 C743 0.929 . S
H734 C738 0.929 . S
H735 C744 0.929 . S
C736 H730 0.930 . S
C736 C737 1.367 . S
C736 C744 1.378 . S
C737 C736 1.367 . S
C737 C745 1.433 . S
C738 H734 0.929 . S
C738 C740 1.378 . S
C738 C742 1.350 . S
C739 C742 1.463 . S
C739 C744 1.350 . S
C739 N747 1.427 . S
C740 H731 0.930 . S
C740 C738 1.378 . S
C740 C741 1.367 . S
C741 C740 1.367 . S
C741 C743 1.433 . S
C742 C738 1.350 . S
C742 C739 1.463 . S
C742 N746 1.427 . S
C743 H733 0.929 . S
C743 C741 1.433 . S
C743 N746 1.384 . S
C744 H735 0.929 . S
C744 C736 1.378 . S
C744 C739 1.350 . S
C745 H732 0.929 . S
C745 C737 1.433 . S
C745 N747 1.384 . S
N746 C742 1.427 . S
N746 C743 1.384 . S
N747 C739 1.427 . S
N747 C745 1.384 . S
H748 C754 0.930 . S
H749 C758 0.930 . S
H750 C763 0.929 . S
H751 C761 0.929 . S
H752 C756 0.929 . S
H753 C762 0.929 . S
C754 H748 0.930 . S
C754 C755 1.367 . S
C754 C762 1.378 . S
C755 C754 1.367 . S
C755 C763 1.433 . S
C756 H752 0.929 . S
C756 C758 1.378 . S
C756 C760 1.350 . S
C757 C760 1.463 . S
C757 C762 1.350 . S
C757 N765 1.427 . S
C758 H749 0.930 . S
C758 C756 1.378 . S
C758 C759 1.367 . S
C759 C758 1.367 . S
C759 C761 1.433 . S
C760 C756 1.350 . S
C760 C757 1.463 . S
C760 N764 1.427 . S
C761 H751 0.929 . S
C761 C759 1.433 . S
C761 N764 1.384 . S
C762 H753 0.929 . S
C762 C754 1.378 . S
C762 C757 1.350 . S
C763 H750 0.929 . S
C763 C755 1.433 . S
C763 N765 1.384 . S
N764 C760 1.427 . S
N764 C761 1.384 . S
N765 C757 1.427 . S
N765 C763 1.384 . S
H766 C772 0.930 . S
H767 C776 0.930 . S
H768 C781 0.929 . S
H769 C779 0.929 . S
H770 C774 0.929 . S
H771 C780 0.929 . S
C772 H766 0.930 . S
C772 C773 1.367 . S
C772 C780 1.378 . S
C773 C772 1.367 . S
C773 C781 1.433 . S
C774 H770 0.929 . S
C774 C776 1.378 . S
C774 C778 1.350 . S
C775 C778 1.463 . S
C775 C780 1.350 . S
C775 N783 1.427 . S
C776 H767 0.930 . S
C776 C774 1.378 . S
C776 C777 1.367 . S
C777 C776 1.367 . S
C777 C779 1.433 . S
C778 C774 1.350 . S
C778 C775 1.463 . S
C778 N782 1.427 . S
C779 H769 0.929 . S
C779 C777 1.433 . S
C779 N782 1.384 . S
C780 H771 0.929 . S
C780 C772 1.378 . S
C780 C775 1.350 . S
C781 H768 0.929 . S
C781 C773 1.433 . S
C781 N783 1.384 . S
N782 C778 1.427 . S
N782 C779 1.384 . S
N783 C775 1.427 . S
N783 C781 1.384 . S
H784 C790 0.930 . S
H785 C794 0.930 . S
H786 C799 0.929 . S
H787 C797 0.929 . S
H788 C792 0.929 . S
H789 C798 0.929 . S
C790 H784 0.930 . S
C790 C791 1.367 . S
C790 C798 1.378 . S
C791 C790 1.367 . S
C791 C799 1.433 . S
C792 H788 0.929 . S
C792 C794 1.378 . S
C792 C796 1.350 . S
C793 C796 1.463 . S
C793 C798 1.350 . S
C793 N801 1.427 . S
C794 H785 0.930 . S
C794 C792 1.378 . S
C794 C795 1.367 . S
C795 C794 1.367 . S
C795 C797 1.433 . S
C796 C792 1.350 . S
C796 C793 1.463 . S
C796 N800 1.427 . S
C797 H787 0.929 . S
C797 C795 1.433 . S
C797 N800 1.384 . S
C798 H789 0.929 . S
C798 C790 1.378 . S
C798 C793 1.350 . S
C799 H786 0.929 . S
C799 C791 1.433 . S
C799 N801 1.384 . S
N800 C796 1.427 . S
N800 C797 1.384 . S
N801 C793 1.427 . S
N801 C799 1.384 . S
H802 C808 0.930 . S
H803 C812 0.930 . S
H804 C817 0.929 . S
H805 C815 0.929 . S
H806 C810 0.929 . S
H807 C816 0.929 . S
C808 H802 0.930 . S
C808 C809 1.367 . S
C808 C816 1.378 . S
C809 C808 1.367 . S
C809 C817 1.433 . S
C810 H806 0.929 . S
C810 C812 1.378 . S
C810 C814 1.350 . S
C811 C814 1.463 . S
C811 C816 1.350 . S
C811 N819 1.427 . S
C812 H803 0.930 . S
C812 C810 1.378 . S
C812 C813 1.367 . S
C813 C812 1.367 . S
C813 C815 1.433 . S
C814 C810 1.350 . S
C814 C811 1.463 . S
C814 N818 1.427 . S
C815 H805 0.929 . S
C815 C813 1.433 . S
C815 N818 1.384 . S
C816 H807 0.929 . S
C816 C808 1.378 . S
C816 C811 1.350 . S
C817 H804 0.929 . S
C817 C809 1.433 . S
C817 N819 1.384 . S
N818 C814 1.427 . S
N818 C815 1.384 . S
N819 C811 1.427 . S
N819 C817 1.384 . S
H820 C826 0.930 . S
H821 C830 0.930 . S
H822 C835 0.929 . S
H823 C833 0.929 . S
H824 C828 0.929 . S
H825 C834 0.929 . S
C826 H820 0.930 . S
C826 C827 1.367 . S
C826 C834 1.378 . S
C827 C826 1.367 . S
C827 C835 1.433 . S
C828 H824 0.929 . S
C828 C830 1.378 . S
C828 C832 1.350 . S
C829 C832 1.463 . S
C829 C834 1.350 . S
C829 N837 1.427 . S
C830 H821 0.930 . S
C830 C828 1.378 . S
C830 C831 1.367 . S
C831 C830 1.367 . S
C831 C833 1.433 . S
C832 C828 1.350 . S
C832 C829 1.463 . S
C832 N836 1.427 . S
C833 H823 0.929 . S
C833 C831 1.433 . S
C833 N836 1.384 . S
C834 H825 0.929 . S
C834 C826 1.378 . S
C834 C829 1.350 . S
C835 H822 0.929 . S
C835 C827 1.433 . S
C835 N837 1.384 . S
N836 C832 1.427 . S
N836 C833 1.384 . S
N837 C829 1.427 . S
N837 C835 1.384 . S
H838 C844 0.930 . S
H839 C848 0.930 . S
H840 C853 0.929 . S
H841 C851 0.929 . S
H842 C846 0.929 . S
H843 C852 0.929 . S
C844 H838 0.930 . S
C844 C845 1.367 . S
C844 C852 1.378 . S
C845 C844 1.367 . S
C845 C853 1.433 . S
C846 H842 0.929 . S
C846 C848 1.378 . S
C846 C850 1.350 . S
C847 C850 1.463 . S
C847 C852 1.350 . S
C847 N855 1.427 . S
C848 H839 0.930 . S
C848 C846 1.378 . S
C848 C849 1.367 . S
C849 C848 1.367 . S
C849 C851 1.433 . S
C850 C846 1.350 . S
C850 C847 1.463 . S
C850 N854 1.427 . S
C851 H841 0.929 . S
C851 C849 1.433 . S
C851 N854 1.384 . S
C852 H843 0.929 . S
C852 C844 1.378 . S
C852 C847 1.350 . S
C853 H840 0.929 . S
C853 C845 1.433 . S
C853 N855 1.384 . S
N854 C850 1.427 . S
N854 C851 1.384 . S
N855 C847 1.427 . S
N855 C853 1.384 . S
H856 C862 0.930 . S
H857 C866 0.930 . S
H858 C871 0.929 . S
H859 C869 0.929 . S
H860 C864 0.929 . S
H861 C870 0.929 . S
C862 H856 0.930 . S
C862 C863 1.370 . S
C862 C870 1.378 . S
C863 C862 1.370 . S
C863 C871 1.430 1_556 S
C864 H860 0.929 . S
C864 C866 1.378 . S
C864 C868 1.350 . S
C865 C868 1.462 1_556 S
C865 C870 1.363 . S
C865 N873 1.414 1_556 S
C866 H857 0.930 . S
C866 C864 1.378 . S
C866 C867 1.383 . S
C867 C866 1.383 . S
C867 C869 1.417 1_554 S
C868 C864 1.350 . S
C868 C865 1.462 1_554 S
C868 N872 1.427 1_554 S
C869 H859 0.929 . S
C869 C867 1.417 1_556 S
C869 N872 1.384 . S
C870 H861 0.929 . S
C870 C862 1.378 . S
C870 C865 1.363 . S
C871 H858 0.929 . S
C871 C863 1.430 1_554 S
C871 N873 1.384 . S
N872 C868 1.427 1_556 S
N872 C869 1.384 . S
N873 C865 1.414 1_554 S
N873 C871 1.384 . S
H874 C880 0.930 . S
H875 C884 0.930 . S
H876 C889 0.929 . S
H877 C887 0.929 . S
H878 C882 0.929 . S
H879 C888 0.929 . S
C880 H874 0.930 . S
C880 C881 1.367 . S
C880 C888 1.378 . S
C881 C880 1.367 . S
C881 C889 1.433 . S
C882 H878 0.929 . S
C882 C884 1.378 . S
C882 C886 1.350 . S
C883 C886 1.463 . S
C883 C888 1.350 . S
C883 N891 1.427 . S
C884 H875 0.930 . S
C884 C882 1.378 . S
C884 C885 1.367 . S
C885 C884 1.367 . S
C885 C887 1.433 . S
C886 C882 1.350 . S
C886 C883 1.463 . S
C886 N890 1.427 . S
C887 H877 0.929 . S
C887 C885 1.433 . S
C887 N890 1.384 . S
C888 H879 0.929 . S
C888 C880 1.378 . S
C888 C883 1.350 . S
C889 H876 0.929 . S
C889 C881 1.433 . S
C889 N891 1.384 . S
N890 C886 1.427 . S
N890 C887 1.384 . S
N891 C883 1.427 . S
N891 C889 1.384 . S
H892 C898 0.930 . S
H893 C902 0.930 . S
H894 C907 0.929 . S
H895 C905 0.929 . S
H896 C900 0.929 . S
H897 C906 0.929 . S
C898 H892 0.930 . S
C898 C899 1.376 . S
C898 C906 1.378 . S
C899 C898 1.376 . S
C899 C907 1.424 1_556 S
C900 H896 0.929 . S
C900 C902 1.378 . S
C900 C904 1.350 . S
C901 C904 1.463 1_556 S
C901 C906 1.350 . S
C901 N909 1.427 1_556 S
C902 H893 0.930 . S
C902 C900 1.378 . S
C902 C903 1.367 . S
C903 C902 1.367 . S
C903 C905 1.433 1_554 S
C904 C900 1.350 . S
C904 C901 1.463 1_554 S
C904 N908 1.427 1_554 S
C905 H895 0.929 . S
C905 C903 1.433 1_556 S
C905 N908 1.384 . S
C906 H897 0.929 . S
C906 C898 1.378 . S
C906 C901 1.350 . S
C907 H894 0.929 . S
C907 C899 1.424 1_554 S
C907 N909 1.384 . S
N908 C904 1.427 1_556 S
N908 C905 1.384 . S
N909 C901 1.427 1_554 S
N909 C907 1.384 . S
H910 C916 0.930 . S
H911 C920 0.930 . S
H912 C925 0.929 . S
H913 C923 0.929 . S
H914 C918 0.929 . S
H915 C924 0.929 . S
C916 H910 0.930 . S
C916 C917 1.367 . S
C916 C924 1.378 . S
C917 C916 1.367 . S
C917 C925 1.433 . S
C918 H914 0.929 . S
C918 C920 1.378 . S
C918 C922 1.350 . S
C919 C922 1.463 . S
C919 C924 1.350 . S
C919 N927 1.427 . S
C920 H911 0.930 . S
C920 C918 1.378 . S
C920 C921 1.367 . S
C921 C920 1.367 . S
C921 C923 1.433 . S
C922 C918 1.350 . S
C922 C919 1.463 . S
C922 N926 1.427 . S
C923 H913 0.929 . S
C923 C921 1.433 . S
C923 N926 1.384 . S
C924 H915 0.929 . S
C924 C916 1.378 . S
C924 C919 1.350 . S
C925 H912 0.929 . S
C925 C917 1.433 . S
C925 N927 1.384 . S
N926 C922 1.427 . S
N926 C923 1.384 . S
N927 C919 1.427 . S
N927 C925 1.384 . S
H928 C934 0.930 . S
H929 C938 0.930 . S
H930 C943 0.929 . S
H931 C941 0.929 . S
H932 C936 0.929 . S
H933 C942 0.929 . S
C934 H928 0.930 . S
C934 C935 1.367 . S
C934 C942 1.378 . S
C935 C934 1.367 . S
C935 C943 1.433 . S
C936 H932 0.929 . S
C936 C938 1.378 . S
C936 C940 1.350 . S
C937 C940 1.463 . S
C937 C942 1.350 . S
C937 N945 1.427 . S
C938 H929 0.930 . S
C938 C936 1.378 . S
C938 C939 1.367 . S
C939 C938 1.367 . S
C939 C941 1.433 . S
C940 C936 1.350 . S
C940 C937 1.463 . S
C940 N944 1.427 . S
C941 H931 0.929 . S
C941 C939 1.433 . S
C941 N944 1.384 . S
C942 H933 0.929 . S
C942 C934 1.378 . S
C942 C937 1.350 . S
C943 H930 0.929 . S
C943 C935 1.433 . S
C943 N945 1.384 . S
N944 C940 1.427 . S
N944 C941 1.384 . S
N945 C937 1.427 . S
N945 C943 1.384 . S
H946 C952 0.930 . S
H947 C956 0.930 . S
H948 C961 0.929 . S
H949 C959 0.929 . S
H950 C954 0.929 . S
H951 C960 0.929 . S
C952 H946 0.930 . S
C952 C953 1.367 . S
C952 C960 1.378 . S
C953 C952 1.367 . S
C953 C961 1.433 1_556 S
C954 H950 0.929 . S
C954 C956 1.378 . S
C954 C958 1.350 . S
C955 C958 1.463 1_556 S
C955 C960 1.350 . S
C955 N963 1.427 1_556 S
C956 H947 0.930 . S
C956 C954 1.378 . S
C956 C957 1.388 . S
C957 C956 1.388 . S
C957 C959 1.412 1_554 S
C958 C954 1.350 . S
C958 C955 1.463 1_554 S
C958 N962 1.427 1_554 S
C959 H949 0.929 . S
C959 C957 1.412 1_556 S
C959 N962 1.384 . S
C960 H951 0.929 . S
C960 C952 1.378 . S
C960 C955 1.350 . S
C961 H948 0.929 . S
C961 C953 1.433 1_554 S
C961 N963 1.384 . S
N962 C958 1.427 1_556 S
N962 C959 1.384 . S
N963 C955 1.427 1_554 S
N963 C961 1.384 . S
H964 C970 0.930 . S
H965 C974 0.930 . S
H966 C979 0.929 . S
H967 C977 0.929 . S
H968 C972 0.929 . S
H969 C978 0.929 . S
C970 H964 0.930 . S
C970 C971 1.367 . S
C970 C978 1.378 . S
C971 C970 1.367 . S
C971 C979 1.433 . S
C972 H968 0.929 . S
C972 C974 1.378 . S
C972 C976 1.350 . S
C973 C976 1.463 . S
C973 C978 1.350 . S
C973 N981 1.427 . S
C974 H965 0.930 . S
C974 C972 1.378 . S
C974 C975 1.367 . S
C975 C974 1.367 . S
C975 C977 1.433 . S
C976 C972 1.350 . S
C976 C973 1.463 . S
C976 N980 1.427 . S
C977 H967 0.929 . S
C977 C975 1.433 . S
C977 N980 1.384 . S
C978 H969 0.929 . S
C978 C970 1.378 . S
C978 C973 1.350 . S
C979 H966 0.929 . S
C979 C971 1.433 . S
C979 N981 1.384 . S
N980 C976 1.427 . S
N980 C977 1.384 . S
N981 C973 1.427 . S
N981 C979 1.384 . S
H982 C988 0.930 . S
H983 C992 0.930 . S
H984 C997 0.929 . S
H985 C995 0.929 . S
H986 C990 0.929 . S
H987 C996 0.929 . S
C988 H982 0.930 . S
C988 C989 1.377 . S
C988 C996 1.378 . S
C989 C988 1.377 . S
C989 C997 1.423 1_554 S
C990 H986 0.929 . S
C990 C992 1.378 . S
C990 C994 1.350 . S
C991 C994 1.463 1_554 S
C991 C996 1.350 . S
C991 N999 1.427 1_554 S
C992 H983 0.930 . S
C992 C990 1.378 . S
C992 C993 1.383 . S
C993 C992 1.383 . S
C993 C995 1.417 1_556 S
C994 C990 1.350 . S
C994 C991 1.463 1_556 S
C994 N998 1.427 1_556 S
C995 H985 0.929 . S
C995 C993 1.417 1_554 S
C995 N998 1.384 . S
C996 H987 0.929 . S
C996 C988 1.378 . S
C996 C991 1.350 . S
C997 H984 0.929 . S
C997 C989 1.423 1_556 S
C997 N999 1.384 . S
N998 C994 1.427 1_554 S
N998 C995 1.384 . S
N999 C991 1.427 1_556 S
N999 C997 1.384 . S
C575 C21 1.622 . S
C579 C269 1.521 . S
C593 C40 1.741 . S
C597 C89 1.678 . S
C615 C168 1.483 . S
C611 C54 1.592 . S
C629 C73 1.780 . S
C633 C228 1.684 . S
C651 C389 1.495 . S
C647 C74 1.595 . S
C669 C468 1.638 . S
C665 C10 1.742 . S
C687 C539 1.643 . S
C683 C37 1.627 . S
C705 C329 1.715 . S
C701 C65 1.784 . S
C719 C52 1.599 . S
C723 C179 1.533 . S
C737 C87 1.779 . S
C741 C209 1.625 . S
C755 C15 1.632 . S
C759 C288 1.593 . S
C777 C108 1.720 . S
C773 C32 1.736 . S
C791 C29 1.630 . S
C795 C528 1.593 . S
C813 C348 1.760 . S
C809 C59 1.774 . S
C831 C408 1.535 . S
C827 C84 1.603 . S
C845 C8 1.736 . S
C849 C449 1.577 . S
C867 C119 1.808 1_554 S
C863 C7 1.853 1_556 S
C885 C149 1.603 . S
C881 C30 1.684 . S
C899 C62 1.868 1_556 S
C903 C239 1.739 . S
C917 C81 1.664 . S
C921 C299 1.607 . S
C939 C359 1.825 . S
C935 C76 1.868 . S
C953 C18 1.684 . S
C957 C419 1.607 . S
C971 C43 1.852 . S
C975 C479 1.724 . S
C989 C51 1.668 1_554 S
C993 C509 1.672 . S
