# Generated by pormake.
# Topology ssa, (4,4)-cn, num edge types: 1
# Building blocks:
#     Node 0, Type 0, BuildingBlock: ESEHIV_clean_sbu_0, # of connection points: 4
#     Node 1, Type 0, BuildingBlock: ESEHIV_clean_sbu_0, # of connection points: 4
#     Node 2, Type 0, BuildingBlock: ESEHIV_clean_sbu_0, # of connection points: 4
#     Node 3, Type 0, BuildingBlock: ESEHIV_clean_sbu_0, # of connection points: 4
#     Node 4, Type 0, BuildingBlock: ESEHIV_clean_sbu_0, # of connection points: 4
#     Node 5, Type 0, BuildingBlock: ESEHIV_clean_sbu_0, # of connection points: 4
#     Node 6, Type 1, BuildingBlock: KUFVIS_clean_linker_0, # of connection points: 4
#     Node 7, Type 1, BuildingBlock: KUFVIS_clean_linker_0, # of connection points: 4
#     Node 8, Type 1, BuildingBlock: KUFVIS_clean_linker_0, # of connection points: 4
#     Node 9, Type 1, BuildingBlock: KUFVIS_clean_linker_0, # of connection points: 4
#     Node 10, Type 1, BuildingBlock: KUFVIS_clean_linker_0, # of connection points: 4
#     Node 11, Type 1, BuildingBlock: KUFVIS_clean_linker_0, # of connection points: 4
#     Edge 12, Type (0, 1), BuildingBlock: UVAHIK_clean_linker_0, # of connection points: 2
#     Edge 13, Type (0, 1), BuildingBlock: UVAHIK_clean_linker_0, # of connection points: 2
#     Edge 14, Type (0, 1), BuildingBlock: UVAHIK_clean_linker_0, # of connection points: 2
#     Edge 15, Type (0, 1), BuildingBlock: UVAHIK_clean_linker_0, # of connection points: 2
#     Edge 16, Type (0, 1), BuildingBlock: UVAHIK_clean_linker_0, # of connection points: 2
#     Edge 17, Type (0, 1), BuildingBlock: UVAHIK_clean_linker_0, # of connection points: 2
#     Edge 18, Type (0, 1), BuildingBlock: UVAHIK_clean_linker_0, # of connection points: 2
#     Edge 19, Type (0, 1), BuildingBlock: UVAHIK_clean_linker_0, # of connection points: 2
#     Edge 20, Type (0, 1), BuildingBlock: UVAHIK_clean_linker_0, # of connection points: 2
#     Edge 21, Type (0, 1), BuildingBlock: UVAHIK_clean_linker_0, # of connection points: 2
#     Edge 22, Type (0, 1), BuildingBlock: UVAHIK_clean_linker_0, # of connection points: 2
#     Edge 23, Type (0, 1), BuildingBlock: UVAHIK_clean_linker_0, # of connection points: 2
#     Edge 24, Type (0, 1), BuildingBlock: UVAHIK_clean_linker_0, # of connection points: 2
#     Edge 25, Type (0, 1), BuildingBlock: UVAHIK_clean_linker_0, # of connection points: 2
#     Edge 26, Type (0, 1), BuildingBlock: UVAHIK_clean_linker_0, # of connection points: 2
#     Edge 27, Type (0, 1), BuildingBlock: UVAHIK_clean_linker_0, # of connection points: 2
#     Edge 28, Type (0, 1), BuildingBlock: UVAHIK_clean_linker_0, # of connection points: 2
#     Edge 29, Type (0, 1), BuildingBlock: UVAHIK_clean_linker_0, # of connection points: 2
#     Edge 30, Type (0, 1), BuildingBlock: UVAHIK_clean_linker_0, # of connection points: 2
#     Edge 31, Type (0, 1), BuildingBlock: UVAHIK_clean_linker_0, # of connection points: 2
#     Edge 32, Type (0, 1), BuildingBlock: UVAHIK_clean_linker_0, # of connection points: 2
#     Edge 33, Type (0, 1), BuildingBlock: UVAHIK_clean_linker_0, # of connection points: 2
#     Edge 34, Type (0, 1), BuildingBlock: UVAHIK_clean_linker_0, # of connection points: 2
#     Edge 35, Type (0, 1), BuildingBlock: UVAHIK_clean_linker_0, # of connection points: 2
# Relax obj value: 0.005
# Max RMSD: 0.107
# Mean RMSD: 0.074
data_MOF--net-ssa--node1-ESEHIV_clean_sbu_0--node2-KUFVIS_clean_linker_0--edge1-UVAHIK_clean_linker_0
_symmetry_space_group_name_H-M    P1
_symmetry_Int_Tables_number       1
_symmetry_cell_setting            triclinic
loop_
_symmetry_equiv_pos_as_xyz
'x, y, z'
_cell_length_a     68.029536
_cell_length_b     71.719397
_cell_length_c     39.299886
_cell_angle_alpha  88.478448
_cell_angle_beta   90.831052
_cell_angle_gamma 121.99444
loop_
_atom_site_label
_atom_site_type_symbol
_atom_site_fract_x
_atom_site_fract_y
_atom_site_fract_z
_atom_type_partial_charge
Cu0 Cu 0.03609 0.53986 -0.00328 0.0
N1 N 0.02906 0.52157 0.95979 0.0
N2 N 1.00888 0.49043 0.93102 0.0
C3 C 1.00913 0.50194 0.95775 0.0
C4 C 0.02955 0.50342 0.91547 0.0
C5 C 0.04198 0.52271 0.93328 0.0
O6 O 1.00772 0.53973 0.00555 0.0
C7 C 0.06702 0.5313 0.02563 0.0
O8 O 0.0761 0.53963 -0.00441 0.0
H9 H 0.99552 0.49581 0.97663 0.0
H10 H 0.05945 0.53618 0.92798 0.0
N11 N 0.06079 0.56885 0.98901 0.0
N12 N 0.09261 0.60075 0.00285 0.0
C13 C 0.07437 0.58153 0.0144 0.0
C14 C 0.07067 0.5805 0.96013 0.0
C15 C 0.09027 0.60034 0.96866 0.0
C16 C 1.00358 0.55094 0.98414 0.0
O17 O 0.01895 0.56234 0.96027 0.0
H18 H 0.07118 0.5764 0.04093 0.0
H19 H 0.0645 0.57472 0.93473 0.0
O20 O 0.0474 0.52856 0.03288 0.0
H21 H 0.03541 0.49917 0.89319 0.0
H22 H 0.10236 0.61302 0.95106 0.0
Cu23 Cu 0.53306 0.02007 0.50242 0.0
N24 N 0.54249 0.01277 0.46321 0.0
N25 N 0.54903 0.99265 0.42798 0.0
C26 C 0.53987 0.99308 0.45796 0.0
C27 C 0.55769 0.01287 0.41376 0.0
C28 C 0.55353 0.02522 0.43549 0.0
O29 O 0.50719 0.99216 0.51987 0.0
C30 C 0.5761 0.0532 0.52381 0.0
O31 O 0.57506 0.06079 0.49348 0.0
H32 H 0.53186 0.9795 0.47621 0.0
H33 H 0.55833 0.0421 0.43145 0.0
N34 N 0.52417 0.04031 0.49282 0.0
N35 N 0.51989 0.06882 0.5002 0.0
C36 C 0.52665 0.05572 0.51434 0.0
C37 C 0.51545 0.04363 0.46399 0.0
C38 C 0.5127 0.06118 0.4685 0.0
C39 C 0.48634 0.98751 0.52046 0.0
O40 O 0.48216 1.00321 0.51469 0.0
H41 H 0.53337 0.05725 0.53992 0.0
H42 H 0.51168 0.03418 0.44118 0.0
O43 O 0.55925 0.03441 0.5336 0.0
H44 H 0.56628 0.01831 0.38931 0.0
H45 H 0.50647 0.06808 0.4496 0.0
Cu46 Cu 0.50298 0.49325 0.02458 0.0
N47 N 0.50214 0.46706 0.03363 0.0
N48 N 0.50508 0.43836 0.0211 0.0
C49 C 0.50682 0.45703 0.00946 0.0
C50 C 0.4989 0.43643 0.05411 0.0
C51 C 0.49729 0.45432 0.0619 0.0
O52 O 0.52621 0.50724 0.98887 0.0
C53 C 0.45417 0.47088 0.02295 0.0
O54 O 0.45559 0.45522 0.03851 0.0
H55 H 0.511 0.46316 0.98345 0.0
H56 H 0.49268 0.45764 0.08623 0.0
N57 N 0.51161 0.51179 0.06167 0.0
N58 N 0.51722 0.54053 0.09106 0.0
C59 C 0.50987 0.52962 0.06157 0.0
C60 C 0.52032 0.5112 0.09235 0.0
C61 C 0.52388 0.52901 0.11053 0.0
C62 C 0.54753 0.51903 -0.00292 0.0
O63 O 0.553 0.52537 0.02866 0.0
H64 H 0.50367 0.53465 0.03985 0.0
H65 H 0.52393 0.49885 0.1008 0.0
O66 O 0.47262 0.48777 0.01146 0.0
H67 H 0.49596 0.42319 0.07139 0.0
H68 H 0.53063 0.53298 0.13617 0.0
Cu69 Cu 1.00437 0.50633 0.50133 0.0
N70 N 1.01138 0.49214 0.46873 0.0
N71 N 0.03187 0.48063 0.4425 0.0
C72 C 0.0325 0.49528 0.46397 0.0
C73 C 1.00951 0.46788 0.43293 0.0
C74 C 0.99686 0.4749 0.44942 0.0
O75 O 0.03039 0.53673 0.50407 0.0
C76 C 0.99423 0.47098 0.54791 0.0
O77 O 1.00607 0.46667 0.52691 0.0
H78 H 0.04792 0.50753 0.47697 0.0
H79 H 0.97823 0.46713 0.4489 0.0
N80 N 0.9788 0.50801 0.48891 0.0
N81 N 0.94941 0.51275 0.49791 0.0
C82 C 0.96933 0.51546 0.51019 0.0
C83 C 0.96447 0.50044 0.46186 0.0
C84 C 0.94614 0.50321 0.4675 0.0
C85 C 0.05083 0.54385 0.51502 0.0
O86 O 0.05558 0.53016 0.53026 0.0
H87 H 0.97632 0.52166 0.53517 0.0
H88 H 0.96671 0.49288 0.44008 0.0
O89 O 0.99436 0.48874 0.54366 0.0
H90 H 1.00262 0.45374 0.4168 0.0
H91 H 0.93141 0.49826 0.45092 0.0
Cu92 Cu 0.50849 1.00722 -7e-05 0.0
N93 N 0.49148 0.01278 0.96797 0.0
N94 N 0.47843 0.03167 0.94 0.0
C95 C 0.49163 0.03161 0.96592 0.0
C96 C 0.4696 0.01203 0.92513 0.0
C97 C 0.47765 1.0004 0.94247 0.0
O98 O 0.53687 0.03589 0.0062 0.0
C99 C 0.46908 0.97752 0.0363 0.0
O100 O 0.46197 0.97126 0.00508 0.0
H101 H 0.5018 0.04525 0.98266 0.0
H102 H 0.47368 0.98408 0.93684 0.0
N103 N 0.5156 0.98715 0.98397 0.0
N104 N 0.52507 0.96173 0.98608 0.0
C105 C 0.52186 0.97565 0.00401 0.0
C106 C 0.51484 0.98024 0.95214 0.0
C107 C 0.52052 0.96436 0.95342 0.0
C108 C 0.5572 0.03949 0.01037 0.0
O109 O 0.55989 0.02284 0.01587 0.0
H110 H 0.52376 0.97729 0.03136 0.0
H111 H 0.51048 0.98628 0.9296 0.0
O112 O 0.48963 0.99386 0.04091 0.0
H113 H 0.45811 1.00643 0.90335 0.0
H114 H 0.52158 0.95569 0.93209 0.0
Cu115 Cu 0.52221 0.51443 0.49542 0.0
N116 N 0.53919 0.53695 0.46364 0.0
N117 N 0.55252 0.56934 0.43672 0.0
C118 C 0.53889 0.55553 0.46191 0.0
C119 C 0.56174 0.55884 0.42197 0.0
C120 C 0.55344 0.53881 0.43865 0.0
O121 O 0.4937 0.51425 0.50088 0.0
C122 C 0.55989 0.53711 0.54236 0.0
O123 O 0.56598 0.5547 0.5234 0.0
H124 H 0.52907 0.55887 0.47943 0.0
H125 H 0.55742 0.52649 0.43293 0.0
N126 N 0.51535 0.48744 0.47914 0.0
N127 N 0.51088 0.45424 0.4807 0.0
C128 C 0.52007 0.47374 0.49609 0.0
C129 C 0.5028 0.47636 0.45186 0.0
C130 C 0.49993 0.45576 0.45281 0.0
C131 C 0.47353 0.49713 0.50434 0.0
O132 O 0.47133 0.47808 0.51108 0.0
H133 H 0.52904 0.4776 0.52029 0.0
H134 H 0.49551 0.48249 0.43338 0.0
O135 O 0.54073 0.51933 0.53647 0.0
H136 H 0.57337 0.56495 0.40038 0.0
H137 H 0.49019 0.44281 0.43481 0.0
H138 H 0.32448 0.48374 0.24679 0.0
H139 H 0.27824 0.49168 0.30862 0.0
H140 H 0.26588 0.48069 0.20023 0.0
H141 H 0.24428 0.49432 0.2046 0.0
H142 H 0.18805 0.48382 0.26664 0.0
H143 H 0.24163 0.47789 0.31262 0.0
C144 C 0.30895 0.4843 0.24935 0.0
C145 C 0.29611 0.48251 0.22023 0.0
C146 C 0.30226 0.48704 0.28146 0.0
C147 C 0.28266 0.4888 0.28387 0.0
C148 C 0.26878 0.48638 0.2549 0.0
C149 C 0.276 0.48326 0.22302 0.0
C150 C 0.24653 0.48621 0.25809 0.0
C151 C 0.23611 0.49014 0.22933 0.0
C152 C 0.21459 0.4884 0.23219 0.0
C153 C 0.20424 0.48437 0.26409 0.0
C154 C 0.2144 0.48131 0.2929 0.0
C155 C 0.23502 0.48154 0.28994 0.0
H156 H 0.71081 0.1833 0.79435 0.0
H157 H 0.762 0.24371 0.83944 0.0
H158 H 0.76953 0.2305 0.73491 0.0
H159 H 0.78771 0.26774 0.72953 0.0
H160 H 0.8493 0.31913 0.77662 0.0
H161 H 0.80113 0.26297 0.83688 0.0
C162 C 0.72699 0.19908 0.79211 0.0
C163 C 0.73919 0.20536 0.76135 0.0
C164 C 0.73528 0.21266 0.82025 0.0
C165 C 0.7561 0.23322 0.81756 0.0
C166 C 0.76877 0.24028 0.78659 0.0
C167 C 0.75999 0.226 0.75859 0.0
C168 C 0.79116 0.26225 0.78366 0.0
C169 C 0.79839 0.27408 0.75207 0.0
C170 C 0.81938 0.29456 0.74966 0.0
C171 C 0.8331 0.3033 0.77854 0.0
C172 C 0.82649 0.29209 0.80981 0.0
C173 C 0.80565 0.27161 0.8125 0.0
H174 H 0.5488 0.71375 0.25039 0.0
H175 H 0.53526 0.75611 0.18947 0.0
H176 H 0.56758 0.77631 0.28891 0.0
H177 H 0.54981 0.79539 0.28776 0.0
H178 H 0.56195 0.84902 0.22207 0.0
H179 H 0.55714 0.79262 0.17873 0.0
C180 C 0.54951 0.72918 0.24709 0.0
C181 C 0.5588 0.7445 0.27293 0.0
C182 C 0.5412 0.73334 0.21706 0.0
C183 C 0.54213 0.75331 0.21272 0.0
C184 C 0.55147 0.76923 0.23863 0.0
C185 C 0.55977 0.76445 0.26885 0.0
C186 C 0.55328 0.79095 0.23391 0.0
C187 C 0.55277 0.80253 0.26232 0.0
C188 C 0.55649 0.82368 0.25806 0.0
C189 C 0.55969 0.83291 0.22537 0.0
C190 C 0.55947 0.82163 0.19681 0.0
C191 C 0.55638 0.80074 0.20104 0.0
H192 H 0.84271 0.53663 0.7833 0.0
H193 H 0.78623 0.53178 0.83794 0.0
H194 H 0.78123 0.52142 0.72903 0.0
H195 H 0.75741 0.53282 0.72907 0.0
H196 H 0.69348 0.51161 0.77915 0.0
H197 H 0.74841 0.5134 0.83628 0.0
C198 C 0.82548 0.53403 0.78321 0.0
C199 C 0.8133 0.52983 0.75254 0.0
C200 C 0.81552 0.53415 0.81399 0.0
C201 C 0.79313 0.53069 0.814 0.0
C202 C 0.7803 0.52648 0.78327 0.0
C203 C 0.79061 0.52548 0.75284 0.0
C204 C 0.75635 0.523 0.78258 0.0
C205 C 0.74711 0.52643 0.75199 0.0
C206 C 0.72423 0.52156 0.75059 0.0
C207 C 0.71085 0.51449 0.78005 0.0
C208 C 0.71976 0.51219 0.81097 0.0
C209 C 0.7423 0.51612 0.81224 0.0
H210 H 0.20092 0.71006 0.29463 0.0
H211 H 0.26449 0.76275 0.25282 0.0
H212 H 0.25149 0.75792 0.36159 0.0
H213 H 0.28847 0.78063 0.36653 0.0
H214 H 0.34118 0.84279 0.32494 0.0
H215 H 0.28692 0.7974 0.25975 0.0
C216 C 0.21766 0.72502 0.29828 0.0
C217 C 0.22512 0.73249 0.33124 0.0
C218 C 0.23166 0.73615 0.27004 0.0
C219 C 0.25373 0.755 0.27499 0.0
C220 C 0.26145 0.76381 0.30785 0.0
C221 C 0.24677 0.75197 0.33598 0.0
C222 C 0.28416 0.78553 0.31242 0.0
C223 C 0.29523 0.79167 0.34466 0.0
C224 C 0.31542 0.81243 0.34912 0.0
C225 C 0.32535 0.82694 0.32136 0.0
C226 C 0.31541 0.82124 0.28905 0.0
C227 C 0.29476 0.80078 0.28471 0.0
H228 H 0.51304 0.32623 0.73997 0.0
H229 H 0.51206 0.27364 0.79576 0.0
H230 H 0.50108 0.26996 0.68654 0.0
H231 H 0.51769 0.25071 0.68884 0.0
H232 H 0.50653 0.19329 0.74276 0.0
H233 H 0.49275 0.2373 0.79315 0.0
C234 C 0.51132 0.31029 0.74041 0.0
C235 C 0.50772 0.29939 0.70982 0.0
C236 C 0.5123 0.30085 0.77152 0.0
C237 C 0.51005 0.28017 0.77175 0.0
C238 C 0.50631 0.26865 0.74114 0.0
C239 C 0.50451 0.27837 0.71037 0.0
C240 C 0.50535 0.24716 0.74104 0.0
C241 C 0.51197 0.24056 0.71178 0.0
C242 C 0.5122 0.22107 0.71223 0.0
C243 C 0.50631 0.20832 0.74217 0.0
C244 C 0.49962 0.21432 0.77125 0.0
C245 C 0.4986 0.23336 0.77054 0.0
C246 C 0.07144 0.50837 0.07121 0.0
C247 C 0.08105 0.52739 0.05042 0.0
C248 C 0.08596 0.50358 0.09022 0.0
C249 C 0.14754 0.51815 0.09229 0.0
H250 H 0.1305 0.48849 0.18049 0.0
C251 C 0.21112 0.51052 0.18443 0.0
C252 C 0.20199 0.49055 0.20274 0.0
C253 C 0.19675 0.51416 0.16295 0.0
C254 C 0.1354 0.49659 0.15568 0.0
H255 H 0.11302 0.55705 0.03493 0.0
H256 H 0.13807 0.54935 0.06894 0.0
H257 H 0.1042 0.49696 0.15124 0.0
H258 H 0.17133 0.45823 0.21121 0.0
H259 H 0.14642 0.46445 0.17361 0.0
H260 H 0.17902 0.5182 0.09726 0.0
C261 C 0.11957 0.53753 0.06967 0.0
C262 C 0.12028 0.50142 0.13887 0.0
C263 C 0.10517 0.54209 0.05042 0.0
C264 C 0.17877 0.47379 0.19738 0.0
C265 C 0.16445 0.47744 0.17617 0.0
C266 C 0.16275 0.51353 0.10928 0.0
C267 C 0.1103 0.5179 0.08904 0.0
C268 C 0.12616 0.51235 0.10696 0.0
C269 C 0.17303 0.49792 0.15967 0.0
C270 C 0.15686 0.50267 0.14115 0.0
H271 H 0.05289 0.4967 0.07141 0.0
H272 H 0.07815 0.48826 0.10472 0.0
H273 H 0.15251 0.52612 0.06741 0.0
H274 H 0.22888 0.52377 0.18849 0.0
H275 H 0.20385 0.53012 0.15055 0.0
C276 C 0.61135 0.08952 0.53731 0.0
C277 C 0.59576 0.06738 0.54664 0.0
C278 C 0.62936 0.10353 0.55899 0.0
C279 C 0.64715 0.10926 0.64957 0.0
H280 H 0.7056 0.15724 0.61351 0.0
C281 C 0.7206 0.16744 0.73855 0.0
C282 C 0.72945 0.18995 0.73256 0.0
C283 C 0.70716 0.15204 0.71402 0.0
C284 C 0.68935 0.14395 0.6239 0.0
H285 H 0.58725 0.04243 0.58584 0.0
H286 H 0.61918 0.06675 0.6235 0.0
H287 H 0.67648 0.1304 0.57484 0.0
H288 H 0.73259 0.21412 0.69519 0.0
H289 H 0.70922 0.18708 0.65184 0.0
H290 H 0.66012 0.12278 0.69861 0.0
C291 C 0.61714 0.07344 0.59964 0.0
C292 C 0.67258 0.12858 0.60178 0.0
C293 C 0.5989 0.05943 0.57799 0.0
C294 C 0.72608 0.1969 0.70044 0.0
C295 C 0.71265 0.18141 0.67571 0.0
C296 C 0.664 0.12446 0.67166 0.0
C297 C 0.6325 0.09576 0.59055 0.0
C298 C 0.65111 0.11118 0.61427 0.0
C299 C 0.70236 0.15876 0.68278 0.0
C300 C 0.68519 0.14209 0.65908 0.0
H301 H 0.60939 0.09629 0.51345 0.0
H302 H 0.64044 0.12064 0.5513 0.0
H303 H 0.63074 0.09642 0.66017 0.0
H304 H 0.72327 0.16164 0.76288 0.0
H305 H 0.6999 0.13475 0.71993 0.0
C306 C 0.53388 0.57496 0.12342 0.0
C307 C 0.51799 0.56044 0.09935 0.0
C308 C 0.535 0.59452 0.13067 0.0
C309 C 0.50103 0.62128 0.12503 0.0
H310 H 0.56079 0.67417 0.14107 0.0
C311 C 0.54663 0.71931 0.16292 0.0
C312 C 0.53247 0.71641 0.19068 0.0
C313 C 0.54283 0.7011 0.14481 0.0
C314 C 0.54395 0.65968 0.13609 0.0
H315 H 0.49041 0.55503 0.06468 0.0
H316 H 0.49262 0.58918 0.07689 0.0
H317 H 0.5589 0.64081 0.12437 0.0
H318 H 0.50244 0.69267 0.21997 0.0
H319 H 0.49553 0.66098 0.18831 0.0
H320 H 0.48609 0.64018 0.13689 0.0
C321 C 0.50418 0.58543 0.09029 0.0
C322 C 0.54286 0.64042 0.12705 0.0
C323 C 0.50309 0.56591 0.08301 0.0
C324 C 0.51332 0.69533 0.19822 0.0
C325 C 0.50946 0.67717 0.18011 0.0
C326 C 0.50212 0.64056 0.13412 0.0
C327 C 0.52021 0.60005 0.11412 0.0
C328 C 0.52138 0.62087 0.12192 0.0
C329 C 0.5248 0.67968 0.15422 0.0
C330 C 0.52358 0.65994 0.14027 0.0
H331 H 0.54572 0.5714 0.13633 0.0
H332 H 0.54733 0.60522 0.14954 0.0
H333 H 0.48417 0.60652 0.12146 0.0
H334 H 0.56174 0.73536 0.15706 0.0
H335 H 0.55475 0.70366 0.12464 0.0
C336 C 0.9099 0.50227 0.51504 0.0
C337 C 0.93402 0.51703 0.51603 0.0
C338 C 0.89536 0.50483 0.53676 0.0
C339 C 0.89855 0.52983 0.61913 0.0
H340 H 0.83668 0.51645 0.59717 0.0
C341 C 0.8477 0.54706 0.71394 0.0
C342 C 0.8247 0.53006 0.72043 0.0
C343 C 0.85963 0.54631 0.68599 0.0
C344 C 0.85388 0.52011 0.60366 0.0
H345 H 0.96167 0.54691 0.53831 0.0
H346 H 0.93645 0.55179 0.57544 0.0
H347 H 0.86032 0.514 0.55307 0.0
H348 H 0.79577 0.49946 0.70174 0.0
H349 H 0.81677 0.49811 0.65259 0.0
H350 H 0.89227 0.53585 0.66952 0.0
C351 C 0.92871 0.5378 0.55888 0.0
C352 C 0.86741 0.5187 0.57845 0.0
C353 C 0.94318 0.5351 0.53752 0.0
C354 C 0.81347 0.51282 0.69729 0.0
C355 C 0.82548 0.51206 0.66919 0.0
C356 C 0.88515 0.53132 0.64412 0.0
C357 C 0.90471 0.52231 0.55964 0.0
C358 C 0.88999 0.52371 0.58588 0.0
C359 C 0.8489 0.52853 0.6638 0.0
C360 C 0.86273 0.52664 0.63669 0.0
H361 H 0.90243 0.48812 0.49883 0.0
H362 H 0.87697 0.49256 0.53676 0.0
H363 H 0.91557 0.53318 0.62611 0.0
H364 H 0.85665 0.56078 0.73094 0.0
H365 H 0.87748 0.55952 0.6821 0.0
C366 C 0.46188 0.96252 0.09663 0.0
C367 C 0.45335 0.96462 0.06492 0.0
C368 C 0.44659 0.94794 0.12177 0.0
C369 C 0.38553 0.91805 0.14959 0.0
H370 H 0.39796 0.87525 0.1894 0.0
C371 C 0.33347 0.8589 0.26241 0.0
C372 C 0.32734 0.83692 0.26014 0.0
C373 C 0.34782 0.87463 0.23789 0.0
C374 C 0.39422 0.88704 0.17838 0.0
H375 H 0.42216 0.95388 0.03522 0.0
H376 H 0.39563 0.92906 0.07918 0.0
H377 H 0.42602 0.90377 0.15006 0.0
H378 H 0.33098 0.81405 0.23018 0.0
H379 H 0.35635 0.84166 0.18726 0.0
H380 H 0.35378 0.90138 0.17798 0.0
C381 C 0.41404 0.93843 0.08462 0.0
C382 C 0.4104 0.90352 0.1562 0.0
C383 C 0.42927 0.9526 0.05939 0.0
C384 C 0.33527 0.83083 0.23229 0.0
C385 C 0.34996 0.84666 0.20801 0.0
C386 C 0.36952 0.90179 0.17217 0.0
C387 C 0.42251 0.9356 0.11586 0.0
C388 C 0.40615 0.9191 0.14135 0.0
C389 C 0.35669 0.86881 0.21086 0.0
C390 C 0.37358 0.88598 0.18659 0.0
H391 H 0.48036 0.97145 0.1015 0.0
H392 H 0.45358 0.94617 0.14572 0.0
H393 H 0.3818 0.92985 0.13859 0.0
H394 H 0.32767 0.86402 0.28375 0.0
H395 H 0.35276 0.89155 0.24087 0.0
C396 C 0.49206 0.41388 0.48857 0.0
C397 C 0.51102 0.43533 0.49378 0.0
C398 C 0.49131 0.39578 0.50443 0.0
C399 C 0.52789 0.37869 0.54981 0.0
H400 H 0.47143 0.33803 0.59898 0.0
C401 C 0.52694 0.33229 0.67093 0.0
C402 C 0.50832 0.31074 0.6774 0.0
C403 C 0.52691 0.34414 0.64225 0.0
C404 C 0.48717 0.34893 0.58486 0.0
H405 H 0.54455 0.45445 0.51814 0.0
H406 H 0.5432 0.4231 0.54594 0.0
H407 H 0.47206 0.36516 0.55945 0.0
H408 H 0.4754 0.28437 0.65845 0.0
H409 H 0.4752 0.30529 0.60798 0.0
H410 H 0.54325 0.36304 0.57624 0.0
C411 C 0.52892 0.42014 0.52958 0.0
C412 C 0.48755 0.3645 0.56218 0.0
C413 C 0.5296 0.43818 0.51395 0.0
C414 C 0.48997 0.30096 0.65394 0.0
C415 C 0.48981 0.31296 0.62527 0.0
C416 C 0.52752 0.36317 0.57247 0.0
C417 C 0.5096 0.39874 0.52552 0.0
C418 C 0.50812 0.38002 0.54521 0.0
C419 C 0.50818 0.33479 0.61936 0.0
C420 C 0.50738 0.34857 0.59107 0.0
H421 H 0.47743 0.41117 0.47333 0.0
H422 H 0.47626 0.37949 0.50058 0.0
H423 H 0.54388 0.3901 0.53659 0.0
H424 H 0.54137 0.34016 0.68852 0.0
H425 H 0.54118 0.36099 0.63876 0.0
C426 C 0.56864 0.97856 0.39424 0.0
C427 C 0.54993 0.97458 0.41453 0.0
C428 C 0.56962 0.9611 0.38129 0.0
C429 C 0.544 0.90043 0.39055 0.0
H430 H 0.5702 0.90849 0.30049 0.0
C431 C 0.53753 0.83114 0.3057 0.0
C432 C 0.5575 0.83704 0.28693 0.0
C433 C 0.537 0.84664 0.32615 0.0
C434 C 0.56306 0.90604 0.32584 0.0
H435 H 0.51745 0.94909 0.43697 0.0
H436 H 0.51875 0.91856 0.41359 0.0
H437 H 0.56788 0.93796 0.325 0.0
H438 H 0.59301 0.86294 0.27668 0.0
H439 H 0.59225 0.8898 0.31254 0.0
H440 H 0.53858 0.86802 0.39047 0.0
C441 C 0.53302 0.93517 0.40834 0.0
C442 C 0.56178 0.92301 0.34001 0.0
C443 C 0.53221 0.95268 0.42166 0.0
C444 C 0.57742 0.85802 0.29097 0.0
C445 C 0.5769 0.87343 0.31121 0.0
C446 C 0.54504 0.88327 0.3761 0.0
C447 C 0.55172 0.93913 0.38784 0.0
C448 C 0.55248 0.9206 0.37272 0.0
C449 C 0.55641 0.86825 0.32787 0.0
C450 C 0.55485 0.88602 0.34373 0.0
H451 H 0.58276 0.99522 0.38882 0.0
H452 H 0.5846 0.9649 0.36634 0.0
H453 H 0.53691 0.89798 0.41591 0.0
H454 H 0.52188 0.81515 0.30262 0.0
H455 H 0.52097 0.8422 0.3387 0.0
C456 C 0.55988 0.50483 0.94963 0.0
C457 C 0.56566 0.52052 0.97474 0.0
C458 C 0.57719 0.50325 0.93372 0.0
C459 C 0.63809 0.51817 0.94722 0.0
H460 H 0.63265 0.50023 0.8537 0.0
C461 C 0.71192 0.52392 0.86553 0.0
C462 C 0.70535 0.50742 0.84162 0.0
C463 C 0.69524 0.52344 0.88667 0.0
C464 C 0.63425 0.50494 0.88004 0.0
H465 H 0.59416 0.54782 0.00114 0.0
H466 H 0.62439 0.54578 0.97228 0.0
H467 H 0.60319 0.50554 0.87744 0.0
H468 H 0.67699 0.47638 0.8234 0.0
H469 H 0.64798 0.47528 0.86069 0.0
H470 H 0.66967 0.5182 0.94918 0.0
C471 C 0.60648 0.5341 0.96577 0.0
C472 C 0.61735 0.50802 0.89366 0.0
C473 C 0.58916 0.53548 0.982 0.0
C474 C 0.68245 0.48925 0.84176 0.0
C475 C 0.66583 0.48879 0.86274 0.0
C476 C 0.65516 0.51531 0.93342 0.0
C477 C 0.6007 0.51753 0.94219 0.0
C478 C 0.619 0.51466 0.92745 0.0
C479 C 0.6718 0.50647 0.88403 0.0
C480 C 0.65335 0.50857 0.89972 0.0
H481 H 0.54193 0.4929 0.94368 0.0
H482 H 0.57199 0.49014 0.91594 0.0
H483 H 0.63975 0.52288 0.97355 0.0
H484 H 0.72939 0.53824 0.86551 0.0
H485 H 0.70035 0.53728 0.90287 0.0
C486 C 0.0932 0.57347 0.50958 0.0
C487 C 0.06973 0.56665 0.50552 0.0
C488 C 0.11083 0.59385 0.49618 0.0
C489 C 0.11957 0.63375 0.42768 0.0
H490 H 0.17939 0.6716 0.46999 0.0
C491 C 0.18685 0.7143 0.36081 0.0
C492 C 0.20977 0.71926 0.36013 0.0
C493 C 0.17064 0.69812 0.38319 0.0
C494 C 0.16283 0.66114 0.45771 0.0
H495 H 0.0466 0.5766 0.48591 0.0
H496 H 0.07719 0.61202 0.46309 0.0
H497 H 0.14947 0.63864 0.5006 0.0
H498 H 0.23401 0.71193 0.38331 0.0
H499 H 0.2056 0.68331 0.42226 0.0
H500 H 0.13282 0.65565 0.38457 0.0
C501 C 0.08201 0.60147 0.47595 0.0
C502 C 0.14566 0.64224 0.47529 0.0
C503 C 0.06443 0.58117 0.48927 0.0
C504 C 0.21651 0.70859 0.38365 0.0
C505 C 0.20017 0.69216 0.4059 0.0
C506 C 0.13666 0.6525 0.41014 0.0
C507 C 0.10541 0.60786 0.47839 0.0
C508 C 0.12377 0.62832 0.46049 0.0
C509 C 0.17681 0.68618 0.40513 0.0
C510 C 0.15854 0.66654 0.42485 0.0
H511 H 0.09794 0.56272 0.5219 0.0
H512 H 0.12864 0.59816 0.49843 0.0
H513 H 0.10317 0.62318 0.41506 0.0
H514 H 0.18124 0.72232 0.34292 0.0
H515 H 0.15302 0.69446 0.38245 0.0
C516 C 0.47108 0.05221 0.89529 0.0
C517 C 0.47556 0.04953 0.9295 0.0
C518 C 0.46983 0.07032 0.88474 0.0
C519 C 0.4902 0.12703 0.90911 0.0
H520 H 0.45003 0.12328 0.83511 0.0
C521 C 0.47127 0.18524 0.81161 0.0
C522 C 0.49432 0.20035 0.80216 0.0
C523 C 0.46608 0.16803 0.83478 0.0
C524 C 0.46107 0.12464 0.85627 0.0
H525 H 0.48108 0.06327 0.97975 0.0
H526 H 0.47881 0.09482 0.96139 0.0
H527 H 0.44528 0.08973 0.86023 0.0
H528 H 0.53005 0.21032 0.81044 0.0
H529 H 0.52119 0.18057 0.85087 0.0
H530 H 0.50615 0.16196 0.90487 0.0
C531 C 0.47673 0.08314 0.94257 0.0
C532 C 0.45856 0.10538 0.87033 0.0
C533 C 0.47805 0.06506 0.9531 0.0
C534 C 0.51217 0.19898 0.81784 0.0
C535 C 0.50704 0.18192 0.841 0.0
C536 C 0.49267 0.14628 0.8951 0.0
C537 C 0.47292 0.08617 0.90817 0.0
C538 C 0.47353 0.10636 0.89626 0.0
C539 C 0.48389 0.16573 0.84877 0.0
C540 C 0.47858 0.14536 0.86783 0.0
H541 H 0.46935 0.04073 0.87638 0.0
H542 H 0.46726 0.07229 0.85793 0.0
H543 H 0.50211 0.12845 0.92894 0.0
H544 H 0.45725 0.18587 0.7994 0.0
H545 H 0.44809 0.15598 0.84054 0.0
C546 C 0.43042 0.47997 0.49922 0.0
C547 C 0.45301 0.49798 0.49335 0.0
C548 C 0.41132 0.47935 0.48403 0.0
C549 C 0.39386 0.51308 0.43129 0.0
H550 H 0.3469 0.45583 0.39837 0.0
C551 C 0.32117 0.50219 0.33858 0.0
C552 C 0.31565 0.48732 0.31215 0.0
C553 C 0.33511 0.50308 0.36599 0.0
C554 C 0.35992 0.47202 0.40709 0.0
H555 H 0.47309 0.52993 0.46804 0.0
H556 H 0.44021 0.5285 0.44064 0.0
H557 H 0.37681 0.45901 0.43625 0.0
H558 H 0.31958 0.46097 0.29497 0.0
H559 H 0.34442 0.46314 0.34127 0.0
H560 H 0.37782 0.52622 0.39994 0.0
C561 C 0.43691 0.51502 0.45763 0.0
C562 C 0.37697 0.47381 0.42951 0.0
C563 C 0.45593 0.51581 0.4733 0.0
C564 C 0.32381 0.47295 0.31444 0.0
C565 C 0.33782 0.47395 0.3415 0.0
C566 C 0.37698 0.51132 0.40838 0.0
C567 C 0.41434 0.49653 0.462 0.0
C568 C 0.39454 0.49443 0.44143 0.0
C569 C 0.34388 0.48912 0.36761 0.0
C570 C 0.3601 0.49081 0.39527 0.0
H571 H 0.42754 0.46604 0.51476 0.0
H572 H 0.39423 0.46507 0.48892 0.0
H573 H 0.40668 0.52921 0.44041 0.0
H574 H 0.31524 0.51354 0.33765 0.0
H575 H 0.33912 0.5148 0.38579 0.0
C576 C 0.99625 0.45392 0.90795 0.0
C577 C 0.99088 0.46826 0.92294 0.0
C578 C 0.97882 0.4321 0.90173 0.0
C579 C 0.91786 0.38907 0.92492 0.0
H580 H 0.91962 0.36351 0.84027 0.0
C581 C 0.83838 0.3166 0.85923 0.0
C582 C 0.84204 0.30294 0.83892 0.0
C583 C 0.85683 0.33363 0.87717 0.0
C584 C 0.91905 0.37017 0.86439 0.0
H585 H 0.96294 0.47109 0.9423 0.0
H586 H 0.93251 0.43331 0.93081 0.0
H587 H 0.95137 0.40004 0.85453 0.0
H588 H 0.86707 0.29498 0.82342 0.0
H589 H 0.89919 0.32425 0.85552 0.0
H590 H 0.88496 0.35935 0.93394 0.0
C591 C 0.95024 0.43863 0.92475 0.0
C592 C 0.93731 0.39121 0.87256 0.0
C593 C 0.96768 0.46036 0.93118 0.0
C594 C 0.8638 0.30513 0.83941 0.0
C595 C 0.88223 0.32211 0.85732 0.0
C596 C 0.89949 0.36802 0.91662 0.0
C597 C 0.95557 0.42415 0.91009 0.0
C598 C 0.93683 0.40109 0.90269 0.0
C599 C 0.87925 0.33729 0.87483 0.0
C600 C 0.89976 0.35843 0.88605 0.0
H601 H 1.014 0.45941 0.90178 0.0
H602 H 0.98364 0.42138 0.89079 0.0
H603 H 0.91709 0.39598 0.94866 0.0
H604 H 0.82186 0.31549 0.85856 0.0
H605 H 0.85395 0.34507 0.89027 0.0
C606 C 0.96026 0.5308 0.99296 0.0
C607 C 0.98117 0.54982 0.98275 0.0
C608 C 0.93891 0.52871 0.98528 0.0
C609 C 0.9126 0.56067 0.95445 0.0
H610 H 0.86779 0.50663 0.91023 0.0
C611 C 0.85115 0.55642 0.84893 0.0
C612 C 0.829 0.53742 0.8457 0.0
C613 C 0.86632 0.55768 0.87445 0.0
C614 C 0.87983 0.52168 0.92312 0.0
H615 H 0.99616 0.58198 0.95839 0.0
H616 H 0.95942 0.57847 0.94533 0.0
H617 H 0.90078 0.50907 0.93997 0.0
H618 H 0.80498 0.50513 0.86729 0.0
H619 H 0.83158 0.50725 0.91217 0.0
H620 H 0.89223 0.57361 0.9362 0.0
C621 C 0.9592 0.56513 0.95928 0.0
C622 C 0.89879 0.52307 0.94025 0.0
C623 C 0.98035 0.56711 0.9666 0.0
C624 C 0.82186 0.52009 0.86958 0.0
C625 C 0.83718 0.52122 0.89496 0.0
C626 C 0.89372 0.5593 0.93724 0.0
C627 C 0.93814 0.54571 0.96767 0.0
C628 C 0.91585 0.54284 0.95517 0.0
C629 C 0.85983 0.53982 0.89713 0.0
C630 C 0.87749 0.54002 0.92042 0.0
H631 H 0.96033 0.51713 0.0052 0.0
H632 H 0.92303 0.51358 0.99236 0.0
H633 H 0.9251 0.57601 0.96625 0.0
H634 H 0.85715 0.56988 0.83055 0.0
H635 H 0.88366 0.57215 0.87503 0.0
C636 C 0.47118 0.94713 0.51718 0.0
C637 C 0.46688 0.96418 0.51997 0.0
C638 C 0.45312 0.92576 0.50982 0.0
C639 C 0.38871 0.88933 0.50181 0.0
H640 H 0.40407 0.86591 0.42593 0.0
C641 C 0.32293 0.83468 0.40041 0.0
C642 C 0.32652 0.82003 0.38265 0.0
C643 C 0.3381 0.84729 0.42638 0.0
C644 C 0.39945 0.87178 0.44766 0.0
H645 H 0.43989 0.97168 0.51985 0.0
H646 H 0.40856 0.9346 0.50682 0.0
H647 H 0.43468 0.89751 0.45534 0.0
H648 H 0.3478 0.80607 0.37893 0.0
H649 H 0.37409 0.82767 0.42507 0.0
H650 H 0.35328 0.86402 0.49308 0.0
C651 C 0.42583 0.93763 0.51043 0.0
C652 C 0.4171 0.89002 0.46457 0.0
C653 C 0.44387 0.95899 0.51773 0.0
C654 C 0.34453 0.81703 0.39274 0.0
C655 C 0.35972 0.82963 0.4188 0.0
C656 C 0.37102 0.87102 0.48489 0.0
C657 C 0.43034 0.92092 0.50518 0.0
C658 C 0.41191 0.89943 0.49123 0.0
C659 C 0.35728 0.8456 0.43494 0.0
C660 C 0.3761 0.86241 0.45694 0.0
H661 H 0.48867 0.95049 0.5189 0.0
H662 H 0.45715 0.91319 0.50654 0.0
H663 H 0.38414 0.89594 0.5226 0.0
H664 H 0.30941 0.83754 0.39248 0.0
H665 H 0.33577 0.85955 0.43785 0.0
C666 C 0.49523 0.4008 0.00711 0.0
C667 C 0.50864 0.42369 0.0014 0.0
C668 C 0.49723 0.3866 0.9855 0.0
C669 C 0.51661 0.38596 0.89796 0.0
H670 H 0.51097 0.33135 0.92776 0.0
C671 C 0.5324 0.33564 0.8044 0.0
C672 C 0.51564 0.31303 0.80335 0.0
C673 C 0.53309 0.34819 0.83149 0.0
C674 C 0.51245 0.3465 0.91907 0.0
H675 H 0.53578 0.44967 0.97012 0.0
H676 H 0.53965 0.42517 0.93308 0.0
H677 H 0.50932 0.35519 0.9697 0.0
H678 H 0.4874 0.28556 0.83099 0.0
H679 H 0.48858 0.30758 0.87864 0.0
H680 H 0.51968 0.37742 0.84752 0.0
C681 C 0.52698 0.418 0.95339 0.0
C682 C 0.51146 0.36015 0.94307 0.0
C683 C 0.52483 0.4321 0.9747 0.0
C684 C 0.50055 0.30295 0.83118 0.0
C685 C 0.50122 0.31557 0.85842 0.0
C686 C 0.51771 0.37245 0.87414 0.0
C687 C 0.51281 0.39503 0.95789 0.0
C688 C 0.51368 0.38016 0.93282 0.0
C689 C 0.51701 0.33848 0.85828 0.0
C690 C 0.5158 0.35261 0.88432 0.0
H691 H 0.48254 0.39385 0.02738 0.0
H692 H 0.48594 0.36903 0.98968 0.0
H693 H 0.51773 0.40088 0.88886 0.0
H694 H 0.54452 0.34381 0.78359 0.0
H695 H 0.54587 0.36568 0.83097 0.0
C696 C 0.05225 0.47052 0.40255 0.0
C697 C 0.0507 0.47775 0.43464 0.0
C698 C 0.07085 0.46823 0.39476 0.0
C699 C 0.13079 0.48664 0.42262 0.0
H700 H 0.12296 0.44317 0.35835 0.0
C701 C 0.20452 0.497 0.33992 0.0
C702 C 0.20288 0.47851 0.32574 0.0
C703 C 0.18761 0.49455 0.36249 0.0
C704 C 0.12551 0.45512 0.37696 0.0
H705 H 0.06684 0.48731 0.4843 0.0
H706 H 0.09896 0.48284 0.47114 0.0
H707 H 0.08921 0.44268 0.37866 0.0
H708 H 0.18364 0.44299 0.32579 0.0
H709 H 0.15452 0.4385 0.36663 0.0
H710 H 0.16709 0.49889 0.42124 0.0
C711 C 0.08627 0.47959 0.4515 0.0
C712 C 0.1061 0.4551 0.38812 0.0
C713 C 0.06784 0.48215 0.45909 0.0
C714 C 0.18539 0.45746 0.33691 0.0
C715 C 0.16852 0.45496 0.35978 0.0
C716 C 0.15019 0.48649 0.41178 0.0
C717 C 0.08818 0.4728 0.41911 0.0
C718 C 0.10853 0.47127 0.41028 0.0
C719 C 0.1687 0.47349 0.37133 0.0
C720 C 0.14791 0.47115 0.38797 0.0
H721 H 0.03935 0.46717 0.3832 0.0
H722 H 0.0719 0.46338 0.36932 0.0
H723 H 0.13346 0.49943 0.43959 0.0
H724 H 0.21763 0.51338 0.33102 0.0
H725 H 0.18835 0.50924 0.37045 0.0
C726 C 0.6003 0.06638 0.00908 0.0
C727 C 0.57775 0.06181 0.00313 0.0
C728 C 0.61966 0.08633 -0.00214 0.0
C729 C 0.63823 0.1422 0.96081 0.0
H730 H 0.68666 0.13706 0.92008 0.0
C731 C 0.69908 0.19944 0.85335 0.0
C732 C 0.72191 0.20416 0.85233 0.0
C733 C 0.68392 0.18586 0.8792 0.0
C734 C 0.67355 0.13896 0.9319 0.0
H735 H 0.55798 0.07513 0.98184 0.0
H736 H 0.59151 0.10948 0.96153 0.0
H737 H 0.65546 0.10584 0.95107 0.0
H738 H 0.74717 0.19928 0.87814 0.0
H739 H 0.72067 0.1755 0.92359 0.0
H740 H 0.65592 0.17509 0.93986 0.0
C741 C 0.59442 0.09793 0.97547 0.0
C742 C 0.65558 0.12099 0.9498 0.0
C743 C 0.57508 0.07809 0.98703 0.0
C744 C 0.72975 0.19616 0.87875 0.0
C745 C 0.7145 0.18234 0.90445 0.0
C746 C 0.65612 0.16012 0.94257 0.0
C747 C 0.617 0.10217 0.98001 0.0
C748 C 0.6374 0.12218 0.96405 0.0
C749 C 0.69117 0.17642 0.90429 0.0
C750 C 0.67381 0.1586 0.92743 0.0
H751 H 0.603 0.05429 0.02165 0.0
H752 H 0.63673 0.08913 0.00262 0.0
H753 H 0.62486 0.14398 0.97194 0.0
H754 H 0.69255 0.20513 0.83289 0.0
H755 H 0.66605 0.1815 0.87808 0.0
C756 C 0.54045 0.59639 0.43879 0.0
C757 C 0.55609 0.59061 0.42772 0.0
C758 C 0.54369 0.61683 0.43011 0.0
C759 C 0.5867 0.67266 0.39524 0.0
H760 H 0.53145 0.67218 0.36798 0.0
C761 C 0.58474 0.73452 0.30165 0.0
C762 C 0.56668 0.73845 0.30408 0.0
C763 C 0.58691 0.72107 0.32578 0.0
C764 C 0.54704 0.67282 0.37628 0.0
H765 H 0.58774 0.60234 0.3991 0.0
H766 H 0.59285 0.63764 0.3828 0.0
H767 H 0.52791 0.63881 0.39073 0.0
H768 H 0.5381 0.73329 0.33494 0.0
H769 H 0.54207 0.71003 0.37772 0.0
H770 H 0.60585 0.70659 0.37909 0.0
C771 C 0.57831 0.62645 0.39889 0.0
C772 C 0.54502 0.65358 0.38928 0.0
C773 C 0.57517 0.60601 0.40783 0.0
C774 C 0.55232 0.73067 0.33284 0.0
C775 C 0.55442 0.71713 0.357 0.0
C776 C 0.58874 0.69195 0.38203 0.0
C777 C 0.56249 0.63205 0.40973 0.0
C778 C 0.56482 0.65312 0.3984 0.0
C779 C 0.5709 0.71119 0.35262 0.0
C780 C 0.56894 0.69213 0.37186 0.0
H781 H 0.52538 0.58505 0.45378 0.0
H782 H 0.53131 0.62064 0.43932 0.0
H783 H 0.60229 0.673 0.40256 0.0
H784 H 0.59579 0.74014 0.27935 0.0
H785 H 0.59971 0.71678 0.32149 0.0
C786 C 0.50595 0.09442 0.50486 0.0
C787 C 0.52089 0.08741 0.51557 0.0
C788 C 0.50662 0.1121 0.52046 0.0
C789 C 0.54353 0.15999 0.57559 0.0
H790 H 0.48532 0.15393 0.59967 0.0
C791 C 0.53449 0.20704 0.68433 0.0
C792 C 0.51807 0.21321 0.68172 0.0
C793 C 0.53679 0.19535 0.65845 0.0
C794 C 0.50176 0.15614 0.59257 0.0
H795 H 0.54879 0.09414 0.5505 0.0
H796 H 0.54959 0.12445 0.57805 0.0
H797 H 0.48515 0.12598 0.56548 0.0
H798 H 0.49198 0.213 0.6493 0.0
H799 H 0.49604 0.19256 0.60366 0.0
H800 H 0.56009 0.18981 0.6036 0.0
C801 C 0.53746 0.11645 0.55739 0.0
C802 C 0.50166 0.14006 0.57297 0.0
C803 C 0.53676 0.09879 0.54188 0.0
C804 C 0.5049 0.20857 0.65179 0.0
C805 C 0.50705 0.19667 0.6259 0.0
C806 C 0.54362 0.17603 0.59522 0.0
C807 C 0.52233 0.12329 0.54704 0.0
C808 C 0.52253 0.14152 0.56486 0.0
C809 C 0.5226 0.1894 0.62937 0.0
C810 C 0.52272 0.17407 0.60459 0.0
H811 H 0.49343 0.08599 0.48483 0.0
H812 H 0.49484 0.11703 0.51163 0.0
H813 H 0.55995 0.16192 0.5692 0.0
H814 H 0.54482 0.21037 0.70721 0.0
H815 H 0.54879 0.18989 0.66218 0.0
C816 C 0.4323 0.49027 0.01964 0.0
C817 C 0.43252 0.47099 0.02614 0.0
C818 C 0.41334 0.49154 0.02957 0.0
C819 C 0.35287 0.45797 0.06483 0.0
H820 H 0.37138 0.51112 0.11364 0.0
C821 C 0.3056 0.46108 0.1823 0.0
C822 C 0.3041 0.47959 0.18713 0.0
C823 C 0.31712 0.45999 0.154 0.0
C824 C 0.36578 0.49633 0.09954 0.0
H825 H 0.4122 0.43743 0.04573 0.0
H826 H 0.37962 0.43973 0.06344 0.0
H827 H 0.39954 0.50944 0.07855 0.0
H828 H 0.31266 0.51117 0.16592 0.0
H829 H 0.33323 0.50946 0.11634 0.0
H830 H 0.31946 0.44447 0.08779 0.0
C831 C 0.39384 0.45386 0.05044 0.0
C832 C 0.38194 0.49536 0.07928 0.0
C833 C 0.41269 0.45258 0.04046 0.0
C834 C 0.31342 0.49663 0.16244 0.0
C835 C 0.32529 0.49571 0.13431 0.0
C836 C 0.33679 0.45888 0.08539 0.0
C837 C 0.3942 0.47359 0.04622 0.0
C838 C 0.37593 0.47592 0.0625 0.0
C839 C 0.32772 0.47758 0.13023 0.0
C840 C 0.34327 0.47785 0.10375 0.0
H841 H 0.44726 0.50476 0.00857 0.0
H842 H 0.41406 0.50687 0.02529 0.0
H843 H 0.34743 0.44289 0.05169 0.0
H844 H 0.29871 0.44786 0.20125 0.0
H845 H 0.31891 0.44593 0.15185 0.0
C846 C 0.96046 0.45553 0.58841 0.0
C847 C 0.97696 0.4532 0.57105 0.0
C848 C 0.942 0.43753 0.60575 0.0
C849 C 0.9216 0.38121 0.64041 0.0
H850 H 0.86085 0.37362 0.63345 0.0
C851 C 0.8419 0.30347 0.69605 0.0
C852 C 0.82838 0.30755 0.71757 0.0
C853 C 0.85773 0.31991 0.67347 0.0
C854 C 0.8777 0.37552 0.6357 0.0
H855 H 0.98735 0.43021 0.55952 0.0
H856 H 0.9553 0.39902 0.58938 0.0
H857 H 0.89416 0.40568 0.60647 0.0
H858 H 0.81975 0.33138 0.73116 0.0
H859 H 0.84691 0.35993 0.69133 0.0
H860 H 0.90522 0.35115 0.66972 0.0
C861 C 0.95662 0.41473 0.58993 0.0
C862 C 0.89687 0.394 0.62042 0.0
C863 C 0.97505 0.43269 0.57268 0.0
C864 C 0.82958 0.32767 0.71418 0.0
C865 C 0.8453 0.34407 0.69153 0.0
C866 C 0.90246 0.36273 0.65553 0.0
C867 C 0.93957 0.41677 0.60618 0.0
C868 C 0.91912 0.39716 0.6227 0.0
C869 C 0.86036 0.34077 0.67206 0.0
C870 C 0.88026 0.35965 0.65351 0.0
H871 H 0.96132 0.47105 0.58768 0.0
H872 H 0.92949 0.43987 0.61853 0.0
H873 H 0.93846 0.3832 0.64322 0.0
H874 H 0.84166 0.28827 0.69877 0.0
H875 H 0.86879 0.31669 0.65843 0.0
C876 C 0.52079 0.92531 0.9899 0.0
C877 C 0.53214 0.94735 -0.00045 0.0
C878 C 0.52629 0.91089 0.00572 0.0
C879 C 0.55414 0.90631 0.08515 0.0
H880 H 0.54826 0.85557 0.04195 0.0
C881 C 0.58058 0.85383 0.15723 0.0
C882 C 0.56193 0.83219 0.16296 0.0
C883 C 0.57963 0.86676 0.13094 0.0
C884 C 0.55001 0.86973 0.05418 0.0
H885 H 0.55908 0.97209 0.03127 0.0
H886 H 0.56967 0.94751 0.05756 0.0
H887 H 0.54175 0.8812 0.00848 0.0
H888 H 0.52876 0.80636 0.14388 0.0
H889 H 0.52718 0.82906 0.09727 0.0
H890 H 0.56269 0.89508 0.13056 0.0
C891 C 0.55573 0.94084 0.03911 0.0
C892 C 0.54614 0.88435 0.03516 0.0
C893 C 0.54984 0.95504 0.02391 0.0
C894 C 0.54342 0.82295 0.13973 0.0
C895 C 0.54249 0.83595 0.11321 0.0
C896 C 0.55838 0.89201 0.10381 0.0
C897 C 0.54358 0.91839 0.03105 0.0
C898 C 0.54816 0.90286 0.05045 0.0
C899 C 0.56004 0.85829 0.10981 0.0
C900 C 0.55637 0.8736 0.08861 0.0
H901 H 0.507 0.91906 0.97121 0.0
H902 H 0.51637 0.89374 -0.00103 0.0
H903 H 0.55511 0.91984 0.09832 0.0
H904 H 0.59505 0.86128 0.17481 0.0
H905 H 0.5935 0.88387 0.12858 0.0
C906 C 0.57347 0.51689 0.57912 0.0
C907 C 0.57715 0.53687 0.56565 0.0
C908 C 0.59115 0.51629 0.59678 0.0
C909 C 0.64668 0.55056 0.64219 0.0
H910 H 0.65639 0.50357 0.62062 0.0
C911 C 0.72046 0.54499 0.70582 0.0
C912 C 0.71352 0.52404 0.71913 0.0
C913 C 0.70629 0.54764 0.68243 0.0
C914 C 0.65387 0.51676 0.62707 0.0
H915 H 0.60204 0.572 0.56158 0.0
H916 H 0.63275 0.57093 0.59262 0.0
H917 H 0.62566 0.50585 0.59199 0.0
H918 H 0.68723 0.48938 0.71729 0.0
H919 H 0.66266 0.49382 0.67654 0.0
H920 H 0.67453 0.5612 0.67783 0.0
C921 C 0.61621 0.55573 0.58946 0.0
C922 C 0.63619 0.51801 0.61074 0.0
C923 C 0.59858 0.55633 0.57162 0.0
C924 C 0.69307 0.50567 0.70699 0.0
C925 C 0.67899 0.50827 0.68364 0.0
C926 C 0.66432 0.54926 0.65866 0.0
C927 C 0.61288 0.53564 0.6016 0.0
C928 C 0.63216 0.53475 0.61841 0.0
C929 C 0.68497 0.52935 0.67197 0.0
C930 C 0.66796 0.53216 0.65165 0.0
H931 H 0.55722 0.50157 0.575 0.0
H932 H 0.58787 0.50058 0.60634 0.0
H933 H 0.64396 0.56359 0.64885 0.0
H934 H 0.73599 0.55941 0.71521 0.0
H935 H 0.71159 0.56407 0.67357 0.0
C936 C 0.12283 0.63963 0.01376 0.0
C937 C 0.11136 0.61722 0.02312 0.0
C938 C 0.14001 0.65558 0.03485 0.0
C939 C 0.17914 0.66285 0.10739 0.0
H940 H 0.17386 0.7125 0.12863 0.0
C941 C 0.23538 0.724 0.21213 0.0
C942 C 0.22258 0.72792 0.23545 0.0
C943 C 0.22541 0.71387 0.18118 0.0
C944 C 0.17565 0.69878 0.12286 0.0
H945 H 0.10984 0.59392 0.06093 0.0
H946 H 0.1394 0.62155 0.09771 0.0
H947 H 0.1498 0.68764 0.0838 0.0
H948 H 0.1899 0.72551 0.24392 0.0
H949 H 0.17254 0.70787 0.19032 0.0
H950 H 0.20416 0.67337 0.14755 0.0
C951 C 0.13524 0.62692 0.07417 0.0
C952 C 0.16201 0.68465 0.09692 0.0
C953 C 0.11803 0.61106 0.0533 0.0
C954 C 0.2001 0.7225 0.22654 0.0
C955 C 0.19024 0.71258 0.19565 0.0
C956 C 0.19282 0.67701 0.13326 0.0
C957 C 0.14626 0.6494 0.06548 0.0
C958 C 0.16312 0.66616 0.08952 0.0
C959 C 0.20256 0.70772 0.17285 0.0
C960 C 0.19076 0.69479 0.14196 0.0
H961 H 0.11804 0.64483 0.99067 0.0
H962 H 0.14829 0.67276 0.0273 0.0
H963 H 0.18066 0.64893 0.10199 0.0
H964 H 0.25272 0.72796 0.2184 0.0
H965 H 0.23543 0.7105 0.16403 0.0
loop_
_geom_bond_atom_site_label_1
_geom_bond_atom_site_label_2
_geom_bond_distance
_geom_bond_site_symmetry_2
_ccdc_geom_bond_type
Cu0 N1 1.999 1_454 S
Cu0 O6 1.974 1_454 S
Cu0 N11 1.985 . S
Cu0 O20 1.959 . S
N1 Cu0 1.999 1_656 S
N1 C3 1.263 . S
N1 C5 1.389 1_556 S
N2 C3 1.358 . S
N2 C4 1.400 . S
C3 N1 1.263 . S
C3 N2 1.358 . S
C3 H9 0.930 . S
C4 N2 1.400 . S
C4 C5 1.351 1_556 S
C4 H21 0.934 . S
C5 N1 1.389 1_554 S
C5 C4 1.351 1_554 S
C5 H10 0.930 . S
O6 Cu0 1.974 1_656 S
O6 C16 1.282 . S
C7 O8 1.261 1_554 S
C7 O20 1.251 . S
O8 C7 1.261 1_556 S
H9 C3 0.930 . S
H10 C5 0.930 . S
N11 Cu0 1.985 . S
N11 C13 1.335 . S
N11 C14 1.390 . S
N12 C13 1.345 . S
N12 C15 1.336 . S
C13 N11 1.335 . S
C13 N12 1.345 . S
C13 H18 0.930 . S
C14 N11 1.390 . S
C14 C15 1.346 . S
C14 H19 0.930 1_554 S
C15 N12 1.336 . S
C15 C14 1.346 . S
C15 H22 0.929 . S
C16 O6 1.282 . S
C16 O17 1.216 1_655 S
O17 C16 1.216 1_455 S
H18 C13 0.930 . S
H19 C14 0.930 1_556 S
O20 Cu0 1.959 . S
O20 C7 1.251 . S
H21 C4 0.934 . S
H22 C15 0.929 . S
Cu23 N24 1.999 . S
Cu23 O29 1.974 . S
Cu23 N34 1.985 1_565 S
Cu23 O43 1.959 1_565 S
N24 Cu23 1.999 . S
N24 C26 1.263 . S
N24 C28 1.389 . S
N25 C26 1.358 . S
N25 C27 1.400 . S
C26 N24 1.263 . S
C26 N25 1.358 . S
C26 H32 0.930 . S
C27 N25 1.400 . S
C27 C28 1.351 . S
C27 H44 0.930 . S
C28 N24 1.389 . S
C28 C27 1.351 . S
C28 H33 0.930 . S
O29 Cu23 1.974 . S
O29 C39 1.282 . S
C30 O31 1.261 . S
C30 O43 1.251 . S
O31 C30 1.261 . S
H32 C26 0.930 . S
H33 C28 0.930 . S
N34 Cu23 1.985 1_545 S
N34 C36 1.335 . S
N34 C37 1.390 . S
N35 C36 1.345 . S
N35 C38 1.336 . S
C36 N34 1.335 . S
C36 N35 1.345 . S
C36 H41 0.930 . S
C37 N34 1.390 . S
C37 C38 1.346 . S
C37 H42 0.930 . S
C38 N35 1.336 . S
C38 C37 1.346 . S
C38 H45 0.929 . S
C39 O29 1.282 . S
C39 O40 1.216 . S
O40 C39 1.216 . S
H41 C36 0.930 . S
H42 C37 0.930 . S
O43 Cu23 1.959 1_545 S
O43 C30 1.251 . S
H44 C27 0.930 . S
H45 C38 0.929 . S
Cu46 N47 1.999 1_554 S
Cu46 O52 1.974 1_554 S
Cu46 N57 1.985 . S
Cu46 O66 1.959 . S
N47 Cu46 1.999 1_556 S
N47 C49 1.263 . S
N47 C51 1.389 . S
N48 C49 1.358 . S
N48 C50 1.400 . S
C49 N47 1.263 . S
C49 N48 1.358 . S
C49 H55 0.930 . S
C50 N48 1.400 . S
C50 C51 1.351 . S
C50 H67 0.930 . S
C51 N47 1.389 . S
C51 C50 1.351 . S
C51 H56 0.930 . S
O52 Cu46 1.974 1_556 S
O52 C62 1.279 1_556 S
C53 O54 1.261 . S
C53 O66 1.251 . S
O54 C53 1.261 . S
H55 C49 0.930 . S
H56 C51 0.930 . S
N57 Cu46 1.985 . S
N57 C59 1.335 . S
N57 C60 1.390 . S
N58 C59 1.345 . S
N58 C61 1.336 . S
C59 N57 1.335 . S
C59 N58 1.345 . S
C59 H64 0.930 . S
C60 N57 1.390 . S
C60 C61 1.346 . S
C60 H65 0.930 . S
C61 N58 1.336 . S
C61 C60 1.346 . S
C61 H68 0.929 . S
C62 O52 1.279 1_554 S
C62 O63 1.223 . S
O63 C62 1.223 . S
H64 C59 0.930 . S
H65 C60 0.930 . S
O66 Cu46 1.959 . S
O66 C53 1.251 . S
H67 C50 0.930 . S
H68 C61 0.929 . S
Cu69 N70 1.999 1_655 S
Cu69 O75 1.974 1_655 S
Cu69 N80 1.985 . S
Cu69 O89 1.959 . S
N70 Cu69 1.999 1_455 S
N70 C72 1.263 . S
N70 C74 1.389 1_455 S
N71 C72 1.358 . S
N71 C73 1.400 . S
C72 N70 1.263 . S
C72 N71 1.358 . S
C72 H78 0.930 . S
C73 N71 1.400 . S
C73 C74 1.351 1_455 S
C73 H90 0.930 . S
C74 N70 1.389 1_655 S
C74 C73 1.351 1_655 S
C74 H79 0.930 . S
O75 Cu69 1.974 1_455 S
O75 C85 1.282 . S
C76 O77 1.261 . S
C76 O89 1.251 . S
O77 C76 1.261 . S
H78 C72 0.930 . S
H79 C74 0.930 . S
N80 Cu69 1.985 . S
N80 C82 1.335 . S
N80 C83 1.390 . S
N81 C82 1.345 . S
N81 C84 1.336 . S
C82 N80 1.335 . S
C82 N81 1.345 . S
C82 H87 0.930 . S
C83 N80 1.390 . S
C83 C84 1.346 . S
C83 H88 0.930 1_655 S
C84 N81 1.336 . S
C84 C83 1.346 . S
C84 H91 0.929 . S
C85 O75 1.282 . S
C85 O86 1.216 . S
O86 C85 1.216 . S
H87 C82 0.930 . S
H88 C83 0.930 1_455 S
O89 Cu69 1.959 . S
O89 C76 1.251 . S
H90 C73 0.930 . S
H91 C84 0.929 . S
Cu92 N93 1.999 . S
Cu92 O98 1.974 . S
Cu92 N103 1.985 1_545 S
Cu92 O112 1.959 1_545 S
N93 Cu92 1.999 . S
N93 C95 1.263 1_554 S
N93 C97 1.389 . S
N94 C95 1.358 . S
N94 C96 1.400 1_556 S
C95 N93 1.263 1_556 S
C95 N94 1.358 . S
C95 H101 0.930 . S
C96 N94 1.400 1_554 S
C96 C97 1.351 . S
C96 H113 0.930 . S
C97 N93 1.389 . S
C97 C96 1.351 . S
C97 H102 0.930 . S
O98 Cu92 1.974 . S
O98 C108 1.282 1_554 S
C99 O100 1.261 . S
C99 O112 1.251 . S
O100 C99 1.261 . S
H101 C95 0.930 . S
H102 C97 0.930 . S
N103 Cu92 1.985 1_565 S
N103 C105 1.335 . S
N103 C106 1.390 . S
N104 C105 1.345 . S
N104 C107 1.336 . S
C105 N103 1.335 . S
C105 N104 1.345 . S
C105 H110 0.930 . S
C106 N103 1.390 . S
C106 C107 1.346 . S
C106 H111 0.930 1_565 S
C107 N104 1.336 . S
C107 C106 1.346 . S
C107 H114 0.929 . S
C108 O98 1.282 1_556 S
C108 O109 1.216 . S
O109 C108 1.216 . S
H110 C105 0.930 . S
H111 C106 0.930 1_545 S
O112 Cu92 1.959 1_565 S
O112 C99 1.251 . S
H113 C96 0.930 . S
H114 C107 0.929 . S
Cu115 N116 1.999 . S
Cu115 O121 1.974 . S
Cu115 N126 1.985 . S
Cu115 O135 1.959 . S
N116 Cu115 1.999 . S
N116 C118 1.263 . S
N116 C120 1.389 . S
N117 C118 1.358 . S
N117 C119 1.400 . S
C118 N116 1.263 . S
C118 N117 1.358 . S
C118 H124 0.930 . S
C119 N117 1.400 . S
C119 C120 1.351 . S
C119 H136 0.930 . S
C120 N116 1.389 . S
C120 C119 1.351 . S
C120 H125 0.930 . S
O121 Cu115 1.974 . S
O121 C131 1.282 . S
C122 O123 1.261 . S
C122 O135 1.251 . S
O123 C122 1.261 . S
H124 C118 0.930 . S
H125 C120 0.930 . S
N126 Cu115 1.985 . S
N126 C128 1.335 . S
N126 C129 1.390 . S
N127 C128 1.345 . S
N127 C130 1.336 . S
C128 N126 1.335 . S
C128 N127 1.345 . S
C128 H133 0.930 . S
C129 N126 1.390 . S
C129 C130 1.346 . S
C129 H134 0.930 . S
C130 N127 1.336 . S
C130 C129 1.346 . S
C130 H137 0.929 . S
C131 O121 1.282 . S
C131 O132 1.216 . S
O132 C131 1.216 . S
H133 C128 0.930 . S
H134 C129 0.930 . S
O135 Cu115 1.959 . S
O135 C122 1.251 . S
H136 C119 0.930 . S
H137 C130 0.929 . S
H138 C144 0.930 . S
H139 C147 0.931 . S
H140 C149 0.931 . S
H141 C151 0.930 . S
H142 C153 0.930 . S
H143 C155 0.931 . S
C144 H138 0.930 . S
C144 C145 1.380 . S
C144 C146 1.394 . S
C145 C144 1.380 . S
C145 C149 1.382 . S
C146 C144 1.394 . S
C146 C147 1.400 . S
C147 H139 0.931 . S
C147 C146 1.400 . S
C147 C148 1.375 . S
C148 C147 1.375 . S
C148 C149 1.415 . S
C148 C150 1.501 . S
C149 H140 0.931 . S
C149 C145 1.382 . S
C149 C148 1.415 . S
C150 C148 1.501 . S
C150 C151 1.384 . S
C150 C155 1.408 . S
C151 H141 0.930 . S
C151 C150 1.384 . S
C151 C152 1.389 . S
C152 C151 1.389 . S
C152 C153 1.405 . S
C153 H142 0.930 . S
C153 C152 1.405 . S
C153 C154 1.364 . S
C154 C153 1.364 . S
C154 C155 1.400 . S
C155 H143 0.931 . S
C155 C150 1.408 . S
C155 C154 1.400 . S
H156 C162 0.930 . S
H157 C165 0.931 . S
H158 C167 0.931 . S
H159 C169 0.930 . S
H160 C171 0.930 . S
H161 C173 0.931 . S
C162 H156 0.930 . S
C162 C163 1.380 . S
C162 C164 1.394 . S
C163 C162 1.380 . S
C163 C167 1.382 . S
C164 C162 1.394 . S
C164 C165 1.400 . S
C165 H157 0.931 . S
C165 C164 1.400 . S
C165 C166 1.375 . S
C166 C165 1.375 . S
C166 C167 1.415 . S
C166 C168 1.501 . S
C167 H158 0.931 . S
C167 C163 1.382 . S
C167 C166 1.415 . S
C168 C166 1.501 . S
C168 C169 1.384 . S
C168 C173 1.408 . S
C169 H159 0.930 . S
C169 C168 1.384 . S
C169 C170 1.389 . S
C170 C169 1.389 . S
C170 C171 1.405 . S
C171 H160 0.930 . S
C171 C170 1.405 . S
C171 C172 1.364 . S
C172 C171 1.364 . S
C172 C173 1.400 . S
C173 H161 0.931 . S
C173 C168 1.408 . S
C173 C172 1.400 . S
H174 C180 0.930 . S
H175 C183 0.931 . S
H176 C185 0.931 . S
H177 C187 0.930 . S
H178 C189 0.930 . S
H179 C191 0.931 . S
C180 H174 0.930 . S
C180 C181 1.380 . S
C180 C182 1.394 . S
C181 C180 1.380 . S
C181 C185 1.382 . S
C182 C180 1.394 . S
C182 C183 1.400 . S
C183 H175 0.931 . S
C183 C182 1.400 . S
C183 C184 1.375 . S
C184 C183 1.375 . S
C184 C185 1.415 . S
C184 C186 1.501 . S
C185 H176 0.931 . S
C185 C181 1.382 . S
C185 C184 1.415 . S
C186 C184 1.501 . S
C186 C187 1.384 . S
C186 C191 1.408 . S
C187 H177 0.930 . S
C187 C186 1.384 . S
C187 C188 1.389 . S
C188 C187 1.389 . S
C188 C189 1.405 . S
C189 H178 0.930 . S
C189 C188 1.405 . S
C189 C190 1.364 . S
C190 C189 1.364 . S
C190 C191 1.400 . S
C191 H179 0.931 . S
C191 C186 1.408 . S
C191 C190 1.400 . S
H192 C198 0.930 . S
H193 C201 0.931 . S
H194 C203 0.931 . S
H195 C205 0.930 . S
H196 C207 0.930 . S
H197 C209 0.931 . S
C198 H192 0.930 . S
C198 C199 1.380 . S
C198 C200 1.394 . S
C199 C198 1.380 . S
C199 C203 1.382 . S
C200 C198 1.394 . S
C200 C201 1.400 . S
C201 H193 0.931 . S
C201 C200 1.400 . S
C201 C202 1.375 . S
C202 C201 1.375 . S
C202 C203 1.415 . S
C202 C204 1.501 . S
C203 H194 0.931 . S
C203 C199 1.382 . S
C203 C202 1.415 . S
C204 C202 1.501 . S
C204 C205 1.384 . S
C204 C209 1.408 . S
C205 H195 0.930 . S
C205 C204 1.384 . S
C205 C206 1.389 . S
C206 C205 1.389 . S
C206 C207 1.405 . S
C207 H196 0.930 . S
C207 C206 1.405 . S
C207 C208 1.364 . S
C208 C207 1.364 . S
C208 C209 1.400 . S
C209 H197 0.931 . S
C209 C204 1.408 . S
C209 C208 1.400 . S
H210 C216 0.930 . S
H211 C219 0.931 . S
H212 C221 0.931 . S
H213 C223 0.930 . S
H214 C225 0.930 . S
H215 C227 0.931 . S
C216 H210 0.930 . S
C216 C217 1.380 . S
C216 C218 1.394 . S
C217 C216 1.380 . S
C217 C221 1.382 . S
C218 C216 1.394 . S
C218 C219 1.400 . S
C219 H211 0.931 . S
C219 C218 1.400 . S
C219 C220 1.375 . S
C220 C219 1.375 . S
C220 C221 1.415 . S
C220 C222 1.501 . S
C221 H212 0.931 . S
C221 C217 1.382 . S
C221 C220 1.415 . S
C222 C220 1.501 . S
C222 C223 1.384 . S
C222 C227 1.408 . S
C223 H213 0.930 . S
C223 C222 1.384 . S
C223 C224 1.389 . S
C224 C223 1.389 . S
C224 C225 1.405 . S
C225 H214 0.930 . S
C225 C224 1.405 . S
C225 C226 1.364 . S
C226 C225 1.364 . S
C226 C227 1.400 . S
C227 H215 0.931 . S
C227 C222 1.408 . S
C227 C226 1.400 . S
H228 C234 0.930 . S
H229 C237 0.931 . S
H230 C239 0.931 . S
H231 C241 0.930 . S
H232 C243 0.930 . S
H233 C245 0.931 . S
C234 H228 0.930 . S
C234 C235 1.380 . S
C234 C236 1.394 . S
C235 C234 1.380 . S
C235 C239 1.382 . S
C236 C234 1.394 . S
C236 C237 1.400 . S
C237 H229 0.931 . S
C237 C236 1.400 . S
C237 C238 1.375 . S
C238 C237 1.375 . S
C238 C239 1.415 . S
C238 C240 1.501 . S
C239 H230 0.931 . S
C239 C235 1.382 . S
C239 C238 1.415 . S
C240 C238 1.501 . S
C240 C241 1.384 . S
C240 C245 1.408 . S
C241 H231 0.930 . S
C241 C240 1.384 . S
C241 C242 1.389 . S
C242 C241 1.389 . S
C242 C243 1.405 . S
C243 H232 0.930 . S
C243 C242 1.405 . S
C243 C244 1.364 . S
C244 C243 1.364 . S
C244 C245 1.400 . S
C245 H233 0.931 . S
C245 C240 1.408 . S
C245 C244 1.400 . S
C246 C247 1.349 . S
C246 C248 1.327 . S
C246 H271 0.950 . S
C247 C246 1.349 . S
C247 C263 1.349 . S
C248 C246 1.327 . S
C248 C267 1.429 . S
C248 H272 0.950 . S
C249 C266 1.574 . S
C249 C268 1.368 . S
C249 H273 0.949 . S
H250 C254 0.949 . S
C251 C252 1.349 . S
C251 C253 1.327 . S
C251 H274 0.950 . S
C252 C251 1.349 . S
C252 C264 1.349 . S
C253 C251 1.327 . S
C253 C269 1.429 . S
C253 H275 0.950 . S
C254 H250 0.949 . S
C254 C262 1.574 . S
C254 C270 1.368 . S
H255 C263 0.950 . S
H256 C261 0.950 . S
H257 C262 0.949 . S
H258 C264 0.950 . S
H259 C265 0.950 . S
H260 C266 0.949 . S
C261 H256 0.950 . S
C261 C263 1.327 . S
C261 C267 1.429 . S
C262 C254 1.574 . S
C262 H257 0.949 . S
C262 C268 1.368 . S
C263 C247 1.349 . S
C263 H255 0.950 . S
C263 C261 1.327 . S
C264 C252 1.349 . S
C264 H258 0.950 . S
C264 C265 1.327 . S
C265 H259 0.950 . S
C265 C264 1.327 . S
C265 C269 1.429 . S
C266 C249 1.574 . S
C266 H260 0.949 . S
C266 C270 1.368 . S
C267 C248 1.429 . S
C267 C261 1.429 . S
C267 C268 1.523 . S
C268 C249 1.368 . S
C268 C262 1.368 . S
C268 C267 1.523 . S
C269 C253 1.429 . S
C269 C265 1.429 . S
C269 C270 1.523 . S
C270 C254 1.368 . S
C270 C266 1.368 . S
C270 C269 1.523 . S
H271 C246 0.950 . S
H272 C248 0.950 . S
H273 C249 0.949 . S
H274 C251 0.950 . S
H275 C253 0.950 . S
C276 C277 1.349 . S
C276 C278 1.327 . S
C276 H301 0.950 . S
C277 C276 1.349 . S
C277 C293 1.349 . S
C278 C276 1.327 . S
C278 C297 1.429 . S
C278 H302 0.950 . S
C279 C296 1.574 . S
C279 C298 1.368 . S
C279 H303 0.949 . S
H280 C284 0.949 . S
C281 C282 1.349 . S
C281 C283 1.327 . S
C281 H304 0.950 . S
C282 C281 1.349 . S
C282 C294 1.349 . S
C283 C281 1.327 . S
C283 C299 1.429 . S
C283 H305 0.950 . S
C284 H280 0.949 . S
C284 C292 1.574 . S
C284 C300 1.368 . S
H285 C293 0.950 . S
H286 C291 0.950 . S
H287 C292 0.949 . S
H288 C294 0.950 . S
H289 C295 0.950 . S
H290 C296 0.949 . S
C291 H286 0.950 . S
C291 C293 1.327 . S
C291 C297 1.429 . S
C292 C284 1.574 . S
C292 H287 0.949 . S
C292 C298 1.368 . S
C293 C277 1.349 . S
C293 H285 0.950 . S
C293 C291 1.327 . S
C294 C282 1.349 . S
C294 H288 0.950 . S
C294 C295 1.327 . S
C295 H289 0.950 . S
C295 C294 1.327 . S
C295 C299 1.429 . S
C296 C279 1.574 . S
C296 H290 0.949 . S
C296 C300 1.368 . S
C297 C278 1.429 . S
C297 C291 1.429 . S
C297 C298 1.523 . S
C298 C279 1.368 . S
C298 C292 1.368 . S
C298 C297 1.523 . S
C299 C283 1.429 . S
C299 C295 1.429 . S
C299 C300 1.523 . S
C300 C284 1.368 . S
C300 C296 1.368 . S
C300 C299 1.523 . S
H301 C276 0.950 . S
H302 C278 0.950 . S
H303 C279 0.949 . S
H304 C281 0.950 . S
H305 C283 0.950 . S
C306 C307 1.349 . S
C306 C308 1.327 . S
C306 H331 0.950 . S
C307 C306 1.349 . S
C307 C323 1.349 . S
C308 C306 1.327 . S
C308 C327 1.429 . S
C308 H332 0.950 . S
C309 C326 1.574 . S
C309 C328 1.368 . S
C309 H333 0.949 . S
H310 C314 0.949 . S
C311 C312 1.349 . S
C311 C313 1.327 . S
C311 H334 0.950 . S
C312 C311 1.349 . S
C312 C324 1.349 . S
C313 C311 1.327 . S
C313 C329 1.429 . S
C313 H335 0.950 . S
C314 H310 0.949 . S
C314 C322 1.574 . S
C314 C330 1.368 . S
H315 C323 0.950 . S
H316 C321 0.950 . S
H317 C322 0.949 . S
H318 C324 0.950 . S
H319 C325 0.950 . S
H320 C326 0.949 . S
C321 H316 0.950 . S
C321 C323 1.327 . S
C321 C327 1.429 . S
C322 C314 1.574 . S
C322 H317 0.949 . S
C322 C328 1.368 . S
C323 C307 1.349 . S
C323 H315 0.950 . S
C323 C321 1.327 . S
C324 C312 1.349 . S
C324 H318 0.950 . S
C324 C325 1.327 . S
C325 H319 0.950 . S
C325 C324 1.327 . S
C325 C329 1.429 . S
C326 C309 1.574 . S
C326 H320 0.949 . S
C326 C330 1.368 . S
C327 C308 1.429 . S
C327 C321 1.429 . S
C327 C328 1.523 . S
C328 C309 1.368 . S
C328 C322 1.368 . S
C328 C327 1.523 . S
C329 C313 1.429 . S
C329 C325 1.429 . S
C329 C330 1.523 . S
C330 C314 1.368 . S
C330 C326 1.368 . S
C330 C329 1.523 . S
H331 C306 0.950 . S
H332 C308 0.950 . S
H333 C309 0.949 . S
H334 C311 0.950 . S
H335 C313 0.950 . S
C336 C337 1.349 . S
C336 C338 1.327 . S
C336 H361 0.950 . S
C337 C336 1.349 . S
C337 C353 1.349 . S
C338 C336 1.327 . S
C338 C357 1.429 . S
C338 H362 0.950 . S
C339 C356 1.574 . S
C339 C358 1.368 . S
C339 H363 0.949 . S
H340 C344 0.949 . S
C341 C342 1.349 . S
C341 C343 1.327 . S
C341 H364 0.950 . S
C342 C341 1.349 . S
C342 C354 1.349 . S
C343 C341 1.327 . S
C343 C359 1.429 . S
C343 H365 0.950 . S
C344 H340 0.949 . S
C344 C352 1.574 . S
C344 C360 1.368 . S
H345 C353 0.950 . S
H346 C351 0.950 . S
H347 C352 0.949 . S
H348 C354 0.950 . S
H349 C355 0.950 . S
H350 C356 0.949 . S
C351 H346 0.950 . S
C351 C353 1.327 . S
C351 C357 1.429 . S
C352 C344 1.574 . S
C352 H347 0.949 . S
C352 C358 1.368 . S
C353 C337 1.349 . S
C353 H345 0.950 . S
C353 C351 1.327 . S
C354 C342 1.349 . S
C354 H348 0.950 . S
C354 C355 1.327 . S
C355 H349 0.950 . S
C355 C354 1.327 . S
C355 C359 1.429 . S
C356 C339 1.574 . S
C356 H350 0.949 . S
C356 C360 1.368 . S
C357 C338 1.429 . S
C357 C351 1.429 . S
C357 C358 1.523 . S
C358 C339 1.368 . S
C358 C352 1.368 . S
C358 C357 1.523 . S
C359 C343 1.429 . S
C359 C355 1.429 . S
C359 C360 1.523 . S
C360 C344 1.368 . S
C360 C356 1.368 . S
C360 C359 1.523 . S
H361 C336 0.950 . S
H362 C338 0.950 . S
H363 C339 0.949 . S
H364 C341 0.950 . S
H365 C343 0.950 . S
C366 C367 1.349 . S
C366 C368 1.327 . S
C366 H391 0.950 . S
C367 C366 1.349 . S
C367 C383 1.349 . S
C368 C366 1.327 . S
C368 C387 1.429 . S
C368 H392 0.950 . S
C369 C386 1.574 . S
C369 C388 1.368 . S
C369 H393 0.949 . S
H370 C374 0.949 . S
C371 C372 1.349 . S
C371 C373 1.327 . S
C371 H394 0.950 . S
C372 C371 1.349 . S
C372 C384 1.349 . S
C373 C371 1.327 . S
C373 C389 1.429 . S
C373 H395 0.950 . S
C374 H370 0.949 . S
C374 C382 1.574 . S
C374 C390 1.368 . S
H375 C383 0.950 . S
H376 C381 0.950 . S
H377 C382 0.949 . S
H378 C384 0.950 . S
H379 C385 0.950 . S
H380 C386 0.949 . S
C381 H376 0.950 . S
C381 C383 1.327 . S
C381 C387 1.429 . S
C382 C374 1.574 . S
C382 H377 0.949 . S
C382 C388 1.368 . S
C383 C367 1.349 . S
C383 H375 0.950 . S
C383 C381 1.327 . S
C384 C372 1.349 . S
C384 H378 0.950 . S
C384 C385 1.327 . S
C385 H379 0.950 . S
C385 C384 1.327 . S
C385 C389 1.429 . S
C386 C369 1.574 . S
C386 H380 0.949 . S
C386 C390 1.368 . S
C387 C368 1.429 . S
C387 C381 1.429 . S
C387 C388 1.523 . S
C388 C369 1.368 . S
C388 C382 1.368 . S
C388 C387 1.523 . S
C389 C373 1.429 . S
C389 C385 1.429 . S
C389 C390 1.523 . S
C390 C374 1.368 . S
C390 C386 1.368 . S
C390 C389 1.523 . S
H391 C366 0.950 . S
H392 C368 0.950 . S
H393 C369 0.949 . S
H394 C371 0.950 . S
H395 C373 0.950 . S
C396 C397 1.349 . S
C396 C398 1.327 . S
C396 H421 0.950 . S
C397 C396 1.349 . S
C397 C413 1.349 . S
C398 C396 1.327 . S
C398 C417 1.429 . S
C398 H422 0.950 . S
C399 C416 1.574 . S
C399 C418 1.368 . S
C399 H423 0.949 . S
H400 C404 0.949 . S
C401 C402 1.349 . S
C401 C403 1.327 . S
C401 H424 0.950 . S
C402 C401 1.349 . S
C402 C414 1.349 . S
C403 C401 1.327 . S
C403 C419 1.429 . S
C403 H425 0.950 . S
C404 H400 0.949 . S
C404 C412 1.574 . S
C404 C420 1.368 . S
H405 C413 0.950 . S
H406 C411 0.950 . S
H407 C412 0.949 . S
H408 C414 0.950 . S
H409 C415 0.950 . S
H410 C416 0.949 . S
C411 H406 0.950 . S
C411 C413 1.327 . S
C411 C417 1.429 . S
C412 C404 1.574 . S
C412 H407 0.949 . S
C412 C418 1.368 . S
C413 C397 1.349 . S
C413 H405 0.950 . S
C413 C411 1.327 . S
C414 C402 1.349 . S
C414 H408 0.950 . S
C414 C415 1.327 . S
C415 H409 0.950 . S
C415 C414 1.327 . S
C415 C419 1.429 . S
C416 C399 1.574 . S
C416 H410 0.949 . S
C416 C420 1.368 . S
C417 C398 1.429 . S
C417 C411 1.429 . S
C417 C418 1.523 . S
C418 C399 1.368 . S
C418 C412 1.368 . S
C418 C417 1.523 . S
C419 C403 1.429 . S
C419 C415 1.429 . S
C419 C420 1.523 . S
C420 C404 1.368 . S
C420 C416 1.368 . S
C420 C419 1.523 . S
H421 C396 0.950 . S
H422 C398 0.950 . S
H423 C399 0.949 . S
H424 C401 0.950 . S
H425 C403 0.950 . S
C426 C427 1.349 . S
C426 C428 1.327 . S
C426 H451 0.950 . S
C427 C426 1.349 . S
C427 C443 1.349 . S
C428 C426 1.327 . S
C428 C447 1.429 . S
C428 H452 0.950 . S
C429 C446 1.574 . S
C429 C448 1.368 . S
C429 H453 0.949 . S
H430 C434 0.949 . S
C431 C432 1.349 . S
C431 C433 1.327 . S
C431 H454 0.950 . S
C432 C431 1.349 . S
C432 C444 1.349 . S
C433 C431 1.327 . S
C433 C449 1.429 . S
C433 H455 0.950 . S
C434 H430 0.949 . S
C434 C442 1.574 . S
C434 C450 1.368 . S
H435 C443 0.950 . S
H436 C441 0.950 . S
H437 C442 0.949 . S
H438 C444 0.950 . S
H439 C445 0.950 . S
H440 C446 0.949 . S
C441 H436 0.950 . S
C441 C443 1.327 . S
C441 C447 1.429 . S
C442 C434 1.574 . S
C442 H437 0.949 . S
C442 C448 1.368 . S
C443 C427 1.349 . S
C443 H435 0.950 . S
C443 C441 1.327 . S
C444 C432 1.349 . S
C444 H438 0.950 . S
C444 C445 1.327 . S
C445 H439 0.950 . S
C445 C444 1.327 . S
C445 C449 1.429 . S
C446 C429 1.574 . S
C446 H440 0.949 . S
C446 C450 1.368 . S
C447 C428 1.429 . S
C447 C441 1.429 . S
C447 C448 1.523 . S
C448 C429 1.368 . S
C448 C442 1.368 . S
C448 C447 1.523 . S
C449 C433 1.429 . S
C449 C445 1.429 . S
C449 C450 1.523 . S
C450 C434 1.368 . S
C450 C446 1.368 . S
C450 C449 1.523 . S
H451 C426 0.950 . S
H452 C428 0.950 . S
H453 C429 0.949 . S
H454 C431 0.950 . S
H455 C433 0.950 . S
C456 C457 1.349 . S
C456 C458 1.327 . S
C456 H481 0.950 . S
C457 C456 1.349 . S
C457 C473 1.349 . S
C458 C456 1.327 . S
C458 C477 1.429 . S
C458 H482 0.950 . S
C459 C476 1.574 . S
C459 C478 1.368 . S
C459 H483 0.949 . S
H460 C464 0.949 . S
C461 C462 1.349 . S
C461 C463 1.327 . S
C461 H484 0.950 . S
C462 C461 1.349 . S
C462 C474 1.349 . S
C463 C461 1.327 . S
C463 C479 1.429 . S
C463 H485 0.950 . S
C464 H460 0.949 . S
C464 C472 1.574 . S
C464 C480 1.368 . S
H465 C473 0.950 1_554 S
H466 C471 0.950 . S
H467 C472 0.949 . S
H468 C474 0.950 . S
H469 C475 0.950 . S
H470 C476 0.949 . S
C471 H466 0.950 . S
C471 C473 1.327 . S
C471 C477 1.429 . S
C472 C464 1.574 . S
C472 H467 0.949 . S
C472 C478 1.368 . S
C473 C457 1.349 . S
C473 H465 0.950 1_556 S
C473 C471 1.327 . S
C474 C462 1.349 . S
C474 H468 0.950 . S
C474 C475 1.327 . S
C475 H469 0.950 . S
C475 C474 1.327 . S
C475 C479 1.429 . S
C476 C459 1.574 . S
C476 H470 0.949 . S
C476 C480 1.368 . S
C477 C458 1.429 . S
C477 C471 1.429 . S
C477 C478 1.523 . S
C478 C459 1.368 . S
C478 C472 1.368 . S
C478 C477 1.523 . S
C479 C463 1.429 . S
C479 C475 1.429 . S
C479 C480 1.523 . S
C480 C464 1.368 . S
C480 C476 1.368 . S
C480 C479 1.523 . S
H481 C456 0.950 . S
H482 C458 0.950 . S
H483 C459 0.949 . S
H484 C461 0.950 . S
H485 C463 0.950 . S
C486 C487 1.349 . S
C486 C488 1.327 . S
C486 H511 0.950 . S
C487 C486 1.349 . S
C487 C503 1.349 . S
C488 C486 1.327 . S
C488 C507 1.429 . S
C488 H512 0.950 . S
C489 C506 1.574 . S
C489 C508 1.368 . S
C489 H513 0.949 . S
H490 C494 0.949 . S
C491 C492 1.349 . S
C491 C493 1.327 . S
C491 H514 0.950 . S
C492 C491 1.349 . S
C492 C504 1.349 . S
C493 C491 1.327 . S
C493 C509 1.429 . S
C493 H515 0.950 . S
C494 H490 0.949 . S
C494 C502 1.574 . S
C494 C510 1.368 . S
H495 C503 0.950 . S
H496 C501 0.950 . S
H497 C502 0.949 . S
H498 C504 0.950 . S
H499 C505 0.950 . S
H500 C506 0.949 . S
C501 H496 0.950 . S
C501 C503 1.327 . S
C501 C507 1.429 . S
C502 C494 1.574 . S
C502 H497 0.949 . S
C502 C508 1.368 . S
C503 C487 1.349 . S
C503 H495 0.950 . S
C503 C501 1.327 . S
C504 C492 1.349 . S
C504 H498 0.950 . S
C504 C505 1.327 . S
C505 H499 0.950 . S
C505 C504 1.327 . S
C505 C509 1.429 . S
C506 C489 1.574 . S
C506 H500 0.949 . S
C506 C510 1.368 . S
C507 C488 1.429 . S
C507 C501 1.429 . S
C507 C508 1.523 . S
C508 C489 1.368 . S
C508 C502 1.368 . S
C508 C507 1.523 . S
C509 C493 1.429 . S
C509 C505 1.429 . S
C509 C510 1.523 . S
C510 C494 1.368 . S
C510 C506 1.368 . S
C510 C509 1.523 . S
H511 C486 0.950 . S
H512 C488 0.950 . S
H513 C489 0.949 . S
H514 C491 0.950 . S
H515 C493 0.950 . S
C516 C517 1.349 . S
C516 C518 1.327 . S
C516 H541 0.950 . S
C517 C516 1.349 . S
C517 C533 1.349 . S
C518 C516 1.327 . S
C518 C537 1.429 . S
C518 H542 0.950 . S
C519 C536 1.574 . S
C519 C538 1.368 . S
C519 H543 0.949 . S
H520 C524 0.949 . S
C521 C522 1.349 . S
C521 C523 1.327 . S
C521 H544 0.950 . S
C522 C521 1.349 . S
C522 C534 1.349 . S
C523 C521 1.327 . S
C523 C539 1.429 . S
C523 H545 0.950 . S
C524 H520 0.949 . S
C524 C532 1.574 . S
C524 C540 1.368 . S
H525 C533 0.950 1_554 S
H526 C531 0.950 . S
H527 C532 0.949 . S
H528 C534 0.950 . S
H529 C535 0.950 . S
H530 C536 0.949 . S
C531 H526 0.950 . S
C531 C533 1.327 . S
C531 C537 1.429 . S
C532 C524 1.574 . S
C532 H527 0.949 . S
C532 C538 1.368 . S
C533 C517 1.349 . S
C533 H525 0.950 1_556 S
C533 C531 1.327 . S
C534 C522 1.349 . S
C534 H528 0.950 . S
C534 C535 1.327 . S
C535 H529 0.950 . S
C535 C534 1.327 . S
C535 C539 1.429 . S
C536 C519 1.574 . S
C536 H530 0.949 . S
C536 C540 1.368 . S
C537 C518 1.429 . S
C537 C531 1.429 . S
C537 C538 1.523 . S
C538 C519 1.368 . S
C538 C532 1.368 . S
C538 C537 1.523 . S
C539 C523 1.429 . S
C539 C535 1.429 . S
C539 C540 1.523 . S
C540 C524 1.368 . S
C540 C536 1.368 . S
C540 C539 1.523 . S
H541 C516 0.950 . S
H542 C518 0.950 . S
H543 C519 0.949 . S
H544 C521 0.950 . S
H545 C523 0.950 . S
C546 C547 1.349 . S
C546 C548 1.327 . S
C546 H571 0.950 . S
C547 C546 1.349 . S
C547 C563 1.349 . S
C548 C546 1.327 . S
C548 C567 1.429 . S
C548 H572 0.950 . S
C549 C566 1.574 . S
C549 C568 1.368 . S
C549 H573 0.949 . S
H550 C554 0.949 . S
C551 C552 1.349 . S
C551 C553 1.327 . S
C551 H574 0.950 . S
C552 C551 1.349 . S
C552 C564 1.349 . S
C553 C551 1.327 . S
C553 C569 1.429 . S
C553 H575 0.950 . S
C554 H550 0.949 . S
C554 C562 1.574 . S
C554 C570 1.368 . S
H555 C563 0.950 . S
H556 C561 0.950 . S
H557 C562 0.949 . S
H558 C564 0.950 . S
H559 C565 0.950 . S
H560 C566 0.949 . S
C561 H556 0.950 . S
C561 C563 1.327 . S
C561 C567 1.429 . S
C562 C554 1.574 . S
C562 H557 0.949 . S
C562 C568 1.368 . S
C563 C547 1.349 . S
C563 H555 0.950 . S
C563 C561 1.327 . S
C564 C552 1.349 . S
C564 H558 0.950 . S
C564 C565 1.327 . S
C565 H559 0.950 . S
C565 C564 1.327 . S
C565 C569 1.429 . S
C566 C549 1.574 . S
C566 H560 0.949 . S
C566 C570 1.368 . S
C567 C548 1.429 . S
C567 C561 1.429 . S
C567 C568 1.523 . S
C568 C549 1.368 . S
C568 C562 1.368 . S
C568 C567 1.523 . S
C569 C553 1.429 . S
C569 C565 1.429 . S
C569 C570 1.523 . S
C570 C554 1.368 . S
C570 C566 1.368 . S
C570 C569 1.523 . S
H571 C546 0.950 . S
H572 C548 0.950 . S
H573 C549 0.949 . S
H574 C551 0.950 . S
H575 C553 0.950 . S
C576 C577 1.349 . S
C576 C578 1.327 . S
C576 H601 0.950 . S
C577 C576 1.349 . S
C577 C593 1.349 . S
C578 C576 1.327 . S
C578 C597 1.429 . S
C578 H602 0.950 . S
C579 C596 1.574 . S
C579 C598 1.368 . S
C579 H603 0.949 . S
H580 C584 0.949 . S
C581 C582 1.349 . S
C581 C583 1.327 . S
C581 H604 0.950 . S
C582 C581 1.349 . S
C582 C594 1.349 . S
C583 C581 1.327 . S
C583 C599 1.429 . S
C583 H605 0.950 . S
C584 H580 0.949 . S
C584 C592 1.574 . S
C584 C600 1.368 . S
H585 C593 0.950 . S
H586 C591 0.950 . S
H587 C592 0.949 . S
H588 C594 0.950 . S
H589 C595 0.950 . S
H590 C596 0.949 . S
C591 H586 0.950 . S
C591 C593 1.327 . S
C591 C597 1.429 . S
C592 C584 1.574 . S
C592 H587 0.949 . S
C592 C598 1.368 . S
C593 C577 1.349 . S
C593 H585 0.950 . S
C593 C591 1.327 . S
C594 C582 1.349 . S
C594 H588 0.950 . S
C594 C595 1.327 . S
C595 H589 0.950 . S
C595 C594 1.327 . S
C595 C599 1.429 . S
C596 C579 1.574 . S
C596 H590 0.949 . S
C596 C600 1.368 . S
C597 C578 1.429 . S
C597 C591 1.429 . S
C597 C598 1.523 . S
C598 C579 1.368 . S
C598 C592 1.368 . S
C598 C597 1.523 . S
C599 C583 1.429 . S
C599 C595 1.429 . S
C599 C600 1.523 . S
C600 C584 1.368 . S
C600 C596 1.368 . S
C600 C599 1.523 . S
H601 C576 0.950 . S
H602 C578 0.950 . S
H603 C579 0.949 . S
H604 C581 0.950 . S
H605 C583 0.950 . S
C606 C607 1.349 . S
C606 C608 1.327 . S
C606 H631 0.950 . S
C607 C606 1.349 . S
C607 C623 1.349 . S
C608 C606 1.327 . S
C608 C627 1.429 . S
C608 H632 0.950 . S
C609 C626 1.574 . S
C609 C628 1.368 . S
C609 H633 0.949 . S
H610 C614 0.949 . S
C611 C612 1.349 . S
C611 C613 1.327 . S
C611 H634 0.950 . S
C612 C611 1.349 . S
C612 C624 1.349 . S
C613 C611 1.327 . S
C613 C629 1.429 . S
C613 H635 0.950 . S
C614 H610 0.949 . S
C614 C622 1.574 . S
C614 C630 1.368 . S
H615 C623 0.950 . S
H616 C621 0.950 . S
H617 C622 0.949 . S
H618 C624 0.950 . S
H619 C625 0.950 . S
H620 C626 0.949 . S
C621 H616 0.950 . S
C621 C623 1.327 . S
C621 C627 1.429 . S
C622 C614 1.574 . S
C622 H617 0.949 . S
C622 C628 1.368 . S
C623 C607 1.349 . S
C623 H615 0.950 . S
C623 C621 1.327 . S
C624 C612 1.349 . S
C624 H618 0.950 . S
C624 C625 1.327 . S
C625 H619 0.950 . S
C625 C624 1.327 . S
C625 C629 1.429 . S
C626 C609 1.574 . S
C626 H620 0.949 . S
C626 C630 1.368 . S
C627 C608 1.429 . S
C627 C621 1.429 . S
C627 C628 1.523 . S
C628 C609 1.368 . S
C628 C622 1.368 . S
C628 C627 1.523 . S
C629 C613 1.429 . S
C629 C625 1.429 . S
C629 C630 1.523 . S
C630 C614 1.368 . S
C630 C626 1.368 . S
C630 C629 1.523 . S
H631 C606 0.950 . S
H632 C608 0.950 . S
H633 C609 0.949 . S
H634 C611 0.950 . S
H635 C613 0.950 . S
C636 C637 1.349 . S
C636 C638 1.327 . S
C636 H661 0.950 . S
C637 C636 1.349 . S
C637 C653 1.349 . S
C638 C636 1.327 . S
C638 C657 1.429 . S
C638 H662 0.950 . S
C639 C656 1.574 . S
C639 C658 1.368 . S
C639 H663 0.949 . S
H640 C644 0.949 . S
C641 C642 1.349 . S
C641 C643 1.327 . S
C641 H664 0.950 . S
C642 C641 1.349 . S
C642 C654 1.349 . S
C643 C641 1.327 . S
C643 C659 1.429 . S
C643 H665 0.950 . S
C644 H640 0.949 . S
C644 C652 1.574 . S
C644 C660 1.368 . S
H645 C653 0.950 . S
H646 C651 0.950 . S
H647 C652 0.949 . S
H648 C654 0.950 . S
H649 C655 0.950 . S
H650 C656 0.949 . S
C651 H646 0.950 . S
C651 C653 1.327 . S
C651 C657 1.429 . S
C652 C644 1.574 . S
C652 H647 0.949 . S
C652 C658 1.368 . S
C653 C637 1.349 . S
C653 H645 0.950 . S
C653 C651 1.327 . S
C654 C642 1.349 . S
C654 H648 0.950 . S
C654 C655 1.327 . S
C655 H649 0.950 . S
C655 C654 1.327 . S
C655 C659 1.429 . S
C656 C639 1.574 . S
C656 H650 0.949 . S
C656 C660 1.368 . S
C657 C638 1.429 . S
C657 C651 1.429 . S
C657 C658 1.523 . S
C658 C639 1.368 . S
C658 C652 1.368 . S
C658 C657 1.523 . S
C659 C643 1.429 . S
C659 C655 1.429 . S
C659 C660 1.523 . S
C660 C644 1.368 . S
C660 C656 1.368 . S
C660 C659 1.523 . S
H661 C636 0.950 . S
H662 C638 0.950 . S
H663 C639 0.949 . S
H664 C641 0.950 . S
H665 C643 0.950 . S
C666 C667 1.349 . S
C666 C668 1.327 . S
C666 H691 0.950 . S
C667 C666 1.349 . S
C667 C683 1.349 . S
C668 C666 1.327 . S
C668 C687 1.429 . S
C668 H692 0.950 . S
C669 C686 1.574 . S
C669 C688 1.368 . S
C669 H693 0.949 . S
H670 C674 0.949 . S
C671 C672 1.349 . S
C671 C673 1.327 . S
C671 H694 0.950 . S
C672 C671 1.349 . S
C672 C684 1.349 . S
C673 C671 1.327 . S
C673 C689 1.429 . S
C673 H695 0.950 . S
C674 H670 0.949 . S
C674 C682 1.574 . S
C674 C690 1.368 . S
H675 C683 0.950 . S
H676 C681 0.950 . S
H677 C682 0.949 . S
H678 C684 0.950 . S
H679 C685 0.950 . S
H680 C686 0.949 . S
C681 H676 0.950 . S
C681 C683 1.327 . S
C681 C687 1.429 . S
C682 C674 1.574 . S
C682 H677 0.949 . S
C682 C688 1.368 . S
C683 C667 1.349 . S
C683 H675 0.950 . S
C683 C681 1.327 . S
C684 C672 1.349 . S
C684 H678 0.950 . S
C684 C685 1.327 . S
C685 H679 0.950 . S
C685 C684 1.327 . S
C685 C689 1.429 . S
C686 C669 1.574 . S
C686 H680 0.949 . S
C686 C690 1.368 . S
C687 C668 1.429 . S
C687 C681 1.429 . S
C687 C688 1.523 . S
C688 C669 1.368 . S
C688 C682 1.368 . S
C688 C687 1.523 . S
C689 C673 1.429 . S
C689 C685 1.429 . S
C689 C690 1.523 . S
C690 C674 1.368 . S
C690 C686 1.368 . S
C690 C689 1.523 . S
H691 C666 0.950 . S
H692 C668 0.950 . S
H693 C669 0.949 . S
H694 C671 0.950 . S
H695 C673 0.950 . S
C696 C697 1.349 . S
C696 C698 1.327 . S
C696 H721 0.950 . S
C697 C696 1.349 . S
C697 C713 1.349 . S
C698 C696 1.327 . S
C698 C717 1.429 . S
C698 H722 0.950 . S
C699 C716 1.574 . S
C699 C718 1.368 . S
C699 H723 0.949 . S
H700 C704 0.949 . S
C701 C702 1.349 . S
C701 C703 1.327 . S
C701 H724 0.950 . S
C702 C701 1.349 . S
C702 C714 1.349 . S
C703 C701 1.327 . S
C703 C719 1.429 . S
C703 H725 0.950 . S
C704 H700 0.949 . S
C704 C712 1.574 . S
C704 C720 1.368 . S
H705 C713 0.950 . S
H706 C711 0.950 . S
H707 C712 0.949 . S
H708 C714 0.950 . S
H709 C715 0.950 . S
H710 C716 0.949 . S
C711 H706 0.950 . S
C711 C713 1.327 . S
C711 C717 1.429 . S
C712 C704 1.574 . S
C712 H707 0.949 . S
C712 C718 1.368 . S
C713 C697 1.349 . S
C713 H705 0.950 . S
C713 C711 1.327 . S
C714 C702 1.349 . S
C714 H708 0.950 . S
C714 C715 1.327 . S
C715 H709 0.950 . S
C715 C714 1.327 . S
C715 C719 1.429 . S
C716 C699 1.574 . S
C716 H710 0.949 . S
C716 C720 1.368 . S
C717 C698 1.429 . S
C717 C711 1.429 . S
C717 C718 1.523 . S
C718 C699 1.368 . S
C718 C712 1.368 . S
C718 C717 1.523 . S
C719 C703 1.429 . S
C719 C715 1.429 . S
C719 C720 1.523 . S
C720 C704 1.368 . S
C720 C716 1.368 . S
C720 C719 1.523 . S
H721 C696 0.950 . S
H722 C698 0.950 . S
H723 C699 0.949 . S
H724 C701 0.950 . S
H725 C703 0.950 . S
C726 C727 1.349 . S
C726 C728 1.327 . S
C726 H751 0.950 . S
C727 C726 1.349 . S
C727 C743 1.349 . S
C728 C726 1.327 . S
C728 C747 1.429 . S
C728 H752 0.950 . S
C729 C746 1.574 . S
C729 C748 1.368 . S
C729 H753 0.949 . S
H730 C734 0.949 . S
C731 C732 1.349 . S
C731 C733 1.327 . S
C731 H754 0.950 . S
C732 C731 1.349 . S
C732 C744 1.349 . S
C733 C731 1.327 . S
C733 C749 1.429 . S
C733 H755 0.950 . S
C734 H730 0.949 . S
C734 C742 1.574 . S
C734 C750 1.368 . S
H735 C743 0.952 . S
H736 C741 0.950 . S
H737 C742 0.949 . S
H738 C744 0.950 . S
H739 C745 0.950 . S
H740 C746 0.949 . S
C741 H736 0.950 . S
C741 C743 1.327 . S
C741 C747 1.429 . S
C742 C734 1.574 . S
C742 H737 0.949 . S
C742 C748 1.368 . S
C743 C727 1.349 . S
C743 H735 0.952 . S
C743 C741 1.327 . S
C744 C732 1.349 . S
C744 H738 0.950 . S
C744 C745 1.327 . S
C745 H739 0.950 . S
C745 C744 1.327 . S
C745 C749 1.429 . S
C746 C729 1.574 . S
C746 H740 0.949 . S
C746 C750 1.368 . S
C747 C728 1.429 . S
C747 C741 1.429 . S
C747 C748 1.523 . S
C748 C729 1.368 . S
C748 C742 1.368 . S
C748 C747 1.523 . S
C749 C733 1.429 . S
C749 C745 1.429 . S
C749 C750 1.523 . S
C750 C734 1.368 . S
C750 C746 1.368 . S
C750 C749 1.523 . S
H751 C726 0.950 . S
H752 C728 0.950 . S
H753 C729 0.949 . S
H754 C731 0.950 . S
H755 C733 0.950 . S
C756 C757 1.349 . S
C756 C758 1.327 . S
C756 H781 0.950 . S
C757 C756 1.349 . S
C757 C773 1.349 . S
C758 C756 1.327 . S
C758 C777 1.429 . S
C758 H782 0.950 . S
C759 C776 1.574 . S
C759 C778 1.368 . S
C759 H783 0.949 . S
H760 C764 0.949 . S
C761 C762 1.349 . S
C761 C763 1.327 . S
C761 H784 0.950 . S
C762 C761 1.349 . S
C762 C774 1.349 . S
C763 C761 1.327 . S
C763 C779 1.429 . S
C763 H785 0.950 . S
C764 H760 0.949 . S
C764 C772 1.574 . S
C764 C780 1.368 . S
H765 C773 0.950 . S
H766 C771 0.950 . S
H767 C772 0.949 . S
H768 C774 0.950 . S
H769 C775 0.950 . S
H770 C776 0.949 . S
C771 H766 0.950 . S
C771 C773 1.327 . S
C771 C777 1.429 . S
C772 C764 1.574 . S
C772 H767 0.949 . S
C772 C778 1.368 . S
C773 C757 1.349 . S
C773 H765 0.950 . S
C773 C771 1.327 . S
C774 C762 1.349 . S
C774 H768 0.950 . S
C774 C775 1.327 . S
C775 H769 0.950 . S
C775 C774 1.327 . S
C775 C779 1.429 . S
C776 C759 1.574 . S
C776 H770 0.949 . S
C776 C780 1.368 . S
C777 C758 1.429 . S
C777 C771 1.429 . S
C777 C778 1.523 . S
C778 C759 1.368 . S
C778 C772 1.368 . S
C778 C777 1.523 . S
C779 C763 1.429 . S
C779 C775 1.429 . S
C779 C780 1.523 . S
C780 C764 1.368 . S
C780 C776 1.368 . S
C780 C779 1.523 . S
H781 C756 0.950 . S
H782 C758 0.950 . S
H783 C759 0.949 . S
H784 C761 0.950 . S
H785 C763 0.950 . S
C786 C787 1.349 . S
C786 C788 1.327 . S
C786 H811 0.950 . S
C787 C786 1.349 . S
C787 C803 1.349 . S
C788 C786 1.327 . S
C788 C807 1.429 . S
C788 H812 0.950 . S
C789 C806 1.574 . S
C789 C808 1.368 . S
C789 H813 0.949 . S
H790 C794 0.949 . S
C791 C792 1.349 . S
C791 C793 1.327 . S
C791 H814 0.950 . S
C792 C791 1.349 . S
C792 C804 1.349 . S
C793 C791 1.327 . S
C793 C809 1.429 . S
C793 H815 0.950 . S
C794 H790 0.949 . S
C794 C802 1.574 . S
C794 C810 1.368 . S
H795 C803 0.950 . S
H796 C801 0.950 . S
H797 C802 0.949 . S
H798 C804 0.950 . S
H799 C805 0.950 . S
H800 C806 0.949 . S
C801 H796 0.950 . S
C801 C803 1.327 . S
C801 C807 1.429 . S
C802 C794 1.574 . S
C802 H797 0.949 . S
C802 C808 1.368 . S
C803 C787 1.349 . S
C803 H795 0.950 . S
C803 C801 1.327 . S
C804 C792 1.349 . S
C804 H798 0.950 . S
C804 C805 1.327 . S
C805 H799 0.950 . S
C805 C804 1.327 . S
C805 C809 1.429 . S
C806 C789 1.574 . S
C806 H800 0.949 . S
C806 C810 1.368 . S
C807 C788 1.429 . S
C807 C801 1.429 . S
C807 C808 1.523 . S
C808 C789 1.368 . S
C808 C802 1.368 . S
C808 C807 1.523 . S
C809 C793 1.429 . S
C809 C805 1.429 . S
C809 C810 1.523 . S
C810 C794 1.368 . S
C810 C806 1.368 . S
C810 C809 1.523 . S
H811 C786 0.950 . S
H812 C788 0.950 . S
H813 C789 0.949 . S
H814 C791 0.950 . S
H815 C793 0.950 . S
C816 C817 1.349 . S
C816 C818 1.327 . S
C816 H841 0.950 . S
C817 C816 1.349 . S
C817 C833 1.349 . S
C818 C816 1.327 . S
C818 C837 1.429 . S
C818 H842 0.950 . S
C819 C836 1.574 . S
C819 C838 1.368 . S
C819 H843 0.949 . S
H820 C824 0.949 . S
C821 C822 1.349 . S
C821 C823 1.327 . S
C821 H844 0.950 . S
C822 C821 1.349 . S
C822 C834 1.349 . S
C823 C821 1.327 . S
C823 C839 1.429 . S
C823 H845 0.950 . S
C824 H820 0.949 . S
C824 C832 1.574 . S
C824 C840 1.368 . S
H825 C833 0.950 . S
H826 C831 0.950 . S
H827 C832 0.949 . S
H828 C834 0.950 . S
H829 C835 0.950 . S
H830 C836 0.949 . S
C831 H826 0.950 . S
C831 C833 1.327 . S
C831 C837 1.429 . S
C832 C824 1.574 . S
C832 H827 0.949 . S
C832 C838 1.368 . S
C833 C817 1.349 . S
C833 H825 0.950 . S
C833 C831 1.327 . S
C834 C822 1.349 . S
C834 H828 0.950 . S
C834 C835 1.327 . S
C835 H829 0.950 . S
C835 C834 1.327 . S
C835 C839 1.429 . S
C836 C819 1.574 . S
C836 H830 0.949 . S
C836 C840 1.368 . S
C837 C818 1.429 . S
C837 C831 1.429 . S
C837 C838 1.523 . S
C838 C819 1.368 . S
C838 C832 1.368 . S
C838 C837 1.523 . S
C839 C823 1.429 . S
C839 C835 1.429 . S
C839 C840 1.523 . S
C840 C824 1.368 . S
C840 C836 1.368 . S
C840 C839 1.523 . S
H841 C816 0.950 . S
H842 C818 0.950 . S
H843 C819 0.949 . S
H844 C821 0.950 . S
H845 C823 0.950 . S
C846 C847 1.349 . S
C846 C848 1.327 . S
C846 H871 0.950 . S
C847 C846 1.349 . S
C847 C863 1.349 . S
C848 C846 1.327 . S
C848 C867 1.429 . S
C848 H872 0.950 . S
C849 C866 1.574 . S
C849 C868 1.368 . S
C849 H873 0.949 . S
H850 C854 0.949 . S
C851 C852 1.349 . S
C851 C853 1.327 . S
C851 H874 0.950 . S
C852 C851 1.349 . S
C852 C864 1.349 . S
C853 C851 1.327 . S
C853 C869 1.429 . S
C853 H875 0.950 . S
C854 H850 0.949 . S
C854 C862 1.574 . S
C854 C870 1.368 . S
H855 C863 0.950 . S
H856 C861 0.950 . S
H857 C862 0.949 . S
H858 C864 0.950 . S
H859 C865 0.950 . S
H860 C866 0.949 . S
C861 H856 0.950 . S
C861 C863 1.327 . S
C861 C867 1.429 . S
C862 C854 1.574 . S
C862 H857 0.949 . S
C862 C868 1.368 . S
C863 C847 1.349 . S
C863 H855 0.950 . S
C863 C861 1.327 . S
C864 C852 1.349 . S
C864 H858 0.950 . S
C864 C865 1.327 . S
C865 H859 0.950 . S
C865 C864 1.327 . S
C865 C869 1.429 . S
C866 C849 1.574 . S
C866 H860 0.949 . S
C866 C870 1.368 . S
C867 C848 1.429 . S
C867 C861 1.429 . S
C867 C868 1.523 . S
C868 C849 1.368 . S
C868 C862 1.368 . S
C868 C867 1.523 . S
C869 C853 1.429 . S
C869 C865 1.429 . S
C869 C870 1.523 . S
C870 C854 1.368 . S
C870 C866 1.368 . S
C870 C869 1.523 . S
H871 C846 0.950 . S
H872 C848 0.950 . S
H873 C849 0.949 . S
H874 C851 0.950 . S
H875 C853 0.950 . S
C876 C877 1.349 . S
C876 C878 1.327 . S
C876 H901 0.950 . S
C877 C876 1.349 . S
C877 C893 1.349 . S
C878 C876 1.327 . S
C878 C897 1.429 . S
C878 H902 0.950 . S
C879 C896 1.574 . S
C879 C898 1.368 . S
C879 H903 0.949 . S
H880 C884 0.949 . S
C881 C882 1.349 . S
C881 C883 1.327 . S
C881 H904 0.950 . S
C882 C881 1.349 . S
C882 C894 1.349 . S
C883 C881 1.327 . S
C883 C899 1.429 . S
C883 H905 0.950 . S
C884 H880 0.949 . S
C884 C892 1.574 . S
C884 C900 1.368 . S
H885 C893 0.950 . S
H886 C891 0.950 . S
H887 C892 0.949 . S
H888 C894 0.950 . S
H889 C895 0.950 . S
H890 C896 0.949 . S
C891 H886 0.950 . S
C891 C893 1.327 . S
C891 C897 1.429 . S
C892 C884 1.574 . S
C892 H887 0.949 . S
C892 C898 1.368 . S
C893 C877 1.349 . S
C893 H885 0.950 . S
C893 C891 1.327 . S
C894 C882 1.349 . S
C894 H888 0.950 . S
C894 C895 1.327 . S
C895 H889 0.950 . S
C895 C894 1.327 . S
C895 C899 1.429 . S
C896 C879 1.574 . S
C896 H890 0.949 . S
C896 C900 1.368 . S
C897 C878 1.429 . S
C897 C891 1.429 . S
C897 C898 1.523 . S
C898 C879 1.368 . S
C898 C892 1.368 . S
C898 C897 1.523 . S
C899 C883 1.429 . S
C899 C895 1.429 . S
C899 C900 1.523 . S
C900 C884 1.368 . S
C900 C896 1.368 . S
C900 C899 1.523 . S
H901 C876 0.950 . S
H902 C878 0.950 . S
H903 C879 0.949 . S
H904 C881 0.950 . S
H905 C883 0.950 . S
C906 C907 1.349 . S
C906 C908 1.327 . S
C906 H931 0.950 . S
C907 C906 1.349 . S
C907 C923 1.349 . S
C908 C906 1.327 . S
C908 C927 1.429 . S
C908 H932 0.950 . S
C909 C926 1.574 . S
C909 C928 1.368 . S
C909 H933 0.949 . S
H910 C914 0.949 . S
C911 C912 1.349 . S
C911 C913 1.327 . S
C911 H934 0.950 . S
C912 C911 1.349 . S
C912 C924 1.349 . S
C913 C911 1.327 . S
C913 C929 1.429 . S
C913 H935 0.950 . S
C914 H910 0.949 . S
C914 C922 1.574 . S
C914 C930 1.368 . S
H915 C923 0.950 . S
H916 C921 0.950 . S
H917 C922 0.949 . S
H918 C924 0.950 . S
H919 C925 0.950 . S
H920 C926 0.949 . S
C921 H916 0.950 . S
C921 C923 1.327 . S
C921 C927 1.429 . S
C922 C914 1.574 . S
C922 H917 0.949 . S
C922 C928 1.368 . S
C923 C907 1.349 . S
C923 H915 0.950 . S
C923 C921 1.327 . S
C924 C912 1.349 . S
C924 H918 0.950 . S
C924 C925 1.327 . S
C925 H919 0.950 . S
C925 C924 1.327 . S
C925 C929 1.429 . S
C926 C909 1.574 . S
C926 H920 0.949 . S
C926 C930 1.368 . S
C927 C908 1.429 . S
C927 C921 1.429 . S
C927 C928 1.523 . S
C928 C909 1.368 . S
C928 C922 1.368 . S
C928 C927 1.523 . S
C929 C913 1.429 . S
C929 C925 1.429 . S
C929 C930 1.523 . S
C930 C914 1.368 . S
C930 C926 1.368 . S
C930 C929 1.523 . S
H931 C906 0.950 . S
H932 C908 0.950 . S
H933 C909 0.949 . S
H934 C911 0.950 . S
H935 C913 0.950 . S
C936 C937 1.349 . S
C936 C938 1.327 . S
C936 H961 0.950 . S
C937 C936 1.349 . S
C937 C953 1.349 . S
C938 C936 1.327 . S
C938 C957 1.429 . S
C938 H962 0.950 . S
C939 C956 1.574 . S
C939 C958 1.368 . S
C939 H963 0.949 . S
H940 C944 0.949 . S
C941 C942 1.349 . S
C941 C943 1.327 . S
C941 H964 0.950 . S
C942 C941 1.349 . S
C942 C954 1.349 . S
C943 C941 1.327 . S
C943 C959 1.429 . S
C943 H965 0.950 . S
C944 H940 0.949 . S
C944 C952 1.574 . S
C944 C960 1.368 . S
H945 C953 0.950 . S
H946 C951 0.950 . S
H947 C952 0.949 . S
H948 C954 0.950 . S
H949 C955 0.950 . S
H950 C956 0.949 . S
C951 H946 0.950 . S
C951 C953 1.327 . S
C951 C957 1.429 . S
C952 C944 1.574 . S
C952 H947 0.949 . S
C952 C958 1.368 . S
C953 C937 1.349 . S
C953 H945 0.950 . S
C953 C951 1.327 . S
C954 C942 1.349 . S
C954 H948 0.950 . S
C954 C955 1.327 . S
C955 H949 0.950 . S
C955 C954 1.327 . S
C955 C959 1.429 . S
C956 C939 1.574 . S
C956 H950 0.949 . S
C956 C960 1.368 . S
C957 C938 1.429 . S
C957 C951 1.429 . S
C957 C958 1.523 . S
C958 C939 1.368 . S
C958 C952 1.368 . S
C958 C957 1.523 . S
C959 C943 1.429 . S
C959 C955 1.429 . S
C959 C960 1.523 . S
C960 C944 1.368 . S
C960 C956 1.368 . S
C960 C959 1.523 . S
H961 C936 0.950 . S
H962 C938 0.950 . S
H963 C939 0.949 . S
H964 C941 0.950 . S
H965 C943 0.950 . S
C247 C7 1.758 . S
C252 C152 1.683 . S
C277 C30 1.521 . S
C282 C163 1.462 . S
C312 C182 1.580 . S
C307 N58 1.604 . S
C342 C199 1.357 . S
C337 N81 1.368 . S
C372 C226 1.598 . S
C367 C99 1.642 . S
C402 C235 1.376 . S
C397 N127 1.398 . S
C427 N25 1.609 . S
C432 C188 1.576 . S
C457 C62 1.503 1_556 S
C462 C208 1.460 . S
C492 C217 1.645 . S
C487 C85 1.706 . S
C522 C244 1.387 . S
C517 N94 1.402 . S
C547 C131 1.675 . S
C552 C146 1.629 . S
C582 C172 1.359 . S
C577 N2 1.368 . S
C612 C200 1.672 . S
C607 C16 1.759 . S
C637 C39 1.533 . S
C642 C224 1.467 . S
C672 C236 1.596 . S
C667 N48 1.641 . S
C697 N71 1.414 . S
C702 C154 1.366 . S
C727 C108 1.693 . S
C732 C164 1.634 . S
C757 N117 1.442 . S
C762 C181 1.392 . S
C787 N35 1.653 . S
C792 C242 1.611 . S
C822 C145 1.478 . S
C817 C53 1.568 . S
C847 C76 1.792 . S
C852 C170 1.705 . S
C877 N104 1.436 . S
C882 C190 1.378 . S
C907 C122 1.688 . S
C912 C206 1.622 . S
C937 N12 1.385 . S
C942 C218 1.360 . S
