# Generated by pormake.
# Topology csq, (4,8)-cn, num edge types: 1
# Building blocks:
#     Node 0, Type 0, BuildingBlock: AZAVOO_clean_linker_0, # of connection points: 4
#     Node 1, Type 0, BuildingBlock: AZAVOO_clean_linker_0, # of connection points: 4
#     Node 2, Type 0, BuildingBlock: AZAVOO_clean_linker_0, # of connection points: 4
#     Node 3, Type 0, BuildingBlock: AZAVOO_clean_linker_0, # of connection points: 4
#     Node 4, Type 0, BuildingBlock: AZAVOO_clean_linker_0, # of connection points: 4
#     Node 5, Type 0, BuildingBlock: AZAVOO_clean_linker_0, # of connection points: 4
#     Node 6, Type 1, BuildingBlock: TAGTUT_clean_sbu_1, # of connection points: 8
#     Node 7, Type 1, BuildingBlock: TAGTUT_clean_sbu_1, # of connection points: 8
#     Node 8, Type 1, BuildingBlock: TAGTUT_clean_sbu_1, # of connection points: 8
#     Edge 9, Type (0, 1), BuildingBlock: EZIPEK_clean_linker_0, # of connection points: 2
#     Edge 10, Type (0, 1), BuildingBlock: EZIPEK_clean_linker_0, # of connection points: 2
#     Edge 11, Type (0, 1), BuildingBlock: EZIPEK_clean_linker_0, # of connection points: 2
#     Edge 12, Type (0, 1), BuildingBlock: EZIPEK_clean_linker_0, # of connection points: 2
#     Edge 13, Type (0, 1), BuildingBlock: EZIPEK_clean_linker_0, # of connection points: 2
#     Edge 14, Type (0, 1), BuildingBlock: EZIPEK_clean_linker_0, # of connection points: 2
#     Edge 15, Type (0, 1), BuildingBlock: EZIPEK_clean_linker_0, # of connection points: 2
#     Edge 16, Type (0, 1), BuildingBlock: EZIPEK_clean_linker_0, # of connection points: 2
#     Edge 17, Type (0, 1), BuildingBlock: EZIPEK_clean_linker_0, # of connection points: 2
#     Edge 18, Type (0, 1), BuildingBlock: EZIPEK_clean_linker_0, # of connection points: 2
#     Edge 19, Type (0, 1), BuildingBlock: EZIPEK_clean_linker_0, # of connection points: 2
#     Edge 20, Type (0, 1), BuildingBlock: EZIPEK_clean_linker_0, # of connection points: 2
#     Edge 21, Type (0, 1), BuildingBlock: EZIPEK_clean_linker_0, # of connection points: 2
#     Edge 22, Type (0, 1), BuildingBlock: EZIPEK_clean_linker_0, # of connection points: 2
#     Edge 23, Type (0, 1), BuildingBlock: EZIPEK_clean_linker_0, # of connection points: 2
#     Edge 24, Type (0, 1), BuildingBlock: EZIPEK_clean_linker_0, # of connection points: 2
#     Edge 25, Type (0, 1), BuildingBlock: EZIPEK_clean_linker_0, # of connection points: 2
#     Edge 26, Type (0, 1), BuildingBlock: EZIPEK_clean_linker_0, # of connection points: 2
#     Edge 27, Type (0, 1), BuildingBlock: EZIPEK_clean_linker_0, # of connection points: 2
#     Edge 28, Type (0, 1), BuildingBlock: EZIPEK_clean_linker_0, # of connection points: 2
#     Edge 29, Type (0, 1), BuildingBlock: EZIPEK_clean_linker_0, # of connection points: 2
#     Edge 30, Type (0, 1), BuildingBlock: EZIPEK_clean_linker_0, # of connection points: 2
#     Edge 31, Type (0, 1), BuildingBlock: EZIPEK_clean_linker_0, # of connection points: 2
#     Edge 32, Type (0, 1), BuildingBlock: EZIPEK_clean_linker_0, # of connection points: 2
# Relax obj value: 0.145
# Max RMSD: 0.237
# Mean RMSD: 0.200
data_MOF--net-csq--node1-TAGTUT_clean_sbu_1--node2-AZAVOO_clean_linker_0--edge1-EZIPEK_clean_linker_0
_symmetry_space_group_name_H-M    P1
_symmetry_Int_Tables_number       1
_symmetry_cell_setting            triclinic
loop_
_symmetry_equiv_pos_as_xyz
'x, y, z'
_cell_length_a     44.871451
_cell_length_b     44.188013
_cell_length_c     18.609773
_cell_angle_alpha  92.992643
_cell_angle_beta   92.693222
_cell_angle_gamma 119.9147
loop_
_atom_site_label
_atom_site_type_symbol
_atom_site_fract_x
_atom_site_fract_y
_atom_site_fract_z
_atom_type_partial_charge
H0 H 0.17437 0.42798 0.59257 0.0
H1 H 0.48296 0.51617 0.21887 0.0
H2 H 0.18004 0.42858 0.21857 0.0
H3 H 0.14248 0.43503 0.29981 0.0
H4 H 0.17654 0.53897 0.23477 0.0
H5 H 0.2201 0.535 0.16578 0.0
H6 H 0.22981 0.42548 0.31506 0.0
H7 H 0.20448 0.41631 0.43124 0.0
H8 H 0.22753 0.52384 0.45062 0.0
H9 H 0.25153 0.53228 0.33272 0.0
H10 H 0.30956 0.4411 0.27818 0.0
H11 H 0.34939 0.4484 0.38034 0.0
H12 H 0.34565 0.53879 0.46778 0.0
H13 H 0.31214 0.536 0.35751 0.0
H14 H 0.31362 0.43725 0.12633 0.0
H15 H 0.36697 0.43482 0.13628 0.0
H16 H 0.42216 0.5421 0.22906 0.0
H17 H 0.36866 0.54419 0.22012 0.0
H18 H 0.27102 0.44252 0.99541 0.0
H19 H 0.3094 0.446 0.90187 0.0
H20 H 0.38134 0.55325 0.97991 0.0
H21 H 0.34293 0.54992 0.0725 0.0
H22 H 0.1877 0.43598 0.06464 0.0
H23 H 0.15366 0.43126 0.95393 0.0
H24 H 0.2397 0.52534 0.88894 0.0
H25 H 0.27218 0.53277 0.00436 0.0
O26 O 0.18483 0.4322 0.54711 0.0
O27 O 0.19609 0.48735 0.55277 0.0
O28 O 0.43163 0.46062 0.1691 0.0
O29 O 0.4614 0.51622 0.21487 0.0
C30 C 0.23837 0.48445 0.18003 0.0
C31 C 0.25708 0.48453 0.24382 0.0
C32 C 0.28973 0.48783 0.2407 0.0
C33 C 0.30414 0.49067 0.17391 0.0
C34 C 0.2864 0.49141 0.10958 0.0
C35 C 0.25292 0.4877 0.11206 0.0
C36 C 0.20416 0.48183 0.18889 0.0
C37 C 0.17901 0.45259 0.22037 0.0
C38 C 0.15752 0.45641 0.26744 0.0
C39 C 0.15748 0.48824 0.27686 0.0
C40 C 0.17719 0.51476 0.23188 0.0
C41 C 0.20142 0.51218 0.19051 0.0
C42 C 0.24194 0.47938 0.31498 0.0
C43 C 0.22908 0.44694 0.34423 0.0
C44 C 0.21468 0.4418 0.41061 0.0
C45 C 0.21345 0.46923 0.44959 0.0
C46 C 0.22733 0.50199 0.42104 0.0
C47 C 0.24111 0.50691 0.35395 0.0
C48 C 0.30912 0.48882 0.30862 0.0
C49 C 0.31816 0.4631 0.31817 0.0
C50 C 0.34015 0.46679 0.3774 0.0
C51 C 0.35118 0.49474 0.43085 0.0
C52 C 0.3381 0.51758 0.42626 0.0
C53 C 0.31879 0.5158 0.36368 0.0
C54 C 0.33739 0.49103 0.17161 0.0
C55 C 0.33741 0.46041 0.14776 0.0
C56 C 0.36783 0.45897 0.15429 0.0
C57 C 0.39895 0.48847 0.18302 0.0
C58 C 0.39879 0.51917 0.20611 0.0
C59 C 0.36831 0.52049 0.20052 0.0
C60 C 0.30405 0.49592 0.04117 0.0
C61 C 0.29432 0.4672 0.9905 0.0
C62 C 0.31628 0.46919 0.93719 0.0
C63 C 0.34844 0.49984 0.93416 0.0
C64 C 0.35676 0.52939 0.98106 0.0
C65 C 0.33477 0.52747 0.03387 0.0
C66 C 0.23251 0.48497 0.04385 0.0
C67 C 0.19902 0.45624 0.02782 0.0
C68 C 0.17975 0.4532 0.96393 0.0
C69 C 0.19399 0.47806 0.91312 0.0
C70 C 0.22802 0.50601 0.92754 0.0
C71 C 0.24666 0.51004 0.99324 0.0
C72 C 0.19769 0.46363 0.51963 0.0
C73 C 0.43154 0.48743 0.18855 0.0
H74 H 0.89751 0.30775 0.57832 0.0
H75 H 0.57968 0.02237 0.14497 0.0
H76 H 0.82429 0.3108 0.12637 0.0
H77 H 0.86973 0.36716 0.18483 0.0
H78 H 0.92471 0.31707 0.26366 0.0
H79 H 0.88136 0.26157 0.19795 0.0
H80 H 0.81351 0.28526 0.30927 0.0
H81 H 0.84566 0.3017 0.4286 0.0
H82 H 0.8669 0.21711 0.39376 0.0
H83 H 0.83372 0.20025 0.27591 0.0
H84 H 0.75072 0.24175 0.29944 0.0
H85 H 0.72156 0.22425 0.41066 0.0
H86 H 0.71257 0.12267 0.37466 0.0
H87 H 0.74421 0.14121 0.26596 0.0
H88 H 0.69113 0.19461 0.1686 0.0
H89 H 0.63266 0.14587 0.1782 0.0
H90 H 0.66599 0.07247 0.11592 0.0
H91 H 0.72434 0.12144 0.10725 0.0
H92 H 0.72783 0.23414 0.01991 0.0
H93 H 0.67833 0.20567 0.92905 0.0
H94 H 0.69807 0.12052 0.88963 0.0
H95 H 0.74776 0.14912 0.98094 0.0
H96 H 0.79674 0.28291 0.0004 0.0
H97 H 0.83954 0.31713 0.91635 0.0
H98 H 0.88411 0.2508 0.93534 0.0
H99 H 0.842 0.21732 0.02078 0.0
O100 O 0.8842 0.30027 0.53193 0.0
O101 O 0.89232 0.25484 0.51388 0.0
O102 O 0.58666 0.08093 0.17343 0.0
O103 O 0.60245 0.04215 0.14095 0.0
C104 C 0.81649 0.24729 0.14993 0.0
C105 C 0.80148 0.2311 0.21238 0.0
C106 C 0.76697 0.20392 0.20752 0.0
C107 C 0.74802 0.19066 0.13959 0.0
C108 C 0.76346 0.20537 0.07604 0.0
C109 C 0.7979 0.23361 0.08137 0.0
C110 C 0.84905 0.28177 0.1593 0.0
C111 C 0.84724 0.31234 0.15194 0.0
C112 C 0.87294 0.34445 0.18615 0.0
C113 C 0.89946 0.34568 0.23144 0.0
C114 C 0.9038 0.31632 0.23053 0.0
C115 C 0.8791 0.28467 0.19304 0.0
C116 C 0.8218 0.24198 0.28376 0.0
C117 C 0.8254 0.27058 0.32744 0.0
C118 C 0.84379 0.27992 0.39531 0.0
C119 C 0.85936 0.26115 0.42008 0.0
C120 C 0.85544 0.23229 0.37615 0.0
C121 C 0.83659 0.22266 0.30882 0.0
C122 C 0.74958 0.19272 0.27487 0.0
C123 C 0.74327 0.21604 0.31654 0.0
C124 C 0.72673 0.20615 0.37975 0.0
C125 C 0.71482 0.17218 0.40021 0.0
C126 C 0.72164 0.14901 0.35938 0.0
C127 C 0.73925 0.15935 0.29725 0.0
C128 C 0.71177 0.1615 0.13628 0.0
C129 C 0.68556 0.16799 0.15604 0.0
C130 C 0.6523 0.1401 0.16204 0.0
C131 C 0.64469 0.10524 0.14817 0.0
C132 C 0.67097 0.09895 0.12717 0.0
C133 C 0.70423 0.12687 0.12141 0.0
C134 C 0.74153 0.19382 0.00673 0.0
C135 C 0.72251 0.21018 0.98935 0.0
C136 C 0.69423 0.1939 0.93772 0.0
C137 C 0.68461 0.16105 0.90267 0.0
C138 C 0.70537 0.14606 0.91554 0.0
C139 C 0.73369 0.16237 0.96746 0.0
C140 C 0.81629 0.24764 0.01646 0.0
C141 C 0.81504 0.27512 0.98468 0.0
C142 C 0.83954 0.29471 0.93727 0.0
C143 C 0.86518 0.28668 0.92057 0.0
C144 C 0.86463 0.25745 0.94796 0.0
C145 C 0.84049 0.23823 0.99606 0.0
C146 C 0.87958 0.27174 0.49142 0.0
C147 C 0.6095 0.07549 0.15507 0.0
H148 H 0.48045 0.827 0.61698 0.0
H149 H 0.43029 0.53258 0.06326 0.0
H150 H 0.56469 0.84838 0.00359 0.0
H151 H 0.56697 0.89833 0.94766 0.0
H152 H 0.46643 0.8698 0.0162 0.0
H153 H 0.46283 0.81768 0.06626 0.0
H154 H 0.54036 0.80971 0.88633 0.0
H155 H 0.52523 0.82317 0.76931 0.0
H156 H 0.41701 0.76033 0.80292 0.0
H157 H 0.43257 0.74735 0.9206 0.0
H158 H 0.55382 0.76595 0.92459 0.0
H159 H 0.57536 0.73595 0.84781 0.0
H160 H 0.47742 0.64022 0.84312 0.0
H161 H 0.45474 0.67107 0.91631 0.0
H162 H 0.54322 0.70168 0.04247 0.0
H163 H 0.53097 0.64124 0.04586 0.0
H164 H 0.4253 0.60835 0.08507 0.0
H165 H 0.43817 0.66911 0.08291 0.0
H166 H 0.57323 0.75527 0.13807 0.0
H167 H 0.58417 0.71637 0.20814 0.0
H168 H 0.49119 0.68696 0.31479 0.0
H169 H 0.47817 0.72281 0.23699 0.0
H170 H 0.58512 0.82074 0.156 0.0
H171 H 0.6146 0.87013 0.24999 0.0
H172 H 0.51665 0.86042 0.29263 0.0
H173 H 0.48724 0.81081 0.20001 0.0
O174 O 0.48581 0.82113 0.66339 0.0
O175 O 0.43053 0.78964 0.68439 0.0
O176 O 0.49205 0.57593 0.05992 0.0
O177 O 0.43615 0.55688 0.06589 0.0
C178 C 0.50731 0.79331 0.04532 0.0
C179 C 0.49644 0.76919 0.98344 0.0
C180 C 0.49483 0.73678 0.98836 0.0
C181 C 0.49846 0.72608 0.05658 0.0
C182 C 0.51159 0.75079 0.1175 0.0
C183 C 0.51681 0.78478 0.11147 0.0
C184 C 0.51319 0.82897 0.03678 0.0
C185 C 0.54352 0.85338 0.00819 0.0
C186 C 0.54482 0.88185 0.97645 0.0
C187 C 0.51634 0.88693 0.97569 0.0
C188 C 0.48833 0.86578 0.01506 0.0
C189 C 0.4863 0.83619 0.0437 0.0
C190 C 0.48756 0.77783 0.91239 0.0
C191 C 0.51341 0.79902 0.8687 0.0
C192 C 0.50468 0.80655 0.80158 0.0
C193 C 0.4699 0.79275 0.77661 0.0
C194 C 0.44405 0.77133 0.82045 0.0
C195 C 0.45285 0.76392 0.88771 0.0
C196 C 0.50252 0.72082 0.92535 0.0
C197 C 0.53624 0.73905 0.90375 0.0
C198 C 0.54883 0.72183 0.86137 0.0
C199 C 0.52821 0.6859 0.8419 0.0
C200 C 0.49371 0.66798 0.85896 0.0
C201 C 0.4807 0.68557 0.89974 0.0
C202 C 0.49164 0.68974 0.06268 0.0
C203 C 0.51758 0.68142 0.05257 0.0
C204 C 0.51046 0.64689 0.05428 0.0
C205 C 0.47707 0.61993 0.06512 0.0
C206 C 0.45122 0.62846 0.07612 0.0
C207 C 0.45852 0.66312 0.07518 0.0
C208 C 0.52483 0.74168 0.18219 0.0
C209 C 0.55589 0.74154 0.17863 0.0
C210 C 0.56199 0.71903 0.21837 0.0
C211 C 0.53828 0.69813 0.26629 0.0
C212 C 0.50953 0.70216 0.27707 0.0
C213 C 0.50244 0.72326 0.23408 0.0
C214 C 0.53407 0.81214 0.17203 0.0
C215 C 0.57004 0.82897 0.18657 0.0
C216 C 0.58683 0.85718 0.23937 0.0
C217 C 0.56773 0.86896 0.27721 0.0
C218 C 0.53172 0.85171 0.26335 0.0
C219 C 0.51497 0.82344 0.21105 0.0
C220 C 0.46075 0.80095 0.70539 0.0
C221 C 0.46904 0.583 0.06377 0.0
H222 H 0.72805 0.50177 0.54185 0.0
H223 H 0.96841 0.47599 0.00895 0.0
H224 H 0.69784 0.4717 0.12208 0.0
H225 H 0.66348 0.48529 0.20193 0.0
H226 H 0.73764 0.59546 0.20487 0.0
H227 H 0.77345 0.58155 0.12893 0.0
H228 H 0.72746 0.46253 0.23646 0.0
H229 H 0.7187 0.46952 0.36362 0.0
H230 H 0.80953 0.57278 0.38412 0.0
H231 H 0.81782 0.56551 0.25667 0.0
H232 H 0.77409 0.44334 0.23423 0.0
H233 H 0.79469 0.44217 0.35818 0.0
H234 H 0.89247 0.53384 0.33022 0.0
H235 H 0.87046 0.53729 0.21011 0.0
H236 H 0.80712 0.43174 0.07375 0.0
H237 H 0.85026 0.41452 0.05175 0.0
H238 H 0.9274 0.52341 0.04183 0.0
H239 H 0.88415 0.54022 0.06488 0.0
H240 H 0.78408 0.45019 0.92701 0.0
H241 H 0.8173 0.44645 0.8336 0.0
H242 H 0.88718 0.55852 0.87092 0.0
H243 H 0.85354 0.56097 0.9641 0.0
H244 H 0.70881 0.47629 0.98025 0.0
H245 H 0.67854 0.48994 0.88592 0.0
H246 H 0.774 0.58236 0.84925 0.0
H247 H 0.80392 0.56999 0.94749 0.0
O248 O 0.73165 0.49975 0.49136 0.0
O249 O 0.77984 0.55167 0.50008 0.0
O250 O 0.91076 0.4266 0.02761 0.0
O251 O 0.95096 0.48206 0.01883 0.0
C252 C 0.76504 0.5161 0.10329 0.0
C253 C 0.78044 0.50831 0.16186 0.0
C254 C 0.80489 0.49782 0.1503 0.0
C255 C 0.81592 0.49731 0.08099 0.0
C256 C 0.80173 0.50639 0.02195 0.0
C257 C 0.77568 0.51523 0.03278 0.0
C258 C 0.73834 0.52556 0.11977 0.0
C259 C 0.7061 0.4989 0.13743 0.0
C260 C 0.68678 0.50661 0.18411 0.0
C261 C 0.69869 0.54128 0.21172 0.0
C262 C 0.72846 0.56844 0.18576 0.0
C263 C 0.74853 0.56058 0.14115 0.0
C264 C 0.77307 0.51367 0.23725 0.0
C265 C 0.74508 0.48687 0.26822 0.0
C266 C 0.74033 0.49081 0.34104 0.0
C267 C 0.76363 0.52155 0.38427 0.0
C268 C 0.79128 0.54864 0.35251 0.0
C269 C 0.79595 0.54468 0.27968 0.0
C270 C 0.82079 0.49049 0.21348 0.0
C271 C 0.80015 0.46282 0.25465 0.0
C272 C 0.81177 0.4622 0.32513 0.0
C273 C 0.84505 0.48788 0.35306 0.0
C274 C 0.86663 0.51383 0.30948 0.0
C275 C 0.85443 0.51543 0.24052 0.0
C276 C 0.84248 0.48715 0.07025 0.0
C277 C 0.83339 0.4518 0.06715 0.0
C278 C 0.85806 0.44206 0.05441 0.0
C279 C 0.89226 0.4676 0.04463 0.0
C280 C 0.9013 0.50307 0.04878 0.0
C281 C 0.87664 0.51275 0.0618 0.0
C282 C 0.81495 0.50618 0.94995 0.0
C283 C 0.80514 0.47427 0.91075 0.0
C284 C 0.8245 0.47246 0.8554 0.0
C285 C 0.85378 0.50283 0.83473 0.0
C286 C 0.8633 0.53472 0.87612 0.0
C287 C 0.84397 0.5364 0.93142 0.0
C288 C 0.75857 0.52215 0.97097 0.0
C289 C 0.72325 0.49951 0.95204 0.0
C290 C 0.70607 0.50718 0.89801 0.0
C291 C 0.72402 0.53733 0.8612 0.0
C292 C 0.75974 0.55908 0.8774 0.0
C293 C 0.7768 0.55186 0.93293 0.0
C294 C 0.759 0.52534 0.46205 0.0
C295 C 0.91844 0.45738 0.02993 0.0
H296 H 0.26786 0.88969 0.55532 0.0
H297 H 0.02342 0.58749 0.06474 0.0
H298 H 0.30348 0.87955 0.15375 0.0
H299 H 0.35659 0.91295 0.23534 0.0
H300 H 0.36039 0.81836 0.25886 0.0
H301 H 0.30832 0.78547 0.17611 0.0
H302 H 0.23671 0.85374 0.24314 0.0
H303 H 0.24732 0.87644 0.37029 0.0
H304 H 0.27784 0.80113 0.42385 0.0
H305 H 0.2677 0.77918 0.29647 0.0
H306 H 0.15422 0.78386 0.20149 0.0
H307 H 0.10863 0.75003 0.28167 0.0
H308 H 0.16059 0.69352 0.33833 0.0
H309 H 0.20586 0.72742 0.26048 0.0
H310 H 0.14121 0.75513 0.03893 0.0
H311 H 0.08136 0.707 0.01844 0.0
H312 H 0.11092 0.63785 0.11468 0.0
H313 H 0.1709 0.6857 0.13134 0.0
H314 H 0.17623 0.74678 0.9288 0.0
H315 H 0.14512 0.69023 0.85666 0.0
H316 H 0.21108 0.65751 0.96018 0.0
H317 H 0.24185 0.71403 0.034 0.0
H318 H 0.23109 0.80355 0.93716 0.0
H319 H 0.26153 0.82822 0.83172 0.0
H320 H 0.35497 0.84051 0.93735 0.0
H321 H 0.32323 0.81089 0.03942 0.0
O322 O 0.26395 0.88046 0.50531 0.0
O323 O 0.27902 0.84097 0.52996 0.0
O324 O 0.03277 0.64379 0.02454 0.0
O325 O 0.04684 0.607 0.07211 0.0
C326 C 0.26542 0.80779 0.13225 0.0
C327 C 0.24132 0.79868 0.18528 0.0
C328 C 0.20683 0.77222 0.16843 0.0
C329 C 0.19638 0.75339 0.10029 0.0
C330 C 0.22046 0.76118 0.04824 0.0
C331 C 0.25436 0.79035 0.06132 0.0
C332 C 0.30237 0.83019 0.15787 0.0
C333 C 0.31681 0.86648 0.17348 0.0
C334 C 0.34678 0.88537 0.22065 0.0
C335 C 0.362 0.86792 0.25387 0.0
C336 C 0.34895 0.83223 0.23401 0.0
C337 C 0.31951 0.81358 0.18614 0.0
C338 C 0.25195 0.81524 0.26058 0.0
C339 C 0.24628 0.84265 0.28231 0.0
C340 C 0.25203 0.8553 0.35504 0.0
C341 C 0.26321 0.84045 0.40736 0.0
C342 C 0.26909 0.81307 0.38508 0.0
C343 C 0.26368 0.80073 0.31227 0.0
C344 C 0.18339 0.75825 0.22633 0.0
C345 C 0.15612 0.76491 0.23312 0.0
C346 C 0.13013 0.74551 0.27791 0.0
C347 C 0.13118 0.71903 0.31453 0.0
C348 C 0.15935 0.71374 0.31 0.0
C349 C 0.18531 0.73328 0.26643 0.0
C350 C 0.16035 0.72372 0.08573 0.0
C351 C 0.13472 0.7294 0.05453 0.0
C352 C 0.10058 0.70193 0.04322 0.0
C353 C 0.09143 0.66843 0.0642 0.0
C354 C 0.11716 0.66313 0.09688 0.0
C355 C 0.15141 0.69041 0.10662 0.0
C356 C 0.21128 0.73453 0.98674 0.0
C357 C 0.18496 0.72808 0.93396 0.0
C358 C 0.16693 0.69568 0.89365 0.0
C359 C 0.17532 0.66957 0.90488 0.0
C360 C 0.20403 0.67729 0.95184 0.0
C361 C 0.22186 0.70965 0.99291 0.0
C362 C 0.27458 0.8053 0.99767 0.0
C363 C 0.2578 0.81021 0.93726 0.0
C364 C 0.27526 0.82466 0.87693 0.0
C365 C 0.31068 0.83679 0.87688 0.0
C366 C 0.32766 0.83161 0.93641 0.0
C367 C 0.30962 0.81536 0.99565 0.0
C368 C 0.26918 0.85383 0.48461 0.0
C369 C 0.05523 0.63911 0.05233 0.0
H370 H 0.45585 0.31836 0.7333 0.0
H371 H 0.38676 0.99928 0.11083 0.0
H372 H 0.5372 0.31772 0.15346 0.0
H373 H 0.55703 0.37579 0.11133 0.0
H374 H 0.45149 0.35202 0.07904 0.0
H375 H 0.43201 0.29563 0.12944 0.0
H376 H 0.50011 0.27306 0.98629 0.0
H377 H 0.49085 0.29414 0.87299 0.0
H378 H 0.38535 0.25901 0.918 0.0
H379 H 0.39477 0.23722 0.03031 0.0
H380 H 0.47838 0.19492 0.98261 0.0
H381 H 0.45469 0.14576 0.89023 0.0
H382 H 0.35154 0.11433 0.94678 0.0
H383 H 0.37588 0.16293 0.04328 0.0
H384 H 0.49616 0.17059 0.1035 0.0
H385 H 0.48294 0.10994 0.08052 0.0
H386 H 0.38135 0.07359 0.15338 0.0
H387 H 0.39484 0.13447 0.17522 0.0
H388 H 0.531 0.21844 0.23116 0.0
H389 H 0.54167 0.17898 0.30238 0.0
H390 H 0.44343 0.14191 0.39076 0.0
H391 H 0.43244 0.18079 0.31822 0.0
H392 H 0.54166 0.29959 0.27325 0.0
H393 H 0.55378 0.3488 0.36129 0.0
H394 H 0.44501 0.3019 0.3878 0.0
H395 H 0.4329 0.25356 0.29865 0.0
O396 O 0.45865 0.30906 0.77746 0.0
O397 O 0.4041 0.28896 0.80108 0.0
O398 O 0.44347 0.04344 0.07399 0.0
O399 O 0.3926 0.02349 0.11922 0.0
C400 C 0.47077 0.26421 0.14753 0.0
C401 C 0.454 0.24111 0.0849 0.0
C402 C 0.44429 0.20569 0.0857 0.0
C403 C 0.45329 0.19342 0.14661 0.0
C404 C 0.46996 0.21622 0.20955 0.0
C405 C 0.47738 0.25131 0.21093 0.0
C406 C 0.48307 0.30218 0.14388 0.0
C407 C 0.51849 0.32584 0.14192 0.0
C408 C 0.5298 0.35886 0.11709 0.0
C409 C 0.50563 0.36758 0.08952 0.0
C410 C 0.47053 0.34552 0.0988 0.0
C411 C 0.4594 0.3133 0.12724 0.0
C412 C 0.44824 0.25409 0.01667 0.0
C413 C 0.47505 0.26999 0.9715 0.0
C414 C 0.46968 0.28202 0.90692 0.0
C415 C 0.4375 0.27867 0.88688 0.0
C416 C 0.41053 0.26222 0.93205 0.0
C417 C 0.41582 0.24981 0.99619 0.0
C418 C 0.42878 0.18196 0.01949 0.0
C419 C 0.45065 0.17789 0.97408 0.0
C420 C 0.43713 0.14984 0.92189 0.0
C421 C 0.40148 0.12604 0.91333 0.0
C422 C 0.37915 0.1321 0.95401 0.0
C423 C 0.3929 0.15981 0.0081 0.0
C424 C 0.4466 0.15683 0.14189 0.0
C425 C 0.47125 0.14947 0.11539 0.0
C426 C 0.46349 0.11482 0.10158 0.0
C427 C 0.43101 0.08689 0.11482 0.0
C428 C 0.40658 0.09446 0.14256 0.0
C429 C 0.41429 0.12917 0.15574 0.0
C430 C 0.48118 0.20291 0.27045 0.0
C431 C 0.5125 0.20302 0.26842 0.0
C432 C 0.51841 0.18026 0.30827 0.0
C433 C 0.49327 0.15753 0.35146 0.0
C434 C 0.46318 0.15944 0.35795 0.0
C435 C 0.45708 0.18187 0.31736 0.0
C436 C 0.48642 0.27328 0.27954 0.0
C437 C 0.52064 0.29944 0.29985 0.0
C438 C 0.52749 0.32748 0.34944 0.0
C439 C 0.50015 0.329 0.37975 0.0
C440 C 0.4663 0.30112 0.36439 0.0
C441 C 0.45947 0.27344 0.31439 0.0
C442 C 0.43225 0.29243 0.81927 0.0
C443 C 0.42286 0.05004 0.10127 0.0
C444 C 0.97636 0.38683 0.76524 0.0
C445 C 0.08441 0.45319 0.71358 0.0
C446 C 0.06308 0.55879 0.74084 0.0
Mg447 Mg 0.01385 0.41617 0.62565 0.0
O448 O 0.00692 0.45266 0.66106 0.0
Mg449 Mg 0.02501 0.47434 0.76326 0.0
Mg450 Mg 0.02195 0.49591 0.6104 0.0
O451 O 0.03548 0.53992 0.56367 0.0
Mg452 Mg 0.02136 0.56918 0.61155 0.0
Mg453 Mg 0.01124 0.51771 0.46677 0.0
C454 C 0.9847 0.4329 0.47946 0.0
C455 C 0.07664 0.50582 0.48979 0.0
O456 O 0.99128 0.41806 0.79668 0.0
O457 O 0.98147 0.37995 0.70059 0.0
O458 O 0.07101 0.46654 0.75406 0.0
O459 O 0.06839 0.43449 0.65476 0.0
O460 O 0.99176 0.41243 0.5142 0.0
O461 O 0.99022 0.46253 0.50878 0.0
C462 C 0.96454 0.49099 0.72249 0.0
O463 O 0.9758 0.49666 0.65983 0.0
O464 O 0.97889 0.48245 0.77177 0.0
O465 O 0.03494 0.57552 0.4372 0.0
O466 O 0.0395 0.60865 0.53803 0.0
O467 O 0.96152 0.51592 0.49512 0.0
C468 C 0.0437 0.60528 0.47122 0.0
O469 O 0.96612 0.54404 0.60178 0.0
O470 O 0.05236 0.57781 0.71214 0.0
C471 C 0.94817 0.52456 0.54564 0.0
O472 O 0.05462 0.52812 0.7129 0.0
O473 O 0.06758 0.49549 0.55299 0.0
O474 O 0.06076 0.51722 0.45052 0.0
C475 C 0.42006 0.03011 0.7489 0.0
C476 C 0.40083 0.92997 0.68553 0.0
C477 C 0.53311 0.97535 0.74867 0.0
Mg478 Mg 0.43169 0.99771 0.60982 0.0
O479 O 0.47457 0.01657 0.66367 0.0
Mg480 Mg 0.47501 0.99905 0.76034 0.0
Mg481 Mg 0.50882 0.00755 0.61835 0.0
O482 O 0.54261 0.99784 0.57371 0.0
Mg483 Mg 0.58522 0.01147 0.62625 0.0
Mg484 Mg 0.54359 0.01877 0.48034 0.0
C485 C 0.48446 0.04169 0.49462 0.0
C486 C 0.46925 0.94932 0.47684 0.0
O487 O 0.44092 0.02381 0.7867 0.0
O488 O 0.4126 0.02173 0.68098 0.0
O489 O 0.42564 0.94728 0.73372 0.0
O490 O 0.39887 0.94273 0.62658 0.0
O491 O 0.45331 0.02531 0.51341 0.0
O492 O 0.50922 0.03958 0.52704 0.0
C493 C 0.55068 0.06808 0.7542 0.0
O494 O 0.55154 0.05739 0.68916 0.0
O495 O 0.52446 0.05024 0.78889 0.0
O496 O 0.57439 0.99202 0.44713 0.0
O497 O 0.60006 0.98504 0.54718 0.0
O498 O 0.59242 0.0686 0.51901 0.0
C499 C 0.59166 0.97976 0.47892 0.0
O500 O 0.61825 0.06769 0.62273 0.0
O501 O 0.56327 0.98671 0.72587 0.0
C502 C 0.61647 0.08402 0.56962 0.0
O503 O 0.50917 0.97786 0.71387 0.0
O504 O 0.4667 0.95733 0.54317 0.0
O505 O 0.49536 0.96965 0.44444 0.0
C506 C 0.55383 0.59238 0.40512 0.0
C507 C 0.61791 0.54959 0.4394 0.0
C508 C 0.50787 0.44295 0.55912 0.0
Mg509 Mg 0.59525 0.59054 0.54153 0.0
O510 O 0.55267 0.55043 0.54652 0.0
Mg511 Mg 0.53285 0.51346 0.46482 0.0
Mg512 Mg 0.54345 0.52348 0.63199 0.0
O513 O 0.53369 0.49629 0.71841 0.0
Mg514 Mg 0.48961 0.45703 0.71862 0.0
Mg515 Mg 0.5468 0.53588 0.79401 0.0
C516 C 0.57861 0.60405 0.69967 0.0
C517 C 0.61508 0.54385 0.72065 0.0
O518 O 0.5378 0.55862 0.39348 0.0
O519 O 0.57533 0.60881 0.46013 0.0
O520 O 0.58618 0.52542 0.43086 0.0
O521 O 0.62856 0.57645 0.48476 0.0
O522 O 0.59983 0.61544 0.65017 0.0
O523 O 0.55581 0.57167 0.70089 0.0
C524 C 0.46965 0.50454 0.55645 0.0
O525 O 0.48796 0.51089 0.61554 0.0
O526 O 0.48113 0.50416 0.49531 0.0
O527 O 0.53763 0.49527 0.87781 0.0
O528 O 0.50093 0.44204 0.82002 0.0
O529 O 0.49012 0.5239 0.80497 0.0
C530 C 0.51994 0.46164 0.87597 0.0
O531 O 0.45294 0.47404 0.73924 0.0
O532 O 0.49063 0.43144 0.61463 0.0
C533 C 0.45928 0.50088 0.7807 0.0
O534 O 0.52966 0.47557 0.55513 0.0
O535 O 0.59977 0.53738 0.65698 0.0
O536 O 0.6005 0.54504 0.77757 0.0
C537 C 0.15421 0.52434 0.3865 0.0
C538 C 0.1383 0.49368 0.33633 0.0
C539 C 0.09011 0.46745 0.41305 0.0
C540 C 0.10239 0.49997 0.45344 0.0
N541 N 0.14534 0.5609 0.4751 0.0
N542 N 0.08532 0.4403 0.29424 0.0
C543 C 0.13427 0.52891 0.43908 0.0
C544 C 0.10462 0.46629 0.34766 0.0
N545 N 0.18848 0.54841 0.38678 0.0
N546 N 0.06412 0.4377 0.43643 0.0
H547 H 0.09346 0.44033 0.24264 0.0
H548 H 0.05967 0.42132 0.29859 0.0
H549 H 0.05433 0.43792 0.48601 0.0
H550 H 0.05551 0.41284 0.41082 0.0
H551 H 0.20157 0.56915 0.4266 0.0
H552 H 0.20488 0.54578 0.35273 0.0
H553 H 0.16623 0.58396 0.46086 0.0
H554 H 0.13232 0.5644 0.5169 0.0
C555 C 0.65835 0.15374 0.45204 0.0
C556 C 0.69244 0.15956 0.46046 0.0
C557 C 0.6798 0.12976 0.57204 0.0
C558 C 0.64464 0.11978 0.55687 0.0
N559 N 0.60512 0.13667 0.50727 0.0
N560 N 0.73881 0.16341 0.53816 0.0
C561 C 0.63595 0.13755 0.50619 0.0
C562 C 0.70429 0.15103 0.52412 0.0
N563 N 0.6462 0.16042 0.38957 0.0
N564 N 0.68944 0.11834 0.63062 0.0
H565 H 0.757 0.17936 0.50396 0.0
H566 H 0.74979 0.16016 0.58547 0.0
H567 H 0.67348 0.10781 0.67218 0.0
H568 H 0.71346 0.12039 0.63962 0.0
H569 H 0.62034 0.15274 0.3778 0.0
H570 H 0.66107 0.17087 0.34642 0.0
H571 H 0.59851 0.15156 0.47564 0.0
H572 H 0.5876 0.12331 0.5448 0.0
C573 C 0.57423 0.67644 0.32992 0.0
C574 C 0.5419 0.66976 0.2989 0.0
C575 C 0.51583 0.60857 0.32879 0.0
C576 C 0.54899 0.61498 0.35466 0.0
N577 N 0.61066 0.6516 0.35172 0.0
N578 N 0.48511 0.62794 0.24912 0.0
C579 C 0.5785 0.64781 0.34554 0.0
C580 C 0.51355 0.63502 0.29228 0.0
N581 N 0.60037 0.70998 0.34825 0.0
N582 N 0.48657 0.57889 0.34284 0.0
H583 H 0.46403 0.60288 0.23597 0.0
H584 H 0.46403 0.60288 0.23597 0.0
H585 H 0.48658 0.55904 0.37049 0.0
H586 H 0.46202 0.57538 0.33221 0.0
H587 H 0.62353 0.71574 0.37627 0.0
H588 H 0.59733 0.7317 0.34315 0.0
H589 H 0.63271 0.67449 0.34059 0.0
H590 H 0.6145 0.63052 0.35952 0.0
C591 C 0.86866 0.52059 0.47373 0.0
C592 C 0.85792 0.48945 0.42857 0.0
C593 C 0.89112 0.47428 0.51043 0.0
C594 C 0.91059 0.50985 0.53679 0.0
N595 N 0.91353 0.56537 0.5592 0.0
N596 N 0.85667 0.4343 0.40789 0.0
C597 C 0.89727 0.53231 0.52541 0.0
C598 C 0.86724 0.46478 0.44965 0.0
N599 N 0.8522 0.53916 0.4645 0.0
N600 N 0.89765 0.45049 0.54028 0.0
H601 H 0.83943 0.42626 0.3621 0.0
H602 H 0.86683 0.41806 0.41667 0.0
H603 H 0.91682 0.45806 0.58235 0.0
H604 H 0.88175 0.42355 0.52842 0.0
H605 H 0.8573 0.56114 0.49787 0.0
H606 H 0.83101 0.53 0.42681 0.0
H607 H 0.90755 0.58452 0.54661 0.0
H608 H 0.93347 0.57364 0.59976 0.0
C609 C 0.42374 0.89367 0.30398 0.0
C610 C 0.38951 0.88564 0.3144 0.0
C611 C 0.40617 0.90403 0.4437 0.0
C612 C 0.44106 0.9184 0.43045 0.0
N613 N 0.48034 0.90999 0.36003 0.0
N614 N 0.34812 0.88435 0.3947 0.0
C615 C 0.44908 0.90802 0.36388 0.0
C616 C 0.38065 0.89094 0.38453 0.0
N617 N 0.43238 0.8893 0.23631 0.0
N618 N 0.39711 0.89894 0.51256 0.0
H619 H 0.32844 0.87432 0.35321 0.0
H620 H 0.34165 0.89164 0.44307 0.0
H621 H 0.4153 0.90335 0.5547 0.0
H622 H 0.37159 0.88538 0.52565 0.0
H623 H 0.45763 0.89813 0.22374 0.0
H624 H 0.41453 0.87916 0.19115 0.0
H625 H 0.48716 0.9004 0.31527 0.0
H626 H 0.49788 0.91746 0.40542 0.0
C627 C 0.52063 0.36804 0.49519 0.0
C628 C 0.50617 0.36093 0.42285 0.0
C629 C 0.4942 0.40924 0.43756 0.0
C630 C 0.50948 0.41685 0.50927 0.0
N631 N 0.54541 0.41001 0.60022 0.0
N632 N 0.48669 0.37921 0.31946 0.0
C633 C 0.52528 0.39826 0.53617 0.0
C634 C 0.49533 0.38301 0.39215 0.0
N635 N 0.52853 0.34516 0.52574 0.0
N636 N 0.47747 0.42602 0.41393 0.0
H637 H 0.48767 0.36053 0.28449 0.0
H638 H 0.48156 0.39647 0.29287 0.0
H639 H 0.47647 0.4455 0.44598 0.0
H640 H 0.46256 0.41899 0.36484 0.0
H641 H 0.5353 0.34682 0.58071 0.0
H642 H 0.52579 0.32284 0.4972 0.0
H643 H 0.56041 0.39966 0.61887 0.0
H644 H 0.54982 0.43236 0.63155 0.0
C645 C 0.49404 0.8962 0.85781 0.0
C646 C 0.51451 0.91085 0.92458 0.0
C647 C 0.54093 0.96954 0.88078 0.0
C648 C 0.52424 0.95402 0.8112 0.0
N649 N 0.4873 0.90234 0.73066 0.0
N650 N 0.55646 0.9611 0.00203 0.0
C651 C 0.50087 0.91741 0.79926 0.0
C652 C 0.53744 0.94756 0.937 0.0
N653 N 0.4685 0.86179 0.8494 0.0
N654 N 0.55968 0.00525 0.89293 0.0
H655 H 0.55274 0.94596 0.04556 0.0
H656 H 0.5766 0.98683 0.01237 0.0
H657 H 0.56281 0.02179 0.85242 0.0
H658 H 0.57006 0.01862 0.94364 0.0
H659 H 0.44959 0.85126 0.80629 0.0
H660 H 0.46427 0.84398 0.88748 0.0
H661 H 0.47372 0.87541 0.71706 0.0
H662 H 0.49178 0.91645 0.68538 0.0
C663 C 0.68661 0.52263 0.74623 0.0
C664 C 0.70429 0.54616 0.80828 0.0
C665 C 0.67402 0.57783 0.78078 0.0
C666 C 0.65034 0.54918 0.73212 0.0
N667 N 0.63457 0.49413 0.6651 0.0
N668 N 0.71427 0.59642 0.88653 0.0
C669 C 0.65723 0.52194 0.71209 0.0
C670 C 0.69858 0.57448 0.82517 0.0
N671 N 0.69773 0.5007 0.72099 0.0
N672 N 0.67209 0.60774 0.7857 0.0
H673 H 0.73193 0.59465 0.92184 0.0
H674 H 0.70779 0.61483 0.90539 0.0
H675 H 0.6542 0.61049 0.7529 0.0
H676 H 0.69028 0.63065 0.81619 0.0
H677 H 0.68782 0.48501 0.67241 0.0
H678 H 0.71932 0.50098 0.74534 0.0
H679 H 0.636 0.47143 0.65633 0.0
H680 H 0.61329 0.49284 0.63713 0.0
C681 C 0.12377 0.60976 0.90523 0.0
C682 C 0.1523 0.63386 0.86937 0.0
C683 C 0.12655 0.59751 0.75563 0.0
C684 C 0.09519 0.57819 0.78851 0.0
N685 N 0.06353 0.56366 0.89394 0.0
N686 N 0.18332 0.64975 0.76313 0.0
C687 C 0.09385 0.58316 0.86357 0.0
C688 C 0.15475 0.62697 0.79552 0.0
N689 N 0.12541 0.61258 0.97884 0.0
N690 N 0.12887 0.58809 0.68582 0.0
H691 H 0.20499 0.67049 0.79231 0.0
H692 H 0.18528 0.64898 0.70766 0.0
H693 H 0.10843 0.56696 0.65476 0.0
H694 H 0.15171 0.59915 0.66042 0.0
H695 H 0.10659 0.59431 0.00864 0.0
H696 H 0.14739 0.63152 0.01025 0.0
H697 H 0.05949 0.56872 0.94678 0.0
H698 H 0.04178 0.54307 0.86465 0.0
C699 C 0.39712 0.10042 0.79108 0.0
C700 C 0.38935 0.09447 0.86314 0.0
C701 C 0.38828 0.03871 0.84721 0.0
C702 C 0.40565 0.05003 0.78382 0.0
N703 N 0.42925 0.09401 0.69745 0.0
N704 N 0.3735 0.05616 0.9594 0.0
C705 C 0.40999 0.08104 0.75483 0.0
C706 C 0.38282 0.06259 0.89065 0.0
N707 N 0.39452 0.12639 0.75999 0.0
N708 N 0.37712 0.00537 0.86541 0.0
H709 H 0.36826 0.07256 0.99188 0.0
H710 H 0.3718 0.03503 0.98493 0.0
H711 H 0.38042 0.98726 0.83363 0.0
H712 H 0.36177 0.99462 0.90774 0.0
H713 H 0.39759 0.13054 0.70555 0.0
H714 H 0.38574 0.14121 0.78771 0.0
H715 H 0.43572 0.1183 0.67944 0.0
H716 H 0.44196 0.08262 0.67228 0.0
C717 C 0.38653 0.51826 0.82929 0.0
C718 C 0.37574 0.49925 0.89142 0.0
C719 C 0.41745 0.47919 0.87552 0.0
C720 C 0.43005 0.50025 0.8168 0.0
N721 N 0.42932 0.54236 0.74108 0.0
N722 N 0.38519 0.46668 0.98098 0.0
C723 C 0.41536 0.52058 0.79459 0.0
C724 C 0.39228 0.48096 0.91621 0.0
N725 N 0.36857 0.53327 0.80254 0.0
N726 N 0.42935 0.45707 0.89227 0.0
H727 H 0.36671 0.46696 0.01218 0.0
H728 H 0.39963 0.45733 0.00704 0.0
H729 H 0.44909 0.45609 0.86691 0.0
H730 H 0.41802 0.43778 0.92795 0.0
H731 H 0.3728 0.54476 0.75386 0.0
H732 H 0.34752 0.532 0.82681 0.0
H733 H 0.42229 0.56051 0.7266 0.0
H734 H 0.44968 0.54373 0.71372 0.0
C735 C 0.88782 0.31338 0.80515 0.0
C736 C 0.89415 0.3105 0.87904 0.0
C737 C 0.95574 0.35238 0.87318 0.0
C738 C 0.94861 0.35856 0.80214 0.0
N739 N 0.90598 0.35045 0.70668 0.0
N740 N 0.93307 0.3322 0.98759 0.0
C741 C 0.91417 0.34041 0.7694 0.0
C742 C 0.92787 0.33127 0.91431 0.0
N743 N 0.8568 0.29002 0.76874 0.0
N744 N 0.98914 0.36614 0.90085 0.0
H745 H 0.91327 0.31785 0.02017 0.0
H746 H 0.95637 0.34971 0.01691 0.0
H747 H 0.01016 0.38126 0.87162 0.0
H748 H 0.99592 0.35974 0.94969 0.0
H749 H 0.85212 0.28873 0.71296 0.0
H750 H 0.83688 0.2698 0.79319 0.0
H751 H 0.88065 0.34064 0.6853 0.0
H752 H 0.92393 0.37103 0.67957 0.0
C753 C 0.87177 0.46829 0.74751 0.0
C754 C 0.8774 0.50069 0.7801 0.0
C755 C 0.938 0.52803 0.75415 0.0
C756 C 0.9341 0.49441 0.73845 0.0
N757 N 0.89631 0.43175 0.71768 0.0
N758 N 0.90823 0.56084 0.75282 0.0
C759 C 0.90064 0.46426 0.73393 0.0
C760 C 0.90842 0.53087 0.76574 0.0
N761 N 0.83959 0.44386 0.71831 0.0
N762 N 0.96996 0.55727 0.76076 0.0
H763 H 0.88529 0.56159 0.75003 0.0
H764 H 0.92945 0.58284 0.73593 0.0
H765 H 0.99232 0.55622 0.75369 0.0
H766 H 0.97416 0.58195 0.77875 0.0
H767 H 0.83438 0.42104 0.6878 0.0
H768 H 0.81942 0.44928 0.71589 0.0
H769 H 0.8729 0.40877 0.72101 0.0
H770 H 0.91662 0.4278 0.70522 0.0
C771 C 0.32944 0.88805 0.80123 0.0
C772 C 0.33015 0.85724 0.81685 0.0
C773 C 0.37253 0.86951 0.7276 0.0
C774 C 0.37037 0.89926 0.71016 0.0
N775 N 0.33835 0.92976 0.71385 0.0
N776 N 0.3454 0.81379 0.78053 0.0
C777 C 0.3455 0.90567 0.7406 0.0
C778 C 0.34944 0.84631 0.77524 0.0
N779 N 0.31602 0.90231 0.84746 0.0
N780 N 0.39757 0.86425 0.70098 0.0
H781 H 0.3281 0.79592 0.81358 0.0
H782 H 0.35667 0.80337 0.74713 0.0
H783 H 0.41422 0.88037 0.66473 0.0
H784 H 0.4029 0.84519 0.7177 0.0
H785 H 0.31799 0.92658 0.84192 0.0
H786 H 0.30655 0.89215 0.89599 0.0
H787 H 0.31843 0.93338 0.73071 0.0
H788 H 0.34966 0.94326 0.66944 0.0
C789 C 0.50946 0.42424 0.0591 0.0
C790 C 0.51591 0.39649 0.04132 0.0
C791 C 0.53639 0.42082 0.92656 0.0
C792 C 0.52351 0.44389 0.93817 0.0
N793 N 0.49677 0.4676 0.01454 0.0
N794 N 0.53143 0.36578 0.9521 0.0
C795 C 0.51021 0.44607 0.00469 0.0
C796 C 0.52878 0.39432 0.97387 0.0
N797 N 0.50296 0.42981 0.12805 0.0
N798 N 0.55597 0.42433 0.87006 0.0
H799 H 0.52516 0.34481 0.983 0.0
H800 H 0.53674 0.36127 0.9 0.0
H801 H 0.56232 0.44387 0.83475 0.0
H802 H 0.56892 0.41043 0.86306 0.0
H803 H 0.50097 0.45139 0.1461 0.0
H804 H 0.50283 0.4145 0.169 0.0
H805 H 0.48302 0.46724 0.05835 0.0
H806 H 0.49757 0.48445 0.97651 0.0
C807 C 0.16524 0.50155 0.8303 0.0
C808 C 0.17253 0.47465 0.84599 0.0
C809 C 0.12751 0.43456 0.75223 0.0
C810 C 0.11983 0.46136 0.73867 0.0
N811 N 0.14118 0.52326 0.7413 0.0
N812 N 0.16949 0.42059 0.80349 0.0
C813 C 0.14256 0.49599 0.76915 0.0
C814 C 0.15666 0.44281 0.80049 0.0
N815 N 0.17714 0.53099 0.87667 0.0
N816 N 0.10609 0.40097 0.72329 0.0
H817 H 0.19131 0.42646 0.83712 0.0
H818 H 0.16079 0.39844 0.76747 0.0
H819 H 0.08529 0.39394 0.68575 0.0
H820 H 0.10814 0.37978 0.73919 0.0
H821 H 0.16944 0.54946 0.87036 0.0
H822 H 0.19166 0.53533 0.92533 0.0
H823 H 0.15888 0.54941 0.7581 0.0
H824 H 0.12461 0.51943 0.69603 0.0
C825 C 0.64357 0.14358 0.79036 0.0
C826 C 0.6496 0.13987 0.86405 0.0
C827 C 0.58756 0.10108 0.87048 0.0
C828 C 0.58239 0.09873 0.79398 0.0
N829 N 0.60121 0.13102 0.69005 0.0
N830 N 0.62746 0.11315 0.97387 0.0
C831 C 0.60933 0.12374 0.75594 0.0
C832 C 0.62162 0.11805 0.9039 0.0
N833 N 0.67071 0.16522 0.75303 0.0
N834 N 0.56036 0.09078 0.91212 0.0
H835 H 0.65179 0.12625 0.00192 0.0
H836 H 0.60847 0.09391 0.00187 0.0
H837 H 0.53605 0.08532 0.89149 0.0
H838 H 0.5632 0.094 0.96836 0.0
H839 H 0.66882 0.16706 0.6977 0.0
H840 H 0.69587 0.18015 0.77711 0.0
H841 H 0.61854 0.1517 0.66246 0.0
H842 H 0.57574 0.11919 0.66776 0.0
C843 C 0.56436 0.65725 0.84603 0.0
C844 C 0.54329 0.66692 0.80517 0.0
C845 C 0.55135 0.64103 0.69396 0.0
C846 C 0.57015 0.62888 0.73563 0.0
N847 N 0.59225 0.62222 0.85028 0.0
N848 N 0.51453 0.66667 0.69236 0.0
C849 C 0.57613 0.63621 0.81144 0.0
C850 C 0.53639 0.65866 0.72961 0.0
N851 N 0.57341 0.66856 0.91766 0.0
N852 N 0.54752 0.6355 0.62017 0.0
H853 H 0.50462 0.6814 0.71573 0.0
H854 H 0.50443 0.65713 0.63928 0.0
H855 H 0.55442 0.61949 0.59117 0.0
H856 H 0.53871 0.64799 0.58655 0.0
H857 H 0.59152 0.66561 0.9488 0.0
H858 H 0.56449 0.68313 0.94537 0.0
H859 H 0.59371 0.62277 0.90634 0.0
H860 H 0.60277 0.60828 0.82595 0.0
C861 C 0.47959 0.09483 0.34689 0.0
C862 C 0.4964 0.12899 0.38358 0.0
C863 C 0.50964 0.10649 0.49037 0.0
C864 C 0.49332 0.07234 0.45316 0.0
N865 N 0.4693 0.03524 0.34254 0.0
N866 N 0.53456 0.16903 0.48248 0.0
C867 C 0.48045 0.06696 0.38008 0.0
C868 C 0.51399 0.13538 0.45264 0.0
N869 N 0.46173 0.08881 0.28139 0.0
N870 N 0.51859 0.11105 0.56309 0.0
H871 H 0.53739 0.19073 0.45719 0.0
H872 H 0.55111 0.17555 0.52903 0.0
H873 H 0.51546 0.09084 0.59401 0.0
H874 H 0.52664 0.13447 0.59433 0.0
H875 H 0.44532 0.06388 0.25605 0.0
H876 H 0.46171 0.10888 0.25451 0.0
H877 H 0.46251 0.0304 0.28715 0.0
H878 H 0.46976 0.0145 0.36602 0.0
C879 C 0.41123 0.53358 0.49156 0.0
C880 C 0.37902 0.5015 0.48658 0.0
C881 C 0.40549 0.47432 0.55583 0.0
C882 C 0.43753 0.50546 0.55632 0.0
N883 N 0.46815 0.56798 0.55476 0.0
N884 N 0.34384 0.44504 0.53228 0.0
C885 C 0.4391 0.53639 0.53571 0.0
C886 C 0.37555 0.47345 0.52625 0.0
N887 N 0.41679 0.55973 0.4484 0.0
N888 N 0.40294 0.4448 0.58075 0.0
H889 H 0.32106 0.44398 0.51314 0.0
H890 H 0.34064 0.42372 0.5597 0.0
H891 H 0.42409 0.44351 0.60268 0.0
H892 H 0.42409 0.44351 0.60268 0.0
H893 H 0.44073 0.5823 0.44734 0.0
H894 H 0.39907 0.5578 0.4078 0.0
H895 H 0.46986 0.59188 0.546 0.0
H896 H 0.48895 0.57002 0.58664 0.0
C897 C 0.90461 0.37604 0.35267 0.0
C898 C 0.91973 0.37518 0.28777 0.0
C899 C 0.9761 0.42105 0.34347 0.0
C900 C 0.96201 0.41728 0.41138 0.0
N901 N 0.91324 0.38871 0.48243 0.0
N902 N 0.96946 0.39705 0.21939 0.0
C903 C 0.92627 0.39439 0.4163 0.0
C904 C 0.95537 0.3981 0.28236 0.0
N905 N 0.86956 0.35933 0.35376 0.0
N906 N 0.00923 0.44658 0.33757 0.0
H907 H 0.95449 0.38206 0.17259 0.0
H908 H 0.99589 0.40977 0.21416 0.0
H909 H 0.02457 0.46311 0.3819 0.0
H910 H 0.02044 0.45314 0.28887 0.0
H911 H 0.85709 0.36114 0.39816 0.0
H912 H 0.85255 0.34598 0.30852 0.0
H913 H 0.88862 0.36857 0.49053 0.0
H914 H 0.92772 0.40274 0.53037 0.0
C915 C 0.579 0.89195 0.4058 0.0
C916 C 0.5846 0.89891 0.33302 0.0
C917 C 0.6092 0.9615 0.36722 0.0
C918 C 0.59607 0.95338 0.43575 0.0
N919 N 0.56417 0.90888 0.5174 0.0
N920 N 0.60498 0.9402 0.24233 0.0
C921 C 0.58058 0.91822 0.45534 0.0
C922 C 0.60037 0.93379 0.31316 0.0
N923 N 0.57111 0.85979 0.42682 0.0
N924 N 0.62969 0.99572 0.35397 0.0
H925 H 0.5993 0.92057 0.2015 0.0
H926 H 0.61252 0.96459 0.22352 0.0
H927 H 0.63673 0.01636 0.39339 0.0
H928 H 0.64229 0.00336 0.307 0.0
H929 H 0.56979 0.8542 0.48068 0.0
H930 H 0.56953 0.83998 0.39093 0.0
H931 H 0.54902 0.88288 0.52874 0.0
H932 H 0.56265 0.92623 0.55488 0.0
C933 C 0.69429 0.55613 0.34297 0.0
C934 C 0.68026 0.54828 0.26963 0.0
C935 C 0.62915 0.549 0.30832 0.0
C936 C 0.64042 0.55041 0.38202 0.0
N937 N 0.6827 0.55222 0.46932 0.0
N938 N 0.63311 0.53549 0.18253 0.0
C939 C 0.67287 0.55342 0.3994 0.0
C940 C 0.64725 0.54408 0.25242 0.0
N941 N 0.72827 0.56696 0.35895 0.0
N942 N 0.60238 0.55458 0.29153 0.0
H943 H 0.64658 0.53443 0.13918 0.0
H944 H 0.60736 0.52751 0.16815 0.0
H945 H 0.58986 0.56068 0.33049 0.0
H946 H 0.59524 0.55728 0.23923 0.0
H947 H 0.74077 0.5771 0.41036 0.0
H948 H 0.74479 0.56918 0.31965 0.0
H949 H 0.70441 0.55043 0.48421 0.0
H950 H 0.66756 0.55 0.5118 0.0
C951 C 0.07225 0.66711 0.32287 0.0
C952 C 0.10312 0.69564 0.35753 0.0
C953 C 0.0942 0.66587 0.46739 0.0
C954 C 0.0626 0.63755 0.43407 0.0
N955 N 0.01691 0.61619 0.33816 0.0
N956 N 0.13699 0.72732 0.46787 0.0
C957 C 0.05004 0.63977 0.36429 0.0
C958 C 0.11147 0.69686 0.43202 0.0
N959 N 0.06511 0.66502 0.25002 0.0
N960 N 0.10958 0.66226 0.52903 0.0
H961 H 0.15015 0.75038 0.44227 0.0
H962 H 0.14234 0.73045 0.52375 0.0
H963 H 0.10002 0.63894 0.55374 0.0
H964 H 0.13417 0.68124 0.55092 0.0
H965 H 0.04518 0.6427 0.22088 0.0
H966 H 0.08038 0.6848 0.21794 0.0
H967 H 0.00558 0.61846 0.2901 0.0
H968 H -0.00032 0.59645 0.36814 0.0
loop_
_geom_bond_atom_site_label_1
_geom_bond_atom_site_label_2
_geom_bond_distance
_geom_bond_site_symmetry_2
_ccdc_geom_bond_type
H0 O26 0.856 . S
H1 O29 0.854 . S
H2 C37 0.930 . S
H3 C38 0.930 . S
H4 C40 0.930 . S
H5 C41 0.930 . S
H6 C43 0.931 . S
H7 C44 0.930 . S
H8 C46 0.930 . S
H9 C47 0.929 . S
H10 C49 0.930 . S
H11 C50 0.931 . S
H12 C52 0.930 . S
H13 C53 0.929 . S
H14 C55 0.931 . S
H15 C56 0.930 . S
H16 C58 0.930 . S
H17 C59 0.932 . S
H18 C61 0.930 . S
H19 C62 0.929 . S
H20 C64 0.931 . S
H21 C65 0.930 . S
H22 C67 0.929 . S
H23 C68 0.931 . S
H24 C70 0.930 . S
H25 C71 0.929 . S
O26 H0 0.856 . S
O26 C72 1.300 . S
O27 C72 1.209 . S
O28 C73 1.199 . S
O29 H1 0.854 . S
O29 C73 1.297 . S
C30 C31 1.404 . S
C30 C35 1.397 . S
C30 C36 1.492 . S
C31 C30 1.404 . S
C31 C32 1.396 . S
C31 C42 1.492 . S
C32 C31 1.396 . S
C32 C33 1.397 . S
C32 C48 1.509 . S
C33 C32 1.397 . S
C33 C34 1.412 . S
C33 C54 1.485 . S
C34 C33 1.412 . S
C34 C35 1.388 . S
C34 C60 1.490 . S
C35 C30 1.397 . S
C35 C34 1.388 . S
C35 C66 1.519 . S
C36 C30 1.492 . S
C36 C37 1.363 . S
C36 C41 1.390 . S
C37 H2 0.930 . S
C37 C36 1.363 . S
C37 C38 1.372 . S
C38 H3 0.930 . S
C38 C37 1.372 . S
C38 C39 1.383 . S
C39 C38 1.383 . S
C39 C40 1.395 . S
C40 H4 0.930 . S
C40 C39 1.395 . S
C40 C41 1.362 . S
C41 H5 0.930 . S
C41 C36 1.390 . S
C41 C40 1.362 . S
C42 C31 1.492 . S
C42 C43 1.377 . S
C42 C47 1.397 . S
C43 H6 0.931 . S
C43 C42 1.377 . S
C43 C44 1.376 . S
C44 H7 0.930 . S
C44 C43 1.376 . S
C44 C45 1.376 . S
C45 C44 1.376 . S
C45 C46 1.378 . S
C45 C72 1.486 . S
C46 H8 0.930 . S
C46 C45 1.378 . S
C46 C47 1.376 . S
C47 H9 0.929 . S
C47 C42 1.397 . S
C47 C46 1.376 . S
C48 C32 1.509 . S
C48 C49 1.391 . S
C48 C53 1.386 . S
C49 H10 0.930 . S
C49 C48 1.391 . S
C49 C50 1.375 . S
C50 H11 0.931 . S
C50 C49 1.375 . S
C50 C51 1.375 . S
C51 C50 1.375 . S
C51 C52 1.361 . S
C52 H12 0.930 . S
C52 C51 1.361 . S
C52 C53 1.399 . S
C53 H13 0.929 . S
C53 C48 1.386 . S
C53 C52 1.399 . S
C54 C33 1.485 . S
C54 C55 1.394 . S
C54 C59 1.360 . S
C55 H14 0.931 . S
C55 C54 1.394 . S
C55 C56 1.372 . S
C56 H15 0.930 . S
C56 C55 1.372 . S
C56 C57 1.397 . S
C57 C56 1.397 . S
C57 C58 1.390 . S
C57 C73 1.476 . S
C58 H16 0.930 . S
C58 C57 1.390 . S
C58 C59 1.366 . S
C59 H17 0.932 . S
C59 C54 1.360 . S
C59 C58 1.366 . S
C60 C34 1.490 . S
C60 C61 1.380 . S
C60 C65 1.386 . S
C61 H18 0.930 . S
C61 C60 1.380 . S
C61 C62 1.381 1_554 S
C62 H19 0.929 . S
C62 C61 1.381 1_556 S
C62 C63 1.371 . S
C63 C62 1.371 . S
C63 C64 1.380 . S
C64 H20 0.931 . S
C64 C63 1.380 . S
C64 C65 1.387 1_556 S
C65 H21 0.930 . S
C65 C60 1.386 . S
C65 C64 1.387 1_554 S
C66 C35 1.519 . S
C66 C67 1.377 . S
C66 C71 1.361 . S
C67 H22 0.929 . S
C67 C66 1.377 . S
C67 C68 1.386 . S
C68 H23 0.931 . S
C68 C67 1.386 . S
C68 C69 1.363 . S
C69 C68 1.363 . S
C69 C70 1.385 . S
C70 H24 0.930 . S
C70 C69 1.385 . S
C70 C71 1.396 . S
C71 H25 0.929 . S
C71 C66 1.361 . S
C71 C70 1.396 . S
C72 O26 1.300 . S
C72 O27 1.209 . S
C72 C45 1.486 . S
C73 O28 1.199 . S
C73 O29 1.297 . S
C73 C57 1.476 . S
H74 O100 0.856 . S
H75 O103 0.854 1_565 S
H76 C111 0.930 . S
H77 C112 0.930 . S
H78 C114 0.930 . S
H79 C115 0.930 . S
H80 C117 0.931 . S
H81 C118 0.930 . S
H82 C120 0.930 . S
H83 C121 0.929 . S
H84 C123 0.930 . S
H85 C124 0.931 . S
H86 C126 0.930 . S
H87 C127 0.929 . S
H88 C129 0.931 . S
H89 C130 0.930 . S
H90 C132 0.930 . S
H91 C133 0.932 . S
H92 C135 0.930 1_554 S
H93 C136 0.929 . S
H94 C138 0.931 . S
H95 C139 0.930 1_554 S
H96 C141 0.929 . S
H97 C142 0.931 . S
H98 C144 0.930 . S
H99 C145 0.929 . S
O100 H74 0.856 . S
O100 C146 1.300 . S
O101 C146 1.209 . S
O102 C147 1.199 . S
O103 H75 0.854 1_545 S
O103 C147 1.297 . S
C104 C105 1.404 . S
C104 C109 1.397 . S
C104 C110 1.492 . S
C105 C104 1.404 . S
C105 C106 1.396 . S
C105 C116 1.492 . S
C106 C105 1.396 . S
C106 C107 1.397 . S
C106 C122 1.509 . S
C107 C106 1.397 . S
C107 C108 1.412 . S
C107 C128 1.485 . S
C108 C107 1.412 . S
C108 C109 1.388 . S
C108 C134 1.490 . S
C109 C104 1.397 . S
C109 C108 1.388 . S
C109 C140 1.519 . S
C110 C104 1.492 . S
C110 C111 1.363 . S
C110 C115 1.390 . S
C111 H76 0.930 . S
C111 C110 1.363 . S
C111 C112 1.372 . S
C112 H77 0.930 . S
C112 C111 1.372 . S
C112 C113 1.383 . S
C113 C112 1.383 . S
C113 C114 1.395 . S
C114 H78 0.930 . S
C114 C113 1.395 . S
C114 C115 1.362 . S
C115 H79 0.930 . S
C115 C110 1.390 . S
C115 C114 1.362 . S
C116 C105 1.492 . S
C116 C117 1.377 . S
C116 C121 1.397 . S
C117 H80 0.931 . S
C117 C116 1.377 . S
C117 C118 1.376 . S
C118 H81 0.930 . S
C118 C117 1.376 . S
C118 C119 1.376 . S
C119 C118 1.376 . S
C119 C120 1.378 . S
C119 C146 1.486 . S
C120 H82 0.930 . S
C120 C119 1.378 . S
C120 C121 1.376 . S
C121 H83 0.929 . S
C121 C116 1.397 . S
C121 C120 1.376 . S
C122 C106 1.509 . S
C122 C123 1.391 . S
C122 C127 1.386 . S
C123 H84 0.930 . S
C123 C122 1.391 . S
C123 C124 1.375 . S
C124 H85 0.931 . S
C124 C123 1.375 . S
C124 C125 1.375 . S
C125 C124 1.375 . S
C125 C126 1.361 . S
C126 H86 0.930 . S
C126 C125 1.361 . S
C126 C127 1.399 . S
C127 H87 0.929 . S
C127 C122 1.386 . S
C127 C126 1.399 . S
C128 C107 1.485 . S
C128 C129 1.394 . S
C128 C133 1.360 . S
C129 H88 0.931 . S
C129 C128 1.394 . S
C129 C130 1.372 . S
C130 H89 0.930 . S
C130 C129 1.372 . S
C130 C131 1.397 . S
C131 C130 1.397 . S
C131 C132 1.390 . S
C131 C147 1.476 . S
C132 H90 0.930 . S
C132 C131 1.390 . S
C132 C133 1.366 . S
C133 H91 0.932 . S
C133 C128 1.360 . S
C133 C132 1.366 . S
C134 C108 1.490 . S
C134 C135 1.380 1_554 S
C134 C139 1.386 1_554 S
C135 H92 0.930 1_556 S
C135 C134 1.380 1_556 S
C135 C136 1.381 . S
C136 H93 0.929 . S
C136 C135 1.381 . S
C136 C137 1.371 . S
C137 C136 1.371 . S
C137 C138 1.380 . S
C138 H94 0.931 . S
C138 C137 1.380 . S
C138 C139 1.387 . S
C139 H95 0.930 1_556 S
C139 C134 1.386 1_556 S
C139 C138 1.387 . S
C140 C109 1.519 . S
C140 C141 1.377 . S
C140 C145 1.361 . S
C141 H96 0.929 . S
C141 C140 1.377 . S
C141 C142 1.386 . S
C142 H97 0.931 . S
C142 C141 1.386 . S
C142 C143 1.363 1_554 S
C143 C142 1.363 1_556 S
C143 C144 1.385 . S
C144 H98 0.930 . S
C144 C143 1.385 . S
C144 C145 1.396 1_556 S
C145 H99 0.929 . S
C145 C140 1.361 . S
C145 C144 1.396 1_554 S
C146 O100 1.300 . S
C146 O101 1.209 . S
C146 C119 1.486 . S
C147 O102 1.199 . S
C147 O103 1.297 . S
C147 C131 1.476 . S
H148 O174 0.856 . S
H149 O177 0.854 . S
H150 C185 0.930 . S
H151 C186 0.930 . S
H152 C188 0.930 . S
H153 C189 0.930 . S
H154 C191 0.931 . S
H155 C192 0.930 . S
H156 C194 0.930 . S
H157 C195 0.929 . S
H158 C197 0.930 . S
H159 C198 0.931 . S
H160 C200 0.930 . S
H161 C201 0.929 . S
H162 C203 0.931 . S
H163 C204 0.930 . S
H164 C206 0.930 1_556 S
H165 C207 0.932 . S
H166 C209 0.930 . S
H167 C210 0.929 . S
H168 C212 0.931 . S
H169 C213 0.930 . S
H170 C215 0.929 . S
H171 C216 0.931 . S
H172 C218 0.930 . S
H173 C219 0.929 . S
O174 H148 0.856 . S
O174 C220 1.300 . S
O175 C220 1.209 . S
O176 C221 1.199 . S
O177 H149 0.854 . S
O177 C221 1.297 . S
C178 C179 1.404 . S
C178 C183 1.397 1_556 S
C178 C184 1.492 . S
C179 C178 1.404 . S
C179 C180 1.396 . S
C179 C190 1.492 . S
C180 C179 1.396 . S
C180 C181 1.397 . S
C180 C196 1.509 . S
C181 C180 1.397 . S
C181 C182 1.412 1_556 S
C181 C202 1.485 1_556 S
C182 C181 1.412 1_554 S
C182 C183 1.388 . S
C182 C208 1.490 . S
C183 C178 1.397 1_554 S
C183 C182 1.388 . S
C183 C214 1.519 . S
C184 C178 1.492 . S
C184 C185 1.363 . S
C184 C189 1.390 . S
C185 H150 0.930 . S
C185 C184 1.363 . S
C185 C186 1.372 . S
C186 H151 0.930 . S
C186 C185 1.372 . S
C186 C187 1.383 . S
C187 C186 1.383 . S
C187 C188 1.395 . S
C188 H152 0.930 . S
C188 C187 1.395 . S
C188 C189 1.362 . S
C189 H153 0.930 . S
C189 C184 1.390 . S
C189 C188 1.362 . S
C190 C179 1.492 . S
C190 C191 1.377 . S
C190 C195 1.397 . S
C191 H154 0.931 . S
C191 C190 1.377 . S
C191 C192 1.376 . S
C192 H155 0.930 . S
C192 C191 1.376 . S
C192 C193 1.376 . S
C193 C192 1.376 . S
C193 C194 1.378 . S
C193 C220 1.486 . S
C194 H156 0.930 . S
C194 C193 1.378 . S
C194 C195 1.376 . S
C195 H157 0.929 . S
C195 C190 1.397 . S
C195 C194 1.376 . S
C196 C180 1.509 . S
C196 C197 1.391 . S
C196 C201 1.386 . S
C197 H158 0.930 . S
C197 C196 1.391 . S
C197 C198 1.375 . S
C198 H159 0.931 . S
C198 C197 1.375 . S
C198 C199 1.375 . S
C199 C198 1.375 . S
C199 C200 1.361 . S
C200 H160 0.930 . S
C200 C199 1.361 . S
C200 C201 1.399 . S
C201 H161 0.929 . S
C201 C196 1.386 . S
C201 C200 1.399 . S
C202 C181 1.485 1_554 S
C202 C203 1.394 . S
C202 C207 1.360 1_554 S
C203 H162 0.931 . S
C203 C202 1.394 . S
C203 C204 1.372 . S
C204 H163 0.930 . S
C204 C203 1.372 . S
C204 C205 1.397 . S
C205 C204 1.397 . S
C205 C206 1.390 . S
C205 C221 1.476 . S
C206 H164 0.930 1_554 S
C206 C205 1.390 . S
C206 C207 1.366 1_554 S
C207 H165 0.932 . S
C207 C202 1.360 1_556 S
C207 C206 1.366 1_556 S
C208 C182 1.490 . S
C208 C209 1.380 . S
C208 C213 1.386 . S
C209 H166 0.930 . S
C209 C208 1.380 . S
C209 C210 1.381 . S
C210 H167 0.929 . S
C210 C209 1.381 . S
C210 C211 1.371 . S
C211 C210 1.371 . S
C211 C212 1.380 . S
C212 H168 0.931 . S
C212 C211 1.380 . S
C212 C213 1.387 . S
C213 H169 0.930 . S
C213 C208 1.386 . S
C213 C212 1.387 . S
C214 C183 1.519 . S
C214 C215 1.377 . S
C214 C219 1.361 . S
C215 H170 0.929 . S
C215 C214 1.377 . S
C215 C216 1.386 . S
C216 H171 0.931 . S
C216 C215 1.386 . S
C216 C217 1.363 . S
C217 C216 1.363 . S
C217 C218 1.385 . S
C218 H172 0.930 . S
C218 C217 1.385 . S
C218 C219 1.396 . S
C219 H173 0.929 . S
C219 C214 1.361 . S
C219 C218 1.396 . S
C220 O174 1.300 . S
C220 O175 1.209 . S
C220 C193 1.486 . S
C221 O176 1.199 . S
C221 O177 1.297 . S
C221 C205 1.476 . S
H222 O248 0.856 . S
H223 O251 0.854 1_455 S
H224 C259 0.930 . S
H225 C260 0.930 . S
H226 C262 0.930 . S
H227 C263 0.930 . S
H228 C265 0.931 . S
H229 C266 0.930 . S
H230 C268 0.930 . S
H231 C269 0.929 . S
H232 C271 0.930 . S
H233 C272 0.931 . S
H234 C274 0.930 . S
H235 C275 0.929 . S
H236 C277 0.931 . S
H237 C278 0.930 1_556 S
H238 C280 0.930 . S
H239 C281 0.932 . S
H240 C283 0.930 . S
H241 C284 0.929 . S
H242 C286 0.931 . S
H243 C287 0.930 . S
H244 C289 0.930 . S
H245 C290 0.931 . S
H246 C292 0.930 . S
H247 C293 0.929 . S
O248 H222 0.856 . S
O248 C294 1.300 . S
O249 C294 1.209 . S
O250 C295 1.199 1_556 S
O251 H223 0.854 1_655 S
O251 C295 1.297 . S
C252 C253 1.404 . S
C252 C257 1.397 . S
C252 C258 1.492 . S
C253 C252 1.404 . S
C253 C254 1.396 . S
C253 C264 1.492 . S
C254 C253 1.396 . S
C254 C255 1.397 . S
C254 C270 1.509 . S
C255 C254 1.397 . S
C255 C256 1.412 . S
C255 C276 1.485 . S
C256 C255 1.412 . S
C256 C257 1.388 . S
C256 C282 1.490 1_554 S
C257 C252 1.397 . S
C257 C256 1.388 . S
C257 C288 1.519 1_554 S
C258 C252 1.492 . S
C258 C259 1.363 . S
C258 C263 1.390 . S
C259 H224 0.930 . S
C259 C258 1.363 . S
C259 C260 1.372 . S
C260 H225 0.930 . S
C260 C259 1.372 . S
C260 C261 1.383 . S
C261 C260 1.383 . S
C261 C262 1.395 . S
C262 H226 0.930 . S
C262 C261 1.395 . S
C262 C263 1.362 . S
C263 H227 0.930 . S
C263 C258 1.390 . S
C263 C262 1.362 . S
C264 C253 1.492 . S
C264 C265 1.377 . S
C264 C269 1.397 . S
C265 H228 0.931 . S
C265 C264 1.377 . S
C265 C266 1.376 . S
C266 H229 0.930 . S
C266 C265 1.376 . S
C266 C267 1.376 . S
C267 C266 1.376 . S
C267 C268 1.378 . S
C267 C294 1.486 . S
C268 H230 0.930 . S
C268 C267 1.378 . S
C268 C269 1.376 . S
C269 H231 0.929 . S
C269 C264 1.397 . S
C269 C268 1.376 . S
C270 C254 1.509 . S
C270 C271 1.391 . S
C270 C275 1.386 . S
C271 H232 0.930 . S
C271 C270 1.391 . S
C271 C272 1.375 . S
C272 H233 0.931 . S
C272 C271 1.375 . S
C272 C273 1.375 . S
C273 C272 1.375 . S
C273 C274 1.361 . S
C274 H234 0.930 . S
C274 C273 1.361 . S
C274 C275 1.399 . S
C275 H235 0.929 . S
C275 C270 1.386 . S
C275 C274 1.399 . S
C276 C255 1.485 . S
C276 C277 1.394 . S
C276 C281 1.360 . S
C277 H236 0.931 . S
C277 C276 1.394 . S
C277 C278 1.372 . S
C278 H237 0.930 1_554 S
C278 C277 1.372 . S
C278 C279 1.397 . S
C279 C278 1.397 . S
C279 C280 1.390 . S
C279 C295 1.476 . S
C280 H238 0.930 . S
C280 C279 1.390 . S
C280 C281 1.366 . S
C281 H239 0.932 . S
C281 C276 1.360 . S
C281 C280 1.366 . S
C282 C256 1.490 1_556 S
C282 C283 1.380 . S
C282 C287 1.386 . S
C283 H240 0.930 . S
C283 C282 1.380 . S
C283 C284 1.381 . S
C284 H241 0.929 . S
C284 C283 1.381 . S
C284 C285 1.371 . S
C285 C284 1.371 . S
C285 C286 1.380 . S
C286 H242 0.931 . S
C286 C285 1.380 . S
C286 C287 1.387 . S
C287 H243 0.930 . S
C287 C282 1.386 . S
C287 C286 1.387 . S
C288 C257 1.519 1_556 S
C288 C289 1.377 . S
C288 C293 1.361 . S
C289 H244 0.930 . S
C289 C288 1.377 . S
C289 C290 1.386 . S
C290 H245 0.931 . S
C290 C289 1.386 . S
C290 C291 1.363 . S
C291 C290 1.363 . S
C291 C292 1.385 . S
C292 H246 0.930 . S
C292 C291 1.385 . S
C292 C293 1.396 . S
C293 H247 0.929 . S
C293 C288 1.361 . S
C293 C292 1.396 . S
C294 O248 1.300 . S
C294 O249 1.209 . S
C294 C267 1.486 . S
C295 O250 1.199 1_554 S
C295 O251 1.297 . S
C295 C279 1.476 . S
H296 O322 0.856 . S
H297 O325 0.854 . S
H298 C333 0.930 . S
H299 C334 0.930 . S
H300 C336 0.930 . S
H301 C337 0.930 . S
H302 C339 0.931 . S
H303 C340 0.930 . S
H304 C342 0.930 . S
H305 C343 0.929 . S
H306 C345 0.930 . S
H307 C346 0.931 . S
H308 C348 0.930 . S
H309 C349 0.929 . S
H310 C351 0.931 . S
H311 C352 0.930 1_556 S
H312 C354 0.930 . S
H313 C355 0.932 . S
H314 C357 0.930 . S
H315 C358 0.929 . S
H316 C360 0.931 . S
H317 C361 0.930 . S
H318 C363 0.929 . S
H319 C364 0.931 . S
H320 C366 0.930 . S
H321 C367 0.929 . S
O322 H296 0.856 . S
O322 C368 1.300 . S
O323 C368 1.209 . S
O324 C369 1.199 1_556 S
O325 H297 0.854 . S
O325 C369 1.297 . S
C326 C327 1.404 . S
C326 C331 1.397 . S
C326 C332 1.492 . S
C327 C326 1.404 . S
C327 C328 1.396 . S
C327 C338 1.492 . S
C328 C327 1.396 . S
C328 C329 1.397 . S
C328 C344 1.509 . S
C329 C328 1.397 . S
C329 C330 1.412 . S
C329 C350 1.485 . S
C330 C329 1.412 . S
C330 C331 1.388 . S
C330 C356 1.490 1_554 S
C331 C326 1.397 . S
C331 C330 1.388 . S
C331 C362 1.519 . S
C332 C326 1.492 . S
C332 C333 1.363 . S
C332 C337 1.390 . S
C333 H298 0.930 . S
C333 C332 1.363 . S
C333 C334 1.372 . S
C334 H299 0.930 . S
C334 C333 1.372 . S
C334 C335 1.383 . S
C335 C334 1.383 . S
C335 C336 1.395 . S
C336 H300 0.930 . S
C336 C335 1.395 . S
C336 C337 1.362 . S
C337 H301 0.930 . S
C337 C332 1.390 . S
C337 C336 1.362 . S
C338 C327 1.492 . S
C338 C339 1.377 . S
C338 C343 1.397 . S
C339 H302 0.931 . S
C339 C338 1.377 . S
C339 C340 1.376 . S
C340 H303 0.930 . S
C340 C339 1.376 . S
C340 C341 1.376 . S
C341 C340 1.376 . S
C341 C342 1.378 . S
C341 C368 1.486 . S
C342 H304 0.930 . S
C342 C341 1.378 . S
C342 C343 1.376 . S
C343 H305 0.929 . S
C343 C338 1.397 . S
C343 C342 1.376 . S
C344 C328 1.509 . S
C344 C345 1.391 . S
C344 C349 1.386 . S
C345 H306 0.930 . S
C345 C344 1.391 . S
C345 C346 1.375 . S
C346 H307 0.931 . S
C346 C345 1.375 . S
C346 C347 1.375 . S
C347 C346 1.375 . S
C347 C348 1.361 . S
C348 H308 0.930 . S
C348 C347 1.361 . S
C348 C349 1.399 . S
C349 H309 0.929 . S
C349 C344 1.386 . S
C349 C348 1.399 . S
C350 C329 1.485 . S
C350 C351 1.394 . S
C350 C355 1.360 . S
C351 H310 0.931 . S
C351 C350 1.394 . S
C351 C352 1.372 . S
C352 H311 0.930 1_554 S
C352 C351 1.372 . S
C352 C353 1.397 . S
C353 C352 1.397 . S
C353 C354 1.390 . S
C353 C369 1.476 . S
C354 H312 0.930 . S
C354 C353 1.390 . S
C354 C355 1.366 . S
C355 H313 0.932 . S
C355 C350 1.360 . S
C355 C354 1.366 . S
C356 C330 1.490 1_556 S
C356 C357 1.380 . S
C356 C361 1.386 . S
C357 H314 0.930 . S
C357 C356 1.380 . S
C357 C358 1.381 . S
C358 H315 0.929 . S
C358 C357 1.381 . S
C358 C359 1.371 . S
C359 C358 1.371 . S
C359 C360 1.380 . S
C360 H316 0.931 . S
C360 C359 1.380 . S
C360 C361 1.387 . S
C361 H317 0.930 . S
C361 C356 1.386 . S
C361 C360 1.387 . S
C362 C331 1.519 . S
C362 C363 1.377 . S
C362 C367 1.361 1_554 S
C363 H318 0.929 . S
C363 C362 1.377 . S
C363 C364 1.386 1_554 S
C364 H319 0.931 . S
C364 C363 1.386 1_556 S
C364 C365 1.363 . S
C365 C364 1.363 . S
C365 C366 1.385 . S
C366 H320 0.930 . S
C366 C365 1.385 . S
C366 C367 1.396 . S
C367 H321 0.929 . S
C367 C362 1.361 1_556 S
C367 C366 1.396 . S
C368 O322 1.300 . S
C368 O323 1.209 . S
C368 C341 1.486 . S
C369 O324 1.199 1_554 S
C369 O325 1.297 . S
C369 C353 1.476 . S
H370 O396 0.856 . S
H371 O399 0.854 . S
H372 C407 0.930 . S
H373 C408 0.930 . S
H374 C410 0.930 . S
H375 C411 0.930 . S
H376 C413 0.931 . S
H377 C414 0.930 . S
H378 C416 0.930 . S
H379 C417 0.929 1_554 S
H380 C419 0.930 . S
H381 C420 0.931 . S
H382 C422 0.930 . S
H383 C423 0.929 . S
H384 C425 0.931 . S
H385 C426 0.930 . S
H386 C428 0.930 . S
H387 C429 0.932 . S
H388 C431 0.930 . S
H389 C432 0.929 . S
H390 C434 0.931 . S
H391 C435 0.930 . S
H392 C437 0.929 . S
H393 C438 0.931 . S
H394 C440 0.930 . S
H395 C441 0.929 . S
O396 H370 0.856 . S
O396 C442 1.300 . S
O397 C442 1.209 . S
O398 C443 1.199 . S
O399 H371 0.854 . S
O399 C443 1.297 . S
C400 C401 1.404 . S
C400 C405 1.397 . S
C400 C406 1.492 . S
C401 C400 1.404 . S
C401 C402 1.396 . S
C401 C412 1.492 . S
C402 C401 1.396 . S
C402 C403 1.397 . S
C402 C418 1.509 . S
C403 C402 1.397 . S
C403 C404 1.412 . S
C403 C424 1.485 . S
C404 C403 1.412 . S
C404 C405 1.388 . S
C404 C430 1.490 . S
C405 C400 1.397 . S
C405 C404 1.388 . S
C405 C436 1.519 . S
C406 C400 1.492 . S
C406 C407 1.363 . S
C406 C411 1.390 . S
C407 H372 0.930 . S
C407 C406 1.363 . S
C407 C408 1.372 . S
C408 H373 0.930 . S
C408 C407 1.372 . S
C408 C409 1.383 . S
C409 C408 1.383 . S
C409 C410 1.395 . S
C410 H374 0.930 . S
C410 C409 1.395 . S
C410 C411 1.362 . S
C411 H375 0.930 . S
C411 C406 1.390 . S
C411 C410 1.362 . S
C412 C401 1.492 . S
C412 C413 1.377 1_554 S
C412 C417 1.397 1_554 S
C413 H376 0.931 . S
C413 C412 1.377 1_556 S
C413 C414 1.376 . S
C414 H377 0.930 . S
C414 C413 1.376 . S
C414 C415 1.376 . S
C415 C414 1.376 . S
C415 C416 1.378 . S
C415 C442 1.486 . S
C416 H378 0.930 . S
C416 C415 1.378 . S
C416 C417 1.376 . S
C417 H379 0.929 1_556 S
C417 C412 1.397 1_556 S
C417 C416 1.376 . S
C418 C402 1.509 . S
C418 C419 1.391 . S
C418 C423 1.386 . S
C419 H380 0.930 . S
C419 C418 1.391 . S
C419 C420 1.375 1_554 S
C420 H381 0.931 . S
C420 C419 1.375 1_556 S
C420 C421 1.375 . S
C421 C420 1.375 . S
C421 C422 1.361 . S
C422 H382 0.930 . S
C422 C421 1.361 . S
C422 C423 1.399 1_556 S
C423 H383 0.929 . S
C423 C418 1.386 . S
C423 C422 1.399 1_554 S
C424 C403 1.485 . S
C424 C425 1.394 . S
C424 C429 1.360 . S
C425 H384 0.931 . S
C425 C424 1.394 . S
C425 C426 1.372 . S
C426 H385 0.930 . S
C426 C425 1.372 . S
C426 C427 1.397 . S
C427 C426 1.397 . S
C427 C428 1.390 . S
C427 C443 1.476 . S
C428 H386 0.930 . S
C428 C427 1.390 . S
C428 C429 1.366 . S
C429 H387 0.932 . S
C429 C424 1.360 . S
C429 C428 1.366 . S
C430 C404 1.490 . S
C430 C431 1.380 . S
C430 C435 1.386 . S
C431 H388 0.930 . S
C431 C430 1.380 . S
C431 C432 1.381 . S
C432 H389 0.929 . S
C432 C431 1.381 . S
C432 C433 1.371 . S
C433 C432 1.371 . S
C433 C434 1.380 . S
C434 H390 0.931 . S
C434 C433 1.380 . S
C434 C435 1.387 . S
C435 H391 0.930 . S
C435 C430 1.386 . S
C435 C434 1.387 . S
C436 C405 1.519 . S
C436 C437 1.377 . S
C436 C441 1.361 . S
C437 H392 0.929 . S
C437 C436 1.377 . S
C437 C438 1.386 . S
C438 H393 0.931 . S
C438 C437 1.386 . S
C438 C439 1.363 . S
C439 C438 1.363 . S
C439 C440 1.385 . S
C440 H394 0.930 . S
C440 C439 1.385 . S
C440 C441 1.396 . S
C441 H395 0.929 . S
C441 C436 1.361 . S
C441 C440 1.396 . S
C442 O396 1.300 . S
C442 O397 1.209 . S
C442 C415 1.486 . S
C443 O398 1.199 . S
C443 O399 1.297 . S
C443 C427 1.476 . S
C444 O456 1.241 . S
C444 O457 1.280 . S
C445 O458 1.277 . S
C445 O459 1.245 . S
C446 O470 1.247 . S
C446 O472 1.289 . S
Mg447 O448 1.918 . S
Mg447 O457 1.975 1_455 S
Mg447 O459 2.003 . S
Mg447 O460 2.053 1_455 S
O448 Mg447 1.918 . S
O448 Mg449 1.986 . S
O448 Mg450 1.917 . S
Mg449 O448 1.986 . S
Mg449 O456 2.042 1_455 S
Mg449 O458 2.041 . S
Mg449 O464 2.038 1_455 S
Mg449 O472 2.238 . S
Mg450 O448 1.917 . S
Mg450 O451 1.917 . S
Mg450 O461 2.106 1_455 S
Mg450 O463 2.079 1_455 S
Mg450 O472 2.106 . S
Mg450 O473 2.079 . S
O451 Mg450 1.917 . S
O451 Mg452 1.926 . S
O451 Mg453 1.986 . S
Mg452 O451 1.926 . S
Mg452 O466 1.984 . S
Mg452 O469 1.988 1_455 S
Mg452 O470 2.061 . S
Mg453 O451 1.986 . S
Mg453 O461 2.238 1_455 S
Mg453 O465 2.042 . S
Mg453 O467 2.041 1_455 S
Mg453 O474 2.038 . S
C454 O460 1.247 . S
C454 O461 1.289 . S
C455 O473 1.245 . S
C455 O474 1.274 . S
O456 C444 1.241 . S
O456 Mg449 2.042 1_655 S
O457 C444 1.280 . S
O457 Mg447 1.975 1_655 S
O458 C445 1.277 . S
O458 Mg449 2.041 . S
O459 C445 1.245 . S
O459 Mg447 2.003 . S
O460 Mg447 2.053 1_655 S
O460 C454 1.247 . S
O461 Mg450 2.106 1_655 S
O461 Mg453 2.238 1_655 S
O461 C454 1.289 . S
C462 O463 1.245 . S
C462 O464 1.274 . S
O463 Mg450 2.079 1_655 S
O463 C462 1.245 . S
O464 Mg449 2.038 1_655 S
O464 C462 1.274 . S
O465 Mg453 2.042 . S
O465 C468 1.241 . S
O466 Mg452 1.984 . S
O466 C468 1.280 . S
O467 Mg453 2.041 1_655 S
O467 C471 1.277 . S
C468 O465 1.241 . S
C468 O466 1.280 . S
O469 Mg452 1.988 1_655 S
O469 C471 1.245 . S
O470 C446 1.247 . S
O470 Mg452 2.061 . S
C471 O467 1.277 . S
C471 O469 1.245 . S
O472 C446 1.289 . S
O472 Mg449 2.238 . S
O472 Mg450 2.106 . S
O473 Mg450 2.079 . S
O473 C455 1.245 . S
O474 Mg453 2.038 . S
O474 C455 1.274 . S
C475 O487 1.241 . S
C475 O488 1.280 . S
C476 O489 1.277 . S
C476 O490 1.245 . S
C477 O501 1.247 . S
C477 O503 1.289 . S
Mg478 O479 1.926 . S
Mg478 O488 1.984 . S
Mg478 O490 1.988 1_545 S
Mg478 O491 2.061 . S
O479 Mg478 1.926 . S
O479 Mg480 1.986 . S
O479 Mg481 1.917 . S
Mg480 O479 1.986 . S
Mg480 O487 2.042 . S
Mg480 O489 2.041 1_545 S
Mg480 O495 2.038 . S
Mg480 O503 2.238 1_545 S
Mg481 O479 1.917 . S
Mg481 O482 1.917 1_545 S
Mg481 O492 2.106 . S
Mg481 O494 2.079 . S
Mg481 O503 2.106 1_545 S
Mg481 O504 2.079 1_545 S
O482 Mg481 1.917 1_565 S
O482 Mg483 1.926 . S
O482 Mg484 1.986 1_565 S
Mg483 O482 1.926 . S
Mg483 O497 1.984 . S
Mg483 O500 1.988 1_565 S
Mg483 O501 2.061 . S
Mg484 O482 1.986 1_545 S
Mg484 O492 2.238 . S
Mg484 O496 2.042 1_545 S
Mg484 O498 2.041 . S
Mg484 O505 2.038 1_545 S
C485 O491 1.247 . S
C485 O492 1.289 . S
C486 O504 1.245 . S
C486 O505 1.274 . S
O487 C475 1.241 . S
O487 Mg480 2.042 . S
O488 C475 1.280 . S
O488 Mg478 1.984 . S
O489 C476 1.277 . S
O489 Mg480 2.041 1_565 S
O490 C476 1.245 . S
O490 Mg478 1.988 1_565 S
O491 Mg478 2.061 . S
O491 C485 1.247 . S
O492 Mg481 2.106 . S
O492 Mg484 2.238 . S
O492 C485 1.289 . S
C493 O494 1.245 . S
C493 O495 1.274 . S
O494 Mg481 2.079 . S
O494 C493 1.245 . S
O495 Mg480 2.038 . S
O495 C493 1.274 . S
O496 Mg484 2.042 1_565 S
O496 C499 1.241 . S
O497 Mg483 1.984 . S
O497 C499 1.280 . S
O498 Mg484 2.041 . S
O498 C502 1.277 . S
C499 O496 1.241 . S
C499 O497 1.280 . S
O500 Mg483 1.988 1_545 S
O500 C502 1.245 . S
O501 C477 1.247 . S
O501 Mg483 2.061 . S
C502 O498 1.277 . S
C502 O500 1.245 . S
O503 C477 1.289 . S
O503 Mg480 2.238 1_565 S
O503 Mg481 2.106 1_565 S
O504 Mg481 2.079 1_565 S
O504 C486 1.245 . S
O505 Mg484 2.038 1_565 S
O505 C486 1.274 . S
C506 O518 1.241 . S
C506 O519 1.280 . S
C507 O520 1.277 . S
C507 O521 1.245 . S
C508 O532 1.247 . S
C508 O534 1.289 . S
Mg509 O510 1.926 . S
Mg509 O519 1.984 . S
Mg509 O521 1.988 . S
Mg509 O522 2.061 . S
O510 Mg509 1.926 . S
O510 Mg511 1.986 . S
O510 Mg512 1.917 . S
Mg511 O510 1.986 . S
Mg511 O518 2.042 . S
Mg511 O520 2.041 . S
Mg511 O526 2.038 . S
Mg511 O534 2.238 . S
Mg512 O510 1.917 . S
Mg512 O513 1.917 . S
Mg512 O523 2.106 . S
Mg512 O525 2.079 . S
Mg512 O534 2.106 . S
Mg512 O535 2.079 . S
O513 Mg512 1.917 . S
O513 Mg514 1.926 . S
O513 Mg515 1.986 . S
Mg514 O513 1.926 . S
Mg514 O528 1.984 . S
Mg514 O531 1.988 . S
Mg514 O532 2.061 . S
Mg515 O513 1.986 . S
Mg515 O523 2.238 . S
Mg515 O527 2.042 . S
Mg515 O529 2.041 . S
Mg515 O536 2.038 . S
C516 O522 1.247 . S
C516 O523 1.289 . S
C517 O535 1.245 . S
C517 O536 1.274 . S
O518 C506 1.241 . S
O518 Mg511 2.042 . S
O519 C506 1.280 . S
O519 Mg509 1.984 . S
O520 C507 1.277 . S
O520 Mg511 2.041 . S
O521 C507 1.245 . S
O521 Mg509 1.988 . S
O522 Mg509 2.061 . S
O522 C516 1.247 . S
O523 Mg512 2.106 . S
O523 Mg515 2.238 . S
O523 C516 1.289 . S
C524 O525 1.245 . S
C524 O526 1.274 . S
O525 Mg512 2.079 . S
O525 C524 1.245 . S
O526 Mg511 2.038 . S
O526 C524 1.274 . S
O527 Mg515 2.042 . S
O527 C530 1.241 . S
O528 Mg514 1.984 . S
O528 C530 1.280 . S
O529 Mg515 2.041 . S
O529 C533 1.277 . S
C530 O527 1.241 . S
C530 O528 1.280 . S
O531 Mg514 1.988 . S
O531 C533 1.245 . S
O532 C508 1.247 . S
O532 Mg514 2.061 . S
C533 O529 1.277 . S
C533 O531 1.245 . S
O534 C508 1.289 . S
O534 Mg511 2.238 . S
O534 Mg512 2.106 . S
O535 Mg512 2.079 . S
O535 C517 1.245 . S
O536 Mg515 2.038 . S
O536 C517 1.274 . S
C537 C538 1.363 . S
C537 C543 1.379 . S
C537 N545 1.356 . S
C538 C537 1.363 . S
C538 C544 1.363 . S
C539 C540 1.363 . S
C539 C544 1.379 . S
C539 N546 1.356 . S
C540 C539 1.363 . S
C540 C543 1.363 . S
N541 C543 1.356 . S
N541 H553 0.984 . S
N541 H554 0.985 . S
N542 C544 1.356 . S
N542 H547 0.984 . S
N542 H548 0.985 . S
C543 C537 1.379 . S
C543 C540 1.363 . S
C543 N541 1.356 . S
C544 C538 1.363 . S
C544 C539 1.379 . S
C544 N542 1.356 . S
N545 C537 1.356 . S
N545 H551 0.984 . S
N545 H552 0.984 . S
N546 C539 1.356 . S
N546 H549 0.984 . S
N546 H550 0.985 . S
H547 N542 0.984 . S
H548 N542 0.985 . S
H549 N546 0.984 . S
H550 N546 0.985 . S
H551 N545 0.984 . S
H552 N545 0.984 . S
H553 N541 0.984 . S
H554 N541 0.985 . S
C555 C556 1.363 . S
C555 C561 1.379 . S
C555 N563 1.356 . S
C556 C555 1.363 . S
C556 C562 1.363 . S
C557 C558 1.363 . S
C557 C562 1.379 . S
C557 N564 1.356 . S
C558 C557 1.363 . S
C558 C561 1.363 . S
N559 C561 1.356 . S
N559 H571 0.984 . S
N559 H572 0.985 . S
N560 C562 1.356 . S
N560 H565 0.984 . S
N560 H566 0.985 . S
C561 C555 1.379 . S
C561 C558 1.363 . S
C561 N559 1.356 . S
C562 C556 1.363 . S
C562 C557 1.379 . S
C562 N560 1.356 . S
N563 C555 1.356 . S
N563 H569 0.984 . S
N563 H570 0.984 . S
N564 C557 1.356 . S
N564 H567 0.984 . S
N564 H568 0.985 . S
H565 N560 0.984 . S
H566 N560 0.985 . S
H567 N564 0.984 . S
H568 N564 0.985 . S
H569 N563 0.984 . S
H570 N563 0.984 . S
H571 N559 0.984 . S
H572 N559 0.985 . S
C573 C574 1.363 . S
C573 C579 1.379 . S
C573 N581 1.356 . S
C574 C573 1.363 . S
C574 C580 1.363 . S
C575 C576 1.363 . S
C575 C580 1.379 . S
C575 N582 1.356 . S
C576 C575 1.363 . S
C576 C579 1.363 . S
N577 C579 1.356 . S
N577 H589 0.984 . S
N577 H590 0.985 . S
N578 C580 1.356 . S
N578 H583 0.984 . S
N578 H584 0.985 . S
C579 C573 1.379 . S
C579 C576 1.363 . S
C579 N577 1.356 . S
C580 C574 1.363 . S
C580 C575 1.379 . S
C580 N578 1.356 . S
N581 C573 1.356 . S
N581 H587 0.984 . S
N581 H588 0.984 . S
N582 C575 1.356 . S
N582 H585 0.984 . S
N582 H586 0.985 . S
H583 N578 0.984 . S
H584 N578 0.985 . S
H585 N582 0.984 . S
H586 N582 0.985 . S
H587 N581 0.984 . S
H588 N581 0.984 . S
H589 N577 0.984 . S
H590 N577 0.985 . S
C591 C592 1.363 . S
C591 C597 1.379 . S
C591 N599 1.356 . S
C592 C591 1.363 . S
C592 C598 1.363 . S
C593 C594 1.363 . S
C593 C598 1.379 . S
C593 N600 1.356 . S
C594 C593 1.363 . S
C594 C597 1.363 . S
N595 C597 1.356 . S
N595 H607 0.984 . S
N595 H608 0.985 . S
N596 C598 1.356 . S
N596 H601 0.984 . S
N596 H602 0.985 . S
C597 C591 1.379 . S
C597 C594 1.363 . S
C597 N595 1.356 . S
C598 C592 1.363 . S
C598 C593 1.379 . S
C598 N596 1.356 . S
N599 C591 1.356 . S
N599 H605 0.984 . S
N599 H606 0.984 . S
N600 C593 1.356 . S
N600 H603 0.984 . S
N600 H604 0.985 . S
H601 N596 0.984 . S
H602 N596 0.985 . S
H603 N600 0.984 . S
H604 N600 0.985 . S
H605 N599 0.984 . S
H606 N599 0.984 . S
H607 N595 0.984 . S
H608 N595 0.985 . S
C609 C610 1.363 . S
C609 C615 1.379 . S
C609 N617 1.356 . S
C610 C609 1.363 . S
C610 C616 1.363 . S
C611 C612 1.363 . S
C611 C616 1.379 . S
C611 N618 1.356 . S
C612 C611 1.363 . S
C612 C615 1.363 . S
N613 C615 1.356 . S
N613 H625 0.984 . S
N613 H626 0.985 . S
N614 C616 1.356 . S
N614 H619 0.984 . S
N614 H620 0.985 . S
C615 C609 1.379 . S
C615 C612 1.363 . S
C615 N613 1.356 . S
C616 C610 1.363 . S
C616 C611 1.379 . S
C616 N614 1.356 . S
N617 C609 1.356 . S
N617 H623 0.984 . S
N617 H624 0.984 . S
N618 C611 1.356 . S
N618 H621 0.984 . S
N618 H622 0.985 . S
H619 N614 0.984 . S
H620 N614 0.985 . S
H621 N618 0.984 . S
H622 N618 0.985 . S
H623 N617 0.984 . S
H624 N617 0.984 . S
H625 N613 0.984 . S
H626 N613 0.985 . S
C627 C628 1.363 . S
C627 C633 1.379 . S
C627 N635 1.356 . S
C628 C627 1.363 . S
C628 C634 1.363 . S
C629 C630 1.363 . S
C629 C634 1.379 . S
C629 N636 1.356 . S
C630 C629 1.363 . S
C630 C633 1.363 . S
N631 C633 1.356 . S
N631 H643 0.984 . S
N631 H644 0.985 . S
N632 C634 1.356 . S
N632 H637 0.984 . S
N632 H638 0.985 . S
C633 C627 1.379 . S
C633 C630 1.363 . S
C633 N631 1.356 . S
C634 C628 1.363 . S
C634 C629 1.379 . S
C634 N632 1.356 . S
N635 C627 1.356 . S
N635 H641 0.984 . S
N635 H642 0.984 . S
N636 C629 1.356 . S
N636 H639 0.984 . S
N636 H640 0.985 . S
H637 N632 0.984 . S
H638 N632 0.985 . S
H639 N636 0.984 . S
H640 N636 0.985 . S
H641 N635 0.984 . S
H642 N635 0.984 . S
H643 N631 0.984 . S
H644 N631 0.985 . S
C645 C646 1.363 . S
C645 C651 1.379 . S
C645 N653 1.356 . S
C646 C645 1.363 . S
C646 C652 1.363 . S
C647 C648 1.363 . S
C647 C652 1.379 . S
C647 N654 1.356 . S
C648 C647 1.363 . S
C648 C651 1.363 . S
N649 C651 1.356 . S
N649 H661 0.984 . S
N649 H662 0.985 . S
N650 C652 1.356 . S
N650 H655 0.984 . S
N650 H656 0.985 . S
C651 C645 1.379 . S
C651 C648 1.363 . S
C651 N649 1.356 . S
C652 C646 1.363 . S
C652 C647 1.379 . S
C652 N650 1.356 . S
N653 C645 1.356 . S
N653 H659 0.984 . S
N653 H660 0.984 . S
N654 C647 1.356 . S
N654 H657 0.984 . S
N654 H658 1.005 . S
H655 N650 0.984 . S
H656 N650 0.985 . S
H657 N654 0.984 . S
H658 N654 1.005 . S
H659 N653 0.984 . S
H660 N653 0.984 . S
H661 N649 0.984 . S
H662 N649 0.985 . S
C663 C664 1.363 . S
C663 C669 1.379 . S
C663 N671 1.356 . S
C664 C663 1.363 . S
C664 C670 1.363 . S
C665 C666 1.363 . S
C665 C670 1.379 . S
C665 N672 1.356 . S
C666 C665 1.363 . S
C666 C669 1.363 . S
N667 C669 1.356 . S
N667 H679 0.984 . S
N667 H680 0.985 . S
N668 C670 1.356 . S
N668 H673 0.984 . S
N668 H674 0.985 . S
C669 C663 1.379 . S
C669 C666 1.363 . S
C669 N667 1.356 . S
C670 C664 1.363 . S
C670 C665 1.379 . S
C670 N668 1.356 . S
N671 C663 1.356 . S
N671 H677 0.984 . S
N671 H678 0.984 . S
N672 C665 1.356 . S
N672 H675 0.984 . S
N672 H676 0.985 . S
H673 N668 0.984 . S
H674 N668 0.985 . S
H675 N672 0.984 . S
H676 N672 0.985 . S
H677 N671 0.984 . S
H678 N671 0.984 . S
H679 N667 0.984 . S
H680 N667 0.985 . S
C681 C682 1.363 . S
C681 C687 1.379 . S
C681 N689 1.356 . S
C682 C681 1.363 . S
C682 C688 1.363 . S
C683 C684 1.363 . S
C683 C688 1.379 . S
C683 N690 1.356 . S
C684 C683 1.363 . S
C684 C687 1.363 . S
N685 C687 1.356 . S
N685 H697 0.984 . S
N685 H698 0.985 . S
N686 C688 1.356 . S
N686 H691 0.984 . S
N686 H692 0.985 . S
C687 C681 1.379 . S
C687 C684 1.363 . S
C687 N685 1.356 . S
C688 C682 1.363 . S
C688 C683 1.379 . S
C688 N686 1.356 . S
N689 C681 1.356 . S
N689 H695 0.984 . S
N689 H696 0.984 . S
N690 C683 1.356 . S
N690 H693 0.984 . S
N690 H694 0.985 . S
H691 N686 0.984 . S
H692 N686 0.985 . S
H693 N690 0.984 . S
H694 N690 0.985 . S
H695 N689 0.984 . S
H696 N689 0.984 . S
H697 N685 0.984 . S
H698 N685 0.985 . S
C699 C700 1.363 . S
C699 C705 1.379 . S
C699 N707 1.356 . S
C700 C699 1.363 . S
C700 C706 1.363 . S
C701 C702 1.363 . S
C701 C706 1.379 . S
C701 N708 1.356 . S
C702 C701 1.363 . S
C702 C705 1.363 . S
N703 C705 1.356 . S
N703 H715 0.984 . S
N703 H716 0.985 . S
N704 C706 1.356 1_554 S
N704 H709 0.984 . S
N704 H710 0.985 . S
C705 C699 1.379 . S
C705 C702 1.363 . S
C705 N703 1.356 . S
C706 C700 1.363 . S
C706 C701 1.379 . S
C706 N704 1.356 1_556 S
N707 C699 1.356 . S
N707 H713 0.984 . S
N707 H714 0.984 . S
N708 C701 1.356 . S
N708 H711 0.984 . S
N708 H712 0.985 . S
H709 N704 0.984 . S
H710 N704 0.985 . S
H711 N708 0.984 . S
H712 N708 0.985 . S
H713 N707 0.984 . S
H714 N707 0.984 . S
H715 N703 0.984 . S
H716 N703 0.985 . S
C717 C718 1.363 . S
C717 C723 1.379 . S
C717 N725 1.356 . S
C718 C717 1.363 . S
C718 C724 1.363 . S
C719 C720 1.363 . S
C719 C724 1.379 . S
C719 N726 1.356 . S
C720 C719 1.363 . S
C720 C723 1.363 . S
N721 C723 1.356 . S
N721 H733 0.984 . S
N721 H734 0.985 . S
N722 C724 1.356 . S
N722 H727 0.984 . S
N722 H728 0.985 . S
C723 C717 1.379 . S
C723 C720 1.363 . S
C723 N721 1.356 . S
C724 C718 1.363 . S
C724 C719 1.379 . S
C724 N722 1.356 . S
N725 C717 1.356 . S
N725 H731 0.984 . S
N725 H732 0.984 . S
N726 C719 1.356 . S
N726 H729 0.984 . S
N726 H730 0.985 . S
H727 N722 0.984 . S
H728 N722 0.985 . S
H729 N726 0.984 . S
H730 N726 0.985 . S
H731 N725 0.984 . S
H732 N725 0.984 . S
H733 N721 0.984 . S
H734 N721 0.985 . S
C735 C736 1.363 . S
C735 C741 1.379 . S
C735 N743 1.356 . S
C736 C735 1.363 . S
C736 C742 1.363 . S
C737 C738 1.363 . S
C737 C742 1.379 . S
C737 N744 1.356 . S
C738 C737 1.363 . S
C738 C741 1.363 . S
N739 C741 1.356 . S
N739 H751 0.984 . S
N739 H752 0.985 . S
N740 C742 1.356 1_554 S
N740 H745 0.984 . S
N740 H746 0.985 . S
C741 C735 1.379 . S
C741 C738 1.363 . S
C741 N739 1.356 . S
C742 C736 1.363 . S
C742 C737 1.379 . S
C742 N740 1.356 1_556 S
N743 C735 1.356 . S
N743 H749 0.984 . S
N743 H750 0.984 . S
N744 C737 1.356 . S
N744 H747 0.984 . S
N744 H748 0.985 . S
H745 N740 0.984 . S
H746 N740 0.985 . S
H747 N744 0.984 . S
H748 N744 0.985 . S
H749 N743 0.984 . S
H750 N743 0.984 . S
H751 N739 0.984 . S
H752 N739 0.985 . S
C753 C754 1.363 . S
C753 C759 1.379 . S
C753 N761 1.356 . S
C754 C753 1.363 . S
C754 C760 1.363 . S
C755 C756 1.363 . S
C755 C760 1.379 . S
C755 N762 1.356 . S
C756 C755 1.363 . S
C756 C759 1.363 . S
N757 C759 1.356 . S
N757 H769 0.984 . S
N757 H770 0.985 . S
N758 C760 1.356 . S
N758 H763 0.984 . S
N758 H764 0.985 . S
C759 C753 1.379 . S
C759 C756 1.363 . S
C759 N757 1.356 . S
C760 C754 1.363 . S
C760 C755 1.379 . S
C760 N758 1.356 . S
N761 C753 1.356 . S
N761 H767 0.984 . S
N761 H768 0.984 . S
N762 C755 1.356 . S
N762 H765 0.984 . S
N762 H766 0.985 . S
H763 N758 0.984 . S
H764 N758 0.985 . S
H765 N762 0.984 . S
H766 N762 0.985 . S
H767 N761 0.984 . S
H768 N761 0.984 . S
H769 N757 0.984 . S
H770 N757 0.985 . S
C771 C772 1.363 . S
C771 C777 1.379 . S
C771 N779 1.356 . S
C772 C771 1.363 . S
C772 C778 1.363 . S
C773 C774 1.363 . S
C773 C778 1.379 . S
C773 N780 1.356 . S
C774 C773 1.363 . S
C774 C777 1.363 . S
N775 C777 1.356 . S
N775 H787 0.984 . S
N775 H788 0.985 . S
N776 C778 1.356 . S
N776 H781 0.984 . S
N776 H782 0.985 . S
C777 C771 1.379 . S
C777 C774 1.363 . S
C777 N775 1.356 . S
C778 C772 1.363 . S
C778 C773 1.379 . S
C778 N776 1.356 . S
N779 C771 1.356 . S
N779 H785 0.984 . S
N779 H786 0.984 . S
N780 C773 1.356 . S
N780 H783 0.984 . S
N780 H784 0.985 . S
H781 N776 0.984 . S
H782 N776 0.985 . S
H783 N780 0.984 . S
H784 N780 0.985 . S
H785 N779 0.984 . S
H786 N779 0.984 . S
H787 N775 0.984 . S
H788 N775 0.985 . S
C789 C790 1.363 . S
C789 C795 1.379 1_554 S
C789 N797 1.356 . S
C790 C789 1.363 . S
C790 C796 1.363 1_554 S
C791 C792 1.363 . S
C791 C796 1.379 . S
C791 N798 1.356 . S
C792 C791 1.363 . S
C792 C795 1.363 . S
N793 C795 1.356 . S
N793 H805 0.984 . S
N793 H806 0.985 . S
N794 C796 1.356 1_554 S
N794 H799 0.984 . S
N794 H800 0.985 1_554 S
C795 C789 1.379 1_556 S
C795 C792 1.363 . S
C795 N793 1.356 . S
C796 C790 1.363 1_556 S
C796 C791 1.379 . S
C796 N794 1.356 1_556 S
N797 C789 1.356 . S
N797 H803 0.984 . S
N797 H804 0.984 . S
N798 C791 1.356 . S
N798 H801 0.984 . S
N798 H802 0.985 . S
H799 N794 0.984 . S
H800 N794 0.985 1_556 S
H801 N798 0.984 . S
H802 N798 0.985 . S
H803 N797 0.984 . S
H804 N797 0.984 . S
H805 N793 0.984 . S
H806 N793 0.985 . S
C807 C808 1.363 . S
C807 C813 1.379 . S
C807 N815 1.356 1_556 S
C808 C807 1.363 . S
C808 C814 1.363 . S
C809 C810 1.363 . S
C809 C814 1.379 . S
C809 N816 1.356 . S
C810 C809 1.363 . S
C810 C813 1.363 . S
N811 C813 1.356 . S
N811 H823 0.984 . S
N811 H824 0.985 . S
N812 C814 1.356 . S
N812 H817 0.984 . S
N812 H818 0.985 . S
C813 C807 1.379 . S
C813 C810 1.363 . S
C813 N811 1.356 . S
C814 C808 1.363 . S
C814 C809 1.379 . S
C814 N812 1.356 . S
N815 C807 1.356 1_554 S
N815 H821 0.984 . S
N815 H822 0.984 . S
N816 C809 1.356 . S
N816 H819 0.984 . S
N816 H820 0.985 . S
H817 N812 0.984 . S
H818 N812 0.985 . S
H819 N816 0.984 . S
H820 N816 0.985 . S
H821 N815 0.984 . S
H822 N815 0.984 . S
H823 N811 0.984 . S
H824 N811 0.985 . S
C825 C826 1.363 . S
C825 C831 1.379 . S
C825 N833 1.356 . S
C826 C825 1.363 . S
C826 C832 1.363 . S
C827 C828 1.363 . S
C827 C832 1.379 . S
C827 N834 1.356 . S
C828 C827 1.363 . S
C828 C831 1.363 . S
N829 C831 1.356 . S
N829 H841 0.984 . S
N829 H842 0.985 . S
N830 C832 1.356 . S
N830 H835 0.984 . S
N830 H836 0.985 . S
C831 C825 1.379 . S
C831 C828 1.363 . S
C831 N829 1.356 . S
C832 C826 1.363 . S
C832 C827 1.379 . S
C832 N830 1.356 . S
N833 C825 1.356 . S
N833 H839 0.984 . S
N833 H840 0.984 . S
N834 C827 1.356 . S
N834 H837 0.984 . S
N834 H838 0.985 . S
H835 N830 0.984 . S
H836 N830 0.985 . S
H837 N834 0.984 . S
H838 N834 0.985 . S
H839 N833 0.984 . S
H840 N833 0.984 . S
H841 N829 0.984 . S
H842 N829 0.985 . S
C843 C844 1.363 . S
C843 C849 1.379 . S
C843 N851 1.356 . S
C844 C843 1.363 . S
C844 C850 1.363 . S
C845 C846 1.363 . S
C845 C850 1.379 . S
C845 N852 1.356 . S
C846 C845 1.363 . S
C846 C849 1.363 . S
N847 C849 1.356 . S
N847 H859 0.984 . S
N847 H860 0.985 . S
N848 C850 1.356 . S
N848 H853 0.984 . S
N848 H854 0.985 . S
C849 C843 1.379 . S
C849 C846 1.363 . S
C849 N847 1.356 . S
C850 C844 1.363 . S
C850 C845 1.379 . S
C850 N848 1.356 . S
N851 C843 1.356 . S
N851 H857 0.984 . S
N851 H858 0.984 . S
N852 C845 1.356 . S
N852 H855 0.984 . S
N852 H856 0.985 . S
H853 N848 0.984 . S
H854 N848 0.985 . S
H855 N852 0.984 . S
H856 N852 0.985 . S
H857 N851 0.984 . S
H858 N851 0.984 . S
H859 N847 0.984 . S
H860 N847 0.985 . S
C861 C862 1.363 . S
C861 C867 1.379 . S
C861 N869 1.356 . S
C862 C861 1.363 . S
C862 C868 1.363 . S
C863 C864 1.363 . S
C863 C868 1.379 . S
C863 N870 1.356 . S
C864 C863 1.363 . S
C864 C867 1.363 . S
N865 C867 1.356 . S
N865 H877 0.984 . S
N865 H878 0.985 . S
N866 C868 1.356 . S
N866 H871 0.984 . S
N866 H872 0.985 . S
C867 C861 1.379 . S
C867 C864 1.363 . S
C867 N865 1.356 . S
C868 C862 1.363 . S
C868 C863 1.379 . S
C868 N866 1.356 . S
N869 C861 1.356 . S
N869 H875 0.984 . S
N869 H876 0.984 . S
N870 C863 1.356 . S
N870 H873 0.984 . S
N870 H874 0.985 . S
H871 N866 0.984 . S
H872 N866 0.985 . S
H873 N870 0.984 . S
H874 N870 0.985 . S
H875 N869 0.984 . S
H876 N869 0.984 . S
H877 N865 0.984 . S
H878 N865 0.985 . S
C879 C880 1.363 . S
C879 C885 1.379 . S
C879 N887 1.356 . S
C880 C879 1.363 . S
C880 C886 1.363 . S
C881 C882 1.363 . S
C881 C886 1.379 . S
C881 N888 1.356 . S
C882 C881 1.363 . S
C882 C885 1.363 . S
N883 C885 1.356 . S
N883 H895 0.984 . S
N883 H896 0.985 . S
N884 C886 1.356 . S
N884 H889 0.984 . S
N884 H890 0.985 . S
C885 C879 1.379 . S
C885 C882 1.363 . S
C885 N883 1.356 . S
C886 C880 1.363 . S
C886 C881 1.379 . S
C886 N884 1.356 . S
N887 C879 1.356 . S
N887 H893 0.984 . S
N887 H894 0.984 . S
N888 C881 1.356 . S
N888 H891 0.984 . S
N888 H892 0.985 . S
H889 N884 0.984 . S
H890 N884 0.985 . S
H891 N888 0.984 . S
H892 N888 0.985 . S
H893 N887 0.984 . S
H894 N887 0.984 . S
H895 N883 0.984 . S
H896 N883 0.985 . S
C897 C898 1.363 . S
C897 C903 1.379 . S
C897 N905 1.356 . S
C898 C897 1.363 . S
C898 C904 1.363 . S
C899 C900 1.363 . S
C899 C904 1.379 . S
C899 N906 1.356 . S
C900 C899 1.363 . S
C900 C903 1.363 . S
N901 C903 1.356 . S
N901 H913 0.984 . S
N901 H914 0.985 . S
N902 C904 1.356 . S
N902 H907 0.984 . S
N902 H908 0.985 . S
C903 C897 1.379 . S
C903 C900 1.363 . S
C903 N901 1.356 . S
C904 C898 1.363 . S
C904 C899 1.379 . S
C904 N902 1.356 . S
N905 C897 1.356 . S
N905 H911 0.984 . S
N905 H912 0.984 . S
N906 C899 1.356 . S
N906 H909 0.984 . S
N906 H910 0.976 1_655 S
H907 N902 0.984 . S
H908 N902 0.985 . S
H909 N906 0.984 . S
H910 N906 0.976 1_455 S
H911 N905 0.984 . S
H912 N905 0.984 . S
H913 N901 0.984 . S
H914 N901 0.985 . S
C915 C916 1.363 . S
C915 C921 1.379 . S
C915 N923 1.356 . S
C916 C915 1.363 . S
C916 C922 1.363 . S
C917 C918 1.363 . S
C917 C922 1.379 . S
C917 N924 1.356 . S
C918 C917 1.363 . S
C918 C921 1.363 . S
N919 C921 1.356 . S
N919 H931 0.984 . S
N919 H932 0.985 . S
N920 C922 1.356 . S
N920 H925 0.984 . S
N920 H926 0.985 . S
C921 C915 1.379 . S
C921 C918 1.363 . S
C921 N919 1.356 . S
C922 C916 1.363 . S
C922 C917 1.379 . S
C922 N920 1.356 . S
N923 C915 1.356 . S
N923 H929 0.984 . S
N923 H930 0.984 . S
N924 C917 1.356 . S
N924 H927 0.984 . S
N924 H928 0.985 . S
H925 N920 0.984 . S
H926 N920 0.985 . S
H927 N924 0.984 . S
H928 N924 0.985 . S
H929 N923 0.984 . S
H930 N923 0.984 . S
H931 N919 0.984 . S
H932 N919 0.985 . S
C933 C934 1.363 . S
C933 C939 1.379 . S
C933 N941 1.356 . S
C934 C933 1.363 . S
C934 C940 1.363 . S
C935 C936 1.363 . S
C935 C940 1.379 . S
C935 N942 1.356 . S
C936 C935 1.363 . S
C936 C939 1.363 . S
N937 C939 1.356 . S
N937 H949 0.984 . S
N937 H950 0.985 . S
N938 C940 1.356 . S
N938 H943 0.984 . S
N938 H944 0.985 . S
C939 C933 1.379 . S
C939 C936 1.363 . S
C939 N937 1.356 . S
C940 C934 1.363 . S
C940 C935 1.379 . S
C940 N938 1.356 . S
N941 C933 1.356 . S
N941 H947 0.984 . S
N941 H948 0.984 . S
N942 C935 1.356 . S
N942 H945 0.984 . S
N942 H946 0.985 . S
H943 N938 0.984 . S
H944 N938 0.985 . S
H945 N942 0.984 . S
H946 N942 0.985 . S
H947 N941 0.984 . S
H948 N941 0.984 . S
H949 N937 0.984 . S
H950 N937 0.985 . S
C951 C952 1.363 . S
C951 C957 1.379 . S
C951 N959 1.356 . S
C952 C951 1.363 . S
C952 C958 1.363 . S
C953 C954 1.363 . S
C953 C958 1.379 . S
C953 N960 1.356 . S
C954 C953 1.363 . S
C954 C957 1.363 . S
N955 C957 1.356 . S
N955 H967 0.984 . S
N955 H968 0.985 . S
N956 C958 1.356 . S
N956 H961 0.984 . S
N956 H962 0.985 . S
C957 C951 1.379 . S
C957 C954 1.363 . S
C957 N955 1.356 . S
C958 C952 1.363 . S
C958 C953 1.379 . S
C958 N956 1.356 . S
N959 C951 1.356 . S
N959 H965 0.984 . S
N959 H966 0.984 . S
N960 C953 1.356 . S
N960 H963 0.984 . S
N960 H964 0.985 . S
H961 N956 0.984 . S
H962 N956 0.985 . S
H963 N960 0.984 . S
H964 N960 0.985 . S
H965 N959 0.984 . S
H966 N959 0.984 . S
H967 N955 0.984 . S
H968 N955 0.985 . S
C538 C39 2.003 . S
C540 C455 1.954 . S
C556 C125 1.016 . S
C558 C502 1.028 . S
C576 C506 2.151 . S
C574 C211 2.023 . S
C594 C471 0.920 . S
C592 C273 0.936 . S
C610 C335 2.099 . S
C612 C486 2.090 . S
C630 C508 1.466 . S
C628 C439 1.510 . S
C648 C477 1.591 . S
C646 C187 1.602 . S
C664 C291 1.873 . S
C666 C517 1.856 . S
C684 C446 1.983 . S
C682 C359 1.839 . S
C700 C421 0.856 . S
C702 C475 0.835 . S
C718 C63 2.102 . S
C720 C533 2.279 . S
C738 C444 1.843 . S
C736 C143 1.885 . S
C756 C462 2.415 . S
C754 C285 2.186 . S
C774 C476 1.877 . S
C772 C365 1.916 . S
C792 C530 1.981 . S
C790 C409 1.936 . S
C810 C445 1.778 . S
C808 C69 1.836 1_556 S
C828 C493 2.187 . S
C826 C137 2.036 . S
C844 C199 0.612 . S
C846 C516 0.613 . S
C864 C485 2.077 . S
C862 C433 1.881 . S
C882 C524 0.696 . S
C880 C51 0.700 . S
C900 C454 1.637 . S
C898 C113 1.631 . S
C918 C499 1.699 . S
C916 C217 1.750 . S
C934 C261 2.063 . S
C936 C507 2.065 . S
C952 C347 0.781 . S
C954 C468 0.778 . S
