# Generated by pormake.
# Topology sit, (3,6)-cn, num edge types: 1
# Building blocks:
#     Node 0, Type 0, BuildingBlock: VETTIZ_charged_linker_0, # of connection points: 3
#     Node 1, Type 0, BuildingBlock: VETTIZ_charged_linker_0, # of connection points: 3
#     Node 2, Type 0, BuildingBlock: VETTIZ_charged_linker_0, # of connection points: 3
#     Node 3, Type 0, BuildingBlock: VETTIZ_charged_linker_0, # of connection points: 3
#     Node 4, Type 1, BuildingBlock: MIDCAF_clean_sbu_0, # of connection points: 6
#     Node 5, Type 1, BuildingBlock: MIDCAF_clean_sbu_0, # of connection points: 6
#     Edge 6, Type (0, 1), BuildingBlock: FUNLAD_clean_linker_0, # of connection points: 2
#     Edge 7, Type (0, 1), BuildingBlock: FUNLAD_clean_linker_0, # of connection points: 2
#     Edge 8, Type (0, 1), BuildingBlock: FUNLAD_clean_linker_0, # of connection points: 2
#     Edge 9, Type (0, 1), BuildingBlock: FUNLAD_clean_linker_0, # of connection points: 2
#     Edge 10, Type (0, 1), BuildingBlock: FUNLAD_clean_linker_0, # of connection points: 2
#     Edge 11, Type (0, 1), BuildingBlock: FUNLAD_clean_linker_0, # of connection points: 2
#     Edge 12, Type (0, 1), BuildingBlock: FUNLAD_clean_linker_0, # of connection points: 2
#     Edge 13, Type (0, 1), BuildingBlock: FUNLAD_clean_linker_0, # of connection points: 2
#     Edge 14, Type (0, 1), BuildingBlock: FUNLAD_clean_linker_0, # of connection points: 2
#     Edge 15, Type (0, 1), BuildingBlock: FUNLAD_clean_linker_0, # of connection points: 2
#     Edge 16, Type (0, 1), BuildingBlock: FUNLAD_clean_linker_0, # of connection points: 2
#     Edge 17, Type (0, 1), BuildingBlock: FUNLAD_clean_linker_0, # of connection points: 2
# Relax obj value: 0.113
# Max RMSD: 0.194
# Mean RMSD: 0.109
data_MOF--net-sit--node1-MIDCAF_clean_sbu_0--node2-VETTIZ_charged_linker_0--edge1-FUNLAD_clean_linker_0
_symmetry_space_group_name_H-M    P1
_symmetry_Int_Tables_number       1
_symmetry_cell_setting            triclinic
loop_
_symmetry_equiv_pos_as_xyz
'x, y, z'
_cell_length_a     31.968756
_cell_length_b     43.976864
_cell_length_c     48.408296
_cell_angle_alpha  90.500115
_cell_angle_beta   89.450329
_cell_angle_gamma 84.03198
loop_
_atom_site_label
_atom_site_type_symbol
_atom_site_fract_x
_atom_site_fract_y
_atom_site_fract_z
_atom_type_partial_charge
C0 C 0.06295 0.19053 0.07145 0.0
C1 C 0.09539 0.1765 0.08789 0.0
C2 C 0.13536 0.18747 0.08651 0.0
C3 C 0.10891 0.22706 0.05464 0.0
C4 C 0.0701 0.21586 0.05552 0.0
C5 C 0.03732 0.23519 0.0396 0.0
H6 H 0.98663 0.35828 0.95935 0.0
C7 C 0.10501 0.25475 0.03732 0.0
C8 C 0.06297 0.25957 0.02857 0.0
H9 H 0.90248 0.29673 0.99233 0.0
H10 H 0.96125 0.26706 0.01433 0.0
H11 H 0.02989 0.36743 0.01208 0.0
H12 H 0.06477 0.3074 0.94381 0.0
H13 H 0.11109 0.32232 0.95417 0.0
H14 H 0.06684 0.348 0.94311 0.0
H15 H 0.05738 0.38005 0.9826 0.0
H16 H 0.08492 0.36385 0.01232 0.0
C17 C 0.00235 0.24859 0.06008 0.0
C18 C 0.02157 0.21536 0.0161 0.0
C19 C 0.23006 0.31638 0.0206 0.0
C20 C 0.23329 0.34368 0.00606 0.0
C21 C 0.19822 0.35733 0.99182 0.0
C22 C 0.16028 0.34447 0.99218 0.0
C23 C 0.15689 0.31771 0.0072 0.0
C24 C 0.19126 0.30392 0.02109 0.0
C25 C 0.1806 0.27584 0.03634 0.0
C26 C 0.13431 0.27536 0.02921 0.0
C27 C 0.12104 0.3 0.01213 0.0
C28 C 0.18694 0.28125 0.06759 0.0
C29 C 0.20804 0.24777 0.0242 0.0
C30 C 0.98103 0.33814 0.97102 0.0
C31 C 0.9404 0.32942 0.97397 0.0
C32 C 0.93384 0.30365 0.98986 0.0
C33 C 0.9679 0.2866 0.00257 0.0
C34 C 0.00855 0.29596 -0.00026 0.0
C35 C 0.01428 0.32146 0.98426 0.0
C36 C 0.05853 0.32966 0.98493 0.0
C37 C 0.07886 0.3047 0.00322 0.0
C38 C 0.04979 0.28479 0.01156 0.0
C39 C 0.05796 0.36193 -0.00153 0.0
C40 C 0.07647 0.32699 0.95501 0.0
H41 H 0.17318 0.22004 0.07003 0.0
H42 H 0.03201 0.1826 0.07148 0.0
H43 H 0.04851 0.20171 0.00562 0.0
H44 H 0.00507 0.22906 -0.00024 0.0
H45 H 0.0002 0.19916 0.02433 0.0
H46 H 0.01481 0.25088 0.0813 0.0
H47 H 0.97638 0.23371 0.06134 0.0
H48 H 0.98926 0.27203 0.0547 0.0
H49 H 0.25676 0.30537 0.03159 0.0
H50 H 0.20035 0.37793 0.97998 0.0
H51 H 0.13506 0.35607 0.98073 0.0
H52 H 0.17721 0.30552 0.07339 0.0
H53 H 0.22048 0.27601 0.07327 0.0
H54 H 0.16745 0.26783 0.08074 0.0
H55 H 0.20982 0.24914 0.00128 0.0
H56 H 0.19514 0.22598 0.02853 0.0
H57 H 0.24063 0.24659 0.03218 0.0
H58 H 0.16095 0.1775 0.09909 0.0
C59 C 0.14233 0.21249 0.06985 0.0
C60 C 0.16537 0.67652 0.02694 0.0
C61 C 0.16893 0.64738 0.01422 0.0
C62 C 0.13206 0.63341 0.00896 0.0
C63 C 0.08926 0.67785 0.02715 0.0
C64 C 0.12529 0.69125 0.03329 0.0
C65 C 0.11541 0.72245 0.04639 0.0
H66 H 0.9683 0.83499 0.0915 0.0
C67 C 0.05263 0.6996 0.03484 0.0
C68 C 0.06755 0.72576 0.04633 0.0
H69 H 0.10358 0.83164 0.09762 0.0
H70 H 0.11158 0.7832 0.07336 0.0
H71 H 0.96814 0.80904 0.02835 0.0
H72 H 0.96196 0.7656 0.10752 0.0
H73 H 0.92529 0.75055 0.08579 0.0
H74 H 0.9192 0.79078 0.09421 0.0
H75 H 0.92175 0.81371 0.04978 0.0
H76 H 0.93147 0.78211 0.02576 0.0
C77 C 0.13358 0.74624 0.02754 0.0
C78 C 0.13311 0.72129 0.07607 0.0
C79 C 0.90649 0.67308 0.01157 0.0
C80 C 0.86609 0.68874 0.01469 0.0
C81 C 0.86175 0.71766 0.02788 0.0
C82 C 0.89712 0.73085 0.03745 0.0
C83 C 0.93735 0.71501 0.03377 0.0
C84 C 0.94136 0.68653 0.02119 0.0
C85 C 0.98633 0.67303 0.01865 0.0
C86 C 0.00885 0.69822 0.03156 0.0
C87 C 0.98013 0.72277 0.04036 0.0
C88 C -0.00288 0.66857 0.98746 0.0
C89 C 0.99164 0.64327 0.03584 0.0
C90 C -0.00035 0.82383 0.08765 0.0
C91 C 0.03532 0.83722 0.0966 0.0
C92 C 0.07556 0.82207 0.09071 0.0
C93 C 0.08016 0.79373 0.07688 0.0
C94 C 0.04417 0.78027 0.06878 0.0
C95 C 0.00478 0.79549 0.07392 0.0
C96 C 0.97003 0.77778 0.06385 0.0
C97 C 0.99499 0.74908 0.05249 0.0
C98 C 0.03846 0.75064 0.05536 0.0
C99 C 0.94621 0.79653 0.04086 0.0
C100 C 0.94229 0.77087 0.08898 0.0
H101 H 0.0657 0.63667 0.01031 0.0
H102 H 0.1931 0.68777 0.03152 0.0
H103 H 0.13043 0.69858 0.08552 0.0
H104 H 0.11554 0.73786 0.09029 0.0
H105 H 0.16688 0.72522 0.07608 0.0
H106 H 0.12892 0.74067 0.00539 0.0
H107 H 0.16787 0.74658 0.03082 0.0
H108 H 0.11785 0.7696 0.03055 0.0
H109 H 0.91115 0.65108 0.00115 0.0
H110 H 0.83095 0.7301 0.03084 0.0
H111 H 0.89178 0.75293 0.04722 0.0
H112 H 0.98135 0.68766 0.97519 0.0
H113 H 0.98652 0.64695 0.97942 0.0
H114 H 0.03093 0.66874 0.98274 0.0
H115 H 0.96919 0.64449 0.05363 0.0
H116 H 0.02301 0.6392 0.04537 0.0
H117 H 0.98585 0.62305 0.02309 0.0
H118 H 0.1337 0.61125 -0.00117 0.0
C119 C 0.09241 0.6484 0.01538 0.0
C120 C 0.5645 0.68632 0.57519 0.0
C121 C 0.5974 0.66805 0.58794 0.0
C122 C 0.639 0.67555 0.58399 0.0
C123 C 0.61321 0.7207 0.55811 0.0
C124 C 0.57277 0.71288 0.56159 0.0
C125 C 0.53995 0.73753 0.55253 0.0
H126 H 0.49049 0.87937 0.50283 0.0
C127 C 0.61024 0.75132 0.54533 0.0
C128 C 0.56723 0.76151 0.54286 0.0
H129 H 0.40567 0.81443 0.52856 0.0
H130 H 0.46471 0.77807 0.54006 0.0
H131 H 0.5592 0.86675 0.55238 0.0
H132 H 0.5469 0.83475 0.46943 0.0
H133 H 0.60133 0.83215 0.47437 0.0
H134 H 0.57071 0.86901 0.47669 0.0
H135 H 0.56526 0.88939 0.52221 0.0
H136 H 0.60915 0.86593 0.53668 0.0
C137 C 0.51237 0.74852 0.57804 0.0
C138 C 0.51539 0.72472 0.52839 0.0
C139 C 0.74052 0.79729 0.50947 0.0
C140 C 0.74484 0.82469 0.4953 0.0
C141 C 0.70947 0.84625 0.49236 0.0
C142 C 0.67008 0.84029 0.50211 0.0
C143 C 0.66559 0.81236 0.51494 0.0
C144 C 0.70038 0.7915 0.51899 0.0
C145 C 0.68874 0.76337 0.53376 0.0
C146 C 0.64105 0.77008 0.53586 0.0
C147 C 0.62809 0.799 0.52503 0.0
C148 C 0.7095 0.76233 0.56255 0.0
C149 C 0.70209 0.73496 0.51549 0.0
C150 C 0.48468 0.85763 0.51165 0.0
C151 C 0.44352 0.84986 0.51523 0.0
C152 C 0.43721 0.8209 0.52577 0.0
C153 C 0.47153 0.79986 0.5324 0.0
C154 C 0.51261 0.80782 0.52836 0.0
C155 C 0.51856 0.83627 0.5181 0.0
C156 C 0.56418 0.84013 0.51345 0.0
C157 C 0.58478 0.80966 0.52358 0.0
C158 C 0.55451 0.79092 0.53229 0.0
C159 C 0.57531 0.86705 0.53192 0.0
C160 C 0.57141 0.84443 0.48197 0.0
H161 H 0.67916 0.70651 0.56701 0.0
H162 H 0.53221 0.68118 0.57698 0.0
H163 H 0.53708 0.71047 0.51419 0.0
H164 H 0.49962 0.74281 0.51531 0.0
H165 H 0.49157 0.71013 0.53618 0.0
H166 H 0.53028 0.74524 0.59758 0.0
H167 H 0.48435 0.73568 0.57986 0.0
H168 H 0.50199 0.77328 0.57778 0.0
H169 H 0.76737 0.7805 0.51229 0.0
H170 H 0.71226 0.86781 0.48219 0.0
H171 H 0.64454 0.8576 0.49888 0.0
H172 H 0.71295 0.78575 0.5705 0.0
H173 H 0.74135 0.74954 0.56172 0.0
H174 H 0.69025 0.75214 0.57839 0.0
H175 H 0.69068 0.73876 0.49404 0.0
H176 H 0.68903 0.71423 0.52287 0.0
H177 H 0.73689 0.73017 0.51461 0.0
H178 H 0.66518 0.66219 0.59358 0.0
C179 C 0.64707 0.7016 0.5689 0.0
C180 C 0.67298 0.17561 0.50424 0.0
C181 C 0.67569 0.14803 0.489 0.0
C182 C 0.63834 0.13692 0.47989 0.0
C183 C 0.59684 0.1804 0.50093 0.0
C184 C 0.63335 0.19131 0.50999 0.0
C185 C 0.62461 0.22082 0.52604 0.0
H186 H 0.48308 0.33105 0.58077 0.0
C187 C 0.56093 0.20195 0.51036 0.0
C188 C 0.57684 0.22565 0.52518 0.0
H189 H 0.6189 0.32317 0.58574 0.0
H190 H 0.62378 0.27762 0.5577 0.0
H191 H 0.47935 0.31012 0.51468 0.0
H192 H 0.47438 0.26105 0.59124 0.0
H193 H 0.43849 0.24675 0.56852 0.0
H194 H 0.43055 0.28628 0.57948 0.0
H195 H 0.43632 0.3166 0.53887 0.0
H196 H 0.43802 0.28661 0.51322 0.0
C197 C 0.64508 0.24606 0.51023 0.0
C198 C 0.64091 0.21535 0.55582 0.0
C199 C 0.41325 0.18083 0.48526 0.0
C200 C 0.37318 0.19512 0.49209 0.0
C201 C 0.3696 0.22132 0.50926 0.0
C202 C 0.40574 0.23345 0.51903 0.0
C203 C 0.44575 0.21892 0.51184 0.0
C204 C 0.44882 0.19285 0.49548 0.0
C205 C 0.49344 0.17931 0.49106 0.0
C206 C 0.51694 0.20189 0.50693 0.0
C207 C 0.48903 0.22524 0.51888 0.0
C208 C 0.50335 0.17972 0.45966 0.0
C209 C 0.49852 0.14705 0.50416 0.0
C210 C 0.51387 0.31953 0.5758 0.0
C211 C 0.55063 0.33104 0.58541 0.0
C212 C 0.59004 0.31532 0.57823 0.0
C213 C 0.59286 0.28858 0.56214 0.0
C214 C 0.55593 0.27712 0.5531 0.0
C215 C 0.51725 0.29264 0.55974 0.0
C216 C 0.48141 0.27681 0.54843 0.0
C217 C 0.50503 0.24929 0.53397 0.0
C218 C 0.5487 0.24958 0.53689 0.0
C219 C 0.45712 0.29857 0.5278 0.0
C220 C 0.45442 0.26732 0.57303 0.0
H221 H 0.57198 0.14326 0.47803 0.0
H222 H 0.70104 0.18468 0.51172 0.0
H223 H 0.63564 0.19201 0.56287 0.0
H224 H 0.62423 0.23095 0.57122 0.0
H225 H 0.67518 0.21744 0.55696 0.0
H226 H 0.64359 0.24236 0.48751 0.0
H227 H 0.67873 0.24617 0.51572 0.0
H228 H 0.62867 0.26913 0.51382 0.0
H229 H 0.41682 0.16024 0.47262 0.0
H230 H 0.33887 0.23253 0.51485 0.0
H231 H 0.40115 0.25356 0.53186 0.0
H232 H 0.48857 0.20113 0.45021 0.0
H233 H 0.49103 0.16017 0.44886 0.0
H234 H 0.53726 0.17937 0.45497 0.0
H235 H 0.47598 0.14545 0.52162 0.0
H236 H 0.5298 0.14134 0.51345 0.0
H237 H 0.49278 0.12908 0.4888 0.0
H238 H 0.63949 0.11605 0.46772 0.0
C239 C 0.59907 0.1529 0.48574 0.0
Zn240 Zn 0.03829 0.09189 0.3572 0.0
Zn241 Zn 0.10199 0.94274 0.34395 0.0
Zn242 Zn 0.07662 0.99842 0.3557 0.0
C243 C 0.08491 0.97321 0.29415 0.0
C244 C 0.02796 0.94309 0.37665 0.0
O245 O 0.12378 0.01842 0.38016 0.0
O246 O 0.07875 0.05618 0.37002 0.0
C247 C 0.05777 0.0554 0.30463 0.0
O248 O 0.076 0.99599 0.31071 0.0
O249 O 0.09695 0.94705 0.30342 0.0
O250 O 0.05692 0.92499 0.36574 0.0
O251 O 0.02877 0.97219 0.37454 0.0
O252 O 0.04507 0.08101 0.31645 0.0
O253 O 0.06747 0.0299 0.31786 0.0
O254 O 0.01828 0.00346 0.3799 0.0
O255 O 0.03229 0.04848 0.36906 0.0
C256 C 0.00719 0.0321 0.38065 0.0
O257 O 0.1388 0.98809 0.3754 0.0
O258 O 0.15902 0.94145 0.35964 0.0
C259 C 0.1132 0.04714 0.3814 0.0
C260 C 0.16637 0.96462 0.37362 0.0
Zn261 Zn 0.52905 0.5627 0.85454 0.0
Zn262 Zn 0.59009 0.44871 0.85351 0.0
Zn263 Zn 0.55895 0.50498 0.85783 0.0
C264 C 0.56656 0.46168 0.80149 0.0
C265 C 0.5217 0.45194 0.89105 0.0
O266 O 0.60488 0.53129 0.87851 0.0
O267 O 0.57172 0.57805 0.87947 0.0
C268 C 0.54622 0.54489 0.80108 0.0
O269 O 0.55871 0.48772 0.81404 0.0
O270 O 0.5805 0.43834 0.81477 0.0
O271 O 0.55288 0.43423 0.88254 0.0
O272 O 0.51622 0.47977 0.88264 0.0
O273 O 0.53389 0.56905 0.81432 0.0
O274 O 0.55479 0.51948 0.81397 0.0
O275 O 0.49893 0.511 0.88193 0.0
O276 O 0.47331 0.55786 0.87053 0.0
C277 C 0.46942 0.53332 0.88318 0.0
O278 O 0.62152 0.50023 0.87758 0.0
O279 O 0.64797 0.45398 0.86391 0.0
C280 C 0.60289 0.55958 0.88605 0.0
C281 C 0.65216 0.47878 0.87628 0.0
C282 C 0.1173 0.12834 0.11466 0.0
C283 C 0.08644 0.15226 0.10784 0.0
C284 C 0.10915 0.10698 0.13484 0.0
C285 C 0.06981 0.109 0.14837 0.0
C286 C 0.03859 0.13205 0.14078 0.0
C287 C 0.04689 0.15361 0.1211 0.0
C288 C 0.06037 0.08895 0.17162 0.0
C289 C 0.08928 0.07861 0.1903 0.0
C290 C 0.07795 0.06764 0.21814 0.0
C291 C 0.10918 0.05139 0.23405 0.0
C292 C 0.10188 0.04564 0.262 0.0
C293 C 0.06316 0.05603 0.27445 0.0
H294 H 0.01388 0.09026 0.21962 0.0
C295 C 0.03137 0.07114 0.25841 0.0
C296 C 0.03854 0.07686 0.23058 0.0
H297 H 0.00147 0.07973 0.26775 0.0
H298 H 0.1478 0.12613 0.10452 0.0
H299 H 0.13363 0.08903 0.13978 0.0
H300 H 0.00808 0.13422 0.15099 0.0
H301 H 0.02251 0.17195 0.11706 0.0
H302 H 0.02747 0.08613 0.17529 0.0
H303 H 0.12226 0.0811 0.18642 0.0
H304 H 0.13992 0.04429 0.22516 0.0
H305 H 0.12712 0.03441 0.27417 0.0
C306 C 0.05817 0.88838 0.11014 0.0
C307 C 0.03066 0.86572 0.11365 0.0
C308 C 0.05652 0.91351 0.12823 0.0
C309 C 0.02754 0.91631 0.15046 0.0
C310 C -0.00156 0.89462 0.15284 0.0
C311 C 3e-05 0.8696 0.13477 0.0
C312 C 0.02869 0.93953 0.17299 0.0
C313 C 0.06349 0.9529 0.17941 0.0
C314 C 0.06966 0.9658 0.20737 0.0
C315 C 0.10971 0.9604 0.21904 0.0
C316 C 0.11521 0.96512 0.24722 0.0
C317 C 0.08103 0.97625 0.26408 0.0
H318 H 0.00513 0.98487 0.21521 0.0
C319 C 0.04188 0.98483 0.25205 0.0
C320 C 0.03615 0.97958 0.2238 0.0
H321 H 0.01515 0.9935 0.26479 0.0
H322 H 0.08144 0.88645 0.09363 0.0
H323 H 0.07851 0.93025 0.12494 0.0
H324 H 0.97559 0.89618 0.16962 0.0
H325 H 0.97847 0.85254 0.1382 0.0
H326 H 0.00231 0.94168 0.18744 0.0
H327 H 0.09123 0.94903 0.16626 0.0
H328 H 0.13616 0.95013 0.20683 0.0
H329 H 0.1457 0.95845 0.25616 0.0
C330 C 0.61509 0.61712 0.61187 0.0
C331 C 0.58724 0.64363 0.60745 0.0
C332 C 0.60536 0.59537 0.63136 0.0
C333 C 0.56724 0.59954 0.64635 0.0
C334 C 0.5392 0.62545 0.64145 0.0
C335 C 0.54932 0.64742 0.62277 0.0
C336 C 0.55591 0.57884 0.66853 0.0
C337 C 0.58377 0.56651 0.68698 0.0
C338 C 0.57025 0.55716 0.71486 0.0
C339 C 0.59599 0.53551 0.72987 0.0
C340 C 0.58695 0.53007 0.75767 0.0
C341 C 0.55236 0.5466 0.77094 0.0
H342 H 0.51484 0.59041 0.71766 0.0
C343 C 0.52598 0.56753 0.75576 0.0
C344 C 0.53471 0.57275 0.72806 0.0
H345 H 0.49931 0.58072 0.76559 0.0
H346 H 0.64436 0.61315 0.60035 0.0
H347 H 0.62744 0.57536 0.63458 0.0
H348 H 0.50991 0.62943 0.65304 0.0
H349 H 0.52755 0.66786 0.6211 0.0
H350 H 0.52252 0.57812 0.67255 0.0
H351 H 0.61729 0.5666 0.6831 0.0
H352 H 0.62385 0.52353 0.72034 0.0
H353 H 0.60818 0.51416 0.76912 0.0
C354 C 0.51821 0.3618 0.62568 0.0
C355 C 0.5484 0.35813 0.60425 0.0
C356 C 0.52002 0.38458 0.64587 0.0
C357 C 0.55212 0.40419 0.64505 0.0
C358 C 0.58078 0.4016 0.62281 0.0
C359 C 0.57878 0.37901 0.60253 0.0
C360 C 0.56069 0.4239 0.66899 0.0
C361 C 0.53175 0.43381 0.68832 0.0
C362 C 0.54379 0.44496 0.71588 0.0
C363 C 0.51573 0.46556 0.73112 0.0
C364 C 0.52409 0.47259 0.75871 0.0
C365 C 0.56014 0.45848 0.77155 0.0
H366 H 0.60267 0.41549 0.71779 0.0
C367 C 0.58873 0.43866 0.75609 0.0
C368 C 0.58083 0.43208 0.72855 0.0
H369 H 0.61674 0.42749 0.76557 0.0
H370 H 0.49468 0.34594 0.62786 0.0
H371 H 0.49793 0.38531 0.663 0.0
H372 H 0.60588 0.41633 0.62169 0.0
H373 H 0.60199 0.37727 0.586 0.0
H374 H 0.5931 0.42863 0.67177 0.0
H375 H 0.49864 0.43194 0.68471 0.0
H376 H 0.48679 0.47552 0.72192 0.0
H377 H 0.50146 0.4878 0.77034 0.0
C378 C 0.30913 0.34173 0.99276 0.0
C379 C 0.27295 0.35802 0.00415 0.0
C380 C 0.34295 0.35723 0.98414 0.0
C381 C 0.34117 0.3893 0.98709 0.0
C382 C 0.30618 0.40506 0.00045 0.0
C383 C 0.27244 0.3896 0.00893 0.0
C384 C 0.37214 0.40751 0.97358 0.0
C385 C 0.41037 0.39562 0.96468 0.0
C386 C 0.43832 0.41279 0.94745 0.0
C387 C 0.48157 0.40346 0.94728 0.0
C388 C 0.50855 0.41694 0.92945 0.0
C389 C 0.49284 0.43996 0.91121 0.0
H390 H 0.38917 0.4433 0.92826 0.0
C391 C 0.44965 0.44958 0.9114 0.0
C392 C 0.42254 0.4362 0.92943 0.0
H393 H 0.43663 0.46649 0.89688 0.0
H394 H 0.30993 0.31743 0.98855 0.0
H395 H 0.36886 0.34415 0.97354 0.0
H396 H 0.30395 0.42968 0.00307 0.0
H397 H 0.2448 0.40262 0.01775 0.0
H398 H 0.36242 0.4316 0.97025 0.0
H399 H 0.42203 0.37241 0.97012 0.0
H400 H 0.49449 0.38533 0.96071 0.0
H401 H 0.54179 0.40901 0.92968 0.0
C402 C 0.82614 0.64367 0.00485 0.0
C403 C 0.82916 0.67529 0.00316 0.0
C404 C 0.79341 0.63054 0.99193 0.0
C405 C 0.76295 0.64879 0.97698 0.0
C406 C 0.76492 0.68052 0.97629 0.0
C407 C 0.79778 0.69364 0.98911 0.0
C408 C 0.72856 0.63564 0.96207 0.0
C409 C 0.73202 0.60682 0.95189 0.0
C410 C 0.6983 0.59441 0.93565 0.0
C411 C 0.70912 0.57078 0.91634 0.0
C412 C 0.67822 0.55928 0.90014 0.0
C413 C 0.63588 0.57083 0.90334 0.0
H414 H 0.64582 0.623 0.95441 0.0
C415 C 0.62493 0.59404 0.92298 0.0
C416 C 0.6557 0.60558 0.93911 0.0
H417 H 0.59239 0.60317 0.92604 0.0
H418 H 0.84923 0.62899 0.01611 0.0
H419 H 0.79203 0.60617 0.99384 0.0
H420 H 0.7416 0.69514 0.96516 0.0
H421 H 0.79929 0.71802 0.98722 0.0
H422 H 0.70068 0.65104 0.95768 0.0
H423 H 0.76151 0.59239 0.95386 0.0
H424 H 0.74168 0.56169 0.9133 0.0
H425 H 0.68759 0.54212 0.88455 0.0
C426 C 0.87329 0.3638 0.97725 0.0
C427 C 0.90544 0.34833 0.961 0.0
C428 C 0.84397 0.38551 0.96531 0.0
C429 C 0.84638 0.39175 0.9369 0.0
C430 C 0.8775 0.37519 0.9206 0.0
C431 C 0.90705 0.35393 0.93257 0.0
C432 C 0.81605 0.41419 0.92311 0.0
C433 C 0.79581 0.4391 0.9356 0.0
C434 C 0.76284 0.45874 0.92092 0.0
C435 C 0.72592 0.47002 0.93517 0.0
C436 C 0.69004 0.4809 0.92046 0.0
C437 C 0.69112 0.48053 0.89149 0.0
H438 H 0.79401 0.45582 0.88074 0.0
C439 C 0.72945 0.47321 0.87754 0.0
C440 C 0.76531 0.46284 0.89218 0.0
H441 H 0.73082 0.47303 0.85516 0.0
H442 H 0.87181 0.35991 -0.00071 0.0
H443 H 0.81951 0.39717 0.9783 0.0
H444 H 0.8796 0.37927 0.8986 0.0
H445 H 0.93176 0.34225 0.91972 0.0
H446 H 0.81022 0.40965 0.90146 0.0
H447 H 0.80061 0.44357 0.95737 0.0
H448 H 0.72358 0.46768 0.95738 0.0
H449 H 0.66057 0.48641 0.93153 0.0
C450 C 0.21995 0.6006 0.00574 0.0
C451 C 0.21018 0.63249 0.00412 0.0
C452 C 0.25556 0.58606 0.99223 0.0
C453 C 0.2822 0.60322 0.97688 0.0
C454 C 0.27356 0.6352 0.97652 0.0
C455 C 0.23808 0.6497 0.99003 0.0
C456 C 0.31647 0.58886 0.95862 0.0
C457 C 0.33385 0.55962 0.96003 0.0
C458 C 0.36588 0.54739 0.93928 0.0
C459 C 0.40271 0.5297 0.94751 0.0
C460 C 0.4359 0.52263 0.92859 0.0
C461 C 0.4321 0.53267 0.90116 0.0
H462 H 0.33233 0.56781 0.90418 0.0
C463 C 0.39379 0.54789 0.8925 0.0
C464 C 0.36096 0.55506 0.91131 0.0
H465 H 0.39005 0.55577 0.87143 0.0
H466 H 0.19926 0.58674 0.0167 0.0
H467 H 0.26076 0.56138 0.99281 0.0
H468 H 0.29348 0.64902 0.96483 0.0
H469 H 0.23131 0.67423 0.9881 0.0
H470 H 0.32797 0.60341 0.94278 0.0
H471 H 0.32638 0.5451 0.977 0.0
H472 H 0.40691 0.52318 0.96891 0.0
H473 H 0.46537 0.5112 0.93582 0.0
C474 C 0.78542 0.8424 0.45551 0.0
C475 C 0.78519 0.83127 0.48261 0.0
C476 C 0.82139 0.85307 0.44439 0.0
C477 C 0.85805 0.85297 0.46018 0.0
C478 C 0.85883 0.83988 0.48659 0.0
C479 C 0.82256 0.82918 0.49781 0.0
C480 C 0.89553 0.86644 0.44933 0.0
C481 C 0.89196 0.89082 0.43245 0.0
C482 C 0.92819 0.90437 0.41982 0.0
C483 C 0.92189 0.93425 0.40945 0.0
C484 C 0.95438 0.94711 0.39574 0.0
C485 C 0.99378 0.93028 0.392 0.0
H486 H 0.97365 0.8642 0.42307 0.0
C487 C 0.00015 0.90041 0.40239 0.0
C488 C 0.96776 0.88757 0.41614 0.0
H489 H 0.03015 0.88681 0.39972 0.0
H490 H 0.75729 0.84353 0.44308 0.0
H491 H 0.82024 0.86165 0.42349 0.0
H492 H 0.887 0.83901 0.49895 0.0
H493 H 0.82319 0.82058 0.51872 0.0
H494 H 0.9262 0.85694 0.45641 0.0
H495 H 0.86083 0.9019 0.42792 0.0
H496 H 0.89156 0.94756 0.41165 0.0
H497 H 0.94823 0.96988 0.38736 0.0
C498 C 0.33263 0.17518 0.45335 0.0
C499 C 0.33565 0.18192 0.48162 0.0
C500 C 0.29992 0.15946 0.44361 0.0
C501 C 0.26972 0.14991 0.46204 0.0
C502 C 0.27233 0.15716 0.49025 0.0
C503 C 0.30475 0.17336 0.49994 0.0
C504 C 0.23766 0.13013 0.45264 0.0
C505 C 0.22123 0.13183 0.42713 0.0
C506 C 0.19246 0.11008 0.41676 0.0
C507 C 0.16117 0.12021 0.39787 0.0
C508 C 0.13493 0.09983 0.38674 0.0
C509 C 0.14027 0.06874 0.39375 0.0
H510 H 0.22211 0.07032 0.43798 0.0
C511 C 0.17183 0.05853 0.41245 0.0
C512 C 0.19755 0.07901 0.424 0.0
H513 H 0.1766 0.03474 0.41821 0.0
H514 H 0.35625 0.18146 0.43886 0.0
H515 H 0.29953 0.15363 0.42185 0.0
H516 H 0.24965 0.14981 0.50487 0.0
H517 H 0.30676 0.17801 0.52187 0.0
H518 H 0.22715 0.11381 0.46724 0.0
H519 H 0.2284 0.15012 0.41348 0.0
H520 H 0.15698 0.14396 0.39174 0.0
H521 H 0.11101 0.10832 0.37224 0.0
C522 C 0.37817 0.85967 0.48777 0.0
C523 C 0.40773 0.87081 0.50542 0.0
C524 C 0.34752 0.87977 0.47543 0.0
C525 C 0.3457 0.91139 0.48061 0.0
C526 C 0.37356 0.92242 0.4995 0.0
C527 C 0.40478 0.90229 0.51159 0.0
C528 C 0.31541 0.93279 0.46563 0.0
C529 C 0.3103 0.92913 0.4383 0.0
C530 C 0.27624 0.94527 0.42174 0.0
C531 C 0.27766 0.94036 0.39304 0.0
C532 C 0.24263 0.94896 0.37696 0.0
C533 C 0.20562 0.96302 0.38922 0.0
H534 H 0.23738 0.96538 0.45578 0.0
C535 C 0.205 0.97027 0.41749 0.0
C536 C 0.24007 0.9614 0.43374 0.0
H537 H 0.17635 0.98047 0.42742 0.0
H538 H 0.37986 0.83557 0.48255 0.0
H539 H 0.32565 0.87063 0.46141 0.0
H540 H 0.3723 0.94668 0.50399 0.0
H541 H 0.42709 0.91135 0.52533 0.0
H542 H 0.29801 0.95137 0.47708 0.0
H543 H 0.33128 0.91178 0.42751 0.0
H544 H 0.30508 0.92809 0.38322 0.0
H545 H 0.24368 0.9431 0.35516 0.0
C546 C 0.75053 0.14698 0.47259 0.0
C547 C 0.71709 0.13118 0.48177 0.0
C548 C 0.78835 0.13098 0.46362 0.0
C549 C 0.79346 0.09877 0.46348 0.0
C550 C 0.76079 0.08307 0.4739 0.0
C551 C 0.72292 0.09907 0.48281 0.0
C552 C 0.83219 0.08094 0.45242 0.0
C553 C 0.85533 0.09139 0.43183 0.0
C554 C 0.89365 0.07453 0.41903 0.0
C555 C 0.91365 0.08893 0.39757 0.0
C556 C 0.95007 0.07484 0.38496 0.0
C557 C 0.96745 0.04584 0.39337 0.0
H558 H 0.89702 0.03314 0.44383 0.0
C559 C 0.94751 0.03107 0.4146 0.0
C560 C 0.91095 0.04524 0.42737 0.0
H561 H 0.96078 0.00895 0.42183 0.0
H562 H 0.74709 0.17171 0.47157 0.0
H563 H 0.81339 0.14396 0.45674 0.0
H564 H 0.76412 0.05831 0.47447 0.0
H565 H 0.69804 0.08626 0.4903 0.0
H566 H 0.83989 0.05816 0.46048 0.0
H567 H 0.84515 0.11361 0.42317 0.0
H568 H 0.90121 0.11137 0.39056 0.0
H569 H 0.96456 0.08675 0.36852 0.0
loop_
_geom_bond_atom_site_label_1
_geom_bond_atom_site_label_2
_geom_bond_distance
_geom_bond_site_symmetry_2
_ccdc_geom_bond_type
C0 C1 1.391 . S
C0 C4 1.391 . S
C0 H42 0.948 . S
C1 C0 1.391 . S
C1 C2 1.391 . S
C2 C1 1.391 . S
C2 H58 0.947 . S
C2 C59 1.392 . S
C3 C4 1.391 . S
C3 C7 1.397 . S
C3 C59 1.419 . S
C4 C0 1.391 . S
C4 C3 1.391 . S
C4 C5 1.399 . S
C5 C4 1.399 . S
C5 C8 1.396 . S
C5 C17 1.453 . S
C5 C18 1.684 . S
H6 C30 0.948 . S
C7 C3 1.397 . S
C7 C8 1.394 . S
C7 C26 1.723 . S
C8 C5 1.396 . S
C8 C7 1.394 . S
C8 C38 1.723 . S
H9 C32 0.940 1_554 S
H10 C33 0.949 . S
H11 C39 0.982 . S
H12 C40 0.979 . S
H13 C40 0.980 . S
H14 C40 0.983 . S
H15 C39 0.979 . S
H16 C39 0.977 . S
C17 C5 1.453 . S
C17 H46 0.982 . S
C17 H47 0.979 . S
C17 H48 0.977 . S
C18 C5 1.684 . S
C18 H43 0.979 . S
C18 H44 0.980 . S
C18 H45 0.983 . S
C19 C20 1.391 . S
C19 C24 1.391 1_556 S
C19 H49 0.948 1_556 S
C20 C19 1.391 . S
C20 C21 1.391 . S
C21 C20 1.391 . S
C21 C22 1.392 . S
C21 H50 0.947 . S
C22 C21 1.392 . S
C22 C23 1.419 . S
C22 H51 0.948 . S
C23 C22 1.419 . S
C23 C24 1.391 1_556 S
C23 C27 1.397 1_556 S
C24 C19 1.391 1_554 S
C24 C23 1.391 1_554 S
C24 C25 1.399 . S
C25 C24 1.399 . S
C25 C26 1.396 . S
C25 C28 1.453 . S
C25 C29 1.684 . S
C26 C7 1.723 . S
C26 C25 1.396 . S
C26 C27 1.394 . S
C27 C23 1.397 1_554 S
C27 C26 1.394 . S
C27 C37 1.716 1_554 S
C28 C25 1.453 . S
C28 H52 0.982 . S
C28 H53 0.979 . S
C28 H54 0.977 . S
C29 C25 1.684 . S
C29 H55 0.979 . S
C29 H56 0.980 . S
C29 H57 0.983 . S
C30 H6 0.948 . S
C30 C31 1.391 1_455 S
C30 C35 1.391 . S
C31 C30 1.391 1_655 S
C31 C32 1.408 . S
C32 H9 0.940 1_556 S
C32 C31 1.408 . S
C32 C33 1.382 1_656 S
C33 H10 0.949 . S
C33 C32 1.382 1_454 S
C33 C34 1.419 . S
C34 C33 1.419 . S
C34 C35 1.391 1_554 S
C34 C38 1.397 . S
C35 C30 1.391 . S
C35 C34 1.391 1_556 S
C35 C36 1.399 . S
C36 C35 1.399 . S
C36 C37 1.417 . S
C36 C39 1.453 . S
C36 C40 1.684 . S
C37 C27 1.716 1_556 S
C37 C36 1.417 . S
C37 C38 1.381 1_556 S
C38 C8 1.723 . S
C38 C34 1.397 . S
C38 C37 1.381 1_554 S
C39 H11 0.982 . S
C39 H15 0.979 . S
C39 H16 0.977 . S
C39 C36 1.453 . S
C40 H12 0.979 . S
C40 H13 0.980 . S
C40 H14 0.983 . S
C40 C36 1.684 . S
H41 C59 0.948 . S
H42 C0 0.948 . S
H43 C18 0.979 . S
H44 C18 0.980 . S
H45 C18 0.983 . S
H46 C17 0.982 . S
H47 C17 0.979 . S
H48 C17 0.977 . S
H49 C19 0.948 1_554 S
H50 C21 0.947 . S
H51 C22 0.948 . S
H52 C28 0.982 . S
H53 C28 0.979 . S
H54 C28 0.977 . S
H55 C29 0.979 . S
H56 C29 0.980 . S
H57 C29 0.983 . S
H58 C2 0.947 . S
C59 C2 1.392 . S
C59 C3 1.419 . S
C59 H41 0.948 . S
C60 C61 1.401 . S
C60 C64 1.387 1_556 S
C60 H102 0.943 1_556 S
C61 C60 1.401 . S
C61 C62 1.391 . S
C62 C61 1.391 . S
C62 H118 0.947 . S
C62 C119 1.392 . S
C63 C64 1.391 1_556 S
C63 C67 1.397 1_556 S
C63 C119 1.419 . S
C64 C60 1.387 1_554 S
C64 C63 1.391 1_554 S
C64 C65 1.399 . S
C65 C64 1.399 . S
C65 C68 1.396 . S
C65 C77 1.453 . S
C65 C78 1.684 . S
H66 C90 0.948 . S
C67 C63 1.397 1_554 S
C67 C68 1.394 . S
C67 C86 1.723 1_455 S
C68 C65 1.396 . S
C68 C67 1.394 . S
C68 C98 1.723 . S
H69 C92 0.947 . S
H70 C93 0.948 . S
H71 C99 0.982 . S
H72 C100 0.979 . S
H73 C100 0.980 . S
H74 C100 0.983 . S
H75 C99 0.979 . S
H76 C99 0.977 . S
C77 C65 1.453 . S
C77 H106 0.982 . S
C77 H107 0.979 . S
C77 H108 0.977 . S
C78 C65 1.684 . S
C78 H103 0.979 . S
C78 H104 0.980 . S
C78 H105 0.983 . S
C79 C80 1.391 . S
C79 C84 1.391 . S
C79 H109 0.948 . S
C80 C79 1.391 . S
C80 C81 1.391 1_556 S
C81 C80 1.391 1_554 S
C81 C82 1.392 . S
C81 H110 0.947 . S
C82 C81 1.392 . S
C82 C83 1.419 . S
C82 H111 0.948 . S
C83 C82 1.419 . S
C83 C84 1.391 1_554 S
C83 C87 1.397 . S
C84 C79 1.391 . S
C84 C83 1.391 1_556 S
C84 C85 1.399 . S
C85 C84 1.399 . S
C85 C86 1.396 1_556 S
C85 C88 1.453 . S
C85 C89 1.684 . S
C86 C67 1.723 1_655 S
C86 C85 1.396 1_554 S
C86 C87 1.394 . S
C87 C83 1.397 . S
C87 C86 1.394 . S
C87 C97 1.723 . S
C88 C85 1.453 . S
C88 H112 0.982 . S
C88 H113 0.979 . S
C88 H114 0.977 1_655 S
C89 C85 1.684 . S
C89 H115 0.979 . S
C89 H116 0.980 1_655 S
C89 H117 0.983 . S
C90 H66 0.948 . S
C90 C91 1.391 1_655 S
C90 C95 1.391 . S
C91 C90 1.391 1_455 S
C91 C92 1.391 . S
C92 H69 0.947 . S
C92 C91 1.391 . S
C92 C93 1.392 . S
C93 H70 0.948 . S
C93 C92 1.392 . S
C93 C94 1.419 . S
C94 C93 1.419 . S
C94 C95 1.391 1_455 S
C94 C98 1.397 . S
C95 C90 1.391 . S
C95 C94 1.391 1_655 S
C95 C96 1.399 . S
C96 C95 1.399 . S
C96 C97 1.396 . S
C96 C99 1.453 . S
C96 C100 1.684 . S
C97 C87 1.723 . S
C97 C96 1.396 . S
C97 C98 1.394 1_655 S
C98 C68 1.723 . S
C98 C94 1.397 . S
C98 C97 1.394 1_455 S
C99 H71 0.982 . S
C99 H75 0.979 . S
C99 H76 0.977 . S
C99 C96 1.453 . S
C100 H72 0.979 . S
C100 H73 0.980 . S
C100 H74 0.983 . S
C100 C96 1.684 . S
H101 C119 0.948 . S
H102 C60 0.943 1_554 S
H103 C78 0.979 . S
H104 C78 0.980 . S
H105 C78 0.983 . S
H106 C77 0.982 . S
H107 C77 0.979 . S
H108 C77 0.977 . S
H109 C79 0.948 . S
H110 C81 0.947 . S
H111 C82 0.948 . S
H112 C88 0.982 . S
H113 C88 0.979 . S
H114 C88 0.977 1_455 S
H115 C89 0.979 . S
H116 C89 0.980 1_455 S
H117 C89 0.983 . S
H118 C62 0.947 . S
C119 C62 1.392 . S
C119 C63 1.419 . S
C119 H101 0.948 . S
C120 C121 1.391 . S
C120 C124 1.391 . S
C120 H162 0.948 . S
C121 C120 1.391 . S
C121 C122 1.391 . S
C122 C121 1.391 . S
C122 H178 0.947 . S
C122 C179 1.392 . S
C123 C124 1.391 . S
C123 C127 1.397 . S
C123 C179 1.419 . S
C124 C120 1.391 . S
C124 C123 1.391 . S
C124 C125 1.399 . S
C125 C124 1.399 . S
C125 C128 1.396 . S
C125 C137 1.453 . S
C125 C138 1.684 . S
H126 C150 0.948 . S
C127 C123 1.397 . S
C127 C128 1.394 . S
C127 C146 1.723 . S
C128 C125 1.396 . S
C128 C127 1.394 . S
C128 C158 1.723 . S
H129 C152 0.947 . S
H130 C153 0.948 . S
H131 C159 0.982 . S
H132 C160 0.979 . S
H133 C160 0.980 . S
H134 C160 0.983 . S
H135 C159 0.979 . S
H136 C159 0.977 . S
C137 C125 1.453 . S
C137 H166 0.982 . S
C137 H167 0.979 . S
C137 H168 0.977 . S
C138 C125 1.684 . S
C138 H163 0.979 . S
C138 H164 0.980 . S
C138 H165 0.983 . S
C139 C140 1.391 . S
C139 C144 1.391 . S
C139 H169 0.948 . S
C140 C139 1.391 . S
C140 C141 1.391 . S
C141 C140 1.391 . S
C141 C142 1.392 . S
C141 H170 0.947 . S
C142 C141 1.392 . S
C142 C143 1.419 . S
C142 H171 0.948 . S
C143 C142 1.419 . S
C143 C144 1.391 . S
C143 C147 1.397 . S
C144 C139 1.391 . S
C144 C143 1.391 . S
C144 C145 1.399 . S
C145 C144 1.399 . S
C145 C146 1.396 . S
C145 C148 1.453 . S
C145 C149 1.684 . S
C146 C127 1.723 . S
C146 C145 1.396 . S
C146 C147 1.394 . S
C147 C143 1.397 . S
C147 C146 1.394 . S
C147 C157 1.723 . S
C148 C145 1.453 . S
C148 H172 0.982 . S
C148 H173 0.979 . S
C148 H174 0.977 . S
C149 C145 1.684 . S
C149 H175 0.979 . S
C149 H176 0.980 . S
C149 H177 0.983 . S
C150 H126 0.948 . S
C150 C151 1.391 . S
C150 C155 1.391 . S
C151 C150 1.391 . S
C151 C152 1.391 . S
C152 H129 0.947 . S
C152 C151 1.391 . S
C152 C153 1.392 . S
C153 H130 0.948 . S
C153 C152 1.392 . S
C153 C154 1.419 . S
C154 C153 1.419 . S
C154 C155 1.391 . S
C154 C158 1.397 . S
C155 C150 1.391 . S
C155 C154 1.391 . S
C155 C156 1.399 . S
C156 C155 1.399 . S
C156 C157 1.396 . S
C156 C159 1.453 . S
C156 C160 1.684 . S
C157 C147 1.723 . S
C157 C156 1.396 . S
C157 C158 1.394 . S
C158 C128 1.723 . S
C158 C154 1.397 . S
C158 C157 1.394 . S
C159 H131 0.982 . S
C159 H135 0.979 . S
C159 H136 0.977 . S
C159 C156 1.453 . S
C160 H132 0.979 . S
C160 H133 0.980 . S
C160 H134 0.983 . S
C160 C156 1.684 . S
H161 C179 0.948 . S
H162 C120 0.948 . S
H163 C138 0.979 . S
H164 C138 0.980 . S
H165 C138 0.983 . S
H166 C137 0.982 . S
H167 C137 0.979 . S
H168 C137 0.977 . S
H169 C139 0.948 . S
H170 C141 0.947 . S
H171 C142 0.948 . S
H172 C148 0.982 . S
H173 C148 0.979 . S
H174 C148 0.977 . S
H175 C149 0.979 . S
H176 C149 0.980 . S
H177 C149 0.983 . S
H178 C122 0.947 . S
C179 C122 1.392 . S
C179 C123 1.419 . S
C179 H161 0.948 . S
C180 C181 1.391 . S
C180 C184 1.391 . S
C180 H222 0.948 . S
C181 C180 1.391 . S
C181 C182 1.391 . S
C182 C181 1.391 . S
C182 H238 0.947 . S
C182 C239 1.392 . S
C183 C184 1.391 . S
C183 C187 1.397 . S
C183 C239 1.419 . S
C184 C180 1.391 . S
C184 C183 1.391 . S
C184 C185 1.399 . S
C185 C184 1.399 . S
C185 C188 1.396 . S
C185 C197 1.453 . S
C185 C198 1.684 . S
H186 C210 0.948 . S
C187 C183 1.397 . S
C187 C188 1.394 . S
C187 C206 1.723 . S
C188 C185 1.396 . S
C188 C187 1.394 . S
C188 C218 1.723 . S
H189 C212 0.947 . S
H190 C213 0.948 . S
H191 C219 0.982 . S
H192 C220 0.979 . S
H193 C220 0.980 . S
H194 C220 0.983 . S
H195 C219 0.979 . S
H196 C219 0.977 . S
C197 C185 1.453 . S
C197 H226 0.982 . S
C197 H227 0.979 . S
C197 H228 0.977 . S
C198 C185 1.684 . S
C198 H223 0.979 . S
C198 H224 0.980 . S
C198 H225 0.983 . S
C199 C200 1.391 . S
C199 C204 1.391 . S
C199 H229 0.948 . S
C200 C199 1.391 . S
C200 C201 1.391 . S
C201 C200 1.391 . S
C201 C202 1.392 . S
C201 H230 0.947 . S
C202 C201 1.392 . S
C202 C203 1.419 . S
C202 H231 0.948 . S
C203 C202 1.419 . S
C203 C204 1.391 . S
C203 C207 1.397 . S
C204 C199 1.391 . S
C204 C203 1.391 . S
C204 C205 1.399 . S
C205 C204 1.399 . S
C205 C206 1.396 . S
C205 C208 1.453 . S
C205 C209 1.684 . S
C206 C187 1.723 . S
C206 C205 1.396 . S
C206 C207 1.394 . S
C207 C203 1.397 . S
C207 C206 1.394 . S
C207 C217 1.723 . S
C208 C205 1.453 . S
C208 H232 0.982 . S
C208 H233 0.979 . S
C208 H234 0.977 . S
C209 C205 1.684 . S
C209 H235 0.979 . S
C209 H236 0.980 . S
C209 H237 0.983 . S
C210 H186 0.948 . S
C210 C211 1.391 . S
C210 C215 1.391 . S
C211 C210 1.391 . S
C211 C212 1.391 . S
C212 H189 0.947 . S
C212 C211 1.391 . S
C212 C213 1.392 . S
C213 H190 0.948 . S
C213 C212 1.392 . S
C213 C214 1.419 . S
C214 C213 1.419 . S
C214 C215 1.391 . S
C214 C218 1.397 . S
C215 C210 1.391 . S
C215 C214 1.391 . S
C215 C216 1.399 . S
C216 C215 1.399 . S
C216 C217 1.396 . S
C216 C219 1.453 . S
C216 C220 1.684 . S
C217 C207 1.723 . S
C217 C216 1.396 . S
C217 C218 1.394 . S
C218 C188 1.723 . S
C218 C214 1.397 . S
C218 C217 1.394 . S
C219 H191 0.982 . S
C219 H195 0.979 . S
C219 H196 0.977 . S
C219 C216 1.453 . S
C220 H192 0.979 . S
C220 H193 0.980 . S
C220 H194 0.983 . S
C220 C216 1.684 . S
H221 C239 0.948 . S
H222 C180 0.948 . S
H223 C198 0.979 . S
H224 C198 0.980 . S
H225 C198 0.983 . S
H226 C197 0.982 . S
H227 C197 0.979 . S
H228 C197 0.977 . S
H229 C199 0.948 . S
H230 C201 0.947 . S
H231 C202 0.948 . S
H232 C208 0.982 . S
H233 C208 0.979 . S
H234 C208 0.977 . S
H235 C209 0.979 . S
H236 C209 0.980 . S
H237 C209 0.983 . S
H238 C182 0.947 . S
C239 C182 1.392 . S
C239 C183 1.419 . S
C239 H221 0.948 . S
Zn240 O246 1.920 . S
Zn240 O252 1.898 . S
Zn240 O255 1.905 . S
Zn241 O249 1.905 . S
Zn241 O250 1.898 . S
Zn241 O258 1.920 . S
Zn242 O245 2.080 . S
Zn242 O248 2.114 1_545 S
Zn242 O251 2.120 1_545 S
Zn242 O253 2.120 . S
Zn242 O254 2.114 . S
Zn242 O257 2.080 1_545 S
C243 O248 1.166 . S
C243 O249 1.182 . S
C244 O250 1.167 . S
C244 O251 1.299 . S
O245 Zn242 2.080 . S
O245 C259 1.305 . S
O246 Zn240 1.920 . S
O246 C259 1.234 . S
C247 O252 1.167 . S
C247 O253 1.299 . S
O248 Zn242 2.114 1_565 S
O248 C243 1.166 . S
O249 Zn241 1.905 . S
O249 C243 1.182 . S
O250 Zn241 1.898 . S
O250 C244 1.167 . S
O251 Zn242 2.120 1_565 S
O251 C244 1.299 . S
O252 Zn240 1.898 . S
O252 C247 1.167 . S
O253 Zn242 2.120 . S
O253 C247 1.299 . S
O254 Zn242 2.114 . S
O254 C256 1.166 1_455 S
O255 Zn240 1.905 . S
O255 C256 1.182 1_455 S
C256 O254 1.166 1_655 S
C256 O255 1.182 1_655 S
O257 Zn242 2.080 1_565 S
O257 C260 1.305 . S
O258 Zn241 1.920 . S
O258 C260 1.234 . S
C259 O245 1.305 . S
C259 O246 1.234 . S
C260 O257 1.305 . S
C260 O258 1.234 . S
Zn261 O267 1.920 . S
Zn261 O273 1.898 . S
Zn261 O276 1.905 . S
Zn262 O270 1.905 . S
Zn262 O271 1.898 . S
Zn262 O279 1.920 . S
Zn263 O266 2.080 . S
Zn263 O269 2.114 . S
Zn263 O272 2.120 . S
Zn263 O274 2.120 . S
Zn263 O275 2.114 . S
Zn263 O278 2.080 . S
C264 O269 1.166 . S
C264 O270 1.182 . S
C265 O271 1.167 . S
C265 O272 1.299 . S
O266 Zn263 2.080 . S
O266 C280 1.305 . S
O267 Zn261 1.920 . S
O267 C280 1.234 . S
C268 O273 1.167 . S
C268 O274 1.299 . S
O269 Zn263 2.114 . S
O269 C264 1.166 . S
O270 Zn262 1.905 . S
O270 C264 1.182 . S
O271 Zn262 1.898 . S
O271 C265 1.167 . S
O272 Zn263 2.120 . S
O272 C265 1.299 . S
O273 Zn261 1.898 . S
O273 C268 1.167 . S
O274 Zn263 2.120 . S
O274 C268 1.299 . S
O275 Zn263 2.114 . S
O275 C277 1.166 . S
O276 Zn261 1.905 . S
O276 C277 1.182 . S
C277 O275 1.166 . S
C277 O276 1.182 . S
O278 Zn263 2.080 . S
O278 C281 1.305 . S
O279 Zn262 1.920 . S
O279 C281 1.234 . S
C280 O266 1.305 . S
C280 O267 1.234 . S
C281 O278 1.305 . S
C281 O279 1.234 . S
C282 C283 1.386 . S
C282 C284 1.383 . S
C282 H298 0.951 . S
C283 C282 1.386 . S
C283 C287 1.383 . S
C284 C282 1.383 . S
C284 C285 1.402 . S
C284 H299 0.951 . S
C285 C284 1.402 . S
C285 C286 1.375 . S
C285 C288 1.481 . S
C286 C285 1.375 . S
C286 C287 1.367 . S
C286 H300 0.951 . S
C287 C283 1.383 . S
C287 C286 1.367 . S
C287 H301 0.950 . S
C288 C285 1.481 . S
C288 C289 1.297 . S
C288 H302 0.950 . S
C289 C288 1.297 . S
C289 C290 1.479 . S
C289 H303 0.950 . S
C290 C289 1.479 . S
C290 C291 1.375 . S
C290 C296 1.404 . S
C291 C290 1.375 . S
C291 C292 1.369 . S
C291 H304 0.950 . S
C292 C291 1.369 . S
C292 C293 1.392 . S
C292 H305 0.951 . S
C293 C292 1.392 . S
C293 C295 1.384 . S
H294 C296 0.949 . S
C295 C293 1.384 . S
C295 C296 1.385 . S
C295 H297 0.950 . S
C296 C290 1.404 . S
C296 H294 0.949 . S
C296 C295 1.385 . S
H297 C295 0.950 . S
H298 C282 0.951 . S
H299 C284 0.951 . S
H300 C286 0.951 . S
H301 C287 0.950 . S
H302 C288 0.950 . S
H303 C289 0.950 . S
H304 C291 0.950 . S
H305 C292 0.951 . S
C306 C307 1.389 . S
C306 C308 1.383 . S
C306 H322 0.951 . S
C307 C306 1.389 . S
C307 C311 1.379 1_455 S
C308 C306 1.383 . S
C308 C309 1.403 1_455 S
C308 H323 0.951 . S
C309 C308 1.403 1_655 S
C309 C310 1.374 . S
C309 C312 1.481 . S
C310 C309 1.374 . S
C310 C311 1.367 . S
C310 H324 0.951 . S
C311 C307 1.379 1_655 S
C311 C310 1.367 . S
C311 H325 0.950 . S
C312 C309 1.481 . S
C312 C313 1.297 1_655 S
C312 H326 0.950 . S
C313 C312 1.297 1_455 S
C313 C314 1.479 . S
C313 H327 0.950 . S
C314 C313 1.479 . S
C314 C315 1.375 . S
C314 C320 1.404 1_455 S
C315 C314 1.375 . S
C315 C316 1.369 . S
C315 H328 0.950 . S
C316 C315 1.369 . S
C316 C317 1.392 . S
C316 H329 0.951 . S
C317 C316 1.392 . S
C317 C319 1.384 . S
H318 C320 0.949 . S
C319 C317 1.384 . S
C319 C320 1.385 1_455 S
C319 H321 0.950 1_455 S
C320 C314 1.404 1_655 S
C320 H318 0.949 . S
C320 C319 1.385 1_655 S
H321 C319 0.950 1_655 S
H322 C306 0.951 . S
H323 C308 0.951 . S
H324 C310 0.951 . S
H325 C311 0.950 . S
H326 C312 0.950 . S
H327 C313 0.950 . S
H328 C315 0.950 . S
H329 C316 0.951 . S
C330 C331 1.386 . S
C330 C332 1.383 . S
C330 H346 0.951 . S
C331 C330 1.386 . S
C331 C335 1.383 . S
C332 C330 1.383 . S
C332 C333 1.402 . S
C332 H347 0.951 . S
C333 C332 1.402 . S
C333 C334 1.375 . S
C333 C336 1.481 . S
C334 C333 1.375 . S
C334 C335 1.367 . S
C334 H348 0.951 . S
C335 C331 1.383 . S
C335 C334 1.367 . S
C335 H349 0.950 . S
C336 C333 1.481 . S
C336 C337 1.297 . S
C336 H350 0.950 . S
C337 C336 1.297 . S
C337 C338 1.479 . S
C337 H351 0.950 . S
C338 C337 1.479 . S
C338 C339 1.375 . S
C338 C344 1.404 . S
C339 C338 1.375 . S
C339 C340 1.369 . S
C339 H352 0.950 . S
C340 C339 1.369 . S
C340 C341 1.392 . S
C340 H353 0.951 . S
C341 C340 1.392 . S
C341 C343 1.384 . S
H342 C344 0.949 . S
C343 C341 1.384 . S
C343 C344 1.385 . S
C343 H345 0.950 . S
C344 C338 1.404 . S
C344 H342 0.949 . S
C344 C343 1.385 . S
H345 C343 0.950 . S
H346 C330 0.951 . S
H347 C332 0.951 . S
H348 C334 0.951 . S
H349 C335 0.950 . S
H350 C336 0.950 . S
H351 C337 0.950 . S
H352 C339 0.950 . S
H353 C340 0.951 . S
C354 C355 1.386 . S
C354 C356 1.383 . S
C354 H370 0.951 . S
C355 C354 1.386 . S
C355 C359 1.383 . S
C356 C354 1.383 . S
C356 C357 1.402 . S
C356 H371 0.951 . S
C357 C356 1.402 . S
C357 C358 1.375 . S
C357 C360 1.481 . S
C358 C357 1.375 . S
C358 C359 1.367 . S
C358 H372 0.951 . S
C359 C355 1.383 . S
C359 C358 1.367 . S
C359 H373 0.950 . S
C360 C357 1.481 . S
C360 C361 1.297 . S
C360 H374 0.950 . S
C361 C360 1.297 . S
C361 C362 1.479 . S
C361 H375 0.950 . S
C362 C361 1.479 . S
C362 C363 1.375 . S
C362 C368 1.404 . S
C363 C362 1.375 . S
C363 C364 1.369 . S
C363 H376 0.950 . S
C364 C363 1.369 . S
C364 C365 1.392 . S
C364 H377 0.951 . S
C365 C364 1.392 . S
C365 C367 1.384 . S
H366 C368 0.949 . S
C367 C365 1.384 . S
C367 C368 1.385 . S
C367 H369 0.950 . S
C368 C362 1.404 . S
C368 H366 0.949 . S
C368 C367 1.385 . S
H369 C367 0.950 . S
H370 C354 0.951 . S
H371 C356 0.951 . S
H372 C358 0.951 . S
H373 C359 0.950 . S
H374 C360 0.950 . S
H375 C361 0.950 . S
H376 C363 0.950 . S
H377 C364 0.951 . S
C378 C379 1.386 . S
C378 C380 1.383 . S
C378 H394 0.951 . S
C379 C378 1.386 . S
C379 C383 1.383 . S
C380 C378 1.383 . S
C380 C381 1.402 . S
C380 H395 0.951 . S
C381 C380 1.402 . S
C381 C382 1.375 . S
C381 C384 1.481 . S
C382 C381 1.375 . S
C382 C383 1.367 . S
C382 H396 0.951 . S
C383 C379 1.383 . S
C383 C382 1.367 . S
C383 H397 0.950 . S
C384 C381 1.481 . S
C384 C385 1.297 . S
C384 H398 0.950 . S
C385 C384 1.297 . S
C385 C386 1.479 . S
C385 H399 0.950 . S
C386 C385 1.479 . S
C386 C387 1.375 . S
C386 C392 1.404 . S
C387 C386 1.375 . S
C387 C388 1.369 . S
C387 H400 0.950 . S
C388 C387 1.369 . S
C388 C389 1.392 . S
C388 H401 0.951 . S
C389 C388 1.392 . S
C389 C391 1.384 . S
H390 C392 0.949 . S
C391 C389 1.384 . S
C391 C392 1.385 . S
C391 H393 0.950 . S
C392 C386 1.404 . S
C392 H390 0.949 . S
C392 C391 1.385 . S
H393 C391 0.950 . S
H394 C378 0.951 . S
H395 C380 0.951 . S
H396 C382 0.951 . S
H397 C383 0.950 . S
H398 C384 0.950 . S
H399 C385 0.950 . S
H400 C387 0.950 . S
H401 C388 0.951 . S
C402 C403 1.386 . S
C402 C404 1.383 . S
C402 H418 0.951 . S
C403 C402 1.386 . S
C403 C407 1.383 . S
C404 C402 1.383 . S
C404 C405 1.402 . S
C404 H419 0.951 . S
C405 C404 1.402 . S
C405 C406 1.375 . S
C405 C408 1.481 . S
C406 C405 1.375 . S
C406 C407 1.367 . S
C406 H420 0.951 . S
C407 C403 1.383 . S
C407 C406 1.367 . S
C407 H421 0.950 . S
C408 C405 1.481 . S
C408 C409 1.297 . S
C408 H422 0.950 . S
C409 C408 1.297 . S
C409 C410 1.479 . S
C409 H423 0.950 . S
C410 C409 1.479 . S
C410 C411 1.375 . S
C410 C416 1.404 . S
C411 C410 1.375 . S
C411 C412 1.369 . S
C411 H424 0.950 . S
C412 C411 1.369 . S
C412 C413 1.392 . S
C412 H425 0.951 . S
C413 C412 1.392 . S
C413 C415 1.384 . S
H414 C416 0.949 . S
C415 C413 1.384 . S
C415 C416 1.385 . S
C415 H417 0.950 . S
C416 C410 1.404 . S
C416 H414 0.949 . S
C416 C415 1.385 . S
H417 C415 0.950 . S
H418 C402 0.951 . S
H419 C404 0.951 . S
H420 C406 0.951 . S
H421 C407 0.950 . S
H422 C408 0.950 . S
H423 C409 0.950 . S
H424 C411 0.950 . S
H425 C412 0.951 . S
C426 C427 1.386 . S
C426 C428 1.383 . S
C426 H442 0.951 . S
C427 C426 1.386 . S
C427 C431 1.383 . S
C428 C426 1.383 . S
C428 C429 1.402 . S
C428 H443 0.951 . S
C429 C428 1.402 . S
C429 C430 1.375 . S
C429 C432 1.481 . S
C430 C429 1.375 . S
C430 C431 1.367 . S
C430 H444 0.951 . S
C431 C427 1.383 . S
C431 C430 1.367 . S
C431 H445 0.950 . S
C432 C429 1.481 . S
C432 C433 1.297 . S
C432 H446 0.950 . S
C433 C432 1.297 . S
C433 C434 1.479 . S
C433 H447 0.950 . S
C434 C433 1.479 . S
C434 C435 1.375 . S
C434 C440 1.404 . S
C435 C434 1.375 . S
C435 C436 1.369 . S
C435 H448 0.950 . S
C436 C435 1.369 . S
C436 C437 1.392 . S
C436 H449 0.951 . S
C437 C436 1.392 . S
C437 C439 1.384 . S
H438 C440 0.949 . S
C439 C437 1.384 . S
C439 C440 1.385 . S
C439 H441 0.950 . S
C440 C434 1.404 . S
C440 H438 0.949 . S
C440 C439 1.385 . S
H441 C439 0.950 . S
H442 C426 0.951 . S
H443 C428 0.951 . S
H444 C430 0.951 . S
H445 C431 0.950 . S
H446 C432 0.950 . S
H447 C433 0.950 . S
H448 C435 0.950 . S
H449 C436 0.951 . S
C450 C451 1.386 . S
C450 C452 1.383 . S
C450 H466 0.951 . S
C451 C450 1.386 . S
C451 C455 1.383 . S
C452 C450 1.383 . S
C452 C453 1.402 . S
C452 H467 0.951 . S
C453 C452 1.402 . S
C453 C454 1.375 . S
C453 C456 1.481 . S
C454 C453 1.375 . S
C454 C455 1.367 . S
C454 H468 0.951 . S
C455 C451 1.383 . S
C455 C454 1.367 . S
C455 H469 0.950 . S
C456 C453 1.481 . S
C456 C457 1.297 . S
C456 H470 0.950 . S
C457 C456 1.297 . S
C457 C458 1.479 . S
C457 H471 0.950 . S
C458 C457 1.479 . S
C458 C459 1.375 . S
C458 C464 1.404 . S
C459 C458 1.375 . S
C459 C460 1.369 . S
C459 H472 0.950 . S
C460 C459 1.369 . S
C460 C461 1.392 . S
C460 H473 0.951 . S
C461 C460 1.392 . S
C461 C463 1.384 . S
H462 C464 0.949 . S
C463 C461 1.384 . S
C463 C464 1.385 . S
C463 H465 0.950 . S
C464 C458 1.404 . S
C464 H462 0.949 . S
C464 C463 1.385 . S
H465 C463 0.950 . S
H466 C450 0.951 . S
H467 C452 0.951 . S
H468 C454 0.951 . S
H469 C455 0.950 . S
H470 C456 0.950 . S
H471 C457 0.950 . S
H472 C459 0.950 . S
H473 C460 0.951 . S
C474 C475 1.386 . S
C474 C476 1.383 . S
C474 H490 0.951 . S
C475 C474 1.386 . S
C475 C479 1.383 . S
C476 C474 1.383 . S
C476 C477 1.402 . S
C476 H491 0.951 . S
C477 C476 1.402 . S
C477 C478 1.375 . S
C477 C480 1.481 . S
C478 C477 1.375 . S
C478 C479 1.367 . S
C478 H492 0.951 . S
C479 C475 1.383 . S
C479 C478 1.367 . S
C479 H493 0.950 . S
C480 C477 1.481 . S
C480 C481 1.297 . S
C480 H494 0.950 . S
C481 C480 1.297 . S
C481 C482 1.479 . S
C481 H495 0.950 . S
C482 C481 1.479 . S
C482 C483 1.375 . S
C482 C488 1.404 . S
C483 C482 1.375 . S
C483 C484 1.369 . S
C483 H496 0.950 . S
C484 C483 1.369 . S
C484 C485 1.392 . S
C484 H497 0.951 . S
C485 C484 1.392 . S
C485 C487 1.384 . S
H486 C488 0.949 . S
C487 C485 1.384 . S
C487 C488 1.385 . S
C487 H489 0.950 . S
C488 C482 1.404 . S
C488 H486 0.949 . S
C488 C487 1.385 . S
H489 C487 0.950 . S
H490 C474 0.951 . S
H491 C476 0.951 . S
H492 C478 0.951 . S
H493 C479 0.950 . S
H494 C480 0.950 . S
H495 C481 0.950 . S
H496 C483 0.950 . S
H497 C484 0.951 . S
C498 C499 1.386 . S
C498 C500 1.383 . S
C498 H514 0.951 . S
C499 C498 1.386 . S
C499 C503 1.383 . S
C500 C498 1.383 . S
C500 C501 1.402 . S
C500 H515 0.951 . S
C501 C500 1.402 . S
C501 C502 1.375 . S
C501 C504 1.481 . S
C502 C501 1.375 . S
C502 C503 1.367 . S
C502 H516 0.951 . S
C503 C499 1.383 . S
C503 C502 1.367 . S
C503 H517 0.950 . S
C504 C501 1.481 . S
C504 C505 1.297 . S
C504 H518 0.950 . S
C505 C504 1.297 . S
C505 C506 1.479 . S
C505 H519 0.950 . S
C506 C505 1.479 . S
C506 C507 1.375 . S
C506 C512 1.404 . S
C507 C506 1.375 . S
C507 C508 1.369 . S
C507 H520 0.950 . S
C508 C507 1.369 . S
C508 C509 1.392 . S
C508 H521 0.951 . S
C509 C508 1.392 . S
C509 C511 1.384 . S
H510 C512 0.949 . S
C511 C509 1.384 . S
C511 C512 1.385 . S
C511 H513 0.950 . S
C512 C506 1.404 . S
C512 H510 0.949 . S
C512 C511 1.385 . S
H513 C511 0.950 . S
H514 C498 0.951 . S
H515 C500 0.951 . S
H516 C502 0.951 . S
H517 C503 0.950 . S
H518 C504 0.950 . S
H519 C505 0.950 . S
H520 C507 0.950 . S
H521 C508 0.951 . S
C522 C523 1.386 . S
C522 C524 1.383 . S
C522 H538 0.951 . S
C523 C522 1.386 . S
C523 C527 1.383 . S
C524 C522 1.383 . S
C524 C525 1.402 . S
C524 H539 0.951 . S
C525 C524 1.402 . S
C525 C526 1.375 . S
C525 C528 1.481 . S
C526 C525 1.375 . S
C526 C527 1.367 . S
C526 H540 0.951 . S
C527 C523 1.383 . S
C527 C526 1.367 . S
C527 H541 0.950 . S
C528 C525 1.481 . S
C528 C529 1.297 . S
C528 H542 0.950 . S
C529 C528 1.297 . S
C529 C530 1.479 . S
C529 H543 0.950 . S
C530 C529 1.479 . S
C530 C531 1.375 . S
C530 C536 1.404 . S
C531 C530 1.375 . S
C531 C532 1.369 . S
C531 H544 0.950 . S
C532 C531 1.369 . S
C532 C533 1.392 . S
C532 H545 0.951 . S
C533 C532 1.392 . S
C533 C535 1.384 . S
H534 C536 0.949 . S
C535 C533 1.384 . S
C535 C536 1.385 . S
C535 H537 0.950 . S
C536 C530 1.404 . S
C536 H534 0.949 . S
C536 C535 1.385 . S
H537 C535 0.950 . S
H538 C522 0.951 . S
H539 C524 0.951 . S
H540 C526 0.951 . S
H541 C527 0.950 . S
H542 C528 0.950 . S
H543 C529 0.950 . S
H544 C531 0.950 . S
H545 C532 0.951 . S
C546 C547 1.386 . S
C546 C548 1.383 . S
C546 H562 0.951 . S
C547 C546 1.386 . S
C547 C551 1.383 . S
C548 C546 1.383 . S
C548 C549 1.402 . S
C548 H563 0.951 . S
C549 C548 1.402 . S
C549 C550 1.375 . S
C549 C552 1.481 . S
C550 C549 1.375 . S
C550 C551 1.367 . S
C550 H564 0.951 . S
C551 C547 1.383 . S
C551 C550 1.367 . S
C551 H565 0.950 . S
C552 C549 1.481 . S
C552 C553 1.297 . S
C552 H566 0.950 . S
C553 C552 1.297 . S
C553 C554 1.479 . S
C553 H567 0.950 . S
C554 C553 1.479 . S
C554 C555 1.375 . S
C554 C560 1.404 . S
C555 C554 1.375 . S
C555 C556 1.369 . S
C555 H568 0.950 . S
C556 C555 1.369 . S
C556 C557 1.392 . S
C556 H569 0.951 . S
C557 C556 1.392 . S
C557 C559 1.384 . S
H558 C560 0.949 . S
C559 C557 1.384 . S
C559 C560 1.385 . S
C559 H561 0.950 . S
C560 C554 1.404 . S
C560 H558 0.949 . S
C560 C559 1.385 . S
H561 C559 0.950 . S
H562 C546 0.951 . S
H563 C548 0.951 . S
H564 C550 0.951 . S
H565 C551 0.950 . S
H566 C552 0.950 . S
H567 C553 0.950 . S
H568 C555 0.950 . S
H569 C556 0.951 . S
C293 C247 1.384 . S
C283 C1 1.518 . S
C317 C243 1.481 . S
C307 C91 1.487 . S
C341 C268 1.374 . S
C331 C121 1.520 . S
C355 C211 1.424 . S
C365 C264 1.347 . S
C379 C20 1.085 . S
C389 C265 0.933 . S
C413 C280 1.150 . S
C403 C80 1.134 . S
C427 C31 1.724 . S
C437 C281 1.630 . S
C461 C277 1.603 . S
C451 C61 1.681 . S
C485 C244 1.108 1_655 S
C475 C140 1.117 . S
C499 C200 1.141 . S
C509 C259 1.029 . S
C533 C260 1.532 . S
C523 C151 1.715 . S
C557 C256 1.555 . S
C547 C181 1.654 . S
