# Generated by pormake.
# Topology wbl, (4,4)-cn, num edge types: 1
# Building blocks:
#     Node 0, Type 0, BuildingBlock: MUDLON_clean_linker_0, # of connection points: 4
#     Node 1, Type 0, BuildingBlock: MUDLON_clean_linker_0, # of connection points: 4
#     Node 2, Type 0, BuildingBlock: MUDLON_clean_linker_0, # of connection points: 4
#     Node 3, Type 0, BuildingBlock: MUDLON_clean_linker_0, # of connection points: 4
#     Node 4, Type 0, BuildingBlock: MUDLON_clean_linker_0, # of connection points: 4
#     Node 5, Type 0, BuildingBlock: MUDLON_clean_linker_0, # of connection points: 4
#     Node 6, Type 0, BuildingBlock: MUDLON_clean_linker_0, # of connection points: 4
#     Node 7, Type 0, BuildingBlock: MUDLON_clean_linker_0, # of connection points: 4
#     Node 8, Type 1, BuildingBlock: QUQFOY_clean_sbu_3, # of connection points: 4
#     Node 9, Type 1, BuildingBlock: QUQFOY_clean_sbu_3, # of connection points: 4
#     Node 10, Type 1, BuildingBlock: QUQFOY_clean_sbu_3, # of connection points: 4
#     Node 11, Type 1, BuildingBlock: QUQFOY_clean_sbu_3, # of connection points: 4
#     Node 12, Type 1, BuildingBlock: QUQFOY_clean_sbu_3, # of connection points: 4
#     Node 13, Type 1, BuildingBlock: QUQFOY_clean_sbu_3, # of connection points: 4
#     Node 14, Type 1, BuildingBlock: QUQFOY_clean_sbu_3, # of connection points: 4
#     Node 15, Type 1, BuildingBlock: QUQFOY_clean_sbu_3, # of connection points: 4
#     Edge 16, Type (0, 1), None
#     Edge 17, Type (0, 1), None
#     Edge 18, Type (0, 1), None
#     Edge 19, Type (0, 1), None
#     Edge 20, Type (0, 1), None
#     Edge 21, Type (0, 1), None
#     Edge 22, Type (0, 1), None
#     Edge 23, Type (0, 1), None
#     Edge 24, Type (0, 1), None
#     Edge 25, Type (0, 1), None
#     Edge 26, Type (0, 1), None
#     Edge 27, Type (0, 1), None
#     Edge 28, Type (0, 1), None
#     Edge 29, Type (0, 1), None
#     Edge 30, Type (0, 1), None
#     Edge 31, Type (0, 1), None
#     Edge 32, Type (0, 1), None
#     Edge 33, Type (0, 1), None
#     Edge 34, Type (0, 1), None
#     Edge 35, Type (0, 1), None
#     Edge 36, Type (0, 1), None
#     Edge 37, Type (0, 1), None
#     Edge 38, Type (0, 1), None
#     Edge 39, Type (0, 1), None
#     Edge 40, Type (0, 1), None
#     Edge 41, Type (0, 1), None
#     Edge 42, Type (0, 1), None
#     Edge 43, Type (0, 1), None
#     Edge 44, Type (0, 1), None
#     Edge 45, Type (0, 1), None
#     Edge 46, Type (0, 1), None
#     Edge 47, Type (0, 1), None
# Relax obj value: 0.118
# Max RMSD: 0.161
# Mean RMSD: 0.145
data_MOF--net-wbl--node1-QUQFOY_clean_sbu_3--node2-MUDLON_clean_linker_0--edge1-none
_symmetry_space_group_name_H-M    P1
_symmetry_Int_Tables_number       1
_symmetry_cell_setting            triclinic
loop_
_symmetry_equiv_pos_as_xyz
'x, y, z'
_cell_length_a     32.49236
_cell_length_b     32.836255
_cell_length_c     44.872531
_cell_angle_alpha  91.055475
_cell_angle_beta   89.938369
_cell_angle_gamma 89.998823
loop_
_atom_site_label
_atom_site_type_symbol
_atom_site_fract_x
_atom_site_fract_y
_atom_site_fract_z
_atom_type_partial_charge
H0 H 0.18731 0.95503 0.36299 0.0
N1 N 0.12733 0.92197 0.32706 0.0
H2 H 0.19328 0.94815 0.41662 0.0
H3 H 0.08102 0.87634 0.36238 0.0
H4 H 0.08883 0.86693 0.41646 0.0
H5 H 0.13587 0.84686 0.3056 0.0
H6 H 0.19724 0.81644 0.28271 0.0
H7 H 0.19623 0.96386 0.30835 0.0
H8 H 0.25708 0.93397 0.28568 0.0
H9 H 0.15336 0.00139 0.33654 0.0
H10 H 0.05514 0.92746 0.30009 0.0
H11 H 0.11296 0.06211 0.32935 0.0
H12 H 0.0134 0.98871 0.29393 0.0
H13 H 0.91339 0.20986 0.36892 0.0
H14 H 0.88385 0.20291 0.41886 0.0
H15 H 0.8917 0.07185 0.40936 0.0
H16 H 0.92084 0.07906 0.35984 0.0
H17 H 0.88785 0.0838 0.31355 0.0
H18 H 0.82423 0.08424 0.28512 0.0
H19 H 0.83527 0.21447 0.27512 0.0
H20 H 0.89984 0.21359 0.30338 0.0
H21 H 0.00202 0.1392 0.36325 0.0
H22 H 0.05476 0.08775 0.35606 0.0
H23 H 0.00241 0.05469 0.27057 0.0
N24 N 0.9339 0.15042 0.33031 0.0
H25 H 0.94956 0.10599 0.27761 0.0
C26 C 0.13287 0.91704 0.35867 0.0
C27 C 0.16484 0.9367 0.37435 0.0
C28 C 0.16837 0.93259 0.4051 0.0
C29 C 0.14108 0.90753 0.42066 0.0
C30 C 0.10996 0.88674 0.40494 0.0
C31 C 0.10558 0.89198 0.3742 0.0
C32 C 0.16116 0.90749 0.30894 0.0
C33 C 0.16192 0.86616 0.30061 0.0
C34 C 0.19701 0.84887 0.28758 0.0
C35 C 0.23215 0.87276 0.28266 0.0
C36 C 0.23052 0.91472 0.28926 0.0
C37 C 0.19545 0.93194 0.30237 0.0
C38 C 0.10733 0.95931 0.31879 0.0
C39 C 0.12352 -0.00207 0.32636 0.0
C40 C 0.10009 0.033 0.32249 0.0
C41 C 0.05976 0.0303 0.31145 0.0
C42 C 0.04453 0.99198 0.30223 0.0
C43 C 0.06821 0.9569 0.30586 0.0
C44 C 0.91939 0.14524 0.36057 0.0
C45 C 0.90904 0.17974 0.37783 0.0
C46 C 0.89214 0.17564 0.4063 0.0
C47 C 0.88535 0.13679 0.41809 0.0
C48 C 0.89653 0.10222 0.40102 0.0
C49 C 0.9131 0.10633 0.37255 0.0
C50 C 0.89896 0.1488 0.31038 0.0
C51 C 0.87705 0.11239 0.30489 0.0
C52 C 0.84067 0.11265 0.28848 0.0
C53 C 0.82469 0.1494 0.27791 0.0
C54 C 0.84685 0.18566 0.28297 0.0
C55 C 0.88375 0.18524 0.29896 0.0
C56 C 0.96881 0.12424 0.32261 0.0
C57 C 0.00158 0.12088 0.34293 0.0
C58 C 0.03222 0.0917 0.33859 0.0
C59 C 0.0319 0.06608 0.31316 0.0
C60 C 0.00238 0.07281 0.29098 0.0
C61 C 0.97162 0.10208 0.29534 0.0
H62 H 0.94322 0.33961 0.6076 0.0
N63 N 0.89842 0.40174 0.58356 0.0
H64 H 0.94304 0.31894 0.65935 0.0
H65 H 0.85379 0.43306 0.62816 0.0
H66 H 0.85121 0.41016 0.68007 0.0
H67 H 0.82041 0.38434 0.57161 0.0
H68 H 0.79365 0.32355 0.54572 0.0
H69 H 0.9442 0.34666 0.54948 0.0
H70 H 0.918 0.28697 0.52409 0.0
H71 H 0.98134 0.38236 0.58157 0.0
H72 H 0.8939 0.47891 0.56741 0.0
H73 H 0.03704 0.42692 0.56934 0.0
H74 H 0.9507 0.52584 0.55829 0.0
H75 H 0.20247 0.61435 0.59 0.0
H76 H 0.21745 0.63379 0.64196 0.0
H77 H 0.08786 0.62793 0.66274 0.0
H78 H 0.0728 0.61075 0.61061 0.0
H79 H 0.07115 0.66001 0.56715 0.0
H80 H 0.07732 0.72648 0.54386 0.0
H81 H 0.19083 0.68773 0.50193 0.0
H82 H 0.18377 0.62085 0.52472 0.0
H83 H 0.12892 0.52658 0.59029 0.0
H84 H 0.07376 0.47733 0.59134 0.0
H85 H 0.00441 0.54947 0.52919 0.0
N86 N 0.12912 0.59953 0.56552 0.0
H87 H 0.05843 0.60007 0.52979 0.0
C88 C 0.89941 0.38895 0.61413 0.0
C89 C 0.92423 0.3564 0.62331 0.0
C90 C 0.92384 0.34428 0.65293 0.0
C91 C 0.89744 0.36329 0.67368 0.0
C92 C 0.87203 0.39526 0.66447 0.0
C93 C 0.87348 0.40832 0.63498 0.0
C94 C 0.88429 0.37043 0.56297 0.0
C95 C 0.84175 0.36368 0.56057 0.0
C96 C 0.82654 0.32892 0.54586 0.0
C97 C 0.85379 0.3002 0.53327 0.0
C98 C 0.8962 0.30833 0.53385 0.0
C99 C 0.91134 0.34294 0.54857 0.0
C100 C 0.93271 0.42684 0.57477 0.0
C101 C 0.97369 0.41301 0.57549 0.0
C102 C 0.00612 0.43915 0.56904 0.0
C103 C -0.00116 0.48044 0.5632 0.0
C104 C 0.95778 0.49417 0.56215 0.0
C105 C 0.92516 0.46749 0.56761 0.0
C106 C 0.13677 0.61046 0.59644 0.0
C107 C 0.17737 0.61734 0.60578 0.0
C108 C 0.18583 0.6284 0.63537 0.0
C109 C 0.1538 0.63178 0.65631 0.0
C110 C 0.11311 0.62487 0.64707 0.0
C111 C 0.10452 0.61512 0.61729 0.0
C112 C 0.12704 0.6354 0.54748 0.0
C113 C 0.09655 0.66535 0.5521 0.0
C114 C 0.10004 0.70327 0.53867 0.0
C115 C 0.13463 0.71225 0.52116 0.0
C116 C 0.16381 0.68156 0.51527 0.0
C117 C 0.15982 0.64339 0.52819 0.0
C118 C 0.09763 0.56846 0.5614 0.0
C119 C 0.1018 0.53193 0.5769 0.0
C120 C 0.07017 0.50337 0.57714 0.0
C121 C 0.03394 0.50946 0.56067 0.0
C122 C 0.03109 0.54436 0.54305 0.0
C123 C 0.06245 0.57359 0.5434 0.0
H124 H 0.67153 0.45624 0.85386 0.0
N125 N 0.6083 0.42214 0.82163 0.0
H126 H 0.6813 0.45337 0.90739 0.0
H127 H 0.56303 0.38125 0.8607 0.0
H128 H 0.57486 0.37559 0.91477 0.0
H129 H 0.61987 0.34463 0.80678 0.0
H130 H 0.68215 0.31352 0.78581 0.0
H131 H 0.67369 0.46372 0.79658 0.0
H132 H 0.73535 0.43311 0.77594 0.0
H133 H 0.63558 0.50171 0.82831 0.0
H134 H 0.53536 0.4272 0.79555 0.0
H135 H 0.59593 0.56242 0.81981 0.0
H136 H 0.49432 0.4887 0.78811 0.0
H137 H 0.40831 0.7285 0.84594 0.0
H138 H 0.38448 0.73899 0.89739 0.0
H139 H 0.38501 0.60886 0.90987 0.0
H140 H 0.40761 0.59854 0.85839 0.0
H141 H 0.37574 0.5881 0.81111 0.0
H142 H 0.30913 0.5814 0.78657 0.0
H143 H 0.3143 0.70806 0.76244 0.0
H144 H 0.382 0.71422 0.78631 0.0
H145 H 0.48919 0.64523 0.85136 0.0
H146 H 0.53895 0.59079 0.84631 0.0
H147 H 0.48444 0.55354 0.76243 0.0
N148 N 0.42147 0.65795 0.8172 0.0
H149 H 0.43409 0.60781 0.7675 0.0
C150 C 0.61563 0.41994 0.85327 0.0
C151 C 0.6493 0.43973 0.86685 0.0
C152 C 0.65504 0.43789 0.89754 0.0
C153 C 0.62837 0.41486 0.91514 0.0
C154 C 0.59548 0.39394 0.9016 0.0
C155 C 0.58882 0.39705 0.87089 0.0
C156 C 0.64177 0.40642 0.80364 0.0
C157 C 0.64459 0.36411 0.79934 0.0
C158 C 0.68025 0.34641 0.78748 0.0
C159 C 0.71388 0.37087 0.77965 0.0
C160 C 0.71006 0.41341 0.78199 0.0
C161 C 0.67444 0.43106 0.79392 0.0
C162 C 0.58854 0.45927 0.81251 0.0
C163 C 0.6054 0.49804 0.81872 0.0
C164 C 0.5824 0.53316 0.81409 0.0
C165 C 0.54176 0.53045 0.80371 0.0
C166 C 0.52571 0.49192 0.7959 0.0
C167 C 0.54899 0.45672 0.80025 0.0
C168 C 0.41022 0.66298 0.84831 0.0
C169 C 0.40354 0.70234 0.85988 0.0
C170 C 0.38982 0.70821 0.88918 0.0
C171 C 0.38307 0.6747 0.9076 0.0
C172 C 0.39026 0.63524 0.89622 0.0
C173 C 0.4031 0.62934 0.86675 0.0
C174 C 0.38419 0.65171 0.80015 0.0
C175 C 0.36303 0.61423 0.80003 0.0
C176 C 0.325 0.61038 0.78589 0.0
C177 C 0.30668 0.6442 0.77256 0.0
C178 C 0.32786 0.68149 0.77249 0.0
C179 C 0.36646 0.68505 0.78598 0.0
C180 C 0.45436 0.62838 0.81167 0.0
C181 C 0.48717 0.62512 0.83203 0.0
C182 C 0.51633 0.59424 0.82884 0.0
C183 C 0.51473 0.56686 0.80444 0.0
C184 C 0.48531 0.57309 0.78213 0.0
C185 C 0.45606 0.60407 0.78533 0.0
H186 H 0.46879 0.84341 0.11546 0.0
N187 N 0.42489 0.90643 0.0917 0.0
H188 H 0.46626 0.8206 0.16669 0.0
H189 H 0.37889 0.93643 0.13604 0.0
H190 H 0.37417 0.91164 0.18734 0.0
H191 H 0.34983 0.8803 0.07762 0.0
H192 H 0.33138 0.82013 0.04734 0.0
H193 H 0.47804 0.85931 0.05692 0.0
H194 H 0.46005 0.80076 0.02704 0.0
H195 H 0.50844 0.89258 0.09638 0.0
H196 H 0.41788 0.98179 0.07166 0.0
H197 H 0.5629 0.93802 0.08299 0.0
H198 H 0.47302 0.03011 0.06117 0.0
H199 H 0.72329 0.1285 0.08527 0.0
H200 H 0.74068 0.14968 0.13661 0.0
H201 H 0.61199 0.14488 0.16038 0.0
H202 H 0.59466 0.12571 0.10917 0.0
H203 H 0.58531 0.16645 0.0647 0.0
H204 H 0.58509 0.23251 0.04053 0.0
H205 H 0.69958 0.20163 0.99656 0.0
H206 H 0.69924 0.13535 0.02061 0.0
H207 H 0.65124 0.04248 0.09393 0.0
H208 H 0.59768 0.9925 0.09958 0.0
H209 H 0.5264 0.0511 0.03113 0.0
N210 N 0.64874 0.11132 0.06325 0.0
H211 H 0.57873 0.10309 0.02725 0.0
C212 C 0.4247 0.89251 0.12202 0.0
C213 C 0.44913 0.85959 0.1311 0.0
C214 C 0.44751 0.84635 0.16044 0.0
C215 C 0.42035 0.86468 0.181 0.0
C216 C 0.39559 0.89723 0.17192 0.0
C217 C 0.3982 0.91133 0.14275 0.0
C218 C 0.41521 0.87477 0.06998 0.0
C219 C 0.37388 0.86341 0.06612 0.0
C220 C 0.36341 0.82902 0.04886 0.0
C221 C 0.39429 0.80537 0.03505 0.0
C222 C 0.43544 0.81805 0.03756 0.0
C223 C 0.44585 0.85209 0.05489 0.0
C224 C 0.45853 0.93339 0.08462 0.0
C225 C 0.49998 0.92211 0.08826 0.0
C226 C 0.53156 0.94872 0.0809 0.0
C227 C 0.52283 0.98828 0.0712 0.0
C228 C 0.48128 -0.00027 0.06793 0.0
C229 C 0.44959 0.97235 0.07427 0.0
C230 C 0.65792 0.12487 0.09343 0.0
C231 C 0.69893 0.13231 0.10158 0.0
C232 C 0.70876 0.14435 0.13079 0.0
C233 C 0.67767 0.14825 0.15242 0.0
C234 C 0.63657 0.14145 0.14419 0.0
C235 C 0.62665 0.13063 0.11489 0.0
C236 C 0.64254 0.146 0.04446 0.0
C237 C 0.60967 0.17339 0.04914 0.0
C238 C 0.60946 0.21108 0.03517 0.0
C239 C 0.64251 0.22232 0.01686 0.0
C240 C 0.67374 0.19379 0.01061 0.0
C241 C 0.67361 0.15594 0.02425 0.0
C242 C 0.61846 0.07864 0.06182 0.0
C243 C 0.62393 0.04491 0.08025 0.0
C244 C 0.59322 0.01577 0.08314 0.0
C245 C 0.55685 0.01793 0.06627 0.0
C246 C 0.55304 0.04933 0.0455 0.0
C247 C 0.58341 0.07935 0.04326 0.0
H248 H 0.16629 0.57894 0.90053 0.0
N249 N 0.09757 0.60989 0.92831 0.0
H250 H 0.18159 0.58025 0.8474 0.0
H251 H 0.05464 0.64683 0.88593 0.0
H252 H 0.07194 0.65105 0.83252 0.0
H253 H 0.11846 0.68737 0.93753 0.0
H254 H 0.1811 0.7135 0.96151 0.0
H255 H 0.15133 0.56555 0.96357 0.0
H256 H 0.21268 0.59126 0.98709 0.0
H257 H 0.12594 0.53094 0.92074 0.0
H258 H 0.02332 0.60294 0.95266 0.0
H259 H 0.08832 0.46917 0.93003 0.0
H260 H 0.98427 0.54033 0.96094 0.0
H261 H 0.90693 0.29082 0.91822 0.0
H262 H 0.88624 0.27217 0.86704 0.0
H263 H 0.88874 0.39901 0.84356 0.0
H264 H 0.90695 0.41768 0.89474 0.0
H265 H 0.87292 0.43517 0.94065 0.0
H266 H 0.80624 0.44559 0.96466 0.0
H267 H 0.81125 0.32362 0.99886 0.0
H268 H 0.87922 0.31393 0.97578 0.0
H269 H 0.98719 0.37678 0.90611 0.0
H270 H 0.03344 0.4344 0.90712 0.0
H271 H 0.97764 0.47812 0.98904 0.0
N272 N 0.91941 0.36547 0.94106 0.0
H273 H 0.93038 0.42094 0.98771 0.0
C274 C 0.1085 0.61182 0.89715 0.0
C275 C 0.14472 0.59367 0.8859 0.0
C276 C 0.1536 0.59459 0.85554 0.0
C277 C 0.12751 0.61514 0.83605 0.0
C278 C 0.09215 0.63461 0.84725 0.0
C279 C 0.08239 0.63234 0.87757 0.0
C280 C 0.13001 0.62443 0.94791 0.0
C281 C 0.13847 0.6664 0.94895 0.0
C282 C 0.17424 0.68129 0.96263 0.0
C283 C 0.20214 0.65431 0.97569 0.0
C284 C 0.19206 0.61278 0.97681 0.0
C285 C 0.15656 0.59793 0.96306 0.0
C286 C 0.07745 0.57217 0.93594 0.0
C287 C 0.09529 0.53377 0.92977 0.0
C288 C 0.07357 0.49808 0.93504 0.0
C289 C 0.0331 0.49967 0.94593 0.0
C290 C 0.01563 0.53793 0.95289 0.0
C291 C 0.03772 0.57377 0.948 0.0
C292 C 0.90936 0.35541 0.91031 0.0
C293 C 0.90314 0.31449 0.90197 0.0
C294 C 0.8913 0.30394 0.87286 0.0
C295 C 0.88653 0.33418 0.85142 0.0
C296 C 0.8929 0.37512 0.85962 0.0
C297 C 0.90323 0.38577 0.88891 0.0
C298 C 0.88142 0.3738 0.95685 0.0
C299 C 0.86017 0.41094 0.95382 0.0
C300 C 0.82219 0.41699 0.9677 0.0
C301 C 0.80391 0.38552 0.98378 0.0
C302 C 0.82495 0.34845 0.98676 0.0
C303 C 0.86361 0.34286 0.97364 0.0
C304 C 0.95137 0.39657 0.94472 0.0
C305 C 0.98401 0.39902 0.92408 0.0
C306 C 0.0112 0.43182 0.92497 0.0
C307 C 0.00807 0.46194 0.94751 0.0
C308 C 0.97942 0.45656 0.97052 0.0
C309 C 0.95203 0.42378 0.96953 0.0
H310 H 0.61094 0.34129 0.15672 0.0
N311 N 0.60379 0.41632 0.18515 0.0
H312 H 0.63336 0.32848 0.10579 0.0
H313 H 0.62048 0.47098 0.1434 0.0
H314 H 0.64033 0.45772 0.09109 0.0
H315 H 0.68056 0.40586 0.20406 0.0
H316 H 0.70879 0.34475 0.22686 0.0
H317 H 0.55804 0.35614 0.21254 0.0
H318 H 0.58579 0.29635 0.23542 0.0
H319 H 0.53453 0.38095 0.16114 0.0
H320 H 0.57784 0.48067 0.2165 0.0
H321 H 0.46455 0.40774 0.16404 0.0
H322 H 0.50811 0.50836 0.21896 0.0
H323 H 0.29382 0.59392 0.13431 0.0
H324 H 0.3011 0.61984 0.0836 0.0
H325 H 0.43347 0.61459 0.09223 0.0
H326 H 0.42603 0.58941 0.14245 0.0
H327 H 0.42711 0.60799 0.19195 0.0
H328 H 0.4365 0.66881 0.22245 0.0
H329 H 0.30457 0.68408 0.22823 0.0
H330 H 0.29526 0.62181 0.19776 0.0
H331 H 0.37586 0.5123 0.13459 0.0
H332 H 0.43127 0.46458 0.1424 0.0
H333 H 0.43697 0.50128 0.2352 0.0
N334 N 0.35378 0.57543 0.17251 0.0
H335 H 0.38192 0.55001 0.22726 0.0
C336 C 0.61518 0.40743 0.15444 0.0
C337 C 0.61795 0.36716 0.14305 0.0
C338 C 0.63061 0.35971 0.11379 0.0
C339 C 0.63889 0.39215 0.09486 0.0
C340 C 0.63426 0.4323 0.1055 0.0
C341 C 0.62306 0.43984 0.13524 0.0
C342 C 0.61735 0.38577 0.20587 0.0
C343 C 0.65965 0.3826 0.21175 0.0
C344 C 0.67573 0.34761 0.22465 0.0
C345 C 0.64955 0.31541 0.23226 0.0
C346 C 0.60684 0.32043 0.22939 0.0
C347 C 0.59084 0.35505 0.21618 0.0
C348 C 0.56155 0.42934 0.18834 0.0
C349 C 0.52892 0.40856 0.17404 0.0
C350 C 0.48888 0.42385 0.17577 0.0
C351 C 0.4807 0.46027 0.19162 0.0
C352 C 0.51312 0.47988 0.20695 0.0
C353 C 0.55309 0.46444 0.20533 0.0
C354 C 0.3591 0.58953 0.14228 0.0
C355 C 0.3243 0.59827 0.12513 0.0
C356 C 0.32858 0.61304 0.09622 0.0
C357 C 0.3679 0.61902 0.08385 0.0
C358 C 0.40276 0.61004 0.10097 0.0
C359 C 0.39848 0.59595 0.12992 0.0
C360 C 0.36022 0.6099 0.19265 0.0
C361 C 0.40003 0.62395 0.19993 0.0
C362 C 0.40541 0.65877 0.21766 0.0
C363 C 0.37127 0.68126 0.22789 0.0
C364 C 0.33148 0.66727 0.2208 0.0
C365 C 0.32608 0.63178 0.20344 0.0
C366 C 0.3785 0.53942 0.17922 0.0
C367 C 0.38911 0.51074 0.15666 0.0
C368 C 0.42048 0.4826 0.16129 0.0
C369 C 0.44026 0.48092 0.18905 0.0
C370 C 0.42394 0.50366 0.21309 0.0
C371 C 0.39259 0.53191 0.2084 0.0
H372 H 0.34202 0.87628 0.41459 0.0
N373 N 0.41565 0.87507 0.44519 0.0
H374 H 0.32953 0.8497 0.36438 0.0
H375 H 0.46867 0.83687 0.40871 0.0
H376 H 0.45656 0.81289 0.35712 0.0
H377 H 0.3702 0.8099 0.46001 0.0
H378 H 0.30482 0.80988 0.48686 0.0
H379 H 0.38457 0.93814 0.48169 0.0
H380 H 0.32035 0.93778 0.50814 0.0
H381 H 0.38558 0.94202 0.41692 0.0
H382 H 0.48907 0.89681 0.46646 0.0
H383 H 0.41983 0.00759 0.41179 0.0
H384 H 0.52394 0.96248 0.46117 0.0
H385 H 0.58531 0.193 0.37935 0.0
H386 H 0.61601 0.19601 0.32949 0.0
H387 H 0.63573 0.06581 0.33025 0.0
H388 H 0.60562 0.06318 0.37974 0.0
H389 H 0.62774 0.06375 0.42896 0.0
H390 H 0.69181 0.06702 0.45655 0.0
H391 H 0.67665 0.19714 0.46857 0.0
H392 H 0.61165 0.19343 0.44086 0.0
H393 H 0.52052 0.09442 0.37641 0.0
H394 H 0.47824 0.03515 0.38544 0.0
H395 H 0.51858 0.03478 0.47704 0.0
N396 N 0.5786 0.1281 0.41392 0.0
H397 H 0.56159 0.09375 0.46808 0.0
C398 C 0.40627 0.85748 0.41604 0.0
C399 C 0.36705 0.86128 0.40284 0.0
C400 C 0.35988 0.84631 0.37403 0.0
C401 C 0.39205 0.82903 0.35726 0.0
C402 C 0.4313 0.82582 0.36991 0.0
C403 C 0.43814 0.83935 0.39926 0.0
C404 C 0.3813 0.87453 0.46622 0.0
C405 C 0.35967 0.83794 0.47056 0.0
C406 C 0.32233 0.83791 0.48608 0.0
C407 C 0.30661 0.87423 0.49861 0.0
C408 C 0.33094 0.9095 0.49795 0.0
C409 C 0.36788 0.9097 0.48215 0.0
C410 C 0.43518 0.91428 0.44183 0.0
C411 C 0.41591 0.94609 0.42642 0.0
C412 C 0.43544 0.98364 0.4236 0.0
C413 C 0.47456 0.9902 0.43607 0.0
C414 C 0.49353 0.95853 0.4517 0.0
C415 C 0.47394 0.92094 0.45453 0.0
C416 C 0.59284 0.12806 0.3833 0.0
C417 C 0.5958 0.16514 0.36851 0.0
C418 C 0.6135 0.16677 0.34013 0.0
C419 C 0.62837 0.13113 0.32596 0.0
C420 C 0.6245 0.09381 0.34049 0.0
C421 C 0.60735 0.09229 0.36892 0.0
C422 C 0.61459 0.1285 0.43294 0.0
C423 C 0.63783 0.09298 0.43773 0.0
C424 C 0.67454 0.09488 0.45366 0.0
C425 C 0.68943 0.13237 0.4647 0.0
C426 C 0.66599 0.16778 0.46033 0.0
C427 C 0.62884 0.16576 0.44464 0.0
C428 C 0.54863 0.09623 0.42049 0.0
C429 C 0.5213 0.08135 0.39837 0.0
C430 C 0.49635 0.04767 0.40366 0.0
C431 C 0.49656 0.02916 0.43161 0.0
C432 C 0.51943 0.04718 0.45484 0.0
C433 C 0.54436 0.08089 0.44955 0.0
H434 H 0.0906 0.83034 0.65892 0.0
N435 N 0.08764 0.90498 0.68837 0.0
H436 H 0.11736 0.81694 0.60916 0.0
H437 H 0.11203 0.95918 0.64834 0.0
H438 H 0.13626 0.94556 0.59705 0.0
H439 H 0.16139 0.8924 0.71184 0.0
H440 H 0.18564 0.82985 0.73479 0.0
H441 H 0.03754 0.84466 0.71104 0.0
H442 H 0.06138 0.78298 0.73398 0.0
H443 H 0.017 0.87586 0.66224 0.0
H444 H 0.06577 0.97075 0.71966 0.0
H445 H 0.94911 0.90767 0.66445 0.0
H446 H -0.00164 0.00364 0.72128 0.0
H447 H 0.76554 0.08522 0.65128 0.0
H448 H 0.75645 0.11298 0.60124 0.0
H449 H 0.88839 0.11727 0.59017 0.0
H450 H 0.89731 0.0913 0.64032 0.0
H451 H 0.91024 0.10953 0.69067 0.0
H452 H 0.9214 0.17314 0.71807 0.0
H453 H 0.79116 0.18094 0.737 0.0
H454 H 0.78029 0.11618 0.70999 0.0
H455 H 0.86068 0.01261 0.63914 0.0
H456 H 0.91781 0.96628 0.64448 0.0
H457 H 0.92785 0.00029 0.73761 0.0
N458 N 0.83603 0.07211 0.67992 0.0
H459 H 0.87162 0.04833 0.73202 0.0
C460 C 0.1004 0.896 0.65798 0.0
C461 C 0.10099 0.8559 0.64609 0.0
C462 C 0.11615 0.84811 0.6175 0.0
C463 C 0.12915 0.88022 0.59967 0.0
C464 C 0.12653 0.92039 0.61065 0.0
C465 C 0.11279 0.92813 0.63979 0.0
C466 C 0.09791 0.8734 0.70918 0.0
C467 C 0.13923 0.86917 0.71758 0.0
C468 C 0.15303 0.83334 0.73053 0.0
C469 C 0.12552 0.80119 0.73554 0.0
C470 C 0.08341 0.80706 0.73007 0.0
C471 C 0.06968 0.84272 0.71691 0.0
C472 C 0.04653 0.92128 0.69071 0.0
C473 C 0.01301 0.90351 0.67542 0.0
C474 C 0.97422 0.92179 0.67666 0.0
C475 C 0.96824 0.95831 0.69295 0.0
C476 C 0.00159 0.97518 0.70892 0.0
C477 C 0.04025 0.95672 0.70784 0.0
C478 C 0.83189 0.08542 0.64945 0.0
C479 C 0.7924 0.09187 0.63792 0.0
C480 C 0.78731 0.10785 0.60948 0.0
C481 C 0.82177 0.11691 0.59186 0.0
C482 C 0.86133 0.11011 0.6032 0.0
C483 C 0.86642 0.09532 0.63191 0.0
C484 C 0.84425 0.10775 0.69848 0.0
C485 C 0.8841 0.12443 0.70111 0.0
C486 C 0.8905 0.16081 0.71693 0.0
C487 C 0.85716 0.18201 0.72972 0.0
C488 C 0.81746 0.1652 0.72741 0.0
C489 C 0.81118 0.12827 0.71208 0.0
C490 C 0.86483 0.03844 0.68419 0.0
C491 C 0.87553 0.01125 0.66067 0.0
C492 C 0.90787 0.98372 0.66389 0.0
C493 C 0.92882 0.98104 0.69115 0.0
C494 C 0.9138 0.00326 0.71588 0.0
C495 C 0.88165 0.031 0.71258 0.0
C496 C 0.37281 0.63633 0.05384 0.0
O497 O 0.40769 0.63547 0.0411 0.0
Cd498 Cd 0.41989 0.67189 0.99611 0.0
O499 O 0.34251 0.65384 0.04154 0.0
Cd500 Cd 0.32743 0.6891 0.99453 0.0
C501 C 0.38472 0.76577 0.02039 0.0
O502 O 0.37145 0.65382 0.95792 0.0
O503 O 0.34987 0.71375 0.94624 0.0
O504 O 0.27122 0.64192 0.99069 0.0
C505 C 0.36742 0.68083 0.93824 0.0
O506 O 0.41443 0.74292 0.0121 0.0
C507 C 0.24364 0.66788 0.98483 0.0
O508 O 0.34767 0.75337 0.01836 0.0
O509 O 0.25462 0.70507 0.98447 0.0
C510 C 0.41581 0.84747 0.21094 0.0
O511 O 0.44648 0.83071 0.22318 0.0
Cd512 Cd 0.44202 0.79482 0.26917 0.0
O513 O 0.38034 0.84624 0.22298 0.0
Cd514 Cd 0.34996 0.81514 0.26783 0.0
C515 C 0.37781 0.72068 0.24367 0.0
O516 O 0.4028 0.83445 0.30496 0.0
O517 O 0.35427 0.79417 0.31938 0.0
O518 O 0.30444 0.87401 0.27191 0.0
C519 C 0.38457 0.81676 0.32613 0.0
O520 O 0.41367 0.72974 0.25298 0.0
C521 C 0.2716 0.85334 0.27419 0.0
O522 O 0.34882 0.74666 0.24532 0.0
O523 O 0.27507 0.81488 0.27192 0.0
C524 C 0.14711 0.90195 0.45285 0.0
O525 O 0.15986 0.93185 0.46864 0.0
Cd526 Cd 0.1779 0.93162 0.5205 0.0
O527 O 0.14383 0.86658 0.46381 0.0
Cd528 Cd 0.16544 0.83883 0.5124 0.0
C529 C 0.26323 0.87692 0.50848 0.0
O530 O 0.13174 0.88795 0.54685 0.0
O531 O 0.17281 0.84373 0.56611 0.0
O532 O 0.11618 0.78219 0.51363 0.0
C533 C 0.14581 0.87114 0.56991 0.0
O534 O 0.24941 0.91062 0.51869 0.0
C535 C 0.14386 0.75483 0.51365 0.0
O536 O 0.23886 0.84752 0.50272 0.0
O537 O 0.18085 0.76662 0.51104 0.0
C538 C 0.13912 0.61787 0.80454 0.0
O539 O 0.14963 0.58579 0.79035 0.0
Cd540 Cd 0.17917 0.5872 0.74154 0.0
O541 O 0.14338 0.65272 0.79302 0.0
Cd542 Cd 0.1708 0.67884 0.74552 0.0
C543 C 0.2643 0.64129 0.76111 0.0
O544 O 0.1409 0.63138 0.70892 0.0
O545 O 0.19272 0.66688 0.69394 0.0
O546 O 0.11685 0.73008 0.74457 0.0
C547 C 0.16263 0.64385 0.68742 0.0
O548 O 0.25007 0.60689 0.75261 0.0
C549 C 0.1411 0.76015 0.74223 0.0
O550 O 0.24139 0.67266 0.76203 0.0
O551 O 0.17939 0.75244 0.74246 0.0
C552 C 0.86486 0.13212 0.44733 0.0
O553 O 0.86032 0.09691 0.45803 0.0
Cd554 Cd 0.81912 0.08684 0.50144 0.0
O555 O 0.85018 0.1632 0.46099 0.0
Cd556 Cd 0.81327 0.17906 0.5083 0.0
C557 C 0.73024 0.13445 0.47919 0.0
O558 O 0.84343 0.12941 0.54183 0.0
O559 O 0.78519 0.15538 0.55564 0.0
O560 O 0.86416 0.23177 0.51601 0.0
C561 C 0.81669 0.13461 0.56216 0.0
O562 O 0.74903 0.10152 0.48506 0.0
C563 C 0.83895 0.26007 0.52246 0.0
O564 O 0.74726 0.1688 0.48412 0.0
O565 O 0.80091 0.2511 0.52154 0.0
C566 C 0.89503 0.34786 0.70423 0.0
O567 O 0.92725 0.33427 0.71649 0.0
Cd568 Cd 0.92523 0.30215 0.76375 0.0
O569 O 0.86022 0.34528 0.71713 0.0
Cd570 Cd 0.83371 0.31703 0.76449 0.0
C571 C 0.86351 0.22295 0.74312 0.0
O572 O 0.88579 0.3436 0.79871 0.0
O573 O 0.84807 0.295 0.81561 0.0
O574 O 0.78565 0.3739 0.76753 0.0
C575 C 0.87336 0.32361 0.82087 0.0
O576 O 0.89953 0.23418 0.75074 0.0
C577 C 0.754 0.35222 0.77204 0.0
O578 O 0.83355 0.24778 0.74464 0.0
O579 O 0.75926 0.31391 0.77217 0.0
C580 C 0.63741 0.41099 0.94705 0.0
O581 O 0.65047 0.44203 0.96142 0.0
Cd582 Cd 0.67658 0.44393 0.0113 0.0
O583 O 0.63769 0.37587 0.95861 0.0
Cd584 Cd 0.66559 0.35009 0.00606 0.0
C585 C 0.76138 0.38997 0.99461 0.0
O586 O 0.63564 0.39978 0.04197 0.0
O587 O 0.67891 0.3558 0.05895 0.0
O588 O 0.61936 0.2913 0.01096 0.0
C589 C 0.65255 0.38338 0.06422 0.0
O590 O 0.74795 0.42484 0.00264 0.0
C591 C 0.64829 0.26532 0.00886 0.0
O592 O 0.73751 0.35938 0.99316 0.0
O593 O 0.68406 0.27889 0.00363 0.0
C594 C 0.64946 0.13291 0.2968 0.0
O595 O 0.65792 0.10017 0.28263 0.0
Cd596 Cd 0.69749 0.10083 0.23781 0.0
O597 O 0.66047 0.16716 0.2866 0.0
Cd598 Cd 0.69587 0.1935 0.24193 0.0
C599 C 0.78366 0.15011 0.26377 0.0
O600 O 0.66504 0.14821 0.20482 0.0
O601 O 0.71858 0.18133 0.19014 0.0
O602 O 0.64258 0.2447 0.24248 0.0
C603 C 0.68757 0.1596 0.18348 0.0
O604 O 0.76731 0.11688 0.25475 0.0
C605 C 0.66635 0.27485 0.23895 0.0
O606 O 0.76379 0.18339 0.26274 0.0
O607 O 0.7047 0.26743 0.23791 0.0
loop_
_geom_bond_atom_site_label_1
_geom_bond_atom_site_label_2
_geom_bond_distance
_geom_bond_site_symmetry_2
_ccdc_geom_bond_type
H0 C27 0.929 . S
N1 C26 1.433 . S
N1 C32 1.435 . S
N1 C38 1.423 . S
H2 C28 0.930 . S
H3 C31 0.931 . S
H4 C30 0.929 . S
H5 C33 0.930 . S
H6 C34 0.932 . S
H7 C37 0.929 . S
H8 C36 0.931 . S
H9 C39 0.929 1_545 S
H10 C43 0.932 . S
H11 C40 0.931 . S
H12 C42 0.929 . S
H13 C45 0.929 . S
H14 C46 0.930 . S
H15 C48 0.929 . S
H16 C49 0.931 . S
H17 C51 0.930 . S
H18 C52 0.932 . S
H19 C54 0.931 . S
H20 C55 0.929 . S
H21 C57 0.929 . S
H22 C58 0.931 . S
H23 C60 0.929 . S
N24 C44 1.433 . S
N24 C50 1.435 . S
N24 C56 1.423 . S
H25 C61 0.932 . S
C26 N1 1.433 . S
C26 C27 1.363 . S
C26 C31 1.370 . S
C27 H0 0.929 . S
C27 C26 1.363 . S
C27 C28 1.385 . S
C28 H2 0.930 . S
C28 C27 1.385 . S
C28 C29 1.357 . S
C29 C28 1.357 . S
C29 C30 1.406 . S
C30 H4 0.929 . S
C30 C29 1.406 . S
C30 C31 1.391 . S
C31 H3 0.931 . S
C31 C26 1.370 . S
C31 C30 1.391 . S
C32 N1 1.435 . S
C32 C33 1.358 . S
C32 C37 1.371 . S
C33 H5 0.930 . S
C33 C32 1.358 . S
C33 C34 1.405 . S
C34 H6 0.932 . S
C34 C33 1.405 . S
C34 C35 1.383 . S
C35 C34 1.383 . S
C35 C36 1.393 . S
C36 H8 0.931 . S
C36 C35 1.393 . S
C36 C37 1.382 . S
C37 H7 0.929 . S
C37 C32 1.371 . S
C37 C36 1.382 . S
C38 N1 1.423 . S
C38 C39 1.362 . S
C38 C43 1.388 . S
C39 H9 0.929 1_565 S
C39 C38 1.362 . S
C39 C40 1.376 1_565 S
C40 H11 0.931 . S
C40 C39 1.376 1_545 S
C40 C41 1.396 . S
C41 C40 1.396 . S
C41 C42 1.348 1_545 S
C41 C59 1.472 . S
C42 H12 0.929 . S
C42 C41 1.348 1_565 S
C42 C43 1.443 . S
C43 H10 0.932 . S
C43 C38 1.388 . S
C43 C42 1.443 . S
C44 N24 1.433 . S
C44 C45 1.363 . S
C44 C49 1.370 . S
C45 H13 0.929 . S
C45 C44 1.363 . S
C45 C46 1.385 . S
C46 H14 0.930 . S
C46 C45 1.385 . S
C46 C47 1.357 . S
C47 C46 1.357 . S
C47 C48 1.406 . S
C48 H15 0.929 . S
C48 C47 1.406 . S
C48 C49 1.391 . S
C49 H16 0.931 . S
C49 C44 1.370 . S
C49 C48 1.391 . S
C50 N24 1.435 . S
C50 C51 1.358 . S
C50 C55 1.371 . S
C51 H17 0.930 . S
C51 C50 1.358 . S
C51 C52 1.405 . S
C52 H18 0.932 . S
C52 C51 1.405 . S
C52 C53 1.383 . S
C53 C52 1.383 . S
C53 C54 1.393 . S
C54 H19 0.931 . S
C54 C53 1.393 . S
C54 C55 1.382 . S
C55 H20 0.929 . S
C55 C50 1.371 . S
C55 C54 1.382 . S
C56 N24 1.423 . S
C56 C57 1.362 . S
C56 C61 1.388 . S
C57 H21 0.929 . S
C57 C56 1.362 . S
C57 C58 1.376 1_655 S
C58 H22 0.931 . S
C58 C57 1.376 1_455 S
C58 C59 1.396 . S
C59 C41 1.472 . S
C59 C58 1.396 . S
C59 C60 1.348 1_455 S
C60 H23 0.929 . S
C60 C59 1.348 1_655 S
C60 C61 1.443 . S
C61 H25 0.932 . S
C61 C56 1.388 . S
C61 C60 1.443 . S
H62 C89 0.929 . S
N63 C88 1.433 . S
N63 C94 1.435 . S
N63 C100 1.423 . S
H64 C90 0.930 . S
H65 C93 0.931 . S
H66 C92 0.929 . S
H67 C95 0.930 . S
H68 C96 0.932 . S
H69 C99 0.929 . S
H70 C98 0.931 . S
H71 C101 0.929 . S
H72 C105 0.932 . S
H73 C102 0.931 . S
H74 C104 0.929 . S
H75 C107 0.929 . S
H76 C108 0.930 . S
H77 C110 0.929 . S
H78 C111 0.931 . S
H79 C113 0.930 . S
H80 C114 0.932 . S
H81 C116 0.931 . S
H82 C117 0.929 . S
H83 C119 0.929 . S
H84 C120 0.931 . S
H85 C122 0.929 . S
N86 C106 1.433 . S
N86 C112 1.435 . S
N86 C118 1.423 . S
H87 C123 0.932 . S
C88 N63 1.433 . S
C88 C89 1.363 . S
C88 C93 1.370 . S
C89 H62 0.929 . S
C89 C88 1.363 . S
C89 C90 1.385 . S
C90 H64 0.930 . S
C90 C89 1.385 . S
C90 C91 1.357 . S
C91 C90 1.357 . S
C91 C92 1.406 . S
C92 H66 0.929 . S
C92 C91 1.406 . S
C92 C93 1.391 . S
C93 H65 0.931 . S
C93 C88 1.370 . S
C93 C92 1.391 . S
C94 N63 1.435 . S
C94 C95 1.358 . S
C94 C99 1.371 . S
C95 H67 0.930 . S
C95 C94 1.358 . S
C95 C96 1.405 . S
C96 H68 0.932 . S
C96 C95 1.405 . S
C96 C97 1.383 . S
C97 C96 1.383 . S
C97 C98 1.393 . S
C98 H70 0.931 . S
C98 C97 1.393 . S
C98 C99 1.382 . S
C99 H69 0.929 . S
C99 C94 1.371 . S
C99 C98 1.382 . S
C100 N63 1.423 . S
C100 C101 1.362 1_655 S
C100 C105 1.388 . S
C101 H71 0.929 . S
C101 C100 1.362 1_455 S
C101 C102 1.376 . S
C102 H73 0.931 . S
C102 C101 1.376 . S
C102 C103 1.396 . S
C103 C102 1.396 . S
C103 C104 1.348 1_455 S
C103 C121 1.472 . S
C104 H74 0.929 . S
C104 C103 1.348 1_655 S
C104 C105 1.443 . S
C105 H72 0.932 . S
C105 C100 1.388 . S
C105 C104 1.443 . S
C106 N86 1.433 . S
C106 C107 1.363 . S
C106 C111 1.370 . S
C107 H75 0.929 . S
C107 C106 1.363 . S
C107 C108 1.385 . S
C108 H76 0.930 . S
C108 C107 1.385 . S
C108 C109 1.357 . S
C109 C108 1.357 . S
C109 C110 1.406 . S
C110 H77 0.929 . S
C110 C109 1.406 . S
C110 C111 1.391 . S
C111 H78 0.931 . S
C111 C106 1.370 . S
C111 C110 1.391 . S
C112 N86 1.435 . S
C112 C113 1.358 . S
C112 C117 1.371 . S
C113 H79 0.930 . S
C113 C112 1.358 . S
C113 C114 1.405 . S
C114 H80 0.932 . S
C114 C113 1.405 . S
C114 C115 1.383 . S
C115 C114 1.383 . S
C115 C116 1.393 . S
C116 H81 0.931 . S
C116 C115 1.393 . S
C116 C117 1.382 . S
C117 H82 0.929 . S
C117 C112 1.371 . S
C117 C116 1.382 . S
C118 N86 1.423 . S
C118 C119 1.362 . S
C118 C123 1.388 . S
C119 H83 0.929 . S
C119 C118 1.362 . S
C119 C120 1.376 . S
C120 H84 0.931 . S
C120 C119 1.376 . S
C120 C121 1.396 . S
C121 C103 1.472 . S
C121 C120 1.396 . S
C121 C122 1.348 . S
C122 H85 0.929 . S
C122 C121 1.348 . S
C122 C123 1.443 . S
C123 H87 0.932 . S
C123 C118 1.388 . S
C123 C122 1.443 . S
H124 C151 0.929 . S
N125 C150 1.433 . S
N125 C156 1.435 . S
N125 C162 1.423 . S
H126 C152 0.930 . S
H127 C155 0.931 . S
H128 C154 0.929 . S
H129 C157 0.930 . S
H130 C158 0.932 . S
H131 C161 0.929 . S
H132 C160 0.931 . S
H133 C163 0.929 . S
H134 C167 0.932 . S
H135 C164 0.931 . S
H136 C166 0.929 . S
H137 C169 0.929 . S
H138 C170 0.930 . S
H139 C172 0.929 . S
H140 C173 0.931 . S
H141 C175 0.930 . S
H142 C176 0.932 . S
H143 C178 0.931 . S
H144 C179 0.929 . S
H145 C181 0.929 . S
H146 C182 0.931 . S
H147 C184 0.929 . S
N148 C168 1.433 . S
N148 C174 1.435 . S
N148 C180 1.423 . S
H149 C185 0.932 . S
C150 N125 1.433 . S
C150 C151 1.363 . S
C150 C155 1.370 . S
C151 H124 0.929 . S
C151 C150 1.363 . S
C151 C152 1.385 . S
C152 H126 0.930 . S
C152 C151 1.385 . S
C152 C153 1.357 . S
C153 C152 1.357 . S
C153 C154 1.406 . S
C154 H128 0.929 . S
C154 C153 1.406 . S
C154 C155 1.391 . S
C155 H127 0.931 . S
C155 C150 1.370 . S
C155 C154 1.391 . S
C156 N125 1.435 . S
C156 C157 1.358 . S
C156 C161 1.371 . S
C157 H129 0.930 . S
C157 C156 1.358 . S
C157 C158 1.405 . S
C158 H130 0.932 . S
C158 C157 1.405 . S
C158 C159 1.383 . S
C159 C158 1.383 . S
C159 C160 1.393 . S
C160 H132 0.931 . S
C160 C159 1.393 . S
C160 C161 1.382 . S
C161 H131 0.929 . S
C161 C156 1.371 . S
C161 C160 1.382 . S
C162 N125 1.423 . S
C162 C163 1.362 . S
C162 C167 1.388 . S
C163 H133 0.929 . S
C163 C162 1.362 . S
C163 C164 1.376 . S
C164 H135 0.931 . S
C164 C163 1.376 . S
C164 C165 1.396 . S
C165 C164 1.396 . S
C165 C166 1.348 . S
C165 C183 1.472 . S
C166 H136 0.929 . S
C166 C165 1.348 . S
C166 C167 1.443 . S
C167 H134 0.932 . S
C167 C162 1.388 . S
C167 C166 1.443 . S
C168 N148 1.433 . S
C168 C169 1.363 . S
C168 C173 1.370 . S
C169 H137 0.929 . S
C169 C168 1.363 . S
C169 C170 1.385 . S
C170 H138 0.930 . S
C170 C169 1.385 . S
C170 C171 1.357 . S
C171 C170 1.357 . S
C171 C172 1.406 . S
C172 H139 0.929 . S
C172 C171 1.406 . S
C172 C173 1.391 . S
C173 H140 0.931 . S
C173 C168 1.370 . S
C173 C172 1.391 . S
C174 N148 1.435 . S
C174 C175 1.358 . S
C174 C179 1.371 . S
C175 H141 0.930 . S
C175 C174 1.358 . S
C175 C176 1.405 . S
C176 H142 0.932 . S
C176 C175 1.405 . S
C176 C177 1.383 . S
C177 C176 1.383 . S
C177 C178 1.393 . S
C178 H143 0.931 . S
C178 C177 1.393 . S
C178 C179 1.382 . S
C179 H144 0.929 . S
C179 C174 1.371 . S
C179 C178 1.382 . S
C180 N148 1.423 . S
C180 C181 1.362 . S
C180 C185 1.388 . S
C181 H145 0.929 . S
C181 C180 1.362 . S
C181 C182 1.376 . S
C182 H146 0.931 . S
C182 C181 1.376 . S
C182 C183 1.396 . S
C183 C165 1.472 . S
C183 C182 1.396 . S
C183 C184 1.348 . S
C184 H147 0.929 . S
C184 C183 1.348 . S
C184 C185 1.443 . S
C185 H149 0.932 . S
C185 C180 1.388 . S
C185 C184 1.443 . S
H186 C213 0.929 . S
N187 C212 1.433 . S
N187 C218 1.435 . S
N187 C224 1.423 . S
H188 C214 0.930 . S
H189 C217 0.931 . S
H190 C216 0.929 . S
H191 C219 0.930 . S
H192 C220 0.932 . S
H193 C223 0.929 . S
H194 C222 0.931 . S
H195 C225 0.929 . S
H196 C229 0.932 . S
H197 C226 0.931 . S
H198 C228 0.929 . S
H199 C231 0.929 . S
H200 C232 0.930 . S
H201 C234 0.929 . S
H202 C235 0.931 . S
H203 C237 0.930 . S
H204 C238 0.932 . S
H205 C240 0.931 . S
H206 C241 0.929 . S
H207 C243 0.929 . S
H208 C244 0.931 1_565 S
H209 C246 0.929 . S
N210 C230 1.433 . S
N210 C236 1.435 . S
N210 C242 1.423 . S
H211 C247 0.932 . S
C212 N187 1.433 . S
C212 C213 1.363 . S
C212 C217 1.370 . S
C213 H186 0.929 . S
C213 C212 1.363 . S
C213 C214 1.385 . S
C214 H188 0.930 . S
C214 C213 1.385 . S
C214 C215 1.357 . S
C215 C214 1.357 . S
C215 C216 1.406 . S
C216 H190 0.929 . S
C216 C215 1.406 . S
C216 C217 1.391 . S
C217 H189 0.931 . S
C217 C212 1.370 . S
C217 C216 1.391 . S
C218 N187 1.435 . S
C218 C219 1.358 . S
C218 C223 1.371 . S
C219 H191 0.930 . S
C219 C218 1.358 . S
C219 C220 1.405 . S
C220 H192 0.932 . S
C220 C219 1.405 . S
C220 C221 1.383 1_554 S
C221 C220 1.383 1_556 S
C221 C222 1.393 . S
C222 H194 0.931 . S
C222 C221 1.393 . S
C222 C223 1.382 1_556 S
C223 H193 0.929 . S
C223 C218 1.371 . S
C223 C222 1.382 1_554 S
C224 N187 1.423 . S
C224 C225 1.362 . S
C224 C229 1.388 . S
C225 H195 0.929 . S
C225 C224 1.362 . S
C225 C226 1.376 . S
C226 H197 0.931 . S
C226 C225 1.376 . S
C226 C227 1.396 . S
C227 C226 1.396 . S
C227 C228 1.348 . S
C227 C245 1.472 1_565 S
C228 H198 0.929 . S
C228 C227 1.348 . S
C228 C229 1.443 . S
C229 H196 0.932 . S
C229 C224 1.388 . S
C229 C228 1.443 . S
C230 N210 1.433 . S
C230 C231 1.363 . S
C230 C235 1.370 . S
C231 H199 0.929 . S
C231 C230 1.363 . S
C231 C232 1.385 . S
C232 H200 0.930 . S
C232 C231 1.385 . S
C232 C233 1.357 . S
C233 C232 1.357 . S
C233 C234 1.406 . S
C234 H201 0.929 . S
C234 C233 1.406 . S
C234 C235 1.391 . S
C235 H202 0.931 . S
C235 C230 1.370 . S
C235 C234 1.391 . S
C236 N210 1.435 . S
C236 C237 1.358 . S
C236 C241 1.371 . S
C237 H203 0.930 . S
C237 C236 1.358 . S
C237 C238 1.405 . S
C238 H204 0.932 . S
C238 C237 1.405 . S
C238 C239 1.383 1_554 S
C239 C238 1.383 1_556 S
C239 C240 1.393 . S
C240 H205 0.931 . S
C240 C239 1.393 . S
C240 C241 1.382 1_556 S
C241 H206 0.929 . S
C241 C236 1.371 . S
C241 C240 1.382 1_554 S
C242 N210 1.423 . S
C242 C243 1.362 . S
C242 C247 1.388 . S
C243 H207 0.929 . S
C243 C242 1.362 . S
C243 C244 1.376 . S
C244 H208 0.931 1_545 S
C244 C243 1.376 . S
C244 C245 1.396 . S
C245 C227 1.472 1_545 S
C245 C244 1.396 . S
C245 C246 1.348 . S
C246 H209 0.929 . S
C246 C245 1.348 . S
C246 C247 1.443 . S
C247 H211 0.932 . S
C247 C242 1.388 . S
C247 C246 1.443 . S
H248 C275 0.929 . S
N249 C274 1.433 . S
N249 C280 1.435 . S
N249 C286 1.423 . S
H250 C276 0.930 . S
H251 C279 0.931 . S
H252 C278 0.929 . S
H253 C281 0.930 . S
H254 C282 0.932 . S
H255 C285 0.929 . S
H256 C284 0.931 . S
H257 C287 0.929 . S
H258 C291 0.932 . S
H259 C288 0.931 . S
H260 C290 0.929 . S
H261 C293 0.929 . S
H262 C294 0.930 . S
H263 C296 0.929 . S
H264 C297 0.931 . S
H265 C299 0.930 . S
H266 C300 0.932 . S
H267 C302 0.931 . S
H268 C303 0.929 . S
H269 C305 0.929 . S
H270 C306 0.930 1_455 S
H271 C308 0.929 . S
N272 C292 1.433 . S
N272 C298 1.435 . S
N272 C304 1.423 . S
H273 C309 0.932 . S
C274 N249 1.433 . S
C274 C275 1.363 . S
C274 C279 1.370 . S
C275 H248 0.929 . S
C275 C274 1.363 . S
C275 C276 1.385 . S
C276 H250 0.930 . S
C276 C275 1.385 . S
C276 C277 1.357 . S
C277 C276 1.357 . S
C277 C278 1.406 . S
C278 H252 0.929 . S
C278 C277 1.406 . S
C278 C279 1.391 . S
C279 H251 0.931 . S
C279 C274 1.370 . S
C279 C278 1.391 . S
C280 N249 1.435 . S
C280 C281 1.358 . S
C280 C285 1.371 . S
C281 H253 0.930 . S
C281 C280 1.358 . S
C281 C282 1.405 . S
C282 H254 0.932 . S
C282 C281 1.405 . S
C282 C283 1.383 1_556 S
C283 C282 1.383 1_554 S
C283 C284 1.393 . S
C284 H256 0.931 . S
C284 C283 1.393 . S
C284 C285 1.382 1_554 S
C285 H255 0.929 . S
C285 C280 1.371 . S
C285 C284 1.382 1_556 S
C286 N249 1.423 . S
C286 C287 1.362 . S
C286 C291 1.388 . S
C287 H257 0.929 . S
C287 C286 1.362 . S
C287 C288 1.376 . S
C288 H259 0.931 . S
C288 C287 1.376 . S
C288 C289 1.396 . S
C289 C288 1.396 . S
C289 C290 1.348 . S
C289 C307 1.472 . S
C290 H260 0.929 . S
C290 C289 1.348 . S
C290 C291 1.443 . S
C291 H258 0.932 . S
C291 C286 1.388 . S
C291 C290 1.443 . S
C292 N272 1.433 . S
C292 C293 1.363 . S
C292 C297 1.370 . S
C293 H261 0.929 . S
C293 C292 1.363 . S
C293 C294 1.385 . S
C294 H262 0.930 . S
C294 C293 1.385 . S
C294 C295 1.357 . S
C295 C294 1.357 . S
C295 C296 1.406 . S
C296 H263 0.929 . S
C296 C295 1.406 . S
C296 C297 1.391 . S
C297 H264 0.931 . S
C297 C292 1.370 . S
C297 C296 1.391 . S
C298 N272 1.435 . S
C298 C299 1.358 . S
C298 C303 1.371 . S
C299 H265 0.930 . S
C299 C298 1.358 . S
C299 C300 1.405 . S
C300 H266 0.932 . S
C300 C299 1.405 . S
C300 C301 1.383 1_556 S
C301 C300 1.383 1_554 S
C301 C302 1.393 . S
C302 H267 0.931 . S
C302 C301 1.393 . S
C302 C303 1.382 1_554 S
C303 H268 0.929 . S
C303 C298 1.371 . S
C303 C302 1.382 1_556 S
C304 N272 1.423 . S
C304 C305 1.362 . S
C304 C309 1.388 . S
C305 H269 0.929 . S
C305 C304 1.362 . S
C305 C306 1.378 . S
C306 H270 0.930 1_655 S
C306 C305 1.378 . S
C306 C307 1.396 1_655 S
C307 C289 1.472 . S
C307 C306 1.396 1_455 S
C307 C308 1.348 1_455 S
C308 H271 0.929 . S
C308 C307 1.348 1_655 S
C308 C309 1.443 . S
C309 H273 0.932 . S
C309 C304 1.388 . S
C309 C308 1.443 . S
H310 C337 0.929 . S
N311 C336 1.433 . S
N311 C342 1.435 . S
N311 C348 1.423 . S
H312 C338 0.930 . S
H313 C341 0.931 . S
H314 C340 0.929 . S
H315 C343 0.930 . S
H316 C344 0.932 . S
H317 C347 0.929 . S
H318 C346 0.931 . S
H319 C349 0.929 . S
H320 C353 0.932 . S
H321 C350 0.931 . S
H322 C352 0.929 . S
H323 C355 0.929 . S
H324 C356 0.930 . S
H325 C358 0.929 . S
H326 C359 0.931 . S
H327 C361 0.930 . S
H328 C362 0.932 . S
H329 C364 0.931 . S
H330 C365 0.929 . S
H331 C367 0.929 . S
H332 C368 0.931 . S
H333 C370 0.929 . S
N334 C354 1.433 . S
N334 C360 1.435 . S
N334 C366 1.423 . S
H335 C371 0.932 . S
C336 N311 1.433 . S
C336 C337 1.363 . S
C336 C341 1.370 . S
C337 H310 0.929 . S
C337 C336 1.363 . S
C337 C338 1.385 . S
C338 H312 0.930 . S
C338 C337 1.385 . S
C338 C339 1.357 . S
C339 C338 1.357 . S
C339 C340 1.406 . S
C340 H314 0.929 . S
C340 C339 1.406 . S
C340 C341 1.391 . S
C341 H313 0.931 . S
C341 C336 1.370 . S
C341 C340 1.391 . S
C342 N311 1.435 . S
C342 C343 1.358 . S
C342 C347 1.371 . S
C343 H315 0.930 . S
C343 C342 1.358 . S
C343 C344 1.405 . S
C344 H316 0.932 . S
C344 C343 1.405 . S
C344 C345 1.383 . S
C345 C344 1.383 . S
C345 C346 1.393 . S
C346 H318 0.931 . S
C346 C345 1.393 . S
C346 C347 1.382 . S
C347 H317 0.929 . S
C347 C342 1.371 . S
C347 C346 1.382 . S
C348 N311 1.423 . S
C348 C349 1.362 . S
C348 C353 1.388 . S
C349 H319 0.929 . S
C349 C348 1.362 . S
C349 C350 1.376 . S
C350 H321 0.931 . S
C350 C349 1.376 . S
C350 C351 1.396 . S
C351 C350 1.396 . S
C351 C352 1.348 . S
C351 C369 1.472 . S
C352 H322 0.929 . S
C352 C351 1.348 . S
C352 C353 1.443 . S
C353 H320 0.932 . S
C353 C348 1.388 . S
C353 C352 1.443 . S
C354 N334 1.433 . S
C354 C355 1.363 . S
C354 C359 1.370 . S
C355 H323 0.929 . S
C355 C354 1.363 . S
C355 C356 1.385 . S
C356 H324 0.930 . S
C356 C355 1.385 . S
C356 C357 1.357 . S
C357 C356 1.357 . S
C357 C358 1.406 . S
C358 H325 0.929 . S
C358 C357 1.406 . S
C358 C359 1.391 . S
C359 H326 0.931 . S
C359 C354 1.370 . S
C359 C358 1.391 . S
C360 N334 1.435 . S
C360 C361 1.358 . S
C360 C365 1.371 . S
C361 H327 0.930 . S
C361 C360 1.358 . S
C361 C362 1.405 . S
C362 H328 0.932 . S
C362 C361 1.405 . S
C362 C363 1.383 . S
C363 C362 1.383 . S
C363 C364 1.393 . S
C364 H329 0.931 . S
C364 C363 1.393 . S
C364 C365 1.382 . S
C365 H330 0.929 . S
C365 C360 1.371 . S
C365 C364 1.382 . S
C366 N334 1.423 . S
C366 C367 1.362 . S
C366 C371 1.388 . S
C367 H331 0.929 . S
C367 C366 1.362 . S
C367 C368 1.376 . S
C368 H332 0.931 . S
C368 C367 1.376 . S
C368 C369 1.396 . S
C369 C351 1.472 . S
C369 C368 1.396 . S
C369 C370 1.348 . S
C370 H333 0.929 . S
C370 C369 1.348 . S
C370 C371 1.443 . S
C371 H335 0.932 . S
C371 C366 1.388 . S
C371 C370 1.443 . S
H372 C399 0.929 . S
N373 C398 1.433 . S
N373 C404 1.435 . S
N373 C410 1.423 . S
H374 C400 0.930 . S
H375 C403 0.931 . S
H376 C402 0.929 . S
H377 C405 0.930 . S
H378 C406 0.932 . S
H379 C409 0.929 . S
H380 C408 0.931 . S
H381 C411 0.927 1_545 S
H382 C415 0.932 . S
H383 C412 0.931 . S
H384 C414 0.929 . S
H385 C417 0.929 . S
H386 C418 0.930 . S
H387 C420 0.929 . S
H388 C421 0.931 . S
H389 C423 0.930 . S
H390 C424 0.932 . S
H391 C426 0.931 . S
H392 C427 0.929 . S
H393 C429 0.929 . S
H394 C430 0.931 . S
H395 C432 0.929 . S
N396 C416 1.433 . S
N396 C422 1.435 . S
N396 C428 1.423 . S
H397 C433 0.932 . S
C398 N373 1.433 . S
C398 C399 1.363 . S
C398 C403 1.370 . S
C399 H372 0.929 . S
C399 C398 1.363 . S
C399 C400 1.385 . S
C400 H374 0.930 . S
C400 C399 1.385 . S
C400 C401 1.357 . S
C401 C400 1.357 . S
C401 C402 1.406 . S
C402 H376 0.929 . S
C402 C401 1.406 . S
C402 C403 1.391 . S
C403 H375 0.931 . S
C403 C398 1.370 . S
C403 C402 1.391 . S
C404 N373 1.435 . S
C404 C405 1.358 . S
C404 C409 1.371 . S
C405 H377 0.930 . S
C405 C404 1.358 . S
C405 C406 1.405 . S
C406 H378 0.932 . S
C406 C405 1.405 . S
C406 C407 1.383 . S
C407 C406 1.383 . S
C407 C408 1.393 . S
C408 H380 0.931 . S
C408 C407 1.393 . S
C408 C409 1.382 . S
C409 H379 0.929 . S
C409 C404 1.371 . S
C409 C408 1.382 . S
C410 N373 1.423 . S
C410 C411 1.362 . S
C410 C415 1.388 . S
C411 H381 0.927 1_565 S
C411 C410 1.362 . S
C411 C412 1.376 1_565 S
C412 H383 0.931 . S
C412 C411 1.376 1_545 S
C412 C413 1.396 . S
C413 C412 1.396 . S
C413 C414 1.348 1_545 S
C413 C431 1.472 . S
C414 H384 0.929 . S
C414 C413 1.348 1_565 S
C414 C415 1.443 . S
C415 H382 0.932 . S
C415 C410 1.388 . S
C415 C414 1.443 . S
C416 N396 1.433 . S
C416 C417 1.363 . S
C416 C421 1.370 . S
C417 H385 0.929 . S
C417 C416 1.363 . S
C417 C418 1.385 . S
C418 H386 0.930 . S
C418 C417 1.385 . S
C418 C419 1.357 . S
C419 C418 1.357 . S
C419 C420 1.406 . S
C420 H387 0.929 . S
C420 C419 1.406 . S
C420 C421 1.391 . S
C421 H388 0.931 . S
C421 C416 1.370 . S
C421 C420 1.391 . S
C422 N396 1.435 . S
C422 C423 1.358 . S
C422 C427 1.371 . S
C423 H389 0.930 . S
C423 C422 1.358 . S
C423 C424 1.405 . S
C424 H390 0.932 . S
C424 C423 1.405 . S
C424 C425 1.383 . S
C425 C424 1.383 . S
C425 C426 1.393 . S
C426 H391 0.931 . S
C426 C425 1.393 . S
C426 C427 1.382 . S
C427 H392 0.929 . S
C427 C422 1.371 . S
C427 C426 1.382 . S
C428 N396 1.423 . S
C428 C429 1.362 . S
C428 C433 1.388 . S
C429 H393 0.929 . S
C429 C428 1.362 . S
C429 C430 1.376 . S
C430 H394 0.931 . S
C430 C429 1.376 . S
C430 C431 1.396 . S
C431 C413 1.472 . S
C431 C430 1.396 . S
C431 C432 1.348 . S
C432 H395 0.929 . S
C432 C431 1.348 . S
C432 C433 1.443 . S
C433 H397 0.932 . S
C433 C428 1.388 . S
C433 C432 1.443 . S
H434 C461 0.929 . S
N435 C460 1.433 . S
N435 C466 1.435 . S
N435 C472 1.423 . S
H436 C462 0.930 . S
H437 C465 0.931 . S
H438 C464 0.929 . S
H439 C467 0.930 . S
H440 C468 0.932 . S
H441 C471 0.929 . S
H442 C470 0.931 . S
H443 C473 0.929 . S
H444 C477 0.932 . S
H445 C474 0.942 . S
H446 C476 0.929 1_545 S
H447 C479 0.929 . S
H448 C480 0.930 . S
H449 C482 0.929 . S
H450 C483 0.931 . S
H451 C485 0.930 . S
H452 C486 0.932 . S
H453 C488 0.931 . S
H454 C489 0.929 . S
H455 C491 0.929 . S
H456 C492 0.931 . S
H457 C494 0.929 1_455 S
N458 C478 1.433 . S
N458 C484 1.435 . S
N458 C490 1.423 . S
H459 C495 0.932 . S
C460 N435 1.433 . S
C460 C461 1.363 . S
C460 C465 1.370 . S
C461 H434 0.929 . S
C461 C460 1.363 . S
C461 C462 1.385 . S
C462 H436 0.930 . S
C462 C461 1.385 . S
C462 C463 1.357 . S
C463 C462 1.357 . S
C463 C464 1.406 . S
C464 H438 0.929 . S
C464 C463 1.406 . S
C464 C465 1.391 . S
C465 H437 0.931 . S
C465 C460 1.370 . S
C465 C464 1.391 . S
C466 N435 1.435 . S
C466 C467 1.358 . S
C466 C471 1.371 . S
C467 H439 0.930 . S
C467 C466 1.358 . S
C467 C468 1.405 . S
C468 H440 0.932 . S
C468 C467 1.405 . S
C468 C469 1.383 . S
C469 C468 1.383 . S
C469 C470 1.393 . S
C470 H442 0.931 . S
C470 C469 1.393 . S
C470 C471 1.382 . S
C471 H441 0.929 . S
C471 C466 1.371 . S
C471 C470 1.382 . S
C472 N435 1.423 . S
C472 C473 1.362 . S
C472 C477 1.388 . S
C473 H443 0.929 . S
C473 C472 1.362 . S
C473 C474 1.367 1_455 S
C474 H445 0.942 . S
C474 C473 1.367 1_655 S
C474 C475 1.394 1_655 S
C475 C474 1.394 1_455 S
C475 C476 1.348 . S
C475 C493 1.472 1_465 S
C476 H446 0.929 1_565 S
C476 C475 1.348 . S
C476 C477 1.443 . S
C477 H444 0.932 . S
C477 C472 1.388 . S
C477 C476 1.443 . S
C478 N458 1.433 . S
C478 C479 1.363 . S
C478 C483 1.370 . S
C479 H447 0.929 . S
C479 C478 1.363 . S
C479 C480 1.385 . S
C480 H448 0.930 . S
C480 C479 1.385 . S
C480 C481 1.357 . S
C481 C480 1.357 . S
C481 C482 1.406 . S
C482 H449 0.929 . S
C482 C481 1.406 . S
C482 C483 1.391 . S
C483 H450 0.931 . S
C483 C478 1.370 . S
C483 C482 1.391 . S
C484 N458 1.435 . S
C484 C485 1.358 . S
C484 C489 1.371 . S
C485 H451 0.930 . S
C485 C484 1.358 . S
C485 C486 1.405 . S
C486 H452 0.932 . S
C486 C485 1.405 . S
C486 C487 1.383 . S
C487 C486 1.383 . S
C487 C488 1.393 . S
C488 H453 0.931 . S
C488 C487 1.393 . S
C488 C489 1.382 . S
C489 H454 0.929 . S
C489 C484 1.371 . S
C489 C488 1.382 . S
C490 N458 1.423 . S
C490 C491 1.362 . S
C490 C495 1.388 . S
C491 H455 0.929 . S
C491 C490 1.362 . S
C491 C492 1.376 . S
C492 H456 0.931 . S
C492 C491 1.376 . S
C492 C493 1.396 . S
C493 C475 1.472 1_645 S
C493 C492 1.396 . S
C493 C494 1.348 . S
C494 H457 0.929 1_655 S
C494 C493 1.348 . S
C494 C495 1.443 . S
C495 H459 0.932 . S
C495 C490 1.388 . S
C495 C494 1.443 . S
C496 O497 1.306 . S
C496 O499 1.160 . S
O497 C496 1.306 . S
O497 Cd498 2.228 . S
Cd498 O497 2.228 . S
Cd498 O502 2.273 1_554 S
Cd498 O506 2.277 . S
O499 C496 1.160 . S
O499 Cd500 2.203 . S
Cd500 O499 2.203 . S
Cd500 O502 2.411 1_554 S
Cd500 O503 2.333 1_554 S
Cd500 O504 2.352 . S
Cd500 O508 2.277 . S
Cd500 O509 2.356 1_554 S
C501 O506 1.209 . S
C501 O508 1.226 . S
O502 Cd498 2.273 1_556 S
O502 Cd500 2.411 1_556 S
O502 C505 1.320 . S
O503 Cd500 2.333 1_556 S
O503 C505 1.214 . S
O504 Cd500 2.352 . S
O504 C507 1.257 1_554 S
C505 O502 1.320 . S
C505 O503 1.214 . S
O506 Cd498 2.277 . S
O506 C501 1.209 . S
C507 O504 1.257 1_556 S
C507 O509 1.282 . S
O508 Cd500 2.277 . S
O508 C501 1.226 . S
O509 Cd500 2.356 1_556 S
O509 C507 1.282 . S
C510 O511 1.306 . S
C510 O513 1.160 . S
O511 C510 1.306 . S
O511 Cd512 2.228 . S
Cd512 O511 2.228 . S
Cd512 O516 2.273 . S
Cd512 O520 2.277 . S
O513 C510 1.160 . S
O513 Cd514 2.203 . S
Cd514 O513 2.203 . S
Cd514 O516 2.411 . S
Cd514 O517 2.333 . S
Cd514 O518 2.352 . S
Cd514 O522 2.277 . S
Cd514 O523 2.356 . S
C515 O520 1.209 . S
C515 O522 1.226 . S
O516 Cd512 2.273 . S
O516 Cd514 2.411 . S
O516 C519 1.320 . S
O517 Cd514 2.333 . S
O517 C519 1.214 . S
O518 Cd514 2.352 . S
O518 C521 1.258 . S
C519 O516 1.320 . S
C519 O517 1.214 . S
O520 Cd512 2.277 . S
O520 C515 1.209 . S
C521 O518 1.258 . S
C521 O523 1.282 . S
O522 Cd514 2.277 . S
O522 C515 1.226 . S
O523 Cd514 2.356 . S
O523 C521 1.282 . S
C524 O525 1.306 . S
C524 O527 1.160 . S
O525 C524 1.306 . S
O525 Cd526 2.228 . S
Cd526 O525 2.228 . S
Cd526 O530 2.273 . S
Cd526 O534 2.277 . S
O527 C524 1.160 . S
O527 Cd528 2.203 . S
Cd528 O527 2.203 . S
Cd528 O530 2.411 . S
Cd528 O531 2.333 . S
Cd528 O532 2.352 . S
Cd528 O536 2.277 . S
Cd528 O537 2.356 . S
C529 O534 1.209 . S
C529 O536 1.226 . S
O530 Cd526 2.273 . S
O530 Cd528 2.411 . S
O530 C533 1.320 . S
O531 Cd528 2.333 . S
O531 C533 1.214 . S
O532 Cd528 2.352 . S
O532 C535 1.258 . S
C533 O530 1.320 . S
C533 O531 1.214 . S
O534 Cd526 2.277 . S
O534 C529 1.209 . S
C535 O532 1.258 . S
C535 O537 1.282 . S
O536 Cd528 2.277 . S
O536 C529 1.226 . S
O537 Cd528 2.356 . S
O537 C535 1.282 . S
C538 O539 1.306 . S
C538 O541 1.160 . S
O539 C538 1.306 . S
O539 Cd540 2.228 . S
Cd540 O539 2.228 . S
Cd540 O544 2.273 . S
Cd540 O548 2.277 . S
O541 C538 1.160 . S
O541 Cd542 2.203 . S
Cd542 O541 2.203 . S
Cd542 O544 2.411 . S
Cd542 O545 2.333 . S
Cd542 O546 2.352 . S
Cd542 O550 2.277 . S
Cd542 O551 2.356 . S
C543 O548 1.209 . S
C543 O550 1.226 . S
O544 Cd540 2.273 . S
O544 Cd542 2.411 . S
O544 C547 1.320 . S
O545 Cd542 2.333 . S
O545 C547 1.214 . S
O546 Cd542 2.352 . S
O546 C549 1.258 . S
C547 O544 1.320 . S
C547 O545 1.214 . S
O548 Cd540 2.277 . S
O548 C543 1.209 . S
C549 O546 1.258 . S
C549 O551 1.282 . S
O550 Cd542 2.277 . S
O550 C543 1.226 . S
O551 Cd542 2.356 . S
O551 C549 1.282 . S
C552 O553 1.306 . S
C552 O555 1.160 . S
O553 C552 1.306 . S
O553 Cd554 2.228 . S
Cd554 O553 2.228 . S
Cd554 O558 2.273 . S
Cd554 O562 2.277 . S
O555 C552 1.160 . S
O555 Cd556 2.203 . S
Cd556 O555 2.203 . S
Cd556 O558 2.411 . S
Cd556 O559 2.333 . S
Cd556 O560 2.352 . S
Cd556 O564 2.277 . S
Cd556 O565 2.356 . S
C557 O562 1.209 . S
C557 O564 1.226 . S
O558 Cd554 2.273 . S
O558 Cd556 2.411 . S
O558 C561 1.320 . S
O559 Cd556 2.333 . S
O559 C561 1.214 . S
O560 Cd556 2.352 . S
O560 C563 1.258 . S
C561 O558 1.320 . S
C561 O559 1.214 . S
O562 Cd554 2.277 . S
O562 C557 1.209 . S
C563 O560 1.258 . S
C563 O565 1.282 . S
O564 Cd556 2.277 . S
O564 C557 1.226 . S
O565 Cd556 2.356 . S
O565 C563 1.282 . S
C566 O567 1.306 . S
C566 O569 1.160 . S
O567 C566 1.306 . S
O567 Cd568 2.228 . S
Cd568 O567 2.228 . S
Cd568 O572 2.273 . S
Cd568 O576 2.277 . S
O569 C566 1.160 . S
O569 Cd570 2.203 . S
Cd570 O569 2.203 . S
Cd570 O572 2.411 . S
Cd570 O573 2.333 . S
Cd570 O574 2.352 . S
Cd570 O578 2.277 . S
Cd570 O579 2.356 . S
C571 O576 1.209 . S
C571 O578 1.226 . S
O572 Cd568 2.273 . S
O572 Cd570 2.411 . S
O572 C575 1.320 . S
O573 Cd570 2.333 . S
O573 C575 1.214 . S
O574 Cd570 2.352 . S
O574 C577 1.258 . S
C575 O572 1.320 . S
C575 O573 1.214 . S
O576 Cd568 2.277 . S
O576 C571 1.209 . S
C577 O574 1.258 . S
C577 O579 1.282 . S
O578 Cd570 2.277 . S
O578 C571 1.226 . S
O579 Cd570 2.356 . S
O579 C577 1.282 . S
C580 O581 1.306 . S
C580 O583 1.160 . S
O581 C580 1.306 . S
O581 Cd582 2.211 1_556 S
Cd582 O581 2.211 1_554 S
Cd582 O586 2.287 . S
Cd582 O590 2.275 1_554 S
O583 C580 1.160 . S
O583 Cd584 2.203 1_556 S
Cd584 O583 2.203 1_554 S
Cd584 O586 2.411 . S
Cd584 O587 2.333 . S
Cd584 O588 2.352 . S
Cd584 O592 2.277 1_554 S
Cd584 O593 2.356 . S
C585 O590 1.209 . S
C585 O592 1.226 . S
O586 Cd582 2.287 . S
O586 Cd584 2.411 . S
O586 C589 1.320 . S
O587 Cd584 2.333 . S
O587 C589 1.214 . S
O588 Cd584 2.352 . S
O588 C591 1.258 . S
C589 O586 1.320 . S
C589 O587 1.214 . S
O590 Cd582 2.275 1_556 S
O590 C585 1.209 . S
C591 O588 1.258 . S
C591 O593 1.282 . S
O592 Cd584 2.277 1_556 S
O592 C585 1.226 . S
O593 Cd584 2.356 . S
O593 C591 1.282 . S
C594 O595 1.306 . S
C594 O597 1.160 . S
O595 C594 1.306 . S
O595 Cd596 2.228 . S
Cd596 O595 2.228 . S
Cd596 O600 2.273 . S
Cd596 O604 2.277 . S
O597 C594 1.160 . S
O597 Cd598 2.203 . S
Cd598 O597 2.203 . S
Cd598 O600 2.411 . S
Cd598 O601 2.333 . S
Cd598 O602 2.352 . S
Cd598 O606 2.277 . S
Cd598 O607 2.356 . S
C599 O604 1.209 . S
C599 O606 1.226 . S
O600 Cd596 2.273 . S
O600 Cd598 2.411 . S
O600 C603 1.320 . S
O601 Cd598 2.333 . S
O601 C603 1.214 . S
O602 Cd598 2.352 . S
O602 C605 1.258 . S
C603 O600 1.320 . S
C603 O601 1.214 . S
O604 Cd596 2.277 . S
O604 C599 1.209 . S
C605 O602 1.258 . S
C605 O607 1.282 . S
O606 Cd598 2.277 . S
O606 C599 1.226 . S
O607 Cd598 2.356 . S
O607 C605 1.282 . S
C521 C35 1.964 . S
C535 C115 1.913 . S
C543 C177 1.981 . S
C221 C501 1.916 1_556 S
C283 C507 1.890 1_554 S
C363 C515 1.965 . S
C529 C407 2.083 . S
C549 C469 1.921 . S
C159 C577 1.896 . S
C591 C239 2.084 1_554 S
C53 C599 2.017 . S
C563 C97 1.823 . S
C425 C557 2.029 . S
C487 C571 1.931 . S
C585 C301 1.977 1_556 S
C345 C605 1.983 . S
C524 C29 2.552 . S
C547 C109 2.518 . S
C171 C505 2.601 . S
C215 C510 2.709 . S
C277 C538 2.535 . S
C496 C357 2.523 . S
C519 C401 2.670 . S
C533 C463 2.613 . S
C580 C153 2.540 . S
C603 C233 2.474 . S
C47 C552 2.502 . S
C566 C91 2.560 . S
C594 C419 2.548 . S
C481 C561 2.632 . S
C575 C295 2.605 . S
C589 C339 2.620 . S
