# Generated by pormake.
# Topology anh, (6,3)-cn, num edge types: 1
# Building blocks:
#     Node 0, Type 0, BuildingBlock: BETDEL_clean_sbu_0, # of connection points: 6
#     Node 1, Type 0, BuildingBlock: BETDEL_clean_sbu_0, # of connection points: 6
#     Node 2, Type 0, BuildingBlock: BETDEL_clean_sbu_0, # of connection points: 6
#     Node 3, Type 1, BuildingBlock: BETDAH_clean_linker_0, # of connection points: 3
#     Node 4, Type 1, BuildingBlock: BETDAH_clean_linker_0, # of connection points: 3
#     Node 5, Type 1, BuildingBlock: BETDAH_clean_linker_0, # of connection points: 3
#     Node 6, Type 1, BuildingBlock: BETDAH_clean_linker_0, # of connection points: 3
#     Node 7, Type 1, BuildingBlock: BETDAH_clean_linker_0, # of connection points: 3
#     Node 8, Type 1, BuildingBlock: BETDAH_clean_linker_0, # of connection points: 3
#     Edge 9, Type (0, 1), BuildingBlock: TEMPAE_clean_linker_10, # of connection points: 2
#     Edge 10, Type (0, 1), BuildingBlock: TEMPAE_clean_linker_10, # of connection points: 2
#     Edge 11, Type (0, 1), BuildingBlock: TEMPAE_clean_linker_10, # of connection points: 2
#     Edge 12, Type (0, 1), BuildingBlock: TEMPAE_clean_linker_10, # of connection points: 2
#     Edge 13, Type (0, 1), BuildingBlock: TEMPAE_clean_linker_10, # of connection points: 2
#     Edge 14, Type (0, 1), BuildingBlock: TEMPAE_clean_linker_10, # of connection points: 2
#     Edge 15, Type (0, 1), BuildingBlock: TEMPAE_clean_linker_10, # of connection points: 2
#     Edge 16, Type (0, 1), BuildingBlock: TEMPAE_clean_linker_10, # of connection points: 2
#     Edge 17, Type (0, 1), BuildingBlock: TEMPAE_clean_linker_10, # of connection points: 2
#     Edge 18, Type (0, 1), BuildingBlock: TEMPAE_clean_linker_10, # of connection points: 2
#     Edge 19, Type (0, 1), BuildingBlock: TEMPAE_clean_linker_10, # of connection points: 2
#     Edge 20, Type (0, 1), BuildingBlock: TEMPAE_clean_linker_10, # of connection points: 2
#     Edge 21, Type (0, 1), BuildingBlock: TEMPAE_clean_linker_10, # of connection points: 2
#     Edge 22, Type (0, 1), BuildingBlock: TEMPAE_clean_linker_10, # of connection points: 2
#     Edge 23, Type (0, 1), BuildingBlock: TEMPAE_clean_linker_10, # of connection points: 2
#     Edge 24, Type (0, 1), BuildingBlock: TEMPAE_clean_linker_10, # of connection points: 2
#     Edge 25, Type (0, 1), BuildingBlock: TEMPAE_clean_linker_10, # of connection points: 2
#     Edge 26, Type (0, 1), BuildingBlock: TEMPAE_clean_linker_10, # of connection points: 2
# Relax obj value: 0.095
# Max RMSD: 0.133
# Mean RMSD: 0.100
data_MOF--net-anh--node1-BETDEL_clean_sbu_0--node2-BETDAH_clean_linker_0--edge1-TEMPAE_clean_linker_10
_symmetry_space_group_name_H-M    P1
_symmetry_Int_Tables_number       1
_symmetry_cell_setting            triclinic
loop_
_symmetry_equiv_pos_as_xyz
'x, y, z'
_cell_length_a     30.629708
_cell_length_b     30.575244
_cell_length_c     47.958788
_cell_angle_alpha  92.203587
_cell_angle_beta   92.621649
_cell_angle_gamma 120.00441
loop_
_atom_site_label
_atom_site_type_symbol
_atom_site_fract_x
_atom_site_fract_y
_atom_site_fract_z
_atom_type_partial_charge
Dy0 Dy 0.05686 0.47262 0.16535 0.0
C1 C 0.93682 0.5583 0.19301 0.0
C2 C 0.11857 0.43718 0.14958 0.0
Dy3 Dy 1.00193 0.52893 0.17456 0.0
O4 O 0.10953 0.44359 0.17507 0.0
O5 O 0.09353 0.44988 0.13236 0.0
O6 O 0.03478 0.43934 0.20675 0.0
O7 O 0.05022 0.51364 0.20169 0.0
C8 C 0.03509 0.47866 0.21819 0.0
C9 C 0.02142 0.52263 0.12108 0.0
O10 O 0.08012 0.59291 0.18682 0.0
O11 O 0.11888 0.55475 0.1643 0.0
O12 O 0.96491 0.57638 0.17222 0.0
O13 O 0.94583 0.52542 0.20423 0.0
O14 O 0.01961 0.56056 0.13279 0.0
O15 O 1.00808 0.4877 0.13767 0.0
O16 O 0.9785 0.40532 0.1581 0.0
O17 O 0.9389 0.44771 0.1746 0.0
C18 C 0.12078 0.59549 0.17658 0.0
C19 C 0.93759 0.40518 0.16623 0.0
Dy20 Dy 0.51474 0.02782 0.4962 0.0
C21 C 0.73551 0.14727 0.52076 0.0
C22 C 0.41891 0.97119 0.47212 0.0
Dy23 Dy 0.63499 0.09264 0.50492 0.0
O24 O 0.43281 1.00573 0.49251 0.0
O25 O 0.45757 0.96804 0.46472 0.0
O26 O 0.49887 0.02149 0.54214 0.0
O27 O 0.57178 0.06077 0.52992 0.0
C28 C 0.54641 0.04812 0.55092 0.0
C29 C 0.59381 0.0815 0.45247 0.0
O30 O 0.62065 0.01383 0.51185 0.0
O31 O 0.53313 0.96566 0.50057 0.0
O32 O 0.71567 0.11614 0.49855 0.0
O33 O 0.69989 0.14658 0.53486 0.0
O34 O 0.63624 0.12069 0.46208 0.0
O35 O 0.57841 0.04909 0.47044 0.0
O36 O 0.53135 0.10772 0.49073 0.0
O37 O 0.61333 0.15194 0.51218 0.0
C38 C 0.57752 0.9695 0.50783 0.0
C39 C 0.57152 0.15025 0.50181 0.0
Dy40 Dy 0.57346 0.5918 0.83507 0.0
C41 C 0.49394 0.38312 0.85106 0.0
C42 C 0.60893 0.68902 0.82136 0.0
Dy43 Dy 0.5177 0.47817 0.83756 0.0
O44 O 0.6223 0.67569 0.84407 0.0
O45 O 0.57592 0.64909 0.80593 0.0
O46 O 0.60569 0.60219 0.8794 0.0
O47 O 0.53378 0.5405 0.86712 0.0
C48 C 0.56813 0.5603 0.88667 0.0
C49 C 0.52339 0.50977 0.78573 0.0
O50 O 0.45332 0.49008 0.84711 0.0
O51 O 0.49103 0.57205 0.83283 0.0
O52 O 0.47558 0.39351 0.82898 0.0
O53 O 0.52328 0.42468 0.86628 0.0
O54 O 0.48566 0.46834 0.79339 0.0
O55 O 0.55803 0.52956 0.80525 0.0
O56 O 0.63869 0.57916 0.82802 0.0
O57 O 0.59923 0.49812 0.843 0.0
C58 C 0.45067 0.53053 0.84044 0.0
C59 C 0.64044 0.53902 0.83617 0.0
H60 H 0.43967 0.92998 0.25331 0.0
H61 H 0.57817 0.05663 0.23087 0.0
H62 H 0.47809 0.94133 0.16758 0.0
C63 C 0.46511 0.94984 0.23739 0.0
C64 C 0.45305 0.92926 0.20952 0.0
C65 C 0.51009 0.99539 0.24521 0.0
C66 C 0.54342 0.02157 0.22478 0.0
C67 C 0.5316 1.00258 0.19658 0.0
C68 C 0.4865 0.95643 0.18919 0.0
N69 N 0.56416 0.02819 0.17516 0.0
C70 C 0.60902 0.07503 0.17856 0.0
H71 H 0.56082 0.46018 0.58507 0.0
H72 H 0.57933 0.60562 0.56948 0.0
H73 H 0.58502 0.51213 0.50201 0.0
C74 C 0.56844 0.48919 0.57068 0.0
C75 C 0.5744 0.48044 0.54248 0.0
C76 C 0.57176 0.53461 0.58086 0.0
C77 C 0.57702 0.57066 0.5619 0.0
C78 C 0.58066 0.56203 0.53326 0.0
C79 C 0.58018 0.5174 0.52387 0.0
N80 N 0.58596 0.59758 0.51334 0.0
C81 C 0.58471 0.64231 0.51852 0.0
H82 H 0.94381 0.51661 0.91739 0.0
H83 H 0.07894 0.51366 0.89989 0.0
H84 H 0.99739 0.5433 0.835 0.0
C85 C 0.97105 0.51983 0.9028 0.0
C86 C 0.96495 0.53045 0.87509 0.0
C87 C 1.01187 0.51368 0.9121 0.0
C88 C 0.0475 0.51846 0.89307 0.0
C89 C 0.04224 0.52899 0.86518 0.0
C90 C 1.00088 0.53466 0.85641 0.0
N91 N 0.07767 0.53451 0.84533 0.0
C92 C 0.12101 0.53079 0.85029 0.0
H93 H 0.10005 0.6446 0.40622 0.0
H94 H 0.99915 0.50546 0.44188 0.0
H95 H 0.07975 0.64418 0.49431 0.0
C96 C 0.08158 0.62459 0.4242 0.0
C97 C 0.09352 0.65085 0.45052 0.0
C98 C 0.04767 0.57228 0.42094 0.0
C99 C 0.02489 0.54598 0.44436 0.0
C100 C 0.03686 0.57217 0.47099 0.0
C101 C 0.0705 0.62439 0.47375 0.0
N102 N 0.01735 0.54739 0.49565 0.0
C103 C 0.99078 0.49526 0.49697 0.0
H104 H 0.60322 0.16622 0.75656 0.0
H105 H 0.68182 0.08297 0.76525 0.0
H106 H 0.65262 0.14741 0.83822 0.0
C107 C 0.62277 0.15214 0.76954 0.0
C108 C 0.62581 0.16033 0.79872 0.0
C109 C 0.64289 0.12432 0.7571 0.0
C110 C 0.66578 0.10421 0.77443 0.0
C111 C 0.66929 0.11264 0.80368 0.0
C112 C 0.6498 0.14106 0.81565 0.0
N113 N 0.69196 0.09259 0.82153 0.0
C114 C 0.68594 0.04501 0.81581 0.0
H115 H 0.62621 0.4905 0.08868 0.0
H116 H 0.46407 0.41659 0.0859 0.0
H117 H 0.54908 0.42559 0.16202 0.0
C118 C 0.59132 0.46984 0.09887 0.0
C119 C 0.59314 0.46034 0.12715 0.0
C120 C 0.54491 0.45438 0.08393 0.0
C121 C 0.5 0.42898 0.09748 0.0
C122 C 0.50149 0.41806 0.12564 0.0
C123 C 0.54805 0.43383 0.1403 0.0
N124 N 0.45683 0.39097 0.1397 0.0
C125 C 0.41231 0.39017 0.13185 0.0
C126 C 0.18214 0.41324 0.16348 0.0
C127 C 0.15588 0.42267 0.14213 0.0
C128 C 0.22152 0.40446 0.15768 0.0
C129 C 0.23472 0.40476 0.12975 0.0
C130 C 0.20685 0.41206 0.10787 0.0
C131 C 0.16768 0.42119 0.11436 0.0
C132 C 0.25038 0.39699 0.18166 0.0
C133 C 0.21957 0.41204 0.07785 0.0
C134 C 0.37172 0.44114 0.12781 0.0
C135 C 0.36772 0.39359 0.12627 0.0
C136 C 0.32827 0.44547 0.12683 0.0
C137 C 0.28004 0.40101 0.12426 0.0
C138 C 0.27615 0.35293 0.12075 0.0
C139 C 0.32036 0.34977 0.122 0.0
C140 C 0.33407 0.49741 0.13071 0.0
C141 C 0.22543 0.30479 0.11764 0.0
H142 H 0.1729 0.4142 0.18497 0.0
H143 H 0.14721 0.42838 0.09783 0.0
H144 H 0.2509 0.36129 0.17765 0.0
H145 H 0.29021 0.42847 0.18352 0.0
H146 H 0.23385 0.39566 0.20197 0.0
H147 H 0.19064 0.41214 0.06305 0.0
H148 H 0.25662 0.44609 0.07515 0.0
H149 H 0.22307 0.37842 0.07225 0.0
H150 H 0.40879 0.47487 0.13109 0.0
H151 H 0.31781 0.31305 0.12078 0.0
H152 H 0.32235 0.50213 0.15165 0.0
H153 H 0.30925 0.50184 0.11489 0.0
H154 H 0.37369 0.5281 0.1291 0.0
H155 H 0.20832 0.29752 0.13806 0.0
H156 H 0.22872 0.27156 0.11063 0.0
H157 H 0.1992 0.30844 0.10245 0.0
C158 C 0.81912 0.19783 0.50151 0.0
C159 C 0.7879 0.18989 0.52348 0.0
C160 C 0.86096 0.24584 0.49861 0.0
C161 C 0.87152 0.28632 0.51821 0.0
C162 C 0.84392 0.27668 0.54233 0.0
C163 C 0.80233 0.22834 0.5447 0.0
C164 C 0.89009 0.25434 0.4729 0.0
C165 C 0.85448 0.31861 0.56398 0.0
C166 C 0.9848 0.41814 0.51453 0.0
C167 C 0.96237 0.44185 0.50032 0.0
C168 C 0.95613 0.36684 0.51992 0.0
C169 C 0.90405 0.33938 0.51099 0.0
C170 C 0.8818 0.36333 0.49597 0.0
C171 C 0.91142 0.41448 0.49081 0.0
C172 C 0.98109 0.34254 0.53584 0.0
C173 C 0.82636 0.33536 0.48604 0.0
H174 H 0.8083 0.16794 0.4852 0.0
H175 H 0.77852 0.22206 0.5619 0.0
H176 H 0.87696 0.27207 0.45737 0.0
H177 H 0.93112 0.28041 0.47805 0.0
H178 H 0.88441 0.21823 0.463 0.0
H179 H 0.83602 0.30357 0.58356 0.0
H180 H 0.8957 0.34338 0.56911 0.0
H181 H 0.83982 0.34242 0.55545 0.0
H182 H 0.02444 0.43996 0.5219 0.0
H183 H 0.8945 0.4334 0.47987 0.0
H184 H 0.97224 0.30616 0.5248 0.0
H185 H 0.96611 0.33387 0.55678 0.0
H186 H 0.02281 0.36744 0.53868 0.0
H187 H 0.81707 0.30091 0.47271 0.0
H188 H 0.81546 0.35909 0.47389 0.0
H189 H 0.80302 0.32291 0.50428 0.0
C190 C 0.66063 0.78115 0.8345 0.0
C191 C 0.62547 0.74179 0.81561 0.0
C192 C 0.67293 0.83128 0.83135 0.0
C193 C 0.64941 0.8422 0.80874 0.0
C194 C 0.61578 0.8029 0.78876 0.0
C195 C 0.60413 0.75294 0.79246 0.0
C196 C 0.70909 0.87213 0.85307 0.0
C197 C 0.59025 0.81321 0.76431 0.0
C198 C 0.63409 0.9558 0.82442 0.0
C199 C 0.67518 0.99365 0.81195 0.0
C200 C 0.62417 0.90578 0.82257 0.0
C201 C 0.6563 0.89375 0.80786 0.0
C202 C 0.69701 0.93189 0.7944 0.0
C203 C 0.70609 0.98177 0.79668 0.0
C204 C 0.58042 0.86625 0.83722 0.0
C205 C 0.73181 0.92036 0.77843 0.0
H206 H 0.67742 0.77257 0.85232 0.0
H207 H 0.57708 0.72245 0.77776 0.0
H208 H 0.73906 0.90441 0.84284 0.0
H209 H 0.68841 0.88675 0.86511 0.0
H210 H 0.72731 0.85808 0.86799 0.0
H211 H 0.57026 0.77998 0.74886 0.0
H212 H 0.56231 0.82293 0.77199 0.0
H213 H 0.61829 0.84608 0.75355 0.0
H214 H 0.6103 0.96554 0.83613 0.0
H215 H 0.73777 1.01153 0.787 0.0
H216 H 0.59491 0.85236 0.85432 0.0
H217 H 0.55554 0.83325 0.8224 0.0
H218 H 0.55736 0.88121 0.84632 0.0
H219 H 0.75389 0.91031 0.79316 0.0
H220 H 0.75864 0.95302 0.76703 0.0
H221 H 0.70955 0.88726 0.76319 0.0
C222 C 0.8802 0.59153 0.17987 0.0
C223 C 0.88982 0.55948 0.19582 0.0
C224 C 0.83061 0.58148 0.17422 0.0
C225 C 0.79013 0.53803 0.18453 0.0
C226 C 0.8004 0.50943 0.20351 0.0
C227 C 0.85044 0.52085 0.20916 0.0
C228 C 0.8213 0.61375 0.15451 0.0
C229 C 0.75839 0.46293 0.21505 0.0
C230 C 0.65538 0.509 0.16779 0.0
C231 C 0.64239 0.47839 0.14283 0.0
C232 C 0.70334 0.52867 0.18192 0.0
C233 C 0.73844 0.51669 0.17089 0.0
C234 C 0.72479 0.48463 0.14604 0.0
C235 C 0.67703 0.46624 0.13219 0.0
C236 C 0.71687 0.56318 0.20812 0.0
C237 C 0.76084 0.47015 0.13383 0.0
H238 H 0.9108 0.62183 0.16982 0.0
H239 H 0.85789 0.49621 0.22171 0.0
H240 H 0.80928 0.59396 0.1333 0.0
H241 H 0.79061 0.62002 0.16131 0.0
H242 H 0.85591 0.65108 0.15302 0.0
H243 H 0.77229 0.45115 0.23346 0.0
H244 H 0.72755 0.46951 0.22116 0.0
H245 H 0.74209 0.43122 0.19861 0.0
H246 H 0.62849 0.51862 0.17582 0.0
H247 H 0.66662 0.44221 0.11299 0.0
H248 H 0.74745 0.60176 0.20425 0.0
H249 H 0.73151 0.54971 0.22536 0.0
H250 H 0.68407 0.56573 0.21508 0.0
H251 H 0.79512 0.50455 0.12803 0.0
H252 H 0.74358 0.44346 0.11494 0.0
H253 H 0.77318 0.45222 0.14964 0.0
C254 C 0.32662 0.935 0.47612 0.0
C255 C 0.36609 0.93389 0.46307 0.0
C256 C 0.27711 0.89382 0.47221 0.0
C257 C 0.26736 0.8508 0.45499 0.0
C258 C 0.30635 0.85154 0.43988 0.0
C259 C 0.35538 0.89328 0.44407 0.0
C260 C 0.23629 0.89473 0.48826 0.0
C261 C 0.29737 0.80649 0.42118 0.0
C262 C 0.17326 0.71991 0.47495 0.0
C263 C 0.1341 0.70456 0.45399 0.0
C264 C 0.21587 0.76842 0.47621 0.0
C265 C 0.21921 0.80243 0.45606 0.0
C266 C 0.17855 0.7882 0.43579 0.0
C267 C 0.13644 0.73917 0.4349 0.0
C268 C 0.25854 0.78217 0.49816 0.0
C269 C 0.18051 0.8238 0.41429 0.0
H270 H 0.33487 0.96668 0.49066 0.0
H271 H 0.38588 0.89267 0.43378 0.0
H272 H 0.20044 0.87888 0.47491 0.0
H273 H 0.22885 0.87084 0.50627 0.0
H274 H 0.2474 0.93369 0.49643 0.0
H275 H 0.3298 0.81544 0.40839 0.0
H276 H 0.29139 0.77501 0.43423 0.0
H277 H 0.26284 0.79283 0.40694 0.0
H278 H 0.17185 0.69306 0.48952 0.0
H279 H 0.10587 0.72743 0.41883 0.0
H280 H 0.26896 0.81842 0.50992 0.0
H281 H 0.29246 0.78753 0.48788 0.0
H282 H 0.24862 0.75257 0.5133 0.0
H283 H 0.19329 0.86195 0.42439 0.0
H284 H 0.1432 0.80979 0.40267 0.0
H285 H 0.20829 0.82805 0.39903 0.0
C286 C 0.53563 0.33809 0.8706 0.0
C287 C 0.49783 0.33715 0.85253 0.0
C288 C 0.55217 0.30331 0.86607 0.0
C289 C 0.52963 0.26641 0.84326 0.0
C290 C 0.48727 0.26154 0.82718 0.0
C291 C 0.47198 0.29728 0.83194 0.0
C292 C 0.59731 0.30967 0.88375 0.0
C293 C 0.46149 0.222 0.80306 0.0
C294 C 0.61485 0.23566 0.80233 0.0
C295 C 0.60294 0.18825 0.81137 0.0
C296 C 0.59199 0.26184 0.81311 0.0
C297 C 0.55567 0.23958 0.8331 0.0
C298 C 0.54392 0.19191 0.84258 0.0
C299 C 0.56804 0.16688 0.8317 0.0
C300 C 0.60639 0.31315 0.80286 0.0
C301 C 0.50506 0.16687 0.86361 0.0
H302 H 0.55554 0.36878 0.88668 0.0
H303 H 0.44246 0.29628 0.81809 0.0
H304 H 0.59115 0.2725 0.88986 0.0
H305 H 0.63103 0.3265 0.87138 0.0
H306 H 0.60564 0.33482 0.90298 0.0
H307 H 0.42422 0.21729 0.79603 0.0
H308 H 0.48572 0.23353 0.78516 0.0
H309 H 0.45595 0.18489 0.80889 0.0
H310 H 0.6422 0.25226 0.78678 0.0
H311 H 0.55861 0.12994 0.8385 0.0
H312 H 0.62001 0.34191 0.82083 0.0
H313 H 0.57276 0.31194 0.79231 0.0
H314 H 0.63642 0.32571 0.78793 0.0
H315 H 0.51416 0.19296 0.88246 0.0
H316 H 0.50263 0.13129 0.87015 0.0
H317 H 0.46736 0.15792 0.85443 0.0
C318 C 0.62438 0.92276 0.51859 0.0
C319 C 0.57877 0.92159 0.51141 0.0
C320 C 0.62601 0.87777 0.52127 0.0
C321 C 0.581 0.83008 0.51671 0.0
C322 C 0.53475 0.82864 0.5099 0.0
C323 C 0.53419 0.87415 0.50734 0.0
C324 C 0.67618 0.88127 0.52855 0.0
C325 C 0.48579 0.77887 0.50483 0.0
C326 C 0.59069 0.71419 0.49389 0.0
C327 C 0.58421 0.68973 0.51873 0.0
C328 C 0.58997 0.75981 0.49302 0.0
C329 C 0.58256 0.78173 0.51766 0.0
C330 C 0.57612 0.75701 0.54291 0.0
C331 C 0.57699 0.71123 0.54314 0.0
C332 C 0.59689 0.78445 0.46563 0.0
C333 C 0.56807 0.77881 0.56963 0.0
H334 H 0.65913 0.95891 0.52188 0.0
H335 H 0.49858 0.87236 0.50188 0.0
H336 H 0.67387 0.86035 0.54733 0.0
H337 H 0.6856 0.86327 0.51111 0.0
H338 H 0.70741 0.92106 0.53265 0.0
H339 H 0.4527 0.78407 0.50091 0.0
H340 H 0.48793 0.75694 0.48649 0.0
H341 H 0.47948 0.75583 0.52313 0.0
H342 H 0.59621 0.69745 0.475 0.0
H343 H 0.57191 0.69223 0.56236 0.0
H344 H 0.62992 0.82345 0.46801 0.0
H345 H 0.5632 0.78753 0.45952 0.0
H346 H 0.60272 0.76294 0.44843 0.0
H347 H 0.60024 0.8177 0.57488 0.0
H348 H 0.56424 0.75548 0.58755 0.0
H349 H 0.53345 0.78168 0.56677 0.0
C350 C 0.69138 0.49831 0.84969 0.0
C351 C 0.68938 0.53908 0.83835 0.0
C352 C 0.73715 0.49823 0.85355 0.0
C353 C 0.78255 0.53975 0.84567 0.0
C354 C 0.78071 0.58041 0.83345 0.0
C355 C 0.7343 0.57974 0.83008 0.0
C356 C 0.73701 0.45414 0.8668 0.0
C357 C 0.82796 0.62505 0.82435 0.0
C358 C 0.90403 0.5613 0.88455 0.0
C359 C 0.92086 0.53685 0.86615 0.0
C360 C 0.85999 0.56351 0.87785 0.0
C361 C 0.83204 0.54158 0.8518 0.0
C362 C 0.84994 0.51886 0.83255 0.0
C363 C 0.89387 0.51656 0.83997 0.0
C364 C 0.84244 0.5879 0.89914 0.0
C365 C 0.8218 0.49556 0.80441 0.0
H366 H 0.65714 0.46651 0.85618 0.0
H367 H 0.73336 0.61133 0.82119 0.0
H368 H 0.75326 0.43704 0.85289 0.0
H369 H 0.76109 0.46762 0.88676 0.0
H370 H 0.6984 0.42424 0.87117 0.0
H371 H 0.81981 0.65181 0.81337 0.0
H372 H 0.85462 0.6458 0.84287 0.0
H373 H 0.84736 0.61182 0.81023 0.0
H374 H 0.92506 0.57837 0.90452 0.0
H375 H 0.90609 0.49735 0.82558 0.0
H376 H 0.80505 0.55921 0.90577 0.0
H377 H 0.8376 0.61792 0.88974 0.0
H378 H 0.86929 0.60484 0.91802 0.0
H379 H 0.78473 0.46171 0.80733 0.0
H380 H 0.8431 0.48395 0.79074 0.0
H381 H 0.81413 0.52271 0.79357 0.0
C382 C 0.17366 0.68732 0.19407 0.0
C383 C 0.16977 0.6446 0.17951 0.0
C384 C 0.21978 0.73358 0.19749 0.0
C385 C 0.26343 0.73767 0.18603 0.0
C386 C 0.25963 0.69495 0.17096 0.0
C387 C 0.21304 0.64906 0.16793 0.0
C388 C 0.22198 0.77795 0.21381 0.0
C389 C 0.30502 0.6975 0.15832 0.0
C390 C 0.37437 0.87099 0.17807 0.0
C391 C 0.4059 0.87917 0.20225 0.0
C392 C 0.32841 0.82494 0.17223 0.0
C393 C 0.31341 0.78592 0.19097 0.0
C394 C 0.34569 0.79353 0.21501 0.0
C395 C 0.39136 0.83973 0.22027 0.0
C396 C 0.29533 0.81844 0.1463 0.0
C397 C 0.3316 0.7531 0.23552 0.0
H398 H 0.14067 0.68459 0.20311 0.0
H399 H 0.21067 0.61655 0.15654 0.0
H400 H 0.24869 0.78903 0.23264 0.0
H401 H 0.2364 0.8111 0.20091 0.0
H402 H 0.18445 0.76928 0.2206 0.0
H403 H 0.29548 0.66173 0.14621 0.0
H404 H 0.32143 0.72898 0.14426 0.0
H405 H 0.33469 0.70546 0.17511 0.0
H406 H 0.38492 0.90113 0.16407 0.0
H407 H 0.41578 0.84503 0.2387 0.0
H408 H 0.25887 0.81401 0.15234 0.0
H409 H 0.28656 0.78354 0.13358 0.0
H410 H 0.31336 0.85117 0.13311 0.0
H411 H 0.29584 0.74496 0.24462 0.0
H412 H 0.36132 0.76437 0.25287 0.0
H413 H 0.32495 0.71742 0.2246 0.0
C414 C 0.52619 0.1984 0.51053 0.0
C415 C 0.56986 0.19811 0.50323 0.0
C416 C 0.52606 0.24426 0.51481 0.0
C417 C 0.5701 0.29095 0.51069 0.0
C418 C 0.61341 0.29043 0.50185 0.0
C419 C 0.61309 0.24424 0.49879 0.0
C420 C 0.47961 0.24289 0.52514 0.0
C421 C 0.66061 0.33881 0.49623 0.0
C422 C 0.55636 0.40875 0.50637 0.0
C423 C 0.57521 0.43303 0.5333 0.0
C424 C 0.55549 0.36326 0.49843 0.0
C425 C 0.57242 0.34037 0.51806 0.0
C426 C 0.59178 0.36478 0.5451 0.0
C427 C 0.59406 0.41099 0.55208 0.0
C428 C 0.53619 0.33956 0.46906 0.0
C429 C 0.60954 0.34169 0.56698 0.0
H430 H 0.49283 0.16291 0.51421 0.0
H431 H 0.64683 0.2442 0.49291 0.0
H432 H 0.48887 0.26257 0.54634 0.0
H433 H 0.46699 0.26327 0.51127 0.0
H434 H 0.44779 0.2036 0.52621 0.0
H435 H 0.6886 0.33151 0.48625 0.0
H436 H 0.65093 0.36154 0.48243 0.0
H437 H 0.67866 0.36203 0.51615 0.0
H438 H 0.54145 0.4247 0.49153 0.0
H439 H 0.6107 0.42977 0.57256 0.0
H440 H 0.50098 0.30251 0.46958 0.0
H441 H 0.56434 0.33227 0.45932 0.0
H442 H 0.52817 0.36389 0.45562 0.0
H443 H 0.57903 0.30254 0.56991 0.0
H444 H 0.62088 0.3639 0.58753 0.0
H445 H 0.64231 0.33928 0.55996 0.0
C446 C 0.39784 0.57251 0.83634 0.0
C447 C 0.40201 0.53028 0.84288 0.0
C448 C 0.35217 0.57269 0.83855 0.0
C449 C 0.30929 0.52961 0.84755 0.0
C450 C 0.31334 0.48701 0.85437 0.0
C451 C 0.35944 0.48784 0.85196 0.0
C452 C 0.34971 0.61892 0.831 0.0
C453 C 0.26874 0.44026 0.86402 0.0
C454 C 0.20152 0.54546 0.8742 0.0
C455 C 0.16723 0.52828 0.85054 0.0
C456 C 0.24769 0.54568 0.87368 0.0
C457 C 0.2598 0.52846 0.84886 0.0
C458 C 0.22469 0.51061 0.82505 0.0
C459 C 0.17892 0.51079 0.8262 0.0
C460 C 0.2838 0.5649 0.89954 0.0
C461 C 0.23576 0.49192 0.79817 0.0
H462 H 0.43029 0.6056 0.82935 0.0
H463 H 0.36197 0.45497 0.85716 0.0
H464 H 0.32104 0.60871 0.81324 0.0
H465 H 0.33769 0.63335 0.84892 0.0
H466 H 0.38661 0.64985 0.82505 0.0
H467 H 0.2783 0.41082 0.86929 0.0
H468 H 0.2547 0.45036 0.88271 0.0
H469 H 0.23731 0.42386 0.84738 0.0
H470 H 0.19249 0.55925 0.89299 0.0
H471 H 0.15241 0.49777 0.80785 0.0
H472 H 0.32003 0.59834 0.89493 0.0
H473 H 0.29243 0.53541 0.906 0.0
H474 H 0.26838 0.57578 0.91734 0.0
H475 H 0.27049 0.52277 0.79015 0.0
H476 H 0.20423 0.47847 0.7817 0.0
H477 H 0.24289 0.46044 0.8021 0.0
C478 C 0.8451 0.35632 0.17473 0.0
C479 C 0.8889 0.35628 0.16711 0.0
C480 C 0.79935 0.31089 0.17703 0.0
C481 C 0.79685 0.26376 0.17165 0.0
C482 C 0.84078 0.26336 0.1638 0.0
C483 C 0.88612 0.30946 0.16159 0.0
C484 C 0.75365 0.31343 0.18531 0.0
C485 C 0.83994 0.21411 0.15783 0.0
C486 C 0.6902 0.14552 0.20096 0.0
C487 C 0.65579 0.12307 0.17747 0.0
C488 C 0.73623 0.19129 0.19942 0.0
C489 C 0.74808 0.21501 0.17376 0.0
C490 C 0.713 0.1922 0.15005 0.0
C491 C 0.66738 0.14657 0.15221 0.0
C492 C 0.77228 0.21419 0.22523 0.0
C493 C 0.72372 0.21594 0.12232 0.0
H494 H 0.84646 0.39204 0.1791 0.0
H495 H 0.91956 0.30874 0.15583 0.0
H496 H 0.72233 0.2936 0.16874 0.0
H497 H 0.74019 0.2938 0.20476 0.0
H498 H 0.76174 0.35301 0.18884 0.0
H499 H 0.87716 0.22006 0.15208 0.0
H500 H 0.82903 0.19159 0.17649 0.0
H501 H 0.81114 0.19129 0.14046 0.0
H502 H 0.68124 0.12718 0.22048 0.0
H503 H 0.64074 0.12901 0.13401 0.0
H504 H 0.7794 0.25294 0.2306 0.0
H505 H 0.80917 0.21762 0.2211 0.0
H506 H 0.75758 0.19128 0.24356 0.0
H507 H 0.72941 0.25472 0.12475 0.0
H508 H 0.69261 0.19358 0.1059 0.0
H509 H 0.75915 0.21943 0.11508 0.0
C510 C 0.02343 0.55228 0.07338 0.0
C511 C 0.02463 0.5168 0.09058 0.0
C512 C 0.02417 0.54719 0.04427 0.0
C513 C 0.02759 0.50628 0.03194 0.0
C514 C 0.03058 0.47117 0.04928 0.0
C515 C 0.02821 0.47638 0.07842 0.0
C516 C 0.01993 0.58503 0.02664 0.0
C517 C 0.03569 0.42788 0.03705 0.0
C518 C 0.97456 0.47365 0.9563 0.0
C519 C 0.01752 0.50434 0.94207 0.0
C520 C 0.97773 0.47147 0.98545 0.0
C521 C 0.02527 0.49956 0.00082 0.0
C522 C 0.0694 0.52687 0.98634 0.0
C523 C 0.06499 0.52939 0.95718 0.0
C524 C 0.92961 0.44215 0.99996 0.0
C525 C 0.121 0.55612 0.00183 0.0
H526 H 0.02066 0.58363 0.08262 0.0
H527 H 0.02916 0.44889 0.09164 0.0
H528 H 0.05321 0.60395 0.01408 0.0
H529 H 0.98585 0.5652 0.01177 0.0
H530 H 0.01735 0.61456 0.03949 0.0
H531 H 0.04419 0.40802 0.0535 0.0
H532 H 1.00001 0.40011 0.02492 0.0
H533 H 0.06613 0.44181 0.02238 0.0
H534 H 0.93789 0.45277 0.94476 0.0
H535 H 0.09851 0.55314 0.94651 0.0
H536 H 0.92216 0.469 0.01218 0.0
H537 H 0.93344 0.41727 0.0149 0.0
H538 H 0.8964 0.41851 0.98493 0.0
H539 H 0.12528 0.59086 0.01275 0.0
H540 H 0.15179 0.56752 0.98747 0.0
H541 H 0.12549 0.5333 0.01795 0.0
C542 C 0.59265 0.11078 0.40482 0.0
C543 C 0.57586 0.07096 0.42255 0.0
C544 C 0.58017 0.10128 0.37583 0.0
C545 C 0.5511 0.05067 0.36428 0.0
C546 C 0.53284 1.01037 0.38225 0.0
C547 C 0.54507 0.02106 0.41123 0.0
C548 C 0.59921 0.14534 0.3575 0.0
C549 C 0.50219 0.95585 0.37077 0.0
C550 C 0.4878 0.02003 0.29043 0.0
C551 C 0.52259 0.01399 0.27513 0.0
C552 C 0.4972 0.0334 0.31934 0.0
C553 C 0.54191 0.0397 0.33334 0.0
C554 C 0.57747 0.03429 0.31784 0.0
C555 C 0.5676 0.02202 0.28885 0.0
C556 C 0.45896 0.04002 0.33495 0.0
C557 C 0.6252 0.03989 0.33204 0.0
H558 H 0.61621 0.14943 0.4136 0.0
H559 H 0.53226 0.99019 0.4249 0.0
H560 H 0.62713 0.1447 0.34381 0.0
H561 H 0.56757 0.14221 0.34368 0.0
H562 H 0.61748 0.18237 0.36993 0.0
H563 H 0.48895 0.9291 0.38761 0.0
H564 H 0.4688 0.94982 0.35747 0.0
H565 H 0.52545 0.94661 0.35734 0.0
H566 H 0.45304 0.01396 0.27975 0.0
H567 H 0.59419 0.01678 0.27704 0.0
H568 H 0.47767 0.07749 0.34689 0.0
H569 H 0.44244 1.01079 0.35032 0.0
H570 H 0.42777 0.03698 0.32071 0.0
H571 H 0.64774 0.07784 0.34327 0.0
H572 H 0.64913 0.03487 0.31698 0.0
H573 H 0.61537 1.01144 0.34785 0.0
C574 C 0.49625 0.48802 0.73498 0.0
C575 C 0.53026 0.52264 0.75625 0.0
C576 C 0.50432 0.49688 0.7067 0.0
C577 C 0.54683 0.54212 0.69945 0.0
C578 C 0.57976 0.5786 0.72088 0.0
C579 C 0.57149 0.56809 0.74909 0.0
C580 C 0.46873 0.45652 0.6846 0.0
C581 C 0.62468 0.62789 0.71405 0.0
C582 C 0.59551 0.52798 0.6305 0.0
C583 C 0.57053 0.54357 0.61155 0.0
C584 C 0.58974 0.52933 0.65927 0.0
C585 C 0.5593 0.54809 0.66965 0.0
C586 C 0.53703 0.56751 0.65097 0.0
C587 C 0.54256 0.56465 0.62206 0.0
C588 C 0.61398 0.50794 0.67832 0.0
C589 C 0.50552 0.58917 0.66135 0.0
H590 H 0.46423 0.45289 0.74042 0.0
H591 H 0.5977 0.59508 0.7655 0.0
H592 H 0.45401 0.4729 0.66912 0.0
H593 H 0.48947 0.44128 0.67312 0.0
H594 H 0.43616 0.4246 0.69365 0.0
H595 H 0.64133 0.65545 0.73263 0.0
H596 H 0.65425 0.62068 0.70633 0.0
H597 H 0.61372 0.64519 0.6972 0.0
H598 H 0.61857 0.51317 0.6227 0.0
H599 H 0.5233 0.57703 0.60766 0.0
H600 H 0.58414 0.47392 0.6875 0.0
H601 H 0.63712 0.53594 0.6959 0.0
H602 H 0.63847 0.49703 0.66714 0.0
H603 H 0.46892 0.55808 0.66742 0.0
H604 H 0.49764 0.60981 0.64513 0.0
H605 H 0.52486 0.61535 0.68021 0.0
C606 C 0.53252 0.05289 0.60114 0.0
C607 C 0.56594 0.06029 0.58049 0.0
C608 C 0.54961 0.06427 0.62949 0.0
C609 C 0.60133 0.08284 0.6374 0.0
C610 C 0.63524 0.08988 0.6166 0.0
C611 C 0.6171 0.07869 0.58827 0.0
C612 C 0.5123 0.05682 0.65097 0.0
C613 C 0.69047 0.10893 0.62428 0.0
C614 C 0.64455 0.15375 0.70887 0.0
C615 C 0.63834 0.11527 0.72612 0.0
C616 C 0.63496 0.14437 0.67975 0.0
C617 C 0.61939 0.09546 0.66751 0.0
C618 C 0.61591 0.05725 0.6846 0.0
C619 C 0.62515 0.06752 0.71373 0.0
C620 C 0.63894 0.18609 0.66227 0.0
C621 C 0.59991 1.00476 0.67228 0.0
H622 H 0.49292 0.03868 0.59509 0.0
H623 H 0.64272 0.08366 0.57226 0.0
H624 H 0.51112 0.02964 0.66601 0.0
H625 H 0.52452 0.09322 0.6631 0.0
H626 H 0.47346 0.04239 0.64129 0.0
H627 H 0.71189 0.1126 0.60559 0.0
H628 H 0.70791 0.14639 0.63614 0.0
H629 H 0.69436 0.08265 0.63814 0.0
H630 H 0.65587 0.19109 0.71822 0.0
H631 H 0.61996 0.03744 0.72685 0.0
H632 H 0.60073 0.17613 0.6534 0.0
H633 H 0.66226 0.19035 0.64443 0.0
H634 H 0.65572 0.22309 0.67463 0.0
H635 H 0.55936 0.98524 0.66474 0.0
H636 H 0.6053 0.98146 0.68778 0.0
H637 H 0.62165 1.00681 0.654 0.0
C638 C 0.59948 0.57237 0.93675 0.0
C639 C 0.56296 0.54262 0.91511 0.0
C640 C 0.59468 0.55656 0.96407 0.0
C641 C 0.55277 0.50948 0.96968 0.0
C642 C 0.51607 0.47901 0.94778 0.0
C643 C 0.52135 0.49623 0.92076 0.0
C644 C 0.6343 0.59037 0.98695 0.0
C645 C 0.47137 0.4282 0.95287 0.0
C646 C 0.5698 0.45257 0.03527 0.0
C647 C 0.54386 0.46542 0.05423 0.0
C648 C 0.57161 0.46525 0.0074 0.0
C649 C 0.54767 0.49223 0.99849 0.0
C650 C 0.52073 0.50459 0.01748 0.0
C651 C 0.51878 0.49061 0.04512 0.0
C652 C 0.5999 0.4506 0.98763 0.0
C653 C 0.49535 0.53396 0.00883 0.0
H654 H 0.63162 0.60833 0.93241 0.0
H655 H 0.49299 0.47326 0.90402 0.0
H656 H 0.61628 0.5996 0.00399 0.0
H657 H 0.65268 0.57035 0.99617 0.0
H658 H 0.66397 0.6263 0.97921 0.0
H659 H 0.44692 0.40859 0.93342 0.0
H660 H 0.48471 0.40354 0.9617 0.0
H661 H 0.44821 0.43308 0.96845 0.0
H662 H 0.58879 0.43265 0.04233 0.0
H663 H 0.49906 0.50084 0.0599 0.0
H664 H 0.6329 0.48516 0.98089 0.0
H665 H 0.57519 0.42945 0.96853 0.0
H666 H 0.61361 0.42686 0.99737 0.0
H667 H 0.52416 0.57184 0.00278 0.0
H668 H 0.47454 0.53909 0.02584 0.0
H669 H 0.46846 0.51426 0.99026 0.0
C670 C 0.01756 0.4461 0.26571 0.0
C671 C 0.02736 0.48475 0.24788 0.0
C672 C 1.01443 0.45314 0.2945 0.0
C673 C 0.02117 0.49988 0.30557 0.0
C674 C 0.02861 0.53807 0.28736 0.0
C675 C 0.0317 0.53005 0.25871 0.0
C676 C 1.00634 0.41153 0.31322 0.0
C677 C 0.03568 0.58835 0.29831 0.0
C678 C 0.99036 0.51977 0.37927 0.0
C679 C 0.03884 0.54594 0.393 0.0
C680 C 0.98344 0.50239 0.35094 0.0
C681 C 0.02603 0.51128 0.33634 0.0
C682 C 0.07459 0.53499 0.35074 0.0
C683 C 0.08037 0.55215 0.37887 0.0
C684 C 0.93113 0.47716 0.33627 0.0
C685 C 0.12092 0.54472 0.33607 0.0
H686 H 1.01379 0.41085 0.25731 0.0
H687 H 0.03882 0.55981 0.2449 0.0
H688 H 0.04152 0.42341 0.32658 0.0
H689 H 0.97614 0.4044 0.32736 0.0
H690 H 0.99602 0.37558 0.30106 0.0
H691 H 0.0365 0.61214 0.28118 0.0
H692 H 1.00479 0.58243 0.31166 0.0
H693 H 0.07178 0.60945 0.31153 0.0
H694 H 0.95835 0.51526 0.39025 0.0
H695 H 0.1178 0.57211 0.38967 0.0
H696 H 0.92299 0.44206 0.324 0.0
H697 H 0.92887 0.5029 0.32133 0.0
H698 H 0.90146 0.46757 0.35121 0.0
H699 H 0.11472 0.5093 0.32503 0.0
H700 H 0.15515 0.55991 0.3508 0.0
H701 H 0.1282 0.57242 0.32008 0.0
loop_
_geom_bond_atom_site_label_1
_geom_bond_atom_site_label_2
_geom_bond_distance
_geom_bond_site_symmetry_2
_ccdc_geom_bond_type
Dy0 O4 2.398 . S
Dy0 O5 2.491 . S
Dy0 O6 2.403 . S
Dy0 O7 2.664 . S
Dy0 O11 2.326 . S
Dy0 O15 2.310 . S
Dy0 O16 2.351 1_455 S
C1 O12 1.185 . S
C1 O13 1.355 . S
C2 O4 1.185 . S
C2 O5 1.355 . S
Dy3 O7 2.310 1_655 S
Dy3 O10 2.351 1_655 S
Dy3 O12 2.398 . S
Dy3 O13 2.491 . S
Dy3 O14 2.403 1_655 S
Dy3 O15 2.664 1_655 S
Dy3 O17 2.326 . S
O4 Dy0 2.398 . S
O4 C2 1.185 . S
O5 Dy0 2.491 . S
O5 C2 1.355 . S
O6 Dy0 2.403 . S
O6 C8 1.254 . S
O7 Dy0 2.664 . S
O7 Dy3 2.310 1_455 S
O7 C8 1.268 . S
C8 O6 1.254 . S
C8 O7 1.268 . S
C9 O14 1.254 . S
C9 O15 1.268 . S
O10 Dy3 2.351 1_455 S
O10 C18 1.249 . S
O11 Dy0 2.326 . S
O11 C18 1.267 . S
O12 C1 1.185 . S
O12 Dy3 2.398 . S
O13 C1 1.355 . S
O13 Dy3 2.491 . S
O14 Dy3 2.403 1_455 S
O14 C9 1.254 . S
O15 Dy0 2.310 . S
O15 Dy3 2.664 1_455 S
O15 C9 1.268 . S
O16 Dy0 2.351 1_655 S
O16 C19 1.249 . S
O17 Dy3 2.326 . S
O17 C19 1.267 . S
C18 O10 1.249 . S
C18 O11 1.267 . S
C19 O16 1.249 . S
C19 O17 1.267 . S
Dy20 O24 2.398 . S
Dy20 O25 2.491 . S
Dy20 O26 2.403 . S
Dy20 O27 2.664 1_565 S
Dy20 O31 2.326 . S
Dy20 O35 2.310 1_565 S
Dy20 O36 2.351 1_565 S
C21 O32 1.185 . S
C21 O33 1.355 . S
C22 O24 1.185 . S
C22 O25 1.355 . S
Dy23 O27 2.310 . S
Dy23 O30 2.351 1_545 S
Dy23 O32 2.398 . S
Dy23 O33 2.491 . S
Dy23 O34 2.403 . S
Dy23 O35 2.664 . S
Dy23 O37 2.326 . S
O24 Dy20 2.398 . S
O24 C22 1.185 . S
O25 Dy20 2.491 . S
O25 C22 1.355 . S
O26 Dy20 2.403 . S
O26 C28 1.254 1_565 S
O27 Dy20 2.664 1_545 S
O27 Dy23 2.310 . S
O27 C28 1.268 . S
C28 O26 1.254 1_545 S
C28 O27 1.268 . S
C29 O34 1.254 . S
C29 O35 1.268 . S
O30 Dy23 2.351 1_565 S
O30 C38 1.249 . S
O31 Dy20 2.326 . S
O31 C38 1.267 . S
O32 C21 1.185 . S
O32 Dy23 2.398 . S
O33 C21 1.355 . S
O33 Dy23 2.491 . S
O34 Dy23 2.403 . S
O34 C29 1.254 . S
O35 Dy20 2.310 1_545 S
O35 Dy23 2.664 . S
O35 C29 1.268 . S
O36 Dy20 2.351 1_545 S
O36 C39 1.249 . S
O37 Dy23 2.326 . S
O37 C39 1.267 . S
C38 O30 1.249 . S
C38 O31 1.267 . S
C39 O36 1.249 . S
C39 O37 1.267 . S
Dy40 O44 2.398 . S
Dy40 O45 2.491 . S
Dy40 O46 2.403 . S
Dy40 O47 2.664 . S
Dy40 O51 2.326 . S
Dy40 O55 2.310 . S
Dy40 O56 2.351 . S
C41 O52 1.185 . S
C41 O53 1.355 . S
C42 O44 1.185 . S
C42 O45 1.355 . S
Dy43 O47 2.310 . S
Dy43 O50 2.351 . S
Dy43 O52 2.398 . S
Dy43 O53 2.491 . S
Dy43 O54 2.403 . S
Dy43 O55 2.664 . S
Dy43 O57 2.326 . S
O44 Dy40 2.398 . S
O44 C42 1.185 . S
O45 Dy40 2.491 . S
O45 C42 1.355 . S
O46 Dy40 2.403 . S
O46 C48 1.254 . S
O47 Dy40 2.664 . S
O47 Dy43 2.310 . S
O47 C48 1.268 . S
C48 O46 1.254 . S
C48 O47 1.268 . S
C49 O54 1.254 . S
C49 O55 1.268 . S
O50 Dy43 2.351 . S
O50 C58 1.249 . S
O51 Dy40 2.326 . S
O51 C58 1.267 . S
O52 C41 1.185 . S
O52 Dy43 2.398 . S
O53 C41 1.355 . S
O53 Dy43 2.491 . S
O54 Dy43 2.403 . S
O54 C49 1.254 . S
O55 Dy40 2.310 . S
O55 Dy43 2.664 . S
O55 C49 1.268 . S
O56 Dy40 2.351 . S
O56 C59 1.249 . S
O57 Dy43 2.326 . S
O57 C59 1.267 . S
C58 O50 1.249 . S
C58 O51 1.267 . S
C59 O56 1.249 . S
C59 O57 1.267 . S
H60 C63 0.929 . S
H61 C66 0.929 . S
H62 C68 0.930 . S
C63 H60 0.929 . S
C63 C64 1.398 . S
C63 C65 1.396 1_565 S
C64 C63 1.398 . S
C64 C68 1.407 . S
C65 C63 1.396 1_545 S
C65 C66 1.394 . S
C66 H61 0.929 . S
C66 C65 1.394 . S
C66 C67 1.382 . S
C67 C66 1.382 . S
C67 C68 1.392 1_545 S
C67 N69 1.420 . S
C68 H62 0.930 . S
C68 C64 1.407 . S
C68 C67 1.392 1_565 S
N69 C67 1.420 . S
N69 C70 1.244 . S
C70 N69 1.244 . S
H71 C74 0.929 . S
H72 C77 0.929 . S
H73 C79 0.930 . S
C74 H71 0.929 . S
C74 C75 1.398 . S
C74 C76 1.396 . S
C75 C74 1.398 . S
C75 C79 1.407 . S
C76 C74 1.396 . S
C76 C77 1.394 . S
C77 H72 0.929 . S
C77 C76 1.394 . S
C77 C78 1.382 . S
C78 C77 1.382 . S
C78 C79 1.392 . S
C78 N80 1.420 . S
C79 H73 0.930 . S
C79 C75 1.407 . S
C79 C78 1.392 . S
N80 C78 1.420 . S
N80 C81 1.244 . S
C81 N80 1.244 . S
H82 C85 0.929 1_655 S
H83 C88 0.929 . S
H84 C90 0.930 . S
C85 H82 0.929 1_455 S
C85 C86 1.398 . S
C85 C87 1.396 . S
C86 C85 1.398 . S
C86 C90 1.407 . S
C87 C85 1.396 . S
C87 C88 1.394 . S
C88 H83 0.929 . S
C88 C87 1.394 . S
C88 C89 1.382 . S
C89 C88 1.382 . S
C89 C90 1.392 . S
C89 N91 1.420 . S
C90 H84 0.930 . S
C90 C86 1.407 . S
C90 C89 1.392 . S
N91 C89 1.420 . S
N91 C92 1.244 . S
C92 N91 1.244 . S
H93 C96 0.929 . S
H94 C99 0.929 . S
H95 C101 0.930 . S
C96 H93 0.929 . S
C96 C97 1.398 . S
C96 C98 1.396 . S
C97 C96 1.398 . S
C97 C101 1.407 . S
C98 C96 1.396 . S
C98 C99 1.394 1_455 S
C99 H94 0.929 . S
C99 C98 1.394 1_655 S
C99 C100 1.382 . S
C100 C99 1.382 . S
C100 C101 1.392 1_655 S
C100 N102 1.420 . S
C101 H95 0.930 . S
C101 C97 1.407 . S
C101 C100 1.392 1_455 S
N102 C100 1.420 . S
N102 C103 1.244 . S
C103 N102 1.244 . S
H104 C107 0.929 . S
H105 C110 0.929 1_565 S
H106 C112 0.930 . S
C107 H104 0.929 . S
C107 C108 1.398 . S
C107 C109 1.396 . S
C108 C107 1.398 . S
C108 C112 1.407 . S
C109 C107 1.396 . S
C109 C110 1.394 . S
C110 H105 0.929 1_545 S
C110 C109 1.394 . S
C110 C111 1.382 . S
C111 C110 1.382 . S
C111 C112 1.392 . S
C111 N113 1.420 1_545 S
C112 H106 0.930 . S
C112 C108 1.407 . S
C112 C111 1.392 . S
N113 C111 1.420 1_565 S
N113 C114 1.244 . S
C114 N113 1.244 . S
H115 C118 0.929 . S
H116 C121 0.929 . S
H117 C123 0.930 . S
C118 H115 0.929 . S
C118 C119 1.398 . S
C118 C120 1.396 . S
C119 C118 1.398 . S
C119 C123 1.407 . S
C120 C118 1.396 . S
C120 C121 1.394 . S
C121 H116 0.929 . S
C121 C120 1.394 . S
C121 C122 1.382 . S
C122 C121 1.382 . S
C122 C123 1.392 . S
C122 N124 1.420 . S
C123 H117 0.930 . S
C123 C119 1.407 . S
C123 C122 1.392 . S
N124 C122 1.420 . S
N124 C125 1.244 . S
C125 N124 1.244 . S
C126 C127 1.391 . S
C126 C128 1.394 . S
C126 H142 0.931 . S
C127 C126 1.391 . S
C127 C131 1.376 . S
C128 C126 1.394 . S
C128 C129 1.369 . S
C128 C132 1.531 . S
C129 C128 1.369 . S
C129 C130 1.410 . S
C129 C137 1.503 . S
C130 C129 1.410 . S
C130 C131 1.392 . S
C130 C133 1.511 . S
C131 C127 1.376 . S
C131 C130 1.392 . S
C131 H143 0.929 . S
C132 C128 1.531 . S
C132 H144 0.960 . S
C132 H145 0.962 . S
C132 H146 0.960 . S
C133 C130 1.511 . S
C133 H147 0.961 . S
C133 H148 0.961 . S
C133 H149 0.961 . S
C134 C135 1.370 . S
C134 C136 1.363 . S
C134 H150 0.931 . S
C135 C134 1.370 . S
C135 C139 1.408 . S
C136 C134 1.363 . S
C136 C137 1.370 . S
C136 C140 1.524 . S
C137 C129 1.503 . S
C137 C136 1.370 . S
C137 C138 1.403 . S
C138 C137 1.403 . S
C138 C139 1.404 . S
C138 C141 1.539 . S
C139 C135 1.408 . S
C139 C138 1.404 . S
C139 H151 0.930 . S
C140 C136 1.524 . S
C140 H152 0.956 . S
C140 H153 0.961 . S
C140 H154 0.961 . S
C141 C138 1.539 . S
C141 H155 0.958 . S
C141 H156 0.961 . S
C141 H157 0.960 . S
H142 C126 0.931 . S
H143 C131 0.929 . S
H144 C132 0.960 . S
H145 C132 0.962 . S
H146 C132 0.960 . S
H147 C133 0.961 . S
H148 C133 0.961 . S
H149 C133 0.961 . S
H150 C134 0.931 . S
H151 C139 0.930 . S
H152 C140 0.956 . S
H153 C140 0.961 . S
H154 C140 0.961 . S
H155 C141 0.958 . S
H156 C141 0.961 . S
H157 C141 0.960 . S
C158 C159 1.391 . S
C158 C160 1.394 . S
C158 H174 0.931 . S
C159 C158 1.391 . S
C159 C163 1.376 . S
C160 C158 1.394 . S
C160 C161 1.369 . S
C160 C164 1.531 . S
C161 C160 1.369 . S
C161 C162 1.410 . S
C161 C169 1.503 . S
C162 C161 1.410 . S
C162 C163 1.392 . S
C162 C165 1.511 . S
C163 C159 1.376 . S
C163 C162 1.392 . S
C163 H175 0.929 . S
C164 C160 1.531 . S
C164 H176 0.960 . S
C164 H177 0.962 . S
C164 H178 0.960 . S
C165 C162 1.511 . S
C165 H179 0.961 . S
C165 H180 0.961 . S
C165 H181 0.961 . S
C166 C167 1.370 . S
C166 C168 1.363 . S
C166 H182 0.931 . S
C167 C166 1.370 . S
C167 C171 1.408 . S
C168 C166 1.363 . S
C168 C169 1.370 . S
C168 C172 1.524 . S
C169 C161 1.503 . S
C169 C168 1.370 . S
C169 C170 1.403 . S
C170 C169 1.403 . S
C170 C171 1.404 . S
C170 C173 1.539 . S
C171 C167 1.408 . S
C171 C170 1.404 . S
C171 H183 0.930 . S
C172 C168 1.524 . S
C172 H184 0.956 . S
C172 H185 0.961 . S
C172 H186 0.961 . S
C173 C170 1.539 . S
C173 H187 0.958 . S
C173 H188 0.961 . S
C173 H189 0.960 . S
H174 C158 0.931 . S
H175 C163 0.929 . S
H176 C164 0.960 . S
H177 C164 0.962 . S
H178 C164 0.960 . S
H179 C165 0.961 . S
H180 C165 0.961 . S
H181 C165 0.961 . S
H182 C166 0.931 . S
H183 C171 0.930 . S
H184 C172 0.956 . S
H185 C172 0.961 . S
H186 C172 0.961 . S
H187 C173 0.958 . S
H188 C173 0.961 . S
H189 C173 0.960 . S
C190 C191 1.391 . S
C190 C192 1.394 . S
C190 H206 0.931 . S
C191 C190 1.391 . S
C191 C195 1.376 . S
C192 C190 1.394 . S
C192 C193 1.369 . S
C192 C196 1.531 . S
C193 C192 1.369 . S
C193 C194 1.410 . S
C193 C201 1.503 . S
C194 C193 1.410 . S
C194 C195 1.392 . S
C194 C197 1.511 . S
C195 C191 1.376 . S
C195 C194 1.392 . S
C195 H207 0.929 . S
C196 C192 1.531 . S
C196 H208 0.960 . S
C196 H209 0.962 . S
C196 H210 0.960 . S
C197 C194 1.511 . S
C197 H211 0.961 . S
C197 H212 0.961 . S
C197 H213 0.961 . S
C198 C199 1.370 . S
C198 C200 1.363 . S
C198 H214 0.931 . S
C199 C198 1.370 . S
C199 C203 1.408 . S
C200 C198 1.363 . S
C200 C201 1.370 . S
C200 C204 1.524 . S
C201 C193 1.503 . S
C201 C200 1.370 . S
C201 C202 1.403 . S
C202 C201 1.403 . S
C202 C203 1.404 . S
C202 C205 1.539 . S
C203 C199 1.408 . S
C203 C202 1.404 . S
C203 H215 0.930 . S
C204 C200 1.524 . S
C204 H216 0.956 . S
C204 H217 0.961 . S
C204 H218 0.961 . S
C205 C202 1.539 . S
C205 H219 0.958 . S
C205 H220 0.961 . S
C205 H221 0.960 . S
H206 C190 0.931 . S
H207 C195 0.929 . S
H208 C196 0.960 . S
H209 C196 0.962 . S
H210 C196 0.960 . S
H211 C197 0.961 . S
H212 C197 0.961 . S
H213 C197 0.961 . S
H214 C198 0.931 . S
H215 C203 0.930 . S
H216 C204 0.956 . S
H217 C204 0.961 . S
H218 C204 0.961 . S
H219 C205 0.958 . S
H220 C205 0.961 . S
H221 C205 0.960 . S
C222 C223 1.391 . S
C222 C224 1.394 . S
C222 H238 0.931 . S
C223 C222 1.391 . S
C223 C227 1.376 . S
C224 C222 1.394 . S
C224 C225 1.369 . S
C224 C228 1.531 . S
C225 C224 1.369 . S
C225 C226 1.410 . S
C225 C233 1.503 . S
C226 C225 1.410 . S
C226 C227 1.392 . S
C226 C229 1.511 . S
C227 C223 1.376 . S
C227 C226 1.392 . S
C227 H239 0.929 . S
C228 C224 1.531 . S
C228 H240 0.960 . S
C228 H241 0.962 . S
C228 H242 0.960 . S
C229 C226 1.511 . S
C229 H243 0.961 . S
C229 H244 0.961 . S
C229 H245 0.961 . S
C230 C231 1.370 . S
C230 C232 1.363 . S
C230 H246 0.931 . S
C231 C230 1.370 . S
C231 C235 1.408 . S
C232 C230 1.363 . S
C232 C233 1.370 . S
C232 C236 1.524 . S
C233 C225 1.503 . S
C233 C232 1.370 . S
C233 C234 1.403 . S
C234 C233 1.403 . S
C234 C235 1.404 . S
C234 C237 1.539 . S
C235 C231 1.408 . S
C235 C234 1.404 . S
C235 H247 0.930 . S
C236 C232 1.524 . S
C236 H248 0.956 . S
C236 H249 0.961 . S
C236 H250 0.961 . S
C237 C234 1.539 . S
C237 H251 0.958 . S
C237 H252 0.961 . S
C237 H253 0.960 . S
H238 C222 0.931 . S
H239 C227 0.929 . S
H240 C228 0.960 . S
H241 C228 0.962 . S
H242 C228 0.960 . S
H243 C229 0.961 . S
H244 C229 0.961 . S
H245 C229 0.961 . S
H246 C230 0.931 . S
H247 C235 0.930 . S
H248 C236 0.956 . S
H249 C236 0.961 . S
H250 C236 0.961 . S
H251 C237 0.958 . S
H252 C237 0.961 . S
H253 C237 0.960 . S
C254 C255 1.391 . S
C254 C256 1.394 . S
C254 H270 0.931 . S
C255 C254 1.391 . S
C255 C259 1.376 . S
C256 C254 1.394 . S
C256 C257 1.369 . S
C256 C260 1.531 . S
C257 C256 1.369 . S
C257 C258 1.410 . S
C257 C265 1.503 . S
C258 C257 1.410 . S
C258 C259 1.392 . S
C258 C261 1.511 . S
C259 C255 1.376 . S
C259 C258 1.392 . S
C259 H271 0.929 . S
C260 C256 1.531 . S
C260 H272 0.960 . S
C260 H273 0.962 . S
C260 H274 0.960 . S
C261 C258 1.511 . S
C261 H275 0.961 . S
C261 H276 0.961 . S
C261 H277 0.961 . S
C262 C263 1.370 . S
C262 C264 1.363 . S
C262 H278 0.931 . S
C263 C262 1.370 . S
C263 C267 1.408 . S
C264 C262 1.363 . S
C264 C265 1.370 . S
C264 C268 1.524 . S
C265 C257 1.503 . S
C265 C264 1.370 . S
C265 C266 1.403 . S
C266 C265 1.403 . S
C266 C267 1.404 . S
C266 C269 1.539 . S
C267 C263 1.408 . S
C267 C266 1.404 . S
C267 H279 0.930 . S
C268 C264 1.524 . S
C268 H280 0.956 . S
C268 H281 0.961 . S
C268 H282 0.961 . S
C269 C266 1.539 . S
C269 H283 0.958 . S
C269 H284 0.961 . S
C269 H285 0.960 . S
H270 C254 0.931 . S
H271 C259 0.929 . S
H272 C260 0.960 . S
H273 C260 0.962 . S
H274 C260 0.960 . S
H275 C261 0.961 . S
H276 C261 0.961 . S
H277 C261 0.961 . S
H278 C262 0.931 . S
H279 C267 0.930 . S
H280 C268 0.956 . S
H281 C268 0.961 . S
H282 C268 0.961 . S
H283 C269 0.958 . S
H284 C269 0.961 . S
H285 C269 0.960 . S
C286 C287 1.391 . S
C286 C288 1.394 . S
C286 H302 0.931 . S
C287 C286 1.391 . S
C287 C291 1.376 . S
C288 C286 1.394 . S
C288 C289 1.369 . S
C288 C292 1.531 . S
C289 C288 1.369 . S
C289 C290 1.410 . S
C289 C297 1.503 . S
C290 C289 1.410 . S
C290 C291 1.392 . S
C290 C293 1.511 . S
C291 C287 1.376 . S
C291 C290 1.392 . S
C291 H303 0.929 . S
C292 C288 1.531 . S
C292 H304 0.960 . S
C292 H305 0.962 . S
C292 H306 0.960 . S
C293 C290 1.511 . S
C293 H307 0.961 . S
C293 H308 0.961 . S
C293 H309 0.961 . S
C294 C295 1.370 . S
C294 C296 1.363 . S
C294 H310 0.931 . S
C295 C294 1.370 . S
C295 C299 1.408 . S
C296 C294 1.363 . S
C296 C297 1.370 . S
C296 C300 1.524 . S
C297 C289 1.503 . S
C297 C296 1.370 . S
C297 C298 1.403 . S
C298 C297 1.403 . S
C298 C299 1.404 . S
C298 C301 1.539 . S
C299 C295 1.408 . S
C299 C298 1.404 . S
C299 H311 0.930 . S
C300 C296 1.524 . S
C300 H312 0.956 . S
C300 H313 0.961 . S
C300 H314 0.961 . S
C301 C298 1.539 . S
C301 H315 0.958 . S
C301 H316 0.961 . S
C301 H317 0.960 . S
H302 C286 0.931 . S
H303 C291 0.929 . S
H304 C292 0.960 . S
H305 C292 0.962 . S
H306 C292 0.960 . S
H307 C293 0.961 . S
H308 C293 0.961 . S
H309 C293 0.961 . S
H310 C294 0.931 . S
H311 C299 0.930 . S
H312 C300 0.956 . S
H313 C300 0.961 . S
H314 C300 0.961 . S
H315 C301 0.958 . S
H316 C301 0.961 . S
H317 C301 0.960 . S
C318 C319 1.391 . S
C318 C320 1.394 . S
C318 H334 0.931 . S
C319 C318 1.391 . S
C319 C323 1.376 . S
C320 C318 1.394 . S
C320 C321 1.369 . S
C320 C324 1.531 . S
C321 C320 1.369 . S
C321 C322 1.410 . S
C321 C329 1.503 . S
C322 C321 1.410 . S
C322 C323 1.392 . S
C322 C325 1.511 . S
C323 C319 1.376 . S
C323 C322 1.392 . S
C323 H335 0.929 . S
C324 C320 1.531 . S
C324 H336 0.960 . S
C324 H337 0.962 . S
C324 H338 0.960 . S
C325 C322 1.511 . S
C325 H339 0.961 . S
C325 H340 0.961 . S
C325 H341 0.961 . S
C326 C327 1.370 . S
C326 C328 1.363 . S
C326 H342 0.931 . S
C327 C326 1.370 . S
C327 C331 1.408 . S
C328 C326 1.363 . S
C328 C329 1.370 . S
C328 C332 1.524 . S
C329 C321 1.503 . S
C329 C328 1.370 . S
C329 C330 1.403 . S
C330 C329 1.403 . S
C330 C331 1.404 . S
C330 C333 1.539 . S
C331 C327 1.408 . S
C331 C330 1.404 . S
C331 H343 0.930 . S
C332 C328 1.524 . S
C332 H344 0.956 . S
C332 H345 0.961 . S
C332 H346 0.961 . S
C333 C330 1.539 . S
C333 H347 0.958 . S
C333 H348 0.961 . S
C333 H349 0.960 . S
H334 C318 0.931 . S
H335 C323 0.929 . S
H336 C324 0.960 . S
H337 C324 0.962 . S
H338 C324 0.960 . S
H339 C325 0.961 . S
H340 C325 0.961 . S
H341 C325 0.961 . S
H342 C326 0.931 . S
H343 C331 0.930 . S
H344 C332 0.956 . S
H345 C332 0.961 . S
H346 C332 0.961 . S
H347 C333 0.958 . S
H348 C333 0.961 . S
H349 C333 0.960 . S
C350 C351 1.391 . S
C350 C352 1.394 . S
C350 H366 0.931 . S
C351 C350 1.391 . S
C351 C355 1.376 . S
C352 C350 1.394 . S
C352 C353 1.369 . S
C352 C356 1.531 . S
C353 C352 1.369 . S
C353 C354 1.410 . S
C353 C361 1.503 . S
C354 C353 1.410 . S
C354 C355 1.392 . S
C354 C357 1.511 . S
C355 C351 1.376 . S
C355 C354 1.392 . S
C355 H367 0.929 . S
C356 C352 1.531 . S
C356 H368 0.960 . S
C356 H369 0.962 . S
C356 H370 0.960 . S
C357 C354 1.511 . S
C357 H371 0.961 . S
C357 H372 0.961 . S
C357 H373 0.961 . S
C358 C359 1.370 . S
C358 C360 1.363 . S
C358 H374 0.931 . S
C359 C358 1.370 . S
C359 C363 1.408 . S
C360 C358 1.363 . S
C360 C361 1.370 . S
C360 C364 1.524 . S
C361 C353 1.503 . S
C361 C360 1.370 . S
C361 C362 1.403 . S
C362 C361 1.403 . S
C362 C363 1.404 . S
C362 C365 1.539 . S
C363 C359 1.408 . S
C363 C362 1.404 . S
C363 H375 0.930 . S
C364 C360 1.524 . S
C364 H376 0.956 . S
C364 H377 0.961 . S
C364 H378 0.961 . S
C365 C362 1.539 . S
C365 H379 0.958 . S
C365 H380 0.961 . S
C365 H381 0.960 . S
H366 C350 0.931 . S
H367 C355 0.929 . S
H368 C356 0.960 . S
H369 C356 0.962 . S
H370 C356 0.960 . S
H371 C357 0.961 . S
H372 C357 0.961 . S
H373 C357 0.961 . S
H374 C358 0.931 . S
H375 C363 0.930 . S
H376 C364 0.956 . S
H377 C364 0.961 . S
H378 C364 0.961 . S
H379 C365 0.958 . S
H380 C365 0.961 . S
H381 C365 0.960 . S
C382 C383 1.391 . S
C382 C384 1.394 . S
C382 H398 0.931 . S
C383 C382 1.391 . S
C383 C387 1.376 . S
C384 C382 1.394 . S
C384 C385 1.369 . S
C384 C388 1.531 . S
C385 C384 1.369 . S
C385 C386 1.410 . S
C385 C393 1.503 . S
C386 C385 1.410 . S
C386 C387 1.392 . S
C386 C389 1.511 . S
C387 C383 1.376 . S
C387 C386 1.392 . S
C387 H399 0.929 . S
C388 C384 1.531 . S
C388 H400 0.960 . S
C388 H401 0.962 . S
C388 H402 0.960 . S
C389 C386 1.511 . S
C389 H403 0.961 . S
C389 H404 0.961 . S
C389 H405 0.961 . S
C390 C391 1.370 . S
C390 C392 1.363 . S
C390 H406 0.931 . S
C391 C390 1.370 . S
C391 C395 1.408 . S
C392 C390 1.363 . S
C392 C393 1.370 . S
C392 C396 1.524 . S
C393 C385 1.503 . S
C393 C392 1.370 . S
C393 C394 1.403 . S
C394 C393 1.403 . S
C394 C395 1.404 . S
C394 C397 1.539 . S
C395 C391 1.408 . S
C395 C394 1.404 . S
C395 H407 0.930 . S
C396 C392 1.524 . S
C396 H408 0.956 . S
C396 H409 0.961 . S
C396 H410 0.961 . S
C397 C394 1.539 . S
C397 H411 0.958 . S
C397 H412 0.961 . S
C397 H413 0.960 . S
H398 C382 0.931 . S
H399 C387 0.929 . S
H400 C388 0.960 . S
H401 C388 0.962 . S
H402 C388 0.960 . S
H403 C389 0.961 . S
H404 C389 0.961 . S
H405 C389 0.961 . S
H406 C390 0.931 . S
H407 C395 0.930 . S
H408 C396 0.956 . S
H409 C396 0.961 . S
H410 C396 0.961 . S
H411 C397 0.958 . S
H412 C397 0.961 . S
H413 C397 0.960 . S
C414 C415 1.391 . S
C414 C416 1.394 . S
C414 H430 0.931 . S
C415 C414 1.391 . S
C415 C419 1.376 . S
C416 C414 1.394 . S
C416 C417 1.369 . S
C416 C420 1.531 . S
C417 C416 1.369 . S
C417 C418 1.410 . S
C417 C425 1.503 . S
C418 C417 1.410 . S
C418 C419 1.392 . S
C418 C421 1.511 . S
C419 C415 1.376 . S
C419 C418 1.392 . S
C419 H431 0.929 . S
C420 C416 1.531 . S
C420 H432 0.960 . S
C420 H433 0.962 . S
C420 H434 0.960 . S
C421 C418 1.511 . S
C421 H435 0.961 . S
C421 H436 0.961 . S
C421 H437 0.961 . S
C422 C423 1.370 . S
C422 C424 1.363 . S
C422 H438 0.931 . S
C423 C422 1.370 . S
C423 C427 1.408 . S
C424 C422 1.363 . S
C424 C425 1.370 . S
C424 C428 1.524 . S
C425 C417 1.503 . S
C425 C424 1.370 . S
C425 C426 1.403 . S
C426 C425 1.403 . S
C426 C427 1.404 . S
C426 C429 1.539 . S
C427 C423 1.408 . S
C427 C426 1.404 . S
C427 H439 0.930 . S
C428 C424 1.524 . S
C428 H440 0.956 . S
C428 H441 0.961 . S
C428 H442 0.961 . S
C429 C426 1.539 . S
C429 H443 0.958 . S
C429 H444 0.961 . S
C429 H445 0.960 . S
H430 C414 0.931 . S
H431 C419 0.929 . S
H432 C420 0.960 . S
H433 C420 0.962 . S
H434 C420 0.960 . S
H435 C421 0.961 . S
H436 C421 0.961 . S
H437 C421 0.961 . S
H438 C422 0.931 . S
H439 C427 0.930 . S
H440 C428 0.956 . S
H441 C428 0.961 . S
H442 C428 0.961 . S
H443 C429 0.958 . S
H444 C429 0.961 . S
H445 C429 0.960 . S
C446 C447 1.391 . S
C446 C448 1.394 . S
C446 H462 0.931 . S
C447 C446 1.391 . S
C447 C451 1.376 . S
C448 C446 1.394 . S
C448 C449 1.369 . S
C448 C452 1.531 . S
C449 C448 1.369 . S
C449 C450 1.410 . S
C449 C457 1.503 . S
C450 C449 1.410 . S
C450 C451 1.392 . S
C450 C453 1.511 . S
C451 C447 1.376 . S
C451 C450 1.392 . S
C451 H463 0.929 . S
C452 C448 1.531 . S
C452 H464 0.960 . S
C452 H465 0.962 . S
C452 H466 0.960 . S
C453 C450 1.511 . S
C453 H467 0.961 . S
C453 H468 0.961 . S
C453 H469 0.961 . S
C454 C455 1.370 . S
C454 C456 1.363 . S
C454 H470 0.931 . S
C455 C454 1.370 . S
C455 C459 1.408 . S
C456 C454 1.363 . S
C456 C457 1.370 . S
C456 C460 1.524 . S
C457 C449 1.503 . S
C457 C456 1.370 . S
C457 C458 1.403 . S
C458 C457 1.403 . S
C458 C459 1.404 . S
C458 C461 1.539 . S
C459 C455 1.408 . S
C459 C458 1.404 . S
C459 H471 0.930 . S
C460 C456 1.524 . S
C460 H472 0.956 . S
C460 H473 0.961 . S
C460 H474 0.961 . S
C461 C458 1.539 . S
C461 H475 0.958 . S
C461 H476 0.961 . S
C461 H477 0.960 . S
H462 C446 0.931 . S
H463 C451 0.929 . S
H464 C452 0.960 . S
H465 C452 0.962 . S
H466 C452 0.960 . S
H467 C453 0.961 . S
H468 C453 0.961 . S
H469 C453 0.961 . S
H470 C454 0.931 . S
H471 C459 0.930 . S
H472 C460 0.956 . S
H473 C460 0.961 . S
H474 C460 0.961 . S
H475 C461 0.958 . S
H476 C461 0.961 . S
H477 C461 0.960 . S
C478 C479 1.391 . S
C478 C480 1.394 . S
C478 H494 0.931 . S
C479 C478 1.391 . S
C479 C483 1.376 . S
C480 C478 1.394 . S
C480 C481 1.369 . S
C480 C484 1.531 . S
C481 C480 1.369 . S
C481 C482 1.410 . S
C481 C489 1.503 . S
C482 C481 1.410 . S
C482 C483 1.392 . S
C482 C485 1.511 . S
C483 C479 1.376 . S
C483 C482 1.392 . S
C483 H495 0.929 . S
C484 C480 1.531 . S
C484 H496 0.960 . S
C484 H497 0.962 . S
C484 H498 0.960 . S
C485 C482 1.511 . S
C485 H499 0.961 . S
C485 H500 0.961 . S
C485 H501 0.961 . S
C486 C487 1.370 . S
C486 C488 1.363 . S
C486 H502 0.931 . S
C487 C486 1.370 . S
C487 C491 1.408 . S
C488 C486 1.363 . S
C488 C489 1.370 . S
C488 C492 1.524 . S
C489 C481 1.503 . S
C489 C488 1.370 . S
C489 C490 1.403 . S
C490 C489 1.403 . S
C490 C491 1.404 . S
C490 C493 1.539 . S
C491 C487 1.408 . S
C491 C490 1.404 . S
C491 H503 0.930 . S
C492 C488 1.524 . S
C492 H504 0.956 . S
C492 H505 0.961 . S
C492 H506 0.961 . S
C493 C490 1.539 . S
C493 H507 0.958 . S
C493 H508 0.961 . S
C493 H509 0.960 . S
H494 C478 0.931 . S
H495 C483 0.929 . S
H496 C484 0.960 . S
H497 C484 0.962 . S
H498 C484 0.960 . S
H499 C485 0.961 . S
H500 C485 0.961 . S
H501 C485 0.961 . S
H502 C486 0.931 . S
H503 C491 0.930 . S
H504 C492 0.956 . S
H505 C492 0.961 . S
H506 C492 0.961 . S
H507 C493 0.958 . S
H508 C493 0.961 . S
H509 C493 0.960 . S
C510 C511 1.391 . S
C510 C512 1.394 . S
C510 H526 0.931 . S
C511 C510 1.391 . S
C511 C515 1.376 . S
C512 C510 1.394 . S
C512 C513 1.369 . S
C512 C516 1.531 . S
C513 C512 1.369 . S
C513 C514 1.410 . S
C513 C521 1.503 1_554 S
C514 C513 1.410 . S
C514 C515 1.392 . S
C514 C517 1.511 . S
C515 C511 1.376 . S
C515 C514 1.392 . S
C515 H527 0.929 . S
C516 C512 1.531 . S
C516 H528 0.960 . S
C516 H529 0.962 . S
C516 H530 0.960 . S
C517 C514 1.511 . S
C517 H531 0.961 . S
C517 H532 0.961 . S
C517 H533 0.961 . S
C518 C519 1.370 . S
C518 C520 1.363 . S
C518 H534 0.931 1_455 S
C519 C518 1.370 . S
C519 C523 1.408 . S
C520 C518 1.363 . S
C520 C521 1.370 . S
C520 C524 1.524 1_455 S
C521 C513 1.503 1_556 S
C521 C520 1.370 . S
C521 C522 1.403 . S
C522 C521 1.403 . S
C522 C523 1.404 . S
C522 C525 1.539 1_556 S
C523 C519 1.408 . S
C523 C522 1.404 . S
C523 H535 0.930 . S
C524 C520 1.524 1_655 S
C524 H536 0.956 1_556 S
C524 H537 0.961 1_556 S
C524 H538 0.961 . S
C525 C522 1.539 1_554 S
C525 H539 0.958 . S
C525 H540 0.961 1_554 S
C525 H541 0.960 . S
H526 C510 0.931 . S
H527 C515 0.929 . S
H528 C516 0.960 . S
H529 C516 0.962 . S
H530 C516 0.960 . S
H531 C517 0.961 . S
H532 C517 0.961 . S
H533 C517 0.961 . S
H534 C518 0.931 1_655 S
H535 C523 0.930 . S
H536 C524 0.956 1_554 S
H537 C524 0.961 1_554 S
H538 C524 0.961 . S
H539 C525 0.958 . S
H540 C525 0.961 1_556 S
H541 C525 0.960 . S
C542 C543 1.391 . S
C542 C544 1.394 . S
C542 H558 0.931 . S
C543 C542 1.391 . S
C543 C547 1.376 . S
C544 C542 1.394 . S
C544 C545 1.374 1_545 S
C544 C548 1.531 . S
C545 C544 1.374 1_565 S
C545 C546 1.403 . S
C545 C553 1.503 1_565 S
C546 C545 1.403 . S
C546 C547 1.392 1_565 S
C546 C549 1.511 . S
C547 C543 1.376 . S
C547 C546 1.392 1_545 S
C547 H559 0.929 . S
C548 C544 1.531 . S
C548 H560 0.960 1_545 S
C548 H561 0.962 . S
C548 H562 0.960 1_545 S
C549 C546 1.511 . S
C549 H563 0.961 1_565 S
C549 H564 0.961 1_565 S
C549 H565 0.961 . S
C550 C551 1.370 . S
C550 C552 1.363 . S
C550 H566 0.931 . S
C551 C550 1.370 . S
C551 C555 1.408 1_545 S
C552 C550 1.363 . S
C552 C553 1.370 . S
C552 C556 1.524 . S
C553 C545 1.503 1_545 S
C553 C552 1.370 . S
C553 C554 1.403 1_545 S
C554 C553 1.403 1_565 S
C554 C555 1.404 . S
C554 C557 1.539 . S
C555 C551 1.408 1_565 S
C555 C554 1.404 . S
C555 H567 0.930 . S
C556 C552 1.524 . S
C556 H568 0.956 . S
C556 H569 0.961 . S
C556 H570 0.961 . S
C557 C554 1.539 . S
C557 H571 0.958 . S
C557 H572 0.961 . S
C557 H573 0.960 . S
H558 C542 0.931 . S
H559 C547 0.929 . S
H560 C548 0.960 1_565 S
H561 C548 0.962 . S
H562 C548 0.960 1_565 S
H563 C549 0.961 1_545 S
H564 C549 0.961 1_545 S
H565 C549 0.961 . S
H566 C550 0.931 . S
H567 C555 0.930 . S
H568 C556 0.956 . S
H569 C556 0.961 . S
H570 C556 0.961 . S
H571 C557 0.958 . S
H572 C557 0.961 . S
H573 C557 0.960 . S
C574 C575 1.391 . S
C574 C576 1.394 . S
C574 H590 0.931 . S
C575 C574 1.391 . S
C575 C579 1.376 . S
C576 C574 1.394 . S
C576 C577 1.369 . S
C576 C580 1.531 . S
C577 C576 1.369 . S
C577 C578 1.410 . S
C577 C585 1.503 . S
C578 C577 1.410 . S
C578 C579 1.392 . S
C578 C581 1.511 . S
C579 C575 1.376 . S
C579 C578 1.392 . S
C579 H591 0.929 . S
C580 C576 1.531 . S
C580 H592 0.960 . S
C580 H593 0.962 . S
C580 H594 0.960 . S
C581 C578 1.511 . S
C581 H595 0.961 . S
C581 H596 0.961 . S
C581 H597 0.961 . S
C582 C583 1.370 . S
C582 C584 1.363 . S
C582 H598 0.931 . S
C583 C582 1.370 . S
C583 C587 1.408 . S
C584 C582 1.363 . S
C584 C585 1.370 . S
C584 C588 1.524 . S
C585 C577 1.503 . S
C585 C584 1.370 . S
C585 C586 1.403 . S
C586 C585 1.403 . S
C586 C587 1.404 . S
C586 C589 1.539 . S
C587 C583 1.408 . S
C587 C586 1.404 . S
C587 H599 0.930 . S
C588 C584 1.524 . S
C588 H600 0.956 . S
C588 H601 0.961 . S
C588 H602 0.961 . S
C589 C586 1.539 . S
C589 H603 0.958 . S
C589 H604 0.961 . S
C589 H605 0.960 . S
H590 C574 0.931 . S
H591 C579 0.929 . S
H592 C580 0.960 . S
H593 C580 0.962 . S
H594 C580 0.960 . S
H595 C581 0.961 . S
H596 C581 0.961 . S
H597 C581 0.961 . S
H598 C582 0.931 . S
H599 C587 0.930 . S
H600 C588 0.956 . S
H601 C588 0.961 . S
H602 C588 0.961 . S
H603 C589 0.958 . S
H604 C589 0.961 . S
H605 C589 0.960 . S
C606 C607 1.391 . S
C606 C608 1.394 . S
C606 H622 0.931 . S
C607 C606 1.391 . S
C607 C611 1.376 . S
C608 C606 1.394 . S
C608 C609 1.369 . S
C608 C612 1.531 1_545 S
C609 C608 1.369 . S
C609 C610 1.410 . S
C609 C617 1.503 . S
C610 C609 1.410 . S
C610 C611 1.392 . S
C610 C613 1.511 . S
C611 C607 1.376 . S
C611 C610 1.392 . S
C611 H623 0.929 . S
C612 C608 1.531 1_565 S
C612 H624 0.962 . S
C612 H625 0.959 1_565 S
C612 H626 0.961 . S
C613 C610 1.511 . S
C613 H627 0.961 . S
C613 H628 0.961 . S
C613 H629 0.961 . S
C614 C615 1.370 . S
C614 C616 1.363 . S
C614 H630 0.931 . S
C615 C614 1.370 . S
C615 C619 1.408 1_545 S
C616 C614 1.363 . S
C616 C617 1.370 . S
C616 C620 1.524 . S
C617 C609 1.503 . S
C617 C616 1.370 . S
C617 C618 1.403 1_545 S
C618 C617 1.403 1_565 S
C618 C619 1.404 . S
C618 C621 1.539 . S
C619 C615 1.408 1_565 S
C619 C618 1.404 . S
C619 H631 0.930 . S
C620 C616 1.524 . S
C620 H632 0.956 . S
C620 H633 0.961 . S
C620 H634 0.961 . S
C621 C618 1.539 . S
C621 H635 0.958 . S
C621 H636 0.961 . S
C621 H637 0.960 . S
H622 C606 0.931 . S
H623 C611 0.929 . S
H624 C612 0.962 . S
H625 C612 0.959 1_545 S
H626 C612 0.961 . S
H627 C613 0.961 . S
H628 C613 0.961 . S
H629 C613 0.961 . S
H630 C614 0.931 . S
H631 C619 0.930 . S
H632 C620 0.956 . S
H633 C620 0.961 . S
H634 C620 0.961 . S
H635 C621 0.958 . S
H636 C621 0.961 . S
H637 C621 0.960 . S
C638 C639 1.391 . S
C638 C640 1.394 . S
C638 H654 0.931 . S
C639 C638 1.391 . S
C639 C643 1.376 . S
C640 C638 1.394 . S
C640 C641 1.369 . S
C640 C644 1.531 . S
C641 C640 1.369 . S
C641 C642 1.410 . S
C641 C649 1.503 1_556 S
C642 C641 1.410 . S
C642 C643 1.392 . S
C642 C645 1.511 . S
C643 C639 1.376 . S
C643 C642 1.392 . S
C643 H655 0.929 . S
C644 C640 1.531 . S
C644 H656 0.960 1_556 S
C644 H657 0.962 . S
C644 H658 0.960 . S
C645 C642 1.511 . S
C645 H659 0.961 . S
C645 H660 0.961 . S
C645 H661 0.961 . S
C646 C647 1.370 . S
C646 C648 1.363 . S
C646 H662 0.931 . S
C647 C646 1.370 . S
C647 C651 1.408 . S
C648 C646 1.363 . S
C648 C649 1.370 . S
C648 C652 1.524 1_554 S
C649 C641 1.503 1_554 S
C649 C648 1.370 . S
C649 C650 1.403 . S
C650 C649 1.403 . S
C650 C651 1.404 . S
C650 C653 1.539 . S
C651 C647 1.408 . S
C651 C650 1.404 . S
C651 H663 0.930 . S
C652 C648 1.524 1_556 S
C652 H664 0.956 . S
C652 H665 0.961 . S
C652 H666 0.961 1_556 S
C653 C650 1.539 . S
C653 H667 0.958 . S
C653 H668 0.961 . S
C653 H669 0.960 1_554 S
H654 C638 0.931 . S
H655 C643 0.929 . S
H656 C644 0.960 1_554 S
H657 C644 0.962 . S
H658 C644 0.960 . S
H659 C645 0.961 . S
H660 C645 0.961 . S
H661 C645 0.961 . S
H662 C646 0.931 . S
H663 C651 0.930 . S
H664 C652 0.956 . S
H665 C652 0.961 . S
H666 C652 0.961 1_554 S
H667 C653 0.958 . S
H668 C653 0.961 . S
H669 C653 0.960 1_556 S
C670 C671 1.391 . S
C670 C672 1.394 . S
C670 H686 0.931 . S
C671 C670 1.391 . S
C671 C675 1.376 . S
C672 C670 1.394 . S
C672 C673 1.369 . S
C672 C676 1.531 . S
C673 C672 1.369 . S
C673 C674 1.410 . S
C673 C681 1.503 . S
C674 C673 1.410 . S
C674 C675 1.392 . S
C674 C677 1.511 1_455 S
C675 C671 1.376 . S
C675 C674 1.392 . S
C675 H687 0.929 . S
C676 C672 1.531 . S
C676 H688 0.960 . S
C676 H689 0.962 . S
C676 H690 0.960 . S
C677 C674 1.511 1_655 S
C677 H691 0.961 . S
C677 H692 0.961 . S
C677 H693 0.960 1_655 S
C678 C679 1.370 1_655 S
C678 C680 1.363 . S
C678 H694 0.931 . S
C679 C678 1.370 1_455 S
C679 C683 1.408 . S
C680 C678 1.363 . S
C680 C681 1.370 1_655 S
C680 C684 1.524 . S
C681 C673 1.503 . S
C681 C680 1.370 1_455 S
C681 C682 1.403 . S
C682 C681 1.403 . S
C682 C683 1.404 . S
C682 C685 1.539 . S
C683 C679 1.408 . S
C683 C682 1.404 . S
C683 H695 0.930 . S
C684 C680 1.524 . S
C684 H696 0.956 . S
C684 H697 0.961 . S
C684 H698 0.961 . S
C685 C682 1.539 . S
C685 H699 0.958 . S
C685 H700 0.961 . S
C685 H701 0.960 . S
H686 C670 0.931 . S
H687 C675 0.929 . S
H688 C676 0.960 . S
H689 C676 0.962 . S
H690 C676 0.960 . S
H691 C677 0.961 . S
H692 C677 0.961 . S
H693 C677 0.960 1_455 S
H694 C678 0.931 . S
H695 C683 0.930 . S
H696 C684 0.956 . S
H697 C684 0.961 . S
H698 C684 0.961 . S
H699 C685 0.958 . S
H700 C685 0.961 . S
H701 C685 0.960 . S
C127 C2 1.114 . S
C135 C125 1.142 . S
C159 C21 1.045 . S
C167 C103 1.043 . S
C191 C42 1.126 . S
C199 C114 1.090 . S
C223 C1 0.948 . S
C231 C119 0.933 . S
C263 C97 0.986 . S
C255 C22 0.972 . S
C295 C108 0.933 . S
C287 C41 0.931 . S
C319 C38 1.906 . S
C327 C81 1.882 . S
C351 C59 1.860 . S
C359 C86 1.836 1_655 S
C383 C18 1.778 . S
C391 C64 1.763 . S
C423 C75 1.822 . S
C415 C39 1.862 . S
C455 C92 1.882 . S
C447 C58 1.918 . S
C479 C19 1.992 . S
C487 C70 1.952 . S
C519 C87 1.572 . S
C511 C9 1.544 . S
C543 C29 1.540 . S
C551 C65 1.615 . S
C575 C49 1.564 . S
C583 C76 1.592 . S
C615 C109 1.501 . S
C607 C28 1.463 . S
C647 C120 1.474 . S
C639 C48 1.407 . S
C671 C8 1.397 . S
C679 C98 1.436 . S
