# Generated by pormake.
# Topology pth, (4,4)-cn, num edge types: 1
# Building blocks:
#     Node 0, Type 0, BuildingBlock: GALJAG_clean_sbu_0, # of connection points: 4
#     Node 1, Type 0, BuildingBlock: GALJAG_clean_sbu_0, # of connection points: 4
#     Node 2, Type 0, BuildingBlock: GALJAG_clean_sbu_0, # of connection points: 4
#     Node 3, Type 1, BuildingBlock: MIFKUJ_clean_linker_1, # of connection points: 4
#     Node 4, Type 1, BuildingBlock: MIFKUJ_clean_linker_1, # of connection points: 4
#     Node 5, Type 1, BuildingBlock: MIFKUJ_clean_linker_1, # of connection points: 4
#     Edge 6, Type (0, 1), BuildingBlock: UVAHIK_clean_linker_0, # of connection points: 2
#     Edge 7, Type (0, 1), BuildingBlock: UVAHIK_clean_linker_0, # of connection points: 2
#     Edge 8, Type (0, 1), BuildingBlock: UVAHIK_clean_linker_0, # of connection points: 2
#     Edge 9, Type (0, 1), BuildingBlock: UVAHIK_clean_linker_0, # of connection points: 2
#     Edge 10, Type (0, 1), BuildingBlock: UVAHIK_clean_linker_0, # of connection points: 2
#     Edge 11, Type (0, 1), BuildingBlock: UVAHIK_clean_linker_0, # of connection points: 2
#     Edge 12, Type (0, 1), BuildingBlock: UVAHIK_clean_linker_0, # of connection points: 2
#     Edge 13, Type (0, 1), BuildingBlock: UVAHIK_clean_linker_0, # of connection points: 2
#     Edge 14, Type (0, 1), BuildingBlock: UVAHIK_clean_linker_0, # of connection points: 2
#     Edge 15, Type (0, 1), BuildingBlock: UVAHIK_clean_linker_0, # of connection points: 2
#     Edge 16, Type (0, 1), BuildingBlock: UVAHIK_clean_linker_0, # of connection points: 2
#     Edge 17, Type (0, 1), BuildingBlock: UVAHIK_clean_linker_0, # of connection points: 2
# Relax obj value: 0.002
# Max RMSD: 0.043
# Mean RMSD: 0.028
data_MOF--net-pth--node1-GALJAG_clean_sbu_0--node2-MIFKUJ_clean_linker_1--edge1-UVAHIK_clean_linker_0
_symmetry_space_group_name_H-M    P1
_symmetry_Int_Tables_number       1
_symmetry_cell_setting            triclinic
loop_
_symmetry_equiv_pos_as_xyz
'x, y, z'
_cell_length_a     37.543474
_cell_length_b     37.553119
_cell_length_c     77.489043
_cell_angle_alpha  90.166885
_cell_angle_beta   90.078522
_cell_angle_gamma 120.00514
loop_
_atom_site_label
_atom_site_type_symbol
_atom_site_fract_x
_atom_site_fract_y
_atom_site_fract_z
_atom_type_partial_charge
In0 In -0.00189 0.00051 0.03641 0.0
O1 O 0.97017 0.04035 0.04358 0.0
O2 O 0.01551 0.04121 0.06034 0.0
C3 C 0.93687 0.94645 0.01559 0.0
C4 C 0.06011 0.05579 0.01661 0.0
C5 C 0.00575 0.94674 0.05686 0.0
O6 O 0.93003 0.96025 0.02928 0.0
O7 O 0.97437 0.96009 0.0124 0.0
O8 O 0.02871 0.96325 0.04398 0.0
O9 O 0.9793 0.95752 0.0594 0.0
C10 C 0.99123 0.05445 0.05719 0.0
O11 O 0.06527 0.03385 0.02753 0.0
O12 O 0.02396 0.04973 0.01576 0.0
In13 In -0.00413 0.00167 0.36941 0.0
O14 O 0.03252 0.06479 0.35669 0.0
O15 O 0.97054 0.02601 0.34877 0.0
C16 C 0.05215 0.0046 0.39191 0.0
C17 C 0.93803 -0.0028 0.39138 0.0
C18 C 0.991 0.94407 0.34712 0.0
O19 O 0.05771 0.0357 0.38349 0.0
O20 O 0.01818 0.97241 0.38911 0.0
O21 O 0.96021 0.93973 0.35547 0.0
O22 O 0.02384 0.97748 0.3499 0.0
C23 C 0.00318 0.06012 0.34715 0.0
O24 O 0.93242 0.9672 0.38205 0.0
O25 O 0.97275 0.02906 0.3897 0.0
In26 In -0.005 -0.0012 0.7033 0.0
O27 O 0.97133 0.93856 0.7181 0.0
O28 O 0.93804 0.97052 0.7202 0.0
C29 C 0.05032 0.99134 0.6836 0.0
C30 C 0.94415 0.0056 0.68053 0.0
C31 C 0.04503 0.05924 0.72531 0.0
O32 O 0.01949 0.96054 0.69005 0.0
O33 O 0.05292 0.02535 0.68705 0.0
O34 O 0.03388 0.0664 0.71099 0.0
O35 O 0.03039 0.02164 0.72867 0.0
C36 C 0.9409 0.93963 0.72447 0.0
O37 O 0.96102 0.03054 0.69287 0.0
O38 O 0.95327 0.97758 0.67959 0.0
H39 H 0.05097 0.47517 0.16779 0.0
H40 H 0.04813 0.41949 0.15023 0.0
H41 H 0.94488 0.33065 0.18001 0.0
H42 H 0.94625 0.38635 0.197 0.0
H43 H 0.00222 0.50245 0.17093 0.0
H44 H 0.05816 0.44883 0.2117 0.0
H45 H 0.06176 0.39556 0.22843 0.0
H46 H 0.94714 0.36531 0.25331 0.0
H47 H 0.94329 0.41809 0.23628 0.0
H48 H 0.93794 0.5244 0.23514 0.0
H49 H 0.93567 0.57816 0.25207 0.0
H50 H 0.04689 0.66976 0.22711 0.0
H51 H 0.05022 0.61561 0.21102 0.0
H52 H 0.99342 0.5 0.23481 0.0
H53 H 0.94061 0.55663 0.19088 0.0
H54 H 0.94321 0.61174 0.17319 0.0
H55 H 0.06459 0.6426 0.15558 0.0
H56 H 0.06097 0.5866 0.17281 0.0
C57 C -0.00083 0.43507 0.1839 0.0
C58 C 0.02758 0.44376 0.17053 0.0
C59 C 0.02603 0.41201 0.16053 0.0
C60 C -0.00359 0.37095 0.16387 0.0
C61 C 0.96829 0.3621 0.17735 0.0
C62 C 0.96928 0.39392 0.18712 0.0
C63 C -0.0003 0.46915 0.19395 0.0
C64 C 0.00088 0.50206 0.18492 0.0
C65 C -0.00238 0.46878 0.21221 0.0
C66 C 0.00025 0.43713 0.22263 0.0
C67 C 0.03372 0.43058 0.22071 0.0
C68 C 0.03591 0.40037 0.23036 0.0
C69 C 0.00467 0.37618 0.24214 0.0
C70 C 0.9714 0.38311 0.24417 0.0
C71 C 0.96932 0.41345 0.23456 0.0
C72 C 0.99396 0.56596 0.22165 0.0
C73 C 0.9619 0.55608 0.23337 0.0
C74 C 0.96042 0.58694 0.24291 0.0
C75 C 0.99098 0.62841 0.24092 0.0
C76 C 0.02306 0.63817 0.22914 0.0
C77 C 0.02472 0.60725 0.21973 0.0
C78 C -0.00443 0.53289 0.21175 0.0
C79 C 0.99479 0.50021 0.22083 0.0
C80 C -0.0009 0.53397 0.19356 0.0
C81 C 0.00062 0.56767 0.18314 0.0
C82 C 0.96773 0.57538 0.1832 0.0
C83 C 0.96941 0.60705 0.17315 0.0
C84 C 0.00412 0.63167 0.16291 0.0
C85 C 0.03707 0.62384 0.16302 0.0
C86 C 0.03518 0.59199 0.17293 0.0
H87 H 0.57625 0.0535 0.50409 0.0
H88 H 0.63112 0.05383 0.487 0.0
H89 H 0.60384 0.93786 0.50968 0.0
H90 H 0.54944 0.93807 0.52687 0.0
H91 H 0.49455 -0.00022 0.50455 0.0
H92 H 0.60514 0.05259 0.54517 0.0
H93 H 0.66173 0.05554 0.56191 0.0
H94 H 0.57766 0.93796 0.58468 0.0
H95 H 0.52108 0.93562 0.56808 0.0
H96 H 0.41022 0.93256 0.56884 0.0
H97 H 0.35537 0.93022 0.58657 0.0
H98 H 0.37589 0.04363 0.56351 0.0
H99 H 0.43195 0.0467 0.54639 0.0
H100 H 0.49029 0.98741 0.56834 0.0
H101 H 0.37767 0.93976 0.52808 0.0
H102 H 0.32326 0.9426 0.51198 0.0
H103 H 0.4144 0.05436 0.48721 0.0
H104 H 0.46829 0.0526 0.50415 0.0
C105 C 0.55901 0.99596 0.51684 0.0
C106 C 0.58212 0.02816 0.50535 0.0
C107 C 0.61337 0.02821 0.49555 0.0
C108 C 0.62191 0.99587 0.49698 0.0
C109 C 0.59855 0.96357 0.50848 0.0
C110 C 0.56736 0.96358 0.51828 0.0
C111 C 0.52573 0.99584 0.52717 0.0
C112 C 0.49382 -0.00236 0.51852 0.0
C113 C 0.52455 0.99239 0.54534 0.0
C114 C 0.55897 0.99374 0.55529 0.0
C115 C 0.59899 0.02732 0.55367 0.0
C116 C 0.63134 0.02889 0.56322 0.0
C117 C 0.62427 -0.00305 0.57462 0.0
C118 C 0.58409 0.96334 0.5762 0.0
C119 C 0.55173 0.96186 0.56668 0.0
C120 C 0.42497 0.9896 0.55618 0.0
C121 C 0.40296 0.95698 0.56766 0.0
C122 C 0.37132 0.95548 0.57766 0.0
C123 C 0.36105 0.98663 0.57642 0.0
C124 C 0.38323 0.01933 0.56491 0.0
C125 C 0.41502 0.02092 0.55498 0.0
C126 C 0.45878 0.99109 0.54574 0.0
C127 C 0.49087 0.98952 0.55437 0.0
C128 C 0.46028 0.99526 0.52754 0.0
C129 C 0.42705 0.9963 0.51753 0.0
C130 C 0.38586 0.9652 0.51937 0.0
C131 C 0.3548 0.9666 0.50997 0.0
C132 C 0.36435 -0.00123 0.49828 0.0
C133 C 0.40575 0.02955 0.49631 0.0
C134 C 0.43671 0.02835 0.50585 0.0
H135 H 0.47312 0.41656 0.83431 0.0
H136 H 0.41694 0.36361 0.81689 0.0
H137 H 0.32904 0.3795 0.84685 0.0
H138 H 0.38514 0.43375 0.86369 0.0
H139 H 0.50144 0.49333 0.83787 0.0
H140 H 0.44687 0.3827 0.87867 0.0
H141 H 0.39399 0.32634 0.8958 0.0
H142 H 0.3628 0.41114 0.91978 0.0
H143 H 0.41539 0.46723 0.90251 0.0
H144 H 0.52138 0.58146 0.9001 0.0
H145 H 0.57399 0.63823 0.91717 0.0
H146 H 0.66542 0.61004 0.89816 0.0
H147 H 0.61265 0.55406 0.88072 0.0
H148 H 0.49753 0.49811 0.90178 0.0
H149 H 0.55806 0.60973 0.86102 0.0
H150 H 0.61443 0.66425 0.84471 0.0
H151 H 0.63729 0.57393 0.82031 0.0
H152 H 0.58218 0.51985 0.83733 0.0
C153 C 0.43347 0.4288 0.85053 0.0
C154 C 0.4418 0.40882 0.83711 0.0
C155 C 0.40976 0.37857 0.82719 0.0
C156 C 0.36879 0.36742 0.83066 0.0
C157 C 0.36037 0.38719 0.84411 0.0
C158 C 0.39244 0.418 0.85379 0.0
C159 C 0.46768 0.46194 0.86071 0.0
C160 C 0.50088 0.49391 0.85186 0.0
C161 C 0.4669 0.46324 0.87896 0.0
C162 C 0.43481 0.42905 0.88924 0.0
C163 C 0.42847 0.38905 0.88755 0.0
C164 C 0.3985 0.35699 0.89742 0.0
C165 C 0.37426 0.36438 0.90909 0.0
C166 C 0.38073 0.40448 0.91075 0.0
C167 C 0.4109 0.43656 0.90099 0.0
C168 C 0.5632 0.56375 0.88911 0.0
C169 C 0.5528 0.58762 0.89962 0.0
C170 C 0.58291 0.61992 0.90943 0.0
C171 C 0.62399 0.62868 0.90911 0.0
C172 C 0.63426 0.6046 0.89854 0.0
C173 C 0.60413 0.57246 0.88862 0.0
C174 C 0.53089 0.52931 0.87892 0.0
C175 C 0.49812 0.49719 0.88779 0.0
C176 C 0.53255 0.52755 0.86072 0.0
C177 C 0.56628 0.56075 0.8506 0.0
C178 C 0.57559 0.60175 0.85234 0.0
C179 C 0.60754 0.63285 0.84283 0.0
C180 C 0.6305 0.62353 0.83119 0.0
C181 C 0.62075 0.58234 0.82935 0.0
C182 C 0.58896 0.5513 0.83894 0.0
C183 C 0.97219 0.10865 0.06199 0.0
C184 C 0.9885 0.0848 0.06838 0.0
C185 C 0.97147 0.1388 0.07237 0.0
C186 C 0.96852 0.16842 0.11665 0.0
H187 H 0.02325 0.28055 0.09987 0.0
C188 C -0.00501 0.30398 0.1606 0.0
C189 C 0.99426 0.33749 0.15303 0.0
C190 C 0.99346 0.27264 0.15028 0.0
C191 C 0.00711 0.24936 0.10468 0.0
H192 H 0.01579 0.07284 0.09069 0.0
H193 H 0.01336 0.12482 0.10901 0.0
H194 H 0.02017 0.22598 0.08173 0.0
H195 H 0.99023 0.36429 0.12895 0.0
H196 H 0.98566 0.30887 0.11093 0.0
H197 H 0.95411 0.19109 0.13934 0.0
C198 C 0.00163 0.12044 0.09593 0.0
C199 C 0.00561 0.21818 0.09429 0.0
C200 C 0.00316 0.09091 0.08544 0.0
C201 C 0.99135 0.33892 0.13503 0.0
C202 C 0.989 0.30724 0.12473 0.0
C203 C 0.96927 0.19944 0.12693 0.0
C204 C 0.98622 0.14493 0.08941 0.0
C205 C 0.98655 0.17755 0.10023 0.0
C206 C 0.99035 0.27376 0.13219 0.0
C207 C 0.98882 0.24044 0.12114 0.0
H208 H 0.9608 0.10462 0.04887 0.0
H209 H 0.95931 0.15727 0.06711 0.0
H210 H 0.95338 0.13717 0.12144 0.0
H211 H -0.00248 0.30245 0.17447 0.0
H212 H -0.0046 0.24791 0.15653 0.0
C213 C 0.86793 0.9597 0.40468 0.0
C214 C 0.90621 0.9958 0.40301 0.0
C215 C 0.83749 0.95906 0.41528 0.0
C216 C 0.80485 0.02784 0.43452 0.0
H217 H 0.73851 0.93521 0.46434 0.0
C218 C 0.66018 0.00822 0.46905 0.0
C219 C 0.65476 0.9956 0.48638 0.0
C220 C 0.69095 0.0079 0.45906 0.0
C221 C 0.75696 0.9614 0.45615 0.0
H222 H 0.9429 0.05934 0.41129 0.0
H223 H 0.8899 0.05818 0.4298 0.0
H224 H 0.79265 0.93528 0.44685 0.0
H225 H 0.67788 0.9732 0.50684 0.0
H226 H 0.73143 0.97237 0.48933 0.0
H227 H 0.76951 0.05417 0.44392 0.0
C228 C 0.88321 0.03049 0.4228 0.0
C229 C 0.78767 0.96125 0.44602 0.0
C230 C 0.91364 0.03108 0.41227 0.0
C231 C 0.6808 0.98253 0.49346 0.0
C232 C 0.71151 0.98207 0.48344 0.0
C233 C 0.77405 0.02789 0.44458 0.0
C234 C 0.84469 0.99458 0.42434 0.0
C235 C 0.81199 0.99451 0.43511 0.0
C236 C 0.71696 0.99482 0.46614 0.0
C237 C 0.74976 0.99469 0.45551 0.0
H238 H 0.86134 0.93205 0.39767 0.0
H239 H 0.80799 0.93102 0.41608 0.0
H240 H 0.82279 0.05373 0.42612 0.0
H241 H 0.6402 0.01778 0.4631 0.0
H242 H 0.69398 0.01732 0.4457 0.0
C243 C 0.91656 0.87507 0.74161 0.0
C244 C 0.91078 0.90735 0.73598 0.0
C245 C 0.88784 0.84464 0.75251 0.0
C246 C 0.80253 0.82351 0.78253 0.0
H247 H 0.77192 0.70952 0.77514 0.0
C248 C 0.65982 0.6888 0.814 0.0
C249 C 0.66415 0.65654 0.82088 0.0
C250 C 0.69126 0.71966 0.80421 0.0
C251 C 0.78049 0.74127 0.77748 0.0
H252 H 0.87034 0.93297 0.73722 0.0
H253 H 0.81994 0.87962 0.75589 0.0
H254 H 0.82434 0.76284 0.75694 0.0
H255 H 0.70542 0.63195 0.82303 0.0
H256 H 0.76004 0.68558 0.80571 0.0
H257 H 0.7581 0.80178 0.80286 0.0
C258 C 0.84699 0.87812 0.75223 0.0
C259 C 0.81059 0.77185 0.76708 0.0
C260 C 0.87576 0.90859 0.74142 0.0
C261 C 0.70075 0.65594 0.8177 0.0
C262 C 0.73209 0.6867 0.80781 0.0
C263 C 0.77229 0.79292 0.79284 0.0
C264 C 0.85268 0.8458 0.75795 0.0
C265 C 0.82177 0.81333 0.7694 0.0
C266 C 0.72769 0.71889 0.80097 0.0
C267 C 0.76076 0.75145 0.79036 0.0
H268 H 0.94337 0.87342 0.73766 0.0
H269 H 0.89345 0.82047 0.75683 0.0
H270 H 0.81095 0.8552 0.78491 0.0
H271 H 0.6318 0.68986 0.81591 0.0
H272 H 0.68671 0.74374 0.79889 0.0
C273 C 0.03303 0.89937 0.06307 0.0
C274 C 0.00893 0.91666 0.06801 0.0
C275 C 0.03461 0.86972 0.0734 0.0
C276 C 0.01882 0.83035 0.11769 0.0
H277 H 0.00012 0.72895 0.09627 0.0
C278 C 0.98958 0.68943 0.15802 0.0
C279 C 0.00594 0.66518 0.15206 0.0
C280 C 0.99129 0.72083 0.14779 0.0
C281 C 0.00606 0.75731 0.10245 0.0
H282 H 0.96828 0.91716 0.08774 0.0
H283 H 0.97147 0.86578 0.10587 0.0
H284 H 0.00226 0.78333 0.07843 0.0
H285 H 0.0366 0.65489 0.1305 0.0
H286 H 0.04111 0.71057 0.11302 0.0
H287 H 0.02321 0.8048 0.14167 0.0
C288 C 0.98906 0.87509 0.09402 0.0
C289 C 0.00718 0.7884 0.09221 0.0
C290 C 0.98707 0.90432 0.0836 0.0
C291 C 0.02418 0.67326 0.13563 0.0
C292 C 0.02623 0.70488 0.12547 0.0
C293 C 0.01815 0.79944 0.12792 0.0
C294 C 0.01258 0.85726 0.08896 0.0
C295 C 0.01325 0.82508 0.09974 0.0
C296 C 0.00971 0.72902 0.13139 0.0
C297 C 0.01144 0.76237 0.12045 0.0
H298 H 0.05018 0.90831 0.05111 0.0
H299 H 0.05321 0.85664 0.06927 0.0
H300 H 0.02403 0.85855 0.1238 0.0
H301 H 0.97574 0.68445 0.17068 0.0
H302 H 0.97773 0.73838 0.15269 0.0
C303 C 0.11884 0.04237 0.40809 0.0
C304 C 0.08342 0.00518 0.40367 0.0
C305 C 0.14889 0.04247 0.41882 0.0
C306 C 0.19027 0.97709 0.43243 0.0
H307 H 0.23626 0.05234 0.47116 0.0
C308 C 0.2981 0.96347 0.48146 0.0
C309 C 0.33142 -7e-05 0.48799 0.0
C310 C 0.26759 0.9646 0.47154 0.0
C311 C 0.22419 0.0315 0.46026 0.0
H312 H 0.05149 0.93904 0.4071 0.0
H313 H 0.10413 0.93923 0.42566 0.0
H314 H 0.18392 0.05406 0.45301 0.0
H315 H 0.35817 0.0662 0.48942 0.0
H316 H 0.30594 0.0683 0.47156 0.0
H317 H 0.23089 0.95502 0.4393 0.0
C318 C 0.10868 0.96824 0.42082 0.0
C319 C 0.19413 0.03244 0.44991 0.0
C320 C 0.07847 0.96818 0.41027 0.0
C321 C 0.3333 0.03754 0.48441 0.0
C322 C 0.30296 0.0387 0.47435 0.0
C323 C 0.22059 0.97642 0.44264 0.0
C324 C 0.14427 0.00535 0.42514 0.0
C325 C 0.1767 0.00506 0.43596 0.0
C326 C 0.26977 0.00224 0.46774 0.0
C327 C 0.23779 0.00342 0.45676 0.0
H328 H 0.12343 0.07135 0.40319 0.0
H329 H 0.17616 0.07149 0.42187 0.0
H330 H 0.1778 0.95606 0.42159 0.0
H331 H 0.29582 0.93398 0.48377 0.0
H332 H 0.24218 0.93582 0.46691 0.0
C333 C 0.07971 0.08375 0.75395 0.0
C334 C 0.07497 0.09218 0.73672 0.0
C335 C 0.10989 0.11436 0.76444 0.0
C336 C 0.21069 0.20468 0.76234 0.0
H337 H 0.18692 0.23316 0.80731 0.0
C338 C 0.33608 0.3391 0.802 0.0
C339 C 0.33488 0.33582 0.82004 0.0
C340 C 0.30364 0.30984 0.79195 0.0
C341 C 0.19432 0.22517 0.79492 0.0
H342 H 0.09767 0.13915 0.71695 0.0
H343 H 0.15121 0.19239 0.73519 0.0
H344 H 0.13108 0.18091 0.78977 0.0
H345 H 0.29953 0.29926 0.84178 0.0
H346 H 0.24364 0.247 0.82428 0.0
H347 H 0.27391 0.24732 0.76757 0.0
C348 C 0.13128 0.16222 0.74059 0.0
C349 C 0.16221 0.19544 0.78485 0.0
C350 C 0.10057 0.13187 0.73021 0.0
C351 C 0.30092 0.30256 0.82787 0.0
C352 C 0.2688 0.27283 0.81781 0.0
C353 C 0.2429 0.23381 0.77252 0.0
C354 C 0.13635 0.15363 0.75775 0.0
C355 C 0.17013 0.18514 0.76844 0.0
C356 C 0.26959 0.27614 0.7997 0.0
C357 C 0.23519 0.24467 0.78893 0.0
H358 H 0.06034 0.05339 0.75929 0.0
H359 H 0.11338 0.10701 0.77762 0.0
H360 H 0.21759 0.1968 0.7498 0.0
H361 H 0.36176 0.36481 0.79569 0.0
H362 H 0.3051 0.31408 0.7781 0.0
C363 C 0.89412 0.97719 0.65602 0.0
C364 C 0.91465 0.00786 0.66859 0.0
C365 C 0.86465 0.97807 0.64528 0.0
C366 C 0.81811 -0.0023 0.61847 0.0
H367 H 0.74232 0.02757 0.63881 0.0
C368 C 0.69785 0.01406 0.5778 0.0
C369 C 0.65857 -0.001 0.58503 0.0
C370 C 0.73018 0.01651 0.58767 0.0
C371 C 0.76304 0.01886 0.63295 0.0
H372 H 0.92122 0.06405 0.67951 0.0
H373 H 0.87025 0.06602 0.66057 0.0
H374 H 0.7968 0.02917 0.65645 0.0
H375 H 0.62267 0.97497 0.60839 0.0
H376 H 0.67867 0.97811 0.62544 0.0
H377 H 0.78348 0.98609 0.59511 0.0
C378 C 0.87635 0.04085 0.65921 0.0
C379 C 0.79466 0.02033 0.64301 0.0
C380 C 0.90574 0.03988 0.66999 0.0
C381 C 0.65239 0.98628 0.60234 0.0
C382 C 0.68467 0.98862 0.6122 0.0
C383 C 0.78641 0.99612 0.60841 0.0
C384 C 0.85516 0.00973 0.64683 0.0
C385 C 0.82246 0.00957 0.63592 0.0
C386 C 0.724 0.00387 0.60501 0.0
C387 C 0.75834 0.00646 0.61556 0.0
H388 H 0.90026 0.95204 0.65468 0.0
H389 H 0.84856 0.95332 0.63606 0.0
H390 H 0.83926 0.98965 0.61254 0.0
H391 H 0.70357 0.0237 0.56444 0.0
H392 H 0.76017 0.02876 0.58177 0.0
C393 C 0.91338 0.90561 0.98827 0.0
C394 C 0.9038 0.91601 0.00435 0.0
C395 C 0.88239 0.87592 0.9778 0.0
C396 C 0.77948 0.7856 0.97977 0.0
H397 H 0.77619 0.80343 0.93066 0.0
C398 C 0.64622 0.66977 0.93664 0.0
C399 C 0.65579 0.66246 0.91993 0.0
C400 C 0.67594 0.70148 0.94682 0.0
C401 C 0.77696 0.79771 0.94431 0.0
H402 H 0.85435 0.90378 0.02206 0.0
H403 H 0.8001 0.85148 0.00378 0.0
H404 H 0.82899 0.85765 0.94862 0.0
H405 H 0.70428 0.68319 0.90083 0.0
H406 H 0.75653 0.73747 0.91883 0.0
H407 H 0.72818 0.72542 0.9755 0.0
C408 C 0.83162 0.86632 -0.00068 0.0
C409 C 0.80712 0.82886 0.95459 0.0
C410 C 0.8626 0.89636 0.00972 0.0
C411 C 0.69593 0.68761 0.9137 0.0
C412 C 0.72576 0.71916 0.92394 0.0
C413 C 0.74955 0.75432 0.96947 0.0
C414 C 0.84125 0.85573 0.98328 0.0
C415 C 0.80868 0.8231 0.97242 0.0
C416 C 0.71614 0.72651 0.94064 0.0
C417 C 0.74791 0.75995 0.9516 0.0
H418 H 0.94489 0.92027 0.9838 0.0
H419 H 0.89075 0.86809 0.96557 0.0
H420 H 0.78034 0.78011 0.99344 0.0
H421 H 0.6158 0.65069 0.94197 0.0
H422 H 0.66724 0.70654 0.95952 0.0
C423 C 0.02591 0.91584 0.32887 0.0
C424 C 0.98936 0.91207 0.33548 0.0
C425 C 0.02487 0.88496 0.31844 0.0
C426 C 0.95894 0.79938 0.2897 0.0
H427 H 0.03515 0.7611 0.30025 0.0
C428 C 0.95231 0.65936 0.25505 0.0
C429 C 0.98987 0.66121 0.25133 0.0
C430 C 0.95131 0.68971 0.26519 0.0
C431 C 0.01406 0.77179 0.29694 0.0
H432 H 0.923 0.87347 0.3361 0.0
H433 H 0.92117 0.81953 0.31763 0.0
H434 H 0.03515 0.81482 0.31792 0.0
H435 H 0.05588 0.69666 0.25546 0.0
H436 H 0.0543 0.75023 0.27249 0.0
H437 H 0.93834 0.75697 0.26851 0.0
C438 C 0.95058 0.8464 0.32058 0.0
C439 C 0.01398 0.80248 0.30712 0.0
C440 C 0.95165 0.87715 0.33119 0.0
C441 C 0.02642 0.69443 0.25786 0.0
C442 C 0.02545 0.72489 0.26788 0.0
C443 C 0.95926 0.7689 0.27938 0.0
C444 C 0.98724 0.84984 0.31426 0.0
C445 C 0.98655 0.8167 0.30357 0.0
C446 C 0.98788 0.7228 0.27179 0.0
C447 C 0.98696 0.75483 0.28284 0.0
H448 H 0.05544 0.94242 0.33195 0.0
H449 H 0.05356 0.88863 0.31359 0.0
H450 H 0.9377 0.81005 0.28659 0.0
H451 H 0.9236 0.63454 0.25006 0.0
H452 H 0.92178 0.68684 0.26807 0.0
C453 C 0.07549 0.95003 0.66758 0.0
C454 C 0.08127 0.98836 0.6729 0.0
C455 C 0.10504 0.94779 0.65736 0.0
C456 C 0.21461 0.00669 0.64575 0.0
H457 H 0.18194 0.9374 0.60492 0.0
C458 C 0.3326 0.0216 0.59488 0.0
C459 C 0.3279 0.98541 0.58733 0.0
C460 C 0.30192 0.02041 0.60544 0.0
C461 C 0.19157 0.95648 0.61641 0.0
H462 H 0.12241 0.05433 0.67177 0.0
H463 H 0.17386 0.0504 0.65406 0.0
H464 H 0.12937 0.93735 0.62348 0.0
H465 H 0.28675 0.91963 0.58474 0.0
H466 H 0.23369 0.91741 0.60355 0.0
H467 H 0.27667 0.02575 0.63883 0.0
C468 C 0.14671 0.02208 0.65783 0.0
C469 C 0.16144 0.95645 0.62702 0.0
C470 C 0.11711 0.02433 0.66789 0.0
C471 C 0.2916 0.94802 0.59052 0.0
C472 C 0.26094 0.94681 0.60114 0.0
C473 C 0.24468 0.00656 0.63522 0.0
C474 C 0.14104 0.98383 0.65245 0.0
C475 C 0.1727 0.98193 0.64169 0.0
C476 C 0.26582 0.98298 0.60879 0.0
C477 C 0.23358 0.98182 0.62031 0.0
H478 H 0.04812 0.92181 0.67125 0.0
H479 H 0.1 0.91788 0.65348 0.0
H480 H 0.22418 0.02614 0.65713 0.0
H481 H 0.36032 0.05086 0.59287 0.0
H482 H 0.30645 0.04896 0.61091 0.0
C483 C 0.08615 0.11165 0.99468 0.0
C484 C 0.09343 0.08607 0.00553 0.0
C485 C 0.1172 0.14012 0.98402 0.0
C486 C 0.23002 0.19672 0.97812 0.0
H487 H 0.20112 0.21541 0.93229 0.0
C488 C 0.35114 0.30273 0.92809 0.0
C489 C 0.34239 0.33048 0.91957 0.0
C490 C 0.3213 0.27139 0.9383 0.0
C491 C 0.2096 0.21068 0.94509 0.0
H492 H 0.1389 0.07018 0.01377 0.0
H493 H 0.19316 0.11957 0.99488 0.0
H494 H 0.14828 0.16318 0.95063 0.0
H495 H 0.29541 0.34672 0.91475 0.0
H496 H 0.2433 0.29199 0.93257 0.0
H497 H 0.29149 0.24426 0.97245 0.0
C498 C 0.16358 0.11802 0.9948 0.0
C499 C 0.17933 0.18084 0.95563 0.0
C500 C 0.13247 0.0896 0.00556 0.0
C501 C 0.3031 0.32597 0.92128 0.0
C502 C 0.27319 0.29445 0.93135 0.0
C503 C 0.26038 0.22643 0.96751 0.0
C504 C 0.15624 0.14354 0.98386 0.0
C505 C 0.18903 0.17384 0.97236 0.0
C506 C 0.28202 0.26693 0.94002 0.0
C507 C 0.25036 0.23403 0.95097 0.0
H508 H 0.05642 0.10982 0.99446 0.0
H509 H 0.11068 0.15981 0.97603 0.0
H510 H 0.23848 0.19249 0.991 0.0
H511 H 0.38128 0.30568 0.9271 0.0
H512 H 0.32886 0.25045 0.94475 0.0
C513 C 0.97173 0.0858 0.32568 0.0
C514 C 0.00618 0.09229 0.33533 0.0
C515 C 0.97386 0.11652 0.3149 0.0
C516 C 0.03285 0.22864 0.30801 0.0
H517 H 0.9761 0.20027 0.26391 0.0
C518 C 0.04382 0.35131 0.25992 0.0
C519 C 0.00669 0.34373 0.25226 0.0
C520 C 0.04557 0.3208 0.26955 0.0
C521 C 0.99184 0.20862 0.27625 0.0
H522 H 0.0701 0.1358 0.34108 0.0
H523 H 0.07405 0.18943 0.32205 0.0
H524 H 0.97649 0.14665 0.28143 0.0
H525 H 0.94249 0.29802 0.24844 0.0
H526 H 0.94544 0.2449 0.26539 0.0
H527 H 0.04807 0.29065 0.30281 0.0
C528 C 0.04518 0.16076 0.32301 0.0
C529 C 0.99206 0.17791 0.2863 0.0
C530 C 0.04301 0.12999 0.33383 0.0
C531 C 0.97144 0.30491 0.25433 0.0
C532 C 0.97324 0.27435 0.26388 0.0
C533 C 0.03275 0.25939 0.29793 0.0
C534 C 0.01055 0.15445 0.31348 0.0
C535 C 0.01221 0.18748 0.30238 0.0
C536 C 0.0103 0.28198 0.27163 0.0
C537 C 0.0119 0.24965 0.28201 0.0
H538 H 0.94286 0.05711 0.32661 0.0
H539 H 0.94644 0.11083 0.30796 0.0
H540 H 0.04817 0.237 0.32044 0.0
H541 H 0.07142 0.38103 0.25866 0.0
H542 H 0.07463 0.32749 0.27526 0.0
loop_
_geom_bond_atom_site_label_1
_geom_bond_atom_site_label_2
_geom_bond_distance
_geom_bond_site_symmetry_2
_ccdc_geom_bond_type
In0 O1 2.294 1_455 S
In0 O2 2.326 . S
In0 O6 2.266 1_445 S
In0 O7 2.326 1_445 S
In0 O8 2.266 1_545 S
In0 O9 2.326 1_445 S
In0 O11 2.294 . S
In0 O12 2.326 . S
O1 In0 2.294 1_655 S
O1 C10 1.240 1_655 S
O2 In0 2.326 . S
O2 C10 1.252 . S
C3 O6 1.252 . S
C3 O7 1.260 . S
C4 O11 1.240 . S
C4 O12 1.252 . S
C5 O8 1.245 1_655 S
C5 O9 1.272 . S
O6 In0 2.266 1_665 S
O6 C3 1.252 . S
O7 In0 2.326 1_665 S
O7 C3 1.260 . S
O8 In0 2.266 1_565 S
O8 C5 1.245 1_455 S
O9 In0 2.326 1_665 S
O9 C5 1.272 . S
C10 O1 1.240 1_455 S
C10 O2 1.252 . S
O11 In0 2.294 . S
O11 C4 1.240 . S
O12 In0 2.326 . S
O12 C4 1.252 . S
In13 O14 2.292 . S
In13 O15 2.306 1_455 S
In13 O19 2.290 . S
In13 O20 2.342 1_545 S
In13 O21 2.269 1_445 S
In13 O22 2.345 1_545 S
In13 O24 2.270 1_445 S
In13 O25 2.309 1_455 S
O14 In13 2.292 . S
O14 C23 1.240 1_455 S
O15 In13 2.306 1_655 S
O15 C23 1.252 . S
C16 O19 1.234 1_565 S
C16 O20 1.269 . S
C17 O24 1.240 1_545 S
C17 O25 1.252 . S
C18 O21 1.252 1_455 S
C18 O22 1.260 . S
O19 In13 2.290 . S
O19 C16 1.234 1_545 S
O20 In13 2.342 1_565 S
O20 C16 1.269 . S
O21 In13 2.269 1_665 S
O21 C18 1.252 1_655 S
O22 In13 2.345 1_565 S
O22 C18 1.260 . S
C23 O14 1.240 1_655 S
C23 O15 1.252 . S
O24 In13 2.270 1_665 S
O24 C17 1.240 1_565 S
O25 In13 2.309 1_655 S
O25 C17 1.252 . S
In26 O27 2.280 1_445 S
In26 O28 2.328 1_445 S
In26 O32 2.253 1_545 S
In26 O33 2.328 . S
In26 O34 2.280 . S
In26 O35 2.323 . S
In26 O37 2.308 1_455 S
In26 O38 2.324 1_445 S
O27 In26 2.280 1_665 S
O27 C36 1.240 . S
O28 In26 2.328 1_665 S
O28 C36 1.252 . S
C29 O32 1.252 1_545 S
C29 O33 1.260 . S
C30 O37 1.240 1_565 S
C30 O38 1.252 . S
C31 O34 1.252 . S
C31 O35 1.260 . S
O32 In26 2.253 1_565 S
O32 C29 1.252 1_565 S
O33 In26 2.328 . S
O33 C29 1.260 . S
O34 In26 2.280 . S
O34 C31 1.252 . S
O35 In26 2.323 . S
O35 C31 1.260 . S
C36 O27 1.240 . S
C36 O28 1.252 . S
O37 In26 2.308 1_655 S
O37 C30 1.240 1_545 S
O38 In26 2.324 1_665 S
O38 C30 1.252 . S
H39 C58 0.949 . S
H40 C59 0.950 . S
H41 C61 0.950 . S
H42 C62 0.950 . S
H43 C64 0.950 . S
H44 C67 0.950 . S
H45 C68 0.950 . S
H46 C70 0.951 . S
H47 C71 0.949 . S
H48 C73 0.949 . S
H49 C74 0.950 . S
H50 C76 0.950 . S
H51 C77 0.950 . S
H52 C79 0.950 . S
H53 C82 0.950 . S
H54 C83 0.950 . S
H55 C85 0.951 . S
H56 C86 0.949 . S
C57 C58 1.376 . S
C57 C62 1.386 1_455 S
C57 C63 1.483 . S
C58 H39 0.949 . S
C58 C57 1.376 . S
C58 C59 1.397 . S
C59 H40 0.950 . S
C59 C58 1.397 . S
C59 C60 1.391 . S
C60 C59 1.391 . S
C60 C61 1.405 1_455 S
C61 H41 0.950 . S
C61 C60 1.405 1_655 S
C61 C62 1.367 . S
C62 H42 0.950 . S
C62 C57 1.386 1_655 S
C62 C61 1.367 . S
C63 C57 1.483 . S
C63 C64 1.382 . S
C63 C65 1.403 1_455 S
C64 H43 0.950 . S
C64 C63 1.382 . S
C64 C80 1.411 . S
C65 C63 1.403 1_655 S
C65 C66 1.489 . S
C65 C79 1.411 . S
C66 C65 1.489 . S
C66 C67 1.383 1_655 S
C66 C71 1.382 . S
C67 H44 0.950 . S
C67 C66 1.383 1_455 S
C67 C68 1.395 . S
C68 H45 0.950 . S
C68 C67 1.395 . S
C68 C69 1.288 1_455 S
C69 C68 1.288 1_655 S
C69 C70 1.392 . S
C70 H46 0.951 . S
C70 C69 1.392 . S
C70 C71 1.392 . S
C71 H47 0.949 . S
C71 C66 1.382 . S
C71 C70 1.392 . S
C72 C73 1.376 . S
C72 C77 1.386 1_655 S
C72 C78 1.494 . S
C73 H48 0.949 . S
C73 C72 1.376 . S
C73 C74 1.397 . S
C74 H49 0.950 . S
C74 C73 1.397 . S
C74 C75 1.384 1_655 S
C75 C74 1.384 1_455 S
C75 C76 1.418 . S
C76 H50 0.950 . S
C76 C75 1.418 . S
C76 C77 1.367 . S
C77 H51 0.950 . S
C77 C72 1.386 1_455 S
C77 C76 1.367 . S
C78 C72 1.494 . S
C78 C79 1.372 . S
C78 C80 1.399 1_655 S
C79 H52 0.950 . S
C79 C65 1.411 . S
C79 C78 1.372 . S
C80 C64 1.411 . S
C80 C78 1.399 1_455 S
C80 C81 1.489 . S
C81 C80 1.489 . S
C81 C82 1.383 1_455 S
C81 C86 1.382 . S
C82 H53 0.950 . S
C82 C81 1.383 1_655 S
C82 C83 1.395 . S
C83 H54 0.950 . S
C83 C82 1.395 . S
C83 C84 1.288 1_655 S
C84 C83 1.288 1_455 S
C84 C85 1.392 . S
C85 H55 0.951 . S
C85 C84 1.392 . S
C85 C86 1.392 . S
C86 H56 0.949 . S
C86 C81 1.382 . S
C86 C85 1.392 . S
H87 C106 0.949 . S
H88 C107 0.950 . S
H89 C109 0.950 . S
H90 C110 0.950 . S
H91 C112 0.950 . S
H92 C115 0.950 . S
H93 C116 0.950 . S
H94 C118 0.951 . S
H95 C119 0.949 . S
H96 C121 0.949 . S
H97 C122 0.950 . S
H98 C124 0.950 . S
H99 C125 0.950 . S
H100 C127 0.950 . S
H101 C130 0.950 . S
H102 C131 0.950 . S
H103 C133 0.951 . S
H104 C134 0.949 . S
C105 C106 1.376 . S
C105 C110 1.386 1_545 S
C105 C111 1.483 . S
C106 H87 0.949 . S
C106 C105 1.376 . S
C106 C107 1.397 . S
C107 H88 0.950 . S
C107 C106 1.397 . S
C107 C108 1.391 . S
C108 C107 1.391 . S
C108 C109 1.405 1_545 S
C109 H89 0.950 . S
C109 C108 1.405 1_565 S
C109 C110 1.367 . S
C110 H90 0.950 . S
C110 C105 1.386 1_565 S
C110 C109 1.367 . S
C111 C105 1.483 . S
C111 C112 1.382 . S
C111 C113 1.403 1_545 S
C112 H91 0.950 . S
C112 C111 1.382 . S
C112 C128 1.411 . S
C113 C111 1.403 1_565 S
C113 C114 1.489 . S
C113 C127 1.411 . S
C114 C113 1.489 . S
C114 C115 1.383 1_565 S
C114 C119 1.382 . S
C115 H92 0.950 . S
C115 C114 1.383 1_545 S
C115 C116 1.395 . S
C116 H93 0.950 . S
C116 C115 1.395 . S
C116 C117 1.288 1_545 S
C117 C116 1.288 1_565 S
C117 C118 1.392 . S
C118 H94 0.951 . S
C118 C117 1.392 . S
C118 C119 1.392 . S
C119 H95 0.949 . S
C119 C114 1.382 . S
C119 C118 1.392 . S
C120 C121 1.376 . S
C120 C125 1.386 1_565 S
C120 C126 1.470 . S
C121 H96 0.949 . S
C121 C120 1.376 . S
C121 C122 1.397 . S
C122 H97 0.950 . S
C122 C121 1.397 . S
C122 C123 1.381 1_565 S
C123 C122 1.381 1_545 S
C123 C124 1.411 . S
C124 H98 0.950 . S
C124 C123 1.411 . S
C124 C125 1.367 . S
C125 H99 0.950 . S
C125 C120 1.386 1_545 S
C125 C124 1.367 . S
C126 C120 1.470 . S
C126 C127 1.399 . S
C126 C128 1.399 1_565 S
C127 H100 0.950 . S
C127 C113 1.411 . S
C127 C126 1.399 . S
C128 C112 1.411 . S
C128 C126 1.399 1_545 S
C128 C129 1.489 . S
C129 C128 1.489 . S
C129 C130 1.383 1_545 S
C129 C134 1.382 . S
C130 H101 0.950 . S
C130 C129 1.383 1_565 S
C130 C131 1.395 . S
C131 H102 0.950 . S
C131 C130 1.395 . S
C131 C132 1.288 1_565 S
C132 C131 1.288 1_545 S
C132 C133 1.392 . S
C133 H103 0.951 . S
C133 C132 1.392 . S
C133 C134 1.392 . S
C134 H104 0.949 . S
C134 C129 1.382 . S
C134 C133 1.392 . S
H135 C154 0.949 . S
H136 C155 0.950 . S
H137 C157 0.950 . S
H138 C158 0.950 . S
H139 C160 0.950 . S
H140 C163 0.950 . S
H141 C164 0.950 . S
H142 C166 0.951 . S
H143 C167 0.949 . S
H144 C169 0.949 . S
H145 C170 0.950 . S
H146 C172 0.950 . S
H147 C173 0.950 . S
H148 C175 0.950 . S
H149 C178 0.950 . S
H150 C179 0.950 . S
H151 C181 0.951 . S
H152 C182 0.949 . S
C153 C154 1.376 . S
C153 C158 1.386 . S
C153 C159 1.483 . S
C154 H135 0.949 . S
C154 C153 1.376 . S
C154 C155 1.397 . S
C155 H136 0.950 . S
C155 C154 1.397 . S
C155 C156 1.391 . S
C156 C155 1.391 . S
C156 C157 1.405 . S
C157 H137 0.950 . S
C157 C156 1.405 . S
C157 C158 1.367 . S
C158 H138 0.950 . S
C158 C153 1.386 . S
C158 C157 1.367 . S
C159 C153 1.483 . S
C159 C160 1.382 . S
C159 C161 1.403 . S
C160 H139 0.950 . S
C160 C159 1.382 . S
C160 C176 1.411 . S
C161 C159 1.403 . S
C161 C162 1.489 . S
C161 C175 1.411 . S
C162 C161 1.489 . S
C162 C163 1.383 . S
C162 C167 1.382 . S
C163 H140 0.950 . S
C163 C162 1.383 . S
C163 C164 1.395 . S
C164 H141 0.950 . S
C164 C163 1.395 . S
C164 C165 1.288 . S
C165 C164 1.288 . S
C165 C166 1.392 . S
C166 H142 0.951 . S
C166 C165 1.392 . S
C166 C167 1.392 . S
C167 H143 0.949 . S
C167 C162 1.382 . S
C167 C166 1.392 . S
C168 C169 1.376 . S
C168 C173 1.386 . S
C168 C174 1.483 . S
C169 H144 0.949 . S
C169 C168 1.376 . S
C169 C170 1.397 . S
C170 H145 0.950 . S
C170 C169 1.397 . S
C170 C171 1.391 . S
C171 C170 1.391 . S
C171 C172 1.405 . S
C172 H146 0.950 . S
C172 C171 1.405 . S
C172 C173 1.367 . S
C173 H147 0.950 . S
C173 C168 1.386 . S
C173 C172 1.367 . S
C174 C168 1.483 . S
C174 C175 1.382 . S
C174 C176 1.403 . S
C175 H148 0.950 . S
C175 C161 1.411 . S
C175 C174 1.382 . S
C176 C160 1.411 . S
C176 C174 1.403 . S
C176 C177 1.489 . S
C177 C176 1.489 . S
C177 C178 1.383 . S
C177 C182 1.382 . S
C178 H149 0.950 . S
C178 C177 1.383 . S
C178 C179 1.395 . S
C179 H150 0.950 . S
C179 C178 1.395 . S
C179 C180 1.288 . S
C180 C179 1.288 . S
C180 C181 1.392 . S
C181 H151 0.951 . S
C181 C180 1.392 . S
C181 C182 1.392 . S
C182 H152 0.949 . S
C182 C177 1.382 . S
C182 C181 1.392 . S
C183 C184 1.349 . S
C183 C185 1.327 . S
C183 H208 0.950 . S
C184 C183 1.349 . S
C184 C200 1.348 1_455 S
C185 C183 1.327 . S
C185 C204 1.429 . S
C185 H209 0.950 . S
C186 C203 1.574 . S
C186 C205 1.368 1_655 S
C186 H210 0.949 . S
H187 C191 0.949 . S
C188 C189 1.349 1_655 S
C188 C190 1.327 . S
C188 H211 0.950 . S
C189 C188 1.349 1_455 S
C189 C201 1.349 . S
C190 C188 1.327 . S
C190 C206 1.429 1_655 S
C190 H212 0.950 . S
C191 H187 0.949 . S
C191 C199 1.574 . S
C191 C207 1.368 . S
H192 C200 0.948 . S
H193 C198 0.953 . S
H194 C199 0.949 . S
H195 C201 0.950 . S
H196 C202 0.950 . S
H197 C203 0.949 . S
C198 H193 0.953 . S
C198 C200 1.317 . S
C198 C204 1.439 1_655 S
C199 C191 1.574 . S
C199 H194 0.949 . S
C199 C205 1.368 . S
C200 C184 1.348 1_655 S
C200 H192 0.948 . S
C200 C198 1.317 . S
C201 C189 1.349 . S
C201 H195 0.950 . S
C201 C202 1.327 . S
C202 H196 0.950 . S
C202 C201 1.327 . S
C202 C206 1.429 . S
C203 C186 1.574 . S
C203 H197 0.949 . S
C203 C207 1.368 1_655 S
C204 C185 1.429 . S
C204 C198 1.439 1_455 S
C204 C205 1.523 . S
C205 C186 1.368 1_455 S
C205 C199 1.368 . S
C205 C204 1.523 . S
C206 C190 1.429 1_455 S
C206 C202 1.429 . S
C206 C207 1.523 . S
C207 C191 1.368 . S
C207 C203 1.368 1_455 S
C207 C206 1.523 . S
H208 C183 0.950 . S
H209 C185 0.950 . S
H210 C186 0.949 . S
H211 C188 0.950 . S
H212 C190 0.950 . S
C213 C214 1.349 1_565 S
C213 C215 1.327 . S
C213 H238 0.950 . S
C214 C213 1.349 1_545 S
C214 C230 1.349 . S
C215 C213 1.327 . S
C215 C234 1.429 1_565 S
C215 H239 0.950 . S
C216 C233 1.574 . S
C216 C235 1.368 . S
C216 H240 0.949 . S
H217 C221 0.949 . S
C218 C219 1.349 . S
C218 C220 1.327 . S
C218 H241 0.950 . S
C219 C218 1.349 . S
C219 C231 1.349 1_545 S
C220 C218 1.327 . S
C220 C236 1.429 . S
C220 H242 0.950 . S
C221 H217 0.949 . S
C221 C229 1.574 . S
C221 C237 1.368 1_565 S
H222 C230 0.950 . S
H223 C228 0.950 . S
H224 C229 0.949 . S
H225 C231 0.950 . S
H226 C232 0.950 . S
H227 C233 0.949 . S
C228 H223 0.950 . S
C228 C230 1.327 . S
C228 C234 1.429 . S
C229 C221 1.574 . S
C229 H224 0.949 . S
C229 C235 1.368 1_565 S
C230 C214 1.349 . S
C230 H222 0.950 . S
C230 C228 1.327 . S
C231 C219 1.349 1_565 S
C231 H225 0.950 . S
C231 C232 1.327 . S
C232 H226 0.950 . S
C232 C231 1.327 . S
C232 C236 1.429 1_565 S
C233 C216 1.574 . S
C233 H227 0.949 . S
C233 C237 1.368 . S
C234 C215 1.429 1_545 S
C234 C228 1.429 . S
C234 C235 1.523 . S
C235 C216 1.368 . S
C235 C229 1.368 1_545 S
C235 C234 1.523 . S
C236 C220 1.429 . S
C236 C232 1.429 1_545 S
C236 C237 1.523 . S
C237 C221 1.368 1_545 S
C237 C233 1.368 . S
C237 C236 1.523 . S
H238 C213 0.950 . S
H239 C215 0.950 . S
H240 C216 0.949 . S
H241 C218 0.950 . S
H242 C220 0.950 . S
C243 C244 1.349 . S
C243 C245 1.327 . S
C243 H268 0.950 . S
C244 C243 1.349 . S
C244 C260 1.349 . S
C245 C243 1.327 . S
C245 C264 1.429 . S
C245 H269 0.950 . S
C246 C263 1.574 . S
C246 C265 1.368 . S
C246 H270 0.949 . S
H247 C251 0.949 . S
C248 C249 1.349 . S
C248 C250 1.327 . S
C248 H271 0.950 . S
C249 C248 1.349 . S
C249 C261 1.349 . S
C250 C248 1.327 . S
C250 C266 1.429 . S
C250 H272 0.950 . S
C251 H247 0.949 . S
C251 C259 1.574 . S
C251 C267 1.368 . S
H252 C260 0.950 . S
H253 C258 0.950 . S
H254 C259 0.949 . S
H255 C261 0.950 . S
H256 C262 0.950 . S
H257 C263 0.949 . S
C258 H253 0.950 . S
C258 C260 1.327 . S
C258 C264 1.429 . S
C259 C251 1.574 . S
C259 H254 0.949 . S
C259 C265 1.368 . S
C260 C244 1.349 . S
C260 H252 0.950 . S
C260 C258 1.327 . S
C261 C249 1.349 . S
C261 H255 0.950 . S
C261 C262 1.327 . S
C262 H256 0.950 . S
C262 C261 1.327 . S
C262 C266 1.429 . S
C263 C246 1.574 . S
C263 H257 0.949 . S
C263 C267 1.368 . S
C264 C245 1.429 . S
C264 C258 1.429 . S
C264 C265 1.523 . S
C265 C246 1.368 . S
C265 C259 1.368 . S
C265 C264 1.523 . S
C266 C250 1.429 . S
C266 C262 1.429 . S
C266 C267 1.523 . S
C267 C251 1.368 . S
C267 C263 1.368 . S
C267 C266 1.523 . S
H268 C243 0.950 . S
H269 C245 0.950 . S
H270 C246 0.949 . S
H271 C248 0.950 . S
H272 C250 0.950 . S
C273 C274 1.348 1_455 S
C273 C275 1.327 . S
C273 H298 0.950 . S
C274 C273 1.348 1_655 S
C274 C290 1.349 . S
C275 C273 1.327 . S
C275 C294 1.431 . S
C275 H299 0.950 . S
C276 C293 1.574 . S
C276 C295 1.361 1_655 S
C276 H300 0.949 . S
H277 C281 0.949 . S
C278 C279 1.349 1_655 S
C278 C280 1.327 . S
C278 H301 0.950 . S
C279 C278 1.349 1_455 S
C279 C291 1.349 . S
C280 C278 1.327 . S
C280 C296 1.429 1_655 S
C280 H302 0.950 . S
C281 H277 0.949 . S
C281 C289 1.574 . S
C281 C297 1.368 . S
H282 C290 0.950 . S
H283 C288 0.950 . S
H284 C289 0.949 . S
H285 C291 0.950 . S
H286 C292 0.950 . S
H287 C293 0.949 . S
C288 H283 0.950 . S
C288 C290 1.327 . S
C288 C294 1.419 1_655 S
C289 C281 1.574 . S
C289 H284 0.949 . S
C289 C295 1.385 . S
C290 C274 1.349 . S
C290 H282 0.950 . S
C290 C288 1.327 . S
C291 C279 1.349 . S
C291 H285 0.950 . S
C291 C292 1.327 . S
C292 H286 0.950 . S
C292 C291 1.327 . S
C292 C296 1.429 . S
C293 C276 1.574 . S
C293 H287 0.949 . S
C293 C297 1.368 1_655 S
C294 C275 1.431 . S
C294 C288 1.419 1_455 S
C294 C295 1.518 . S
C295 C276 1.361 1_455 S
C295 C289 1.385 . S
C295 C294 1.518 . S
C296 C280 1.429 1_455 S
C296 C292 1.429 . S
C296 C297 1.523 . S
C297 C281 1.368 . S
C297 C293 1.368 1_455 S
C297 C296 1.523 . S
H298 C273 0.950 . S
H299 C275 0.950 . S
H300 C276 0.949 . S
H301 C278 0.950 . S
H302 C280 0.950 . S
C303 C304 1.342 1_545 S
C303 C305 1.327 . S
C303 H328 0.950 . S
C304 C303 1.342 1_565 S
C304 C320 1.360 . S
C305 C303 1.327 . S
C305 C324 1.434 . S
C305 H329 0.950 . S
C306 C323 1.574 . S
C306 C325 1.350 1_565 S
C306 H330 0.949 . S
H307 C311 0.949 . S
C308 C309 1.349 1_565 S
C308 C310 1.327 . S
C308 H331 0.950 . S
C309 C308 1.349 1_545 S
C309 C321 1.349 . S
C310 C308 1.327 . S
C310 C326 1.429 1_565 S
C310 H332 0.950 . S
C311 H307 0.949 . S
C311 C319 1.574 . S
C311 C327 1.368 . S
H312 C320 0.950 . S
H313 C318 0.950 . S
H314 C319 0.949 . S
H315 C321 0.950 . S
H316 C322 0.950 . S
H317 C323 0.949 . S
C318 H313 0.950 . S
C318 C320 1.327 . S
C318 C324 1.426 1_565 S
C319 C311 1.574 . S
C319 H314 0.949 . S
C319 C325 1.381 . S
C320 C304 1.360 . S
C320 H312 0.950 . S
C320 C318 1.327 . S
C321 C309 1.349 . S
C321 H315 0.950 . S
C321 C322 1.327 . S
C322 H316 0.950 . S
C322 C321 1.327 . S
C322 C326 1.429 . S
C323 C306 1.574 . S
C323 H317 0.949 . S
C323 C327 1.368 1_565 S
C324 C305 1.434 . S
C324 C318 1.426 1_545 S
C324 C325 1.528 . S
C325 C306 1.350 1_545 S
C325 C319 1.381 . S
C325 C324 1.528 . S
C326 C310 1.429 1_545 S
C326 C322 1.429 . S
C326 C327 1.523 . S
C327 C311 1.368 . S
C327 C323 1.368 1_545 S
C327 C326 1.523 . S
H328 C303 0.950 . S
H329 C305 0.950 . S
H330 C306 0.949 . S
H331 C308 0.950 . S
H332 C310 0.950 . S
C333 C334 1.349 . S
C333 C335 1.327 . S
C333 H358 0.950 . S
C334 C333 1.349 . S
C334 C350 1.349 . S
C335 C333 1.327 . S
C335 C354 1.429 . S
C335 H359 0.950 . S
C336 C353 1.574 . S
C336 C355 1.368 . S
C336 H360 0.949 . S
H337 C341 0.949 . S
C338 C339 1.349 . S
C338 C340 1.327 . S
C338 H361 0.950 . S
C339 C338 1.349 . S
C339 C351 1.349 . S
C340 C338 1.327 . S
C340 C356 1.429 . S
C340 H362 0.950 . S
C341 H337 0.949 . S
C341 C349 1.574 . S
C341 C357 1.368 . S
H342 C350 0.950 . S
H343 C348 0.950 . S
H344 C349 0.949 . S
H345 C351 0.950 . S
H346 C352 0.950 . S
H347 C353 0.949 . S
C348 H343 0.950 . S
C348 C350 1.327 . S
C348 C354 1.429 . S
C349 C341 1.574 . S
C349 H344 0.949 . S
C349 C355 1.368 . S
C350 C334 1.349 . S
C350 H342 0.950 . S
C350 C348 1.327 . S
C351 C339 1.349 . S
C351 H345 0.950 . S
C351 C352 1.327 . S
C352 H346 0.950 . S
C352 C351 1.327 . S
C352 C356 1.429 . S
C353 C336 1.574 . S
C353 H347 0.949 . S
C353 C357 1.368 . S
C354 C335 1.429 . S
C354 C348 1.429 . S
C354 C355 1.523 . S
C355 C336 1.368 . S
C355 C349 1.368 . S
C355 C354 1.523 . S
C356 C340 1.429 . S
C356 C352 1.429 . S
C356 C357 1.523 . S
C357 C341 1.368 . S
C357 C353 1.368 . S
C357 C356 1.523 . S
H358 C333 0.950 . S
H359 C335 0.950 . S
H360 C336 0.949 . S
H361 C338 0.950 . S
H362 C340 0.950 . S
C363 C364 1.349 . S
C363 C365 1.327 . S
C363 H388 0.950 . S
C364 C363 1.349 . S
C364 C380 1.349 1_565 S
C365 C363 1.327 . S
C365 C384 1.429 . S
C365 H389 0.950 . S
C366 C383 1.574 . S
C366 C385 1.368 1_545 S
C366 H390 0.949 . S
H367 C371 0.949 . S
C368 C369 1.349 . S
C368 C370 1.327 . S
C368 H391 0.950 . S
C369 C368 1.349 . S
C369 C381 1.349 1_545 S
C370 C368 1.327 . S
C370 C386 1.436 . S
C370 H392 0.950 . S
C371 H367 0.949 . S
C371 C379 1.574 . S
C371 C387 1.370 . S
H372 C380 0.950 . S
H373 C378 0.950 . S
H374 C379 0.949 . S
H375 C381 0.950 . S
H376 C382 0.950 . S
H377 C383 0.949 . S
C378 H373 0.950 . S
C378 C380 1.327 . S
C378 C384 1.429 1_545 S
C379 C371 1.574 . S
C379 H374 0.949 . S
C379 C385 1.368 . S
C380 C364 1.349 1_545 S
C380 H372 0.950 . S
C380 C378 1.327 . S
C381 C369 1.349 1_565 S
C381 H375 0.950 . S
C381 C382 1.327 . S
C382 H376 0.950 . S
C382 C381 1.327 . S
C382 C386 1.426 1_565 S
C383 C366 1.574 . S
C383 H377 0.949 . S
C383 C387 1.368 1_545 S
C384 C365 1.429 . S
C384 C378 1.429 1_565 S
C384 C385 1.523 . S
C385 C366 1.368 1_565 S
C385 C379 1.368 . S
C385 C384 1.523 . S
C386 C370 1.436 . S
C386 C382 1.426 1_545 S
C386 C387 1.517 1_545 S
C387 C371 1.370 . S
C387 C383 1.368 1_565 S
C387 C386 1.517 1_565 S
H388 C363 0.950 . S
H389 C365 0.950 . S
H390 C366 0.949 . S
H391 C368 0.950 . S
H392 C370 0.950 . S
C393 C394 1.349 1_556 S
C393 C395 1.327 . S
C393 H418 0.950 . S
C394 C393 1.349 1_554 S
C394 C410 1.349 . S
C395 C393 1.327 . S
C395 C414 1.429 . S
C395 H419 0.950 . S
C396 C413 1.574 . S
C396 C415 1.368 . S
C396 H420 0.949 . S
H397 C401 0.949 . S
C398 C399 1.349 . S
C398 C400 1.327 . S
C398 H421 0.950 . S
C399 C398 1.349 . S
C399 C411 1.349 . S
C400 C398 1.327 . S
C400 C416 1.429 . S
C400 H422 0.950 . S
C401 H397 0.949 . S
C401 C409 1.574 . S
C401 C417 1.368 . S
H402 C410 0.950 . S
H403 C408 0.950 . S
H404 C409 0.949 . S
H405 C411 0.950 . S
H406 C412 0.950 . S
H407 C413 0.949 . S
C408 H403 0.950 . S
C408 C410 1.327 . S
C408 C414 1.429 1_554 S
C409 C401 1.574 . S
C409 H404 0.949 . S
C409 C415 1.368 . S
C410 C394 1.349 . S
C410 H402 0.950 . S
C410 C408 1.327 . S
C411 C399 1.349 . S
C411 H405 0.950 . S
C411 C412 1.327 . S
C412 H406 0.950 . S
C412 C411 1.327 . S
C412 C416 1.429 . S
C413 C396 1.574 . S
C413 H407 0.949 . S
C413 C417 1.368 . S
C414 C395 1.429 . S
C414 C408 1.429 1_556 S
C414 C415 1.523 . S
C415 C396 1.368 . S
C415 C409 1.368 . S
C415 C414 1.523 . S
C416 C400 1.429 . S
C416 C412 1.429 . S
C416 C417 1.523 . S
C417 C401 1.368 . S
C417 C413 1.368 . S
C417 C416 1.523 . S
H418 C393 0.950 . S
H419 C395 0.950 . S
H420 C396 0.949 . S
H421 C398 0.950 . S
H422 C400 0.950 . S
C423 C424 1.349 . S
C423 C425 1.327 . S
C423 H448 0.950 . S
C424 C423 1.349 . S
C424 C440 1.349 1_455 S
C425 C423 1.327 . S
C425 C444 1.429 . S
C425 H449 0.950 . S
C426 C443 1.574 . S
C426 C445 1.368 1_655 S
C426 H450 0.949 . S
H427 C431 0.949 . S
C428 C429 1.349 1_655 S
C428 C430 1.327 . S
C428 H451 0.950 . S
C429 C428 1.349 1_455 S
C429 C441 1.349 . S
C430 C428 1.327 . S
C430 C446 1.429 1_655 S
C430 H452 0.950 . S
C431 H427 0.949 . S
C431 C439 1.574 . S
C431 C447 1.368 . S
H432 C440 0.950 . S
H433 C438 0.950 . S
H434 C439 0.949 . S
H435 C441 0.950 . S
H436 C442 0.950 . S
H437 C443 0.949 . S
C438 H433 0.950 . S
C438 C440 1.327 . S
C438 C444 1.429 1_655 S
C439 C431 1.574 . S
C439 H434 0.949 . S
C439 C445 1.368 . S
C440 C424 1.349 1_655 S
C440 H432 0.950 . S
C440 C438 1.327 . S
C441 C429 1.349 . S
C441 H435 0.950 . S
C441 C442 1.327 . S
C442 H436 0.950 . S
C442 C441 1.327 . S
C442 C446 1.429 . S
C443 C426 1.574 . S
C443 H437 0.949 . S
C443 C447 1.368 1_655 S
C444 C425 1.429 . S
C444 C438 1.429 1_455 S
C444 C445 1.523 . S
C445 C426 1.368 1_455 S
C445 C439 1.368 . S
C445 C444 1.523 . S
C446 C430 1.429 1_455 S
C446 C442 1.429 . S
C446 C447 1.523 . S
C447 C431 1.368 . S
C447 C443 1.368 1_455 S
C447 C446 1.523 . S
H448 C423 0.950 . S
H449 C425 0.950 . S
H450 C426 0.949 . S
H451 C428 0.950 . S
H452 C430 0.950 . S
C453 C454 1.349 1_565 S
C453 C455 1.327 . S
C453 H478 0.950 . S
C454 C453 1.349 1_545 S
C454 C470 1.349 . S
C455 C453 1.327 . S
C455 C474 1.429 1_565 S
C455 H479 0.950 . S
C456 C473 1.574 . S
C456 C475 1.368 . S
C456 H480 0.949 . S
H457 C461 0.949 . S
C458 C459 1.349 . S
C458 C460 1.327 . S
C458 H481 0.950 . S
C459 C458 1.349 . S
C459 C471 1.349 1_545 S
C460 C458 1.327 . S
C460 C476 1.429 . S
C460 H482 0.950 . S
C461 H457 0.949 . S
C461 C469 1.574 . S
C461 C477 1.368 1_565 S
H462 C470 0.950 . S
H463 C468 0.950 . S
H464 C469 0.949 . S
H465 C471 0.950 . S
H466 C472 0.950 . S
H467 C473 0.949 . S
C468 H463 0.950 . S
C468 C470 1.327 . S
C468 C474 1.429 . S
C469 C461 1.574 . S
C469 H464 0.949 . S
C469 C475 1.368 1_565 S
C470 C454 1.349 . S
C470 H462 0.950 . S
C470 C468 1.327 . S
C471 C459 1.349 1_565 S
C471 H465 0.950 . S
C471 C472 1.327 . S
C472 H466 0.950 . S
C472 C471 1.327 . S
C472 C476 1.429 1_565 S
C473 C456 1.574 . S
C473 H467 0.949 . S
C473 C477 1.368 . S
C474 C455 1.429 1_545 S
C474 C468 1.429 . S
C474 C475 1.523 . S
C475 C456 1.368 . S
C475 C469 1.368 1_545 S
C475 C474 1.523 . S
C476 C460 1.429 . S
C476 C472 1.429 1_545 S
C476 C477 1.523 . S
C477 C461 1.368 1_545 S
C477 C473 1.368 . S
C477 C476 1.523 . S
H478 C453 0.950 . S
H479 C455 0.950 . S
H480 C456 0.949 . S
H481 C458 0.950 . S
H482 C460 0.950 . S
C483 C484 1.349 1_556 S
C483 C485 1.327 . S
C483 H508 0.950 . S
C484 C483 1.349 1_554 S
C484 C500 1.349 . S
C485 C483 1.327 . S
C485 C504 1.429 . S
C485 H509 0.950 . S
C486 C503 1.574 . S
C486 C505 1.368 . S
C486 H510 0.949 . S
H487 C491 0.949 . S
C488 C489 1.349 . S
C488 C490 1.327 . S
C488 H511 0.950 . S
C489 C488 1.349 . S
C489 C501 1.349 . S
C490 C488 1.327 . S
C490 C506 1.429 . S
C490 H512 0.950 . S
C491 H487 0.949 . S
C491 C499 1.574 . S
C491 C507 1.368 . S
H492 C500 0.950 . S
H493 C498 0.950 . S
H494 C499 0.949 . S
H495 C501 0.950 . S
H496 C502 0.950 . S
H497 C503 0.949 . S
C498 H493 0.950 . S
C498 C500 1.327 . S
C498 C504 1.429 1_554 S
C499 C491 1.574 . S
C499 H494 0.949 . S
C499 C505 1.368 . S
C500 C484 1.349 . S
C500 H492 0.950 . S
C500 C498 1.327 . S
C501 C489 1.349 . S
C501 H495 0.950 . S
C501 C502 1.327 . S
C502 H496 0.950 . S
C502 C501 1.327 . S
C502 C506 1.429 . S
C503 C486 1.574 . S
C503 H497 0.949 . S
C503 C507 1.368 . S
C504 C485 1.429 . S
C504 C498 1.429 1_556 S
C504 C505 1.523 . S
C505 C486 1.368 . S
C505 C499 1.368 . S
C505 C504 1.523 . S
C506 C490 1.429 . S
C506 C502 1.429 . S
C506 C507 1.523 . S
C507 C491 1.368 . S
C507 C503 1.368 . S
C507 C506 1.523 . S
H508 C483 0.950 . S
H509 C485 0.950 . S
H510 C486 0.949 . S
H511 C488 0.950 . S
H512 C490 0.950 . S
C513 C514 1.349 . S
C513 C515 1.327 . S
C513 H538 0.950 . S
C514 C513 1.349 . S
C514 C530 1.349 1_655 S
C515 C513 1.327 . S
C515 C534 1.429 . S
C515 H539 0.950 . S
C516 C533 1.574 . S
C516 C535 1.357 1_455 S
C516 H540 0.949 . S
H517 C521 0.949 . S
C518 C519 1.349 . S
C518 C520 1.327 . S
C518 H541 0.950 . S
C519 C518 1.349 . S
C519 C531 1.349 1_455 S
C520 C518 1.327 . S
C520 C536 1.434 . S
C520 H542 0.950 . S
C521 H517 0.949 . S
C521 C529 1.574 . S
C521 C537 1.369 1_655 S
H522 C530 0.950 . S
H523 C528 0.950 . S
H524 C529 0.949 . S
H525 C531 0.950 . S
H526 C532 0.950 . S
H527 C533 0.949 . S
C528 H523 0.950 . S
C528 C530 1.327 . S
C528 C534 1.429 1_455 S
C529 C521 1.574 . S
C529 H524 0.949 . S
C529 C535 1.389 . S
C530 C514 1.349 1_455 S
C530 H522 0.950 . S
C530 C528 1.327 . S
C531 C519 1.349 1_655 S
C531 H525 0.950 . S
C531 C532 1.327 . S
C532 H526 0.950 . S
C532 C531 1.327 . S
C532 C536 1.415 1_655 S
C533 C516 1.574 . S
C533 H527 0.949 . S
C533 C537 1.367 . S
C534 C515 1.429 . S
C534 C528 1.429 1_655 S
C534 C535 1.511 . S
C535 C516 1.357 1_655 S
C535 C529 1.389 . S
C535 C534 1.511 . S
C536 C520 1.434 . S
C536 C532 1.415 1_455 S
C536 C537 1.531 . S
C537 C521 1.369 1_455 S
C537 C533 1.367 . S
C537 C536 1.531 . S
H538 C513 0.950 . S
H539 C515 0.950 . S
H540 C516 0.949 . S
H541 C518 0.950 . S
H542 C520 0.950 . S
C189 C60 1.541 . S
C184 C10 1.542 . S
C214 C17 1.542 . S
C219 C108 1.541 . S
C244 C36 1.543 . S
C249 C180 1.540 . S
C274 C5 1.539 . S
C279 C84 1.539 . S
C309 C132 1.539 . S
C304 C16 1.549 . S
C334 C31 1.543 . S
C339 C156 1.541 . S
C369 C117 1.537 1_545 S
C364 C30 1.542 . S
C394 C3 1.543 . S
C399 C171 1.541 . S
C429 C75 1.536 . S
C424 C18 1.544 . S
C459 C123 1.547 . S
C454 C29 1.544 . S
C489 C165 1.538 . S
C484 C4 1.543 . S
C514 C23 1.542 . S
C519 C69 1.537 1_455 S
