# Generated by pormake.
# Topology csq, (4,8)-cn, num edge types: 1
# Building blocks:
#     Node 0, Type 0, BuildingBlock: NAHDIM_clean_linker_0, # of connection points: 4
#     Node 1, Type 0, BuildingBlock: NAHDIM_clean_linker_0, # of connection points: 4
#     Node 2, Type 0, BuildingBlock: NAHDIM_clean_linker_0, # of connection points: 4
#     Node 3, Type 0, BuildingBlock: NAHDIM_clean_linker_0, # of connection points: 4
#     Node 4, Type 0, BuildingBlock: NAHDIM_clean_linker_0, # of connection points: 4
#     Node 5, Type 0, BuildingBlock: NAHDIM_clean_linker_0, # of connection points: 4
#     Node 6, Type 1, BuildingBlock: TAGTUT_clean_sbu_3, # of connection points: 8
#     Node 7, Type 1, BuildingBlock: TAGTUT_clean_sbu_3, # of connection points: 8
#     Node 8, Type 1, BuildingBlock: TAGTUT_clean_sbu_3, # of connection points: 8
#     Edge 9, Type (0, 1), None
#     Edge 10, Type (0, 1), None
#     Edge 11, Type (0, 1), None
#     Edge 12, Type (0, 1), None
#     Edge 13, Type (0, 1), None
#     Edge 14, Type (0, 1), None
#     Edge 15, Type (0, 1), None
#     Edge 16, Type (0, 1), None
#     Edge 17, Type (0, 1), None
#     Edge 18, Type (0, 1), None
#     Edge 19, Type (0, 1), None
#     Edge 20, Type (0, 1), None
#     Edge 21, Type (0, 1), None
#     Edge 22, Type (0, 1), None
#     Edge 23, Type (0, 1), None
#     Edge 24, Type (0, 1), None
#     Edge 25, Type (0, 1), None
#     Edge 26, Type (0, 1), None
#     Edge 27, Type (0, 1), None
#     Edge 28, Type (0, 1), None
#     Edge 29, Type (0, 1), None
#     Edge 30, Type (0, 1), None
#     Edge 31, Type (0, 1), None
#     Edge 32, Type (0, 1), None
# Relax obj value: 0.053
# Max RMSD: 0.118
# Mean RMSD: 0.089
data_MOF--net-csq--node1-TAGTUT_clean_sbu_3--node2-NAHDIM_clean_linker_0--edge1-none
_symmetry_space_group_name_H-M    P1
_symmetry_Int_Tables_number       1
_symmetry_cell_setting            triclinic
loop_
_symmetry_equiv_pos_as_xyz
'x, y, z'
_cell_length_a     42.200664
_cell_length_b     41.448836
_cell_length_c     16.424285
_cell_angle_alpha  93.184107
_cell_angle_beta   92.696861
_cell_angle_gamma 119.79879
loop_
_atom_site_label
_atom_site_type_symbol
_atom_site_fract_x
_atom_site_fract_y
_atom_site_fract_z
_atom_type_partial_charge
C0 C 0.40523 0.53718 0.72608 0.0
C1 C 0.39055 0.50429 0.6603 0.0
C2 C 0.36197 0.51414 0.54235 0.0
C3 C 0.33015 0.47932 0.52516 0.0
C4 C 0.29952 0.47601 0.4803 0.0
C5 C 0.30108 0.50828 0.45151 0.0
C6 C 0.33258 0.54376 0.47244 0.0
C7 C 0.36299 0.54616 0.51679 0.0
C8 C 0.26646 0.43772 0.45895 0.0
C9 C 0.33515 0.57867 0.44259 0.0
C10 C 0.02058 0.41301 0.4164 0.0
C11 C 0.05069 0.43203 0.4868 0.0
C12 C 0.11004 0.46911 0.42814 0.0
C13 C 0.13742 0.50541 0.41695 0.0
C14 C 0.17037 0.51247 0.38495 0.0
C15 C 0.17624 0.48238 0.36396 0.0
C16 C 0.14824 0.44541 0.37293 0.0
C17 C 0.11528 0.4391 0.40384 0.0
C18 C 0.19923 0.5522 0.37512 0.0
C19 C 0.15345 0.41254 0.35158 0.0
C20 C 0.13939 0.42002 0.865 0.0
C21 C 0.1635 0.45845 0.86733 0.0
C22 C 0.19887 0.47442 0.90668 0.0
C23 C 0.20951 0.45124 0.94543 0.0
C24 C 0.18642 0.41196 0.93535 0.0
C25 C 0.15141 0.39675 0.89478 0.0
C26 C 0.22326 0.51626 0.91443 0.0
C27 C 0.19726 0.38636 0.97432 0.0
C28 C 0.48912 0.49207 0.11491 0.0
C29 C 0.45479 0.47616 0.05583 0.0
C30 C 0.40863 0.49634 0.04231 0.0
C31 C 0.40427 0.52763 0.04222 0.0
C32 C 0.36936 0.52404 0.0386 0.0
C33 C 0.33794 0.48814 0.037 0.0
C34 C 0.34197 0.45617 0.03128 0.0
C35 C 0.37723 0.46055 0.03296 0.0
C36 C 0.36627 0.55881 0.04201 0.0
C37 C 0.30908 0.41737 0.02716 0.0
C38 C 0.27429 0.50353 0.38397 0.0
C39 C 0.24027 0.49883 0.40173 0.0
C40 C 0.21265 0.48971 0.33922 0.0
C41 C 0.21949 0.48562 0.25656 0.0
C42 C 0.19246 0.47586 0.19196 0.0
C43 C 0.19903 0.47016 0.11154 0.0
C44 C 0.2332 0.47474 0.09221 0.0
C45 C 0.23982 0.46775 0.01106 0.0
C46 C 0.27424 0.47323 0.99372 0.0
C47 C 0.30221 0.48442 0.05637 0.0
C48 C 0.29555 0.49004 0.13817 0.0
C49 C 0.32229 0.49903 0.20298 0.0
C50 C 0.31546 0.50372 0.28304 0.0
C51 C 0.28161 0.4998 0.30211 0.0
C52 C 0.25417 0.49077 0.23817 0.0
C53 C 0.26111 0.48562 0.15598 0.0
C54 C 0.05345 0.36948 0.92443 0.0
C55 C 0.08119 0.40863 0.90288 0.0
O56 O 0.39184 0.51722 0.5842 0.0
O57 O 0.44341 0.5023 0.0532 0.0
O58 O 0.10325 0.40613 0.846 0.0
O59 O 0.07949 0.46463 0.46279 0.0
H60 H 0.36188 0.48405 0.67276 0.0
H61 H 0.38852 0.55102 0.72167 0.0
H62 H 0.43417 0.55806 0.71812 0.0
H63 H 0.40369 0.52733 0.78814 0.0
H64 H 0.3298 0.45458 0.54458 0.0
H65 H 0.3877 0.57295 0.53114 0.0
H66 H 0.24132 0.43776 0.47587 0.0
H67 H 0.26867 0.41582 0.49056 0.0
H68 H 0.26327 0.43036 0.39186 0.0
H69 H 0.34076 0.57987 0.37713 0.0
H70 H 0.35755 0.60428 0.47758 0.0
H71 H 0.30882 0.57834 0.44742 0.0
H72 H 0.0599 0.41234 0.50474 0.0
H73 H 0.99717 0.38707 0.43507 0.0
H74 H 0.0314 0.4054 0.36281 0.0
H75 H 0.01059 0.432 0.39768 0.0
H76 H 0.13308 0.52843 0.43466 0.0
H77 H 0.09406 0.41069 0.4093 0.0
H78 H 0.20893 0.5543 0.31289 0.0
H79 H 0.22316 0.56074 0.41992 0.0
H80 H 0.18891 0.57198 0.38509 0.0
H81 H 0.12993 0.38572 0.36623 0.0
H82 H 0.17876 0.4166 0.3854 0.0
H83 H 0.15684 0.41051 0.28523 0.0
H84 H 0.09762 0.42488 0.96104 0.0
H85 H 0.15368 0.47607 0.84352 0.0
H86 H 0.1323 0.367 0.89203 0.0
H87 H 0.22241 0.52765 0.97658 0.0
H88 H 0.21432 0.52953 0.8687 0.0
H89 H 0.25211 0.52392 0.9067 0.0
H90 H 0.17765 0.35647 0.95479 0.0
H91 H 0.19844 0.39073 0.04197 0.0
H92 H 0.22497 0.39303 0.95813 0.0
H93 H 0.4338 0.45028 0.08018 0.0
H94 H 0.49897 0.47175 0.11765 0.0
H95 H 0.48271 0.49756 0.17726 0.0
H96 H 0.51114 0.51876 0.09536 0.0
H97 H 0.42851 0.55513 0.04752 0.0
H98 H 0.37973 0.43583 0.02917 0.0
H99 H 0.36167 0.56533 0.10535 0.0
H100 H 0.34258 0.55447 0.00079 0.0
H101 H 0.39158 0.58327 0.02464 0.0
H102 H 0.31686 0.3954 0.02646 0.0
H103 H 0.29111 0.41236 0.97081 0.0
H104 H 0.2929 0.41471 0.08035 0.0
H105 H 0.23481 0.50101 0.4651 0.0
H106 H 0.16573 0.47195 0.20308 0.0
H107 H 0.17679 0.46197 0.06487 0.0
H108 H 0.27893 0.46767 0.93145 0.0
H109 H 0.34878 0.50209 0.19313 0.0
H110 H 0.33725 0.51017 0.32964 0.0
H111 H 0.03694 0.35131 0.8686 0.0
H112 H 0.03479 0.37099 0.96808 0.0
H113 H 0.06816 0.35658 0.95382 0.0
C114 C 0.90219 0.37042 0.68866 0.0
C115 C 0.90848 0.37928 0.59953 0.0
C116 C 0.85334 0.35253 0.50068 0.0
C117 C 0.85108 0.31816 0.47819 0.0
C118 C 0.82626 0.29383 0.4133 0.0
C119 C 0.80267 0.3036 0.37087 0.0
C120 C 0.8041 0.33761 0.39489 0.0
C121 C 0.82936 0.36154 0.45962 0.0
C122 C 0.82496 0.25737 0.39046 0.0
C123 C 0.77892 0.34864 0.35228 0.0
C124 C 0.52842 0.0499 0.22182 0.0
C125 C 0.56184 0.06955 0.28466 0.0
C126 C 0.60809 0.13553 0.29663 0.0
C127 C 0.61458 0.1687 0.2656 0.0
C128 C 0.6504 0.19772 0.25952 0.0
C129 C 0.68038 0.19335 0.28615 0.0
C130 C 0.67399 0.1608 0.32273 0.0
C131 C 0.63782 0.13217 0.32774 0.0
C132 C 0.65606 0.23214 0.22059 0.0
C133 C 0.70533 0.15552 0.35255 0.0
C134 C 0.69162 0.12079 0.77336 0.0
C135 C 0.67659 0.14309 0.79547 0.0
C136 C 0.69736 0.17664 0.84571 0.0
C137 C 0.73347 0.18722 0.87696 0.0
C138 C 0.74887 0.16497 0.85271 0.0
C139 C 0.72787 0.13229 0.8 0.0
C140 C 0.68026 0.2001 0.86707 0.0
C141 C 0.7872 0.17514 0.88406 0.0
C142 C 0.95396 0.48121 0.01583 0.0
C143 C 0.94829 0.44635 0.96504 0.0
C144 C 0.88809 0.39256 0.92136 0.0
C145 C 0.85132 0.38293 0.91218 0.0
C146 C 0.82347 0.3465 0.92156 0.0
C147 C 0.83289 0.31913 0.93921 0.0
C148 C 0.8698 0.3278 0.94013 0.0
C149 C 0.89714 0.36455 0.93126 0.0
C150 C 0.7842 0.33788 0.91787 0.0
C151 C 0.8805 0.29882 0.95575 0.0
C152 C 0.77584 0.27735 0.30344 0.0
C153 C 0.74196 0.24892 0.324 0.0
C154 C 0.71768 0.22042 0.26519 0.0
C155 C 0.72809 0.21896 0.18526 0.0
C156 C 0.70688 0.1879 0.12827 0.0
C157 C 0.71663 0.18741 0.04869 0.0
C158 C 0.74639 0.21893 0.02143 0.0
C159 C 0.75446 0.22014 0.93845 0.0
C160 C 0.7832 0.25294 0.91323 0.0
C161 C 0.80511 0.28385 0.96949 0.0
C162 C 0.79905 0.28199 0.05353 0.0
C163 C 0.8223 0.31147 0.11283 0.0
C164 C 0.81557 0.30953 0.1952 0.0
C165 C 0.78422 0.27903 0.22069 0.0
C166 C 0.76043 0.24931 0.16173 0.0
C167 C 0.76872 0.25002 0.07885 0.0
C168 C 0.65046 0.02606 0.76232 0.0
C169 C 0.64151 0.05726 0.7536 0.0
O170 O 0.87733 0.37744 0.56213 0.0
O171 O 0.91393 0.42917 0.92258 0.0
O172 O 0.67134 0.08794 0.72671 0.0
O173 O 0.57294 0.10715 0.29391 0.0
H174 H 0.91514 0.35915 0.5688 0.0
H175 H 0.87785 0.34227 0.69062 0.0
H176 H 0.89733 0.39121 0.72298 0.0
H177 H 0.92624 0.3704 0.71913 0.0
H178 H 0.86796 0.30962 0.51147 0.0
H179 H 0.83058 0.38762 0.4785 0.0
H180 H 0.79758 0.23373 0.4005 0.0
H181 H 0.8462 0.25454 0.42674 0.0
H182 H 0.82893 0.2551 0.32446 0.0
H183 H 0.78364 0.35061 0.28636 0.0
H184 H 0.78312 0.37585 0.37897 0.0
H185 H 0.74995 0.32682 0.35641 0.0
H186 H 0.58363 0.06508 0.25988 0.0
H187 H 0.51827 0.01941 0.21451 0.0
H188 H 0.53612 0.06105 0.16149 0.0
H189 H 0.50596 0.05456 0.24075 0.0
H190 H 0.59143 0.17107 0.24254 0.0
H191 H 0.63293 0.107 0.35449 0.0
H192 H 0.66445 0.23134 0.15779 0.0
H193 H 0.67827 0.25772 0.25599 0.0
H194 H 0.63068 0.23403 0.21626 0.0
H195 H 0.6958 0.12896 0.3814 0.0
H196 H 0.72422 0.17911 0.3978 0.0
H197 H 0.72119 0.15563 0.30039 0.0
H198 H 0.63534 0.06445 0.8151 0.0
H199 H 0.64857 0.13411 0.77344 0.0
H200 H 0.73921 0.11486 0.78167 0.0
H201 H 0.67137 0.19537 0.92981 0.0
H202 H 0.65586 0.19269 0.82465 0.0
H203 H 0.7004 0.23026 0.86603 0.0
H204 H 0.79385 0.15315 0.86545 0.0
H205 H 0.79054 0.17989 0.9519 0.0
H206 H 0.80727 0.20154 0.85982 0.0
H207 H 0.95049 0.42811 0.00949 0.0
H208 H 0.95215 0.50096 0.97584 0.0
H209 H 0.98103 0.49538 0.05209 0.0
H210 H 0.93236 0.47309 0.0592 0.0
H211 H 0.84461 0.40457 0.9023 0.0
H212 H 0.92551 0.37141 0.93424 0.0
H213 H 0.77436 0.33299 0.97998 0.0
H214 H 0.76646 0.31197 0.87727 0.0
H215 H 0.78104 0.36098 0.89524 0.0
H216 H 0.90954 0.30862 0.94473 0.0
H217 H 0.86257 0.27271 0.91589 0.0
H218 H 0.87657 0.29203 0.02027 0.0
H219 H 0.73455 0.24883 0.38638 0.0
H220 H 0.68289 0.16337 0.14518 0.0
H221 H 0.69997 0.16242 0.00814 0.0
H222 H 0.7885 0.2545 0.84916 0.0
H223 H 0.84622 0.33624 0.09649 0.0
H224 H 0.83453 0.33278 0.23819 0.0
H225 H 0.65717 0.01786 0.70283 0.0
H226 H 0.62679 0.00122 0.78398 0.0
H227 H 0.67443 0.03579 0.80781 0.0
C228 C 0.44074 0.88443 0.46765 0.0
C229 C 0.47922 0.90318 0.43839 0.0
C230 C 0.48084 0.86712 0.32162 0.0
C231 C 0.51455 0.86842 0.33198 0.0
C232 C 0.51873 0.83902 0.29864 0.0
C233 C 0.48829 0.80765 0.25505 0.0
C234 C 0.45395 0.80601 0.24625 0.0
C235 C 0.45084 0.83621 0.2787 0.0
C236 C 0.55578 0.84184 0.30835 0.0
C237 C 0.42082 0.77273 0.20124 0.0
C238 C 0.47166 0.61014 0.5445 0.0
C239 C 0.47791 0.59309 0.46621 0.0
C240 C 0.50174 0.64424 0.37541 0.0
C241 C 0.46786 0.64026 0.34722 0.0
C242 C 0.46629 0.66498 0.29418 0.0
C243 C 0.49921 0.69483 0.27067 0.0
C244 C 0.53332 0.6992 0.30002 0.0
C245 C 0.53401 0.67345 0.3509 0.0
C246 C 0.42941 0.65926 0.26346 0.0
C247 C 0.5691 0.73131 0.27858 0.0
C248 C 0.55191 0.64695 0.77571 0.0
C249 C 0.51671 0.64135 0.7594 0.0
C250 C 0.50707 0.66695 0.79214 0.0
C251 C 0.5337 0.69917 0.84137 0.0
C252 C 0.56982 0.70551 0.85582 0.0
C253 C 0.57845 0.67907 0.82329 0.0
C254 C 0.46829 0.6591 0.77585 0.0
C255 C 0.59917 0.73995 0.90646 0.0
C256 C 0.52174 0.93993 0.65888 0.0
C257 C 0.51885 0.92878 0.74619 0.0
C258 C 0.50139 0.86315 0.76526 0.0
C259 C 0.47105 0.82806 0.77232 0.0
C260 C 0.47516 0.799 0.801 0.0
C261 C 0.51067 0.80538 0.82412 0.0
C262 C 0.54169 0.83985 0.81121 0.0
C263 C 0.53681 0.86833 0.78101 0.0
C264 C 0.44139 0.7622 0.81135 0.0
C265 C 0.57995 0.84723 0.83356 0.0
C266 C 0.49328 0.77836 0.21187 0.0
C267 C 0.49289 0.75038 0.2561 0.0
C268 C 0.49813 0.72247 0.21848 0.0
C269 C 0.50357 0.72221 0.13406 0.0
C270 C 0.50847 0.69439 0.09371 0.0
C271 C 0.5149 0.69517 0.01123 0.0
C272 C 0.51618 0.72352 0.96561 0.0
C273 C 0.52339 0.72506 0.88216 0.0
C274 C 0.52196 0.75214 0.83718 0.0
C275 C 0.51474 0.77872 0.87446 0.0
C276 C 0.51009 0.77915 0.95913 0.0
C277 C 0.50537 0.80708 -0.00042 0.0
C278 C 0.50028 0.8071 0.08235 0.0
C279 C 0.49911 0.77885 0.12793 0.0
C280 C 0.50418 0.75064 0.08883 0.0
C281 C 0.51013 0.75107 0.00444 0.0
C282 C 0.61319 0.61556 0.75309 0.0
C283 C 0.57637 0.60514 0.78626 0.0
O284 O 0.47674 0.89523 0.35484 0.0
O285 O 0.49473 0.89067 0.74402 0.0
O286 O 0.55986 0.6214 0.74301 0.0
O287 O 0.50495 0.62093 0.42597 0.0
H288 H 0.49475 0.89183 0.47137 0.0
H289 H 0.42783 0.85362 0.45675 0.0
H290 H 0.42345 0.89327 0.43329 0.0
H291 H 0.4419 0.89177 0.53424 0.0
H292 H 0.53759 0.89269 0.36537 0.0
H293 H 0.42487 0.83561 0.27186 0.0
H294 H 0.5537 0.81836 0.34163 0.0
H295 H 0.57686 0.86854 0.34238 0.0
H296 H 0.565 0.83951 0.24718 0.0
H297 H 0.42439 0.77249 0.13473 0.0
H298 H 0.39517 0.77329 0.21036 0.0
H299 H 0.41791 0.74642 0.222 0.0
H300 H 0.45173 0.57766 0.42667 0.0
H301 H 0.45284 0.58793 0.58167 0.0
H302 H 0.4592 0.62737 0.52885 0.0
H303 H 0.49814 0.62837 0.58135 0.0
H304 H 0.44252 0.61806 0.36581 0.0
H305 H 0.56 0.67638 0.37312 0.0
H306 H 0.42778 0.65992 0.19592 0.0
H307 H 0.42601 0.68235 0.2907 0.0
H308 H 0.40639 0.63236 0.2794 0.0
H309 H 0.59313 0.73315 0.31397 0.0
H310 H 0.56939 0.7581 0.2904 0.0
H311 H 0.57207 0.72775 0.21243 0.0
H312 H 0.58137 0.61468 0.85281 0.0
H313 H 0.49649 0.61621 0.72291 0.0
H314 H 0.60591 0.68356 0.83437 0.0
H315 H 0.45619 0.6585 0.83474 0.0
H316 H 0.45058 0.63214 0.73846 0.0
H317 H 0.46838 0.68186 0.74308 0.0
H318 H 0.62686 0.74337 0.90211 0.0
H319 H 0.59314 0.738 0.97163 0.0
H320 H 0.59946 0.76526 0.88651 0.0
H321 H 0.54671 0.93697 0.77271 0.0
H322 H 0.54336 0.96941 0.65728 0.0
H323 H 0.52929 0.92233 0.62028 0.0
H324 H 0.49513 0.93597 0.63296 0.0
H325 H 0.44385 0.82388 0.75802 0.0
H326 H 0.56083 0.8944 0.77147 0.0
H327 H 0.43659 0.76022 0.87723 0.0
H328 H 0.44529 0.73858 0.79015 0.0
H329 H 0.41661 0.75925 0.77715 0.0
H330 H 0.60134 0.87461 0.81555 0.0
H331 H 0.58365 0.82482 0.80339 0.0
H332 H 0.584 0.8468 0.90071 0.0
H333 H 0.48889 0.75058 0.32088 0.0
H334 H 0.50763 0.67185 0.12561 0.0
H335 H 0.51868 0.67312 0.98361 0.0
H336 H 0.52649 0.75254 0.7727 0.0
H337 H 0.50586 0.82954 0.96802 0.0
H338 H 0.49713 0.82956 0.1099 0.0
H339 H 0.60947 0.60657 0.68664 0.0
H340 H 0.6265 0.60213 0.78613 0.0
H341 H 0.63168 0.64629 0.76203 0.0
C342 C 0.87347 0.46592 0.42313 0.0
C343 C 0.90164 0.5003 0.3831 0.0
C344 C 0.86653 0.53097 0.3484 0.0
C345 C 0.84186 0.50266 0.28907 0.0
C346 C 0.81437 0.50586 0.24618 0.0
C347 C 0.81295 0.53916 0.25883 0.0
C348 C 0.83725 0.56753 0.31922 0.0
C349 C 0.86352 0.56278 0.36416 0.0
C350 C 0.78792 0.47414 0.18452 0.0
C351 C 0.83644 0.60335 0.33371 0.0
C352 C 0.57086 0.54562 0.23899 0.0
C353 C 0.58957 0.54327 0.31862 0.0
C354 C 0.6315 0.52312 0.26734 0.0
C355 C 0.65751 0.55794 0.2426 0.0
C356 C 0.68881 0.5625 0.20637 0.0
C357 C 0.6941 0.53155 0.19312 0.0
C358 C 0.66743 0.49619 0.21528 0.0
C359 C 0.63667 0.49257 0.2527 0.0
C360 C 0.71681 0.60072 0.18435 0.0
C361 C 0.67172 0.46235 0.20086 0.0
C362 C 0.6598 0.50289 0.68001 0.0
C363 C 0.68257 0.54111 0.70153 0.0
C364 C 0.71731 0.5547 0.74257 0.0
C365 C 0.72864 0.52912 0.76389 0.0
C366 C 0.70693 0.49089 0.73519 0.0
C367 C 0.67265 0.47824 0.69279 0.0
C368 C 0.74034 0.59577 0.76981 0.0
C369 C 0.71853 0.46298 0.7552 0.0
C370 C 0.01586 0.58624 0.89684 0.0
C371 C 0.98013 0.56321 0.84221 0.0
C372 C 0.92925 0.57659 0.82883 0.0
C373 C 0.92164 0.60581 0.8321 0.0
C374 C 0.88597 0.59921 0.84014 0.0
C375 C 0.8571 0.56231 0.8449 0.0
C376 C 0.86415 0.5323 0.83664 0.0
C377 C 0.90011 0.53968 0.82798 0.0
C378 C 0.87943 0.63183 0.84759 0.0
C379 C 0.83391 0.49253 0.84029 0.0
C380 C 0.78955 0.54573 0.20032 0.0
C381 C 0.75563 0.53962 0.22254 0.0
C382 C 0.72918 0.53709 0.16388 0.0
C383 C 0.7364 0.53925 0.08028 0.0
C384 C 0.70938 0.53291 0.01832 0.0
C385 C 0.71646 0.53334 0.93625 0.0
C386 C 0.75116 0.54101 0.91294 0.0
C387 C 0.75839 0.54049 0.82961 0.0
C388 C 0.79308 0.548 0.80871 0.0
C389 C 0.82094 0.55569 0.86936 0.0
C390 C 0.81404 0.55595 0.95282 0.0
C391 C 0.84124 0.563 0.0152 0.0
C392 C 0.8336 0.56086 0.09657 0.0
C393 C 0.79853 0.5518 0.11887 0.0
C394 C 0.77144 0.54701 0.05801 0.0
C395 C 0.77901 0.54844 0.97454 0.0
C396 C 0.57797 0.4415 0.72588 0.0
C397 C 0.59828 0.48292 0.71042 0.0
O398 O 0.89351 0.52876 0.3915 0.0
O399 O 0.96492 0.58551 0.82702 0.0
O400 O 0.62416 0.48925 0.65509 0.0
O401 O 0.60143 0.51775 0.30563 0.0
H402 H 0.9024 0.49283 0.31736 0.0
H403 H 0.84519 0.45519 0.39562 0.0
H404 H 0.87396 0.47295 0.48968 0.0
H405 H 0.87979 0.44297 0.41511 0.0
H406 H 0.84393 0.47805 0.27477 0.0
H407 H 0.88259 0.58442 0.41024 0.0
H408 H 0.75997 0.47043 0.18406 0.0
H409 H 0.78633 0.44737 0.19748 0.0
H410 H 0.79736 0.48046 0.12242 0.0
H411 H 0.85721 0.6227 0.38322 0.0
H412 H 0.80886 0.59703 0.35029 0.0
H413 H 0.8416 0.61762 0.27649 0.0
H414 H 0.6132 0.5713 0.33979 0.0
H415 H 0.55743 0.56255 0.24989 0.0
H416 H 0.55021 0.51709 0.21317 0.0
H417 H 0.59114 0.55876 0.19344 0.0
H418 H 0.65412 0.582 0.2523 0.0
H419 H 0.6165 0.46573 0.27119 0.0
H420 H 0.74408 0.60917 0.21551 0.0
H421 H 0.70946 0.62232 0.20162 0.0
H422 H 0.71934 0.59986 0.11741 0.0
H423 H 0.64605 0.43602 0.20871 0.0
H424 H 0.6937 0.4648 0.24503 0.0
H425 H 0.67997 0.46069 0.13823 0.0
H426 H 0.61165 0.49959 0.77018 0.0
H427 H 0.67226 0.5599 0.69027 0.0
H428 H 0.65477 0.44876 0.67451 0.0
H429 H 0.73745 0.60045 0.83559 0.0
H430 H 0.7317 0.61263 0.73458 0.0
H431 H 0.76975 0.60572 0.76279 0.0
H432 H 0.69933 0.43461 0.72511 0.0
H433 H 0.71991 0.46138 0.82244 0.0
H434 H 0.74633 0.47222 0.73542 0.0
H435 H 0.96182 0.53918 0.87559 0.0
H436 H 0.02836 0.56889 0.91122 0.0
H437 H 0.01023 0.59644 0.95533 0.0
H438 H 0.03573 0.61072 0.86624 0.0
H439 H 0.94411 0.63413 0.83102 0.0
H440 H 0.90515 0.51654 0.8215 0.0
H441 H 0.87223 0.63515 0.91046 0.0
H442 H 0.85594 0.62648 0.80437 0.0
H443 H 0.9039 0.65837 0.83506 0.0
H444 H 0.84322 0.47209 0.82756 0.0
H445 H 0.81061 0.48603 0.7953 0.0
H446 H 0.82364 0.48908 0.90204 0.0
H447 H 0.74926 0.53549 0.2857 0.0
H448 H 0.68221 0.52665 0.03256 0.0
H449 H 0.69416 0.52732 0.89146 0.0
H450 H 0.7982 0.54713 0.74475 0.0
H451 H 0.86858 0.56953 0.00196 0.0
H452 H 0.85548 0.56603 0.14184 0.0
H453 H 0.56257 0.42383 0.66865 0.0
H454 H 0.55864 0.43636 0.77364 0.0
H455 H 0.59781 0.43309 0.7482 0.0
C456 C 0.40794 0.03116 0.04457 0.0
C457 C 0.40179 0.99397 0.00498 0.0
C458 C 0.34363 0.94003 0.95281 0.0
C459 C 0.30668 0.92993 0.94823 0.0
C460 C 0.27956 0.89332 0.95934 0.0
C461 C 0.28988 0.86627 0.97323 0.0
C462 C 0.32673 0.87539 0.96794 0.0
C463 C 0.35336 0.91237 0.95873 0.0
C464 C 0.24037 0.88431 0.96272 0.0
C465 C 0.33844 0.84681 0.97887 0.0
C466 C 0.13012 0.61935 0.6581 0.0
C467 C 0.12302 0.60894 0.74609 0.0
C468 C 0.14126 0.66709 0.83379 0.0
C469 C 0.1791 0.67977 0.84389 0.0
C470 C 0.2031 0.71242 0.89438 0.0
C471 C 0.18941 0.73375 0.93347 0.0
C472 C 0.15176 0.7223 0.91942 0.0
C473 C 0.12816 0.68882 0.87105 0.0
C474 C 0.24312 0.72383 0.9068 0.0
C475 C 0.13622 0.74505 0.95642 0.0
C476 C 0.12807 0.66438 0.4188 0.0
C477 C 0.16285 0.66814 0.41265 0.0
C478 C 0.19199 0.70133 0.38986 0.0
C479 C 0.18619 0.73124 0.37377 0.0
C480 C 0.15194 0.72838 0.38529 0.0
C481 C 0.12329 0.69487 0.40786 0.0
C482 C 0.22847 0.70389 0.37935 0.0
C483 C 0.1451 0.76004 0.36982 0.0
C484 C 0.40689 0.99645 0.49879 0.0
C485 C 0.39831 0.9769 0.57832 0.0
C486 C 0.35627 0.91233 0.51708 0.0
C487 C 0.3544 0.87825 0.49752 0.0
C488 C 0.3261 0.85033 0.44368 0.0
C489 C 0.29752 0.85583 0.41206 0.0
C490 C 0.29754 0.88914 0.43698 0.0
C491 C 0.32715 0.91729 0.4887 0.0
C492 C 0.327 0.81505 0.42055 0.0
C493 C 0.26644 0.89507 0.40864 0.0
C494 C 0.26428 0.83172 0.00985 0.0
C495 C 0.23898 0.80021 0.95867 0.0
C496 C 0.2143 0.76713 0.99119 0.0
C497 C 0.2144 0.76584 0.07736 0.0
C498 C 0.18982 0.73341 0.11266 0.0
C499 C 0.18946 0.73278 0.19719 0.0
C500 C 0.21449 0.76416 0.25 0.0
C501 C 0.21435 0.76374 0.33597 0.0
C502 C 0.24077 0.79445 0.38699 0.0
C503 C 0.26756 0.82621 0.35442 0.0
C504 C 0.267 0.82791 0.26842 0.0
C505 C 0.2925 0.85984 0.23333 0.0
C506 C 0.29121 0.86142 0.14898 0.0
C507 C 0.26531 0.83053 0.09587 0.0
C508 C 0.23998 0.79769 0.12967 0.0
C509 C 0.24042 0.79664 0.21609 0.0
C510 C 0.09465 0.58198 0.34295 0.0
C511 C 0.09468 0.59675 0.431 0.0
O512 O 0.36926 0.97674 0.95506 0.0
O513 O 0.38681 0.93931 0.56257 0.0
O514 O 0.09811 0.63176 0.43239 0.0
O515 O 0.11643 0.63442 0.78957 0.0
H516 H 0.40033 0.97674 0.05601 0.0
H517 H 0.38528 0.02604 0.08326 0.0
H518 H 0.40863 0.0496 0.99721 0.0
H519 H 0.43418 0.04568 0.08408 0.0
H520 H 0.29941 0.95138 0.94167 0.0
H521 H 0.38184 0.91983 0.95893 0.0
H522 H 0.22181 0.85847 0.92266 0.0
H523 H 0.23624 0.90733 0.94347 0.0
H524 H 0.23244 0.87908 0.02624 0.0
H525 H 0.3659 0.8559 0.95699 0.0
H526 H 0.31822 0.81958 0.94544 0.0
H527 H 0.33966 0.84252 0.04481 0.0
H528 H 0.14736 0.60876 0.77423 0.0
H529 H 0.13432 0.59851 0.62199 0.0
H530 H 0.15521 0.6471 0.6582 0.0
H531 H 0.10675 0.62082 0.62838 0.0
H532 H 0.19036 0.66441 0.81363 0.0
H533 H 0.09914 0.67936 0.86214 0.0
H534 H 0.25222 0.72906 0.97315 0.0
H535 H 0.2598 0.75023 0.87841 0.0
H536 H 0.24879 0.70232 0.87923 0.0
H537 H 0.10866 0.73661 0.9269 0.0
H538 H 0.15476 0.77525 0.95077 0.0
H539 H 0.13369 0.74109 0.02253 0.0
H540 H 0.11749 0.59783 0.46994 0.0
H541 H 0.16724 0.64508 0.4231 0.0
H542 H 0.09649 0.69181 0.41402 0.0
H543 H 0.23471 0.70753 0.31446 0.0
H544 H 0.22898 0.67867 0.39714 0.0
H545 H 0.25047 0.72871 0.41712 0.0
H546 H 0.11808 0.75466 0.38873 0.0
H547 H 0.14599 0.76415 0.30355 0.0
H548 H 0.16698 0.7864 0.40345 0.0
H549 H 0.37679 0.98031 0.60767 0.0
H550 H 0.38137 0.9885 0.46032 0.0
H551 H 0.42398 0.98862 0.46248 0.0
H552 H 0.42155 0.02728 0.51261 0.0
H553 H 0.37576 0.87382 0.5237 0.0
H554 H 0.32721 0.9428 0.50691 0.0
H555 H 0.32136 0.8077 0.35335 0.0
H556 H 0.30536 0.79172 0.45059 0.0
H557 H 0.35382 0.81765 0.4399 0.0
H558 H 0.26799 0.91993 0.44204 0.0
H559 H 0.2397 0.87011 0.41718 0.0
H560 H 0.26722 0.899 0.34234 0.0
H561 H 0.23874 0.80135 0.89284 0.0
H562 H 0.17027 0.7082 0.07545 0.0
H563 H 0.16948 0.70715 0.22052 0.0
H564 H 0.24088 0.79335 0.45285 0.0
H565 H 0.31343 0.88422 0.27071 0.0
H566 H 0.31113 0.8872 0.12619 0.0
H567 H 0.09324 0.55447 0.34234 0.0
H568 H 0.12012 0.60131 0.31554 0.0
H569 H 0.07089 0.57897 0.30406 0.0
C570 C 0.37054 0.37235 0.53609 0.0
C571 C 0.40741 0.37422 0.52971 0.0
C572 C 0.42431 0.33597 0.44515 0.0
C573 C 0.46002 0.34919 0.48058 0.0
C574 C 0.47881 0.3299 0.46344 0.0
C575 C 0.46114 0.29628 0.41123 0.0
C576 C 0.4244 0.28198 0.37901 0.0
C577 C 0.4069 0.30264 0.39459 0.0
C578 C 0.51781 0.34597 0.49951 0.0
C579 C 0.40367 0.24528 0.32664 0.0
C580 C 0.52451 0.13337 0.76943 0.0
C581 C 0.51212 0.12267 0.67794 0.0
C582 C 0.52699 0.17188 0.58505 0.0
C583 C 0.49331 0.15584 0.53736 0.0
C584 C 0.48564 0.177 0.48417 0.0
C585 C 0.51225 0.21482 0.47828 0.0
C586 C 0.54615 0.23098 0.52634 0.0
C587 C 0.55318 0.20914 0.57848 0.0
C588 C 0.44953 0.15868 0.43248 0.0
C589 C 0.57523 0.27111 0.52124 0.0
C590 C 0.57977 0.16005 0.00225 0.0
C591 C 0.54393 0.14482 0.02584 0.0
C592 C 0.53016 0.16796 0.0511 0.0
C593 C 0.55355 0.20724 0.05795 0.0
C594 C 0.58991 0.22263 0.03548 0.0
C595 C 0.60218 0.19874 0.00591 0.0
C596 C 0.49061 0.15012 0.07047 0.0
C597 C 0.616 0.26424 0.04342 0.0
C598 C 0.44642 0.32818 0.70074 0.0
C599 C 0.45674 0.34797 0.78717 0.0
C600 C 0.49543 0.33236 0.87442 0.0
C601 C 0.46814 0.29661 0.89103 0.0
C602 C 0.47511 0.27757 0.95113 0.0
C603 C 0.51008 0.29453 0.99501 0.0
C604 C 0.53778 0.33021 0.97727 0.0
C605 C 0.5301 0.34854 0.91675 0.0
C606 C 0.4452 0.23923 0.96758 0.0
C607 C 0.57544 0.34897 0.02242 0.0
C608 C 0.4817 0.27749 0.38515 0.0
C609 C 0.48841 0.25654 0.44034 0.0
C610 C 0.50584 0.23663 0.41726 0.0
C611 C 0.51626 0.23696 0.33656 0.0
C612 C 0.53343 0.21692 0.31099 0.0
C613 C 0.54215 0.21612 0.23064 0.0
C614 C 0.53363 0.23487 0.17238 0.0
C615 C 0.54008 0.2321 0.08927 0.0
C616 C 0.53218 0.25189 0.03339 0.0
C617 C 0.51796 0.27458 0.05815 0.0
C618 C 0.51067 0.27715 0.14072 0.0
C619 C 0.49609 0.29944 0.1677 0.0
C620 C 0.48752 0.30042 0.24825 0.0
C621 C 0.49277 0.27878 0.30473 0.0
C622 C 0.5092 0.25766 0.27988 0.0
C623 C 0.51802 0.25673 0.19771 0.0
C624 C 0.61794 0.09875 0.99549 0.0
C625 C 0.58462 0.10387 0.00023 0.0
O626 O 0.40623 0.35505 0.45691 0.0
O627 O 0.48988 0.35191 0.81723 0.0
O628 O 0.5933 0.1383 0.97425 0.0
O629 O 0.53586 0.15215 0.63563 0.0
H630 H 0.41156 0.36049 0.58224 0.0
H631 H 0.3483 0.34275 0.53347 0.0
H632 H 0.36472 0.3856 0.48485 0.0
H633 H 0.37052 0.38683 0.59512 0.0
H634 H 0.4737 0.37512 0.51957 0.0
H635 H 0.37923 0.29256 0.36802 0.0
H636 H 0.51909 0.32703 0.54309 0.0
H637 H 0.52868 0.37402 0.53265 0.0
H638 H 0.53583 0.34813 0.45047 0.0
H639 H 0.37356 0.23361 0.32531 0.0
H640 H 0.41039 0.22444 0.34926 0.0
H641 H 0.41145 0.24964 0.2629 0.0
H642 H 0.48368 0.1177 0.6702 0.0
H643 H 0.504 0.11256 0.80646 0.0
H644 H 0.55165 0.13571 0.78341 0.0
H645 H 0.52695 0.16078 0.78776 0.0
H646 H 0.47336 0.12663 0.53964 0.0
H647 H 0.57925 0.22114 0.6148 0.0
H648 H 0.4354 0.17494 0.44256 0.0
H649 H 0.43112 0.12947 0.44641 0.0
H650 H 0.45454 0.1586 0.36672 0.0
H651 H 0.59926 0.28019 0.56617 0.0
H652 H 0.56356 0.28963 0.53225 0.0
H653 H 0.58472 0.27469 0.45873 0.0
H654 H 0.57873 0.10287 0.06573 0.0
H655 H 0.52624 0.11488 0.02314 0.0
H656 H 0.6298 0.21028 0.98775 0.0
H657 H 0.48925 0.14877 0.13757 0.0
H658 H 0.47407 0.12117 0.0408 0.0
H659 H 0.47795 0.1666 0.0503 0.0
H660 H 0.64471 0.27127 0.03596 0.0
H661 H 0.61507 0.27684 0.10409 0.0
H662 H 0.60762 0.27713 0.99575 0.0
H663 H 0.43454 0.33164 0.82682 0.0
H664 H 0.41897 0.32282 0.67737 0.0
H665 H 0.44534 0.30087 0.70146 0.0
H666 H 0.46707 0.34533 0.65881 0.0
H667 H 0.4416 0.28317 0.85653 0.0
H668 H 0.5511 0.37592 0.90273 0.0
H669 H 0.4391 0.2394 0.03259 0.0
H670 H 0.45463 0.21876 0.95732 0.0
H671 H 0.41953 0.22973 0.92792 0.0
H672 H 0.59372 0.37717 0.00278 0.0
H673 H 0.58827 0.3315 0.01181 0.0
H674 H 0.57316 0.35161 0.08926 0.0
H675 H 0.47964 0.2554 0.50167 0.0
H676 H 0.54 0.20129 0.3525 0.0
H677 H 0.55519 0.20013 0.21447 0.0
H678 H 0.53687 0.24936 0.96954 0.0
H679 H 0.49081 0.3161 0.12664 0.0
H680 H 0.47629 0.31805 0.26532 0.0
H681 H 0.64088 0.12065 0.03701 0.0
H682 H 0.62645 0.10101 0.93209 0.0
H683 H 0.61205 0.07127 0.0155 0.0
C684 C 0.03562 0.44118 0.56037 0.0
C685 C 0.06265 0.42828 0.86842 0.0
C686 C 0.97693 0.45487 0.90559 0.0
Mg687 Mg 0.99498 0.48165 0.48132 0.0
Mg688 Mg 0.99622 0.55611 0.57275 0.0
O689 O 0.9889 0.50822 0.58084 0.0
Mg690 Mg 0.01394 0.49481 0.66666 0.0
O691 O 0.03708 0.476 0.74608 0.0
Mg692 Mg 0.99721 0.42178 0.73374 0.0
Mg693 Mg 0.05471 0.49858 0.8529 0.0
C694 C 0.98774 0.54929 0.76328 0.0
O695 O 0.06812 0.55252 0.68722 0.0
O696 O 0.95328 0.49294 0.41159 0.0
O697 O 0.08933 0.55516 0.8182 0.0
O698 O 0.0441 0.53604 0.44774 0.0
O699 O 0.95007 0.53851 0.4856 0.0
O700 O 0.04714 0.58527 0.51873 0.0
O701 O 0.96214 0.43762 0.65453 0.0
O702 O 0.94709 0.42831 0.52005 0.0
C703 C 0.94069 0.41749 0.59184 0.0
C704 C 0.9386 0.51316 0.42571 0.0
O705 O 0.99256 0.52091 0.7628 0.0
O706 O 0.03548 0.41002 0.8144 0.0
O707 O 0.99133 0.5678 0.70077 0.0
O708 O 0.97079 0.42965 0.84842 0.0
O709 O 0.07578 0.46304 0.89075 0.0
O710 O 0.00728 0.48563 0.9164 0.0
O711 O 0.0337 0.4711 0.56538 0.0
O712 O 0.02458 0.41849 0.6165 0.0
C713 C 0.05986 0.57117 0.46776 0.0
C714 C 0.09129 0.56989 0.75032 0.0
C715 C 0.5117 0.08747 0.64622 0.0
C716 C 0.55297 0.05367 0.36597 0.0
C717 C 0.49907 0.94466 0.45919 0.0
Mg718 Mg 0.48246 0.04623 0.80076 0.0
Mg719 Mg 0.49606 0.99006 0.90982 0.0
O720 O 0.49272 0.00185 0.79106 0.0
Mg721 Mg 0.51828 0.01332 0.67108 0.0
O722 O 0.53852 0.03555 0.56623 0.0
Mg723 Mg 0.49026 0.01995 0.50421 0.0
Mg724 Mg 0.56814 0.01937 0.51562 0.0
C725 C 0.50523 0.94893 0.80058 0.0
O726 O 0.5782 0.03774 0.72434 0.0
O727 O 0.44298 0.02359 0.9026 0.0
O728 O 0.61024 0.03744 0.61819 0.0
O729 O 0.53363 0.07923 0.89627 0.0
O730 O 0.44826 0.98047 0.96683 0.0
O731 O 0.54237 0.03916 0.96645 0.0
O732 O 0.46042 0.99221 0.61472 0.0
O733 O 0.43377 0.01198 0.70361 0.0
C734 C 0.43258 0.99417 0.63619 0.0
C735 C 0.43297 0.99984 0.95575 0.0
O736 O 0.50093 0.9763 0.77825 0.0
O737 O 0.52259 0.04703 0.39382 0.0
O738 O 0.50174 0.94261 0.8756 0.0
O739 O 0.48135 0.96227 0.45468 0.0
O740 O 0.57555 0.04622 0.40353 0.0
O741 O 0.53287 0.96082 0.48499 0.0
O742 O 0.51761 0.06777 0.69631 0.0
O743 O 0.50175 0.07611 0.56983 0.0
C744 C 0.55186 0.07233 0.95043 0.0
C745 C 0.60819 0.044 0.69471 0.0
C746 C 0.55151 0.56362 0.77562 0.0
C747 C 0.46126 0.46709 0.97046 0.0
C748 C 0.46034 0.38601 0.78757 0.0
Mg749 Mg 0.555 0.55243 0.58219 0.0
Mg750 Mg 0.48612 0.48968 0.45087 0.0
O751 O 0.51334 0.50021 0.55191 0.0
Mg752 Mg 0.493 0.48937 0.66211 0.0
O753 O 0.47755 0.48043 0.77551 0.0
Mg754 Mg 0.52054 0.47906 0.82827 0.0
Mg755 Mg 0.43125 0.43965 0.78922 0.0
C756 C 0.43762 0.41425 0.53532 0.0
O757 O 0.44491 0.50076 0.64071 0.0
O758 O 0.57549 0.55124 0.45479 0.0
O759 O 0.40147 0.45885 0.71479 0.0
O760 O 0.52021 0.57724 0.52989 0.0
O761 O 0.5304 0.50489 0.3703 0.0
O762 O 0.47121 0.53228 0.45202 0.0
O763 O 0.53951 0.47922 0.69769 0.0
O764 O 0.58503 0.52342 0.63484 0.0
C765 C 0.57268 0.49555 0.67853 0.0
C766 C 0.56362 0.5318 0.38535 0.0
O767 O 0.45339 0.42958 0.60688 0.0
O768 O 0.49415 0.47858 0.95051 0.0
O769 O 0.44445 0.43215 0.47075 0.0
O770 O 0.49085 0.41456 0.81526 0.0
O771 O 0.4332 0.45077 0.91845 0.0
O772 O 0.43264 0.38887 0.76426 0.0
O773 O 0.53223 0.54876 0.70754 0.0
O774 O 0.55053 0.54373 0.83362 0.0
C775 C 0.49008 0.56571 0.48543 0.0
C776 C 0.41273 0.48526 0.66712 0.0
loop_
_geom_bond_atom_site_label_1
_geom_bond_atom_site_label_2
_geom_bond_distance
_geom_bond_site_symmetry_2
_ccdc_geom_bond_type
C0 C1 1.560 . S
C0 H61 0.959 . S
C0 H62 0.959 . S
C0 H63 0.960 . S
C1 C0 1.560 . S
C1 O56 1.426 . S
C1 H60 0.980 . S
C2 C3 1.407 . S
C2 C7 1.418 . S
C2 O56 1.334 . S
C3 C2 1.407 . S
C3 C4 1.360 . S
C3 H64 0.929 . S
C4 C3 1.360 . S
C4 C5 1.401 . S
C4 C8 1.527 . S
C5 C4 1.401 . S
C5 C6 1.405 . S
C5 C38 1.587 . S
C6 C5 1.405 . S
C6 C7 1.332 . S
C6 C9 1.496 . S
C7 C2 1.418 . S
C7 C6 1.332 . S
C7 H65 0.929 . S
C8 C4 1.527 . S
C8 H66 0.959 . S
C8 H67 0.961 . S
C8 H68 0.961 . S
C9 C6 1.496 . S
C9 H69 0.960 . S
C9 H70 0.960 . S
C9 H71 0.961 . S
C10 C11 1.517 . S
C10 H73 0.961 . S
C10 H74 0.960 . S
C10 H75 0.959 . S
C11 C10 1.517 . S
C11 O59 1.468 . S
C11 H72 0.980 . S
C12 C13 1.349 . S
C12 C17 1.367 . S
C12 O59 1.408 . S
C13 C12 1.349 . S
C13 C14 1.407 . S
C13 H76 0.930 . S
C14 C13 1.407 . S
C14 C15 1.449 . S
C14 C18 1.535 . S
C15 C14 1.449 . S
C15 C16 1.384 . S
C15 C40 1.553 . S
C16 C15 1.384 . S
C16 C17 1.364 . S
C16 C19 1.450 . S
C17 C12 1.367 . S
C17 C16 1.364 . S
C17 H77 0.931 . S
C18 C14 1.535 . S
C18 H78 0.959 . S
C18 H79 0.961 . S
C18 H80 0.959 . S
C19 C16 1.450 . S
C19 H81 0.960 . S
C19 H82 0.960 . S
C19 H83 0.960 . S
C20 C21 1.309 . S
C20 C25 1.304 . S
C20 O58 1.435 . S
C21 C20 1.309 . S
C21 C22 1.476 1_556 S
C21 H85 0.930 . S
C22 C21 1.476 1_554 S
C22 C23 1.400 . S
C22 C26 1.567 . S
C23 C22 1.400 . S
C23 C24 1.373 1_554 S
C23 C45 1.432 . S
C24 C23 1.373 1_556 S
C24 C25 1.339 . S
C24 C27 1.530 1_556 S
C25 C20 1.304 . S
C25 C24 1.339 . S
C25 H86 0.930 . S
C26 C22 1.567 . S
C26 H87 0.961 . S
C26 H88 0.960 . S
C26 H89 0.958 . S
C27 C24 1.530 1_554 S
C27 H90 0.961 1_554 S
C27 H91 0.960 . S
C27 H92 0.960 1_554 S
C28 C29 1.530 . S
C28 H94 0.961 . S
C28 H95 0.961 . S
C28 H96 0.959 . S
C29 C28 1.530 . S
C29 O57 1.412 . S
C29 H93 0.980 . S
C30 C31 1.288 . S
C30 C35 1.377 . S
C30 O57 1.393 . S
C31 C30 1.288 . S
C31 C32 1.369 1_556 S
C31 H97 0.932 . S
C32 C31 1.369 1_554 S
C32 C33 1.398 . S
C32 C36 1.527 . S
C33 C32 1.398 . S
C33 C34 1.380 . S
C33 C47 1.497 . S
C34 C33 1.380 . S
C34 C35 1.382 1_554 S
C34 C37 1.604 . S
C35 C30 1.377 . S
C35 C34 1.382 1_556 S
C35 H98 0.929 . S
C36 C32 1.527 . S
C36 H99 0.961 . S
C36 H100 0.959 . S
C36 H101 0.959 . S
C37 C34 1.604 . S
C37 H102 0.960 1_554 S
C37 H103 0.962 . S
C37 H104 0.961 . S
C38 C5 1.587 . S
C38 C39 1.360 . S
C38 C51 1.412 . S
C39 C38 1.360 . S
C39 C40 1.365 . S
C39 H105 0.929 . S
C40 C15 1.553 . S
C40 C39 1.365 . S
C40 C41 1.404 . S
C41 C40 1.404 . S
C41 C42 1.395 . S
C41 C52 1.451 . S
C42 C41 1.395 . S
C42 C43 1.322 . S
C42 H106 0.930 . S
C43 C42 1.322 . S
C43 C44 1.459 . S
C43 H107 0.929 . S
C44 C43 1.459 . S
C44 C45 1.445 . S
C44 C53 1.395 . S
C45 C23 1.432 . S
C45 C44 1.445 . S
C45 C46 1.370 . S
C46 C45 1.370 . S
C46 C47 1.438 . S
C46 H108 0.930 1_554 S
C47 C33 1.497 . S
C47 C46 1.438 . S
C47 C48 1.360 . S
C48 C47 1.360 . S
C48 C49 1.401 . S
C48 C53 1.446 . S
C49 C48 1.401 . S
C49 C50 1.347 . S
C49 H109 0.929 . S
C50 C49 1.347 . S
C50 C51 1.455 . S
C50 H110 0.930 . S
C51 C38 1.412 . S
C51 C50 1.455 . S
C51 C52 1.331 . S
C52 C41 1.451 . S
C52 C51 1.331 . S
C52 C53 1.497 . S
C53 C44 1.395 . S
C53 C48 1.446 . S
C53 C52 1.497 . S
C54 C55 1.582 . S
C54 H111 0.962 . S
C54 H112 0.959 1_455 S
C54 H113 0.958 . S
C55 C54 1.582 . S
C55 O58 1.458 . S
C55 H84 0.980 . S
O56 C1 1.426 . S
O56 C2 1.334 . S
O57 C29 1.412 . S
O57 C30 1.393 . S
O58 C20 1.435 . S
O58 C55 1.458 . S
O59 C11 1.468 . S
O59 C12 1.408 . S
H60 C1 0.980 . S
H61 C0 0.959 . S
H62 C0 0.959 . S
H63 C0 0.960 . S
H64 C3 0.929 . S
H65 C7 0.929 . S
H66 C8 0.959 . S
H67 C8 0.961 . S
H68 C8 0.961 . S
H69 C9 0.960 . S
H70 C9 0.960 . S
H71 C9 0.961 . S
H72 C11 0.980 . S
H73 C10 0.961 . S
H74 C10 0.960 . S
H75 C10 0.959 . S
H76 C13 0.930 . S
H77 C17 0.931 . S
H78 C18 0.959 . S
H79 C18 0.961 . S
H80 C18 0.959 . S
H81 C19 0.960 . S
H82 C19 0.960 . S
H83 C19 0.960 . S
H84 C55 0.980 . S
H85 C21 0.930 . S
H86 C25 0.930 . S
H87 C26 0.961 . S
H88 C26 0.960 . S
H89 C26 0.958 . S
H90 C27 0.961 1_556 S
H91 C27 0.960 . S
H92 C27 0.960 1_556 S
H93 C29 0.980 . S
H94 C28 0.961 . S
H95 C28 0.961 . S
H96 C28 0.959 . S
H97 C31 0.932 . S
H98 C35 0.929 . S
H99 C36 0.961 . S
H100 C36 0.959 . S
H101 C36 0.959 . S
H102 C37 0.960 1_556 S
H103 C37 0.962 . S
H104 C37 0.961 . S
H105 C39 0.929 . S
H106 C42 0.930 . S
H107 C43 0.929 . S
H108 C46 0.930 1_556 S
H109 C49 0.929 . S
H110 C50 0.930 . S
H111 C54 0.962 . S
H112 C54 0.959 1_655 S
H113 C54 0.958 . S
C114 C115 1.560 . S
C114 H175 0.959 . S
C114 H176 0.959 . S
C114 H177 0.960 . S
C115 C114 1.560 . S
C115 O170 1.426 . S
C115 H174 0.980 . S
C116 C117 1.407 . S
C116 C121 1.418 . S
C116 O170 1.334 . S
C117 C116 1.407 . S
C117 C118 1.360 . S
C117 H178 0.929 . S
C118 C117 1.360 . S
C118 C119 1.401 . S
C118 C122 1.527 . S
C119 C118 1.401 . S
C119 C120 1.405 . S
C119 C152 1.587 . S
C120 C119 1.405 . S
C120 C121 1.332 . S
C120 C123 1.496 . S
C121 C116 1.418 . S
C121 C120 1.332 . S
C121 H179 0.929 . S
C122 C118 1.527 . S
C122 H180 0.959 . S
C122 H181 0.961 . S
C122 H182 0.961 . S
C123 C120 1.496 . S
C123 H183 0.960 . S
C123 H184 0.960 . S
C123 H185 0.961 . S
C124 C125 1.517 . S
C124 H187 0.961 . S
C124 H188 0.960 . S
C124 H189 0.959 . S
C125 C124 1.517 . S
C125 O173 1.468 . S
C125 H186 0.980 . S
C126 C127 1.349 . S
C126 C131 1.367 . S
C126 O173 1.408 . S
C127 C126 1.349 . S
C127 C128 1.407 . S
C127 H190 0.930 . S
C128 C127 1.407 . S
C128 C129 1.449 . S
C128 C132 1.535 . S
C129 C128 1.449 . S
C129 C130 1.384 . S
C129 C154 1.553 . S
C130 C129 1.384 . S
C130 C131 1.364 . S
C130 C133 1.450 . S
C131 C126 1.367 . S
C131 C130 1.364 . S
C131 H191 0.931 . S
C132 C128 1.535 . S
C132 H192 0.959 . S
C132 H193 0.961 . S
C132 H194 0.959 . S
C133 C130 1.450 . S
C133 H195 0.960 . S
C133 H196 0.960 . S
C133 H197 0.960 . S
C134 C135 1.309 . S
C134 C139 1.304 . S
C134 O172 1.435 . S
C135 C134 1.309 . S
C135 C136 1.476 . S
C135 H199 0.930 . S
C136 C135 1.476 . S
C136 C137 1.400 . S
C136 C140 1.567 . S
C137 C136 1.400 . S
C137 C138 1.373 . S
C137 C159 1.432 . S
C138 C137 1.373 . S
C138 C139 1.339 . S
C138 C141 1.530 . S
C139 C134 1.304 . S
C139 C138 1.339 . S
C139 H200 0.930 . S
C140 C136 1.567 . S
C140 H201 0.961 . S
C140 H202 0.960 . S
C140 H203 0.958 . S
C141 C138 1.530 . S
C141 H204 0.961 . S
C141 H205 0.960 . S
C141 H206 0.960 . S
C142 C143 1.530 . S
C142 H208 0.961 . S
C142 H209 0.961 . S
C142 H210 0.959 . S
C143 C142 1.530 . S
C143 O171 1.412 . S
C143 H207 0.980 . S
C144 C145 1.288 . S
C144 C149 1.377 . S
C144 O171 1.393 . S
C145 C144 1.288 . S
C145 C146 1.369 . S
C145 H211 0.932 . S
C146 C145 1.369 . S
C146 C147 1.398 . S
C146 C150 1.527 . S
C147 C146 1.398 . S
C147 C148 1.380 . S
C147 C161 1.497 . S
C148 C147 1.380 . S
C148 C149 1.383 . S
C148 C151 1.603 . S
C149 C144 1.377 . S
C149 C148 1.383 . S
C149 H212 0.929 . S
C150 C146 1.527 . S
C150 H213 0.961 . S
C150 H214 0.959 . S
C150 H215 0.959 . S
C151 C148 1.603 . S
C151 H216 0.960 . S
C151 H217 0.962 . S
C151 H218 0.961 . S
C152 C119 1.587 . S
C152 C153 1.360 . S
C152 C165 1.412 . S
C153 C152 1.360 . S
C153 C154 1.365 . S
C153 H219 0.929 . S
C154 C129 1.553 . S
C154 C153 1.365 . S
C154 C155 1.404 . S
C155 C154 1.404 . S
C155 C156 1.395 . S
C155 C166 1.451 . S
C156 C155 1.395 . S
C156 C157 1.322 . S
C156 H220 0.930 . S
C157 C156 1.322 . S
C157 C158 1.459 . S
C157 H221 0.929 . S
C158 C157 1.459 . S
C158 C159 1.445 1_554 S
C158 C167 1.395 . S
C159 C137 1.432 . S
C159 C158 1.445 1_556 S
C159 C160 1.370 . S
C160 C159 1.370 . S
C160 C161 1.438 . S
C160 H222 0.930 . S
C161 C147 1.497 . S
C161 C160 1.438 . S
C161 C162 1.360 1_556 S
C162 C161 1.360 1_554 S
C162 C163 1.401 . S
C162 C167 1.446 . S
C163 C162 1.401 . S
C163 C164 1.347 . S
C163 H223 0.929 . S
C164 C163 1.347 . S
C164 C165 1.455 . S
C164 H224 0.930 . S
C165 C152 1.412 . S
C165 C164 1.455 . S
C165 C166 1.331 . S
C166 C155 1.451 . S
C166 C165 1.331 . S
C166 C167 1.497 . S
C167 C158 1.395 . S
C167 C162 1.446 . S
C167 C166 1.497 . S
C168 C169 1.582 . S
C168 H225 0.962 . S
C168 H226 0.959 1_545 S
C168 H227 0.958 . S
C169 C168 1.582 . S
C169 O172 1.458 . S
C169 H198 0.980 . S
O170 C115 1.426 . S
O170 C116 1.334 . S
O171 C143 1.412 . S
O171 C144 1.393 . S
O172 C134 1.435 . S
O172 C169 1.458 . S
O173 C125 1.468 . S
O173 C126 1.408 . S
H174 C115 0.980 . S
H175 C114 0.959 . S
H176 C114 0.959 . S
H177 C114 0.960 . S
H178 C117 0.929 . S
H179 C121 0.929 . S
H180 C122 0.959 . S
H181 C122 0.961 . S
H182 C122 0.961 . S
H183 C123 0.960 . S
H184 C123 0.960 . S
H185 C123 0.961 . S
H186 C125 0.980 . S
H187 C124 0.961 . S
H188 C124 0.960 . S
H189 C124 0.959 . S
H190 C127 0.930 . S
H191 C131 0.931 . S
H192 C132 0.959 . S
H193 C132 0.961 . S
H194 C132 0.959 . S
H195 C133 0.960 . S
H196 C133 0.960 . S
H197 C133 0.960 . S
H198 C169 0.980 . S
H199 C135 0.930 . S
H200 C139 0.930 . S
H201 C140 0.961 . S
H202 C140 0.960 . S
H203 C140 0.958 . S
H204 C141 0.961 . S
H205 C141 0.960 . S
H206 C141 0.960 . S
H207 C143 0.980 . S
H208 C142 0.961 . S
H209 C142 0.961 . S
H210 C142 0.959 . S
H211 C145 0.932 . S
H212 C149 0.929 . S
H213 C150 0.961 . S
H214 C150 0.959 . S
H215 C150 0.959 . S
H216 C151 0.960 . S
H217 C151 0.962 . S
H218 C151 0.961 . S
H219 C153 0.929 . S
H220 C156 0.930 . S
H221 C157 0.929 . S
H222 C160 0.930 . S
H223 C163 0.929 . S
H224 C164 0.930 . S
H225 C168 0.962 . S
H226 C168 0.959 1_565 S
H227 C168 0.958 . S
C228 C229 1.560 . S
C228 H289 0.959 . S
C228 H290 0.959 . S
C228 H291 0.960 . S
C229 C228 1.560 . S
C229 O284 1.426 . S
C229 H288 0.980 . S
C230 C231 1.407 . S
C230 C235 1.418 . S
C230 O284 1.334 . S
C231 C230 1.407 . S
C231 C232 1.360 . S
C231 H292 0.929 . S
C232 C231 1.360 . S
C232 C233 1.401 . S
C232 C236 1.527 . S
C233 C232 1.401 . S
C233 C234 1.405 . S
C233 C266 1.587 . S
C234 C233 1.405 . S
C234 C235 1.332 . S
C234 C237 1.496 . S
C235 C230 1.418 . S
C235 C234 1.332 . S
C235 H293 0.929 . S
C236 C232 1.527 . S
C236 H294 0.959 . S
C236 H295 0.961 . S
C236 H296 0.961 . S
C237 C234 1.496 . S
C237 H297 0.960 . S
C237 H298 0.960 . S
C237 H299 0.961 . S
C238 C239 1.517 . S
C238 H301 0.961 . S
C238 H302 0.960 . S
C238 H303 0.959 . S
C239 C238 1.517 . S
C239 O287 1.468 . S
C239 H300 0.980 . S
C240 C241 1.349 . S
C240 C245 1.367 . S
C240 O287 1.408 . S
C241 C240 1.349 . S
C241 C242 1.407 . S
C241 H304 0.930 . S
C242 C241 1.407 . S
C242 C243 1.449 . S
C242 C246 1.535 . S
C243 C242 1.449 . S
C243 C244 1.384 . S
C243 C268 1.553 . S
C244 C243 1.384 . S
C244 C245 1.364 . S
C244 C247 1.450 . S
C245 C240 1.367 . S
C245 C244 1.364 . S
C245 H305 0.931 . S
C246 C242 1.535 . S
C246 H306 0.959 . S
C246 H307 0.961 . S
C246 H308 0.959 . S
C247 C244 1.450 . S
C247 H309 0.960 . S
C247 H310 0.960 . S
C247 H311 0.960 . S
C248 C249 1.309 . S
C248 C253 1.304 . S
C248 O286 1.435 . S
C249 C248 1.309 . S
C249 C250 1.476 . S
C249 H313 0.930 . S
C250 C249 1.476 . S
C250 C251 1.400 . S
C250 C254 1.567 . S
C251 C250 1.400 . S
C251 C252 1.373 . S
C251 C273 1.432 . S
C252 C251 1.373 . S
C252 C253 1.339 . S
C252 C255 1.530 . S
C253 C248 1.304 . S
C253 C252 1.339 . S
C253 H314 0.930 . S
C254 C250 1.567 . S
C254 H315 0.961 . S
C254 H316 0.960 . S
C254 H317 0.958 . S
C255 C252 1.530 . S
C255 H318 0.961 . S
C255 H319 0.960 . S
C255 H320 0.960 . S
C256 C257 1.530 . S
C256 H322 0.961 . S
C256 H323 0.961 . S
C256 H324 0.959 . S
C257 C256 1.530 . S
C257 O285 1.412 . S
C257 H321 0.980 . S
C258 C259 1.288 . S
C258 C263 1.377 . S
C258 O285 1.393 . S
C259 C258 1.288 . S
C259 C260 1.369 . S
C259 H325 0.932 . S
C260 C259 1.369 . S
C260 C261 1.398 . S
C260 C264 1.527 . S
C261 C260 1.398 . S
C261 C262 1.380 . S
C261 C275 1.497 . S
C262 C261 1.380 . S
C262 C263 1.383 . S
C262 C265 1.603 . S
C263 C258 1.377 . S
C263 C262 1.383 . S
C263 H326 0.929 . S
C264 C260 1.527 . S
C264 H327 0.961 . S
C264 H328 0.959 . S
C264 H329 0.959 . S
C265 C262 1.603 . S
C265 H330 0.960 . S
C265 H331 0.962 . S
C265 H332 0.961 . S
C266 C233 1.587 . S
C266 C267 1.360 . S
C266 C279 1.412 . S
C267 C266 1.360 . S
C267 C268 1.365 . S
C267 H333 0.929 . S
C268 C243 1.553 . S
C268 C267 1.365 . S
C268 C269 1.404 . S
C269 C268 1.404 . S
C269 C270 1.395 . S
C269 C280 1.451 . S
C270 C269 1.395 . S
C270 C271 1.322 . S
C270 H334 0.930 . S
C271 C270 1.322 . S
C271 C272 1.459 1_554 S
C271 H335 0.929 . S
C272 C271 1.459 1_556 S
C272 C273 1.445 . S
C272 C281 1.395 1_556 S
C273 C251 1.432 . S
C273 C272 1.445 . S
C273 C274 1.370 . S
C274 C273 1.370 . S
C274 C275 1.438 . S
C274 H336 0.930 . S
C275 C261 1.497 . S
C275 C274 1.438 . S
C275 C276 1.360 . S
C276 C275 1.360 . S
C276 C277 1.401 1_556 S
C276 C281 1.446 1_556 S
C277 C276 1.401 1_554 S
C277 C278 1.347 . S
C277 H337 0.929 . S
C278 C277 1.347 . S
C278 C279 1.455 . S
C278 H338 0.930 . S
C279 C266 1.412 . S
C279 C278 1.455 . S
C279 C280 1.331 . S
C280 C269 1.451 . S
C280 C279 1.331 . S
C280 C281 1.497 . S
C281 C272 1.395 1_554 S
C281 C276 1.446 1_554 S
C281 C280 1.497 . S
C282 C283 1.582 . S
C282 H339 0.962 . S
C282 H340 0.959 . S
C282 H341 0.958 . S
C283 C282 1.582 . S
C283 O286 1.458 . S
C283 H312 0.980 . S
O284 C229 1.426 . S
O284 C230 1.334 . S
O285 C257 1.412 . S
O285 C258 1.393 . S
O286 C248 1.435 . S
O286 C283 1.458 . S
O287 C239 1.468 . S
O287 C240 1.408 . S
H288 C229 0.980 . S
H289 C228 0.959 . S
H290 C228 0.959 . S
H291 C228 0.960 . S
H292 C231 0.929 . S
H293 C235 0.929 . S
H294 C236 0.959 . S
H295 C236 0.961 . S
H296 C236 0.961 . S
H297 C237 0.960 . S
H298 C237 0.960 . S
H299 C237 0.961 . S
H300 C239 0.980 . S
H301 C238 0.961 . S
H302 C238 0.960 . S
H303 C238 0.959 . S
H304 C241 0.930 . S
H305 C245 0.931 . S
H306 C246 0.959 . S
H307 C246 0.961 . S
H308 C246 0.959 . S
H309 C247 0.960 . S
H310 C247 0.960 . S
H311 C247 0.960 . S
H312 C283 0.980 . S
H313 C249 0.930 . S
H314 C253 0.930 . S
H315 C254 0.961 . S
H316 C254 0.960 . S
H317 C254 0.958 . S
H318 C255 0.961 . S
H319 C255 0.960 . S
H320 C255 0.960 . S
H321 C257 0.980 . S
H322 C256 0.961 . S
H323 C256 0.961 . S
H324 C256 0.959 . S
H325 C259 0.932 . S
H326 C263 0.929 . S
H327 C264 0.961 . S
H328 C264 0.959 . S
H329 C264 0.959 . S
H330 C265 0.960 . S
H331 C265 0.962 . S
H332 C265 0.961 . S
H333 C267 0.929 . S
H334 C270 0.930 . S
H335 C271 0.929 . S
H336 C274 0.930 . S
H337 C277 0.929 . S
H338 C278 0.930 . S
H339 C282 0.962 . S
H340 C282 0.959 . S
H341 C282 0.958 . S
C342 C343 1.560 . S
C342 H403 0.959 . S
C342 H404 0.959 1_655 S
C342 H405 0.960 . S
C343 C342 1.560 . S
C343 O398 1.426 . S
C343 H402 0.980 . S
C344 C345 1.407 . S
C344 C349 1.418 . S
C344 O398 1.334 . S
C345 C344 1.407 . S
C345 C346 1.360 . S
C345 H406 0.929 . S
C346 C345 1.360 . S
C346 C347 1.401 . S
C346 C350 1.527 . S
C347 C346 1.401 . S
C347 C348 1.405 . S
C347 C380 1.587 . S
C348 C347 1.405 . S
C348 C349 1.332 . S
C348 C351 1.496 . S
C349 C344 1.418 . S
C349 C348 1.332 . S
C349 H407 0.929 . S
C350 C346 1.527 . S
C350 H408 0.959 . S
C350 H409 0.961 . S
C350 H410 0.961 . S
C351 C348 1.496 . S
C351 H411 0.960 . S
C351 H412 0.960 . S
C351 H413 0.961 . S
C352 C353 1.517 . S
C352 H415 0.961 . S
C352 H416 0.960 . S
C352 H417 0.959 . S
C353 C352 1.517 . S
C353 O401 1.468 . S
C353 H414 0.980 . S
C354 C355 1.349 . S
C354 C359 1.367 . S
C354 O401 1.408 . S
C355 C354 1.349 . S
C355 C356 1.407 . S
C355 H418 0.930 . S
C356 C355 1.407 . S
C356 C357 1.449 . S
C356 C360 1.535 . S
C357 C356 1.449 . S
C357 C358 1.384 . S
C357 C382 1.553 . S
C358 C357 1.384 . S
C358 C359 1.364 . S
C358 C361 1.450 . S
C359 C354 1.367 . S
C359 C358 1.364 . S
C359 H419 0.931 . S
C360 C356 1.535 . S
C360 H420 0.959 . S
C360 H421 0.961 . S
C360 H422 0.959 . S
C361 C358 1.450 . S
C361 H423 0.960 . S
C361 H424 0.960 . S
C361 H425 0.960 . S
C362 C363 1.309 . S
C362 C367 1.304 . S
C362 O400 1.435 . S
C363 C362 1.309 . S
C363 C364 1.476 . S
C363 H427 0.930 . S
C364 C363 1.476 . S
C364 C365 1.400 . S
C364 C368 1.567 . S
C365 C364 1.400 . S
C365 C366 1.373 . S
C365 C387 1.432 . S
C366 C365 1.373 . S
C366 C367 1.339 . S
C366 C369 1.530 . S
C367 C362 1.304 . S
C367 C366 1.339 . S
C367 H428 0.930 . S
C368 C364 1.567 . S
C368 H429 0.961 . S
C368 H430 0.960 . S
C368 H431 0.958 . S
C369 C366 1.530 . S
C369 H432 0.961 . S
C369 H433 0.960 . S
C369 H434 0.960 . S
C370 C371 1.530 . S
C370 H436 0.961 . S
C370 H437 0.961 . S
C370 H438 0.959 . S
C371 C370 1.530 . S
C371 O399 1.412 . S
C371 H435 0.980 . S
C372 C373 1.288 . S
C372 C377 1.377 . S
C372 O399 1.393 . S
C373 C372 1.288 . S
C373 C374 1.369 . S
C373 H439 0.932 . S
C374 C373 1.369 . S
C374 C375 1.398 . S
C374 C378 1.527 . S
C375 C374 1.398 . S
C375 C376 1.380 . S
C375 C389 1.497 . S
C376 C375 1.380 . S
C376 C377 1.383 . S
C376 C379 1.603 . S
C377 C372 1.377 . S
C377 C376 1.383 . S
C377 H440 0.929 . S
C378 C374 1.527 . S
C378 H441 0.961 . S
C378 H442 0.959 . S
C378 H443 0.959 . S
C379 C376 1.603 . S
C379 H444 0.960 . S
C379 H445 0.962 . S
C379 H446 0.961 . S
C380 C347 1.587 . S
C380 C381 1.360 . S
C380 C393 1.412 . S
C381 C380 1.360 . S
C381 C382 1.365 . S
C381 H447 0.929 . S
C382 C357 1.553 . S
C382 C381 1.365 . S
C382 C383 1.404 . S
C383 C382 1.404 . S
C383 C384 1.395 . S
C383 C394 1.451 . S
C384 C383 1.395 . S
C384 C385 1.322 . S
C384 H448 0.930 . S
C385 C384 1.322 . S
C385 C386 1.459 1_554 S
C385 H449 0.929 1_554 S
C386 C385 1.459 1_556 S
C386 C387 1.445 . S
C386 C395 1.395 1_556 S
C387 C365 1.432 . S
C387 C386 1.445 . S
C387 C388 1.370 . S
C388 C387 1.370 . S
C388 C389 1.438 . S
C388 H450 0.930 . S
C389 C375 1.497 . S
C389 C388 1.438 . S
C389 C390 1.360 . S
C390 C389 1.360 . S
C390 C391 1.401 1_556 S
C390 C395 1.446 1_556 S
C391 C390 1.401 1_554 S
C391 C392 1.347 . S
C391 H451 0.929 1_554 S
C392 C391 1.347 . S
C392 C393 1.455 . S
C392 H452 0.930 . S
C393 C380 1.412 . S
C393 C392 1.455 . S
C393 C394 1.331 . S
C394 C383 1.451 . S
C394 C393 1.331 . S
C394 C395 1.497 . S
C395 C386 1.395 1_554 S
C395 C390 1.446 1_554 S
C395 C394 1.497 . S
C396 C397 1.582 . S
C396 H453 0.962 . S
C396 H454 0.959 . S
C396 H455 0.958 . S
C397 C396 1.582 . S
C397 O400 1.458 . S
C397 H426 0.980 . S
O398 C343 1.426 . S
O398 C344 1.334 . S
O399 C371 1.412 . S
O399 C372 1.393 . S
O400 C362 1.435 . S
O400 C397 1.458 . S
O401 C353 1.468 . S
O401 C354 1.408 . S
H402 C343 0.980 . S
H403 C342 0.959 . S
H404 C342 0.959 1_455 S
H405 C342 0.960 . S
H406 C345 0.929 . S
H407 C349 0.929 . S
H408 C350 0.959 . S
H409 C350 0.961 . S
H410 C350 0.961 . S
H411 C351 0.960 . S
H412 C351 0.960 . S
H413 C351 0.961 . S
H414 C353 0.980 . S
H415 C352 0.961 . S
H416 C352 0.960 . S
H417 C352 0.959 . S
H418 C355 0.930 . S
H419 C359 0.931 . S
H420 C360 0.959 . S
H421 C360 0.961 . S
H422 C360 0.959 . S
H423 C361 0.960 . S
H424 C361 0.960 . S
H425 C361 0.960 . S
H426 C397 0.980 . S
H427 C363 0.930 . S
H428 C367 0.930 . S
H429 C368 0.961 . S
H430 C368 0.960 . S
H431 C368 0.958 . S
H432 C369 0.961 . S
H433 C369 0.960 . S
H434 C369 0.960 . S
H435 C371 0.980 . S
H436 C370 0.961 . S
H437 C370 0.961 . S
H438 C370 0.959 . S
H439 C373 0.932 . S
H440 C377 0.929 . S
H441 C378 0.961 . S
H442 C378 0.959 . S
H443 C378 0.959 . S
H444 C379 0.960 . S
H445 C379 0.962 . S
H446 C379 0.961 . S
H447 C381 0.929 . S
H448 C384 0.930 . S
H449 C385 0.929 1_556 S
H450 C388 0.930 . S
H451 C391 0.929 1_556 S
H452 C392 0.930 . S
H453 C396 0.962 . S
H454 C396 0.959 . S
H455 C396 0.958 . S
C456 C457 1.560 . S
C456 H517 0.959 . S
C456 H518 0.959 . S
C456 H519 0.960 . S
C457 C456 1.560 . S
C457 O512 1.426 . S
C457 H516 0.980 . S
C458 C459 1.407 . S
C458 C463 1.418 . S
C458 O512 1.334 . S
C459 C458 1.407 . S
C459 C460 1.360 . S
C459 H520 0.929 . S
C460 C459 1.360 . S
C460 C461 1.401 . S
C460 C464 1.527 . S
C461 C460 1.401 . S
C461 C462 1.405 . S
C461 C494 1.587 . S
C462 C461 1.405 . S
C462 C463 1.332 . S
C462 C465 1.496 . S
C463 C458 1.418 . S
C463 C462 1.332 . S
C463 H521 0.929 . S
C464 C460 1.527 . S
C464 H522 0.959 . S
C464 H523 0.961 . S
C464 H524 0.961 . S
C465 C462 1.496 . S
C465 H525 0.960 . S
C465 H526 0.960 . S
C465 H527 0.961 1_556 S
C466 C467 1.516 1_655 S
C466 H529 0.960 1_655 S
C466 H530 0.961 . S
C466 H531 0.960 . S
C467 C466 1.516 1_455 S
C467 O515 1.468 . S
C467 H528 0.980 . S
C468 C469 1.349 . S
C468 C473 1.367 . S
C468 O515 1.408 . S
C469 C468 1.349 . S
C469 C470 1.407 . S
C469 H532 0.930 . S
C470 C469 1.407 . S
C470 C471 1.449 . S
C470 C474 1.535 . S
C471 C470 1.449 . S
C471 C472 1.384 . S
C471 C496 1.553 . S
C472 C471 1.384 . S
C472 C473 1.364 . S
C472 C475 1.450 . S
C473 C468 1.367 . S
C473 C472 1.364 . S
C473 H533 0.931 . S
C474 C470 1.535 . S
C474 H534 0.959 . S
C474 H535 0.961 . S
C474 H536 0.959 . S
C475 C472 1.450 . S
C475 H537 0.960 . S
C475 H538 0.960 . S
C475 H539 0.960 . S
C476 C477 1.309 . S
C476 C481 1.304 . S
C476 O514 1.435 . S
C477 C476 1.309 . S
C477 C478 1.476 . S
C477 H541 0.930 . S
C478 C477 1.476 . S
C478 C479 1.400 . S
C478 C482 1.567 . S
C479 C478 1.400 . S
C479 C480 1.373 . S
C479 C501 1.432 . S
C480 C479 1.373 . S
C480 C481 1.339 . S
C480 C483 1.530 . S
C481 C476 1.304 . S
C481 C480 1.339 . S
C481 H542 0.930 . S
C482 C478 1.567 . S
C482 H543 0.961 . S
C482 H544 0.960 . S
C482 H545 0.958 . S
C483 C480 1.530 . S
C483 H546 0.961 . S
C483 H547 0.960 . S
C483 H548 0.960 . S
C484 C485 1.530 . S
C484 H550 0.961 1_565 S
C484 H551 0.961 . S
C484 H552 0.959 . S
C485 C484 1.530 . S
C485 O513 1.412 . S
C485 H549 0.980 . S
C486 C487 1.288 . S
C486 C491 1.377 . S
C486 O513 1.393 . S
C487 C486 1.288 . S
C487 C488 1.369 . S
C487 H553 0.932 . S
C488 C487 1.369 . S
C488 C489 1.398 . S
C488 C492 1.527 . S
C489 C488 1.398 . S
C489 C490 1.380 . S
C489 C503 1.497 . S
C490 C489 1.380 . S
C490 C491 1.383 . S
C490 C493 1.603 . S
C491 C486 1.377 . S
C491 C490 1.383 . S
C491 H554 0.929 . S
C492 C488 1.527 . S
C492 H555 0.961 . S
C492 H556 0.959 . S
C492 H557 0.959 . S
C493 C490 1.603 . S
C493 H558 0.960 . S
C493 H559 0.962 . S
C493 H560 0.961 . S
C494 C461 1.587 . S
C494 C495 1.360 . S
C494 C507 1.412 1_556 S
C495 C494 1.360 . S
C495 C496 1.365 . S
C495 H561 0.929 . S
C496 C471 1.553 . S
C496 C495 1.365 . S
C496 C497 1.404 1_556 S
C497 C496 1.404 1_554 S
C497 C498 1.395 . S
C497 C508 1.451 . S
C498 C497 1.395 . S
C498 C499 1.322 . S
C498 H562 0.930 . S
C499 C498 1.322 . S
C499 C500 1.459 . S
C499 H563 0.929 . S
C500 C499 1.459 . S
C500 C501 1.445 . S
C500 C509 1.395 . S
C501 C479 1.432 . S
C501 C500 1.445 . S
C501 C502 1.370 . S
C502 C501 1.370 . S
C502 C503 1.438 . S
C502 H564 0.930 . S
C503 C489 1.497 . S
C503 C502 1.438 . S
C503 C504 1.360 . S
C504 C503 1.360 . S
C504 C505 1.401 . S
C504 C509 1.446 . S
C505 C504 1.401 . S
C505 C506 1.347 . S
C505 H565 0.929 . S
C506 C505 1.347 . S
C506 C507 1.455 . S
C506 H566 0.930 . S
C507 C494 1.412 1_554 S
C507 C506 1.455 . S
C507 C508 1.331 . S
C508 C497 1.451 . S
C508 C507 1.331 . S
C508 C509 1.497 . S
C509 C500 1.395 . S
C509 C504 1.446 . S
C509 C508 1.497 . S
C510 C511 1.582 . S
C510 H567 0.962 . S
C510 H568 0.959 1_455 S
C510 H569 0.958 . S
C511 C510 1.582 . S
C511 O514 1.458 . S
C511 H540 0.980 . S
O512 C457 1.426 . S
O512 C458 1.334 . S
O513 C485 1.412 . S
O513 C486 1.393 . S
O514 C476 1.435 . S
O514 C511 1.458 . S
O515 C467 1.468 . S
O515 C468 1.408 . S
H516 C457 0.980 . S
H517 C456 0.959 . S
H518 C456 0.959 . S
H519 C456 0.960 . S
H520 C459 0.929 . S
H521 C463 0.929 . S
H522 C464 0.959 . S
H523 C464 0.961 . S
H524 C464 0.961 . S
H525 C465 0.960 . S
H526 C465 0.960 . S
H527 C465 0.961 1_554 S
H528 C467 0.980 . S
H529 C466 0.960 1_455 S
H530 C466 0.961 . S
H531 C466 0.960 . S
H532 C469 0.930 . S
H533 C473 0.931 . S
H534 C474 0.959 . S
H535 C474 0.961 . S
H536 C474 0.959 . S
H537 C475 0.960 . S
H538 C475 0.960 . S
H539 C475 0.960 . S
H540 C511 0.980 . S
H541 C477 0.930 . S
H542 C481 0.930 . S
H543 C482 0.961 . S
H544 C482 0.960 . S
H545 C482 0.958 . S
H546 C483 0.961 . S
H547 C483 0.960 . S
H548 C483 0.960 . S
H549 C485 0.980 . S
H550 C484 0.961 1_545 S
H551 C484 0.961 . S
H552 C484 0.959 . S
H553 C487 0.932 . S
H554 C491 0.929 . S
H555 C492 0.961 . S
H556 C492 0.959 . S
H557 C492 0.959 . S
H558 C493 0.960 . S
H559 C493 0.962 . S
H560 C493 0.961 . S
H561 C495 0.929 . S
H562 C498 0.930 . S
H563 C499 0.929 . S
H564 C502 0.930 . S
H565 C505 0.929 . S
H566 C506 0.930 . S
H567 C510 0.962 . S
H568 C510 0.959 1_655 S
H569 C510 0.958 . S
C570 C571 1.560 . S
C570 H631 0.959 . S
C570 H632 0.959 . S
C570 H633 0.960 . S
C571 C570 1.560 . S
C571 O626 1.426 . S
C571 H630 0.980 . S
C572 C573 1.407 . S
C572 C577 1.418 . S
C572 O626 1.334 . S
C573 C572 1.407 . S
C573 C574 1.360 . S
C573 H634 0.929 . S
C574 C573 1.360 . S
C574 C575 1.401 . S
C574 C578 1.527 . S
C575 C574 1.401 . S
C575 C576 1.405 . S
C575 C608 1.587 . S
C576 C575 1.405 . S
C576 C577 1.332 . S
C576 C579 1.496 . S
C577 C572 1.418 . S
C577 C576 1.332 . S
C577 H635 0.929 . S
C578 C574 1.527 . S
C578 H636 0.959 . S
C578 H637 0.961 . S
C578 H638 0.961 . S
C579 C576 1.496 . S
C579 H639 0.960 . S
C579 H640 0.960 . S
C579 H641 0.961 . S
C580 C581 1.517 . S
C580 H643 0.961 . S
C580 H644 0.960 . S
C580 H645 0.959 . S
C581 C580 1.517 . S
C581 O629 1.468 . S
C581 H642 0.980 . S
C582 C583 1.349 . S
C582 C587 1.367 . S
C582 O629 1.408 . S
C583 C582 1.349 . S
C583 C584 1.407 . S
C583 H646 0.930 . S
C584 C583 1.407 . S
C584 C585 1.449 . S
C584 C588 1.535 . S
C585 C584 1.449 . S
C585 C586 1.384 . S
C585 C610 1.553 . S
C586 C585 1.384 . S
C586 C587 1.364 . S
C586 C589 1.450 . S
C587 C582 1.367 . S
C587 C586 1.364 . S
C587 H647 0.931 . S
C588 C584 1.535 . S
C588 H648 0.959 . S
C588 H649 0.961 . S
C588 H650 0.959 . S
C589 C586 1.450 . S
C589 H651 0.960 . S
C589 H652 0.960 . S
C589 H653 0.960 . S
C590 C591 1.309 . S
C590 C595 1.304 . S
C590 O628 1.435 . S
C591 C590 1.309 . S
C591 C592 1.476 . S
C591 H655 0.930 . S
C592 C591 1.476 . S
C592 C593 1.400 1_556 S
C592 C596 1.567 1_556 S
C593 C592 1.400 1_554 S
C593 C594 1.373 1_554 S
C593 C615 1.432 . S
C594 C593 1.373 1_556 S
C594 C595 1.339 . S
C594 C597 1.530 1_556 S
C595 C590 1.304 . S
C595 C594 1.339 . S
C595 H656 0.930 . S
C596 C592 1.567 1_554 S
C596 H657 0.961 . S
C596 H658 0.960 . S
C596 H659 0.958 1_554 S
C597 C594 1.530 1_554 S
C597 H660 0.961 1_554 S
C597 H661 0.960 . S
C597 H662 0.960 1_554 S
C598 C599 1.530 . S
C598 H664 0.961 . S
C598 H665 0.961 . S
C598 H666 0.959 . S
C599 C598 1.530 . S
C599 O627 1.412 . S
C599 H663 0.980 . S
C600 C601 1.288 . S
C600 C605 1.377 . S
C600 O627 1.393 . S
C601 C600 1.288 . S
C601 C602 1.369 . S
C601 H667 0.932 . S
C602 C601 1.369 . S
C602 C603 1.398 1_556 S
C602 C606 1.531 . S
C603 C602 1.398 1_554 S
C603 C604 1.380 1_554 S
C603 C617 1.497 . S
C604 C603 1.380 1_556 S
C604 C605 1.383 . S
C604 C607 1.603 1_556 S
C605 C600 1.377 . S
C605 C604 1.383 . S
C605 H668 0.929 . S
C606 C602 1.531 . S
C606 H669 0.948 1_556 S
C606 H670 0.966 . S
C606 H671 0.960 . S
C607 C604 1.603 1_554 S
C607 H672 0.960 1_554 S
C607 H673 0.962 . S
C607 H674 0.961 . S
C608 C575 1.587 . S
C608 C609 1.360 . S
C608 C621 1.412 . S
C609 C608 1.360 . S
C609 C610 1.365 . S
C609 H675 0.929 . S
C610 C585 1.553 . S
C610 C609 1.365 . S
C610 C611 1.404 . S
C611 C610 1.404 . S
C611 C612 1.395 . S
C611 C622 1.451 . S
C612 C611 1.395 . S
C612 C613 1.322 . S
C612 H676 0.930 . S
C613 C612 1.322 . S
C613 C614 1.459 . S
C613 H677 0.929 . S
C614 C613 1.459 . S
C614 C615 1.445 . S
C614 C623 1.395 . S
C615 C593 1.432 . S
C615 C614 1.445 . S
C615 C616 1.370 . S
C616 C615 1.370 . S
C616 C617 1.438 . S
C616 H678 0.930 1_554 S
C617 C603 1.497 . S
C617 C616 1.438 . S
C617 C618 1.360 . S
C618 C617 1.360 . S
C618 C619 1.401 . S
C618 C623 1.446 . S
C619 C618 1.401 . S
C619 C620 1.347 . S
C619 H679 0.929 . S
C620 C619 1.347 . S
C620 C621 1.455 . S
C620 H680 0.930 . S
C621 C608 1.412 . S
C621 C620 1.455 . S
C621 C622 1.331 . S
C622 C611 1.451 . S
C622 C621 1.331 . S
C622 C623 1.497 . S
C623 C614 1.395 . S
C623 C618 1.446 . S
C623 C622 1.497 . S
C624 C625 1.582 . S
C624 H681 0.962 . S
C624 H682 0.959 . S
C624 H683 0.958 . S
C625 C624 1.582 . S
C625 O628 1.458 . S
C625 H654 0.980 . S
O626 C571 1.426 . S
O626 C572 1.334 . S
O627 C599 1.412 . S
O627 C600 1.393 . S
O628 C590 1.435 . S
O628 C625 1.458 . S
O629 C581 1.468 . S
O629 C582 1.408 . S
H630 C571 0.980 . S
H631 C570 0.959 . S
H632 C570 0.959 . S
H633 C570 0.960 . S
H634 C573 0.929 . S
H635 C577 0.929 . S
H636 C578 0.959 . S
H637 C578 0.961 . S
H638 C578 0.961 . S
H639 C579 0.960 . S
H640 C579 0.960 . S
H641 C579 0.961 . S
H642 C581 0.980 . S
H643 C580 0.961 . S
H644 C580 0.960 . S
H645 C580 0.959 . S
H646 C583 0.930 . S
H647 C587 0.931 . S
H648 C588 0.959 . S
H649 C588 0.961 . S
H650 C588 0.959 . S
H651 C589 0.960 . S
H652 C589 0.960 . S
H653 C589 0.960 . S
H654 C625 0.980 . S
H655 C591 0.930 . S
H656 C595 0.930 . S
H657 C596 0.961 . S
H658 C596 0.960 . S
H659 C596 0.958 1_556 S
H660 C597 0.961 1_556 S
H661 C597 0.960 . S
H662 C597 0.960 1_556 S
H663 C599 0.980 . S
H664 C598 0.961 . S
H665 C598 0.961 . S
H666 C598 0.959 . S
H667 C601 0.932 . S
H668 C605 0.929 . S
H669 C606 0.948 1_554 S
H670 C606 0.966 . S
H671 C606 0.960 . S
H672 C607 0.960 1_556 S
H673 C607 0.962 . S
H674 C607 0.961 . S
H675 C609 0.929 . S
H676 C612 0.930 . S
H677 C613 0.929 . S
H678 C616 0.930 1_556 S
H679 C619 0.929 . S
H680 C620 0.930 . S
H681 C624 0.962 . S
H682 C624 0.959 . S
H683 C624 0.958 . S
C684 O711 1.312 . S
C684 O712 1.208 . S
C685 O706 1.331 . S
C685 O709 1.244 . S
C686 O708 1.264 . S
C686 O710 1.273 . S
Mg687 O689 1.936 1_455 S
Mg687 O696 2.081 1_455 S
Mg687 O698 2.023 . S
Mg687 O702 2.031 1_455 S
Mg687 O711 2.291 . S
Mg688 O689 1.963 . S
Mg688 O699 1.942 . S
Mg688 O700 1.955 1_655 S
Mg688 O707 1.986 . S
O689 Mg687 1.936 1_655 S
O689 Mg688 1.963 . S
O689 Mg690 1.915 1_655 S
Mg690 O689 1.915 1_455 S
Mg690 O691 1.915 . S
Mg690 O695 2.013 . S
Mg690 O701 2.114 1_455 S
Mg690 O705 2.013 1_455 S
Mg690 O711 2.114 . S
O691 Mg690 1.915 . S
O691 Mg692 1.936 . S
O691 Mg693 1.963 . S
Mg692 O691 1.936 . S
Mg692 O701 2.291 1_455 S
Mg692 O706 2.081 . S
Mg692 O708 2.023 1_455 S
Mg692 O712 2.031 . S
Mg693 O691 1.963 . S
Mg693 O697 1.986 . S
Mg693 O709 1.942 . S
Mg693 O710 1.955 1_455 S
C694 O705 1.191 . S
C694 O707 1.307 . S
O695 Mg690 2.013 . S
O695 C714 1.191 . S
O696 Mg687 2.081 1_655 S
O696 C704 1.331 . S
O697 Mg693 1.986 . S
O697 C714 1.307 . S
O698 Mg687 2.023 . S
O698 C713 1.264 . S
O699 Mg688 1.942 . S
O699 C704 1.244 . S
O700 Mg688 1.955 1_455 S
O700 C713 1.273 . S
O701 Mg690 2.114 1_655 S
O701 Mg692 2.291 1_655 S
O701 C703 1.312 . S
O702 Mg687 2.031 1_655 S
O702 C703 1.208 . S
C703 O701 1.312 . S
C703 O702 1.208 . S
C704 O696 1.331 . S
C704 O699 1.244 . S
O705 Mg690 2.013 1_655 S
O705 C694 1.191 . S
O706 C685 1.331 . S
O706 Mg692 2.081 . S
O707 Mg688 1.986 . S
O707 C694 1.307 . S
O708 C686 1.264 . S
O708 Mg692 2.023 1_655 S
O709 C685 1.244 . S
O709 Mg693 1.942 . S
O710 C686 1.273 . S
O710 Mg693 1.955 1_655 S
O711 C684 1.312 . S
O711 Mg687 2.291 . S
O711 Mg690 2.114 . S
O712 C684 1.208 . S
O712 Mg692 2.031 . S
C713 O698 1.264 . S
C713 O700 1.273 . S
C714 O695 1.191 . S
C714 O697 1.307 . S
C715 O742 1.312 . S
C715 O743 1.208 . S
C716 O737 1.331 . S
C716 O740 1.244 . S
C717 O739 1.264 . S
C717 O741 1.273 . S
Mg718 O720 1.936 1_545 S
Mg718 O727 2.081 1_545 S
Mg718 O729 2.023 . S
Mg718 O733 2.031 1_545 S
Mg718 O742 2.291 . S
Mg719 O720 1.963 . S
Mg719 O730 1.942 . S
Mg719 O731 1.955 1_565 S
Mg719 O738 1.986 . S
O720 Mg718 1.936 1_565 S
O720 Mg719 1.963 . S
O720 Mg721 1.915 1_565 S
Mg721 O720 1.915 1_545 S
Mg721 O722 1.915 . S
Mg721 O726 2.013 . S
Mg721 O732 2.114 1_545 S
Mg721 O736 2.013 1_545 S
Mg721 O742 2.114 . S
O722 Mg721 1.915 . S
O722 Mg723 1.936 . S
O722 Mg724 1.963 . S
Mg723 O722 1.936 . S
Mg723 O732 2.291 1_545 S
Mg723 O737 2.081 . S
Mg723 O739 2.023 1_545 S
Mg723 O743 2.031 . S
Mg724 O722 1.963 . S
Mg724 O728 1.986 . S
Mg724 O740 1.942 . S
Mg724 O741 1.955 1_545 S
C725 O736 1.191 . S
C725 O738 1.307 . S
O726 Mg721 2.013 . S
O726 C745 1.191 . S
O727 Mg718 2.081 1_565 S
O727 C735 1.331 . S
O728 Mg724 1.986 . S
O728 C745 1.307 . S
O729 Mg718 2.023 . S
O729 C744 1.264 . S
O730 Mg719 1.942 . S
O730 C735 1.244 . S
O731 Mg719 1.955 1_545 S
O731 C744 1.273 . S
O732 Mg721 2.114 1_565 S
O732 Mg723 2.291 1_565 S
O732 C734 1.312 . S
O733 Mg718 2.031 1_565 S
O733 C734 1.208 . S
C734 O732 1.312 . S
C734 O733 1.208 . S
C735 O727 1.331 . S
C735 O730 1.244 . S
O736 Mg721 2.013 1_565 S
O736 C725 1.191 . S
O737 C716 1.331 . S
O737 Mg723 2.081 . S
O738 Mg719 1.986 . S
O738 C725 1.307 . S
O739 C717 1.264 . S
O739 Mg723 2.023 1_565 S
O740 C716 1.244 . S
O740 Mg724 1.942 . S
O741 C717 1.273 . S
O741 Mg724 1.955 1_565 S
O742 C715 1.312 . S
O742 Mg718 2.291 . S
O742 Mg721 2.114 . S
O743 C715 1.208 . S
O743 Mg723 2.031 . S
C744 O729 1.264 . S
C744 O731 1.273 . S
C745 O726 1.191 . S
C745 O728 1.307 . S
C746 O773 1.312 . S
C746 O774 1.208 . S
C747 O768 1.331 . S
C747 O771 1.244 . S
C748 O770 1.264 . S
C748 O772 1.273 . S
Mg749 O751 1.936 . S
Mg749 O758 2.081 . S
Mg749 O760 2.023 . S
Mg749 O764 2.031 . S
Mg749 O773 2.291 . S
Mg750 O751 1.963 . S
Mg750 O761 1.942 . S
Mg750 O762 1.955 . S
Mg750 O769 1.986 . S
O751 Mg749 1.936 . S
O751 Mg750 1.963 . S
O751 Mg752 1.915 . S
Mg752 O751 1.915 . S
Mg752 O753 1.915 . S
Mg752 O757 2.013 . S
Mg752 O763 2.114 . S
Mg752 O767 2.013 . S
Mg752 O773 2.114 . S
O753 Mg752 1.915 . S
O753 Mg754 1.936 . S
O753 Mg755 1.963 . S
Mg754 O753 1.936 . S
Mg754 O763 2.291 . S
Mg754 O768 2.081 . S
Mg754 O770 2.023 . S
Mg754 O774 2.031 . S
Mg755 O753 1.963 . S
Mg755 O759 1.986 . S
Mg755 O771 1.942 . S
Mg755 O772 1.955 . S
C756 O767 1.191 . S
C756 O769 1.307 . S
O757 Mg752 2.013 . S
O757 C776 1.191 . S
O758 Mg749 2.081 . S
O758 C766 1.331 . S
O759 Mg755 1.986 . S
O759 C776 1.307 . S
O760 Mg749 2.023 . S
O760 C775 1.264 . S
O761 Mg750 1.942 . S
O761 C766 1.244 . S
O762 Mg750 1.955 . S
O762 C775 1.273 . S
O763 Mg752 2.114 . S
O763 Mg754 2.291 . S
O763 C765 1.312 . S
O764 Mg749 2.031 . S
O764 C765 1.208 . S
C765 O763 1.312 . S
C765 O764 1.208 . S
C766 O758 1.331 . S
C766 O761 1.244 . S
O767 Mg752 2.013 . S
O767 C756 1.191 . S
O768 C747 1.331 . S
O768 Mg754 2.081 . S
O769 Mg750 1.986 . S
O769 C756 1.307 . S
O770 C748 1.264 . S
O770 Mg754 2.023 . S
O771 C747 1.244 . S
O771 Mg755 1.942 . S
O772 C748 1.273 . S
O772 Mg755 1.955 . S
O773 C746 1.312 . S
O773 Mg749 2.291 . S
O773 Mg752 2.114 . S
O774 C746 1.208 . S
O774 Mg754 2.031 . S
C775 O760 1.264 . S
C775 O762 1.273 . S
C776 O757 1.191 . S
C776 O759 1.307 . S
C11 C684 3.022 . S
C125 C716 2.350 . S
C775 C239 2.193 . S
C704 C343 2.057 . S
C485 C734 2.167 . S
C756 C571 3.374 . S
C725 C257 2.430 . S
C397 C765 1.528 . S
C714 C467 3.231 . S
C625 C744 1.057 . S
C29 C747 1.667 . S
C686 C143 1.742 . S
C694 C371 2.548 . S
C735 C457 1.645 . S
C748 C599 1.886 . S
C685 C55 1.444 . S
C745 C169 2.400 . S
C283 C746 2.100 . S
C715 C581 1.939 . S
C776 C1 2.387 . S
C703 C115 1.975 . S
C717 C229 0.940 . S
C353 C766 1.010 . S
C511 C713 1.787 . S
