# Generated by pormake.
# Topology pth, (4,4)-cn, num edge types: 1
# Building blocks:
#     Node 0, Type 0, BuildingBlock: TATPOV_clean_sbu_0, # of connection points: 4
#     Node 1, Type 0, BuildingBlock: TATPOV_clean_sbu_0, # of connection points: 4
#     Node 2, Type 0, BuildingBlock: TATPOV_clean_sbu_0, # of connection points: 4
#     Node 3, Type 1, BuildingBlock: MUDLON_clean_linker_0, # of connection points: 4
#     Node 4, Type 1, BuildingBlock: MUDLON_clean_linker_0, # of connection points: 4
#     Node 5, Type 1, BuildingBlock: MUDLON_clean_linker_0, # of connection points: 4
#     Edge 6, Type (0, 1), BuildingBlock: OJICUG_clean_linker_0, # of connection points: 2
#     Edge 7, Type (0, 1), BuildingBlock: OJICUG_clean_linker_0, # of connection points: 2
#     Edge 8, Type (0, 1), BuildingBlock: OJICUG_clean_linker_0, # of connection points: 2
#     Edge 9, Type (0, 1), BuildingBlock: OJICUG_clean_linker_0, # of connection points: 2
#     Edge 10, Type (0, 1), BuildingBlock: OJICUG_clean_linker_0, # of connection points: 2
#     Edge 11, Type (0, 1), BuildingBlock: OJICUG_clean_linker_0, # of connection points: 2
#     Edge 12, Type (0, 1), BuildingBlock: OJICUG_clean_linker_0, # of connection points: 2
#     Edge 13, Type (0, 1), BuildingBlock: OJICUG_clean_linker_0, # of connection points: 2
#     Edge 14, Type (0, 1), BuildingBlock: OJICUG_clean_linker_0, # of connection points: 2
#     Edge 15, Type (0, 1), BuildingBlock: OJICUG_clean_linker_0, # of connection points: 2
#     Edge 16, Type (0, 1), BuildingBlock: OJICUG_clean_linker_0, # of connection points: 2
#     Edge 17, Type (0, 1), BuildingBlock: OJICUG_clean_linker_0, # of connection points: 2
# Relax obj value: 0.057
# Max RMSD: 0.167
# Mean RMSD: 0.112
data_MOF--net-pth--node1-TATPOV_clean_sbu_0--node2-MUDLON_clean_linker_0--edge1-OJICUG_clean_linker_0
_symmetry_space_group_name_H-M    P1
_symmetry_Int_Tables_number       1
_symmetry_cell_setting            triclinic
loop_
_symmetry_equiv_pos_as_xyz
'x, y, z'
_cell_length_a     27.583656
_cell_length_b     27.31517
_cell_length_c     53.783037
_cell_angle_alpha  92.700344
_cell_angle_beta   92.344197
_cell_angle_gamma 120.56269
loop_
_atom_site_label
_atom_site_type_symbol
_atom_site_fract_x
_atom_site_fract_y
_atom_site_fract_z
_atom_type_partial_charge
Zn0 Zn 0.08124 0.96264 0.00177 0.0
Zn1 Zn 0.03453 0.0169 0.02381 0.0
O2 O 0.04731 0.97249 0.05123 0.0
O3 O 0.09237 0.93393 0.03404 0.0
O4 O 0.00872 0.06458 0.04293 0.0
O5 O 0.14282 0.03491 0.98912 0.0
O6 O 0.10289 0.07854 0.00662 0.0
C7 C 0.07067 0.94254 0.05279 0.0
C8 C 0.96571 0.92528 0.98219 0.0
O9 O 0.9692 0.96348 -0.002 0.0
O10 O 0.00673 0.91685 0.98077 0.0
C11 C 0.97728 0.0462 0.06098 0.0
O12 O 0.95847 -0.00641 0.06671 0.0
C13 C 0.14112 0.07991 -0.00643 0.0
Zn14 Zn 0.11132 0.08563 0.33223 0.0
Zn15 Zn 0.02498 0.05268 0.3605 0.0
O16 O 0.09503 0.07417 0.38432 0.0
O17 O 0.16603 0.09699 0.36099 0.0
O18 O 0.96905 0.04527 0.38551 0.0
O19 O 0.1043 0.15043 0.31985 0.0
O20 O 0.0246 0.11235 0.33817 0.0
C21 C 0.14653 0.08895 0.38226 0.0
C22 C 0.01784 0.96701 0.32149 0.0
O23 O -0.00406 0.97538 0.34047 0.0
O24 O 0.06356 0.00685 0.31432 0.0
C25 C 0.91546 0.01493 0.38438 0.0
O26 O 0.88816 0.97921 0.36474 0.0
C27 C 0.05856 0.14854 0.32396 0.0
Zn28 Zn 0.0464 0.91211 0.7086 0.0
Zn29 Zn -0.00135 0.9648 0.68638 0.0
O30 O 0.04783 0.95505 0.6611 0.0
O31 O 0.08394 0.90741 0.67759 0.0
O32 O 0.95322 -0.01245 0.66437 0.0
O33 O 0.97147 0.84714 0.71794 0.0
O34 O 0.9362 0.89715 0.70324 0.0
C35 C 0.07873 0.9329 0.65953 0.0
C36 C 0.08096 0.02934 0.72997 0.0
O37 O 0.04854 0.03003 0.71257 0.0
O38 O 0.08566 -0.01432 0.7318 0.0
C39 C 0.94457 0.02877 0.66783 0.0
O40 O 0.96773 0.06398 0.68796 0.0
C41 C 0.93005 0.8546 0.71456 0.0
H42 H 0.9298 0.70618 0.20145 0.0
N43 N 0.02987 0.70871 0.19756 0.0
H44 H 0.90829 0.75352 0.23523 0.0
H45 H 0.08658 0.75039 0.24189 0.0
H46 H 0.06508 0.79732 0.27596 0.0
H47 H 0.12412 0.8003 0.18626 0.0
H48 H 0.13625 0.86019 0.15167 0.0
H49 H 0.94942 0.68828 0.16062 0.0
H50 H 0.96067 0.74902 0.12642 0.0
H51 H 0.92642 0.613 0.20208 0.0
H52 H 0.09597 0.67089 0.18225 0.0
H53 H 0.90438 0.51452 0.19737 0.0
H54 H 0.07342 0.57233 0.17568 0.0
H55 H 0.88363 0.27264 0.22896 0.0
H56 H 0.91478 0.24624 0.26673 0.0
H57 H 0.06513 0.27592 0.23195 0.0
H58 H 0.0355 0.30508 0.19542 0.0
H59 H 0.01935 0.33455 0.15453 0.0
H60 H 0.02525 0.27315 0.12178 0.0
H61 H 0.85791 0.1375 0.13523 0.0
H62 H 0.85359 0.19868 0.16867 0.0
H63 H 0.86575 0.33764 0.17219 0.0
H64 H 0.88673 0.43596 0.1714 0.0
H65 H 0.0599 0.49633 0.19745 0.0
N66 N 0.93501 0.30174 0.18662 0.0
H67 H 0.03929 0.3987 0.19647 0.0
C68 C 0.01045 0.72557 0.21902 0.0
C69 C 0.95908 0.72495 0.21781 0.0
C70 C 0.94671 0.75196 0.23717 0.0
C71 C -0.01488 0.77946 0.25818 0.0
C72 C 0.0343 0.77602 0.26016 0.0
C73 C 0.04684 0.74949 0.24069 0.0
C74 C 0.03601 0.74028 0.17604 0.0
C75 C 0.08852 0.78865 0.17306 0.0
C76 C 0.0953 0.82274 0.1534 0.0
C77 C 0.04925 0.80947 0.13655 0.0
C78 C -0.00338 0.76059 0.13938 0.0
C79 C -0.00983 0.72586 0.15883 0.0
C80 C 0.01344 0.6496 0.19301 0.0
C81 C 0.95883 0.60459 0.19644 0.0
C82 C 0.94608 0.5479 0.19343 0.0
C83 C -0.01279 0.53487 0.18636 0.0
C84 C 0.04097 0.58024 0.18183 0.0
C85 C 0.0539 0.63675 0.18532 0.0
C86 C 0.9565 0.29006 0.20917 0.0
C87 C 0.92364 0.27409 0.22976 0.0
C88 C 0.9414 0.25865 0.25124 0.0
C89 C -0.00756 0.25849 0.25249 0.0
C90 C 0.02607 0.27626 0.23203 0.0
C91 C 0.00863 0.29229 0.21077 0.0
C92 C 0.93599 0.27094 0.16423 0.0
C93 C -0.01643 0.29196 0.15015 0.0
C94 C -0.01322 0.25669 0.13132 0.0
C95 C 0.94238 0.19988 0.12603 0.0
C96 C 0.8935 0.18044 0.13914 0.0
C97 C 0.89058 0.21552 0.15806 0.0
C98 C 0.95044 0.36045 0.18466 0.0
C99 C 0.90837 0.37232 0.17737 0.0
C100 C 0.92041 0.42866 0.17722 0.0
C101 C 0.97497 0.47468 0.18467 0.0
C102 C 0.01753 0.46251 0.19128 0.0
C103 C 0.00562 0.40621 0.191 0.0
H104 H 0.82866 0.16628 0.5538 0.0
N105 N 0.73401 0.08932 0.52777 0.0
H106 H 0.87614 0.1516 0.58966 0.0
H107 H 0.69282 -0.00824 0.55184 0.0
H108 H 0.73992 0.97634 0.58779 0.0
H109 H 0.70824 0.98389 0.508 0.0
H110 H 0.74818 0.96417 0.4717 0.0
H111 H 0.79831 0.16281 0.49603 0.0
H112 H 0.83853 0.14355 0.45966 0.0
H113 H 0.71486 0.16824 0.54717 0.0
H114 H 0.62993 -0.00155 0.51082 0.0
H115 H 0.62478 0.16414 0.54927 0.0
H116 H 0.53973 -0.00503 0.51132 0.0
H117 H 0.36086 0.13011 0.57664 0.0
H118 H 0.28725 0.08741 0.6061 0.0
H119 H 0.2118 0.9258 0.56244 0.0
H120 H 0.28457 0.96936 0.5325 0.0
H121 H 0.3346 0.01187 0.49103 0.0
H122 H 0.28334 0.0165 0.45355 0.0
H123 H 0.28536 0.16308 0.48864 0.0
H124 H 0.33737 0.15872 0.52573 0.0
H125 H 0.46852 0.16882 0.52742 0.0
H126 H 0.55648 0.16872 0.52484 0.0
H127 H 0.46756 -0.0118 0.53521 0.0
N128 N 0.36679 0.08196 0.53386 0.0
H129 H 0.37933 -0.01167 0.53615 0.0
C130 C 0.75764 0.08017 0.55018 0.0
C131 C 0.80885 0.12498 0.5614 0.0
C132 C 0.83571 0.11653 0.58192 0.0
C133 C 0.81192 0.06273 0.59154 0.0
C134 C 0.75966 0.01809 0.58062 0.0
C135 C 0.7326 0.02679 0.56015 0.0
C136 C 0.75018 0.07501 0.50463 0.0
C137 C 0.73559 0.01879 0.49724 0.0
C138 C 0.7585 0.00754 0.47647 0.0
C139 C 0.79689 0.05236 0.46294 0.0
C140 C 0.80964 0.1082 0.46988 0.0
C141 C 0.78642 0.11927 0.49049 0.0
C142 C 0.67946 0.08427 0.52856 0.0
C143 C 0.67664 0.13027 0.53939 0.0
C144 C 0.62499 0.12792 0.54033 0.0
C145 C 0.57455 0.07955 0.53007 0.0
C146 C 0.57737 0.03284 0.51957 0.0
C147 C 0.62923 0.03495 0.51902 0.0
C148 C 0.32878 0.05284 0.5527 0.0
C149 C 0.32915 0.08522 0.57375 0.0
C150 C 0.28699 0.06095 0.59037 0.0
C151 C 0.24399 0.00347 0.58641 0.0
C152 C 0.24481 0.97012 0.56593 0.0
C153 C 0.28654 -0.00517 0.54897 0.0
C154 C 0.34018 0.08546 0.51098 0.0
C155 C 0.32469 0.04541 0.49043 0.0
C156 C 0.29547 0.04811 0.46911 0.0
C157 C 0.28034 0.09011 0.46828 0.0
C158 C 0.29614 0.13009 0.48886 0.0
C159 C 0.32604 0.1279 0.50992 0.0
C160 C 0.41744 0.07908 0.53236 0.0
C161 C 0.46813 0.12925 0.52905 0.0
C162 C 0.51852 0.12908 0.52782 0.0
C163 C 0.51979 0.0786 0.53025 0.0
C164 C 0.46851 0.02788 0.5331 0.0
C165 C 0.41778 0.02798 0.53392 0.0
H166 H 0.70476 0.82346 0.86253 0.0
N167 N 0.65845 0.7148 0.84544 0.0
H168 H 0.77458 0.87355 0.8981 0.0
H169 H 0.6952 0.66612 0.87942 0.0
H170 H 0.76308 0.7151 0.91506 0.0
H171 H 0.74544 0.69516 0.83836 0.0
H172 H 0.80219 0.71906 0.8027 0.0
H173 H 0.63671 0.74469 0.80191 0.0
H174 H 0.69074 0.76467 0.76502 0.0
H175 H 0.55785 0.70038 0.85301 0.0
H176 H 0.64426 0.60774 0.84207 0.0
H177 H 0.46994 0.61124 0.85731 0.0
H178 H 0.55777 0.51862 0.84803 0.0
H179 H 0.20494 0.32256 0.88915 0.0
H180 H 0.17826 0.26666 0.92549 0.0
H181 H 0.33481 0.26606 0.92658 0.0
H182 H 0.36034 0.32111 0.8897 0.0
H183 H 0.31783 0.26893 0.84844 0.0
H184 H 0.26914 0.19484 0.81456 0.0
H185 H 0.16038 0.26175 0.79726 0.0
H186 H 0.21199 0.33801 0.83056 0.0
H187 H 0.33231 0.45266 0.88704 0.0
H188 H 0.42246 0.54008 0.88394 0.0
H189 H 0.4687 0.4505 0.83044 0.0
N190 N 0.29379 0.35105 0.86312 0.0
H191 H 0.38103 0.36326 0.83489 0.0
C192 C 0.69448 0.74113 0.86817 0.0
C193 C 0.71682 0.79955 0.87419 0.0
C194 C 0.75646 0.82798 0.89457 0.0
C195 C 0.77466 0.79837 0.90933 0.0
C196 C 0.75057 0.73934 0.90386 0.0
C197 C 0.71114 0.71104 0.88348 0.0
C198 C 0.68758 0.71979 0.82312 0.0
C199 C 0.73306 0.71024 0.82247 0.0
C200 C 0.76525 0.7233 0.80173 0.0
C201 C 0.75194 0.74484 0.78087 0.0
C202 C 0.70361 0.74996 0.78092 0.0
C203 C 0.6722 0.73802 0.80189 0.0
C204 C 0.60751 0.66085 0.84743 0.0
C205 C 0.55777 0.66066 0.85177 0.0
C206 C 0.50773 0.60959 0.85451 0.0
C207 C 0.50648 0.55733 0.85335 0.0
C208 C 0.55662 0.55768 0.84879 0.0
C209 C 0.60646 0.60881 0.8456 0.0
C210 C 0.28427 0.32578 0.88671 0.0
C211 C 0.2339 0.31129 0.89759 0.0
C212 C 0.21897 0.27958 0.91847 0.0
C213 C 0.2543 0.26161 0.92902 0.0
C214 C 0.30626 0.27854 0.91876 0.0
C215 C 0.3211 0.31026 0.89777 0.0
C216 C 0.26882 0.30947 0.84189 0.0
C217 C 0.28415 0.26827 0.83713 0.0
C218 C 0.2557 0.22541 0.81784 0.0
C219 C 0.21018 0.22164 0.80324 0.0
C220 C 0.1956 0.26356 0.80782 0.0
C221 C 0.22483 0.30707 0.8269 0.0
C222 C 0.34888 0.401 0.86121 0.0
C223 C 0.36224 0.45185 0.87485 0.0
C224 C 0.41368 0.50201 0.87281 0.0
C225 C 0.45298 0.50294 0.85664 0.0
C226 C 0.44006 0.45164 0.84331 0.0
C227 C 0.389 0.4012 0.84572 0.0
C228 C -0.01461 0.14133 0.07079 0.0
C229 C 0.96543 0.08477 0.07656 0.0
H230 H -0.00705 0.22168 0.08147 0.0
C231 C 0.93595 0.06593 0.09809 0.0
H232 H 0.00814 0.15723 0.0543 0.0
C233 C 0.92775 0.10297 0.11377 0.0
C234 C 0.94848 0.15988 0.10831 0.0
H235 H 0.9202 0.02279 0.10321 0.0
H236 H 0.90655 0.08727 0.13062 0.0
C237 C 0.97697 0.17842 0.08646 0.0
C238 C 0.82585 -0.0132 0.40549 0.0
C239 C 0.8845 0.02297 0.40463 0.0
H240 H 0.752 0.96758 0.42461 0.0
C241 C 0.91371 0.0683 0.42316 0.0
H242 H 0.80208 0.95149 0.39152 0.0
C243 C 0.88508 0.0777 0.44187 0.0
C244 C 0.8265 0.04181 0.44272 0.0
H245 H 0.95886 0.09707 0.42314 0.0
H246 H 0.90905 0.11286 0.45589 0.0
C247 C 0.79719 -0.0041 0.42445 0.0
C248 C 0.84206 0.84118 0.73227 0.0
C249 C 0.8779 0.81991 0.7274 0.0
H250 H 0.7759 0.8357 0.75328 0.0
C251 C 0.86748 0.76953 0.73783 0.0
H252 H 0.84902 0.88009 0.72467 0.0
C253 C 0.82427 0.74295 0.75395 0.0
C254 C 0.79115 0.76675 0.7604 0.0
H255 H 0.89402 0.75174 0.73428 0.0
H256 H 0.81814 0.70474 0.76194 0.0
C257 C 0.79965 0.81532 0.74871 0.0
C258 C 0.10604 0.89389 0.08013 0.0
C259 C 0.06829 0.91332 0.07561 0.0
H260 H 0.12972 0.84619 0.10306 0.0
C261 C 0.02539 0.9001 0.09189 0.0
H262 H 0.13949 0.90333 0.06791 0.0
C263 C 0.01916 0.86639 0.11172 0.0
C264 C 0.05642 0.84629 0.11595 0.0
H265 H -0.00459 0.91408 0.08879 0.0
H266 H -0.01485 0.8559 0.12374 0.0
C267 C 0.10048 0.86121 0.10022 0.0
C268 C 0.23165 0.09028 0.40135 0.0
C269 C 0.18234 0.0925 0.40437 0.0
H270 H 0.30087 0.08709 0.4192 0.0
C271 C 0.16619 0.09503 0.42863 0.0
H272 H 0.2451 0.08795 0.38291 0.0
C273 C 0.1985 0.09507 0.44937 0.0
C274 C 0.24706 0.0916 0.44627 0.0
H275 H 0.12842 0.09668 0.43158 0.0
H276 H 0.18483 0.09657 0.46785 0.0
C277 C 0.26339 0.08933 0.42207 0.0
C278 C 0.13609 0.07215 0.77101 0.0
C279 C 0.11317 0.07888 0.74852 0.0
H280 H 0.18261 0.11077 0.80601 0.0
C281 C 0.12185 0.13296 0.74409 0.0
H282 H 0.12965 0.03092 0.77518 0.0
C283 C 0.15359 0.1795 0.76168 0.0
C284 C 0.17671 0.17274 0.7842 0.0
H285 H 0.10488 0.13952 0.72688 0.0
H286 H 0.1606 0.22088 0.75745 0.0
C287 C 0.16699 0.11825 0.78867 0.0
C288 C 0.87973 -0.00437 0.62882 0.0
C289 C 0.90882 0.03675 0.64899 0.0
H290 H 0.82652 0.97157 0.59501 0.0
C291 C 0.90386 0.08551 0.6507 0.0
H292 H 0.88243 0.95745 0.62693 0.0
C293 C 0.87158 0.09352 0.63234 0.0
C294 C 0.84319 0.05275 0.61198 0.0
H295 H 0.92551 0.11791 0.66602 0.0
H296 H 0.86892 0.13174 0.63405 0.0
C297 C 0.84722 0.00346 0.61059 0.0
C298 C 0.91034 0.84655 0.94888 0.0
C299 C 0.91482 0.89135 0.96471 0.0
H300 H 0.86338 0.78292 0.91903 0.0
C301 C 0.87155 0.90422 0.96286 0.0
H302 H 0.94281 0.83537 0.94973 0.0
C303 C 0.82547 0.87365 0.94515 0.0
C304 C 0.82161 0.8294 0.9291 0.0
H305 H 0.87371 0.93846 0.97478 0.0
H306 H 0.79293 0.88469 0.944 0.0
C307 C 0.86444 0.81605 0.93134 0.0
C308 C -0.0012 0.86765 0.3175 0.0
C309 C -0.00745 0.91091 0.30762 0.0
H310 H 0.00085 0.79101 0.30943 0.0
C311 C 0.97524 0.90568 0.28228 0.0
H312 H 0.01329 0.87159 0.33692 0.0
C313 C 0.96783 0.85977 0.26663 0.0
C314 C 0.97887 0.81889 0.27595 0.0
H315 H 0.9713 0.93925 0.27423 0.0
H316 H 0.95817 0.85905 0.24684 0.0
C317 C -0.00773 0.82202 0.30174 0.0
C318 C 0.12389 -0.01162 0.62309 0.0
C319 C 0.11479 0.94438 0.6383 0.0
H320 H 0.17249 0.04175 0.59499 0.0
C321 C 0.14537 0.91646 0.6347 0.0
H322 H 0.1013 0.01095 0.62535 0.0
C323 C 0.18576 0.93382 0.61698 0.0
C324 C 0.19692 0.98001 0.60295 0.0
H325 H 0.13933 0.88241 0.6461 0.0
H326 H 0.20999 0.91288 0.61503 0.0
C327 C 0.16488 0.00633 0.6058 0.0
C328 C 0.17321 0.18006 0.98294 0.0
C329 C 0.17853 0.13155 0.98068 0.0
H330 H 0.19421 0.26006 0.96889 0.0
C331 C 0.21519 0.13014 0.9636 0.0
H332 H 0.14575 0.18285 -0.00395 0.0
C333 C 0.24241 0.17405 0.94784 0.0
C334 C 0.23394 0.22068 0.94884 0.0
H335 H 0.22054 0.09358 0.96139 0.0
H336 H 0.26728 0.16953 0.93384 0.0
C337 C 0.2007 0.22417 0.96723 0.0
C338 C -0.01571 0.16344 0.3036 0.0
C339 C 0.04165 0.18299 0.30952 0.0
H340 H 0.92365 0.17079 0.28059 0.0
C341 C 0.08255 0.23179 0.2989 0.0
H342 H 0.95176 0.12571 0.31139 0.0
C343 C 0.06649 0.25855 0.28162 0.0
C344 C 0.00913 0.23638 0.2741 0.0
H345 H 0.12711 0.24825 0.30332 0.0
H346 H 0.09928 0.29558 0.27356 0.0
C347 C 0.96818 0.18954 0.28594 0.0
loop_
_geom_bond_atom_site_label_1
_geom_bond_atom_site_label_2
_geom_bond_distance
_geom_bond_site_symmetry_2
_ccdc_geom_bond_type
Zn0 O3 2.031 . S
Zn0 O5 2.049 1_564 S
Zn0 O10 2.067 1_554 S
Zn1 O2 1.962 . S
Zn1 O4 1.986 . S
Zn1 O6 1.996 . S
Zn1 O9 1.943 1_455 S
O2 Zn1 1.962 . S
O2 C7 1.254 1_545 S
O3 Zn0 2.031 . S
O3 C7 1.269 . S
O4 Zn1 1.986 . S
O4 C11 1.262 . S
O5 Zn0 2.049 1_546 S
O5 C13 1.274 . S
O6 Zn1 1.996 . S
O6 C13 1.234 1_554 S
C7 O2 1.254 1_565 S
C7 O3 1.269 . S
C8 O9 1.249 1_565 S
C8 O10 1.270 1_654 S
O9 Zn1 1.943 1_655 S
O9 C8 1.249 1_545 S
O10 Zn0 2.067 1_556 S
O10 C8 1.270 1_456 S
C11 O4 1.262 . S
C11 O12 1.230 1_455 S
O12 C11 1.230 1_655 S
C13 O5 1.274 . S
C13 O6 1.234 1_556 S
Zn14 O17 2.031 . S
Zn14 O19 2.049 . S
Zn14 O24 2.067 . S
Zn15 O16 1.962 . S
Zn15 O18 1.986 1_455 S
Zn15 O20 1.996 . S
Zn15 O23 1.943 1_445 S
O16 Zn15 1.962 . S
O16 C21 1.254 . S
O17 Zn14 2.031 . S
O17 C21 1.269 . S
O18 Zn15 1.986 1_655 S
O18 C25 1.262 . S
O19 Zn14 2.049 . S
O19 C27 1.260 . S
O20 Zn15 1.996 . S
O20 C27 1.257 . S
C21 O16 1.254 . S
C21 O17 1.269 . S
C22 O23 1.249 1_455 S
C22 O24 1.270 1_565 S
O23 Zn15 1.943 1_665 S
O23 C22 1.249 1_655 S
O24 Zn14 2.067 . S
O24 C22 1.270 1_545 S
C25 O18 1.262 . S
C25 O26 1.229 1_545 S
O26 C25 1.229 1_565 S
C27 O19 1.260 . S
C27 O20 1.257 . S
Zn28 O31 2.031 1_565 S
Zn28 O33 2.049 . S
Zn28 O38 2.067 1_565 S
Zn29 O30 1.962 1_645 S
Zn29 O32 1.986 1_545 S
Zn29 O34 1.996 1_545 S
Zn29 O37 1.943 1_655 S
O30 Zn29 1.962 1_465 S
O30 C35 1.254 . S
O31 Zn28 2.031 1_545 S
O31 C35 1.269 1_545 S
O32 Zn29 1.986 1_565 S
O32 C39 1.262 1_565 S
O33 Zn28 2.049 . S
O33 C41 1.260 1_455 S
O34 Zn29 1.996 1_565 S
O34 C41 1.257 . S
C35 O30 1.254 . S
C35 O31 1.269 1_565 S
C36 O37 1.249 . S
C36 O38 1.270 . S
O37 Zn29 1.943 1_455 S
O37 C36 1.249 . S
O38 Zn28 2.067 1_545 S
O38 C36 1.270 . S
C39 O32 1.262 1_545 S
C39 O40 1.232 . S
O40 C39 1.232 . S
C41 O33 1.260 1_655 S
C41 O34 1.257 . S
H42 C69 0.929 . S
N43 C68 1.433 . S
N43 C74 1.435 . S
N43 C80 1.423 1_455 S
H44 C70 0.930 . S
H45 C73 0.931 . S
H46 C72 0.929 . S
H47 C75 0.930 . S
H48 C76 0.932 . S
H49 C79 0.929 . S
H50 C78 0.931 . S
H51 C81 0.929 . S
H52 C85 0.932 . S
H53 C82 0.931 . S
H54 C84 0.929 . S
H55 C87 0.929 . S
H56 C88 0.930 . S
H57 C90 0.929 . S
H58 C91 0.931 . S
H59 C93 0.930 . S
H60 C94 0.932 . S
H61 C96 0.931 . S
H62 C97 0.929 . S
H63 C99 0.929 . S
H64 C100 0.931 . S
H65 C102 0.929 . S
N66 C86 1.433 . S
N66 C92 1.435 . S
N66 C98 1.423 1_455 S
H67 C103 0.932 . S
C68 N43 1.433 . S
C68 C69 1.363 1_455 S
C68 C73 1.370 . S
C69 H42 0.929 . S
C69 C68 1.363 1_655 S
C69 C70 1.385 . S
C70 H44 0.930 . S
C70 C69 1.385 . S
C70 C71 1.357 1_655 S
C71 C70 1.357 1_455 S
C71 C72 1.406 . S
C72 H46 0.929 . S
C72 C71 1.406 . S
C72 C73 1.391 . S
C73 H45 0.931 . S
C73 C68 1.370 . S
C73 C72 1.391 . S
C74 N43 1.435 . S
C74 C75 1.358 . S
C74 C79 1.371 1_455 S
C75 H47 0.930 . S
C75 C74 1.358 . S
C75 C76 1.405 . S
C76 H48 0.932 . S
C76 C75 1.405 . S
C76 C77 1.383 . S
C77 C76 1.383 . S
C77 C78 1.393 1_455 S
C78 H50 0.931 . S
C78 C77 1.393 1_655 S
C78 C79 1.382 . S
C79 H49 0.929 . S
C79 C74 1.371 1_655 S
C79 C78 1.382 . S
C80 N43 1.423 1_655 S
C80 C81 1.362 . S
C80 C85 1.388 1_655 S
C81 H51 0.929 . S
C81 C80 1.362 . S
C81 C82 1.376 . S
C82 H53 0.931 . S
C82 C81 1.376 . S
C82 C83 1.396 . S
C83 C82 1.396 . S
C83 C84 1.348 1_655 S
C83 C101 1.472 . S
C84 H54 0.929 . S
C84 C83 1.348 1_455 S
C84 C85 1.443 . S
C85 H52 0.932 . S
C85 C80 1.388 1_455 S
C85 C84 1.443 . S
C86 N66 1.433 . S
C86 C87 1.363 1_455 S
C86 C91 1.370 . S
C87 H55 0.929 . S
C87 C86 1.363 1_655 S
C87 C88 1.385 . S
C88 H56 0.930 . S
C88 C87 1.385 . S
C88 C89 1.357 1_655 S
C89 C88 1.357 1_455 S
C89 C90 1.406 . S
C90 H57 0.929 . S
C90 C89 1.406 . S
C90 C91 1.391 . S
C91 H58 0.931 . S
C91 C86 1.370 . S
C91 C90 1.391 . S
C92 N66 1.435 . S
C92 C93 1.358 . S
C92 C97 1.371 1_455 S
C93 H59 0.930 . S
C93 C92 1.358 . S
C93 C94 1.405 . S
C94 H60 0.932 . S
C94 C93 1.405 . S
C94 C95 1.383 . S
C95 C94 1.383 . S
C95 C96 1.393 1_455 S
C96 H61 0.931 . S
C96 C95 1.393 1_655 S
C96 C97 1.382 . S
C97 H62 0.929 . S
C97 C92 1.371 1_655 S
C97 C96 1.382 . S
C98 N66 1.423 1_655 S
C98 C99 1.362 . S
C98 C103 1.388 1_655 S
C99 H63 0.929 . S
C99 C98 1.362 . S
C99 C100 1.376 . S
C100 H64 0.931 . S
C100 C99 1.376 . S
C100 C101 1.396 . S
C101 C83 1.472 . S
C101 C100 1.396 . S
C101 C102 1.348 1_655 S
C102 H65 0.929 . S
C102 C101 1.348 1_455 S
C102 C103 1.443 . S
C103 H67 0.932 . S
C103 C98 1.388 1_455 S
C103 C102 1.443 . S
H104 C131 0.929 . S
N105 C130 1.433 . S
N105 C136 1.435 . S
N105 C142 1.423 . S
H106 C132 0.930 . S
H107 C135 0.930 . S
H108 C134 0.929 1_565 S
H109 C137 0.930 1_565 S
H110 C138 0.932 1_565 S
H111 C141 0.929 . S
H112 C140 0.931 . S
H113 C143 0.929 . S
H114 C147 0.932 . S
H115 C144 0.931 . S
H116 C146 0.929 . S
H117 C149 0.929 . S
H118 C150 0.930 . S
H119 C152 0.929 1_565 S
H120 C153 0.936 . S
H121 C155 0.930 1_565 S
H122 C156 0.932 1_565 S
H123 C158 0.931 . S
H124 C159 0.929 . S
H125 C161 0.929 . S
H126 C162 0.931 . S
H127 C164 0.929 . S
N128 C148 1.433 . S
N128 C154 1.435 . S
N128 C160 1.423 . S
H129 C165 0.932 . S
C130 N105 1.433 . S
C130 C131 1.363 . S
C130 C135 1.370 . S
C131 H104 0.929 . S
C131 C130 1.363 . S
C131 C132 1.385 . S
C132 H106 0.930 . S
C132 C131 1.385 . S
C132 C133 1.357 . S
C133 C132 1.357 . S
C133 C134 1.406 . S
C134 H108 0.929 1_545 S
C134 C133 1.406 . S
C134 C135 1.391 . S
C135 H107 0.930 . S
C135 C130 1.370 . S
C135 C134 1.391 . S
C136 N105 1.435 . S
C136 C137 1.358 . S
C136 C141 1.371 . S
C137 H109 0.930 1_545 S
C137 C136 1.358 . S
C137 C138 1.405 . S
C138 H110 0.932 1_545 S
C138 C137 1.405 . S
C138 C139 1.383 . S
C139 C138 1.383 . S
C139 C140 1.393 . S
C140 H112 0.931 . S
C140 C139 1.393 . S
C140 C141 1.382 . S
C141 H111 0.929 . S
C141 C136 1.371 . S
C141 C140 1.382 . S
C142 N105 1.423 . S
C142 C143 1.362 . S
C142 C147 1.388 . S
C143 H113 0.929 . S
C143 C142 1.362 . S
C143 C144 1.376 . S
C144 H115 0.931 . S
C144 C143 1.376 . S
C144 C145 1.396 . S
C145 C144 1.396 . S
C145 C146 1.348 . S
C145 C163 1.472 . S
C146 H116 0.929 . S
C146 C145 1.348 . S
C146 C147 1.443 . S
C147 H114 0.932 . S
C147 C142 1.388 . S
C147 C146 1.443 . S
C148 N128 1.433 . S
C148 C149 1.363 . S
C148 C153 1.370 . S
C149 H117 0.929 . S
C149 C148 1.363 . S
C149 C150 1.385 . S
C150 H118 0.930 . S
C150 C149 1.385 . S
C150 C151 1.357 . S
C151 C150 1.357 . S
C151 C152 1.406 . S
C152 H119 0.929 1_545 S
C152 C151 1.406 . S
C152 C153 1.391 . S
C153 H120 0.936 . S
C153 C148 1.370 . S
C153 C152 1.391 . S
C154 N128 1.435 . S
C154 C155 1.358 . S
C154 C159 1.371 . S
C155 H121 0.930 1_545 S
C155 C154 1.358 . S
C155 C156 1.405 . S
C156 H122 0.932 1_545 S
C156 C155 1.405 . S
C156 C157 1.383 . S
C157 C156 1.383 . S
C157 C158 1.393 . S
C158 H123 0.931 . S
C158 C157 1.393 . S
C158 C159 1.382 . S
C159 H124 0.929 . S
C159 C154 1.371 . S
C159 C158 1.382 . S
C160 N128 1.423 . S
C160 C161 1.362 . S
C160 C165 1.388 . S
C161 H125 0.929 . S
C161 C160 1.362 . S
C161 C162 1.376 . S
C162 H126 0.931 . S
C162 C161 1.376 . S
C162 C163 1.396 . S
C163 C145 1.472 . S
C163 C162 1.396 . S
C163 C164 1.348 . S
C164 H127 0.929 . S
C164 C163 1.348 . S
C164 C165 1.443 . S
C165 H129 0.932 . S
C165 C160 1.388 . S
C165 C164 1.443 . S
H166 C193 0.929 . S
N167 C192 1.433 . S
N167 C198 1.435 . S
N167 C204 1.423 . S
H168 C194 0.930 . S
H169 C197 0.931 . S
H170 C196 0.929 . S
H171 C199 0.930 . S
H172 C200 0.932 . S
H173 C203 0.929 . S
H174 C202 0.931 . S
H175 C205 0.929 . S
H176 C209 0.932 . S
H177 C206 0.931 . S
H178 C208 0.929 . S
H179 C211 0.929 . S
H180 C212 0.930 . S
H181 C214 0.929 . S
H182 C215 0.931 . S
H183 C217 0.930 . S
H184 C218 0.932 . S
H185 C220 0.931 . S
H186 C221 0.929 . S
H187 C223 0.929 . S
H188 C224 0.931 . S
H189 C226 0.929 . S
N190 C210 1.433 . S
N190 C216 1.435 . S
N190 C222 1.423 . S
H191 C227 0.932 . S
C192 N167 1.433 . S
C192 C193 1.363 . S
C192 C197 1.370 . S
C193 H166 0.929 . S
C193 C192 1.363 . S
C193 C194 1.385 . S
C194 H168 0.930 . S
C194 C193 1.385 . S
C194 C195 1.357 . S
C195 C194 1.357 . S
C195 C196 1.406 . S
C196 H170 0.929 . S
C196 C195 1.406 . S
C196 C197 1.391 . S
C197 H169 0.931 . S
C197 C192 1.370 . S
C197 C196 1.391 . S
C198 N167 1.435 . S
C198 C199 1.358 . S
C198 C203 1.371 . S
C199 H171 0.930 . S
C199 C198 1.358 . S
C199 C200 1.405 . S
C200 H172 0.932 . S
C200 C199 1.405 . S
C200 C201 1.383 . S
C201 C200 1.383 . S
C201 C202 1.393 . S
C202 H174 0.931 . S
C202 C201 1.393 . S
C202 C203 1.382 . S
C203 H173 0.929 . S
C203 C198 1.371 . S
C203 C202 1.382 . S
C204 N167 1.423 . S
C204 C205 1.362 . S
C204 C209 1.388 . S
C205 H175 0.929 . S
C205 C204 1.362 . S
C205 C206 1.376 . S
C206 H177 0.931 . S
C206 C205 1.376 . S
C206 C207 1.396 . S
C207 C206 1.396 . S
C207 C208 1.348 . S
C207 C225 1.472 . S
C208 H178 0.929 . S
C208 C207 1.348 . S
C208 C209 1.443 . S
C209 H176 0.932 . S
C209 C204 1.388 . S
C209 C208 1.443 . S
C210 N190 1.433 . S
C210 C211 1.363 . S
C210 C215 1.370 . S
C211 H179 0.929 . S
C211 C210 1.363 . S
C211 C212 1.385 . S
C212 H180 0.930 . S
C212 C211 1.385 . S
C212 C213 1.357 . S
C213 C212 1.357 . S
C213 C214 1.406 . S
C214 H181 0.929 . S
C214 C213 1.406 . S
C214 C215 1.391 . S
C215 H182 0.931 . S
C215 C210 1.370 . S
C215 C214 1.391 . S
C216 N190 1.435 . S
C216 C217 1.358 . S
C216 C221 1.371 . S
C217 H183 0.930 . S
C217 C216 1.358 . S
C217 C218 1.405 . S
C218 H184 0.932 . S
C218 C217 1.405 . S
C218 C219 1.383 . S
C219 C218 1.383 . S
C219 C220 1.393 . S
C220 H185 0.931 . S
C220 C219 1.393 . S
C220 C221 1.382 . S
C221 H186 0.929 . S
C221 C216 1.371 . S
C221 C220 1.382 . S
C222 N190 1.423 . S
C222 C223 1.362 . S
C222 C227 1.388 . S
C223 H187 0.929 . S
C223 C222 1.362 . S
C223 C224 1.376 . S
C224 H188 0.931 . S
C224 C223 1.376 . S
C224 C225 1.396 . S
C225 C207 1.472 . S
C225 C224 1.396 . S
C225 C226 1.348 . S
C226 H189 0.929 . S
C226 C225 1.348 . S
C226 C227 1.443 . S
C227 H191 0.932 . S
C227 C222 1.388 . S
C227 C226 1.443 . S
C228 C229 1.387 . S
C228 H232 0.950 . S
C228 C237 1.390 . S
C229 C228 1.387 . S
C229 C231 1.387 1_455 S
H230 C237 0.950 . S
C231 C229 1.387 1_655 S
C231 C233 1.390 1_655 S
C231 H235 0.950 . S
H232 C228 0.950 . S
C233 C231 1.390 1_455 S
C233 C234 1.387 . S
C233 H236 0.950 1_455 S
C234 C233 1.387 . S
C234 C237 1.387 . S
H235 C231 0.950 . S
H236 C233 0.950 1_655 S
C237 C228 1.390 . S
C237 H230 0.950 . S
C237 C234 1.387 . S
C238 C239 1.387 1_565 S
C238 H242 0.950 . S
C238 C247 1.390 . S
C239 C238 1.387 1_545 S
C239 C241 1.387 . S
H240 C247 0.950 . S
C241 C239 1.387 . S
C241 C243 1.390 . S
C241 H245 0.950 . S
H242 C238 0.950 . S
C243 C241 1.390 . S
C243 C244 1.387 . S
C243 H246 0.950 . S
C244 C243 1.387 . S
C244 C247 1.387 1_545 S
H245 C241 0.950 . S
H246 C243 0.950 . S
C247 C238 1.390 . S
C247 H240 0.950 . S
C247 C244 1.387 1_565 S
C248 C249 1.387 . S
C248 H252 0.950 . S
C248 C257 1.390 . S
C249 C248 1.387 . S
C249 C251 1.387 . S
H250 C257 0.950 . S
C251 C249 1.387 . S
C251 C253 1.390 . S
C251 H255 0.950 . S
H252 C248 0.950 . S
C253 C251 1.390 . S
C253 C254 1.387 . S
C253 H256 0.950 . S
C254 C253 1.387 . S
C254 C257 1.387 . S
H255 C251 0.950 . S
H256 C253 0.950 . S
C257 C248 1.390 . S
C257 H250 0.950 . S
C257 C254 1.387 . S
C258 C259 1.387 . S
C258 H262 0.950 . S
C258 C267 1.390 . S
C259 C258 1.387 . S
C259 C261 1.387 . S
H260 C267 0.950 . S
C261 C259 1.387 . S
C261 C263 1.390 . S
C261 H265 0.950 1_455 S
H262 C258 0.950 . S
C263 C261 1.390 . S
C263 C264 1.387 . S
C263 H266 0.950 1_455 S
C264 C263 1.387 . S
C264 C267 1.387 . S
H265 C261 0.950 1_655 S
H266 C263 0.950 1_655 S
C267 C258 1.390 . S
C267 H260 0.950 . S
C267 C264 1.387 . S
C268 C269 1.387 . S
C268 H272 0.950 1_545 S
C268 C277 1.390 . S
C269 C268 1.387 . S
C269 C271 1.387 . S
H270 C277 0.950 1_565 S
C271 C269 1.387 . S
C271 C273 1.390 . S
C271 H275 0.950 . S
H272 C268 0.950 1_565 S
C273 C271 1.390 . S
C273 C274 1.387 . S
C273 H276 0.950 . S
C274 C273 1.387 . S
C274 C277 1.387 . S
H275 C271 0.950 . S
H276 C273 0.950 . S
C277 C268 1.390 . S
C277 H270 0.950 1_545 S
C277 C274 1.387 . S
C278 C279 1.387 . S
C278 H282 0.950 . S
C278 C287 1.390 . S
C279 C278 1.387 . S
C279 C281 1.387 . S
H280 C287 0.950 . S
C281 C279 1.387 . S
C281 C283 1.390 . S
C281 H285 0.950 . S
H282 C278 0.950 . S
C283 C281 1.390 . S
C283 C284 1.387 . S
C283 H286 0.950 . S
C284 C283 1.387 . S
C284 C287 1.387 . S
H285 C281 0.950 . S
H286 C283 0.950 . S
C287 C278 1.390 . S
C287 H280 0.950 . S
C287 C284 1.387 . S
C288 C289 1.387 1_565 S
C288 H292 0.950 . S
C288 C297 1.390 . S
C289 C288 1.387 1_545 S
C289 C291 1.387 . S
H290 C297 0.950 . S
C291 C289 1.387 . S
C291 C293 1.390 . S
C291 H295 0.950 . S
H292 C288 0.950 . S
C293 C291 1.390 . S
C293 C294 1.387 . S
C293 H296 0.950 . S
C294 C293 1.387 . S
C294 C297 1.387 1_545 S
H295 C291 0.950 . S
H296 C293 0.950 . S
C297 C288 1.390 . S
C297 H290 0.950 . S
C297 C294 1.387 1_565 S
C298 C299 1.387 . S
C298 H302 0.950 1_556 S
C298 C307 1.390 . S
C299 C298 1.387 . S
C299 C301 1.387 . S
H300 C307 0.950 . S
C301 C299 1.387 . S
C301 C303 1.390 . S
C301 H305 0.950 . S
H302 C298 0.950 1_554 S
C303 C301 1.390 . S
C303 C304 1.387 . S
C303 H306 0.950 . S
C304 C303 1.387 . S
C304 C307 1.387 . S
H305 C301 0.950 . S
H306 C303 0.950 . S
C307 C298 1.390 . S
C307 H300 0.950 . S
C307 C304 1.387 . S
C308 C309 1.384 . S
C308 H312 0.950 . S
C308 C317 1.390 1_655 S
C309 C308 1.384 . S
C309 C311 1.386 1_655 S
H310 C317 0.950 . S
C311 C309 1.386 1_455 S
C311 C313 1.390 . S
C311 H315 0.950 . S
H312 C308 0.950 . S
C313 C311 1.390 . S
C313 C314 1.387 . S
C313 H316 0.950 . S
C314 C313 1.387 . S
C314 C317 1.387 . S
H315 C311 0.950 . S
H316 C313 0.950 . S
C317 C308 1.390 1_455 S
C317 H310 0.950 . S
C317 C314 1.387 . S
C318 C319 1.399 . S
C318 H322 0.950 . S
C318 C327 1.390 . S
C319 C318 1.399 . S
C319 C321 1.383 1_565 S
H320 C327 0.950 . S
C321 C319 1.383 1_545 S
C321 C323 1.390 . S
C321 H325 0.950 . S
H322 C318 0.950 . S
C323 C321 1.390 . S
C323 C324 1.387 . S
C323 H326 0.950 . S
C324 C323 1.387 . S
C324 C327 1.387 1_545 S
H325 C321 0.950 . S
H326 C323 0.950 . S
C327 C318 1.390 . S
C327 H320 0.950 . S
C327 C324 1.387 1_565 S
C328 C329 1.388 1_554 S
C328 H332 0.948 . S
C328 C337 1.391 1_554 S
C329 C328 1.388 1_556 S
C329 C331 1.387 . S
H330 C337 0.950 . S
C331 C329 1.387 . S
C331 C333 1.390 . S
C331 H335 0.950 . S
H332 C328 0.948 . S
C333 C331 1.390 . S
C333 C334 1.387 . S
C333 H336 0.950 . S
C334 C333 1.387 . S
C334 C337 1.387 . S
H335 C331 0.950 . S
H336 C333 0.950 . S
C337 C328 1.391 1_556 S
C337 H330 0.950 . S
C337 C334 1.387 . S
C338 C339 1.387 . S
C338 H342 0.950 . S
C338 C347 1.390 . S
C339 C338 1.387 . S
C339 C341 1.387 . S
H340 C347 0.950 1_655 S
C341 C339 1.387 . S
C341 C343 1.390 . S
C341 H345 0.950 . S
H342 C338 0.950 . S
C343 C341 1.390 . S
C343 C344 1.387 . S
C343 H346 0.950 . S
C344 C343 1.387 . S
C344 C347 1.387 . S
H345 C341 0.950 . S
H346 C343 0.950 . S
C347 C338 1.390 . S
C347 H340 0.950 1_455 S
C347 C344 1.387 . S
C234 C95 1.298 . S
C229 C11 1.264 . S
C239 C25 1.314 . S
C244 C139 1.349 . S
C249 C41 1.314 . S
C254 C201 1.405 . S
C259 C7 1.326 . S
C264 C77 1.330 . S
C274 C157 1.368 . S
C269 C21 1.371 . S
C279 C36 1.343 . S
C284 C219 1.443 . S
C294 C133 1.500 . S
C289 C39 1.623 . S
C299 C8 1.639 1_556 S
C304 C195 1.563 . S
C314 C71 1.596 . S
C309 C22 1.672 1_655 S
C324 C151 1.530 . S
C319 C35 1.614 . S
C334 C213 1.543 . S
C329 C13 1.616 . S
C339 C27 1.690 . S
C344 C89 1.592 . S
