# Generated by pormake.
# Topology anh, (6,3)-cn, num edge types: 1
# Building blocks:
#     Node 0, Type 0, BuildingBlock: BETGAK_clean_sbu_0, # of connection points: 6
#     Node 1, Type 0, BuildingBlock: BETGAK_clean_sbu_0, # of connection points: 6
#     Node 2, Type 0, BuildingBlock: BETGAK_clean_sbu_0, # of connection points: 6
#     Node 3, Type 1, BuildingBlock: BETDIP_clean_linker_0, # of connection points: 3
#     Node 4, Type 1, BuildingBlock: BETDIP_clean_linker_0, # of connection points: 3
#     Node 5, Type 1, BuildingBlock: BETDIP_clean_linker_0, # of connection points: 3
#     Node 6, Type 1, BuildingBlock: BETDIP_clean_linker_0, # of connection points: 3
#     Node 7, Type 1, BuildingBlock: BETDIP_clean_linker_0, # of connection points: 3
#     Node 8, Type 1, BuildingBlock: BETDIP_clean_linker_0, # of connection points: 3
#     Edge 9, Type (0, 1), BuildingBlock: UVAHIK_clean_linker_0, # of connection points: 2
#     Edge 10, Type (0, 1), BuildingBlock: UVAHIK_clean_linker_0, # of connection points: 2
#     Edge 11, Type (0, 1), BuildingBlock: UVAHIK_clean_linker_0, # of connection points: 2
#     Edge 12, Type (0, 1), BuildingBlock: UVAHIK_clean_linker_0, # of connection points: 2
#     Edge 13, Type (0, 1), BuildingBlock: UVAHIK_clean_linker_0, # of connection points: 2
#     Edge 14, Type (0, 1), BuildingBlock: UVAHIK_clean_linker_0, # of connection points: 2
#     Edge 15, Type (0, 1), BuildingBlock: UVAHIK_clean_linker_0, # of connection points: 2
#     Edge 16, Type (0, 1), BuildingBlock: UVAHIK_clean_linker_0, # of connection points: 2
#     Edge 17, Type (0, 1), BuildingBlock: UVAHIK_clean_linker_0, # of connection points: 2
#     Edge 18, Type (0, 1), BuildingBlock: UVAHIK_clean_linker_0, # of connection points: 2
#     Edge 19, Type (0, 1), BuildingBlock: UVAHIK_clean_linker_0, # of connection points: 2
#     Edge 20, Type (0, 1), BuildingBlock: UVAHIK_clean_linker_0, # of connection points: 2
#     Edge 21, Type (0, 1), BuildingBlock: UVAHIK_clean_linker_0, # of connection points: 2
#     Edge 22, Type (0, 1), BuildingBlock: UVAHIK_clean_linker_0, # of connection points: 2
#     Edge 23, Type (0, 1), BuildingBlock: UVAHIK_clean_linker_0, # of connection points: 2
#     Edge 24, Type (0, 1), BuildingBlock: UVAHIK_clean_linker_0, # of connection points: 2
#     Edge 25, Type (0, 1), BuildingBlock: UVAHIK_clean_linker_0, # of connection points: 2
#     Edge 26, Type (0, 1), BuildingBlock: UVAHIK_clean_linker_0, # of connection points: 2
# Relax obj value: 0.129
# Max RMSD: 0.170
# Mean RMSD: 0.121
data_MOF--net-anh--node1-BETGAK_clean_sbu_0--node2-BETDIP_clean_linker_0--edge1-UVAHIK_clean_linker_0
_symmetry_space_group_name_H-M    P1
_symmetry_Int_Tables_number       1
_symmetry_cell_setting            triclinic
loop_
_symmetry_equiv_pos_as_xyz
'x, y, z'
_cell_length_a     40.078144
_cell_length_b     46.771715
_cell_length_c     64.082722
_cell_angle_alpha  95.182149
_cell_angle_beta   89.162095
_cell_angle_gamma 127.76322
loop_
_atom_site_label
_atom_site_type_symbol
_atom_site_fract_x
_atom_site_fract_y
_atom_site_fract_z
_atom_type_partial_charge
La0 La 0.12055 0.55233 0.14837 0.0
La1 La 0.07711 0.58247 0.16586 0.0
C2 C 0.16565 0.54145 0.12715 0.0
C3 C 0.21013 0.55703 0.13041 0.0
C4 C 0.23072 0.57386 0.15026 0.0
C5 C 0.27118 0.58451 0.15431 0.0
C6 C 0.29185 0.57908 0.13847 0.0
C7 C 0.27233 0.56454 0.11822 0.0
C8 C 0.23151 0.55337 0.11424 0.0
C9 C 0.11737 0.55563 0.18943 0.0
C10 C 0.17292 0.63887 0.1596 0.0
C11 C 1.03299 0.59489 0.18697 0.0
C12 C 0.98706 0.57455 0.18856 0.0
C13 C 0.96131 0.53872 0.19405 0.0
C14 C 0.91736 0.51778 0.19203 0.0
C15 C 0.89842 0.5324 0.18462 0.0
C16 C 0.92423 0.56902 0.18051 0.0
C17 C 0.96815 0.58989 0.18247 0.0
C18 C 0.08086 0.57818 0.12461 0.0
C19 C 1.02477 0.49615 0.15511 0.0
O20 O 0.14103 0.52094 0.14149 0.0
O21 O 0.15861 0.5641 0.12258 0.0
O22 O 0.11797 0.53169 0.17808 0.0
O23 O 0.12319 0.57874 0.1781 0.0
O24 O 0.17037 0.61179 0.14902 0.0
O25 O 0.1411 0.63272 0.17037 0.0
O26 O 1.0473 0.60692 0.16876 0.0
O27 O 1.04974 0.58081 0.19436 0.0
O28 O 0.08233 0.60354 0.13563 0.0
O29 O 0.0742 0.55544 0.13642 0.0
O30 O 1.02822 0.52325 0.16627 0.0
O31 O 1.05571 0.50246 0.14338 0.0
H32 H 0.21475 0.57728 0.16286 0.0
H33 H 0.28569 0.59567 0.17002 0.0
H34 H 0.28756 0.55976 0.10583 0.0
H35 H 0.21607 0.54062 0.09883 0.0
H36 H 0.97503 0.52631 0.19906 0.0
H37 H 0.89836 0.48962 0.19525 0.0
H38 H 0.91048 0.58124 0.17518 0.0
H39 H 0.9874 0.61759 0.17837 0.0
La40 La 0.62796 0.0446 0.48721 0.0
La41 La 0.57061 0.06299 0.47727 0.0
C42 C 0.66181 0.01993 0.50304 0.0
C43 C 0.64988 0.984 0.50628 0.0
C44 C 0.67994 0.97797 0.50352 0.0
C45 C 0.66931 0.94392 0.50587 0.0
C46 C 0.62825 0.91505 0.51098 0.0
C47 C 0.59819 0.92129 0.51387 0.0
C48 C 0.60895 0.95547 0.51158 0.0
C49 C 0.62233 0.05189 0.44754 0.0
C50 C 0.52806 0.98134 0.47782 0.0
C51 C 0.53829 0.08991 0.46288 0.0
C52 C 0.54829 0.12595 0.46672 0.0
C53 C 0.57403 0.14969 0.48428 0.0
C54 C 0.58241 0.18344 0.48837 0.0
C55 C 0.5655 0.19432 0.47489 0.0
C56 C 0.54037 0.17062 0.45705 0.0
C57 C 0.53181 0.13671 0.45305 0.0
C58 C 0.57823 0.05718 0.51708 0.0
C59 C 0.671 0.12659 0.4852 0.0
O60 O 0.66519 0.02705 0.48352 0.0
O61 O 0.64269 0.03063 0.51393 0.0
O62 O 0.65624 0.06073 0.45701 0.0
O63 O 0.59233 0.03705 0.45973 0.0
O64 O 0.56386 0.99199 0.48723 0.0
O65 O 0.52568 1.00469 0.46916 0.0
O66 O 0.52423 0.07061 0.47888 0.0
O67 O 0.56678 0.089 0.45335 0.0
O68 O 0.54378 0.04786 0.50806 0.0
O69 O 0.60712 0.07142 0.50438 0.0
O70 O 0.63381 0.11582 0.47779 0.0
O71 O 0.67554 0.1035 0.49251 0.0
H72 H 0.71173 0.99967 0.49948 0.0
H73 H 0.69347 0.94034 0.5039 0.0
H74 H 0.56618 0.89963 0.51761 0.0
H75 H 0.58526 0.95955 0.51386 0.0
H76 H 0.58716 0.14187 0.495 0.0
H77 H 0.60134 0.20059 0.5024 0.0
H78 H 0.52737 0.17827 0.44615 0.0
H79 H 0.51212 0.1188 0.43934 0.0
La80 La 0.62744 0.55845 0.84563 0.0
La81 La 0.56756 0.47848 0.84835 0.0
C82 C 0.6648 0.62195 0.83541 0.0
C83 C 0.65373 0.64577 0.83131 0.0
C84 C 0.68399 0.68346 0.83584 0.0
C85 C 0.67422 0.7067 0.8323 0.0
C86 C 0.63381 0.69265 0.82423 0.0
C87 C 0.60349 0.65473 0.81972 0.0
C88 C 0.61341 0.63152 0.82317 0.0
C89 C 0.61797 0.53771 0.88339 0.0
C90 C 0.52645 0.51813 0.84886 0.0
C91 C 0.53309 0.41558 0.85872 0.0
C92 C 0.54363 0.39043 0.85562 0.0
C93 C 0.56975 0.39399 0.83956 0.0
C94 C 0.57888 0.36954 0.8363 0.0
C95 C 0.56235 0.34116 0.84916 0.0
C96 C 0.53685 0.33822 0.86552 0.0
C97 C 0.52755 0.36264 0.86869 0.0
C98 C 0.57621 0.49812 0.81039 0.0
C99 C 0.66902 0.519 0.84532 0.0
O100 O 0.66226 0.61441 0.8548 0.0
O101 O 0.64941 0.59334 0.82189 0.0
O102 O 0.65384 0.56462 0.87697 0.0
O103 O 0.58941 0.5248 0.86931 0.0
O104 O 0.56398 0.54628 0.84297 0.0
O105 O 0.52187 0.4894 0.85476 0.0
O106 O 0.52222 0.42208 0.84166 0.0
O107 O 0.5594 0.44533 0.87119 0.0
O108 O 0.54126 0.47033 0.81688 0.0
O109 O 0.6053 0.51195 0.82437 0.0
O110 O 0.63051 0.48948 0.84904 0.0
O111 O 0.67488 0.5492 0.84149 0.0
H112 H 0.71533 0.69497 0.84207 0.0
H113 H 0.69858 0.73573 0.83563 0.0
H114 H 0.57193 0.6429 0.81372 0.0
H115 H 0.58961 0.60249 0.81949 0.0
H116 H 0.58267 0.41542 0.82935 0.0
H117 H 0.59811 0.37244 0.82338 0.0
H118 H 0.52415 0.31714 0.87594 0.0
H119 H 0.50766 0.35971 0.88129 0.0
H120 H 0.56911 0.03662 0.16301 0.0
H121 H 0.63626 0.10082 0.22127 0.0
H122 H 0.52777 0.98888 0.22141 0.0
H123 H 0.62889 0.14036 0.20092 0.0
C124 C 0.64669 0.13884 0.18849 0.0
C125 C 0.57318 0.03887 0.17991 0.0
C126 C 0.54453 0.00871 0.191 0.0
C127 C 0.60566 0.0726 0.19087 0.0
C128 C 0.61048 0.07529 0.21285 0.0
C129 C 0.583 0.04507 0.22394 0.0
C130 C 0.54993 0.01209 0.21289 0.0
N131 N 0.63311 0.10386 0.1799 0.0
H132 H 0.58792 0.52608 0.52876 0.0
H133 H 0.58643 0.57379 0.5891 0.0
H134 H 0.61012 0.49566 0.58539 0.0
H135 H 0.53779 0.57425 0.57019 0.0
C136 C 0.55631 0.58621 0.55661 0.0
C137 C 0.59108 0.52862 0.54573 0.0
C138 C 0.60005 0.5082 0.55562 0.0
C139 C 0.58567 0.55207 0.55765 0.0
C140 C 0.58963 0.55524 0.57968 0.0
C141 C 0.59873 0.53517 0.58975 0.0
C142 C 0.60432 0.51201 0.57763 0.0
N143 N 0.57739 0.57291 0.54723 0.0
H144 H 0.06488 0.51596 0.83751 0.0
H145 H 0.12551 0.52907 0.89669 0.0
H146 H 1.01739 0.52736 0.89597 0.0
H147 H 0.18505 0.56551 0.87634 0.0
C148 C 0.17511 0.54309 0.86455 0.0
C149 C 0.06695 0.51965 0.85449 0.0
C150 C 1.03625 0.52085 0.8655 0.0
C151 C 0.10058 0.5236 0.86573 0.0
C152 C 0.10175 0.52775 0.88781 0.0
C153 C 0.072 0.52902 0.89873 0.0
C154 C 1.03987 0.52572 0.88748 0.0
N155 N 0.13251 0.52263 0.85541 0.0
H156 H 0.12702 0.58658 0.47547 0.0
H157 H 1.0551 0.51996 0.41858 0.0
H158 H 0.1665 0.62997 0.41581 0.0
H159 H 1.00228 0.51095 0.44537 0.0
C160 C 1.01299 0.49977 0.45505 0.0
C161 C 0.12261 0.58312 0.45853 0.0
C162 C 0.15063 0.61252 0.44678 0.0
C163 C 0.08738 0.54986 0.44842 0.0
C164 C 0.08181 0.54566 0.42642 0.0
C165 C 0.1102 0.57438 0.41453 0.0
C166 C 0.14423 0.60768 0.42488 0.0
N167 N 1.05709 0.5209 0.4603 0.0
H168 H 0.58995 0.03523 0.79855 0.0
H169 H 0.58797 0.98657 0.73773 0.0
H170 H 0.61066 0.08927 0.74333 0.0
H171 H 0.54275 0.93459 0.75407 0.0
C172 C 0.56101 0.94264 0.76875 0.0
C173 C 0.59271 0.03607 0.78172 0.0
C174 C 0.60115 0.0659 0.77245 0.0
C175 C 0.58755 0.00714 0.76936 0.0
C176 C 0.59097 0.00824 0.7475 0.0
C177 C 0.59961 0.03792 0.73809 0.0
C178 C 0.60506 0.06676 0.75066 0.0
N179 N 0.58044 0.97792 0.77927 0.0
H180 H 0.44408 0.38368 0.1344 0.0
H181 H 0.48968 0.35337 0.08295 0.0
H182 H 0.51764 0.45849 0.08869 0.0
H183 H 0.44041 0.28252 0.11409 0.0
C184 C 0.46019 0.31181 0.11776 0.0
C185 C 0.46168 0.39062 0.1203 0.0
C186 C 0.48259 0.42529 0.1135 0.0
C187 C 0.46424 0.36483 0.10933 0.0
C188 C 0.48782 0.37351 0.09129 0.0
C189 C 0.50767 0.40755 0.08375 0.0
C190 C 0.50455 0.43302 0.09497 0.0
N191 N 0.44194 0.32976 0.11631 0.0
C192 C 0.36597 0.60246 0.13174 0.0
C193 C 0.33028 0.58305 0.14373 0.0
C194 C 0.399 0.60043 0.13453 0.0
C195 C 0.43233 0.55617 0.16589 0.0
H196 H 0.46747 0.54259 0.11165 0.0
C197 C 0.44219 0.44258 0.13393 0.0
C198 C 0.4798 0.45299 0.12479 0.0
C199 C 0.43772 0.46881 0.14186 0.0
C200 C 0.45868 0.547 0.12699 0.0
H201 H 0.30167 0.54791 0.16867 0.0
H202 H 0.35733 0.54247 0.17275 0.0
H203 H 0.43508 0.57256 0.11477 0.0
H204 H 0.5436 0.49948 0.11871 0.0
H205 H 0.53436 0.54499 0.13131 0.0
H206 H 0.45194 0.52648 0.17728 0.0
C207 C 0.36145 0.56054 0.16177 0.0
C208 C 0.44028 0.56447 0.12889 0.0
C209 C 0.32912 0.56337 0.15935 0.0
C210 C 0.5137 0.49037 0.12502 0.0
C211 C 0.5088 0.51651 0.13249 0.0
C212 C 0.44963 0.53771 0.16381 0.0
C213 C 0.39617 0.57792 0.14885 0.0
C214 C 0.4251 0.56789 0.14818 0.0
C215 C 0.47045 0.50581 0.14051 0.0
C216 C 0.46158 0.53203 0.14418 0.0
H217 H 0.36761 0.61811 0.11974 0.0
H218 H 0.42573 0.61515 0.12473 0.0
H219 H 0.42247 0.55937 0.18117 0.0
H220 H 0.41525 0.41421 0.13389 0.0
H221 H 0.40763 0.46006 0.14775 0.0
C222 C 0.70285 0.19004 0.47748 0.0
C223 C 0.7081 0.16555 0.48492 0.0
C224 C 0.73764 0.22611 0.47568 0.0
C225 C 0.8496 0.29886 0.4931 0.0
H226 H 0.85007 0.33803 0.44221 0.0
C227 C 0.9917 0.44317 0.47079 0.0
C228 C 0.98089 0.46253 0.46116 0.0
C229 C 0.96018 0.4069 0.47476 0.0
C230 C 0.85034 0.32778 0.45665 0.0
H231 H 0.75437 0.16044 0.4969 0.0
H232 H 0.81534 0.2237 0.49373 0.0
H233 H 0.79215 0.27543 0.44737 0.0
H234 H 0.92884 0.45968 0.44882 0.0
H235 H 0.87424 0.39732 0.45604 0.0
H236 H 0.9079 0.35163 0.50238 0.0
C237 C 0.78408 0.2148 0.48935 0.0
C238 C 0.81703 0.29175 0.4596 0.0
C239 C 0.74912 0.1785 0.4911 0.0
C240 C 0.93814 0.44537 0.45614 0.0
C241 C 0.90684 0.40944 0.46013 0.0
C242 C 0.88305 0.33514 0.49017 0.0
C243 C 0.77881 0.23889 0.48127 0.0
C244 C 0.8158 0.2769 0.47798 0.0
C245 C 0.91735 0.3894 0.46913 0.0
C246 C 0.88348 0.35025 0.47202 0.0
H247 H 0.67181 0.1813 0.47272 0.0
H248 H 0.73224 0.24404 0.4698 0.0
H249 H 0.8496 0.28832 0.50747 0.0
H250 H 1.02445 0.45566 0.47478 0.0
H251 H 0.96948 0.39229 0.48165 0.0
C252 C 0.63905 0.74864 0.83435 0.0
C253 C 0.62363 0.71755 0.82035 0.0
C254 C 0.63057 0.7726 0.83037 0.0
C255 C 0.55811 0.77915 0.80002 0.0
H256 H 0.64961 0.88281 0.80737 0.0
C257 C 0.54712 0.88279 0.76539 0.0
C258 C 0.56572 0.91663 0.77693 0.0
C259 C 0.55255 0.85825 0.77217 0.0
C260 C 0.6235 0.854 0.80554 0.0
H261 H 0.58718 0.68748 0.79112 0.0
H262 H 0.57211 0.72906 0.78431 0.0
H263 H 0.66199 0.84038 0.81643 0.0
H264 H 0.60416 0.95126 0.80487 0.0
H265 H 0.61327 0.90818 0.81692 0.0
H266 H 0.51964 0.79268 0.78905 0.0
C267 C 0.59041 0.73469 0.79849 0.0
C268 C 0.63064 0.82965 0.81071 0.0
C269 C 0.59903 0.71081 0.80242 0.0
C270 C 0.58947 0.92537 0.79561 0.0
C271 C 0.5949 0.90076 0.80243 0.0
C272 C 0.55093 0.80348 0.79492 0.0
C273 C 0.60628 0.76598 0.81236 0.0
C274 C 0.59815 0.79192 0.8078 0.0
C275 C 0.57669 0.86697 0.79072 0.0
C276 C 0.58366 0.84121 0.79739 0.0
H277 H 0.65746 0.75438 0.8485 0.0
H278 H 0.64274 0.79617 0.84152 0.0
H279 H 0.53221 0.75028 0.79793 0.0
H280 H 0.52883 0.87548 0.75088 0.0
H281 H 0.53862 0.83279 0.76256 0.0
C282 C 0.83702 0.51096 0.16059 0.0
C283 C 0.85229 0.50876 0.17949 0.0
C284 C 0.79397 0.48734 0.15489 0.0
C285 C 0.68904 0.42787 0.176 0.0
H286 H 0.65453 0.38639 0.11799 0.0
C287 C 0.52331 0.36282 0.14034 0.0
C288 C 0.50414 0.33151 0.12606 0.0
C289 C 0.56498 0.38162 0.14785 0.0
C290 C 0.66361 0.39739 0.1343 0.0
H291 H 0.8343 0.48045 0.20744 0.0
H292 H 0.75875 0.43884 0.19738 0.0
H293 H 0.72915 0.42472 0.12929 0.0
H294 H 0.5124 0.29421 0.1092 0.0
H295 H 0.58572 0.32719 0.12238 0.0
H296 H 0.62343 0.40054 0.18099 0.0
C297 C 0.78024 0.45903 0.18704 0.0
C298 C 0.70636 0.41967 0.14071 0.0
C299 C 0.82345 0.48266 0.19273 0.0
C300 C 0.52683 0.3186 0.11998 0.0
C301 C 0.56869 0.33751 0.12744 0.0
C302 C 0.64626 0.40565 0.16957 0.0
C303 C 0.76516 0.46093 0.16796 0.0
C304 C 0.71956 0.43554 0.16155 0.0
C305 C 0.58825 0.36936 0.14135 0.0
C306 C 0.63318 0.39057 0.14859 0.0
H307 H 0.85848 0.53041 0.1499 0.0
H308 H 0.78322 0.4898 0.14023 0.0
H309 H 0.6983 0.43984 0.19214 0.0
H310 H 0.50613 0.37275 0.14589 0.0
H311 H 0.57922 0.40617 0.15845 0.0
C312 C 0.49146 0.91627 0.48482 0.0
C313 C 0.48987 0.94257 0.47694 0.0
C314 C 0.45495 0.88007 0.48459 0.0
C315 C 0.33765 0.82339 0.48083 0.0
H316 H 0.34154 0.74366 0.46446 0.0
C317 C 0.18955 0.67956 0.4521 0.0
C318 C 0.18618 0.64911 0.45672 0.0
C319 C 0.22603 0.71475 0.45814 0.0
C320 C 0.33997 0.76555 0.46945 0.0
H321 H 0.44836 0.95101 0.46239 0.0
H322 H 0.38521 0.88821 0.46177 0.0
H323 H 0.40678 0.80614 0.46737 0.0
H324 H 0.21775 0.63154 0.4719 0.0
H325 H 0.28201 0.69345 0.48267 0.0
H326 H 0.27085 0.78297 0.48253 0.0
C327 C 0.41449 0.89557 0.46846 0.0
C328 C 0.37743 0.80144 0.47106 0.0
C329 C 0.45092 0.93164 0.46865 0.0
C330 C 0.21944 0.65458 0.46832 0.0
C331 C 0.25633 0.68998 0.47424 0.0
C332 C 0.3003 0.78759 0.47922 0.0
C333 C 0.41588 0.86929 0.47654 0.0
C334 C 0.37664 0.83089 0.47637 0.0
C335 C 0.26036 0.72052 0.46887 0.0
C336 C 0.30079 0.7582 0.4731 0.0
H337 H 0.52084 0.92359 0.49127 0.0
H338 H 0.45722 0.86067 0.49104 0.0
H339 H 0.3359 0.84527 0.48545 0.0
H340 H 0.16442 0.67609 0.44309 0.0
H341 H 0.22804 0.73743 0.45349 0.0
C342 C 0.61013 0.32512 0.83815 0.0
C343 C 0.57074 0.31423 0.84504 0.0
C344 C 0.61701 0.2995 0.83288 0.0
C345 C 0.57801 0.20629 0.83957 0.0
H346 H 0.62598 0.21141 0.78579 0.0
C347 C 0.57108 0.08729 0.79814 0.0
C348 C 0.60369 0.09544 0.78506 0.0
C349 C 0.57047 0.11506 0.80771 0.0
C350 C 0.61335 0.20986 0.80106 0.0
H351 H 0.50798 0.26761 0.85212 0.0
H352 H 0.5204 0.22311 0.84332 0.0
H353 H 0.61898 0.25796 0.79853 0.0
H354 H 0.66253 0.139 0.77275 0.0
H355 H 0.66245 0.1876 0.79001 0.0
H356 H 0.5725 0.15825 0.84218 0.0
C357 C 0.54594 0.25157 0.84208 0.0
C358 C 0.6092 0.23656 0.80831 0.0
C359 C 0.5389 0.27714 0.84717 0.0
C360 C 0.63677 0.13197 0.78259 0.0
C361 C 0.63649 0.15976 0.79236 0.0
C362 C 0.58258 0.17972 0.83242 0.0
C363 C 0.58485 0.2624 0.83457 0.0
C364 C 0.59115 0.23492 0.82755 0.0
C365 C 0.60273 0.15166 0.80458 0.0
C366 C 0.59998 0.18096 0.81296 0.0
H367 H 0.63571 0.35349 0.83675 0.0
H368 H 0.64753 0.30872 0.82742 0.0
H369 H 0.56435 0.20453 0.85457 0.0
H370 H 0.54497 0.0593 0.80014 0.0
H371 H 0.5437 0.10763 0.8168 0.0
C372 C 0.59147 0.85835 0.52949 0.0
C373 C 0.61713 0.87878 0.51339 0.0
C374 C 0.58241 0.82493 0.5322 0.0
C375 C 0.62359 0.7734 0.5211 0.0
H376 H 0.51221 0.69158 0.53557 0.0
C377 C 0.58423 0.63429 0.53179 0.0
C378 C 0.56013 0.61699 0.54897 0.0
C379 C 0.58903 0.66456 0.52564 0.0
C380 C 0.54359 0.71425 0.53171 0.0
H381 H 0.65205 0.87926 0.48704 0.0
H382 H 0.63652 0.82117 0.49191 0.0
H383 H 0.52452 0.74761 0.52839 0.0
H384 H 0.52181 0.6173 0.573 0.0
H385 H 0.53057 0.67027 0.56253 0.0
H386 H 0.64295 0.74039 0.52479 0.0
C387 C 0.62394 0.83129 0.50262 0.0
C388 C 0.55062 0.74637 0.52759 0.0
C389 C 0.63289 0.86463 0.49986 0.0
C390 C 0.54042 0.63008 0.55964 0.0
C391 C 0.54525 0.66031 0.55355 0.0
C392 C 0.61661 0.74133 0.52529 0.0
C393 C 0.59885 0.81116 0.51892 0.0
C394 C 0.5908 0.77643 0.52241 0.0
C395 C 0.56988 0.67814 0.53657 0.0
C396 C 0.57662 0.71146 0.53084 0.0
H397 H 0.57925 0.8686 0.54037 0.0
H398 H 0.56342 0.81033 0.54508 0.0
H399 H 0.65506 0.7962 0.51742 0.0
H400 H 0.59973 0.62473 0.52322 0.0
H401 H 0.60777 0.67734 0.51233 0.0
C402 C 0.70199 0.48673 0.8493 0.0
C403 C 0.70649 0.51813 0.84532 0.0
C404 C 0.73709 0.48631 0.84965 0.0
C405 C 0.85785 0.5489 0.85302 0.0
H406 H 0.84284 0.45978 0.83677 0.0
C407 C 1.00428 0.54786 0.84973 0.0
C408 C 0.99937 0.51718 0.85561 0.0
C409 C 0.96897 0.54746 0.84666 0.0
C410 C 0.848 0.48503 0.84162 0.0
H411 H 0.75301 0.57384 0.83842 0.0
H412 H 0.8133 0.57307 0.83875 0.0
H413 H 0.78231 0.46007 0.83554 0.0
H414 H 0.95236 0.46208 0.86309 0.0
H415 H 0.89139 0.4609 0.85742 0.0
H416 H 0.92347 0.57383 0.85919 0.0
C417 C 0.78273 0.54863 0.84198 0.0
C418 C 0.81274 0.48518 0.84093 0.0
C419 C 0.74766 0.54902 0.84162 0.0
C420 C 0.95763 0.48583 0.85777 0.0
C421 C 0.92236 0.48534 0.85466 0.0
C422 C 0.89309 0.54875 0.8537 0.0
C423 C 0.77846 0.5173 0.84606 0.0
C424 C 0.81668 0.51711 0.84666 0.0
C425 C 0.92712 0.51642 0.84952 0.0
C426 C 0.88912 0.51679 0.84807 0.0
H427 H 0.67119 0.46227 0.85231 0.0
H428 H 0.73166 0.46159 0.85314 0.0
H429 H 0.86301 0.57412 0.85799 0.0
H430 H 1.03575 0.57296 0.84861 0.0
H431 H 0.97478 0.572 0.84244 0.0
C432 C 0.21444 0.70594 0.16966 0.0
C433 C 0.21251 0.67682 0.15979 0.0
C434 C 0.25104 0.74181 0.16946 0.0
C435 C 0.36616 0.79786 0.16303 0.0
H436 H 0.35439 0.87293 0.15641 0.0
C437 C 0.51173 0.95068 0.16738 0.0
C438 C 0.50721 0.97367 0.18055 0.0
C439 C 0.47635 0.91475 0.16102 0.0
C440 C 0.35829 0.85235 0.15834 0.0
H441 H 0.24806 0.66281 0.14209 0.0
H442 H 0.3121 0.7256 0.14178 0.0
H443 H 0.29192 0.80938 0.15327 0.0
H444 H 0.46246 0.9779 0.19676 0.0
H445 H 0.40095 0.91582 0.18558 0.0
H446 H 0.43253 0.84104 0.16859 0.0
C447 C 0.28519 0.72055 0.14974 0.0
C448 C 0.32241 0.81587 0.15659 0.0
C449 C 0.24839 0.68454 0.14985 0.0
C450 C 0.46665 0.96078 0.18641 0.0
C451 C 0.43141 0.92518 0.17996 0.0
C452 C 0.40214 0.83445 0.16481 0.0
C453 C 0.28686 0.74967 0.15943 0.0
C454 C 0.3257 0.78817 0.15938 0.0
C455 C 0.43582 0.90135 0.16759 0.0
C456 C 0.39855 0.86225 0.16295 0.0
H457 H 0.18755 0.70114 0.1775 0.0
H458 H 0.25137 0.76343 0.17741 0.0
H459 H 0.36988 0.77729 0.16539 0.0
H460 H 0.54279 0.95991 0.16288 0.0
H461 H 0.48083 0.89723 0.15135 0.0
C462 C 0.61219 0.26052 0.48897 0.0
C463 C 0.57312 0.22973 0.47983 0.0
C464 C 0.61836 0.293 0.49496 0.0
C465 C 0.5781 0.34421 0.48689 0.0
H466 H 0.62524 0.38873 0.54337 0.0
C467 C 0.56998 0.45488 0.52852 0.0
C468 C 0.6025 0.48115 0.54331 0.0
C469 C 0.56948 0.42653 0.51889 0.0
C470 C 0.61282 0.37722 0.5274 0.0
H471 H 0.51015 0.20954 0.4695 0.0
H472 H 0.52135 0.26649 0.47957 0.0
H473 H 0.61904 0.33532 0.52984 0.0
H474 H 0.66124 0.49968 0.55875 0.0
H475 H 0.66135 0.45111 0.54146 0.0
H476 H 0.57208 0.38622 0.48436 0.0
C477 C 0.54719 0.26537 0.48203 0.0
C478 C 0.60912 0.34643 0.51969 0.0
C479 C 0.54085 0.23274 0.47621 0.0
C480 C 0.63554 0.47952 0.54756 0.0
C481 C 0.63537 0.4515 0.53776 0.0
C482 C 0.58223 0.37531 0.49452 0.0
C483 C 0.58579 0.29568 0.49176 0.0
C484 C 0.59142 0.3294 0.49942 0.0
C485 C 0.60178 0.42406 0.52368 0.0
C486 C 0.59934 0.39208 0.51496 0.0
H487 H 0.63809 0.25953 0.49159 0.0
H488 H 0.64867 0.31608 0.50215 0.0
H489 H 0.5647 0.33185 0.47113 0.0
H490 H 0.54387 0.45527 0.52512 0.0
H491 H 0.54282 0.40576 0.50836 0.0
C492 C 0.49266 0.54899 0.84264 0.0
C493 C 0.48914 0.51925 0.8492 0.0
C494 C 0.45809 0.55009 0.84286 0.0
C495 C 0.3382 0.49167 0.84802 0.0
H496 H 0.36171 0.58548 0.85693 0.0
C497 C 0.20191 0.50858 0.84655 0.0
C498 C 0.20815 0.53724 0.86005 0.0
C499 C 0.23472 0.50499 0.84404 0.0
C500 C 0.35397 0.55879 0.8546 0.0
H501 H 0.44473 0.46708 0.8612 0.0
H502 H 0.38524 0.46917 0.86197 0.0
H503 H 0.41964 0.58208 0.85586 0.0
H504 H 0.25443 0.58406 0.88156 0.0
H505 H 0.30979 0.57779 0.87752 0.0
H506 H 0.27219 0.46851 0.84738 0.0
C507 C 0.41466 0.49169 0.85625 0.0
C508 C 0.38784 0.55684 0.85365 0.0
C509 C 0.44928 0.49057 0.85596 0.0
C510 C 0.24807 0.56179 0.87082 0.0
C511 C 0.28043 0.5583 0.86835 0.0
C512 C 0.30416 0.49364 0.849 0.0
C513 C 0.41814 0.52154 0.84975 0.0
C514 C 0.381 0.52327 0.85044 0.0
C515 C 0.27494 0.53 0.85486 0.0
C516 C 0.3112 0.52728 0.85253 0.0
H517 H 0.52232 0.57169 0.83721 0.0
H518 H 0.46285 0.57345 0.8373 0.0
H519 H 0.33069 0.4651 0.84522 0.0
H520 H 0.17178 0.48888 0.83801 0.0
H521 H 0.22861 0.48277 0.83339 0.0
C522 C 0.95167 0.4517 0.16749 0.0
C523 C 0.98531 0.45828 0.15581 0.0
C524 C 0.9156 0.41622 0.16948 0.0
C525 C 0.85409 0.32029 0.14652 0.0
H526 H 0.80981 0.30078 0.20197 0.0
C527 C 0.71343 0.17506 0.16828 0.0
C528 C 0.68481 0.17355 0.18201 0.0
C529 C 0.75063 0.20882 0.16386 0.0
C530 C 0.82135 0.30574 0.1863 0.0
H531 H 1.00654 0.43225 0.13649 0.0
H532 H 0.94333 0.37009 0.13997 0.0
H533 H 0.87292 0.36108 0.19636 0.0
H534 H 0.67196 0.20591 0.20132 0.0
H535 H 0.73574 0.26425 0.1934 0.0
H536 H 0.802 0.26473 0.1365 0.0
C537 C 0.94499 0.39261 0.14756 0.0
C538 C 0.85768 0.34043 0.18309 0.0
C539 C 0.9813 0.42827 0.14563 0.0
C540 C 0.69354 0.20622 0.19077 0.0
C541 C 0.73037 0.23972 0.18635 0.0
C542 C 0.81747 0.28543 0.14973 0.0
C543 C 0.91196 0.38614 0.15981 0.0
C544 C 0.87426 0.3484 0.16312 0.0
C545 C 0.75987 0.24163 0.17313 0.0
C546 C 0.80024 0.27786 0.16963 0.0
H547 H 0.95326 0.47397 0.17536 0.0
H548 H 0.89048 0.41238 0.17868 0.0
H549 H 0.86591 0.3255 0.13092 0.0
H550 H 0.7076 0.1503 0.16134 0.0
H551 H 0.77266 0.20921 0.15367 0.0
C552 C 0.07924 0.54467 0.09159 0.0
C553 C 0.0824 0.57427 0.1016 0.0
C554 C 0.07983 0.54033 0.06977 0.0
C555 C 0.109 0.5897 0.02243 0.0
H556 H 1.03278 0.49238 0.99384 0.0
C557 C 0.11341 0.55873 0.93337 0.0
C558 C 0.07435 0.5338 0.92209 0.0
C559 C 0.1154 0.56373 0.9553 0.0
C560 C 1.05405 0.51978 0.00154 0.0
H561 H 0.089 0.6227 0.09678 0.0
H562 H 0.08925 0.61484 0.05854 0.0
H563 H 1.03397 0.5015 0.03188 0.0
H564 H 1.00681 0.49407 0.92512 0.0
H565 H 1.01014 0.50344 0.96324 0.0
H566 H 0.12815 0.60806 0.99199 0.0
C567 C 0.08696 0.59524 0.06755 0.0
C568 C 1.05513 0.52497 0.02341 0.0
C569 C 0.08655 0.59966 0.08942 0.0
C570 C 1.03738 0.51381 0.93329 0.0
C571 C 1.03935 0.51886 0.95518 0.0
C572 C 0.10784 0.58451 0.00053 0.0
C573 C 0.08337 0.56539 0.05744 0.0
C574 C 0.08258 0.56 0.03414 0.0
C575 C 0.07836 0.54394 0.96648 0.0
C576 C 0.08026 0.54948 0.98981 0.0
H577 H 0.0762 0.52476 0.10062 0.0
H578 H 0.07774 0.51738 0.06257 0.0
H579 H 0.13085 0.617 0.03019 0.0
H580 H 0.14245 0.5748 0.92523 0.0
H581 H 0.14602 0.58296 0.9635 0.0
C582 C 0.65397 0.06919 0.41286 0.0
C583 C 0.61841 0.05402 0.425 0.0
C584 C 0.65047 0.06994 0.39132 0.0
C585 C 0.58391 0.06414 0.34941 0.0
H586 H 0.64003 0.03584 0.3135 0.0
C587 C 0.59631 0.07743 0.25998 0.0
C588 C 0.58838 0.0477 0.24709 0.0
C589 C 0.60008 0.07915 0.28182 0.0
C590 C 0.62402 0.04366 0.3233 0.0
H591 H 0.55149 0.02851 0.42436 0.0
H592 H 0.54524 0.02974 0.38653 0.0
H593 H 0.64553 0.03689 0.35141 0.0
H594 H 0.57898 0.99683 0.24695 0.0
H595 H 0.58532 0.99971 0.28498 0.0
H596 H 0.56194 0.07041 0.32116 0.0
C597 C 0.57589 0.04121 0.39372 0.0
C598 C 0.62752 0.04461 0.34503 0.0
C599 C 0.57939 0.04035 0.41532 0.0
C600 C 0.58474 0.01994 0.25647 0.0
C601 C 0.58874 0.02175 0.27825 0.0
C602 C 0.5806 0.06338 0.32762 0.0
C603 C 0.61132 0.05561 0.38145 0.0
C604 C 0.60749 0.05482 0.35834 0.0
C605 C 0.59635 0.05131 0.29118 0.0
C606 C 0.6005 0.05298 0.31433 0.0
H607 H 0.68451 0.08018 0.41997 0.0
H608 H 0.67848 0.08175 0.38237 0.0
H609 H 0.56836 0.07235 0.35927 0.0
H610 H 0.59892 0.09909 0.2532 0.0
H611 H 0.60631 0.10242 0.29136 0.0
C612 C 0.62148 0.52714 0.78005 0.0
C613 C 0.58173 0.50795 0.78875 0.0
C614 C 0.62538 0.53334 0.75886 0.0
C615 C 0.55932 0.49803 0.70895 0.0
H616 H 0.65975 0.5831 0.68794 0.0
C617 C 0.56677 0.53185 0.6241 0.0
C618 C 0.60013 0.53685 0.61294 0.0
C619 C 0.5664 0.53095 0.64582 0.0
C620 C 0.63162 0.55919 0.69366 0.0
H621 H 0.51543 0.48216 0.78277 0.0
H622 H 0.52231 0.49447 0.74627 0.0
H623 H 0.65527 0.57751 0.72566 0.0
H624 H 0.6599 0.54603 0.61573 0.0
H625 H 0.65965 0.5452 0.65399 0.0
H626 H 0.53534 0.48032 0.67698 0.0
C627 C 0.55031 0.50336 0.7553 0.0
C628 C 0.62906 0.55583 0.71523 0.0
C629 C 0.54634 0.49655 0.77629 0.0
C630 C 0.63375 0.54199 0.624 0.0
C631 C 0.63374 0.54173 0.64582 0.0
C632 C 0.56162 0.50173 0.68751 0.0
C633 C 0.58967 0.52101 0.7461 0.0
C634 C 0.5928 0.52517 0.72318 0.0
C635 C 0.59971 0.53562 0.65685 0.0
C636 C 0.59773 0.53228 0.67966 0.0
H637 H 0.64924 0.53617 0.7894 0.0
H638 H 0.65615 0.54673 0.75237 0.0
H639 H 0.53139 0.47352 0.71427 0.0
H640 H 0.54034 0.52757 0.61593 0.0
H641 H 0.5399 0.52635 0.65402 0.0
C642 C 0.54771 0.02955 0.55038 0.0
C643 C 0.58333 0.05367 0.53918 0.0
C644 C 0.55229 0.02655 0.57146 0.0
C645 C 0.61824 0.07812 0.61842 0.0
H646 H 0.56738 0.98487 0.63919 0.0
C647 C 0.63603 0.06836 0.70606 0.0
C648 C 0.60136 0.0383 0.71503 0.0
C649 C 0.6367 0.06938 0.68431 0.0
C650 C 0.58129 0.01111 0.63376 0.0
H651 H 0.65157 0.09347 0.541 0.0
H652 H 0.65948 0.08905 0.57821 0.0
H653 H 0.56229 0.98806 0.60169 0.0
H654 H 0.54021 0.98584 0.70852 0.0
H655 H 0.54025 0.98811 0.6707 0.0
H656 H 0.63544 0.10121 0.65033 0.0
C657 C 0.62815 0.07222 0.57057 0.0
C658 C 0.57859 0.01288 0.61225 0.0
C659 C 0.62364 0.07467 0.54935 0.0
C660 C 0.56751 0.00915 0.70191 0.0
C661 C 0.56775 0.01044 0.68021 0.0
C662 C 0.62025 0.07632 0.63996 0.0
C663 C 0.59249 0.04815 0.5818 0.0
C664 C 0.59692 0.04638 0.60442 0.0
C665 C 0.60226 0.04068 0.67107 0.0
C666 C 0.60163 0.04275 0.64798 0.0
H667 H 0.51632 0.01298 0.54282 0.0
H668 H 0.52432 0.00797 0.57985 0.0
H669 H 0.63223 0.10424 0.61274 0.0
H670 H 0.66267 0.09103 0.71589 0.0
H671 H 0.66427 0.09276 0.67793 0.0
C672 C 0.57113 0.50159 0.91139 0.0
C673 C 0.61151 0.52234 0.90343 0.0
C674 C 0.56425 0.48633 0.93021 0.0
C675 C 0.54997 0.44184 0.96498 0.0
H676 H 0.63736 0.49278 0.00969 0.0
C677 C 0.51219 0.3895 0.04613 0.0
C678 C 0.52893 0.41612 0.06342 0.0
C679 C 0.52792 0.39906 0.02623 0.0
C680 C 0.61233 0.47826 -0.00251 0.0
H681 H 0.67629 0.5429 0.90845 0.0
H682 H 0.66413 0.5148 0.9409 0.0
H683 H 0.652 0.5171 0.97608 0.0
H684 H 0.57838 0.47314 0.07357 0.0
H685 H 0.6034 0.49021 0.039 0.0
H686 H 0.50911 0.40485 0.9868 0.0
C687 C 0.63789 0.51128 0.9331 0.0
C688 C 0.62104 0.49196 0.97795 0.0
C689 C 0.64494 0.5273 0.91446 0.0
C690 C 0.56372 0.45203 0.06053 0.0
C691 C 0.57871 0.46174 0.0406 0.0
C692 C 0.54094 0.4287 0.98463 0.0
C693 C 0.59741 0.49063 0.9413 0.0
C694 C 0.58967 0.47436 0.96153 0.0
C695 C 0.56018 0.43562 0.023 0.0
C696 C 0.5717 0.44709 0.00135 0.0
H697 H 0.54488 0.49755 0.90317 0.0
H698 H 0.53292 0.47163 0.93616 0.0
H699 H 0.52527 0.42673 0.95262 0.0
H700 H 0.48547 0.36153 0.04766 0.0
H701 H 0.51366 0.37784 0.01328 0.0
C702 C 0.10463 0.52785 0.22281 0.0
C703 C 0.11386 0.55686 0.21236 0.0
C704 C 0.10149 0.52862 0.24453 0.0
C705 C 0.08542 0.57254 0.29016 0.0
H706 H 0.13603 0.53961 0.32156 0.0
C707 C 0.1112 0.59758 0.38051 0.0
C708 C 0.10485 0.56983 0.39128 0.0
C709 C 0.10915 0.59451 0.35861 0.0
C710 C 0.12119 0.54841 0.31301 0.0
H711 H 0.12703 0.60943 0.21627 0.0
H712 H 0.1219 0.61102 0.25441 0.0
H713 H 0.13936 0.53784 0.28355 0.0
H714 H 0.09038 0.5167 0.38746 0.0
H715 H 0.08615 0.51107 0.34916 0.0
H716 H 0.06761 0.58341 0.31972 0.0
C717 C 0.11653 0.58743 0.24578 0.0
C718 C 0.12315 0.54745 0.29121 0.0
C719 C 0.11967 0.58663 0.22398 0.0
C720 C 0.09521 0.53846 0.37963 0.0
C721 C 0.09324 0.53542 0.3577 0.0
C722 C 0.08349 0.57353 0.312 0.0
C723 C 0.10762 0.55849 0.25631 0.0
C724 C 0.10533 0.55953 0.27951 0.0
C725 C 0.10074 0.56363 0.34694 0.0
C726 C 0.10142 0.56152 0.32367 0.0
H727 H 0.09972 0.50443 0.21418 0.0
H728 H 0.09391 0.50563 0.25209 0.0
H729 H 0.07086 0.58156 0.28158 0.0
H730 H 0.11816 0.62189 0.38905 0.0
H731 H 0.11537 0.61684 0.35082 0.0
loop_
_geom_bond_atom_site_label_1
_geom_bond_atom_site_label_2
_geom_bond_distance
_geom_bond_site_symmetry_2
_ccdc_geom_bond_type
La0 C2 2.928 . S
La0 O20 2.521 . S
La0 O21 2.628 . S
La0 O22 2.554 . S
La0 O23 2.757 . S
La0 O24 2.470 . S
La0 O29 2.482 . S
La0 O31 2.503 . S
La1 C11 2.928 1_455 S
La1 O23 2.482 . S
La1 O25 2.503 . S
La1 O26 2.521 1_455 S
La1 O27 2.628 1_455 S
La1 O28 2.554 . S
La1 O29 2.757 . S
La1 O30 2.470 1_455 S
C2 La0 2.928 . S
C2 C3 1.503 . S
C2 O20 1.261 . S
C2 O21 1.243 . S
C3 C2 1.503 . S
C3 C4 1.394 . S
C3 C8 1.373 . S
C4 C3 1.394 . S
C4 C5 1.380 . S
C4 H32 0.930 . S
C5 C4 1.380 . S
C5 C6 1.376 . S
C5 H33 0.930 . S
C6 C5 1.376 . S
C6 C7 1.370 . S
C7 C6 1.370 . S
C7 C8 1.396 . S
C7 H34 0.929 . S
C8 C3 1.373 . S
C8 C7 1.396 . S
C8 H35 0.929 . S
C9 O22 1.240 . S
C9 O23 1.289 . S
C10 O24 1.258 . S
C10 O25 1.256 . S
C11 La1 2.928 1_655 S
C11 C12 1.503 . S
C11 O26 1.261 . S
C11 O27 1.243 . S
C12 C11 1.503 . S
C12 C13 1.394 . S
C12 C17 1.373 . S
C13 C12 1.394 . S
C13 C14 1.380 . S
C13 H36 0.930 . S
C14 C13 1.380 . S
C14 C15 1.376 . S
C14 H37 0.930 . S
C15 C14 1.376 . S
C15 C16 1.370 . S
C16 C15 1.370 . S
C16 C17 1.396 . S
C16 H38 0.929 . S
C17 C12 1.373 . S
C17 C16 1.396 . S
C17 H39 0.929 . S
C18 O28 1.240 . S
C18 O29 1.289 . S
C19 O30 1.258 . S
C19 O31 1.256 1_655 S
O20 La0 2.521 . S
O20 C2 1.261 . S
O21 La0 2.628 . S
O21 C2 1.243 . S
O22 La0 2.554 . S
O22 C9 1.240 . S
O23 La0 2.757 . S
O23 La1 2.482 . S
O23 C9 1.289 . S
O24 La0 2.470 . S
O24 C10 1.258 . S
O25 La1 2.503 . S
O25 C10 1.256 . S
O26 La1 2.521 1_655 S
O26 C11 1.261 . S
O27 La1 2.628 1_655 S
O27 C11 1.243 . S
O28 La1 2.554 . S
O28 C18 1.240 . S
O29 La0 2.482 . S
O29 La1 2.757 . S
O29 C18 1.289 . S
O30 La1 2.470 1_655 S
O30 C19 1.258 . S
O31 La0 2.503 . S
O31 C19 1.256 1_455 S
H32 C4 0.930 . S
H33 C5 0.930 . S
H34 C7 0.929 . S
H35 C8 0.929 . S
H36 C13 0.930 . S
H37 C14 0.930 . S
H38 C16 0.929 . S
H39 C17 0.929 . S
La40 C42 2.928 1_545 S
La40 O60 2.521 1_545 S
La40 O61 2.628 1_545 S
La40 O62 2.554 . S
La40 O63 2.757 . S
La40 O64 2.470 1_545 S
La40 O69 2.482 . S
La40 O71 2.503 . S
La41 C51 2.928 . S
La41 O63 2.482 . S
La41 O65 2.503 1_545 S
La41 O66 2.521 . S
La41 O67 2.628 . S
La41 O68 2.554 . S
La41 O69 2.757 . S
La41 O70 2.470 . S
C42 La40 2.928 1_565 S
C42 C43 1.503 . S
C42 O60 1.261 . S
C42 O61 1.243 . S
C43 C42 1.503 . S
C43 C44 1.394 . S
C43 C48 1.373 . S
C44 C43 1.394 . S
C44 C45 1.380 . S
C44 H72 0.930 . S
C45 C44 1.380 . S
C45 C46 1.376 . S
C45 H73 0.930 . S
C46 C45 1.376 . S
C46 C47 1.370 . S
C47 C46 1.370 . S
C47 C48 1.396 . S
C47 H74 0.929 . S
C48 C43 1.373 . S
C48 C47 1.396 . S
C48 H75 0.929 . S
C49 O62 1.240 . S
C49 O63 1.289 . S
C50 O64 1.258 . S
C50 O65 1.256 . S
C51 La41 2.928 . S
C51 C52 1.503 . S
C51 O66 1.261 . S
C51 O67 1.243 . S
C52 C51 1.503 . S
C52 C53 1.394 . S
C52 C57 1.373 . S
C53 C52 1.394 . S
C53 C54 1.380 . S
C53 H76 0.930 . S
C54 C53 1.380 . S
C54 C55 1.376 . S
C54 H77 0.930 . S
C55 C54 1.376 . S
C55 C56 1.370 . S
C56 C55 1.370 . S
C56 C57 1.396 . S
C56 H78 0.929 . S
C57 C52 1.373 . S
C57 C56 1.396 . S
C57 H79 0.929 . S
C58 O68 1.240 . S
C58 O69 1.289 . S
C59 O70 1.258 . S
C59 O71 1.256 . S
O60 La40 2.521 1_565 S
O60 C42 1.261 . S
O61 La40 2.628 1_565 S
O61 C42 1.243 . S
O62 La40 2.554 . S
O62 C49 1.240 . S
O63 La40 2.757 . S
O63 La41 2.482 . S
O63 C49 1.289 . S
O64 La40 2.470 1_565 S
O64 C50 1.258 . S
O65 La41 2.503 1_565 S
O65 C50 1.256 . S
O66 La41 2.521 . S
O66 C51 1.261 . S
O67 La41 2.628 . S
O67 C51 1.243 . S
O68 La41 2.554 . S
O68 C58 1.240 . S
O69 La40 2.482 . S
O69 La41 2.757 . S
O69 C58 1.289 . S
O70 La41 2.470 . S
O70 C59 1.258 . S
O71 La40 2.503 . S
O71 C59 1.256 . S
H72 C44 0.930 . S
H73 C45 0.930 . S
H74 C47 0.929 . S
H75 C48 0.929 . S
H76 C53 0.930 . S
H77 C54 0.930 . S
H78 C56 0.929 . S
H79 C57 0.929 . S
La80 C82 2.928 . S
La80 O100 2.521 . S
La80 O101 2.628 . S
La80 O102 2.554 . S
La80 O103 2.757 . S
La80 O104 2.470 . S
La80 O109 2.482 . S
La80 O111 2.503 . S
La81 C91 2.928 . S
La81 O103 2.482 . S
La81 O105 2.503 . S
La81 O106 2.521 . S
La81 O107 2.628 . S
La81 O108 2.554 . S
La81 O109 2.757 . S
La81 O110 2.470 . S
C82 La80 2.928 . S
C82 C83 1.503 . S
C82 O100 1.261 . S
C82 O101 1.243 . S
C83 C82 1.503 . S
C83 C84 1.394 . S
C83 C88 1.373 . S
C84 C83 1.394 . S
C84 C85 1.380 . S
C84 H112 0.930 . S
C85 C84 1.380 . S
C85 C86 1.376 . S
C85 H113 0.930 . S
C86 C85 1.376 . S
C86 C87 1.370 . S
C87 C86 1.370 . S
C87 C88 1.396 . S
C87 H114 0.929 . S
C88 C83 1.373 . S
C88 C87 1.396 . S
C88 H115 0.929 . S
C89 O102 1.240 . S
C89 O103 1.289 . S
C90 O104 1.258 . S
C90 O105 1.256 . S
C91 La81 2.928 . S
C91 C92 1.503 . S
C91 O106 1.261 . S
C91 O107 1.243 . S
C92 C91 1.503 . S
C92 C93 1.394 . S
C92 C97 1.373 . S
C93 C92 1.394 . S
C93 C94 1.380 . S
C93 H116 0.930 . S
C94 C93 1.380 . S
C94 C95 1.376 . S
C94 H117 0.930 . S
C95 C94 1.376 . S
C95 C96 1.370 . S
C96 C95 1.370 . S
C96 C97 1.396 . S
C96 H118 0.929 . S
C97 C92 1.373 . S
C97 C96 1.396 . S
C97 H119 0.929 . S
C98 O108 1.240 . S
C98 O109 1.289 . S
C99 O110 1.258 . S
C99 O111 1.256 . S
O100 La80 2.521 . S
O100 C82 1.261 . S
O101 La80 2.628 . S
O101 C82 1.243 . S
O102 La80 2.554 . S
O102 C89 1.240 . S
O103 La80 2.757 . S
O103 La81 2.482 . S
O103 C89 1.289 . S
O104 La80 2.470 . S
O104 C90 1.258 . S
O105 La81 2.503 . S
O105 C90 1.256 . S
O106 La81 2.521 . S
O106 C91 1.261 . S
O107 La81 2.628 . S
O107 C91 1.243 . S
O108 La81 2.554 . S
O108 C98 1.240 . S
O109 La80 2.482 . S
O109 La81 2.757 . S
O109 C98 1.289 . S
O110 La81 2.470 . S
O110 C99 1.258 . S
O111 La80 2.503 . S
O111 C99 1.256 . S
H112 C84 0.930 . S
H113 C85 0.930 . S
H114 C87 0.929 . S
H115 C88 0.929 . S
H116 C93 0.930 . S
H117 C94 0.930 . S
H118 C96 0.929 . S
H119 C97 0.929 . S
H120 C125 0.930 . S
H121 C128 0.930 . S
H122 C130 0.930 1_565 S
H123 C124 1.016 . S
C124 H123 1.016 . S
C124 N131 1.286 . S
C125 H120 0.930 . S
C125 C126 1.397 . S
C125 C127 1.361 . S
C126 C125 1.397 . S
C126 C130 1.390 . S
C127 C125 1.361 . S
C127 C128 1.393 . S
C127 N131 1.413 . S
C128 H121 0.930 . S
C128 C127 1.393 . S
C128 C129 1.399 . S
C129 C128 1.399 . S
C129 C130 1.381 . S
C130 H122 0.930 1_545 S
C130 C126 1.390 . S
C130 C129 1.381 . S
N131 C124 1.286 . S
N131 C127 1.413 . S
H132 C137 0.930 . S
H133 C140 0.930 . S
H134 C142 0.930 . S
H135 C136 1.016 . S
C136 H135 1.016 . S
C136 N143 1.286 . S
C137 H132 0.930 . S
C137 C138 1.397 . S
C137 C139 1.361 . S
C138 C137 1.397 . S
C138 C142 1.390 . S
C139 C137 1.361 . S
C139 C140 1.393 . S
C139 N143 1.413 . S
C140 H133 0.930 . S
C140 C139 1.393 . S
C140 C141 1.399 . S
C141 C140 1.399 . S
C141 C142 1.381 . S
C142 H134 0.930 . S
C142 C138 1.390 . S
C142 C141 1.381 . S
N143 C136 1.286 . S
N143 C139 1.413 . S
H144 C149 0.930 . S
H145 C152 0.930 . S
H146 C154 0.930 . S
H147 C148 1.016 . S
C148 H147 1.016 . S
C148 N155 1.286 . S
C149 H144 0.930 . S
C149 C150 1.397 . S
C149 C151 1.361 . S
C150 C149 1.397 . S
C150 C154 1.390 . S
C151 C149 1.361 . S
C151 C152 1.393 . S
C151 N155 1.413 . S
C152 H145 0.930 . S
C152 C151 1.393 . S
C152 C153 1.399 . S
C153 C152 1.399 . S
C153 C154 1.381 . S
C154 H146 0.930 . S
C154 C150 1.390 . S
C154 C153 1.381 . S
N155 C148 1.286 . S
N155 C151 1.413 . S
H156 C161 0.930 . S
H157 C164 0.930 . S
H158 C166 0.930 . S
H159 C160 1.016 . S
C160 H159 1.016 . S
C160 N167 1.286 . S
C161 H156 0.930 . S
C161 C162 1.397 . S
C161 C163 1.361 1_455 S
C162 C161 1.397 . S
C162 C166 1.390 . S
C163 C161 1.361 1_655 S
C163 C164 1.393 . S
C163 N167 1.413 . S
C164 H157 0.930 . S
C164 C163 1.393 . S
C164 C165 1.399 1_655 S
C165 C164 1.399 1_455 S
C165 C166 1.381 . S
C166 H158 0.930 . S
C166 C162 1.390 . S
C166 C165 1.381 . S
N167 C160 1.286 . S
N167 C163 1.413 . S
H168 C173 0.930 . S
H169 C176 0.930 . S
H170 C178 0.930 . S
H171 C172 1.016 . S
C172 H171 1.016 . S
C172 N179 1.286 . S
C173 H168 0.930 . S
C173 C174 1.397 . S
C173 C175 1.361 . S
C174 C173 1.397 . S
C174 C178 1.390 . S
C175 C173 1.361 . S
C175 C176 1.393 1_545 S
C175 N179 1.413 1_545 S
C176 H169 0.930 . S
C176 C175 1.393 1_565 S
C176 C177 1.399 1_565 S
C177 C176 1.399 1_545 S
C177 C178 1.381 . S
C178 H170 0.930 . S
C178 C174 1.390 . S
C178 C177 1.381 . S
N179 C172 1.286 . S
N179 C175 1.413 1_565 S
H180 C185 0.930 . S
H181 C188 0.930 . S
H182 C190 0.930 . S
H183 C184 1.016 . S
C184 H183 1.016 . S
C184 N191 1.286 . S
C185 H180 0.930 . S
C185 C186 1.397 . S
C185 C187 1.361 . S
C186 C185 1.397 . S
C186 C190 1.390 . S
C187 C185 1.361 . S
C187 C188 1.393 . S
C187 N191 1.413 . S
C188 H181 0.930 . S
C188 C187 1.393 . S
C188 C189 1.399 . S
C189 C188 1.399 . S
C189 C190 1.381 . S
C190 H182 0.930 . S
C190 C186 1.390 . S
C190 C189 1.381 . S
N191 C184 1.286 . S
N191 C187 1.413 . S
C192 C193 1.349 . S
C192 C194 1.327 . S
C192 H217 0.950 . S
C193 C192 1.349 . S
C193 C209 1.349 . S
C194 C192 1.327 . S
C194 C213 1.429 . S
C194 H218 0.950 . S
C195 C212 1.574 . S
C195 C214 1.368 . S
C195 H219 0.949 . S
H196 C200 0.949 . S
C197 C198 1.349 . S
C197 C199 1.327 . S
C197 H220 0.950 . S
C198 C197 1.349 . S
C198 C210 1.349 . S
C199 C197 1.327 . S
C199 C215 1.429 . S
C199 H221 0.950 . S
C200 H196 0.949 . S
C200 C208 1.574 . S
C200 C216 1.368 . S
H201 C209 0.950 . S
H202 C207 0.950 . S
H203 C208 0.949 . S
H204 C210 0.950 . S
H205 C211 0.950 . S
H206 C212 0.949 . S
C207 H202 0.950 . S
C207 C209 1.327 . S
C207 C213 1.429 . S
C208 C200 1.574 . S
C208 H203 0.949 . S
C208 C214 1.368 . S
C209 C193 1.349 . S
C209 H201 0.950 . S
C209 C207 1.327 . S
C210 C198 1.349 . S
C210 H204 0.950 . S
C210 C211 1.327 . S
C211 H205 0.950 . S
C211 C210 1.327 . S
C211 C215 1.429 . S
C212 C195 1.574 . S
C212 H206 0.949 . S
C212 C216 1.368 . S
C213 C194 1.429 . S
C213 C207 1.429 . S
C213 C214 1.523 . S
C214 C195 1.368 . S
C214 C208 1.368 . S
C214 C213 1.523 . S
C215 C199 1.429 . S
C215 C211 1.429 . S
C215 C216 1.523 . S
C216 C200 1.368 . S
C216 C212 1.368 . S
C216 C215 1.523 . S
H217 C192 0.950 . S
H218 C194 0.950 . S
H219 C195 0.949 . S
H220 C197 0.950 . S
H221 C199 0.950 . S
C222 C223 1.349 . S
C222 C224 1.327 . S
C222 H247 0.950 . S
C223 C222 1.349 . S
C223 C239 1.349 . S
C224 C222 1.327 . S
C224 C243 1.429 . S
C224 H248 0.950 . S
C225 C242 1.574 . S
C225 C244 1.368 . S
C225 H249 0.949 . S
H226 C230 0.949 . S
C227 C228 1.349 . S
C227 C229 1.327 . S
C227 H250 0.950 . S
C228 C227 1.349 . S
C228 C240 1.349 . S
C229 C227 1.327 . S
C229 C245 1.429 . S
C229 H251 0.950 . S
C230 H226 0.949 . S
C230 C238 1.574 . S
C230 C246 1.368 . S
H231 C239 0.950 . S
H232 C237 0.950 . S
H233 C238 0.949 . S
H234 C240 0.950 . S
H235 C241 0.950 . S
H236 C242 0.949 . S
C237 H232 0.950 . S
C237 C239 1.327 . S
C237 C243 1.429 . S
C238 C230 1.574 . S
C238 H233 0.949 . S
C238 C244 1.368 . S
C239 C223 1.349 . S
C239 H231 0.950 . S
C239 C237 1.327 . S
C240 C228 1.349 . S
C240 H234 0.950 . S
C240 C241 1.327 . S
C241 H235 0.950 . S
C241 C240 1.327 . S
C241 C245 1.429 . S
C242 C225 1.574 . S
C242 H236 0.949 . S
C242 C246 1.368 . S
C243 C224 1.429 . S
C243 C237 1.429 . S
C243 C244 1.523 . S
C244 C225 1.368 . S
C244 C238 1.368 . S
C244 C243 1.523 . S
C245 C229 1.429 . S
C245 C241 1.429 . S
C245 C246 1.523 . S
C246 C230 1.368 . S
C246 C242 1.368 . S
C246 C245 1.523 . S
H247 C222 0.950 . S
H248 C224 0.950 . S
H249 C225 0.949 . S
H250 C227 0.950 . S
H251 C229 0.950 . S
C252 C253 1.349 . S
C252 C254 1.327 . S
C252 H277 0.950 . S
C253 C252 1.349 . S
C253 C269 1.349 . S
C254 C252 1.327 . S
C254 C273 1.429 . S
C254 H278 0.950 . S
C255 C272 1.574 . S
C255 C274 1.368 . S
C255 H279 0.949 . S
H256 C260 0.949 . S
C257 C258 1.349 . S
C257 C259 1.327 . S
C257 H280 0.950 . S
C258 C257 1.349 . S
C258 C270 1.349 . S
C259 C257 1.327 . S
C259 C275 1.429 . S
C259 H281 0.950 . S
C260 H256 0.949 . S
C260 C268 1.574 . S
C260 C276 1.368 . S
H261 C269 0.950 . S
H262 C267 0.950 . S
H263 C268 0.949 . S
H264 C270 0.950 . S
H265 C271 0.950 . S
H266 C272 0.949 . S
C267 H262 0.950 . S
C267 C269 1.327 . S
C267 C273 1.429 . S
C268 C260 1.574 . S
C268 H263 0.949 . S
C268 C274 1.368 . S
C269 C253 1.349 . S
C269 H261 0.950 . S
C269 C267 1.327 . S
C270 C258 1.349 . S
C270 H264 0.950 . S
C270 C271 1.327 . S
C271 H265 0.950 . S
C271 C270 1.327 . S
C271 C275 1.429 . S
C272 C255 1.574 . S
C272 H266 0.949 . S
C272 C276 1.368 . S
C273 C254 1.429 . S
C273 C267 1.429 . S
C273 C274 1.523 . S
C274 C255 1.368 . S
C274 C268 1.368 . S
C274 C273 1.523 . S
C275 C259 1.429 . S
C275 C271 1.429 . S
C275 C276 1.523 . S
C276 C260 1.368 . S
C276 C272 1.368 . S
C276 C275 1.523 . S
H277 C252 0.950 . S
H278 C254 0.950 . S
H279 C255 0.949 . S
H280 C257 0.950 . S
H281 C259 0.950 . S
C282 C283 1.349 . S
C282 C284 1.327 . S
C282 H307 0.950 . S
C283 C282 1.349 . S
C283 C299 1.349 . S
C284 C282 1.327 . S
C284 C303 1.429 . S
C284 H308 0.950 . S
C285 C302 1.574 . S
C285 C304 1.368 . S
C285 H309 0.949 . S
H286 C290 0.949 . S
C287 C288 1.349 . S
C287 C289 1.327 . S
C287 H310 0.950 . S
C288 C287 1.349 . S
C288 C300 1.349 . S
C289 C287 1.327 . S
C289 C305 1.429 . S
C289 H311 0.950 . S
C290 H286 0.949 . S
C290 C298 1.574 . S
C290 C306 1.368 . S
H291 C299 0.950 . S
H292 C297 0.950 . S
H293 C298 0.949 . S
H294 C300 0.950 . S
H295 C301 0.950 . S
H296 C302 0.949 . S
C297 H292 0.950 . S
C297 C299 1.327 . S
C297 C303 1.429 . S
C298 C290 1.574 . S
C298 H293 0.949 . S
C298 C304 1.368 . S
C299 C283 1.349 . S
C299 H291 0.950 . S
C299 C297 1.327 . S
C300 C288 1.349 . S
C300 H294 0.950 . S
C300 C301 1.327 . S
C301 H295 0.950 . S
C301 C300 1.327 . S
C301 C305 1.429 . S
C302 C285 1.574 . S
C302 H296 0.949 . S
C302 C306 1.368 . S
C303 C284 1.429 . S
C303 C297 1.429 . S
C303 C304 1.523 . S
C304 C285 1.368 . S
C304 C298 1.368 . S
C304 C303 1.523 . S
C305 C289 1.429 . S
C305 C301 1.429 . S
C305 C306 1.523 . S
C306 C290 1.368 . S
C306 C302 1.368 . S
C306 C305 1.523 . S
H307 C282 0.950 . S
H308 C284 0.950 . S
H309 C285 0.949 . S
H310 C287 0.950 . S
H311 C289 0.950 . S
C312 C313 1.349 . S
C312 C314 1.327 . S
C312 H337 0.950 . S
C313 C312 1.349 . S
C313 C329 1.349 . S
C314 C312 1.327 . S
C314 C333 1.429 . S
C314 H338 0.950 . S
C315 C332 1.574 . S
C315 C334 1.368 . S
C315 H339 0.949 . S
H316 C320 0.949 . S
C317 C318 1.349 . S
C317 C319 1.327 . S
C317 H340 0.950 . S
C318 C317 1.349 . S
C318 C330 1.349 . S
C319 C317 1.327 . S
C319 C335 1.429 . S
C319 H341 0.950 . S
C320 H316 0.949 . S
C320 C328 1.574 . S
C320 C336 1.368 . S
H321 C329 0.950 . S
H322 C327 0.950 . S
H323 C328 0.949 . S
H324 C330 0.950 . S
H325 C331 0.950 . S
H326 C332 0.949 . S
C327 H322 0.950 . S
C327 C329 1.327 . S
C327 C333 1.429 . S
C328 C320 1.574 . S
C328 H323 0.949 . S
C328 C334 1.368 . S
C329 C313 1.349 . S
C329 H321 0.950 . S
C329 C327 1.327 . S
C330 C318 1.349 . S
C330 H324 0.950 . S
C330 C331 1.327 . S
C331 H325 0.950 . S
C331 C330 1.327 . S
C331 C335 1.429 . S
C332 C315 1.574 . S
C332 H326 0.949 . S
C332 C336 1.368 . S
C333 C314 1.429 . S
C333 C327 1.429 . S
C333 C334 1.523 . S
C334 C315 1.368 . S
C334 C328 1.368 . S
C334 C333 1.523 . S
C335 C319 1.429 . S
C335 C331 1.429 . S
C335 C336 1.523 . S
C336 C320 1.368 . S
C336 C332 1.368 . S
C336 C335 1.523 . S
H337 C312 0.950 . S
H338 C314 0.950 . S
H339 C315 0.949 . S
H340 C317 0.950 . S
H341 C319 0.950 . S
C342 C343 1.349 . S
C342 C344 1.327 . S
C342 H367 0.950 . S
C343 C342 1.349 . S
C343 C359 1.349 . S
C344 C342 1.327 . S
C344 C363 1.429 . S
C344 H368 0.950 . S
C345 C362 1.574 . S
C345 C364 1.368 . S
C345 H369 0.949 . S
H346 C350 0.949 . S
C347 C348 1.349 . S
C347 C349 1.327 . S
C347 H370 0.950 . S
C348 C347 1.349 . S
C348 C360 1.349 . S
C349 C347 1.327 . S
C349 C365 1.429 . S
C349 H371 0.950 . S
C350 H346 0.949 . S
C350 C358 1.574 . S
C350 C366 1.368 . S
H351 C359 0.950 . S
H352 C357 0.950 . S
H353 C358 0.949 . S
H354 C360 0.950 . S
H355 C361 0.950 . S
H356 C362 0.949 . S
C357 H352 0.950 . S
C357 C359 1.327 . S
C357 C363 1.429 . S
C358 C350 1.574 . S
C358 H353 0.949 . S
C358 C364 1.368 . S
C359 C343 1.349 . S
C359 H351 0.950 . S
C359 C357 1.327 . S
C360 C348 1.349 . S
C360 H354 0.950 . S
C360 C361 1.327 . S
C361 H355 0.950 . S
C361 C360 1.327 . S
C361 C365 1.429 . S
C362 C345 1.574 . S
C362 H356 0.949 . S
C362 C366 1.368 . S
C363 C344 1.429 . S
C363 C357 1.429 . S
C363 C364 1.523 . S
C364 C345 1.368 . S
C364 C358 1.368 . S
C364 C363 1.523 . S
C365 C349 1.429 . S
C365 C361 1.429 . S
C365 C366 1.523 . S
C366 C350 1.368 . S
C366 C362 1.368 . S
C366 C365 1.523 . S
H367 C342 0.950 . S
H368 C344 0.950 . S
H369 C345 0.949 . S
H370 C347 0.950 . S
H371 C349 0.950 . S
C372 C373 1.349 . S
C372 C374 1.327 . S
C372 H397 0.950 . S
C373 C372 1.349 . S
C373 C389 1.349 . S
C374 C372 1.327 . S
C374 C393 1.429 . S
C374 H398 0.950 . S
C375 C392 1.574 . S
C375 C394 1.368 . S
C375 H399 0.949 . S
H376 C380 0.949 . S
C377 C378 1.349 . S
C377 C379 1.327 . S
C377 H400 0.950 . S
C378 C377 1.349 . S
C378 C390 1.349 . S
C379 C377 1.327 . S
C379 C395 1.429 . S
C379 H401 0.950 . S
C380 H376 0.949 . S
C380 C388 1.574 . S
C380 C396 1.368 . S
H381 C389 0.950 . S
H382 C387 0.950 . S
H383 C388 0.949 . S
H384 C390 0.950 . S
H385 C391 0.950 . S
H386 C392 0.949 . S
C387 H382 0.950 . S
C387 C389 1.327 . S
C387 C393 1.429 . S
C388 C380 1.574 . S
C388 H383 0.949 . S
C388 C394 1.368 . S
C389 C373 1.349 . S
C389 H381 0.950 . S
C389 C387 1.327 . S
C390 C378 1.349 . S
C390 H384 0.950 . S
C390 C391 1.327 . S
C391 H385 0.950 . S
C391 C390 1.327 . S
C391 C395 1.429 . S
C392 C375 1.574 . S
C392 H386 0.949 . S
C392 C396 1.368 . S
C393 C374 1.429 . S
C393 C387 1.429 . S
C393 C394 1.523 . S
C394 C375 1.368 . S
C394 C388 1.368 . S
C394 C393 1.523 . S
C395 C379 1.429 . S
C395 C391 1.429 . S
C395 C396 1.523 . S
C396 C380 1.368 . S
C396 C392 1.368 . S
C396 C395 1.523 . S
H397 C372 0.950 . S
H398 C374 0.950 . S
H399 C375 0.949 . S
H400 C377 0.950 . S
H401 C379 0.950 . S
C402 C403 1.349 . S
C402 C404 1.327 . S
C402 H427 0.950 . S
C403 C402 1.349 . S
C403 C419 1.349 . S
C404 C402 1.327 . S
C404 C423 1.429 . S
C404 H428 0.950 . S
C405 C422 1.574 . S
C405 C424 1.368 . S
C405 H429 0.949 . S
H406 C410 0.949 . S
C407 C408 1.349 . S
C407 C409 1.327 . S
C407 H430 0.950 . S
C408 C407 1.349 . S
C408 C420 1.349 . S
C409 C407 1.327 . S
C409 C425 1.429 . S
C409 H431 0.950 . S
C410 H406 0.949 . S
C410 C418 1.574 . S
C410 C426 1.368 . S
H411 C419 0.950 . S
H412 C417 0.950 . S
H413 C418 0.949 . S
H414 C420 0.950 . S
H415 C421 0.950 . S
H416 C422 0.949 . S
C417 H412 0.950 . S
C417 C419 1.327 . S
C417 C423 1.429 . S
C418 C410 1.574 . S
C418 H413 0.949 . S
C418 C424 1.368 . S
C419 C403 1.349 . S
C419 H411 0.950 . S
C419 C417 1.327 . S
C420 C408 1.349 . S
C420 H414 0.950 . S
C420 C421 1.327 . S
C421 H415 0.950 . S
C421 C420 1.327 . S
C421 C425 1.429 . S
C422 C405 1.574 . S
C422 H416 0.949 . S
C422 C426 1.368 . S
C423 C404 1.429 . S
C423 C417 1.429 . S
C423 C424 1.523 . S
C424 C405 1.368 . S
C424 C418 1.368 . S
C424 C423 1.523 . S
C425 C409 1.429 . S
C425 C421 1.429 . S
C425 C426 1.523 . S
C426 C410 1.368 . S
C426 C422 1.368 . S
C426 C425 1.523 . S
H427 C402 0.950 . S
H428 C404 0.950 . S
H429 C405 0.949 . S
H430 C407 0.950 . S
H431 C409 0.950 . S
C432 C433 1.349 . S
C432 C434 1.327 . S
C432 H457 0.950 . S
C433 C432 1.349 . S
C433 C449 1.349 . S
C434 C432 1.327 . S
C434 C453 1.429 . S
C434 H458 0.950 . S
C435 C452 1.574 . S
C435 C454 1.368 . S
C435 H459 0.949 . S
H436 C440 0.949 . S
C437 C438 1.349 . S
C437 C439 1.327 . S
C437 H460 0.950 . S
C438 C437 1.349 . S
C438 C450 1.349 . S
C439 C437 1.327 . S
C439 C455 1.429 . S
C439 H461 0.950 . S
C440 H436 0.949 . S
C440 C448 1.574 . S
C440 C456 1.368 . S
H441 C449 0.950 . S
H442 C447 0.950 . S
H443 C448 0.949 . S
H444 C450 0.950 . S
H445 C451 0.950 . S
H446 C452 0.949 . S
C447 H442 0.950 . S
C447 C449 1.327 . S
C447 C453 1.429 . S
C448 C440 1.574 . S
C448 H443 0.949 . S
C448 C454 1.368 . S
C449 C433 1.349 . S
C449 H441 0.950 . S
C449 C447 1.327 . S
C450 C438 1.349 . S
C450 H444 0.950 . S
C450 C451 1.327 . S
C451 H445 0.950 . S
C451 C450 1.327 . S
C451 C455 1.429 . S
C452 C435 1.574 . S
C452 H446 0.949 . S
C452 C456 1.368 . S
C453 C434 1.429 . S
C453 C447 1.429 . S
C453 C454 1.523 . S
C454 C435 1.368 . S
C454 C448 1.368 . S
C454 C453 1.523 . S
C455 C439 1.429 . S
C455 C451 1.429 . S
C455 C456 1.523 . S
C456 C440 1.368 . S
C456 C452 1.368 . S
C456 C455 1.523 . S
H457 C432 0.950 . S
H458 C434 0.950 . S
H459 C435 0.949 . S
H460 C437 0.950 . S
H461 C439 0.950 . S
C462 C463 1.349 . S
C462 C464 1.327 . S
C462 H487 0.950 . S
C463 C462 1.349 . S
C463 C479 1.349 . S
C464 C462 1.327 . S
C464 C483 1.429 . S
C464 H488 0.950 . S
C465 C482 1.574 . S
C465 C484 1.368 . S
C465 H489 0.949 . S
H466 C470 0.949 . S
C467 C468 1.349 . S
C467 C469 1.327 . S
C467 H490 0.950 . S
C468 C467 1.349 . S
C468 C480 1.349 . S
C469 C467 1.327 . S
C469 C485 1.429 . S
C469 H491 0.950 . S
C470 H466 0.949 . S
C470 C478 1.574 . S
C470 C486 1.368 . S
H471 C479 0.950 . S
H472 C477 0.950 . S
H473 C478 0.949 . S
H474 C480 0.950 . S
H475 C481 0.950 . S
H476 C482 0.949 . S
C477 H472 0.950 . S
C477 C479 1.327 . S
C477 C483 1.429 . S
C478 C470 1.574 . S
C478 H473 0.949 . S
C478 C484 1.368 . S
C479 C463 1.349 . S
C479 H471 0.950 . S
C479 C477 1.327 . S
C480 C468 1.349 . S
C480 H474 0.950 . S
C480 C481 1.327 . S
C481 H475 0.950 . S
C481 C480 1.327 . S
C481 C485 1.429 . S
C482 C465 1.574 . S
C482 H476 0.949 . S
C482 C486 1.368 . S
C483 C464 1.429 . S
C483 C477 1.429 . S
C483 C484 1.523 . S
C484 C465 1.368 . S
C484 C478 1.368 . S
C484 C483 1.523 . S
C485 C469 1.429 . S
C485 C481 1.429 . S
C485 C486 1.523 . S
C486 C470 1.368 . S
C486 C482 1.368 . S
C486 C485 1.523 . S
H487 C462 0.950 . S
H488 C464 0.950 . S
H489 C465 0.949 . S
H490 C467 0.950 . S
H491 C469 0.950 . S
C492 C493 1.349 . S
C492 C494 1.327 . S
C492 H517 0.950 . S
C493 C492 1.349 . S
C493 C509 1.349 . S
C494 C492 1.327 . S
C494 C513 1.429 . S
C494 H518 0.950 . S
C495 C512 1.574 . S
C495 C514 1.368 . S
C495 H519 0.949 . S
H496 C500 0.949 . S
C497 C498 1.349 . S
C497 C499 1.327 . S
C497 H520 0.950 . S
C498 C497 1.349 . S
C498 C510 1.349 . S
C499 C497 1.327 . S
C499 C515 1.429 . S
C499 H521 0.950 . S
C500 H496 0.949 . S
C500 C508 1.574 . S
C500 C516 1.368 . S
H501 C509 0.950 . S
H502 C507 0.950 . S
H503 C508 0.949 . S
H504 C510 0.950 . S
H505 C511 0.950 . S
H506 C512 0.949 . S
C507 H502 0.950 . S
C507 C509 1.327 . S
C507 C513 1.429 . S
C508 C500 1.574 . S
C508 H503 0.949 . S
C508 C514 1.368 . S
C509 C493 1.349 . S
C509 H501 0.950 . S
C509 C507 1.327 . S
C510 C498 1.349 . S
C510 H504 0.950 . S
C510 C511 1.327 . S
C511 H505 0.950 . S
C511 C510 1.327 . S
C511 C515 1.429 . S
C512 C495 1.574 . S
C512 H506 0.949 . S
C512 C516 1.368 . S
C513 C494 1.429 . S
C513 C507 1.429 . S
C513 C514 1.523 . S
C514 C495 1.368 . S
C514 C508 1.368 . S
C514 C513 1.523 . S
C515 C499 1.429 . S
C515 C511 1.429 . S
C515 C516 1.523 . S
C516 C500 1.368 . S
C516 C512 1.368 . S
C516 C515 1.523 . S
H517 C492 0.950 . S
H518 C494 0.950 . S
H519 C495 0.949 . S
H520 C497 0.950 . S
H521 C499 0.950 . S
C522 C523 1.349 . S
C522 C524 1.327 . S
C522 H547 0.950 . S
C523 C522 1.349 . S
C523 C539 1.349 . S
C524 C522 1.327 . S
C524 C543 1.429 . S
C524 H548 0.950 . S
C525 C542 1.574 . S
C525 C544 1.368 . S
C525 H549 0.949 . S
H526 C530 0.949 . S
C527 C528 1.349 . S
C527 C529 1.327 . S
C527 H550 0.950 . S
C528 C527 1.349 . S
C528 C540 1.349 . S
C529 C527 1.327 . S
C529 C545 1.429 . S
C529 H551 0.950 . S
C530 H526 0.949 . S
C530 C538 1.574 . S
C530 C546 1.368 . S
H531 C539 0.950 . S
H532 C537 0.950 . S
H533 C538 0.949 . S
H534 C540 0.950 . S
H535 C541 0.950 . S
H536 C542 0.949 . S
C537 H532 0.950 . S
C537 C539 1.327 . S
C537 C543 1.429 . S
C538 C530 1.574 . S
C538 H533 0.949 . S
C538 C544 1.368 . S
C539 C523 1.349 . S
C539 H531 0.950 . S
C539 C537 1.327 . S
C540 C528 1.349 . S
C540 H534 0.950 . S
C540 C541 1.327 . S
C541 H535 0.950 . S
C541 C540 1.327 . S
C541 C545 1.429 . S
C542 C525 1.574 . S
C542 H536 0.949 . S
C542 C546 1.368 . S
C543 C524 1.429 . S
C543 C537 1.429 . S
C543 C544 1.523 . S
C544 C525 1.368 . S
C544 C538 1.368 . S
C544 C543 1.523 . S
C545 C529 1.429 . S
C545 C541 1.429 . S
C545 C546 1.523 . S
C546 C530 1.368 . S
C546 C542 1.368 . S
C546 C545 1.523 . S
H547 C522 0.950 . S
H548 C524 0.950 . S
H549 C525 0.949 . S
H550 C527 0.950 . S
H551 C529 0.950 . S
C552 C553 1.349 . S
C552 C554 1.327 . S
C552 H577 0.950 . S
C553 C552 1.349 . S
C553 C569 1.349 . S
C554 C552 1.327 . S
C554 C573 1.429 . S
C554 H578 0.950 . S
C555 C572 1.574 . S
C555 C574 1.368 . S
C555 H579 0.949 . S
H556 C560 0.949 1_656 S
C557 C558 1.349 . S
C557 C559 1.327 . S
C557 H580 0.950 . S
C558 C557 1.349 . S
C558 C570 1.349 . S
C559 C557 1.327 . S
C559 C575 1.429 . S
C559 H581 0.950 . S
C560 H556 0.949 1_454 S
C560 C568 1.574 . S
C560 C576 1.368 1_554 S
H561 C569 0.950 . S
H562 C567 0.950 . S
H563 C568 0.949 . S
H564 C570 0.950 1_655 S
H565 C571 0.950 1_655 S
H566 C572 0.949 1_556 S
C567 H562 0.950 . S
C567 C569 1.327 . S
C567 C573 1.429 . S
C568 C560 1.574 . S
C568 H563 0.949 . S
C568 C574 1.368 . S
C569 C553 1.349 . S
C569 H561 0.950 . S
C569 C567 1.327 . S
C570 C558 1.349 . S
C570 H564 0.950 1_455 S
C570 C571 1.327 . S
C571 H565 0.950 1_455 S
C571 C570 1.327 . S
C571 C575 1.429 . S
C572 C555 1.574 . S
C572 H566 0.949 1_554 S
C572 C576 1.368 1_554 S
C573 C554 1.429 . S
C573 C567 1.429 . S
C573 C574 1.523 . S
C574 C555 1.368 . S
C574 C568 1.368 . S
C574 C573 1.523 . S
C575 C559 1.429 . S
C575 C571 1.429 . S
C575 C576 1.523 . S
C576 C560 1.368 1_556 S
C576 C572 1.368 1_556 S
C576 C575 1.523 . S
H577 C552 0.950 . S
H578 C554 0.950 . S
H579 C555 0.949 . S
H580 C557 0.950 . S
H581 C559 0.950 . S
C582 C583 1.349 . S
C582 C584 1.327 . S
C582 H607 0.950 . S
C583 C582 1.349 . S
C583 C599 1.349 . S
C584 C582 1.327 . S
C584 C603 1.429 . S
C584 H608 0.950 . S
C585 C602 1.574 . S
C585 C604 1.368 . S
C585 H609 0.949 1_545 S
H586 C590 0.949 . S
C587 C588 1.349 . S
C587 C589 1.327 . S
C587 H610 0.950 . S
C588 C587 1.349 . S
C588 C600 1.349 . S
C589 C587 1.327 . S
C589 C605 1.429 . S
C589 H611 0.950 1_545 S
C590 H586 0.949 . S
C590 C598 1.574 . S
C590 C606 1.368 . S
H591 C599 0.950 1_565 S
H592 C597 0.950 1_565 S
H593 C598 0.949 . S
H594 C600 0.950 . S
H595 C601 0.950 . S
H596 C602 0.949 1_565 S
C597 H592 0.950 1_545 S
C597 C599 1.327 . S
C597 C603 1.429 . S
C598 C590 1.574 . S
C598 H593 0.949 . S
C598 C604 1.368 . S
C599 C583 1.349 . S
C599 H591 0.950 1_545 S
C599 C597 1.327 . S
C600 C588 1.349 . S
C600 H594 0.950 . S
C600 C601 1.327 . S
C601 H595 0.950 . S
C601 C600 1.327 . S
C601 C605 1.429 . S
C602 C585 1.574 . S
C602 H596 0.949 1_545 S
C602 C606 1.368 . S
C603 C584 1.429 . S
C603 C597 1.429 . S
C603 C604 1.523 . S
C604 C585 1.368 . S
C604 C598 1.368 . S
C604 C603 1.523 . S
C605 C589 1.429 . S
C605 C601 1.429 . S
C605 C606 1.523 . S
C606 C590 1.368 . S
C606 C602 1.368 . S
C606 C605 1.523 . S
H607 C582 0.950 . S
H608 C584 0.950 . S
H609 C585 0.949 1_565 S
H610 C587 0.950 . S
H611 C589 0.950 1_565 S
C612 C613 1.349 . S
C612 C614 1.327 . S
C612 H637 0.950 . S
C613 C612 1.349 . S
C613 C629 1.349 . S
C614 C612 1.327 . S
C614 C633 1.429 . S
C614 H638 0.950 . S
C615 C632 1.574 . S
C615 C634 1.368 . S
C615 H639 0.949 . S
H616 C620 0.949 . S
C617 C618 1.349 . S
C617 C619 1.327 . S
C617 H640 0.950 . S
C618 C617 1.349 . S
C618 C630 1.349 . S
C619 C617 1.327 . S
C619 C635 1.429 . S
C619 H641 0.950 . S
C620 H616 0.949 . S
C620 C628 1.574 . S
C620 C636 1.368 . S
H621 C629 0.950 . S
H622 C627 0.950 . S
H623 C628 0.949 . S
H624 C630 0.950 . S
H625 C631 0.950 . S
H626 C632 0.949 . S
C627 H622 0.950 . S
C627 C629 1.327 . S
C627 C633 1.429 . S
C628 C620 1.574 . S
C628 H623 0.949 . S
C628 C634 1.368 . S
C629 C613 1.349 . S
C629 H621 0.950 . S
C629 C627 1.327 . S
C630 C618 1.349 . S
C630 H624 0.950 . S
C630 C631 1.327 . S
C631 H625 0.950 . S
C631 C630 1.327 . S
C631 C635 1.429 . S
C632 C615 1.574 . S
C632 H626 0.949 . S
C632 C636 1.368 . S
C633 C614 1.429 . S
C633 C627 1.429 . S
C633 C634 1.523 . S
C634 C615 1.368 . S
C634 C628 1.368 . S
C634 C633 1.523 . S
C635 C619 1.429 . S
C635 C631 1.429 . S
C635 C636 1.523 . S
C636 C620 1.368 . S
C636 C632 1.368 . S
C636 C635 1.523 . S
H637 C612 0.950 . S
H638 C614 0.950 . S
H639 C615 0.949 . S
H640 C617 0.950 . S
H641 C619 0.950 . S
C642 C643 1.349 . S
C642 C644 1.327 . S
C642 H667 0.950 1_545 S
C643 C642 1.349 . S
C643 C659 1.349 . S
C644 C642 1.327 . S
C644 C663 1.429 . S
C644 H668 0.950 1_545 S
C645 C662 1.574 . S
C645 C664 1.368 . S
C645 H669 0.949 . S
H646 C650 0.949 . S
C647 C648 1.349 . S
C647 C649 1.327 . S
C647 H670 0.950 . S
C648 C647 1.349 . S
C648 C660 1.349 1_545 S
C649 C647 1.327 . S
C649 C665 1.429 . S
C649 H671 0.950 . S
C650 H646 0.949 . S
C650 C658 1.574 . S
C650 C666 1.368 1_565 S
H651 C659 0.950 . S
H652 C657 0.950 . S
H653 C658 0.949 . S
H654 C660 0.950 . S
H655 C661 0.950 . S
H656 C662 0.949 . S
C657 H652 0.950 . S
C657 C659 1.327 . S
C657 C663 1.429 . S
C658 C650 1.574 . S
C658 H653 0.949 . S
C658 C664 1.368 1_565 S
C659 C643 1.349 . S
C659 H651 0.950 . S
C659 C657 1.327 . S
C660 C648 1.349 1_565 S
C660 H654 0.950 . S
C660 C661 1.327 . S
C661 H655 0.950 . S
C661 C660 1.327 . S
C661 C665 1.429 1_565 S
C662 C645 1.574 . S
C662 H656 0.949 . S
C662 C666 1.368 . S
C663 C644 1.429 . S
C663 C657 1.429 . S
C663 C664 1.523 . S
C664 C645 1.368 . S
C664 C658 1.368 1_545 S
C664 C663 1.523 . S
C665 C649 1.429 . S
C665 C661 1.429 1_545 S
C665 C666 1.523 . S
C666 C650 1.368 1_545 S
C666 C662 1.368 . S
C666 C665 1.523 . S
H667 C642 0.950 1_565 S
H668 C644 0.950 1_565 S
H669 C645 0.949 . S
H670 C647 0.950 . S
H671 C649 0.950 . S
C672 C673 1.349 . S
C672 C674 1.327 . S
C672 H697 0.950 . S
C673 C672 1.349 . S
C673 C689 1.349 . S
C674 C672 1.327 . S
C674 C693 1.429 . S
C674 H698 0.950 . S
C675 C692 1.574 . S
C675 C694 1.368 . S
C675 H699 0.949 . S
H676 C680 0.949 1_554 S
C677 C678 1.349 . S
C677 C679 1.327 . S
C677 H700 0.950 . S
C678 C677 1.349 . S
C678 C690 1.349 . S
C679 C677 1.327 . S
C679 C695 1.429 . S
C679 H701 0.950 . S
C680 H676 0.949 1_556 S
C680 C688 1.574 . S
C680 C696 1.368 1_556 S
H681 C689 0.950 . S
H682 C687 0.950 . S
H683 C688 0.949 . S
H684 C690 0.950 . S
H685 C691 0.950 . S
H686 C692 0.949 1_554 S
C687 H682 0.950 . S
C687 C689 1.327 . S
C687 C693 1.429 . S
C688 C680 1.574 . S
C688 H683 0.949 . S
C688 C694 1.368 . S
C689 C673 1.349 . S
C689 H681 0.950 . S
C689 C687 1.327 . S
C690 C678 1.349 . S
C690 H684 0.950 . S
C690 C691 1.327 . S
C691 H685 0.950 . S
C691 C690 1.327 . S
C691 C695 1.429 . S
C692 C675 1.574 . S
C692 H686 0.949 1_556 S
C692 C696 1.368 1_556 S
C693 C674 1.429 . S
C693 C687 1.429 . S
C693 C694 1.523 . S
C694 C675 1.368 . S
C694 C688 1.368 . S
C694 C693 1.523 . S
C695 C679 1.429 . S
C695 C691 1.429 . S
C695 C696 1.523 . S
C696 C680 1.368 1_554 S
C696 C692 1.368 1_554 S
C696 C695 1.523 . S
H697 C672 0.950 . S
H698 C674 0.950 . S
H699 C675 0.949 . S
H700 C677 0.950 . S
H701 C679 0.950 . S
C702 C703 1.349 . S
C702 C704 1.327 . S
C702 H727 0.950 . S
C703 C702 1.349 . S
C703 C719 1.349 . S
C704 C702 1.327 . S
C704 C723 1.429 . S
C704 H728 0.950 . S
C705 C722 1.574 . S
C705 C724 1.368 . S
C705 H729 0.949 . S
H706 C710 0.949 . S
C707 C708 1.349 . S
C707 C709 1.327 . S
C707 H730 0.950 . S
C708 C707 1.349 . S
C708 C720 1.349 . S
C709 C707 1.327 . S
C709 C725 1.429 . S
C709 H731 0.950 . S
C710 H706 0.949 . S
C710 C718 1.574 . S
C710 C726 1.368 . S
H711 C719 0.950 . S
H712 C717 0.950 . S
H713 C718 0.949 . S
H714 C720 0.950 . S
H715 C721 0.950 . S
H716 C722 0.949 . S
C717 H712 0.950 . S
C717 C719 1.327 . S
C717 C723 1.429 . S
C718 C710 1.574 . S
C718 H713 0.949 . S
C718 C724 1.368 . S
C719 C703 1.349 . S
C719 H711 0.950 . S
C719 C717 1.327 . S
C720 C708 1.349 . S
C720 H714 0.950 . S
C720 C721 1.327 . S
C721 H715 0.950 . S
C721 C720 1.327 . S
C721 C725 1.429 . S
C722 C705 1.574 . S
C722 H716 0.949 . S
C722 C726 1.368 . S
C723 C704 1.429 . S
C723 C717 1.429 . S
C723 C724 1.523 . S
C724 C705 1.368 . S
C724 C718 1.368 . S
C724 C723 1.523 . S
C725 C709 1.429 . S
C725 C721 1.429 . S
C725 C726 1.523 . S
C726 C710 1.368 . S
C726 C722 1.368 . S
C726 C725 1.523 . S
H727 C702 0.950 . S
H728 C704 0.950 . S
H729 C705 0.949 . S
H730 C707 0.950 . S
H731 C709 0.950 . S
C193 C6 0.706 . S
C198 C186 0.704 . S
C223 C59 1.925 . S
C228 C160 1.871 . S
C253 C86 1.228 . S
C258 C172 1.212 . S
C283 C15 0.306 . S
C288 C184 0.402 . S
C318 C162 1.808 . S
C313 C50 1.821 . S
C348 C174 1.089 . S
C343 C95 1.095 . S
C373 C46 1.253 . S
C378 C136 1.235 . S
C403 C99 3.403 . S
C408 C150 3.383 1_655 S
C433 C10 1.831 . S
C438 C126 1.830 1_565 S
C468 C138 1.088 . S
C463 C55 1.091 . S
C498 C148 2.609 . S
C493 C90 2.685 . S
C523 C19 1.924 . S
C528 C124 1.878 . S
C558 C153 1.751 . S
C553 C18 1.675 . S
C583 C49 1.419 . S
C588 C129 1.487 . S
C613 C98 1.503 . S
C618 C141 1.530 . S
C648 C177 1.538 . S
C643 C58 1.518 . S
C678 C189 1.277 . S
C673 C89 1.234 . S
C703 C9 1.407 . S
C708 C165 1.453 . S
