# Generated by pormake.
# Topology eea, (3,6)-cn, num edge types: 1
# Building blocks:
#     Node 0, Type 0, BuildingBlock: BELTOD_clean_linker_0, # of connection points: 3
#     Node 1, Type 0, BuildingBlock: BELTOD_clean_linker_0, # of connection points: 3
#     Node 2, Type 0, BuildingBlock: BELTOD_clean_linker_0, # of connection points: 3
#     Node 3, Type 0, BuildingBlock: BELTOD_clean_linker_0, # of connection points: 3
#     Node 4, Type 0, BuildingBlock: BELTOD_clean_linker_0, # of connection points: 3
#     Node 5, Type 0, BuildingBlock: BELTOD_clean_linker_0, # of connection points: 3
#     Node 6, Type 0, BuildingBlock: BELTOD_clean_linker_0, # of connection points: 3
#     Node 7, Type 0, BuildingBlock: BELTOD_clean_linker_0, # of connection points: 3
#     Node 8, Type 0, BuildingBlock: BELTOD_clean_linker_0, # of connection points: 3
#     Node 9, Type 0, BuildingBlock: BELTOD_clean_linker_0, # of connection points: 3
#     Node 10, Type 0, BuildingBlock: BELTOD_clean_linker_0, # of connection points: 3
#     Node 11, Type 0, BuildingBlock: BELTOD_clean_linker_0, # of connection points: 3
#     Node 12, Type 0, BuildingBlock: BELTOD_clean_linker_0, # of connection points: 3
#     Node 13, Type 0, BuildingBlock: BELTOD_clean_linker_0, # of connection points: 3
#     Node 14, Type 0, BuildingBlock: BELTOD_clean_linker_0, # of connection points: 3
#     Node 15, Type 0, BuildingBlock: BELTOD_clean_linker_0, # of connection points: 3
#     Node 16, Type 0, BuildingBlock: BELTOD_clean_linker_0, # of connection points: 3
#     Node 17, Type 0, BuildingBlock: BELTOD_clean_linker_0, # of connection points: 3
#     Node 18, Type 1, BuildingBlock: CUKXOW_clean_sbu_0, # of connection points: 6
#     Node 19, Type 1, BuildingBlock: CUKXOW_clean_sbu_0, # of connection points: 6
#     Node 20, Type 1, BuildingBlock: CUKXOW_clean_sbu_0, # of connection points: 6
#     Node 21, Type 1, BuildingBlock: CUKXOW_clean_sbu_0, # of connection points: 6
#     Node 22, Type 1, BuildingBlock: CUKXOW_clean_sbu_0, # of connection points: 6
#     Node 23, Type 1, BuildingBlock: CUKXOW_clean_sbu_0, # of connection points: 6
#     Node 24, Type 1, BuildingBlock: CUKXOW_clean_sbu_0, # of connection points: 6
#     Node 25, Type 1, BuildingBlock: CUKXOW_clean_sbu_0, # of connection points: 6
#     Node 26, Type 1, BuildingBlock: CUKXOW_clean_sbu_0, # of connection points: 6
#     Edge 27, Type (0, 1), BuildingBlock: KIFKEQ_clean_linker_1, # of connection points: 2
#     Edge 28, Type (0, 1), BuildingBlock: KIFKEQ_clean_linker_1, # of connection points: 2
#     Edge 29, Type (0, 1), BuildingBlock: KIFKEQ_clean_linker_1, # of connection points: 2
#     Edge 30, Type (0, 1), BuildingBlock: KIFKEQ_clean_linker_1, # of connection points: 2
#     Edge 31, Type (0, 1), BuildingBlock: KIFKEQ_clean_linker_1, # of connection points: 2
#     Edge 32, Type (0, 1), BuildingBlock: KIFKEQ_clean_linker_1, # of connection points: 2
#     Edge 33, Type (0, 1), BuildingBlock: KIFKEQ_clean_linker_1, # of connection points: 2
#     Edge 34, Type (0, 1), BuildingBlock: KIFKEQ_clean_linker_1, # of connection points: 2
#     Edge 35, Type (0, 1), BuildingBlock: KIFKEQ_clean_linker_1, # of connection points: 2
#     Edge 36, Type (0, 1), BuildingBlock: KIFKEQ_clean_linker_1, # of connection points: 2
#     Edge 37, Type (0, 1), BuildingBlock: KIFKEQ_clean_linker_1, # of connection points: 2
#     Edge 38, Type (0, 1), BuildingBlock: KIFKEQ_clean_linker_1, # of connection points: 2
#     Edge 39, Type (0, 1), BuildingBlock: KIFKEQ_clean_linker_1, # of connection points: 2
#     Edge 40, Type (0, 1), BuildingBlock: KIFKEQ_clean_linker_1, # of connection points: 2
#     Edge 41, Type (0, 1), BuildingBlock: KIFKEQ_clean_linker_1, # of connection points: 2
#     Edge 42, Type (0, 1), BuildingBlock: KIFKEQ_clean_linker_1, # of connection points: 2
#     Edge 43, Type (0, 1), BuildingBlock: KIFKEQ_clean_linker_1, # of connection points: 2
#     Edge 44, Type (0, 1), BuildingBlock: KIFKEQ_clean_linker_1, # of connection points: 2
#     Edge 45, Type (0, 1), BuildingBlock: KIFKEQ_clean_linker_1, # of connection points: 2
#     Edge 46, Type (0, 1), BuildingBlock: KIFKEQ_clean_linker_1, # of connection points: 2
#     Edge 47, Type (0, 1), BuildingBlock: KIFKEQ_clean_linker_1, # of connection points: 2
#     Edge 48, Type (0, 1), BuildingBlock: KIFKEQ_clean_linker_1, # of connection points: 2
#     Edge 49, Type (0, 1), BuildingBlock: KIFKEQ_clean_linker_1, # of connection points: 2
#     Edge 50, Type (0, 1), BuildingBlock: KIFKEQ_clean_linker_1, # of connection points: 2
#     Edge 51, Type (0, 1), BuildingBlock: KIFKEQ_clean_linker_1, # of connection points: 2
#     Edge 52, Type (0, 1), BuildingBlock: KIFKEQ_clean_linker_1, # of connection points: 2
#     Edge 53, Type (0, 1), BuildingBlock: KIFKEQ_clean_linker_1, # of connection points: 2
#     Edge 54, Type (0, 1), BuildingBlock: KIFKEQ_clean_linker_1, # of connection points: 2
#     Edge 55, Type (0, 1), BuildingBlock: KIFKEQ_clean_linker_1, # of connection points: 2
#     Edge 56, Type (0, 1), BuildingBlock: KIFKEQ_clean_linker_1, # of connection points: 2
#     Edge 57, Type (0, 1), BuildingBlock: KIFKEQ_clean_linker_1, # of connection points: 2
#     Edge 58, Type (0, 1), BuildingBlock: KIFKEQ_clean_linker_1, # of connection points: 2
#     Edge 59, Type (0, 1), BuildingBlock: KIFKEQ_clean_linker_1, # of connection points: 2
#     Edge 60, Type (0, 1), BuildingBlock: KIFKEQ_clean_linker_1, # of connection points: 2
#     Edge 61, Type (0, 1), BuildingBlock: KIFKEQ_clean_linker_1, # of connection points: 2
#     Edge 62, Type (0, 1), BuildingBlock: KIFKEQ_clean_linker_1, # of connection points: 2
#     Edge 63, Type (0, 1), BuildingBlock: KIFKEQ_clean_linker_1, # of connection points: 2
#     Edge 64, Type (0, 1), BuildingBlock: KIFKEQ_clean_linker_1, # of connection points: 2
#     Edge 65, Type (0, 1), BuildingBlock: KIFKEQ_clean_linker_1, # of connection points: 2
#     Edge 66, Type (0, 1), BuildingBlock: KIFKEQ_clean_linker_1, # of connection points: 2
#     Edge 67, Type (0, 1), BuildingBlock: KIFKEQ_clean_linker_1, # of connection points: 2
#     Edge 68, Type (0, 1), BuildingBlock: KIFKEQ_clean_linker_1, # of connection points: 2
#     Edge 69, Type (0, 1), BuildingBlock: KIFKEQ_clean_linker_1, # of connection points: 2
#     Edge 70, Type (0, 1), BuildingBlock: KIFKEQ_clean_linker_1, # of connection points: 2
#     Edge 71, Type (0, 1), BuildingBlock: KIFKEQ_clean_linker_1, # of connection points: 2
#     Edge 72, Type (0, 1), BuildingBlock: KIFKEQ_clean_linker_1, # of connection points: 2
#     Edge 73, Type (0, 1), BuildingBlock: KIFKEQ_clean_linker_1, # of connection points: 2
#     Edge 74, Type (0, 1), BuildingBlock: KIFKEQ_clean_linker_1, # of connection points: 2
#     Edge 75, Type (0, 1), BuildingBlock: KIFKEQ_clean_linker_1, # of connection points: 2
#     Edge 76, Type (0, 1), BuildingBlock: KIFKEQ_clean_linker_1, # of connection points: 2
#     Edge 77, Type (0, 1), BuildingBlock: KIFKEQ_clean_linker_1, # of connection points: 2
#     Edge 78, Type (0, 1), BuildingBlock: KIFKEQ_clean_linker_1, # of connection points: 2
#     Edge 79, Type (0, 1), BuildingBlock: KIFKEQ_clean_linker_1, # of connection points: 2
#     Edge 80, Type (0, 1), BuildingBlock: KIFKEQ_clean_linker_1, # of connection points: 2
# Relax obj value: 0.016
# Max RMSD: 0.122
# Mean RMSD: 0.050
data_MOF--net-eea--node1-CUKXOW_clean_sbu_0--node2-BELTOD_clean_linker_0--edge1-KIFKEQ_clean_linker_1
_symmetry_space_group_name_H-M    P1
_symmetry_Int_Tables_number       1
_symmetry_cell_setting            triclinic
loop_
_symmetry_equiv_pos_as_xyz
'x, y, z'
_cell_length_a     64.329203
_cell_length_b     61.113522
_cell_length_c     67.759159
_cell_angle_alpha  93.591849
_cell_angle_beta   93.096559
_cell_angle_gamma 119.98002
loop_
_atom_site_label
_atom_site_type_symbol
_atom_site_fract_x
_atom_site_fract_y
_atom_site_fract_z
_atom_type_partial_charge
P0 P 0.29089 0.15699 0.42079 0.0
H1 H 0.2576 0.12868 0.38527 0.0
H2 H 0.23692 0.08381 0.37235 0.0
H3 H 0.2659 0.06722 0.42462 0.0
H4 H 0.28673 0.11204 0.4373 0.0
H5 H 0.30809 0.20404 0.40214 0.0
H6 H 0.28799 0.22598 0.38955 0.0
H7 H 0.22098 0.16895 0.40907 0.0
H8 H 0.24124 0.14686 0.42155 0.0
H9 H 0.33568 0.17971 0.44719 0.0
H10 H 0.25942 0.14383 0.45305 0.0
O11 O 0.31692 0.16816 0.41062 0.0
H12 H 0.34384 0.18244 0.48311 0.0
H13 H 0.26747 0.14642 0.48911 0.0
C14 C 0.27321 0.12362 0.41249 0.0
C15 C 0.2591 0.1153 0.39413 0.0
C16 C 0.24728 0.08964 0.38675 0.0
C17 C 0.24975 0.07196 0.39747 0.0
C18 C 0.26378 0.0804 0.41594 0.0
C19 C 0.27551 0.10601 0.4233 0.0
C20 C 0.2761 0.17371 0.41262 0.0
C21 C 0.28908 0.19621 0.40373 0.0
C22 C 0.27755 0.2087 0.39646 0.0
C23 C 0.25287 0.19905 0.39816 0.0
C24 C 0.24004 0.17687 0.40763 0.0
C25 C 0.25158 0.16425 0.41476 0.0
C26 C 0.29694 0.16166 0.44745 0.0
C27 C 0.32068 0.17267 0.45621 0.0
C28 C 0.32533 0.17408 0.47676 0.0
C29 C 0.30629 0.16452 0.48894 0.0
C30 C 0.28254 0.15419 0.48015 0.0
C31 C 0.27791 0.15269 0.45954 0.0
P32 P 0.89599 0.104 0.45645 0.0
H33 H 0.88882 0.05946 0.4321 0.0
H34 H 0.85576 0.02786 0.40862 0.0
H35 H 0.81853 0.06999 0.41512 0.0
H36 H 0.85179 0.1015 0.43899 0.0
H37 H 0.94825 0.12994 0.46442 0.0
H38 H 0.9811 0.16283 0.44856 0.0
H39 H 0.92931 0.16812 0.40874 0.0
H40 H 0.89638 0.13459 0.42452 0.0
H41 H 0.85188 0.07877 0.47582 0.0
H42 H 0.91525 0.15332 0.48034 0.0
O43 O 0.90718 0.0878 0.46732 0.0
H44 H 0.83784 0.09164 0.50458 0.0
H45 H 0.90165 0.16618 0.50958 0.0
C46 C 0.87244 0.08242 0.43764 0.0
C47 C 0.87361 0.06198 0.42841 0.0
C48 C 0.85475 0.04403 0.41482 0.0
C49 C 0.83439 0.04629 0.41003 0.0
C50 C 0.83377 0.06748 0.41871 0.0
C51 C 0.85276 0.08551 0.43231 0.0
C52 C 0.91991 0.12948 0.44536 0.0
C53 C 0.94393 0.13815 0.45227 0.0
C54 C 0.96274 0.15717 0.44329 0.0
C55 C 0.95787 0.16808 0.4273 0.0
C56 C 0.93368 0.15983 0.4208 0.0
C57 C 0.91484 0.14074 0.42984 0.0
C58 C 0.88432 0.11523 0.47566 0.0
C59 C 0.86257 0.09808 0.48279 0.0
C60 C 0.85472 0.10539 0.49941 0.0
C61 C 0.86872 0.1299 0.50949 0.0
C62 C 0.89031 0.14727 0.50204 0.0
C63 C 0.89812 0.13992 0.48531 0.0
P64 P 0.85922 0.70495 0.42921 0.0
H65 H 0.82005 0.68986 0.39788 0.0
H66 H 0.79676 0.70932 0.38735 0.0
H67 H 0.83702 0.77142 0.43343 0.0
H68 H 0.86015 0.75154 0.44408 0.0
H69 H 0.9038 0.70766 0.44485 0.0
H70 H 0.9446 0.72871 0.43438 0.0
H71 H 0.92305 0.76444 0.39111 0.0
H72 H 0.88232 0.74303 0.40139 0.0
H73 H 0.82687 0.6605 0.44825 0.0
H74 H 0.88394 0.7372 0.46668 0.0
O75 O 0.8484 0.67702 0.41568 0.0
H76 H 0.82088 0.6526 0.48284 0.0
H77 H 0.87758 0.72971 0.50156 0.0
C78 C 0.84171 0.71917 0.42185 0.0
C79 C 0.82383 0.70759 0.4058 0.0
C80 C 0.81062 0.71885 0.39969 0.0
C81 C 0.81507 0.74198 0.40951 0.0
C82 C 0.83297 0.75347 0.4257 0.0
C83 C 0.84623 0.74217 0.43177 0.0
C84 C 0.89016 0.7242 0.42422 0.0
C85 C 0.90804 0.72051 0.43344 0.0
C86 C 0.93136 0.73255 0.42743 0.0
C87 C 0.93708 0.74821 0.41186 0.0
C88 C 0.91919 0.7523 0.403 0.0
C89 C 0.89592 0.74027 0.40903 0.0
C90 C 0.85609 0.6993 0.45492 0.0
C91 C 0.83822 0.67564 0.45978 0.0
C92 C 0.83465 0.67123 0.47961 0.0
C93 C 0.84868 0.69055 0.49503 0.0
C94 C 0.86667 0.71431 0.49008 0.0
C95 C 0.87027 0.71867 0.47016 0.0
P96 P 0.13878 0.29661 0.57475 0.0
H97 H 0.12205 0.3027 0.61252 0.0
H98 H 0.08207 0.28485 0.6242 0.0
H99 H 0.05017 0.24162 0.56692 0.0
H100 H 0.09043 0.25911 0.55554 0.0
H101 H 0.18939 0.31147 0.57825 0.0
H102 H 0.21098 0.28976 0.58817 0.0
H103 H 0.1437 0.22464 0.59922 0.0
H104 H 0.12206 0.24621 0.58886 0.0
H105 H 0.11656 0.3158 0.54759 0.0
H106 H 0.15918 0.27949 0.54339 0.0
O107 O 0.15457 0.32667 0.58493 0.0
H108 H 0.11832 0.32102 0.51213 0.0
H109 H 0.1622 0.28586 0.5085 0.0
C110 C 0.1091 0.28271 0.58304 0.0
C111 C 0.10643 0.28943 0.60247 0.0
C112 C 0.08354 0.27929 0.60909 0.0
C113 C 0.06285 0.26211 0.5964 0.0
C114 C 0.06571 0.25478 0.57708 0.0
C115 C 0.08869 0.26493 0.57049 0.0
C116 C 0.1542 0.28057 0.58302 0.0
C117 C 0.1793 0.29256 0.58288 0.0
C118 C 0.19157 0.2801 0.58841 0.0
C119 C 0.17897 0.25555 0.59443 0.0
C120 C 0.15382 0.24363 0.59475 0.0
C121 C 0.14148 0.25596 0.58885 0.0
C122 C 0.13774 0.29732 0.54819 0.0
C123 C 0.12617 0.30882 0.53902 0.0
C124 C 0.12741 0.31201 0.51878 0.0
C125 C 0.14059 0.30407 0.50739 0.0
C126 C 0.1516 0.29192 0.51662 0.0
C127 C 0.15009 0.28848 0.53678 0.0
P128 P 0.78852 0.88787 0.5606 0.0
H129 H 0.83033 0.93313 0.58112 0.0
H130 H 0.83487 0.9703 0.6009 0.0
H131 H 0.75748 0.93747 0.59518 0.0
H132 H 0.75306 0.90001 0.57552 0.0
H133 H 0.7927 0.84328 0.55148 0.0
H134 H 0.78965 0.80982 0.57118 0.0
H135 H 0.77075 0.84221 0.62064 0.0
H136 H 0.77322 0.87534 0.60072 0.0
H137 H 0.77537 0.91822 0.53732 0.0
H138 H 0.7532 0.83896 0.53773 0.0
O139 O 0.81463 0.8974 0.55088 0.0
H140 H 0.74921 0.90834 0.50683 0.0
H141 H 0.72799 0.82911 0.50661 0.0
C142 C 0.79141 0.91419 0.57645 0.0
C143 C 0.81433 0.93389 0.58413 0.0
C144 C 0.8169 0.95515 0.5954 0.0
C145 C 0.79655 0.95698 0.59932 0.0
C146 C 0.77348 0.93659 0.5924 0.0
C147 C 0.77094 0.9153 0.58107 0.0
C148 C 0.7832 0.86179 0.5746 0.0
C149 C 0.7874 0.84289 0.56642 0.0
C150 C 0.78559 0.82375 0.57766 0.0
C151 C 0.77996 0.82348 0.59741 0.0
C152 C 0.77519 0.84209 0.60546 0.0
C153 C 0.77659 0.86101 0.59406 0.0
C154 C 0.76603 0.87933 0.54004 0.0
C155 C 0.7646 0.8986 0.53103 0.0
C156 C 0.74986 0.89296 0.51339 0.0
C157 C 0.73669 0.86795 0.50408 0.0
C158 C 0.73767 0.84853 0.51345 0.0
C159 C 0.75225 0.85419 0.53126 0.0
P160 P 0.14107 0.84418 0.58433 0.0
H161 H 0.17094 0.87243 0.62103 0.0
H162 H 0.19319 0.91748 0.63296 0.0
H163 H 0.16715 0.93428 0.57912 0.0
H164 H 0.14562 0.88922 0.56702 0.0
H165 H 0.1097 0.79546 0.59898 0.0
H166 H 0.06858 0.77564 0.60859 0.0
H167 H 0.06354 0.84024 0.59256 0.0
H168 H 0.10485 0.86017 0.58313 0.0
H169 H 0.17272 0.83381 0.56129 0.0
H170 H 0.11243 0.84522 0.54941 0.0
O171 O 0.15471 0.83069 0.59584 0.0
H172 H 0.17579 0.82935 0.52564 0.0
H173 H 0.11562 0.84106 0.51369 0.0
C174 C 0.15703 0.87751 0.59297 0.0
C175 C 0.17014 0.88582 0.61173 0.0
C176 C 0.18266 0.91162 0.61863 0.0
C177 C 0.18203 0.9296 0.60699 0.0
C178 C 0.1684 0.92105 0.58833 0.0
C179 C 0.15599 0.89523 0.5814 0.0
C180 C 0.11046 0.82946 0.59064 0.0
C181 C 0.09981 0.80543 0.59758 0.0
C182 C 0.07633 0.79413 0.60309 0.0
C183 C 0.06296 0.8065 0.60145 0.0
C184 C 0.07342 0.83026 0.59392 0.0
C185 C 0.09706 0.8417 0.58862 0.0
C186 C 0.14215 0.83951 0.55801 0.0
C187 C 0.15997 0.83508 0.55102 0.0
C188 C 0.16169 0.83248 0.53064 0.0
C189 C 0.14588 0.83475 0.51692 0.0
C190 C 0.12808 0.8393 0.52396 0.0
C191 C 0.12618 0.84156 0.54436 0.0
P192 P 0.95269 0.48914 0.75514 0.0
H193 H 0.96017 0.46114 0.72234 0.0
H194 H 0.93724 0.41686 0.70805 0.0
H195 H 0.88272 0.4023 0.74813 0.0
H196 H 0.906 0.44666 0.76255 0.0
H197 H 0.96515 0.5251 0.72537 0.0
H198 H 0.94612 0.54792 0.71247 0.0
H199 H 0.89077 0.51415 0.75247 0.0
H200 H 0.90985 0.49105 0.76514 0.0
H201 H 0.95302 0.45334 0.7815 0.0
H202 H 0.95879 0.52691 0.7874 0.0
O203 O 0.98069 0.50196 0.74847 0.0
H204 H 0.95821 0.4547 0.81752 0.0
H205 H 0.96391 0.52837 0.82366 0.0
C206 C 0.93497 0.457 0.74372 0.0
C207 C 0.94325 0.44845 0.72801 0.0
C208 C 0.93002 0.42317 0.71975 0.0
C209 C 0.90821 0.40603 0.72703 0.0
C210 C 0.89961 0.41495 0.74239 0.0
C211 C 0.91283 0.44028 0.75058 0.0
C212 C 0.93914 0.50678 0.74646 0.0
C213 C 0.94905 0.52278 0.7315 0.0
C214 C 0.93817 0.53586 0.72417 0.0
C215 C 0.91702 0.533 0.73154 0.0
C216 C 0.90696 0.51665 0.74639 0.0
C217 C 0.91792 0.50358 0.75375 0.0
C218 C 0.9547 0.48964 0.78178 0.0
C219 C 0.95489 0.46957 0.79055 0.0
C220 C 0.95786 0.47037 0.81119 0.0
C221 C 0.96117 0.49151 0.82346 0.0
C222 C 0.96136 0.51181 0.8146 0.0
C223 C 0.95824 0.51091 0.7939 0.0
P224 P 0.56024 0.43756 0.78984 0.0
H225 H 0.55575 0.40086 0.75803 0.0
H226 H 0.52152 0.36906 0.73521 0.0
H227 H 0.47716 0.39777 0.75752 0.0
H228 H 0.51158 0.42995 0.77994 0.0
H229 H 0.6125 0.46251 0.79734 0.0
H230 H 0.64545 0.49525 0.78142 0.0
H231 H 0.59388 0.50226 0.74268 0.0
H232 H 0.56087 0.46885 0.75848 0.0
H233 H 0.52137 0.41109 0.81445 0.0
H234 H 0.57649 0.48861 0.81005 0.0
O235 O 0.57072 0.42 0.79937 0.0
H236 H 0.50725 0.42515 0.84263 0.0
H237 H 0.56255 0.50278 0.83843 0.0
C238 C 0.53599 0.41719 0.7711 0.0
C239 C 0.53876 0.40056 0.75778 0.0
C240 C 0.51925 0.38252 0.74468 0.0
C241 C 0.49664 0.3808 0.74479 0.0
C242 C 0.49433 0.3985 0.75734 0.0
C243 C 0.51396 0.4168 0.77023 0.0
C244 C 0.58429 0.46293 0.77878 0.0
C245 C 0.60828 0.47108 0.78541 0.0
C246 C 0.62713 0.49 0.7764 0.0
C247 C 0.62234 0.50134 0.76068 0.0
C248 C 0.59819 0.49363 0.75451 0.0
C249 C 0.57931 0.47462 0.76356 0.0
C250 C 0.54969 0.44882 0.80995 0.0
C251 C 0.53027 0.43118 0.81944 0.0
C252 C 0.52219 0.43924 0.83549 0.0
C253 C 0.53369 0.46509 0.84262 0.0
C254 C 0.55337 0.48274 0.83324 0.0
C255 C 0.56127 0.47466 0.81697 0.0
P256 P 0.52786 0.04049 0.76535 0.0
H257 H 0.51519 0.0495 0.72618 0.0
H258 H 0.49242 0.06898 0.71435 0.0
H259 H 0.48195 0.08462 0.77503 0.0
H260 H 0.50609 0.0666 0.7867 0.0
H261 H 0.56545 0.0275 0.76896 0.0
H262 H 0.60671 0.04775 0.7599 0.0
H263 H 0.59928 0.1095 0.7397 0.0
H264 H 0.55868 0.08991 0.75004 0.0
H265 H 0.48595 0.01113 0.78619 0.0
H266 H 0.56277 0.05754 0.80123 0.0
O267 O 0.51471 0.0121 0.75214 0.0
H268 H 0.48059 0.00181 0.82057 0.0
H269 H 0.55783 0.04698 0.8354 0.0
C270 C 0.51206 0.05626 0.75726 0.0
C271 C 0.50812 0.05731 0.73691 0.0
C272 C 0.49487 0.06827 0.73018 0.0
C273 C 0.48491 0.07807 0.74368 0.0
C274 C 0.48943 0.07748 0.76416 0.0
C275 C 0.50306 0.06688 0.77089 0.0
C276 C 0.55893 0.05707 0.76008 0.0
C277 C 0.57287 0.04558 0.76282 0.0
C278 C 0.59641 0.05709 0.75741 0.0
C279 C 0.60636 0.08016 0.74876 0.0
C280 C 0.59242 0.0919 0.74648 0.0
C281 C 0.56899 0.08054 0.75222 0.0
C282 C 0.52471 0.03481 0.79109 0.0
C283 C 0.5017 0.01913 0.7969 0.0
C284 C 0.49872 0.0136 0.81658 0.0
C285 C 0.51881 0.02329 0.83085 0.0
C286 C 0.5419 0.03931 0.82494 0.0
C287 C 0.5448 0.04518 0.80528 0.0
P288 P 0.80286 0.62834 0.90747 0.0
H289 H 0.78309 0.63746 0.94257 0.0
H290 H 0.74252 0.61732 0.9532 0.0
H291 H 0.71591 0.56513 0.89964 0.0
H292 H 0.75666 0.5859 0.88891 0.0
H293 H 0.85345 0.64318 0.90957 0.0
H294 H 0.87576 0.62272 0.92079 0.0
H295 H 0.8099 0.56012 0.93707 0.0
H296 H 0.78755 0.58038 0.9255 0.0
H297 H 0.78441 0.65011 0.87934 0.0
H298 H 0.82067 0.60681 0.87695 0.0
O299 O 0.81762 0.65857 0.91733 0.0
H300 H 0.78835 0.65528 0.84386 0.0
H301 H 0.82511 0.61246 0.84183 0.0
C302 C 0.77272 0.61351 0.91479 0.0
C303 C 0.76849 0.62183 0.93304 0.0
C304 C 0.7453 0.6101 0.93919 0.0
C305 C 0.72593 0.58959 0.92727 0.0
C306 C 0.73035 0.58112 0.90902 0.0
C307 C 0.75361 0.59292 0.90288 0.0
C308 C 0.8189 0.61339 0.91677 0.0
C309 C 0.84383 0.62509 0.91562 0.0
C310 C 0.85651 0.61334 0.9219 0.0
C311 C 0.8445 0.58984 0.92974 0.0
C312 C 0.81957 0.57831 0.93118 0.0
C313 C 0.80681 0.58989 0.92456 0.0
C314 C 0.80258 0.62847 0.88088 0.0
C315 C 0.79295 0.64149 0.87115 0.0
C316 C 0.79514 0.64437 0.85092 0.0
C317 C 0.80727 0.6345 0.84023 0.0
C318 C 0.81597 0.62054 0.84983 0.0
C319 C 0.81347 0.61737 0.86996 0.0
P320 P 0.4549 0.2228 0.89477 0.0
H321 H 0.48589 0.26049 0.92736 0.0
H322 H 0.48391 0.29496 0.94591 0.0
H323 H 0.41454 0.27036 0.91416 0.0
H324 H 0.41645 0.23568 0.89586 0.0
H325 H 0.45987 0.17897 0.88431 0.0
H326 H 0.45778 0.14521 0.90317 0.0
H327 H 0.43755 0.1748 0.9535 0.0
H328 H 0.43926 0.20829 0.93447 0.0
H329 H 0.45286 0.25285 0.86428 0.0
H330 H 0.41614 0.17364 0.87405 0.0
O331 O 0.48348 0.23674 0.8894 0.0
H332 H 0.42913 0.24239 0.83232 0.0
H333 H 0.39339 0.16272 0.84149 0.0
C334 C 0.45165 0.24599 0.90989 0.0
C335 C 0.47015 0.26236 0.92456 0.0
C336 C 0.46891 0.28192 0.93523 0.0
C337 C 0.44917 0.28546 0.93133 0.0
C338 C 0.43011 0.26825 0.91727 0.0
C339 C 0.43123 0.24848 0.90678 0.0
C340 C 0.44967 0.19608 0.90793 0.0
C341 C 0.45449 0.17787 0.89926 0.0
C342 C 0.45322 0.15856 0.91002 0.0
C343 C 0.44752 0.15742 0.9298 0.0
C344 C 0.44211 0.17534 0.93831 0.0
C345 C 0.44305 0.19446 0.92741 0.0
C346 C 0.43642 0.21407 0.87149 0.0
C347 C 0.43979 0.23314 0.85943 0.0
C348 C 0.42635 0.22706 0.84103 0.0
C349 C 0.4095 0.20162 0.83408 0.0
C350 C 0.40602 0.18253 0.84636 0.0
C351 C 0.41925 0.18873 0.86497 0.0
P352 P 0.80655 0.1821 0.9149 0.0
H353 H 0.83016 0.20888 0.95391 0.0
H354 H 0.85053 0.25385 0.96684 0.0
H355 H 0.83218 0.27218 0.91042 0.0
H356 H 0.81114 0.22709 0.89775 0.0
H357 H 0.7844 0.15606 0.94884 0.0
H358 H 0.74354 0.1373 0.95881 0.0
H359 H 0.72024 0.1559 0.90464 0.0
H360 H 0.76154 0.1752 0.89483 0.0
H361 H 0.84579 0.21301 0.89171 0.0
H362 H 0.77653 0.14424 0.88108 0.0
O363 O 0.821 0.16947 0.92643 0.0
H364 H 0.85204 0.20988 0.85683 0.0
H365 H 0.78299 0.14044 0.84605 0.0
C366 C 0.81997 0.21486 0.92466 0.0
C367 C 0.83041 0.22256 0.94436 0.0
C368 C 0.84187 0.24817 0.95177 0.0
C369 C 0.84311 0.26641 0.93951 0.0
C370 C 0.8317 0.25848 0.92005 0.0
C371 C 0.81983 0.23279 0.9128 0.0
C372 C 0.7758 0.16628 0.92081 0.0
C373 C 0.77047 0.15582 0.93895 0.0
C374 C 0.74718 0.14531 0.94472 0.0
C375 C 0.72876 0.14512 0.93246 0.0
C376 C 0.73408 0.15557 0.91423 0.0
C377 C 0.75758 0.16646 0.9086 0.0
C378 C 0.81022 0.17952 0.88883 0.0
C379 C 0.83175 0.19736 0.88179 0.0
C380 C 0.83547 0.19532 0.86184 0.0
C381 C 0.81798 0.17494 0.84855 0.0
C382 C 0.79662 0.15665 0.85578 0.0
C383 C 0.79287 0.15883 0.87581 0.0
P384 P 0.62283 0.82479 0.08898 0.0
H385 H 0.5871 0.79432 0.05513 0.0
H386 H 0.56594 0.74883 0.04396 0.0
H387 H 0.59905 0.73596 0.09571 0.0
H388 H 0.6203 0.78128 0.10663 0.0
H389 H 0.64029 0.8718 0.07037 0.0
H390 H 0.62086 0.89467 0.05867 0.0
H391 H 0.55378 0.83841 0.07884 0.0
H392 H 0.57329 0.81502 0.08979 0.0
H393 H 0.6682 0.84745 0.11469 0.0
H394 H 0.59237 0.81382 0.12172 0.0
O395 O 0.64842 0.83511 0.07825 0.0
H396 H 0.67704 0.85071 0.1506 0.0
H397 H 0.60106 0.81686 0.15769 0.0
C398 C 0.60481 0.79112 0.08196 0.0
C399 C 0.5894 0.78163 0.06427 0.0
C400 C 0.5773 0.75563 0.05791 0.0
C401 C 0.58081 0.73882 0.06898 0.0
C402 C 0.5961 0.74844 0.0868 0.0
C403 C 0.60809 0.77436 0.09315 0.0
C404 C 0.60817 0.84159 0.08076 0.0
C405 C 0.62138 0.8643 0.07221 0.0
C406 C 0.61026 0.87752 0.06568 0.0
C407 C 0.58572 0.86846 0.06784 0.0
C408 C 0.5726 0.84578 0.07669 0.0
C409 C 0.58377 0.83248 0.08312 0.0
C410 C 0.62963 0.83052 0.11555 0.0
C411 C 0.65346 0.84108 0.12397 0.0
C412 C 0.65848 0.84277 0.1445 0.0
C413 C 0.63973 0.8339 0.15697 0.0
C414 C 0.61593 0.82411 0.14851 0.0
C415 C 0.61093 0.82236 0.12795 0.0
P416 P 0.22329 0.78019 0.12343 0.0
H417 H 0.221 0.73558 0.10364 0.0
H418 H 0.18981 0.69942 0.08174 0.0
H419 H 0.14515 0.73376 0.08202 0.0
H420 H 0.17691 0.77037 0.10364 0.0
H421 H 0.27536 0.80715 0.13282 0.0
H422 H 0.30877 0.83731 0.11576 0.0
H423 H 0.25813 0.83477 0.06974 0.0
H424 H 0.22463 0.80393 0.08681 0.0
H425 H 0.17956 0.759 0.14356 0.0
H426 H 0.24063 0.83317 0.13883 0.0
O427 O 0.23428 0.76698 0.13846 0.0
H428 H 0.16636 0.77706 0.16977 0.0
H429 H 0.22743 0.85142 0.16499 0.0
C430 C 0.20089 0.75518 0.10574 0.0
C431 C 0.20454 0.73538 0.09893 0.0
C432 C 0.18666 0.7147 0.08647 0.0
C433 C 0.16479 0.71346 0.08051 0.0
C434 C 0.16176 0.73411 0.08642 0.0
C435 C 0.17979 0.75492 0.0989 0.0
C436 C 0.24759 0.80299 0.11085 0.0
C437 C 0.27142 0.81299 0.11902 0.0
C438 C 0.29052 0.83045 0.10933 0.0
C439 C 0.28614 0.83845 0.09135 0.0
C440 C 0.26212 0.82871 0.0834 0.0
C441 C 0.24297 0.81117 0.09315 0.0
C442 C 0.21085 0.79476 0.13902 0.0
C443 C 0.18968 0.77933 0.14769 0.0
C444 C 0.18212 0.78971 0.16267 0.0
C445 C 0.19586 0.8157 0.16947 0.0
C446 C 0.21654 0.83132 0.16013 0.0
C447 C 0.22402 0.8209 0.14507 0.0
P448 P 0.19439 0.37453 0.09799 0.0
H449 H 0.17374 0.37394 0.05858 0.0
H450 H 0.15068 0.39285 0.04609 0.0
H451 H 0.15573 0.42641 0.10559 0.0
H452 H 0.18004 0.40871 0.11761 0.0
H453 H 0.23205 0.36147 0.09717 0.0
H454 H 0.27363 0.38419 0.08839 0.0
H455 H 0.26623 0.44899 0.07772 0.0
H456 H 0.22487 0.42648 0.08696 0.0
H457 H 0.15297 0.35543 0.12087 0.0
H458 H 0.22926 0.38353 0.13231 0.0
O459 O 0.18201 0.34561 0.08577 0.0
H460 H 0.14796 0.34817 0.15584 0.0
H461 H 0.22409 0.37546 0.16712 0.0
C462 C 0.1779 0.38923 0.0891 0.0
C463 C 0.16985 0.38539 0.0689 0.0
C464 C 0.15652 0.39611 0.06182 0.0
C465 C 0.15085 0.41081 0.07487 0.0
C466 C 0.15974 0.4153 0.09505 0.0
C467 C 0.1734 0.40487 0.10203 0.0
C468 C 0.22533 0.39218 0.09258 0.0
C469 C 0.23946 0.38065 0.09311 0.0
C470 C 0.2632 0.39366 0.08819 0.0
C471 C 0.27306 0.4183 0.08234 0.0
C472 C 0.25896 0.42995 0.08205 0.0
C473 C 0.23533 0.41707 0.08733 0.0
C474 C 0.19153 0.37045 0.124 0.0
C475 C 0.16867 0.36022 0.13091 0.0
C476 C 0.1658 0.35605 0.15085 0.0
C477 C 0.18568 0.36138 0.16411 0.0
C478 C 0.20851 0.37119 0.15713 0.0
C479 C 0.21145 0.37585 0.13723 0.0
P480 P 0.4725 0.96549 0.24401 0.0
H481 H 0.4532 0.98314 0.27534 0.0
H482 H 0.41358 0.96488 0.28759 0.0
H483 H 0.38679 0.90012 0.24355 0.0
H484 H 0.4266 0.91885 0.23112 0.0
H485 H 0.51302 0.96307 0.22908 0.0
H486 H 0.53359 0.94021 0.23841 0.0
H487 H 0.48163 0.903 0.28041 0.0
H488 H 0.46152 0.92633 0.27131 0.0
H489 H 0.48336 0.00937 0.22253 0.0
H490 H 0.45951 0.93013 0.20809 0.0
O491 O 0.49059 0.99396 0.25652 0.0
H492 H 0.48583 0.0159 0.18743 0.0
H493 H 0.46108 0.93623 0.17273 0.0
C494 C 0.44279 0.95245 0.25219 0.0
C495 C 0.4388 0.96511 0.26818 0.0
C496 C 0.41614 0.95452 0.27531 0.0
C497 C 0.39701 0.93096 0.26662 0.0
C498 C 0.40104 0.91842 0.25044 0.0
C499 C 0.42379 0.92907 0.24332 0.0
C500 C 0.48546 0.94603 0.24919 0.0
C501 C 0.50581 0.94964 0.24004 0.0
C502 C 0.51753 0.93651 0.24537 0.0
C503 C 0.50924 0.91972 0.26014 0.0
C504 C 0.48862 0.91595 0.2691 0.0
C505 C 0.47693 0.92911 0.26376 0.0
C506 C 0.47165 0.96937 0.21791 0.0
C507 C 0.47837 0.99328 0.21175 0.0
C508 C 0.47956 0.99693 0.19161 0.0
C509 C 0.4738 0.97663 0.17719 0.0
C510 C 0.46606 0.95239 0.18343 0.0
C511 C 0.46499 0.94881 0.20363 0.0
P512 P 0.11615 0.55332 0.22985 0.0
H513 H 0.15506 0.59738 0.2539 0.0
H514 H 0.15638 0.6313 0.27584 0.0
H515 H 0.07887 0.59594 0.26536 0.0
H516 H 0.07781 0.56207 0.2431 0.0
H517 H 0.12702 0.51342 0.22001 0.0
H518 H 0.12671 0.4802 0.23856 0.0
H519 H 0.10094 0.50447 0.28808 0.0
H520 H 0.10068 0.5373 0.26928 0.0
H521 H 0.09943 0.58017 0.20566 0.0
H522 H 0.08298 0.50281 0.2082 0.0
O523 O 0.14244 0.56619 0.21997 0.0
H524 H 0.07243 0.56719 0.17509 0.0
H525 H 0.05629 0.48986 0.17747 0.0
C526 C 0.11644 0.57765 0.24648 0.0
C527 C 0.13835 0.59694 0.25628 0.0
C528 C 0.13903 0.61619 0.26901 0.0
C529 C 0.11772 0.61638 0.27234 0.0
C530 C 0.09563 0.59653 0.2629 0.0
C531 C 0.09499 0.57719 0.25018 0.0
C532 C 0.114 0.52789 0.24328 0.0
C533 C 0.12101 0.51139 0.23476 0.0
C534 C 0.12072 0.49237 0.24532 0.0
C535 C 0.1138 0.48983 0.26473 0.0
C536 C 0.10644 0.50615 0.27316 0.0
C537 C 0.1063 0.5249 0.26241 0.0
C538 C 0.093 0.54246 0.20945 0.0
C539 C 0.0896 0.5603 0.19992 0.0
C540 C 0.07419 0.55286 0.18242 0.0
C541 C 0.06226 0.5275 0.17391 0.0
C542 C 0.06536 0.50956 0.18366 0.0
C543 C 0.08058 0.51698 0.20131 0.0
P544 P 0.47425 0.51288 0.24606 0.0
H545 H 0.50357 0.53855 0.28353 0.0
H546 H 0.52678 0.58315 0.29699 0.0
H547 H 0.50298 0.60423 0.2444 0.0
H548 H 0.4797 0.55947 0.231 0.0
H549 H 0.4423 0.46304 0.25865 0.0
H550 H 0.40156 0.44322 0.26898 0.0
H551 H 0.39707 0.50911 0.25598 0.0
H552 H 0.43806 0.52901 0.24572 0.0
H553 H 0.50819 0.50592 0.22373 0.0
H554 H 0.44686 0.5152 0.2107 0.0
O555 O 0.48728 0.49842 0.25701 0.0
H556 H 0.51376 0.50445 0.18855 0.0
H557 H 0.45291 0.51484 0.17535 0.0
C558 C 0.49033 0.54574 0.25608 0.0
C559 C 0.50337 0.55274 0.27486 0.0
C560 C 0.51666 0.57824 0.28252 0.0
C561 C 0.51691 0.59721 0.27165 0.0
C562 C 0.5031 0.59004 0.25313 0.0
C563 C 0.48992 0.56448 0.2454 0.0
C564 C 0.44337 0.49769 0.25175 0.0
C565 C 0.43259 0.47326 0.25797 0.0
C566 C 0.40931 0.46196 0.26392 0.0
C567 C 0.39626 0.47476 0.26352 0.0
C568 C 0.40671 0.49881 0.25644 0.0
C569 C 0.43015 0.51023 0.25065 0.0
C570 C 0.4769 0.51028 0.21981 0.0
C571 C 0.49582 0.50752 0.21326 0.0
C572 C 0.49915 0.50699 0.1931 0.0
C573 C 0.48389 0.50969 0.17904 0.0
C574 C 0.46482 0.51236 0.18569 0.0
C575 C 0.46137 0.51266 0.20592 0.0
Tb576 Tb 0.52591 0.02217 0.00127 0.0
C577 C 0.51449 0.96991 0.01444 0.0
Tb578 Tb 0.47364 0.9841 0.00852 0.0
O579 O 0.53761 0.02838 0.03309 0.0
O580 O 0.50245 0.01813 0.02332 0.0
O581 O 0.5275 0.98766 0.00286 0.0
C582 C 0.43317 0.95377 0.02448 0.0
O583 O 0.49411 0.96719 0.02054 0.0
C584 C 0.48301 0.98509 0.97142 0.0
C585 C 0.48521 0.03721 0.99513 0.0
O586 O 0.44157 0.94677 0.00991 0.0
O587 O 0.44755 0.97772 0.03001 0.0
O588 O 0.46175 0.97829 0.97689 0.0
O589 O 0.49707 0.98812 0.98637 0.0
O590 O 0.46913 0.01611 0.0023 0.0
O591 O 0.50779 0.04295 0.99313 0.0
C592 C 0.56711 0.05259 0.98608 0.0
O593 O 0.54577 0.04199 0.97658 0.0
O594 O 0.56516 0.04627 0.00407 0.0
C595 C 0.51633 0.02147 0.03844 0.0
Tb596 Tb 0.97788 0.50715 0.99723 0.0
C597 C 0.03208 0.54688 0.01152 0.0
Tb598 Tb 0.01247 0.48723 0.00602 0.0
O599 O 0.98088 0.52033 0.02843 0.0
O600 O 0.98486 0.4891 0.02029 0.0
O601 O 0.01146 0.54349 0.00294 0.0
C602 C 0.0436 0.47469 0.02178 0.0
O603 O 0.03565 0.52779 0.01498 0.0
C604 C 0.00341 0.49052 0.96854 0.0
C605 C 0.95904 0.44771 0.99192 0.0
O606 O 0.02896 0.47895 0.03156 0.0
O607 O 0.04072 0.47757 0.00324 0.0
O608 O 0.00852 0.47387 0.9746 0.0
O609 O 0.0056 0.50556 0.98314 0.0
O610 O 0.97862 0.45162 0.00276 0.0
O611 O 0.9562 0.46661 0.9863 0.0
C612 C 0.94737 0.51983 0.98053 0.0
O613 O 0.9433 0.50619 0.99533 0.0
O614 O 0.96854 0.52623 0.97512 0.0
C615 C 0.9867 0.50427 0.0347 0.0
Tb616 Tb 0.47276 0.49739 0.00829 0.0
C617 C 0.48349 0.45647 0.98966 0.0
Tb618 Tb 0.52442 0.51475 0.99736 0.0
O619 O 0.45846 0.48605 0.97695 0.0
O620 O 0.49377 0.51513 0.98506 0.0
O621 O 0.46956 0.46049 0.00137 0.0
C622 C 0.56401 0.52516 0.97973 0.0
O623 O 0.50408 0.47513 0.98453 0.0
C624 C 0.518 0.51068 0.03511 0.0
C625 C 0.51368 0.55606 0.01476 0.0
O626 O 0.55663 0.51162 0.99457 0.0
O627 O 0.54916 0.53291 0.97488 0.0
O628 O 0.53843 0.52642 0.02877 0.0
O629 O 0.50332 0.49681 0.02055 0.0
O630 O 0.52745 0.55147 0.0033 0.0
O631 O 0.4931 0.53765 0.02027 0.0
C632 C 0.43362 0.48599 0.02691 0.0
O633 O 0.44061 0.50025 0.01244 0.0
O634 O 0.44865 0.47819 0.03086 0.0
C635 C 0.47893 0.5015 0.97047 0.0
Tb636 Tb 0.19365 0.35443 0.33284 0.0
C637 C 0.18274 0.30218 0.34621 0.0
Tb638 Tb 0.14147 0.31663 0.34138 0.0
O639 O 0.20583 0.35804 0.36431 0.0
O640 O 0.17107 0.35043 0.35552 0.0
O641 O 0.19666 0.32098 0.33578 0.0
C642 C 0.10199 0.28663 0.35868 0.0
O643 O 0.16179 0.29866 0.35168 0.0
C644 C 0.14928 0.31783 0.30395 0.0
C645 C 0.15265 0.36927 0.32771 0.0
O646 O 0.10853 0.28004 0.34262 0.0
O647 O 0.11767 0.31006 0.36495 0.0
O648 O 0.12835 0.31132 0.31009 0.0
O649 O 0.16383 0.32066 0.31847 0.0
O650 O 0.13722 0.349 0.33614 0.0
O651 O 0.17462 0.37415 0.32415 0.0
C652 C 0.23423 0.38528 0.31702 0.0
O653 O 0.23017 0.3876 0.33536 0.0
O654 O 0.21541 0.3657 0.30759 0.0
C655 C 0.18505 0.35264 0.37019 0.0
Tb656 Tb 0.64452 0.8403 0.32935 0.0
C657 C 0.69755 0.88084 0.34583 0.0
Tb658 Tb 0.6798 0.82169 0.34046 0.0
O659 O 0.64606 0.85373 0.36031 0.0
O660 O 0.65118 0.82314 0.35318 0.0
O661 O 0.67779 0.87696 0.33517 0.0
C662 C 0.71109 0.81044 0.35789 0.0
O663 O 0.70065 0.86202 0.35116 0.0
C664 C 0.6724 0.82455 0.30256 0.0
C665 C 0.62716 0.7811 0.32447 0.0
O666 O 0.71379 0.82146 0.34171 0.0
O667 O 0.69077 0.80576 0.3643 0.0
O668 O 0.67782 0.80839 0.30925 0.0
O669 O 0.67343 0.83935 0.31683 0.0
O670 O 0.64654 0.7855 0.33589 0.0
O671 O 0.62412 0.79968 0.31831 0.0
C672 C 0.61325 0.85136 0.31168 0.0
O673 O 0.60996 0.83927 0.32735 0.0
O674 O 0.63416 0.85719 0.30591 0.0
C675 C 0.65197 0.83807 0.36728 0.0
Tb676 Tb 0.14075 0.82993 0.342 0.0
C677 C 0.15374 0.78621 0.33316 0.0
Tb678 Tb 0.19347 0.84429 0.33748 0.0
O679 O 0.13657 0.8398 0.31189 0.0
O680 O 0.16079 0.82784 0.31916 0.0
O681 O 0.13782 0.79229 0.3395 0.0
C682 C 0.2361 0.86176 0.32285 0.0
O683 O 0.17555 0.80358 0.32895 0.0
C684 C 0.18014 0.83657 0.37344 0.0
C685 C 0.18076 0.888 0.3464 0.0
O686 O 0.22994 0.84976 0.33861 0.0
O687 O 0.21836 0.86408 0.31549 0.0
O688 O 0.19769 0.83404 0.36729 0.0
O689 O 0.17341 0.84616 0.3605 0.0
O690 O 0.19622 0.88161 0.33956 0.0
O691 O 0.15902 0.87078 0.3509 0.0
C692 C 0.09807 0.81287 0.35642 0.0
O693 O 0.10468 0.82541 0.34098 0.0
O694 O 0.1154 0.80974 0.36361 0.0
C695 C 0.1541 0.83708 0.30595 0.0
Tb696 Tb 0.85721 0.6865 0.66489 0.0
C697 C 0.84532 0.63361 0.67733 0.0
Tb698 Tb 0.80502 0.64955 0.67369 0.0
O699 O 0.86996 0.68875 0.69596 0.0
O700 O 0.83539 0.6824 0.68823 0.0
O701 O 0.85942 0.65247 0.66703 0.0
C702 C 0.76561 0.61969 0.69108 0.0
O703 O 0.82465 0.63051 0.68311 0.0
C704 C 0.81241 0.65201 0.63612 0.0
C705 C 0.81719 0.70285 0.66125 0.0
O706 O 0.77172 0.61324 0.67471 0.0
O707 O 0.78164 0.64292 0.69758 0.0
O708 O 0.79175 0.64604 0.64258 0.0
O709 O 0.82678 0.65364 0.6503 0.0
O710 O 0.80184 0.68283 0.66995 0.0
O711 O 0.83864 0.7069 0.65679 0.0
C712 C 0.89789 0.71707 0.64924 0.0
O713 O 0.89301 0.72054 0.66709 0.0
O714 O 0.87979 0.69645 0.64013 0.0
C715 C 0.84952 0.68365 0.70241 0.0
Tb716 Tb 0.31218 0.17289 0.66168 0.0
C717 C 0.36481 0.21281 0.67918 0.0
Tb718 Tb 0.34693 0.15371 0.67273 0.0
O719 O 0.31337 0.18562 0.69283 0.0
O720 O 0.31817 0.155 0.68526 0.0
O721 O 0.3456 0.20927 0.66794 0.0
C722 C 0.37801 0.14188 0.68967 0.0
O723 O 0.36781 0.19381 0.68417 0.0
C724 C 0.34 0.15718 0.63484 0.0
C725 C 0.29435 0.11371 0.65645 0.0
O726 O 0.35944 0.14037 0.69754 0.0
O727 O 0.37904 0.15005 0.67235 0.0
O728 O 0.34495 0.14067 0.64148 0.0
O729 O 0.34112 0.17197 0.64918 0.0
O730 O 0.31329 0.11783 0.66836 0.0
O731 O 0.29194 0.13253 0.64995 0.0
C732 C 0.28165 0.18492 0.64405 0.0
O733 O 0.27698 0.17044 0.65833 0.0
O734 O 0.30345 0.19254 0.63965 0.0
C735 C 0.31891 0.16958 0.6996 0.0
Tb736 Tb 0.80796 0.16296 0.67622 0.0
C737 C 0.82443 0.1241 0.6628 0.0
Tb738 Tb 0.86072 0.18407 0.66759 0.0
O739 O 0.79512 0.14969 0.64494 0.0
O740 O 0.82936 0.18115 0.65316 0.0
O741 O 0.80727 0.12704 0.67048 0.0
C742 C 0.90214 0.19786 0.65168 0.0
O743 O 0.84591 0.14347 0.65999 0.0
C744 C 0.85268 0.17976 0.7051 0.0
C745 C 0.84439 0.22237 0.67974 0.0
O746 O 0.88076 0.18351 0.64249 0.0
O747 O 0.90014 0.20432 0.66974 0.0
O748 O 0.87304 0.19632 0.69923 0.0
O749 O 0.83911 0.16515 0.69032 0.0
O750 O 0.85815 0.21812 0.66804 0.0
O751 O 0.82559 0.20353 0.68696 0.0
C752 C 0.76747 0.14944 0.69347 0.0
O753 O 0.77399 0.16285 0.67847 0.0
O754 O 0.7837 0.1437 0.69866 0.0
C755 C 0.81545 0.16589 0.63868 0.0
H756 H 0.328 0.88041 0.10771 0.0
H757 H 0.29083 0.83737 0.05139 0.0
H758 H 0.36297 0.90816 0.09105 0.0
H759 H 0.32547 0.86596 0.03454 0.0
H760 H 0.40264 0.90286 0.01553 0.0
H761 H 0.3663 0.87554 0.03124 0.0
H762 H 0.37703 0.94073 0.06906 0.0
H763 H 0.41366 0.96773 0.05375 0.0
C764 C 0.32725 0.87695 0.09174 0.0
C765 C 0.30668 0.85655 0.08091 0.0
C766 C 0.34721 0.89306 0.08215 0.0
C767 C 0.34707 0.88928 0.06145 0.0
C768 C 0.32629 0.86921 0.05054 0.0
C769 C 0.30632 0.85302 0.06016 0.0
C770 C 0.39714 0.91126 0.02719 0.0
C771 C 0.41092 0.93731 0.0335 0.0
C772 C 0.37626 0.89569 0.03609 0.0
C773 C 0.36874 0.90593 0.05143 0.0
C774 C 0.38247 0.93213 0.05751 0.0
C775 C 0.40338 0.94764 0.04867 0.0
H776 H 0.11226 0.388 0.04638 0.0
H777 H 0.15396 0.45643 0.08671 0.0
H778 H 0.08727 0.40457 0.03387 0.0
H779 H 0.12807 0.47239 0.07464 0.0
H780 H 0.0558 0.47385 0.06087 0.0
H781 H 0.08246 0.45921 0.07425 0.0
H782 H 0.09471 0.44255 0.01457 0.0
H783 H 0.06846 0.45743 0.00126 0.0
C784 C 0.11628 0.40664 0.0525 0.0
C785 C 0.13536 0.42092 0.06749 0.0
C786 C 0.10182 0.41604 0.04539 0.0
C787 C 0.10579 0.43976 0.05327 0.0
C788 C 0.12453 0.45393 0.06844 0.0
C789 C 0.13927 0.4447 0.07538 0.0
C790 C 0.06434 0.46717 0.05067 0.0
C791 C 0.0601 0.46669 0.03006 0.0
C792 C 0.07961 0.45892 0.05831 0.0
C793 C 0.09052 0.44966 0.04541 0.0
C794 C 0.08635 0.44937 0.02481 0.0
C795 C 0.07142 0.45797 0.01722 0.0
H796 H 0.53447 0.70606 0.05255 0.0
H797 H 0.60246 0.71027 0.06817 0.0
H798 H 0.51715 0.66159 0.03914 0.0
H799 H 0.5851 0.66595 0.05523 0.0
H800 H 0.55605 0.59811 0.00879 0.0
H801 H 0.57108 0.64185 0.02186 0.0
H802 H 0.50606 0.6188 0.05072 0.0
H803 H 0.49072 0.57469 0.03749 0.0
C804 C 0.54566 0.69747 0.05315 0.0
C805 C 0.56981 0.71163 0.06143 0.0
C806 C 0.53571 0.672 0.04564 0.0
C807 C 0.54981 0.66036 0.04607 0.0
C808 C 0.57387 0.67449 0.0545 0.0
C809 C 0.58373 0.6998 0.0621 0.0
C810 C 0.54482 0.60224 0.01785 0.0
C811 C 0.52217 0.5828 0.02214 0.0
C812 C 0.55354 0.62736 0.02543 0.0
C813 C 0.53983 0.63372 0.03744 0.0
C814 C 0.51696 0.61445 0.04141 0.0
C815 C 0.50824 0.58919 0.0339 0.0
H816 H 0.84036 0.2908 0.97364 0.0
H817 H 0.87906 0.30333 0.92152 0.0
H818 H 0.86702 0.33568 0.98641 0.0
H819 H 0.90595 0.34787 0.93453 0.0
H820 H 0.96511 0.40684 0.98721 0.0
H821 H 0.93515 0.36342 0.97396 0.0
H822 H 0.88094 0.38498 0.96761 0.0
H823 H 0.91111 0.42892 0.98044 0.0
C824 C 0.85442 0.30322 0.96489 0.0
C825 C 0.85769 0.29375 0.9466 0.0
C826 C 0.86952 0.32877 0.97213 0.0
C827 C 0.88835 0.34496 0.96136 0.0
C828 C 0.89141 0.33562 0.94298 0.0
C829 C 0.87604 0.31027 0.93556 0.0
C830 C 0.94679 0.40236 0.98314 0.0
C831 C 0.94042 0.42125 0.9849 0.0
C832 C 0.92974 0.37758 0.97549 0.0
C833 C 0.90592 0.3711 0.96984 0.0
C834 C 0.89928 0.38971 0.97195 0.0
C835 C 0.9165 0.41473 0.97923 0.0
H836 H 0.71309 0.57816 0.9647 0.0
H837 H 0.68298 0.57322 0.90492 0.0
H838 H 0.67323 0.56086 0.9762 0.0
H839 H 0.64279 0.55476 0.91628 0.0
H840 H 0.58191 0.55496 0.94969 0.0
H841 H 0.62036 0.56839 0.93603 0.0
H842 H 0.63451 0.52296 0.97498 0.0
H843 H 0.59636 0.51017 0.98897 0.0
C844 C 0.69793 0.57326 0.95398 0.0
C845 C 0.70128 0.5773 0.93392 0.0
C846 C 0.67499 0.56301 0.96053 0.0
C847 C 0.65477 0.55642 0.94717 0.0
C848 C 0.65802 0.5599 0.92701 0.0
C849 C 0.68102 0.57022 0.92045 0.0
C850 C 0.59324 0.54779 0.95523 0.0
C851 C 0.58635 0.53176 0.9705 0.0
C852 C 0.61518 0.55532 0.94732 0.0
C853 C 0.63062 0.54688 0.95449 0.0
C854 C 0.62327 0.53017 0.96937 0.0
C855 C 0.60137 0.52273 0.97731 0.0
H856 H 0.47065 0.16658 0.96685 0.0
H857 H 0.42859 0.10654 0.91976 0.0
H858 H 0.47762 0.13722 0.98514 0.0
H859 H 0.4356 0.07717 0.93806 0.0
H860 H 0.43942 0.02722 0.9845 0.0
H861 H 0.42756 0.05591 0.9707 0.0
H862 H 0.5021 0.11592 0.97701 0.0
H863 H 0.51401 0.08738 0.99062 0.0
C864 C 0.4625 0.14698 0.96061 0.0
C865 C 0.44914 0.13883 0.94187 0.0
C866 C 0.46663 0.13026 0.971 0.0
C867 C 0.45723 0.10499 0.96296 0.0
C868 C 0.44292 0.09651 0.94465 0.0
C869 C 0.43905 0.11333 0.93413 0.0
C870 C 0.45322 0.04664 0.98319 0.0
C871 C 0.47766 0.05503 0.9886 0.0
C872 C 0.44643 0.06298 0.9752 0.0
C873 C 0.46392 0.0881 0.97281 0.0
C874 C 0.48823 0.09672 0.97887 0.0
C875 C 0.49505 0.08032 0.98655 0.0
H876 H 0.68576 0.11037 0.91164 0.0
H877 H 0.71663 0.15556 0.96817 0.0
H878 H 0.64596 0.08939 0.92403 0.0
H879 H 0.67697 0.13542 0.98038 0.0
H880 H 0.61201 0.07155 0.00444 0.0
H881 H 0.65029 0.0953 0.9906 0.0
H882 H 0.61263 0.09279 0.9349 0.0
H883 H 0.57405 0.06802 0.94874 0.0
C884 C 0.6839 0.11611 0.92659 0.0
C885 C 0.70425 0.13431 0.93905 0.0
C886 C 0.66112 0.10418 0.93368 0.0
C887 C 0.65827 0.11045 0.95332 0.0
C888 C 0.67855 0.1296 0.96538 0.0
C889 C 0.70127 0.14125 0.95837 0.0
C890 C 0.61191 0.07619 0.98927 0.0
C891 C 0.59013 0.06804 0.97766 0.0
C892 C 0.63389 0.08998 0.98135 0.0
C893 C 0.63464 0.0962 0.96165 0.0
C894 C 0.61274 0.08816 0.95006 0.0
C895 C 0.59066 0.07415 0.958 0.0
H896 H 0.87532 0.5811 0.90923 0.0
H897 H 0.84421 0.57082 0.96513 0.0
H898 H 0.89868 0.56196 0.92036 0.0
H899 H 0.86832 0.55269 0.97678 0.0
H900 H 0.90065 0.50307 0.98726 0.0
H901 H 0.87433 0.51782 0.97388 0.0
H902 H 0.93214 0.57102 0.94202 0.0
H903 H 0.95779 0.55525 0.95464 0.0
C904 C 0.87364 0.57486 0.92398 0.0
C905 C 0.85806 0.57749 0.93636 0.0
C906 C 0.88711 0.564 0.93043 0.0
C907 C 0.8856 0.5559 0.94956 0.0
C908 C 0.86971 0.5583 0.96184 0.0
C909 C 0.85597 0.5688 0.95524 0.0
C910 C 0.90756 0.51777 0.97726 0.0
C911 C 0.93119 0.52807 0.97197 0.0
C912 C 0.89258 0.52639 0.9697 0.0
C913 C 0.90106 0.54574 0.9569 0.0
C914 C 0.92475 0.5558 0.95152 0.0
C915 C 0.93957 0.54692 0.95886 0.0
H916 H 0.43948 0.31821 0.91307 0.0
H917 H 0.46026 0.30441 0.97056 0.0
H918 H 0.44482 0.35855 0.9275 0.0
H919 H 0.46561 0.34489 0.98502 0.0
H920 H 0.45342 0.4119 0.00482 0.0
H921 H 0.44172 0.36872 0.9911 0.0
H922 H 0.48389 0.39913 0.94191 0.0
H923 H 0.49577 0.44202 0.9556 0.0
C924 C 0.44471 0.32357 0.92887 0.0
C925 C 0.44953 0.30824 0.9407 0.0
C926 C 0.44793 0.34671 0.93708 0.0
C927 C 0.45574 0.35484 0.95733 0.0
C928 C 0.45945 0.33898 0.96938 0.0
C929 C 0.45654 0.31595 0.9611 0.0
C930 C 0.46007 0.40928 0.99104 0.0
C931 C 0.47562 0.4303 0.98134 0.0
C932 C 0.45346 0.38464 0.98326 0.0
C933 C 0.46186 0.38065 0.96544 0.0
C934 C 0.47698 0.40166 0.95557 0.0
C935 C 0.48393 0.42622 0.96351 0.0
H936 H 0.15009 0.6647 0.08715 0.0
H937 H 0.13414 0.70919 0.04859 0.0
H938 H 0.11832 0.62591 0.0686 0.0
H939 H 0.10204 0.66996 0.02979 0.0
H940 H 0.02984 0.59051 0.01769 0.0
H941 H 0.06198 0.63202 0.03317 0.0
H942 H 0.11119 0.60333 0.03595 0.0
H943 H 0.07927 0.56206 0.02098 0.0
C944 C 0.13996 0.66619 0.07453 0.0
C945 C 0.14489 0.69003 0.06916 0.0
C946 C 0.12173 0.64393 0.06388 0.0
C947 C 0.1079 0.64485 0.04752 0.0
C948 C 0.11237 0.66866 0.04235 0.0
C949 C 0.13072 0.69108 0.05309 0.0
C950 C 0.04763 0.59323 0.02137 0.0
C951 C 0.05192 0.5729 0.01836 0.0
C952 C 0.06603 0.617 0.0302 0.0
C953 C 0.089 0.62081 0.0361 0.0
C954 C 0.09353 0.60083 0.03205 0.0
C955 C 0.07522 0.57717 0.02337 0.0
H956 H 0.31444 0.42482 0.10155 0.0
H957 H 0.28684 0.44064 0.04822 0.0
H958 H 0.35443 0.44396 0.08979 0.0
H959 H 0.3264 0.4587 0.0359 0.0
H960 H 0.40392 0.50563 0.02353 0.0
H961 H 0.36634 0.49218 0.03867 0.0
H962 H 0.37532 0.43516 0.06642 0.0
H963 H 0.4134 0.44965 0.0521 0.0
C964 C 0.317 0.43239 0.08728 0.0
C965 C 0.29762 0.43127 0.07578 0.0
C966 C 0.33986 0.44321 0.08044 0.0
C967 C 0.34374 0.45276 0.06177 0.0
C968 C 0.32432 0.45199 0.05047 0.0
C969 C 0.30157 0.44154 0.05747 0.0
C970 C 0.39787 0.49038 0.03303 0.0
C971 C 0.41143 0.4786 0.03662 0.0
C972 C 0.37626 0.48252 0.0416 0.0
C973 C 0.36759 0.46243 0.05373 0.0
C974 C 0.38151 0.45095 0.05749 0.0
C975 C 0.40327 0.45909 0.04915 0.0
H976 H 0.60479 0.91998 0.07034 0.0
H977 H 0.54007 0.84913 0.04924 0.0
H978 H 0.58671 0.94333 0.05693 0.0
H979 H 0.52178 0.8727 0.03626 0.0
H980 H 0.49151 0.92841 0.03523 0.0
H981 H 0.50786 0.90314 0.04842 0.0
H982 H 0.57436 0.94907 0.02268 0.0
H983 H 0.55821 0.97429 0.00953 0.0
C984 C 0.58675 0.90935 0.06278 0.0
C985 C 0.57401 0.88263 0.06071 0.0
C986 C 0.57638 0.92276 0.05514 0.0
C987 C 0.55292 0.90983 0.04541 0.0
C988 C 0.53985 0.88316 0.0438 0.0
C989 C 0.55032 0.86969 0.0513 0.0
C990 C 0.50955 0.933 0.03226 0.0
C991 C 0.52355 0.95341 0.02134 0.0
C992 C 0.51886 0.91848 0.03977 0.0
C993 C 0.54243 0.92427 0.03669 0.0
C994 C 0.55625 0.94438 0.02551 0.0
C995 C 0.5469 0.95872 0.01786 0.0
H996 H 0.95996 0.17226 0.38734 0.0
H997 H 0.00151 0.20724 0.44413 0.0
H998 H 0.99393 0.20205 0.37052 0.0
H999 H 0.03583 0.23619 0.42731 0.0
H1000 H 0.08654 0.29911 0.39184 0.0
H1001 H 0.05071 0.27181 0.40805 0.0
H1002 H 0.0332 0.20942 0.36384 0.0
H1003 H 0.06868 0.23701 0.34739 0.0
C1004 C 0.97626 0.18644 0.39625 0.0
C1005 C 0.97802 0.18728 0.41709 0.0
C1006 C 0.99586 0.2033 0.3866 0.0
C1007 C 0.01771 0.2214 0.39754 0.0
C1008 C 0.01924 0.22265 0.4184 0.0
C1009 C 0.99964 0.20583 0.42805 0.0
C1010 C 0.07493 0.27958 0.38558 0.0
C1011 C 0.0803 0.27013 0.36838 0.0
C1012 C 0.05448 0.26389 0.39491 0.0
C1013 C 0.03904 0.23839 0.38726 0.0
C1014 C 0.04446 0.22905 0.36996 0.0
C1015 C 0.06487 0.24477 0.36061 0.0
H1016 H 0.80281 0.74623 0.3713 0.0
H1017 H 0.79594 0.76504 0.43221 0.0
H1018 H 0.77858 0.76418 0.35985 0.0
H1019 H 0.77233 0.7839 0.42072 0.0
H1020 H 0.70622 0.78527 0.39074 0.0
H1021 H 0.73251 0.77031 0.40397 0.0
H1022 H 0.78007 0.80439 0.35843 0.0
H1023 H 0.75351 0.8188 0.34503 0.0
C1024 C 0.79615 0.75425 0.38226 0.0
C1025 C 0.80119 0.75405 0.40267 0.0
C1026 C 0.7825 0.76484 0.37569 0.0
C1027 C 0.77353 0.77554 0.38936 0.0
C1028 C 0.77878 0.77561 0.4098 0.0
C1029 C 0.79251 0.76504 0.41638 0.0
C1030 C 0.72239 0.78965 0.38367 0.0
C1031 C 0.72778 0.803 0.36679 0.0
C1032 C 0.73752 0.78123 0.3913 0.0
C1033 C 0.75833 0.786 0.38218 0.0
C1034 C 0.76399 0.80001 0.36561 0.0
C1035 C 0.74886 0.80839 0.35799 0.0
H1036 H 0.20439 0.04087 0.37846 0.0
H1037 H 0.27035 0.04233 0.39727 0.0
H1038 H 0.18679 0.99672 0.36424 0.0
H1039 H 0.25262 0.99823 0.38362 0.0
H1040 H 0.22414 0.92857 0.34004 0.0
H1041 H 0.23989 0.97314 0.35111 0.0
H1042 H 0.17296 0.95414 0.37559 0.0
H1043 H 0.15696 0.90941 0.36429 0.0
C1044 C 0.21512 0.03177 0.37954 0.0
C1045 C 0.23873 0.04505 0.38904 0.0
C1046 C 0.20498 0.00646 0.37154 0.0
C1047 C 0.21834 0.99402 0.37274 0.0
C1048 C 0.24195 0.00736 0.38221 0.0
C1049 C 0.25201 0.03254 0.39027 0.0
C1050 C 0.21264 0.93383 0.34763 0.0
C1051 C 0.18934 0.91532 0.35143 0.0
C1052 C 0.22175 0.95941 0.35407 0.0
C1053 C 0.20778 0.96713 0.36444 0.0
C1054 C 0.18413 0.9488 0.36755 0.0
C1055 C 0.175 0.92315 0.36113 0.0
H1056 H 0.56346 0.62139 0.28809 0.0
H1057 H 0.50486 0.63442 0.27254 0.0
H1058 H 0.58875 0.66576 0.30104 0.0
H1059 H 0.53005 0.67896 0.28595 0.0
H1060 H 0.59217 0.76292 0.29304 0.0
H1061 H 0.56475 0.71858 0.28027 0.0
H1062 H 0.59321 0.69465 0.32824 0.0
H1063 H 0.621 0.73875 0.34053 0.0
C1064 C 0.5559 0.63372 0.28767 0.0
C1065 C 0.53213 0.62439 0.27943 0.0
C1066 C 0.57037 0.65918 0.29515 0.0
C1067 C 0.56139 0.67596 0.29475 0.0
C1068 C 0.53763 0.66666 0.28634 0.0
C1069 C 0.52318 0.64115 0.27869 0.0
C1070 C 0.59239 0.74815 0.30093 0.0
C1071 C 0.6089 0.75436 0.3177 0.0
C1072 C 0.57662 0.72272 0.29365 0.0
C1073 C 0.57693 0.70299 0.30308 0.0
C1074 C 0.59286 0.70931 0.32029 0.0
C1075 C 0.60872 0.73464 0.32743 0.0
H1076 H 0.38773 0.92966 0.30558 0.0
H1077 H 0.35215 0.90631 0.24586 0.0
H1078 H 0.34878 0.91256 0.31885 0.0
H1079 H 0.31303 0.88825 0.25918 0.0
H1080 H 0.25014 0.88654 0.28981 0.0
H1081 H 0.28881 0.90239 0.27599 0.0
H1082 H 0.31289 0.87286 0.32278 0.0
H1083 H 0.27435 0.85756 0.3368 0.0
C1084 C 0.37158 0.92086 0.29527 0.0
C1085 C 0.37309 0.91952 0.27464 0.0
C1086 C 0.34921 0.91076 0.30289 0.0
C1087 C 0.32775 0.89902 0.29009 0.0
C1088 C 0.32922 0.89741 0.26946 0.0
C1089 C 0.35163 0.90751 0.26182 0.0
C1090 C 0.26374 0.88349 0.29713 0.0
C1091 C 0.25937 0.87098 0.31442 0.0
C1092 C 0.28582 0.89238 0.28913 0.0
C1093 C 0.30399 0.88892 0.29828 0.0
C1094 C 0.29944 0.87617 0.31552 0.0
C1095 C 0.27735 0.8673 0.32351 0.0
H1096 H 0.1364 0.49838 0.30189 0.0
H1097 H 0.096 0.43946 0.2537 0.0
H1098 H 0.14381 0.46886 0.31963 0.0
H1099 H 0.10324 0.40988 0.27153 0.0
H1100 H 0.10675 0.35936 0.31799 0.0
H1101 H 0.09463 0.38816 0.30472 0.0
H1102 H 0.16919 0.44803 0.31005 0.0
H1103 H 0.18137 0.41932 0.323 0.0
C1104 C 0.1287 0.47897 0.29531 0.0
C1105 C 0.1157 0.47116 0.27643 0.0
C1106 C 0.13305 0.46218 0.30539 0.0
C1107 C 0.12413 0.43717 0.2969 0.0
C1108 C 0.11016 0.42901 0.27844 0.0
C1109 C 0.10615 0.44593 0.26822 0.0
C1110 C 0.1205 0.37877 0.31657 0.0
C1111 C 0.14501 0.3871 0.32147 0.0
C1112 C 0.11357 0.39515 0.3089 0.0
C1113 C 0.13099 0.42026 0.30643 0.0
C1114 C 0.15539 0.42882 0.312 0.0
C1115 C 0.16235 0.41234 0.31929 0.0
H1116 H 0.35475 0.47082 0.24642 0.0
H1117 H 0.38362 0.453 0.298 0.0
H1118 H 0.31502 0.45112 0.25913 0.0
H1119 H 0.34408 0.43324 0.31056 0.0
H1120 H 0.27647 0.42245 0.3368 0.0
H1121 H 0.31555 0.44596 0.32361 0.0
H1122 H 0.28306 0.40665 0.26529 0.0
H1123 H 0.24394 0.38312 0.27853 0.0
C1124 C 0.35261 0.46281 0.2605 0.0
C1125 C 0.37222 0.46332 0.27118 0.0
C1126 C 0.32989 0.45142 0.2677 0.0
C1127 C 0.32648 0.44069 0.28586 0.0
C1128 C 0.3462 0.44157 0.29663 0.0
C1129 C 0.36878 0.45265 0.28934 0.0
C1130 C 0.27767 0.41904 0.32114 0.0
C1131 C 0.25728 0.40093 0.30869 0.0
C1132 C 0.30002 0.43238 0.31361 0.0
C1133 C 0.30238 0.42803 0.29345 0.0
C1134 C 0.28176 0.41053 0.28085 0.0
C1135 C 0.25942 0.397 0.28844 0.0
H1136 H 0.53 0.8985 0.23741 0.0
H1137 H 0.51949 0.91309 0.29821 0.0
H1138 H 0.55388 0.87996 0.24885 0.0
H1139 H 0.54327 0.89462 0.30959 0.0
H1140 H 0.56957 0.84059 0.32318 0.0
H1141 H 0.54287 0.85481 0.30973 0.0
H1142 H 0.59295 0.89358 0.26685 0.0
H1143 H 0.61937 0.87881 0.28009 0.0
C1144 C 0.5328 0.89778 0.25321 0.0
C1145 C 0.52279 0.90725 0.26689 0.0
C1146 C 0.5465 0.88717 0.25976 0.0
C1147 C 0.55048 0.88578 0.28014 0.0
C1148 C 0.54021 0.89497 0.29377 0.0
C1149 C 0.52655 0.90556 0.28723 0.0
C1150 C 0.57474 0.85198 0.31077 0.0
C1151 C 0.59655 0.85873 0.30272 0.0
C1152 C 0.55954 0.86026 0.30314 0.0
C1153 C 0.56585 0.8755 0.2873 0.0
C1154 C 0.58743 0.88167 0.27892 0.0
C1155 C 0.60263 0.87335 0.28656 0.0
H1156 H 0.09317 0.64149 0.26536 0.0
H1157 H 0.14519 0.64019 0.30762 0.0
H1158 H 0.09939 0.6804 0.28349 0.0
H1159 H 0.15153 0.6792 0.32564 0.0
H1160 H 0.18291 0.76644 0.32807 0.0
H1161 H 0.17128 0.72309 0.31639 0.0
H1162 H 0.09613 0.70117 0.31538 0.0
H1163 H 0.10782 0.74494 0.32705 0.0
C1164 C 0.10551 0.64916 0.27877 0.0
C1165 C 0.11894 0.63793 0.28488 0.0
C1166 C 0.10907 0.67147 0.28917 0.0
C1167 C 0.12615 0.68301 0.30587 0.0
C1168 C 0.13855 0.67098 0.31262 0.0
C1169 C 0.13496 0.64868 0.30226 0.0
C1170 C 0.16388 0.75236 0.32559 0.0
C1171 C 0.14629 0.75918 0.32835 0.0
C1172 C 0.15722 0.72743 0.31904 0.0
C1173 C 0.13278 0.7087 0.31494 0.0
C1174 C 0.11511 0.71527 0.31829 0.0
C1175 C 0.1218 0.74027 0.32508 0.0
H1176 H 0.78627 0.02575 0.41461 0.0
H1177 H 0.83507 0.02004 0.37604 0.0
H1178 H 0.7525 0.9878 0.39617 0.0
H1179 H 0.80136 0.98192 0.35788 0.0
H1180 H 0.74445 0.89642 0.35687 0.0
H1181 H 0.77665 0.93879 0.36947 0.0
H1182 H 0.72768 0.96736 0.36244 0.0
H1183 H 0.69507 0.92454 0.34965 0.0
C1184 C 0.78974 0.01678 0.40192 0.0
C1185 C 0.81345 0.02572 0.39699 0.0
C1186 C 0.77037 0.99502 0.39138 0.0
C1187 C 0.77436 0.98174 0.37577 0.0
C1188 C 0.79783 0.99155 0.37008 0.0
C1189 C 0.81713 0.01333 0.38052 0.0
C1190 C 0.74049 0.9117 0.35786 0.0
C1191 C 0.71718 0.9071 0.3523 0.0
C1192 C 0.75904 0.93605 0.36493 0.0
C1193 C 0.75472 0.95642 0.36684 0.0
C1194 C 0.73147 0.95197 0.36113 0.0
C1195 C 0.71288 0.92754 0.35374 0.0
H1196 H 0.98162 0.76982 0.43297 0.0
H1197 H 0.94682 0.75056 0.37307 0.0
H1198 H 0.02079 0.78624 0.4199 0.0
H1199 H 0.9858 0.76674 0.36003 0.0
H1200 H 0.06122 0.81974 0.3432 0.0
H1201 H 0.0228 0.80548 0.35712 0.0
H1202 H 0.04396 0.77152 0.40226 0.0
H1203 H 0.08263 0.78641 0.38857 0.0
C1204 C 0.98232 0.76902 0.41703 0.0
C1205 C 0.9611 0.75899 0.40408 0.0
C1206 C 0.00476 0.77838 0.40952 0.0
C1207 C 0.00648 0.77785 0.3889 0.0
C1208 C 0.98523 0.7679 0.37599 0.0
C1209 C 0.96285 0.75861 0.38348 0.0
C1210 C 0.05762 0.80924 0.3561 0.0
C1211 C 0.0748 0.80408 0.36477 0.0
C1212 C 0.03558 0.80096 0.36404 0.0
C1213 C 0.03023 0.78727 0.3808 0.0
C1214 C 0.04758 0.78227 0.38951 0.0
C1215 C 0.06965 0.79062 0.38159 0.0
H1216 H 0.22174 0.21076 0.4156 0.0
H1217 H 0.25631 0.21647 0.36177 0.0
H1218 H 0.20354 0.23428 0.40237 0.0
H1219 H 0.23776 0.23938 0.34831 0.0
H1220 H 0.22635 0.30628 0.34127 0.0
H1221 H 0.24184 0.2802 0.35346 0.0
H1222 H 0.1745 0.23321 0.37784 0.0
H1223 H 0.15917 0.25992 0.36613 0.0
C1224 C 0.22517 0.21676 0.40083 0.0
C1225 C 0.24063 0.21202 0.38979 0.0
C1226 C 0.21469 0.23016 0.3932 0.0
C1227 C 0.21932 0.23892 0.37431 0.0
C1228 C 0.23423 0.23345 0.36308 0.0
C1229 C 0.24483 0.22027 0.37076 0.0
C1230 C 0.21472 0.29031 0.34911 0.0
C1231 C 0.19147 0.28521 0.35268 0.0
C1232 C 0.2236 0.27522 0.35603 0.0
C1233 C 0.20942 0.2545 0.36659 0.0
C1234 C 0.18603 0.24919 0.36997 0.0
C1235 C 0.17717 0.26441 0.36313 0.0
H1236 H 0.62384 0.50613 0.72078 0.0
H1237 H 0.66656 0.53967 0.7773 0.0
H1238 H 0.65765 0.53584 0.7038 0.0
H1239 H 0.70072 0.5685 0.76027 0.0
H1240 H 0.7512 0.63186 0.72501 0.0
H1241 H 0.71568 0.60455 0.74154 0.0
H1242 H 0.69645 0.54278 0.69619 0.0
H1243 H 0.73161 0.5704 0.67942 0.0
C1244 C 0.64037 0.51996 0.7296 0.0
C1245 C 0.64249 0.52044 0.75041 0.0
C1246 C 0.65988 0.53678 0.71984 0.0
C1247 C 0.682 0.55445 0.73064 0.0
C1248 C 0.68392 0.5553 0.75148 0.0
C1249 C 0.6644 0.53855 0.76124 0.0
C1250 C 0.73927 0.61247 0.71856 0.0
C1251 C 0.74406 0.6032 0.70094 0.0
C1252 C 0.71901 0.59677 0.72808 0.0
C1253 C 0.70317 0.57145 0.72021 0.0
C1254 C 0.70802 0.56229 0.7025 0.0
C1255 C 0.72825 0.57802 0.69295 0.0
H1256 H 0.45294 0.0608 0.71018 0.0
H1257 H 0.48137 0.11821 0.76056 0.0
H1258 H 0.42822 0.07769 0.69771 0.0
H1259 H 0.45558 0.13424 0.74836 0.0
H1260 H 0.38219 0.13122 0.72774 0.0
H1261 H 0.4088 0.11676 0.74156 0.0
H1262 H 0.43725 0.12043 0.68483 0.0
H1263 H 0.41104 0.13519 0.67115 0.0
C1264 C 0.45414 0.07713 0.71855 0.0
C1265 C 0.46944 0.08824 0.73633 0.0
C1266 C 0.4398 0.08667 0.71143 0.0
C1267 C 0.44007 0.10729 0.72205 0.0
C1268 C 0.45494 0.1182 0.73998 0.0
C1269 C 0.46962 0.1089 0.74697 0.0
C1270 C 0.39427 0.12906 0.71832 0.0
C1271 C 0.39457 0.1342 0.69839 0.0
C1272 C 0.40951 0.12092 0.72623 0.0
C1273 C 0.42495 0.11737 0.71421 0.0
C1274 C 0.42537 0.1228 0.69435 0.0
C1275 C 0.41046 0.13132 0.68656 0.0
H1276 H 0.88761 0.36478 0.7481 0.0
H1277 H 0.89948 0.38568 0.68828 0.0
H1278 H 0.86943 0.32015 0.73563 0.0
H1279 H 0.88115 0.341 0.67575 0.0
H1280 H 0.88023 0.26521 0.66659 0.0
H1281 H 0.89279 0.30907 0.67725 0.0
H1282 H 0.83543 0.28402 0.71578 0.0
H1283 H 0.82306 0.23986 0.70538 0.0
C1284 C 0.88591 0.3598 0.73224 0.0
C1285 C 0.89514 0.37878 0.71919 0.0
C1286 C 0.87546 0.3342 0.72508 0.0
C1287 C 0.87397 0.32701 0.7047 0.0
C1288 C 0.88241 0.34594 0.69158 0.0
C1289 C 0.89291 0.37153 0.69874 0.0
C1290 C 0.87013 0.26896 0.67723 0.0
C1291 C 0.85069 0.24897 0.68519 0.0
C1292 C 0.87725 0.29417 0.68324 0.0
C1293 C 0.86511 0.30008 0.69736 0.0
C1294 C 0.84531 0.2801 0.70502 0.0
C1295 C 0.83815 0.2548 0.69898 0.0
H1296 H 0.20742 0.96972 0.5854 0.0
H1297 H 0.18831 0.95195 0.64489 0.0
H1298 H 0.2323 0.01458 0.59761 0.0
H1299 H 0.21364 0.99674 0.65709 0.0
H1300 H 0.28735 0.07102 0.67253 0.0
H1301 H 0.25823 0.02702 0.66059 0.0
H1302 H 0.23 0.0519 0.61324 0.0
H1303 H 0.25929 0.09617 0.62516 0.0
C1304 C 0.20821 0.97537 0.60101 0.0
C1305 C 0.19597 0.95714 0.61418 0.0
C1306 C 0.2225 0.00109 0.608 0.0
C1307 C 0.22501 0.00912 0.62831 0.0
C1308 C 0.21232 0.99104 0.64139 0.0
C1309 C 0.19789 0.96537 0.6344 0.0
C1310 C 0.27487 0.06718 0.65963 0.0
C1311 C 0.27567 0.08711 0.64977 0.0
C1312 C 0.25807 0.04195 0.65288 0.0
C1313 C 0.24183 0.03603 0.636 0.0
C1314 C 0.24242 0.05593 0.62622 0.0
C1315 C 0.25908 0.08124 0.63312 0.0
H1316 H 0.04661 0.28839 0.61846 0.0
H1317 H 0.02385 0.21362 0.58988 0.0
H1318 H 0.00742 0.27225 0.63111 0.0
H1319 H 0.98439 0.19749 0.60247 0.0
H1320 H 0.90888 0.18601 0.61387 0.0
H1321 H 0.94738 0.20118 0.59953 0.0
H1322 H 0.98544 0.24355 0.65584 0.0
H1323 H 0.94715 0.22864 0.66998 0.0
C1324 C 0.03329 0.26845 0.61498 0.0
C1325 C 0.03848 0.25224 0.60333 0.0
C1326 C 0.0108 0.25921 0.62221 0.0
C1327 C 0.99288 0.23354 0.61794 0.0
C1328 C 0.99778 0.21741 0.60589 0.0
C1329 C 0.02038 0.22666 0.59868 0.0
C1330 C 0.92553 0.19851 0.62313 0.0
C1331 C 0.92512 0.20624 0.64299 0.0
C1332 C 0.94753 0.2071 0.61497 0.0
C1333 C 0.96944 0.22369 0.62653 0.0
C1334 C 0.96888 0.23112 0.64646 0.0
C1335 C 0.94697 0.22248 0.6546 0.0
H1336 H 0.75882 0.77217 0.58873 0.0
H1337 H 0.80433 0.83349 0.63397 0.0
H1338 H 0.76567 0.74286 0.60727 0.0
H1339 H 0.81127 0.80421 0.65246 0.0
H1340 H 0.84636 0.75232 0.65504 0.0
H1341 H 0.83435 0.78129 0.64242 0.0
H1342 H 0.75942 0.72337 0.64111 0.0
H1343 H 0.7714 0.69431 0.65399 0.0
C1344 C 0.76995 0.77923 0.6028 0.0
C1345 C 0.78112 0.80505 0.60991 0.0
C1346 C 0.77375 0.76248 0.61345 0.0
C1347 C 0.78907 0.77136 0.63123 0.0
C1348 C 0.79946 0.79696 0.63874 0.0
C1349 C 0.79537 0.81363 0.62824 0.0
C1350 C 0.82732 0.74585 0.6523 0.0
C1351 C 0.80982 0.72105 0.65545 0.0
C1352 C 0.82046 0.76249 0.64521 0.0
C1353 C 0.79597 0.75453 0.64083 0.0
C1354 C 0.77842 0.72991 0.64436 0.0
C1355 C 0.78528 0.71338 0.6518 0.0
H1356 H 0.04863 0.78587 0.63611 0.0
H1357 H 0.02202 0.80093 0.58179 0.0
H1358 H 0.00819 0.76596 0.64706 0.0
H1359 H 0.9814 0.78102 0.59282 0.0
H1360 H 0.90959 0.71291 0.61164 0.0
H1361 H 0.94947 0.73629 0.59956 0.0
H1362 H 0.97862 0.77928 0.65716 0.0
H1363 H 0.93883 0.756 0.66918 0.0
C1364 C 0.03409 0.78487 0.62651 0.0
C1365 C 0.03841 0.79485 0.60808 0.0
C1366 C 0.01101 0.7737 0.63285 0.0
C1367 C 0.99169 0.77203 0.62081 0.0
C1368 C 0.99597 0.78198 0.60235 0.0
C1369 C 0.01918 0.79348 0.59611 0.0
C1370 C 0.9245 0.72757 0.62161 0.0
C1371 C 0.92125 0.73261 0.64135 0.0
C1372 C 0.94725 0.74099 0.61469 0.0
C1373 C 0.96714 0.75945 0.62748 0.0
C1374 C 0.96365 0.76494 0.64706 0.0
C1375 C 0.94089 0.75172 0.6539 0.0
H1376 H 0.17648 0.23291 0.62832 0.0
H1377 H 0.21128 0.24921 0.57413 0.0
H1378 H 0.20044 0.21438 0.63938 0.0
H1379 H 0.23452 0.22966 0.58461 0.0
H1380 H 0.2928 0.22213 0.61969 0.0
H1381 H 0.26697 0.23769 0.60705 0.0
H1382 H 0.20764 0.18045 0.6352 0.0
H1383 H 0.23405 0.16588 0.64866 0.0
C1384 C 0.18899 0.23208 0.61864 0.0
C1385 C 0.19219 0.2426 0.60046 0.0
C1386 C 0.20267 0.22136 0.6249 0.0
C1387 C 0.21959 0.22057 0.61295 0.0
C1388 C 0.22213 0.23042 0.59444 0.0
C1389 C 0.20873 0.2415 0.58835 0.0
C1390 C 0.2742 0.21285 0.62307 0.0
C1391 C 0.26541 0.19293 0.63521 0.0
C1392 C 0.25929 0.22162 0.61571 0.0
C1393 C 0.23512 0.21039 0.62009 0.0
C1394 C 0.22623 0.18992 0.63183 0.0
C1395 C 0.24128 0.18141 0.63942 0.0
H1396 H 0.82862 0.00549 0.59289 0.0
H1397 H 0.77119 0.96199 0.62894 0.0
H1398 H 0.8345 0.04465 0.60983 0.0
H1399 H 0.77726 0.0015 0.6462 0.0
H1400 H 0.78064 0.08003 0.65537 0.0
H1401 H 0.77306 0.03865 0.64101 0.0
H1402 H 0.84985 0.06856 0.64196 0.0
H1403 H 0.85736 0.10976 0.65573 0.0
C1404 C 0.81744 0.00432 0.60464 0.0
C1405 C 0.79965 0.98066 0.60975 0.0
C1406 C 0.82082 0.02678 0.61439 0.0
C1407 C 0.80657 0.02622 0.62958 0.0
C1408 C 0.78846 0.00256 0.6345 0.0
C1409 C 0.785 0.97997 0.62465 0.0
C1410 C 0.79587 0.07762 0.65273 0.0
C1411 C 0.81958 0.09824 0.65648 0.0
C1412 C 0.79153 0.05392 0.64454 0.0
C1413 C 0.81085 0.05043 0.64005 0.0
C1414 C 0.83454 0.07077 0.64476 0.0
C1415 C 0.83885 0.09439 0.65277 0.0
H1416 H 0.49121 0.36285 0.70564 0.0
H1417 H 0.45392 0.34912 0.75863 0.0
H1418 H 0.45746 0.32328 0.68854 0.0
H1419 H 0.42052 0.30959 0.74165 0.0
H1420 H 0.39346 0.2262 0.71375 0.0
H1421 H 0.42345 0.26875 0.7285 0.0
H1422 H 0.40809 0.30081 0.67867 0.0
H1423 H 0.37733 0.25791 0.66395 0.0
C1424 C 0.47565 0.35157 0.71349 0.0
C1425 C 0.47514 0.35899 0.73344 0.0
C1426 C 0.45637 0.32909 0.7037 0.0
C1427 C 0.43654 0.31348 0.71386 0.0
C1428 C 0.43566 0.32135 0.73355 0.0
C1429 C 0.45469 0.344 0.7432 0.0
C1430 C 0.39645 0.24227 0.70588 0.0
C1431 C 0.38314 0.23876 0.68765 0.0
C1432 C 0.41348 0.2666 0.71441 0.0
C1433 C 0.41794 0.28794 0.70472 0.0
C1434 C 0.4049 0.28456 0.68638 0.0
C1435 C 0.38735 0.26012 0.67802 0.0
H1436 H 0.62719 0.05502 0.73152 0.0
H1437 H 0.6409 0.13071 0.74917 0.0
H1438 H 0.66683 0.07303 0.71947 0.0
H1439 H 0.68025 0.1486 0.73619 0.0
H1440 H 0.73429 0.16425 0.68687 0.0
H1441 H 0.69577 0.14859 0.70129 0.0
H1442 H 0.71104 0.09965 0.73488 0.0
H1443 H 0.74957 0.1155 0.72072 0.0
C1444 C 0.63867 0.07548 0.73306 0.0
C1445 C 0.63076 0.09135 0.7415 0.0
C1446 C 0.66136 0.08577 0.72602 0.0
C1447 C 0.67657 0.11218 0.72694 0.0
C1448 C 0.66874 0.12815 0.73518 0.0
C1449 C 0.64615 0.11786 0.74252 0.0
C1450 C 0.72942 0.15028 0.69744 0.0
C1451 C 0.74476 0.14097 0.70264 0.0
C1452 C 0.7075 0.14143 0.70573 0.0
C1453 C 0.70044 0.12285 0.71911 0.0
C1454 C 0.71597 0.11381 0.72447 0.0
C1455 C 0.73801 0.12293 0.71642 0.0
H1456 H 0.86891 0.51535 0.722 0.0
H1457 H 0.93927 0.58241 0.7233 0.0
H1458 H 0.85041 0.53826 0.7081 0.0
H1459 H 0.92085 0.60525 0.70949 0.0
H1460 H 0.88403 0.63082 0.66574 0.0
H1461 H 0.90034 0.60556 0.67848 0.0
H1462 H 0.84304 0.57313 0.71686 0.0
H1463 H 0.8264 0.5981 0.70387 0.0
C1464 C 0.8804 0.53504 0.71949 0.0
C1465 C 0.90557 0.54702 0.72365 0.0
C1466 C 0.86981 0.54815 0.71152 0.0
C1467 C 0.88417 0.57351 0.70754 0.0
C1468 C 0.9093 0.58556 0.71197 0.0
C1469 C 0.91987 0.57248 0.71991 0.0
C1470 C 0.87475 0.61816 0.67677 0.0
C1471 C 0.85392 0.61655 0.6838 0.0
C1472 C 0.88421 0.6038 0.68418 0.0
C1473 C 0.87313 0.58752 0.69884 0.0
C1474 C 0.8519 0.58533 0.70546 0.0
C1475 C 0.84238 0.59969 0.69802 0.0
H1476 H 0.49153 0.95602 0.15063 0.0
H1477 H 0.46408 0.00763 0.1556 0.0
H1478 H 0.49981 0.96551 0.11666 0.0
H1479 H 0.47361 0.01818 0.12192 0.0
H1480 H 0.47625 0.01638 0.0545 0.0
H1481 H 0.46346 0.00302 0.08715 0.0
H1482 H 0.52858 0.00034 0.1006 0.0
H1483 H 0.54048 0.01227 0.06766 0.0
C1484 C 0.48702 0.96921 0.14444 0.0
C1485 C 0.47721 0.98112 0.15594 0.0
C1486 C 0.49212 0.97495 0.12502 0.0
C1487 C 0.48767 0.99286 0.1166 0.0
C1488 C 0.47716 0.0042 0.12787 0.0
C1489 C 0.47196 0.99837 0.14729 0.0
C1490 C 0.4875 0.0124 0.06435 0.0
C1491 C 0.50905 0.0148 0.05846 0.0
C1492 C 0.48039 0.00513 0.08315 0.0
C1493 C 0.49488 0.00036 0.09648 0.0
C1494 C 0.5167 0.00328 0.0906 0.0
C1495 C 0.52369 0.01041 0.07181 0.0
H1496 H 0.02859 0.53977 0.1617 0.0
H1497 H 0.06394 0.49933 0.1418 0.0
H1498 H 0.00801 0.53155 0.12847 0.0
H1499 H 0.04389 0.49161 0.10839 0.0
H1500 H 0.99064 0.46743 0.05272 0.0
H1501 H 0.00652 0.47029 0.08709 0.0
H1502 H 0.01943 0.54685 0.09711 0.0
H1503 H 0.00325 0.54368 0.06314 0.0
C1504 C 0.03189 0.52906 0.1502 0.0
C1505 C 0.04795 0.52032 0.15429 0.0
C1506 C 0.0202 0.52443 0.13114 0.0
C1507 C 0.02452 0.5112 0.11566 0.0
C1508 C 0.03993 0.50164 0.11997 0.0
C1509 C 0.05146 0.50608 0.13911 0.0
C1510 C 0.99697 0.48482 0.06235 0.0
C1511 C 0.99587 0.50537 0.05534 0.0
C1512 C 0.00604 0.48649 0.082 0.0
C1513 C 0.01414 0.50876 0.09493 0.0
C1514 C 0.01289 0.52921 0.08776 0.0
C1515 C 0.00376 0.52748 0.06824 0.0
H1516 H 0.45055 0.48885 0.14622 0.0
H1517 H 0.52733 0.53204 0.16337 0.0
H1518 H 0.45816 0.48991 0.11131 0.0
H1519 H 0.53491 0.53172 0.12871 0.0
H1520 H 0.54183 0.54891 0.06479 0.0
H1521 H 0.53271 0.5494 0.09922 0.0
H1522 H 0.47274 0.47252 0.08678 0.0
H1523 H 0.48168 0.47248 0.05218 0.0
C1524 C 0.46904 0.49858 0.14258 0.0
C1525 C 0.48831 0.51028 0.15767 0.0
C1526 C 0.47341 0.4989 0.12255 0.0
C1527 C 0.49716 0.51086 0.11713 0.0
C1528 C 0.51638 0.52262 0.13225 0.0
C1529 C 0.51202 0.52245 0.15221 0.0
C1530 C 0.52672 0.53215 0.06948 0.0
C1531 C 0.51239 0.51069 0.0559 0.0
C1532 C 0.52151 0.53236 0.08921 0.0
C1533 C 0.50202 0.51095 0.09587 0.0
C1534 C 0.48764 0.48949 0.08215 0.0
C1535 C 0.49276 0.4894 0.06234 0.0
H1536 H 0.9946 0.5316 0.84936 0.0
H1537 H 0.93701 0.45364 0.84702 0.0
H1538 H 0.00356 0.53195 0.88488 0.0
H1539 H 0.9458 0.45401 0.88252 0.0
H1540 H 0.98941 0.45373 0.93807 0.0
H1541 H 0.97783 0.45472 0.90345 0.0
H1542 H 0.98885 0.52998 0.91755 0.0
H1543 H 0.00133 0.52922 0.95216 0.0
C1544 C 0.98358 0.51469 0.85651 0.0
C1545 C 0.96523 0.49253 0.84536 0.0
C1546 C 0.9887 0.51488 0.87687 0.0
C1547 C 0.97554 0.49293 0.88651 0.0
C1548 C 0.95661 0.47107 0.87547 0.0
C1549 C 0.95155 0.47087 0.85514 0.0
C1550 C 0.98933 0.47046 0.93375 0.0
C1551 C 0.99602 0.4913 0.94777 0.0
C1552 C 0.98248 0.47096 0.91396 0.0
C1553 C 0.98222 0.49236 0.90774 0.0
C1554 C 0.98896 0.51326 0.92183 0.0
C1555 C 0.99583 0.51273 0.94168 0.0
H1556 H 0.56126 0.49709 0.8754 0.0
H1557 H 0.48755 0.45134 0.84943 0.0
H1558 H 0.54739 0.50744 0.90551 0.0
H1559 H 0.47361 0.46216 0.87925 0.0
H1560 H 0.45675 0.45913 0.9442 0.0
H1561 H 0.46993 0.45206 0.91263 0.0
H1562 H 0.52924 0.52966 0.92005 0.0
H1563 H 0.51612 0.53637 0.95195 0.0
C1564 C 0.54211 0.48964 0.87602 0.0
C1565 C 0.52546 0.47327 0.86015 0.0
C1566 C 0.53413 0.49561 0.89324 0.0
C1567 C 0.50933 0.48549 0.8949 0.0
C1568 C 0.49279 0.46984 0.87868 0.0
C1569 C 0.50075 0.46371 0.86156 0.0
C1570 C 0.4724 0.47474 0.93892 0.0
C1571 C 0.48558 0.49823 0.95051 0.0
C1572 C 0.47996 0.47075 0.9208 0.0
C1573 C 0.5007 0.49029 0.91374 0.0
C1574 C 0.51344 0.51406 0.92516 0.0
C1575 C 0.50594 0.51796 0.94338 0.0
H1576 H 0.54434 0.0532 0.86553 0.0
H1577 H 0.48587 0.97803 0.84363 0.0
H1578 H 0.53736 0.04248 0.89962 0.0
H1579 H 0.47828 0.96811 0.87768 0.0
H1580 H 0.45397 0.9815 0.93949 0.0
H1581 H 0.46418 0.98965 0.90553 0.0
H1582 H 0.53675 0.00692 0.92291 0.0
H1583 H 0.52616 0.99748 0.9569 0.0
C1584 C 0.53021 0.03434 0.86788 0.0
C1585 C 0.51551 0.01661 0.8517 0.0
C1586 C 0.52621 0.02829 0.88743 0.0
C1587 C 0.50721 0.00456 0.89117 0.0
C1588 C 0.49289 0.98664 0.87512 0.0
C1589 C 0.49714 0.99248 0.85562 0.0
C1590 C 0.47205 0.98683 0.93606 0.0
C1591 C 0.48941 0.98928 0.95087 0.0
C1592 C 0.47786 0.99146 0.91664 0.0
C1593 C 0.50125 0.999 0.91171 0.0
C1594 C 0.51865 0.00135 0.92646 0.0
C1595 C 0.51265 0.99611 0.94586 0.0
H1596 H 0.14669 0.34655 0.4909 0.0
H1597 H 0.14277 0.2746 0.47613 0.0
H1598 H 0.15563 0.35727 0.45718 0.0
H1599 H 0.15272 0.28598 0.44264 0.0
H1600 H 0.20414 0.33425 0.3966 0.0
H1601 H 0.19107 0.32099 0.42922 0.0
H1602 H 0.1361 0.34138 0.42089 0.0
H1603 H 0.1492 0.3546 0.38821 0.0
C1604 C 0.14733 0.33281 0.48044 0.0
C1605 C 0.1441 0.30971 0.48636 0.0
C1606 C 0.15259 0.33906 0.46114 0.0
C1607 C 0.15505 0.32253 0.44741 0.0
C1608 C 0.15125 0.29921 0.45307 0.0
C1609 C 0.14566 0.29277 0.47228 0.0
C1610 C 0.18933 0.33596 0.40181 0.0
C1611 C 0.1776 0.34537 0.39 0.0
C1612 C 0.18172 0.32817 0.42034 0.0
C1613 C 0.16253 0.33008 0.42749 0.0
C1614 C 0.15098 0.33978 0.41573 0.0
C1615 C 0.15838 0.34723 0.39706 0.0
H1616 H 0.69285 0.82638 0.48975 0.0
H1617 H 0.7503 0.89705 0.47306 0.0
H1618 H 0.67134 0.81783 0.45672 0.0
H1619 H 0.72855 0.88875 0.44049 0.0
H1620 H 0.67057 0.8798 0.39379 0.0
H1621 H 0.69003 0.88602 0.4272 0.0
H1622 H 0.67682 0.80923 0.42037 0.0
H1623 H 0.6569 0.8029 0.38685 0.0
C1624 C 0.70093 0.84004 0.47908 0.0
C1625 C 0.72321 0.86255 0.48417 0.0
C1626 C 0.6886 0.83513 0.4602 0.0
C1627 C 0.69821 0.85273 0.44614 0.0
C1628 C 0.72051 0.87507 0.45117 0.0
C1629 C 0.7329 0.87987 0.4699 0.0
C1630 C 0.67166 0.86419 0.39949 0.0
C1631 C 0.66254 0.84097 0.38774 0.0
C1632 C 0.68293 0.86781 0.41853 0.0
C1633 C 0.6851 0.84818 0.4263 0.0
C1634 C 0.67533 0.82465 0.41475 0.0
C1635 C 0.66419 0.82111 0.39556 0.0
H1636 H 0.15105 0.79912 0.49489 0.0
H1637 H 0.14694 0.86702 0.49047 0.0
H1638 H 0.15722 0.79761 0.45973 0.0
H1639 H 0.15392 0.86616 0.45552 0.0
H1640 H 0.14826 0.84798 0.38933 0.0
H1641 H 0.13744 0.8451 0.42336 0.0
H1642 H 0.18712 0.81899 0.43812 0.0
H1643 H 0.19677 0.82051 0.40376 0.0
C1644 C 0.15156 0.81377 0.48637 0.0
C1645 C 0.14853 0.83319 0.49537 0.0
C1646 C 0.1552 0.813 0.46625 0.0
C1647 C 0.1562 0.83183 0.45474 0.0
C1648 C 0.15285 0.85107 0.46377 0.0
C1649 C 0.14892 0.85165 0.48383 0.0
C1650 C 0.15651 0.8412 0.39979 0.0
C1651 C 0.17318 0.83425 0.39391 0.0
C1652 C 0.15056 0.83984 0.41938 0.0
C1653 C 0.16146 0.8319 0.43359 0.0
C1654 C 0.17804 0.82479 0.42756 0.0
C1655 C 0.18375 0.82585 0.40791 0.0
H1656 H 0.62119 0.84702 0.18807 0.0
H1657 H 0.66962 0.81964 0.17458 0.0
H1658 H 0.62861 0.84468 0.22346 0.0
H1659 H 0.67745 0.81791 0.20986 0.0
H1660 H 0.66341 0.78984 0.27143 0.0
H1661 H 0.65525 0.79243 0.23628 0.0
H1662 H 0.6618 0.86559 0.25095 0.0
H1663 H 0.67017 0.863 0.2861 0.0
C1664 C 0.63345 0.84057 0.19267 0.0
C1665 C 0.64485 0.83356 0.17855 0.0
C1666 C 0.63784 0.83942 0.21293 0.0
C1667 C 0.65355 0.83103 0.21943 0.0
C1668 C 0.66504 0.82418 0.2053 0.0
C1669 C 0.66077 0.82547 0.18511 0.0
C1670 C 0.66309 0.80645 0.2671 0.0
C1671 C 0.66717 0.82611 0.28143 0.0
C1672 C 0.65851 0.80799 0.247 0.0
C1673 C 0.65789 0.82923 0.24085 0.0
C1674 C 0.66183 0.84883 0.25526 0.0
C1675 C 0.66655 0.84734 0.27536 0.0
H1676 H 0.22754 0.84687 0.20074 0.0
H1677 H 0.15167 0.80614 0.18001 0.0
H1678 H 0.2182 0.85687 0.23325 0.0
H1679 H 0.14232 0.81586 0.21282 0.0
H1680 H 0.13766 0.85152 0.27395 0.0
H1681 H 0.14842 0.85138 0.23967 0.0
H1682 H 0.19699 0.82532 0.25804 0.0
H1683 H 0.18583 0.82475 0.29174 0.0
C1684 C 0.20892 0.84063 0.20294 0.0
C1685 C 0.19032 0.82554 0.18783 0.0
C1686 C 0.20357 0.84619 0.22162 0.0
C1687 C 0.17953 0.83689 0.22559 0.0
C1688 C 0.16101 0.82333 0.21013 0.0
C1689 C 0.16635 0.8176 0.19143 0.0
C1690 C 0.15075 0.84597 0.27059 0.0
C1691 C 0.16116 0.83847 0.28552 0.0
C1692 C 0.15687 0.84587 0.25105 0.0
C1693 C 0.17375 0.83864 0.24629 0.0
C1694 C 0.18432 0.8315 0.26134 0.0
C1695 C 0.17793 0.83119 0.28067 0.0
H1696 H 0.16445 0.37795 0.18996 0.0
H1697 H 0.19932 0.33343 0.18539 0.0
H1698 H 0.15713 0.36822 0.22408 0.0
H1699 H 0.19097 0.32244 0.21924 0.0
H1700 H 0.1888 0.32334 0.28651 0.0
H1701 H 0.19966 0.33604 0.25338 0.0
H1702 H 0.1322 0.33464 0.24158 0.0
H1703 H 0.12258 0.32412 0.27512 0.0
C1704 C 0.17041 0.36594 0.19631 0.0
C1705 C 0.18234 0.35635 0.18511 0.0
C1706 C 0.16608 0.36017 0.21581 0.0
C1707 C 0.17314 0.34421 0.22444 0.0
C1708 C 0.18551 0.33501 0.21325 0.0
C1709 C 0.19022 0.34119 0.19383 0.0
C1710 C 0.17666 0.32638 0.27692 0.0
C1711 C 0.15525 0.32355 0.28353 0.0
C1712 C 0.18263 0.33321 0.2578 0.0
C1713 C 0.16697 0.33674 0.24478 0.0
C1714 C 0.14509 0.33288 0.2513 0.0
C1715 C 0.13938 0.32651 0.27047 0.0
H1716 H 0.77581 0.62878 0.80875 0.0
H1717 H 0.85063 0.65385 0.82539 0.0
H1718 H 0.78502 0.63913 0.77485 0.0
H1719 H 0.86019 0.66532 0.79201 0.0
H1720 H 0.86825 0.66295 0.72671 0.0
H1721 H 0.85663 0.64901 0.75926 0.0
H1722 H 0.8039 0.67321 0.75538 0.0
H1723 H 0.81497 0.68603 0.72234 0.0
C1724 C 0.79423 0.63663 0.80512 0.0
C1725 C 0.81248 0.64033 0.81958 0.0
C1726 C 0.79958 0.64271 0.78576 0.0
C1727 C 0.82338 0.65303 0.78058 0.0
C1728 C 0.84157 0.65685 0.79521 0.0
C1729 C 0.83615 0.65039 0.81441 0.0
C1730 C 0.85421 0.66529 0.73289 0.0
C1731 C 0.84254 0.67562 0.72216 0.0
C1732 C 0.84757 0.6574 0.75158 0.0
C1733 C 0.82944 0.66016 0.76015 0.0
C1734 C 0.81768 0.67042 0.74922 0.0
C1735 C 0.8241 0.67794 0.73035 0.0
H1736 H 0.4255 0.22444 0.80011 0.0
H1737 H 0.36252 0.16416 0.82246 0.0
H1738 H 0.40263 0.2158 0.76795 0.0
H1739 H 0.34013 0.15485 0.78979 0.0
H1740 H 0.32175 0.13369 0.71966 0.0
H1741 H 0.34347 0.14018 0.75244 0.0
H1742 H 0.36463 0.21953 0.75696 0.0
H1743 H 0.34276 0.21299 0.7245 0.0
C1744 C 0.40679 0.20941 0.79826 0.0
C1745 C 0.39583 0.19524 0.81408 0.0
C1746 C 0.39378 0.20439 0.77977 0.0
C1747 C 0.36965 0.18476 0.77649 0.0
C1748 C 0.3588 0.17 0.79197 0.0
C1749 C 0.37169 0.1753 0.81063 0.0
C1750 C 0.33098 0.15243 0.72778 0.0
C1751 C 0.3307 0.17286 0.71964 0.0
C1752 C 0.34326 0.15611 0.74648 0.0
C1753 C 0.35575 0.18036 0.7571 0.0
C1754 C 0.35525 0.20069 0.74898 0.0
C1755 C 0.34263 0.19691 0.73051 0.0
H1756 H 0.86017 0.18528 0.83338 0.0
H1757 H 0.78543 0.16009 0.81555 0.0
H1758 H 0.86805 0.18542 0.79863 0.0
H1759 H 0.79333 0.15971 0.78068 0.0
H1760 H 0.81546 0.14016 0.72046 0.0
H1761 H 0.80601 0.13749 0.75508 0.0
H1762 H 0.86877 0.21162 0.77136 0.0
H1763 H 0.87778 0.21448 0.73675 0.0
C1764 C 0.84541 0.17982 0.82207 0.0
C1765 C 0.82222 0.17299 0.8273 0.0
C1766 C 0.84994 0.17984 0.80216 0.0
C1767 C 0.83136 0.1728 0.78697 0.0
C1768 C 0.80797 0.16508 0.7921 0.0
C1769 C 0.80345 0.16525 0.81207 0.0
C1770 C 0.8269 0.15604 0.7314 0.0
C1771 C 0.84706 0.17772 0.72593 0.0
C1772 C 0.8216 0.15446 0.7512 0.0
C1773 C 0.83666 0.17435 0.7659 0.0
C1774 C 0.85698 0.19589 0.76039 0.0
C1775 C 0.8621 0.19756 0.74059 0.0
H1776 H 0.2869 0.17695 0.51978 0.0
H1777 H 0.33657 0.15105 0.50694 0.0
H1778 H 0.29444 0.17521 0.5553 0.0
H1779 H 0.34443 0.1498 0.54231 0.0
H1780 H 0.33085 0.12223 0.60391 0.0
H1781 H 0.32216 0.1242 0.56877 0.0
H1782 H 0.32798 0.1971 0.5829 0.0
H1783 H 0.33695 0.19516 0.61812 0.0
C1784 C 0.29942 0.17092 0.52455 0.0
C1785 C 0.31118 0.16419 0.51057 0.0
C1786 C 0.30388 0.17012 0.54487 0.0
C1787 C 0.31997 0.1623 0.55158 0.0
C1788 C 0.33174 0.15565 0.53759 0.0
C1789 C 0.32744 0.15663 0.51734 0.0
C1790 C 0.33026 0.13866 0.5995 0.0
C1791 C 0.33437 0.15846 0.61371 0.0
C1792 C 0.32536 0.13983 0.57938 0.0
C1793 C 0.32443 0.16083 0.57306 0.0
C1794 C 0.32829 0.18054 0.58735 0.0
C1795 C 0.33336 0.17942 0.60749 0.0
H1796 H 0.87088 0.17477 0.52202 0.0
H1797 H 0.85038 0.10047 0.53972 0.0
H1798 H 0.85802 0.18508 0.55289 0.0
H1799 H 0.83753 0.11067 0.57029 0.0
H1800 H 0.79205 0.12474 0.61151 0.0
H1801 H 0.80498 0.11745 0.5799 0.0
H1802 H 0.86833 0.19231 0.58967 0.0
H1803 H 0.85484 0.19987 0.62124 0.0
C1804 C 0.86376 0.16071 0.53252 0.0
C1805 C 0.86135 0.13667 0.52828 0.0
C1806 C 0.85642 0.16662 0.55018 0.0
C1807 C 0.84649 0.14858 0.56391 0.0
C1808 C 0.84456 0.12478 0.55981 0.0
C1809 C 0.8519 0.11891 0.54225 0.0
C1810 C 0.8086 0.13976 0.60681 0.0
C1811 C 0.82265 0.16274 0.6189 0.0
C1812 C 0.81612 0.13551 0.58878 0.0
C1813 C 0.83786 0.15416 0.58241 0.0
C1814 C 0.85147 0.1776 0.59416 0.0
C1815 C 0.84388 0.18186 0.61226 0.0
H1816 H 0.88169 0.70617 0.52785 0.0
H1817 H 0.80508 0.66447 0.50994 0.0
H1818 H 0.87366 0.69806 0.56227 0.0
H1819 H 0.79715 0.65538 0.54398 0.0
H1820 H 0.78897 0.66509 0.60922 0.0
H1821 H 0.79865 0.6759 0.57562 0.0
H1822 H 0.85913 0.66374 0.58351 0.0
H1823 H 0.84947 0.65324 0.61735 0.0
C1824 C 0.86316 0.69532 0.53124 0.0
C1825 C 0.84404 0.68592 0.51609 0.0
C1826 C 0.85856 0.69042 0.55094 0.0
C1827 C 0.83475 0.67605 0.55592 0.0
C1828 C 0.81569 0.66678 0.54076 0.0
C1829 C 0.82027 0.67171 0.52115 0.0
C1830 C 0.8043 0.6647 0.60373 0.0
C1831 C 0.81854 0.65844 0.61583 0.0
C1832 C 0.80984 0.67082 0.58446 0.0
C1833 C 0.82962 0.67059 0.57678 0.0
C1834 C 0.84397 0.66445 0.58902 0.0
C1835 C 0.83845 0.6584 0.60837 0.0
loop_
_geom_bond_atom_site_label_1
_geom_bond_atom_site_label_2
_geom_bond_distance
_geom_bond_site_symmetry_2
_ccdc_geom_bond_type
P0 O11 1.490 . S
P0 C14 1.812 . S
P0 C20 1.803 . S
P0 C26 1.819 . S
H1 C15 0.941 . S
H2 C16 0.939 . S
H3 C18 0.940 . S
H4 C19 0.940 . S
H5 C21 0.939 . S
H6 C22 0.942 . S
H7 C24 0.940 . S
H8 C25 0.939 . S
H9 C27 0.941 . S
H10 C31 0.939 . S
O11 P0 1.490 . S
H12 C28 0.939 . S
H13 C30 0.940 . S
C14 P0 1.812 . S
C14 C15 1.389 . S
C14 C19 1.391 . S
C15 H1 0.941 . S
C15 C14 1.389 . S
C15 C16 1.397 . S
C16 H2 0.939 . S
C16 C15 1.397 . S
C16 C17 1.378 . S
C17 C16 1.378 . S
C17 C18 1.378 . S
C18 H3 0.940 . S
C18 C17 1.378 . S
C18 C19 1.396 . S
C19 H4 0.940 . S
C19 C14 1.391 . S
C19 C18 1.396 . S
C20 P0 1.803 . S
C20 C21 1.378 . S
C20 C25 1.400 . S
C21 H5 0.939 . S
C21 C20 1.378 . S
C21 C22 1.361 . S
C22 H6 0.942 . S
C22 C21 1.361 . S
C22 C23 1.369 . S
C23 C22 1.369 . S
C23 C24 1.404 . S
C24 H7 0.940 . S
C24 C23 1.404 . S
C24 C25 1.389 . S
C25 H8 0.939 . S
C25 C20 1.400 . S
C25 C24 1.389 . S
C26 P0 1.819 . S
C26 C27 1.391 . S
C26 C31 1.391 . S
C27 H9 0.941 . S
C27 C26 1.391 . S
C27 C28 1.396 . S
C28 H12 0.939 . S
C28 C27 1.396 . S
C28 C29 1.397 . S
C29 C28 1.397 . S
C29 C30 1.385 . S
C30 H13 0.940 . S
C30 C29 1.385 . S
C30 C31 1.388 . S
C31 H10 0.939 . S
C31 C26 1.391 . S
C31 C30 1.388 . S
P32 O43 1.490 . S
P32 C46 1.812 . S
P32 C52 1.803 . S
P32 C58 1.819 . S
H33 C47 0.941 . S
H34 C48 0.939 . S
H35 C50 0.940 . S
H36 C51 0.940 . S
H37 C53 0.939 . S
H38 C54 0.942 . S
H39 C56 0.940 . S
H40 C57 0.939 . S
H41 C59 0.941 . S
H42 C63 0.939 . S
O43 P32 1.490 . S
H44 C60 0.939 . S
H45 C62 0.940 . S
C46 P32 1.812 . S
C46 C47 1.389 . S
C46 C51 1.391 . S
C47 H33 0.941 . S
C47 C46 1.389 . S
C47 C48 1.397 . S
C48 H34 0.939 . S
C48 C47 1.397 . S
C48 C49 1.378 . S
C49 C48 1.378 . S
C49 C50 1.378 . S
C50 H35 0.940 . S
C50 C49 1.378 . S
C50 C51 1.396 . S
C51 H36 0.940 . S
C51 C46 1.391 . S
C51 C50 1.396 . S
C52 P32 1.803 . S
C52 C53 1.378 . S
C52 C57 1.400 . S
C53 H37 0.939 . S
C53 C52 1.378 . S
C53 C54 1.361 . S
C54 H38 0.942 . S
C54 C53 1.361 . S
C54 C55 1.369 . S
C55 C54 1.369 . S
C55 C56 1.404 . S
C56 H39 0.940 . S
C56 C55 1.404 . S
C56 C57 1.389 . S
C57 H40 0.939 . S
C57 C52 1.400 . S
C57 C56 1.389 . S
C58 P32 1.819 . S
C58 C59 1.391 . S
C58 C63 1.391 . S
C59 H41 0.941 . S
C59 C58 1.391 . S
C59 C60 1.396 . S
C60 H44 0.939 . S
C60 C59 1.396 . S
C60 C61 1.397 . S
C61 C60 1.397 . S
C61 C62 1.385 . S
C62 H45 0.940 . S
C62 C61 1.385 . S
C62 C63 1.388 . S
C63 H42 0.939 . S
C63 C58 1.391 . S
C63 C62 1.388 . S
P64 O75 1.490 . S
P64 C78 1.812 . S
P64 C84 1.803 . S
P64 C90 1.819 . S
H65 C79 0.941 . S
H66 C80 0.939 . S
H67 C82 0.940 . S
H68 C83 0.940 . S
H69 C85 0.939 . S
H70 C86 0.942 . S
H71 C88 0.940 . S
H72 C89 0.939 . S
H73 C91 0.941 . S
H74 C95 0.939 . S
O75 P64 1.490 . S
H76 C92 0.939 . S
H77 C94 0.940 . S
C78 P64 1.812 . S
C78 C79 1.389 . S
C78 C83 1.391 . S
C79 H65 0.941 . S
C79 C78 1.389 . S
C79 C80 1.397 . S
C80 H66 0.939 . S
C80 C79 1.397 . S
C80 C81 1.378 . S
C81 C80 1.378 . S
C81 C82 1.378 . S
C82 H67 0.940 . S
C82 C81 1.378 . S
C82 C83 1.396 . S
C83 H68 0.940 . S
C83 C78 1.391 . S
C83 C82 1.396 . S
C84 P64 1.803 . S
C84 C85 1.378 . S
C84 C89 1.400 . S
C85 H69 0.939 . S
C85 C84 1.378 . S
C85 C86 1.361 . S
C86 H70 0.942 . S
C86 C85 1.361 . S
C86 C87 1.369 . S
C87 C86 1.369 . S
C87 C88 1.404 . S
C88 H71 0.940 . S
C88 C87 1.404 . S
C88 C89 1.389 . S
C89 H72 0.939 . S
C89 C84 1.400 . S
C89 C88 1.389 . S
C90 P64 1.819 . S
C90 C91 1.391 . S
C90 C95 1.391 . S
C91 H73 0.941 . S
C91 C90 1.391 . S
C91 C92 1.396 . S
C92 H76 0.939 . S
C92 C91 1.396 . S
C92 C93 1.397 . S
C93 C92 1.397 . S
C93 C94 1.385 . S
C94 H77 0.940 . S
C94 C93 1.385 . S
C94 C95 1.388 . S
C95 H74 0.939 . S
C95 C90 1.391 . S
C95 C94 1.388 . S
P96 O107 1.490 . S
P96 C110 1.812 . S
P96 C116 1.803 . S
P96 C122 1.819 . S
H97 C111 0.941 . S
H98 C112 0.939 . S
H99 C114 0.940 . S
H100 C115 0.940 . S
H101 C117 0.939 . S
H102 C118 0.942 . S
H103 C120 0.940 . S
H104 C121 0.939 . S
H105 C123 0.941 . S
H106 C127 0.939 . S
O107 P96 1.490 . S
H108 C124 0.939 . S
H109 C126 0.940 . S
C110 P96 1.812 . S
C110 C111 1.389 . S
C110 C115 1.391 . S
C111 H97 0.941 . S
C111 C110 1.389 . S
C111 C112 1.397 . S
C112 H98 0.939 . S
C112 C111 1.397 . S
C112 C113 1.378 . S
C113 C112 1.378 . S
C113 C114 1.378 . S
C114 H99 0.940 . S
C114 C113 1.378 . S
C114 C115 1.396 . S
C115 H100 0.940 . S
C115 C110 1.391 . S
C115 C114 1.396 . S
C116 P96 1.803 . S
C116 C117 1.378 . S
C116 C121 1.400 . S
C117 H101 0.939 . S
C117 C116 1.378 . S
C117 C118 1.361 . S
C118 H102 0.942 . S
C118 C117 1.361 . S
C118 C119 1.369 . S
C119 C118 1.369 . S
C119 C120 1.404 . S
C120 H103 0.940 . S
C120 C119 1.404 . S
C120 C121 1.389 . S
C121 H104 0.939 . S
C121 C116 1.400 . S
C121 C120 1.389 . S
C122 P96 1.819 . S
C122 C123 1.391 . S
C122 C127 1.391 . S
C123 H105 0.941 . S
C123 C122 1.391 . S
C123 C124 1.396 . S
C124 H108 0.939 . S
C124 C123 1.396 . S
C124 C125 1.397 . S
C125 C124 1.397 . S
C125 C126 1.385 . S
C126 H109 0.940 . S
C126 C125 1.385 . S
C126 C127 1.388 . S
C127 H106 0.939 . S
C127 C122 1.391 . S
C127 C126 1.388 . S
P128 O139 1.490 . S
P128 C142 1.812 . S
P128 C148 1.803 . S
P128 C154 1.819 . S
H129 C143 0.941 . S
H130 C144 0.939 . S
H131 C146 0.940 . S
H132 C147 0.940 . S
H133 C149 0.939 . S
H134 C150 0.942 . S
H135 C152 0.940 . S
H136 C153 0.939 . S
H137 C155 0.941 . S
H138 C159 0.939 . S
O139 P128 1.490 . S
H140 C156 0.939 . S
H141 C158 0.940 . S
C142 P128 1.812 . S
C142 C143 1.389 . S
C142 C147 1.391 . S
C143 H129 0.941 . S
C143 C142 1.389 . S
C143 C144 1.397 . S
C144 H130 0.939 . S
C144 C143 1.397 . S
C144 C145 1.378 . S
C145 C144 1.378 . S
C145 C146 1.378 . S
C146 H131 0.940 . S
C146 C145 1.378 . S
C146 C147 1.396 . S
C147 H132 0.940 . S
C147 C142 1.391 . S
C147 C146 1.396 . S
C148 P128 1.803 . S
C148 C149 1.378 . S
C148 C153 1.400 . S
C149 H133 0.939 . S
C149 C148 1.378 . S
C149 C150 1.361 . S
C150 H134 0.942 . S
C150 C149 1.361 . S
C150 C151 1.369 . S
C151 C150 1.369 . S
C151 C152 1.404 . S
C152 H135 0.940 . S
C152 C151 1.404 . S
C152 C153 1.389 . S
C153 H136 0.939 . S
C153 C148 1.400 . S
C153 C152 1.389 . S
C154 P128 1.819 . S
C154 C155 1.391 . S
C154 C159 1.391 . S
C155 H137 0.941 . S
C155 C154 1.391 . S
C155 C156 1.396 . S
C156 H140 0.939 . S
C156 C155 1.396 . S
C156 C157 1.397 . S
C157 C156 1.397 . S
C157 C158 1.385 . S
C158 H141 0.940 . S
C158 C157 1.385 . S
C158 C159 1.388 . S
C159 H138 0.939 . S
C159 C154 1.391 . S
C159 C158 1.388 . S
P160 O171 1.490 . S
P160 C174 1.812 . S
P160 C180 1.803 . S
P160 C186 1.819 . S
H161 C175 0.941 . S
H162 C176 0.939 . S
H163 C178 0.940 . S
H164 C179 0.940 . S
H165 C181 0.939 . S
H166 C182 0.942 . S
H167 C184 0.940 . S
H168 C185 0.939 . S
H169 C187 0.941 . S
H170 C191 0.939 . S
O171 P160 1.490 . S
H172 C188 0.939 . S
H173 C190 0.940 . S
C174 P160 1.812 . S
C174 C175 1.389 . S
C174 C179 1.391 . S
C175 H161 0.941 . S
C175 C174 1.389 . S
C175 C176 1.397 . S
C176 H162 0.939 . S
C176 C175 1.397 . S
C176 C177 1.378 . S
C177 C176 1.378 . S
C177 C178 1.378 . S
C178 H163 0.940 . S
C178 C177 1.378 . S
C178 C179 1.396 . S
C179 H164 0.940 . S
C179 C174 1.391 . S
C179 C178 1.396 . S
C180 P160 1.803 . S
C180 C181 1.378 . S
C180 C185 1.400 . S
C181 H165 0.939 . S
C181 C180 1.378 . S
C181 C182 1.361 . S
C182 H166 0.942 . S
C182 C181 1.361 . S
C182 C183 1.369 . S
C183 C182 1.369 . S
C183 C184 1.404 . S
C184 H167 0.940 . S
C184 C183 1.404 . S
C184 C185 1.389 . S
C185 H168 0.939 . S
C185 C180 1.400 . S
C185 C184 1.389 . S
C186 P160 1.819 . S
C186 C187 1.391 . S
C186 C191 1.391 . S
C187 H169 0.941 . S
C187 C186 1.391 . S
C187 C188 1.396 . S
C188 H172 0.939 . S
C188 C187 1.396 . S
C188 C189 1.397 . S
C189 C188 1.397 . S
C189 C190 1.385 . S
C190 H173 0.940 . S
C190 C189 1.385 . S
C190 C191 1.388 . S
C191 H170 0.939 . S
C191 C186 1.391 . S
C191 C190 1.388 . S
P192 O203 1.490 . S
P192 C206 1.812 . S
P192 C212 1.803 . S
P192 C218 1.819 . S
H193 C207 0.941 . S
H194 C208 0.939 . S
H195 C210 0.940 . S
H196 C211 0.940 . S
H197 C213 0.939 . S
H198 C214 0.942 . S
H199 C216 0.940 . S
H200 C217 0.939 . S
H201 C219 0.941 . S
H202 C223 0.939 . S
O203 P192 1.490 . S
H204 C220 0.939 . S
H205 C222 0.940 . S
C206 P192 1.812 . S
C206 C207 1.389 . S
C206 C211 1.391 . S
C207 H193 0.941 . S
C207 C206 1.389 . S
C207 C208 1.397 . S
C208 H194 0.939 . S
C208 C207 1.397 . S
C208 C209 1.378 . S
C209 C208 1.378 . S
C209 C210 1.378 . S
C210 H195 0.940 . S
C210 C209 1.378 . S
C210 C211 1.396 . S
C211 H196 0.940 . S
C211 C206 1.391 . S
C211 C210 1.396 . S
C212 P192 1.803 . S
C212 C213 1.378 . S
C212 C217 1.400 . S
C213 H197 0.939 . S
C213 C212 1.378 . S
C213 C214 1.361 . S
C214 H198 0.942 . S
C214 C213 1.361 . S
C214 C215 1.369 . S
C215 C214 1.369 . S
C215 C216 1.404 . S
C216 H199 0.940 . S
C216 C215 1.404 . S
C216 C217 1.389 . S
C217 H200 0.939 . S
C217 C212 1.400 . S
C217 C216 1.389 . S
C218 P192 1.819 . S
C218 C219 1.391 . S
C218 C223 1.391 . S
C219 H201 0.941 . S
C219 C218 1.391 . S
C219 C220 1.396 . S
C220 H204 0.939 . S
C220 C219 1.396 . S
C220 C221 1.397 . S
C221 C220 1.397 . S
C221 C222 1.385 . S
C222 H205 0.940 . S
C222 C221 1.385 . S
C222 C223 1.388 . S
C223 H202 0.939 . S
C223 C218 1.391 . S
C223 C222 1.388 . S
P224 O235 1.490 . S
P224 C238 1.812 . S
P224 C244 1.803 . S
P224 C250 1.819 . S
H225 C239 0.941 . S
H226 C240 0.939 . S
H227 C242 0.940 . S
H228 C243 0.940 . S
H229 C245 0.939 . S
H230 C246 0.942 . S
H231 C248 0.940 . S
H232 C249 0.939 . S
H233 C251 0.941 . S
H234 C255 0.939 . S
O235 P224 1.490 . S
H236 C252 0.939 . S
H237 C254 0.940 . S
C238 P224 1.812 . S
C238 C239 1.389 . S
C238 C243 1.391 . S
C239 H225 0.941 . S
C239 C238 1.389 . S
C239 C240 1.397 . S
C240 H226 0.939 . S
C240 C239 1.397 . S
C240 C241 1.378 . S
C241 C240 1.378 . S
C241 C242 1.378 . S
C242 H227 0.940 . S
C242 C241 1.378 . S
C242 C243 1.396 . S
C243 H228 0.940 . S
C243 C238 1.391 . S
C243 C242 1.396 . S
C244 P224 1.803 . S
C244 C245 1.378 . S
C244 C249 1.400 . S
C245 H229 0.939 . S
C245 C244 1.378 . S
C245 C246 1.361 . S
C246 H230 0.942 . S
C246 C245 1.361 . S
C246 C247 1.369 . S
C247 C246 1.369 . S
C247 C248 1.404 . S
C248 H231 0.940 . S
C248 C247 1.404 . S
C248 C249 1.389 . S
C249 H232 0.939 . S
C249 C244 1.400 . S
C249 C248 1.389 . S
C250 P224 1.819 . S
C250 C251 1.391 . S
C250 C255 1.391 . S
C251 H233 0.941 . S
C251 C250 1.391 . S
C251 C252 1.396 . S
C252 H236 0.939 . S
C252 C251 1.396 . S
C252 C253 1.397 . S
C253 C252 1.397 . S
C253 C254 1.385 . S
C254 H237 0.940 . S
C254 C253 1.385 . S
C254 C255 1.388 . S
C255 H234 0.939 . S
C255 C250 1.391 . S
C255 C254 1.388 . S
P256 O267 1.490 . S
P256 C270 1.812 . S
P256 C276 1.803 . S
P256 C282 1.819 . S
H257 C271 0.941 . S
H258 C272 0.939 . S
H259 C274 0.940 . S
H260 C275 0.940 . S
H261 C277 0.939 . S
H262 C278 0.942 . S
H263 C280 0.940 . S
H264 C281 0.939 . S
H265 C283 0.941 . S
H266 C287 0.939 . S
O267 P256 1.490 . S
H268 C284 0.939 . S
H269 C286 0.940 . S
C270 P256 1.812 . S
C270 C271 1.389 . S
C270 C275 1.391 . S
C271 H257 0.941 . S
C271 C270 1.389 . S
C271 C272 1.397 . S
C272 H258 0.939 . S
C272 C271 1.397 . S
C272 C273 1.378 . S
C273 C272 1.378 . S
C273 C274 1.378 . S
C274 H259 0.940 . S
C274 C273 1.378 . S
C274 C275 1.396 . S
C275 H260 0.940 . S
C275 C270 1.391 . S
C275 C274 1.396 . S
C276 P256 1.803 . S
C276 C277 1.378 . S
C276 C281 1.400 . S
C277 H261 0.939 . S
C277 C276 1.378 . S
C277 C278 1.361 . S
C278 H262 0.942 . S
C278 C277 1.361 . S
C278 C279 1.369 . S
C279 C278 1.369 . S
C279 C280 1.404 . S
C280 H263 0.940 . S
C280 C279 1.404 . S
C280 C281 1.389 . S
C281 H264 0.939 . S
C281 C276 1.400 . S
C281 C280 1.389 . S
C282 P256 1.819 . S
C282 C283 1.391 . S
C282 C287 1.391 . S
C283 H265 0.941 . S
C283 C282 1.391 . S
C283 C284 1.396 . S
C284 H268 0.939 . S
C284 C283 1.396 . S
C284 C285 1.397 . S
C285 C284 1.397 . S
C285 C286 1.385 . S
C286 H269 0.940 . S
C286 C285 1.385 . S
C286 C287 1.388 . S
C287 H266 0.939 . S
C287 C282 1.391 . S
C287 C286 1.388 . S
P288 O299 1.490 . S
P288 C302 1.812 . S
P288 C308 1.803 . S
P288 C314 1.819 . S
H289 C303 0.941 . S
H290 C304 0.939 . S
H291 C306 0.940 . S
H292 C307 0.940 . S
H293 C309 0.939 . S
H294 C310 0.942 . S
H295 C312 0.940 . S
H296 C313 0.939 . S
H297 C315 0.941 . S
H298 C319 0.939 . S
O299 P288 1.490 . S
H300 C316 0.939 . S
H301 C318 0.940 . S
C302 P288 1.812 . S
C302 C303 1.389 . S
C302 C307 1.391 . S
C303 H289 0.941 . S
C303 C302 1.389 . S
C303 C304 1.397 . S
C304 H290 0.939 . S
C304 C303 1.397 . S
C304 C305 1.378 . S
C305 C304 1.378 . S
C305 C306 1.378 . S
C306 H291 0.940 . S
C306 C305 1.378 . S
C306 C307 1.396 . S
C307 H292 0.940 . S
C307 C302 1.391 . S
C307 C306 1.396 . S
C308 P288 1.803 . S
C308 C309 1.378 . S
C308 C313 1.400 . S
C309 H293 0.939 . S
C309 C308 1.378 . S
C309 C310 1.361 . S
C310 H294 0.942 . S
C310 C309 1.361 . S
C310 C311 1.369 . S
C311 C310 1.369 . S
C311 C312 1.404 . S
C312 H295 0.940 . S
C312 C311 1.404 . S
C312 C313 1.389 . S
C313 H296 0.939 . S
C313 C308 1.400 . S
C313 C312 1.389 . S
C314 P288 1.819 . S
C314 C315 1.391 . S
C314 C319 1.391 . S
C315 H297 0.941 . S
C315 C314 1.391 . S
C315 C316 1.396 . S
C316 H300 0.939 . S
C316 C315 1.396 . S
C316 C317 1.397 . S
C317 C316 1.397 . S
C317 C318 1.385 . S
C318 H301 0.940 . S
C318 C317 1.385 . S
C318 C319 1.388 . S
C319 H298 0.939 . S
C319 C314 1.391 . S
C319 C318 1.388 . S
P320 O331 1.490 . S
P320 C334 1.812 . S
P320 C340 1.803 . S
P320 C346 1.819 . S
H321 C335 0.941 . S
H322 C336 0.939 . S
H323 C338 0.940 . S
H324 C339 0.940 . S
H325 C341 0.939 . S
H326 C342 0.942 . S
H327 C344 0.940 . S
H328 C345 0.939 . S
H329 C347 0.941 . S
H330 C351 0.939 . S
O331 P320 1.490 . S
H332 C348 0.939 . S
H333 C350 0.940 . S
C334 P320 1.812 . S
C334 C335 1.389 . S
C334 C339 1.391 . S
C335 H321 0.941 . S
C335 C334 1.389 . S
C335 C336 1.397 . S
C336 H322 0.939 . S
C336 C335 1.397 . S
C336 C337 1.378 . S
C337 C336 1.378 . S
C337 C338 1.378 . S
C338 H323 0.940 . S
C338 C337 1.378 . S
C338 C339 1.396 . S
C339 H324 0.940 . S
C339 C334 1.391 . S
C339 C338 1.396 . S
C340 P320 1.803 . S
C340 C341 1.378 . S
C340 C345 1.400 . S
C341 H325 0.939 . S
C341 C340 1.378 . S
C341 C342 1.361 . S
C342 H326 0.942 . S
C342 C341 1.361 . S
C342 C343 1.369 . S
C343 C342 1.369 . S
C343 C344 1.404 . S
C344 H327 0.940 . S
C344 C343 1.404 . S
C344 C345 1.389 . S
C345 H328 0.939 . S
C345 C340 1.400 . S
C345 C344 1.389 . S
C346 P320 1.819 . S
C346 C347 1.391 . S
C346 C351 1.391 . S
C347 H329 0.941 . S
C347 C346 1.391 . S
C347 C348 1.396 . S
C348 H332 0.939 . S
C348 C347 1.396 . S
C348 C349 1.397 . S
C349 C348 1.397 . S
C349 C350 1.385 . S
C350 H333 0.940 . S
C350 C349 1.385 . S
C350 C351 1.388 . S
C351 H330 0.939 . S
C351 C346 1.391 . S
C351 C350 1.388 . S
P352 O363 1.490 . S
P352 C366 1.812 . S
P352 C372 1.803 . S
P352 C378 1.819 . S
H353 C367 0.941 . S
H354 C368 0.939 . S
H355 C370 0.940 . S
H356 C371 0.940 . S
H357 C373 0.939 . S
H358 C374 0.942 . S
H359 C376 0.940 . S
H360 C377 0.939 . S
H361 C379 0.941 . S
H362 C383 0.939 . S
O363 P352 1.490 . S
H364 C380 0.939 . S
H365 C382 0.940 . S
C366 P352 1.812 . S
C366 C367 1.389 . S
C366 C371 1.391 . S
C367 H353 0.941 . S
C367 C366 1.389 . S
C367 C368 1.397 . S
C368 H354 0.939 . S
C368 C367 1.397 . S
C368 C369 1.378 . S
C369 C368 1.378 . S
C369 C370 1.378 . S
C370 H355 0.940 . S
C370 C369 1.378 . S
C370 C371 1.396 . S
C371 H356 0.940 . S
C371 C366 1.391 . S
C371 C370 1.396 . S
C372 P352 1.803 . S
C372 C373 1.378 . S
C372 C377 1.400 . S
C373 H357 0.939 . S
C373 C372 1.378 . S
C373 C374 1.361 . S
C374 H358 0.942 . S
C374 C373 1.361 . S
C374 C375 1.369 . S
C375 C374 1.369 . S
C375 C376 1.404 . S
C376 H359 0.940 . S
C376 C375 1.404 . S
C376 C377 1.389 . S
C377 H360 0.939 . S
C377 C372 1.400 . S
C377 C376 1.389 . S
C378 P352 1.819 . S
C378 C379 1.391 . S
C378 C383 1.391 . S
C379 H361 0.941 . S
C379 C378 1.391 . S
C379 C380 1.396 . S
C380 H364 0.939 . S
C380 C379 1.396 . S
C380 C381 1.397 . S
C381 C380 1.397 . S
C381 C382 1.385 . S
C382 H365 0.940 . S
C382 C381 1.385 . S
C382 C383 1.388 . S
C383 H362 0.939 . S
C383 C378 1.391 . S
C383 C382 1.388 . S
P384 O395 1.490 . S
P384 C398 1.812 . S
P384 C404 1.803 . S
P384 C410 1.819 . S
H385 C399 0.941 . S
H386 C400 0.939 . S
H387 C402 0.940 . S
H388 C403 0.940 . S
H389 C405 0.939 . S
H390 C406 0.942 . S
H391 C408 0.940 . S
H392 C409 0.939 . S
H393 C411 0.941 . S
H394 C415 0.939 . S
O395 P384 1.490 . S
H396 C412 0.939 . S
H397 C414 0.940 . S
C398 P384 1.812 . S
C398 C399 1.389 . S
C398 C403 1.391 . S
C399 H385 0.941 . S
C399 C398 1.389 . S
C399 C400 1.397 . S
C400 H386 0.939 . S
C400 C399 1.397 . S
C400 C401 1.378 . S
C401 C400 1.378 . S
C401 C402 1.378 . S
C402 H387 0.940 . S
C402 C401 1.378 . S
C402 C403 1.396 . S
C403 H388 0.940 . S
C403 C398 1.391 . S
C403 C402 1.396 . S
C404 P384 1.803 . S
C404 C405 1.378 . S
C404 C409 1.400 . S
C405 H389 0.939 . S
C405 C404 1.378 . S
C405 C406 1.361 . S
C406 H390 0.942 . S
C406 C405 1.361 . S
C406 C407 1.369 . S
C407 C406 1.369 . S
C407 C408 1.404 . S
C408 H391 0.940 . S
C408 C407 1.404 . S
C408 C409 1.389 . S
C409 H392 0.939 . S
C409 C404 1.400 . S
C409 C408 1.389 . S
C410 P384 1.819 . S
C410 C411 1.391 . S
C410 C415 1.391 . S
C411 H393 0.941 . S
C411 C410 1.391 . S
C411 C412 1.396 . S
C412 H396 0.939 . S
C412 C411 1.396 . S
C412 C413 1.397 . S
C413 C412 1.397 . S
C413 C414 1.385 . S
C414 H397 0.940 . S
C414 C413 1.385 . S
C414 C415 1.388 . S
C415 H394 0.939 . S
C415 C410 1.391 . S
C415 C414 1.388 . S
P416 O427 1.490 . S
P416 C430 1.812 . S
P416 C436 1.803 . S
P416 C442 1.819 . S
H417 C431 0.941 . S
H418 C432 0.939 . S
H419 C434 0.940 . S
H420 C435 0.940 . S
H421 C437 0.939 . S
H422 C438 0.942 . S
H423 C440 0.940 . S
H424 C441 0.939 . S
H425 C443 0.941 . S
H426 C447 0.939 . S
O427 P416 1.490 . S
H428 C444 0.939 . S
H429 C446 0.940 . S
C430 P416 1.812 . S
C430 C431 1.389 . S
C430 C435 1.391 . S
C431 H417 0.941 . S
C431 C430 1.389 . S
C431 C432 1.397 . S
C432 H418 0.939 . S
C432 C431 1.397 . S
C432 C433 1.378 . S
C433 C432 1.378 . S
C433 C434 1.378 . S
C434 H419 0.940 . S
C434 C433 1.378 . S
C434 C435 1.396 . S
C435 H420 0.940 . S
C435 C430 1.391 . S
C435 C434 1.396 . S
C436 P416 1.803 . S
C436 C437 1.378 . S
C436 C441 1.400 . S
C437 H421 0.939 . S
C437 C436 1.378 . S
C437 C438 1.361 . S
C438 H422 0.942 . S
C438 C437 1.361 . S
C438 C439 1.369 . S
C439 C438 1.369 . S
C439 C440 1.404 . S
C440 H423 0.940 . S
C440 C439 1.404 . S
C440 C441 1.389 . S
C441 H424 0.939 . S
C441 C436 1.400 . S
C441 C440 1.389 . S
C442 P416 1.819 . S
C442 C443 1.391 . S
C442 C447 1.391 . S
C443 H425 0.941 . S
C443 C442 1.391 . S
C443 C444 1.396 . S
C444 H428 0.939 . S
C444 C443 1.396 . S
C444 C445 1.397 . S
C445 C444 1.397 . S
C445 C446 1.385 . S
C446 H429 0.940 . S
C446 C445 1.385 . S
C446 C447 1.388 . S
C447 H426 0.939 . S
C447 C442 1.391 . S
C447 C446 1.388 . S
P448 O459 1.490 . S
P448 C462 1.812 . S
P448 C468 1.803 . S
P448 C474 1.819 . S
H449 C463 0.941 . S
H450 C464 0.939 . S
H451 C466 0.940 . S
H452 C467 0.940 . S
H453 C469 0.939 . S
H454 C470 0.942 . S
H455 C472 0.940 . S
H456 C473 0.939 . S
H457 C475 0.941 . S
H458 C479 0.939 . S
O459 P448 1.490 . S
H460 C476 0.939 . S
H461 C478 0.940 . S
C462 P448 1.812 . S
C462 C463 1.389 . S
C462 C467 1.391 . S
C463 H449 0.941 . S
C463 C462 1.389 . S
C463 C464 1.397 . S
C464 H450 0.939 . S
C464 C463 1.397 . S
C464 C465 1.378 . S
C465 C464 1.378 . S
C465 C466 1.378 . S
C466 H451 0.940 . S
C466 C465 1.378 . S
C466 C467 1.396 . S
C467 H452 0.940 . S
C467 C462 1.391 . S
C467 C466 1.396 . S
C468 P448 1.803 . S
C468 C469 1.378 . S
C468 C473 1.400 . S
C469 H453 0.939 . S
C469 C468 1.378 . S
C469 C470 1.361 . S
C470 H454 0.942 . S
C470 C469 1.361 . S
C470 C471 1.369 . S
C471 C470 1.369 . S
C471 C472 1.404 . S
C472 H455 0.940 . S
C472 C471 1.404 . S
C472 C473 1.389 . S
C473 H456 0.939 . S
C473 C468 1.400 . S
C473 C472 1.389 . S
C474 P448 1.819 . S
C474 C475 1.391 . S
C474 C479 1.391 . S
C475 H457 0.941 . S
C475 C474 1.391 . S
C475 C476 1.396 . S
C476 H460 0.939 . S
C476 C475 1.396 . S
C476 C477 1.397 . S
C477 C476 1.397 . S
C477 C478 1.385 . S
C478 H461 0.940 . S
C478 C477 1.385 . S
C478 C479 1.388 . S
C479 H458 0.939 . S
C479 C474 1.391 . S
C479 C478 1.388 . S
P480 O491 1.490 . S
P480 C494 1.812 . S
P480 C500 1.803 . S
P480 C506 1.819 . S
H481 C495 0.941 . S
H482 C496 0.939 . S
H483 C498 0.940 . S
H484 C499 0.940 . S
H485 C501 0.939 . S
H486 C502 0.942 . S
H487 C504 0.940 . S
H488 C505 0.939 . S
H489 C507 0.941 . S
H490 C511 0.939 . S
O491 P480 1.490 . S
H492 C508 0.939 . S
H493 C510 0.940 . S
C494 P480 1.812 . S
C494 C495 1.389 . S
C494 C499 1.391 . S
C495 H481 0.941 . S
C495 C494 1.389 . S
C495 C496 1.397 . S
C496 H482 0.939 . S
C496 C495 1.397 . S
C496 C497 1.378 . S
C497 C496 1.378 . S
C497 C498 1.378 . S
C498 H483 0.940 . S
C498 C497 1.378 . S
C498 C499 1.396 . S
C499 H484 0.940 . S
C499 C494 1.391 . S
C499 C498 1.396 . S
C500 P480 1.803 . S
C500 C501 1.378 . S
C500 C505 1.400 . S
C501 H485 0.939 . S
C501 C500 1.378 . S
C501 C502 1.361 . S
C502 H486 0.942 . S
C502 C501 1.361 . S
C502 C503 1.369 . S
C503 C502 1.369 . S
C503 C504 1.404 . S
C504 H487 0.940 . S
C504 C503 1.404 . S
C504 C505 1.389 . S
C505 H488 0.939 . S
C505 C500 1.400 . S
C505 C504 1.389 . S
C506 P480 1.819 . S
C506 C507 1.391 . S
C506 C511 1.391 . S
C507 H489 0.941 . S
C507 C506 1.391 . S
C507 C508 1.396 . S
C508 H492 0.939 . S
C508 C507 1.396 . S
C508 C509 1.397 . S
C509 C508 1.397 . S
C509 C510 1.385 . S
C510 H493 0.940 . S
C510 C509 1.385 . S
C510 C511 1.388 . S
C511 H490 0.939 . S
C511 C506 1.391 . S
C511 C510 1.388 . S
P512 O523 1.490 . S
P512 C526 1.812 . S
P512 C532 1.803 . S
P512 C538 1.819 . S
H513 C527 0.941 . S
H514 C528 0.939 . S
H515 C530 0.940 . S
H516 C531 0.940 . S
H517 C533 0.939 . S
H518 C534 0.942 . S
H519 C536 0.940 . S
H520 C537 0.939 . S
H521 C539 0.941 . S
H522 C543 0.939 . S
O523 P512 1.490 . S
H524 C540 0.939 . S
H525 C542 0.940 . S
C526 P512 1.812 . S
C526 C527 1.389 . S
C526 C531 1.391 . S
C527 H513 0.941 . S
C527 C526 1.389 . S
C527 C528 1.397 . S
C528 H514 0.939 . S
C528 C527 1.397 . S
C528 C529 1.378 . S
C529 C528 1.378 . S
C529 C530 1.378 . S
C530 H515 0.940 . S
C530 C529 1.378 . S
C530 C531 1.396 . S
C531 H516 0.940 . S
C531 C526 1.391 . S
C531 C530 1.396 . S
C532 P512 1.803 . S
C532 C533 1.378 . S
C532 C537 1.400 . S
C533 H517 0.939 . S
C533 C532 1.378 . S
C533 C534 1.361 . S
C534 H518 0.942 . S
C534 C533 1.361 . S
C534 C535 1.369 . S
C535 C534 1.369 . S
C535 C536 1.404 . S
C536 H519 0.940 . S
C536 C535 1.404 . S
C536 C537 1.389 . S
C537 H520 0.939 . S
C537 C532 1.400 . S
C537 C536 1.389 . S
C538 P512 1.819 . S
C538 C539 1.391 . S
C538 C543 1.391 . S
C539 H521 0.941 . S
C539 C538 1.391 . S
C539 C540 1.396 . S
C540 H524 0.939 . S
C540 C539 1.396 . S
C540 C541 1.397 . S
C541 C540 1.397 . S
C541 C542 1.385 . S
C542 H525 0.940 . S
C542 C541 1.385 . S
C542 C543 1.388 . S
C543 H522 0.939 . S
C543 C538 1.391 . S
C543 C542 1.388 . S
P544 O555 1.490 . S
P544 C558 1.812 . S
P544 C564 1.803 . S
P544 C570 1.819 . S
H545 C559 0.941 . S
H546 C560 0.939 . S
H547 C562 0.940 . S
H548 C563 0.940 . S
H549 C565 0.939 . S
H550 C566 0.942 . S
H551 C568 0.940 . S
H552 C569 0.939 . S
H553 C571 0.941 . S
H554 C575 0.939 . S
O555 P544 1.490 . S
H556 C572 0.939 . S
H557 C574 0.940 . S
C558 P544 1.812 . S
C558 C559 1.389 . S
C558 C563 1.391 . S
C559 H545 0.941 . S
C559 C558 1.389 . S
C559 C560 1.397 . S
C560 H546 0.939 . S
C560 C559 1.397 . S
C560 C561 1.378 . S
C561 C560 1.378 . S
C561 C562 1.378 . S
C562 H547 0.940 . S
C562 C561 1.378 . S
C562 C563 1.396 . S
C563 H548 0.940 . S
C563 C558 1.391 . S
C563 C562 1.396 . S
C564 P544 1.803 . S
C564 C565 1.378 . S
C564 C569 1.400 . S
C565 H549 0.939 . S
C565 C564 1.378 . S
C565 C566 1.361 . S
C566 H550 0.942 . S
C566 C565 1.361 . S
C566 C567 1.369 . S
C567 C566 1.369 . S
C567 C568 1.404 . S
C568 H551 0.940 . S
C568 C567 1.404 . S
C568 C569 1.389 . S
C569 H552 0.939 . S
C569 C564 1.400 . S
C569 C568 1.389 . S
C570 P544 1.819 . S
C570 C571 1.391 . S
C570 C575 1.391 . S
C571 H553 0.941 . S
C571 C570 1.391 . S
C571 C572 1.396 . S
C572 H556 0.939 . S
C572 C571 1.396 . S
C572 C573 1.397 . S
C573 C572 1.397 . S
C573 C574 1.385 . S
C574 H557 0.940 . S
C574 C573 1.385 . S
C574 C575 1.388 . S
C575 H554 0.939 . S
C575 C570 1.391 . S
C575 C574 1.388 . S
Tb576 O579 2.453 . S
Tb576 O580 2.596 1_545 S
Tb576 O581 2.374 1_545 S
Tb576 O589 2.343 1_554 S
Tb576 O591 2.353 . S
Tb576 O593 2.427 1_554 S
Tb576 O594 2.513 1_554 S
C577 O581 1.251 . S
C577 O583 1.266 . S
Tb578 O580 2.343 1_556 S
Tb578 O583 2.352 1_556 S
Tb578 O586 2.427 1_556 S
Tb578 O587 2.513 1_556 S
Tb578 O588 2.453 . S
Tb578 O589 2.596 1_565 S
Tb578 O590 2.374 1_565 S
O579 Tb576 2.453 . S
O579 C595 1.245 . S
O580 Tb576 2.596 1_565 S
O580 Tb578 2.343 1_554 S
O580 C595 1.259 1_565 S
O581 Tb576 2.374 1_565 S
O581 C577 1.251 . S
C582 O586 1.275 . S
C582 O587 1.246 . S
O583 C577 1.266 . S
O583 Tb578 2.352 1_554 S
C584 O588 1.232 1_545 S
C584 O589 1.262 . S
C585 O590 1.250 . S
C585 O591 1.263 1_556 S
O586 Tb578 2.427 1_554 S
O586 C582 1.275 . S
O587 Tb578 2.513 1_554 S
O587 C582 1.246 . S
O588 Tb578 2.453 . S
O588 C584 1.232 1_565 S
O589 Tb576 2.343 1_556 S
O589 Tb578 2.596 1_545 S
O589 C584 1.262 . S
O590 Tb578 2.374 1_545 S
O590 C585 1.250 . S
O591 Tb576 2.353 . S
O591 C585 1.263 1_554 S
C592 O593 1.275 . S
C592 O594 1.246 . S
O593 Tb576 2.427 1_556 S
O593 C592 1.275 . S
O594 Tb576 2.513 1_556 S
O594 C592 1.246 . S
C595 O579 1.245 . S
C595 O580 1.259 1_545 S
Tb596 O599 2.453 . S
Tb596 O600 2.596 1_655 S
Tb596 O601 2.374 1_655 S
Tb596 O609 2.343 1_554 S
Tb596 O611 2.353 . S
Tb596 O613 2.427 1_554 S
Tb596 O614 2.513 1_554 S
C597 O601 1.251 . S
C597 O603 1.263 . S
Tb598 O600 2.343 1_556 S
Tb598 O603 2.353 1_556 S
Tb598 O606 2.427 1_556 S
Tb598 O607 2.513 1_556 S
Tb598 O608 2.453 . S
Tb598 O609 2.596 1_455 S
Tb598 O610 2.374 1_455 S
O599 Tb596 2.453 . S
O599 C615 1.245 1_655 S
O600 Tb596 2.596 1_455 S
O600 Tb598 2.343 1_554 S
O600 C615 1.259 . S
O601 Tb596 2.374 1_455 S
O601 C597 1.251 . S
C602 O606 1.275 . S
C602 O607 1.246 . S
O603 C597 1.263 . S
O603 Tb598 2.353 1_554 S
C604 O608 1.215 1_655 S
C604 O609 1.270 . S
C605 O610 1.250 . S
C605 O611 1.263 1_556 S
O606 Tb598 2.427 1_554 S
O606 C602 1.275 . S
O607 Tb598 2.513 1_554 S
O607 C602 1.246 . S
O608 Tb598 2.453 . S
O608 C604 1.215 1_455 S
O609 Tb596 2.343 1_556 S
O609 Tb598 2.596 1_655 S
O609 C604 1.270 . S
O610 Tb598 2.374 1_655 S
O610 C605 1.250 . S
O611 Tb596 2.353 . S
O611 C605 1.263 1_554 S
C612 O613 1.275 . S
C612 O614 1.246 . S
O613 Tb596 2.427 1_556 S
O613 C612 1.275 . S
O614 Tb596 2.513 1_556 S
O614 C612 1.246 . S
C615 O599 1.245 1_455 S
C615 O600 1.259 . S
Tb616 O619 2.453 . S
Tb616 O620 2.596 . S
Tb616 O621 2.374 . S
Tb616 O629 2.343 1_556 S
Tb616 O631 2.353 1_556 S
Tb616 O633 2.427 1_556 S
Tb616 O634 2.513 1_556 S
C617 O621 1.251 . S
C617 O623 1.263 1_556 S
Tb618 O620 2.343 1_554 S
Tb618 O623 2.353 . S
Tb618 O626 2.427 1_554 S
Tb618 O627 2.513 1_554 S
Tb618 O628 2.453 . S
Tb618 O629 2.596 . S
Tb618 O630 2.374 . S
O619 Tb616 2.453 . S
O619 C635 1.245 . S
O620 Tb616 2.596 . S
O620 Tb618 2.343 1_556 S
O620 C635 1.259 . S
O621 Tb616 2.374 . S
O621 C617 1.251 . S
C622 O626 1.275 . S
C622 O627 1.246 . S
O623 C617 1.263 1_554 S
O623 Tb618 2.353 . S
C624 O628 1.245 . S
C624 O629 1.259 . S
C625 O630 1.250 . S
C625 O631 1.263 . S
O626 Tb618 2.427 1_556 S
O626 C622 1.275 . S
O627 Tb618 2.513 1_556 S
O627 C622 1.246 . S
O628 Tb618 2.453 . S
O628 C624 1.245 . S
O629 Tb616 2.343 1_554 S
O629 Tb618 2.596 . S
O629 C624 1.259 . S
O630 Tb618 2.374 . S
O630 C625 1.250 . S
O631 Tb616 2.353 1_554 S
O631 C625 1.263 . S
C632 O633 1.275 . S
C632 O634 1.246 . S
O633 Tb616 2.427 1_554 S
O633 C632 1.275 . S
O634 Tb616 2.513 1_554 S
O634 C632 1.246 . S
C635 O619 1.245 . S
C635 O620 1.259 . S
Tb636 O639 2.453 . S
Tb636 O640 2.596 . S
Tb636 O641 2.374 . S
Tb636 O649 2.343 . S
Tb636 O651 2.353 . S
Tb636 O653 2.427 . S
Tb636 O654 2.513 . S
C637 O641 1.251 . S
C637 O643 1.263 . S
Tb638 O640 2.343 . S
Tb638 O643 2.353 . S
Tb638 O646 2.427 . S
Tb638 O647 2.513 . S
Tb638 O648 2.453 . S
Tb638 O649 2.596 . S
Tb638 O650 2.374 . S
O639 Tb636 2.453 . S
O639 C655 1.245 . S
O640 Tb636 2.596 . S
O640 Tb638 2.343 . S
O640 C655 1.259 . S
O641 Tb636 2.374 . S
O641 C637 1.251 . S
C642 O646 1.275 . S
C642 O647 1.246 . S
O643 C637 1.263 . S
O643 Tb638 2.353 . S
C644 O648 1.245 . S
C644 O649 1.259 . S
C645 O650 1.250 . S
C645 O651 1.263 . S
O646 Tb638 2.427 . S
O646 C642 1.275 . S
O647 Tb638 2.513 . S
O647 C642 1.246 . S
O648 Tb638 2.453 . S
O648 C644 1.245 . S
O649 Tb636 2.343 . S
O649 Tb638 2.596 . S
O649 C644 1.259 . S
O650 Tb638 2.374 . S
O650 C645 1.250 . S
O651 Tb636 2.353 . S
O651 C645 1.263 . S
C652 O653 1.275 . S
C652 O654 1.246 . S
O653 Tb636 2.427 . S
O653 C652 1.275 . S
O654 Tb636 2.513 . S
O654 C652 1.246 . S
C655 O639 1.245 . S
C655 O640 1.259 . S
Tb656 O659 2.453 . S
Tb656 O660 2.596 . S
Tb656 O661 2.374 . S
Tb656 O669 2.343 . S
Tb656 O671 2.353 . S
Tb656 O673 2.427 . S
Tb656 O674 2.513 . S
C657 O661 1.251 . S
C657 O663 1.263 . S
Tb658 O660 2.343 . S
Tb658 O663 2.353 . S
Tb658 O666 2.427 . S
Tb658 O667 2.513 . S
Tb658 O668 2.453 . S
Tb658 O669 2.596 . S
Tb658 O670 2.374 . S
O659 Tb656 2.453 . S
O659 C675 1.245 . S
O660 Tb656 2.596 . S
O660 Tb658 2.343 . S
O660 C675 1.259 . S
O661 Tb656 2.374 . S
O661 C657 1.251 . S
C662 O666 1.275 . S
C662 O667 1.246 . S
O663 C657 1.263 . S
O663 Tb658 2.353 . S
C664 O668 1.245 . S
C664 O669 1.259 . S
C665 O670 1.250 . S
C665 O671 1.263 . S
O666 Tb658 2.427 . S
O666 C662 1.275 . S
O667 Tb658 2.513 . S
O667 C662 1.246 . S
O668 Tb658 2.453 . S
O668 C664 1.245 . S
O669 Tb656 2.343 . S
O669 Tb658 2.596 . S
O669 C664 1.259 . S
O670 Tb658 2.374 . S
O670 C665 1.250 . S
O671 Tb656 2.353 . S
O671 C665 1.263 . S
C672 O673 1.275 . S
C672 O674 1.246 . S
O673 Tb656 2.427 . S
O673 C672 1.275 . S
O674 Tb656 2.513 . S
O674 C672 1.246 . S
C675 O659 1.245 . S
C675 O660 1.259 . S
Tb676 O679 2.453 . S
Tb676 O680 2.596 . S
Tb676 O681 2.374 . S
Tb676 O689 2.343 . S
Tb676 O691 2.353 . S
Tb676 O693 2.427 . S
Tb676 O694 2.513 . S
C677 O681 1.251 . S
C677 O683 1.263 . S
Tb678 O680 2.343 . S
Tb678 O683 2.353 . S
Tb678 O686 2.427 . S
Tb678 O687 2.513 . S
Tb678 O688 2.453 . S
Tb678 O689 2.596 . S
Tb678 O690 2.374 . S
O679 Tb676 2.453 . S
O679 C695 1.245 . S
O680 Tb676 2.596 . S
O680 Tb678 2.343 . S
O680 C695 1.259 . S
O681 Tb676 2.374 . S
O681 C677 1.251 . S
C682 O686 1.275 . S
C682 O687 1.246 . S
O683 C677 1.263 . S
O683 Tb678 2.353 . S
C684 O688 1.245 . S
C684 O689 1.259 . S
C685 O690 1.250 . S
C685 O691 1.263 . S
O686 Tb678 2.427 . S
O686 C682 1.275 . S
O687 Tb678 2.513 . S
O687 C682 1.246 . S
O688 Tb678 2.453 . S
O688 C684 1.245 . S
O689 Tb676 2.343 . S
O689 Tb678 2.596 . S
O689 C684 1.259 . S
O690 Tb678 2.374 . S
O690 C685 1.250 . S
O691 Tb676 2.353 . S
O691 C685 1.263 . S
C692 O693 1.275 . S
C692 O694 1.246 . S
O693 Tb676 2.427 . S
O693 C692 1.275 . S
O694 Tb676 2.513 . S
O694 C692 1.246 . S
C695 O679 1.245 . S
C695 O680 1.259 . S
Tb696 O699 2.453 . S
Tb696 O700 2.596 . S
Tb696 O701 2.374 . S
Tb696 O709 2.343 . S
Tb696 O711 2.353 . S
Tb696 O713 2.427 . S
Tb696 O714 2.513 . S
C697 O701 1.251 . S
C697 O703 1.263 . S
Tb698 O700 2.343 . S
Tb698 O703 2.353 . S
Tb698 O706 2.427 . S
Tb698 O707 2.513 . S
Tb698 O708 2.453 . S
Tb698 O709 2.596 . S
Tb698 O710 2.374 . S
O699 Tb696 2.453 . S
O699 C715 1.245 . S
O700 Tb696 2.596 . S
O700 Tb698 2.343 . S
O700 C715 1.259 . S
O701 Tb696 2.374 . S
O701 C697 1.251 . S
C702 O706 1.275 . S
C702 O707 1.246 . S
O703 C697 1.263 . S
O703 Tb698 2.353 . S
C704 O708 1.245 . S
C704 O709 1.259 . S
C705 O710 1.250 . S
C705 O711 1.263 . S
O706 Tb698 2.427 . S
O706 C702 1.275 . S
O707 Tb698 2.513 . S
O707 C702 1.246 . S
O708 Tb698 2.453 . S
O708 C704 1.245 . S
O709 Tb696 2.343 . S
O709 Tb698 2.596 . S
O709 C704 1.259 . S
O710 Tb698 2.374 . S
O710 C705 1.250 . S
O711 Tb696 2.353 . S
O711 C705 1.263 . S
C712 O713 1.275 . S
C712 O714 1.246 . S
O713 Tb696 2.427 . S
O713 C712 1.275 . S
O714 Tb696 2.513 . S
O714 C712 1.246 . S
C715 O699 1.245 . S
C715 O700 1.259 . S
Tb716 O719 2.453 . S
Tb716 O720 2.596 . S
Tb716 O721 2.374 . S
Tb716 O729 2.343 . S
Tb716 O731 2.353 . S
Tb716 O733 2.427 . S
Tb716 O734 2.513 . S
C717 O721 1.251 . S
C717 O723 1.263 . S
Tb718 O720 2.343 . S
Tb718 O723 2.353 . S
Tb718 O726 2.427 . S
Tb718 O727 2.513 . S
Tb718 O728 2.453 . S
Tb718 O729 2.596 . S
Tb718 O730 2.374 . S
O719 Tb716 2.453 . S
O719 C735 1.245 . S
O720 Tb716 2.596 . S
O720 Tb718 2.343 . S
O720 C735 1.259 . S
O721 Tb716 2.374 . S
O721 C717 1.251 . S
C722 O726 1.275 . S
C722 O727 1.246 . S
O723 C717 1.263 . S
O723 Tb718 2.353 . S
C724 O728 1.245 . S
C724 O729 1.259 . S
C725 O730 1.250 . S
C725 O731 1.263 . S
O726 Tb718 2.427 . S
O726 C722 1.275 . S
O727 Tb718 2.513 . S
O727 C722 1.246 . S
O728 Tb718 2.453 . S
O728 C724 1.245 . S
O729 Tb716 2.343 . S
O729 Tb718 2.596 . S
O729 C724 1.259 . S
O730 Tb718 2.374 . S
O730 C725 1.250 . S
O731 Tb716 2.353 . S
O731 C725 1.263 . S
C732 O733 1.275 . S
C732 O734 1.246 . S
O733 Tb716 2.427 . S
O733 C732 1.275 . S
O734 Tb716 2.513 . S
O734 C732 1.246 . S
C735 O719 1.245 . S
C735 O720 1.259 . S
Tb736 O739 2.453 . S
Tb736 O740 2.596 . S
Tb736 O741 2.374 . S
Tb736 O749 2.343 . S
Tb736 O751 2.353 . S
Tb736 O753 2.427 . S
Tb736 O754 2.513 . S
C737 O741 1.251 . S
C737 O743 1.263 . S
Tb738 O740 2.343 . S
Tb738 O743 2.353 . S
Tb738 O746 2.427 . S
Tb738 O747 2.513 . S
Tb738 O748 2.453 . S
Tb738 O749 2.596 . S
Tb738 O750 2.374 . S
O739 Tb736 2.453 . S
O739 C755 1.245 . S
O740 Tb736 2.596 . S
O740 Tb738 2.343 . S
O740 C755 1.259 . S
O741 Tb736 2.374 . S
O741 C737 1.251 . S
C742 O746 1.275 . S
C742 O747 1.246 . S
O743 C737 1.263 . S
O743 Tb738 2.353 . S
C744 O748 1.245 . S
C744 O749 1.259 . S
C745 O750 1.250 . S
C745 O751 1.263 . S
O746 Tb738 2.427 . S
O746 C742 1.275 . S
O747 Tb738 2.513 . S
O747 C742 1.246 . S
O748 Tb738 2.453 . S
O748 C744 1.245 . S
O749 Tb736 2.343 . S
O749 Tb738 2.596 . S
O749 C744 1.259 . S
O750 Tb738 2.374 . S
O750 C745 1.250 . S
O751 Tb736 2.353 . S
O751 C745 1.263 . S
C752 O753 1.275 . S
C752 O754 1.246 . S
O753 Tb736 2.427 . S
O753 C752 1.275 . S
O754 Tb736 2.513 . S
O754 C752 1.246 . S
C755 O739 1.245 . S
C755 O740 1.259 . S
H756 C764 0.950 . S
H757 C769 0.950 . S
H758 C766 0.950 . S
H759 C768 0.950 . S
H760 C770 0.950 . S
H761 C772 0.950 . S
H762 C774 0.950 . S
H763 C775 0.950 . S
C764 H756 0.950 . S
C764 C765 1.386 . S
C764 C766 1.391 . S
C765 C764 1.386 . S
C765 C769 1.393 . S
C766 H758 0.950 . S
C766 C764 1.391 . S
C766 C767 1.400 . S
C767 C766 1.400 . S
C767 C768 1.398 . S
C767 C773 1.491 . S
C768 H759 0.950 . S
C768 C767 1.398 . S
C768 C769 1.391 . S
C769 H757 0.950 . S
C769 C765 1.393 . S
C769 C768 1.391 . S
C770 H760 0.950 . S
C770 C771 1.386 . S
C770 C772 1.391 . S
C771 C770 1.386 . S
C771 C775 1.393 . S
C772 H761 0.950 . S
C772 C770 1.391 . S
C772 C773 1.400 . S
C773 C767 1.491 . S
C773 C772 1.400 . S
C773 C774 1.398 . S
C774 H762 0.950 . S
C774 C773 1.398 . S
C774 C775 1.391 . S
C775 H763 0.950 . S
C775 C771 1.393 . S
C775 C774 1.391 . S
H776 C784 0.950 . S
H777 C789 0.950 . S
H778 C786 0.950 . S
H779 C788 0.950 . S
H780 C790 0.950 . S
H781 C792 0.950 . S
H782 C794 0.950 . S
H783 C795 0.950 . S
C784 H776 0.950 . S
C784 C785 1.386 . S
C784 C786 1.391 . S
C785 C784 1.386 . S
C785 C789 1.393 . S
C786 H778 0.950 . S
C786 C784 1.391 . S
C786 C787 1.400 . S
C787 C786 1.400 . S
C787 C788 1.398 . S
C787 C793 1.491 . S
C788 H779 0.950 . S
C788 C787 1.398 . S
C788 C789 1.391 . S
C789 H777 0.950 . S
C789 C785 1.393 . S
C789 C788 1.391 . S
C790 H780 0.950 . S
C790 C791 1.386 . S
C790 C792 1.391 . S
C791 C790 1.386 . S
C791 C795 1.393 . S
C792 H781 0.950 . S
C792 C790 1.391 . S
C792 C793 1.400 . S
C793 C787 1.491 . S
C793 C792 1.400 . S
C793 C794 1.398 . S
C794 H782 0.950 . S
C794 C793 1.398 . S
C794 C795 1.391 . S
C795 H783 0.950 . S
C795 C791 1.393 . S
C795 C794 1.391 . S
H796 C804 0.950 . S
H797 C809 0.950 . S
H798 C806 0.950 . S
H799 C808 0.950 . S
H800 C810 0.950 . S
H801 C812 0.950 . S
H802 C814 0.950 . S
H803 C815 0.950 1_556 S
C804 H796 0.950 . S
C804 C805 1.386 . S
C804 C806 1.391 . S
C805 C804 1.386 . S
C805 C809 1.393 . S
C806 H798 0.950 . S
C806 C804 1.391 . S
C806 C807 1.400 . S
C807 C806 1.400 . S
C807 C808 1.398 . S
C807 C813 1.491 . S
C808 H799 0.950 . S
C808 C807 1.398 . S
C808 C809 1.391 . S
C809 H797 0.950 . S
C809 C805 1.393 . S
C809 C808 1.391 . S
C810 H800 0.950 . S
C810 C811 1.386 . S
C810 C812 1.391 . S
C811 C810 1.386 . S
C811 C815 1.393 . S
C812 H801 0.950 . S
C812 C810 1.391 . S
C812 C813 1.400 . S
C813 C807 1.491 . S
C813 C812 1.400 . S
C813 C814 1.398 . S
C814 H802 0.950 . S
C814 C813 1.398 . S
C814 C815 1.391 . S
C815 H803 0.950 1_554 S
C815 C811 1.393 . S
C815 C814 1.391 . S
H816 C824 0.950 . S
H817 C829 0.950 . S
H818 C826 0.950 . S
H819 C828 0.950 . S
H820 C830 0.950 . S
H821 C832 0.950 . S
H822 C834 0.950 . S
H823 C835 0.950 1_554 S
C824 H816 0.950 . S
C824 C825 1.386 . S
C824 C826 1.391 . S
C825 C824 1.386 . S
C825 C829 1.393 . S
C826 H818 0.950 . S
C826 C824 1.391 . S
C826 C827 1.400 . S
C827 C826 1.400 . S
C827 C828 1.398 . S
C827 C833 1.491 . S
C828 H819 0.950 . S
C828 C827 1.398 . S
C828 C829 1.391 . S
C829 H817 0.950 . S
C829 C825 1.393 . S
C829 C828 1.391 . S
C830 H820 0.950 . S
C830 C831 1.386 . S
C830 C832 1.391 . S
C831 C830 1.386 . S
C831 C835 1.393 . S
C832 H821 0.950 . S
C832 C830 1.391 . S
C832 C833 1.400 . S
C833 C827 1.491 . S
C833 C832 1.400 . S
C833 C834 1.398 . S
C834 H822 0.950 . S
C834 C833 1.398 . S
C834 C835 1.391 . S
C835 H823 0.950 1_556 S
C835 C831 1.393 . S
C835 C834 1.391 . S
H836 C844 0.950 . S
H837 C849 0.950 . S
H838 C846 0.950 . S
H839 C848 0.950 . S
H840 C850 0.950 . S
H841 C852 0.950 . S
H842 C854 0.950 . S
H843 C855 0.950 . S
C844 H836 0.950 . S
C844 C845 1.386 . S
C844 C846 1.391 . S
C845 C844 1.386 . S
C845 C849 1.393 . S
C846 H838 0.950 . S
C846 C844 1.391 . S
C846 C847 1.400 . S
C847 C846 1.400 . S
C847 C848 1.398 . S
C847 C853 1.491 . S
C848 H839 0.950 . S
C848 C847 1.398 . S
C848 C849 1.391 . S
C849 H837 0.950 . S
C849 C845 1.393 . S
C849 C848 1.391 . S
C850 H840 0.950 . S
C850 C851 1.386 . S
C850 C852 1.391 . S
C851 C850 1.386 . S
C851 C855 1.393 . S
C852 H841 0.950 . S
C852 C850 1.391 . S
C852 C853 1.400 . S
C853 C847 1.491 . S
C853 C852 1.400 . S
C853 C854 1.398 . S
C854 H842 0.950 . S
C854 C853 1.398 . S
C854 C855 1.391 . S
C855 H843 0.950 . S
C855 C851 1.393 . S
C855 C854 1.391 . S
H856 C864 0.950 . S
H857 C869 0.950 . S
H858 C866 0.950 . S
H859 C868 0.950 . S
H860 C870 0.950 . S
H861 C872 0.950 . S
H862 C874 0.950 . S
H863 C875 0.950 . S
C864 H856 0.950 . S
C864 C865 1.386 . S
C864 C866 1.391 . S
C865 C864 1.386 . S
C865 C869 1.393 . S
C866 H858 0.950 . S
C866 C864 1.391 . S
C866 C867 1.400 . S
C867 C866 1.400 . S
C867 C868 1.398 . S
C867 C873 1.491 . S
C868 H859 0.950 . S
C868 C867 1.398 . S
C868 C869 1.391 . S
C869 H857 0.950 . S
C869 C865 1.393 . S
C869 C868 1.391 . S
C870 H860 0.950 . S
C870 C871 1.386 . S
C870 C872 1.391 . S
C871 C870 1.386 . S
C871 C875 1.393 . S
C872 H861 0.950 . S
C872 C870 1.391 . S
C872 C873 1.400 . S
C873 C867 1.491 . S
C873 C872 1.400 . S
C873 C874 1.398 . S
C874 H862 0.950 . S
C874 C873 1.398 . S
C874 C875 1.391 . S
C875 H863 0.950 . S
C875 C871 1.393 . S
C875 C874 1.391 . S
H876 C884 0.950 . S
H877 C889 0.950 . S
H878 C886 0.950 . S
H879 C888 0.950 . S
H880 C890 0.950 . S
H881 C892 0.950 . S
H882 C894 0.950 . S
H883 C895 0.950 . S
C884 H876 0.950 . S
C884 C885 1.386 . S
C884 C886 1.391 . S
C885 C884 1.386 . S
C885 C889 1.393 . S
C886 H878 0.950 . S
C886 C884 1.391 . S
C886 C887 1.400 . S
C887 C886 1.400 . S
C887 C888 1.398 . S
C887 C893 1.491 . S
C888 H879 0.950 . S
C888 C887 1.398 . S
C888 C889 1.391 . S
C889 H877 0.950 . S
C889 C885 1.393 . S
C889 C888 1.391 . S
C890 H880 0.950 . S
C890 C891 1.386 . S
C890 C892 1.391 . S
C891 C890 1.386 . S
C891 C895 1.393 . S
C892 H881 0.950 . S
C892 C890 1.391 . S
C892 C893 1.400 . S
C893 C887 1.491 . S
C893 C892 1.400 . S
C893 C894 1.398 . S
C894 H882 0.950 . S
C894 C893 1.398 . S
C894 C895 1.391 . S
C895 H883 0.950 . S
C895 C891 1.393 . S
C895 C894 1.391 . S
H896 C904 0.950 . S
H897 C909 0.950 . S
H898 C906 0.950 . S
H899 C908 0.950 . S
H900 C910 0.950 . S
H901 C912 0.950 . S
H902 C914 0.950 . S
H903 C915 0.950 . S
C904 H896 0.950 . S
C904 C905 1.386 . S
C904 C906 1.391 . S
C905 C904 1.386 . S
C905 C909 1.393 . S
C906 H898 0.950 . S
C906 C904 1.391 . S
C906 C907 1.400 . S
C907 C906 1.400 . S
C907 C908 1.398 . S
C907 C913 1.491 . S
C908 H899 0.950 . S
C908 C907 1.398 . S
C908 C909 1.391 . S
C909 H897 0.950 . S
C909 C905 1.393 . S
C909 C908 1.391 . S
C910 H900 0.950 . S
C910 C911 1.386 . S
C910 C912 1.391 . S
C911 C910 1.386 . S
C911 C915 1.393 . S
C912 H901 0.950 . S
C912 C910 1.391 . S
C912 C913 1.400 . S
C913 C907 1.491 . S
C913 C912 1.400 . S
C913 C914 1.398 . S
C914 H902 0.950 . S
C914 C913 1.398 . S
C914 C915 1.391 . S
C915 H903 0.950 . S
C915 C911 1.393 . S
C915 C914 1.391 . S
H916 C924 0.950 . S
H917 C929 0.950 . S
H918 C926 0.950 . S
H919 C928 0.950 . S
H920 C930 0.915 1_554 S
H921 C932 0.950 1_554 S
H922 C934 0.950 . S
H923 C935 0.950 . S
C924 H916 0.950 . S
C924 C925 1.386 . S
C924 C926 1.391 . S
C925 C924 1.386 . S
C925 C929 1.393 . S
C926 H918 0.950 . S
C926 C924 1.391 . S
C926 C927 1.400 . S
C927 C926 1.400 . S
C927 C928 1.398 . S
C927 C933 1.491 . S
C928 H919 0.950 . S
C928 C927 1.398 . S
C928 C929 1.391 . S
C929 H917 0.950 . S
C929 C925 1.393 . S
C929 C928 1.391 . S
C930 H920 0.915 1_556 S
C930 C931 1.414 . S
C930 C932 1.398 . S
C931 C930 1.414 . S
C931 C935 1.393 . S
C932 H921 0.950 1_556 S
C932 C930 1.398 . S
C932 C933 1.400 . S
C933 C927 1.491 . S
C933 C932 1.400 . S
C933 C934 1.398 . S
C934 H922 0.950 . S
C934 C933 1.398 . S
C934 C935 1.391 . S
C935 H923 0.950 . S
C935 C931 1.393 . S
C935 C934 1.391 . S
H936 C944 0.950 . S
H937 C949 0.950 . S
H938 C946 0.950 . S
H939 C948 0.950 . S
H940 C950 0.950 . S
H941 C952 0.950 . S
H942 C954 0.950 . S
H943 C955 0.950 . S
C944 H936 0.950 . S
C944 C945 1.386 . S
C944 C946 1.391 . S
C945 C944 1.386 . S
C945 C949 1.393 . S
C946 H938 0.950 . S
C946 C944 1.391 . S
C946 C947 1.400 . S
C947 C946 1.400 . S
C947 C948 1.398 . S
C947 C953 1.491 . S
C948 H939 0.950 . S
C948 C947 1.398 . S
C948 C949 1.391 . S
C949 H937 0.950 . S
C949 C945 1.393 . S
C949 C948 1.391 . S
C950 H940 0.950 . S
C950 C951 1.386 . S
C950 C952 1.391 . S
C951 C950 1.386 . S
C951 C955 1.393 . S
C952 H941 0.950 . S
C952 C950 1.391 . S
C952 C953 1.400 . S
C953 C947 1.491 . S
C953 C952 1.400 . S
C953 C954 1.398 . S
C954 H942 0.950 . S
C954 C953 1.398 . S
C954 C955 1.391 . S
C955 H943 0.950 . S
C955 C951 1.393 . S
C955 C954 1.391 . S
H956 C964 0.950 . S
H957 C969 0.950 . S
H958 C966 0.950 . S
H959 C968 0.950 . S
H960 C970 0.950 . S
H961 C972 0.950 . S
H962 C974 0.950 . S
H963 C975 0.950 . S
C964 H956 0.950 . S
C964 C965 1.386 . S
C964 C966 1.391 . S
C965 C964 1.386 . S
C965 C969 1.393 . S
C966 H958 0.950 . S
C966 C964 1.391 . S
C966 C967 1.400 . S
C967 C966 1.400 . S
C967 C968 1.398 . S
C967 C973 1.491 . S
C968 H959 0.950 . S
C968 C967 1.398 . S
C968 C969 1.391 . S
C969 H957 0.950 . S
C969 C965 1.393 . S
C969 C968 1.391 . S
C970 H960 0.950 . S
C970 C971 1.386 . S
C970 C972 1.391 . S
C971 C970 1.386 . S
C971 C975 1.393 . S
C972 H961 0.950 . S
C972 C970 1.391 . S
C972 C973 1.400 . S
C973 C967 1.491 . S
C973 C972 1.400 . S
C973 C974 1.398 . S
C974 H962 0.950 . S
C974 C973 1.398 . S
C974 C975 1.391 . S
C975 H963 0.950 . S
C975 C971 1.393 . S
C975 C974 1.391 . S
H976 C984 0.950 . S
H977 C989 0.950 . S
H978 C986 0.950 . S
H979 C988 0.950 . S
H980 C990 0.950 . S
H981 C992 0.950 . S
H982 C994 0.950 . S
H983 C995 0.950 . S
C984 H976 0.950 . S
C984 C985 1.386 . S
C984 C986 1.391 . S
C985 C984 1.386 . S
C985 C989 1.393 . S
C986 H978 0.950 . S
C986 C984 1.391 . S
C986 C987 1.400 . S
C987 C986 1.400 . S
C987 C988 1.398 . S
C987 C993 1.491 . S
C988 H979 0.950 . S
C988 C987 1.398 . S
C988 C989 1.391 . S
C989 H977 0.950 . S
C989 C985 1.393 . S
C989 C988 1.391 . S
C990 H980 0.950 . S
C990 C991 1.386 . S
C990 C992 1.391 . S
C991 C990 1.386 . S
C991 C995 1.393 . S
C992 H981 0.950 . S
C992 C990 1.391 . S
C992 C993 1.400 . S
C993 C987 1.491 . S
C993 C992 1.400 . S
C993 C994 1.398 . S
C994 H982 0.950 . S
C994 C993 1.398 . S
C994 C995 1.391 . S
C995 H983 0.950 . S
C995 C991 1.393 . S
C995 C994 1.391 . S
H996 C1004 0.950 . S
H997 C1009 0.950 . S
H998 C1006 0.950 . S
H999 C1008 0.950 1_455 S
H1000 C1010 0.950 . S
H1001 C1012 0.950 . S
H1002 C1014 0.950 . S
H1003 C1015 0.950 . S
C1004 H996 0.950 . S
C1004 C1005 1.386 . S
C1004 C1006 1.391 . S
C1005 C1004 1.386 . S
C1005 C1009 1.393 . S
C1006 H998 0.950 . S
C1006 C1004 1.391 . S
C1006 C1007 1.400 1_655 S
C1007 C1006 1.400 1_455 S
C1007 C1008 1.398 1_455 S
C1007 C1013 1.491 . S
C1008 H999 0.950 1_655 S
C1008 C1007 1.398 1_655 S
C1008 C1009 1.391 . S
C1009 H997 0.950 . S
C1009 C1005 1.393 . S
C1009 C1008 1.391 . S
C1010 H1000 0.950 . S
C1010 C1011 1.386 . S
C1010 C1012 1.391 . S
C1011 C1010 1.386 . S
C1011 C1015 1.393 . S
C1012 H1001 0.950 . S
C1012 C1010 1.391 . S
C1012 C1013 1.400 . S
C1013 C1007 1.491 . S
C1013 C1012 1.400 . S
C1013 C1014 1.398 . S
C1014 H1002 0.950 . S
C1014 C1013 1.398 . S
C1014 C1015 1.391 . S
C1015 H1003 0.950 . S
C1015 C1011 1.393 . S
C1015 C1014 1.391 . S
H1016 C1024 0.950 . S
H1017 C1029 0.950 . S
H1018 C1026 0.950 . S
H1019 C1028 0.950 . S
H1020 C1030 0.950 . S
H1021 C1032 0.950 . S
H1022 C1034 0.950 . S
H1023 C1035 0.950 . S
C1024 H1016 0.950 . S
C1024 C1025 1.386 . S
C1024 C1026 1.391 . S
C1025 C1024 1.386 . S
C1025 C1029 1.393 . S
C1026 H1018 0.950 . S
C1026 C1024 1.391 . S
C1026 C1027 1.400 . S
C1027 C1026 1.400 . S
C1027 C1028 1.398 . S
C1027 C1033 1.491 . S
C1028 H1019 0.950 . S
C1028 C1027 1.398 . S
C1028 C1029 1.391 . S
C1029 H1017 0.950 . S
C1029 C1025 1.393 . S
C1029 C1028 1.391 . S
C1030 H1020 0.950 . S
C1030 C1031 1.386 . S
C1030 C1032 1.391 . S
C1031 C1030 1.386 . S
C1031 C1035 1.393 . S
C1032 H1021 0.950 . S
C1032 C1030 1.391 . S
C1032 C1033 1.400 . S
C1033 C1027 1.491 . S
C1033 C1032 1.400 . S
C1033 C1034 1.398 . S
C1034 H1022 0.950 . S
C1034 C1033 1.398 . S
C1034 C1035 1.391 . S
C1035 H1023 0.950 . S
C1035 C1031 1.393 . S
C1035 C1034 1.391 . S
H1036 C1044 0.950 . S
H1037 C1049 0.950 . S
H1038 C1046 0.951 . S
H1039 C1048 0.950 1_565 S
H1040 C1050 0.950 . S
H1041 C1052 0.950 . S
H1042 C1054 0.950 . S
H1043 C1055 0.950 . S
C1044 H1036 0.950 . S
C1044 C1045 1.386 . S
C1044 C1046 1.391 . S
C1045 C1044 1.386 . S
C1045 C1049 1.393 . S
C1046 H1038 0.951 . S
C1046 C1044 1.391 . S
C1046 C1047 1.400 1_545 S
C1047 C1046 1.400 1_565 S
C1047 C1048 1.398 1_565 S
C1047 C1053 1.491 . S
C1048 H1039 0.950 1_545 S
C1048 C1047 1.398 1_545 S
C1048 C1049 1.391 . S
C1049 H1037 0.950 . S
C1049 C1045 1.393 . S
C1049 C1048 1.391 . S
C1050 H1040 0.950 . S
C1050 C1051 1.386 . S
C1050 C1052 1.391 . S
C1051 C1050 1.386 . S
C1051 C1055 1.393 . S
C1052 H1041 0.950 . S
C1052 C1050 1.391 . S
C1052 C1053 1.400 . S
C1053 C1047 1.491 . S
C1053 C1052 1.400 . S
C1053 C1054 1.398 . S
C1054 H1042 0.950 . S
C1054 C1053 1.398 . S
C1054 C1055 1.391 . S
C1055 H1043 0.950 . S
C1055 C1051 1.393 . S
C1055 C1054 1.391 . S
H1056 C1064 0.950 . S
H1057 C1069 0.950 . S
H1058 C1066 0.950 . S
H1059 C1068 0.950 . S
H1060 C1070 0.950 . S
H1061 C1072 0.950 . S
H1062 C1074 0.950 . S
H1063 C1075 0.950 . S
C1064 H1056 0.950 . S
C1064 C1065 1.386 . S
C1064 C1066 1.391 . S
C1065 C1064 1.386 . S
C1065 C1069 1.393 . S
C1066 H1058 0.950 . S
C1066 C1064 1.391 . S
C1066 C1067 1.400 . S
C1067 C1066 1.400 . S
C1067 C1068 1.398 . S
C1067 C1073 1.491 . S
C1068 H1059 0.950 . S
C1068 C1067 1.398 . S
C1068 C1069 1.391 . S
C1069 H1057 0.950 . S
C1069 C1065 1.393 . S
C1069 C1068 1.391 . S
C1070 H1060 0.950 . S
C1070 C1071 1.386 . S
C1070 C1072 1.391 . S
C1071 C1070 1.386 . S
C1071 C1075 1.393 . S
C1072 H1061 0.950 . S
C1072 C1070 1.391 . S
C1072 C1073 1.400 . S
C1073 C1067 1.491 . S
C1073 C1072 1.400 . S
C1073 C1074 1.398 . S
C1074 H1062 0.950 . S
C1074 C1073 1.398 . S
C1074 C1075 1.391 . S
C1075 H1063 0.950 . S
C1075 C1071 1.393 . S
C1075 C1074 1.391 . S
H1076 C1084 0.950 . S
H1077 C1089 0.950 . S
H1078 C1086 0.950 . S
H1079 C1088 0.950 . S
H1080 C1090 0.950 . S
H1081 C1092 0.950 . S
H1082 C1094 0.950 . S
H1083 C1095 0.950 . S
C1084 H1076 0.950 . S
C1084 C1085 1.386 . S
C1084 C1086 1.391 . S
C1085 C1084 1.386 . S
C1085 C1089 1.393 . S
C1086 H1078 0.950 . S
C1086 C1084 1.391 . S
C1086 C1087 1.400 . S
C1087 C1086 1.400 . S
C1087 C1088 1.398 . S
C1087 C1093 1.491 . S
C1088 H1079 0.950 . S
C1088 C1087 1.398 . S
C1088 C1089 1.391 . S
C1089 H1077 0.950 . S
C1089 C1085 1.393 . S
C1089 C1088 1.391 . S
C1090 H1080 0.950 . S
C1090 C1091 1.386 . S
C1090 C1092 1.391 . S
C1091 C1090 1.386 . S
C1091 C1095 1.393 . S
C1092 H1081 0.950 . S
C1092 C1090 1.391 . S
C1092 C1093 1.400 . S
C1093 C1087 1.491 . S
C1093 C1092 1.400 . S
C1093 C1094 1.398 . S
C1094 H1082 0.950 . S
C1094 C1093 1.398 . S
C1094 C1095 1.391 . S
C1095 H1083 0.950 . S
C1095 C1091 1.393 . S
C1095 C1094 1.391 . S
H1096 C1104 0.950 . S
H1097 C1109 0.950 . S
H1098 C1106 0.950 . S
H1099 C1108 0.950 . S
H1100 C1110 0.950 . S
H1101 C1112 0.950 . S
H1102 C1114 0.950 . S
H1103 C1115 0.950 . S
C1104 H1096 0.950 . S
C1104 C1105 1.386 . S
C1104 C1106 1.391 . S
C1105 C1104 1.386 . S
C1105 C1109 1.393 . S
C1106 H1098 0.950 . S
C1106 C1104 1.391 . S
C1106 C1107 1.400 . S
C1107 C1106 1.400 . S
C1107 C1108 1.398 . S
C1107 C1113 1.491 . S
C1108 H1099 0.950 . S
C1108 C1107 1.398 . S
C1108 C1109 1.391 . S
C1109 H1097 0.950 . S
C1109 C1105 1.393 . S
C1109 C1108 1.391 . S
C1110 H1100 0.950 . S
C1110 C1111 1.386 . S
C1110 C1112 1.391 . S
C1111 C1110 1.386 . S
C1111 C1115 1.393 . S
C1112 H1101 0.950 . S
C1112 C1110 1.391 . S
C1112 C1113 1.400 . S
C1113 C1107 1.491 . S
C1113 C1112 1.400 . S
C1113 C1114 1.398 . S
C1114 H1102 0.950 . S
C1114 C1113 1.398 . S
C1114 C1115 1.391 . S
C1115 H1103 0.950 . S
C1115 C1111 1.393 . S
C1115 C1114 1.391 . S
H1116 C1124 0.950 . S
H1117 C1129 0.950 . S
H1118 C1126 0.950 . S
H1119 C1128 0.950 . S
H1120 C1130 0.950 . S
H1121 C1132 0.950 . S
H1122 C1134 0.950 . S
H1123 C1135 0.950 . S
C1124 H1116 0.950 . S
C1124 C1125 1.386 . S
C1124 C1126 1.391 . S
C1125 C1124 1.386 . S
C1125 C1129 1.393 . S
C1126 H1118 0.950 . S
C1126 C1124 1.391 . S
C1126 C1127 1.400 . S
C1127 C1126 1.400 . S
C1127 C1128 1.398 . S
C1127 C1133 1.491 . S
C1128 H1119 0.950 . S
C1128 C1127 1.398 . S
C1128 C1129 1.391 . S
C1129 H1117 0.950 . S
C1129 C1125 1.393 . S
C1129 C1128 1.391 . S
C1130 H1120 0.950 . S
C1130 C1131 1.386 . S
C1130 C1132 1.391 . S
C1131 C1130 1.386 . S
C1131 C1135 1.393 . S
C1132 H1121 0.950 . S
C1132 C1130 1.391 . S
C1132 C1133 1.400 . S
C1133 C1127 1.491 . S
C1133 C1132 1.400 . S
C1133 C1134 1.398 . S
C1134 H1122 0.950 . S
C1134 C1133 1.398 . S
C1134 C1135 1.391 . S
C1135 H1123 0.950 . S
C1135 C1131 1.393 . S
C1135 C1134 1.391 . S
H1136 C1144 0.950 . S
H1137 C1149 0.950 . S
H1138 C1146 0.950 . S
H1139 C1148 0.950 . S
H1140 C1150 0.950 . S
H1141 C1152 0.950 . S
H1142 C1154 0.950 . S
H1143 C1155 0.950 . S
C1144 H1136 0.950 . S
C1144 C1145 1.386 . S
C1144 C1146 1.391 . S
C1145 C1144 1.386 . S
C1145 C1149 1.393 . S
C1146 H1138 0.950 . S
C1146 C1144 1.391 . S
C1146 C1147 1.400 . S
C1147 C1146 1.400 . S
C1147 C1148 1.398 . S
C1147 C1153 1.491 . S
C1148 H1139 0.950 . S
C1148 C1147 1.398 . S
C1148 C1149 1.391 . S
C1149 H1137 0.950 . S
C1149 C1145 1.393 . S
C1149 C1148 1.391 . S
C1150 H1140 0.950 . S
C1150 C1151 1.386 . S
C1150 C1152 1.391 . S
C1151 C1150 1.386 . S
C1151 C1155 1.393 . S
C1152 H1141 0.950 . S
C1152 C1150 1.391 . S
C1152 C1153 1.400 . S
C1153 C1147 1.491 . S
C1153 C1152 1.400 . S
C1153 C1154 1.398 . S
C1154 H1142 0.950 . S
C1154 C1153 1.398 . S
C1154 C1155 1.391 . S
C1155 H1143 0.950 . S
C1155 C1151 1.393 . S
C1155 C1154 1.391 . S
H1156 C1164 0.950 . S
H1157 C1169 0.950 . S
H1158 C1166 0.950 . S
H1159 C1168 0.950 . S
H1160 C1170 0.950 . S
H1161 C1172 0.950 . S
H1162 C1174 0.950 . S
H1163 C1175 0.950 . S
C1164 H1156 0.950 . S
C1164 C1165 1.386 . S
C1164 C1166 1.391 . S
C1165 C1164 1.386 . S
C1165 C1169 1.393 . S
C1166 H1158 0.950 . S
C1166 C1164 1.391 . S
C1166 C1167 1.400 . S
C1167 C1166 1.400 . S
C1167 C1168 1.398 . S
C1167 C1173 1.491 . S
C1168 H1159 0.950 . S
C1168 C1167 1.398 . S
C1168 C1169 1.391 . S
C1169 H1157 0.950 . S
C1169 C1165 1.393 . S
C1169 C1168 1.391 . S
C1170 H1160 0.950 . S
C1170 C1171 1.386 . S
C1170 C1172 1.391 . S
C1171 C1170 1.386 . S
C1171 C1175 1.393 . S
C1172 H1161 0.950 . S
C1172 C1170 1.391 . S
C1172 C1173 1.400 . S
C1173 C1167 1.491 . S
C1173 C1172 1.400 . S
C1173 C1174 1.398 . S
C1174 H1162 0.950 . S
C1174 C1173 1.398 . S
C1174 C1175 1.391 . S
C1175 H1163 0.950 . S
C1175 C1171 1.393 . S
C1175 C1174 1.391 . S
H1176 C1184 0.950 . S
H1177 C1189 0.950 . S
H1178 C1186 0.950 . S
H1179 C1188 0.942 1_565 S
H1180 C1190 0.950 . S
H1181 C1192 0.950 . S
H1182 C1194 0.950 . S
H1183 C1195 0.950 . S
C1184 H1176 0.950 . S
C1184 C1185 1.386 . S
C1184 C1186 1.391 1_545 S
C1185 C1184 1.386 . S
C1185 C1189 1.393 . S
C1186 H1178 0.950 . S
C1186 C1184 1.391 1_565 S
C1186 C1187 1.400 . S
C1187 C1186 1.400 . S
C1187 C1188 1.398 1_565 S
C1187 C1193 1.491 . S
C1188 H1179 0.942 1_545 S
C1188 C1187 1.398 1_545 S
C1188 C1189 1.391 . S
C1189 H1177 0.950 . S
C1189 C1185 1.393 . S
C1189 C1188 1.391 . S
C1190 H1180 0.950 . S
C1190 C1191 1.386 . S
C1190 C1192 1.391 . S
C1191 C1190 1.386 . S
C1191 C1195 1.393 . S
C1192 H1181 0.950 . S
C1192 C1190 1.391 . S
C1192 C1193 1.400 . S
C1193 C1187 1.491 . S
C1193 C1192 1.400 . S
C1193 C1194 1.398 . S
C1194 H1182 0.950 . S
C1194 C1193 1.398 . S
C1194 C1195 1.391 . S
C1195 H1183 0.950 . S
C1195 C1191 1.393 . S
C1195 C1194 1.391 . S
H1196 C1204 0.950 . S
H1197 C1209 0.950 . S
H1198 C1206 0.950 . S
H1199 C1208 0.950 . S
H1200 C1210 0.950 . S
H1201 C1212 0.950 . S
H1202 C1214 0.950 . S
H1203 C1215 0.950 . S
C1204 H1196 0.950 . S
C1204 C1205 1.386 . S
C1204 C1206 1.391 1_655 S
C1205 C1204 1.386 . S
C1205 C1209 1.393 . S
C1206 H1198 0.950 . S
C1206 C1204 1.391 1_455 S
C1206 C1207 1.400 . S
C1207 C1206 1.400 . S
C1207 C1208 1.398 . S
C1207 C1213 1.491 . S
C1208 H1199 0.950 . S
C1208 C1207 1.398 . S
C1208 C1209 1.391 1_455 S
C1209 H1197 0.950 . S
C1209 C1205 1.393 . S
C1209 C1208 1.391 1_655 S
C1210 H1200 0.950 . S
C1210 C1211 1.386 . S
C1210 C1212 1.391 . S
C1211 C1210 1.386 . S
C1211 C1215 1.393 . S
C1212 H1201 0.950 . S
C1212 C1210 1.391 . S
C1212 C1213 1.400 . S
C1213 C1207 1.491 . S
C1213 C1212 1.400 . S
C1213 C1214 1.398 . S
C1214 H1202 0.950 . S
C1214 C1213 1.398 . S
C1214 C1215 1.391 . S
C1215 H1203 0.950 . S
C1215 C1211 1.393 . S
C1215 C1214 1.391 . S
H1216 C1224 0.950 . S
H1217 C1229 0.950 . S
H1218 C1226 0.950 . S
H1219 C1228 0.950 . S
H1220 C1230 0.950 . S
H1221 C1232 0.950 . S
H1222 C1234 0.950 . S
H1223 C1235 0.950 . S
C1224 H1216 0.950 . S
C1224 C1225 1.386 . S
C1224 C1226 1.391 . S
C1225 C1224 1.386 . S
C1225 C1229 1.393 . S
C1226 H1218 0.950 . S
C1226 C1224 1.391 . S
C1226 C1227 1.400 . S
C1227 C1226 1.400 . S
C1227 C1228 1.398 . S
C1227 C1233 1.491 . S
C1228 H1219 0.950 . S
C1228 C1227 1.398 . S
C1228 C1229 1.391 . S
C1229 H1217 0.950 . S
C1229 C1225 1.393 . S
C1229 C1228 1.391 . S
C1230 H1220 0.950 . S
C1230 C1231 1.386 . S
C1230 C1232 1.391 . S
C1231 C1230 1.386 . S
C1231 C1235 1.393 . S
C1232 H1221 0.950 . S
C1232 C1230 1.391 . S
C1232 C1233 1.400 . S
C1233 C1227 1.491 . S
C1233 C1232 1.400 . S
C1233 C1234 1.398 . S
C1234 H1222 0.950 . S
C1234 C1233 1.398 . S
C1234 C1235 1.391 . S
C1235 H1223 0.950 . S
C1235 C1231 1.393 . S
C1235 C1234 1.391 . S
H1236 C1244 0.950 . S
H1237 C1249 0.950 . S
H1238 C1246 0.950 . S
H1239 C1248 0.950 . S
H1240 C1250 0.950 . S
H1241 C1252 0.950 . S
H1242 C1254 0.950 . S
H1243 C1255 0.950 . S
C1244 H1236 0.950 . S
C1244 C1245 1.386 . S
C1244 C1246 1.391 . S
C1245 C1244 1.386 . S
C1245 C1249 1.393 . S
C1246 H1238 0.950 . S
C1246 C1244 1.391 . S
C1246 C1247 1.400 . S
C1247 C1246 1.400 . S
C1247 C1248 1.398 . S
C1247 C1253 1.491 . S
C1248 H1239 0.950 . S
C1248 C1247 1.398 . S
C1248 C1249 1.391 . S
C1249 H1237 0.950 . S
C1249 C1245 1.393 . S
C1249 C1248 1.391 . S
C1250 H1240 0.950 . S
C1250 C1251 1.386 . S
C1250 C1252 1.391 . S
C1251 C1250 1.386 . S
C1251 C1255 1.393 . S
C1252 H1241 0.950 . S
C1252 C1250 1.391 . S
C1252 C1253 1.400 . S
C1253 C1247 1.491 . S
C1253 C1252 1.400 . S
C1253 C1254 1.398 . S
C1254 H1242 0.950 . S
C1254 C1253 1.398 . S
C1254 C1255 1.391 . S
C1255 H1243 0.950 . S
C1255 C1251 1.393 . S
C1255 C1254 1.391 . S
H1256 C1264 0.950 . S
H1257 C1269 0.950 . S
H1258 C1266 0.950 . S
H1259 C1268 0.950 . S
H1260 C1270 0.950 . S
H1261 C1272 0.950 . S
H1262 C1274 0.950 . S
H1263 C1275 0.950 . S
C1264 H1256 0.950 . S
C1264 C1265 1.386 . S
C1264 C1266 1.391 . S
C1265 C1264 1.386 . S
C1265 C1269 1.393 . S
C1266 H1258 0.950 . S
C1266 C1264 1.391 . S
C1266 C1267 1.400 . S
C1267 C1266 1.400 . S
C1267 C1268 1.398 . S
C1267 C1273 1.491 . S
C1268 H1259 0.950 . S
C1268 C1267 1.398 . S
C1268 C1269 1.391 . S
C1269 H1257 0.950 . S
C1269 C1265 1.393 . S
C1269 C1268 1.391 . S
C1270 H1260 0.950 . S
C1270 C1271 1.386 . S
C1270 C1272 1.391 . S
C1271 C1270 1.386 . S
C1271 C1275 1.393 . S
C1272 H1261 0.950 . S
C1272 C1270 1.391 . S
C1272 C1273 1.400 . S
C1273 C1267 1.491 . S
C1273 C1272 1.400 . S
C1273 C1274 1.398 . S
C1274 H1262 0.950 . S
C1274 C1273 1.398 . S
C1274 C1275 1.391 . S
C1275 H1263 0.950 . S
C1275 C1271 1.393 . S
C1275 C1274 1.391 . S
H1276 C1284 0.950 . S
H1277 C1289 0.950 . S
H1278 C1286 0.950 . S
H1279 C1288 0.950 . S
H1280 C1290 0.950 . S
H1281 C1292 0.950 . S
H1282 C1294 0.950 . S
H1283 C1295 0.950 . S
C1284 H1276 0.950 . S
C1284 C1285 1.386 . S
C1284 C1286 1.391 . S
C1285 C1284 1.386 . S
C1285 C1289 1.393 . S
C1286 H1278 0.950 . S
C1286 C1284 1.391 . S
C1286 C1287 1.400 . S
C1287 C1286 1.400 . S
C1287 C1288 1.398 . S
C1287 C1293 1.491 . S
C1288 H1279 0.950 . S
C1288 C1287 1.398 . S
C1288 C1289 1.391 . S
C1289 H1277 0.950 . S
C1289 C1285 1.393 . S
C1289 C1288 1.391 . S
C1290 H1280 0.950 . S
C1290 C1291 1.386 . S
C1290 C1292 1.391 . S
C1291 C1290 1.386 . S
C1291 C1295 1.393 . S
C1292 H1281 0.950 . S
C1292 C1290 1.391 . S
C1292 C1293 1.400 . S
C1293 C1287 1.491 . S
C1293 C1292 1.400 . S
C1293 C1294 1.398 . S
C1294 H1282 0.950 . S
C1294 C1293 1.398 . S
C1294 C1295 1.391 . S
C1295 H1283 0.950 . S
C1295 C1291 1.393 . S
C1295 C1294 1.391 . S
H1296 C1304 0.950 . S
H1297 C1309 0.950 . S
H1298 C1306 0.950 . S
H1299 C1308 0.950 . S
H1300 C1310 0.950 . S
H1301 C1312 0.950 . S
H1302 C1314 0.950 . S
H1303 C1315 0.950 . S
C1304 H1296 0.950 . S
C1304 C1305 1.386 . S
C1304 C1306 1.391 1_565 S
C1305 C1304 1.386 . S
C1305 C1309 1.393 . S
C1306 H1298 0.950 . S
C1306 C1304 1.391 1_545 S
C1306 C1307 1.400 . S
C1307 C1306 1.400 . S
C1307 C1308 1.398 1_545 S
C1307 C1313 1.491 . S
C1308 H1299 0.950 . S
C1308 C1307 1.398 1_565 S
C1308 C1309 1.391 . S
C1309 H1297 0.950 . S
C1309 C1305 1.393 . S
C1309 C1308 1.391 . S
C1310 H1300 0.950 . S
C1310 C1311 1.386 . S
C1310 C1312 1.391 . S
C1311 C1310 1.386 . S
C1311 C1315 1.393 . S
C1312 H1301 0.950 . S
C1312 C1310 1.391 . S
C1312 C1313 1.400 . S
C1313 C1307 1.491 . S
C1313 C1312 1.400 . S
C1313 C1314 1.398 . S
C1314 H1302 0.950 . S
C1314 C1313 1.398 . S
C1314 C1315 1.391 . S
C1315 H1303 0.950 . S
C1315 C1311 1.393 . S
C1315 C1314 1.391 . S
H1316 C1324 0.950 . S
H1317 C1329 0.950 . S
H1318 C1326 0.950 . S
H1319 C1328 0.950 . S
H1320 C1330 0.950 . S
H1321 C1332 0.950 . S
H1322 C1334 0.950 . S
H1323 C1335 0.950 . S
C1324 H1316 0.950 . S
C1324 C1325 1.386 . S
C1324 C1326 1.391 . S
C1325 C1324 1.386 . S
C1325 C1329 1.393 . S
C1326 H1318 0.950 . S
C1326 C1324 1.391 . S
C1326 C1327 1.400 1_455 S
C1327 C1326 1.400 1_655 S
C1327 C1328 1.398 . S
C1327 C1333 1.491 . S
C1328 H1319 0.950 . S
C1328 C1327 1.398 . S
C1328 C1329 1.391 1_655 S
C1329 H1317 0.950 . S
C1329 C1325 1.393 . S
C1329 C1328 1.391 1_455 S
C1330 H1320 0.950 . S
C1330 C1331 1.386 . S
C1330 C1332 1.391 . S
C1331 C1330 1.386 . S
C1331 C1335 1.393 . S
C1332 H1321 0.950 . S
C1332 C1330 1.391 . S
C1332 C1333 1.400 . S
C1333 C1327 1.491 . S
C1333 C1332 1.400 . S
C1333 C1334 1.398 . S
C1334 H1322 0.950 . S
C1334 C1333 1.398 . S
C1334 C1335 1.391 . S
C1335 H1323 0.950 . S
C1335 C1331 1.393 . S
C1335 C1334 1.391 . S
H1336 C1344 0.950 . S
H1337 C1349 0.950 . S
H1338 C1346 0.950 . S
H1339 C1348 0.950 . S
H1340 C1350 0.950 . S
H1341 C1352 0.950 . S
H1342 C1354 0.950 . S
H1343 C1355 0.950 . S
C1344 H1336 0.950 . S
C1344 C1345 1.386 . S
C1344 C1346 1.391 . S
C1345 C1344 1.386 . S
C1345 C1349 1.393 . S
C1346 H1338 0.950 . S
C1346 C1344 1.391 . S
C1346 C1347 1.400 . S
C1347 C1346 1.400 . S
C1347 C1348 1.398 . S
C1347 C1353 1.491 . S
C1348 H1339 0.950 . S
C1348 C1347 1.398 . S
C1348 C1349 1.391 . S
C1349 H1337 0.950 . S
C1349 C1345 1.393 . S
C1349 C1348 1.391 . S
C1350 H1340 0.950 . S
C1350 C1351 1.386 . S
C1350 C1352 1.391 . S
C1351 C1350 1.386 . S
C1351 C1355 1.393 . S
C1352 H1341 0.950 . S
C1352 C1350 1.391 . S
C1352 C1353 1.400 . S
C1353 C1347 1.491 . S
C1353 C1352 1.400 . S
C1353 C1354 1.398 . S
C1354 H1342 0.950 . S
C1354 C1353 1.398 . S
C1354 C1355 1.391 . S
C1355 H1343 0.950 . S
C1355 C1351 1.393 . S
C1355 C1354 1.391 . S
H1356 C1364 0.950 . S
H1357 C1369 0.950 . S
H1358 C1366 0.950 . S
H1359 C1368 0.950 . S
H1360 C1370 0.950 . S
H1361 C1372 0.950 . S
H1362 C1374 0.950 . S
H1363 C1375 0.950 . S
C1364 H1356 0.950 . S
C1364 C1365 1.386 . S
C1364 C1366 1.391 . S
C1365 C1364 1.386 . S
C1365 C1369 1.393 . S
C1366 H1358 0.950 . S
C1366 C1364 1.391 . S
C1366 C1367 1.400 1_455 S
C1367 C1366 1.400 1_655 S
C1367 C1368 1.398 . S
C1367 C1373 1.491 . S
C1368 H1359 0.950 . S
C1368 C1367 1.398 . S
C1368 C1369 1.391 1_655 S
C1369 H1357 0.950 . S
C1369 C1365 1.393 . S
C1369 C1368 1.391 1_455 S
C1370 H1360 0.950 . S
C1370 C1371 1.386 . S
C1370 C1372 1.391 . S
C1371 C1370 1.386 . S
C1371 C1375 1.393 . S
C1372 H1361 0.950 . S
C1372 C1370 1.391 . S
C1372 C1373 1.400 . S
C1373 C1367 1.491 . S
C1373 C1372 1.400 . S
C1373 C1374 1.398 . S
C1374 H1362 0.950 . S
C1374 C1373 1.398 . S
C1374 C1375 1.391 . S
C1375 H1363 0.950 . S
C1375 C1371 1.393 . S
C1375 C1374 1.391 . S
H1376 C1384 0.950 . S
H1377 C1389 0.950 . S
H1378 C1386 0.950 . S
H1379 C1388 0.950 . S
H1380 C1390 0.950 . S
H1381 C1392 0.950 . S
H1382 C1394 0.950 . S
H1383 C1395 0.950 . S
C1384 H1376 0.950 . S
C1384 C1385 1.386 . S
C1384 C1386 1.391 . S
C1385 C1384 1.386 . S
C1385 C1389 1.393 . S
C1386 H1378 0.950 . S
C1386 C1384 1.391 . S
C1386 C1387 1.400 . S
C1387 C1386 1.400 . S
C1387 C1388 1.398 . S
C1387 C1393 1.491 . S
C1388 H1379 0.950 . S
C1388 C1387 1.398 . S
C1388 C1389 1.391 . S
C1389 H1377 0.950 . S
C1389 C1385 1.393 . S
C1389 C1388 1.391 . S
C1390 H1380 0.950 . S
C1390 C1391 1.386 . S
C1390 C1392 1.391 . S
C1391 C1390 1.386 . S
C1391 C1395 1.393 . S
C1392 H1381 0.950 . S
C1392 C1390 1.391 . S
C1392 C1393 1.400 . S
C1393 C1387 1.491 . S
C1393 C1392 1.400 . S
C1393 C1394 1.398 . S
C1394 H1382 0.950 . S
C1394 C1393 1.398 . S
C1394 C1395 1.391 . S
C1395 H1383 0.950 . S
C1395 C1391 1.393 . S
C1395 C1394 1.391 . S
H1396 C1404 0.950 . S
H1397 C1409 0.950 . S
H1398 C1406 0.950 . S
H1399 C1408 0.950 1_545 S
H1400 C1410 0.950 . S
H1401 C1412 0.950 . S
H1402 C1414 0.950 . S
H1403 C1415 0.950 . S
C1404 H1396 0.950 . S
C1404 C1405 1.386 . S
C1404 C1406 1.391 1_565 S
C1405 C1404 1.386 . S
C1405 C1409 1.393 . S
C1406 H1398 0.950 . S
C1406 C1404 1.391 1_545 S
C1406 C1407 1.400 . S
C1407 C1406 1.400 . S
C1407 C1408 1.398 1_545 S
C1407 C1413 1.491 . S
C1408 H1399 0.950 1_565 S
C1408 C1407 1.398 1_565 S
C1408 C1409 1.391 . S
C1409 H1397 0.950 . S
C1409 C1405 1.393 . S
C1409 C1408 1.391 . S
C1410 H1400 0.950 . S
C1410 C1411 1.386 . S
C1410 C1412 1.391 . S
C1411 C1410 1.386 . S
C1411 C1415 1.393 . S
C1412 H1401 0.950 . S
C1412 C1410 1.391 . S
C1412 C1413 1.400 . S
C1413 C1407 1.491 . S
C1413 C1412 1.400 . S
C1413 C1414 1.398 . S
C1414 H1402 0.950 . S
C1414 C1413 1.398 . S
C1414 C1415 1.391 . S
C1415 H1403 0.950 . S
C1415 C1411 1.393 . S
C1415 C1414 1.391 . S
H1416 C1424 0.950 . S
H1417 C1429 0.950 . S
H1418 C1426 0.950 . S
H1419 C1428 0.950 . S
H1420 C1430 0.950 . S
H1421 C1432 0.950 . S
H1422 C1434 0.950 . S
H1423 C1435 0.950 . S
C1424 H1416 0.950 . S
C1424 C1425 1.386 . S
C1424 C1426 1.391 . S
C1425 C1424 1.386 . S
C1425 C1429 1.393 . S
C1426 H1418 0.950 . S
C1426 C1424 1.391 . S
C1426 C1427 1.400 . S
C1427 C1426 1.400 . S
C1427 C1428 1.398 . S
C1427 C1433 1.491 . S
C1428 H1419 0.950 . S
C1428 C1427 1.398 . S
C1428 C1429 1.391 . S
C1429 H1417 0.950 . S
C1429 C1425 1.393 . S
C1429 C1428 1.391 . S
C1430 H1420 0.950 . S
C1430 C1431 1.386 . S
C1430 C1432 1.391 . S
C1431 C1430 1.386 . S
C1431 C1435 1.393 . S
C1432 H1421 0.950 . S
C1432 C1430 1.391 . S
C1432 C1433 1.400 . S
C1433 C1427 1.491 . S
C1433 C1432 1.400 . S
C1433 C1434 1.398 . S
C1434 H1422 0.950 . S
C1434 C1433 1.398 . S
C1434 C1435 1.391 . S
C1435 H1423 0.950 . S
C1435 C1431 1.393 . S
C1435 C1434 1.391 . S
H1436 C1444 0.950 . S
H1437 C1449 0.950 . S
H1438 C1446 0.950 . S
H1439 C1448 0.950 . S
H1440 C1450 0.950 . S
H1441 C1452 0.950 . S
H1442 C1454 0.950 . S
H1443 C1455 0.950 . S
C1444 H1436 0.950 . S
C1444 C1445 1.386 . S
C1444 C1446 1.391 . S
C1445 C1444 1.386 . S
C1445 C1449 1.393 . S
C1446 H1438 0.950 . S
C1446 C1444 1.391 . S
C1446 C1447 1.400 . S
C1447 C1446 1.400 . S
C1447 C1448 1.398 . S
C1447 C1453 1.491 . S
C1448 H1439 0.950 . S
C1448 C1447 1.398 . S
C1448 C1449 1.391 . S
C1449 H1437 0.950 . S
C1449 C1445 1.393 . S
C1449 C1448 1.391 . S
C1450 H1440 0.950 . S
C1450 C1451 1.386 . S
C1450 C1452 1.391 . S
C1451 C1450 1.386 . S
C1451 C1455 1.393 . S
C1452 H1441 0.950 . S
C1452 C1450 1.391 . S
C1452 C1453 1.400 . S
C1453 C1447 1.491 . S
C1453 C1452 1.400 . S
C1453 C1454 1.398 . S
C1454 H1442 0.950 . S
C1454 C1453 1.398 . S
C1454 C1455 1.391 . S
C1455 H1443 0.950 . S
C1455 C1451 1.393 . S
C1455 C1454 1.391 . S
H1456 C1464 0.950 . S
H1457 C1469 0.950 . S
H1458 C1466 0.950 . S
H1459 C1468 0.950 . S
H1460 C1470 0.950 . S
H1461 C1472 0.950 . S
H1462 C1474 0.950 . S
H1463 C1475 0.950 . S
C1464 H1456 0.950 . S
C1464 C1465 1.386 . S
C1464 C1466 1.391 . S
C1465 C1464 1.386 . S
C1465 C1469 1.393 . S
C1466 H1458 0.950 . S
C1466 C1464 1.391 . S
C1466 C1467 1.400 . S
C1467 C1466 1.400 . S
C1467 C1468 1.398 . S
C1467 C1473 1.491 . S
C1468 H1459 0.950 . S
C1468 C1467 1.398 . S
C1468 C1469 1.391 . S
C1469 H1457 0.950 . S
C1469 C1465 1.393 . S
C1469 C1468 1.391 . S
C1470 H1460 0.950 . S
C1470 C1471 1.386 . S
C1470 C1472 1.391 . S
C1471 C1470 1.386 . S
C1471 C1475 1.393 . S
C1472 H1461 0.950 . S
C1472 C1470 1.391 . S
C1472 C1473 1.400 . S
C1473 C1467 1.491 . S
C1473 C1472 1.400 . S
C1473 C1474 1.398 . S
C1474 H1462 0.950 . S
C1474 C1473 1.398 . S
C1474 C1475 1.391 . S
C1475 H1463 0.950 . S
C1475 C1471 1.393 . S
C1475 C1474 1.391 . S
H1476 C1484 0.950 . S
H1477 C1489 0.950 . S
H1478 C1486 0.950 1_545 S
H1479 C1488 0.950 . S
H1480 C1490 0.950 . S
H1481 C1492 0.950 . S
H1482 C1494 0.950 . S
H1483 C1495 0.950 . S
C1484 H1476 0.950 . S
C1484 C1485 1.386 . S
C1484 C1486 1.391 . S
C1485 C1484 1.386 . S
C1485 C1489 1.393 . S
C1486 H1478 0.950 1_565 S
C1486 C1484 1.391 . S
C1486 C1487 1.400 . S
C1487 C1486 1.400 . S
C1487 C1488 1.398 . S
C1487 C1493 1.491 . S
C1488 H1479 0.950 . S
C1488 C1487 1.398 . S
C1488 C1489 1.391 . S
C1489 H1477 0.950 . S
C1489 C1485 1.393 . S
C1489 C1488 1.391 . S
C1490 H1480 0.950 . S
C1490 C1491 1.386 . S
C1490 C1492 1.391 . S
C1491 C1490 1.386 . S
C1491 C1495 1.393 1_565 S
C1492 H1481 0.950 . S
C1492 C1490 1.391 . S
C1492 C1493 1.400 . S
C1493 C1487 1.491 . S
C1493 C1492 1.400 . S
C1493 C1494 1.398 1_565 S
C1494 H1482 0.950 . S
C1494 C1493 1.398 1_545 S
C1494 C1495 1.391 . S
C1495 H1483 0.950 . S
C1495 C1491 1.393 1_545 S
C1495 C1494 1.391 . S
H1496 C1504 0.950 . S
H1497 C1509 0.950 . S
H1498 C1506 0.950 . S
H1499 C1508 0.950 . S
H1500 C1510 0.950 . S
H1501 C1512 0.950 . S
H1502 C1514 0.950 . S
H1503 C1515 0.954 1_655 S
C1504 H1496 0.950 . S
C1504 C1505 1.386 . S
C1504 C1506 1.391 . S
C1505 C1504 1.386 . S
C1505 C1509 1.393 . S
C1506 H1498 0.950 . S
C1506 C1504 1.391 . S
C1506 C1507 1.400 . S
C1507 C1506 1.400 . S
C1507 C1508 1.398 . S
C1507 C1513 1.491 . S
C1508 H1499 0.950 . S
C1508 C1507 1.398 . S
C1508 C1509 1.391 . S
C1509 H1497 0.950 . S
C1509 C1505 1.393 . S
C1509 C1508 1.391 . S
C1510 H1500 0.950 . S
C1510 C1511 1.386 . S
C1510 C1512 1.391 . S
C1511 C1510 1.386 . S
C1511 C1515 1.393 . S
C1512 H1501 0.950 . S
C1512 C1510 1.391 . S
C1512 C1513 1.400 . S
C1513 C1507 1.491 . S
C1513 C1512 1.400 . S
C1513 C1514 1.398 . S
C1514 H1502 0.950 . S
C1514 C1513 1.398 . S
C1514 C1515 1.391 . S
C1515 H1503 0.954 1_455 S
C1515 C1511 1.393 . S
C1515 C1514 1.391 . S
H1516 C1524 0.950 . S
H1517 C1529 0.950 . S
H1518 C1526 0.950 . S
H1519 C1528 0.950 . S
H1520 C1530 0.950 . S
H1521 C1532 0.950 . S
H1522 C1534 0.950 . S
H1523 C1535 0.950 . S
C1524 H1516 0.950 . S
C1524 C1525 1.386 . S
C1524 C1526 1.391 . S
C1525 C1524 1.386 . S
C1525 C1529 1.393 . S
C1526 H1518 0.950 . S
C1526 C1524 1.391 . S
C1526 C1527 1.400 . S
C1527 C1526 1.400 . S
C1527 C1528 1.398 . S
C1527 C1533 1.491 . S
C1528 H1519 0.950 . S
C1528 C1527 1.398 . S
C1528 C1529 1.391 . S
C1529 H1517 0.950 . S
C1529 C1525 1.393 . S
C1529 C1528 1.391 . S
C1530 H1520 0.950 . S
C1530 C1531 1.386 . S
C1530 C1532 1.391 . S
C1531 C1530 1.386 . S
C1531 C1535 1.393 . S
C1532 H1521 0.950 . S
C1532 C1530 1.391 . S
C1532 C1533 1.400 . S
C1533 C1527 1.491 . S
C1533 C1532 1.400 . S
C1533 C1534 1.398 . S
C1534 H1522 0.950 . S
C1534 C1533 1.398 . S
C1534 C1535 1.391 . S
C1535 H1523 0.950 . S
C1535 C1531 1.393 . S
C1535 C1534 1.391 . S
H1536 C1544 0.950 . S
H1537 C1549 0.950 . S
H1538 C1546 0.950 . S
H1539 C1548 0.950 . S
H1540 C1550 0.950 1_455 S
H1541 C1552 0.950 1_455 S
H1542 C1554 0.950 . S
H1543 C1555 0.950 . S
C1544 H1536 0.950 . S
C1544 C1545 1.386 . S
C1544 C1546 1.391 . S
C1545 C1544 1.386 . S
C1545 C1549 1.393 . S
C1546 H1538 0.950 . S
C1546 C1544 1.391 . S
C1546 C1547 1.400 . S
C1547 C1546 1.400 . S
C1547 C1548 1.398 . S
C1547 C1553 1.491 . S
C1548 H1539 0.950 . S
C1548 C1547 1.398 . S
C1548 C1549 1.391 . S
C1549 H1537 0.950 . S
C1549 C1545 1.393 . S
C1549 C1548 1.391 . S
C1550 H1540 0.950 1_655 S
C1550 C1551 1.386 . S
C1550 C1552 1.391 . S
C1551 C1550 1.386 . S
C1551 C1555 1.393 . S
C1552 H1541 0.950 1_655 S
C1552 C1550 1.391 . S
C1552 C1553 1.400 . S
C1553 C1547 1.491 . S
C1553 C1552 1.400 . S
C1553 C1554 1.398 . S
C1554 H1542 0.950 . S
C1554 C1553 1.398 . S
C1554 C1555 1.391 . S
C1555 H1543 0.950 . S
C1555 C1551 1.393 . S
C1555 C1554 1.391 . S
H1556 C1564 0.950 . S
H1557 C1569 0.950 . S
H1558 C1566 0.950 . S
H1559 C1568 0.950 . S
H1560 C1570 0.950 . S
H1561 C1572 0.950 . S
H1562 C1574 0.950 . S
H1563 C1575 0.950 . S
C1564 H1556 0.950 . S
C1564 C1565 1.386 . S
C1564 C1566 1.391 . S
C1565 C1564 1.386 . S
C1565 C1569 1.393 . S
C1566 H1558 0.950 . S
C1566 C1564 1.391 . S
C1566 C1567 1.400 . S
C1567 C1566 1.400 . S
C1567 C1568 1.398 . S
C1567 C1573 1.491 . S
C1568 H1559 0.950 . S
C1568 C1567 1.398 . S
C1568 C1569 1.391 . S
C1569 H1557 0.950 . S
C1569 C1565 1.393 . S
C1569 C1568 1.391 . S
C1570 H1560 0.950 . S
C1570 C1571 1.386 . S
C1570 C1572 1.391 . S
C1571 C1570 1.386 . S
C1571 C1575 1.393 . S
C1572 H1561 0.950 . S
C1572 C1570 1.391 . S
C1572 C1573 1.400 . S
C1573 C1567 1.491 . S
C1573 C1572 1.400 . S
C1573 C1574 1.398 . S
C1574 H1562 0.950 . S
C1574 C1573 1.398 . S
C1574 C1575 1.391 . S
C1575 H1563 0.950 . S
C1575 C1571 1.393 . S
C1575 C1574 1.391 . S
H1576 C1584 0.950 . S
H1577 C1589 0.950 . S
H1578 C1586 0.950 . S
H1579 C1588 0.950 . S
H1580 C1590 0.950 . S
H1581 C1592 0.950 1_565 S
H1582 C1594 0.950 . S
H1583 C1595 0.950 . S
C1584 H1576 0.950 . S
C1584 C1585 1.386 . S
C1584 C1586 1.391 . S
C1585 C1584 1.386 . S
C1585 C1589 1.393 . S
C1586 H1578 0.950 . S
C1586 C1584 1.391 . S
C1586 C1587 1.400 . S
C1587 C1586 1.400 . S
C1587 C1588 1.398 . S
C1587 C1593 1.491 . S
C1588 H1579 0.950 . S
C1588 C1587 1.398 . S
C1588 C1589 1.391 . S
C1589 H1577 0.950 . S
C1589 C1585 1.393 . S
C1589 C1588 1.391 . S
C1590 H1580 0.950 . S
C1590 C1591 1.386 1_565 S
C1590 C1592 1.391 1_565 S
C1591 C1590 1.386 1_545 S
C1591 C1595 1.393 . S
C1592 H1581 0.950 1_545 S
C1592 C1590 1.391 1_545 S
C1592 C1593 1.400 . S
C1593 C1587 1.491 . S
C1593 C1592 1.400 . S
C1593 C1594 1.398 . S
C1594 H1582 0.950 . S
C1594 C1593 1.398 . S
C1594 C1595 1.391 . S
C1595 H1583 0.950 . S
C1595 C1591 1.393 . S
C1595 C1594 1.391 . S
H1596 C1604 0.950 . S
H1597 C1609 0.950 . S
H1598 C1606 0.950 . S
H1599 C1608 0.950 . S
H1600 C1610 0.950 . S
H1601 C1612 0.950 . S
H1602 C1614 0.950 . S
H1603 C1615 0.950 . S
C1604 H1596 0.950 . S
C1604 C1605 1.386 . S
C1604 C1606 1.391 . S
C1605 C1604 1.386 . S
C1605 C1609 1.393 . S
C1606 H1598 0.950 . S
C1606 C1604 1.391 . S
C1606 C1607 1.400 . S
C1607 C1606 1.400 . S
C1607 C1608 1.398 . S
C1607 C1613 1.491 . S
C1608 H1599 0.950 . S
C1608 C1607 1.398 . S
C1608 C1609 1.391 . S
C1609 H1597 0.950 . S
C1609 C1605 1.393 . S
C1609 C1608 1.391 . S
C1610 H1600 0.950 . S
C1610 C1611 1.386 . S
C1610 C1612 1.391 . S
C1611 C1610 1.386 . S
C1611 C1615 1.393 . S
C1612 H1601 0.950 . S
C1612 C1610 1.391 . S
C1612 C1613 1.400 . S
C1613 C1607 1.491 . S
C1613 C1612 1.400 . S
C1613 C1614 1.398 . S
C1614 H1602 0.950 . S
C1614 C1613 1.398 . S
C1614 C1615 1.391 . S
C1615 H1603 0.950 . S
C1615 C1611 1.393 . S
C1615 C1614 1.391 . S
H1616 C1624 0.950 . S
H1617 C1629 0.950 . S
H1618 C1626 0.950 . S
H1619 C1628 0.950 . S
H1620 C1630 0.950 . S
H1621 C1632 0.950 . S
H1622 C1634 0.950 . S
H1623 C1635 0.950 . S
C1624 H1616 0.950 . S
C1624 C1625 1.386 . S
C1624 C1626 1.391 . S
C1625 C1624 1.386 . S
C1625 C1629 1.393 . S
C1626 H1618 0.950 . S
C1626 C1624 1.391 . S
C1626 C1627 1.400 . S
C1627 C1626 1.400 . S
C1627 C1628 1.398 . S
C1627 C1633 1.491 . S
C1628 H1619 0.950 . S
C1628 C1627 1.398 . S
C1628 C1629 1.391 . S
C1629 H1617 0.950 . S
C1629 C1625 1.393 . S
C1629 C1628 1.391 . S
C1630 H1620 0.950 . S
C1630 C1631 1.386 . S
C1630 C1632 1.391 . S
C1631 C1630 1.386 . S
C1631 C1635 1.393 . S
C1632 H1621 0.950 . S
C1632 C1630 1.391 . S
C1632 C1633 1.400 . S
C1633 C1627 1.491 . S
C1633 C1632 1.400 . S
C1633 C1634 1.398 . S
C1634 H1622 0.950 . S
C1634 C1633 1.398 . S
C1634 C1635 1.391 . S
C1635 H1623 0.950 . S
C1635 C1631 1.393 . S
C1635 C1634 1.391 . S
H1636 C1644 0.950 . S
H1637 C1649 0.950 . S
H1638 C1646 0.950 . S
H1639 C1648 0.950 . S
H1640 C1650 0.950 . S
H1641 C1652 0.950 . S
H1642 C1654 0.950 . S
H1643 C1655 0.950 . S
C1644 H1636 0.950 . S
C1644 C1645 1.386 . S
C1644 C1646 1.391 . S
C1645 C1644 1.386 . S
C1645 C1649 1.393 . S
C1646 H1638 0.950 . S
C1646 C1644 1.391 . S
C1646 C1647 1.400 . S
C1647 C1646 1.400 . S
C1647 C1648 1.398 . S
C1647 C1653 1.491 . S
C1648 H1639 0.950 . S
C1648 C1647 1.398 . S
C1648 C1649 1.391 . S
C1649 H1637 0.950 . S
C1649 C1645 1.393 . S
C1649 C1648 1.391 . S
C1650 H1640 0.950 . S
C1650 C1651 1.386 . S
C1650 C1652 1.391 . S
C1651 C1650 1.386 . S
C1651 C1655 1.393 . S
C1652 H1641 0.950 . S
C1652 C1650 1.391 . S
C1652 C1653 1.400 . S
C1653 C1647 1.491 . S
C1653 C1652 1.400 . S
C1653 C1654 1.398 . S
C1654 H1642 0.950 . S
C1654 C1653 1.398 . S
C1654 C1655 1.391 . S
C1655 H1643 0.950 . S
C1655 C1651 1.393 . S
C1655 C1654 1.391 . S
H1656 C1664 0.950 . S
H1657 C1669 0.950 . S
H1658 C1666 0.950 . S
H1659 C1668 0.950 . S
H1660 C1670 0.950 . S
H1661 C1672 0.950 . S
H1662 C1674 0.950 . S
H1663 C1675 0.950 . S
C1664 H1656 0.950 . S
C1664 C1665 1.386 . S
C1664 C1666 1.391 . S
C1665 C1664 1.386 . S
C1665 C1669 1.393 . S
C1666 H1658 0.950 . S
C1666 C1664 1.391 . S
C1666 C1667 1.400 . S
C1667 C1666 1.400 . S
C1667 C1668 1.398 . S
C1667 C1673 1.491 . S
C1668 H1659 0.950 . S
C1668 C1667 1.398 . S
C1668 C1669 1.391 . S
C1669 H1657 0.950 . S
C1669 C1665 1.393 . S
C1669 C1668 1.391 . S
C1670 H1660 0.950 . S
C1670 C1671 1.386 . S
C1670 C1672 1.391 . S
C1671 C1670 1.386 . S
C1671 C1675 1.393 . S
C1672 H1661 0.950 . S
C1672 C1670 1.391 . S
C1672 C1673 1.400 . S
C1673 C1667 1.491 . S
C1673 C1672 1.400 . S
C1673 C1674 1.398 . S
C1674 H1662 0.950 . S
C1674 C1673 1.398 . S
C1674 C1675 1.391 . S
C1675 H1663 0.950 . S
C1675 C1671 1.393 . S
C1675 C1674 1.391 . S
H1676 C1684 0.950 . S
H1677 C1689 0.950 . S
H1678 C1686 0.950 . S
H1679 C1688 0.950 . S
H1680 C1690 0.950 . S
H1681 C1692 0.950 . S
H1682 C1694 0.950 . S
H1683 C1695 0.950 . S
C1684 H1676 0.950 . S
C1684 C1685 1.386 . S
C1684 C1686 1.391 . S
C1685 C1684 1.386 . S
C1685 C1689 1.393 . S
C1686 H1678 0.950 . S
C1686 C1684 1.391 . S
C1686 C1687 1.400 . S
C1687 C1686 1.400 . S
C1687 C1688 1.398 . S
C1687 C1693 1.491 . S
C1688 H1679 0.950 . S
C1688 C1687 1.398 . S
C1688 C1689 1.391 . S
C1689 H1677 0.950 . S
C1689 C1685 1.393 . S
C1689 C1688 1.391 . S
C1690 H1680 0.950 . S
C1690 C1691 1.386 . S
C1690 C1692 1.391 . S
C1691 C1690 1.386 . S
C1691 C1695 1.393 . S
C1692 H1681 0.950 . S
C1692 C1690 1.391 . S
C1692 C1693 1.400 . S
C1693 C1687 1.491 . S
C1693 C1692 1.400 . S
C1693 C1694 1.398 . S
C1694 H1682 0.950 . S
C1694 C1693 1.398 . S
C1694 C1695 1.391 . S
C1695 H1683 0.950 . S
C1695 C1691 1.393 . S
C1695 C1694 1.391 . S
H1696 C1704 0.950 . S
H1697 C1709 0.950 . S
H1698 C1706 0.950 . S
H1699 C1708 0.950 . S
H1700 C1710 0.950 . S
H1701 C1712 0.950 . S
H1702 C1714 0.950 . S
H1703 C1715 0.950 . S
C1704 H1696 0.950 . S
C1704 C1705 1.386 . S
C1704 C1706 1.391 . S
C1705 C1704 1.386 . S
C1705 C1709 1.393 . S
C1706 H1698 0.950 . S
C1706 C1704 1.391 . S
C1706 C1707 1.400 . S
C1707 C1706 1.400 . S
C1707 C1708 1.398 . S
C1707 C1713 1.491 . S
C1708 H1699 0.950 . S
C1708 C1707 1.398 . S
C1708 C1709 1.391 . S
C1709 H1697 0.950 . S
C1709 C1705 1.393 . S
C1709 C1708 1.391 . S
C1710 H1700 0.950 . S
C1710 C1711 1.386 . S
C1710 C1712 1.391 . S
C1711 C1710 1.386 . S
C1711 C1715 1.393 . S
C1712 H1701 0.950 . S
C1712 C1710 1.391 . S
C1712 C1713 1.400 . S
C1713 C1707 1.491 . S
C1713 C1712 1.400 . S
C1713 C1714 1.398 . S
C1714 H1702 0.950 . S
C1714 C1713 1.398 . S
C1714 C1715 1.391 . S
C1715 H1703 0.950 . S
C1715 C1711 1.393 . S
C1715 C1714 1.391 . S
H1716 C1724 0.950 . S
H1717 C1729 0.950 . S
H1718 C1726 0.950 . S
H1719 C1728 0.950 . S
H1720 C1730 0.950 . S
H1721 C1732 0.950 . S
H1722 C1734 0.950 . S
H1723 C1735 0.950 . S
C1724 H1716 0.950 . S
C1724 C1725 1.386 . S
C1724 C1726 1.391 . S
C1725 C1724 1.386 . S
C1725 C1729 1.393 . S
C1726 H1718 0.950 . S
C1726 C1724 1.391 . S
C1726 C1727 1.400 . S
C1727 C1726 1.400 . S
C1727 C1728 1.398 . S
C1727 C1733 1.491 . S
C1728 H1719 0.950 . S
C1728 C1727 1.398 . S
C1728 C1729 1.391 . S
C1729 H1717 0.950 . S
C1729 C1725 1.393 . S
C1729 C1728 1.391 . S
C1730 H1720 0.950 . S
C1730 C1731 1.386 . S
C1730 C1732 1.391 . S
C1731 C1730 1.386 . S
C1731 C1735 1.393 . S
C1732 H1721 0.950 . S
C1732 C1730 1.391 . S
C1732 C1733 1.400 . S
C1733 C1727 1.491 . S
C1733 C1732 1.400 . S
C1733 C1734 1.398 . S
C1734 H1722 0.950 . S
C1734 C1733 1.398 . S
C1734 C1735 1.391 . S
C1735 H1723 0.950 . S
C1735 C1731 1.393 . S
C1735 C1734 1.391 . S
H1736 C1744 0.950 . S
H1737 C1749 0.950 . S
H1738 C1746 0.950 . S
H1739 C1748 0.950 . S
H1740 C1750 0.950 . S
H1741 C1752 0.950 . S
H1742 C1754 0.950 . S
H1743 C1755 0.950 . S
C1744 H1736 0.950 . S
C1744 C1745 1.386 . S
C1744 C1746 1.391 . S
C1745 C1744 1.386 . S
C1745 C1749 1.393 . S
C1746 H1738 0.950 . S
C1746 C1744 1.391 . S
C1746 C1747 1.400 . S
C1747 C1746 1.400 . S
C1747 C1748 1.398 . S
C1747 C1753 1.491 . S
C1748 H1739 0.950 . S
C1748 C1747 1.398 . S
C1748 C1749 1.391 . S
C1749 H1737 0.950 . S
C1749 C1745 1.393 . S
C1749 C1748 1.391 . S
C1750 H1740 0.950 . S
C1750 C1751 1.386 . S
C1750 C1752 1.391 . S
C1751 C1750 1.386 . S
C1751 C1755 1.393 . S
C1752 H1741 0.950 . S
C1752 C1750 1.391 . S
C1752 C1753 1.400 . S
C1753 C1747 1.491 . S
C1753 C1752 1.400 . S
C1753 C1754 1.398 . S
C1754 H1742 0.950 . S
C1754 C1753 1.398 . S
C1754 C1755 1.391 . S
C1755 H1743 0.950 . S
C1755 C1751 1.393 . S
C1755 C1754 1.391 . S
H1756 C1764 0.950 . S
H1757 C1769 0.950 . S
H1758 C1766 0.950 . S
H1759 C1768 0.950 . S
H1760 C1770 0.950 . S
H1761 C1772 0.950 . S
H1762 C1774 0.950 . S
H1763 C1775 0.950 . S
C1764 H1756 0.950 . S
C1764 C1765 1.386 . S
C1764 C1766 1.391 . S
C1765 C1764 1.386 . S
C1765 C1769 1.393 . S
C1766 H1758 0.950 . S
C1766 C1764 1.391 . S
C1766 C1767 1.400 . S
C1767 C1766 1.400 . S
C1767 C1768 1.398 . S
C1767 C1773 1.491 . S
C1768 H1759 0.950 . S
C1768 C1767 1.398 . S
C1768 C1769 1.391 . S
C1769 H1757 0.950 . S
C1769 C1765 1.393 . S
C1769 C1768 1.391 . S
C1770 H1760 0.950 . S
C1770 C1771 1.386 . S
C1770 C1772 1.391 . S
C1771 C1770 1.386 . S
C1771 C1775 1.393 . S
C1772 H1761 0.950 . S
C1772 C1770 1.391 . S
C1772 C1773 1.400 . S
C1773 C1767 1.491 . S
C1773 C1772 1.400 . S
C1773 C1774 1.398 . S
C1774 H1762 0.950 . S
C1774 C1773 1.398 . S
C1774 C1775 1.391 . S
C1775 H1763 0.950 . S
C1775 C1771 1.393 . S
C1775 C1774 1.391 . S
H1776 C1784 0.950 . S
H1777 C1789 0.950 . S
H1778 C1786 0.950 . S
H1779 C1788 0.950 . S
H1780 C1790 0.950 . S
H1781 C1792 0.950 . S
H1782 C1794 0.950 . S
H1783 C1795 0.950 . S
C1784 H1776 0.950 . S
C1784 C1785 1.386 . S
C1784 C1786 1.391 . S
C1785 C1784 1.386 . S
C1785 C1789 1.393 . S
C1786 H1778 0.950 . S
C1786 C1784 1.391 . S
C1786 C1787 1.400 . S
C1787 C1786 1.400 . S
C1787 C1788 1.398 . S
C1787 C1793 1.491 . S
C1788 H1779 0.950 . S
C1788 C1787 1.398 . S
C1788 C1789 1.391 . S
C1789 H1777 0.950 . S
C1789 C1785 1.393 . S
C1789 C1788 1.391 . S
C1790 H1780 0.950 . S
C1790 C1791 1.386 . S
C1790 C1792 1.391 . S
C1791 C1790 1.386 . S
C1791 C1795 1.393 . S
C1792 H1781 0.950 . S
C1792 C1790 1.391 . S
C1792 C1793 1.400 . S
C1793 C1787 1.491 . S
C1793 C1792 1.400 . S
C1793 C1794 1.398 . S
C1794 H1782 0.950 . S
C1794 C1793 1.398 . S
C1794 C1795 1.391 . S
C1795 H1783 0.950 . S
C1795 C1791 1.393 . S
C1795 C1794 1.391 . S
H1796 C1804 0.950 . S
H1797 C1809 0.950 . S
H1798 C1806 0.950 . S
H1799 C1808 0.950 . S
H1800 C1810 0.950 . S
H1801 C1812 0.950 . S
H1802 C1814 0.950 . S
H1803 C1815 0.950 . S
C1804 H1796 0.950 . S
C1804 C1805 1.386 . S
C1804 C1806 1.391 . S
C1805 C1804 1.386 . S
C1805 C1809 1.393 . S
C1806 H1798 0.950 . S
C1806 C1804 1.391 . S
C1806 C1807 1.400 . S
C1807 C1806 1.400 . S
C1807 C1808 1.398 . S
C1807 C1813 1.491 . S
C1808 H1799 0.950 . S
C1808 C1807 1.398 . S
C1808 C1809 1.391 . S
C1809 H1797 0.950 . S
C1809 C1805 1.393 . S
C1809 C1808 1.391 . S
C1810 H1800 0.950 . S
C1810 C1811 1.386 . S
C1810 C1812 1.391 . S
C1811 C1810 1.386 . S
C1811 C1815 1.393 . S
C1812 H1801 0.950 . S
C1812 C1810 1.391 . S
C1812 C1813 1.400 . S
C1813 C1807 1.491 . S
C1813 C1812 1.400 . S
C1813 C1814 1.398 . S
C1814 H1802 0.950 . S
C1814 C1813 1.398 . S
C1814 C1815 1.391 . S
C1815 H1803 0.950 . S
C1815 C1811 1.393 . S
C1815 C1814 1.391 . S
H1816 C1824 0.950 . S
H1817 C1829 0.950 . S
H1818 C1826 0.950 . S
H1819 C1828 0.950 . S
H1820 C1830 0.950 . S
H1821 C1832 0.950 . S
H1822 C1834 0.950 . S
H1823 C1835 0.950 . S
C1824 H1816 0.950 . S
C1824 C1825 1.386 . S
C1824 C1826 1.391 . S
C1825 C1824 1.386 . S
C1825 C1829 1.393 . S
C1826 H1818 0.950 . S
C1826 C1824 1.391 . S
C1826 C1827 1.400 . S
C1827 C1826 1.400 . S
C1827 C1828 1.398 . S
C1827 C1833 1.491 . S
C1828 H1819 0.950 . S
C1828 C1827 1.398 . S
C1828 C1829 1.391 . S
C1829 H1817 0.950 . S
C1829 C1825 1.393 . S
C1829 C1828 1.391 . S
C1830 H1820 0.950 . S
C1830 C1831 1.386 . S
C1830 C1832 1.391 . S
C1831 C1830 1.386 . S
C1831 C1835 1.393 . S
C1832 H1821 0.950 . S
C1832 C1830 1.391 . S
C1832 C1833 1.400 . S
C1833 C1827 1.491 . S
C1833 C1832 1.400 . S
C1833 C1834 1.398 . S
C1834 H1822 0.950 . S
C1834 C1833 1.398 . S
C1834 C1835 1.391 . S
C1835 H1823 0.950 . S
C1835 C1831 1.393 . S
C1835 C1834 1.391 . S
C765 C439 1.450 . S
C771 C582 1.490 . S
C785 C465 1.538 . S
C791 C602 1.504 . S
C805 C401 1.551 . S
C811 C625 1.542 . S
C825 C369 1.455 . S
C831 C605 1.452 . S
C851 C622 1.464 . S
C845 C305 1.461 . S
C865 C343 1.385 . S
C871 C585 1.436 . S
C891 C592 1.527 . S
C885 C375 1.556 . S
C911 C612 1.488 . S
C905 C311 1.503 . S
C925 C337 1.496 . S
C931 C617 1.540 . S
C945 C433 1.404 . S
C951 C597 1.443 . S
C965 C471 1.432 . S
C971 C632 1.435 . S
C991 C577 1.467 . S
C985 C407 1.475 . S
C1011 C642 1.508 . S
C1005 C55 1.467 . S
C1025 C81 1.533 . S
C1031 C662 1.516 . S
C1045 C17 1.551 . S
C1051 C685 1.542 . S
C1065 C561 1.460 . S
C1071 C665 1.441 . S
C1085 C497 1.461 . S
C1091 C682 1.463 . S
C1105 C535 1.388 . S
C1111 C645 1.437 . S
C1125 C567 1.553 . S
C1131 C652 1.534 . S
C1145 C503 1.505 . S
C1151 C672 1.493 . S
C1171 C677 1.541 . S
C1165 C529 1.491 . S
C1185 C49 1.415 . S
C1191 C657 1.451 . S
C1211 C692 1.435 . S
C1205 C87 1.432 . S
C1225 C23 1.477 . S
C1231 C637 1.466 . S
C1251 C702 1.507 . S
C1245 C247 1.462 . S
C1265 C273 1.540 . S
C1271 C722 1.502 . S
C1291 C745 1.532 . S
C1285 C209 1.555 . S
C1311 C725 1.447 . S
C1305 C177 1.459 . S
C1331 C742 1.451 . S
C1325 C113 1.471 . S
C1345 C151 1.369 . S
C1351 C705 1.427 . S
C1365 C183 1.557 . S
C1371 C712 1.522 . S
C1385 C119 1.512 . S
C1391 C732 1.472 . S
C1411 C737 1.530 . S
C1405 C145 1.480 . S
C1425 C241 1.389 . S
C1431 C717 1.442 . S
C1445 C279 1.433 . S
C1451 C752 1.433 . S
C1465 C215 1.480 . S
C1471 C697 1.455 . S
C1485 C509 1.294 . S
C1491 C595 1.283 1_565 S
C1511 C615 1.561 . S
C1505 C541 1.544 . S
C1525 C573 1.500 . S
C1531 C624 1.438 . S
C1545 C221 1.671 . S
C1551 C604 1.606 . S
C1565 C253 1.416 . S
C1571 C635 1.432 . S
C1591 C584 1.282 . S
C1585 C285 1.299 . S
C1605 C125 1.290 . S
C1611 C655 1.290 . S
C1625 C157 1.563 . S
C1631 C675 1.580 . S
C1645 C189 1.494 . S
C1651 C684 1.449 . S
C1665 C413 1.672 . S
C1671 C664 1.590 . S
C1691 C695 1.412 . S
C1685 C445 1.400 . S
C1705 C477 1.286 . S
C1711 C644 1.287 . S
C1725 C317 1.291 . S
C1731 C715 1.289 . S
C1745 C349 1.549 . S
C1751 C735 1.560 . S
C1771 C744 1.450 . S
C1765 C381 1.493 . S
C1785 C29 1.672 . S
C1791 C724 1.589 . S
C1805 C61 1.397 . S
C1811 C755 1.419 . S
C1825 C93 1.303 . S
C1831 C704 1.265 . S
