# Generated by pormake.
# Topology zzz, (3,6)-cn, num edge types: 1
# Building blocks:
#     Node 0, Type 0, BuildingBlock: BELTOD_clean_linker_0, # of connection points: 3
#     Node 1, Type 0, BuildingBlock: BELTOD_clean_linker_0, # of connection points: 3
#     Node 2, Type 0, BuildingBlock: BELTOD_clean_linker_0, # of connection points: 3
#     Node 3, Type 0, BuildingBlock: BELTOD_clean_linker_0, # of connection points: 3
#     Node 4, Type 0, BuildingBlock: BELTOD_clean_linker_0, # of connection points: 3
#     Node 5, Type 0, BuildingBlock: BELTOD_clean_linker_0, # of connection points: 3
#     Node 6, Type 0, BuildingBlock: BELTOD_clean_linker_0, # of connection points: 3
#     Node 7, Type 0, BuildingBlock: BELTOD_clean_linker_0, # of connection points: 3
#     Node 8, Type 1, BuildingBlock: KUMBUR_clean_sbu_0, # of connection points: 6
#     Node 9, Type 1, BuildingBlock: KUMBUR_clean_sbu_0, # of connection points: 6
#     Node 10, Type 1, BuildingBlock: KUMBUR_clean_sbu_0, # of connection points: 6
#     Node 11, Type 1, BuildingBlock: KUMBUR_clean_sbu_0, # of connection points: 6
#     Edge 12, Type (0, 1), BuildingBlock: UVAHIK_clean_linker_0, # of connection points: 2
#     Edge 13, Type (0, 1), BuildingBlock: UVAHIK_clean_linker_0, # of connection points: 2
#     Edge 14, Type (0, 1), BuildingBlock: UVAHIK_clean_linker_0, # of connection points: 2
#     Edge 15, Type (0, 1), BuildingBlock: UVAHIK_clean_linker_0, # of connection points: 2
#     Edge 16, Type (0, 1), BuildingBlock: UVAHIK_clean_linker_0, # of connection points: 2
#     Edge 17, Type (0, 1), BuildingBlock: UVAHIK_clean_linker_0, # of connection points: 2
#     Edge 18, Type (0, 1), BuildingBlock: UVAHIK_clean_linker_0, # of connection points: 2
#     Edge 19, Type (0, 1), BuildingBlock: UVAHIK_clean_linker_0, # of connection points: 2
#     Edge 20, Type (0, 1), BuildingBlock: UVAHIK_clean_linker_0, # of connection points: 2
#     Edge 21, Type (0, 1), BuildingBlock: UVAHIK_clean_linker_0, # of connection points: 2
#     Edge 22, Type (0, 1), BuildingBlock: UVAHIK_clean_linker_0, # of connection points: 2
#     Edge 23, Type (0, 1), BuildingBlock: UVAHIK_clean_linker_0, # of connection points: 2
#     Edge 24, Type (0, 1), BuildingBlock: UVAHIK_clean_linker_0, # of connection points: 2
#     Edge 25, Type (0, 1), BuildingBlock: UVAHIK_clean_linker_0, # of connection points: 2
#     Edge 26, Type (0, 1), BuildingBlock: UVAHIK_clean_linker_0, # of connection points: 2
#     Edge 27, Type (0, 1), BuildingBlock: UVAHIK_clean_linker_0, # of connection points: 2
#     Edge 28, Type (0, 1), BuildingBlock: UVAHIK_clean_linker_0, # of connection points: 2
#     Edge 29, Type (0, 1), BuildingBlock: UVAHIK_clean_linker_0, # of connection points: 2
#     Edge 30, Type (0, 1), BuildingBlock: UVAHIK_clean_linker_0, # of connection points: 2
#     Edge 31, Type (0, 1), BuildingBlock: UVAHIK_clean_linker_0, # of connection points: 2
#     Edge 32, Type (0, 1), BuildingBlock: UVAHIK_clean_linker_0, # of connection points: 2
#     Edge 33, Type (0, 1), BuildingBlock: UVAHIK_clean_linker_0, # of connection points: 2
#     Edge 34, Type (0, 1), BuildingBlock: UVAHIK_clean_linker_0, # of connection points: 2
#     Edge 35, Type (0, 1), BuildingBlock: UVAHIK_clean_linker_0, # of connection points: 2
# Relax obj value: 0.262
# Max RMSD: 0.213
# Mean RMSD: 0.200
data_MOF--net-zzz--node1-KUMBUR_clean_sbu_0--node2-BELTOD_clean_linker_0--edge1-UVAHIK_clean_linker_0
_symmetry_space_group_name_H-M    P1
_symmetry_Int_Tables_number       1
_symmetry_cell_setting            triclinic
loop_
_symmetry_equiv_pos_as_xyz
'x, y, z'
_cell_length_a     67.604616
_cell_length_b     67.480349
_cell_length_c     23.355603
_cell_angle_alpha  90.111132
_cell_angle_beta   90.037601
_cell_angle_gamma 89.957617
loop_
_atom_site_label
_atom_site_type_symbol
_atom_site_fract_x
_atom_site_fract_y
_atom_site_fract_z
_atom_type_partial_charge
P0 P 0.74239 0.51013 0.11836 0.0
H1 H 0.76314 0.48014 0.18494 0.0
H2 H 0.7882 0.48299 0.25822 0.0
H3 H 0.77461 0.54525 0.27749 0.0
H4 H 0.74948 0.54227 0.20195 0.0
H5 H 0.70598 0.48757 0.13025 0.0
H6 H 0.67271 0.49398 0.0958 0.0
H7 H 0.68846 0.55504 0.06344 0.0
H8 H 0.72213 0.54822 0.09692 0.0
H9 H 0.782 0.52839 0.12351 0.0
H10 H 0.73499 0.52173 0.99969 0.0
O11 O 0.74349 0.48677 0.09483 0.0
H12 H 0.80275 0.54324 0.05163 0.0
H13 H 0.75609 0.5368 0.92649 0.0
C14 C 0.75435 0.51099 0.18769 0.0
C15 C 0.76494 0.4943 0.20611 0.0
C16 C 0.77942 0.49597 0.24846 0.0
C17 C 0.78376 0.51443 0.27359 0.0
C18 C 0.77194 0.53086 0.25845 0.0
C19 C 0.7573 0.52913 0.21596 0.0
C20 C 0.71667 0.51728 0.11504 0.0
C21 C 0.70216 0.5025 0.11739 0.0
C22 C 0.683 0.50625 0.09761 0.0
C23 C 0.67788 0.52497 0.07547 0.0
C24 C 0.69198 0.54031 0.0787 0.0
C25 C 0.7112 0.5365 0.09854 0.0
C26 C 0.75661 0.52434 0.0677 0.0
C27 C 0.77575 0.53076 0.08151 0.0
C28 C 0.78772 0.5394 0.04003 0.0
C29 C 0.78101 0.54146 0.98339 0.0
C30 C 0.76163 0.53552 0.96985 0.0
C31 C 0.74956 0.52697 0.01169 0.0
P32 P 0.99935 0.76287 0.08446 0.0
H33 H 0.02891 0.77336 0.17088 0.0
H34 H 0.02717 0.79592 0.2525 0.0
H35 H 0.96348 0.79657 0.23936 0.0
H36 H 0.96532 0.77364 0.15795 0.0
H37 H 0.02955 0.73598 0.04007 0.0
H38 H 0.02779 0.70284 1.00101 0.0
H39 H 0.96784 0.69726 0.06326 0.0
H40 H 0.96957 0.73124 0.10087 0.0
H41 H 0.98185 0.8024 0.08359 0.0
H42 H 0.9771 0.74888 0.98299 0.0
O43 O 0.02067 0.77175 0.0592 0.0
H44 H 0.95993 0.81931 0.0173 0.0
H45 H 0.95518 0.7659 0.91611 0.0
C46 C 0.99728 0.77212 0.15728 0.0
C47 C 0.0145 0.77773 0.18674 0.0
C48 C 0.01349 0.79074 0.23352 0.0
C49 C 0.9952 0.79847 0.25169 0.0
C50 C 0.97783 0.79122 0.22572 0.0
C51 C 0.97886 0.77793 0.17945 0.0
C52 C 0.99968 0.73624 0.07358 0.0
C53 C 0.01613 0.72757 0.04682 0.0
C54 C 0.01512 0.70838 0.02437 0.0
C55 C 0.9976 0.69719 0.02821 0.0
C56 C 0.98149 0.70547 0.05842 0.0
C57 C 0.98253 0.72481 0.08091 0.0
C58 C 0.98057 0.77407 0.03998 0.0
C59 C 0.97549 0.794 0.04861 0.0
C60 C 0.9629 0.8037 0.01053 0.0
C61 C 0.95554 0.79384 0.96193 0.0
C62 C 0.96044 0.7738 0.95354 0.0
C63 C 0.97292 0.76403 0.9921 0.0
P64 P 0.75583 0.99948 0.12145 0.0
H65 H 0.74913 0.02485 0.22143 0.0
H66 H 0.72492 0.02132 0.2978 0.0
H67 H 0.71846 0.95929 0.25598 0.0
H68 H 0.74272 0.96298 0.17922 0.0
H69 H 0.77899 0.0186 0.03465 0.0
H70 H 0.81179 0.01345 0.99604 0.0
H71 H 0.82182 0.96648 0.11816 0.0
H72 H 0.78817 0.97169 0.15674 0.0
H73 H 0.71564 0.00608 0.08382 0.0
H74 H 0.76039 0.96116 0.06155 0.0
O75 O 0.75069 0.02332 0.10926 0.0
H76 H 0.69244 0.98635 0.02824 0.0
H77 H 0.73698 0.94095 0.00638 0.0
C78 C 0.74748 0.99431 0.19352 0.0
C79 C 0.74321 0.01027 0.23013 0.0
C80 C 0.7292 0.00823 0.27392 0.0
C81 C 0.71924 0.99015 0.28199 0.0
C82 C 0.72545 0.97357 0.24994 0.0
C83 C 0.73957 0.97561 0.20638 0.0
C84 C 0.7813 0.99598 0.09987 0.0
C85 C 0.7883 0.00744 0.05422 0.0
C86 C 0.80719 0.00447 0.03202 0.0
C87 C 0.81971 0.98979 0.05452 0.0
C88 C 0.8126 0.97799 0.09995 0.0
C89 C 0.79348 0.98105 0.12244 0.0
C90 C 0.73987 0.98535 0.07538 0.0
C91 C 0.72053 0.99202 0.06639 0.0
C92 C 0.70716 0.98053 0.03543 0.0
C93 C 0.71279 0.96194 0.01339 0.0
C94 C 0.73224 0.95524 0.02253 0.0
C95 C 0.74566 0.96682 0.05373 0.0
P96 P 0.52844 0.76458 0.11445 0.0
H97 H 0.49699 0.74326 0.17326 0.0
H98 H 0.49713 0.72244 0.25718 0.0
H99 H 0.55582 0.74318 0.29993 0.0
H100 H 0.55572 0.76389 0.21349 0.0
H101 H 0.50098 0.79614 0.08501 0.0
H102 H 0.50595 0.82945 0.05052 0.0
H103 H 0.56816 0.82537 0.0931 0.0
H104 H 0.56304 0.79109 0.12437 0.0
H105 H 0.55158 0.72851 0.13946 0.0
H106 H 0.5461 0.77092 0.00219 0.0
O107 O 0.50753 0.75874 0.08027 0.0
H108 H 0.57157 0.70737 0.0789 0.0
H109 H 0.56606 0.74937 0.94053 0.0
C110 C 0.52639 0.75516 0.18671 0.0
C111 C 0.50973 0.74389 0.20128 0.0
C112 C 0.50981 0.7319 0.24989 0.0
C113 C 0.52657 0.73086 0.28548 0.0
C114 C 0.54276 0.74333 0.27309 0.0
C115 C 0.54263 0.75543 0.22415 0.0
C116 C 0.53167 0.791 0.10671 0.0
C117 C 0.51566 0.80246 0.08797 0.0
C118 C 0.51856 0.82177 0.06845 0.0
C119 C 0.53756 0.83036 0.06819 0.0
C120 C 0.55338 0.81924 0.09117 0.0
C121 C 0.55046 0.7997 0.11001 0.0
C122 C 0.54754 0.75157 0.07587 0.0
C123 C 0.5553 0.73377 0.09715 0.0
C124 C 0.56685 0.72159 0.06229 0.0
C125 C 0.57045 0.72674 0.00498 0.0
C126 C 0.56357 0.74508 0.98461 0.0
C127 C 0.55221 0.7574 0.01986 0.0
P128 P 0.26867 0.43381 0.05334 0.0
H129 H 0.2625 0.43335 0.92901 0.0
H130 H 0.23911 0.45124 0.86867 0.0
H131 H 0.22498 0.48989 0.01041 0.0
H132 H 0.24834 0.47192 0.0707 0.0
H133 H 0.29991 0.41254 0.11119 0.0
H134 H 0.32883 0.42278 0.16631 0.0
H135 H 0.31298 0.48414 0.14069 0.0
H136 H 0.28402 0.47374 0.08488 0.0
H137 H 0.24064 0.40086 0.05166 0.0
H138 H 0.25281 0.45174 0.15767 0.0
O139 O 0.27578 0.41386 0.01625 0.0
H140 H 0.20971 0.39538 0.10271 0.0
H141 H 0.2213 0.44744 0.20599 0.0
C142 C 0.25724 0.45119 0.00466 0.0
C143 C 0.25491 0.44608 0.94677 0.0
C144 C 0.24147 0.45634 0.91214 0.0
C145 C 0.22995 0.4718 0.93498 0.0
C146 C 0.23341 0.47784 0.99179 0.0
C147 C 0.24694 0.46766 0.02622 0.0
C148 C 0.28993 0.44235 0.09317 0.0
C149 C 0.30271 0.42822 0.11697 0.0
C150 C 0.31929 0.43409 0.1484 0.0
C151 C 0.32332 0.45428 0.15749 0.0
C152 C 0.31025 0.46847 0.13454 0.0
C153 C 0.2937 0.46254 0.10246 0.0
C154 C 0.24908 0.42664 0.1011 0.0
C155 C 0.23684 0.41063 0.08681 0.0
C156 C 0.21894 0.40772 0.11553 0.0
C157 C 0.21263 0.42116 0.15798 0.0
C158 C 0.22558 0.43656 0.17423 0.0
C159 C 0.24367 0.43915 0.14632 0.0
P160 P 0.07165 0.26945 0.03037 0.0
H161 H 0.06316 0.26658 0.90747 0.0
H162 H 0.0485 0.23989 0.85111 0.0
H163 H 0.02842 0.21186 0.00673 0.0
H164 H 0.04269 0.23894 0.06269 0.0
H165 H 0.08631 0.30997 0.03624 0.0
H166 H 0.07759 0.33851 0.09413 0.0
H167 H 0.0287 0.30591 0.16678 0.0
H168 H 0.03718 0.27733 0.10607 0.0
H169 H 0.0956 0.23452 0.01156 0.0
H170 H 0.07196 0.26601 0.15719 0.0
O171 O 0.08946 0.2766 0.98544 0.0
H172 H 0.106 0.20748 0.07428 0.0
H173 H 0.08205 0.23899 0.21976 0.0
C174 C 0.05425 0.25471 0.98947 0.0
C175 C 0.05502 0.25507 0.92947 0.0
C176 C 0.04685 0.23959 0.89721 0.0
C177 C 0.03773 0.22335 0.92429 0.0
C178 C 0.03533 0.22404 0.98421 0.0
C179 C 0.04345 0.23961 0.01642 0.0
C180 C 0.06237 0.29143 0.06642 0.0
C181 C 0.07344 0.30897 0.0636 0.0
C182 C 0.06857 0.32532 0.09756 0.0
C183 C 0.05265 0.32453 0.1363 0.0
C184 C 0.04101 0.30717 0.1374 0.0
C185 C 0.04582 0.29078 0.10267 0.0
C186 C 0.08297 0.25228 0.07951 0.0
C187 C 0.09306 0.23584 0.0572 0.0
C188 C 0.09888 0.22034 0.09299 0.0
C189 C 0.09473 0.22104 0.15189 0.0
C190 C 0.08563 0.23808 0.17464 0.0
C191 C 0.07972 0.25355 0.13869 0.0
P192 P 0.24481 0.08667 0.01712 0.0
H193 H 0.24891 0.07812 0.89443 0.0
H194 H 0.27541 0.06208 0.8407 0.0
H195 H 0.30111 0.04138 0.99913 0.0
H196 H 0.27423 0.057 0.05239 0.0
H197 H 0.20386 0.10018 0.02458 0.0
H198 H 0.17593 0.09054 0.08428 0.0
H199 H 0.21078 0.0433 0.15711 0.0
H200 H 0.23873 0.05257 0.09519 0.0
H201 H 0.27577 0.11547 0.996 0.0
H202 H 0.25322 0.0832 0.14114 0.0
O203 O 0.23684 0.10381 0.97105 0.0
H204 H 0.3047 0.12529 0.05189 0.0
H205 H 0.28223 0.0922 0.19617 0.0
C206 C 0.2596 0.06894 0.97761 0.0
C207 C 0.25987 0.0696 0.9176 0.0
C208 C 0.27524 0.06062 0.88686 0.0
C209 C 0.29076 0.05084 0.91552 0.0
C210 C 0.28948 0.04875 0.97542 0.0
C211 C 0.27401 0.05767 0.00609 0.0
C212 C 0.22348 0.07709 0.05513 0.0
C213 C 0.20548 0.08744 0.05227 0.0
C214 C 0.18945 0.08194 0.08654 0.0
C215 C 0.19118 0.06623 0.12554 0.0
C216 C 0.20907 0.05554 0.1276 0.0
C217 C 0.225 0.06077 0.09209 0.0
C218 C 0.26223 0.09865 0.06426 0.0
C219 C 0.27671 0.11099 0.04043 0.0
C220 C 0.29338 0.11641 0.07224 0.0
C221 C 0.29596 0.10935 0.12837 0.0
C222 C 0.2807 0.09813 0.15336 0.0
C223 C 0.26401 0.09282 0.12157 0.0
P224 P 0.41434 0.24727 0.02748 0.0
H225 H 0.41191 0.25507 0.904 0.0
H226 H 0.42968 0.27841 0.84326 0.0
H227 H 0.47099 0.28959 0.98072 0.0
H228 H 0.45291 0.2664 0.04162 0.0
H229 H 0.40351 0.20551 0.01441 0.0
H230 H 0.41318 0.17563 0.06575 0.0
H231 H 0.45566 0.20966 0.1633 0.0
H232 H 0.44629 0.23941 0.11021 0.0
H233 H 0.40735 0.28971 0.02025 0.0
H234 H 0.40776 0.24534 0.15304 0.0
O235 O 0.39319 0.242 0.99387 0.0
H236 H 0.40326 0.31554 0.09191 0.0
H237 H 0.40346 0.27125 0.22538 0.0
C238 C 0.43107 0.25893 0.97748 0.0
C239 C 0.42514 0.26204 0.9206 0.0
C240 C 0.43535 0.27544 0.88576 0.0
C241 C 0.45161 0.28612 0.90733 0.0
C242 C 0.45834 0.28186 0.96304 0.0
C243 C 0.44818 0.26837 0.99772 0.0
C244 C 0.42402 0.22478 0.05884 0.0
C245 C 0.41512 0.20653 0.04623 0.0
C246 C 0.42055 0.18942 0.07612 0.0
C247 C 0.43497 0.1902 0.11955 0.0
C248 C 0.44458 0.20839 0.13 0.0
C249 C 0.43922 0.22548 0.09967 0.0
C250 C 0.40874 0.26565 0.08133 0.0
C251 C 0.40646 0.28548 0.06488 0.0
C252 C 0.40387 0.30027 0.106 0.0
C253 C 0.40322 0.2955 0.16457 0.0
C254 C 0.40429 0.27544 0.18071 0.0
C255 C 0.40684 0.26061 0.13933 0.0
Tb256 Tb 0.03221 0.00622 0.65042 0.0
C257 C 0.95487 0.98121 0.52809 0.0
C258 C 0.96513 0.96054 0.44905 0.0
C259 C 0.93295 0.95539 0.49278 0.0
C260 C 0.96894 0.97591 0.4886 0.0
C261 C 0.93647 0.97142 0.52986 0.0
C262 C 0.94729 0.94994 0.4524 0.0
C263 C 0.92579 0.99527 0.60055 0.0
N264 N 0.95883 0.99683 0.56259 0.0
C265 C 0.94431 0.00445 0.59717 0.0
C266 C 0.92196 0.97847 0.56742 0.0
Tb267 Tb 0.98981 0.01063 0.55631 0.0
N268 N 0.98588 0.98662 0.48683 0.0
C269 C 0.99898 0.98364 0.44293 0.0
C270 C 0.97907 0.95673 0.40628 0.0
C271 C 0.9959 0.96858 0.40264 0.0
H272 H 0.94719 0.01725 0.62369 0.0
H273 H 0.00663 0.96602 0.36904 0.0
H274 H 0.94422 0.93791 0.4229 0.0
H275 H 0.91457 1.00108 0.62903 0.0
H276 H 0.01221 0.99236 0.43909 0.0
H277 H 0.01583 0.05154 0.83635 0.0
H278 H 0.97675 0.94504 0.37513 0.0
H279 H 0.07371 1.00115 0.5761 0.0
H280 H 0.01016 0.02476 0.76753 0.0
H281 H 0.10578 0.01831 0.56693 0.0
H282 H 0.919 0.9475 0.49387 0.0
H283 H 0.04536 0.07292 0.82764 0.0
H284 H 0.07733 0.08043 0.77732 0.0
H285 H 0.90761 0.97137 0.57008 0.0
H286 H 0.1019 0.07137 0.70396 0.0
N287 N 0.03609 0.03065 0.71835 0.0
C288 C 0.02324 0.03364 0.76282 0.0
C289 C 0.04301 0.06102 0.79717 0.0
C290 C 0.05669 0.05724 0.75364 0.0
C291 C 0.02637 0.04896 0.80227 0.0
C292 C 0.05285 0.04164 0.7149 0.0
H293 H 0.11281 0.04799 0.62594 0.0
N294 N 0.06251 0.02107 0.63916 0.0
C295 C 0.09486 0.02368 0.59706 0.0
C296 C 0.06657 0.03665 0.67385 0.0
C297 C 0.07669 0.01395 0.60254 0.0
C298 C 0.09874 0.04046 0.6303 0.0
C299 C 0.08464 0.04698 0.66994 0.0
O300 O 0.05395 0.98476 0.66636 0.0
O301 O 0.01204 0.99163 0.59238 0.0
O302 O 0.98099 0.9914 0.62754 0.0
O303 O 0.0042 1.00048 0.69707 0.0
O304 O 0.04089 0.98337 0.58759 0.0
O305 O 0.03161 0.99147 0.72964 0.0
O306 O 0.96967 0.03361 0.53955 0.0
O307 O 0.00947 0.02489 0.61615 0.0
O308 O 0.0397 0.0269 0.58177 0.0
O309 O 0.01828 0.01561 0.51098 0.0
O310 O 0.98053 0.03278 0.62036 0.0
O311 O 0.99265 0.02652 0.4792 0.0
C312 C 0.0236 0.97984 0.5675 0.0
C313 C 0.04226 0.95823 0.71991 0.0
C314 C 0.02065 0.92956 0.70874 0.0
C315 C 0.02371 0.95012 0.70616 0.0
C316 C 0.03659 0.91719 0.72403 0.0
C317 C 0.05791 0.9457 0.73508 0.0
C318 C 0.05508 0.92524 0.7369 0.0
C319 C 0.98695 0.99256 0.68164 0.0
C320 C 0.04593 0.97955 0.7146 0.0
C321 C 0.08821 0.0631 0.70665 0.0
C322 C 0.07423 0.06824 0.74842 0.0
C323 C 0.99767 0.03636 0.64149 0.0
C324 C 0.98731 0.06049 0.50094 0.0
C325 C 0.00541 0.06603 0.47588 0.0
C326 C 0.01402 0.08448 0.48845 0.0
C327 C 0.00406 0.09764 0.52526 0.0
C328 C 0.97742 0.07412 0.53653 0.0
C329 C 0.98581 0.09252 0.54866 0.0
C330 C 0.03451 0.02523 0.52733 0.0
C331 C 0.97997 0.03988 0.49618 0.0
H332 H 0.01173 0.95975 0.69324 0.0
H333 H 0.03467 0.90131 0.72767 0.0
H334 H 0.07237 0.95173 0.74496 0.0
H335 H 0.0672 0.91561 0.74881 0.0
H336 H 0.01311 0.0558 0.44794 0.0
H337 H 0.01017 0.11208 0.53505 0.0
H338 H 0.96347 0.07033 0.55647 0.0
H339 H 0.97822 0.10278 0.57678 0.0
Tb340 Tb 0.50597 0.03281 0.63583 0.0
C341 C 0.52669 0.95291 0.52151 0.0
C342 C 0.54744 0.96166 0.44131 0.0
C343 C 0.55154 0.92966 0.48744 0.0
C344 C 0.53232 0.96638 0.48066 0.0
C345 C 0.53584 0.93416 0.52466 0.0
C346 C 0.55736 0.94343 0.44585 0.0
C347 C 0.51217 0.92523 0.59757 0.0
N348 N 0.5115 0.95787 0.55644 0.0
C349 C 0.50366 0.94407 0.59291 0.0
C350 C 0.52853 0.92035 0.56391 0.0
Tb351 Tb 0.49873 0.98923 0.5472 0.0
N352 N 0.52225 0.98373 0.4777 0.0
C353 C 0.52558 0.99636 0.43293 0.0
C354 C 0.55172 0.97515 0.39771 0.0
C355 C 0.5405 0.99242 0.39297 0.0
H356 H 0.4912 0.94776 0.61975 0.0
H357 H 0.54341 1.00281 0.35874 0.0
H358 H 0.56916 0.93961 0.41645 0.0
H359 H 0.50619 0.91456 0.62742 0.0
H360 H 0.5173 0.00989 0.42849 0.0
H361 H 0.46574 0.01818 0.83228 0.0
H362 H 0.56328 0.97216 0.36678 0.0
H363 H 0.50965 0.07394 0.5594 0.0
H364 H 0.4905 0.01173 0.75856 0.0
H365 H 0.49262 0.10621 0.55216 0.0
H366 H 0.55892 0.91543 0.48954 0.0
H367 H 0.44466 0.04806 0.82701 0.0
H368 H 0.43628 0.07996 0.77717 0.0
H369 H 0.53512 0.90577 0.56764 0.0
H370 H 0.44359 0.104 0.70083 0.0
N371 N 0.48383 0.03763 0.70959 0.0
C372 C 0.48177 0.02498 0.75499 0.0
C373 C 0.45569 0.0454 0.79426 0.0
C374 C 0.45852 0.05883 0.74958 0.0
C375 C 0.46759 0.02855 0.7974 0.0
C376 C 0.473 0.05456 0.70784 0.0
H377 H 0.4648 0.11406 0.61721 0.0
N378 N 0.49151 0.06346 0.6275 0.0
C379 C 0.48802 0.09556 0.58407 0.0
C380 C 0.47698 0.06795 0.66515 0.0
C381 C 0.49769 0.07729 0.58851 0.0
C382 C 0.47229 0.09991 0.62072 0.0
C383 C 0.46677 0.08616 0.66251 0.0
O384 O 0.52863 0.05387 0.644 0.0
O385 O 0.51874 0.01166 0.57732 0.0
O386 O 0.51916 0.98068 0.61566 0.0
O387 O 0.51215 0.00515 0.68371 0.0
O388 O 0.52675 0.04042 0.56675 0.0
O389 O 0.52386 0.03196 0.70961 0.0
O390 O 0.47441 0.97032 0.53546 0.0
O391 O 0.48622 0.01023 0.60636 0.0
O392 O 0.48458 0.04021 0.56896 0.0
O393 O 0.49336 0.01709 0.49932 0.0
O394 O 0.47711 0.98174 0.61438 0.0
O395 O 0.48364 0.99016 0.46845 0.0
C396 C 0.52997 0.02273 0.5488 0.0
C397 C 0.55695 0.03808 0.67974 0.0
C398 C 0.58171 0.01166 0.6822 0.0
C399 C 0.56304 0.01913 0.69753 0.0
C400 C 0.59442 0.02355 0.6492 0.0
C401 C 0.57007 0.0498 0.64774 0.0
C402 C 0.58864 0.04252 0.63245 0.0
C403 C 0.51973 0.98767 0.66878 0.0
C404 C 0.53626 0.04471 0.68775 0.0
C405 C 0.45176 0.09019 0.70245 0.0
C406 C 0.44762 0.07652 0.74592 0.0
C407 C 0.47471 0.99929 0.63435 0.0
C408 C 0.44912 0.9868 0.48506 0.0
C409 C 0.44484 0.00426 0.45453 0.0
C410 C 0.42588 0.01283 0.45663 0.0
C411 C 0.41106 0.00341 0.48897 0.0
C412 C 0.43398 0.97763 0.51657 0.0
C413 C 0.41511 0.98593 0.51852 0.0
C414 C 0.48493 0.03405 0.51511 0.0
C415 C 0.46949 0.9788 0.48751 0.0
H416 H 0.55312 0.00997 0.7222 0.0
H417 H 0.60904 0.0184 0.63742 0.0
H418 H 0.56574 0.06441 0.63314 0.0
H419 H 0.59856 0.05157 0.60725 0.0
H420 H 0.45636 0.01138 0.42996 0.0
H421 H 0.39616 0.0093 0.49054 0.0
H422 H 0.4368 0.96417 0.54042 0.0
H423 H 0.40357 0.9788 0.54307 0.0
Tb424 Tb 0.52613 0.50063 0.5614 0.0
C425 C 0.43746 0.4964 0.62114 0.0
C426 C 0.42125 0.51218 0.54107 0.0
C427 C 0.40403 0.48667 0.59452 0.0
C428 C 0.43796 0.50988 0.57695 0.0
C429 C 0.42033 0.48496 0.63136 0.0
C430 C 0.40447 0.50029 0.54952 0.0
C431 C 0.43575 0.47264 0.71736 0.0
N432 N 0.45334 0.49531 0.65628 0.0
C433 C 0.45225 0.48441 0.70579 0.0
C434 C 0.41982 0.47266 0.67945 0.0
Tb435 Tb 0.48048 0.51415 0.63263 0.0
N436 N 0.45452 0.52112 0.57015 0.0
C437 C 0.45449 0.53577 0.52933 0.0
C438 C 0.42172 0.52654 0.49826 0.0
C439 C 0.43832 0.53852 0.49286 0.0
H440 H 0.46433 0.48462 0.73602 0.0
H441 H 0.43879 0.54981 0.46004 0.0
H442 H 0.39161 0.5018 0.52217 0.0
H443 H 0.43528 0.46368 0.75573 0.0
H444 H 0.46695 0.54516 0.52171 0.0
H445 H 0.56796 0.46256 0.7271 0.0
H446 H 0.40926 0.52866 0.46967 0.0
H447 H 0.54072 0.53382 0.46547 0.0
H448 H 0.53994 0.46767 0.66356 0.0
H449 H 0.56989 0.55497 0.44773 0.0
H450 H 0.39082 0.4779 0.60136 0.0
H451 H 0.59681 0.48494 0.72343 0.0
H452 H 0.61395 0.51353 0.67647 0.0
H453 H 0.40695 0.46365 0.68869 0.0
H454 H 0.61451 0.53874 0.60049 0.0
N455 N 0.5519 0.49352 0.623 0.0
C456 C 0.55216 0.47777 0.66007 0.0
C457 C 0.58443 0.48736 0.69476 0.0
C458 C 0.58472 0.50268 0.65467 0.0
C459 C 0.5682 0.47469 0.69688 0.0
C460 C 0.56812 0.5053 0.61868 0.0
H461 H 0.59834 0.55401 0.51433 0.0
N462 N 0.55245 0.52111 0.54181 0.0
C463 C 0.56964 0.54517 0.48435 0.0
C464 C 0.56839 0.5196 0.57665 0.0
C465 C 0.55319 0.53312 0.49445 0.0
C466 C 0.58562 0.54463 0.52213 0.0
C467 C 0.58528 0.53153 0.56847 0.0
O468 O 0.53807 0.49537 0.4802 0.0
O469 O 0.49423 0.50193 0.55749 0.0
O470 O 0.48187 0.48166 0.63235 0.0
O471 O 0.51412 0.47394 0.60284 0.0
O472 O 0.50907 0.50971 0.48538 0.0
O473 O 0.53217 0.47106 0.53726 0.0
O474 O 0.46335 0.52423 0.70241 0.0
O475 O 0.5122 0.51117 0.63865 0.0
O476 O 0.52578 0.53284 0.57577 0.0
O477 O 0.49198 0.5391 0.58189 0.0
O478 O 0.496 0.50207 0.70731 0.0
O479 O 0.48597 0.54246 0.66761 0.0
C480 C 0.49176 0.50682 0.50621 0.0
C481 C 0.52764 0.46621 0.43679 0.0
C482 C 0.49966 0.44944 0.39226 0.0
C483 C 0.50903 0.45698 0.44146 0.0
C484 C 0.50895 0.45124 0.33874 0.0
C485 C 0.5368 0.46755 0.38302 0.0
C486 C 0.52746 0.46015 0.33429 0.0
C487 C 0.49663 0.46905 0.62413 0.0
C488 C 0.53714 0.47628 0.48544 0.0
C489 C 0.60149 0.52956 0.60563 0.0
C490 C 0.60119 0.51518 0.64879 0.0
C491 C 0.51371 0.50465 0.68896 0.0
C492 C 0.48453 0.54058 0.76812 0.0
C493 C 0.5003 0.55387 0.77648 0.0
C494 C 0.51176 0.55325 0.82679 0.0
C495 C 0.50712 0.53918 0.86904 0.0
C496 C 0.47986 0.52704 0.81179 0.0
C497 C 0.49117 0.52633 0.86171 0.0
C498 C 0.51043 0.54501 0.57247 0.0
C499 C 0.47472 0.53936 0.71148 0.0
H500 H 0.50169 0.45601 0.4826 0.0
H501 H 0.50203 0.44536 0.30044 0.0
H502 H 0.55104 0.47474 0.37859 0.0
H503 H 0.53457 0.46137 0.29293 0.0
H504 H 0.50369 0.5646 0.74345 0.0
H505 H 0.51588 0.53802 0.90774 0.0
H506 H 0.46788 0.51654 0.80673 0.0
H507 H 0.48772 0.51558 0.89455 0.0
Tb508 Tb 0.02188 0.53205 0.53833 0.0
C509 C 0.00365 0.44664 0.57701 0.0
C510 C 0.96888 0.43772 0.57619 0.0
C511 C 0.99329 0.41442 0.54035 0.0
C512 C 0.9841 0.45152 0.58727 0.0
C513 C 0.00845 0.42775 0.55469 0.0
C514 C 0.97354 0.41937 0.55122 0.0
C515 C 0.04286 0.43567 0.56759 0.0
N516 N 0.01796 0.45992 0.59163 0.0
C517 C 0.03745 0.45415 0.58982 0.0
C518 C 0.02834 0.42256 0.54891 0.0
Tb519 Tb 0.00642 0.49032 0.62349 0.0
N520 N 0.98009 0.46934 0.61146 0.0
C521 C 0.96132 0.4736 0.63025 0.0
C522 C 0.94952 0.44249 0.59233 0.0
C523 C 0.94579 0.46036 0.62046 0.0
H524 H 0.04932 0.46356 0.60375 0.0
H525 H 0.93094 0.46402 0.63417 0.0
H526 H 0.96204 0.40869 0.54168 0.0
H527 H 0.05831 0.43158 0.56473 0.0
H528 H 0.9582 0.48752 0.65123 0.0
H529 H 0.09705 0.55939 0.5374 0.0
H530 H 0.93746 0.43225 0.58467 0.0
H531 H 0.97925 0.55758 0.55805 0.0
H532 H 0.06989 0.53645 0.51271 0.0
H533 H 0.96896 0.58894 0.60022 0.0
H534 H 0.99673 0.39999 0.52246 0.0
H535 H 0.08997 0.59002 0.59219 0.0
H536 H 0.06467 0.61273 0.63658 0.0
H537 H 0.03262 0.40827 0.53166 0.0
H538 H 0.02962 0.62076 0.65374 0.0
N539 N 0.04772 0.55351 0.55486 0.0
C540 C 0.06663 0.5498 0.53654 0.0
C541 C 0.07802 0.57996 0.58159 0.0
C542 C 0.05848 0.58436 0.59666 0.0
C543 C 0.08207 0.56273 0.55054 0.0
C544 C 0.0435 0.57074 0.58188 0.0
H545 H 0.99381 0.61215 0.63935 0.0
N546 N 0.0102 0.562 0.57303 0.0
C547 C 0.98453 0.58524 0.5982 0.0
C548 C 0.02397 0.5752 0.59121 0.0
C549 C 0.9906 0.56726 0.57393 0.0
C550 C 0.99856 0.59828 0.62038 0.0
C551 C 0.01861 0.59353 0.61597 0.0
O552 O 0.00425 0.54057 0.46773 0.0
O553 O 0.01685 0.50036 0.54152 0.0
O554 O 0.03868 0.49387 0.62933 0.0
O555 O 0.04463 0.52683 0.60373 0.0
O556 O 0.04162 0.50967 0.50043 0.0
O557 O 0.03581 0.53869 0.46048 0.0
O558 O 0.02161 0.49383 0.70155 0.0
O559 O 0.01057 0.52192 0.61932 0.0
O560 O 0.98991 0.52706 0.52653 0.0
O561 O 0.98345 0.49496 0.55818 0.0
O562 O 0.98535 0.51232 0.65698 0.0
O563 O 0.99648 0.47491 0.69661 0.0
C564 C 0.03134 0.49429 0.51265 0.0
C565 C 0.01713 0.52711 0.38156 0.0
C566 C 0.03031 0.50103 0.31873 0.0
C567 C 0.0321 0.51353 0.36677 0.0
C568 C 0.013 0.50229 0.28541 0.0
C569 C 1.00003 0.52806 0.34769 0.0
C570 C 0.99801 0.51568 0.29997 0.0
C571 C 0.05004 0.50989 0.62762 0.0
C572 C 0.01921 0.53997 0.43274 0.0
C573 C 0.03344 0.60674 0.63391 0.0
C574 C 0.05338 0.60217 0.62419 0.0
C575 C 0.99558 0.52789 0.64621 0.0
C576 C 1.00041 0.49429 0.78048 0.0
C577 C 0.98056 0.50033 0.78063 0.0
C578 C 0.97287 0.51198 0.82528 0.0
C579 C 0.98542 0.51727 0.87091 0.0
C580 C 0.01268 0.49972 0.82626 0.0
C581 C 0.00517 0.5111 0.87135 0.0
C582 C 0.97836 0.51123 0.53011 0.0
C583 C 0.00877 0.48386 0.73057 0.0
H584 H 0.04515 0.51251 0.39323 0.0
H585 H 0.01113 0.49323 0.24752 0.0
H586 H 0.98825 0.53832 0.35821 0.0
H587 H 0.98478 0.51654 0.27394 0.0
H588 H 0.97119 0.4964 0.74493 0.0
H589 H 0.97996 0.52593 0.90663 0.0
H590 H 0.02812 0.49539 0.82671 0.0
H591 H 0.01471 0.51525 0.9066 0.0
C592 C 0.1552 0.05967 0.14565 0.0
C593 C 0.17466 0.06188 0.1658 0.0
C594 C 0.13948 0.05681 0.1839 0.0
C595 C 0.1287 0.04426 0.33768 0.0
H596 H 0.07629 0.06337 0.29845 0.0
C597 C 0.06395 0.04578 0.49933 0.0
C598 C 0.04822 0.0333 0.48323 0.0
C599 C 0.07849 0.0512 0.45974 0.0
C600 C 0.09087 0.05797 0.30983 0.0
H601 H 0.19287 0.06314 0.24189 0.0
H602 H 0.16558 0.05901 0.30877 0.0
H603 H 0.10376 0.06876 0.23233 0.0
H604 H 0.03438 0.01857 0.41095 0.0
H605 H 0.05951 0.02861 0.34138 0.0
H606 H 0.11573 0.03419 0.41624 0.0
C607 C 0.16233 0.0587 0.26342 0.0
C608 C 0.10665 0.06087 0.27175 0.0
C609 C 0.17807 0.06115 0.22506 0.0
C610 C 0.04646 0.02784 0.42525 0.0
C611 C 0.06081 0.03364 0.38529 0.0
C612 C 0.11303 0.0418 0.37618 0.0
C613 C 0.14272 0.05649 0.24356 0.0
C614 C 0.12584 0.05387 0.28476 0.0
C615 C 0.07731 0.0448 0.40263 0.0
C616 C 0.09394 0.04847 0.36248 0.0
H617 H 0.15215 0.06009 0.10013 0.0
H618 H 0.12481 0.05472 0.16637 0.0
H619 H 0.14298 0.03821 0.34925 0.0
H620 H 0.06536 0.05098 0.54301 0.0
H621 H 0.09088 0.06012 0.47397 0.0
C622 C 0.45858 0.16835 0.17473 0.0
C623 C 0.43928 0.17238 0.15542 0.0
C624 C 0.46239 0.15208 0.2102 0.0
C625 C 0.43749 0.11729 0.30995 0.0
H626 H 0.48673 0.08826 0.29634 0.0
C627 C 0.4647 0.06355 0.48592 0.0
C628 C 0.47677 0.04744 0.47053 0.0
C629 C 0.45873 0.07744 0.44502 0.0
C630 C 0.47275 0.09596 0.30042 0.0
H631 H 0.40883 0.16222 0.15883 0.0
H632 H 0.41557 0.13359 0.21891 0.0
H633 H 0.47926 0.11453 0.22874 0.0
H634 H 0.49067 0.03244 0.3989 0.0
H635 H 0.47964 0.05613 0.32723 0.0
H636 H 0.43089 0.09862 0.38126 0.0
C637 C 0.42776 0.14319 0.20733 0.0
C638 C 0.4686 0.1113 0.262 0.0
C639 C 0.42394 0.1595 0.17206 0.0
C640 C 0.48169 0.04486 0.41254 0.0
C641 C 0.4755 0.05861 0.37143 0.0
C642 C 0.44163 0.10193 0.34833 0.0
C643 C 0.44701 0.13932 0.22724 0.0
C644 C 0.451 0.12232 0.26655 0.0
C645 C 0.46437 0.0754 0.38728 0.0
C646 C 0.45938 0.0911 0.34443 0.0
H647 H 0.47082 0.17777 0.16242 0.0
H648 H 0.47737 0.14975 0.22516 0.0
H649 H 0.42386 0.12553 0.31528 0.0
H650 H 0.46019 0.06573 0.52996 0.0
H651 H 0.45024 0.09012 0.45932 0.0
C652 C 0.35939 0.45093 0.18188 0.0
C653 C 0.34107 0.4603 0.19112 0.0
C654 C 0.37594 0.45593 0.2149 0.0
C655 C 0.39015 0.47707 0.3542 0.0
H656 H 0.44142 0.48457 0.2831 0.0
C657 C 0.47187 0.51013 0.41674 0.0
C658 C 0.47487 0.5009 0.4698 0.0
C659 C 0.45588 0.50471 0.38201 0.0
C660 C 0.42719 0.4826 0.30358 0.0
H661 H 0.32581 0.48233 0.24227 0.0
H662 H 0.35474 0.49107 0.3001 0.0
H663 H 0.41271 0.47662 0.22372 0.0
H664 H 0.46462 0.47757 0.52599 0.0
H665 H 0.43652 0.46822 0.46576 0.0
H666 H 0.40464 0.48295 0.434 0.0
C667 C 0.35625 0.4798 0.26731 0.0
C668 C 0.41077 0.47789 0.26961 0.0
C669 C 0.33974 0.47494 0.23384 0.0
C670 C 0.46221 0.48543 0.48623 0.0
C671 C 0.44614 0.48008 0.45172 0.0
C672 C 0.40661 0.48153 0.38822 0.0
C673 C 0.37453 0.4703 0.25834 0.0
C674 C 0.39203 0.4752 0.29448 0.0
C675 C 0.44267 0.4898 0.39943 0.0
C676 C 0.4253 0.4845 0.3633 0.0
H677 H 0.36095 0.4397 0.14898 0.0
H678 H 0.38975 0.44824 0.20715 0.0
H679 H 0.37596 0.47486 0.37475 0.0
H680 H 0.48167 0.52184 0.40268 0.0
H681 H 0.45363 0.5125 0.34204 0.0
C682 C 0.06517 0.35178 0.20082 0.0
C683 C 0.04908 0.34142 0.17688 0.0
C684 C 0.06219 0.36776 0.23808 0.0
C685 C 0.02463 0.40473 0.28531 0.0
H686 H 0.06134 0.41216 0.4111 0.0
C687 C 0.01484 0.46671 0.45769 0.0
C688 C 0.03214 0.47617 0.47674 0.0
C689 C 0.01597 0.44997 0.42204 0.0
C690 C 0.05104 0.41045 0.3759 0.0
H691 H 0.01705 0.33994 0.17441 0.0
H692 H 0.01182 0.36757 0.24071 0.0
H693 H 0.06487 0.38356 0.34845 0.0
H694 H 0.06405 0.47651 0.47026 0.0
H695 H 0.06612 0.44744 0.40821 0.0
H696 H 0.0108 0.4317 0.31319 0.0
C697 C 0.02683 0.36347 0.22969 0.0
C698 C 0.05308 0.394 0.33977 0.0
C699 C 0.02983 0.34744 0.1921 0.0
C700 C 0.05051 0.46913 0.45755 0.0
C701 C 0.05167 0.45239 0.42224 0.0
C702 C 0.02253 0.42118 0.32174 0.0
C703 C 0.04299 0.37386 0.25328 0.0
C704 C 0.04006 0.39099 0.29346 0.0
C705 C 0.03443 0.44244 0.40433 0.0
C706 C 0.03588 0.42441 0.36712 0.0
H707 H 0.08024 0.34746 0.1912 0.0
H708 H 0.07504 0.37548 0.25448 0.0
H709 H 0.01444 0.40311 0.24982 0.0
H710 H 1.00045 0.47221 0.47039 0.0
H711 H 0.00238 0.44274 0.4092 0.0
C712 C 0.84747 0.96793 0.01757 0.0
C713 C 0.83982 0.98694 0.02894 0.0
C714 C 0.86534 0.96562 0.98747 0.0
C715 C 0.90972 0.99412 0.93643 0.0
H716 H 0.91309 0.95247 0.82245 0.0
C717 C 0.9768 0.99065 0.78524 0.0
C718 C 0.97298 0.98619 0.72746 0.0
C719 C 0.96243 0.98732 0.82733 0.0
C720 C 0.9124 0.96431 0.85373 0.0
H721 H 0.84569 0.01838 0.02025 0.0
H722 H 0.87608 0.01445 0.96677 0.0
H723 H 0.88459 0.95399 0.88599 0.0
H724 H 0.95194 0.97219 0.6703 0.0
H725 H 0.92645 0.96761 0.7423 0.0
H726 H 0.93673 0.00527 0.90215 0.0
C727 C 0.8686 1.00121 0.98135 0.0
C728 C 0.89611 0.96499 0.89099 0.0
C729 C 0.85091 0.0035 0.01154 0.0
C730 C 0.95503 0.97678 0.71376 0.0
C731 C 0.9405 0.97375 0.75563 0.0
C732 C 0.92582 0.9936 0.89882 0.0
C733 C 0.87602 0.98226 0.96808 0.0
C734 C 0.89433 0.98015 0.93223 0.0
C735 C 0.94372 0.97957 0.81287 0.0
C736 C 0.92732 0.97887 0.85622 0.0
H737 H 0.83932 0.95484 0.03009 0.0
H738 H 0.87067 0.95077 0.97894 0.0
H739 H 0.90923 0.00578 0.96829 0.0
H740 H 0.99068 0.99728 0.79805 0.0
H741 H 0.96591 0.99127 0.87112 0.0
C742 C 0.52562 0.86432 0.03851 0.0
C743 C 0.5408 0.85005 0.03994 0.0
C744 C 0.52733 0.88135 0.0049 0.0
C745 C 0.53405 0.91962 0.94258 0.0
H746 H 0.56495 0.91572 0.80354 0.0
C747 C 0.52748 0.98071 0.7723 0.0
C748 C 0.52818 0.97485 0.71454 0.0
C749 C 0.53355 0.96781 0.81578 0.0
C750 C 0.55596 0.91706 0.84165 0.0
H751 H 0.57046 0.84362 0.00932 0.0
H752 H 0.5741 0.87395 0.95499 0.0
H753 H 0.56582 0.88894 0.87194 0.0
H754 H 0.53808 0.95157 0.65738 0.0
H755 H 0.54668 0.92844 0.73224 0.0
H756 H 0.52263 0.94672 0.90996 0.0
C757 C 0.56032 0.87151 0.97739 0.0
C758 C 0.55681 0.90173 0.88199 0.0
C759 C 0.55838 0.85415 0.00985 0.0
C760 C 0.53636 0.95625 0.70135 0.0
C761 C 0.54181 0.94308 0.74481 0.0
C762 C 0.5327 0.93461 0.90148 0.0
C763 C 0.54458 0.88514 0.97287 0.0
C764 C 0.54551 0.90252 0.93268 0.0
C765 C 0.53999 0.94842 0.803 0.0
C766 C 0.54331 0.93345 0.84966 0.0
H767 H 0.51204 0.86217 0.06221 0.0
H768 H 0.51464 0.8911 0.00268 0.0
H769 H 0.52564 0.92139 0.98164 0.0
H770 H 0.52195 0.99519 0.78428 0.0
H771 H 0.53275 0.97303 0.85953 0.0
C772 C 0.65822 0.53868 0.99257 0.0
C773 C 0.65884 0.5276 0.04365 0.0
C774 C 0.64131 0.53862 0.95782 0.0
C775 C 0.60041 0.50589 0.92068 0.0
H776 H 0.57765 0.55148 0.84417 0.0
C777 C 0.53101 0.49773 0.78057 0.0
C778 C 0.53004 0.50858 0.72953 0.0
C779 C 0.54584 0.50152 0.82077 0.0
C780 C 0.58398 0.53856 0.86461 0.0
H781 H 0.64137 0.50899 0.09993 0.0
H782 H 0.61213 0.50855 0.03868 0.0
H783 H 0.6049 0.55607 0.91203 0.0
H784 H 0.54273 0.5331 0.68261 0.0
H785 H 0.56942 0.5391 0.75127 0.0
H786 H 0.58022 0.48822 0.8723 0.0
C787 C 0.62487 0.5171 0.02536 0.0
C788 C 0.59953 0.54123 0.90373 0.0
C789 C 0.64167 0.51733 0.06039 0.0
C790 C 0.54364 0.52397 0.72059 0.0
C791 C 0.55871 0.52762 0.76051 0.0
C792 C 0.58511 0.50319 0.88121 0.0
C793 C 0.62468 0.52733 0.97297 0.0
C794 C 0.60784 0.5249 0.93241 0.0
C795 C 0.56012 0.51631 0.81097 0.0
C796 C 0.57657 0.51946 0.85277 0.0
H797 H 0.67117 0.54657 0.97767 0.0
H798 H 0.64166 0.54656 0.91757 0.0
H799 H 0.60677 0.49297 0.94113 0.0
H800 H 0.52029 0.48619 0.78929 0.0
H801 H 0.54602 0.49288 0.85977 0.0
C802 C 0.01248 0.66525 0.99066 0.0
C803 C 0.99593 0.67776 0.99704 0.0
C804 C 0.01164 0.64831 0.95593 0.0
C805 C 0.98191 0.62587 0.83694 0.0
H806 H 0.01465 0.57993 0.86814 0.0
C807 C 0.97717 0.55248 0.70623 0.0
C808 C 0.99529 0.54493 0.68643 0.0
C809 C 0.97669 0.5682 0.74556 0.0
C810 C 0.0055 0.5927 0.85871 0.0
H811 H 0.96517 0.68146 0.97266 0.0
H812 H 0.9634 0.65152 0.91479 0.0
H813 H 0.01419 0.60751 0.93578 0.0
H814 H 0.02711 0.5469 0.69542 0.0
H815 H 0.02632 0.57425 0.76446 0.0
H816 H 0.97298 0.61068 0.7603 0.0
C817 C 0.97731 0.65514 0.93521 0.0
C818 C 0.00527 0.60862 0.89742 0.0
C819 C 0.97823 0.67223 0.96948 0.0
C820 C 0.01294 0.55279 0.7087 0.0
C821 C 0.01247 0.56831 0.74867 0.0
C822 C 0.98194 0.60981 0.79868 0.0
C823 C 0.99412 0.64309 0.92692 0.0
C824 C 0.99362 0.62558 0.88697 0.0
C825 C 0.99434 0.57632 0.76722 0.0
C826 C 0.99387 0.59312 0.80884 0.0
H827 H 0.02632 0.66869 0.01183 0.0
H828 H 0.02501 0.63967 0.9506 0.0
H829 H 0.97303 0.6387 0.82639 0.0
H830 H 0.96335 0.54634 0.69078 0.0
H831 H 0.96249 0.57382 0.75967 0.0
C832 C 0.09159 0.18459 0.16858 0.0
C833 C 0.09774 0.20328 0.1883 0.0
C834 C 0.09135 0.16832 0.20539 0.0
C835 C 0.08518 0.15883 0.35834 0.0
H836 H 0.08692 0.10402 0.30833 0.0
C837 C 0.04722 0.1009 0.49331 0.0
C838 C 0.03291 0.09057 0.46145 0.0
C839 C 0.06294 0.11031 0.46572 0.0
C840 C 0.08654 0.11924 0.32314 0.0
H841 H 0.10996 0.21924 0.26068 0.0
H842 H 0.10984 0.19071 0.32498 0.0
H843 H 0.10091 0.12991 0.2475 0.0
H844 H 0.02511 0.07998 0.37673 0.0
H845 H 0.05229 0.09659 0.32848 0.0
H846 H 0.07001 0.14848 0.43237 0.0
C847 C 0.10477 0.18872 0.28135 0.0
C848 C 0.0945 0.13408 0.28826 0.0
C849 C 0.10487 0.20506 0.24458 0.0
C850 C 0.03581 0.08799 0.40236 0.0
C851 C 0.05149 0.09746 0.37472 0.0
C852 C 0.07734 0.14405 0.39317 0.0
C853 C 0.09733 0.17032 0.2628 0.0
C854 C 0.09315 0.15416 0.30441 0.0
C855 C 0.06458 0.10963 0.40573 0.0
C856 C 0.07718 0.12417 0.37499 0.0
H857 H 0.08579 0.18276 0.12566 0.0
H858 H 0.08522 0.15451 0.18967 0.0
H859 H 0.0836 0.17409 0.37206 0.0
H860 H 0.04569 0.10257 0.53925 0.0
H861 H 0.0731 0.11913 0.49099 0.0
C862 C 0.31649 0.11299 0.21773 0.0
C863 C 0.31542 0.11111 0.15784 0.0
C864 C 0.3344 0.11004 0.24639 0.0
C865 C 0.37822 0.0797 0.22553 0.0
H866 H 0.39236 0.09993 0.37543 0.0
C867 C 0.42869 0.03384 0.3681 0.0
C868 C 0.42121 0.03111 0.42369 0.0
C869 C 0.42189 0.04943 0.33404 0.0
C870 C 0.38866 0.09413 0.33352 0.0
H871 H 0.33284 0.10648 0.08084 0.0
H872 H 0.36407 0.10195 0.13069 0.0
H873 H 0.36863 0.11807 0.31648 0.0
H874 H 0.40246 0.044 0.48925 0.0
H875 H 0.38981 0.07041 0.42917 0.0
H876 H 0.39712 0.05522 0.24327 0.0
C877 C 0.35096 0.10528 0.1556 0.0
C878 C 0.3751 0.10456 0.29972 0.0
C879 C 0.33304 0.1081 0.12697 0.0
C880 C 0.40804 0.04528 0.44596 0.0
C881 C 0.40104 0.0607 0.41169 0.0
C882 C 0.39168 0.06928 0.25922 0.0
C883 C 0.35166 0.10523 0.21573 0.0
C884 C 0.36914 0.09703 0.24627 0.0
C885 C 0.40725 0.06247 0.35447 0.0
C886 C 0.39649 0.07592 0.31461 0.0
H887 H 0.30327 0.11568 0.24274 0.0
H888 H 0.33436 0.11008 0.29276 0.0
H889 H 0.37382 0.07327 0.18495 0.0
H890 H 0.439 0.02335 0.34959 0.0
H891 H 0.42746 0.05071 0.29075 0.0
C892 C 0.41594 0.31062 0.25566 0.0
C893 C 0.40321 0.31162 0.2081 0.0
C894 C 0.41885 0.32721 0.29062 0.0
C895 C 0.42003 0.3804 0.27352 0.0
H896 H 0.43273 0.38063 0.43538 0.0
C897 C 0.46477 0.44438 0.3613 0.0
C898 C 0.48075 0.43861 0.39571 0.0
C899 C 0.44872 0.43167 0.35319 0.0
C900 C 0.42928 0.38085 0.39012 0.0
H901 H 0.38205 0.3302 0.16351 0.0
H902 H 0.38732 0.35923 0.22417 0.0
H903 H 0.41641 0.35179 0.39304 0.0
H904 H 0.49206 0.41587 0.45197 0.0
H905 H 0.46477 0.39307 0.43535 0.0
H906 H 0.43406 0.40852 0.26872 0.0
C907 C 0.39525 0.34568 0.23386 0.0
C908 C 0.41984 0.36435 0.366 0.0
C909 C 0.39229 0.32909 0.19903 0.0
C910 C 0.4798 0.42062 0.42541 0.0
C911 C 0.46404 0.40761 0.41596 0.0
C912 C 0.42966 0.39672 0.29731 0.0
C913 C 0.40912 0.34515 0.27866 0.0
C914 C 0.41564 0.36374 0.30707 0.0
C915 C 0.44876 0.41256 0.3774 0.0
C916 C 0.43501 0.39695 0.3556 0.0
H917 H 0.42471 0.29747 0.26365 0.0
H918 H 0.42978 0.32636 0.32446 0.0
H919 H 0.41728 0.38032 0.22782 0.0
H920 H 0.46522 0.45828 0.33822 0.0
H921 H 0.43691 0.43637 0.32496 0.0
C922 C 0.18759 0.42742 0.23616 0.0
C923 C 0.19198 0.42052 0.18072 0.0
C924 C 0.16799 0.42993 0.25379 0.0
C925 C 0.1184 0.43791 0.18965 0.0
H926 H 0.10301 0.44106 0.3493 0.0
C927 C 0.04284 0.46855 0.2777 0.0
C928 C 0.04667 0.48704 0.30372 0.0
C929 C 0.05837 0.45556 0.26441 0.0
C930 C 0.10703 0.43988 0.30451 0.0
H931 H 0.17875 0.40951 0.10193 0.0
H932 H 0.14488 0.41257 0.13404 0.0
H933 H 0.13448 0.42556 0.3235 0.0
H934 H 0.07029 0.50634 0.33404 0.0
H935 H 0.09687 0.48326 0.31393 0.0
H936 H 0.0909 0.45246 0.17129 0.0
C937 C 0.15658 0.41687 0.1632 0.0
C938 C 0.12514 0.43125 0.28964 0.0
C939 C 0.17616 0.41476 0.1451 0.0
C940 C 0.06646 0.49207 0.31604 0.0
C941 C 0.0818 0.47891 0.30419 0.0
C942 C 0.10014 0.44616 0.20452 0.0
C943 C 0.15217 0.42522 0.21693 0.0
C944 C 0.13145 0.43087 0.23215 0.0
C945 C 0.07791 0.46063 0.27817 0.0
C946 C 0.09468 0.44782 0.26212 0.0
H947 H 0.19929 0.43155 0.26549 0.0
H948 H 0.16536 0.43652 0.29538 0.0
H949 H 0.12269 0.43823 0.14503 0.0
H950 H 0.02786 0.46396 0.26821 0.0
H951 H 0.05514 0.44151 0.24393 0.0
C952 C 0.93157 0.82015 0.9309 0.0
C953 C 0.94543 0.80543 0.91658 0.0
C954 C 0.92623 0.83458 0.89088 0.0
C955 C 0.93684 0.8524 0.74129 0.0
H956 H 0.95052 0.90043 0.82312 0.0
C957 C 0.99827 0.90243 0.67449 0.0
C958 C 1.0006 0.921 0.70083 0.0
C959 C 0.98074 0.89179 0.6813 0.0
C960 C 0.94607 0.88751 0.79876 0.0
H961 H 0.96285 0.79297 0.84743 0.0
H962 H 0.954 0.81817 0.77841 0.0
H963 H 0.93767 0.87267 0.87515 0.0
H964 H 0.98532 0.94432 0.74712 0.0
H965 H 0.95447 0.92615 0.75692 0.0
H966 H 0.9468 0.86704 0.6653 0.0
C967 C 0.94692 0.8186 0.81996 0.0
C968 C 0.93862 0.87139 0.82902 0.0
C969 C 0.95211 0.8041 0.85979 0.0
C970 C 0.98409 0.92994 0.72684 0.0
C971 C 0.96643 0.91941 0.73295 0.0
C972 C 0.94428 0.86862 0.71086 0.0
C973 C 0.93488 0.8347 0.83608 0.0
C974 C 0.93531 0.85317 0.80134 0.0
C975 C 0.96512 0.89961 0.71422 0.0
C976 C 0.95039 0.88584 0.74003 0.0
H977 H 0.92588 0.82127 0.97414 0.0
H978 H 0.91654 0.8465 0.90428 0.0
H979 H 0.93385 0.83876 0.7184 0.0
H980 H 0.01052 0.89546 0.65239 0.0
H981 H 0.98036 0.87669 0.66564 0.0
C982 C 0.67835 0.95001 0.99436 0.0
C983 C 0.69843 0.95031 0.97889 0.0
C984 C 0.66407 0.94329 0.95588 0.0
C985 C 0.65885 0.94416 0.80127 0.0
H986 H 0.60426 0.9336 0.84168 0.0
C987 C 0.58493 0.98631 0.75997 0.0
C988 C 0.58845 0.992 0.70303 0.0
C989 C 0.59482 0.97006 0.78337 0.0
C990 C 0.61946 0.93632 0.82933 0.0
H991 H 0.71952 0.94129 0.91396 0.0
H992 H 0.69462 0.92893 0.84735 0.0
H993 H 0.63076 0.92362 0.90672 0.0
H994 H 0.60276 0.98338 0.62378 0.0
H995 H 0.61992 0.95496 0.66445 0.0
H996 H 0.64776 0.95803 0.72619 0.0
C997 C 0.68983 0.93454 0.88854 0.0
C998 C 0.63465 0.93064 0.86663 0.0
C999 C 0.70414 0.94149 0.92693 0.0
C1000 C 0.60019 0.97972 0.66823 0.0
C1001 C 0.60997 0.96338 0.69151 0.0
C1002 C 0.64374 0.94973 0.76405 0.0
C1003 C 0.66955 0.93652 0.90113 0.0
C1004 C 0.65442 0.93575 0.85477 0.0
C1005 C 0.60842 0.95917 0.75027 0.0
C1006 C 0.62381 0.94708 0.7794 0.0
H1007 H 0.67354 0.95616 0.0349 0.0
H1008 H 0.64867 0.9451 0.96748 0.0
H1009 H 0.6738 0.94846 0.79035 0.0
H1010 H 0.57587 0.99534 0.78796 0.0
H1011 H 0.5932 0.96731 0.82879 0.0
C1012 C 0.59339 0.69866 0.9808 0.0
C1013 C 0.57785 0.71136 0.96496 0.0
C1014 C 0.59654 0.68091 0.95113 0.0
C1015 C 0.5761 0.64972 0.83052 0.0
H1016 H 0.57892 0.60854 0.9456 0.0
C1017 C 0.54024 0.57384 0.79055 0.0
C1018 C 0.52806 0.56769 0.83603 0.0
C1019 C 0.55439 0.5887 0.79877 0.0
C1020 C 0.57816 0.61982 0.91275 0.0
H1021 H 0.55468 0.71637 0.90252 0.0
H1022 H 0.55965 0.68551 0.85219 0.0
H1023 H 0.58998 0.64165 0.969 0.0
H1024 H 0.52155 0.57216 0.92606 0.0
H1025 H 0.54569 0.59809 0.94012 0.0
H1026 H 0.56223 0.62828 0.77644 0.0
C1027 C 0.56981 0.68915 0.88646 0.0
C1028 C 0.58485 0.63886 0.92584 0.0
C1029 C 0.56686 0.70697 0.91556 0.0
C1030 C 0.53087 0.57624 0.89027 0.0
C1031 C 0.54486 0.59112 0.89839 0.0
C1032 C 0.56905 0.63075 0.8178 0.0
C1033 C 0.58396 0.67536 0.90578 0.0
C1034 C 0.58281 0.65436 0.886 0.0
C1035 C 0.55655 0.59786 0.85255 0.0
C1036 C 0.56893 0.6159 0.86 0.0
H1037 H 0.60228 0.70187 0.0183 0.0
H1038 H 0.60798 0.67097 0.9662 0.0
H1039 H 0.57492 0.6611 0.79807 0.0
H1040 H 0.53868 0.56738 0.74833 0.0
H1041 H 0.5633 0.59333 0.76269 0.0
C1042 C 0.81013 0.56097 0.94853 0.0
C1043 C 0.79541 0.54669 0.93803 0.0
C1044 C 0.82722 0.56146 0.915 0.0
C1045 C 0.85674 0.5238 0.84914 0.0
H1046 H 0.89314 0.56647 0.81456 0.0
C1047 C 0.93729 0.50598 0.79978 0.0
C1048 C 0.95181 0.51844 0.82362 0.0
C1049 C 0.91755 0.5118 0.7981 0.0
C1050 C 0.88317 0.5544 0.82432 0.0
H1051 H 0.78583 0.5236 0.87949 0.0
H1052 H 0.81546 0.52474 0.82051 0.0
H1053 H 0.85839 0.57402 0.83493 0.0
H1054 H 0.9568 0.54723 0.8626 0.0
H1055 H 0.92206 0.55672 0.86394 0.0
H1056 H 0.8813 0.50427 0.84315 0.0
C1057 C 0.81396 0.53527 0.85532 0.0
C1058 C 0.86327 0.55873 0.83542 0.0
C1059 C 0.7969 0.53473 0.8889 0.0
C1060 C 0.946 0.53703 0.84515 0.0
C1061 C 0.92608 0.54267 0.84475 0.0
C1062 C 0.87654 0.51951 0.83895 0.0
C1063 C 0.82979 0.5477 0.87043 0.0
C1064 C 0.84994 0.54346 0.84876 0.0
C1065 C 0.91155 0.52997 0.82196 0.0
C1066 C 0.89013 0.53474 0.82726 0.0
H1067 H 0.80917 0.57064 0.9855 0.0
H1068 H 0.83914 0.57126 0.92757 0.0
H1069 H 0.84698 0.51173 0.8608 0.0
H1070 H 0.94101 0.49143 0.78335 0.0
H1071 H 0.90691 0.50179 0.77894 0.0
C1072 C 0.0452 0.19812 0.84753 0.0
C1073 C 0.03252 0.20509 0.89098 0.0
C1074 C 0.04123 0.18037 0.81856 0.0
C1075 C 1.00129 0.14416 0.78654 0.0
H1076 H 0.04501 0.10869 0.75353 0.0
C1077 C 0.98914 0.06357 0.70912 0.0
C1078 C 0.00229 0.05564 0.66864 0.0
C1079 C 0.99272 0.08208 0.73415 0.0
C1080 C 0.03265 0.11852 0.76167 0.0
H1081 H 0.00542 0.19875 0.937 0.0
H1082 H 0.9986 0.16768 0.88689 0.0
H1083 H 0.05129 0.14024 0.80133 0.0
H1084 H 0.02857 0.06167 0.61868 0.0
H1085 H 0.03497 0.094 0.66245 0.0
H1086 H 0.98265 0.12242 0.74703 0.0
C1087 C 0.01158 0.17609 0.87491 0.0
C1088 C 0.03625 0.13665 0.78919 0.0
C1089 C 0.01559 0.19385 0.90406 0.0
C1090 C 0.01864 0.06702 0.65158 0.0
C1091 C 0.02223 0.0856 0.67653 0.0
C1092 C 0.9977 0.12605 0.75897 0.0
C1093 C 0.02446 0.169 0.83208 0.0
C1094 C 0.02061 0.14972 0.80219 0.0
C1095 C 0.00938 0.09333 0.71852 0.0
C1096 C 0.01331 0.11292 0.74634 0.0
H1097 H 0.05857 0.20612 0.83674 0.0
H1098 H 0.05137 0.17557 0.78543 0.0
H1099 H 0.98891 0.15394 0.79493 0.0
H1100 H 0.9762 0.05524 0.72214 0.0
H1101 H 0.98256 0.08741 0.76653 0.0
C1102 C 0.31921 0.02708 0.89861 0.0
C1103 C 0.30895 0.0445 0.88384 0.0
C1104 C 0.33694 0.02199 0.87101 0.0
C1105 C 0.37796 0.04409 0.78631 0.0
H1106 H 0.38975 0.98947 0.74761 0.0
C1107 C 0.4455 0.02202 0.64671 0.0
C1108 C 0.45626 0.00523 0.66379 0.0
C1109 C 0.42753 0.0268 0.67327 0.0
C1110 C 0.3868 0.00478 0.75867 0.0
H1111 H 0.3096 0.07023 0.82822 0.0
H1112 H 0.34004 0.06112 0.77945 0.0
H1113 H 0.3585 0.9976 0.79423 0.0
H1114 H 0.45618 0.97966 0.71945 0.0
H1115 H 0.42498 0.98805 0.76648 0.0
H1116 H 0.40628 0.05126 0.75071 0.0
C1117 C 0.33453 0.05146 0.81279 0.0
C1118 C 0.36885 0.00945 0.78547 0.0
C1119 C 0.31683 0.05653 0.84027 0.0
C1120 C 0.44834 0.9929 0.70631 0.0
C1121 C 0.4304 0.99765 0.73288 0.0
C1122 C 0.39591 0.03942 0.75948 0.0
C1123 C 0.34494 0.03421 0.82804 0.0
C1124 C 0.36415 0.02917 0.79963 0.0
C1125 C 0.41975 0.01469 0.71686 0.0
C1126 C 0.40058 0.0197 0.74526 0.0
H1127 H 0.31358 0.01738 0.93166 0.0
H1128 H 0.34459 0.00866 0.88427 0.0
H1129 H 0.37505 0.0594 0.79742 0.0
H1130 H 0.45081 0.03136 0.61244 0.0
H1131 H 0.41957 0.03981 0.65899 0.0
C1132 C 0.46411 0.32107 0.902 0.0
C1133 C 0.46009 0.303 0.87429 0.0
C1134 C 0.47043 0.33758 0.87099 0.0
C1135 C 0.4706 0.35868 0.72417 0.0
H1136 H 0.5057 0.39703 0.79471 0.0
C1137 C 0.4967 0.43197 0.61317 0.0
C1138 C 0.49419 0.44891 0.64741 0.0
C1139 C 0.4942 0.413 0.63678 0.0
C1140 C 0.49587 0.38646 0.77443 0.0
H1141 H 0.46008 0.28807 0.79205 0.0
H1142 H 0.47148 0.31685 0.73782 0.0
H1143 H 0.49902 0.36582 0.84312 0.0
H1144 H 0.48821 0.45945 0.73317 0.0
H1145 H 0.48385 0.42658 0.77433 0.0
H1146 H 0.46758 0.37955 0.65533 0.0
C1147 C 0.46938 0.31834 0.78358 0.0
C1148 C 0.49195 0.36858 0.8023 0.0
C1149 C 0.46292 0.3018 0.8147 0.0
C1150 C 0.48965 0.44663 0.70558 0.0
C1151 C 0.48746 0.4278 0.72929 0.0
C1152 C 0.47471 0.37655 0.69595 0.0
C1153 C 0.47305 0.33654 0.81126 0.0
C1154 C 0.47886 0.35462 0.77833 0.0
C1155 C 0.48965 0.41074 0.69526 0.0
C1156 C 0.48702 0.39082 0.72147 0.0
H1157 H 0.46167 0.32271 0.9476 0.0
H1158 H 0.47263 0.35138 0.89384 0.0
H1159 H 0.46031 0.34843 0.70449 0.0
H1160 H 0.50037 0.4334 0.56824 0.0
H1161 H 0.49607 0.40011 0.6096 0.0
C1162 C 0.21459 0.48423 0.84327 0.0
C1163 C 0.21295 0.47997 0.90198 0.0
C1164 C 0.198 0.49022 0.81169 0.0
C1165 C 0.14589 0.50823 0.82837 0.0
H1166 H 0.13939 0.48666 0.67551 0.0
C1167 C 0.07028 0.50334 0.71476 0.0
C1168 C 0.06935 0.50888 0.65694 0.0
C1169 C 0.08849 0.50199 0.74285 0.0
C1170 C 0.1411 0.493 0.71787 0.0
H1171 H 0.19252 0.47859 0.97337 0.0
H1172 H 0.1637 0.48864 0.91864 0.0
H1173 H 0.17002 0.48057 0.72792 0.0
H1174 H 0.0867 0.51668 0.58257 0.0
H1175 H 0.11868 0.51431 0.63161 0.0
H1176 H 0.11661 0.51998 0.8189 0.0
C1177 C 0.17784 0.48796 0.89695 0.0
C1178 C 0.1587 0.48958 0.74794 0.0
C1179 C 0.19442 0.48215 0.9285 0.0
C1180 C 0.08698 0.51287 0.62749 0.0
C1181 C 0.10527 0.51127 0.65538 0.0
C1182 C 0.12823 0.51145 0.79855 0.0
C1183 C 0.17931 0.49191 0.83796 0.0
C1184 C 0.16124 0.49691 0.80399 0.0
C1185 C 0.10621 0.50585 0.71345 0.0
C1186 C 0.12553 0.50366 0.74327 0.0
H1187 H 0.2287 0.48281 0.82168 0.0
H1188 H 0.19982 0.49344 0.76661 0.0
H1189 H 0.14741 0.51453 0.87081 0.0
H1190 H 0.05693 0.50017 0.73855 0.0
H1191 H 0.08873 0.49754 0.78738 0.0
C1192 C 0.98298 0.83238 0.27947 0.0
C1193 C 0.99455 0.81563 0.29237 0.0
C1194 C 0.98414 0.84957 0.31311 0.0
C1195 C 0.99914 0.86975 0.45388 0.0
H1196 H 0.00844 0.91836 0.36974 0.0
C1197 C 0.00214 0.94952 0.55581 0.0
C1198 C 0.01859 0.96086 0.53902 0.0
C1199 C 0.99814 0.93124 0.52926 0.0
C1200 C 0.00579 0.90492 0.39386 0.0
H1201 H 0.01582 0.80363 0.3525 0.0
H1202 H 0.01757 0.83357 0.41197 0.0
H1203 H 0.00277 0.88743 0.31769 0.0
H1204 H 0.04432 0.96152 0.48412 0.0
H1205 H 0.037 0.93006 0.43635 0.0
H1206 H 0.00215 0.88744 0.53018 0.0
C1207 C 0.00767 0.83339 0.37549 0.0
C1208 C 0.00241 0.88722 0.36405 0.0
C1209 C 0.00674 0.81627 0.34126 0.0
C1210 C 0.03132 0.95327 0.4969 0.0
C1211 C 0.02711 0.93529 0.46958 0.0
C1212 C 0.00216 0.8876 0.4838 0.0
C1213 C 0.99671 0.85041 0.36108 0.0
C1214 C 0.99927 0.86935 0.39358 0.0
C1215 C 0.0104 0.92412 0.48506 0.0
C1216 C 0.00581 0.90533 0.45404 0.0
H1217 H 0.97362 0.83254 0.24181 0.0
H1218 H 0.97541 0.86236 0.30103 0.0
H1219 H 0.99666 0.85626 0.47789 0.0
H1220 H 0.99242 0.95473 0.58947 0.0
H1221 H 0.98523 0.92291 0.54234 0.0
C1222 C 0.69911 0.99995 0.36903 0.0
C1223 C 0.70076 0.98942 0.31713 0.0
C1224 C 0.68088 1.00133 0.39755 0.0
C1225 C 0.62753 1.00027 0.36663 0.0
H1226 H 0.6211 0.99744 0.53142 0.0
C1227 C 0.55975 1.00036 0.54197 0.0
C1228 C 0.54924 0.01714 0.52335 0.0
C1229 C 0.57829 0.99578 0.51852 0.0
C1230 C 0.62266 0.99815 0.48531 0.0
H1231 H 0.68441 0.97178 0.25541 0.0
H1232 H 0.65285 0.97407 0.30519 0.0
H1233 H 0.6536 0.99093 0.48859 0.0
H1234 H 0.5503 0.04282 0.46815 0.0
H1235 H 0.58262 0.03482 0.42701 0.0
H1236 H 0.59672 0.00773 0.36328 0.0
C1237 C 0.66563 0.98131 0.32379 0.0
C1238 C 0.64129 0.99458 0.46083 0.0
C1239 C 0.68384 0.97979 0.29561 0.0
C1240 C 0.55792 0.02959 0.48239 0.0
C1241 C 0.57637 0.02496 0.45877 0.0
C1242 C 0.60902 0.00407 0.3911 0.0
C1243 C 0.66381 0.99242 0.37451 0.0
C1244 C 0.64396 0.99563 0.40113 0.0
C1245 C 0.58677 0.00799 0.47644 0.0
C1246 C 0.60636 0.00315 0.45071 0.0
H1247 H 0.71182 0.00748 0.38698 0.0
H1248 H 0.67999 0.01007 0.43641 0.0
H1249 H 0.62907 1.00142 0.3206 0.0
H1250 H 0.55371 0.99081 0.57472 0.0
H1251 H 0.58585 0.9825 0.53256 0.0
C1252 C 0.54516 0.70461 0.34069 0.0
C1253 C 0.52762 0.71538 0.33125 0.0
C1254 C 0.54533 0.68808 0.37698 0.0
C1255 C 0.51465 0.66033 0.48482 0.0
H1256 H 0.54547 0.61544 0.43176 0.0
C1257 C 0.49787 0.57885 0.54506 0.0
C1258 C 0.51388 0.56619 0.55732 0.0
C1259 C 0.50108 0.59823 0.526 0.0
C1260 C 0.53698 0.62792 0.44762 0.0
H1261 H 0.49682 0.71784 0.35638 0.0
H1262 H 0.49686 0.68875 0.4171 0.0
H1263 H 0.54842 0.64719 0.38318 0.0
H1264 H 0.5458 0.56509 0.56569 0.0
H1265 H 0.55144 0.59856 0.52942 0.0
H1266 H 0.5025 0.64056 0.54746 0.0
C1267 C 0.51064 0.69311 0.39724 0.0
C1268 C 0.53872 0.64622 0.4199 0.0
C1269 C 0.51054 0.70975 0.36155 0.0
C1270 C 0.53316 0.57393 0.55346 0.0
C1271 C 0.5364 0.59322 0.53338 0.0
C1272 C 0.5127 0.64193 0.51195 0.0
C1273 C 0.52792 0.68171 0.40451 0.0
C1274 C 0.52738 0.66268 0.43754 0.0
C1275 C 0.52038 0.60549 0.51859 0.0
C1276 C 0.52367 0.62546 0.4932 0.0
H1277 H 0.55861 0.70834 0.318 0.0
H1278 H 0.55907 0.68005 0.38236 0.0
H1279 H 0.50599 0.67266 0.50072 0.0
H1280 H 0.48279 0.57378 0.54915 0.0
H1281 H 0.48842 0.60733 0.51517 0.0
C1282 C 0.81422 0.53328 0.30442 0.0
C1283 C 0.80184 0.51664 0.31015 0.0
C1284 C 0.83264 0.53401 0.33198 0.0
C1285 C 0.86374 0.50868 0.44342 0.0
H1286 H 0.907 0.53179 0.35752 0.0
C1287 C 0.94614 0.49534 0.50088 0.0
C1288 C 0.9584 0.51216 0.50305 0.0
C1289 C 0.9269 0.49656 0.4789 0.0
C1290 C 0.89505 0.52542 0.38227 0.0
H1291 H 0.79882 0.48826 0.35274 0.0
H1292 H 0.83101 0.48917 0.39875 0.0
H1293 H 0.87352 0.53317 0.31906 0.0
H1294 H 0.96021 0.54327 0.47989 0.0
H1295 H 0.92685 0.54524 0.44064 0.0
H1296 H 0.88555 0.5004 0.5057 0.0
C1297 C 0.82651 0.50183 0.37351 0.0
C1298 C 0.87576 0.52631 0.3604 0.0
C1299 C 0.80803 0.50119 0.34642 0.0
C1300 C 0.95119 0.53003 0.47994 0.0
C1301 C 0.93204 0.53118 0.45716 0.0
C1302 C 0.88307 0.50758 0.46489 0.0
C1303 C 0.83931 0.51807 0.36576 0.0
C1304 C 0.85978 0.5179 0.39053 0.0
C1305 C 0.91956 0.51453 0.45715 0.0
C1306 C 0.89897 0.51588 0.4345 0.0
H1307 H 0.81013 0.54542 0.27656 0.0
H1308 H 0.8418 0.54699 0.32587 0.0
H1309 H 0.85188 0.50236 0.46859 0.0
H1310 H 0.9514 0.48115 0.51589 0.0
H1311 H 0.91781 0.48334 0.47831 0.0
loop_
_geom_bond_atom_site_label_1
_geom_bond_atom_site_label_2
_geom_bond_distance
_geom_bond_site_symmetry_2
_ccdc_geom_bond_type
P0 O11 1.490 . S
P0 C14 1.812 . S
P0 C20 1.803 . S
P0 C26 1.819 . S
H1 C15 0.941 . S
H2 C16 0.939 . S
H3 C18 0.940 . S
H4 C19 0.940 . S
H5 C21 0.939 . S
H6 C22 0.942 . S
H7 C24 0.940 . S
H8 C25 0.939 . S
H9 C27 0.941 . S
H10 C31 0.939 . S
O11 P0 1.490 . S
H12 C28 0.939 . S
H13 C30 0.940 . S
C14 P0 1.812 . S
C14 C15 1.389 . S
C14 C19 1.391 . S
C15 H1 0.941 . S
C15 C14 1.389 . S
C15 C16 1.397 . S
C16 H2 0.939 . S
C16 C15 1.397 . S
C16 C17 1.378 . S
C17 C16 1.378 . S
C17 C18 1.378 . S
C18 H3 0.940 . S
C18 C17 1.378 . S
C18 C19 1.396 . S
C19 H4 0.940 . S
C19 C14 1.391 . S
C19 C18 1.396 . S
C20 P0 1.803 . S
C20 C21 1.378 . S
C20 C25 1.400 . S
C21 H5 0.939 . S
C21 C20 1.378 . S
C21 C22 1.361 . S
C22 H6 0.942 . S
C22 C21 1.361 . S
C22 C23 1.369 . S
C23 C22 1.369 . S
C23 C24 1.404 . S
C24 H7 0.940 . S
C24 C23 1.404 . S
C24 C25 1.389 . S
C25 H8 0.939 . S
C25 C20 1.400 . S
C25 C24 1.389 . S
C26 P0 1.819 . S
C26 C27 1.391 . S
C26 C31 1.391 . S
C27 H9 0.941 . S
C27 C26 1.391 . S
C27 C28 1.396 . S
C28 H12 0.939 . S
C28 C27 1.396 . S
C28 C29 1.397 . S
C29 C28 1.397 . S
C29 C30 1.385 . S
C30 H13 0.940 . S
C30 C29 1.385 . S
C30 C31 1.388 . S
C31 H10 0.939 . S
C31 C26 1.391 . S
C31 C30 1.388 . S
P32 O43 1.490 . S
P32 C46 1.812 . S
P32 C52 1.803 . S
P32 C58 1.819 . S
H33 C47 0.941 . S
H34 C48 0.939 . S
H35 C50 0.940 . S
H36 C51 0.940 . S
H37 C53 0.939 . S
H38 C54 0.942 . S
H39 C56 0.940 . S
H40 C57 0.939 . S
H41 C59 0.941 . S
H42 C63 0.939 . S
O43 P32 1.490 . S
H44 C60 0.939 . S
H45 C62 0.940 . S
C46 P32 1.812 . S
C46 C47 1.389 . S
C46 C51 1.391 . S
C47 H33 0.941 . S
C47 C46 1.389 . S
C47 C48 1.397 . S
C48 H34 0.939 . S
C48 C47 1.397 . S
C48 C49 1.378 . S
C49 C48 1.378 . S
C49 C50 1.378 . S
C50 H35 0.940 . S
C50 C49 1.378 . S
C50 C51 1.396 . S
C51 H36 0.940 . S
C51 C46 1.391 . S
C51 C50 1.396 . S
C52 P32 1.803 . S
C52 C53 1.378 . S
C52 C57 1.400 . S
C53 H37 0.939 . S
C53 C52 1.378 . S
C53 C54 1.361 . S
C54 H38 0.942 . S
C54 C53 1.361 . S
C54 C55 1.369 . S
C55 C54 1.369 . S
C55 C56 1.404 . S
C56 H39 0.940 . S
C56 C55 1.404 . S
C56 C57 1.389 . S
C57 H40 0.939 . S
C57 C52 1.400 . S
C57 C56 1.389 . S
C58 P32 1.819 . S
C58 C59 1.391 . S
C58 C63 1.391 . S
C59 H41 0.941 . S
C59 C58 1.391 . S
C59 C60 1.396 . S
C60 H44 0.939 . S
C60 C59 1.396 . S
C60 C61 1.397 . S
C61 C60 1.397 . S
C61 C62 1.385 . S
C62 H45 0.940 . S
C62 C61 1.385 . S
C62 C63 1.388 . S
C63 H42 0.939 . S
C63 C58 1.391 . S
C63 C62 1.388 . S
P64 O75 1.490 . S
P64 C78 1.812 . S
P64 C84 1.803 . S
P64 C90 1.819 . S
H65 C79 0.941 . S
H66 C80 0.939 . S
H67 C82 0.940 . S
H68 C83 0.940 . S
H69 C85 0.939 . S
H70 C86 0.942 . S
H71 C88 0.940 . S
H72 C89 0.939 . S
H73 C91 0.941 . S
H74 C95 0.939 . S
O75 P64 1.490 . S
H76 C92 0.939 . S
H77 C94 0.940 . S
C78 P64 1.812 . S
C78 C79 1.389 . S
C78 C83 1.391 . S
C79 H65 0.941 . S
C79 C78 1.389 . S
C79 C80 1.397 . S
C80 H66 0.939 . S
C80 C79 1.397 . S
C80 C81 1.378 . S
C81 C80 1.378 . S
C81 C82 1.378 . S
C82 H67 0.940 . S
C82 C81 1.378 . S
C82 C83 1.396 . S
C83 H68 0.940 . S
C83 C78 1.391 . S
C83 C82 1.396 . S
C84 P64 1.803 . S
C84 C85 1.378 . S
C84 C89 1.400 . S
C85 H69 0.939 . S
C85 C84 1.378 . S
C85 C86 1.361 . S
C86 H70 0.942 . S
C86 C85 1.361 . S
C86 C87 1.369 . S
C87 C86 1.369 . S
C87 C88 1.404 . S
C88 H71 0.940 . S
C88 C87 1.404 . S
C88 C89 1.389 . S
C89 H72 0.939 . S
C89 C84 1.400 . S
C89 C88 1.389 . S
C90 P64 1.819 . S
C90 C91 1.391 . S
C90 C95 1.391 . S
C91 H73 0.941 . S
C91 C90 1.391 . S
C91 C92 1.396 . S
C92 H76 0.939 . S
C92 C91 1.396 . S
C92 C93 1.397 . S
C93 C92 1.397 . S
C93 C94 1.385 . S
C94 H77 0.940 . S
C94 C93 1.385 . S
C94 C95 1.388 . S
C95 H74 0.939 . S
C95 C90 1.391 . S
C95 C94 1.388 . S
P96 O107 1.490 . S
P96 C110 1.812 . S
P96 C116 1.803 . S
P96 C122 1.819 . S
H97 C111 0.941 . S
H98 C112 0.939 . S
H99 C114 0.940 . S
H100 C115 0.940 . S
H101 C117 0.939 . S
H102 C118 0.942 . S
H103 C120 0.940 . S
H104 C121 0.939 . S
H105 C123 0.941 . S
H106 C127 0.939 . S
O107 P96 1.490 . S
H108 C124 0.939 . S
H109 C126 0.940 . S
C110 P96 1.812 . S
C110 C111 1.389 . S
C110 C115 1.391 . S
C111 H97 0.941 . S
C111 C110 1.389 . S
C111 C112 1.397 . S
C112 H98 0.939 . S
C112 C111 1.397 . S
C112 C113 1.378 . S
C113 C112 1.378 . S
C113 C114 1.378 . S
C114 H99 0.940 . S
C114 C113 1.378 . S
C114 C115 1.396 . S
C115 H100 0.940 . S
C115 C110 1.391 . S
C115 C114 1.396 . S
C116 P96 1.803 . S
C116 C117 1.378 . S
C116 C121 1.400 . S
C117 H101 0.939 . S
C117 C116 1.378 . S
C117 C118 1.361 . S
C118 H102 0.942 . S
C118 C117 1.361 . S
C118 C119 1.369 . S
C119 C118 1.369 . S
C119 C120 1.404 . S
C120 H103 0.940 . S
C120 C119 1.404 . S
C120 C121 1.389 . S
C121 H104 0.939 . S
C121 C116 1.400 . S
C121 C120 1.389 . S
C122 P96 1.819 . S
C122 C123 1.391 . S
C122 C127 1.391 . S
C123 H105 0.941 . S
C123 C122 1.391 . S
C123 C124 1.396 . S
C124 H108 0.939 . S
C124 C123 1.396 . S
C124 C125 1.397 . S
C125 C124 1.397 . S
C125 C126 1.385 . S
C126 H109 0.940 . S
C126 C125 1.385 . S
C126 C127 1.388 . S
C127 H106 0.939 . S
C127 C122 1.391 . S
C127 C126 1.388 . S
P128 O139 1.490 . S
P128 C142 1.812 1_554 S
P128 C148 1.803 . S
P128 C154 1.819 . S
H129 C143 0.941 . S
H130 C144 0.939 . S
H131 C146 0.940 . S
H132 C147 0.940 . S
H133 C149 0.939 . S
H134 C150 0.942 . S
H135 C152 0.940 . S
H136 C153 0.939 1_556 S
H137 C155 0.941 . S
H138 C159 0.939 . S
O139 P128 1.490 . S
H140 C156 0.939 . S
H141 C158 0.940 . S
C142 P128 1.812 1_556 S
C142 C143 1.389 . S
C142 C147 1.391 . S
C143 H129 0.941 . S
C143 C142 1.389 . S
C143 C144 1.397 . S
C144 H130 0.939 . S
C144 C143 1.397 . S
C144 C145 1.378 . S
C145 C144 1.378 . S
C145 C146 1.378 . S
C146 H131 0.940 . S
C146 C145 1.378 . S
C146 C147 1.396 . S
C147 H132 0.940 . S
C147 C142 1.391 . S
C147 C146 1.396 . S
C148 P128 1.803 . S
C148 C149 1.378 . S
C148 C153 1.400 . S
C149 H133 0.939 . S
C149 C148 1.378 . S
C149 C150 1.361 . S
C150 H134 0.942 . S
C150 C149 1.361 . S
C150 C151 1.369 . S
C151 C150 1.369 . S
C151 C152 1.404 . S
C152 H135 0.940 . S
C152 C151 1.404 . S
C152 C153 1.389 . S
C153 H136 0.939 1_554 S
C153 C148 1.400 . S
C153 C152 1.389 . S
C154 P128 1.819 . S
C154 C155 1.391 . S
C154 C159 1.391 . S
C155 H137 0.941 . S
C155 C154 1.391 . S
C155 C156 1.396 . S
C156 H140 0.939 . S
C156 C155 1.396 . S
C156 C157 1.397 . S
C157 C156 1.397 . S
C157 C158 1.385 . S
C158 H141 0.940 . S
C158 C157 1.385 . S
C158 C159 1.388 . S
C159 H138 0.939 . S
C159 C154 1.391 . S
C159 C158 1.388 . S
P160 O171 1.490 . S
P160 C174 1.812 1_554 S
P160 C180 1.803 . S
P160 C186 1.819 . S
H161 C175 0.941 . S
H162 C176 0.939 . S
H163 C178 0.940 . S
H164 C179 0.940 . S
H165 C181 0.939 . S
H166 C182 0.942 . S
H167 C184 0.940 . S
H168 C185 0.939 1_556 S
H169 C187 0.941 . S
H170 C191 0.939 . S
O171 P160 1.490 . S
H172 C188 0.939 . S
H173 C190 0.940 . S
C174 P160 1.812 1_556 S
C174 C175 1.389 . S
C174 C179 1.391 . S
C175 H161 0.941 . S
C175 C174 1.389 . S
C175 C176 1.397 . S
C176 H162 0.939 . S
C176 C175 1.397 . S
C176 C177 1.378 . S
C177 C176 1.378 . S
C177 C178 1.378 . S
C178 H163 0.940 . S
C178 C177 1.378 . S
C178 C179 1.396 . S
C179 H164 0.940 . S
C179 C174 1.391 . S
C179 C178 1.396 . S
C180 P160 1.803 . S
C180 C181 1.378 . S
C180 C185 1.400 . S
C181 H165 0.939 . S
C181 C180 1.378 . S
C181 C182 1.361 . S
C182 H166 0.942 . S
C182 C181 1.361 . S
C182 C183 1.369 . S
C183 C182 1.369 . S
C183 C184 1.404 . S
C184 H167 0.940 . S
C184 C183 1.404 . S
C184 C185 1.389 . S
C185 H168 0.939 1_554 S
C185 C180 1.400 . S
C185 C184 1.389 . S
C186 P160 1.819 . S
C186 C187 1.391 . S
C186 C191 1.391 . S
C187 H169 0.941 . S
C187 C186 1.391 . S
C187 C188 1.396 . S
C188 H172 0.939 . S
C188 C187 1.396 . S
C188 C189 1.397 . S
C189 C188 1.397 . S
C189 C190 1.385 . S
C190 H173 0.940 . S
C190 C189 1.385 . S
C190 C191 1.388 . S
C191 H170 0.939 . S
C191 C186 1.391 . S
C191 C190 1.388 . S
P192 O203 1.490 . S
P192 C206 1.812 1_554 S
P192 C212 1.803 . S
P192 C218 1.819 . S
H193 C207 0.941 . S
H194 C208 0.939 . S
H195 C210 0.940 . S
H196 C211 0.940 . S
H197 C213 0.939 . S
H198 C214 0.942 . S
H199 C216 0.940 . S
H200 C217 0.939 1_556 S
H201 C219 0.941 . S
H202 C223 0.939 . S
O203 P192 1.490 . S
H204 C220 0.939 . S
H205 C222 0.940 . S
C206 P192 1.812 1_556 S
C206 C207 1.389 . S
C206 C211 1.391 . S
C207 H193 0.941 . S
C207 C206 1.389 . S
C207 C208 1.397 . S
C208 H194 0.939 . S
C208 C207 1.397 . S
C208 C209 1.378 . S
C209 C208 1.378 . S
C209 C210 1.378 . S
C210 H195 0.940 . S
C210 C209 1.378 . S
C210 C211 1.396 . S
C211 H196 0.940 . S
C211 C206 1.391 . S
C211 C210 1.396 . S
C212 P192 1.803 . S
C212 C213 1.378 . S
C212 C217 1.400 . S
C213 H197 0.939 . S
C213 C212 1.378 . S
C213 C214 1.361 . S
C214 H198 0.942 . S
C214 C213 1.361 . S
C214 C215 1.369 . S
C215 C214 1.369 . S
C215 C216 1.404 . S
C216 H199 0.940 . S
C216 C215 1.404 . S
C216 C217 1.389 . S
C217 H200 0.939 1_554 S
C217 C212 1.400 . S
C217 C216 1.389 . S
C218 P192 1.819 . S
C218 C219 1.391 . S
C218 C223 1.391 . S
C219 H201 0.941 . S
C219 C218 1.391 . S
C219 C220 1.396 . S
C220 H204 0.939 . S
C220 C219 1.396 . S
C220 C221 1.397 . S
C221 C220 1.397 . S
C221 C222 1.385 . S
C222 H205 0.940 . S
C222 C221 1.385 . S
C222 C223 1.388 . S
C223 H202 0.939 . S
C223 C218 1.391 . S
C223 C222 1.388 . S
P224 O235 1.490 . S
P224 C238 1.812 1_554 S
P224 C244 1.803 . S
P224 C250 1.819 . S
H225 C239 0.941 . S
H226 C240 0.939 . S
H227 C242 0.940 . S
H228 C243 0.940 . S
H229 C245 0.939 . S
H230 C246 0.942 . S
H231 C248 0.940 . S
H232 C249 0.939 1_556 S
H233 C251 0.941 . S
H234 C255 0.939 . S
O235 P224 1.490 . S
H236 C252 0.939 . S
H237 C254 0.940 . S
C238 P224 1.812 1_556 S
C238 C239 1.389 . S
C238 C243 1.391 . S
C239 H225 0.941 . S
C239 C238 1.389 . S
C239 C240 1.397 . S
C240 H226 0.939 . S
C240 C239 1.397 . S
C240 C241 1.378 . S
C241 C240 1.378 . S
C241 C242 1.378 . S
C242 H227 0.940 . S
C242 C241 1.378 . S
C242 C243 1.396 . S
C243 H228 0.940 . S
C243 C238 1.391 . S
C243 C242 1.396 . S
C244 P224 1.803 . S
C244 C245 1.378 . S
C244 C249 1.400 . S
C245 H229 0.939 . S
C245 C244 1.378 . S
C245 C246 1.361 . S
C246 H230 0.942 . S
C246 C245 1.361 . S
C246 C247 1.369 . S
C247 C246 1.369 . S
C247 C248 1.404 . S
C248 H231 0.940 . S
C248 C247 1.404 . S
C248 C249 1.389 . S
C249 H232 0.939 1_554 S
C249 C244 1.400 . S
C249 C248 1.389 . S
C250 P224 1.819 . S
C250 C251 1.391 . S
C250 C255 1.391 . S
C251 H233 0.941 . S
C251 C250 1.391 . S
C251 C252 1.396 . S
C252 H236 0.939 . S
C252 C251 1.396 . S
C252 C253 1.397 . S
C253 C252 1.397 . S
C253 C254 1.385 . S
C254 H237 0.940 . S
C254 C253 1.385 . S
C254 C255 1.388 . S
C255 H234 0.939 . S
C255 C250 1.391 . S
C255 C254 1.388 . S
Tb256 N287 2.660 1_565 S
Tb256 N294 2.600 . S
Tb256 O300 2.546 . S
Tb256 O301 2.610 1_455 S
Tb256 O303 2.320 1_455 S
Tb256 O304 2.552 . S
Tb256 O305 2.413 . S
Tb256 O307 2.362 1_565 S
Tb256 O308 2.421 . S
Tb256 C320 2.833 . S
C257 C260 1.432 1_545 S
C257 C261 1.414 . S
C257 N264 1.359 . S
C258 C260 1.417 . S
C258 C262 1.432 . S
C258 C270 1.410 . S
C259 C261 1.444 1_565 S
C259 C262 1.317 . S
C259 H282 0.929 . S
C260 C257 1.432 1_565 S
C260 C258 1.417 . S
C260 N268 1.360 1_565 S
C261 C257 1.414 . S
C261 C259 1.444 1_545 S
C261 C266 1.385 . S
C262 C258 1.432 . S
C262 C259 1.317 . S
C262 H274 0.930 . S
C263 C265 1.392 . S
C263 C266 1.370 . S
C263 H275 0.931 . S
N264 C257 1.359 . S
N264 C265 1.327 . S
N264 Tb267 2.600 . S
C265 C263 1.392 . S
C265 N264 1.327 . S
C265 H272 0.930 . S
C266 C261 1.385 . S
C266 C263 1.370 . S
C266 H285 0.930 . S
Tb267 N264 2.600 . S
Tb267 N268 2.660 . S
Tb267 O301 2.362 1_545 S
Tb267 O302 2.421 . S
Tb267 O306 2.546 . S
Tb267 O307 2.610 1_655 S
Tb267 O309 2.320 1_655 S
Tb267 O310 2.552 1_655 S
Tb267 O311 2.413 . S
Tb267 C331 2.833 . S
N268 C260 1.360 1_545 S
N268 Tb267 2.660 . S
N268 C269 1.305 1_645 S
C269 N268 1.305 1_465 S
C269 C271 1.407 . S
C269 H276 0.930 . S
C270 C258 1.410 . S
C270 C271 1.345 1_655 S
C270 H278 0.930 . S
C271 C269 1.407 . S
C271 C270 1.345 1_455 S
C271 H273 0.930 . S
H272 C265 0.930 . S
H273 C271 0.930 . S
H274 C262 0.930 . S
H275 C263 0.931 . S
H276 C269 0.930 . S
H277 C291 0.930 1_655 S
H278 C270 0.930 . S
H279 C297 0.930 . S
H280 C288 0.930 1_655 S
H281 C295 0.931 . S
H282 C259 0.929 . S
H283 C289 0.930 . S
H284 C322 0.930 . S
H285 C266 0.930 . S
H286 C321 0.929 . S
N287 Tb256 2.660 1_545 S
N287 C288 1.305 . S
N287 C292 1.360 . S
C288 H280 0.930 1_455 S
C288 N287 1.305 . S
C288 C291 1.407 . S
C289 H283 0.930 . S
C289 C290 1.410 . S
C289 C291 1.345 . S
C290 C289 1.410 . S
C290 C292 1.417 . S
C290 C322 1.432 . S
C291 H277 0.930 1_455 S
C291 C288 1.407 . S
C291 C289 1.345 . S
C292 N287 1.360 . S
C292 C290 1.417 . S
C292 C296 1.432 . S
H293 C298 0.934 . S
N294 Tb256 2.600 . S
N294 C296 1.359 1_565 S
N294 C297 1.327 . S
C295 H281 0.931 . S
C295 C297 1.392 . S
C295 C298 1.370 . S
C296 C292 1.432 . S
C296 N294 1.359 1_545 S
C296 C299 1.414 . S
C297 H279 0.930 . S
C297 N294 1.327 . S
C297 C295 1.392 . S
C298 H293 0.934 . S
C298 C295 1.370 . S
C298 C299 1.385 1_565 S
C299 C296 1.414 . S
C299 C298 1.385 1_545 S
C299 C321 1.444 . S
O300 Tb256 2.546 . S
O300 C320 1.251 . S
O301 Tb256 2.610 1_655 S
O301 Tb267 2.362 1_565 S
O301 C312 1.283 . S
O302 Tb267 2.421 . S
O302 C319 1.262 . S
O303 Tb256 2.320 1_655 S
O303 C319 1.260 1_565 S
O304 Tb256 2.552 . S
O304 C312 1.243 1_455 S
O305 Tb256 2.413 . S
O305 C320 1.256 . S
O306 Tb267 2.546 . S
O306 C331 1.251 . S
O307 Tb256 2.362 1_545 S
O307 Tb267 2.610 1_455 S
O307 C323 1.283 . S
O308 Tb256 2.421 . S
O308 C330 1.262 1_565 S
O309 Tb267 2.320 1_455 S
O309 C330 1.260 . S
O310 Tb267 2.552 1_455 S
O310 C323 1.243 . S
O311 Tb267 2.413 . S
O311 C331 1.256 . S
C312 O301 1.283 . S
C312 O304 1.243 1_655 S
C313 C315 1.382 . S
C313 C317 1.393 . S
C313 C320 1.500 . S
C314 C315 1.400 . S
C314 C316 1.384 . S
C315 C313 1.382 . S
C315 C314 1.400 . S
C315 H332 0.930 1_455 S
C316 C314 1.384 . S
C316 C318 1.392 . S
C316 H333 0.931 . S
C317 C313 1.393 . S
C317 C318 1.401 . S
C317 H334 0.930 . S
C318 C316 1.392 . S
C318 C317 1.401 . S
C318 H335 0.930 . S
C319 O302 1.262 . S
C319 O303 1.260 1_545 S
C320 Tb256 2.833 . S
C320 O300 1.251 . S
C320 O305 1.256 . S
C320 C313 1.500 . S
C321 H286 0.929 . S
C321 C299 1.444 . S
C321 C322 1.317 . S
C322 H284 0.930 . S
C322 C290 1.432 . S
C322 C321 1.317 . S
C323 O307 1.283 . S
C323 O310 1.243 . S
C324 C325 1.382 . S
C324 C328 1.393 . S
C324 C331 1.500 . S
C325 C324 1.382 . S
C325 C326 1.400 . S
C325 H336 0.930 1_655 S
C326 C325 1.400 . S
C326 C327 1.384 . S
C327 C326 1.384 . S
C327 C329 1.392 . S
C327 H337 0.931 . S
C328 C324 1.393 . S
C328 C329 1.401 . S
C328 H338 0.930 . S
C329 C327 1.392 . S
C329 C328 1.401 . S
C329 H339 0.930 . S
C330 O308 1.262 1_545 S
C330 O309 1.260 . S
C331 Tb267 2.833 . S
C331 O306 1.251 . S
C331 O311 1.256 . S
C331 C324 1.500 . S
H332 C315 0.930 1_655 S
H333 C316 0.931 . S
H334 C317 0.930 . S
H335 C318 0.930 . S
H336 C325 0.930 1_455 S
H337 C327 0.931 . S
H338 C328 0.930 . S
H339 C329 0.930 . S
Tb340 N371 2.660 . S
Tb340 N378 2.600 . S
Tb340 O384 2.546 . S
Tb340 O385 2.610 1_545 S
Tb340 O387 2.320 1_545 S
Tb340 O388 2.552 . S
Tb340 O389 2.413 . S
Tb340 O391 2.362 . S
Tb340 O392 2.421 . S
Tb340 C404 2.833 . S
C341 C344 1.432 . S
C341 C345 1.414 . S
C341 N348 1.359 . S
C342 C344 1.417 . S
C342 C346 1.432 . S
C342 C354 1.410 . S
C343 C345 1.444 . S
C343 C346 1.317 . S
C343 H366 0.929 . S
C344 C341 1.432 . S
C344 C342 1.417 . S
C344 N352 1.360 . S
C345 C341 1.414 . S
C345 C343 1.444 . S
C345 C350 1.385 . S
C346 C342 1.432 . S
C346 C343 1.317 . S
C346 H358 0.930 . S
C347 C349 1.392 . S
C347 C350 1.370 . S
C347 H359 0.931 . S
N348 C341 1.359 . S
N348 C349 1.327 . S
N348 Tb351 2.600 . S
C349 C347 1.392 . S
C349 N348 1.327 . S
C349 H356 0.930 . S
C350 C345 1.385 . S
C350 C347 1.370 . S
C350 H369 0.930 . S
Tb351 N348 2.600 . S
Tb351 N352 2.660 . S
Tb351 O385 2.362 . S
Tb351 O386 2.421 . S
Tb351 O390 2.546 . S
Tb351 O391 2.610 1_565 S
Tb351 O393 2.320 1_565 S
Tb351 O394 2.552 1_565 S
Tb351 O395 2.413 . S
Tb351 C415 2.833 . S
N352 C344 1.360 . S
N352 Tb351 2.660 . S
N352 C353 1.305 1_565 S
C353 N352 1.305 1_545 S
C353 C355 1.407 . S
C353 H360 0.930 . S
C354 C342 1.410 . S
C354 C355 1.345 1_565 S
C354 H362 0.930 . S
C355 C353 1.407 . S
C355 C354 1.345 1_545 S
C355 H357 0.930 . S
H356 C349 0.930 . S
H357 C355 0.930 . S
H358 C346 0.930 . S
H359 C347 0.931 . S
H360 C353 0.930 . S
H361 C375 0.930 1_565 S
H362 C354 0.930 . S
H363 C381 0.930 . S
H364 C372 0.930 1_565 S
H365 C379 0.931 . S
H366 C343 0.929 . S
H367 C373 0.930 . S
H368 C406 0.930 . S
H369 C350 0.930 . S
H370 C405 0.929 . S
N371 Tb340 2.660 . S
N371 C372 1.305 . S
N371 C376 1.360 . S
C372 H364 0.930 1_545 S
C372 N371 1.305 . S
C372 C375 1.407 . S
C373 H367 0.930 . S
C373 C374 1.410 . S
C373 C375 1.345 . S
C374 C373 1.410 . S
C374 C376 1.417 . S
C374 C406 1.432 . S
C375 H361 0.930 1_545 S
C375 C372 1.407 . S
C375 C373 1.345 . S
C376 N371 1.360 . S
C376 C374 1.417 . S
C376 C380 1.432 . S
H377 C382 0.930 . S
N378 Tb340 2.600 . S
N378 C380 1.359 . S
N378 C381 1.327 . S
C379 H365 0.931 . S
C379 C381 1.392 . S
C379 C382 1.370 . S
C380 C376 1.432 . S
C380 N378 1.359 . S
C380 C383 1.414 . S
C381 H363 0.930 . S
C381 N378 1.327 . S
C381 C379 1.392 . S
C382 H377 0.930 . S
C382 C379 1.370 . S
C382 C383 1.385 . S
C383 C380 1.414 . S
C383 C382 1.385 . S
C383 C405 1.444 . S
O384 Tb340 2.546 . S
O384 C404 1.251 . S
O385 Tb340 2.610 1_565 S
O385 Tb351 2.362 . S
O385 C396 1.283 . S
O386 Tb351 2.421 . S
O386 C403 1.262 . S
O387 Tb340 2.320 1_565 S
O387 C403 1.260 . S
O388 Tb340 2.552 . S
O388 C396 1.243 1_545 S
O389 Tb340 2.413 . S
O389 C404 1.256 . S
O390 Tb351 2.546 . S
O390 C415 1.251 . S
O391 Tb340 2.362 . S
O391 Tb351 2.610 1_545 S
O391 C407 1.283 . S
O392 Tb340 2.421 . S
O392 C414 1.262 . S
O393 Tb351 2.320 1_545 S
O393 C414 1.260 . S
O394 Tb351 2.552 1_545 S
O394 C407 1.243 . S
O395 Tb351 2.413 . S
O395 C415 1.256 . S
C396 O385 1.283 . S
C396 O388 1.243 1_565 S
C397 C399 1.382 . S
C397 C401 1.393 . S
C397 C404 1.500 . S
C398 C399 1.400 . S
C398 C400 1.384 . S
C399 C397 1.382 . S
C399 C398 1.400 . S
C399 H416 0.956 . S
C400 C398 1.384 . S
C400 C402 1.392 . S
C400 H417 0.931 . S
C401 C397 1.393 . S
C401 C402 1.401 . S
C401 H418 0.930 . S
C402 C400 1.392 . S
C402 C401 1.401 . S
C402 H419 0.930 . S
C403 O386 1.262 . S
C403 O387 1.260 . S
C404 Tb340 2.833 . S
C404 O384 1.251 . S
C404 O389 1.256 . S
C404 C397 1.500 . S
C405 H370 0.929 . S
C405 C383 1.444 . S
C405 C406 1.317 . S
C406 H368 0.930 . S
C406 C374 1.432 . S
C406 C405 1.317 . S
C407 O391 1.283 . S
C407 O394 1.243 . S
C408 C409 1.382 . S
C408 C412 1.393 . S
C408 C415 1.500 . S
C409 C408 1.382 . S
C409 C410 1.400 . S
C409 H420 0.930 1_565 S
C410 C409 1.400 . S
C410 C411 1.384 . S
C411 C410 1.384 . S
C411 C413 1.392 . S
C411 H421 0.931 . S
C412 C408 1.393 . S
C412 C413 1.401 . S
C412 H422 0.930 . S
C413 C411 1.392 . S
C413 C412 1.401 . S
C413 H423 0.930 . S
C414 O392 1.262 . S
C414 O393 1.260 . S
C415 Tb351 2.833 . S
C415 O390 1.251 . S
C415 O395 1.256 . S
C415 C408 1.500 . S
H416 C399 0.956 . S
H417 C400 0.931 . S
H418 C401 0.930 . S
H419 C402 0.930 . S
H420 C409 0.930 1_545 S
H421 C411 0.931 . S
H422 C412 0.930 . S
H423 C413 0.930 . S
Tb424 N455 2.660 . S
Tb424 N462 2.600 . S
Tb424 O468 2.546 . S
Tb424 O469 2.610 . S
Tb424 O471 2.320 . S
Tb424 O472 2.552 . S
Tb424 O473 2.413 . S
Tb424 O475 2.362 . S
Tb424 O476 2.421 . S
Tb424 C488 2.833 . S
C425 C428 1.432 . S
C425 C429 1.414 . S
C425 N432 1.359 . S
C426 C428 1.417 . S
C426 C430 1.432 . S
C426 C438 1.410 . S
C427 C429 1.444 . S
C427 C430 1.317 . S
C427 H450 0.929 . S
C428 C425 1.432 . S
C428 C426 1.417 . S
C428 N436 1.360 . S
C429 C425 1.414 . S
C429 C427 1.444 . S
C429 C434 1.385 . S
C430 C426 1.432 . S
C430 C427 1.317 . S
C430 H442 0.930 . S
C431 C433 1.392 . S
C431 C434 1.370 . S
C431 H443 0.931 . S
N432 C425 1.359 . S
N432 C433 1.327 . S
N432 Tb435 2.600 . S
C433 C431 1.392 . S
C433 N432 1.327 . S
C433 H440 0.930 . S
C434 C429 1.385 . S
C434 C431 1.370 . S
C434 H453 0.930 . S
Tb435 N432 2.600 . S
Tb435 N436 2.660 . S
Tb435 O469 2.362 . S
Tb435 O470 2.421 . S
Tb435 O474 2.546 . S
Tb435 O475 2.610 . S
Tb435 O477 2.320 . S
Tb435 O478 2.552 . S
Tb435 O479 2.413 . S
Tb435 C499 2.833 . S
N436 C428 1.360 . S
N436 Tb435 2.660 . S
N436 C437 1.305 . S
C437 N436 1.305 . S
C437 C439 1.407 . S
C437 H444 0.930 . S
C438 C426 1.410 . S
C438 C439 1.345 . S
C438 H446 0.930 . S
C439 C437 1.407 . S
C439 C438 1.345 . S
C439 H441 0.930 . S
H440 C433 0.930 . S
H441 C439 0.930 . S
H442 C430 0.930 . S
H443 C431 0.931 . S
H444 C437 0.930 . S
H445 C459 0.930 . S
H446 C438 0.930 . S
H447 C465 0.930 . S
H448 C456 0.930 . S
H449 C463 0.931 . S
H450 C427 0.929 . S
H451 C457 0.930 . S
H452 C490 0.930 . S
H453 C434 0.930 . S
H454 C489 0.929 . S
N455 Tb424 2.660 . S
N455 C456 1.305 . S
N455 C460 1.360 . S
C456 H448 0.930 . S
C456 N455 1.305 . S
C456 C459 1.407 . S
C457 H451 0.930 . S
C457 C458 1.410 . S
C457 C459 1.345 . S
C458 C457 1.410 . S
C458 C460 1.417 . S
C458 C490 1.432 . S
C459 H445 0.930 . S
C459 C456 1.407 . S
C459 C457 1.345 . S
C460 N455 1.360 . S
C460 C458 1.417 . S
C460 C464 1.432 . S
H461 C466 0.930 . S
N462 Tb424 2.600 . S
N462 C464 1.359 . S
N462 C465 1.327 . S
C463 H449 0.931 . S
C463 C465 1.392 . S
C463 C466 1.370 . S
C464 C460 1.432 . S
C464 N462 1.359 . S
C464 C467 1.414 . S
C465 H447 0.930 . S
C465 N462 1.327 . S
C465 C463 1.392 . S
C466 H461 0.930 . S
C466 C463 1.370 . S
C466 C467 1.385 . S
C467 C464 1.414 . S
C467 C466 1.385 . S
C467 C489 1.444 . S
O468 Tb424 2.546 . S
O468 C488 1.251 . S
O469 Tb424 2.610 . S
O469 Tb435 2.362 . S
O469 C480 1.283 . S
O470 Tb435 2.421 . S
O470 C487 1.262 . S
O471 Tb424 2.320 . S
O471 C487 1.260 . S
O472 Tb424 2.552 . S
O472 C480 1.243 . S
O473 Tb424 2.413 . S
O473 C488 1.256 . S
O474 Tb435 2.546 . S
O474 C499 1.251 . S
O475 Tb424 2.362 . S
O475 Tb435 2.610 . S
O475 C491 1.283 . S
O476 Tb424 2.421 . S
O476 C498 1.262 . S
O477 Tb435 2.320 . S
O477 C498 1.260 . S
O478 Tb435 2.552 . S
O478 C491 1.243 . S
O479 Tb435 2.413 . S
O479 C499 1.256 . S
C480 O469 1.283 . S
C480 O472 1.243 . S
C481 C483 1.382 . S
C481 C485 1.393 . S
C481 C488 1.500 . S
C482 C483 1.400 . S
C482 C484 1.384 . S
C483 C481 1.382 . S
C483 C482 1.400 . S
C483 H500 0.930 . S
C484 C482 1.384 . S
C484 C486 1.392 . S
C484 H501 0.931 . S
C485 C481 1.393 . S
C485 C486 1.401 . S
C485 H502 0.930 . S
C486 C484 1.392 . S
C486 C485 1.401 . S
C486 H503 0.930 . S
C487 O470 1.262 . S
C487 O471 1.260 . S
C488 Tb424 2.833 . S
C488 O468 1.251 . S
C488 O473 1.256 . S
C488 C481 1.500 . S
C489 H454 0.929 . S
C489 C467 1.444 . S
C489 C490 1.317 . S
C490 H452 0.930 . S
C490 C458 1.432 . S
C490 C489 1.317 . S
C491 O475 1.283 . S
C491 O478 1.243 . S
C492 C493 1.382 . S
C492 C496 1.393 . S
C492 C499 1.500 . S
C493 C492 1.382 . S
C493 C494 1.400 . S
C493 H504 0.930 . S
C494 C493 1.400 . S
C494 C495 1.384 . S
C495 C494 1.384 . S
C495 C497 1.392 . S
C495 H505 0.931 . S
C496 C492 1.393 . S
C496 C497 1.401 . S
C496 H506 0.930 . S
C497 C495 1.392 . S
C497 C496 1.401 . S
C497 H507 0.930 . S
C498 O476 1.262 . S
C498 O477 1.260 . S
C499 Tb435 2.833 . S
C499 O474 1.251 . S
C499 O479 1.256 . S
C499 C492 1.500 . S
H500 C483 0.930 . S
H501 C484 0.931 . S
H502 C485 0.930 . S
H503 C486 0.930 . S
H504 C493 0.930 . S
H505 C495 0.931 . S
H506 C496 0.930 . S
H507 C497 0.930 . S
Tb508 N539 2.660 . S
Tb508 N546 2.600 . S
Tb508 O552 2.546 . S
Tb508 O553 2.610 . S
Tb508 O555 2.320 . S
Tb508 O556 2.552 . S
Tb508 O557 2.413 . S
Tb508 O559 2.394 . S
Tb508 O560 2.421 1_455 S
Tb508 C572 2.833 . S
C509 C512 1.432 . S
C509 C513 1.414 . S
C509 N516 1.359 . S
C510 C512 1.417 . S
C510 C514 1.432 . S
C510 C522 1.410 . S
C511 C513 1.444 . S
C511 C514 1.317 . S
C511 H534 0.929 . S
C512 C509 1.432 . S
C512 C510 1.417 . S
C512 N520 1.360 . S
C513 C509 1.414 . S
C513 C511 1.444 . S
C513 C518 1.385 . S
C514 C510 1.432 . S
C514 C511 1.317 . S
C514 H526 0.930 . S
C515 C517 1.392 . S
C515 C518 1.370 1_455 S
C515 H527 0.931 . S
N516 C509 1.359 . S
N516 C517 1.327 1_655 S
N516 Tb519 2.600 . S
C517 C515 1.392 . S
C517 N516 1.327 1_455 S
C517 H524 0.930 . S
C518 C513 1.385 . S
C518 C515 1.370 1_655 S
C518 H537 0.930 . S
Tb519 N516 2.600 . S
Tb519 N520 2.660 . S
Tb519 O553 2.362 1_655 S
Tb519 O554 2.421 1_655 S
Tb519 O558 2.546 . S
Tb519 O559 2.590 1_655 S
Tb519 O561 2.320 . S
Tb519 O562 2.552 . S
Tb519 O563 2.413 . S
Tb519 C583 2.833 . S
N520 C512 1.360 . S
N520 Tb519 2.660 . S
N520 C521 1.305 . S
C521 N520 1.305 . S
C521 C523 1.407 . S
C521 H528 0.930 . S
C522 C510 1.410 . S
C522 C523 1.345 . S
C522 H530 0.930 . S
C523 C521 1.407 . S
C523 C522 1.345 . S
C523 H525 0.930 . S
H524 C517 0.930 . S
H525 C523 0.930 . S
H526 C514 0.930 . S
H527 C515 0.931 . S
H528 C521 0.930 . S
H529 C543 0.930 . S
H530 C522 0.930 . S
H531 C549 0.930 1_655 S
H532 C540 0.930 . S
H533 C547 0.931 1_655 S
H534 C511 0.929 . S
H535 C541 0.930 . S
H536 C574 0.930 . S
H537 C518 0.930 . S
H538 C573 0.929 . S
N539 Tb508 2.660 . S
N539 C540 1.305 . S
N539 C544 1.360 . S
C540 H532 0.930 . S
C540 N539 1.305 . S
C540 C543 1.407 . S
C541 H535 0.930 . S
C541 C542 1.410 . S
C541 C543 1.345 . S
C542 C541 1.410 . S
C542 C544 1.417 . S
C542 C574 1.432 . S
C543 H529 0.930 . S
C543 C540 1.407 . S
C543 C541 1.345 . S
C544 N539 1.360 . S
C544 C542 1.417 . S
C544 C548 1.432 . S
H545 C550 0.930 . S
N546 Tb508 2.600 . S
N546 C548 1.359 . S
N546 C549 1.327 . S
C547 H533 0.931 1_455 S
C547 C549 1.392 . S
C547 C550 1.370 . S
C548 C544 1.432 . S
C548 N546 1.359 . S
C548 C551 1.414 . S
C549 H531 0.930 1_455 S
C549 N546 1.327 . S
C549 C547 1.392 . S
C550 H545 0.930 . S
C550 C547 1.370 . S
C550 C551 1.385 . S
C551 C548 1.414 . S
C551 C550 1.385 . S
C551 C573 1.444 . S
O552 Tb508 2.546 . S
O552 C572 1.251 . S
O553 Tb508 2.610 . S
O553 Tb519 2.362 1_455 S
O553 C564 1.283 . S
O554 Tb519 2.421 1_455 S
O554 C571 1.262 . S
O555 Tb508 2.320 . S
O555 C571 1.260 . S
O556 Tb508 2.552 . S
O556 C564 1.243 . S
O557 Tb508 2.413 . S
O557 C572 1.256 . S
O558 Tb519 2.546 . S
O558 C583 1.251 . S
O559 Tb508 2.394 . S
O559 Tb519 2.590 1_455 S
O559 C575 1.261 1_455 S
O560 Tb508 2.421 1_655 S
O560 C582 1.262 . S
O561 Tb519 2.320 . S
O561 C582 1.260 . S
O562 Tb519 2.552 . S
O562 C575 1.243 . S
O563 Tb519 2.413 . S
O563 C583 1.256 . S
C564 O553 1.283 . S
C564 O556 1.243 . S
C565 C567 1.382 . S
C565 C569 1.393 . S
C565 C572 1.500 . S
C566 C567 1.400 . S
C566 C568 1.384 . S
C567 C565 1.382 . S
C567 C566 1.400 . S
C567 H584 0.930 . S
C568 C566 1.384 . S
C568 C570 1.392 . S
C568 H585 0.931 . S
C569 C565 1.393 . S
C569 C570 1.401 . S
C569 H586 0.930 . S
C570 C568 1.392 . S
C570 C569 1.401 . S
C570 H587 0.930 . S
C571 O554 1.262 . S
C571 O555 1.260 . S
C572 Tb508 2.833 . S
C572 O552 1.251 . S
C572 O557 1.256 . S
C572 C565 1.500 . S
C573 H538 0.929 . S
C573 C551 1.444 . S
C573 C574 1.317 . S
C574 H536 0.930 . S
C574 C542 1.432 . S
C574 C573 1.317 . S
C575 O559 1.261 1_655 S
C575 O562 1.243 . S
C576 C577 1.382 . S
C576 C580 1.393 . S
C576 C583 1.500 . S
C577 C576 1.382 . S
C577 C578 1.400 . S
C577 H588 0.930 . S
C578 C577 1.400 . S
C578 C579 1.384 . S
C579 C578 1.384 . S
C579 C581 1.392 . S
C579 H589 0.931 . S
C580 C576 1.393 . S
C580 C581 1.401 . S
C580 H590 0.930 . S
C581 C579 1.392 . S
C581 C580 1.401 . S
C581 H591 0.930 . S
C582 O560 1.262 . S
C582 O561 1.260 . S
C583 Tb519 2.833 . S
C583 O558 1.251 . S
C583 O563 1.256 . S
C583 C576 1.500 . S
H584 C567 0.930 . S
H585 C568 0.931 . S
H586 C569 0.930 . S
H587 C570 0.930 . S
H588 C577 0.930 . S
H589 C579 0.931 . S
H590 C580 0.930 . S
H591 C581 0.930 . S
C592 C593 1.349 . S
C592 C594 1.327 . S
C592 H617 0.950 . S
C593 C592 1.349 . S
C593 C609 1.349 . S
C594 C592 1.327 . S
C594 C613 1.429 . S
C594 H618 0.950 . S
C595 C612 1.574 . S
C595 C614 1.368 . S
C595 H619 0.949 . S
H596 C600 0.949 . S
C597 C598 1.349 . S
C597 C599 1.327 . S
C597 H620 0.950 1_545 S
C598 C597 1.349 . S
C598 C610 1.349 . S
C599 C597 1.327 . S
C599 C615 1.429 . S
C599 H621 0.950 . S
C600 H596 0.949 . S
C600 C608 1.574 . S
C600 C616 1.368 . S
H601 C609 0.950 . S
H602 C607 0.950 . S
H603 C608 0.949 . S
H604 C610 0.950 . S
H605 C611 0.950 . S
H606 C612 0.949 . S
C607 H602 0.950 . S
C607 C609 1.327 . S
C607 C613 1.429 . S
C608 C600 1.574 . S
C608 H603 0.949 . S
C608 C614 1.368 . S
C609 C593 1.349 . S
C609 H601 0.950 . S
C609 C607 1.327 . S
C610 C598 1.349 . S
C610 H604 0.950 . S
C610 C611 1.327 . S
C611 H605 0.950 . S
C611 C610 1.327 . S
C611 C615 1.429 . S
C612 C595 1.574 . S
C612 H606 0.949 . S
C612 C616 1.368 . S
C613 C594 1.429 . S
C613 C607 1.429 . S
C613 C614 1.523 . S
C614 C595 1.368 . S
C614 C608 1.368 . S
C614 C613 1.523 . S
C615 C599 1.429 . S
C615 C611 1.429 . S
C615 C616 1.523 . S
C616 C600 1.368 . S
C616 C612 1.368 . S
C616 C615 1.523 . S
H617 C592 0.950 . S
H618 C594 0.950 . S
H619 C595 0.949 . S
H620 C597 0.950 1_565 S
H621 C599 0.950 . S
C622 C623 1.349 . S
C622 C624 1.327 . S
C622 H647 0.950 . S
C623 C622 1.349 . S
C623 C639 1.349 . S
C624 C622 1.327 . S
C624 C643 1.429 . S
C624 H648 0.950 . S
C625 C642 1.574 . S
C625 C644 1.368 . S
C625 H649 0.949 . S
H626 C630 0.949 . S
C627 C628 1.349 . S
C627 C629 1.327 . S
C627 H650 0.950 . S
C628 C627 1.349 . S
C628 C640 1.349 . S
C629 C627 1.327 . S
C629 C645 1.429 . S
C629 H651 0.950 . S
C630 H626 0.949 . S
C630 C638 1.574 . S
C630 C646 1.368 . S
H631 C639 0.950 . S
H632 C637 0.950 . S
H633 C638 0.949 . S
H634 C640 0.950 . S
H635 C641 0.950 . S
H636 C642 0.949 . S
C637 H632 0.950 . S
C637 C639 1.327 . S
C637 C643 1.429 . S
C638 C630 1.574 . S
C638 H633 0.949 . S
C638 C644 1.368 . S
C639 C623 1.349 . S
C639 H631 0.950 . S
C639 C637 1.327 . S
C640 C628 1.349 . S
C640 H634 0.950 . S
C640 C641 1.327 . S
C641 H635 0.950 . S
C641 C640 1.327 . S
C641 C645 1.429 . S
C642 C625 1.574 . S
C642 H636 0.949 . S
C642 C646 1.368 . S
C643 C624 1.429 . S
C643 C637 1.429 . S
C643 C644 1.523 . S
C644 C625 1.368 . S
C644 C638 1.368 . S
C644 C643 1.523 . S
C645 C629 1.429 . S
C645 C641 1.429 . S
C645 C646 1.523 . S
C646 C630 1.368 . S
C646 C642 1.368 . S
C646 C645 1.523 . S
H647 C622 0.950 . S
H648 C624 0.950 . S
H649 C625 0.949 . S
H650 C627 0.950 . S
H651 C629 0.950 . S
C652 C653 1.349 . S
C652 C654 1.327 . S
C652 H677 0.950 . S
C653 C652 1.349 . S
C653 C669 1.349 . S
C654 C652 1.327 . S
C654 C673 1.429 . S
C654 H678 0.950 . S
C655 C672 1.574 . S
C655 C674 1.368 . S
C655 H679 0.949 . S
H656 C660 0.949 . S
C657 C658 1.349 . S
C657 C659 1.327 . S
C657 H680 0.950 . S
C658 C657 1.349 . S
C658 C670 1.349 . S
C659 C657 1.327 . S
C659 C675 1.429 . S
C659 H681 0.950 . S
C660 H656 0.949 . S
C660 C668 1.574 . S
C660 C676 1.368 . S
H661 C669 0.950 . S
H662 C667 0.950 . S
H663 C668 0.949 . S
H664 C670 0.950 . S
H665 C671 0.950 . S
H666 C672 0.949 . S
C667 H662 0.950 . S
C667 C669 1.327 . S
C667 C673 1.429 . S
C668 C660 1.574 . S
C668 H663 0.949 . S
C668 C674 1.368 . S
C669 C653 1.349 . S
C669 H661 0.950 . S
C669 C667 1.327 . S
C670 C658 1.349 . S
C670 H664 0.950 . S
C670 C671 1.327 . S
C671 H665 0.950 . S
C671 C670 1.327 . S
C671 C675 1.429 . S
C672 C655 1.574 . S
C672 H666 0.949 . S
C672 C676 1.368 . S
C673 C654 1.429 . S
C673 C667 1.429 . S
C673 C674 1.523 . S
C674 C655 1.368 . S
C674 C668 1.368 . S
C674 C673 1.523 . S
C675 C659 1.429 . S
C675 C671 1.429 . S
C675 C676 1.523 . S
C676 C660 1.368 . S
C676 C672 1.368 . S
C676 C675 1.523 . S
H677 C652 0.950 . S
H678 C654 0.950 . S
H679 C655 0.949 . S
H680 C657 0.950 . S
H681 C659 0.950 . S
C682 C683 1.349 . S
C682 C684 1.327 . S
C682 H707 0.950 . S
C683 C682 1.349 . S
C683 C699 1.349 . S
C684 C682 1.327 . S
C684 C703 1.429 . S
C684 H708 0.950 . S
C685 C702 1.574 . S
C685 C704 1.368 . S
C685 H709 0.949 . S
H686 C690 0.949 . S
C687 C688 1.349 . S
C687 C689 1.327 . S
C687 H710 0.950 . S
C688 C687 1.349 . S
C688 C700 1.349 . S
C689 C687 1.327 . S
C689 C705 1.429 . S
C689 H711 0.950 . S
C690 H686 0.949 . S
C690 C698 1.574 . S
C690 C706 1.368 . S
H691 C699 0.950 . S
H692 C697 0.950 . S
H693 C698 0.949 . S
H694 C700 0.950 . S
H695 C701 0.950 . S
H696 C702 0.949 . S
C697 H692 0.950 . S
C697 C699 1.327 . S
C697 C703 1.429 . S
C698 C690 1.574 . S
C698 H693 0.949 . S
C698 C704 1.368 . S
C699 C683 1.349 . S
C699 H691 0.950 . S
C699 C697 1.327 . S
C700 C688 1.349 . S
C700 H694 0.950 . S
C700 C701 1.327 . S
C701 H695 0.950 . S
C701 C700 1.327 . S
C701 C705 1.429 . S
C702 C685 1.574 . S
C702 H696 0.949 . S
C702 C706 1.368 . S
C703 C684 1.429 . S
C703 C697 1.429 . S
C703 C704 1.523 . S
C704 C685 1.368 . S
C704 C698 1.368 . S
C704 C703 1.523 . S
C705 C689 1.429 . S
C705 C701 1.429 . S
C705 C706 1.523 . S
C706 C690 1.368 . S
C706 C702 1.368 . S
C706 C705 1.523 . S
H707 C682 0.950 . S
H708 C684 0.950 . S
H709 C685 0.949 . S
H710 C687 0.950 . S
H711 C689 0.950 . S
C712 C713 1.349 . S
C712 C714 1.327 1_554 S
C712 H737 0.950 . S
C713 C712 1.349 . S
C713 C729 1.349 . S
C714 C712 1.327 1_556 S
C714 C733 1.429 . S
C714 H738 0.950 . S
C715 C732 1.574 . S
C715 C734 1.368 . S
C715 H739 0.949 . S
H716 C720 0.949 . S
C717 C718 1.349 . S
C717 C719 1.327 . S
C717 H740 0.950 . S
C718 C717 1.349 . S
C718 C730 1.349 . S
C719 C717 1.327 . S
C719 C735 1.429 . S
C719 H741 0.950 . S
C720 H716 0.949 . S
C720 C728 1.574 . S
C720 C736 1.368 . S
H721 C729 0.950 . S
H722 C727 0.950 . S
H723 C728 0.949 . S
H724 C730 0.950 . S
H725 C731 0.950 . S
H726 C732 0.949 . S
C727 H722 0.950 . S
C727 C729 1.327 . S
C727 C733 1.429 1_554 S
C728 C720 1.574 . S
C728 H723 0.949 . S
C728 C734 1.368 . S
C729 C713 1.349 . S
C729 H721 0.950 . S
C729 C727 1.327 . S
C730 C718 1.349 . S
C730 H724 0.950 . S
C730 C731 1.327 . S
C731 H725 0.950 . S
C731 C730 1.327 . S
C731 C735 1.429 . S
C732 C715 1.574 . S
C732 H726 0.949 . S
C732 C736 1.368 . S
C733 C714 1.429 . S
C733 C727 1.429 1_556 S
C733 C734 1.523 . S
C734 C715 1.368 . S
C734 C728 1.368 . S
C734 C733 1.523 . S
C735 C719 1.429 . S
C735 C731 1.429 . S
C735 C736 1.523 . S
C736 C720 1.368 . S
C736 C732 1.368 . S
C736 C735 1.523 . S
H737 C712 0.950 . S
H738 C714 0.950 . S
H739 C715 0.949 . S
H740 C717 0.950 . S
H741 C719 0.950 . S
C742 C743 1.349 . S
C742 C744 1.327 1_554 S
C742 H767 0.950 . S
C743 C742 1.349 . S
C743 C759 1.349 . S
C744 C742 1.327 1_556 S
C744 C763 1.429 . S
C744 H768 0.950 . S
C745 C762 1.574 . S
C745 C764 1.368 . S
C745 H769 0.949 . S
H746 C750 0.949 . S
C747 C748 1.349 . S
C747 C749 1.327 . S
C747 H770 0.950 . S
C748 C747 1.349 . S
C748 C760 1.349 . S
C749 C747 1.327 . S
C749 C765 1.429 . S
C749 H771 0.950 . S
C750 H746 0.949 . S
C750 C758 1.574 . S
C750 C766 1.368 . S
H751 C759 0.950 . S
H752 C757 0.950 . S
H753 C758 0.949 . S
H754 C760 0.950 . S
H755 C761 0.950 . S
H756 C762 0.949 . S
C757 H752 0.950 . S
C757 C759 1.327 1_556 S
C757 C763 1.429 . S
C758 C750 1.574 . S
C758 H753 0.949 . S
C758 C764 1.368 . S
C759 C743 1.349 . S
C759 H751 0.950 . S
C759 C757 1.327 1_554 S
C760 C748 1.349 . S
C760 H754 0.950 . S
C760 C761 1.327 . S
C761 H755 0.950 . S
C761 C760 1.327 . S
C761 C765 1.429 . S
C762 C745 1.574 . S
C762 H756 0.949 . S
C762 C766 1.368 . S
C763 C744 1.429 . S
C763 C757 1.429 . S
C763 C764 1.523 . S
C764 C745 1.368 . S
C764 C758 1.368 . S
C764 C763 1.523 . S
C765 C749 1.429 . S
C765 C761 1.429 . S
C765 C766 1.523 . S
C766 C750 1.368 . S
C766 C762 1.368 . S
C766 C765 1.523 . S
H767 C742 0.950 . S
H768 C744 0.950 . S
H769 C745 0.949 . S
H770 C747 0.950 . S
H771 C749 0.950 . S
C772 C773 1.349 . S
C772 C774 1.327 1_554 S
C772 H797 0.950 . S
C773 C772 1.349 . S
C773 C789 1.349 . S
C774 C772 1.327 1_556 S
C774 C793 1.429 . S
C774 H798 0.950 . S
C775 C792 1.574 . S
C775 C794 1.368 . S
C775 H799 0.949 . S
H776 C780 0.949 . S
C777 C778 1.349 . S
C777 C779 1.327 . S
C777 H800 0.950 . S
C778 C777 1.349 . S
C778 C790 1.349 . S
C779 C777 1.327 . S
C779 C795 1.429 . S
C779 H801 0.950 . S
C780 H776 0.949 . S
C780 C788 1.574 . S
C780 C796 1.368 . S
H781 C789 0.950 . S
H782 C787 0.950 . S
H783 C788 0.949 . S
H784 C790 0.950 . S
H785 C791 0.950 . S
H786 C792 0.949 . S
C787 H782 0.950 . S
C787 C789 1.327 . S
C787 C793 1.429 1_554 S
C788 C780 1.574 . S
C788 H783 0.949 . S
C788 C794 1.368 . S
C789 C773 1.349 . S
C789 H781 0.950 . S
C789 C787 1.327 . S
C790 C778 1.349 . S
C790 H784 0.950 . S
C790 C791 1.327 . S
C791 H785 0.950 . S
C791 C790 1.327 . S
C791 C795 1.429 . S
C792 C775 1.574 . S
C792 H786 0.949 . S
C792 C796 1.368 . S
C793 C774 1.429 . S
C793 C787 1.429 1_556 S
C793 C794 1.523 . S
C794 C775 1.368 . S
C794 C788 1.368 . S
C794 C793 1.523 . S
C795 C779 1.429 . S
C795 C791 1.429 . S
C795 C796 1.523 . S
C796 C780 1.368 . S
C796 C792 1.368 . S
C796 C795 1.523 . S
H797 C772 0.950 . S
H798 C774 0.950 . S
H799 C775 0.949 . S
H800 C777 0.950 . S
H801 C779 0.950 . S
C802 C803 1.349 . S
C802 C804 1.327 . S
C802 H827 0.950 . S
C803 C802 1.349 . S
C803 C819 1.349 . S
C804 C802 1.327 . S
C804 C823 1.429 1_554 S
C804 H828 0.950 . S
C805 C822 1.574 . S
C805 C824 1.368 . S
C805 H829 0.949 . S
H806 C810 0.949 . S
C807 C808 1.349 . S
C807 C809 1.327 . S
C807 H830 0.950 . S
C808 C807 1.349 . S
C808 C820 1.349 . S
C809 C807 1.327 . S
C809 C825 1.429 . S
C809 H831 0.950 . S
C810 H806 0.949 . S
C810 C818 1.574 . S
C810 C826 1.368 . S
H811 C819 0.950 . S
H812 C817 0.950 . S
H813 C818 0.949 . S
H814 C820 0.950 . S
H815 C821 0.950 . S
H816 C822 0.949 . S
C817 H812 0.950 . S
C817 C819 1.327 1_556 S
C817 C823 1.429 . S
C818 C810 1.574 . S
C818 H813 0.949 . S
C818 C824 1.368 . S
C819 C803 1.349 . S
C819 H811 0.950 . S
C819 C817 1.327 1_554 S
C820 C808 1.349 . S
C820 H814 0.950 . S
C820 C821 1.327 . S
C821 H815 0.950 . S
C821 C820 1.327 . S
C821 C825 1.429 . S
C822 C805 1.574 . S
C822 H816 0.949 . S
C822 C826 1.368 . S
C823 C804 1.429 1_556 S
C823 C817 1.429 . S
C823 C824 1.523 . S
C824 C805 1.368 . S
C824 C818 1.368 . S
C824 C823 1.523 . S
C825 C809 1.429 . S
C825 C821 1.429 . S
C825 C826 1.523 . S
C826 C810 1.368 . S
C826 C822 1.368 . S
C826 C825 1.523 . S
H827 C802 0.950 . S
H828 C804 0.950 . S
H829 C805 0.949 . S
H830 C807 0.950 . S
H831 C809 0.950 . S
C832 C833 1.349 . S
C832 C834 1.327 . S
C832 H857 0.950 . S
C833 C832 1.349 . S
C833 C849 1.349 . S
C834 C832 1.327 . S
C834 C853 1.429 . S
C834 H858 0.950 . S
C835 C852 1.574 . S
C835 C854 1.368 . S
C835 H859 0.949 . S
H836 C840 0.949 . S
C837 C838 1.349 1_655 S
C837 C839 1.327 1_655 S
C837 H860 0.950 . S
C838 C837 1.349 1_455 S
C838 C850 1.349 . S
C839 C837 1.327 1_455 S
C839 C855 1.429 . S
C839 H861 0.950 . S
C840 H836 0.949 . S
C840 C848 1.574 . S
C840 C856 1.368 . S
H841 C849 0.950 . S
H842 C847 0.950 . S
H843 C848 0.949 . S
H844 C850 0.950 . S
H845 C851 0.950 . S
H846 C852 0.949 . S
C847 H842 0.950 . S
C847 C849 1.327 . S
C847 C853 1.429 . S
C848 C840 1.574 . S
C848 H843 0.949 . S
C848 C854 1.368 . S
C849 C833 1.349 . S
C849 H841 0.950 . S
C849 C847 1.327 . S
C850 C838 1.349 . S
C850 H844 0.950 . S
C850 C851 1.327 . S
C851 H845 0.950 . S
C851 C850 1.327 . S
C851 C855 1.429 . S
C852 C835 1.574 . S
C852 H846 0.949 . S
C852 C856 1.368 . S
C853 C834 1.429 . S
C853 C847 1.429 . S
C853 C854 1.523 . S
C854 C835 1.368 . S
C854 C848 1.368 . S
C854 C853 1.523 . S
C855 C839 1.429 . S
C855 C851 1.429 . S
C855 C856 1.523 . S
C856 C840 1.368 . S
C856 C852 1.368 . S
C856 C855 1.523 . S
H857 C832 0.950 . S
H858 C834 0.950 . S
H859 C835 0.949 . S
H860 C837 0.950 . S
H861 C839 0.950 . S
C862 C863 1.349 . S
C862 C864 1.327 . S
C862 H887 0.950 . S
C863 C862 1.349 . S
C863 C879 1.349 . S
C864 C862 1.327 . S
C864 C883 1.429 . S
C864 H888 0.950 . S
C865 C882 1.574 . S
C865 C884 1.368 . S
C865 H889 0.949 . S
H866 C870 0.949 . S
C867 C868 1.349 1_565 S
C867 C869 1.327 1_565 S
C867 H890 0.950 . S
C868 C867 1.349 1_545 S
C868 C880 1.349 . S
C869 C867 1.327 1_545 S
C869 C885 1.429 . S
C869 H891 0.950 1_545 S
C870 H866 0.949 . S
C870 C878 1.574 . S
C870 C886 1.368 . S
H871 C879 0.950 . S
H872 C877 0.950 . S
H873 C878 0.949 . S
H874 C880 0.950 . S
H875 C881 0.950 . S
H876 C882 0.949 . S
C877 H872 0.950 . S
C877 C879 1.327 . S
C877 C883 1.429 . S
C878 C870 1.574 . S
C878 H873 0.949 . S
C878 C884 1.368 . S
C879 C863 1.349 . S
C879 H871 0.950 . S
C879 C877 1.327 . S
C880 C868 1.349 . S
C880 H874 0.950 . S
C880 C881 1.327 . S
C881 H875 0.950 . S
C881 C880 1.327 . S
C881 C885 1.429 . S
C882 C865 1.574 . S
C882 H876 0.949 . S
C882 C886 1.368 . S
C883 C864 1.429 . S
C883 C877 1.429 . S
C883 C884 1.523 . S
C884 C865 1.368 . S
C884 C878 1.368 . S
C884 C883 1.523 . S
C885 C869 1.429 . S
C885 C881 1.429 . S
C885 C886 1.523 . S
C886 C870 1.368 . S
C886 C882 1.368 . S
C886 C885 1.523 . S
H887 C862 0.950 . S
H888 C864 0.950 . S
H889 C865 0.949 . S
H890 C867 0.950 . S
H891 C869 0.950 1_565 S
C892 C893 1.349 . S
C892 C894 1.327 . S
C892 H917 0.950 . S
C893 C892 1.349 . S
C893 C909 1.349 . S
C894 C892 1.327 . S
C894 C913 1.429 . S
C894 H918 0.950 . S
C895 C912 1.574 . S
C895 C914 1.368 . S
C895 H919 0.949 . S
H896 C900 0.949 . S
C897 C898 1.349 . S
C897 C899 1.327 . S
C897 H920 0.950 . S
C898 C897 1.349 . S
C898 C910 1.349 . S
C899 C897 1.327 . S
C899 C915 1.429 . S
C899 H921 0.950 . S
C900 H896 0.949 . S
C900 C908 1.574 . S
C900 C916 1.368 . S
H901 C909 0.950 . S
H902 C907 0.950 . S
H903 C908 0.949 . S
H904 C910 0.950 . S
H905 C911 0.950 . S
H906 C912 0.949 . S
C907 H902 0.950 . S
C907 C909 1.327 . S
C907 C913 1.429 . S
C908 C900 1.574 . S
C908 H903 0.949 . S
C908 C914 1.368 . S
C909 C893 1.349 . S
C909 H901 0.950 . S
C909 C907 1.327 . S
C910 C898 1.349 . S
C910 H904 0.950 . S
C910 C911 1.327 . S
C911 H905 0.950 . S
C911 C910 1.327 . S
C911 C915 1.429 . S
C912 C895 1.574 . S
C912 H906 0.949 . S
C912 C916 1.368 . S
C913 C894 1.429 . S
C913 C907 1.429 . S
C913 C914 1.523 . S
C914 C895 1.368 . S
C914 C908 1.368 . S
C914 C913 1.523 . S
C915 C899 1.429 . S
C915 C911 1.429 . S
C915 C916 1.523 . S
C916 C900 1.368 . S
C916 C912 1.368 . S
C916 C915 1.523 . S
H917 C892 0.950 . S
H918 C894 0.950 . S
H919 C895 0.949 . S
H920 C897 0.950 . S
H921 C899 0.950 . S
C922 C923 1.349 . S
C922 C924 1.327 . S
C922 H947 0.950 . S
C923 C922 1.349 . S
C923 C939 1.349 . S
C924 C922 1.327 . S
C924 C943 1.429 . S
C924 H948 0.950 . S
C925 C942 1.574 . S
C925 C944 1.368 . S
C925 H949 0.949 . S
H926 C930 0.949 . S
C927 C928 1.349 . S
C927 C929 1.327 . S
C927 H950 0.950 . S
C928 C927 1.349 . S
C928 C940 1.349 . S
C929 C927 1.327 . S
C929 C945 1.429 . S
C929 H951 0.950 . S
C930 H926 0.949 . S
C930 C938 1.574 . S
C930 C946 1.368 . S
H931 C939 0.950 . S
H932 C937 0.950 . S
H933 C938 0.949 . S
H934 C940 0.950 . S
H935 C941 0.950 . S
H936 C942 0.949 . S
C937 H932 0.950 . S
C937 C939 1.327 . S
C937 C943 1.429 . S
C938 C930 1.574 . S
C938 H933 0.949 . S
C938 C944 1.368 . S
C939 C923 1.349 . S
C939 H931 0.950 . S
C939 C937 1.327 . S
C940 C928 1.349 . S
C940 H934 0.950 . S
C940 C941 1.327 . S
C941 H935 0.950 . S
C941 C940 1.327 . S
C941 C945 1.429 . S
C942 C925 1.574 . S
C942 H936 0.949 . S
C942 C946 1.368 . S
C943 C924 1.429 . S
C943 C937 1.429 . S
C943 C944 1.523 . S
C944 C925 1.368 . S
C944 C938 1.368 . S
C944 C943 1.523 . S
C945 C929 1.429 . S
C945 C941 1.429 . S
C945 C946 1.523 . S
C946 C930 1.368 . S
C946 C942 1.368 . S
C946 C945 1.523 . S
H947 C922 0.950 . S
H948 C924 0.950 . S
H949 C925 0.949 . S
H950 C927 0.950 . S
H951 C929 0.950 . S
C952 C953 1.349 . S
C952 C954 1.327 . S
C952 H977 0.950 . S
C953 C952 1.349 . S
C953 C969 1.349 1_554 S
C954 C952 1.327 . S
C954 C973 1.429 1_554 S
C954 H978 0.950 . S
C955 C972 1.574 . S
C955 C974 1.368 . S
C955 H979 0.949 . S
H956 C960 0.949 . S
C957 C958 1.355 . S
C957 C959 1.314 1_455 S
C957 H980 0.958 . S
C958 C957 1.355 . S
C958 C970 1.344 1_455 S
C959 C957 1.314 1_655 S
C959 C975 1.429 . S
C959 H981 0.950 . S
C960 H956 0.949 . S
C960 C968 1.574 . S
C960 C976 1.368 . S
H961 C969 0.950 . S
H962 C967 0.950 . S
H963 C968 0.939 1_554 S
H964 C970 0.946 1_455 S
H965 C971 0.950 . S
H966 C972 0.949 . S
C967 H962 0.950 . S
C967 C969 1.327 . S
C967 C973 1.429 . S
C968 C960 1.574 . S
C968 H963 0.939 1_556 S
C968 C974 1.368 . S
C969 C953 1.349 1_556 S
C969 H961 0.950 . S
C969 C967 1.327 . S
C970 C958 1.344 1_655 S
C970 H964 0.946 1_655 S
C970 C971 1.336 . S
C971 H965 0.950 . S
C971 C970 1.336 . S
C971 C975 1.429 . S
C972 C955 1.574 . S
C972 H966 0.949 . S
C972 C976 1.368 . S
C973 C954 1.429 1_556 S
C973 C967 1.429 . S
C973 C974 1.523 . S
C974 C955 1.368 . S
C974 C968 1.368 . S
C974 C973 1.523 . S
C975 C959 1.429 . S
C975 C971 1.429 . S
C975 C976 1.523 . S
C976 C960 1.368 . S
C976 C972 1.368 . S
C976 C975 1.523 . S
H977 C952 0.950 . S
H978 C954 0.950 . S
H979 C955 0.949 . S
H980 C957 0.958 . S
H981 C959 0.950 . S
C982 C983 1.349 1_556 S
C982 C984 1.327 . S
C982 H1007 0.950 . S
C983 C982 1.349 1_554 S
C983 C999 1.349 . S
C984 C982 1.327 . S
C984 C1003 1.429 . S
C984 H1008 0.950 . S
C985 C1002 1.574 . S
C985 C1004 1.368 . S
C985 H1009 0.949 . S
H986 C990 0.949 . S
C987 C988 1.349 . S
C987 C989 1.327 . S
C987 H1010 0.950 . S
C988 C987 1.349 . S
C988 C1000 1.349 1_545 S
C989 C987 1.327 . S
C989 C1005 1.429 1_545 S
C989 H1011 0.950 . S
C990 H986 0.949 . S
C990 C998 1.574 . S
C990 C1006 1.368 . S
H991 C999 0.950 . S
H992 C997 0.950 . S
H993 C998 0.949 . S
H994 C1000 0.950 . S
H995 C1001 0.950 . S
H996 C1002 0.949 1_545 S
C997 H992 0.950 . S
C997 C999 1.327 1_556 S
C997 C1003 1.429 . S
C998 C990 1.574 . S
C998 H993 0.949 . S
C998 C1004 1.368 . S
C999 C983 1.349 . S
C999 H991 0.950 . S
C999 C997 1.327 1_554 S
C1000 C988 1.349 1_565 S
C1000 H994 0.950 . S
C1000 C1001 1.327 . S
C1001 H995 0.950 . S
C1001 C1000 1.327 . S
C1001 C1005 1.429 . S
C1002 C985 1.574 . S
C1002 H996 0.949 1_565 S
C1002 C1006 1.368 . S
C1003 C984 1.429 . S
C1003 C997 1.429 . S
C1003 C1004 1.523 . S
C1004 C985 1.368 . S
C1004 C998 1.368 . S
C1004 C1003 1.523 . S
C1005 C989 1.429 1_565 S
C1005 C1001 1.429 . S
C1005 C1006 1.523 . S
C1006 C990 1.368 . S
C1006 C1002 1.368 . S
C1006 C1005 1.523 . S
H1007 C982 0.950 . S
H1008 C984 0.950 . S
H1009 C985 0.949 . S
H1010 C987 0.950 . S
H1011 C989 0.950 . S
C1012 C1013 1.349 . S
C1012 C1014 1.327 . S
C1012 H1037 0.950 . S
C1013 C1012 1.349 . S
C1013 C1029 1.349 1_554 S
C1014 C1012 1.327 . S
C1014 C1033 1.429 1_554 S
C1014 H1038 0.950 . S
C1015 C1032 1.574 . S
C1015 C1034 1.368 . S
C1015 H1039 0.949 . S
H1016 C1020 0.949 . S
C1017 C1018 1.349 . S
C1017 C1019 1.327 . S
C1017 H1040 0.950 . S
C1018 C1017 1.349 . S
C1018 C1030 1.349 . S
C1019 C1017 1.327 . S
C1019 C1035 1.429 . S
C1019 H1041 0.950 . S
C1020 H1016 0.949 . S
C1020 C1028 1.574 . S
C1020 C1036 1.368 . S
H1021 C1029 0.950 . S
H1022 C1027 0.950 . S
H1023 C1028 0.936 1_554 S
H1024 C1030 0.950 . S
H1025 C1031 0.950 . S
H1026 C1032 0.949 . S
C1027 H1022 0.950 . S
C1027 C1029 1.327 . S
C1027 C1033 1.429 . S
C1028 C1020 1.574 . S
C1028 H1023 0.936 1_556 S
C1028 C1034 1.368 . S
C1029 C1013 1.349 1_556 S
C1029 H1021 0.950 . S
C1029 C1027 1.327 . S
C1030 C1018 1.349 . S
C1030 H1024 0.950 . S
C1030 C1031 1.327 . S
C1031 H1025 0.950 . S
C1031 C1030 1.327 . S
C1031 C1035 1.429 . S
C1032 C1015 1.574 . S
C1032 H1026 0.949 . S
C1032 C1036 1.368 . S
C1033 C1014 1.429 1_556 S
C1033 C1027 1.429 . S
C1033 C1034 1.523 . S
C1034 C1015 1.368 . S
C1034 C1028 1.368 . S
C1034 C1033 1.523 . S
C1035 C1019 1.429 . S
C1035 C1031 1.429 . S
C1035 C1036 1.523 . S
C1036 C1020 1.368 . S
C1036 C1032 1.368 . S
C1036 C1035 1.523 . S
H1037 C1012 0.950 . S
H1038 C1014 0.950 . S
H1039 C1015 0.949 . S
H1040 C1017 0.950 . S
H1041 C1019 0.950 . S
C1042 C1043 1.349 1_556 S
C1042 C1044 1.327 . S
C1042 H1067 0.950 . S
C1043 C1042 1.349 1_554 S
C1043 C1059 1.349 . S
C1044 C1042 1.327 . S
C1044 C1063 1.429 . S
C1044 H1068 0.950 . S
C1045 C1062 1.574 . S
C1045 C1064 1.368 . S
C1045 H1069 0.949 . S
H1046 C1050 0.949 . S
C1047 C1048 1.349 . S
C1047 C1049 1.327 . S
C1047 H1070 0.950 . S
C1048 C1047 1.349 . S
C1048 C1060 1.349 . S
C1049 C1047 1.327 . S
C1049 C1065 1.429 . S
C1049 H1071 0.950 . S
C1050 H1046 0.949 . S
C1050 C1058 1.574 . S
C1050 C1066 1.368 . S
H1051 C1059 0.950 . S
H1052 C1057 0.950 . S
H1053 C1058 0.949 . S
H1054 C1060 0.950 . S
H1055 C1061 0.950 . S
H1056 C1062 0.949 . S
C1057 H1052 0.950 . S
C1057 C1059 1.327 1_556 S
C1057 C1063 1.429 . S
C1058 C1050 1.574 . S
C1058 H1053 0.949 . S
C1058 C1064 1.368 . S
C1059 C1043 1.349 . S
C1059 H1051 0.950 . S
C1059 C1057 1.327 1_554 S
C1060 C1048 1.349 . S
C1060 H1054 0.950 . S
C1060 C1061 1.327 . S
C1061 H1055 0.950 . S
C1061 C1060 1.327 . S
C1061 C1065 1.429 . S
C1062 C1045 1.574 . S
C1062 H1056 0.949 . S
C1062 C1066 1.368 . S
C1063 C1044 1.429 . S
C1063 C1057 1.429 . S
C1063 C1064 1.523 . S
C1064 C1045 1.368 . S
C1064 C1058 1.368 . S
C1064 C1063 1.523 . S
C1065 C1049 1.429 . S
C1065 C1061 1.429 . S
C1065 C1066 1.523 . S
C1066 C1050 1.368 . S
C1066 C1062 1.368 . S
C1066 C1065 1.523 . S
H1067 C1042 0.950 . S
H1068 C1044 0.950 . S
H1069 C1045 0.949 . S
H1070 C1047 0.950 . S
H1071 C1049 0.950 . S
C1072 C1073 1.349 . S
C1072 C1074 1.327 . S
C1072 H1097 0.950 . S
C1073 C1072 1.349 . S
C1073 C1089 1.349 . S
C1074 C1072 1.327 . S
C1074 C1093 1.429 . S
C1074 H1098 0.950 . S
C1075 C1092 1.574 . S
C1075 C1094 1.368 . S
C1075 H1099 0.949 . S
H1076 C1080 0.949 . S
C1077 C1078 1.349 . S
C1077 C1079 1.327 . S
C1077 H1100 0.965 . S
C1078 C1077 1.349 . S
C1078 C1090 1.349 . S
C1079 C1077 1.327 . S
C1079 C1095 1.429 . S
C1079 H1101 0.950 . S
C1080 H1076 0.949 . S
C1080 C1088 1.574 . S
C1080 C1096 1.368 . S
H1081 C1089 0.950 . S
H1082 C1087 0.950 . S
H1083 C1088 0.949 . S
H1084 C1090 0.950 . S
H1085 C1091 0.950 . S
H1086 C1092 0.949 . S
C1087 H1082 0.950 . S
C1087 C1089 1.327 . S
C1087 C1093 1.429 . S
C1088 C1080 1.574 . S
C1088 H1083 0.949 . S
C1088 C1094 1.368 . S
C1089 C1073 1.349 . S
C1089 H1081 0.950 . S
C1089 C1087 1.327 . S
C1090 C1078 1.349 . S
C1090 H1084 0.950 . S
C1090 C1091 1.327 . S
C1091 H1085 0.950 . S
C1091 C1090 1.327 . S
C1091 C1095 1.429 . S
C1092 C1075 1.574 . S
C1092 H1086 0.949 . S
C1092 C1096 1.368 . S
C1093 C1074 1.429 . S
C1093 C1087 1.429 . S
C1093 C1094 1.523 . S
C1094 C1075 1.368 . S
C1094 C1088 1.368 . S
C1094 C1093 1.523 . S
C1095 C1079 1.429 . S
C1095 C1091 1.429 . S
C1095 C1096 1.523 . S
C1096 C1080 1.368 . S
C1096 C1092 1.368 . S
C1096 C1095 1.523 . S
H1097 C1072 0.950 . S
H1098 C1074 0.950 . S
H1099 C1075 0.949 . S
H1100 C1077 0.965 . S
H1101 C1079 0.950 . S
C1102 C1103 1.349 . S
C1102 C1104 1.327 . S
C1102 H1127 0.950 . S
C1103 C1102 1.349 . S
C1103 C1119 1.349 . S
C1104 C1102 1.327 . S
C1104 C1123 1.429 . S
C1104 H1128 0.950 . S
C1105 C1122 1.574 . S
C1105 C1124 1.368 . S
C1105 H1129 0.949 . S
H1106 C1110 0.949 . S
C1107 C1108 1.349 . S
C1107 C1109 1.327 . S
C1107 H1130 0.950 . S
C1108 C1107 1.349 . S
C1108 C1120 1.349 . S
C1109 C1107 1.327 . S
C1109 C1125 1.429 . S
C1109 H1131 0.950 . S
C1110 H1106 0.949 . S
C1110 C1118 1.574 . S
C1110 C1126 1.368 . S
H1111 C1119 0.950 . S
H1112 C1117 0.950 . S
H1113 C1118 0.949 . S
H1114 C1120 0.961 . S
H1115 C1121 0.950 . S
H1116 C1122 0.949 . S
C1117 H1112 0.950 . S
C1117 C1119 1.327 . S
C1117 C1123 1.429 . S
C1118 C1110 1.574 . S
C1118 H1113 0.949 . S
C1118 C1124 1.368 . S
C1119 C1103 1.349 . S
C1119 H1111 0.950 . S
C1119 C1117 1.327 . S
C1120 C1108 1.349 . S
C1120 H1114 0.961 . S
C1120 C1121 1.327 . S
C1121 H1115 0.950 . S
C1121 C1120 1.327 . S
C1121 C1125 1.429 . S
C1122 C1105 1.574 . S
C1122 H1116 0.949 . S
C1122 C1126 1.368 . S
C1123 C1104 1.429 . S
C1123 C1117 1.429 . S
C1123 C1124 1.523 . S
C1124 C1105 1.368 . S
C1124 C1118 1.368 . S
C1124 C1123 1.523 . S
C1125 C1109 1.429 . S
C1125 C1121 1.429 . S
C1125 C1126 1.523 . S
C1126 C1110 1.368 . S
C1126 C1122 1.368 . S
C1126 C1125 1.523 . S
H1127 C1102 0.950 . S
H1128 C1104 0.950 . S
H1129 C1105 0.949 . S
H1130 C1107 0.950 . S
H1131 C1109 0.950 . S
C1132 C1133 1.349 . S
C1132 C1134 1.327 . S
C1132 H1157 0.950 . S
C1133 C1132 1.349 . S
C1133 C1149 1.349 . S
C1134 C1132 1.327 . S
C1134 C1153 1.429 . S
C1134 H1158 0.950 . S
C1135 C1152 1.574 . S
C1135 C1154 1.368 . S
C1135 H1159 0.949 . S
H1136 C1140 0.949 . S
C1137 C1138 1.349 . S
C1137 C1139 1.327 . S
C1137 H1160 0.950 . S
C1138 C1137 1.349 . S
C1138 C1150 1.349 . S
C1139 C1137 1.327 . S
C1139 C1155 1.429 . S
C1139 H1161 0.950 . S
C1140 H1136 0.949 . S
C1140 C1148 1.574 . S
C1140 C1156 1.368 . S
H1141 C1149 0.950 . S
H1142 C1147 0.950 . S
H1143 C1148 0.949 . S
H1144 C1150 0.950 . S
H1145 C1151 0.950 . S
H1146 C1152 0.949 . S
C1147 H1142 0.950 . S
C1147 C1149 1.327 . S
C1147 C1153 1.429 . S
C1148 C1140 1.574 . S
C1148 H1143 0.949 . S
C1148 C1154 1.368 . S
C1149 C1133 1.349 . S
C1149 H1141 0.950 . S
C1149 C1147 1.327 . S
C1150 C1138 1.349 . S
C1150 H1144 0.950 . S
C1150 C1151 1.327 . S
C1151 H1145 0.950 . S
C1151 C1150 1.327 . S
C1151 C1155 1.429 . S
C1152 C1135 1.574 . S
C1152 H1146 0.949 . S
C1152 C1156 1.368 . S
C1153 C1134 1.429 . S
C1153 C1147 1.429 . S
C1153 C1154 1.523 . S
C1154 C1135 1.368 . S
C1154 C1148 1.368 . S
C1154 C1153 1.523 . S
C1155 C1139 1.429 . S
C1155 C1151 1.429 . S
C1155 C1156 1.523 . S
C1156 C1140 1.368 . S
C1156 C1152 1.368 . S
C1156 C1155 1.523 . S
H1157 C1132 0.950 . S
H1158 C1134 0.950 . S
H1159 C1135 0.949 . S
H1160 C1137 0.950 . S
H1161 C1139 0.950 . S
C1162 C1163 1.349 . S
C1162 C1164 1.327 . S
C1162 H1187 0.950 . S
C1163 C1162 1.349 . S
C1163 C1179 1.349 . S
C1164 C1162 1.327 . S
C1164 C1183 1.429 . S
C1164 H1188 0.950 . S
C1165 C1182 1.574 . S
C1165 C1184 1.368 . S
C1165 H1189 0.949 . S
H1166 C1170 0.949 . S
C1167 C1168 1.349 . S
C1167 C1169 1.327 . S
C1167 H1190 0.950 . S
C1168 C1167 1.349 . S
C1168 C1180 1.349 . S
C1169 C1167 1.327 . S
C1169 C1185 1.429 . S
C1169 H1191 0.950 . S
C1170 H1166 0.949 . S
C1170 C1178 1.574 . S
C1170 C1186 1.368 . S
H1171 C1179 0.950 . S
H1172 C1177 0.950 . S
H1173 C1178 0.949 . S
H1174 C1180 0.950 . S
H1175 C1181 0.950 . S
H1176 C1182 0.949 . S
C1177 H1172 0.950 . S
C1177 C1179 1.327 . S
C1177 C1183 1.429 . S
C1178 C1170 1.574 . S
C1178 H1173 0.949 . S
C1178 C1184 1.368 . S
C1179 C1163 1.349 . S
C1179 H1171 0.950 . S
C1179 C1177 1.327 . S
C1180 C1168 1.349 . S
C1180 H1174 0.950 . S
C1180 C1181 1.327 . S
C1181 H1175 0.950 . S
C1181 C1180 1.327 . S
C1181 C1185 1.429 . S
C1182 C1165 1.574 . S
C1182 H1176 0.949 . S
C1182 C1186 1.368 . S
C1183 C1164 1.429 . S
C1183 C1177 1.429 . S
C1183 C1184 1.523 . S
C1184 C1165 1.368 . S
C1184 C1178 1.368 . S
C1184 C1183 1.523 . S
C1185 C1169 1.429 . S
C1185 C1181 1.429 . S
C1185 C1186 1.523 . S
C1186 C1170 1.368 . S
C1186 C1182 1.368 . S
C1186 C1185 1.523 . S
H1187 C1162 0.950 . S
H1188 C1164 0.950 . S
H1189 C1165 0.949 . S
H1190 C1167 0.950 . S
H1191 C1169 0.950 . S
C1192 C1193 1.349 . S
C1192 C1194 1.327 . S
C1192 H1217 0.950 . S
C1193 C1192 1.349 . S
C1193 C1209 1.349 . S
C1194 C1192 1.327 . S
C1194 C1213 1.429 . S
C1194 H1218 0.950 . S
C1195 C1212 1.574 . S
C1195 C1214 1.368 . S
C1195 H1219 0.949 . S
H1196 C1200 0.949 . S
C1197 C1198 1.349 . S
C1197 C1199 1.327 . S
C1197 H1220 0.950 . S
C1198 C1197 1.349 . S
C1198 C1210 1.349 . S
C1199 C1197 1.327 . S
C1199 C1215 1.429 . S
C1199 H1221 0.950 . S
C1200 H1196 0.949 . S
C1200 C1208 1.574 . S
C1200 C1216 1.368 . S
H1201 C1209 0.950 . S
H1202 C1207 0.950 . S
H1203 C1208 0.949 . S
H1204 C1210 0.950 . S
H1205 C1211 0.950 . S
H1206 C1212 0.949 . S
C1207 H1202 0.950 . S
C1207 C1209 1.327 . S
C1207 C1213 1.429 . S
C1208 C1200 1.574 . S
C1208 H1203 0.949 . S
C1208 C1214 1.368 . S
C1209 C1193 1.349 . S
C1209 H1201 0.950 . S
C1209 C1207 1.327 . S
C1210 C1198 1.349 . S
C1210 H1204 0.950 . S
C1210 C1211 1.327 . S
C1211 H1205 0.950 . S
C1211 C1210 1.327 . S
C1211 C1215 1.429 . S
C1212 C1195 1.574 . S
C1212 H1206 0.949 . S
C1212 C1216 1.368 . S
C1213 C1194 1.429 . S
C1213 C1207 1.429 . S
C1213 C1214 1.523 . S
C1214 C1195 1.368 . S
C1214 C1208 1.368 . S
C1214 C1213 1.523 . S
C1215 C1199 1.429 . S
C1215 C1211 1.429 . S
C1215 C1216 1.523 . S
C1216 C1200 1.368 . S
C1216 C1212 1.368 . S
C1216 C1215 1.523 . S
H1217 C1192 0.950 . S
H1218 C1194 0.950 . S
H1219 C1195 0.949 . S
H1220 C1197 0.950 . S
H1221 C1199 0.950 . S
C1222 C1223 1.349 . S
C1222 C1224 1.327 . S
C1222 H1247 0.950 . S
C1223 C1222 1.349 . S
C1223 C1239 1.349 . S
C1224 C1222 1.327 . S
C1224 C1243 1.429 . S
C1224 H1248 0.950 . S
C1225 C1242 1.574 . S
C1225 C1244 1.368 . S
C1225 H1249 0.949 . S
H1226 C1230 0.949 . S
C1227 C1228 1.349 . S
C1227 C1229 1.327 . S
C1227 H1250 0.950 . S
C1228 C1227 1.349 . S
C1228 C1240 1.349 . S
C1229 C1227 1.327 . S
C1229 C1245 1.429 . S
C1229 H1251 0.950 . S
C1230 H1226 0.949 . S
C1230 C1238 1.574 . S
C1230 C1246 1.368 . S
H1231 C1239 0.950 . S
H1232 C1237 0.950 . S
H1233 C1238 0.949 . S
H1234 C1240 0.950 . S
H1235 C1241 0.950 . S
H1236 C1242 0.949 . S
C1237 H1232 0.950 . S
C1237 C1239 1.327 . S
C1237 C1243 1.429 . S
C1238 C1230 1.574 . S
C1238 H1233 0.949 . S
C1238 C1244 1.368 . S
C1239 C1223 1.349 . S
C1239 H1231 0.950 . S
C1239 C1237 1.327 . S
C1240 C1228 1.349 . S
C1240 H1234 0.950 . S
C1240 C1241 1.327 . S
C1241 H1235 0.950 . S
C1241 C1240 1.327 . S
C1241 C1245 1.429 . S
C1242 C1225 1.574 . S
C1242 H1236 0.949 . S
C1242 C1246 1.368 . S
C1243 C1224 1.429 . S
C1243 C1237 1.429 . S
C1243 C1244 1.523 . S
C1244 C1225 1.368 . S
C1244 C1238 1.368 . S
C1244 C1243 1.523 . S
C1245 C1229 1.429 . S
C1245 C1241 1.429 . S
C1245 C1246 1.523 . S
C1246 C1230 1.368 . S
C1246 C1242 1.368 . S
C1246 C1245 1.523 . S
H1247 C1222 0.950 . S
H1248 C1224 0.950 . S
H1249 C1225 0.949 . S
H1250 C1227 0.950 . S
H1251 C1229 0.950 . S
C1252 C1253 1.349 . S
C1252 C1254 1.327 . S
C1252 H1277 0.950 . S
C1253 C1252 1.349 . S
C1253 C1269 1.349 . S
C1254 C1252 1.327 . S
C1254 C1273 1.429 . S
C1254 H1278 0.950 . S
C1255 C1272 1.574 . S
C1255 C1274 1.368 . S
C1255 H1279 0.949 . S
H1256 C1260 0.949 . S
C1257 C1258 1.349 . S
C1257 C1259 1.327 . S
C1257 H1280 0.950 . S
C1258 C1257 1.349 . S
C1258 C1270 1.349 . S
C1259 C1257 1.327 . S
C1259 C1275 1.429 . S
C1259 H1281 0.950 . S
C1260 H1256 0.949 . S
C1260 C1268 1.574 . S
C1260 C1276 1.368 . S
H1261 C1269 0.950 . S
H1262 C1267 0.950 . S
H1263 C1268 0.949 . S
H1264 C1270 0.950 . S
H1265 C1271 0.950 . S
H1266 C1272 0.949 . S
C1267 H1262 0.950 . S
C1267 C1269 1.327 . S
C1267 C1273 1.429 . S
C1268 C1260 1.574 . S
C1268 H1263 0.949 . S
C1268 C1274 1.368 . S
C1269 C1253 1.349 . S
C1269 H1261 0.950 . S
C1269 C1267 1.327 . S
C1270 C1258 1.349 . S
C1270 H1264 0.950 . S
C1270 C1271 1.327 . S
C1271 H1265 0.950 . S
C1271 C1270 1.327 . S
C1271 C1275 1.429 . S
C1272 C1255 1.574 . S
C1272 H1266 0.949 . S
C1272 C1276 1.368 . S
C1273 C1254 1.429 . S
C1273 C1267 1.429 . S
C1273 C1274 1.523 . S
C1274 C1255 1.368 . S
C1274 C1268 1.368 . S
C1274 C1273 1.523 . S
C1275 C1259 1.429 . S
C1275 C1271 1.429 . S
C1275 C1276 1.523 . S
C1276 C1260 1.368 . S
C1276 C1272 1.368 . S
C1276 C1275 1.523 . S
H1277 C1252 0.950 . S
H1278 C1254 0.950 . S
H1279 C1255 0.949 . S
H1280 C1257 0.950 . S
H1281 C1259 0.950 . S
C1282 C1283 1.349 . S
C1282 C1284 1.327 . S
C1282 H1307 0.950 . S
C1283 C1282 1.349 . S
C1283 C1299 1.349 . S
C1284 C1282 1.327 . S
C1284 C1303 1.429 . S
C1284 H1308 0.950 . S
C1285 C1302 1.574 . S
C1285 C1304 1.368 . S
C1285 H1309 0.949 . S
H1286 C1290 0.949 . S
C1287 C1288 1.349 . S
C1287 C1289 1.327 . S
C1287 H1310 0.950 . S
C1288 C1287 1.349 . S
C1288 C1300 1.349 . S
C1289 C1287 1.327 . S
C1289 C1305 1.429 . S
C1289 H1311 0.950 . S
C1290 H1286 0.949 . S
C1290 C1298 1.574 . S
C1290 C1306 1.368 . S
H1291 C1299 0.950 . S
H1292 C1297 0.950 . S
H1293 C1298 0.949 . S
H1294 C1300 0.950 . S
H1295 C1301 0.950 . S
H1296 C1302 0.949 . S
C1297 H1292 0.950 . S
C1297 C1299 1.327 . S
C1297 C1303 1.429 . S
C1298 C1290 1.574 . S
C1298 H1293 0.949 . S
C1298 C1304 1.368 . S
C1299 C1283 1.349 . S
C1299 H1291 0.950 . S
C1299 C1297 1.327 . S
C1300 C1288 1.349 . S
C1300 H1294 0.950 . S
C1300 C1301 1.327 . S
C1301 H1295 0.950 . S
C1301 C1300 1.327 . S
C1301 C1305 1.429 . S
C1302 C1285 1.574 . S
C1302 H1296 0.949 . S
C1302 C1306 1.368 . S
C1303 C1284 1.429 . S
C1303 C1297 1.429 . S
C1303 C1304 1.523 . S
C1304 C1285 1.368 . S
C1304 C1298 1.368 . S
C1304 C1303 1.523 . S
C1305 C1289 1.429 . S
C1305 C1301 1.429 . S
C1305 C1306 1.523 . S
C1306 C1290 1.368 . S
C1306 C1302 1.368 . S
C1306 C1305 1.523 . S
H1307 C1282 0.950 . S
H1308 C1284 0.950 . S
H1309 C1285 0.949 . S
H1310 C1287 0.950 . S
H1311 C1289 0.950 . S
C593 C215 1.971 . S
C598 C330 1.971 . S
C628 C414 2.006 . S
C623 C247 2.007 . S
C658 C480 1.990 . S
C653 C151 2.141 . S
C688 C564 1.962 . S
C683 C183 2.112 . S
C718 C319 1.970 1_565 S
C713 C87 1.868 . S
C743 C119 1.896 . S
C748 C403 2.006 . S
C773 C23 2.020 . S
C778 C491 1.988 . S
C803 C55 2.000 . S
C808 C575 1.964 . S
C838 C326 0.453 1_455 S
C833 C189 0.352 . S
C868 C410 0.432 1_545 S
C863 C221 0.297 . S
C898 C482 0.467 . S
C893 C253 0.242 . S
C923 C157 0.293 . S
C928 C566 0.472 . S
C953 C61 0.585 . S
C958 C314 0.453 . S
C988 C398 0.432 . S
C983 C93 0.568 . S
C1018 C494 0.467 . S
C1013 C125 0.584 . S
C1043 C29 0.590 . S
C1048 C578 0.472 . S
C1073 C177 2.381 . S
C1078 C323 2.405 . S
C1103 C209 2.333 . S
C1108 C407 2.360 . S
C1138 C487 2.345 . S
C1133 C241 2.210 . S
C1168 C571 2.383 . S
C1163 C145 2.250 . S
C1193 C49 2.283 . S
C1198 C312 2.405 . S
C1228 C396 2.359 . S
C1223 C81 2.243 . S
C1258 C498 2.345 . S
C1253 C113 2.112 . S
C1283 C17 2.146 . S
C1288 C582 2.384 . S
