# Generated by pormake.
# Topology apo, (3,6)-cn, num edge types: 1
# Building blocks:
#     Node 0, Type 0, BuildingBlock: ESEHIV_clean_linker_0, # of connection points: 3
#     Node 1, Type 0, BuildingBlock: ESEHIV_clean_linker_0, # of connection points: 3
#     Node 2, Type 0, BuildingBlock: ESEHIV_clean_linker_0, # of connection points: 3
#     Node 3, Type 0, BuildingBlock: ESEHIV_clean_linker_0, # of connection points: 3
#     Node 4, Type 0, BuildingBlock: ESEHIV_clean_linker_0, # of connection points: 3
#     Node 5, Type 0, BuildingBlock: ESEHIV_clean_linker_0, # of connection points: 3
#     Node 6, Type 0, BuildingBlock: ESEHIV_clean_linker_0, # of connection points: 3
#     Node 7, Type 0, BuildingBlock: ESEHIV_clean_linker_0, # of connection points: 3
#     Node 8, Type 1, BuildingBlock: KUMBUR_clean_sbu_1, # of connection points: 6
#     Node 9, Type 1, BuildingBlock: KUMBUR_clean_sbu_1, # of connection points: 6
#     Node 10, Type 1, BuildingBlock: KUMBUR_clean_sbu_1, # of connection points: 6
#     Node 11, Type 1, BuildingBlock: KUMBUR_clean_sbu_1, # of connection points: 6
#     Edge 12, Type (0, 1), BuildingBlock: UVAHIK_clean_linker_0, # of connection points: 2
#     Edge 13, Type (0, 1), BuildingBlock: UVAHIK_clean_linker_0, # of connection points: 2
#     Edge 14, Type (0, 1), BuildingBlock: UVAHIK_clean_linker_0, # of connection points: 2
#     Edge 15, Type (0, 1), BuildingBlock: UVAHIK_clean_linker_0, # of connection points: 2
#     Edge 16, Type (0, 1), BuildingBlock: UVAHIK_clean_linker_0, # of connection points: 2
#     Edge 17, Type (0, 1), BuildingBlock: UVAHIK_clean_linker_0, # of connection points: 2
#     Edge 18, Type (0, 1), BuildingBlock: UVAHIK_clean_linker_0, # of connection points: 2
#     Edge 19, Type (0, 1), BuildingBlock: UVAHIK_clean_linker_0, # of connection points: 2
#     Edge 20, Type (0, 1), BuildingBlock: UVAHIK_clean_linker_0, # of connection points: 2
#     Edge 21, Type (0, 1), BuildingBlock: UVAHIK_clean_linker_0, # of connection points: 2
#     Edge 22, Type (0, 1), BuildingBlock: UVAHIK_clean_linker_0, # of connection points: 2
#     Edge 23, Type (0, 1), BuildingBlock: UVAHIK_clean_linker_0, # of connection points: 2
#     Edge 24, Type (0, 1), BuildingBlock: UVAHIK_clean_linker_0, # of connection points: 2
#     Edge 25, Type (0, 1), BuildingBlock: UVAHIK_clean_linker_0, # of connection points: 2
#     Edge 26, Type (0, 1), BuildingBlock: UVAHIK_clean_linker_0, # of connection points: 2
#     Edge 27, Type (0, 1), BuildingBlock: UVAHIK_clean_linker_0, # of connection points: 2
#     Edge 28, Type (0, 1), BuildingBlock: UVAHIK_clean_linker_0, # of connection points: 2
#     Edge 29, Type (0, 1), BuildingBlock: UVAHIK_clean_linker_0, # of connection points: 2
#     Edge 30, Type (0, 1), BuildingBlock: UVAHIK_clean_linker_0, # of connection points: 2
#     Edge 31, Type (0, 1), BuildingBlock: UVAHIK_clean_linker_0, # of connection points: 2
#     Edge 32, Type (0, 1), BuildingBlock: UVAHIK_clean_linker_0, # of connection points: 2
#     Edge 33, Type (0, 1), BuildingBlock: UVAHIK_clean_linker_0, # of connection points: 2
#     Edge 34, Type (0, 1), BuildingBlock: UVAHIK_clean_linker_0, # of connection points: 2
#     Edge 35, Type (0, 1), BuildingBlock: UVAHIK_clean_linker_0, # of connection points: 2
# Relax obj value: 0.009
# Max RMSD: 0.097
# Mean RMSD: 0.076
data_MOF--net-apo--node1-KUMBUR_clean_sbu_1--node2-ESEHIV_clean_linker_0--edge1-UVAHIK_clean_linker_0
_symmetry_space_group_name_H-M    P1
_symmetry_Int_Tables_number       1
_symmetry_cell_setting            triclinic
loop_
_symmetry_equiv_pos_as_xyz
'x, y, z'
_cell_length_a     29.470079
_cell_length_b     52.595736
_cell_length_c     64.335516
_cell_angle_alpha  90.055791
_cell_angle_beta   89.971898
_cell_angle_gamma 90.107185
loop_
_atom_site_label
_atom_site_type_symbol
_atom_site_fract_x
_atom_site_fract_y
_atom_site_fract_z
_atom_type_partial_charge
H0 H 0.32988 0.41567 0.43087 0.0
H1 H 0.25499 0.39202 0.37717 0.0
H2 H 0.25539 0.34518 0.43209 0.0
C3 C 0.30781 0.40193 0.42339 0.0
C4 C 0.29311 0.38026 0.43432 0.0
C5 C 0.2941 0.40612 0.40282 0.0
C6 C 0.26584 0.38837 0.39297 0.0
C7 C 0.25237 0.36591 0.40315 0.0
C8 C 0.26593 0.36218 0.42394 0.0
H9 H 0.17756 0.09061 0.93235 0.0
H10 H 0.24345 0.11811 0.87739 0.0
H11 H 0.25679 0.15948 0.93484 0.0
C12 C 0.19893 0.10466 0.92485 0.0
C13 C 0.21548 0.12556 0.93625 0.0
C14 C 0.20991 0.10165 0.90377 0.0
C15 C 0.2367 0.12005 0.89388 0.0
C16 C 0.25337 0.14125 0.90482 0.0
C17 C 0.24284 0.14371 0.92608 0.0
H18 H 0.83377 0.09074 0.57357 0.0
H19 H 0.77944 0.11702 0.63163 0.0
H20 H 0.76738 0.16332 0.57661 0.0
C21 C 0.81586 0.10509 0.58247 0.0
C22 C 0.80189 0.12764 0.57275 0.0
C23 C 0.80723 0.10111 0.60367 0.0
C24 C 0.78439 0.11989 0.61511 0.0
C25 C 0.7697 0.14256 0.60567 0.0
C26 C 0.77884 0.14624 0.58437 0.0
H27 H 0.6785 0.414 0.07435 0.0
H28 H 0.73115 0.38509 0.13214 0.0
H29 H 0.73742 0.3392 0.07692 0.0
C30 C 0.69494 0.39904 0.08313 0.0
C31 C 0.70687 0.37623 0.07314 0.0
C32 C 0.70368 0.40245 0.10445 0.0
C33 C 0.7247 0.38281 0.11565 0.0
C34 C 0.73714 0.36009 0.10578 0.0
C35 C 0.72815 0.35685 0.08454 0.0
H36 H 0.67582 0.58695 0.58227 0.0
H37 H 0.74312 0.65961 0.57715 0.0
H38 H 0.73946 0.62027 0.63572 0.0
C39 C 0.69485 0.60245 0.58919 0.0
C40 C 0.70589 0.60135 0.61036 0.0
C41 C 0.70774 0.6235 0.57703 0.0
C42 C 0.73295 0.64327 0.5863 0.0
C43 C 0.74506 0.64204 0.60742 0.0
C44 C 0.73097 0.62114 0.61934 0.0
H45 H 0.8336 0.91787 0.07785 0.0
H46 H 0.78185 0.88381 0.13349 0.0
H47 H 0.75602 0.84846 0.07427 0.0
C48 C 0.81433 0.90284 0.08527 0.0
C49 C 0.79637 0.88275 0.07331 0.0
C50 C 0.80887 0.9033 0.10693 0.0
C51 C 0.78531 0.88349 0.11673 0.0
C52 C 0.76577 0.8636 0.10515 0.0
C53 C 0.77169 0.86336 0.08342 0.0
H54 H 0.17106 0.91108 0.43318 0.0
H55 H 0.245 0.84054 0.43316 0.0
H56 H 0.22884 0.88301 0.3765 0.0
C57 C 0.18982 0.89651 0.42495 0.0
C58 C 0.19874 0.89961 0.40367 0.0
C59 C 0.20627 0.8752 0.43576 0.0
C60 C 0.23202 0.85691 0.42491 0.0
C61 C 0.24094 0.85958 0.4035 0.0
C62 C 0.22375 0.88099 0.39309 0.0
H63 H 0.33964 0.59469 0.93001 0.0
H64 H 0.27859 0.62522 0.87468 0.0
H65 H 0.26128 0.66341 0.93323 0.0
C66 C 0.31937 0.60908 0.92239 0.0
C67 C 0.30141 0.62921 0.93418 0.0
C68 C 0.3111 0.60736 0.90088 0.0
C69 C 0.28499 0.62636 0.89123 0.0
C70 C 0.26695 0.64676 0.9027 0.0
C71 C 0.27524 0.6479 0.92419 0.0
Tb72 Tb 0.05375 0.14275 0.24034 0.0
C73 C 0.86502 0.10344 0.26149 0.0
N74 N 0.87835 0.12786 0.2585 0.0
C75 C 0.816 0.13453 0.23522 0.0
C76 C 0.8278 0.09313 0.25066 0.0
C77 C 0.85343 0.14383 0.24628 0.0
C78 C 0.80351 0.10897 0.23719 0.0
C79 C 0.87543 0.0638 0.27985 0.0
C80 C 0.88866 0.08906 0.27575 0.0
C81 C 0.83963 0.05291 0.26845 0.0
C82 C 0.81581 0.06757 0.25388 0.0
Tb83 Tb 0.94106 0.141 0.27634 0.0
N84 N 0.9227 0.10044 0.28653 0.0
C85 C 0.89748 0.05064 0.2958 0.0
C86 C 0.94111 0.08849 0.30338 0.0
C87 C 0.92982 0.06324 0.3079 0.0
H88 H 0.86311 0.16356 0.24475 0.0
H89 H 0.94554 0.05367 0.32092 0.0
H90 H 0.12222 0.1009 0.26464 0.0
H91 H 0.08573 0.23931 0.21717 0.0
H92 H 0.96407 0.09846 0.31361 0.0
H93 H 0.8884 0.03118 0.29946 0.0
H94 H 0.04555 0.19789 0.21691 0.0
H95 H 0.79691 0.14705 0.22517 0.0
H96 H 0.82928 0.03342 0.2712 0.0
H97 H 0.78763 0.05913 0.24553 0.0
H98 H 0.18804 0.10281 0.2879 0.0
H99 H 0.77463 0.1018 0.22855 0.0
H100 H 0.15153 0.24584 0.24053 0.0
N101 N 0.11742 0.14115 0.26095 0.0
C102 C 0.13971 0.16362 0.26346 0.0
C103 C 0.17428 0.12016 0.28146 0.0
C104 C 0.17909 0.16543 0.27582 0.0
C105 C 0.13596 0.11927 0.26865 0.0
C106 C 0.19547 0.14342 0.28539 0.0
N107 N 0.08735 0.18176 0.24032 0.0
C108 C 0.07396 0.20077 0.22726 0.0
C109 C 0.1487 0.20769 0.25313 0.0
C110 C 0.12481 0.1845 0.25239 0.0
C111 C 0.13399 0.22772 0.24048 0.0
C112 C 0.09679 0.22412 0.2273 0.0
H113 H 0.22559 0.14399 0.29503 0.0
H114 H 0.2319 0.19068 0.2871 0.0
H115 H 0.20531 0.2277 0.26714 0.0
O116 O 0.05154 0.14332 0.20755 0.0
O117 O 0.03605 0.17498 0.26081 0.0
O118 O 0.00481 0.1553 0.28896 0.0
O119 O 0.10906 0.12807 0.22355 0.0
O120 O 0.99208 0.15961 0.22706 0.0
O121 O 0.94818 0.17352 0.25507 0.0
O122 O 0.90309 0.14135 0.30418 0.0
O123 O 0.94067 0.1255 0.24455 0.0
O124 O 0.01142 0.10849 0.23976 0.0
O125 O 0.90742 0.17451 0.28498 0.0
O126 O 0.00432 0.12478 0.2889 0.0
O127 O 0.0439 0.10932 0.26051 0.0
C128 C 0.02756 0.17422 0.28085 0.0
C129 C 0.12299 0.14868 0.19154 0.0
C130 C 0.14786 0.15882 0.15623 0.0
C131 C 0.1798 0.17596 0.1645 0.0
C132 C 0.15592 0.16544 0.19941 0.0
C133 C 0.18379 0.17916 0.18595 0.0
C134 C 0.11932 0.14528 0.16991 0.0
C135 C 0.96109 0.17464 0.23539 0.0
C136 C 0.0925 0.13455 0.20563 0.0
C137 C 0.20182 0.18886 0.27753 0.0
C138 C 0.18677 0.20994 0.26613 0.0
C139 C 0.96721 0.10759 0.23732 0.0
C140 C 0.90701 0.18115 0.32146 0.0
C141 C 0.90838 0.18687 0.35934 0.0
C142 C 0.92823 0.21099 0.35639 0.0
C143 C 0.92726 0.20522 0.31911 0.0
C144 C 0.8978 0.17208 0.34164 0.0
C145 C 0.9378 0.21993 0.33647 0.0
C146 C 0.03179 0.10809 0.28023 0.0
C147 C 0.89526 0.16558 0.30298 0.0
H148 H 0.20253 0.18642 0.1544 0.0
H149 H 0.16048 0.16784 0.21593 0.0
H150 H 0.20896 0.1921 0.19217 0.0
H151 H 0.09421 0.1322 0.16376 0.0
H152 H 0.93585 0.22327 0.36944 0.0
H153 H 0.93504 0.21278 0.30386 0.0
H154 H 0.8829 0.15337 0.34349 0.0
H155 H 0.95326 0.23846 0.33446 0.0
Tb156 Tb 0.45387 0.35967 0.73852 0.0
C157 C 0.63844 0.40298 0.76268 0.0
N158 N 0.62704 0.37827 0.75971 0.0
C159 C 0.69162 0.37263 0.73751 0.0
C160 C 0.67575 0.41396 0.75236 0.0
C161 C 0.65401 0.36268 0.74805 0.0
C162 C 0.70216 0.39848 0.73942 0.0
C163 C 0.62415 0.44251 0.7807 0.0
C164 C 0.6129 0.41697 0.7765 0.0
C165 C 0.65995 0.45407 0.76973 0.0
C166 C 0.68575 0.43979 0.75559 0.0
Tb167 Tb 0.56341 0.36413 0.77636 0.0
N168 N 0.579 0.40494 0.78687 0.0
C169 C 0.60021 0.45528 0.79632 0.0
C170 C 0.55873 0.41655 0.80346 0.0
C171 C 0.56801 0.44205 0.80805 0.0
H172 H 0.64577 0.34274 0.74651 0.0
H173 H 0.55077 0.45136 0.82081 0.0
H174 H 0.38105 0.40083 0.76105 0.0
H175 H 0.43257 0.26059 0.71979 0.0
H176 H 0.53564 0.40615 0.81333 0.0
H177 H 0.60771 0.47494 0.80003 0.0
H178 H 0.46753 0.30335 0.71718 0.0
H179 H 0.71233 0.3604 0.72787 0.0
H180 H 0.66878 0.47378 0.77253 0.0
H181 H 0.71393 0.44874 0.7476 0.0
H182 H 0.31536 0.39823 0.78441 0.0
H183 H 0.73117 0.40616 0.73118 0.0
H184 H 0.36782 0.25346 0.74366 0.0
N185 N 0.38948 0.3606 0.75871 0.0
C186 C 0.36943 0.33766 0.76212 0.0
C187 C 0.33074 0.38098 0.77856 0.0
C188 C 0.33055 0.33533 0.77475 0.0
C189 C 0.3689 0.38231 0.76565 0.0
C190 C 0.31199 0.35735 0.78347 0.0
N191 N 0.42374 0.31975 0.73976 0.0
C192 C 0.4394 0.30027 0.72766 0.0
C193 C 0.36566 0.29263 0.75403 0.0
C194 C 0.38654 0.31659 0.75194 0.0
C195 C 0.38295 0.2722 0.74252 0.0
C196 C 0.41958 0.27614 0.72906 0.0
H197 H 0.28214 0.3564 0.79328 0.0
H198 H 0.28108 0.30907 0.78755 0.0
H199 H 0.31193 0.27164 0.76939 0.0
O200 O 0.45764 0.35798 0.70579 0.0
O201 O 0.47403 0.32887 0.75979 0.0
O202 O 0.4993 0.34978 0.78851 0.0
O203 O 0.39801 0.37204 0.72088 0.0
O204 O 0.51724 0.34374 0.72619 0.0
O205 O 0.56071 0.33138 0.75487 0.0
O206 O 0.59995 0.3644 0.80458 0.0
O207 O 0.56565 0.3786 0.74438 0.0
O208 O 0.49482 0.3945 0.73746 0.0
O209 O 0.59592 0.33069 0.78594 0.0
O210 O 0.49842 0.3802 0.78717 0.0
O211 O 0.46025 0.39414 0.75787 0.0
C212 C 0.47708 0.33091 0.78003 0.0
C213 C 0.38777 0.35046 0.68897 0.0
C214 C 0.36381 0.34032 0.65351 0.0
C215 C 0.33478 0.32145 0.6615 0.0
C216 C 0.35784 0.33187 0.69657 0.0
C217 C 0.33183 0.31734 0.68288 0.0
C218 C 0.39045 0.35473 0.66742 0.0
C219 C 0.54885 0.3296 0.73505 0.0
C220 C 0.41615 0.36563 0.70325 0.0
C221 C 0.31067 0.31128 0.7777 0.0
C222 C 0.32813 0.28997 0.76732 0.0
C223 C 0.53929 0.39609 0.73645 0.0
C224 C 0.59281 0.32527 0.82249 0.0
C225 C 0.59068 0.32004 0.86038 0.0
C226 C 0.56592 0.29734 0.8576 0.0
C227 C 0.56749 0.30272 0.8203 0.0
C228 C 0.60409 0.33387 0.84258 0.0
C229 C 0.55419 0.28894 0.83775 0.0
C230 C 0.47144 0.39642 0.77765 0.0
C231 C 0.60696 0.34004 0.80396 0.0
H232 H 0.31348 0.31027 0.65125 0.0
H233 H 0.35417 0.32867 0.71305 0.0
H234 H 0.30892 0.30301 0.68889 0.0
H235 H 0.41335 0.36917 0.66151 0.0
H236 H 0.55594 0.28577 0.87074 0.0
H237 H 0.55787 0.29565 0.80511 0.0
H238 H 0.62266 0.35154 0.84427 0.0
H239 H 0.53486 0.27156 0.83587 0.0
Tb240 Tb 0.05801 0.85777 0.73884 0.0
C241 C 0.85983 0.83496 0.75365 0.0
N242 N 0.87802 0.85868 0.75227 0.0
C243 C 0.81921 0.87121 0.7287 0.0
C244 C 0.82111 0.82822 0.74205 0.0
C245 C 0.85805 0.87695 0.74029 0.0
C246 C 0.80077 0.84672 0.7295 0.0
C247 C 0.86414 0.79227 0.76761 0.0
C248 C 0.88167 0.81717 0.76605 0.0
C249 C 0.82586 0.78532 0.75588 0.0
C250 C 0.80441 0.80324 0.74313 0.0
Tb251 Tb 0.941 0.86598 0.77191 0.0
N252 N 0.91916 0.82447 0.77697 0.0
C253 C 0.88485 0.77531 0.78136 0.0
C254 C 0.9361 0.80876 0.792 0.0
C255 C 0.92033 0.78378 0.79393 0.0
H256 H 0.87234 0.89587 0.73961 0.0
H257 H 0.9348 0.77129 0.80552 0.0
H258 H 0.11777 0.81566 0.76585 0.0
H259 H 0.09869 0.95224 0.71097 0.0
H260 H 0.96035 0.81548 0.80322 0.0
H261 H 0.8724 0.75602 0.78305 0.0
H262 H 0.05262 0.9136 0.71366 0.0
H263 H 0.80364 0.88564 0.71908 0.0
H264 H 0.81219 0.76621 0.75677 0.0
H265 H 0.77484 0.79761 0.73423 0.0
H266 H 0.19098 0.81449 0.78438 0.0
H267 H 0.77094 0.84228 0.72035 0.0
H268 H 0.1728 0.95487 0.72885 0.0
N269 N 0.1256 0.8539 0.75585 0.0
C270 C 0.15393 0.87425 0.75448 0.0
C271 C 0.18078 0.83153 0.77621 0.0
C272 C 0.19655 0.87426 0.76441 0.0
C273 C 0.13885 0.83242 0.76607 0.0
C274 C 0.20966 0.85259 0.77549 0.0
N275 N 0.09757 0.8949 0.73458 0.0
C276 C 0.08359 0.91465 0.7224 0.0
C277 C 0.16763 0.91706 0.74191 0.0
C278 C 0.13954 0.89541 0.74343 0.0
C279 C 0.15224 0.93789 0.73042 0.0
C280 C 0.11028 0.93654 0.72043 0.0
H281 H 0.24214 0.85184 0.78335 0.0
H282 H 0.25732 0.89626 0.77063 0.0
H283 H 0.23205 0.9337 0.75089 0.0
O284 O 0.06137 0.85596 0.70556 0.0
O285 O 0.06337 0.88303 0.76608 0.0
O286 O 0.99122 0.89583 0.77708 0.0
O287 O 0.10386 0.83253 0.72554 0.0
O288 O 0.00283 0.88044 0.72503 0.0
O289 O 0.95943 0.89795 0.75188 0.0
O290 O 0.91689 0.86509 0.80309 0.0
O291 O 0.94078 0.85007 0.74026 0.0
O292 O 0.00668 0.82794 0.7405 0.0
O293 O 0.89103 0.89236 0.78073 0.0
O294 O 0.00063 0.85024 0.78806 0.0
O295 O 0.03583 0.82927 0.76129 0.0
C296 C 0.03585 0.89777 0.77688 0.0
C297 C 0.11438 0.82553 0.68889 0.0
C298 C 0.13036 0.82113 0.65174 0.0
C299 C 0.15536 0.79899 0.65602 0.0
C300 C 0.13956 0.8033 0.69262 0.0
C301 C 0.1599 0.79021 0.6763 0.0
C302 C 0.11002 0.83453 0.66834 0.0
C303 C 0.97521 0.89795 0.73267 0.0
C304 C 0.09272 0.83853 0.7067 0.0
C305 C 0.2245 0.89586 0.76306 0.0
C306 C 0.21009 0.91719 0.75183 0.0
C307 C 0.96561 0.83126 0.73341 0.0
C308 C 0.85795 0.89454 0.81527 0.0
C309 C 0.83003 0.89771 0.85103 0.0
C310 C 0.79672 0.91492 0.84426 0.0
C311 C 0.82441 0.91185 0.809 0.0
C312 C 0.86087 0.88762 0.83641 0.0
C313 C 0.79409 0.92196 0.82342 0.0
C314 C 0.03058 0.83369 0.78122 0.0
C315 C 0.88906 0.88372 0.79956 0.0
H316 H 0.17199 0.78857 0.64365 0.0
H317 H 0.14345 0.79586 0.70821 0.0
H318 H 0.17929 0.77316 0.67939 0.0
H319 H 0.09063 0.85159 0.66524 0.0
H320 H 0.77297 0.92321 0.85518 0.0
H321 H 0.82137 0.91751 0.79287 0.0
H322 H 0.88654 0.87425 0.84145 0.0
H323 H 0.76839 0.93529 0.81842 0.0
Tb324 Tb 0.44936 0.64259 0.23598 0.0
C325 C 0.66002 0.6514 0.2585 0.0
N326 N 0.63202 0.63088 0.25934 0.0
C327 C 0.69108 0.60431 0.24574 0.0
C328 C 0.70481 0.6492 0.25104 0.0
C329 C 0.64693 0.60743 0.2533 0.0
C330 C 0.72014 0.62528 0.24458 0.0
C331 C 0.67094 0.69671 0.26372 0.0
C332 C 0.64325 0.67487 0.26471 0.0
C333 C 0.71575 0.69458 0.25647 0.0
C334 C 0.73262 0.6709 0.25012 0.0
Tb335 Tb 0.56115 0.6385 0.27206 0.0
N336 N 0.59905 0.67639 0.27076 0.0
C337 C 0.65257 0.72006 0.26983 0.0
C338 C 0.58153 0.69896 0.27748 0.0
C339 C 0.60778 0.72114 0.27687 0.0
H340 H 0.62524 0.59098 0.25483 0.0
H341 H 0.59353 0.73903 0.28199 0.0
H342 H 0.37589 0.67186 0.26662 0.0
H343 H 0.44708 0.54891 0.20047 0.0
H344 H 0.54769 0.70008 0.28357 0.0
H345 H 0.67271 0.7373 0.26931 0.0
H346 H 0.47211 0.59312 0.20423 0.0
H347 H 0.70277 0.5857 0.24098 0.0
H348 H 0.73753 0.71116 0.25557 0.0
H349 H 0.76715 0.66959 0.24444 0.0
H350 H 0.30531 0.66101 0.28546 0.0
H351 H 0.75433 0.6228 0.23872 0.0
H352 H 0.38253 0.53292 0.22129 0.0
N353 N 0.38407 0.6348 0.25395 0.0
C354 C 0.36633 0.61106 0.25185 0.0
C355 C 0.32227 0.64676 0.27614 0.0
C356 C 0.32631 0.604 0.26236 0.0
C357 C 0.36234 0.65282 0.26557 0.0
C358 C 0.30429 0.62221 0.27462 0.0
N359 N 0.42798 0.60129 0.22965 0.0
C360 C 0.4466 0.58603 0.21471 0.0
C361 C 0.3724 0.56873 0.23724 0.0
C362 C 0.38956 0.59361 0.23966 0.0
C363 C 0.39463 0.55218 0.22362 0.0
C364 C 0.43129 0.56107 0.21196 0.0
H365 H 0.27343 0.61753 0.28296 0.0
H366 H 0.27945 0.57313 0.2686 0.0
H367 H 0.31953 0.54231 0.24644 0.0
O368 O 0.43442 0.64288 0.20352 0.0
O369 O 0.44622 0.62601 0.26748 0.0
O370 O 0.51461 0.60611 0.27144 0.0
O371 O 0.39758 0.66655 0.22546 0.0
O372 O 0.51159 0.62556 0.22288 0.0
O373 O 0.5461 0.60678 0.2512 0.0
O374 O 0.55745 0.64515 0.30429 0.0
O375 O 0.56867 0.65978 0.24278 0.0
O376 O 0.49736 0.67416 0.23332 0.0
O377 O 0.60651 0.61921 0.29168 0.0
O378 O 0.50204 0.65956 0.28391 0.0
O379 O 0.46266 0.67566 0.25561 0.0
C380 C 0.47077 0.60732 0.27486 0.0
C381 C 0.37416 0.6704 0.18954 0.0
C382 C 0.35452 0.67516 0.15282 0.0
C383 C 0.32175 0.69334 0.15837 0.0
C384 C 0.34101 0.68858 0.19461 0.0
C385 C 0.31499 0.69989 0.17911 0.0
C386 C 0.3805 0.66351 0.16855 0.0
C387 C 0.53961 0.60874 0.23102 0.0
C388 C 0.40263 0.65967 0.20627 0.0
C389 C 0.30996 0.57901 0.26051 0.0
C390 C 0.33295 0.56142 0.24798 0.0
C391 C 0.54181 0.67427 0.23154 0.0
C392 C 0.57837 0.61037 0.32518 0.0
C393 C 0.57921 0.59937 0.36207 0.0
C394 C 0.558 0.5761 0.35723 0.0
C395 C 0.55801 0.58691 0.32067 0.0
C396 C 0.58901 0.61652 0.34585 0.0
C397 C 0.54756 0.56996 0.33665 0.0
C398 C 0.47312 0.67563 0.27549 0.0
C399 C 0.58889 0.62858 0.30852 0.0
H400 H 0.30094 0.70234 0.14661 0.0
H401 H 0.3353 0.69425 0.21059 0.0
H402 H 0.28958 0.71387 0.18319 0.0
H403 H 0.40609 0.64962 0.16441 0.0
H404 H 0.55042 0.56238 0.36929 0.0
H405 H 0.55067 0.58167 0.30479 0.0
H406 H 0.60471 0.6347 0.34929 0.0
H407 H 0.53179 0.55188 0.33306 0.0
C408 C 0.13706 0.93043 0.39425 0.0
C409 C 0.18225 0.92233 0.39232 0.0
C410 C 0.1212 0.95108 0.38265 0.0
C411 C 0.14877 0.98888 0.33554 0.0
H412 H 0.0601 0.03564 0.35824 0.0
C413 C 0.05845 0.09126 0.31443 0.0
C414 C 0.05038 0.08743 0.29316 0.0
C415 C 0.07503 0.07147 0.32675 0.0
C416 C 0.08523 0.02293 0.35171 0.0
H417 H 0.24676 0.93007 0.37743 0.0
H418 H 0.21959 0.96641 0.3576 0.0
H419 H 0.08899 1.00126 0.37979 0.0
H420 H 0.05323 0.0601 0.26801 0.0
H421 H 0.08124 0.02535 0.28952 0.0
H422 H 0.14621 0.01099 0.30772 0.0
C423 C 0.19588 0.95642 0.36755 0.0
C424 C 0.10134 0.00296 0.364 0.0
C425 C 0.21155 0.93567 0.37898 0.0
C426 C 0.0595 0.06357 0.28436 0.0
C427 C 0.07571 0.04371 0.2967 0.0
C428 C 0.13294 0.00893 0.32332 0.0
C429 C 0.15034 0.96422 0.36901 0.0
C430 C 0.13329 0.98565 0.35606 0.0
C431 C 0.08367 0.04739 0.31807 0.0
C432 C 0.10086 0.02619 0.33121 0.0
H433 H 0.11365 0.92035 0.4043 0.0
H434 H 0.08581 0.95631 0.384 0.0
H435 H 0.17284 0.97574 0.32876 0.0
H436 H 0.05211 0.1096 0.32152 0.0
H437 H 0.08152 0.07516 0.34304 0.0
C438 C 0.34528 0.58932 0.86814 0.0
C439 C 0.32904 0.58559 0.88848 0.0
C440 C 0.36028 0.56878 0.85618 0.0
C441 C 0.35314 0.49827 0.85271 0.0
H442 H 0.45425 0.50664 0.81471 0.0
C443 C 0.44167 0.41422 0.81101 0.0
C444 C 0.45172 0.41748 0.78984 0.0
C445 C 0.42536 0.43454 0.82285 0.0
C446 C 0.42569 0.5041 0.82511 0.0
H447 H 0.31633 0.55711 0.91217 0.0
H448 H 0.3442 0.52151 0.89167 0.0
H449 H 0.43014 0.54236 0.83619 0.0
H450 H 0.45176 0.44424 0.76429 0.0
H451 H 0.42359 0.47994 0.78504 0.0
H452 H 0.34953 0.45977 0.84185 0.0
C453 C 0.34438 0.54027 0.88475 0.0
C454 C 0.41176 0.52458 0.83742 0.0
C455 C 0.32901 0.56079 0.89666 0.0
C456 C 0.4443 0.44127 0.7806 0.0
C457 C 0.42852 0.4617 0.79249 0.0
C458 C 0.3674 0.47772 0.84055 0.0
C459 C 0.3599 0.54394 0.86428 0.0
C460 C 0.37519 0.52199 0.85136 0.0
C461 C 0.41915 0.45858 0.81378 0.0
C462 C 0.40373 0.48044 0.82658 0.0
H463 H 0.34647 0.60816 0.8614 0.0
H464 H 0.37147 0.57239 0.84042 0.0
H465 H 0.32434 0.49563 0.86294 0.0
H466 H 0.44681 0.39598 0.81845 0.0
H467 H 0.41866 0.4316 0.83922 0.0
C468 C 0.70112 0.55468 0.61775 0.0
C469 C 0.69061 0.57977 0.62333 0.0
C470 C 0.68767 0.53443 0.63042 0.0
C471 C 0.64483 0.52022 0.68394 0.0
H472 H 0.61024 0.456 0.65882 0.0
C473 C 0.54118 0.44138 0.72526 0.0
C474 C 0.55971 0.41686 0.72435 0.0
C475 C 0.56037 0.46112 0.71369 0.0
C476 C 0.62019 0.47379 0.66602 0.0
H477 H 0.657 0.60351 0.64608 0.0
H478 H 0.63159 0.56828 0.66771 0.0
H479 H 0.63622 0.49078 0.63678 0.0
H480 H 0.61233 0.39349 0.71069 0.0
H481 H 0.64527 0.42799 0.68995 0.0
H482 H 0.62656 0.50329 0.7131 0.0
C483 C 0.65169 0.56406 0.65405 0.0
C484 C 0.63532 0.49372 0.65343 0.0
C485 C 0.66588 0.58429 0.64159 0.0
C486 C 0.59766 0.41232 0.7117 0.0
C487 C 0.61632 0.43195 0.69981 0.0
C488 C 0.62887 0.50043 0.69645 0.0
C489 C 0.66266 0.53883 0.64875 0.0
C490 C 0.64769 0.51728 0.6622 0.0
C491 C 0.59775 0.45649 0.70069 0.0
C492 C 0.61631 0.4771 0.68758 0.0
H493 H 0.72054 0.5508 0.6038 0.0
H494 H 0.6975 0.51537 0.62595 0.0
H495 H 0.65505 0.53779 0.69137 0.0
H496 H 0.51207 0.4453 0.73503 0.0
H497 H 0.54539 0.47989 0.71453 0.0
C498 C 0.8535 0.92003 0.13711 0.0
C499 C 0.82675 0.92472 0.11949 0.0
C500 C 0.86789 0.94008 0.14977 0.0
C501 C 0.87895 0.01087 0.15142 0.0
H502 H 0.889 0.99887 0.21071 0.0
C503 C 0.91044 0.09106 0.21175 0.0
C504 C 0.94772 0.08675 0.22486 0.0
C505 C 0.89347 0.07146 0.19924 0.0
C506 C 0.88638 0.00244 0.19418 0.0
H507 H 0.79398 0.95392 0.10123 0.0
H508 H 0.81765 0.98895 0.12366 0.0
H509 H 0.86394 0.96457 0.18791 0.0
H510 H 0.99572 0.05861 0.2357 0.0
H511 H 0.96547 0.02416 0.21412 0.0
H512 H 0.90033 0.04905 0.15799 0.0
C513 C 0.82878 0.96992 0.12748 0.0
C514 C 0.87238 0.98275 0.18103 0.0
C515 C 0.81504 0.94987 0.11462 0.0
C516 C 0.96709 0.06241 0.22562 0.0
C517 C 0.94964 0.04271 0.21341 0.0
C518 C 0.89221 0.03067 0.16463 0.0
C519 C 0.85517 0.96531 0.14534 0.0
C520 C 0.86895 0.98658 0.15941 0.0
C521 C 0.91306 0.04714 0.1999 0.0
C522 C 0.89649 0.02656 0.18609 0.0
H523 H 0.86328 0.90079 0.14108 0.0
H524 H 0.88909 0.93573 0.16303 0.0
H525 H 0.87749 0.01455 0.13488 0.0
H526 H 0.89516 0.10973 0.2108 0.0
H527 H 0.86507 0.0753 0.18904 0.0
C528 C 0.79299 0.06355 0.62661 0.0
C529 C 0.82303 0.07773 0.61427 0.0
C530 C 0.80844 0.04264 0.63795 0.0
C531 C 0.90733 0.99879 0.64438 0.0
H532 H 0.85391 0.98881 0.69883 0.0
C533 C 0.95722 0.91388 0.69688 0.0
C534 C 0.95832 0.91793 0.71847 0.0
C535 C 0.94015 0.93257 0.68356 0.0
C536 C 0.86969 0.99144 0.68378 0.0
H537 H 0.89259 0.08107 0.60381 0.0
H538 H 0.92017 0.04511 0.62413 0.0
H539 H 0.82618 0.02264 0.67674 0.0
H540 H 0.94339 0.94493 0.74298 0.0
H541 H 0.91527 0.97783 0.71981 0.0
H542 H 0.9525 0.9684 0.65195 0.0
C543 C 0.88435 0.04959 0.6247 0.0
C544 C 0.85312 0.01065 0.67088 0.0
C545 C 0.86867 0.07029 0.61309 0.0
C546 C 0.94256 0.94115 0.72643 0.0
C547 C 0.92612 0.95997 0.7131 0.0
C548 C 0.92433 0.97977 0.65742 0.0
C549 C 0.85455 0.03566 0.63752 0.0
C550 C 0.87169 0.01465 0.65099 0.0
C551 C 0.92431 0.9559 0.69148 0.0
C552 C 0.90584 0.97587 0.67735 0.0
H553 H 0.7575 0.06876 0.62759 0.0
H554 H 0.78415 0.03205 0.64716 0.0
H555 H 0.92217 1.001 0.62909 0.0
H556 H 0.96878 0.89607 0.69029 0.0
H557 H 0.93868 0.9285 0.66707 0.0
C558 C 0.72018 0.43851 0.12881 0.0
C559 C 0.68995 0.42616 0.11527 0.0
C560 C 0.70647 0.45991 0.14005 0.0
C561 C 0.61563 0.50911 0.14362 0.0
H562 H 0.65824 0.51442 0.20045 0.0
C563 C 0.569 0.59461 0.19632 0.0
C564 C 0.55994 0.58928 0.21729 0.0
C565 C 0.58701 0.57583 0.18328 0.0
C566 C 0.64566 0.51316 0.18467 0.0
H567 H 0.62181 0.42665 0.1027 0.0
H568 H 0.59733 0.46362 0.12268 0.0
H569 H 0.68444 0.47969 0.17872 0.0
H570 H 0.56167 0.56007 0.24101 0.0
H571 H 0.59213 0.52727 0.21833 0.0
H572 H 0.57518 0.54198 0.14996 0.0
C573 C 0.63203 0.45721 0.1243 0.0
C574 C 0.66129 0.4934 0.17206 0.0
C575 C 0.64597 0.43595 0.11288 0.0
C576 C 0.56907 0.56486 0.22499 0.0
C577 C 0.58668 0.54606 0.21196 0.0
C578 C 0.59968 0.52879 0.15632 0.0
C579 C 0.66195 0.46932 0.13823 0.0
C580 C 0.64636 0.49101 0.15137 0.0
C581 C 0.59595 0.55126 0.19093 0.0
C582 C 0.61424 0.53097 0.17707 0.0
H583 H 0.75451 0.43157 0.13074 0.0
H584 H 0.73081 0.46903 0.15024 0.0
H585 H 0.6038 0.50812 0.12771 0.0
H586 H 0.56233 0.61332 0.19002 0.0
H587 H 0.59424 0.58065 0.16726 0.0
C588 C 0.27952 0.44546 0.382 0.0
C589 C 0.31041 0.42865 0.39123 0.0
C590 C 0.29504 0.46609 0.37025 0.0
C591 C 0.40046 0.50328 0.35784 0.0
H592 H 0.33002 0.52468 0.31004 0.0
C593 C 0.4694 0.56322 0.28922 0.0
C594 C 0.44913 0.58729 0.28757 0.0
C595 C 0.45068 0.54466 0.30216 0.0
C596 C 0.34977 0.51892 0.32343 0.0
H597 H 0.38148 0.41988 0.39539 0.0
H598 H 0.40882 0.45502 0.37415 0.0
H599 H 0.30148 0.4906 0.33226 0.0
H600 H 0.39272 0.61057 0.29776 0.0
H601 H 0.35846 0.57742 0.31954 0.0
H602 H 0.4498 0.53088 0.3481 0.0
C603 C 0.37262 0.4531 0.3765 0.0
C604 C 0.33339 0.49953 0.3363 0.0
C605 C 0.35705 0.43281 0.3886 0.0
C606 C 0.40877 0.5921 0.29853 0.0
C607 C 0.38936 0.57327 0.31107 0.0
C608 C 0.41721 0.52225 0.3447 0.0
C609 C 0.34186 0.47005 0.36709 0.0
C610 C 0.35857 0.49133 0.35369 0.0
C611 C 0.41067 0.54959 0.31323 0.0
C612 C 0.39204 0.53014 0.3274 0.0
H613 H 0.24333 0.44266 0.38394 0.0
H614 H 0.2702 0.47893 0.36371 0.0
H615 H 0.42045 0.49808 0.37128 0.0
H616 H 0.50007 0.5588 0.28068 0.0
H617 H 0.46741 0.52641 0.30352 0.0
C618 C 0.14739 0.0725 0.89221 0.0
C619 C 0.19344 0.07932 0.8919 0.0
C620 C 0.13174 0.05208 0.88024 0.0
C621 C 0.16425 0.01165 0.83509 0.0
H622 H 0.06501 0.96956 0.85474 0.0
C623 C 0.10299 0.91988 0.79319 0.0
C624 C 0.05588 0.91818 0.78996 0.0
C625 C 0.12125 0.93904 0.80577 0.0
C626 C 0.09265 0.98124 0.84904 0.0
H627 H 0.25953 0.06973 0.87946 0.0
H628 H 0.2327 0.03358 0.85913 0.0
H629 H 0.09445 0.0034 0.87689 0.0
H630 H 0.99102 0.93541 0.79778 0.0
H631 H 0.02289 0.96832 0.81996 0.0
H632 H 0.16274 0.98898 0.80737 0.0
C633 C 0.20824 0.04441 0.86803 0.0
C634 C 0.10941 1.00073 0.86167 0.0
C635 C 0.22372 0.06503 0.87976 0.0
C636 C 0.02748 0.93599 0.79984 0.0
C637 C 0.04566 0.95487 0.81264 0.0
C638 C 0.14786 0.99192 0.82258 0.0
C639 C 0.16195 0.03779 0.86793 0.0
C640 C 0.14515 0.01639 0.85479 0.0
C641 C 0.09268 0.9566 0.81572 0.0
C642 C 0.11159 0.97671 0.82935 0.0
H643 H 0.12329 0.08339 0.90128 0.0
H644 H 0.09576 0.04789 0.88032 0.0
H645 H 0.19125 0.02354 0.82906 0.0
H646 H 0.12582 0.90621 0.78635 0.0
H647 H 0.15764 0.93981 0.80807 0.0
C648 C 0.1952 0.1523 0.9674 0.0
C649 C 0.20451 0.12829 0.95877 0.0
C650 C 0.18519 0.15484 0.98856 0.0
C651 C 0.1974 0.12127 0.03898 0.0
H652 H 0.10931 0.17095 0.05772 0.0
C653 C 0.14515 0.12979 0.12524 0.0
C654 C 0.14587 0.15458 0.13342 0.0
C655 C 0.14799 0.12579 0.10377 0.0
C656 C 0.13412 0.15706 0.05271 0.0
H657 H 0.21077 0.08811 0.96583 0.0
H658 H 0.19183 0.09241 1.00245 0.0
H659 H 0.12298 0.16542 0.02057 0.0
H660 H 0.14791 0.1946 0.12548 0.0
H661 H 0.15275 0.18764 0.08802 0.0
H662 H 0.2084 0.1129 0.07114 0.0
C663 C 0.19297 0.10938 0.99296 0.0
C664 C 0.14213 0.15395 0.03142 0.0
C665 C 0.20325 0.10687 0.97184 0.0
C666 C 0.14769 0.17528 0.11963 0.0
C667 C 0.1501 0.17129 0.09818 0.0
C668 C 0.18914 0.12426 0.06024 0.0
C669 C 0.18399 0.13341 1.00164 0.0
C670 C 0.17419 0.13616 0.02427 0.0
C671 C 0.15112 0.1465 0.09002 0.0
C672 C 0.1577 0.14233 0.06736 0.0
H673 H 0.19531 0.16919 0.95778 0.0
H674 H 0.17904 0.17369 0.99471 0.0
H675 H 0.22289 0.1077 0.03412 0.0
H676 H 0.14406 0.11347 0.13548 0.0
H677 H 0.14824 0.10647 0.09793 0.0
C678 C 0.30571 0.39767 0.4703 0.0
C679 C 0.30555 0.37679 0.45661 0.0
C680 C 0.31618 0.39448 0.49133 0.0
C681 C 0.36905 0.34943 0.52873 0.0
H682 H 0.29905 0.38742 0.56923 0.0
C683 C 0.3652 0.32508 0.61649 0.0
C684 C 0.36482 0.34535 0.63076 0.0
C685 C 0.36231 0.32967 0.59512 0.0
C686 C 0.31935 0.37692 0.55813 0.0
H687 H 0.31734 0.33617 0.45441 0.0
H688 H 0.33412 0.33046 0.49119 0.0
H689 H 0.28502 0.39372 0.53232 0.0
H690 H 0.3621 0.38637 0.63374 0.0
H691 H 0.35726 0.39441 0.59639 0.0
H692 H 0.4026 0.33222 0.5547 0.0
C693 C 0.3268 0.34943 0.48559 0.0
C694 C 0.31134 0.38054 0.53692 0.0
C695 C 0.31654 0.35264 0.46452 0.0
C696 C 0.36275 0.37036 0.62314 0.0
C697 C 0.35952 0.37495 0.60177 0.0
C698 C 0.37686 0.3457 0.54997 0.0
C699 C 0.32652 0.37029 0.49931 0.0
C700 C 0.33595 0.36678 0.52192 0.0
C701 C 0.35867 0.35463 0.58752 0.0
C702 C 0.35197 0.35934 0.56492 0.0
H703 H 0.29695 0.41651 0.46486 0.0
H704 H 0.31623 0.41106 0.50132 0.0
H705 H 0.3892 0.33881 0.51766 0.0
H706 H 0.36719 0.30561 0.62187 0.0
H707 H 0.36145 0.3136 0.5846 0.0
C708 C 0.71369 0.38858 0.03566 0.0
C709 C 0.69584 0.37233 0.05094 0.0
C710 C 0.70322 0.38472 0.01466 0.0
C711 C 0.61649 0.36183 0.98025 0.0
H712 H 0.71096 0.34515 0.9406 0.0
C713 C 0.57263 0.32446 0.89852 0.0
C714 C 0.60234 0.32903 0.8818 0.0
C715 C 0.5843 0.33154 0.91876 0.0
C716 C 0.68411 0.35032 0.95127 0.0
H717 H 0.65272 0.33968 0.05652 0.0
H718 H 0.63302 0.33348 0.01979 0.0
H719 H 0.73103 0.35471 0.97657 0.0
H720 H 0.6676 0.34539 0.87354 0.0
H721 H 0.68657 0.35919 0.90851 0.0
H722 H 0.56953 0.35846 0.95516 0.0
C723 C 0.65563 0.34889 0.02405 0.0
C724 C 0.69574 0.3556 0.97192 0.0
C725 C 0.66698 0.35237 0.04496 0.0
C726 C 0.64351 0.34169 0.88588 0.0
C727 C 0.65481 0.34925 0.90612 0.0
C728 C 0.60491 0.35714 0.95952 0.0
C729 C 0.67381 0.36496 0.00873 0.0
C730 C 0.66194 0.361 0.98662 0.0
C731 C 0.62562 0.344 0.92293 0.0
C732 C 0.63843 0.35084 0.94475 0.0
H733 H 0.73608 0.40407 0.03997 0.0
H734 H 0.71752 0.39735 1.00308 0.0
H735 H 0.58992 0.36622 0.99132 0.0
H736 H 0.54014 0.3153 0.89608 0.0
H737 H 0.56103 0.32671 0.93117 0.0
C738 C 0.83804 0.15321 0.54447 0.0
C739 C 0.81216 0.13203 0.55051 0.0
C740 C 0.84879 0.15711 0.52354 0.0
C741 C 0.80981 0.14756 0.47127 0.0
H742 H 0.93605 0.15195 0.4547 0.0
C743 C 0.86003 0.16251 0.38508 0.0
C744 C 0.89855 0.17751 0.38084 0.0
C745 C 0.85006 0.15478 0.40541 0.0
C746 C 0.90057 0.15123 0.459 0.0
H747 H 0.7765 0.09857 0.53958 0.0
H748 H 0.79395 0.10596 0.50268 0.0
H749 H 0.91684 0.1438 0.49093 0.0
H750 H 0.95765 0.1952 0.39497 0.0
H751 H 0.93879 0.18337 0.4302 0.0
H752 H 0.79305 0.15631 0.43977 0.0
C753 C 0.80643 0.11925 0.51423 0.0
C754 C 0.88969 0.14634 0.47978 0.0
C755 C 0.79661 0.115 0.53525 0.0
C756 C 0.9271 0.18418 0.39752 0.0
C757 C 0.91669 0.17689 0.41785 0.0
C758 C 0.82061 0.15304 0.45055 0.0
C759 C 0.83294 0.14022 0.50824 0.0
C760 C 0.84426 0.14456 0.48609 0.0
C761 C 0.87791 0.16214 0.42217 0.0
C762 C 0.86621 0.15512 0.44409 0.0
H763 H 0.85051 0.16652 0.556 0.0
H764 H 0.86912 0.17347 0.51925 0.0
H765 H 0.77448 0.14642 0.47584 0.0
H766 H 0.83688 0.15713 0.37277 0.0
H767 H 0.82035 0.14304 0.40792 0.0
C768 C 0.80211 0.90453 0.03851 0.0
C769 C 0.8034 0.88204 0.05034 0.0
C770 C 0.80935 0.90391 0.01703 0.0
C771 C 0.80284 0.86157 0.97161 0.0
H772 H 0.87523 0.91392 0.94502 0.0
C773 C 0.79211 0.88435 0.8841 0.0
C774 C 0.8321 0.89071 0.87338 0.0
C775 C 0.79269 0.88033 0.90556 0.0
C776 C 0.85537 0.89898 0.95221 0.0
H777 H 0.81396 0.84126 0.04866 0.0
H778 H 0.82576 0.84019 0.01111 0.0
H779 H 0.86869 0.91313 0.98286 0.0
H780 H 0.90437 0.89711 0.87664 0.0
H781 H 0.90545 0.89015 0.91433 0.0
H782 H 0.78904 0.84762 0.94095 0.0
C783 C 0.81889 0.85828 0.01852 0.0
C784 C 0.85119 0.8987 0.97388 0.0
C785 C 0.81195 0.8589 0.04004 0.0
C786 C 0.87307 0.89213 0.88449 0.0
C787 C 0.8736 0.88836 0.90606 0.0
C788 C 0.80673 0.86197 0.94994 0.0
C789 C 0.81777 0.88078 0.00677 0.0
C790 C 0.82442 0.88018 0.98382 0.0
C791 C 0.83325 0.88276 0.91687 0.0
C792 C 0.83257 0.88087 0.93996 0.0
H793 H 0.79483 0.92263 0.0458 0.0
H794 H 0.80747 0.92153 0.00838 0.0
H795 H 0.78177 0.84712 0.97877 0.0
H796 H 0.76008 0.88294 0.87592 0.0
H797 H 0.76097 0.87627 0.9134 0.0
C798 C 0.65084 0.61703 0.54847 0.0
C799 C 0.69448 0.6247 0.55474 0.0
C800 C 0.63872 0.61708 0.52749 0.0
C801 C 0.68851 0.61484 0.47491 0.0
H802 H 0.56699 0.6337 0.4578 0.0
C803 C 0.63434 0.61631 0.38851 0.0
C804 C 0.5919 0.60541 0.3839 0.0
C805 C 0.6471 0.62093 0.40911 0.0
C806 C 0.60096 0.6282 0.46234 0.0
H807 H 0.75942 0.63879 0.5438 0.0
H808 H 0.73799 0.63929 0.50712 0.0
H809 H 0.58901 0.63803 0.49417 0.0
H810 H 0.52912 0.59148 0.39733 0.0
H811 H 0.55157 0.59924 0.43326 0.0
H812 H 0.7003 0.60478 0.44312 0.0
C813 C 0.71331 0.63294 0.51847 0.0
C814 C 0.6136 0.63068 0.48319 0.0
C815 C 0.72545 0.63291 0.53951 0.0
C816 C 0.56222 0.59966 0.40036 0.0
C817 C 0.57491 0.60437 0.42094 0.0
C818 C 0.67589 0.61241 0.45405 0.0
C819 C 0.66988 0.62485 0.51219 0.0
C820 C 0.65736 0.62375 0.48979 0.0
C821 C 0.61765 0.61487 0.42558 0.0
C822 C 0.63181 0.61879 0.44756 0.0
H823 H 0.62595 0.61093 0.55982 0.0
H824 H 0.60516 0.61048 0.52322 0.0
H825 H 0.72228 0.60899 0.47948 0.0
H826 H 0.65816 0.62076 0.37621 0.0
H827 H 0.68008 0.62927 0.41214 0.0
C828 C 0.35333 0.62659 0.9652 0.0
C829 C 0.30982 0.6309 0.95695 0.0
C830 C 0.36153 0.62964 0.98651 0.0
C831 C 0.31528 0.66308 0.03226 0.0
H832 H 0.39392 0.6185 0.06389 0.0
C833 C 0.36395 0.68822 0.11575 0.0
C834 C 0.36072 0.66869 0.13055 0.0
C835 C 0.36312 0.68268 0.09455 0.0
C836 C 0.37174 0.63106 0.05527 0.0
H837 H 0.24037 0.64048 0.96477 0.0
H838 H 0.25455 0.64571 1.00181 0.0
H839 H 0.37971 0.60969 0.02707 0.0
H840 H 0.35652 0.62793 0.1348 0.0
H841 H 0.35446 0.61812 0.09756 0.0
H842 H 0.30631 0.68413 0.06033 0.0
C843 C 0.28262 0.64055 0.9918 0.0
C844 C 0.36392 0.62614 0.03415 0.0
C845 C 0.27447 0.63755 0.97056 0.0
C846 C 0.3592 0.64333 0.1237 0.0
C847 C 0.35805 0.63775 0.10238 0.0
C848 C 0.32311 0.66799 0.05326 0.0
C849 C 0.32639 0.63703 1.00001 0.0
C850 C 0.33538 0.64206 0.02242 0.0
C851 C 0.35865 0.65745 0.08757 0.0
C852 C 0.35146 0.6521 0.06507 0.0
H853 H 0.38137 0.62163 0.9551 0.0
H854 H 0.39571 0.62699 0.99228 0.0
H855 H 0.29363 0.67595 0.02367 0.0
H856 H 0.36595 0.70792 0.12061 0.0
H857 H 0.3649 0.69827 0.08358 0.0
C858 C 0.23002 0.86273 0.47193 0.0
C859 C 0.19657 0.87206 0.45836 0.0
C860 C 0.22054 0.85917 0.49302 0.0
C861 C 0.14201 0.87744 0.53534 0.0
H862 H 0.18279 0.81435 0.56015 0.0
C863 C 0.13752 0.85503 0.62432 0.0
C864 C 0.12686 0.82987 0.62986 0.0
C865 C 0.14183 0.86183 0.60332 0.0
C866 C 0.17085 0.832 0.55344 0.0
H867 H 0.12686 0.88509 0.45651 0.0
H868 H 0.11051 0.87905 0.49337 0.0
H869 H 0.19987 0.82311 0.52386 0.0
H870 H 0.10856 0.79273 0.61786 0.0
H871 H 0.11572 0.80457 0.58141 0.0
H872 H 0.11269 0.88614 0.56508 0.0
C873 C 0.14421 0.87472 0.48768 0.0
C874 C 0.18114 0.83715 0.53269 0.0
C875 C 0.15362 0.87817 0.46654 0.0
C876 C 0.11765 0.81215 0.61405 0.0
C877 C 0.12193 0.8189 0.59318 0.0
C878 C 0.13195 0.87235 0.55623 0.0
C879 C 0.17743 0.86494 0.50112 0.0
C880 C 0.1668 0.85989 0.52336 0.0
C881 C 0.13552 0.84357 0.58756 0.0
C882 C 0.14601 0.84946 0.56546 0.0
H883 H 0.26372 0.85832 0.46629 0.0
H884 H 0.24711 0.85199 0.50304 0.0
H885 H 0.13076 0.89522 0.52863 0.0
H886 H 0.14497 0.86905 0.63619 0.0
H887 H 0.15237 0.88099 0.59948 0.0
C888 C 0.19222 0.33145 0.40219 0.0
C889 C 0.22507 0.34629 0.39184 0.0
C890 C 0.16712 0.31302 0.39142 0.0
C891 C 0.12243 0.29734 0.34066 0.0
H892 H 0.12855 0.22647 0.35686 0.0
C893 C 0.05996 0.2178 0.28618 0.0
C894 C 0.04406 0.19487 0.29459 0.0
C895 C 0.07841 0.23661 0.29899 0.0
C896 C 0.1255 0.2462 0.35231 0.0
H897 H 0.25763 0.35256 0.36192 0.0
H898 H 0.2122 0.32147 0.34315 0.0
H899 H 0.16678 0.25867 0.37788 0.0
H900 H 0.03166 0.17449 0.32334 0.0
H901 H 0.06122 0.20785 0.34583 0.0
H902 H 0.08033 0.28536 0.31548 0.0
C903 C 0.20614 0.32418 0.35962 0.0
C904 C 0.14769 0.2646 0.36433 0.0
C905 C 0.23191 0.34215 0.37041 0.0
C906 C 0.04447 0.19176 0.31629 0.0
C907 C 0.06191 0.21085 0.32919 0.0
C908 C 0.09944 0.27907 0.32888 0.0
C909 C 0.17363 0.30943 0.37001 0.0
C910 C 0.14701 0.29024 0.35838 0.0
C911 C 0.07997 0.23338 0.32071 0.0
C912 C 0.10137 0.25313 0.33427 0.0
H913 H 0.18534 0.33424 0.41856 0.0
H914 H 0.14203 0.30189 0.39973 0.0
H915 H 0.12107 0.31708 0.3359 0.0
H916 H 0.05842 0.22122 0.26965 0.0
H917 H 0.09225 0.25346 0.29169 0.0
C918 C 0.31115 0.15381 0.87785 0.0
C919 C 0.28092 0.16088 0.89379 0.0
C920 C 0.33416 0.17224 0.8663 0.0
C921 C 0.37573 0.23749 0.86674 0.0
H922 H 0.3638 0.23371 0.80678 0.0
C923 C 0.43931 0.31807 0.81306 0.0
C924 C 0.45674 0.31138 0.79352 0.0
C925 C 0.41888 0.29972 0.82569 0.0
C926 C 0.36826 0.23486 0.82346 0.0
H927 H 0.25249 0.19313 0.91037 0.0
H928 H 0.29416 0.22523 0.89062 0.0
H929 H 0.32789 0.2015 0.82848 0.0
H930 H 0.46845 0.28032 0.77213 0.0
H931 H 0.43399 0.24806 0.79431 0.0
H932 H 0.41718 0.27036 0.86184 0.0
C933 C 0.29949 0.20533 0.88705 0.0
C934 C 0.34742 0.21645 0.83587 0.0
C935 C 0.27583 0.1869 0.89841 0.0
C936 C 0.45446 0.28598 0.787 0.0
C937 C 0.43454 0.26756 0.79971 0.0
C938 C 0.39727 0.25569 0.85431 0.0
C939 C 0.32822 0.19816 0.87065 0.0
C940 C 0.35084 0.21763 0.85762 0.0
C941 C 0.4161 0.2742 0.81917 0.0
C942 C 0.39371 0.25467 0.83248 0.0
H943 H 0.31693 0.13399 0.87416 0.0
H944 H 0.35667 0.16622 0.85392 0.0
H945 H 0.37914 0.23868 0.88347 0.0
H946 H 0.44056 0.33761 0.81838 0.0
H947 H 0.40449 0.3057 0.84038 0.0
C948 C 0.71718 0.1553 0.63489 0.0
C949 C 0.74559 0.16235 0.61821 0.0
C950 C 0.69648 0.17372 0.64734 0.0
C951 C 0.64939 0.23603 0.64825 0.0
H952 H 0.68172 0.23949 0.7066 0.0
C953 C 0.58043 0.31615 0.70077 0.0
C954 C 0.57264 0.31093 0.72185 0.0
C955 C 0.60256 0.29846 0.68812 0.0
C956 C 0.67149 0.23859 0.69046 0.0
H957 H 0.77351 0.19479 0.60159 0.0
H958 H 0.73511 0.22681 0.62274 0.0
H959 H 0.71658 0.20746 0.68434 0.0
H960 H 0.58113 0.28306 0.74626 0.0
H961 H 0.61745 0.25153 0.72406 0.0
H962 H 0.60266 0.2661 0.65426 0.0
C963 C 0.72978 0.20687 0.62619 0.0
C964 C 0.69188 0.22034 0.6777 0.0
C965 C 0.75143 0.18846 0.614 0.0
C966 C 0.58716 0.28764 0.73007 0.0
C967 C 0.6083 0.26964 0.71731 0.0
C968 C 0.62814 0.2539 0.66108 0.0
C969 C 0.70265 0.19962 0.6431 0.0
C970 C 0.68113 0.21901 0.6565 0.0
C971 C 0.61645 0.27478 0.69611 0.0
C972 C 0.63899 0.25557 0.6824 0.0
H973 H 0.71066 0.13549 0.63837 0.0
H974 H 0.67523 0.16774 0.66019 0.0
H975 H 0.64034 0.23514 0.63194 0.0
H976 H 0.57002 0.33413 0.69411 0.0
H977 H 0.60909 0.30357 0.67211 0.0
C978 C 0.73559 0.3276 0.134 0.0
C979 C 0.75917 0.33972 0.11789 0.0
C980 C 0.7569 0.30902 0.14606 0.0
C981 C 0.86061 0.26785 0.14818 0.0
H982 H 0.82528 0.26181 0.20598 0.0
C983 C 0.93315 0.18846 0.20051 0.0
C984 C 0.93872 0.19342 0.22179 0.0
C985 C 0.91098 0.20594 0.1877 0.0
C986 C 0.83624 0.26341 0.18997 0.0
H987 H 0.82321 0.34235 0.10164 0.0
H988 H 0.8615 0.31089 0.12326 0.0
H989 H 0.78879 0.29315 0.18421 0.0
H990 H 0.92662 0.22079 0.24633 0.0
H991 H 0.8902 0.25192 0.22392 0.0
H992 H 0.91011 0.23923 0.15431 0.0
C993 C 0.82607 0.31483 0.12627 0.0
C994 C 0.81448 0.28116 0.17727 0.0
C995 C 0.80435 0.33301 0.11393 0.0
C996 C 0.92235 0.21637 0.22999 0.0
C997 C 0.90111 0.23413 0.21711 0.0
C998 C 0.88304 0.25046 0.161 0.0
C999 C 0.80272 0.30259 0.14259 0.0
C1000 C 0.82613 0.28359 0.15614 0.0
C1001 C 0.89473 0.22912 0.19578 0.0
C1002 C 0.87109 0.24788 0.18209 0.0
H1003 H 0.70057 0.33246 0.13721 0.0
H1004 H 0.73725 0.2997 0.15805 0.0
H1005 H 0.87027 0.26875 0.13197 0.0
H1006 H 0.94503 0.17076 0.19382 0.0
H1007 H 0.906 0.201 0.17153 0.0
C1008 C 0.80923 0.65627 0.63002 0.0
C1009 C 0.772 0.66251 0.61741 0.0
C1010 C 0.83227 0.67509 0.6411 0.0
C1011 C 0.84874 0.74496 0.64572 0.0
H1012 H 0.88412 0.7275 0.70199 0.0
C1013 C 0.90813 0.81929 0.70654 0.0
C1014 C 0.94566 0.81267 0.71883 0.0
C1015 C 0.88805 0.8014 0.69334 0.0
C1016 C 0.87489 0.73259 0.68624 0.0
H1017 H 0.7304 0.69339 0.60604 0.0
H1018 H 0.7702 0.72641 0.62572 0.0
H1019 H 0.84736 0.69573 0.68021 0.0
H1020 H 0.99228 0.78233 0.72666 0.0
H1021 H 0.95737 0.75108 0.70352 0.0
H1022 H 0.87569 0.78206 0.65206 0.0
C1023 C 0.78206 0.70699 0.62681 0.0
C1024 C 0.85391 0.71436 0.67371 0.0
C1025 C 0.7592 0.68811 0.61554 0.0
C1026 C 0.96333 0.78796 0.71738 0.0
C1027 C 0.94314 0.77003 0.70426 0.0
C1028 C 0.86952 0.76327 0.65835 0.0
C1029 C 0.81839 0.70063 0.64002 0.0
C1030 C 0.84075 0.72024 0.65324 0.0
C1031 C 0.90514 0.77652 0.69218 0.0
C1032 C 0.88297 0.75723 0.67871 0.0
H1033 H 0.82023 0.6367 0.63148 0.0
H1034 H 0.8608 0.66956 0.65068 0.0
H1035 H 0.83953 0.75008 0.62999 0.0
H1036 H 0.89418 0.83831 0.70714 0.0
H1037 H 0.85862 0.80692 0.68434 0.0
C1038 C 0.71178 0.84953 0.13321 0.0
C1039 C 0.73885 0.84343 0.1159 0.0
C1040 C 0.68843 0.83064 0.14409 0.0
C1041 C 0.68601 0.76056 0.15227 0.0
H1042 H 0.57382 0.77684 0.18071 0.0
C1043 C 0.61012 0.69363 0.21423 0.0
C1044 C 0.56283 0.69278 0.21698 0.0
C1045 C 0.62995 0.71137 0.20085 0.0
C1046 C 0.60472 0.77171 0.17265 0.0
H1047 H 0.76128 0.81241 0.09617 0.0
H1048 H 0.7186 0.77965 0.11443 0.0
H1049 H 0.60895 0.80825 0.15837 0.0
H1050 H 0.4991 0.70922 0.20679 0.0
H1051 H 0.53334 0.73919 0.18273 0.0
H1052 H 0.68061 0.72358 0.16577 0.0
C1053 C 0.71662 0.79902 0.12005 0.0
C1054 C 0.62543 0.78999 0.16005 0.0
C1055 C 0.74062 0.81792 0.10934 0.0
C1056 C 0.53573 0.70955 0.20538 0.0
C1057 C 0.55548 0.72696 0.19164 0.0
C1058 C 0.66486 0.7421 0.16459 0.0
C1059 C 0.6906 0.80506 0.13775 0.0
C1060 C 0.6668 0.78487 0.14995 0.0
C1061 C 0.60295 0.72832 0.18933 0.0
C1062 C 0.62426 0.74752 0.17524 0.0
H1063 H 0.70863 0.86899 0.13851 0.0
H1064 H 0.66943 0.83616 0.15776 0.0
H1065 H 0.71802 0.75585 0.14498 0.0
H1066 H 0.6321 0.68057 0.22234 0.0
H1067 H 0.66659 0.71192 0.19979 0.0
C1068 C 0.26402 0.814 0.39664 0.0
C1069 C 0.2676 0.84007 0.39181 0.0
C1070 C 0.2875 0.7958 0.38495 0.0
C1071 C 0.32821 0.7832 0.33334 0.0
H1072 H 0.41545 0.73689 0.35764 0.0
C1073 C 0.43773 0.71818 0.28153 0.0
C1074 C 0.45076 0.69434 0.28921 0.0
C1075 C 0.41612 0.73576 0.29449 0.0
C1076 C 0.39059 0.74929 0.35058 0.0
H1077 H 0.30074 0.86719 0.37129 0.0
H1078 H 0.3395 0.83529 0.35038 0.0
H1079 H 0.37556 0.76723 0.37979 0.0
H1080 H 0.45067 0.66988 0.31626 0.0
H1081 H 0.411 0.69989 0.3386 0.0
H1082 H 0.34121 0.76491 0.30434 0.0
C1083 C 0.31852 0.82913 0.36326 0.0
C1084 C 0.36802 0.76678 0.36332 0.0
C1085 C 0.29594 0.84735 0.37519 0.0
C1086 C 0.44148 0.68829 0.31002 0.0
C1087 C 0.41891 0.70563 0.32286 0.0
C1088 C 0.34993 0.76537 0.32067 0.0
C1089 C 0.31431 0.80322 0.36796 0.0
C1090 C 0.33703 0.78403 0.35475 0.0
C1091 C 0.40596 0.72969 0.31533 0.0
C1092 C 0.38188 0.7483 0.32903 0.0
H1093 H 0.24215 0.80753 0.40908 0.0
H1094 H 0.28365 0.77585 0.38878 0.0
H1095 H 0.30403 0.79619 0.32644 0.0
H1096 H 0.44484 0.7234 0.26557 0.0
H1097 H 0.40785 0.75422 0.28813 0.0
C1098 C 0.24365 0.69253 0.89807 0.0
C1099 C 0.23952 0.66684 0.89221 0.0
C1100 C 0.21835 0.71137 0.88804 0.0
C1101 C 0.11843 0.72029 0.85311 0.0
H1102 H 0.17481 0.78554 0.84186 0.0
C1103 C 0.05419 0.78974 0.79065 0.0
C1104 C 0.0506 0.81553 0.79608 0.0
C1105 C 0.07435 0.77244 0.80421 0.0
C1106 C 0.15845 0.76752 0.84514 0.0
H1107 H 0.20457 0.64094 0.87136 0.0
H1108 H 0.16234 0.67373 0.85328 0.0
H1109 H 0.21609 0.75359 0.86176 0.0
H1110 H 0.06465 0.84352 0.8199 0.0
H1111 H 0.10118 0.81315 0.84364 0.0
H1112 H 0.06158 0.73399 0.83568 0.0
C1113 C 0.18436 0.67937 0.86594 0.0
C1114 C 0.18201 0.74918 0.85659 0.0
C1115 C 0.20926 0.66052 0.87611 0.0
C1116 C 0.06705 0.8237 0.81544 0.0
C1117 C 0.08807 0.80641 0.8289 0.0
C1118 C 0.09519 0.73849 0.84145 0.0
C1119 C 0.18853 0.70508 0.87175 0.0
C1120 C 0.16253 0.72518 0.86054 0.0
C1121 C 0.09189 0.78061 0.82338 0.0
C1122 C 0.11513 0.76218 0.83717 0.0
H1123 H 0.26696 0.69821 0.91023 0.0
H1124 H 0.22212 0.73087 0.89316 0.0
H1125 H 0.10179 0.70232 0.85623 0.0
H1126 H 0.04143 0.78294 0.77586 0.0
H1127 H 0.07715 0.75273 0.79949 0.0
loop_
_geom_bond_atom_site_label_1
_geom_bond_atom_site_label_2
_geom_bond_distance
_geom_bond_site_symmetry_2
_ccdc_geom_bond_type
H0 C3 0.931 . S
H1 C6 0.928 . S
H2 C8 0.930 . S
C3 H0 0.931 . S
C3 C4 1.413 . S
C3 C5 1.360 . S
C4 C3 1.413 . S
C4 C8 1.429 . S
C5 C3 1.360 . S
C5 C6 1.372 . S
C6 H1 0.928 . S
C6 C5 1.372 . S
C6 C7 1.404 . S
C7 C6 1.404 . S
C7 C8 1.391 . S
C8 H2 0.930 . S
C8 C4 1.429 . S
C8 C7 1.391 . S
H9 C12 0.931 . S
H10 C15 0.928 . S
H11 C17 0.930 . S
C12 H9 0.931 . S
C12 C13 1.413 . S
C12 C14 1.360 . S
C13 C12 1.413 . S
C13 C17 1.429 . S
C14 C12 1.360 . S
C14 C15 1.372 . S
C15 H10 0.928 . S
C15 C14 1.372 . S
C15 C16 1.404 . S
C16 C15 1.404 . S
C16 C17 1.391 . S
C17 H11 0.930 . S
C17 C13 1.429 . S
C17 C16 1.391 . S
H18 C21 0.931 . S
H19 C24 0.928 . S
H20 C26 0.930 . S
C21 H18 0.931 . S
C21 C22 1.413 . S
C21 C23 1.360 . S
C22 C21 1.413 . S
C22 C26 1.429 . S
C23 C21 1.360 . S
C23 C24 1.372 . S
C24 H19 0.928 . S
C24 C23 1.372 . S
C24 C25 1.404 . S
C25 C24 1.404 . S
C25 C26 1.391 . S
C26 H20 0.930 . S
C26 C22 1.429 . S
C26 C25 1.391 . S
H27 C30 0.931 . S
H28 C33 0.928 . S
H29 C35 0.930 . S
C30 H27 0.931 . S
C30 C31 1.413 . S
C30 C32 1.360 . S
C31 C30 1.413 . S
C31 C35 1.429 . S
C32 C30 1.360 . S
C32 C33 1.372 . S
C33 H28 0.928 . S
C33 C32 1.372 . S
C33 C34 1.404 . S
C34 C33 1.404 . S
C34 C35 1.391 . S
C35 H29 0.930 . S
C35 C31 1.429 . S
C35 C34 1.391 . S
H36 C39 0.931 . S
H37 C42 0.928 . S
H38 C44 0.930 . S
C39 H36 0.931 . S
C39 C40 1.413 . S
C39 C41 1.360 . S
C40 C39 1.413 . S
C40 C44 1.429 . S
C41 C39 1.360 . S
C41 C42 1.372 . S
C42 H37 0.928 . S
C42 C41 1.372 . S
C42 C43 1.404 . S
C43 C42 1.404 . S
C43 C44 1.391 . S
C44 H38 0.930 . S
C44 C40 1.429 . S
C44 C43 1.391 . S
H45 C48 0.931 . S
H46 C51 0.928 . S
H47 C53 0.930 . S
C48 H45 0.931 . S
C48 C49 1.413 . S
C48 C50 1.360 . S
C49 C48 1.413 . S
C49 C53 1.429 . S
C50 C48 1.360 . S
C50 C51 1.372 . S
C51 H46 0.928 . S
C51 C50 1.372 . S
C51 C52 1.404 . S
C52 C51 1.404 . S
C52 C53 1.391 . S
C53 H47 0.930 . S
C53 C49 1.429 . S
C53 C52 1.391 . S
H54 C57 0.931 . S
H55 C60 0.928 . S
H56 C62 0.930 . S
C57 H54 0.931 . S
C57 C58 1.413 . S
C57 C59 1.360 . S
C58 C57 1.413 . S
C58 C62 1.429 . S
C59 C57 1.360 . S
C59 C60 1.372 . S
C60 H55 0.928 . S
C60 C59 1.372 . S
C60 C61 1.404 . S
C61 C60 1.404 . S
C61 C62 1.391 . S
C62 H56 0.930 . S
C62 C58 1.429 . S
C62 C61 1.391 . S
H63 C66 0.931 . S
H64 C69 0.928 . S
H65 C71 0.930 . S
C66 H63 0.931 . S
C66 C67 1.413 . S
C66 C68 1.360 . S
C67 C66 1.413 . S
C67 C71 1.429 . S
C68 C66 1.360 . S
C68 C69 1.372 . S
C69 H64 0.928 . S
C69 C68 1.372 . S
C69 C70 1.404 . S
C70 C69 1.404 . S
C70 C71 1.391 . S
C71 H65 0.930 . S
C71 C67 1.429 . S
C71 C70 1.391 . S
Tb72 N101 2.617 . S
Tb72 N107 2.572 . S
Tb72 O116 2.465 . S
Tb72 O117 2.387 . S
Tb72 O119 2.428 . S
Tb72 O120 2.306 1_455 S
Tb72 O124 2.349 . S
Tb72 O127 2.393 . S
Tb72 C136 2.802 . S
C73 N74 1.379 . S
C73 C76 1.416 . S
C73 C80 1.424 . S
N74 C73 1.379 . S
N74 C77 1.334 . S
N74 Tb83 2.617 . S
C75 C77 1.390 . S
C75 C78 1.339 . S
C75 H95 0.930 . S
C76 C73 1.416 . S
C76 C78 1.416 . S
C76 C82 1.448 . S
C77 N74 1.334 . S
C77 C75 1.390 . S
C77 H88 0.930 . S
C78 C75 1.339 . S
C78 C76 1.416 . S
C78 H99 0.930 . S
C79 C80 1.413 . S
C79 C81 1.427 . S
C79 C85 1.416 . S
C80 C73 1.424 . S
C80 C79 1.413 . S
C80 N84 1.361 . S
C81 C79 1.427 . S
C81 C82 1.328 . S
C81 H96 0.929 . S
C82 C76 1.448 . S
C82 C81 1.328 . S
C82 H97 0.930 . S
Tb83 N74 2.617 . S
Tb83 N84 2.572 . S
Tb83 O118 2.354 . S
Tb83 O121 2.393 . S
Tb83 O122 2.465 . S
Tb83 O123 2.387 . S
Tb83 O125 2.428 . S
Tb83 O126 2.288 1_655 S
Tb83 C147 2.802 . S
N84 C80 1.361 . S
N84 Tb83 2.572 . S
N84 C86 1.340 . S
C85 C79 1.416 . S
C85 C87 1.332 . S
C85 H93 0.931 . S
C86 N84 1.340 . S
C86 C87 1.407 . S
C86 H92 0.930 . S
C87 C85 1.332 . S
C87 C86 1.407 . S
C87 H89 0.929 . S
H88 C77 0.930 . S
H89 C87 0.929 . S
H90 C105 0.930 . S
H91 C112 0.929 . S
H92 C86 0.930 . S
H93 C85 0.931 . S
H94 C108 0.930 . S
H95 C75 0.930 . S
H96 C81 0.929 . S
H97 C82 0.930 . S
H98 C103 0.930 . S
H99 C78 0.930 . S
H100 C111 0.931 . S
N101 Tb72 2.617 . S
N101 C102 1.379 . S
N101 C105 1.334 . S
C102 N101 1.379 . S
C102 C104 1.416 . S
C102 C110 1.424 . S
C103 H98 0.930 . S
C103 C105 1.390 . S
C103 C106 1.339 . S
C104 C102 1.416 . S
C104 C106 1.416 . S
C104 C137 1.448 . S
C105 H90 0.930 . S
C105 N101 1.334 . S
C105 C103 1.390 . S
C106 C103 1.339 . S
C106 C104 1.416 . S
C106 H113 0.930 . S
N107 Tb72 2.572 . S
N107 C108 1.340 . S
N107 C110 1.361 . S
C108 H94 0.930 . S
C108 N107 1.340 . S
C108 C112 1.407 . S
C109 C110 1.413 . S
C109 C111 1.416 . S
C109 C138 1.427 . S
C110 C102 1.424 . S
C110 N107 1.361 . S
C110 C109 1.413 . S
C111 H100 0.931 . S
C111 C109 1.416 . S
C111 C112 1.332 . S
C112 H91 0.929 . S
C112 C108 1.407 . S
C112 C111 1.332 . S
H113 C106 0.930 . S
H114 C137 0.930 . S
H115 C138 0.929 . S
O116 Tb72 2.465 . S
O116 C136 1.264 . S
O117 Tb72 2.387 . S
O117 C128 1.264 . S
O118 Tb83 2.354 . S
O118 C128 1.237 1_655 S
O119 Tb72 2.428 . S
O119 C136 1.256 . S
O120 Tb72 2.306 1_655 S
O120 C135 1.269 . S
O121 Tb83 2.393 . S
O121 C135 1.248 . S
O122 Tb83 2.465 . S
O122 C147 1.264 . S
O123 Tb83 2.387 . S
O123 C139 1.264 . S
O124 Tb72 2.349 . S
O124 C139 1.243 1_455 S
O125 Tb83 2.428 . S
O125 C147 1.256 . S
O126 Tb83 2.288 1_455 S
O126 C146 1.290 . S
O127 Tb72 2.393 . S
O127 C146 1.248 . S
C128 O117 1.264 . S
C128 O118 1.237 1_455 S
C129 C132 1.399 . S
C129 C134 1.383 . S
C129 C136 1.496 . S
C130 C131 1.399 . S
C130 C134 1.389 . S
C131 C130 1.399 . S
C131 C133 1.380 . S
C131 H148 0.929 . S
C132 C129 1.399 . S
C132 C133 1.392 . S
C132 H149 0.929 . S
C133 C131 1.380 . S
C133 C132 1.392 . S
C133 H150 0.929 . S
C134 C129 1.383 . S
C134 C130 1.389 . S
C134 H151 0.931 . S
C135 O120 1.269 . S
C135 O121 1.248 . S
C136 Tb72 2.802 . S
C136 O116 1.264 . S
C136 O119 1.256 . S
C136 C129 1.496 . S
C137 C104 1.448 . S
C137 H114 0.930 . S
C137 C138 1.328 . S
C138 C109 1.427 . S
C138 H115 0.929 . S
C138 C137 1.328 . S
C139 O123 1.264 . S
C139 O124 1.243 1_655 S
C140 C143 1.399 . S
C140 C144 1.383 . S
C140 C147 1.496 . S
C141 C142 1.399 . S
C141 C144 1.389 . S
C142 C141 1.399 . S
C142 C145 1.380 . S
C142 H152 0.929 . S
C143 C140 1.399 . S
C143 C145 1.392 . S
C143 H153 0.929 . S
C144 C140 1.383 . S
C144 C141 1.389 . S
C144 H154 0.931 . S
C145 C142 1.380 . S
C145 C143 1.392 . S
C145 H155 0.929 . S
C146 O126 1.290 . S
C146 O127 1.248 . S
C147 Tb83 2.802 . S
C147 O122 1.264 . S
C147 O125 1.256 . S
C147 C140 1.496 . S
H148 C131 0.929 . S
H149 C132 0.929 . S
H150 C133 0.929 . S
H151 C134 0.931 . S
H152 C142 0.929 . S
H153 C143 0.929 . S
H154 C144 0.931 . S
H155 C145 0.929 . S
Tb156 N185 2.617 . S
Tb156 N191 2.572 . S
Tb156 O200 2.465 . S
Tb156 O201 2.387 . S
Tb156 O203 2.428 . S
Tb156 O204 2.308 . S
Tb156 O208 2.349 . S
Tb156 O211 2.393 . S
Tb156 C220 2.802 . S
C157 N158 1.379 . S
C157 C160 1.416 . S
C157 C164 1.424 . S
N158 C157 1.379 . S
N158 C161 1.334 . S
N158 Tb167 2.617 . S
C159 C161 1.390 . S
C159 C162 1.339 . S
C159 H179 0.930 . S
C160 C157 1.416 . S
C160 C162 1.416 . S
C160 C166 1.448 . S
C161 N158 1.334 . S
C161 C159 1.390 . S
C161 H172 0.930 . S
C162 C159 1.339 . S
C162 C160 1.416 . S
C162 H183 0.930 . S
C163 C164 1.413 . S
C163 C165 1.427 . S
C163 C169 1.416 . S
C164 C157 1.424 . S
C164 C163 1.413 . S
C164 N168 1.361 . S
C165 C163 1.427 . S
C165 C166 1.328 . S
C165 H180 0.929 . S
C166 C160 1.448 . S
C166 C165 1.328 . S
C166 H181 0.930 . S
Tb167 N158 2.617 . S
Tb167 N168 2.572 . S
Tb167 O202 2.349 . S
Tb167 O205 2.393 . S
Tb167 O206 2.465 . S
Tb167 O207 2.387 . S
Tb167 O209 2.428 . S
Tb167 O210 2.308 . S
Tb167 C231 2.802 . S
N168 C164 1.361 . S
N168 Tb167 2.572 . S
N168 C170 1.340 . S
C169 C163 1.416 . S
C169 C171 1.332 . S
C169 H177 0.931 . S
C170 N168 1.340 . S
C170 C171 1.407 . S
C170 H176 0.930 . S
C171 C169 1.332 . S
C171 C170 1.407 . S
C171 H173 0.929 . S
H172 C161 0.930 . S
H173 C171 0.929 . S
H174 C189 0.930 . S
H175 C196 0.929 . S
H176 C170 0.930 . S
H177 C169 0.931 . S
H178 C192 0.930 . S
H179 C159 0.930 . S
H180 C165 0.929 . S
H181 C166 0.930 . S
H182 C187 0.930 . S
H183 C162 0.930 . S
H184 C195 0.931 . S
N185 Tb156 2.617 . S
N185 C186 1.379 . S
N185 C189 1.334 . S
C186 N185 1.379 . S
C186 C188 1.416 . S
C186 C194 1.424 . S
C187 H182 0.930 . S
C187 C189 1.390 . S
C187 C190 1.339 . S
C188 C186 1.416 . S
C188 C190 1.416 . S
C188 C221 1.448 . S
C189 H174 0.930 . S
C189 N185 1.334 . S
C189 C187 1.390 . S
C190 C187 1.339 . S
C190 C188 1.416 . S
C190 H197 0.930 . S
N191 Tb156 2.572 . S
N191 C192 1.340 . S
N191 C194 1.361 . S
C192 H178 0.930 . S
C192 N191 1.340 . S
C192 C196 1.407 . S
C193 C194 1.413 . S
C193 C195 1.416 . S
C193 C222 1.427 . S
C194 C186 1.424 . S
C194 N191 1.361 . S
C194 C193 1.413 . S
C195 H184 0.931 . S
C195 C193 1.416 . S
C195 C196 1.332 . S
C196 H175 0.929 . S
C196 C192 1.407 . S
C196 C195 1.332 . S
H197 C190 0.930 . S
H198 C221 0.930 . S
H199 C222 0.929 . S
O200 Tb156 2.465 . S
O200 C220 1.264 . S
O201 Tb156 2.387 . S
O201 C212 1.264 . S
O202 Tb167 2.349 . S
O202 C212 1.243 . S
O203 Tb156 2.428 . S
O203 C220 1.256 . S
O204 Tb156 2.308 . S
O204 C219 1.266 . S
O205 Tb167 2.393 . S
O205 C219 1.248 . S
O206 Tb167 2.465 . S
O206 C231 1.264 . S
O207 Tb167 2.387 . S
O207 C223 1.264 . S
O208 Tb156 2.349 . S
O208 C223 1.243 . S
O209 Tb167 2.428 . S
O209 C231 1.256 . S
O210 Tb167 2.308 . S
O210 C230 1.266 . S
O211 Tb156 2.393 . S
O211 C230 1.248 . S
C212 O201 1.264 . S
C212 O202 1.243 . S
C213 C216 1.399 . S
C213 C218 1.383 . S
C213 C220 1.496 . S
C214 C215 1.399 . S
C214 C218 1.389 . S
C215 C214 1.399 . S
C215 C217 1.380 . S
C215 H232 0.929 . S
C216 C213 1.399 . S
C216 C217 1.392 . S
C216 H233 0.929 . S
C217 C215 1.380 . S
C217 C216 1.392 . S
C217 H234 0.929 . S
C218 C213 1.383 . S
C218 C214 1.389 . S
C218 H235 0.931 . S
C219 O204 1.266 . S
C219 O205 1.248 . S
C220 Tb156 2.802 . S
C220 O200 1.264 . S
C220 O203 1.256 . S
C220 C213 1.496 . S
C221 C188 1.448 . S
C221 H198 0.930 . S
C221 C222 1.328 . S
C222 C193 1.427 . S
C222 H199 0.929 . S
C222 C221 1.328 . S
C223 O207 1.264 . S
C223 O208 1.243 . S
C224 C227 1.399 . S
C224 C228 1.383 . S
C224 C231 1.496 . S
C225 C226 1.399 . S
C225 C228 1.389 . S
C226 C225 1.399 . S
C226 C229 1.380 . S
C226 H236 0.929 . S
C227 C224 1.399 . S
C227 C229 1.392 . S
C227 H237 0.929 . S
C228 C224 1.383 . S
C228 C225 1.389 . S
C228 H238 0.931 . S
C229 C226 1.380 . S
C229 C227 1.392 . S
C229 H239 0.929 . S
C230 O210 1.266 . S
C230 O211 1.248 . S
C231 Tb167 2.802 . S
C231 O206 1.264 . S
C231 O209 1.256 . S
C231 C224 1.496 . S
H232 C215 0.929 . S
H233 C216 0.929 . S
H234 C217 0.929 . S
H235 C218 0.931 . S
H236 C226 0.929 . S
H237 C227 0.929 . S
H238 C228 0.931 . S
H239 C229 0.929 . S
Tb240 N269 2.617 . S
Tb240 N275 2.572 . S
Tb240 O284 2.465 . S
Tb240 O285 2.387 . S
Tb240 O287 2.428 . S
Tb240 O288 2.308 . S
Tb240 O292 2.349 . S
Tb240 O295 2.393 . S
Tb240 C304 2.802 . S
C241 N242 1.379 . S
C241 C244 1.416 . S
C241 C248 1.424 . S
N242 C241 1.379 . S
N242 C245 1.334 . S
N242 Tb251 2.617 . S
C243 C245 1.390 . S
C243 C246 1.339 . S
C243 H263 0.930 . S
C244 C241 1.416 . S
C244 C246 1.416 . S
C244 C250 1.448 . S
C245 N242 1.334 . S
C245 C243 1.390 . S
C245 H256 0.930 . S
C246 C243 1.339 . S
C246 C244 1.416 . S
C246 H267 0.930 . S
C247 C248 1.413 . S
C247 C249 1.427 . S
C247 C253 1.416 . S
C248 C241 1.424 . S
C248 C247 1.413 . S
C248 N252 1.361 . S
C249 C247 1.427 . S
C249 C250 1.328 . S
C249 H264 0.929 . S
C250 C244 1.448 . S
C250 C249 1.328 . S
C250 H265 0.930 . S
Tb251 N242 2.617 . S
Tb251 N252 2.572 . S
Tb251 O286 2.349 1_655 S
Tb251 O289 2.393 . S
Tb251 O290 2.465 . S
Tb251 O291 2.387 . S
Tb251 O293 2.428 . S
Tb251 O294 2.308 1_655 S
Tb251 C315 2.802 . S
N252 C248 1.361 . S
N252 Tb251 2.572 . S
N252 C254 1.340 . S
C253 C247 1.416 . S
C253 C255 1.332 . S
C253 H261 0.931 . S
C254 N252 1.340 . S
C254 C255 1.407 . S
C254 H260 0.930 . S
C255 C253 1.332 . S
C255 C254 1.407 . S
C255 H257 0.929 . S
H256 C245 0.930 . S
H257 C255 0.929 . S
H258 C273 0.930 . S
H259 C280 0.929 . S
H260 C254 0.930 . S
H261 C253 0.931 . S
H262 C276 0.930 . S
H263 C243 0.930 . S
H264 C249 0.929 . S
H265 C250 0.930 . S
H266 C271 0.930 . S
H267 C246 0.930 . S
H268 C279 0.931 . S
N269 Tb240 2.617 . S
N269 C270 1.379 . S
N269 C273 1.334 . S
C270 N269 1.379 . S
C270 C272 1.416 . S
C270 C278 1.424 . S
C271 H266 0.930 . S
C271 C273 1.390 . S
C271 C274 1.339 . S
C272 C270 1.416 . S
C272 C274 1.416 . S
C272 C305 1.448 . S
C273 H258 0.930 . S
C273 N269 1.334 . S
C273 C271 1.390 . S
C274 C271 1.339 . S
C274 C272 1.416 . S
C274 H281 0.930 . S
N275 Tb240 2.572 . S
N275 C276 1.340 . S
N275 C278 1.361 . S
C276 H262 0.930 . S
C276 N275 1.340 . S
C276 C280 1.407 . S
C277 C278 1.413 . S
C277 C279 1.416 . S
C277 C306 1.427 . S
C278 C270 1.424 . S
C278 N275 1.361 . S
C278 C277 1.413 . S
C279 H268 0.931 . S
C279 C277 1.416 . S
C279 C280 1.332 . S
C280 H259 0.929 . S
C280 C276 1.407 . S
C280 C279 1.332 . S
H281 C274 0.930 . S
H282 C305 0.930 . S
H283 C306 0.929 . S
O284 Tb240 2.465 . S
O284 C304 1.264 . S
O285 Tb240 2.387 . S
O285 C296 1.264 . S
O286 Tb251 2.349 1_455 S
O286 C296 1.243 . S
O287 Tb240 2.428 . S
O287 C304 1.256 . S
O288 Tb240 2.308 . S
O288 C303 1.266 1_455 S
O289 Tb251 2.393 . S
O289 C303 1.248 . S
O290 Tb251 2.465 . S
O290 C315 1.264 . S
O291 Tb251 2.387 . S
O291 C307 1.264 . S
O292 Tb240 2.349 . S
O292 C307 1.243 1_455 S
O293 Tb251 2.428 . S
O293 C315 1.256 . S
O294 Tb251 2.308 1_455 S
O294 C314 1.266 . S
O295 Tb240 2.393 . S
O295 C314 1.248 . S
C296 O285 1.264 . S
C296 O286 1.243 . S
C297 C300 1.399 . S
C297 C302 1.383 . S
C297 C304 1.496 . S
C298 C299 1.399 . S
C298 C302 1.389 . S
C299 C298 1.399 . S
C299 C301 1.380 . S
C299 H316 0.929 . S
C300 C297 1.399 . S
C300 C301 1.392 . S
C300 H317 0.929 . S
C301 C299 1.380 . S
C301 C300 1.392 . S
C301 H318 0.929 . S
C302 C297 1.383 . S
C302 C298 1.389 . S
C302 H319 0.931 . S
C303 O288 1.266 1_655 S
C303 O289 1.248 . S
C304 Tb240 2.802 . S
C304 O284 1.264 . S
C304 O287 1.256 . S
C304 C297 1.496 . S
C305 C272 1.448 . S
C305 H282 0.930 . S
C305 C306 1.328 . S
C306 C277 1.427 . S
C306 H283 0.929 . S
C306 C305 1.328 . S
C307 O291 1.264 . S
C307 O292 1.243 1_655 S
C308 C311 1.399 . S
C308 C312 1.383 . S
C308 C315 1.496 . S
C309 C310 1.399 . S
C309 C312 1.389 . S
C310 C309 1.399 . S
C310 C313 1.380 . S
C310 H320 0.929 . S
C311 C308 1.399 . S
C311 C313 1.392 . S
C311 H321 0.929 . S
C312 C308 1.383 . S
C312 C309 1.389 . S
C312 H322 0.931 . S
C313 C310 1.380 . S
C313 C311 1.392 . S
C313 H323 0.929 . S
C314 O294 1.266 . S
C314 O295 1.248 . S
C315 Tb251 2.802 . S
C315 O290 1.264 . S
C315 O293 1.256 . S
C315 C308 1.496 . S
H316 C299 0.929 . S
H317 C300 0.929 . S
H318 C301 0.929 . S
H319 C302 0.931 . S
H320 C310 0.929 . S
H321 C311 0.929 . S
H322 C312 0.931 . S
H323 C313 0.929 . S
Tb324 N353 2.617 . S
Tb324 N359 2.572 . S
Tb324 O368 2.465 . S
Tb324 O369 2.387 . S
Tb324 O371 2.428 . S
Tb324 O372 2.308 . S
Tb324 O376 2.349 . S
Tb324 O379 2.393 . S
Tb324 C388 2.802 . S
C325 N326 1.379 . S
C325 C328 1.416 . S
C325 C332 1.424 . S
N326 C325 1.379 . S
N326 C329 1.334 . S
N326 Tb335 2.617 . S
C327 C329 1.390 . S
C327 C330 1.339 . S
C327 H347 0.930 . S
C328 C325 1.416 . S
C328 C330 1.416 . S
C328 C334 1.448 . S
C329 N326 1.334 . S
C329 C327 1.390 . S
C329 H340 0.930 . S
C330 C327 1.339 . S
C330 C328 1.416 . S
C330 H351 0.930 . S
C331 C332 1.413 . S
C331 C333 1.427 . S
C331 C337 1.416 . S
C332 C325 1.424 . S
C332 C331 1.413 . S
C332 N336 1.361 . S
C333 C331 1.427 . S
C333 C334 1.328 . S
C333 H348 0.929 . S
C334 C328 1.448 . S
C334 C333 1.328 . S
C334 H349 0.930 . S
Tb335 N326 2.617 . S
Tb335 N336 2.572 . S
Tb335 O370 2.349 . S
Tb335 O373 2.393 . S
Tb335 O374 2.465 . S
Tb335 O375 2.387 . S
Tb335 O377 2.428 . S
Tb335 O378 2.308 . S
Tb335 C399 2.802 . S
N336 C332 1.361 . S
N336 Tb335 2.572 . S
N336 C338 1.340 . S
C337 C331 1.416 . S
C337 C339 1.332 . S
C337 H345 0.931 . S
C338 N336 1.340 . S
C338 C339 1.407 . S
C338 H344 0.930 . S
C339 C337 1.332 . S
C339 C338 1.407 . S
C339 H341 0.929 . S
H340 C329 0.930 . S
H341 C339 0.929 . S
H342 C357 0.930 . S
H343 C364 0.929 . S
H344 C338 0.930 . S
H345 C337 0.931 . S
H346 C360 0.930 . S
H347 C327 0.930 . S
H348 C333 0.929 . S
H349 C334 0.930 . S
H350 C355 0.930 . S
H351 C330 0.930 . S
H352 C363 0.931 . S
N353 Tb324 2.617 . S
N353 C354 1.379 . S
N353 C357 1.334 . S
C354 N353 1.379 . S
C354 C356 1.416 . S
C354 C362 1.424 . S
C355 H350 0.930 . S
C355 C357 1.390 . S
C355 C358 1.339 . S
C356 C354 1.416 . S
C356 C358 1.416 . S
C356 C389 1.448 . S
C357 H342 0.930 . S
C357 N353 1.334 . S
C357 C355 1.390 . S
C358 C355 1.339 . S
C358 C356 1.416 . S
C358 H365 0.930 . S
N359 Tb324 2.572 . S
N359 C360 1.340 . S
N359 C362 1.361 . S
C360 H346 0.930 . S
C360 N359 1.340 . S
C360 C364 1.407 . S
C361 C362 1.413 . S
C361 C363 1.416 . S
C361 C390 1.427 . S
C362 C354 1.424 . S
C362 N359 1.361 . S
C362 C361 1.413 . S
C363 H352 0.931 . S
C363 C361 1.416 . S
C363 C364 1.332 . S
C364 H343 0.929 . S
C364 C360 1.407 . S
C364 C363 1.332 . S
H365 C358 0.930 . S
H366 C389 0.930 . S
H367 C390 0.929 . S
O368 Tb324 2.465 . S
O368 C388 1.264 . S
O369 Tb324 2.387 . S
O369 C380 1.264 . S
O370 Tb335 2.349 . S
O370 C380 1.243 . S
O371 Tb324 2.428 . S
O371 C388 1.256 . S
O372 Tb324 2.308 . S
O372 C387 1.266 . S
O373 Tb335 2.393 . S
O373 C387 1.248 . S
O374 Tb335 2.465 . S
O374 C399 1.264 . S
O375 Tb335 2.387 . S
O375 C391 1.264 . S
O376 Tb324 2.349 . S
O376 C391 1.243 . S
O377 Tb335 2.428 . S
O377 C399 1.256 . S
O378 Tb335 2.308 . S
O378 C398 1.266 . S
O379 Tb324 2.393 . S
O379 C398 1.248 . S
C380 O369 1.264 . S
C380 O370 1.243 . S
C381 C384 1.399 . S
C381 C386 1.383 . S
C381 C388 1.496 . S
C382 C383 1.399 . S
C382 C386 1.389 . S
C383 C382 1.399 . S
C383 C385 1.380 . S
C383 H400 0.929 . S
C384 C381 1.399 . S
C384 C385 1.392 . S
C384 H401 0.929 . S
C385 C383 1.380 . S
C385 C384 1.392 . S
C385 H402 0.929 . S
C386 C381 1.383 . S
C386 C382 1.389 . S
C386 H403 0.931 . S
C387 O372 1.266 . S
C387 O373 1.248 . S
C388 Tb324 2.802 . S
C388 O368 1.264 . S
C388 O371 1.256 . S
C388 C381 1.496 . S
C389 C356 1.448 . S
C389 H366 0.930 . S
C389 C390 1.328 . S
C390 C361 1.427 . S
C390 H367 0.929 . S
C390 C389 1.328 . S
C391 O375 1.264 . S
C391 O376 1.243 . S
C392 C395 1.399 . S
C392 C396 1.383 . S
C392 C399 1.496 . S
C393 C394 1.399 . S
C393 C396 1.389 . S
C394 C393 1.399 . S
C394 C397 1.380 . S
C394 H404 0.929 . S
C395 C392 1.399 . S
C395 C397 1.392 . S
C395 H405 0.929 . S
C396 C392 1.383 . S
C396 C393 1.389 . S
C396 H406 0.931 . S
C397 C394 1.380 . S
C397 C395 1.392 . S
C397 H407 0.929 . S
C398 O378 1.266 . S
C398 O379 1.248 . S
C399 Tb335 2.802 . S
C399 O374 1.264 . S
C399 O377 1.256 . S
C399 C392 1.496 . S
H400 C383 0.929 . S
H401 C384 0.929 . S
H402 C385 0.929 . S
H403 C386 0.931 . S
H404 C394 0.929 . S
H405 C395 0.929 . S
H406 C396 0.931 . S
H407 C397 0.929 . S
C408 C409 1.349 . S
C408 C410 1.327 . S
C408 H433 0.950 . S
C409 C408 1.349 . S
C409 C425 1.349 . S
C410 C408 1.327 . S
C410 C429 1.429 . S
C410 H434 0.950 . S
C411 C428 1.578 . S
C411 C430 1.365 1_545 S
C411 H435 0.948 1_545 S
H412 C416 0.949 . S
C413 C414 1.349 . S
C413 C415 1.327 . S
C413 H436 0.950 . S
C414 C413 1.349 . S
C414 C426 1.349 . S
C415 C413 1.327 . S
C415 C431 1.429 . S
C415 H437 0.950 . S
C416 H412 0.949 . S
C416 C424 1.574 1_545 S
C416 C432 1.368 . S
H417 C425 0.950 . S
H418 C423 0.950 . S
H419 C424 0.949 . S
H420 C426 0.950 1_655 S
H421 C427 0.950 . S
H422 C428 0.949 . S
C423 H418 0.950 . S
C423 C425 1.327 . S
C423 C429 1.429 . S
C424 C416 1.574 1_565 S
C424 H419 0.949 . S
C424 C430 1.368 . S
C425 C409 1.349 . S
C425 H417 0.950 . S
C425 C423 1.327 . S
C426 C414 1.349 . S
C426 H420 0.950 1_455 S
C426 C427 1.327 . S
C427 H421 0.950 . S
C427 C426 1.327 . S
C427 C431 1.429 . S
C428 C411 1.578 . S
C428 H422 0.949 . S
C428 C432 1.368 . S
C429 C410 1.429 . S
C429 C423 1.429 . S
C429 C430 1.523 . S
C430 C411 1.365 1_565 S
C430 C424 1.368 . S
C430 C429 1.523 . S
C431 C415 1.429 . S
C431 C427 1.429 . S
C431 C432 1.523 . S
C432 C416 1.368 . S
C432 C428 1.368 . S
C432 C431 1.523 . S
H433 C408 0.950 . S
H434 C410 0.950 . S
H435 C411 0.948 1_565 S
H436 C413 0.950 . S
H437 C415 0.950 . S
C438 C439 1.349 . S
C438 C440 1.327 . S
C438 H463 0.950 . S
C439 C438 1.349 . S
C439 C455 1.349 . S
C440 C438 1.327 . S
C440 C459 1.429 . S
C440 H464 0.950 . S
C441 C458 1.574 . S
C441 C460 1.368 . S
C441 H465 0.949 . S
H442 C446 0.949 . S
C443 C444 1.349 . S
C443 C445 1.327 . S
C443 H466 0.950 . S
C444 C443 1.349 . S
C444 C456 1.349 . S
C445 C443 1.327 . S
C445 C461 1.429 . S
C445 H467 0.950 . S
C446 H442 0.949 . S
C446 C454 1.574 . S
C446 C462 1.368 . S
H447 C455 0.950 . S
H448 C453 0.950 . S
H449 C454 0.949 . S
H450 C456 0.950 . S
H451 C457 0.950 . S
H452 C458 0.949 . S
C453 H448 0.950 . S
C453 C455 1.327 . S
C453 C459 1.429 . S
C454 C446 1.574 . S
C454 H449 0.949 . S
C454 C460 1.368 . S
C455 C439 1.349 . S
C455 H447 0.950 . S
C455 C453 1.327 . S
C456 C444 1.349 . S
C456 H450 0.950 . S
C456 C457 1.327 . S
C457 H451 0.950 . S
C457 C456 1.327 . S
C457 C461 1.429 . S
C458 C441 1.574 . S
C458 H452 0.949 . S
C458 C462 1.368 . S
C459 C440 1.429 . S
C459 C453 1.429 . S
C459 C460 1.523 . S
C460 C441 1.368 . S
C460 C454 1.368 . S
C460 C459 1.523 . S
C461 C445 1.429 . S
C461 C457 1.429 . S
C461 C462 1.523 . S
C462 C446 1.368 . S
C462 C458 1.368 . S
C462 C461 1.523 . S
H463 C438 0.950 . S
H464 C440 0.950 . S
H465 C441 0.949 . S
H466 C443 0.950 . S
H467 C445 0.950 . S
C468 C469 1.349 . S
C468 C470 1.327 . S
C468 H493 0.950 . S
C469 C468 1.349 . S
C469 C485 1.349 . S
C470 C468 1.327 . S
C470 C489 1.429 . S
C470 H494 0.950 . S
C471 C488 1.574 . S
C471 C490 1.368 . S
C471 H495 0.949 . S
H472 C476 0.949 . S
C473 C474 1.349 . S
C473 C475 1.327 . S
C473 H496 0.950 . S
C474 C473 1.349 . S
C474 C486 1.349 . S
C475 C473 1.327 . S
C475 C491 1.429 . S
C475 H497 0.950 . S
C476 H472 0.949 . S
C476 C484 1.574 . S
C476 C492 1.368 . S
H477 C485 0.950 . S
H478 C483 0.950 . S
H479 C484 0.949 . S
H480 C486 0.950 . S
H481 C487 0.950 . S
H482 C488 0.949 . S
C483 H478 0.950 . S
C483 C485 1.327 . S
C483 C489 1.429 . S
C484 C476 1.574 . S
C484 H479 0.949 . S
C484 C490 1.368 . S
C485 C469 1.349 . S
C485 H477 0.950 . S
C485 C483 1.327 . S
C486 C474 1.349 . S
C486 H480 0.950 . S
C486 C487 1.327 . S
C487 H481 0.950 . S
C487 C486 1.327 . S
C487 C491 1.429 . S
C488 C471 1.574 . S
C488 H482 0.949 . S
C488 C492 1.368 . S
C489 C470 1.429 . S
C489 C483 1.429 . S
C489 C490 1.523 . S
C490 C471 1.368 . S
C490 C484 1.368 . S
C490 C489 1.523 . S
C491 C475 1.429 . S
C491 C487 1.429 . S
C491 C492 1.523 . S
C492 C476 1.368 . S
C492 C488 1.368 . S
C492 C491 1.523 . S
H493 C468 0.950 . S
H494 C470 0.950 . S
H495 C471 0.949 . S
H496 C473 0.950 . S
H497 C475 0.950 . S
C498 C499 1.349 . S
C498 C500 1.327 . S
C498 H523 0.950 . S
C499 C498 1.349 . S
C499 C515 1.349 . S
C500 C498 1.327 . S
C500 C519 1.429 . S
C500 H524 0.950 . S
C501 C518 1.574 . S
C501 C520 1.368 1_545 S
C501 H525 0.949 . S
H502 C506 0.946 1_565 S
C503 C504 1.349 . S
C503 C505 1.327 . S
C503 H526 0.950 . S
C504 C503 1.349 . S
C504 C516 1.349 . S
C505 C503 1.327 . S
C505 C521 1.429 . S
C505 H527 0.950 . S
C506 H502 0.946 1_545 S
C506 C514 1.574 1_545 S
C506 C522 1.368 . S
H507 C515 0.950 . S
H508 C513 0.950 . S
H509 C514 0.949 . S
H510 C516 0.950 . S
H511 C517 0.950 . S
H512 C518 0.949 . S
C513 H508 0.950 . S
C513 C515 1.327 . S
C513 C519 1.429 . S
C514 C506 1.574 1_565 S
C514 H509 0.949 . S
C514 C520 1.368 . S
C515 C499 1.349 . S
C515 H507 0.950 . S
C515 C513 1.327 . S
C516 C504 1.349 . S
C516 H510 0.950 . S
C516 C517 1.327 . S
C517 H511 0.950 . S
C517 C516 1.327 . S
C517 C521 1.429 . S
C518 C501 1.574 . S
C518 H512 0.949 . S
C518 C522 1.368 . S
C519 C500 1.429 . S
C519 C513 1.429 . S
C519 C520 1.523 . S
C520 C501 1.368 1_565 S
C520 C514 1.368 . S
C520 C519 1.523 . S
C521 C505 1.429 . S
C521 C517 1.429 . S
C521 C522 1.523 . S
C522 C506 1.368 . S
C522 C518 1.368 . S
C522 C521 1.523 . S
H523 C498 0.950 . S
H524 C500 0.950 . S
H525 C501 0.949 . S
H526 C503 0.950 . S
H527 C505 0.950 . S
C528 C529 1.349 . S
C528 C530 1.327 . S
C528 H553 0.950 . S
C529 C528 1.349 . S
C529 C545 1.349 . S
C530 C528 1.327 . S
C530 C549 1.429 . S
C530 H554 0.950 . S
C531 C548 1.549 1_545 S
C531 C550 1.386 . S
C531 H555 0.956 . S
H532 C536 0.949 . S
C533 C534 1.349 . S
C533 C535 1.327 . S
C533 H556 0.950 . S
C534 C533 1.349 . S
C534 C546 1.349 . S
C535 C533 1.327 . S
C535 C551 1.429 . S
C535 H557 0.950 . S
C536 H532 0.949 . S
C536 C544 1.574 1_565 S
C536 C552 1.368 . S
H537 C545 0.950 . S
H538 C543 0.950 . S
H539 C544 0.949 . S
H540 C546 0.950 . S
H541 C547 0.950 . S
H542 C548 0.949 . S
C543 H538 0.950 . S
C543 C545 1.327 . S
C543 C549 1.429 . S
C544 C536 1.574 1_545 S
C544 H539 0.949 . S
C544 C550 1.368 . S
C545 C529 1.349 . S
C545 H537 0.950 . S
C545 C543 1.327 . S
C546 C534 1.349 . S
C546 H540 0.950 . S
C546 C547 1.327 . S
C547 H541 0.950 . S
C547 C546 1.327 . S
C547 C551 1.429 . S
C548 C531 1.549 1_565 S
C548 H542 0.949 . S
C548 C552 1.368 . S
C549 C530 1.429 . S
C549 C543 1.429 . S
C549 C550 1.523 . S
C550 C531 1.386 . S
C550 C544 1.368 . S
C550 C549 1.523 . S
C551 C535 1.429 . S
C551 C547 1.429 . S
C551 C552 1.523 . S
C552 C536 1.368 . S
C552 C548 1.368 . S
C552 C551 1.523 . S
H553 C528 0.950 . S
H554 C530 0.950 . S
H555 C531 0.956 . S
H556 C533 0.950 . S
H557 C535 0.950 . S
C558 C559 1.349 . S
C558 C560 1.327 . S
C558 H583 0.950 . S
C559 C558 1.349 . S
C559 C575 1.349 . S
C560 C558 1.327 . S
C560 C579 1.429 . S
C560 H584 0.950 . S
C561 C578 1.574 . S
C561 C580 1.368 . S
C561 H585 0.949 . S
H562 C566 0.949 . S
C563 C564 1.349 . S
C563 C565 1.327 . S
C563 H586 0.950 . S
C564 C563 1.349 . S
C564 C576 1.349 . S
C565 C563 1.327 . S
C565 C581 1.429 . S
C565 H587 0.950 . S
C566 H562 0.949 . S
C566 C574 1.574 . S
C566 C582 1.368 . S
H567 C575 0.950 . S
H568 C573 0.950 . S
H569 C574 0.949 . S
H570 C576 0.950 . S
H571 C577 0.950 . S
H572 C578 0.949 . S
C573 H568 0.950 . S
C573 C575 1.327 . S
C573 C579 1.429 . S
C574 C566 1.574 . S
C574 H569 0.949 . S
C574 C580 1.368 . S
C575 C559 1.349 . S
C575 H567 0.950 . S
C575 C573 1.327 . S
C576 C564 1.349 . S
C576 H570 0.950 . S
C576 C577 1.327 . S
C577 H571 0.950 . S
C577 C576 1.327 . S
C577 C581 1.429 . S
C578 C561 1.574 . S
C578 H572 0.949 . S
C578 C582 1.368 . S
C579 C560 1.429 . S
C579 C573 1.429 . S
C579 C580 1.523 . S
C580 C561 1.368 . S
C580 C574 1.368 . S
C580 C579 1.523 . S
C581 C565 1.429 . S
C581 C577 1.429 . S
C581 C582 1.523 . S
C582 C566 1.368 . S
C582 C578 1.368 . S
C582 C581 1.523 . S
H583 C558 0.950 . S
H584 C560 0.950 . S
H585 C561 0.949 . S
H586 C563 0.950 . S
H587 C565 0.950 . S
C588 C589 1.349 . S
C588 C590 1.327 . S
C588 H613 0.950 . S
C589 C588 1.349 . S
C589 C605 1.349 . S
C590 C588 1.327 . S
C590 C609 1.429 . S
C590 H614 0.950 . S
C591 C608 1.574 . S
C591 C610 1.368 . S
C591 H615 0.949 . S
H592 C596 0.949 . S
C593 C594 1.349 . S
C593 C595 1.327 . S
C593 H616 0.950 . S
C594 C593 1.349 . S
C594 C606 1.349 . S
C595 C593 1.327 . S
C595 C611 1.429 . S
C595 H617 0.950 . S
C596 H592 0.949 . S
C596 C604 1.574 . S
C596 C612 1.368 . S
H597 C605 0.950 . S
H598 C603 0.950 . S
H599 C604 0.949 . S
H600 C606 0.950 . S
H601 C607 0.950 . S
H602 C608 0.949 . S
C603 H598 0.950 . S
C603 C605 1.327 . S
C603 C609 1.429 . S
C604 C596 1.574 . S
C604 H599 0.949 . S
C604 C610 1.368 . S
C605 C589 1.349 . S
C605 H597 0.950 . S
C605 C603 1.327 . S
C606 C594 1.349 . S
C606 H600 0.950 . S
C606 C607 1.327 . S
C607 H601 0.950 . S
C607 C606 1.327 . S
C607 C611 1.429 . S
C608 C591 1.574 . S
C608 H602 0.949 . S
C608 C612 1.368 . S
C609 C590 1.429 . S
C609 C603 1.429 . S
C609 C610 1.523 . S
C610 C591 1.368 . S
C610 C604 1.368 . S
C610 C609 1.523 . S
C611 C595 1.429 . S
C611 C607 1.429 . S
C611 C612 1.523 . S
C612 C596 1.368 . S
C612 C608 1.368 . S
C612 C611 1.523 . S
H613 C588 0.950 . S
H614 C590 0.950 . S
H615 C591 0.949 . S
H616 C593 0.950 . S
H617 C595 0.950 . S
C618 C619 1.349 . S
C618 C620 1.327 . S
C618 H643 0.950 . S
C619 C618 1.349 . S
C619 C635 1.349 . S
C620 C618 1.327 . S
C620 C639 1.429 . S
C620 H644 0.950 . S
C621 C638 1.574 1_545 S
C621 C640 1.368 . S
C621 H645 0.949 . S
H622 C626 0.949 . S
C623 C624 1.349 . S
C623 C625 1.327 . S
C623 H646 0.950 . S
C624 C623 1.349 . S
C624 C636 1.349 . S
C625 C623 1.327 . S
C625 C641 1.429 . S
C625 H647 0.950 . S
C626 H622 0.949 . S
C626 C634 1.574 1_565 S
C626 C642 1.368 . S
H627 C635 0.950 . S
H628 C633 0.950 . S
H629 C634 0.949 . S
H630 C636 0.950 . S
H631 C637 0.950 . S
H632 C638 0.949 . S
C633 H628 0.950 . S
C633 C635 1.327 . S
C633 C639 1.429 . S
C634 C626 1.574 1_545 S
C634 H629 0.949 . S
C634 C640 1.368 . S
C635 C619 1.349 . S
C635 H627 0.950 . S
C635 C633 1.327 . S
C636 C624 1.349 . S
C636 H630 0.950 . S
C636 C637 1.327 . S
C637 H631 0.950 . S
C637 C636 1.327 . S
C637 C641 1.429 . S
C638 C621 1.574 1_565 S
C638 H632 0.949 . S
C638 C642 1.368 . S
C639 C620 1.429 . S
C639 C633 1.429 . S
C639 C640 1.523 . S
C640 C621 1.368 . S
C640 C634 1.368 . S
C640 C639 1.523 . S
C641 C625 1.429 . S
C641 C637 1.429 . S
C641 C642 1.523 . S
C642 C626 1.368 . S
C642 C638 1.368 . S
C642 C641 1.523 . S
H643 C618 0.950 . S
H644 C620 0.950 . S
H645 C621 0.949 . S
H646 C623 0.950 . S
H647 C625 0.950 . S
C648 C649 1.349 . S
C648 C650 1.327 . S
C648 H673 0.950 . S
C649 C648 1.349 . S
C649 C665 1.349 . S
C650 C648 1.327 . S
C650 C669 1.429 . S
C650 H674 0.950 . S
C651 C668 1.574 . S
C651 C670 1.368 . S
C651 H675 0.949 . S
H652 C656 0.949 . S
C653 C654 1.349 . S
C653 C655 1.327 . S
C653 H676 0.950 . S
C654 C653 1.349 . S
C654 C666 1.349 . S
C655 C653 1.327 . S
C655 C671 1.429 . S
C655 H677 0.950 . S
C656 H652 0.949 . S
C656 C664 1.574 . S
C656 C672 1.368 . S
H657 C665 0.950 . S
H658 C663 0.950 . S
H659 C664 0.949 . S
H660 C666 0.950 . S
H661 C667 0.950 . S
H662 C668 0.949 . S
C663 H658 0.950 . S
C663 C665 1.327 . S
C663 C669 1.429 . S
C664 C656 1.574 . S
C664 H659 0.949 . S
C664 C670 1.368 . S
C665 C649 1.349 . S
C665 H657 0.950 . S
C665 C663 1.327 . S
C666 C654 1.349 . S
C666 H660 0.950 . S
C666 C667 1.327 . S
C667 H661 0.950 . S
C667 C666 1.327 . S
C667 C671 1.429 . S
C668 C651 1.574 . S
C668 H662 0.949 . S
C668 C672 1.368 . S
C669 C650 1.429 . S
C669 C663 1.429 . S
C669 C670 1.523 1_556 S
C670 C651 1.368 . S
C670 C664 1.368 . S
C670 C669 1.523 1_554 S
C671 C655 1.429 . S
C671 C667 1.429 . S
C671 C672 1.523 . S
C672 C656 1.368 . S
C672 C668 1.368 . S
C672 C671 1.523 . S
H673 C648 0.950 . S
H674 C650 0.950 . S
H675 C651 0.949 . S
H676 C653 0.950 . S
H677 C655 0.950 . S
C678 C679 1.349 . S
C678 C680 1.327 . S
C678 H703 0.950 . S
C679 C678 1.349 . S
C679 C695 1.349 . S
C680 C678 1.327 . S
C680 C699 1.429 . S
C680 H704 0.950 . S
C681 C698 1.574 . S
C681 C700 1.368 . S
C681 H705 0.949 . S
H682 C686 0.949 . S
C683 C684 1.349 . S
C683 C685 1.327 . S
C683 H706 0.950 . S
C684 C683 1.349 . S
C684 C696 1.349 . S
C685 C683 1.327 . S
C685 C701 1.429 . S
C685 H707 0.950 . S
C686 H682 0.949 . S
C686 C694 1.574 . S
C686 C702 1.368 . S
H687 C695 0.950 . S
H688 C693 0.950 . S
H689 C694 0.949 . S
H690 C696 0.950 . S
H691 C697 0.950 . S
H692 C698 0.949 . S
C693 H688 0.950 . S
C693 C695 1.327 . S
C693 C699 1.429 . S
C694 C686 1.574 . S
C694 H689 0.949 . S
C694 C700 1.368 . S
C695 C679 1.349 . S
C695 H687 0.950 . S
C695 C693 1.327 . S
C696 C684 1.349 . S
C696 H690 0.950 . S
C696 C697 1.327 . S
C697 H691 0.950 . S
C697 C696 1.327 . S
C697 C701 1.429 . S
C698 C681 1.574 . S
C698 H692 0.949 . S
C698 C702 1.368 . S
C699 C680 1.429 . S
C699 C693 1.429 . S
C699 C700 1.523 . S
C700 C681 1.368 . S
C700 C694 1.368 . S
C700 C699 1.523 . S
C701 C685 1.429 . S
C701 C697 1.429 . S
C701 C702 1.523 . S
C702 C686 1.368 . S
C702 C698 1.368 . S
C702 C701 1.523 . S
H703 C678 0.950 . S
H704 C680 0.950 . S
H705 C681 0.949 . S
H706 C683 0.950 . S
H707 C685 0.950 . S
C708 C709 1.349 . S
C708 C710 1.327 . S
C708 H733 0.950 . S
C709 C708 1.349 . S
C709 C725 1.349 . S
C710 C708 1.327 . S
C710 C729 1.429 . S
C710 H734 0.950 . S
C711 C728 1.574 . S
C711 C730 1.368 . S
C711 H735 0.949 . S
H712 C716 0.949 . S
C713 C714 1.349 . S
C713 C715 1.327 . S
C713 H736 0.950 . S
C714 C713 1.349 . S
C714 C726 1.349 . S
C715 C713 1.327 . S
C715 C731 1.429 . S
C715 H737 0.950 . S
C716 H712 0.949 . S
C716 C724 1.574 . S
C716 C732 1.368 . S
H717 C725 0.950 . S
H718 C723 0.950 . S
H719 C724 0.949 . S
H720 C726 0.950 . S
H721 C727 0.950 . S
H722 C728 0.949 . S
C723 H718 0.950 . S
C723 C725 1.327 . S
C723 C729 1.429 . S
C724 C716 1.574 . S
C724 H719 0.949 . S
C724 C730 1.368 . S
C725 C709 1.349 . S
C725 H717 0.950 . S
C725 C723 1.327 . S
C726 C714 1.349 . S
C726 H720 0.950 . S
C726 C727 1.327 . S
C727 H721 0.950 . S
C727 C726 1.327 . S
C727 C731 1.429 . S
C728 C711 1.574 . S
C728 H722 0.949 . S
C728 C732 1.368 . S
C729 C710 1.429 . S
C729 C723 1.429 . S
C729 C730 1.523 1_554 S
C730 C711 1.368 . S
C730 C724 1.368 . S
C730 C729 1.523 1_556 S
C731 C715 1.429 . S
C731 C727 1.429 . S
C731 C732 1.523 . S
C732 C716 1.368 . S
C732 C728 1.368 . S
C732 C731 1.523 . S
H733 C708 0.950 . S
H734 C710 0.950 . S
H735 C711 0.949 . S
H736 C713 0.950 . S
H737 C715 0.950 . S
C738 C739 1.349 . S
C738 C740 1.327 . S
C738 H763 0.950 . S
C739 C738 1.349 . S
C739 C755 1.349 . S
C740 C738 1.327 . S
C740 C759 1.429 . S
C740 H764 0.950 . S
C741 C758 1.574 . S
C741 C760 1.368 . S
C741 H765 0.949 . S
H742 C746 0.949 . S
C743 C744 1.349 . S
C743 C745 1.327 . S
C743 H766 0.950 . S
C744 C743 1.349 . S
C744 C756 1.349 . S
C745 C743 1.327 . S
C745 C761 1.429 . S
C745 H767 0.950 . S
C746 H742 0.949 . S
C746 C754 1.574 . S
C746 C762 1.368 . S
H747 C755 0.950 . S
H748 C753 0.950 . S
H749 C754 0.949 . S
H750 C756 0.950 . S
H751 C757 0.950 . S
H752 C758 0.949 . S
C753 H748 0.950 . S
C753 C755 1.327 . S
C753 C759 1.429 . S
C754 C746 1.574 . S
C754 H749 0.949 . S
C754 C760 1.368 . S
C755 C739 1.349 . S
C755 H747 0.950 . S
C755 C753 1.327 . S
C756 C744 1.349 . S
C756 H750 0.950 . S
C756 C757 1.327 . S
C757 H751 0.950 . S
C757 C756 1.327 . S
C757 C761 1.429 . S
C758 C741 1.574 . S
C758 H752 0.949 . S
C758 C762 1.368 . S
C759 C740 1.429 . S
C759 C753 1.429 . S
C759 C760 1.523 . S
C760 C741 1.368 . S
C760 C754 1.368 . S
C760 C759 1.523 . S
C761 C745 1.429 . S
C761 C757 1.429 . S
C761 C762 1.523 . S
C762 C746 1.368 . S
C762 C758 1.368 . S
C762 C761 1.523 . S
H763 C738 0.950 . S
H764 C740 0.950 . S
H765 C741 0.949 . S
H766 C743 0.950 . S
H767 C745 0.950 . S
C768 C769 1.349 . S
C768 C770 1.327 . S
C768 H793 0.950 . S
C769 C768 1.349 . S
C769 C785 1.349 . S
C770 C768 1.327 . S
C770 C789 1.429 . S
C770 H794 0.950 . S
C771 C788 1.574 . S
C771 C790 1.368 . S
C771 H795 0.949 . S
H772 C776 0.949 . S
C773 C774 1.349 . S
C773 C775 1.327 . S
C773 H796 0.950 . S
C774 C773 1.349 . S
C774 C786 1.349 . S
C775 C773 1.327 . S
C775 C791 1.429 . S
C775 H797 0.950 . S
C776 H772 0.949 . S
C776 C784 1.574 . S
C776 C792 1.368 . S
H777 C785 0.950 . S
H778 C783 0.950 . S
H779 C784 0.949 . S
H780 C786 0.950 . S
H781 C787 0.950 . S
H782 C788 0.949 . S
C783 H778 0.950 . S
C783 C785 1.327 . S
C783 C789 1.429 . S
C784 C776 1.574 . S
C784 H779 0.949 . S
C784 C790 1.368 . S
C785 C769 1.349 . S
C785 H777 0.950 . S
C785 C783 1.327 . S
C786 C774 1.349 . S
C786 H780 0.950 . S
C786 C787 1.327 . S
C787 H781 0.950 . S
C787 C786 1.327 . S
C787 C791 1.429 . S
C788 C771 1.574 . S
C788 H782 0.949 . S
C788 C792 1.368 . S
C789 C770 1.429 . S
C789 C783 1.429 . S
C789 C790 1.523 1_554 S
C790 C771 1.368 . S
C790 C784 1.368 . S
C790 C789 1.523 1_556 S
C791 C775 1.429 . S
C791 C787 1.429 . S
C791 C792 1.523 . S
C792 C776 1.368 . S
C792 C788 1.368 . S
C792 C791 1.523 . S
H793 C768 0.950 . S
H794 C770 0.950 . S
H795 C771 0.949 . S
H796 C773 0.950 . S
H797 C775 0.950 . S
C798 C799 1.349 . S
C798 C800 1.327 . S
C798 H823 0.950 . S
C799 C798 1.349 . S
C799 C815 1.349 . S
C800 C798 1.327 . S
C800 C819 1.429 . S
C800 H824 0.950 . S
C801 C818 1.574 . S
C801 C820 1.368 . S
C801 H825 0.949 . S
H802 C806 0.949 . S
C803 C804 1.349 . S
C803 C805 1.327 . S
C803 H826 0.950 . S
C804 C803 1.349 . S
C804 C816 1.349 . S
C805 C803 1.327 . S
C805 C821 1.429 . S
C805 H827 0.950 . S
C806 H802 0.949 . S
C806 C814 1.574 . S
C806 C822 1.368 . S
H807 C815 0.950 . S
H808 C813 0.950 . S
H809 C814 0.949 . S
H810 C816 0.950 . S
H811 C817 0.950 . S
H812 C818 0.949 . S
C813 H808 0.950 . S
C813 C815 1.327 . S
C813 C819 1.429 . S
C814 C806 1.574 . S
C814 H809 0.949 . S
C814 C820 1.368 . S
C815 C799 1.349 . S
C815 H807 0.950 . S
C815 C813 1.327 . S
C816 C804 1.349 . S
C816 H810 0.950 . S
C816 C817 1.327 . S
C817 H811 0.950 . S
C817 C816 1.327 . S
C817 C821 1.429 . S
C818 C801 1.574 . S
C818 H812 0.949 . S
C818 C822 1.368 . S
C819 C800 1.429 . S
C819 C813 1.429 . S
C819 C820 1.523 . S
C820 C801 1.368 . S
C820 C814 1.368 . S
C820 C819 1.523 . S
C821 C805 1.429 . S
C821 C817 1.429 . S
C821 C822 1.523 . S
C822 C806 1.368 . S
C822 C818 1.368 . S
C822 C821 1.523 . S
H823 C798 0.950 . S
H824 C800 0.950 . S
H825 C801 0.949 . S
H826 C803 0.950 . S
H827 C805 0.950 . S
C828 C829 1.349 . S
C828 C830 1.327 . S
C828 H853 0.950 . S
C829 C828 1.349 . S
C829 C845 1.349 . S
C830 C828 1.327 . S
C830 C849 1.429 . S
C830 H854 0.950 . S
C831 C848 1.574 . S
C831 C850 1.368 . S
C831 H855 0.949 . S
H832 C836 0.949 . S
C833 C834 1.349 . S
C833 C835 1.327 . S
C833 H856 0.950 . S
C834 C833 1.349 . S
C834 C846 1.349 . S
C835 C833 1.327 . S
C835 C851 1.429 . S
C835 H857 0.950 . S
C836 H832 0.949 . S
C836 C844 1.574 . S
C836 C852 1.368 . S
H837 C845 0.950 . S
H838 C843 0.950 . S
H839 C844 0.949 . S
H840 C846 0.950 . S
H841 C847 0.950 . S
H842 C848 0.949 . S
C843 H838 0.950 . S
C843 C845 1.327 . S
C843 C849 1.429 . S
C844 C836 1.574 . S
C844 H839 0.949 . S
C844 C850 1.368 . S
C845 C829 1.349 . S
C845 H837 0.950 . S
C845 C843 1.327 . S
C846 C834 1.349 . S
C846 H840 0.950 . S
C846 C847 1.327 . S
C847 H841 0.950 . S
C847 C846 1.327 . S
C847 C851 1.429 . S
C848 C831 1.574 . S
C848 H842 0.949 . S
C848 C852 1.368 . S
C849 C830 1.429 . S
C849 C843 1.429 . S
C849 C850 1.523 1_556 S
C850 C831 1.368 . S
C850 C844 1.368 . S
C850 C849 1.523 1_554 S
C851 C835 1.429 . S
C851 C847 1.429 . S
C851 C852 1.523 . S
C852 C836 1.368 . S
C852 C848 1.368 . S
C852 C851 1.523 . S
H853 C828 0.950 . S
H854 C830 0.950 . S
H855 C831 0.949 . S
H856 C833 0.950 . S
H857 C835 0.950 . S
C858 C859 1.349 . S
C858 C860 1.327 . S
C858 H883 0.950 . S
C859 C858 1.349 . S
C859 C875 1.349 . S
C860 C858 1.327 . S
C860 C879 1.429 . S
C860 H884 0.950 . S
C861 C878 1.574 . S
C861 C880 1.368 . S
C861 H885 0.949 . S
H862 C866 0.949 . S
C863 C864 1.349 . S
C863 C865 1.327 . S
C863 H886 0.950 . S
C864 C863 1.349 . S
C864 C876 1.349 . S
C865 C863 1.327 . S
C865 C881 1.429 . S
C865 H887 0.950 . S
C866 H862 0.949 . S
C866 C874 1.574 . S
C866 C882 1.368 . S
H867 C875 0.950 . S
H868 C873 0.950 . S
H869 C874 0.949 . S
H870 C876 0.950 . S
H871 C877 0.950 . S
H872 C878 0.949 . S
C873 H868 0.950 . S
C873 C875 1.327 . S
C873 C879 1.429 . S
C874 C866 1.574 . S
C874 H869 0.949 . S
C874 C880 1.368 . S
C875 C859 1.349 . S
C875 H867 0.950 . S
C875 C873 1.327 . S
C876 C864 1.349 . S
C876 H870 0.950 . S
C876 C877 1.327 . S
C877 H871 0.950 . S
C877 C876 1.327 . S
C877 C881 1.429 . S
C878 C861 1.574 . S
C878 H872 0.949 . S
C878 C882 1.368 . S
C879 C860 1.429 . S
C879 C873 1.429 . S
C879 C880 1.523 . S
C880 C861 1.368 . S
C880 C874 1.368 . S
C880 C879 1.523 . S
C881 C865 1.429 . S
C881 C877 1.429 . S
C881 C882 1.523 . S
C882 C866 1.368 . S
C882 C878 1.368 . S
C882 C881 1.523 . S
H883 C858 0.950 . S
H884 C860 0.950 . S
H885 C861 0.949 . S
H886 C863 0.950 . S
H887 C865 0.950 . S
C888 C889 1.349 . S
C888 C890 1.327 . S
C888 H913 0.950 . S
C889 C888 1.349 . S
C889 C905 1.349 . S
C890 C888 1.327 . S
C890 C909 1.429 . S
C890 H914 0.950 . S
C891 C908 1.574 . S
C891 C910 1.368 . S
C891 H915 0.949 . S
H892 C896 0.949 . S
C893 C894 1.349 . S
C893 C895 1.327 . S
C893 H916 0.950 . S
C894 C893 1.349 . S
C894 C906 1.349 . S
C895 C893 1.327 . S
C895 C911 1.429 . S
C895 H917 0.950 . S
C896 H892 0.949 . S
C896 C904 1.574 . S
C896 C912 1.368 . S
H897 C905 0.950 . S
H898 C903 0.950 . S
H899 C904 0.949 . S
H900 C906 0.950 . S
H901 C907 0.950 . S
H902 C908 0.949 . S
C903 H898 0.950 . S
C903 C905 1.327 . S
C903 C909 1.429 . S
C904 C896 1.574 . S
C904 H899 0.949 . S
C904 C910 1.368 . S
C905 C889 1.349 . S
C905 H897 0.950 . S
C905 C903 1.327 . S
C906 C894 1.349 . S
C906 H900 0.950 . S
C906 C907 1.327 . S
C907 H901 0.950 . S
C907 C906 1.327 . S
C907 C911 1.429 . S
C908 C891 1.574 . S
C908 H902 0.949 . S
C908 C912 1.368 . S
C909 C890 1.429 . S
C909 C903 1.429 . S
C909 C910 1.523 . S
C910 C891 1.368 . S
C910 C904 1.368 . S
C910 C909 1.523 . S
C911 C895 1.429 . S
C911 C907 1.429 . S
C911 C912 1.523 . S
C912 C896 1.368 . S
C912 C908 1.368 . S
C912 C911 1.523 . S
H913 C888 0.950 . S
H914 C890 0.950 . S
H915 C891 0.949 . S
H916 C893 0.950 . S
H917 C895 0.950 . S
C918 C919 1.349 . S
C918 C920 1.327 . S
C918 H943 0.950 . S
C919 C918 1.349 . S
C919 C935 1.349 . S
C920 C918 1.327 . S
C920 C939 1.429 . S
C920 H944 0.950 . S
C921 C938 1.574 . S
C921 C940 1.368 . S
C921 H945 0.949 . S
H922 C926 0.949 . S
C923 C924 1.349 . S
C923 C925 1.327 . S
C923 H946 0.950 . S
C924 C923 1.349 . S
C924 C936 1.349 . S
C925 C923 1.327 . S
C925 C941 1.429 . S
C925 H947 0.950 . S
C926 H922 0.949 . S
C926 C934 1.574 . S
C926 C942 1.368 . S
H927 C935 0.950 . S
H928 C933 0.950 . S
H929 C934 0.949 . S
H930 C936 0.950 . S
H931 C937 0.950 . S
H932 C938 0.949 . S
C933 H928 0.950 . S
C933 C935 1.327 . S
C933 C939 1.429 . S
C934 C926 1.574 . S
C934 H929 0.949 . S
C934 C940 1.368 . S
C935 C919 1.349 . S
C935 H927 0.950 . S
C935 C933 1.327 . S
C936 C924 1.349 . S
C936 H930 0.950 . S
C936 C937 1.327 . S
C937 H931 0.950 . S
C937 C936 1.327 . S
C937 C941 1.429 . S
C938 C921 1.574 . S
C938 H932 0.949 . S
C938 C942 1.368 . S
C939 C920 1.429 . S
C939 C933 1.429 . S
C939 C940 1.523 . S
C940 C921 1.368 . S
C940 C934 1.368 . S
C940 C939 1.523 . S
C941 C925 1.429 . S
C941 C937 1.429 . S
C941 C942 1.523 . S
C942 C926 1.368 . S
C942 C938 1.368 . S
C942 C941 1.523 . S
H943 C918 0.950 . S
H944 C920 0.950 . S
H945 C921 0.949 . S
H946 C923 0.950 . S
H947 C925 0.950 . S
C948 C949 1.349 . S
C948 C950 1.327 . S
C948 H973 0.950 . S
C949 C948 1.349 . S
C949 C965 1.349 . S
C950 C948 1.327 . S
C950 C969 1.429 . S
C950 H974 0.950 . S
C951 C968 1.574 . S
C951 C970 1.368 . S
C951 H975 0.949 . S
H952 C956 0.949 . S
C953 C954 1.349 . S
C953 C955 1.327 . S
C953 H976 0.950 . S
C954 C953 1.349 . S
C954 C966 1.349 . S
C955 C953 1.327 . S
C955 C971 1.429 . S
C955 H977 0.950 . S
C956 H952 0.949 . S
C956 C964 1.574 . S
C956 C972 1.368 . S
H957 C965 0.950 . S
H958 C963 0.950 . S
H959 C964 0.949 . S
H960 C966 0.950 . S
H961 C967 0.950 . S
H962 C968 0.949 . S
C963 H958 0.950 . S
C963 C965 1.327 . S
C963 C969 1.429 . S
C964 C956 1.574 . S
C964 H959 0.949 . S
C964 C970 1.368 . S
C965 C949 1.349 . S
C965 H957 0.950 . S
C965 C963 1.327 . S
C966 C954 1.349 . S
C966 H960 0.950 . S
C966 C967 1.327 . S
C967 H961 0.950 . S
C967 C966 1.327 . S
C967 C971 1.429 . S
C968 C951 1.574 . S
C968 H962 0.949 . S
C968 C972 1.368 . S
C969 C950 1.429 . S
C969 C963 1.429 . S
C969 C970 1.523 . S
C970 C951 1.368 . S
C970 C964 1.368 . S
C970 C969 1.523 . S
C971 C955 1.429 . S
C971 C967 1.429 . S
C971 C972 1.523 . S
C972 C956 1.368 . S
C972 C968 1.368 . S
C972 C971 1.523 . S
H973 C948 0.950 . S
H974 C950 0.950 . S
H975 C951 0.949 . S
H976 C953 0.950 . S
H977 C955 0.950 . S
C978 C979 1.349 . S
C978 C980 1.327 . S
C978 H1003 0.950 . S
C979 C978 1.349 . S
C979 C995 1.349 . S
C980 C978 1.327 . S
C980 C999 1.429 . S
C980 H1004 0.950 . S
C981 C998 1.574 . S
C981 C1000 1.368 . S
C981 H1005 0.949 . S
H982 C986 0.949 . S
C983 C984 1.349 . S
C983 C985 1.327 . S
C983 H1006 0.950 . S
C984 C983 1.349 . S
C984 C996 1.349 . S
C985 C983 1.327 . S
C985 C1001 1.429 . S
C985 H1007 0.950 . S
C986 H982 0.949 . S
C986 C994 1.574 . S
C986 C1002 1.368 . S
H987 C995 0.950 . S
H988 C993 0.950 . S
H989 C994 0.949 . S
H990 C996 0.950 . S
H991 C997 0.950 . S
H992 C998 0.949 . S
C993 H988 0.950 . S
C993 C995 1.327 . S
C993 C999 1.429 . S
C994 C986 1.574 . S
C994 H989 0.949 . S
C994 C1000 1.368 . S
C995 C979 1.349 . S
C995 H987 0.950 . S
C995 C993 1.327 . S
C996 C984 1.349 . S
C996 H990 0.950 . S
C996 C997 1.327 . S
C997 H991 0.950 . S
C997 C996 1.327 . S
C997 C1001 1.429 . S
C998 C981 1.574 . S
C998 H992 0.949 . S
C998 C1002 1.368 . S
C999 C980 1.429 . S
C999 C993 1.429 . S
C999 C1000 1.523 . S
C1000 C981 1.368 . S
C1000 C994 1.368 . S
C1000 C999 1.523 . S
C1001 C985 1.429 . S
C1001 C997 1.429 . S
C1001 C1002 1.523 . S
C1002 C986 1.368 . S
C1002 C998 1.368 . S
C1002 C1001 1.523 . S
H1003 C978 0.950 . S
H1004 C980 0.950 . S
H1005 C981 0.949 . S
H1006 C983 0.950 . S
H1007 C985 0.950 . S
C1008 C1009 1.349 . S
C1008 C1010 1.327 . S
C1008 H1033 0.950 . S
C1009 C1008 1.349 . S
C1009 C1025 1.349 . S
C1010 C1008 1.327 . S
C1010 C1029 1.429 . S
C1010 H1034 0.950 . S
C1011 C1028 1.574 . S
C1011 C1030 1.368 . S
C1011 H1035 0.949 . S
H1012 C1016 0.949 . S
C1013 C1014 1.349 . S
C1013 C1015 1.327 . S
C1013 H1036 0.950 . S
C1014 C1013 1.349 . S
C1014 C1026 1.349 . S
C1015 C1013 1.327 . S
C1015 C1031 1.429 . S
C1015 H1037 0.950 . S
C1016 H1012 0.949 . S
C1016 C1024 1.574 . S
C1016 C1032 1.368 . S
H1017 C1025 0.950 . S
H1018 C1023 0.950 . S
H1019 C1024 0.949 . S
H1020 C1026 0.950 . S
H1021 C1027 0.950 . S
H1022 C1028 0.949 . S
C1023 H1018 0.950 . S
C1023 C1025 1.327 . S
C1023 C1029 1.429 . S
C1024 C1016 1.574 . S
C1024 H1019 0.949 . S
C1024 C1030 1.368 . S
C1025 C1009 1.349 . S
C1025 H1017 0.950 . S
C1025 C1023 1.327 . S
C1026 C1014 1.349 . S
C1026 H1020 0.950 . S
C1026 C1027 1.327 . S
C1027 H1021 0.950 . S
C1027 C1026 1.327 . S
C1027 C1031 1.429 . S
C1028 C1011 1.574 . S
C1028 H1022 0.949 . S
C1028 C1032 1.368 . S
C1029 C1010 1.429 . S
C1029 C1023 1.429 . S
C1029 C1030 1.523 . S
C1030 C1011 1.368 . S
C1030 C1024 1.368 . S
C1030 C1029 1.523 . S
C1031 C1015 1.429 . S
C1031 C1027 1.429 . S
C1031 C1032 1.523 . S
C1032 C1016 1.368 . S
C1032 C1028 1.368 . S
C1032 C1031 1.523 . S
H1033 C1008 0.950 . S
H1034 C1010 0.950 . S
H1035 C1011 0.949 . S
H1036 C1013 0.950 . S
H1037 C1015 0.950 . S
C1038 C1039 1.349 . S
C1038 C1040 1.327 . S
C1038 H1063 0.950 . S
C1039 C1038 1.349 . S
C1039 C1055 1.349 . S
C1040 C1038 1.327 . S
C1040 C1059 1.429 . S
C1040 H1064 0.950 . S
C1041 C1058 1.574 . S
C1041 C1060 1.368 . S
C1041 H1065 0.949 . S
H1042 C1046 0.949 . S
C1043 C1044 1.349 . S
C1043 C1045 1.327 . S
C1043 H1066 0.950 . S
C1044 C1043 1.349 . S
C1044 C1056 1.349 . S
C1045 C1043 1.327 . S
C1045 C1061 1.429 . S
C1045 H1067 0.950 . S
C1046 H1042 0.949 . S
C1046 C1054 1.574 . S
C1046 C1062 1.368 . S
H1047 C1055 0.950 . S
H1048 C1053 0.950 . S
H1049 C1054 0.949 . S
H1050 C1056 0.950 . S
H1051 C1057 0.950 . S
H1052 C1058 0.949 . S
C1053 H1048 0.950 . S
C1053 C1055 1.327 . S
C1053 C1059 1.429 . S
C1054 C1046 1.574 . S
C1054 H1049 0.949 . S
C1054 C1060 1.368 . S
C1055 C1039 1.349 . S
C1055 H1047 0.950 . S
C1055 C1053 1.327 . S
C1056 C1044 1.349 . S
C1056 H1050 0.950 . S
C1056 C1057 1.327 . S
C1057 H1051 0.950 . S
C1057 C1056 1.327 . S
C1057 C1061 1.429 . S
C1058 C1041 1.574 . S
C1058 H1052 0.949 . S
C1058 C1062 1.368 . S
C1059 C1040 1.429 . S
C1059 C1053 1.429 . S
C1059 C1060 1.523 . S
C1060 C1041 1.368 . S
C1060 C1054 1.368 . S
C1060 C1059 1.523 . S
C1061 C1045 1.429 . S
C1061 C1057 1.429 . S
C1061 C1062 1.523 . S
C1062 C1046 1.368 . S
C1062 C1058 1.368 . S
C1062 C1061 1.523 . S
H1063 C1038 0.950 . S
H1064 C1040 0.950 . S
H1065 C1041 0.949 . S
H1066 C1043 0.950 . S
H1067 C1045 0.950 . S
C1068 C1069 1.349 . S
C1068 C1070 1.327 . S
C1068 H1093 0.950 . S
C1069 C1068 1.349 . S
C1069 C1085 1.349 . S
C1070 C1068 1.327 . S
C1070 C1089 1.429 . S
C1070 H1094 0.950 . S
C1071 C1088 1.574 . S
C1071 C1090 1.368 . S
C1071 H1095 0.949 . S
H1072 C1076 0.949 . S
C1073 C1074 1.349 . S
C1073 C1075 1.327 . S
C1073 H1096 0.950 . S
C1074 C1073 1.349 . S
C1074 C1086 1.349 . S
C1075 C1073 1.327 . S
C1075 C1091 1.429 . S
C1075 H1097 0.950 . S
C1076 H1072 0.949 . S
C1076 C1084 1.574 . S
C1076 C1092 1.368 . S
H1077 C1085 0.950 . S
H1078 C1083 0.950 . S
H1079 C1084 0.949 . S
H1080 C1086 0.950 . S
H1081 C1087 0.950 . S
H1082 C1088 0.949 . S
C1083 H1078 0.950 . S
C1083 C1085 1.327 . S
C1083 C1089 1.429 . S
C1084 C1076 1.574 . S
C1084 H1079 0.949 . S
C1084 C1090 1.368 . S
C1085 C1069 1.349 . S
C1085 H1077 0.950 . S
C1085 C1083 1.327 . S
C1086 C1074 1.349 . S
C1086 H1080 0.950 . S
C1086 C1087 1.327 . S
C1087 H1081 0.950 . S
C1087 C1086 1.327 . S
C1087 C1091 1.429 . S
C1088 C1071 1.574 . S
C1088 H1082 0.949 . S
C1088 C1092 1.368 . S
C1089 C1070 1.429 . S
C1089 C1083 1.429 . S
C1089 C1090 1.523 . S
C1090 C1071 1.368 . S
C1090 C1084 1.368 . S
C1090 C1089 1.523 . S
C1091 C1075 1.429 . S
C1091 C1087 1.429 . S
C1091 C1092 1.523 . S
C1092 C1076 1.368 . S
C1092 C1088 1.368 . S
C1092 C1091 1.523 . S
H1093 C1068 0.950 . S
H1094 C1070 0.950 . S
H1095 C1071 0.949 . S
H1096 C1073 0.950 . S
H1097 C1075 0.950 . S
C1098 C1099 1.349 . S
C1098 C1100 1.327 . S
C1098 H1123 0.950 . S
C1099 C1098 1.349 . S
C1099 C1115 1.349 . S
C1100 C1098 1.327 . S
C1100 C1119 1.429 . S
C1100 H1124 0.950 . S
C1101 C1118 1.574 . S
C1101 C1120 1.368 . S
C1101 H1125 0.949 . S
H1102 C1106 0.949 . S
C1103 C1104 1.349 . S
C1103 C1105 1.327 . S
C1103 H1126 0.950 . S
C1104 C1103 1.349 . S
C1104 C1116 1.349 . S
C1105 C1103 1.327 . S
C1105 C1121 1.429 . S
C1105 H1127 0.950 . S
C1106 H1102 0.949 . S
C1106 C1114 1.574 . S
C1106 C1122 1.368 . S
H1107 C1115 0.950 . S
H1108 C1113 0.950 . S
H1109 C1114 0.949 . S
H1110 C1116 0.950 . S
H1111 C1117 0.950 . S
H1112 C1118 0.949 . S
C1113 H1108 0.950 . S
C1113 C1115 1.327 . S
C1113 C1119 1.429 . S
C1114 C1106 1.574 . S
C1114 H1109 0.949 . S
C1114 C1120 1.368 . S
C1115 C1099 1.349 . S
C1115 H1107 0.950 . S
C1115 C1113 1.327 . S
C1116 C1104 1.349 . S
C1116 H1110 0.950 . S
C1116 C1117 1.327 . S
C1117 H1111 0.950 . S
C1117 C1116 1.327 . S
C1117 C1121 1.429 . S
C1118 C1101 1.574 . S
C1118 H1112 0.949 . S
C1118 C1122 1.368 . S
C1119 C1100 1.429 . S
C1119 C1113 1.429 . S
C1119 C1120 1.523 . S
C1120 C1101 1.368 . S
C1120 C1114 1.368 . S
C1120 C1119 1.523 . S
C1121 C1105 1.429 . S
C1121 C1117 1.429 . S
C1121 C1122 1.523 . S
C1122 C1106 1.368 . S
C1122 C1118 1.368 . S
C1122 C1121 1.523 . S
H1123 C1098 0.950 . S
H1124 C1100 0.950 . S
H1125 C1101 0.949 . S
H1126 C1103 0.950 . S
H1127 C1105 0.950 . S
C409 C58 1.466 . S
C414 C146 1.445 . S
C444 C230 1.446 . S
C439 C68 1.466 . S
C474 C223 1.452 . S
C469 C40 1.453 . S
C499 C50 1.452 . S
C504 C139 1.453 . S
C534 C303 1.447 . S
C529 C23 1.469 . S
C564 C387 1.446 . S
C559 C32 1.468 . S
C589 C5 1.455 . S
C594 C380 1.454 . S
C619 C14 1.454 . S
C624 C296 1.453 . S
C654 C130 1.336 . S
C649 C13 1.500 . S
C684 C214 1.336 . S
C679 C4 1.500 . S
C714 C225 1.398 . S
C709 C31 1.525 . S
C744 C141 1.398 . S
C739 C22 1.526 . S
C774 C309 1.338 . S
C769 C49 1.500 . S
C799 C41 1.502 . S
C804 C393 1.338 . S
C834 C382 1.400 . S
C829 C67 1.526 . S
C859 C59 1.528 . S
C864 C298 1.400 . S
C894 C128 1.546 . S
C889 C7 1.545 . S
C924 C212 1.544 . S
C919 C16 1.542 . S
C949 C25 1.539 . S
C954 C219 1.521 . S
C984 C135 1.518 . S
C979 C34 1.536 . S
C1014 C307 1.546 . S
C1009 C43 1.546 . S
C1039 C52 1.544 . S
C1044 C391 1.548 . S
C1069 C61 1.540 . S
C1074 C398 1.521 . S
C1099 C70 1.538 . S
C1104 C314 1.522 . S
