# Generated by pormake.
# Topology ctn, (3,4)-cn, num edge types: 1
# Building blocks:
#     Node 0, Type 0, BuildingBlock: BETDIP_clean_linker_0, # of connection points: 3
#     Node 1, Type 0, BuildingBlock: BETDIP_clean_linker_0, # of connection points: 3
#     Node 2, Type 0, BuildingBlock: BETDIP_clean_linker_0, # of connection points: 3
#     Node 3, Type 0, BuildingBlock: BETDIP_clean_linker_0, # of connection points: 3
#     Node 4, Type 0, BuildingBlock: BETDIP_clean_linker_0, # of connection points: 3
#     Node 5, Type 0, BuildingBlock: BETDIP_clean_linker_0, # of connection points: 3
#     Node 6, Type 0, BuildingBlock: BETDIP_clean_linker_0, # of connection points: 3
#     Node 7, Type 0, BuildingBlock: BETDIP_clean_linker_0, # of connection points: 3
#     Node 8, Type 0, BuildingBlock: BETDIP_clean_linker_0, # of connection points: 3
#     Node 9, Type 0, BuildingBlock: BETDIP_clean_linker_0, # of connection points: 3
#     Node 10, Type 0, BuildingBlock: BETDIP_clean_linker_0, # of connection points: 3
#     Node 11, Type 0, BuildingBlock: BETDIP_clean_linker_0, # of connection points: 3
#     Node 12, Type 0, BuildingBlock: BETDIP_clean_linker_0, # of connection points: 3
#     Node 13, Type 0, BuildingBlock: BETDIP_clean_linker_0, # of connection points: 3
#     Node 14, Type 0, BuildingBlock: BETDIP_clean_linker_0, # of connection points: 3
#     Node 15, Type 0, BuildingBlock: BETDIP_clean_linker_0, # of connection points: 3
#     Node 16, Type 1, BuildingBlock: NAHDIM_clean_sbu_0, # of connection points: 4
#     Node 17, Type 1, BuildingBlock: NAHDIM_clean_sbu_0, # of connection points: 4
#     Node 18, Type 1, BuildingBlock: NAHDIM_clean_sbu_0, # of connection points: 4
#     Node 19, Type 1, BuildingBlock: NAHDIM_clean_sbu_0, # of connection points: 4
#     Node 20, Type 1, BuildingBlock: NAHDIM_clean_sbu_0, # of connection points: 4
#     Node 21, Type 1, BuildingBlock: NAHDIM_clean_sbu_0, # of connection points: 4
#     Node 22, Type 1, BuildingBlock: NAHDIM_clean_sbu_0, # of connection points: 4
#     Node 23, Type 1, BuildingBlock: NAHDIM_clean_sbu_0, # of connection points: 4
#     Node 24, Type 1, BuildingBlock: NAHDIM_clean_sbu_0, # of connection points: 4
#     Node 25, Type 1, BuildingBlock: NAHDIM_clean_sbu_0, # of connection points: 4
#     Node 26, Type 1, BuildingBlock: NAHDIM_clean_sbu_0, # of connection points: 4
#     Node 27, Type 1, BuildingBlock: NAHDIM_clean_sbu_0, # of connection points: 4
#     Edge 28, Type (0, 1), BuildingBlock: KIFKEQ_clean_linker_1, # of connection points: 2
#     Edge 29, Type (0, 1), BuildingBlock: KIFKEQ_clean_linker_1, # of connection points: 2
#     Edge 30, Type (0, 1), BuildingBlock: KIFKEQ_clean_linker_1, # of connection points: 2
#     Edge 31, Type (0, 1), BuildingBlock: KIFKEQ_clean_linker_1, # of connection points: 2
#     Edge 32, Type (0, 1), BuildingBlock: KIFKEQ_clean_linker_1, # of connection points: 2
#     Edge 33, Type (0, 1), BuildingBlock: KIFKEQ_clean_linker_1, # of connection points: 2
#     Edge 34, Type (0, 1), BuildingBlock: KIFKEQ_clean_linker_1, # of connection points: 2
#     Edge 35, Type (0, 1), BuildingBlock: KIFKEQ_clean_linker_1, # of connection points: 2
#     Edge 36, Type (0, 1), BuildingBlock: KIFKEQ_clean_linker_1, # of connection points: 2
#     Edge 37, Type (0, 1), BuildingBlock: KIFKEQ_clean_linker_1, # of connection points: 2
#     Edge 38, Type (0, 1), BuildingBlock: KIFKEQ_clean_linker_1, # of connection points: 2
#     Edge 39, Type (0, 1), BuildingBlock: KIFKEQ_clean_linker_1, # of connection points: 2
#     Edge 40, Type (0, 1), BuildingBlock: KIFKEQ_clean_linker_1, # of connection points: 2
#     Edge 41, Type (0, 1), BuildingBlock: KIFKEQ_clean_linker_1, # of connection points: 2
#     Edge 42, Type (0, 1), BuildingBlock: KIFKEQ_clean_linker_1, # of connection points: 2
#     Edge 43, Type (0, 1), BuildingBlock: KIFKEQ_clean_linker_1, # of connection points: 2
#     Edge 44, Type (0, 1), BuildingBlock: KIFKEQ_clean_linker_1, # of connection points: 2
#     Edge 45, Type (0, 1), BuildingBlock: KIFKEQ_clean_linker_1, # of connection points: 2
#     Edge 46, Type (0, 1), BuildingBlock: KIFKEQ_clean_linker_1, # of connection points: 2
#     Edge 47, Type (0, 1), BuildingBlock: KIFKEQ_clean_linker_1, # of connection points: 2
#     Edge 48, Type (0, 1), BuildingBlock: KIFKEQ_clean_linker_1, # of connection points: 2
#     Edge 49, Type (0, 1), BuildingBlock: KIFKEQ_clean_linker_1, # of connection points: 2
#     Edge 50, Type (0, 1), BuildingBlock: KIFKEQ_clean_linker_1, # of connection points: 2
#     Edge 51, Type (0, 1), BuildingBlock: KIFKEQ_clean_linker_1, # of connection points: 2
#     Edge 52, Type (0, 1), BuildingBlock: KIFKEQ_clean_linker_1, # of connection points: 2
#     Edge 53, Type (0, 1), BuildingBlock: KIFKEQ_clean_linker_1, # of connection points: 2
#     Edge 54, Type (0, 1), BuildingBlock: KIFKEQ_clean_linker_1, # of connection points: 2
#     Edge 55, Type (0, 1), BuildingBlock: KIFKEQ_clean_linker_1, # of connection points: 2
#     Edge 56, Type (0, 1), BuildingBlock: KIFKEQ_clean_linker_1, # of connection points: 2
#     Edge 57, Type (0, 1), BuildingBlock: KIFKEQ_clean_linker_1, # of connection points: 2
#     Edge 58, Type (0, 1), BuildingBlock: KIFKEQ_clean_linker_1, # of connection points: 2
#     Edge 59, Type (0, 1), BuildingBlock: KIFKEQ_clean_linker_1, # of connection points: 2
#     Edge 60, Type (0, 1), BuildingBlock: KIFKEQ_clean_linker_1, # of connection points: 2
#     Edge 61, Type (0, 1), BuildingBlock: KIFKEQ_clean_linker_1, # of connection points: 2
#     Edge 62, Type (0, 1), BuildingBlock: KIFKEQ_clean_linker_1, # of connection points: 2
#     Edge 63, Type (0, 1), BuildingBlock: KIFKEQ_clean_linker_1, # of connection points: 2
#     Edge 64, Type (0, 1), BuildingBlock: KIFKEQ_clean_linker_1, # of connection points: 2
#     Edge 65, Type (0, 1), BuildingBlock: KIFKEQ_clean_linker_1, # of connection points: 2
#     Edge 66, Type (0, 1), BuildingBlock: KIFKEQ_clean_linker_1, # of connection points: 2
#     Edge 67, Type (0, 1), BuildingBlock: KIFKEQ_clean_linker_1, # of connection points: 2
#     Edge 68, Type (0, 1), BuildingBlock: KIFKEQ_clean_linker_1, # of connection points: 2
#     Edge 69, Type (0, 1), BuildingBlock: KIFKEQ_clean_linker_1, # of connection points: 2
#     Edge 70, Type (0, 1), BuildingBlock: KIFKEQ_clean_linker_1, # of connection points: 2
#     Edge 71, Type (0, 1), BuildingBlock: KIFKEQ_clean_linker_1, # of connection points: 2
#     Edge 72, Type (0, 1), BuildingBlock: KIFKEQ_clean_linker_1, # of connection points: 2
#     Edge 73, Type (0, 1), BuildingBlock: KIFKEQ_clean_linker_1, # of connection points: 2
#     Edge 74, Type (0, 1), BuildingBlock: KIFKEQ_clean_linker_1, # of connection points: 2
#     Edge 75, Type (0, 1), BuildingBlock: KIFKEQ_clean_linker_1, # of connection points: 2
# Relax obj value: 0.069
# Max RMSD: 0.190
# Mean RMSD: 0.117
data_MOF--net-ctn--node1-NAHDIM_clean_sbu_0--node2-BETDIP_clean_linker_0--edge1-KIFKEQ_clean_linker_1
_symmetry_space_group_name_H-M    P1
_symmetry_Int_Tables_number       1
_symmetry_cell_setting            triclinic
loop_
_symmetry_equiv_pos_as_xyz
'x, y, z'
_cell_length_a     53.214919
_cell_length_b     53.80247
_cell_length_c     58.536966
_cell_angle_alpha  94.803521
_cell_angle_beta   93.834195
_cell_angle_gamma 95.30359
loop_
_atom_site_label
_atom_site_type_symbol
_atom_site_fract_x
_atom_site_fract_y
_atom_site_fract_z
_atom_type_partial_charge
H0 H 0.02992 0.07197 0.06381 0.0
H1 H 0.0911 0.04608 0.02699 0.0
H2 H 0.07082 0.01275 0.088 0.0
H3 H 0.08262 0.07194 0.00252 0.0
C4 C 0.06726 0.08277 0.00715 0.0
C5 C 0.04478 0.05961 0.0621 0.0
C6 C 0.04874 0.0424 0.07845 0.0
C7 C 0.05963 0.06098 0.0433 0.0
C8 C 0.07889 0.04487 0.0409 0.0
C9 C 0.083 0.02725 0.05686 0.0
C10 C 0.06776 0.02617 0.07555 0.0
N11 N 0.05452 0.07885 0.02737 0.0
H12 H 0.25205 0.69924 0.20164 0.0
H13 H 0.32636 0.73616 0.22158 0.0
H14 H 0.2977 0.6741 0.25702 0.0
H15 H 0.31072 0.76842 0.20629 0.0
C16 C 0.2983 0.76017 0.19161 0.0
C17 C 0.26945 0.70092 0.21264 0.0
C18 C 0.27246 0.68452 0.22987 0.0
C19 C 0.28848 0.71999 0.20984 0.0
C20 C 0.3112 0.72201 0.22393 0.0
C21 C 0.31461 0.70566 0.24113 0.0
C22 C 0.29504 0.68711 0.24409 0.0
N23 N 0.28441 0.7364 0.19241 0.0
H24 H 0.96008 0.49717 0.9967 0.0
H25 H 0.01138 0.46649 0.04384 0.0
H26 H 0.97093 0.528 0.06749 0.0
H27 H 0.03123 0.45898 0.01056 0.0
C28 C 0.01501 0.45154 0.99893 0.0
C29 C 0.96891 0.49726 0.01394 0.0
C30 C 0.96309 0.51473 0.0316 0.0
C31 C 0.98673 0.4803 0.01806 0.0
C32 C 0.99847 0.48032 0.04027 0.0
C33 C 0.99301 0.49755 0.0582 0.0
C34 C 0.97526 0.51469 0.05372 0.0
N35 N 0.99201 0.46297 0.99972 0.0
H36 H 0.72057 0.77453 0.17972 0.0
H37 H 0.74654 0.83944 0.22607 0.0
H38 H 0.786 0.82254 0.16591 0.0
H39 H 0.72659 0.81707 0.25157 0.0
C40 C 0.70986 0.80767 0.24173 0.0
C41 C 0.73396 0.79089 0.1844 0.0
C42 C 0.75387 0.79649 0.1705 0.0
C43 C 0.73143 0.80591 0.20469 0.0
C44 C 0.74864 0.82728 0.21078 0.0
C45 C 0.76857 0.83327 0.19698 0.0
C46 C 0.77109 0.81767 0.17697 0.0
N47 N 0.71096 0.79936 0.21815 0.0
H48 H 0.02525 0.96715 0.44164 0.0
H49 H 0.09289 0.99186 0.4847 0.0
H50 H 0.07709 0.02729 0.42309 0.0
H51 H 0.08884 0.95255 0.49449 0.0
C52 C 0.0686 0.9475 0.49441 0.0
C53 C 0.04271 0.97936 0.44485 0.0
C54 C 0.04911 0.99752 0.42969 0.0
C55 C 0.05866 0.97667 0.46431 0.0
C56 C 0.08081 0.99312 0.46931 0.0
C57 C 0.08748 0.01151 0.45454 0.0
C58 C 0.07175 0.01333 0.43463 0.0
N59 N 0.05159 0.95755 0.47868 0.0
H60 H 0.21629 0.7487 0.82244 0.0
H61 H 0.24574 0.69772 0.77296 0.0
H62 H 0.28621 0.71762 0.83896 0.0
H63 H 0.22136 0.71593 0.74776 0.0
C64 C 0.20517 0.72123 0.75668 0.0
C65 C 0.23076 0.73668 0.81781 0.0
C66 C 0.2516 0.73488 0.83338 0.0
C67 C 0.22868 0.7238 0.79592 0.0
C68 C 0.24738 0.70823 0.78965 0.0
C69 C 0.26835 0.70604 0.80506 0.0
C70 C 0.27037 0.71957 0.82683 0.0
N71 N 0.20726 0.72678 0.78093 0.0
H72 H 0.00377 0.58119 0.46595 0.0
H73 H 0.95338 0.51391 0.44962 0.0
H74 H 0.94291 0.56367 0.50858 0.0
H75 H 0.97766 0.50485 0.42234 0.0
C76 C 0.99265 0.51964 0.42118 0.0
C77 C 0.9877 0.56889 0.46999 0.0
C78 C 0.97408 0.57539 0.48898 0.0
C79 C 0.98076 0.5467 0.45582 0.0
C80 C 0.95949 0.53085 0.46054 0.0
C81 C 0.94549 0.53715 0.47938 0.0
C82 C 0.95309 0.55929 0.49356 0.0
N83 N 0.99573 0.54138 0.43708 0.0
H84 H 0.79085 0.82682 0.76389 0.0
H85 H 0.8212 0.7736 0.80599 0.0
H86 H 0.75379 0.80668 0.82378 0.0
H87 H 0.837 0.75962 0.77365 0.0
C88 C 0.84111 0.77589 0.76425 0.0
C89 C 0.78981 0.81627 0.77884 0.0
C90 C 0.77033 0.8192 0.79362 0.0
C91 C 0.80766 0.79928 0.78268 0.0
C92 C 0.80658 0.7856 0.8021 0.0
C93 C 0.78711 0.78794 0.81705 0.0
C94 C 0.76896 0.80473 0.81252 0.0
N95 N 0.82655 0.79669 0.76679 0.0
H96 H 0.28891 0.32501 0.26637 0.0
H97 H 0.32008 0.27279 0.30925 0.0
H98 H 0.25477 0.30838 0.32873 0.0
H99 H 0.33614 0.25851 0.27732 0.0
C100 C 0.33942 0.27425 0.26709 0.0
C101 C 0.28815 0.31488 0.28159 0.0
C102 C 0.26937 0.31873 0.29695 0.0
C103 C 0.30618 0.29806 0.28557 0.0
C104 C 0.30597 0.28544 0.30567 0.0
C105 C 0.28747 0.28907 0.32137 0.0
C106 C 0.26917 0.30564 0.31678 0.0
N107 N 0.32439 0.29473 0.26913 0.0
H108 H 0.45796 0.98908 0.50106 0.0
H109 H 0.50729 0.95904 0.5504 0.0
H110 H 0.46483 0.01985 0.57191 0.0
H111 H 0.52785 0.94882 0.51929 0.0
C112 C 0.51272 0.94309 0.50599 0.0
C113 C 0.466 0.98926 0.51859 0.0
C114 C 0.45904 0.00655 0.53585 0.0
C115 C 0.48377 0.97252 0.5235 0.0
C116 C 0.49411 0.97242 0.5462 0.0
C117 C 0.48751 0.98951 0.56372 0.0
C118 C 0.47021 0.00681 0.55839 0.0
N119 N 0.49031 0.95559 0.50539 0.0
H120 H 0.2249 0.2759 0.68315 0.0
H121 H 0.24783 0.34065 0.73085 0.0
H122 H 0.287 0.32857 0.66997 0.0
H123 H 0.22412 0.32244 0.75435 0.0
C124 C 0.21065 0.30812 0.74515 0.0
C125 C 0.23737 0.29284 0.68818 0.0
C126 C 0.25615 0.30068 0.67383 0.0
C127 C 0.23427 0.30681 0.70895 0.0
C128 C 0.25019 0.32908 0.71532 0.0
C129 C 0.26912 0.33707 0.70121 0.0
C130 C 0.27194 0.32279 0.68056 0.0
N131 N 0.21462 0.29809 0.72255 0.0
H132 H 0.75856 0.20283 0.70209 0.0
H133 H 0.83134 0.24319 0.72091 0.0
H134 H 0.80873 0.17724 0.75402 0.0
H135 H 0.81252 0.27522 0.7077 0.0
C136 C 0.80077 0.26646 0.69278 0.0
C137 C 0.77631 0.20503 0.71262 0.0
C138 C 0.78133 0.18768 0.72859 0.0
C139 C 0.79404 0.22522 0.70991 0.0
C140 C 0.81736 0.22783 0.72307 0.0
C141 C 0.82288 0.21063 0.73905 0.0
C142 C 0.80471 0.19059 0.74172 0.0
N143 N 0.78826 0.242 0.69323 0.0
H144 H 0.52868 0.57447 0.56178 0.0
H145 H 0.58303 0.54839 0.51689 0.0
H146 H 0.5717 0.51391 0.57954 0.0
H147 H 0.55584 0.56185 0.48972 0.0
C148 C 0.55102 0.57927 0.49832 0.0
C149 C 0.54262 0.56158 0.55784 0.0
C150 C 0.54872 0.54403 0.5733 0.0
C151 C 0.55432 0.56279 0.53723 0.0
C152 C 0.57298 0.54672 0.53225 0.0
C153 C 0.57953 0.5291 0.54749 0.0
C154 C 0.56725 0.52786 0.56798 0.0
N155 N 0.54753 0.58094 0.52224 0.0
H156 H 0.51513 0.46814 0.94426 0.0
H157 H 0.58456 0.48956 0.98577 0.0
H158 H 0.56518 0.5311 0.92876 0.0
H159 H 0.58083 0.44934 0.99289 0.0
C160 C 0.56065 0.44443 0.99351 0.0
C161 C 0.53258 0.48034 0.94774 0.0
C162 C 0.53809 0.50008 0.93399 0.0
C163 C 0.5494 0.47605 0.96609 0.0
C164 C 0.57169 0.49229 0.97131 0.0
C165 C 0.57748 0.51228 0.95796 0.0
C166 C 0.56067 0.51587 0.93924 0.0
N167 N 0.54303 0.4556 0.97923 0.0
H168 H 0.71395 0.25034 0.32268 0.0
H169 H 0.74263 0.19805 0.27389 0.0
H170 H 0.78275 0.21772 0.3401 0.0
H171 H 0.71845 0.21609 0.24832 0.0
C172 C 0.70242 0.22189 0.25722 0.0
C173 C 0.72816 0.23792 0.31828 0.0
C174 C 0.74873 0.2358 0.33405 0.0
C175 C 0.72598 0.22479 0.2965 0.0
C176 C 0.74435 0.2087 0.29051 0.0
C177 C 0.76506 0.20618 0.30612 0.0
C178 C 0.76715 0.21993 0.3278 0.0
N179 N 0.70472 0.22797 0.28141 0.0
H180 H 0.50332 0.08118 0.96608 0.0
H181 H 0.45662 0.01146 0.94938 0.0
H182 H 0.44799 0.05676 0.01175 0.0
H183 H 0.48359 0.00333 0.92382 0.0
C184 C 0.49498 0.02024 0.92053 0.0
C185 C 0.48841 0.06756 0.97028 0.0
C186 C 0.47652 0.07148 0.99077 0.0
C187 C 0.48187 0.04581 0.95541 0.0
C188 C 0.46242 0.02812 0.96079 0.0
C189 C 0.45026 0.03187 0.98124 0.0
C190 C 0.45759 0.05351 0.99617 0.0
N191 N 0.49546 0.0426 0.93542 0.0
C192 C 0.22526 0.91599 0.03877 0.0
O193 O 0.24188 0.91496 0.0562 0.0
O194 O 0.24996 0.85735 0.98893 0.0
Zn195 Zn 0.25723 0.88262 0.01648 0.0
O196 O 0.28865 0.90463 0.01064 0.0
C197 C 0.28386 0.86019 0.05375 0.0
O198 O 0.30437 0.8687 0.04446 0.0
O199 O 0.22772 0.90345 0.01979 0.0
C200 C 0.30041 0.92149 0.02497 0.0
O201 O 0.29224 0.92536 0.04552 0.0
C202 C 0.26728 0.84361 0.9837 0.0
O203 O 0.28861 0.84607 0.99672 0.0
O204 O 0.2623 0.86415 0.04485 0.0
C205 C 0.14161 0.44233 0.26635 0.0
O206 O 0.12224 0.44393 0.27899 0.0
O207 O 0.10219 0.49189 0.27406 0.0
Zn208 Zn 0.12446 0.48724 0.24768 0.0
O209 O 0.14836 0.51828 0.24571 0.0
C210 C 0.08539 0.49636 0.21467 0.0
O211 O 0.08209 0.5136 0.23116 0.0
O212 O 0.14561 0.45819 0.25172 0.0
C213 C 0.14421 0.54033 0.25304 0.0
O214 O 0.12339 0.54378 0.26325 0.0
C215 C 0.11106 0.49896 0.29452 0.0
O216 O 0.13568 0.50351 0.29886 0.0
O217 O 0.10251 0.48173 0.21786 0.0
C218 C 0.83741 0.63951 0.99716 0.0
O219 O 0.84484 0.66342 0.99665 0.0
O220 O 0.79162 0.6753 0.96241 0.0
Zn221 Zn 0.78623 0.65478 0.98958 0.0
O222 O 0.75351 0.6322 0.98332 0.0
C223 C 0.77318 0.69681 0.01979 0.0
O224 O 0.76137 0.70286 0.00095 0.0
O225 O 0.81395 0.63212 0.99418 0.0
C226 C 0.73524 0.63234 0.99625 0.0
O227 O 0.73711 0.64804 0.01484 0.0
C228 C 0.77247 0.68212 0.95124 0.0
O229 O 0.74972 0.67533 0.95736 0.0
O230 O 0.78524 0.67746 0.0189 0.0
C231 C 0.89287 0.08262 0.27338 0.0
O232 O 0.91149 0.08076 0.28886 0.0
O233 O 0.93296 0.03483 0.27963 0.0
Zn234 Zn 0.91124 0.03831 0.25054 0.0
O235 O 0.88753 0.00662 0.24338 0.0
C236 C 0.95337 0.03416 0.22168 0.0
O237 O 0.96112 0.02009 0.23749 0.0
O238 O 0.88963 0.06696 0.25568 0.0
C239 C 0.88907 0.99079 0.22627 0.0
O240 O 0.90673 0.99497 0.21205 0.0
C241 C 0.93958 0.01365 0.28448 0.0
O242 O 0.93254 0.99373 0.27014 0.0
O243 O 0.93287 0.04426 0.22382 0.0
C244 C 0.3294 0.12241 0.48879 0.0
O245 O 0.31677 0.11761 0.46859 0.0
O246 O 0.29821 0.17924 0.46828 0.0
Zn247 Zn 0.2927 0.15819 0.49494 0.0
O248 O 0.26237 0.13289 0.48631 0.0
C249 C 0.29738 0.20106 0.52953 0.0
O250 O 0.31556 0.20992 0.51744 0.0
O251 O 0.32294 0.13961 0.50278 0.0
C252 C 0.24067 0.13708 0.49274 0.0
O253 O 0.23813 0.15819 0.50496 0.0
C254 C 0.28213 0.19454 0.46366 0.0
O255 O 0.26315 0.19652 0.47673 0.0
O256 O 0.2856 0.17975 0.52313 0.0
C257 C 0.39848 0.58587 0.76969 0.0
O258 O 0.41805 0.58491 0.78439 0.0
O259 O 0.43693 0.53639 0.77646 0.0
Zn260 Zn 0.4154 0.5404 0.74749 0.0
O261 O 0.39122 0.50937 0.73912 0.0
C262 C 0.45556 0.53267 0.71769 0.0
O263 O 0.46063 0.51599 0.73205 0.0
O264 O 0.39428 0.56936 0.75268 0.0
C265 C 0.39665 0.48739 0.74253 0.0
O266 O 0.41924 0.48425 0.75165 0.0
C267 C 0.42698 0.52687 0.79329 0.0
O268 O 0.40256 0.51988 0.79164 0.0
O269 O 0.43723 0.54578 0.72109 0.0
C270 C 0.71963 0.42163 0.50852 0.0
O271 O 0.732 0.42508 0.49017 0.0
O272 O 0.7476 0.36032 0.48843 0.0
Zn273 Zn 0.75551 0.38506 0.51624 0.0
O274 O 0.78642 0.40743 0.51026 0.0
C275 C 0.78343 0.36511 0.55428 0.0
O276 O 0.80343 0.37704 0.54671 0.0
O277 O 0.72626 0.40547 0.52176 0.0
C278 C 0.79339 0.42839 0.52158 0.0
O279 O 0.78017 0.43616 0.53848 0.0
C280 C 0.7645 0.34589 0.48365 0.0
O281 O 0.78538 0.34756 0.49723 0.0
O282 O 0.76179 0.36611 0.54401 0.0
C283 C 0.64617 0.94717 0.76663 0.0
O284 O 0.62862 0.9506 0.78101 0.0
O285 O 0.60653 0.99621 0.7741 0.0
Zn286 Zn 0.62976 0.9925 0.7484 0.0
O287 O 0.65497 0.02313 0.74976 0.0
C288 C 0.58612 0.98012 0.71544 0.0
O289 O 0.57616 0.96962 0.73265 0.0
O290 O 0.64938 0.96219 0.75116 0.0
C291 C 0.64945 0.04235 0.73998 0.0
O292 O 0.62683 0.0423 0.72949 0.0
C293 C 0.61389 0.00795 0.79349 0.0
O294 O 0.63742 0.01802 0.79705 0.0
O295 O 0.60886 0.99008 0.71805 0.0
C296 C 0.01972 0.21125 0.89983 0.0
O297 O 0.99599 0.21543 0.89564 0.0
O298 O 0.99655 0.23864 0.84959 0.0
Zn299 Zn 0.02869 0.25016 0.86931 0.0
O300 O 0.02327 0.2818 0.88878 0.0
C301 C 0.05757 0.25238 0.82808 0.0
O302 O 0.03654 0.24215 0.8167 0.0
O303 O 0.0369 0.22378 0.89033 0.0
C304 C 0.03908 0.3012 0.89048 0.0
O305 O 0.05963 0.30078 0.87927 0.0
C306 C 0.98645 0.25407 0.83745 0.0
O307 O 0.9975 0.277 0.83782 0.0
O308 O 0.0582 0.25688 0.8498 0.0
C309 C 0.52036 0.72189 0.40153 0.0
O310 O 0.50491 0.73846 0.40779 0.0
O311 O 0.49362 0.74354 0.34164 0.0
Zn312 Zn 0.52504 0.75202 0.36325 0.0
O313 O 0.52034 0.7829 0.38382 0.0
C314 C 0.55381 0.76973 0.32662 0.0
O315 O 0.53186 0.77655 0.31921 0.0
O316 O 0.53108 0.72375 0.38289 0.0
C317 C 0.53892 0.79851 0.39164 0.0
O318 O 0.56179 0.79458 0.38599 0.0
C319 C 0.47674 0.72576 0.34388 0.0
O320 O 0.47974 0.71145 0.36076 0.0
O321 O 0.55535 0.75878 0.34501 0.0
C322 C 0.01365 0.80865 0.59131 0.0
O323 O 0.99534 0.7914 0.58339 0.0
O324 O 0.98945 0.77988 0.64669 0.0
Zn325 Zn 0.0187 0.77533 0.62687 0.0
O326 O 0.01029 0.74536 0.60343 0.0
C327 C 0.04802 0.7556 0.66311 0.0
O328 O 0.02584 0.74426 0.66657 0.0
O329 O 0.02619 0.80602 0.61007 0.0
C330 C 0.0253 0.72854 0.60021 0.0
O331 O 0.04715 0.73053 0.61238 0.0
C332 C 0.97256 0.76194 0.6484 0.0
O333 O 0.97389 0.7403 0.63658 0.0
O334 O 0.04961 0.77019 0.64716 0.0
C335 C 0.50879 0.30489 0.09089 0.0
O336 O 0.49056 0.28744 0.08323 0.0
O337 O 0.48512 0.27686 0.14689 0.0
Zn338 Zn 0.51442 0.27232 0.1271 0.0
O339 O 0.50659 0.24175 0.10421 0.0
C340 C 0.54426 0.25401 0.16388 0.0
O341 O 0.52224 0.24256 0.16765 0.0
O342 O 0.52144 0.30265 0.10969 0.0
C343 C 0.52224 0.22548 0.10131 0.0
O344 O 0.54417 0.22851 0.11341 0.0
C345 C 0.46865 0.25874 0.14924 0.0
O346 O 0.47035 0.23684 0.13802 0.0
O347 O 0.54554 0.26816 0.14756 0.0
H348 H 0.29368 0.76164 0.85548 0.0
H349 H 0.21453 0.74073 0.86303 0.0
H350 H 0.29699 0.78671 0.89242 0.0
H351 H 0.21784 0.76568 0.90008 0.0
H352 H 0.22742 0.83664 0.95099 0.0
H353 H 0.22357 0.80935 0.91526 0.0
H354 H 0.29603 0.78319 0.93329 0.0
H355 H 0.30016 0.81086 0.96872 0.0
C356 C 0.27707 0.76214 0.86519 0.0
C357 C 0.25383 0.74927 0.85632 0.0
C358 C 0.27896 0.77649 0.88636 0.0
C359 C 0.25766 0.77823 0.8992 0.0
C360 C 0.2345 0.76506 0.89046 0.0
C361 C 0.23261 0.75075 0.86925 0.0
C362 C 0.24247 0.82497 0.94738 0.0
C363 C 0.26415 0.82602 0.96265 0.0
C364 C 0.2402 0.80923 0.92695 0.0
C365 C 0.25954 0.79415 0.92137 0.0
C366 C 0.28098 0.79486 0.93688 0.0
C367 C 0.28327 0.81063 0.95727 0.0
H368 H 0.99121 0.48111 0.388 0.0
H369 H 0.03372 0.55157 0.41283 0.0
H370 H 0.01999 0.47568 0.35749 0.0
H371 H 0.0622 0.54636 0.38224 0.0
H372 H 0.1235 0.51527 0.33974 0.0
H373 H 0.09503 0.51994 0.37046 0.0
H374 H 0.03108 0.49427 0.3222 0.0
H375 H 0.05953 0.48925 0.29155 0.0
C376 C 0.00666 0.49544 0.38687 0.0
C377 C 0.01019 0.51671 0.40276 0.0
C378 C 0.02306 0.49242 0.36936 0.0
C379 C 0.04339 0.5106 0.36743 0.0
C380 C 0.04692 0.53187 0.38342 0.0
C381 C 0.03048 0.53491 0.40087 0.0
C382 C 0.10337 0.51059 0.33568 0.0
C383 C 0.0938 0.50189 0.31319 0.0
C384 C 0.08704 0.5134 0.35326 0.0
C385 C 0.06078 0.50748 0.34877 0.0
C386 C 0.05124 0.4987 0.32629 0.0
C387 C 0.06755 0.49597 0.30869 0.0
H388 H 0.77262 0.80192 0.86017 0.0
H389 H 0.79861 0.73947 0.81994 0.0
H390 H 0.76959 0.77667 0.89279 0.0
H391 H 0.79662 0.71482 0.85298 0.0
H392 H 0.81405 0.69031 0.92662 0.0
H393 H 0.81836 0.71636 0.89443 0.0
H394 H 0.74225 0.73632 0.90064 0.0
H395 H 0.73775 0.71014 0.93249 0.0
C396 C 0.7776 0.78284 0.85817 0.0
C397 C 0.78579 0.7728 0.83727 0.0
C398 C 0.77601 0.76845 0.87695 0.0
C399 C 0.78295 0.74384 0.8754 0.0
C400 C 0.79147 0.73387 0.85472 0.0
C401 C 0.79268 0.74808 0.83582 0.0
C402 C 0.79827 0.70029 0.92112 0.0
C403 C 0.77553 0.69811 0.93203 0.0
C404 C 0.80071 0.7151 0.90267 0.0
C405 C 0.78064 0.72836 0.8951 0.0
C406 C 0.75807 0.72645 0.90624 0.0
C407 C 0.75547 0.71134 0.92438 0.0
H408 H 0.03873 0.04054 0.41026 0.0
H409 H 0.02125 0.96007 0.40147 0.0
H410 H 0.01307 0.04436 0.37513 0.0
H411 H 0.9938 0.96409 0.36745 0.0
H412 H 0.96814 0.97581 0.29412 0.0
H413 H 0.99449 0.9722 0.32903 0.0
H414 H 0.9718 0.04234 0.35857 0.0
H415 H 0.94654 0.04648 0.32308 0.0
C416 C 0.02939 0.02362 0.40089 0.0
C417 C 0.03232 0.99996 0.40873 0.0
C418 C 0.01425 0.02587 0.38088 0.0
C419 C 0.00124 0.00455 0.36831 0.0
C420 C 0.00381 0.98093 0.37637 0.0
C421 C 0.01928 0.97865 0.39619 0.0
C422 C 0.96883 0.99046 0.30808 0.0
C423 C 0.95532 0.01144 0.30585 0.0
C424 C 0.98381 0.98832 0.32822 0.0
C425 C 0.9853 0.00692 0.3468 0.0
C426 C 0.97156 0.02784 0.34454 0.0
C427 C 0.95692 0.03018 0.32424 0.0
H428 H 0.25629 0.24978 0.6663 0.0
H429 H 0.26455 0.31785 0.63212 0.0
H430 H 0.26548 0.22567 0.63115 0.0
H431 H 0.27366 0.2938 0.597 0.0
H432 H 0.31891 0.24692 0.54859 0.0
H433 H 0.30768 0.27068 0.58311 0.0
H434 H 0.24865 0.21226 0.59185 0.0
H435 H 0.26015 0.18828 0.5576 0.0
C436 C 0.2597 0.25953 0.65118 0.0
C437 C 0.25984 0.28572 0.65202 0.0
C438 C 0.26499 0.24574 0.63105 0.0
C439 C 0.2705 0.25784 0.61132 0.0
C440 C 0.27 0.28396 0.61202 0.0
C441 C 0.26473 0.29773 0.63213 0.0
C442 C 0.30354 0.23914 0.55787 0.0
C443 C 0.29048 0.21568 0.55036 0.0
C444 C 0.29699 0.25283 0.57758 0.0
C445 C 0.27724 0.24338 0.59022 0.0
C446 C 0.26415 0.21994 0.58267 0.0
C447 C 0.27068 0.20625 0.56296 0.0
H448 H 0.56923 0.53835 0.61655 0.0
H449 H 0.49831 0.54618 0.57871 0.0
H450 H 0.54747 0.53634 0.65188 0.0
H451 H 0.47659 0.54412 0.61392 0.0
H452 H 0.4499 0.5651 0.68452 0.0
H453 H 0.47306 0.56837 0.65019 0.0
H454 H 0.51719 0.50907 0.66991 0.0
H455 H 0.4944 0.50614 0.70449 0.0
C456 C 0.54897 0.53944 0.61574 0.0
C457 C 0.53552 0.54251 0.59482 0.0
C458 C 0.5365 0.5383 0.63598 0.0
C459 C 0.51029 0.54018 0.63576 0.0
C460 C 0.49686 0.54311 0.61481 0.0
C461 C 0.50931 0.54426 0.5946 0.0
C462 C 0.46462 0.55283 0.6816 0.0
C463 C 0.47024 0.53532 0.69724 0.0
C464 C 0.4778 0.5546 0.66184 0.0
C465 C 0.49691 0.53889 0.65722 0.0
C466 C 0.50278 0.52164 0.67305 0.0
C467 C 0.48961 0.51987 0.69283 0.0
H468 H 0.82251 0.31286 0.68752 0.0
H469 H 0.77218 0.25213 0.65214 0.0
H470 H 0.81833 0.33685 0.65406 0.0
H471 H 0.76827 0.27589 0.61857 0.0
H472 H 0.74608 0.33722 0.57333 0.0
H473 H 0.7501 0.31346 0.6068 0.0
H474 H 0.8305 0.33586 0.61437 0.0
H475 H 0.82647 0.35999 0.58106 0.0
C476 C 0.81058 0.30467 0.67256 0.0
C477 C 0.79766 0.28071 0.67243 0.0
C478 C 0.80831 0.31831 0.65336 0.0
C479 C 0.79301 0.30825 0.63364 0.0
C480 C 0.77998 0.28427 0.63359 0.0
C481 C 0.78231 0.27061 0.65279 0.0
C482 C 0.76463 0.3371 0.58212 0.0
C483 C 0.78596 0.35054 0.57453 0.0
C484 C 0.76694 0.32335 0.60123 0.0
C485 C 0.79061 0.32276 0.61324 0.0
C486 C 0.81195 0.33619 0.60565 0.0
C487 C 0.80966 0.3499 0.58649 0.0
H488 H 0.51004 0.02898 0.59271 0.0
H489 H 0.49116 0.94886 0.58812 0.0
H490 H 0.53271 0.02731 0.63031 0.0
H491 H 0.51397 0.94711 0.62543 0.0
H492 H 0.53864 0.95722 0.70249 0.0
H493 H 0.51279 0.96056 0.667 0.0
H494 H 0.57258 0.00997 0.64383 0.0
H495 H 0.59839 0.00677 0.6793 0.0
C496 C 0.51047 0.0111 0.5999 0.0
C497 C 0.49899 0.98904 0.58747 0.0
C498 C 0.52362 0.01009 0.62128 0.0
C499 C 0.52527 0.98705 0.63074 0.0
C500 C 0.51294 0.96515 0.61867 0.0
C501 C 0.50002 0.96613 0.59725 0.0
C502 C 0.54628 0.96878 0.68983 0.0
C503 C 0.57062 0.98164 0.6937 0.0
C504 C 0.53149 0.97065 0.66948 0.0
C505 C 0.54061 0.98561 0.65267 0.0
C506 C 0.56489 0.99857 0.6566 0.0
C507 C 0.57977 0.99654 0.67684 0.0
H508 H 0.83175 0.20464 0.7849 0.0
H509 H 0.86982 0.22443 0.72506 0.0
H510 H 0.87176 0.21347 0.80844 0.0
H511 H 0.90956 0.23377 0.74872 0.0
H512 H 0.96467 0.27964 0.80432 0.0
H513 H 0.92559 0.26715 0.78033 0.0
H514 H 0.91552 0.19853 0.81345 0.0
H515 H 0.95474 0.211 0.83755 0.0
C516 C 0.84867 0.21053 0.7767 0.0
C517 C 0.84751 0.21407 0.75312 0.0
C518 C 0.87157 0.21564 0.7902 0.0
C519 C 0.8937 0.22455 0.78044 0.0
C520 C 0.8927 0.22737 0.75678 0.0
C521 C 0.86991 0.22206 0.74325 0.0
C522 C 0.95417 0.26187 0.8065 0.0
C523 C 0.9628 0.24631 0.82284 0.0
C524 C 0.93186 0.25466 0.79265 0.0
C525 C 0.91757 0.23183 0.79498 0.0
C526 C 0.9261 0.21629 0.81139 0.0
C527 C 0.94859 0.22339 0.82509 0.0
H528 H 0.48072 0.92431 0.46842 0.0
H529 H 0.55286 0.91596 0.50382 0.0
H530 H 0.48723 0.89023 0.43987 0.0
H531 H 0.55916 0.88146 0.47564 0.0
H532 H 0.57383 0.83694 0.40931 0.0
H533 H 0.56735 0.87271 0.43589 0.0
H534 H 0.48852 0.84527 0.43673 0.0
H535 H 0.49485 0.80984 0.40971 0.0
C536 C 0.49796 0.91516 0.47011 0.0
C537 C 0.51634 0.92274 0.48831 0.0
C538 C 0.50163 0.89553 0.45383 0.0
C539 C 0.52372 0.88309 0.45546 0.0
C540 C 0.54211 0.89086 0.47366 0.0
C541 C 0.53846 0.9105 0.48988 0.0
C542 C 0.5551 0.83858 0.4151 0.0
C543 C 0.53487 0.82051 0.40742 0.0
C544 C 0.55141 0.85902 0.43044 0.0
C545 C 0.52744 0.86182 0.43851 0.0
C546 C 0.50715 0.84387 0.43063 0.0
C547 C 0.51082 0.82347 0.41523 0.0
H548 H 0.19636 0.32691 0.78599 0.0
H549 H 0.17447 0.269 0.73082 0.0
H550 H 0.15939 0.31313 0.80578 0.0
H551 H 0.13793 0.25454 0.75094 0.0
H552 H 0.06081 0.25278 0.78166 0.0
H553 H 0.09769 0.26589 0.76148 0.0
H554 H 0.14261 0.28007 0.82637 0.0
H555 H 0.10554 0.26783 0.84654 0.0
C556 C 0.18368 0.3111 0.7782 0.0
C557 C 0.18825 0.29908 0.7569 0.0
C558 C 0.16259 0.30306 0.7896 0.0
C559 C 0.14565 0.28263 0.78003 0.0
C560 C 0.15034 0.27054 0.75868 0.0
C561 C 0.17138 0.27873 0.7472 0.0
C562 C 0.07858 0.25864 0.7916 0.0
C563 C 0.08021 0.25935 0.81572 0.0
C564 C 0.09979 0.26604 0.78002 0.0
C565 C 0.12318 0.27413 0.79227 0.0
C566 C 0.12483 0.27442 0.81638 0.0
C567 C 0.10359 0.26723 0.82796 0.0
H568 H 0.5505 0.5791 0.45208 0.0
H569 H 0.54104 0.62687 0.51329 0.0
H570 H 0.54268 0.61336 0.42854 0.0
H571 H 0.53399 0.66137 0.48993 0.0
H572 H 0.49658 0.70953 0.43956 0.0
H573 H 0.5036 0.67498 0.46281 0.0
H574 H 0.56184 0.65298 0.41943 0.0
H575 H 0.55428 0.68708 0.39578 0.0
C576 C 0.54684 0.59699 0.46046 0.0
C577 C 0.54628 0.6003 0.48444 0.0
C578 C 0.54253 0.61667 0.44703 0.0
C579 C 0.53773 0.64017 0.45732 0.0
C580 C 0.53724 0.64343 0.48139 0.0
C581 C 0.54142 0.62369 0.49481 0.0
C582 C 0.51088 0.69732 0.43497 0.0
C583 C 0.52484 0.70105 0.41579 0.0
C584 C 0.51501 0.67758 0.44839 0.0
C585 C 0.53331 0.66118 0.44302 0.0
C586 C 0.54733 0.665 0.42387 0.0
C587 C 0.5431 0.68465 0.41037 0.0
H588 H 0.85647 0.8117 0.73581 0.0
H589 H 0.86913 0.73756 0.75422 0.0
H590 H 0.88769 0.8087 0.70721 0.0
H591 H 0.90066 0.73468 0.72593 0.0
H592 H 0.93463 0.72688 0.65678 0.0
H593 H 0.90264 0.73091 0.68435 0.0
H594 H 0.93333 0.80735 0.70453 0.0
H595 H 0.96516 0.80348 0.67662 0.0
C596 C 0.86599 0.7948 0.7338 0.0
C597 C 0.86034 0.77478 0.74717 0.0
C598 C 0.88397 0.79313 0.7175 0.0
C599 C 0.8966 0.77141 0.71422 0.0
C600 C 0.891 0.75151 0.72776 0.0
C601 C 0.87308 0.7532 0.74405 0.0
C602 C 0.93452 0.7446 0.667 0.0
C603 C 0.95251 0.76484 0.66453 0.0
C604 C 0.91626 0.74685 0.68293 0.0
C605 C 0.91553 0.7694 0.69675 0.0
C606 C 0.93324 0.78979 0.694 0.0
C607 C 0.95155 0.78753 0.67808 0.0
H608 H 0.09729 0.92245 0.52268 0.0
H609 H 0.01959 0.92897 0.49964 0.0
H610 H 0.08335 0.88964 0.54667 0.0
H611 H 0.00551 0.89657 0.52404 0.0
H612 H 0.99332 0.8177 0.54904 0.0
H613 H 0.006 0.85192 0.52621 0.0
H614 H 0.06161 0.88289 0.58079 0.0
H615 H 0.04937 0.84832 0.60339 0.0
C616 C 0.07721 0.91695 0.5229 0.0
C617 C 0.05957 0.92815 0.50926 0.0
C618 C 0.06919 0.89828 0.53674 0.0
C619 C 0.04329 0.89047 0.53731 0.0
C620 C 0.02561 0.90191 0.52378 0.0
C621 C 0.03366 0.92056 0.50988 0.0
C622 C 0.00818 0.83187 0.55622 0.0
C623 C 0.02041 0.8302 0.578 0.0
C624 C 0.01535 0.85158 0.54317 0.0
C625 C 0.03488 0.87013 0.55162 0.0
C626 C 0.04677 0.8687 0.5736 0.0
C627 C 0.03965 0.84896 0.58663 0.0
H628 H 0.16 0.73324 0.77241 0.0
H629 H 0.19769 0.71896 0.71023 0.0
H630 H 0.12213 0.74147 0.74964 0.0
H631 H 0.15957 0.72697 0.68734 0.0
H632 H 0.09727 0.77182 0.6574 0.0
H633 H 0.13513 0.76299 0.67996 0.0
H634 H 0.08864 0.71884 0.72239 0.0
H635 H 0.05076 0.72783 0.70003 0.0
C636 C 0.16017 0.73178 0.75386 0.0
C637 C 0.18183 0.72555 0.74304 0.0
C638 C 0.13841 0.73636 0.74082 0.0
C639 C 0.13788 0.73491 0.7167 0.0
C640 C 0.15952 0.72853 0.7059 0.0
C641 C 0.18125 0.7238 0.71896 0.0
C642 C 0.09511 0.76028 0.67157 0.0
C643 C 0.07099 0.75058 0.67695 0.0
C644 C 0.11682 0.75508 0.68439 0.0
C645 C 0.11486 0.7402 0.70293 0.0
C646 C 0.09074 0.73058 0.70835 0.0
C647 C 0.06905 0.73565 0.69546 0.0
H648 H 0.02222 0.59612 0.50321 0.0
H649 H 0.94357 0.60774 0.5093 0.0
H650 H 0.03483 0.63401 0.52856 0.0
H651 H 0.95613 0.64461 0.53589 0.0
H652 H 0.98627 0.72255 0.56678 0.0
H653 H 0.97452 0.68656 0.53876 0.0
H654 H 0.03585 0.64892 0.5678 0.0
H655 H 0.04815 0.68528 0.59513 0.0
C656 C 0.0076 0.60677 0.50989 0.0
C657 C 0.98186 0.59879 0.50421 0.0
C658 C 0.01483 0.62834 0.52473 0.0
C659 C 0.99652 0.64235 0.53444 0.0
C660 C 0.97079 0.63449 0.52857 0.0
C661 C 0.96356 0.61308 0.51356 0.0
C662 C 0.99726 0.7066 0.56711 0.0
C663 C 0.01813 0.70676 0.58316 0.0
C664 C 0.99045 0.68589 0.55112 0.0
C665 C 0.00419 0.66475 0.55099 0.0
C666 C 0.02509 0.665 0.56708 0.0
C667 C 0.03206 0.6858 0.58289 0.0
H668 H 0.75758 0.88031 0.21205 0.0
H669 H 0.81997 0.83784 0.19538 0.0
H670 H 0.78678 0.91827 0.21986 0.0
H671 H 0.84915 0.87575 0.20319 0.0
H672 H 0.88764 0.95298 0.19188 0.0
H673 H 0.8586 0.9149 0.18584 0.0
H674 H 0.82175 0.93787 0.2466 0.0
H675 H 0.85054 0.97622 0.25246 0.0
C676 C 0.77757 0.87902 0.21036 0.0
C677 C 0.78646 0.8561 0.20301 0.0
C678 C 0.7943 0.90077 0.21482 0.0
C679 C 0.82026 0.90005 0.21201 0.0
C680 C 0.8292 0.87702 0.2051 0.0
C681 C 0.81249 0.8553 0.20066 0.0
C682 C 0.87335 0.94994 0.20396 0.0
C683 C 0.8714 0.96766 0.22264 0.0
C684 C 0.8568 0.92802 0.20058 0.0
C685 C 0.83792 0.92332 0.21578 0.0
C686 C 0.83593 0.94106 0.23444 0.0
C687 C 0.85251 0.96299 0.23785 0.0
H688 H 0.81655 0.21465 0.31369 0.0
H689 H 0.75701 0.15856 0.28489 0.0
H690 H 0.84803 0.18578 0.3048 0.0
H691 H 0.78843 0.12964 0.27611 0.0
H692 H 0.85265 0.09185 0.24475 0.0
H693 H 0.82245 0.12259 0.25157 0.0
H694 H 0.86224 0.14739 0.31748 0.0
H695 H 0.89274 0.11707 0.31045 0.0
C696 C 0.81019 0.19611 0.30555 0.0
C697 C 0.78428 0.18888 0.30002 0.0
C698 C 0.82822 0.17956 0.30047 0.0
C699 C 0.82077 0.15537 0.28977 0.0
C700 C 0.79487 0.14826 0.28402 0.0
C701 C 0.77684 0.16483 0.28907 0.0
C702 C 0.85505 0.10396 0.26064 0.0
C703 C 0.8751 0.10196 0.27708 0.0
C704 C 0.83763 0.12148 0.26461 0.0
C705 C 0.83985 0.1374 0.28511 0.0
C706 C 0.86014 0.13564 0.30138 0.0
C707 C 0.87756 0.11814 0.2974 0.0
H708 H 0.44388 0.01293 0.02249 0.0
H709 H 0.40985 0.00968 0.95312 0.0
H710 H 0.4085 0.98511 0.0329 0.0
H711 H 0.37418 0.98212 0.96356 0.0
H712 H 0.32441 0.91581 0.98524 0.0
H713 H 0.3616 0.94083 0.97449 0.0
H714 H 0.36447 0.98673 0.03901 0.0
H715 H 0.32773 0.96132 0.05 0.0
C716 C 0.42878 0.00627 0.00948 0.0
C717 C 0.42956 0.01356 0.98703 0.0
C718 C 0.40846 0.99041 0.01545 0.0
C719 C 0.38836 0.98154 0.99913 0.0
C720 C 0.38946 0.98836 0.9765 0.0
C721 C 0.40988 0.00416 0.9705 0.0
C722 C 0.33302 0.93121 0.99716 0.0
C723 C 0.32309 0.93657 0.01849 0.0
C724 C 0.35427 0.94563 0.99093 0.0
C725 C 0.36605 0.9658 0.00587 0.0
C726 C 0.35613 0.97109 0.02723 0.0
C727 C 0.33495 0.95661 0.03349 0.0
H728 H 0.24993 0.35187 0.32766 0.0
H729 H 0.24492 0.3256 0.25552 0.0
H730 H 0.21837 0.38077 0.31984 0.0
H731 H 0.21374 0.35489 0.24772 0.0
H732 H 0.18133 0.43127 0.24113 0.0
H733 H 0.21174 0.401 0.24837 0.0
H734 H 0.17269 0.37981 0.30718 0.0
H735 H 0.14236 0.41013 0.30007 0.0
C736 C 0.24196 0.35207 0.31017 0.0
C737 C 0.25002 0.33636 0.29223 0.0
C738 C 0.2239 0.36869 0.30569 0.0
C739 C 0.21357 0.37012 0.28316 0.0
C740 C 0.22159 0.35445 0.26522 0.0
C741 C 0.23952 0.33771 0.26971 0.0
C742 C 0.17915 0.42009 0.25555 0.0
C743 C 0.15942 0.42317 0.27004 0.0
C744 C 0.19652 0.40266 0.25963 0.0
C745 C 0.19466 0.38807 0.27839 0.0
C746 C 0.1748 0.39099 0.29275 0.0
C747 C 0.15732 0.40826 0.28857 0.0
H748 H 0.10383 0.03676 0.49605 0.0
H749 H 0.12331 0.02623 0.42567 0.0
H750 H 0.14138 0.06638 0.50523 0.0
H751 H 0.16054 0.05645 0.43471 0.0
H752 H 0.23858 0.09225 0.46641 0.0
H753 H 0.20197 0.06129 0.45725 0.0
H754 H 0.1561 0.10883 0.49634 0.0
H755 H 0.19262 0.13957 0.50574 0.0
C756 C 0.11622 0.04068 0.48257 0.0
C757 C 0.11062 0.02917 0.46014 0.0
C758 C 0.13758 0.05784 0.48777 0.0
C759 C 0.15387 0.06383 0.47067 0.0
C760 C 0.14846 0.05208 0.44829 0.0
C761 C 0.12701 0.03497 0.44307 0.0
C762 C 0.22068 0.09608 0.47305 0.0
C763 C 0.21853 0.11836 0.48684 0.0
C764 C 0.19969 0.07841 0.4677 0.0
C765 C 0.17617 0.08259 0.47613 0.0
C766 C 0.17405 0.1049 0.48986 0.0
C767 C 0.19496 0.12259 0.49512 0.0
H768 H 0.73064 0.1894 0.7322 0.0
H769 H 0.78862 0.13833 0.73152 0.0
H770 H 0.69881 0.15475 0.73617 0.0
H771 H 0.75676 0.1035 0.73509 0.0
H772 H 0.69667 0.05024 0.76252 0.0
H773 H 0.72843 0.08565 0.76096 0.0
H774 H 0.6775 0.11856 0.71419 0.0
H775 H 0.64557 0.0836 0.71629 0.0
C776 C 0.73653 0.17071 0.73274 0.0
C777 C 0.76211 0.16657 0.73148 0.0
C778 C 0.71829 0.15082 0.73497 0.0
C779 C 0.72516 0.12628 0.73586 0.0
C780 C 0.75082 0.1222 0.73481 0.0
C781 C 0.7691 0.14214 0.73271 0.0
C782 C 0.69223 0.0651 0.75199 0.0
C783 C 0.66858 0.0641 0.73954 0.0
C784 C 0.7105 0.08534 0.75098 0.0
C785 C 0.70557 0.10498 0.73742 0.0
C786 C 0.68183 0.10399 0.72509 0.0
C787 C 0.66354 0.08384 0.7262 0.0
H788 H 0.41442 0.99576 0.50962 0.0
H789 H 0.46051 0.05683 0.54916 0.0
H790 H 0.38395 0.02445 0.49855 0.0
H791 H 0.43005 0.08576 0.53787 0.0
H792 H 0.35604 0.12419 0.53072 0.0
H793 H 0.38739 0.09662 0.54274 0.0
H794 H 0.38037 0.05818 0.47445 0.0
H795 H 0.34864 0.08528 0.46261 0.0
C796 C 0.41812 0.01539 0.51582 0.0
C797 C 0.43998 0.02405 0.53013 0.0
C798 C 0.40068 0.03187 0.50943 0.0
C799 C 0.40466 0.0575 0.5171 0.0
C800 C 0.42629 0.06611 0.53179 0.0
C801 C 0.44374 0.04955 0.53827 0.0
C802 C 0.36128 0.10993 0.51824 0.0
C803 C 0.34971 0.10685 0.49573 0.0
C804 C 0.37935 0.09419 0.52512 0.0
C805 C 0.38628 0.07503 0.50963 0.0
C806 C 0.37512 0.0724 0.48697 0.0
C807 C 0.35704 0.08807 0.48012 0.0
H808 H 0.61737 0.51549 0.57657 0.0
H809 H 0.58659 0.50458 0.50586 0.0
H810 H 0.65075 0.48904 0.56711 0.0
H811 H 0.62001 0.47825 0.4964 0.0
H812 H 0.69999 0.45715 0.48368 0.0
H813 H 0.66584 0.48253 0.49326 0.0
H814 H 0.65722 0.44546 0.55533 0.0
H815 H 0.69159 0.42034 0.54597 0.0
C816 C 0.61755 0.50723 0.55907 0.0
C817 C 0.59935 0.51223 0.54196 0.0
C818 C 0.6367 0.49208 0.55364 0.0
C819 C 0.6381 0.48162 0.53097 0.0
C820 C 0.61972 0.48638 0.51394 0.0
C821 C 0.60057 0.50146 0.51937 0.0
C822 C 0.6908 0.45438 0.49935 0.0
C823 C 0.69855 0.43672 0.51405 0.0
C824 C 0.67112 0.46884 0.50478 0.0
C825 C 0.6588 0.46602 0.52507 0.0
C826 C 0.66652 0.44831 0.53972 0.0
C827 C 0.68613 0.4338 0.53427 0.0
H828 H 0.79113 0.2617 0.35648 0.0
H829 H 0.71142 0.24301 0.36318 0.0
H830 H 0.79448 0.28722 0.39319 0.0
H831 H 0.71477 0.26844 0.39996 0.0
H832 H 0.72536 0.33991 0.4502 0.0
H833 H 0.72151 0.31235 0.41463 0.0
H834 H 0.79257 0.28419 0.43415 0.0
H835 H 0.7967 0.31209 0.46944 0.0
C836 C 0.7744 0.26278 0.36595 0.0
C837 C 0.751 0.25041 0.35689 0.0
C838 C 0.77631 0.2774 0.38699 0.0
C839 C 0.75487 0.27992 0.39949 0.0
C840 C 0.73155 0.26723 0.39059 0.0
C841 C 0.72963 0.25264 0.36953 0.0
C842 C 0.7401 0.32776 0.44695 0.0
C843 C 0.76138 0.32828 0.46261 0.0
C844 C 0.73784 0.31186 0.42661 0.0
C845 C 0.75678 0.29612 0.42151 0.0
C846 C 0.77784 0.29636 0.43738 0.0
C847 C 0.78012 0.31226 0.45768 0.0
H848 H 0.50013 0.97988 0.89088 0.0
H849 H 0.52781 0.0578 0.90709 0.0
H850 H 0.52872 0.97686 0.85999 0.0
H851 H 0.55603 0.05494 0.87606 0.0
H852 H 0.62318 0.03231 0.83655 0.0
H853 H 0.59414 0.03536 0.86692 0.0
H854 H 0.53533 0.99164 0.82231 0.0
H855 H 0.56448 0.98821 0.79205 0.0
C856 C 0.51222 0.99638 0.88772 0.0
C857 C 0.51179 0.019 0.90141 0.0
C858 C 0.5285 0.9947 0.86998 0.0
C859 C 0.54471 0.01565 0.86559 0.0
C860 C 0.54406 0.03836 0.8792 0.0
C861 C 0.52776 0.04004 0.89691 0.0
C862 C 0.60406 0.02335 0.83321 0.0
C863 C 0.59617 0.01001 0.81187 0.0
C864 C 0.58736 0.02522 0.85058 0.0
C865 C 0.5624 0.01377 0.84704 0.0
C866 C 0.55452 0.00043 0.82569 0.0
C867 C 0.5712 0.99859 0.8083 0.0
H868 H 0.32776 0.28115 0.35068 0.0
H869 H 0.2465 0.26605 0.3398 0.0
H870 H 0.32716 0.25877 0.38526 0.0
H871 H 0.2459 0.24372 0.37433 0.0
H872 H 0.25078 0.2286 0.44966 0.0
H873 H 0.25268 0.25177 0.41576 0.0
H874 H 0.31921 0.21662 0.39746 0.0
H875 H 0.31759 0.19369 0.43171 0.0
C876 C 0.30979 0.27288 0.35557 0.0
C877 C 0.28717 0.27544 0.34249 0.0
C878 C 0.30945 0.26005 0.37539 0.0
C879 C 0.28648 0.24949 0.38263 0.0
C880 C 0.26388 0.25199 0.36949 0.0
C881 C 0.26422 0.2648 0.34969 0.0
C882 C 0.26589 0.22584 0.43848 0.0
C883 C 0.284 0.20921 0.44339 0.0
C884 C 0.26688 0.23903 0.41894 0.0
C885 C 0.28599 0.23594 0.40378 0.0
C886 C 0.30436 0.21961 0.40888 0.0
C887 C 0.30336 0.20637 0.42846 0.0
H888 H 0.51059 0.46455 0.90351 0.0
H889 H 0.52577 0.54477 0.91903 0.0
H890 H 0.48293 0.47126 0.8701 0.0
H891 H 0.4989 0.55128 0.88509 0.0
H892 H 0.47481 0.54831 0.80673 0.0
H893 H 0.5009 0.54196 0.84134 0.0
H894 H 0.44104 0.49063 0.86172 0.0
H895 H 0.41478 0.4971 0.82724 0.0
C896 C 0.50789 0.4836 0.89998 0.0
C897 C 0.52056 0.5041 0.91399 0.0
C898 C 0.49213 0.48741 0.88077 0.0
C899 C 0.48893 0.51178 0.87498 0.0
C900 C 0.50135 0.53229 0.88901 0.0
C901 C 0.51682 0.52851 0.90839 0.0
C902 C 0.4672 0.5357 0.81861 0.0
C903 C 0.44274 0.52322 0.81428 0.0
C904 C 0.48208 0.53218 0.83845 0.0
C905 C 0.47295 0.51582 0.85416 0.0
C906 C 0.44857 0.50323 0.84979 0.0
C907 C 0.43353 0.50704 0.83013 0.0
H908 H 0.71674 0.77737 0.13747 0.0
H909 H 0.79715 0.77986 0.1549 0.0
H910 H 0.72154 0.75264 0.10137 0.0
H911 H 0.80205 0.75568 0.11856 0.0
H912 H 0.79591 0.69018 0.06192 0.0
H913 H 0.79094 0.71335 0.09875 0.0
H914 H 0.74056 0.75954 0.06481 0.0
H915 H 0.74527 0.73627 0.02806 0.0
C916 C 0.7354 0.77248 0.13365 0.0
C917 C 0.75657 0.7806 0.14899 0.0
C918 C 0.73819 0.75856 0.11288 0.0
C919 C 0.7622 0.75233 0.10707 0.0
C920 C 0.78329 0.76004 0.12261 0.0
C921 C 0.78052 0.77407 0.14332 0.0
C922 C 0.78382 0.70531 0.06231 0.0
C923 C 0.77098 0.71137 0.04205 0.0
C924 C 0.78105 0.71864 0.0834 0.0
C925 C 0.76528 0.7382 0.0847 0.0
C926 C 0.75256 0.74432 0.06442 0.0
C927 C 0.75542 0.7311 0.04333 0.0
H928 H 0.03341 0.08193 0.10492 0.0
H929 H 0.02921 0.00101 0.09807 0.0
H930 H 0.00983 0.08057 0.13925 0.0
H931 H 0.00613 0.99977 0.13261 0.0
H932 H 0.99378 0.00971 0.20941 0.0
H933 H 0.01594 0.01214 0.17447 0.0
H934 H 0.9669 0.06616 0.15155 0.0
H935 H 0.94464 0.06385 0.18666 0.0
C936 C 0.02723 0.06385 0.11056 0.0
C937 C 0.03336 0.04158 0.09878 0.0
C938 C 0.01378 0.0631 0.13026 0.0
C939 C 0.00631 0.04008 0.13871 0.0
C940 C 0.01203 0.01782 0.12674 0.0
C941 C 0.0253 0.01854 0.10697 0.0
C942 C 0.98773 0.0222 0.197 0.0
C943 C 0.9674 0.03656 0.20082 0.0
C944 C 1.00034 0.02345 0.17689 0.0
C945 C 0.99305 0.03921 0.1602 0.0
C946 C 0.97302 0.05394 0.16417 0.0
C947 C 0.96023 0.05254 0.18424 0.0
H948 H 0.26688 0.74826 0.15216 0.0
H949 H 0.32361 0.80469 0.18541 0.0
H950 H 0.2634 0.77256 0.11884 0.0
H951 H 0.31998 0.82912 0.15221 0.0
H952 H 0.32679 0.85058 0.07841 0.0
H953 H 0.32996 0.82618 0.11158 0.0
H954 H 0.24847 0.81268 0.10842 0.0
H955 H 0.24525 0.83687 0.07509 0.0
C956 C 0.27855 0.76589 0.15238 0.0
C957 C 0.29556 0.77463 0.17135 0.0
C958 C 0.27646 0.77986 0.13335 0.0
C959 C 0.29144 0.80275 0.13289 0.0
C960 C 0.30841 0.81143 0.15192 0.0
C961 C 0.31039 0.79753 0.17097 0.0
C962 C 0.30954 0.84243 0.08478 0.0
C963 C 0.28577 0.84568 0.0741 0.0
C964 C 0.31136 0.82855 0.10387 0.0
C965 C 0.28946 0.81751 0.11262 0.0
C966 C 0.26569 0.82073 0.10192 0.0
C967 C 0.26386 0.83472 0.08291 0.0
H968 H 0.97243 0.50205 0.09992 0.0
H969 H 0.04294 0.49279 0.06919 0.0
H970 H 0.99374 0.5007 0.13802 0.0
H971 H 0.06417 0.49142 0.10716 0.0
H972 H 0.08894 0.46479 0.17603 0.0
H973 H 0.06576 0.46451 0.1386 0.0
H974 H 0.02527 0.52539 0.16502 0.0
H975 H 0.04806 0.52538 0.20251 0.0
C976 C 0.99251 0.49996 0.10131 0.0
C977 C 0.00596 0.49745 0.08151 0.0
C978 C 0.00471 0.49914 0.12313 0.0
C979 C 0.03063 0.4958 0.12563 0.0
C980 C 0.04409 0.49351 0.10583 0.0
C981 C 0.03192 0.49434 0.08406 0.0
C982 C 0.07497 0.478 0.1739 0.0
C983 C 0.07043 0.49516 0.19225 0.0
C984 C 0.0618 0.47795 0.1524 0.0
C985 C 0.04376 0.49504 0.14877 0.0
C986 C 0.03885 0.51182 0.16727 0.0
C987 C 0.05203 0.51189 0.18875 0.0
H988 H 0.36296 0.71326 0.22809 0.0
H989 H 0.32061 0.70303 0.28761 0.0
H990 H 0.4024 0.71737 0.25245 0.0
H991 H 0.36004 0.70712 0.31197 0.0
H992 H 0.43628 0.69072 0.34483 0.0
H993 H 0.39745 0.68509 0.3196 0.0
H994 H 0.42548 0.74668 0.28244 0.0
H995 H 0.4645 0.75205 0.30737 0.0
C996 C 0.36207 0.71208 0.2464 0.0
C997 C 0.33865 0.70789 0.25593 0.0
C998 C 0.38466 0.71442 0.26036 0.0
C999 C 0.38436 0.71258 0.28415 0.0
C1000 C 0.36094 0.70825 0.29365 0.0
C1001 C 0.33835 0.70592 0.2797 0.0
C1002 C 0.43422 0.70299 0.33121 0.0
C1003 C 0.45349 0.72186 0.32814 0.0
C1004 C 0.41189 0.69986 0.31685 0.0
C1005 C 0.40834 0.71549 0.29906 0.0
C1006 C 0.42774 0.73415 0.29582 0.0
C1007 C 0.45005 0.73731 0.3102 0.0
H1008 H 0.05747 0.42895 0.99225 0.0
H1009 H 0.97884 0.4259 0.96762 0.0
H1010 H 0.06281 0.393 0.96532 0.0
H1011 H 0.98421 0.39008 0.94043 0.0
H1012 H 0.99841 0.30873 0.91565 0.0
H1013 H 0.9921 0.34561 0.94106 0.0
H1014 H 0.06333 0.38191 0.92392 0.0
H1015 H 0.06985 0.345 0.8988 0.0
C1016 C 0.04138 0.42065 0.98094 0.0
C1017 C 0.0178 0.43021 0.98198 0.0
C1018 C 0.04446 0.40017 0.96545 0.0
C1019 C 0.02395 0.38873 0.95069 0.0
C1020 C 1.00031 0.39835 0.95172 0.0
C1021 C 0.99727 0.41895 0.96719 0.0
C1022 C 0.0127 0.3246 0.91725 0.0
C1023 C 0.03471 0.32385 0.90529 0.0
C1024 C 0.009 0.34579 0.93171 0.0
C1025 C 0.02726 0.36665 0.93456 0.0
C1026 C 0.04908 0.36601 0.92234 0.0
C1027 C 0.05275 0.34488 0.90785 0.0
H1028 H 0.70421 0.81688 0.28715 0.0
H1029 H 0.66341 0.78561 0.22343 0.0
H1030 H 0.66637 0.80773 0.30766 0.0
H1031 H 0.62567 0.77623 0.24392 0.0
H1032 H 0.55651 0.7895 0.28519 0.0
H1033 H 0.59413 0.79866 0.26454 0.0
H1034 H 0.64016 0.77088 0.31852 0.0
H1035 H 0.60265 0.76194 0.33931 0.0
C1036 C 0.68715 0.80799 0.27758 0.0
C1037 C 0.68676 0.8019 0.25377 0.0
C1038 C 0.66555 0.80263 0.2893 0.0
C1039 C 0.64305 0.7912 0.27741 0.0
C1040 C 0.64265 0.78525 0.25353 0.0
C1041 C 0.66431 0.79049 0.24182 0.0
C1042 C 0.57465 0.78533 0.29266 0.0
C1043 C 0.57657 0.775 0.31391 0.0
C1044 C 0.59618 0.79046 0.28075 0.0
C1045 C 0.62012 0.78551 0.28991 0.0
C1046 C 0.62203 0.77517 0.31115 0.0
C1047 C 0.60049 0.76991 0.32299 0.0
H1048 H 0.02923 0.11389 0.01124 0.0
H1049 H 0.08854 0.09425 0.96825 0.0
H1050 H 0.01776 0.14505 0.98542 0.0
H1051 H 0.0768 0.12503 0.94215 0.0
H1052 H 0.06705 0.20058 0.91453 0.0
H1053 H 0.07822 0.16991 0.9408 0.0
H1054 H 0.99891 0.14816 0.94687 0.0
H1055 H 0.98769 0.17928 0.92096 0.0
C1056 C 0.03977 0.11618 0.99624 0.0
C1057 C 0.05983 0.10169 0.99174 0.0
C1058 C 0.0331 0.13393 0.98135 0.0
C1059 C 0.04638 0.13756 0.96171 0.0
C1060 C 0.06641 0.12298 0.95728 0.0
C1061 C 0.07305 0.10525 0.97213 0.0
C1062 C 0.05197 0.18926 0.92145 0.0
C1063 C 0.02647 0.19239 0.91563 0.0
C1064 C 0.05839 0.17157 0.93643 0.0
C1065 C 0.03946 0.15652 0.94592 0.0
C1066 C 0.01395 0.15967 0.94011 0.0
C1067 C 0.00752 0.17741 0.92515 0.0
H1068 H 0.35297 0.30889 0.23695 0.0
H1069 H 0.36815 0.23628 0.25773 0.0
H1070 H 0.38352 0.30541 0.20781 0.0
H1071 H 0.39903 0.23293 0.22886 0.0
H1072 H 0.43186 0.22331 0.15925 0.0
H1073 H 0.40029 0.2276 0.18721 0.0
H1074 H 0.42915 0.30507 0.20454 0.0
H1075 H 0.46053 0.30093 0.17626 0.0
C1076 C 0.36289 0.29221 0.23534 0.0
C1077 C 0.35815 0.27277 0.24956 0.0
C1078 C 0.38049 0.29028 0.21872 0.0
C1079 C 0.39366 0.26886 0.21594 0.0
C1080 C 0.38894 0.24951 0.23029 0.0
C1081 C 0.37139 0.25147 0.24692 0.0
C1082 C 0.43142 0.24131 0.16892 0.0
C1083 C 0.44878 0.26176 0.16554 0.0
C1084 C 0.41341 0.24371 0.18507 0.0
C1085 C 0.41229 0.26663 0.19822 0.0
C1086 C 0.42935 0.28722 0.19455 0.0
C1087 C 0.44742 0.2848 0.17841 0.0
H1088 H 0.51196 0.42571 0.99983 0.0
H1089 H 0.59027 0.41845 0.02009 0.0
H1090 H 0.49879 0.39286 0.0241 0.0
H1091 H 0.57719 0.38524 0.044 0.0
H1092 H 0.54499 0.34435 0.10199 0.0
H1093 H 0.55664 0.37874 0.07899 0.0
H1094 H 0.49938 0.34794 0.02577 0.0
H1095 H 0.48735 0.31383 0.04897 0.0
C1096 C 0.52636 0.41704 0.00941 0.0
C1097 C 0.55217 0.42458 0.00808 0.0
C1098 C 0.51882 0.39813 0.02324 0.0
C1099 C 0.53693 0.38641 0.03602 0.0
C1100 C 0.56274 0.3941 0.03467 0.0
C1101 C 0.57025 0.41299 0.02087 0.0
C1102 C 0.53479 0.34497 0.08543 0.0
C1103 C 0.51527 0.32629 0.0773 0.0
C1104 C 0.54158 0.36461 0.07218 0.0
C1105 C 0.52904 0.36604 0.05048 0.0
C1106 C 0.50925 0.34757 0.04252 0.0
C1107 C 0.50244 0.32793 0.05578 0.0
H1108 H 0.69446 0.21855 0.21075 0.0
H1109 H 0.65761 0.23479 0.27307 0.0
H1110 H 0.65613 0.22621 0.18792 0.0
H1111 H 0.61957 0.24265 0.25037 0.0
H1112 H 0.54761 0.22754 0.2016 0.0
H1113 H 0.5858 0.21926 0.22391 0.0
H1114 H 0.63152 0.26202 0.17988 0.0
H1115 H 0.59334 0.27013 0.15737 0.0
C1116 C 0.67817 0.22376 0.21952 0.0
C1117 C 0.67903 0.22613 0.24362 0.0
C1118 C 0.65632 0.22828 0.2065 0.0
C1119 C 0.63486 0.23507 0.21737 0.0
C1120 C 0.6357 0.23721 0.2415 0.0
C1121 C 0.65757 0.23284 0.2545 0.0
C1122 C 0.56579 0.23522 0.19668 0.0
C1123 C 0.56743 0.24953 0.17773 0.0
C1124 C 0.58766 0.23055 0.20953 0.0
C1125 C 0.61166 0.23998 0.20364 0.0
C1126 C 0.61331 0.25427 0.18467 0.0
C1127 C 0.59142 0.25907 0.17189 0.0
H1128 H 0.48177 0.12011 0.98026 0.0
H1129 H 0.4877 0.07416 0.03705 0.0
H1130 H 0.49308 0.1578 0.00678 0.0
H1131 H 0.49897 0.11176 0.06351 0.0
H1132 H 0.54652 0.18302 0.09751 0.0
H1133 H 0.53582 0.14598 0.07039 0.0
H1134 H 0.47293 0.18043 0.04032 0.0
H1135 H 0.48349 0.21755 0.06756 0.0
C1136 C 0.48564 0.11811 0.99839 0.0
C1137 C 0.48387 0.09428 0.00665 0.0
C1138 C 0.4919 0.13963 0.01354 0.0
C1139 C 0.49687 0.13765 0.03717 0.0
C1140 C 0.49539 0.11379 0.04536 0.0
C1141 C 0.48879 0.09233 0.03027 0.0
C1142 C 0.53043 0.18274 0.0851 0.0
C1143 C 0.51582 0.20319 0.08469 0.0
C1144 C 0.52426 0.16149 0.06966 0.0
C1145 C 0.50355 0.16037 0.0533 0.0
C1146 C 0.48911 0.18091 0.05267 0.0
C1147 C 0.49507 0.20206 0.06833 0.0
H1148 H 0.29432 0.35138 0.74314 0.0
H1149 H 0.28297 0.37462 0.67467 0.0
H1150 H 0.32453 0.3883 0.75376 0.0
H1151 H 0.31342 0.41126 0.68514 0.0
H1152 H 0.35002 0.48676 0.71976 0.0
H1153 H 0.31818 0.45106 0.71064 0.0
H1154 H 0.36784 0.40329 0.74332 0.0
H1155 H 0.39968 0.439 0.75261 0.0
C1156 C 0.29813 0.3645 0.73045 0.0
C1157 C 0.28636 0.36013 0.70808 0.0
C1158 C 0.31558 0.38547 0.73644 0.0
C1159 C 0.3214 0.40259 0.72024 0.0
C1160 C 0.30919 0.39849 0.69803 0.0
C1161 C 0.29192 0.37744 0.69199 0.0
C1162 C 0.35416 0.46865 0.72502 0.0
C1163 C 0.37741 0.4657 0.73686 0.0
C1164 C 0.33595 0.4482 0.71972 0.0
C1165 C 0.34052 0.4244 0.72629 0.0
C1166 C 0.36368 0.42148 0.73827 0.0
C1167 C 0.38198 0.44189 0.74343 0.0
H1168 H 0.26118 0.6584 0.78392 0.0
H1169 H 0.31978 0.7159 0.8118 0.0
H1170 H 0.29325 0.63044 0.77451 0.0
H1171 H 0.35195 0.68805 0.80218 0.0
H1172 H 0.39899 0.62074 0.80655 0.0
H1173 H 0.36796 0.65034 0.81424 0.0
H1174 H 0.32659 0.62423 0.74933 0.0
H1175 H 0.35727 0.59418 0.7419 0.0
C1176 C 0.28095 0.66517 0.78776 0.0
C1177 C 0.28795 0.68934 0.79863 0.0
C1178 C 0.29935 0.64917 0.78234 0.0
C1179 C 0.3252 0.65698 0.78759 0.0
C1180 C 0.3322 0.68128 0.79822 0.0
C1181 C 0.31378 0.69725 0.80371 0.0
C1182 C 0.38336 0.6214 0.79385 0.0
C1183 C 0.38056 0.605 0.77366 0.0
C1184 C 0.36562 0.63848 0.79821 0.0
C1185 C 0.3447 0.63962 0.78245 0.0
C1186 C 0.34223 0.62358 0.76202 0.0
C1187 C 0.35992 0.60645 0.75769 0.0
H1188 H 0.8998 0.55131 0.49119 0.0
H1189 H 0.94017 0.48597 0.47917 0.0
H1190 H 0.86329 0.52485 0.50127 0.0
H1191 H 0.90362 0.45942 0.48941 0.0
H1192 H 0.82386 0.41814 0.48688 0.0
H1193 H 0.86032 0.44416 0.47609 0.0
H1194 H 0.85077 0.49966 0.53177 0.0
H1195 H 0.81394 0.47389 0.54228 0.0
C1196 C 0.90091 0.53128 0.49083 0.0
C1197 C 0.92291 0.52074 0.48449 0.0
C1198 C 0.88 0.51612 0.49666 0.0
C1199 C 0.88058 0.49003 0.49632 0.0
C1200 C 0.90245 0.47942 0.48962 0.0
C1201 C 0.92338 0.49462 0.48374 0.0
C1202 C 0.82953 0.43589 0.49685 0.0
C1203 C 0.81593 0.44397 0.51542 0.0
C1204 C 0.85054 0.45074 0.49073 0.0
C1205 C 0.85845 0.47402 0.50303 0.0
C1206 C 0.84495 0.482 0.52171 0.0
C1207 C 0.82393 0.46715 0.52783 0.0
H1208 H 0.77915 0.86676 0.78083 0.0
H1209 H 0.71891 0.81282 0.79646 0.0
H1210 H 0.74851 0.89663 0.77348 0.0
H1211 H 0.68817 0.84272 0.78906 0.0
H1212 H 0.64594 0.91353 0.79919 0.0
H1213 H 0.67543 0.88225 0.80527 0.0
H1214 H 0.71409 0.90369 0.74628 0.0
H1215 H 0.68491 0.93535 0.74046 0.0
C1216 C 0.75932 0.86119 0.78248 0.0
C1217 C 0.7515 0.83738 0.78922 0.0
C1218 C 0.74173 0.87831 0.77823 0.0
C1219 C 0.71584 0.87207 0.7806 0.0
C1220 C 0.708 0.84826 0.78736 0.0
C1221 C 0.72562 0.83113 0.79162 0.0
C1222 C 0.66064 0.9115 0.78742 0.0
C1223 C 0.66311 0.92705 0.76939 0.0
C1224 C 0.67749 0.89345 0.79085 0.0
C1225 C 0.69722 0.89051 0.77633 0.0
C1226 C 0.69936 0.90573 0.75802 0.0
C1227 C 0.68252 0.92378 0.75459 0.0
H1228 H 0.60993 0.53192 0.92818 0.0
H1229 H 0.59825 0.53176 0.00052 0.0
H1230 H 0.64753 0.56131 0.93733 0.0
H1231 H 0.63669 0.56 0.00975 0.0
H1232 H 0.6907 0.63147 0.01696 0.0
H1233 H 0.65274 0.60257 0.00755 0.0
H1234 H 0.69003 0.56396 0.95371 0.0
H1235 H 0.72767 0.59339 0.96264 0.0
C1236 C 0.6154 0.53813 0.94605 0.0
C1237 C 0.60099 0.52953 0.9636 0.0
C1238 C 0.63717 0.55474 0.95132 0.0
C1239 C 0.64519 0.56305 0.97429 0.0
C1240 C 0.6309 0.55427 0.99186 0.0
C1241 C 0.60904 0.53778 0.98658 0.0
C1242 C 0.69078 0.61683 0.0031 0.0
C1243 C 0.7122 0.61475 0.99054 0.0
C1244 C 0.66906 0.60014 0.99779 0.0
C1245 C 0.6683 0.58087 0.97989 0.0
C1246 C 0.68978 0.5788 0.96737 0.0
C1247 C 0.71144 0.59559 0.97257 0.0
H1248 H 0.24615 0.65156 0.19675 0.0
H1249 H 0.25336 0.67209 0.26996 0.0
H1250 H 0.21423 0.6172 0.20213 0.0
H1251 H 0.22165 0.63764 0.27537 0.0
H1252 H 0.14515 0.58878 0.27177 0.0
H1253 H 0.17517 0.62442 0.26576 0.0
H1254 H 0.21434 0.57644 0.22043 0.0
H1255 H 0.18443 0.54082 0.22637 0.0
C1256 C 0.24074 0.64884 0.21395 0.0
C1257 C 0.25226 0.66443 0.23295 0.0
C1258 C 0.22266 0.62908 0.21705 0.0
C1259 C 0.21553 0.62471 0.23917 0.0
C1260 C 0.22665 0.64066 0.25811 0.0
C1261 C 0.24492 0.66023 0.25504 0.0
C1262 C 0.16016 0.58584 0.26051 0.0
C1263 C 0.16243 0.56196 0.24958 0.0
C1264 C 0.17738 0.60622 0.25715 0.0
C1265 C 0.19704 0.60321 0.24258 0.0
C1266 C 0.19921 0.57937 0.23155 0.0
C1267 C 0.18218 0.55895 0.2351 0.0
H1268 H 0.9658 0.56447 0.04744 0.0
H1269 H 0.91838 0.5067 0.00479 0.0
H1270 H 0.93544 0.59446 0.03948 0.0
H1271 H 0.88875 0.53696 0.99584 0.0
H1272 H 0.82765 0.59008 0.00411 0.0
H1273 H 0.85786 0.56034 0.0129 0.0
H1274 H 0.91954 0.61773 0.00933 0.0
H1275 H 0.88919 0.64776 0.0012 0.0
C1276 C 0.94888 0.55813 0.0364 0.0
C1277 C 0.94454 0.53311 0.0268 0.0
C1278 C 0.93163 0.57544 0.03157 0.0
C1279 C 0.90963 0.56819 0.01696 0.0
C1280 C 0.90531 0.54317 0.00738 0.0
C1281 C 0.92249 0.52586 0.01228 0.0
C1282 C 0.84765 0.59638 0.00516 0.0
C1283 C 0.85599 0.62132 0.00193 0.0
C1284 C 0.86502 0.57926 0.01009 0.0
C1285 C 0.89119 0.58657 0.01179 0.0
C1286 C 0.89953 0.61152 0.00848 0.0
C1287 C 0.88213 0.62871 0.00366 0.0
H1288 H 0.09798 0.00443 0.01694 0.0
H1289 H 0.11448 0.01136 0.09065 0.0
H1290 H 0.13242 0.97825 0.01243 0.0
H1291 H 0.1474 0.9834 0.08629 0.0
H1292 H 0.22235 0.95498 0.07094 0.0
H1293 H 0.18819 0.98168 0.07492 0.0
H1294 H 0.1457 0.93872 0.0168 0.0
H1295 H 0.18064 0.91292 0.01214 0.0
C1296 C 0.10888 0.00034 0.03222 0.0
C1297 C 0.10343 0.01023 0.05416 0.0
C1298 C 0.12843 0.9849 0.02965 0.0
C1299 C 0.14285 0.97859 0.04898 0.0
C1300 C 0.13709 0.98814 0.07094 0.0
C1301 C 0.11782 0.00389 0.07348 0.0
C1302 C 0.2057 0.95126 0.05901 0.0
C1303 C 0.20418 0.93187 0.04123 0.0
C1304 C 0.18597 0.96648 0.06138 0.0
C1305 C 0.16397 0.96239 0.04627 0.0
C1306 C 0.16245 0.9428 0.02854 0.0
C1307 C 0.18242 0.92786 0.02593 0.0
loop_
_geom_bond_atom_site_label_1
_geom_bond_atom_site_label_2
_geom_bond_distance
_geom_bond_site_symmetry_2
_ccdc_geom_bond_type
H0 C5 0.930 . S
H1 C8 0.930 . S
H2 C10 0.930 . S
H3 C4 1.003 1_556 S
C4 H3 1.003 1_554 S
C4 N11 1.286 . S
C5 H0 0.930 . S
C5 C6 1.397 . S
C5 C7 1.361 . S
C6 C5 1.397 . S
C6 C10 1.390 . S
C7 C5 1.361 . S
C7 C8 1.393 . S
C7 N11 1.413 . S
C8 H1 0.930 . S
C8 C7 1.393 . S
C8 C9 1.399 . S
C9 C8 1.399 . S
C9 C10 1.381 . S
C10 H2 0.930 . S
C10 C6 1.390 . S
C10 C9 1.381 . S
N11 C4 1.286 . S
N11 C7 1.413 . S
H12 C17 0.930 . S
H13 C20 0.930 . S
H14 C22 0.930 . S
H15 C16 1.016 . S
C16 H15 1.016 . S
C16 N23 1.286 . S
C17 H12 0.930 . S
C17 C18 1.397 . S
C17 C19 1.361 . S
C18 C17 1.397 . S
C18 C22 1.390 . S
C19 C17 1.361 . S
C19 C20 1.393 . S
C19 N23 1.413 . S
C20 H13 0.930 . S
C20 C19 1.393 . S
C20 C21 1.399 . S
C21 C20 1.399 . S
C21 C22 1.381 . S
C22 H14 0.930 . S
C22 C18 1.390 . S
C22 C21 1.381 . S
N23 C16 1.286 . S
N23 C19 1.413 . S
H24 C29 0.930 . S
H25 C32 0.930 . S
H26 C34 0.930 . S
H27 C28 1.016 1_455 S
C28 H27 1.016 1_655 S
C28 N35 1.286 . S
C29 H24 0.930 . S
C29 C30 1.397 . S
C29 C31 1.361 . S
C30 C29 1.397 . S
C30 C34 1.390 . S
C31 C29 1.361 . S
C31 C32 1.393 . S
C31 N35 1.413 . S
C32 H25 0.930 . S
C32 C31 1.393 . S
C32 C33 1.399 . S
C33 C32 1.399 . S
C33 C34 1.381 . S
C34 H26 0.930 . S
C34 C30 1.390 . S
C34 C33 1.381 . S
N35 C28 1.286 . S
N35 C31 1.413 . S
H36 C41 0.930 . S
H37 C44 0.930 . S
H38 C46 0.930 . S
H39 C40 1.016 . S
C40 H39 1.016 . S
C40 N47 1.286 . S
C41 H36 0.930 . S
C41 C42 1.397 . S
C41 C43 1.361 . S
C42 C41 1.397 . S
C42 C46 1.390 . S
C43 C41 1.361 . S
C43 C44 1.393 . S
C43 N47 1.413 . S
C44 H37 0.930 . S
C44 C43 1.393 . S
C44 C45 1.399 . S
C45 C44 1.399 . S
C45 C46 1.381 . S
C46 H38 0.930 . S
C46 C42 1.390 . S
C46 C45 1.381 . S
N47 C40 1.286 . S
N47 C43 1.413 . S
H48 C53 0.930 . S
H49 C56 0.930 . S
H50 C58 0.930 . S
H51 C52 1.016 . S
C52 H51 1.016 . S
C52 N59 1.286 . S
C53 H48 0.930 . S
C53 C54 1.397 . S
C53 C55 1.361 . S
C54 C53 1.397 . S
C54 C58 1.390 1_565 S
C55 C53 1.361 . S
C55 C56 1.393 . S
C55 N59 1.413 . S
C56 H49 0.930 . S
C56 C55 1.393 . S
C56 C57 1.399 1_565 S
C57 C56 1.399 1_545 S
C57 C58 1.381 . S
C58 H50 0.930 . S
C58 C54 1.390 1_545 S
C58 C57 1.381 . S
N59 C52 1.286 . S
N59 C55 1.413 . S
H60 C65 0.930 . S
H61 C68 0.930 . S
H62 C70 0.930 . S
H63 C64 1.016 . S
C64 H63 1.016 . S
C64 N71 1.286 . S
C65 H60 0.930 . S
C65 C66 1.397 . S
C65 C67 1.361 . S
C66 C65 1.397 . S
C66 C70 1.390 . S
C67 C65 1.361 . S
C67 C68 1.393 . S
C67 N71 1.413 . S
C68 H61 0.930 . S
C68 C67 1.393 . S
C68 C69 1.399 . S
C69 C68 1.399 . S
C69 C70 1.381 . S
C70 H62 0.930 . S
C70 C66 1.390 . S
C70 C69 1.381 . S
N71 C64 1.286 . S
N71 C67 1.413 . S
H72 C77 0.930 1_455 S
H73 C80 0.930 . S
H74 C82 0.930 . S
H75 C76 1.016 . S
C76 H75 1.016 . S
C76 N83 1.286 . S
C77 H72 0.930 1_655 S
C77 C78 1.397 . S
C77 C79 1.361 . S
C78 C77 1.397 . S
C78 C82 1.390 . S
C79 C77 1.361 . S
C79 C80 1.393 . S
C79 N83 1.413 1_655 S
C80 H73 0.930 . S
C80 C79 1.393 . S
C80 C81 1.399 . S
C81 C80 1.399 . S
C81 C82 1.381 . S
C82 H74 0.930 . S
C82 C78 1.390 . S
C82 C81 1.381 . S
N83 C76 1.286 . S
N83 C79 1.413 1_455 S
H84 C89 0.930 . S
H85 C92 0.930 . S
H86 C94 0.930 . S
H87 C88 1.016 . S
C88 H87 1.016 . S
C88 N95 1.286 . S
C89 H84 0.930 . S
C89 C90 1.397 . S
C89 C91 1.361 . S
C90 C89 1.397 . S
C90 C94 1.390 . S
C91 C89 1.361 . S
C91 C92 1.393 . S
C91 N95 1.413 . S
C92 H85 0.930 . S
C92 C91 1.393 . S
C92 C93 1.399 . S
C93 C92 1.399 . S
C93 C94 1.381 . S
C94 H86 0.930 . S
C94 C90 1.390 . S
C94 C93 1.381 . S
N95 C88 1.286 . S
N95 C91 1.413 . S
H96 C101 0.930 . S
H97 C104 0.930 . S
H98 C106 0.930 . S
H99 C100 1.016 . S
C100 H99 1.016 . S
C100 N107 1.286 . S
C101 H96 0.930 . S
C101 C102 1.397 . S
C101 C103 1.361 . S
C102 C101 1.397 . S
C102 C106 1.390 . S
C103 C101 1.361 . S
C103 C104 1.393 . S
C103 N107 1.413 . S
C104 H97 0.930 . S
C104 C103 1.393 . S
C104 C105 1.399 . S
C105 C104 1.399 . S
C105 C106 1.381 . S
C106 H98 0.930 . S
C106 C102 1.390 . S
C106 C105 1.381 . S
N107 C100 1.286 . S
N107 C103 1.413 . S
H108 C113 0.930 . S
H109 C116 0.930 . S
H110 C118 0.930 . S
H111 C112 1.016 . S
C112 H111 1.016 . S
C112 N119 1.286 . S
C113 H108 0.930 . S
C113 C114 1.397 1_565 S
C113 C115 1.361 . S
C114 C113 1.397 1_545 S
C114 C118 1.390 . S
C115 C113 1.361 . S
C115 C116 1.393 . S
C115 N119 1.413 . S
C116 H109 0.930 . S
C116 C115 1.393 . S
C116 C117 1.399 . S
C117 C116 1.399 . S
C117 C118 1.381 1_565 S
C118 H110 0.930 . S
C118 C114 1.390 . S
C118 C117 1.381 1_545 S
N119 C112 1.286 . S
N119 C115 1.413 . S
H120 C125 0.930 . S
H121 C128 0.930 . S
H122 C130 0.930 . S
H123 C124 1.016 . S
C124 H123 1.016 . S
C124 N131 1.286 . S
C125 H120 0.930 . S
C125 C126 1.397 . S
C125 C127 1.361 . S
C126 C125 1.397 . S
C126 C130 1.390 . S
C127 C125 1.361 . S
C127 C128 1.393 . S
C127 N131 1.413 . S
C128 H121 0.930 . S
C128 C127 1.393 . S
C128 C129 1.399 . S
C129 C128 1.399 . S
C129 C130 1.381 . S
C130 H122 0.930 . S
C130 C126 1.390 . S
C130 C129 1.381 . S
N131 C124 1.286 . S
N131 C127 1.413 . S
H132 C137 0.930 . S
H133 C140 0.930 . S
H134 C142 0.930 . S
H135 C136 1.016 . S
C136 H135 1.016 . S
C136 N143 1.286 . S
C137 H132 0.930 . S
C137 C138 1.397 . S
C137 C139 1.361 . S
C138 C137 1.397 . S
C138 C142 1.390 . S
C139 C137 1.361 . S
C139 C140 1.393 . S
C139 N143 1.413 . S
C140 H133 0.930 . S
C140 C139 1.393 . S
C140 C141 1.399 . S
C141 C140 1.399 . S
C141 C142 1.381 . S
C142 H134 0.930 . S
C142 C138 1.390 . S
C142 C141 1.381 . S
N143 C136 1.286 . S
N143 C139 1.413 . S
H144 C149 0.930 . S
H145 C152 0.930 . S
H146 C154 0.930 . S
H147 C148 1.016 . S
C148 H147 1.016 . S
C148 N155 1.286 . S
C149 H144 0.930 . S
C149 C150 1.397 . S
C149 C151 1.361 . S
C150 C149 1.397 . S
C150 C154 1.390 . S
C151 C149 1.361 . S
C151 C152 1.393 . S
C151 N155 1.413 . S
C152 H145 0.930 . S
C152 C151 1.393 . S
C152 C153 1.399 . S
C153 C152 1.399 . S
C153 C154 1.381 . S
C154 H146 0.930 . S
C154 C150 1.390 . S
C154 C153 1.381 . S
N155 C148 1.286 . S
N155 C151 1.413 . S
H156 C161 0.930 . S
H157 C164 0.930 . S
H158 C166 0.930 . S
H159 C160 1.016 1_554 S
C160 H159 1.016 1_556 S
C160 N167 1.286 . S
C161 H156 0.930 . S
C161 C162 1.397 . S
C161 C163 1.361 . S
C162 C161 1.397 . S
C162 C166 1.390 . S
C163 C161 1.361 . S
C163 C164 1.393 . S
C163 N167 1.413 . S
C164 H157 0.930 . S
C164 C163 1.393 . S
C164 C165 1.399 . S
C165 C164 1.399 . S
C165 C166 1.381 . S
C166 H158 0.930 . S
C166 C162 1.390 . S
C166 C165 1.381 . S
N167 C160 1.286 . S
N167 C163 1.413 . S
H168 C173 0.930 . S
H169 C176 0.930 . S
H170 C178 0.930 . S
H171 C172 1.016 . S
C172 H171 1.016 . S
C172 N179 1.286 . S
C173 H168 0.930 . S
C173 C174 1.397 . S
C173 C175 1.361 . S
C174 C173 1.397 . S
C174 C178 1.390 . S
C175 C173 1.361 . S
C175 C176 1.393 . S
C175 N179 1.413 . S
C176 H169 0.930 . S
C176 C175 1.393 . S
C176 C177 1.399 . S
C177 C176 1.399 . S
C177 C178 1.381 . S
C178 H170 0.930 . S
C178 C174 1.390 . S
C178 C177 1.381 . S
N179 C172 1.286 . S
N179 C175 1.413 . S
H180 C185 0.930 . S
H181 C188 0.930 . S
H182 C190 0.930 1_554 S
H183 C184 1.016 . S
C184 H183 1.016 . S
C184 N191 1.286 . S
C185 H180 0.930 . S
C185 C186 1.397 . S
C185 C187 1.361 . S
C186 C185 1.397 . S
C186 C190 1.390 . S
C187 C185 1.361 . S
C187 C188 1.393 . S
C187 N191 1.413 . S
C188 H181 0.930 . S
C188 C187 1.393 . S
C188 C189 1.399 . S
C189 C188 1.399 . S
C189 C190 1.381 . S
C190 H182 0.930 1_556 S
C190 C186 1.390 . S
C190 C189 1.381 . S
N191 C184 1.286 . S
N191 C187 1.413 . S
C192 O193 1.201 . S
C192 O199 1.185 . S
O193 C192 1.201 . S
O194 Zn195 1.899 1_556 S
O194 C202 1.284 . S
Zn195 O194 1.899 1_554 S
Zn195 O196 2.032 . S
Zn195 O199 2.086 . S
Zn195 O204 1.977 . S
O196 Zn195 2.032 . S
O196 C200 1.278 . S
C197 O198 1.203 . S
C197 O204 1.267 . S
O198 C197 1.203 . S
O199 C192 1.185 . S
O199 Zn195 2.086 . S
C200 O196 1.278 . S
C200 O201 1.211 . S
O201 C200 1.211 . S
C202 O194 1.284 . S
C202 O203 1.273 . S
O203 C202 1.273 . S
O204 Zn195 1.977 . S
O204 C197 1.267 . S
C205 O206 1.160 . S
C205 O212 1.185 . S
O206 C205 1.160 . S
O207 Zn208 1.899 . S
O207 C215 1.284 . S
Zn208 O207 1.899 . S
Zn208 O209 2.032 . S
Zn208 O212 2.086 . S
Zn208 O217 1.977 . S
O209 Zn208 2.032 . S
O209 C213 1.278 . S
C210 O211 1.203 . S
C210 O217 1.267 . S
O211 C210 1.203 . S
O212 C205 1.185 . S
O212 Zn208 2.086 . S
C213 O209 1.278 . S
C213 O214 1.211 . S
O214 C213 1.211 . S
C215 O207 1.284 . S
C215 O216 1.273 . S
O216 C215 1.273 . S
O217 Zn208 1.977 . S
O217 C210 1.267 . S
C218 O219 1.160 1_554 S
C218 O225 1.185 . S
O219 C218 1.160 1_556 S
O220 Zn221 1.899 1_556 S
O220 C228 1.284 . S
Zn221 O220 1.899 1_554 S
Zn221 O222 2.032 1_554 S
Zn221 O225 2.086 . S
Zn221 O230 1.977 . S
O222 Zn221 2.032 1_556 S
O222 C226 1.278 . S
C223 O224 1.203 . S
C223 O230 1.267 . S
O224 C223 1.203 . S
O225 C218 1.185 . S
O225 Zn221 2.086 . S
C226 O222 1.278 . S
C226 O227 1.211 1_556 S
O227 C226 1.211 1_554 S
C228 O220 1.284 . S
C228 O229 1.273 . S
O229 C228 1.273 . S
O230 Zn221 1.977 . S
O230 C223 1.267 . S
C231 O232 1.160 . S
C231 O238 1.185 . S
O232 C231 1.160 . S
O233 Zn234 1.899 . S
O233 C241 1.284 . S
Zn234 O233 1.899 . S
Zn234 O235 2.032 . S
Zn234 O238 2.086 . S
Zn234 O243 1.977 . S
O235 Zn234 2.032 . S
O235 C239 1.278 1_545 S
C236 O237 1.203 . S
C236 O243 1.267 . S
O237 C236 1.203 . S
O238 C231 1.185 . S
O238 Zn234 2.086 . S
C239 O235 1.278 1_565 S
C239 O240 1.211 . S
O240 C239 1.211 . S
C241 O233 1.284 . S
C241 O242 1.273 . S
O242 C241 1.273 . S
O243 Zn234 1.977 . S
O243 C236 1.267 . S
C244 O245 1.160 . S
C244 O251 1.185 . S
O245 C244 1.160 . S
O246 Zn247 1.899 . S
O246 C254 1.284 . S
Zn247 O246 1.899 . S
Zn247 O248 2.032 . S
Zn247 O251 2.086 . S
Zn247 O256 1.977 . S
O248 Zn247 2.032 . S
O248 C252 1.278 . S
C249 O250 1.203 . S
C249 O256 1.267 . S
O250 C249 1.203 . S
O251 C244 1.185 . S
O251 Zn247 2.086 . S
C252 O248 1.278 . S
C252 O253 1.211 . S
O253 C252 1.211 . S
C254 O246 1.284 . S
C254 O255 1.273 . S
O255 C254 1.273 . S
O256 Zn247 1.977 . S
O256 C249 1.267 . S
C257 O258 1.160 . S
C257 O264 1.185 . S
O258 C257 1.160 . S
O259 Zn260 1.899 . S
O259 C267 1.284 . S
Zn260 O259 1.899 . S
Zn260 O261 2.032 . S
Zn260 O264 2.086 . S
Zn260 O269 1.977 . S
O261 Zn260 2.032 . S
O261 C265 1.278 . S
C262 O263 1.203 . S
C262 O269 1.267 . S
O263 C262 1.203 . S
O264 C257 1.185 . S
O264 Zn260 2.086 . S
C265 O261 1.278 . S
C265 O266 1.211 . S
O266 C265 1.211 . S
C267 O259 1.284 . S
C267 O268 1.273 . S
O268 C267 1.273 . S
O269 Zn260 1.977 . S
O269 C262 1.267 . S
C270 O271 1.160 . S
C270 O277 1.185 . S
O271 C270 1.160 . S
O272 Zn273 1.899 . S
O272 C280 1.284 . S
Zn273 O272 1.899 . S
Zn273 O274 2.032 . S
Zn273 O277 2.086 . S
Zn273 O282 1.977 . S
O274 Zn273 2.032 . S
O274 C278 1.278 . S
C275 O276 1.203 . S
C275 O282 1.267 . S
O276 C275 1.203 . S
O277 C270 1.185 . S
O277 Zn273 2.086 . S
C278 O274 1.278 . S
C278 O279 1.211 . S
O279 C278 1.211 . S
C280 O272 1.284 . S
C280 O281 1.273 . S
O281 C280 1.273 . S
O282 Zn273 1.977 . S
O282 C275 1.267 . S
C283 O284 1.160 . S
C283 O290 1.185 . S
O284 C283 1.160 . S
O285 Zn286 1.899 . S
O285 C293 1.284 1_565 S
Zn286 O285 1.899 . S
Zn286 O287 2.032 1_565 S
Zn286 O290 2.086 . S
Zn286 O295 1.977 . S
O287 Zn286 2.032 1_545 S
O287 C291 1.278 . S
C288 O289 1.203 1_565 S
C288 O295 1.267 . S
O289 C288 1.203 1_545 S
O290 C283 1.185 . S
O290 Zn286 2.086 . S
C291 O287 1.278 . S
C291 O292 1.211 . S
O292 C291 1.211 . S
C293 O285 1.284 1_545 S
C293 O294 1.273 . S
O294 C293 1.273 . S
O295 Zn286 1.977 . S
O295 C288 1.267 . S
C296 O297 1.160 1_455 S
C296 O303 1.185 . S
O297 C296 1.160 1_655 S
O298 Zn299 1.899 1_655 S
O298 C306 1.284 . S
Zn299 O298 1.899 1_455 S
Zn299 O300 2.032 . S
Zn299 O303 2.086 . S
Zn299 O308 1.977 . S
O300 Zn299 2.032 . S
O300 C304 1.278 . S
C301 O302 1.203 . S
C301 O308 1.267 . S
O302 C301 1.203 . S
O303 C296 1.185 . S
O303 Zn299 2.086 . S
C304 O300 1.278 . S
C304 O305 1.211 . S
O305 C304 1.211 . S
C306 O298 1.284 . S
C306 O307 1.273 . S
O307 C306 1.273 . S
O308 Zn299 1.977 . S
O308 C301 1.267 . S
C309 O310 1.160 . S
C309 O316 1.185 . S
O310 C309 1.160 . S
O311 Zn312 1.899 . S
O311 C319 1.284 . S
Zn312 O311 1.899 . S
Zn312 O313 2.032 . S
Zn312 O316 2.086 . S
Zn312 O321 1.977 . S
O313 Zn312 2.032 . S
O313 C317 1.278 . S
C314 O315 1.203 . S
C314 O321 1.267 . S
O315 C314 1.203 . S
O316 C309 1.185 . S
O316 Zn312 2.086 . S
C317 O313 1.278 . S
C317 O318 1.211 . S
O318 C317 1.211 . S
C319 O311 1.284 . S
C319 O320 1.273 . S
O320 C319 1.273 . S
O321 Zn312 1.977 . S
O321 C314 1.267 . S
C322 O323 1.160 1_455 S
C322 O329 1.185 . S
O323 C322 1.160 1_655 S
O324 Zn325 1.899 1_655 S
O324 C332 1.284 . S
Zn325 O324 1.899 1_455 S
Zn325 O326 2.032 . S
Zn325 O329 2.086 . S
Zn325 O334 1.977 . S
O326 Zn325 2.032 . S
O326 C330 1.278 . S
C327 O328 1.203 . S
C327 O334 1.267 . S
O328 C327 1.203 . S
O329 C322 1.185 . S
O329 Zn325 2.086 . S
C330 O326 1.278 . S
C330 O331 1.211 . S
O331 C330 1.211 . S
C332 O324 1.284 . S
C332 O333 1.273 . S
O333 C332 1.273 . S
O334 Zn325 1.977 . S
O334 C327 1.267 . S
C335 O336 1.160 . S
C335 O342 1.185 . S
O336 C335 1.160 . S
O337 Zn338 1.899 . S
O337 C345 1.284 . S
Zn338 O337 1.899 . S
Zn338 O339 2.032 . S
Zn338 O342 2.086 . S
Zn338 O347 1.977 . S
O339 Zn338 2.032 . S
O339 C343 1.278 . S
C340 O341 1.203 . S
C340 O347 1.267 . S
O341 C340 1.203 . S
O342 C335 1.185 . S
O342 Zn338 2.086 . S
C343 O339 1.278 . S
C343 O344 1.211 . S
O344 C343 1.211 . S
C345 O337 1.284 . S
C345 O346 1.273 . S
O346 C345 1.273 . S
O347 Zn338 1.977 . S
O347 C340 1.267 . S
H348 C356 0.950 . S
H349 C361 0.950 . S
H350 C358 0.950 . S
H351 C360 0.950 . S
H352 C362 0.950 . S
H353 C364 0.950 . S
H354 C366 0.950 . S
H355 C367 0.950 . S
C356 H348 0.950 . S
C356 C357 1.386 . S
C356 C358 1.391 . S
C357 C356 1.386 . S
C357 C361 1.393 . S
C358 H350 0.950 . S
C358 C356 1.391 . S
C358 C359 1.400 . S
C359 C358 1.400 . S
C359 C360 1.398 . S
C359 C365 1.491 . S
C360 H351 0.950 . S
C360 C359 1.398 . S
C360 C361 1.391 . S
C361 H349 0.950 . S
C361 C357 1.393 . S
C361 C360 1.391 . S
C362 H352 0.950 . S
C362 C363 1.386 . S
C362 C364 1.391 . S
C363 C362 1.386 . S
C363 C367 1.393 . S
C364 H353 0.950 . S
C364 C362 1.391 . S
C364 C365 1.400 . S
C365 C359 1.491 . S
C365 C364 1.400 . S
C365 C366 1.398 . S
C366 H354 0.950 . S
C366 C365 1.398 . S
C366 C367 1.391 . S
C367 H355 0.950 . S
C367 C363 1.393 . S
C367 C366 1.391 . S
H368 C376 0.950 1_655 S
H369 C381 0.950 . S
H370 C378 0.950 . S
H371 C380 0.950 . S
H372 C382 0.950 . S
H373 C384 0.950 . S
H374 C386 0.950 . S
H375 C387 0.950 . S
C376 H368 0.950 1_455 S
C376 C377 1.386 . S
C376 C378 1.391 . S
C377 C376 1.386 . S
C377 C381 1.393 . S
C378 H370 0.950 . S
C378 C376 1.391 . S
C378 C379 1.400 . S
C379 C378 1.400 . S
C379 C380 1.398 . S
C379 C385 1.491 . S
C380 H371 0.950 . S
C380 C379 1.398 . S
C380 C381 1.391 . S
C381 H369 0.950 . S
C381 C377 1.393 . S
C381 C380 1.391 . S
C382 H372 0.950 . S
C382 C383 1.386 . S
C382 C384 1.391 . S
C383 C382 1.386 . S
C383 C387 1.393 . S
C384 H373 0.950 . S
C384 C382 1.391 . S
C384 C385 1.400 . S
C385 C379 1.491 . S
C385 C384 1.400 . S
C385 C386 1.398 . S
C386 H374 0.950 . S
C386 C385 1.398 . S
C386 C387 1.391 . S
C387 H375 0.950 . S
C387 C383 1.393 . S
C387 C386 1.391 . S
H388 C396 0.950 . S
H389 C401 0.950 . S
H390 C398 0.950 . S
H391 C400 0.950 . S
H392 C402 0.950 . S
H393 C404 0.950 . S
H394 C406 0.950 . S
H395 C407 0.950 . S
C396 H388 0.950 . S
C396 C397 1.386 . S
C396 C398 1.391 . S
C397 C396 1.386 . S
C397 C401 1.393 . S
C398 H390 0.950 . S
C398 C396 1.391 . S
C398 C399 1.400 . S
C399 C398 1.400 . S
C399 C400 1.398 . S
C399 C405 1.491 . S
C400 H391 0.950 . S
C400 C399 1.398 . S
C400 C401 1.391 . S
C401 H389 0.950 . S
C401 C397 1.393 . S
C401 C400 1.391 . S
C402 H392 0.950 . S
C402 C403 1.386 . S
C402 C404 1.391 . S
C403 C402 1.386 . S
C403 C407 1.393 . S
C404 H393 0.950 . S
C404 C402 1.391 . S
C404 C405 1.400 . S
C405 C399 1.491 . S
C405 C404 1.400 . S
C405 C406 1.398 . S
C406 H394 0.950 . S
C406 C405 1.398 . S
C406 C407 1.391 . S
C407 H395 0.950 . S
C407 C403 1.393 . S
C407 C406 1.391 . S
H408 C416 0.950 . S
H409 C421 0.950 . S
H410 C418 0.950 . S
H411 C420 0.950 . S
H412 C422 0.950 1_565 S
H413 C424 0.950 . S
H414 C426 0.950 . S
H415 C427 0.950 . S
C416 H408 0.950 . S
C416 C417 1.407 . S
C416 C418 1.391 . S
C417 C416 1.407 . S
C417 C421 1.378 1_545 S
C418 H410 0.950 . S
C418 C416 1.391 . S
C418 C419 1.400 . S
C419 C418 1.400 . S
C419 C420 1.398 1_545 S
C419 C425 1.491 1_455 S
C420 H411 0.950 . S
C420 C419 1.398 1_565 S
C420 C421 1.391 . S
C421 H409 0.950 . S
C421 C417 1.378 1_565 S
C421 C420 1.391 . S
C422 H412 0.950 1_545 S
C422 C423 1.386 . S
C422 C424 1.391 1_545 S
C423 C422 1.386 . S
C423 C427 1.393 . S
C424 H413 0.950 . S
C424 C422 1.391 1_565 S
C424 C425 1.400 1_565 S
C425 C419 1.491 1_655 S
C425 C424 1.400 1_545 S
C425 C426 1.398 . S
C426 H414 0.950 . S
C426 C425 1.398 . S
C426 C427 1.391 . S
C427 H415 0.950 . S
C427 C423 1.393 . S
C427 C426 1.391 . S
H428 C436 0.950 . S
H429 C441 0.950 . S
H430 C438 0.950 . S
H431 C440 0.950 . S
H432 C442 0.950 . S
H433 C444 0.950 . S
H434 C446 0.950 . S
H435 C447 0.950 . S
C436 H428 0.950 . S
C436 C437 1.386 . S
C436 C438 1.391 . S
C437 C436 1.386 . S
C437 C441 1.393 . S
C438 H430 0.950 . S
C438 C436 1.391 . S
C438 C439 1.400 . S
C439 C438 1.400 . S
C439 C440 1.398 . S
C439 C445 1.491 . S
C440 H431 0.950 . S
C440 C439 1.398 . S
C440 C441 1.391 . S
C441 H429 0.950 . S
C441 C437 1.393 . S
C441 C440 1.391 . S
C442 H432 0.950 . S
C442 C443 1.386 . S
C442 C444 1.391 . S
C443 C442 1.386 . S
C443 C447 1.393 . S
C444 H433 0.950 . S
C444 C442 1.391 . S
C444 C445 1.400 . S
C445 C439 1.491 . S
C445 C444 1.400 . S
C445 C446 1.398 . S
C446 H434 0.950 . S
C446 C445 1.398 . S
C446 C447 1.391 . S
C447 H435 0.950 . S
C447 C443 1.393 . S
C447 C446 1.391 . S
H448 C456 0.950 . S
H449 C461 0.950 . S
H450 C458 0.950 . S
H451 C460 0.950 . S
H452 C462 0.950 . S
H453 C464 0.950 . S
H454 C466 0.950 . S
H455 C467 0.950 . S
C456 H448 0.950 . S
C456 C457 1.386 . S
C456 C458 1.391 . S
C457 C456 1.386 . S
C457 C461 1.393 . S
C458 H450 0.950 . S
C458 C456 1.391 . S
C458 C459 1.400 . S
C459 C458 1.400 . S
C459 C460 1.398 . S
C459 C465 1.491 . S
C460 H451 0.950 . S
C460 C459 1.398 . S
C460 C461 1.391 . S
C461 H449 0.950 . S
C461 C457 1.393 . S
C461 C460 1.391 . S
C462 H452 0.950 . S
C462 C463 1.386 . S
C462 C464 1.391 . S
C463 C462 1.386 . S
C463 C467 1.393 . S
C464 H453 0.950 . S
C464 C462 1.391 . S
C464 C465 1.400 . S
C465 C459 1.491 . S
C465 C464 1.400 . S
C465 C466 1.398 . S
C466 H454 0.950 . S
C466 C465 1.398 . S
C466 C467 1.391 . S
C467 H455 0.950 . S
C467 C463 1.393 . S
C467 C466 1.391 . S
H468 C476 0.950 . S
H469 C481 0.950 . S
H470 C478 0.950 . S
H471 C480 0.950 . S
H472 C482 0.950 . S
H473 C484 0.950 . S
H474 C486 0.950 . S
H475 C487 0.950 . S
C476 H468 0.950 . S
C476 C477 1.386 . S
C476 C478 1.391 . S
C477 C476 1.386 . S
C477 C481 1.393 . S
C478 H470 0.950 . S
C478 C476 1.391 . S
C478 C479 1.400 . S
C479 C478 1.400 . S
C479 C480 1.398 . S
C479 C485 1.491 . S
C480 H471 0.950 . S
C480 C479 1.398 . S
C480 C481 1.391 . S
C481 H469 0.950 . S
C481 C477 1.393 . S
C481 C480 1.391 . S
C482 H472 0.950 . S
C482 C483 1.386 . S
C482 C484 1.391 . S
C483 C482 1.386 . S
C483 C487 1.393 . S
C484 H473 0.950 . S
C484 C482 1.391 . S
C484 C485 1.400 . S
C485 C479 1.491 . S
C485 C484 1.400 . S
C485 C486 1.398 . S
C486 H474 0.950 . S
C486 C485 1.398 . S
C486 C487 1.391 . S
C487 H475 0.950 . S
C487 C483 1.393 . S
C487 C486 1.391 . S
H488 C496 0.950 . S
H489 C501 0.950 . S
H490 C498 0.950 . S
H491 C500 0.950 . S
H492 C502 0.950 . S
H493 C504 0.950 . S
H494 C506 0.950 . S
H495 C507 0.950 . S
C496 H488 0.950 . S
C496 C497 1.386 1_545 S
C496 C498 1.391 . S
C497 C496 1.386 1_565 S
C497 C501 1.393 . S
C498 H490 0.950 . S
C498 C496 1.391 . S
C498 C499 1.400 1_545 S
C499 C498 1.400 1_565 S
C499 C500 1.398 . S
C499 C505 1.491 . S
C500 H491 0.950 . S
C500 C499 1.398 . S
C500 C501 1.391 . S
C501 H489 0.950 . S
C501 C497 1.393 . S
C501 C500 1.391 . S
C502 H492 0.950 . S
C502 C503 1.386 . S
C502 C504 1.391 . S
C503 C502 1.386 . S
C503 C507 1.393 1_565 S
C504 H493 0.950 . S
C504 C502 1.391 . S
C504 C505 1.400 . S
C505 C499 1.491 . S
C505 C504 1.400 . S
C505 C506 1.398 1_565 S
C506 H494 0.950 . S
C506 C505 1.398 1_545 S
C506 C507 1.391 . S
C507 H495 0.950 . S
C507 C503 1.393 1_545 S
C507 C506 1.391 . S
H508 C516 0.950 . S
H509 C521 0.950 . S
H510 C518 0.950 . S
H511 C520 0.950 . S
H512 C522 0.950 . S
H513 C524 0.950 . S
H514 C526 0.950 . S
H515 C527 0.950 . S
C516 H508 0.950 . S
C516 C517 1.386 . S
C516 C518 1.391 . S
C517 C516 1.386 . S
C517 C521 1.393 . S
C518 H510 0.950 . S
C518 C516 1.391 . S
C518 C519 1.400 . S
C519 C518 1.400 . S
C519 C520 1.398 . S
C519 C525 1.491 . S
C520 H511 0.950 . S
C520 C519 1.398 . S
C520 C521 1.391 . S
C521 H509 0.950 . S
C521 C517 1.393 . S
C521 C520 1.391 . S
C522 H512 0.950 . S
C522 C523 1.386 . S
C522 C524 1.391 . S
C523 C522 1.386 . S
C523 C527 1.393 . S
C524 H513 0.950 . S
C524 C522 1.391 . S
C524 C525 1.400 . S
C525 C519 1.491 . S
C525 C524 1.400 . S
C525 C526 1.398 . S
C526 H514 0.950 . S
C526 C525 1.398 . S
C526 C527 1.391 . S
C527 H515 0.950 . S
C527 C523 1.393 . S
C527 C526 1.391 . S
H528 C536 0.950 . S
H529 C541 0.950 . S
H530 C538 0.950 . S
H531 C540 0.950 . S
H532 C542 0.950 . S
H533 C544 0.950 . S
H534 C546 0.950 . S
H535 C547 0.950 . S
C536 H528 0.950 . S
C536 C537 1.386 . S
C536 C538 1.391 . S
C537 C536 1.386 . S
C537 C541 1.393 . S
C538 H530 0.950 . S
C538 C536 1.391 . S
C538 C539 1.400 . S
C539 C538 1.400 . S
C539 C540 1.398 . S
C539 C545 1.491 . S
C540 H531 0.950 . S
C540 C539 1.398 . S
C540 C541 1.391 . S
C541 H529 0.950 . S
C541 C537 1.393 . S
C541 C540 1.391 . S
C542 H532 0.950 . S
C542 C543 1.386 . S
C542 C544 1.391 . S
C543 C542 1.386 . S
C543 C547 1.393 . S
C544 H533 0.950 . S
C544 C542 1.391 . S
C544 C545 1.400 . S
C545 C539 1.491 . S
C545 C544 1.400 . S
C545 C546 1.398 . S
C546 H534 0.950 . S
C546 C545 1.398 . S
C546 C547 1.391 . S
C547 H535 0.950 . S
C547 C543 1.393 . S
C547 C546 1.391 . S
H548 C556 0.950 . S
H549 C561 0.950 . S
H550 C558 0.950 . S
H551 C560 0.950 . S
H552 C562 0.950 . S
H553 C564 0.950 . S
H554 C566 0.950 . S
H555 C567 0.950 . S
C556 H548 0.950 . S
C556 C557 1.386 . S
C556 C558 1.391 . S
C557 C556 1.386 . S
C557 C561 1.393 . S
C558 H550 0.950 . S
C558 C556 1.391 . S
C558 C559 1.400 . S
C559 C558 1.400 . S
C559 C560 1.398 . S
C559 C565 1.491 . S
C560 H551 0.950 . S
C560 C559 1.398 . S
C560 C561 1.391 . S
C561 H549 0.950 . S
C561 C557 1.393 . S
C561 C560 1.391 . S
C562 H552 0.950 . S
C562 C563 1.386 . S
C562 C564 1.391 . S
C563 C562 1.386 . S
C563 C567 1.393 . S
C564 H553 0.950 . S
C564 C562 1.391 . S
C564 C565 1.400 . S
C565 C559 1.491 . S
C565 C564 1.400 . S
C565 C566 1.398 . S
C566 H554 0.950 . S
C566 C565 1.398 . S
C566 C567 1.391 . S
C567 H555 0.950 . S
C567 C563 1.393 . S
C567 C566 1.391 . S
H568 C576 0.950 . S
H569 C581 0.950 . S
H570 C578 0.950 . S
H571 C580 0.950 . S
H572 C582 0.950 . S
H573 C584 0.950 . S
H574 C586 0.950 . S
H575 C587 0.950 . S
C576 H568 0.950 . S
C576 C577 1.386 . S
C576 C578 1.391 . S
C577 C576 1.386 . S
C577 C581 1.393 . S
C578 H570 0.950 . S
C578 C576 1.391 . S
C578 C579 1.400 . S
C579 C578 1.400 . S
C579 C580 1.398 . S
C579 C585 1.491 . S
C580 H571 0.950 . S
C580 C579 1.398 . S
C580 C581 1.391 . S
C581 H569 0.950 . S
C581 C577 1.393 . S
C581 C580 1.391 . S
C582 H572 0.950 . S
C582 C583 1.386 . S
C582 C584 1.391 . S
C583 C582 1.386 . S
C583 C587 1.393 . S
C584 H573 0.950 . S
C584 C582 1.391 . S
C584 C585 1.400 . S
C585 C579 1.491 . S
C585 C584 1.400 . S
C585 C586 1.398 . S
C586 H574 0.950 . S
C586 C585 1.398 . S
C586 C587 1.391 . S
C587 H575 0.950 . S
C587 C583 1.393 . S
C587 C586 1.391 . S
H588 C596 0.950 . S
H589 C601 0.950 . S
H590 C598 0.950 . S
H591 C600 0.950 . S
H592 C602 0.950 . S
H593 C604 0.950 . S
H594 C606 0.950 . S
H595 C607 0.950 . S
C596 H588 0.950 . S
C596 C597 1.386 . S
C596 C598 1.391 . S
C597 C596 1.386 . S
C597 C601 1.393 . S
C598 H590 0.950 . S
C598 C596 1.391 . S
C598 C599 1.400 . S
C599 C598 1.400 . S
C599 C600 1.398 . S
C599 C605 1.491 . S
C600 H591 0.950 . S
C600 C599 1.398 . S
C600 C601 1.391 . S
C601 H589 0.950 . S
C601 C597 1.393 . S
C601 C600 1.391 . S
C602 H592 0.950 . S
C602 C603 1.386 . S
C602 C604 1.391 . S
C603 C602 1.386 . S
C603 C607 1.393 . S
C604 H593 0.950 . S
C604 C602 1.391 . S
C604 C605 1.400 . S
C605 C599 1.491 . S
C605 C604 1.400 . S
C605 C606 1.398 . S
C606 H594 0.950 . S
C606 C605 1.398 . S
C606 C607 1.391 . S
C607 H595 0.950 . S
C607 C603 1.393 . S
C607 C606 1.391 . S
H608 C616 0.950 . S
H609 C621 0.950 . S
H610 C618 0.950 . S
H611 C620 0.950 . S
H612 C622 0.950 1_655 S
H613 C624 0.940 1_655 S
H614 C626 0.950 . S
H615 C627 0.950 . S
C616 H608 0.950 . S
C616 C617 1.386 . S
C616 C618 1.391 . S
C617 C616 1.386 . S
C617 C621 1.393 . S
C618 H610 0.950 . S
C618 C616 1.391 . S
C618 C619 1.400 . S
C619 C618 1.400 . S
C619 C620 1.398 . S
C619 C625 1.491 . S
C620 H611 0.950 . S
C620 C619 1.398 . S
C620 C621 1.391 . S
C621 H609 0.950 . S
C621 C617 1.393 . S
C621 C620 1.391 . S
C622 H612 0.950 1_455 S
C622 C623 1.386 . S
C622 C624 1.391 . S
C623 C622 1.386 . S
C623 C627 1.393 . S
C624 H613 0.940 1_455 S
C624 C622 1.391 . S
C624 C625 1.400 . S
C625 C619 1.491 . S
C625 C624 1.400 . S
C625 C626 1.398 . S
C626 H614 0.950 . S
C626 C625 1.398 . S
C626 C627 1.391 . S
C627 H615 0.950 . S
C627 C623 1.393 . S
C627 C626 1.391 . S
H628 C636 0.950 . S
H629 C641 0.950 . S
H630 C638 0.950 . S
H631 C640 0.950 . S
H632 C642 0.950 . S
H633 C644 0.950 . S
H634 C646 0.950 . S
H635 C647 0.950 . S
C636 H628 0.950 . S
C636 C637 1.386 . S
C636 C638 1.391 . S
C637 C636 1.386 . S
C637 C641 1.393 . S
C638 H630 0.950 . S
C638 C636 1.391 . S
C638 C639 1.400 . S
C639 C638 1.400 . S
C639 C640 1.398 . S
C639 C645 1.491 . S
C640 H631 0.950 . S
C640 C639 1.398 . S
C640 C641 1.391 . S
C641 H629 0.950 . S
C641 C637 1.393 . S
C641 C640 1.391 . S
C642 H632 0.950 . S
C642 C643 1.386 . S
C642 C644 1.391 . S
C643 C642 1.386 . S
C643 C647 1.393 . S
C644 H633 0.950 . S
C644 C642 1.391 . S
C644 C645 1.400 . S
C645 C639 1.491 . S
C645 C644 1.400 . S
C645 C646 1.398 . S
C646 H634 0.950 . S
C646 C645 1.398 . S
C646 C647 1.391 . S
C647 H635 0.950 . S
C647 C643 1.393 . S
C647 C646 1.391 . S
H648 C656 0.950 . S
H649 C661 0.950 . S
H650 C658 0.950 . S
H651 C660 0.950 . S
H652 C662 0.950 . S
H653 C664 0.950 . S
H654 C666 0.950 . S
H655 C667 0.950 . S
C656 H648 0.950 . S
C656 C657 1.386 1_455 S
C656 C658 1.391 . S
C657 C656 1.386 1_655 S
C657 C661 1.393 . S
C658 H650 0.950 . S
C658 C656 1.391 . S
C658 C659 1.400 1_455 S
C659 C658 1.400 1_655 S
C659 C660 1.398 . S
C659 C665 1.491 . S
C660 H651 0.950 . S
C660 C659 1.398 . S
C660 C661 1.391 . S
C661 H649 0.950 . S
C661 C657 1.393 . S
C661 C660 1.391 . S
C662 H652 0.950 . S
C662 C663 1.355 1_655 S
C662 C664 1.391 . S
C663 C662 1.355 1_455 S
C663 C667 1.424 . S
C664 H653 0.950 . S
C664 C662 1.391 . S
C664 C665 1.400 . S
C665 C659 1.491 . S
C665 C664 1.400 . S
C665 C666 1.398 1_655 S
C666 H654 0.950 . S
C666 C665 1.398 1_455 S
C666 C667 1.391 . S
C667 H655 0.950 . S
C667 C663 1.424 . S
C667 C666 1.391 . S
H668 C676 0.950 . S
H669 C681 0.950 . S
H670 C678 0.950 . S
H671 C680 0.950 . S
H672 C682 0.950 . S
H673 C684 0.950 . S
H674 C686 0.950 . S
H675 C687 0.950 . S
C676 H668 0.950 . S
C676 C677 1.386 . S
C676 C678 1.391 . S
C677 C676 1.386 . S
C677 C681 1.393 . S
C678 H670 0.950 . S
C678 C676 1.391 . S
C678 C679 1.400 . S
C679 C678 1.400 . S
C679 C680 1.398 . S
C679 C685 1.491 . S
C680 H671 0.950 . S
C680 C679 1.398 . S
C680 C681 1.391 . S
C681 H669 0.950 . S
C681 C677 1.393 . S
C681 C680 1.391 . S
C682 H672 0.950 . S
C682 C683 1.386 . S
C682 C684 1.391 . S
C683 C682 1.386 . S
C683 C687 1.393 . S
C684 H673 0.950 . S
C684 C682 1.391 . S
C684 C685 1.400 . S
C685 C679 1.491 . S
C685 C684 1.400 . S
C685 C686 1.398 . S
C686 H674 0.950 . S
C686 C685 1.398 . S
C686 C687 1.391 . S
C687 H675 0.950 . S
C687 C683 1.393 . S
C687 C686 1.391 . S
H688 C696 0.950 . S
H689 C701 0.950 . S
H690 C698 0.950 . S
H691 C700 0.950 . S
H692 C702 0.950 . S
H693 C704 0.950 . S
H694 C706 0.950 . S
H695 C707 0.950 . S
C696 H688 0.950 . S
C696 C697 1.386 . S
C696 C698 1.391 . S
C697 C696 1.386 . S
C697 C701 1.393 . S
C698 H690 0.950 . S
C698 C696 1.391 . S
C698 C699 1.400 . S
C699 C698 1.400 . S
C699 C700 1.398 . S
C699 C705 1.491 . S
C700 H691 0.950 . S
C700 C699 1.398 . S
C700 C701 1.391 . S
C701 H689 0.950 . S
C701 C697 1.393 . S
C701 C700 1.391 . S
C702 H692 0.950 . S
C702 C703 1.386 . S
C702 C704 1.391 . S
C703 C702 1.386 . S
C703 C707 1.393 . S
C704 H693 0.950 . S
C704 C702 1.391 . S
C704 C705 1.400 . S
C705 C699 1.491 . S
C705 C704 1.400 . S
C705 C706 1.398 . S
C706 H694 0.950 . S
C706 C705 1.398 . S
C706 C707 1.391 . S
C707 H695 0.950 . S
C707 C703 1.393 . S
C707 C706 1.391 . S
H708 C716 0.964 . S
H709 C721 0.949 . S
H710 C718 0.950 . S
H711 C720 0.950 . S
H712 C722 0.950 . S
H713 C724 0.950 . S
H714 C726 0.950 . S
H715 C727 0.950 . S
C716 H708 0.964 . S
C716 C717 1.362 1_554 S
C716 C718 1.401 1_545 S
C717 C716 1.362 1_556 S
C717 C721 1.393 . S
C718 H710 0.950 . S
C718 C716 1.401 1_565 S
C718 C719 1.400 1_554 S
C719 C718 1.400 1_556 S
C719 C720 1.398 . S
C719 C725 1.491 . S
C720 H711 0.950 . S
C720 C719 1.398 . S
C720 C721 1.391 1_565 S
C721 H709 0.949 . S
C721 C717 1.393 . S
C721 C720 1.391 1_545 S
C722 H712 0.950 . S
C722 C723 1.386 1_556 S
C722 C724 1.391 . S
C723 C722 1.386 1_554 S
C723 C727 1.393 . S
C724 H713 0.950 . S
C724 C722 1.391 . S
C724 C725 1.400 . S
C725 C719 1.491 . S
C725 C724 1.400 . S
C725 C726 1.398 1_556 S
C726 H714 0.950 . S
C726 C725 1.398 1_554 S
C726 C727 1.391 . S
C727 H715 0.950 . S
C727 C723 1.393 . S
C727 C726 1.391 . S
H728 C736 0.950 . S
H729 C741 0.950 . S
H730 C738 0.950 . S
H731 C740 0.950 . S
H732 C742 0.950 . S
H733 C744 0.950 . S
H734 C746 0.950 . S
H735 C747 0.950 . S
C736 H728 0.950 . S
C736 C737 1.386 . S
C736 C738 1.391 . S
C737 C736 1.386 . S
C737 C741 1.393 . S
C738 H730 0.950 . S
C738 C736 1.391 . S
C738 C739 1.400 . S
C739 C738 1.400 . S
C739 C740 1.398 . S
C739 C745 1.491 . S
C740 H731 0.950 . S
C740 C739 1.398 . S
C740 C741 1.391 . S
C741 H729 0.950 . S
C741 C737 1.393 . S
C741 C740 1.391 . S
C742 H732 0.950 . S
C742 C743 1.386 . S
C742 C744 1.391 . S
C743 C742 1.386 . S
C743 C747 1.393 . S
C744 H733 0.950 . S
C744 C742 1.391 . S
C744 C745 1.400 . S
C745 C739 1.491 . S
C745 C744 1.400 . S
C745 C746 1.398 . S
C746 H734 0.950 . S
C746 C745 1.398 . S
C746 C747 1.391 . S
C747 H735 0.950 . S
C747 C743 1.393 . S
C747 C746 1.391 . S
H748 C756 0.950 . S
H749 C761 0.950 . S
H750 C758 0.950 . S
H751 C760 0.950 . S
H752 C762 0.950 . S
H753 C764 0.950 . S
H754 C766 0.950 . S
H755 C767 0.950 . S
C756 H748 0.950 . S
C756 C757 1.386 . S
C756 C758 1.391 . S
C757 C756 1.386 . S
C757 C761 1.393 . S
C758 H750 0.950 . S
C758 C756 1.391 . S
C758 C759 1.400 . S
C759 C758 1.400 . S
C759 C760 1.398 . S
C759 C765 1.491 . S
C760 H751 0.950 . S
C760 C759 1.398 . S
C760 C761 1.391 . S
C761 H749 0.950 . S
C761 C757 1.393 . S
C761 C760 1.391 . S
C762 H752 0.950 . S
C762 C763 1.386 . S
C762 C764 1.391 . S
C763 C762 1.386 . S
C763 C767 1.393 . S
C764 H753 0.950 . S
C764 C762 1.391 . S
C764 C765 1.400 . S
C765 C759 1.491 . S
C765 C764 1.400 . S
C765 C766 1.398 . S
C766 H754 0.950 . S
C766 C765 1.398 . S
C766 C767 1.391 . S
C767 H755 0.950 . S
C767 C763 1.393 . S
C767 C766 1.391 . S
H768 C776 0.950 . S
H769 C781 0.950 . S
H770 C778 0.950 . S
H771 C780 0.950 . S
H772 C782 0.950 . S
H773 C784 0.950 . S
H774 C786 0.950 . S
H775 C787 0.950 . S
C776 H768 0.950 . S
C776 C777 1.386 . S
C776 C778 1.391 . S
C777 C776 1.386 . S
C777 C781 1.393 . S
C778 H770 0.950 . S
C778 C776 1.391 . S
C778 C779 1.400 . S
C779 C778 1.400 . S
C779 C780 1.398 . S
C779 C785 1.491 . S
C780 H771 0.950 . S
C780 C779 1.398 . S
C780 C781 1.391 . S
C781 H769 0.950 . S
C781 C777 1.393 . S
C781 C780 1.391 . S
C782 H772 0.950 . S
C782 C783 1.386 . S
C782 C784 1.391 . S
C783 C782 1.386 . S
C783 C787 1.393 . S
C784 H773 0.950 . S
C784 C782 1.391 . S
C784 C785 1.400 . S
C785 C779 1.491 . S
C785 C784 1.400 . S
C785 C786 1.398 . S
C786 H774 0.950 . S
C786 C785 1.398 . S
C786 C787 1.391 . S
C787 H775 0.950 . S
C787 C783 1.393 . S
C787 C786 1.391 . S
H788 C796 0.950 . S
H789 C801 0.950 . S
H790 C798 0.950 . S
H791 C800 0.950 . S
H792 C802 0.950 . S
H793 C804 0.950 . S
H794 C806 0.950 . S
H795 C807 0.950 . S
C796 H788 0.950 . S
C796 C797 1.386 . S
C796 C798 1.391 . S
C797 C796 1.386 . S
C797 C801 1.393 . S
C798 H790 0.950 . S
C798 C796 1.391 . S
C798 C799 1.400 . S
C799 C798 1.400 . S
C799 C800 1.398 . S
C799 C805 1.491 . S
C800 H791 0.950 . S
C800 C799 1.398 . S
C800 C801 1.391 . S
C801 H789 0.950 . S
C801 C797 1.393 . S
C801 C800 1.391 . S
C802 H792 0.950 . S
C802 C803 1.386 . S
C802 C804 1.391 . S
C803 C802 1.386 . S
C803 C807 1.393 . S
C804 H793 0.950 . S
C804 C802 1.391 . S
C804 C805 1.400 . S
C805 C799 1.491 . S
C805 C804 1.400 . S
C805 C806 1.398 . S
C806 H794 0.950 . S
C806 C805 1.398 . S
C806 C807 1.391 . S
C807 H795 0.950 . S
C807 C803 1.393 . S
C807 C806 1.391 . S
H808 C816 0.950 . S
H809 C821 0.950 . S
H810 C818 0.950 . S
H811 C820 0.950 . S
H812 C822 0.950 . S
H813 C824 0.950 . S
H814 C826 0.950 . S
H815 C827 0.950 . S
C816 H808 0.950 . S
C816 C817 1.386 . S
C816 C818 1.391 . S
C817 C816 1.386 . S
C817 C821 1.393 . S
C818 H810 0.950 . S
C818 C816 1.391 . S
C818 C819 1.400 . S
C819 C818 1.400 . S
C819 C820 1.398 . S
C819 C825 1.491 . S
C820 H811 0.950 . S
C820 C819 1.398 . S
C820 C821 1.391 . S
C821 H809 0.950 . S
C821 C817 1.393 . S
C821 C820 1.391 . S
C822 H812 0.950 . S
C822 C823 1.386 . S
C822 C824 1.391 . S
C823 C822 1.386 . S
C823 C827 1.393 . S
C824 H813 0.950 . S
C824 C822 1.391 . S
C824 C825 1.400 . S
C825 C819 1.491 . S
C825 C824 1.400 . S
C825 C826 1.398 . S
C826 H814 0.950 . S
C826 C825 1.398 . S
C826 C827 1.391 . S
C827 H815 0.950 . S
C827 C823 1.393 . S
C827 C826 1.391 . S
H828 C836 0.950 . S
H829 C841 0.950 . S
H830 C838 0.950 . S
H831 C840 0.950 . S
H832 C842 0.950 . S
H833 C844 0.950 . S
H834 C846 0.950 . S
H835 C847 0.950 . S
C836 H828 0.950 . S
C836 C837 1.386 . S
C836 C838 1.391 . S
C837 C836 1.386 . S
C837 C841 1.393 . S
C838 H830 0.950 . S
C838 C836 1.391 . S
C838 C839 1.400 . S
C839 C838 1.400 . S
C839 C840 1.398 . S
C839 C845 1.491 . S
C840 H831 0.950 . S
C840 C839 1.398 . S
C840 C841 1.391 . S
C841 H829 0.950 . S
C841 C837 1.393 . S
C841 C840 1.391 . S
C842 H832 0.950 . S
C842 C843 1.386 . S
C842 C844 1.391 . S
C843 C842 1.386 . S
C843 C847 1.393 . S
C844 H833 0.950 . S
C844 C842 1.391 . S
C844 C845 1.400 . S
C845 C839 1.491 . S
C845 C844 1.400 . S
C845 C846 1.398 . S
C846 H834 0.950 . S
C846 C845 1.398 . S
C846 C847 1.391 . S
C847 H835 0.950 . S
C847 C843 1.393 . S
C847 C846 1.391 . S
H848 C856 0.950 1_565 S
H849 C861 0.950 . S
H850 C858 0.950 1_565 S
H851 C860 0.950 . S
H852 C862 0.950 . S
H853 C864 0.950 . S
H854 C866 0.950 . S
H855 C867 0.950 . S
C856 H848 0.950 1_545 S
C856 C857 1.386 . S
C856 C858 1.391 . S
C857 C856 1.386 . S
C857 C861 1.393 . S
C858 H850 0.950 1_545 S
C858 C856 1.391 . S
C858 C859 1.400 . S
C859 C858 1.400 . S
C859 C860 1.398 . S
C859 C865 1.491 . S
C860 H851 0.950 . S
C860 C859 1.398 . S
C860 C861 1.391 . S
C861 H849 0.950 . S
C861 C857 1.393 . S
C861 C860 1.391 . S
C862 H852 0.950 . S
C862 C863 1.386 . S
C862 C864 1.391 . S
C863 C862 1.386 . S
C863 C867 1.393 1_545 S
C864 H853 0.950 . S
C864 C862 1.391 . S
C864 C865 1.400 . S
C865 C859 1.491 . S
C865 C864 1.400 . S
C865 C866 1.398 1_545 S
C866 H854 0.950 . S
C866 C865 1.398 1_565 S
C866 C867 1.391 . S
C867 H855 0.950 . S
C867 C863 1.393 1_565 S
C867 C866 1.391 . S
H868 C876 0.950 . S
H869 C881 0.950 . S
H870 C878 0.950 . S
H871 C880 0.950 . S
H872 C882 0.950 . S
H873 C884 0.950 . S
H874 C886 0.950 . S
H875 C887 0.950 . S
C876 H868 0.950 . S
C876 C877 1.386 . S
C876 C878 1.391 . S
C877 C876 1.386 . S
C877 C881 1.393 . S
C878 H870 0.950 . S
C878 C876 1.391 . S
C878 C879 1.400 . S
C879 C878 1.400 . S
C879 C880 1.398 . S
C879 C885 1.491 . S
C880 H871 0.950 . S
C880 C879 1.398 . S
C880 C881 1.391 . S
C881 H869 0.950 . S
C881 C877 1.393 . S
C881 C880 1.391 . S
C882 H872 0.950 . S
C882 C883 1.386 . S
C882 C884 1.391 . S
C883 C882 1.386 . S
C883 C887 1.393 . S
C884 H873 0.950 . S
C884 C882 1.391 . S
C884 C885 1.400 . S
C885 C879 1.491 . S
C885 C884 1.400 . S
C885 C886 1.398 . S
C886 H874 0.950 . S
C886 C885 1.398 . S
C886 C887 1.391 . S
C887 H875 0.950 . S
C887 C883 1.393 . S
C887 C886 1.391 . S
H888 C896 0.950 . S
H889 C901 0.950 . S
H890 C898 0.950 . S
H891 C900 0.950 . S
H892 C902 0.950 . S
H893 C904 0.950 . S
H894 C906 0.950 . S
H895 C907 0.950 . S
C896 H888 0.950 . S
C896 C897 1.386 . S
C896 C898 1.391 . S
C897 C896 1.386 . S
C897 C901 1.393 . S
C898 H890 0.950 . S
C898 C896 1.391 . S
C898 C899 1.400 . S
C899 C898 1.400 . S
C899 C900 1.398 . S
C899 C905 1.491 . S
C900 H891 0.950 . S
C900 C899 1.398 . S
C900 C901 1.391 . S
C901 H889 0.950 . S
C901 C897 1.393 . S
C901 C900 1.391 . S
C902 H892 0.950 . S
C902 C903 1.386 . S
C902 C904 1.391 . S
C903 C902 1.386 . S
C903 C907 1.393 . S
C904 H893 0.950 . S
C904 C902 1.391 . S
C904 C905 1.400 . S
C905 C899 1.491 . S
C905 C904 1.400 . S
C905 C906 1.398 . S
C906 H894 0.950 . S
C906 C905 1.398 . S
C906 C907 1.391 . S
C907 H895 0.950 . S
C907 C903 1.393 . S
C907 C906 1.391 . S
H908 C916 0.950 . S
H909 C921 0.950 . S
H910 C918 0.950 . S
H911 C920 0.950 . S
H912 C922 0.950 . S
H913 C924 0.950 . S
H914 C926 0.950 . S
H915 C927 0.950 . S
C916 H908 0.950 . S
C916 C917 1.386 . S
C916 C918 1.391 . S
C917 C916 1.386 . S
C917 C921 1.393 . S
C918 H910 0.950 . S
C918 C916 1.391 . S
C918 C919 1.400 . S
C919 C918 1.400 . S
C919 C920 1.398 . S
C919 C925 1.491 . S
C920 H911 0.950 . S
C920 C919 1.398 . S
C920 C921 1.391 . S
C921 H909 0.950 . S
C921 C917 1.393 . S
C921 C920 1.391 . S
C922 H912 0.950 . S
C922 C923 1.386 . S
C922 C924 1.391 . S
C923 C922 1.386 . S
C923 C927 1.393 . S
C924 H913 0.950 . S
C924 C922 1.391 . S
C924 C925 1.400 . S
C925 C919 1.491 . S
C925 C924 1.400 . S
C925 C926 1.398 . S
C926 H914 0.950 . S
C926 C925 1.398 . S
C926 C927 1.391 . S
C927 H915 0.950 . S
C927 C923 1.393 . S
C927 C926 1.391 . S
H928 C936 0.950 . S
H929 C941 0.950 . S
H930 C938 0.950 1_655 S
H931 C940 0.950 . S
H932 C942 0.950 . S
H933 C944 0.950 1_455 S
H934 C946 0.950 . S
H935 C947 0.950 . S
C936 H928 0.950 . S
C936 C937 1.386 . S
C936 C938 1.391 . S
C937 C936 1.386 . S
C937 C941 1.393 . S
C938 H930 0.950 1_455 S
C938 C936 1.391 . S
C938 C939 1.400 . S
C939 C938 1.400 . S
C939 C940 1.398 . S
C939 C945 1.491 1_455 S
C940 H931 0.950 . S
C940 C939 1.398 . S
C940 C941 1.391 . S
C941 H929 0.950 . S
C941 C937 1.393 . S
C941 C940 1.391 . S
C942 H932 0.950 . S
C942 C943 1.386 . S
C942 C944 1.391 . S
C943 C942 1.386 . S
C943 C947 1.393 . S
C944 H933 0.950 1_655 S
C944 C942 1.391 . S
C944 C945 1.400 . S
C945 C939 1.491 1_655 S
C945 C944 1.400 . S
C945 C946 1.398 . S
C946 H934 0.950 . S
C946 C945 1.398 . S
C946 C947 1.391 . S
C947 H935 0.950 . S
C947 C943 1.393 . S
C947 C946 1.391 . S
H948 C956 0.950 . S
H949 C961 0.950 . S
H950 C958 0.950 . S
H951 C960 0.950 . S
H952 C962 0.950 . S
H953 C964 0.950 . S
H954 C966 0.950 . S
H955 C967 0.950 . S
C956 H948 0.950 . S
C956 C957 1.386 . S
C956 C958 1.391 . S
C957 C956 1.386 . S
C957 C961 1.393 . S
C958 H950 0.950 . S
C958 C956 1.391 . S
C958 C959 1.400 . S
C959 C958 1.400 . S
C959 C960 1.398 . S
C959 C965 1.491 . S
C960 H951 0.950 . S
C960 C959 1.398 . S
C960 C961 1.391 . S
C961 H949 0.950 . S
C961 C957 1.393 . S
C961 C960 1.391 . S
C962 H952 0.950 . S
C962 C963 1.386 . S
C962 C964 1.391 . S
C963 C962 1.386 . S
C963 C967 1.393 . S
C964 H953 0.950 . S
C964 C962 1.391 . S
C964 C965 1.400 . S
C965 C959 1.491 . S
C965 C964 1.400 . S
C965 C966 1.398 . S
C966 H954 0.950 . S
C966 C965 1.398 . S
C966 C967 1.391 . S
C967 H955 0.950 . S
C967 C963 1.393 . S
C967 C966 1.391 . S
H968 C976 0.950 . S
H969 C981 0.950 . S
H970 C978 0.950 . S
H971 C980 0.950 . S
H972 C982 0.950 . S
H973 C984 0.950 . S
H974 C986 0.950 . S
H975 C987 0.950 . S
C976 H968 0.950 . S
C976 C977 1.386 1_655 S
C976 C978 1.391 1_655 S
C977 C976 1.386 1_455 S
C977 C981 1.393 . S
C978 H970 0.950 . S
C978 C976 1.391 1_455 S
C978 C979 1.400 . S
C979 C978 1.400 . S
C979 C980 1.398 . S
C979 C985 1.491 . S
C980 H971 0.950 . S
C980 C979 1.398 . S
C980 C981 1.391 . S
C981 H969 0.950 . S
C981 C977 1.393 . S
C981 C980 1.391 . S
C982 H972 0.950 . S
C982 C983 1.386 . S
C982 C984 1.391 . S
C983 C982 1.386 . S
C983 C987 1.393 . S
C984 H973 0.950 . S
C984 C982 1.391 . S
C984 C985 1.400 . S
C985 C979 1.491 . S
C985 C984 1.400 . S
C985 C986 1.398 . S
C986 H974 0.950 . S
C986 C985 1.398 . S
C986 C987 1.391 . S
C987 H975 0.950 . S
C987 C983 1.393 . S
C987 C986 1.391 . S
H988 C996 0.950 . S
H989 C1001 0.950 . S
H990 C998 0.950 . S
H991 C1000 0.950 . S
H992 C1002 0.950 . S
H993 C1004 0.950 . S
H994 C1006 0.950 . S
H995 C1007 0.950 . S
C996 H988 0.950 . S
C996 C997 1.386 . S
C996 C998 1.391 . S
C997 C996 1.386 . S
C997 C1001 1.393 . S
C998 H990 0.950 . S
C998 C996 1.391 . S
C998 C999 1.400 . S
C999 C998 1.400 . S
C999 C1000 1.398 . S
C999 C1005 1.491 . S
C1000 H991 0.950 . S
C1000 C999 1.398 . S
C1000 C1001 1.391 . S
C1001 H989 0.950 . S
C1001 C997 1.393 . S
C1001 C1000 1.391 . S
C1002 H992 0.950 . S
C1002 C1003 1.386 . S
C1002 C1004 1.391 . S
C1003 C1002 1.386 . S
C1003 C1007 1.393 . S
C1004 H993 0.950 . S
C1004 C1002 1.391 . S
C1004 C1005 1.400 . S
C1005 C999 1.491 . S
C1005 C1004 1.400 . S
C1005 C1006 1.398 . S
C1006 H994 0.950 . S
C1006 C1005 1.398 . S
C1006 C1007 1.391 . S
C1007 H995 0.950 . S
C1007 C1003 1.393 . S
C1007 C1006 1.391 . S
H1008 C1016 0.950 . S
H1009 C1021 0.950 . S
H1010 C1018 0.950 . S
H1011 C1020 0.950 . S
H1012 C1022 0.950 . S
H1013 C1024 0.950 . S
H1014 C1026 0.950 . S
H1015 C1027 0.950 . S
C1016 H1008 0.950 . S
C1016 C1017 1.386 1_455 S
C1016 C1018 1.391 . S
C1017 C1016 1.386 1_655 S
C1017 C1021 1.393 . S
C1018 H1010 0.950 . S
C1018 C1016 1.391 . S
C1018 C1019 1.400 1_455 S
C1019 C1018 1.400 1_655 S
C1019 C1020 1.398 . S
C1019 C1025 1.491 . S
C1020 H1011 0.950 . S
C1020 C1019 1.398 . S
C1020 C1021 1.391 . S
C1021 H1009 0.950 . S
C1021 C1017 1.393 . S
C1021 C1020 1.391 . S
C1022 H1012 0.950 . S
C1022 C1023 1.387 . S
C1022 C1024 1.391 . S
C1023 C1022 1.387 . S
C1023 C1027 1.392 1_655 S
C1024 H1013 0.950 . S
C1024 C1022 1.391 . S
C1024 C1025 1.400 . S
C1025 C1019 1.491 . S
C1025 C1024 1.400 . S
C1025 C1026 1.398 1_655 S
C1026 H1014 0.950 . S
C1026 C1025 1.398 1_455 S
C1026 C1027 1.391 . S
C1027 H1015 0.950 . S
C1027 C1023 1.392 1_455 S
C1027 C1026 1.391 . S
H1028 C1036 0.950 . S
H1029 C1041 0.950 . S
H1030 C1038 0.950 . S
H1031 C1040 0.950 . S
H1032 C1042 0.950 . S
H1033 C1044 0.950 . S
H1034 C1046 0.950 . S
H1035 C1047 0.950 . S
C1036 H1028 0.950 . S
C1036 C1037 1.386 . S
C1036 C1038 1.391 . S
C1037 C1036 1.386 . S
C1037 C1041 1.393 . S
C1038 H1030 0.950 . S
C1038 C1036 1.391 . S
C1038 C1039 1.400 . S
C1039 C1038 1.400 . S
C1039 C1040 1.398 . S
C1039 C1045 1.491 . S
C1040 H1031 0.950 . S
C1040 C1039 1.398 . S
C1040 C1041 1.391 . S
C1041 H1029 0.950 . S
C1041 C1037 1.393 . S
C1041 C1040 1.391 . S
C1042 H1032 0.950 . S
C1042 C1043 1.386 . S
C1042 C1044 1.391 . S
C1043 C1042 1.386 . S
C1043 C1047 1.393 . S
C1044 H1033 0.950 . S
C1044 C1042 1.391 . S
C1044 C1045 1.400 . S
C1045 C1039 1.491 . S
C1045 C1044 1.400 . S
C1045 C1046 1.398 . S
C1046 H1034 0.950 . S
C1046 C1045 1.398 . S
C1046 C1047 1.391 . S
C1047 H1035 0.950 . S
C1047 C1043 1.393 . S
C1047 C1046 1.391 . S
H1048 C1056 0.950 . S
H1049 C1061 0.950 1_554 S
H1050 C1058 0.950 . S
H1051 C1060 0.950 . S
H1052 C1062 0.950 . S
H1053 C1064 0.950 . S
H1054 C1066 0.950 1_655 S
H1055 C1067 0.950 1_655 S
C1056 H1048 0.950 . S
C1056 C1057 1.386 . S
C1056 C1058 1.391 . S
C1057 C1056 1.386 . S
C1057 C1061 1.393 . S
C1058 H1050 0.950 . S
C1058 C1056 1.391 . S
C1058 C1059 1.400 . S
C1059 C1058 1.400 . S
C1059 C1060 1.398 . S
C1059 C1065 1.491 . S
C1060 H1051 0.950 . S
C1060 C1059 1.398 . S
C1060 C1061 1.391 . S
C1061 H1049 0.950 1_556 S
C1061 C1057 1.393 . S
C1061 C1060 1.391 . S
C1062 H1052 0.950 . S
C1062 C1063 1.386 . S
C1062 C1064 1.391 . S
C1063 C1062 1.386 . S
C1063 C1067 1.393 . S
C1064 H1053 0.950 . S
C1064 C1062 1.391 . S
C1064 C1065 1.400 . S
C1065 C1059 1.491 . S
C1065 C1064 1.400 . S
C1065 C1066 1.398 . S
C1066 H1054 0.950 1_455 S
C1066 C1065 1.398 . S
C1066 C1067 1.391 . S
C1067 H1055 0.950 1_455 S
C1067 C1063 1.393 . S
C1067 C1066 1.391 . S
H1068 C1076 0.950 . S
H1069 C1081 0.950 . S
H1070 C1078 0.950 . S
H1071 C1080 0.950 . S
H1072 C1082 0.950 . S
H1073 C1084 0.950 . S
H1074 C1086 0.950 . S
H1075 C1087 0.950 . S
C1076 H1068 0.950 . S
C1076 C1077 1.386 . S
C1076 C1078 1.391 . S
C1077 C1076 1.386 . S
C1077 C1081 1.393 . S
C1078 H1070 0.950 . S
C1078 C1076 1.391 . S
C1078 C1079 1.400 . S
C1079 C1078 1.400 . S
C1079 C1080 1.398 . S
C1079 C1085 1.491 . S
C1080 H1071 0.950 . S
C1080 C1079 1.398 . S
C1080 C1081 1.391 . S
C1081 H1069 0.950 . S
C1081 C1077 1.393 . S
C1081 C1080 1.391 . S
C1082 H1072 0.950 . S
C1082 C1083 1.386 . S
C1082 C1084 1.391 . S
C1083 C1082 1.386 . S
C1083 C1087 1.393 . S
C1084 H1073 0.950 . S
C1084 C1082 1.391 . S
C1084 C1085 1.400 . S
C1085 C1079 1.491 . S
C1085 C1084 1.400 . S
C1085 C1086 1.398 . S
C1086 H1074 0.950 . S
C1086 C1085 1.398 . S
C1086 C1087 1.391 . S
C1087 H1075 0.950 . S
C1087 C1083 1.393 . S
C1087 C1086 1.391 . S
H1088 C1096 0.950 1_556 S
H1089 C1101 0.950 . S
H1090 C1098 0.950 . S
H1091 C1100 0.950 . S
H1092 C1102 0.950 . S
H1093 C1104 0.950 . S
H1094 C1106 0.950 . S
H1095 C1107 0.950 . S
C1096 H1088 0.950 1_554 S
C1096 C1097 1.386 . S
C1096 C1098 1.391 . S
C1097 C1096 1.386 . S
C1097 C1101 1.393 . S
C1098 H1090 0.950 . S
C1098 C1096 1.391 . S
C1098 C1099 1.400 . S
C1099 C1098 1.400 . S
C1099 C1100 1.398 . S
C1099 C1105 1.491 . S
C1100 H1091 0.950 . S
C1100 C1099 1.398 . S
C1100 C1101 1.391 . S
C1101 H1089 0.950 . S
C1101 C1097 1.393 . S
C1101 C1100 1.391 . S
C1102 H1092 0.950 . S
C1102 C1103 1.386 . S
C1102 C1104 1.391 . S
C1103 C1102 1.386 . S
C1103 C1107 1.393 . S
C1104 H1093 0.950 . S
C1104 C1102 1.391 . S
C1104 C1105 1.400 . S
C1105 C1099 1.491 . S
C1105 C1104 1.400 . S
C1105 C1106 1.398 . S
C1106 H1094 0.950 . S
C1106 C1105 1.398 . S
C1106 C1107 1.391 . S
C1107 H1095 0.950 . S
C1107 C1103 1.393 . S
C1107 C1106 1.391 . S
H1108 C1116 0.950 . S
H1109 C1121 0.950 . S
H1110 C1118 0.950 . S
H1111 C1120 0.950 . S
H1112 C1122 0.950 . S
H1113 C1124 0.950 . S
H1114 C1126 0.950 . S
H1115 C1127 0.950 . S
C1116 H1108 0.950 . S
C1116 C1117 1.386 . S
C1116 C1118 1.391 . S
C1117 C1116 1.386 . S
C1117 C1121 1.393 . S
C1118 H1110 0.950 . S
C1118 C1116 1.391 . S
C1118 C1119 1.400 . S
C1119 C1118 1.400 . S
C1119 C1120 1.398 . S
C1119 C1125 1.491 . S
C1120 H1111 0.950 . S
C1120 C1119 1.398 . S
C1120 C1121 1.391 . S
C1121 H1109 0.950 . S
C1121 C1117 1.393 . S
C1121 C1120 1.391 . S
C1122 H1112 0.950 . S
C1122 C1123 1.386 . S
C1122 C1124 1.391 . S
C1123 C1122 1.386 . S
C1123 C1127 1.393 . S
C1124 H1113 0.950 . S
C1124 C1122 1.391 . S
C1124 C1125 1.400 . S
C1125 C1119 1.491 . S
C1125 C1124 1.400 . S
C1125 C1126 1.398 . S
C1126 H1114 0.950 . S
C1126 C1125 1.398 . S
C1126 C1127 1.391 . S
C1127 H1115 0.950 . S
C1127 C1123 1.393 . S
C1127 C1126 1.391 . S
H1128 C1136 0.968 . S
H1129 C1141 0.950 . S
H1130 C1138 0.950 . S
H1131 C1140 0.950 . S
H1132 C1142 0.950 . S
H1133 C1144 0.950 . S
H1134 C1146 0.950 . S
H1135 C1147 0.950 . S
C1136 H1128 0.968 . S
C1136 C1137 1.382 1_556 S
C1136 C1138 1.377 1_556 S
C1137 C1136 1.382 1_554 S
C1137 C1141 1.393 . S
C1138 H1130 0.950 . S
C1138 C1136 1.377 1_554 S
C1138 C1139 1.400 . S
C1139 C1138 1.400 . S
C1139 C1140 1.398 . S
C1139 C1145 1.491 . S
C1140 H1131 0.950 . S
C1140 C1139 1.398 . S
C1140 C1141 1.391 . S
C1141 H1129 0.950 . S
C1141 C1137 1.393 . S
C1141 C1140 1.391 . S
C1142 H1132 0.950 . S
C1142 C1143 1.386 . S
C1142 C1144 1.391 . S
C1143 C1142 1.386 . S
C1143 C1147 1.393 . S
C1144 H1133 0.950 . S
C1144 C1142 1.391 . S
C1144 C1145 1.400 . S
C1145 C1139 1.491 . S
C1145 C1144 1.400 . S
C1145 C1146 1.398 . S
C1146 H1134 0.950 . S
C1146 C1145 1.398 . S
C1146 C1147 1.391 . S
C1147 H1135 0.950 . S
C1147 C1143 1.393 . S
C1147 C1146 1.391 . S
H1148 C1156 0.950 . S
H1149 C1161 0.950 . S
H1150 C1158 0.950 . S
H1151 C1160 0.950 . S
H1152 C1162 0.950 . S
H1153 C1164 0.950 . S
H1154 C1166 0.950 . S
H1155 C1167 0.950 . S
C1156 H1148 0.950 . S
C1156 C1157 1.386 . S
C1156 C1158 1.391 . S
C1157 C1156 1.386 . S
C1157 C1161 1.393 . S
C1158 H1150 0.950 . S
C1158 C1156 1.391 . S
C1158 C1159 1.400 . S
C1159 C1158 1.400 . S
C1159 C1160 1.398 . S
C1159 C1165 1.491 . S
C1160 H1151 0.950 . S
C1160 C1159 1.398 . S
C1160 C1161 1.391 . S
C1161 H1149 0.950 . S
C1161 C1157 1.393 . S
C1161 C1160 1.391 . S
C1162 H1152 0.950 . S
C1162 C1163 1.386 . S
C1162 C1164 1.391 . S
C1163 C1162 1.386 . S
C1163 C1167 1.393 . S
C1164 H1153 0.950 . S
C1164 C1162 1.391 . S
C1164 C1165 1.400 . S
C1165 C1159 1.491 . S
C1165 C1164 1.400 . S
C1165 C1166 1.398 . S
C1166 H1154 0.950 . S
C1166 C1165 1.398 . S
C1166 C1167 1.391 . S
C1167 H1155 0.950 . S
C1167 C1163 1.393 . S
C1167 C1166 1.391 . S
H1168 C1176 0.950 . S
H1169 C1181 0.950 . S
H1170 C1178 0.950 . S
H1171 C1180 0.950 . S
H1172 C1182 0.950 . S
H1173 C1184 0.950 . S
H1174 C1186 0.950 . S
H1175 C1187 0.950 . S
C1176 H1168 0.950 . S
C1176 C1177 1.386 . S
C1176 C1178 1.391 . S
C1177 C1176 1.386 . S
C1177 C1181 1.393 . S
C1178 H1170 0.950 . S
C1178 C1176 1.391 . S
C1178 C1179 1.400 . S
C1179 C1178 1.400 . S
C1179 C1180 1.398 . S
C1179 C1185 1.491 . S
C1180 H1171 0.950 . S
C1180 C1179 1.398 . S
C1180 C1181 1.391 . S
C1181 H1169 0.950 . S
C1181 C1177 1.393 . S
C1181 C1180 1.391 . S
C1182 H1172 0.950 . S
C1182 C1183 1.386 . S
C1182 C1184 1.391 . S
C1183 C1182 1.386 . S
C1183 C1187 1.393 . S
C1184 H1173 0.950 . S
C1184 C1182 1.391 . S
C1184 C1185 1.400 . S
C1185 C1179 1.491 . S
C1185 C1184 1.400 . S
C1185 C1186 1.398 . S
C1186 H1174 0.950 . S
C1186 C1185 1.398 . S
C1186 C1187 1.391 . S
C1187 H1175 0.950 . S
C1187 C1183 1.393 . S
C1187 C1186 1.391 . S
H1188 C1196 0.950 . S
H1189 C1201 0.950 . S
H1190 C1198 0.950 . S
H1191 C1200 0.950 . S
H1192 C1202 0.950 . S
H1193 C1204 0.950 . S
H1194 C1206 0.950 . S
H1195 C1207 0.950 . S
C1196 H1188 0.950 . S
C1196 C1197 1.386 . S
C1196 C1198 1.391 . S
C1197 C1196 1.386 . S
C1197 C1201 1.393 . S
C1198 H1190 0.950 . S
C1198 C1196 1.391 . S
C1198 C1199 1.400 . S
C1199 C1198 1.400 . S
C1199 C1200 1.398 . S
C1199 C1205 1.491 . S
C1200 H1191 0.950 . S
C1200 C1199 1.398 . S
C1200 C1201 1.391 . S
C1201 H1189 0.950 . S
C1201 C1197 1.393 . S
C1201 C1200 1.391 . S
C1202 H1192 0.950 . S
C1202 C1203 1.386 . S
C1202 C1204 1.391 . S
C1203 C1202 1.386 . S
C1203 C1207 1.393 . S
C1204 H1193 0.950 . S
C1204 C1202 1.391 . S
C1204 C1205 1.400 . S
C1205 C1199 1.491 . S
C1205 C1204 1.400 . S
C1205 C1206 1.398 . S
C1206 H1194 0.950 . S
C1206 C1205 1.398 . S
C1206 C1207 1.391 . S
C1207 H1195 0.950 . S
C1207 C1203 1.393 . S
C1207 C1206 1.391 . S
H1208 C1216 0.950 . S
H1209 C1221 0.950 . S
H1210 C1218 0.950 . S
H1211 C1220 0.950 . S
H1212 C1222 0.950 . S
H1213 C1224 0.950 . S
H1214 C1226 0.950 . S
H1215 C1227 0.950 . S
C1216 H1208 0.950 . S
C1216 C1217 1.386 . S
C1216 C1218 1.391 . S
C1217 C1216 1.386 . S
C1217 C1221 1.393 . S
C1218 H1210 0.950 . S
C1218 C1216 1.391 . S
C1218 C1219 1.400 . S
C1219 C1218 1.400 . S
C1219 C1220 1.398 . S
C1219 C1225 1.491 . S
C1220 H1211 0.950 . S
C1220 C1219 1.398 . S
C1220 C1221 1.391 . S
C1221 H1209 0.950 . S
C1221 C1217 1.393 . S
C1221 C1220 1.391 . S
C1222 H1212 0.950 . S
C1222 C1223 1.386 . S
C1222 C1224 1.391 . S
C1223 C1222 1.386 . S
C1223 C1227 1.393 . S
C1224 H1213 0.950 . S
C1224 C1222 1.391 . S
C1224 C1225 1.400 . S
C1225 C1219 1.491 . S
C1225 C1224 1.400 . S
C1225 C1226 1.398 . S
C1226 H1214 0.950 . S
C1226 C1225 1.398 . S
C1226 C1227 1.391 . S
C1227 H1215 0.950 . S
C1227 C1223 1.393 . S
C1227 C1226 1.391 . S
H1228 C1236 0.950 . S
H1229 C1241 0.950 . S
H1230 C1238 0.950 . S
H1231 C1240 0.950 1_554 S
H1232 C1242 0.950 . S
H1233 C1244 0.946 . S
H1234 C1246 0.950 . S
H1235 C1247 0.950 . S
C1236 H1228 0.950 . S
C1236 C1237 1.386 . S
C1236 C1238 1.391 . S
C1237 C1236 1.386 . S
C1237 C1241 1.393 . S
C1238 H1230 0.950 . S
C1238 C1236 1.391 . S
C1238 C1239 1.400 . S
C1239 C1238 1.400 . S
C1239 C1240 1.398 . S
C1239 C1245 1.491 . S
C1240 H1231 0.950 1_556 S
C1240 C1239 1.398 . S
C1240 C1241 1.391 . S
C1241 H1229 0.950 . S
C1241 C1237 1.393 . S
C1241 C1240 1.391 . S
C1242 H1232 0.950 . S
C1242 C1243 1.386 1_554 S
C1242 C1244 1.391 . S
C1243 C1242 1.386 1_556 S
C1243 C1247 1.393 . S
C1244 H1233 0.946 . S
C1244 C1242 1.391 . S
C1244 C1245 1.404 1_554 S
C1245 C1239 1.491 . S
C1245 C1244 1.404 1_556 S
C1245 C1246 1.398 . S
C1246 H1234 0.950 . S
C1246 C1245 1.398 . S
C1246 C1247 1.391 . S
C1247 H1235 0.950 . S
C1247 C1243 1.393 . S
C1247 C1246 1.391 . S
H1248 C1256 0.950 . S
H1249 C1261 0.950 . S
H1250 C1258 0.950 . S
H1251 C1260 0.950 . S
H1252 C1262 0.950 . S
H1253 C1264 0.950 . S
H1254 C1266 0.950 . S
H1255 C1267 0.950 . S
C1256 H1248 0.950 . S
C1256 C1257 1.386 . S
C1256 C1258 1.391 . S
C1257 C1256 1.386 . S
C1257 C1261 1.393 . S
C1258 H1250 0.950 . S
C1258 C1256 1.391 . S
C1258 C1259 1.400 . S
C1259 C1258 1.400 . S
C1259 C1260 1.398 . S
C1259 C1265 1.491 . S
C1260 H1251 0.950 . S
C1260 C1259 1.398 . S
C1260 C1261 1.391 . S
C1261 H1249 0.950 . S
C1261 C1257 1.393 . S
C1261 C1260 1.391 . S
C1262 H1252 0.950 . S
C1262 C1263 1.386 . S
C1262 C1264 1.391 . S
C1263 C1262 1.386 . S
C1263 C1267 1.393 . S
C1264 H1253 0.950 . S
C1264 C1262 1.391 . S
C1264 C1265 1.400 . S
C1265 C1259 1.491 . S
C1265 C1264 1.400 . S
C1265 C1266 1.398 . S
C1266 H1254 0.950 . S
C1266 C1265 1.398 . S
C1266 C1267 1.391 . S
C1267 H1255 0.950 . S
C1267 C1263 1.393 . S
C1267 C1266 1.391 . S
H1268 C1276 0.950 . S
H1269 C1281 0.950 . S
H1270 C1278 0.950 . S
H1271 C1280 0.950 . S
H1272 C1282 0.950 . S
H1273 C1284 0.950 . S
H1274 C1286 0.950 . S
H1275 C1287 0.950 1_556 S
C1276 H1268 0.950 . S
C1276 C1277 1.386 . S
C1276 C1278 1.391 . S
C1277 C1276 1.386 . S
C1277 C1281 1.393 . S
C1278 H1270 0.950 . S
C1278 C1276 1.391 . S
C1278 C1279 1.400 . S
C1279 C1278 1.400 . S
C1279 C1280 1.398 . S
C1279 C1285 1.491 . S
C1280 H1271 0.950 . S
C1280 C1279 1.398 . S
C1280 C1281 1.391 . S
C1281 H1269 0.950 . S
C1281 C1277 1.393 . S
C1281 C1280 1.391 . S
C1282 H1272 0.950 . S
C1282 C1283 1.386 . S
C1282 C1284 1.391 . S
C1283 C1282 1.386 . S
C1283 C1287 1.393 . S
C1284 H1273 0.950 . S
C1284 C1282 1.391 . S
C1284 C1285 1.400 . S
C1285 C1279 1.491 . S
C1285 C1284 1.400 . S
C1285 C1286 1.398 . S
C1286 H1274 0.950 . S
C1286 C1285 1.398 . S
C1286 C1287 1.391 . S
C1287 H1275 0.950 1_554 S
C1287 C1283 1.393 . S
C1287 C1286 1.391 . S
H1288 C1296 0.950 . S
H1289 C1301 0.950 . S
H1290 C1298 0.950 . S
H1291 C1300 0.950 . S
H1292 C1302 0.950 . S
H1293 C1304 0.950 . S
H1294 C1306 0.950 . S
H1295 C1307 0.950 . S
C1296 H1288 0.950 . S
C1296 C1297 1.386 1_565 S
C1296 C1298 1.391 . S
C1297 C1296 1.386 1_545 S
C1297 C1301 1.393 . S
C1298 H1290 0.950 . S
C1298 C1296 1.391 . S
C1298 C1299 1.400 . S
C1299 C1298 1.400 . S
C1299 C1300 1.398 1_565 S
C1299 C1305 1.491 . S
C1300 H1291 0.950 . S
C1300 C1299 1.398 1_545 S
C1300 C1301 1.391 . S
C1301 H1289 0.950 . S
C1301 C1297 1.393 . S
C1301 C1300 1.391 . S
C1302 H1292 0.950 . S
C1302 C1303 1.386 . S
C1302 C1304 1.391 . S
C1303 C1302 1.386 . S
C1303 C1307 1.393 . S
C1304 H1293 0.950 . S
C1304 C1302 1.391 . S
C1304 C1305 1.400 . S
C1305 C1299 1.491 . S
C1305 C1304 1.400 . S
C1305 C1306 1.398 . S
C1306 H1294 0.950 . S
C1306 C1305 1.398 . S
C1306 C1307 1.391 . S
C1307 H1295 0.950 . S
C1307 C1303 1.393 . S
C1307 C1306 1.391 . S
C363 C202 1.654 . S
C357 C66 1.675 . S
C383 C215 1.241 . S
C377 C76 1.246 . S
C397 C93 1.798 . S
C403 C228 1.771 . S
C423 C241 1.466 . S
C417 C54 1.493 1_545 S
C443 C249 1.489 . S
C437 C126 1.498 . S
C463 C262 1.725 . S
C457 C150 1.752 . S
C477 C136 1.200 . S
C483 C275 1.194 . S
C503 C288 1.756 . S
C497 C117 1.771 . S
C517 C141 1.230 . S
C523 C306 1.210 . S
C543 C317 1.344 . S
C537 C112 1.360 . S
C557 C124 1.497 . S
C563 C301 1.479 . S
C583 C309 1.279 . S
C577 C148 1.280 . S
C597 C88 1.299 . S
C603 C332 1.294 . S
C617 C52 1.587 . S
C623 C322 1.574 . S
C637 C64 1.276 . S
C643 C327 1.253 . S
C657 C78 1.269 . S
C663 C330 1.253 . S
C677 C45 1.673 . S
C683 C239 1.650 . S
C697 C177 1.790 . S
C703 C231 1.777 . S
C723 C200 1.444 . S
C717 C189 1.452 . S
C743 C205 1.594 . S
C737 C102 1.625 . S
C757 C57 1.748 . S
C763 C252 1.726 . S
C783 C291 1.463 . S
C777 C138 1.491 . S
C803 C244 1.760 . S
C797 C114 1.778 . S
C823 C270 1.651 . S
C817 C153 1.684 . S
C843 C280 1.651 . S
C837 C174 1.674 . S
C857 C184 1.241 . S
C863 C293 1.232 . S
C877 C105 1.797 . S
C883 C254 1.755 . S
C903 C267 1.474 . S
C897 C162 1.499 . S
C917 C42 1.498 . S
C923 C223 1.484 . S
C943 C236 1.732 . S
C937 C6 1.753 . S
C963 C197 1.171 . S
C957 C16 1.193 . S
C983 C210 1.743 . S
C977 C33 1.774 1_455 S
C997 C21 1.236 . S
C1003 C319 1.229 . S
C1017 C28 1.350 1_556 S
C1023 C304 1.334 1_655 S
C1037 C40 1.498 . S
C1043 C314 1.480 . S
C1057 C4 1.281 1_556 S
C1063 C296 1.272 . S
C1083 C345 1.293 . S
C1077 C100 1.300 . S
C1103 C335 1.560 . S
C1097 C160 1.586 1_554 S
C1123 C340 1.261 . S
C1117 C172 1.274 . S
C1137 C186 1.272 1_554 S
C1143 C343 1.248 . S
C1157 C129 1.667 . S
C1163 C265 1.662 . S
C1183 C257 1.766 . S
C1177 C69 1.790 . S
C1203 C278 1.444 . S
C1197 C81 1.456 . S
C1223 C283 1.595 . S
C1217 C90 1.625 . S
C1237 C165 1.740 . S
C1243 C226 1.729 . S
C1263 C213 1.442 . S
C1257 C18 1.491 . S
C1277 C30 1.777 . S
C1283 C218 1.768 . S
C1303 C192 1.651 . S
C1297 C9 1.687 . S
