# Generated by pormake.
# Topology ssb, (4,4)-cn, num edge types: 1
# Building blocks:
#     Node 0, Type 0, BuildingBlock: MUDLON_clean_linker_0, # of connection points: 4
#     Node 1, Type 0, BuildingBlock: MUDLON_clean_linker_0, # of connection points: 4
#     Node 2, Type 0, BuildingBlock: MUDLON_clean_linker_0, # of connection points: 4
#     Node 3, Type 0, BuildingBlock: MUDLON_clean_linker_0, # of connection points: 4
#     Node 4, Type 0, BuildingBlock: MUDLON_clean_linker_0, # of connection points: 4
#     Node 5, Type 0, BuildingBlock: MUDLON_clean_linker_0, # of connection points: 4
#     Node 6, Type 0, BuildingBlock: MUDLON_clean_linker_0, # of connection points: 4
#     Node 7, Type 0, BuildingBlock: MUDLON_clean_linker_0, # of connection points: 4
#     Node 8, Type 1, BuildingBlock: NAWXER_clean_sbu_0, # of connection points: 4
#     Node 9, Type 1, BuildingBlock: NAWXER_clean_sbu_0, # of connection points: 4
#     Node 10, Type 1, BuildingBlock: NAWXER_clean_sbu_0, # of connection points: 4
#     Node 11, Type 1, BuildingBlock: NAWXER_clean_sbu_0, # of connection points: 4
#     Node 12, Type 1, BuildingBlock: NAWXER_clean_sbu_0, # of connection points: 4
#     Node 13, Type 1, BuildingBlock: NAWXER_clean_sbu_0, # of connection points: 4
#     Node 14, Type 1, BuildingBlock: NAWXER_clean_sbu_0, # of connection points: 4
#     Node 15, Type 1, BuildingBlock: NAWXER_clean_sbu_0, # of connection points: 4
#     Edge 16, Type (0, 1), BuildingBlock: EZIPEK_clean_linker_0, # of connection points: 2
#     Edge 17, Type (0, 1), BuildingBlock: EZIPEK_clean_linker_0, # of connection points: 2
#     Edge 18, Type (0, 1), BuildingBlock: EZIPEK_clean_linker_0, # of connection points: 2
#     Edge 19, Type (0, 1), BuildingBlock: EZIPEK_clean_linker_0, # of connection points: 2
#     Edge 20, Type (0, 1), BuildingBlock: EZIPEK_clean_linker_0, # of connection points: 2
#     Edge 21, Type (0, 1), BuildingBlock: EZIPEK_clean_linker_0, # of connection points: 2
#     Edge 22, Type (0, 1), BuildingBlock: EZIPEK_clean_linker_0, # of connection points: 2
#     Edge 23, Type (0, 1), BuildingBlock: EZIPEK_clean_linker_0, # of connection points: 2
#     Edge 24, Type (0, 1), BuildingBlock: EZIPEK_clean_linker_0, # of connection points: 2
#     Edge 25, Type (0, 1), BuildingBlock: EZIPEK_clean_linker_0, # of connection points: 2
#     Edge 26, Type (0, 1), BuildingBlock: EZIPEK_clean_linker_0, # of connection points: 2
#     Edge 27, Type (0, 1), BuildingBlock: EZIPEK_clean_linker_0, # of connection points: 2
#     Edge 28, Type (0, 1), BuildingBlock: EZIPEK_clean_linker_0, # of connection points: 2
#     Edge 29, Type (0, 1), BuildingBlock: EZIPEK_clean_linker_0, # of connection points: 2
#     Edge 30, Type (0, 1), BuildingBlock: EZIPEK_clean_linker_0, # of connection points: 2
#     Edge 31, Type (0, 1), BuildingBlock: EZIPEK_clean_linker_0, # of connection points: 2
#     Edge 32, Type (0, 1), BuildingBlock: EZIPEK_clean_linker_0, # of connection points: 2
#     Edge 33, Type (0, 1), BuildingBlock: EZIPEK_clean_linker_0, # of connection points: 2
#     Edge 34, Type (0, 1), BuildingBlock: EZIPEK_clean_linker_0, # of connection points: 2
#     Edge 35, Type (0, 1), BuildingBlock: EZIPEK_clean_linker_0, # of connection points: 2
#     Edge 36, Type (0, 1), BuildingBlock: EZIPEK_clean_linker_0, # of connection points: 2
#     Edge 37, Type (0, 1), BuildingBlock: EZIPEK_clean_linker_0, # of connection points: 2
#     Edge 38, Type (0, 1), BuildingBlock: EZIPEK_clean_linker_0, # of connection points: 2
#     Edge 39, Type (0, 1), BuildingBlock: EZIPEK_clean_linker_0, # of connection points: 2
#     Edge 40, Type (0, 1), BuildingBlock: EZIPEK_clean_linker_0, # of connection points: 2
#     Edge 41, Type (0, 1), BuildingBlock: EZIPEK_clean_linker_0, # of connection points: 2
#     Edge 42, Type (0, 1), BuildingBlock: EZIPEK_clean_linker_0, # of connection points: 2
#     Edge 43, Type (0, 1), BuildingBlock: EZIPEK_clean_linker_0, # of connection points: 2
#     Edge 44, Type (0, 1), BuildingBlock: EZIPEK_clean_linker_0, # of connection points: 2
#     Edge 45, Type (0, 1), BuildingBlock: EZIPEK_clean_linker_0, # of connection points: 2
#     Edge 46, Type (0, 1), BuildingBlock: EZIPEK_clean_linker_0, # of connection points: 2
#     Edge 47, Type (0, 1), BuildingBlock: EZIPEK_clean_linker_0, # of connection points: 2
# Relax obj value: 0.004
# Max RMSD: 0.056
# Mean RMSD: 0.030
data_MOF--net-ssb--node1-NAWXER_clean_sbu_0--node2-MUDLON_clean_linker_0--edge1-EZIPEK_clean_linker_0
_symmetry_space_group_name_H-M    P1
_symmetry_Int_Tables_number       1
_symmetry_cell_setting            triclinic
loop_
_symmetry_equiv_pos_as_xyz
'x, y, z'
_cell_length_a     48.407019
_cell_length_b     48.351987
_cell_length_c     42.266211
_cell_angle_alpha  90.060941
_cell_angle_beta   90.00989
_cell_angle_gamma 89.940386
loop_
_atom_site_label
_atom_site_type_symbol
_atom_site_fract_x
_atom_site_fract_y
_atom_site_fract_z
_atom_type_partial_charge
H0 H 0.30802 0.32653 0.10518 0.0
N1 N 0.3163 0.31274 0.16493 0.0
H2 H 0.30337 0.37303 0.08314 0.0
H3 H 0.31273 0.36082 0.19921 0.0
H4 H 0.30642 0.40769 0.17722 0.0
H5 H 0.36015 0.33479 0.19684 0.0
H6 H 0.40814 0.33435 0.17741 0.0
H7 H 0.33704 0.27756 0.12329 0.0
H8 H 0.38476 0.27709 0.10389 0.0
H9 H 0.26221 0.31866 0.17561 0.0
H10 H 0.33622 0.28357 0.21655 0.0
H11 H 0.23479 0.29793 0.2173 0.0
H12 H 0.30851 0.26159 0.25726 0.0
H13 H 0.14692 0.20545 0.33403 0.0
H14 H 0.11422 0.22817 0.37017 0.0
H15 H 0.17656 0.2879 0.39524 0.0
H16 H 0.2093 0.26511 0.35966 0.0
H17 H 0.22086 0.21679 0.38667 0.0
H18 H 0.23572 0.1761 0.41634 0.0
H19 H 0.22383 0.12526 0.33354 0.0
H20 H 0.20727 0.16597 0.30416 0.0
H21 H 0.19059 0.22737 0.26576 0.0
H22 H 0.21985 0.2526 0.22874 0.0
H23 H 0.27948 0.26651 0.3033 0.0
N24 N 0.20001 0.21705 0.32618 0.0
H25 H 0.25037 0.24013 0.33982 0.0
C26 C 0.31032 0.34024 0.15369 0.0
C27 C 0.30753 0.34413 0.12105 0.0
C28 C 0.3051 0.37059 0.10855 0.0
C29 C 0.30482 0.39377 0.12855 0.0
C30 C 0.30692 0.39004 0.16143 0.0
C31 C 0.31016 0.3634 0.17394 0.0
C32 C 0.34514 0.30623 0.16126 0.0
C33 C 0.36567 0.32132 0.17737 0.0
C34 C 0.3929 0.32118 0.16624 0.0
C35 C 0.39966 0.30599 0.13901 0.0
C36 C 0.37975 0.28899 0.12486 0.0
C37 C 0.35269 0.28905 0.13604 0.0
C38 C 0.30154 0.30345 0.19281 0.0
C39 C 0.27272 0.30697 0.19385 0.0
C40 C 0.25693 0.29467 0.21751 0.0
C41 C 0.26936 0.27772 0.24043 0.0
C42 C 0.29827 0.27473 0.24016 0.0
C43 C 0.3142 0.28739 0.21662 0.0
C44 C 0.18049 0.23345 0.34399 0.0
C45 C 0.15332 0.22379 0.34681 0.0
C46 C 0.13475 0.23671 0.36732 0.0
C47 C 0.14311 0.2596 0.38529 0.0
C48 C 0.16981 0.2703 0.38138 0.0
C49 C 0.18846 0.25724 0.361 0.0
C50 C 0.21225 0.19428 0.34325 0.0
C51 C 0.22127 0.19699 0.37478 0.0
C52 C 0.22986 0.17375 0.39175 0.0
C53 C 0.23036 0.14759 0.37731 0.0
C54 C 0.22314 0.1452 0.34524 0.0
C55 C 0.21385 0.16834 0.3285 0.0
C56 C 0.21819 0.232 0.30539 0.0
C57 C 0.21 0.23587 0.274 0.0
C58 C 0.22667 0.25053 0.25302 0.0
C59 C 0.25191 0.26197 0.26312 0.0
C60 C 0.26026 0.25788 0.29468 0.0
C61 C 0.24359 0.24294 0.31564 0.0
H62 H 0.70729 0.34159 0.1687 0.0
N63 N 0.74676 0.30365 0.15161 0.0
H64 H 0.70518 0.39009 0.1517 0.0
H65 H 0.785 0.33175 0.12011 0.0
H66 H 0.78247 0.38011 0.10234 0.0
H67 H 0.73685 0.29296 0.09107 0.0
H68 H 0.69297 0.27839 0.06735 0.0
H69 H 0.70129 0.28356 0.18413 0.0
H70 H 0.65819 0.26784 0.16043 0.0
H71 H 0.72943 0.31942 0.21089 0.0
H72 H 0.78782 0.26813 0.16102 0.0
H73 H 0.7469 0.30253 0.26112 0.0
H74 H 0.80661 0.25195 0.21149 0.0
H75 H 0.82434 0.25969 0.41617 0.0
H76 H 0.86984 0.26132 0.44179 0.0
H77 H 0.90554 0.21842 0.36215 0.0
H78 H 0.86006 0.21764 0.33607 0.0
H79 H 0.8296 0.18133 0.3532 0.0
H80 H 0.81138 0.13984 0.37865 0.0
H81 H 0.74496 0.18781 0.41891 0.0
H82 H 0.7638 0.2298 0.39411 0.0
H83 H 0.79715 0.28584 0.34822 0.0
H84 H 0.78376 0.30419 0.29663 0.0
H85 H 0.79703 0.22346 0.25506 0.0
N86 N 0.81117 0.2344 0.36262 0.0
H87 H 0.81192 0.20592 0.30635 0.0
C88 C 0.7466 0.3331 0.14594 0.0
C89 C 0.72426 0.35002 0.15515 0.0
C90 C 0.72292 0.37762 0.14528 0.0
C91 C 0.74362 0.38853 0.1257 0.0
C92 C 0.76634 0.372 0.11746 0.0
C93 C 0.76783 0.34454 0.12764 0.0
C94 C 0.72262 0.28963 0.13933 0.0
C95 C 0.71998 0.28691 0.10639 0.0
C96 C 0.69501 0.27855 0.09288 0.0
C97 C 0.67232 0.27222 0.11216 0.0
C98 C 0.67551 0.27267 0.14518 0.0
C99 C 0.70027 0.28175 0.15871 0.0
C100 C 0.75724 0.29489 0.182 0.0
C101 C 0.74628 0.30476 0.21068 0.0
C102 C 0.75652 0.29515 0.23958 0.0
C103 C 0.77831 0.27583 0.2406 0.0
C104 C 0.78954 0.26642 0.21179 0.0
C105 C 0.77899 0.27578 0.18289 0.0
C106 C 0.83881 0.2385 0.37441 0.0
C107 C 0.84211 0.25126 0.40393 0.0
C108 C 0.86797 0.25208 0.41852 0.0
C109 C 0.89098 0.23986 0.40391 0.0
C110 C 0.88801 0.22797 0.37375 0.0
C111 C 0.86211 0.2275 0.35894 0.0
C112 C 0.79828 0.20888 0.37227 0.0
C113 C 0.81093 0.18304 0.36707 0.0
C114 C 0.80045 0.15926 0.38144 0.0
C115 C 0.777 0.16087 0.40084 0.0
C116 C 0.76311 0.18623 0.40403 0.0
C117 C 0.77382 0.21009 0.38997 0.0
C118 C 0.80515 0.24453 0.33131 0.0
C119 C 0.79743 0.27226 0.32782 0.0
C120 C 0.7895 0.2826 0.29833 0.0
C121 C 0.78881 0.26526 0.27156 0.0
C122 C 0.79745 0.23756 0.27496 0.0
C123 C 0.80577 0.22735 0.30447 0.0
H124 H 0.83158 0.80502 0.44453 0.0
N125 N 0.80572 0.80044 0.38906 0.0
H126 H 0.87712 0.78725 0.45921 0.0
H127 H 0.84054 0.76795 0.35187 0.0
H128 H 0.88514 0.74911 0.36744 0.0
H129 H 0.83841 0.8405 0.36303 0.0
H130 H 0.83954 0.88949 0.37922 0.0
H131 H 0.76931 0.82657 0.42522 0.0
H132 H 0.77043 0.87535 0.44144 0.0
H133 H 0.76498 0.76415 0.39375 0.0
H134 H 0.81246 0.81026 0.32582 0.0
H135 H 0.74119 0.74003 0.35092 0.0
H136 H 0.79001 0.78522 0.28259 0.0
H137 H 0.70637 0.64107 0.19681 0.0
H138 H 0.73448 0.61142 0.16251 0.0
H139 H 0.79793 0.67396 0.15989 0.0
H140 H 0.76898 0.70437 0.19273 0.0
H141 H 0.72106 0.72374 0.1609 0.0
H142 H 0.68299 0.73656 0.12534 0.0
H143 H 0.62494 0.69746 0.1884 0.0
H144 H 0.66303 0.68515 0.22429 0.0
H145 H 0.72988 0.67724 0.27272 0.0
H146 H 0.75056 0.7051 0.31457 0.0
H147 H 0.75016 0.77617 0.25248 0.0
N148 N 0.71673 0.69256 0.21456 0.0
H149 H 0.73104 0.74765 0.2103 0.0
C150 C 0.8324 0.78855 0.39693 0.0
C151 C 0.84317 0.79308 0.42737 0.0
C152 C 0.8691 0.78285 0.4358 0.0
C153 C 0.88462 0.76717 0.41424 0.0
C154 C 0.8736 0.76151 0.38423 0.0
C155 C 0.84794 0.77243 0.37541 0.0
C156 C 0.80366 0.83 0.39299 0.0
C157 C 0.82296 0.84819 0.37934 0.0
C158 C 0.82367 0.87603 0.38863 0.0
C159 C 0.80507 0.8859 0.41153 0.0
C160 C 0.78484 0.86809 0.42365 0.0
C161 C 0.78414 0.84038 0.41438 0.0
C162 C 0.79053 0.78873 0.36298 0.0
C163 C 0.77015 0.76907 0.36947 0.0
C164 C 0.75685 0.7551 0.3449 0.0
C165 C 0.76401 0.76018 0.31314 0.0
C166 C 0.78375 0.78083 0.30665 0.0
C167 C 0.79671 0.79517 0.33134 0.0
C168 C 0.7355 0.6748 0.19746 0.0
C169 C 0.72643 0.64829 0.18905 0.0
C170 C 0.74243 0.63145 0.16952 0.0
C171 C 0.76815 0.64061 0.15842 0.0
C172 C 0.77802 0.66663 0.16804 0.0
C173 C 0.76156 0.6839 0.18689 0.0
C174 C 0.69472 0.70373 0.19544 0.0
C175 C 0.70009 0.71858 0.16749 0.0
C176 C 0.67845 0.72571 0.14714 0.0
C177 C 0.65124 0.71781 0.15424 0.0
C178 C 0.6458 0.70374 0.18258 0.0
C179 C 0.66741 0.69685 0.20304 0.0
C180 C 0.72851 0.71026 0.23855 0.0
C181 C 0.73426 0.69885 0.26824 0.0
C182 C 0.74586 0.71496 0.29222 0.0
C183 C 0.75173 0.74314 0.28722 0.0
C184 C 0.74613 0.75456 0.25724 0.0
C185 C 0.73487 0.73825 0.23306 0.0
H186 H 0.31365 0.75535 0.08807 0.0
N187 N 0.29595 0.74876 0.14717 0.0
H188 H 0.36077 0.76503 0.06996 0.0
H189 H 0.34153 0.76068 0.18506 0.0
H190 H 0.3879 0.77165 0.1668 0.0
H191 H 0.32424 0.70054 0.15731 0.0
H192 H 0.31348 0.65525 0.13379 0.0
H193 H 0.2509 0.73489 0.11484 0.0
H194 H 0.24004 0.68956 0.09145 0.0
H195 H 0.26315 0.7916 0.15919 0.0
H196 H 0.30661 0.72481 0.20455 0.0
H197 H 0.24648 0.80775 0.21057 0.0
H198 H 0.29172 0.74158 0.25615 0.0
H199 H 0.22357 0.87056 0.35475 0.0
H200 H 0.24344 0.91075 0.38142 0.0
H201 H 0.30753 0.85925 0.42081 0.0
H202 H 0.28706 0.81857 0.39467 0.0
H203 H 0.22426 0.79246 0.41582 0.0
H204 H 0.17771 0.79131 0.43897 0.0
H205 H 0.14576 0.83463 0.35765 0.0
H206 H 0.19234 0.8352 0.33418 0.0
H207 H 0.24654 0.84762 0.30825 0.0
H208 H 0.25946 0.83036 0.25633 0.0
H209 H 0.25604 0.74651 0.29181 0.0
N210 N 0.2398 0.81661 0.3624 0.0
H211 H 0.24511 0.76431 0.34438 0.0
C212 C 0.32362 0.75697 0.13788 0.0
C213 C 0.3297 0.75896 0.10545 0.0
C214 C 0.35653 0.76452 0.09512 0.0
C215 C 0.37786 0.7689 0.11705 0.0
C216 C 0.37175 0.76817 0.14951 0.0
C217 C 0.34503 0.76185 0.15989 0.0
C218 C 0.28832 0.72111 0.13767 0.0
C219 C 0.30551 0.69817 0.14358 0.0
C220 C 0.29941 0.67239 0.13016 0.0
C221 C 0.27601 0.66916 0.11087 0.0
C222 C 0.25814 0.69168 0.10633 0.0
C223 C 0.26429 0.71743 0.11963 0.0
C224 C 0.2862 0.75721 0.178 0.0
C225 C 0.2692 0.78055 0.18036 0.0
C226 C 0.25993 0.78986 0.20985 0.0
C227 C 0.26784 0.7762 0.23787 0.0
C228 C 0.28469 0.75248 0.23529 0.0
C229 C 0.29346 0.74289 0.20571 0.0
C230 C 0.25362 0.84135 0.37316 0.0
C231 C 0.24204 0.8678 0.36875 0.0
C232 C 0.25346 0.89082 0.38384 0.0
C233 C 0.27675 0.88786 0.4033 0.0
C234 C 0.28949 0.86187 0.40594 0.0
C235 C 0.27787 0.83876 0.39109 0.0
C236 C 0.21174 0.81382 0.37339 0.0
C237 C 0.20712 0.80125 0.40277 0.0
C238 C 0.18068 0.80071 0.41596 0.0
C239 C 0.15837 0.81293 0.40003 0.0
C240 C 0.16275 0.82505 0.37024 0.0
C241 C 0.18925 0.82535 0.35689 0.0
C242 C 0.24538 0.80722 0.33057 0.0
C243 C 0.24873 0.82555 0.30504 0.0
C244 C 0.25585 0.81552 0.27502 0.0
C245 C 0.25911 0.78691 0.26959 0.0
C246 C 0.25455 0.76867 0.29501 0.0
C247 C 0.24799 0.77876 0.3251 0.0
H248 H 0.18071 0.87923 0.69427 0.0
N249 N 0.20837 0.83181 0.69403 0.0
H250 H 0.18987 0.92042 0.66177 0.0
H251 H 0.25402 0.84039 0.65689 0.0
H252 H 0.26303 0.88139 0.62441 0.0
H253 H 0.21368 0.81376 0.6327 0.0
H254 H 0.17694 0.79275 0.60111 0.0
H255 H 0.16216 0.80909 0.71577 0.0
H256 H 0.12593 0.78635 0.68444 0.0
H257 H 0.21299 0.83981 0.75557 0.0
H258 H 0.24799 0.79384 0.67802 0.0
H259 H 0.24425 0.81682 0.79233 0.0
H260 H 0.28045 0.77135 0.71444 0.0
H261 H 0.33537 0.75799 0.90972 0.0
H262 H 0.38095 0.75904 0.93499 0.0
H263 H 0.41771 0.72646 0.84976 0.0
H264 H 0.37206 0.72678 0.82396 0.0
H265 H 0.34313 0.68797 0.82685 0.0
H266 H 0.33993 0.6414 0.84932 0.0
H267 H 0.2834 0.6716 0.92025 0.0
H268 H 0.28731 0.71846 0.8983 0.0
H269 H 0.31436 0.78895 0.8506 0.0
H270 H 0.29059 0.81402 0.80868 0.0
H271 H 0.28151 0.73781 0.75613 0.0
N272 N 0.32311 0.73496 0.8547 0.0
H273 H 0.3067 0.71322 0.79725 0.0
C274 C 0.21665 0.85684 0.67816 0.0
C275 C 0.19905 0.87986 0.67961 0.0
C276 C 0.20421 0.90321 0.66111 0.0
C277 C 0.22709 0.90379 0.64081 0.0
C278 C 0.24535 0.88124 0.64011 0.0
C279 C 0.24022 0.85791 0.65872 0.0
C280 C 0.19018 0.81389 0.67647 0.0
C281 C 0.19478 0.80764 0.64436 0.0
C282 C 0.17391 0.79539 0.62634 0.0
C283 C 0.14858 0.78844 0.64038 0.0
C284 C 0.14527 0.79179 0.67317 0.0
C285 C 0.16583 0.80475 0.69098 0.0
C286 C 0.2283 0.81867 0.71427 0.0
C287 C 0.22783 0.82502 0.74651 0.0
C288 C 0.24591 0.81198 0.76738 0.0
C289 C 0.26517 0.79237 0.75637 0.0
C290 C 0.26581 0.78619 0.72379 0.0
C291 C 0.24745 0.79918 0.70289 0.0
C292 C 0.35041 0.742 0.86529 0.0
C293 C 0.35343 0.75215 0.89612 0.0
C294 C 0.3793 0.75255 0.91051 0.0
C295 C 0.40253 0.74249 0.89432 0.0
C296 C 0.39995 0.73423 0.86259 0.0
C297 C 0.374 0.73434 0.84796 0.0
C298 C 0.3155 0.70674 0.86112 0.0
C299 C 0.32947 0.68451 0.84668 0.0
C300 C 0.32767 0.65794 0.85945 0.0
C301 C 0.31158 0.65323 0.88649 0.0
C302 C 0.29587 0.67492 0.89931 0.0
C303 C 0.29791 0.70151 0.88672 0.0
C304 C 0.31221 0.7492 0.82745 0.0
C305 C 0.30778 0.77777 0.8297 0.0
C306 C 0.29389 0.792 0.80583 0.0
C307 C 0.28355 0.77786 0.77927 0.0
C308 C 0.28924 0.74942 0.77617 0.0
C309 C 0.30358 0.73523 0.79994 0.0
H310 H 0.31185 0.29325 0.95073 0.0
N311 N 0.29419 0.3002 0.89158 0.0
H312 H 0.35927 0.28407 0.96877 0.0
H313 H 0.34014 0.29241 0.85391 0.0
H314 H 0.38687 0.2817 0.87182 0.0
H315 H 0.32609 0.34751 0.8935 0.0
H316 H 0.3102 0.39374 0.90825 0.0
H317 H 0.24212 0.31767 0.89828 0.0
H318 H 0.22608 0.36461 0.91068 0.0
H319 H 0.26433 0.25426 0.89271 0.0
H320 H 0.29941 0.31427 0.82933 0.0
H321 H 0.24536 0.22875 0.84791 0.0
H322 H 0.28228 0.28795 0.78386 0.0
H323 H 0.20579 0.13992 0.6929 0.0
H324 H 0.23191 0.11101 0.65572 0.0
H325 H 0.29429 0.17431 0.64869 0.0
H326 H 0.26743 0.20384 0.68495 0.0
H327 H 0.22152 0.22413 0.65694 0.0
H328 H 0.18389 0.23824 0.62141 0.0
H329 H 0.12472 0.19956 0.6834 0.0
H330 H 0.16244 0.18544 0.719 0.0
H331 H 0.23632 0.17309 0.76395 0.0
H332 H 0.25686 0.19948 0.80704 0.0
H333 H 0.2441 0.27493 0.75405 0.0
N334 N 0.2164 0.19165 0.70957 0.0
H335 H 0.22555 0.24813 0.71029 0.0
C336 C 0.32213 0.29328 0.90105 0.0
C337 C 0.32811 0.29066 0.93339 0.0
C338 C 0.35509 0.28536 0.94363 0.0
C339 C 0.3766 0.28211 0.92162 0.0
C340 C 0.37058 0.28407 0.88919 0.0
C341 C 0.34375 0.29012 0.87898 0.0
C342 C 0.28533 0.32868 0.89536 0.0
C343 C 0.30421 0.35081 0.89719 0.0
C344 C 0.29514 0.37735 0.9055 0.0
C345 C 0.26699 0.38255 0.91115 0.0
C346 C 0.24792 0.361 0.9069 0.0
C347 C 0.25707 0.33427 0.8997 0.0
C348 C 0.28348 0.28582 0.8643 0.0
C349 C 0.26819 0.26166 0.86894 0.0
C350 C 0.25762 0.24699 0.84318 0.0
C351 C 0.26255 0.2559 0.81195 0.0
C352 C 0.27776 0.28046 0.80741 0.0
C353 C 0.28785 0.29543 0.83335 0.0
C354 C 0.23462 0.1739 0.69171 0.0
C355 C 0.22531 0.14736 0.68375 0.0
C356 C 0.24016 0.13096 0.6626 0.0
C357 C 0.26483 0.14068 0.64932 0.0
C358 C 0.27522 0.16655 0.65871 0.0
C359 C 0.25996 0.18332 0.67939 0.0
C360 C 0.19466 0.20379 0.69074 0.0
C361 C 0.20043 0.21912 0.66321 0.0
C362 C 0.17904 0.22707 0.64291 0.0
C363 C 0.15163 0.21975 0.64977 0.0
C364 C 0.14577 0.20535 0.67777 0.0
C365 C 0.16716 0.19745 0.69808 0.0
C366 C 0.22898 0.2084 0.734 0.0
C367 C 0.23817 0.19531 0.76161 0.0
C368 C 0.24966 0.21057 0.78639 0.0
C369 C 0.25179 0.23957 0.78451 0.0
C370 C 0.24307 0.25267 0.75645 0.0
C371 C 0.23208 0.23727 0.73133 0.0
H372 H 0.82149 0.26354 0.58541 0.0
N373 N 0.8023 0.25538 0.64343 0.0
H374 H 0.86855 0.27663 0.57012 0.0
H375 H 0.84363 0.27203 0.68384 0.0
H376 H 0.89024 0.28664 0.66846 0.0
H377 H 0.83747 0.21602 0.66705 0.0
H378 H 0.83982 0.16755 0.64974 0.0
H379 H 0.76459 0.22812 0.61003 0.0
H380 H 0.76646 0.17938 0.5935 0.0
H381 H 0.77763 0.30417 0.64482 0.0
H382 H 0.79736 0.23419 0.70375 0.0
H383 H 0.75741 0.32785 0.69002 0.0
H384 H 0.77527 0.25671 0.74869 0.0
H385 H 0.72102 0.4115 0.8237 0.0
H386 H 0.74373 0.44385 0.86018 0.0
H387 H 0.78295 0.37531 0.90754 0.0
H388 H 0.75866 0.3431 0.87292 0.0
H389 H 0.71773 0.31426 0.86982 0.0
H390 H 0.67797 0.30301 0.90385 0.0
H391 H 0.63006 0.36669 0.85811 0.0
H392 H 0.66993 0.37815 0.82452 0.0
H393 H 0.70337 0.35784 0.76828 0.0
H394 H 0.7206 0.33067 0.72383 0.0
H395 H 0.77968 0.29121 0.78608 0.0
N396 N 0.72033 0.35682 0.82775 0.0
H397 H 0.76052 0.31658 0.8305 0.0
C398 C 0.82895 0.26689 0.63561 0.0
C399 C 0.83629 0.26892 0.60363 0.0
C400 C 0.86304 0.27638 0.59497 0.0
C401 C 0.88286 0.2824 0.61819 0.0
C402 C 0.8752 0.28196 0.65024 0.0
C403 C 0.84858 0.27373 0.65896 0.0
C404 C 0.80088 0.22574 0.63951 0.0
C405 C 0.82156 0.20807 0.65153 0.0
C406 C 0.82293 0.18047 0.64169 0.0
C407 C 0.80337 0.17005 0.6203 0.0
C408 C 0.78167 0.18711 0.6101 0.0
C409 C 0.78053 0.21478 0.61957 0.0
C410 C 0.78871 0.26736 0.6706 0.0
C411 C 0.77701 0.29369 0.66745 0.0
C412 C 0.76523 0.30709 0.69339 0.0
C413 C 0.76433 0.29422 0.72324 0.0
C414 C 0.77582 0.26754 0.7263 0.0
C415 C 0.7882 0.25438 0.70038 0.0
C416 C 0.73846 0.37494 0.84503 0.0
C417 C 0.73506 0.40354 0.84145 0.0
C418 C 0.74798 0.42192 0.86222 0.0
C419 C 0.76492 0.41193 0.88661 0.0
C420 C 0.77002 0.3834 0.88878 0.0
C421 C 0.75636 0.36498 0.86866 0.0
C422 C 0.69661 0.34708 0.84477 0.0
C423 C 0.69858 0.32552 0.86689 0.0
C424 C 0.67599 0.31914 0.88623 0.0
C425 C 0.65125 0.33414 0.88343 0.0
C426 C 0.64901 0.35493 0.8605 0.0
C427 C 0.67159 0.36137 0.84136 0.0
C428 C 0.73106 0.33992 0.80253 0.0
C429 C 0.71995 0.34317 0.77222 0.0
C430 C 0.73007 0.32775 0.74679 0.0
C431 C 0.75206 0.309 0.75097 0.0
C432 C 0.76268 0.30525 0.78173 0.0
C433 C 0.75201 0.32025 0.80731 0.0
H434 H 0.78047 0.82172 0.58457 0.0
N435 N 0.79124 0.80294 0.64222 0.0
H436 H 0.76892 0.86918 0.56918 0.0
H437 H 0.78074 0.8461 0.68276 0.0
H438 H 0.76735 0.89329 0.66748 0.0
H439 H 0.83477 0.83155 0.66726 0.0
H440 H 0.88233 0.83151 0.64662 0.0
H441 H 0.81268 0.76789 0.6005 0.0
H442 H 0.86016 0.76785 0.57983 0.0
H443 H 0.7387 0.78973 0.65076 0.0
H444 H 0.8177 0.78808 0.698 0.0
H445 H 0.71693 0.77012 0.69732 0.0
H446 H 0.79651 0.76636 0.74378 0.0
H447 H 0.64595 0.70625 0.84199 0.0
H448 H 0.6143 0.73017 0.8783 0.0
H449 H 0.67582 0.79294 0.89476 0.0
H450 H 0.70745 0.76906 0.85869 0.0
H451 H 0.72052 0.72386 0.89088 0.0
H452 H 0.73406 0.68606 0.92582 0.0
H453 H 0.72339 0.62791 0.84933 0.0
H454 H 0.70751 0.66568 0.81488 0.0
H455 H 0.68658 0.71154 0.77078 0.0
H456 H 0.71073 0.7304 0.72514 0.0
H457 H 0.76863 0.77099 0.78795 0.0
N458 N 0.69858 0.71819 0.83131 0.0
H459 H 0.74552 0.74964 0.83326 0.0
C460 C 0.78131 0.83031 0.63467 0.0
C461 C 0.7774 0.83719 0.60279 0.0
C462 C 0.77081 0.86418 0.59407 0.0
C463 C 0.76742 0.88476 0.61719 0.0
C464 C 0.77 0.8777 0.64931 0.0
C465 C 0.77751 0.85079 0.658 0.0
C466 C 0.82027 0.79947 0.63549 0.0
C467 C 0.84036 0.81706 0.6488 0.0
C468 C 0.86737 0.81716 0.63694 0.0
C469 C 0.87457 0.79978 0.61164 0.0
C470 C 0.85491 0.78137 0.59938 0.0
C471 C 0.82799 0.78122 0.61129 0.0
C472 C 0.7798 0.79043 0.67046 0.0
C473 C 0.75143 0.78477 0.67106 0.0
C474 C 0.73906 0.7732 0.69774 0.0
C475 C 0.75489 0.76613 0.7245 0.0
C476 C 0.78346 0.77176 0.72393 0.0
C477 C 0.79576 0.78403 0.69738 0.0
C478 C 0.67901 0.73574 0.8475 0.0
C479 C 0.65229 0.7256 0.85269 0.0
C480 C 0.63433 0.73918 0.87337 0.0
C481 C 0.64286 0.76319 0.88921 0.0
C482 C 0.66891 0.77447 0.88259 0.0
C483 C 0.68693 0.76082 0.86188 0.0
C484 C 0.71225 0.69751 0.85032 0.0
C485 C 0.72107 0.70309 0.88142 0.0
C486 C 0.72892 0.68148 0.90143 0.0
C487 C 0.72924 0.65406 0.89038 0.0
C488 C 0.72288 0.64884 0.85849 0.0
C489 C 0.71404 0.67035 0.83881 0.0
C490 C 0.7138 0.72976 0.80527 0.0
C491 C 0.70456 0.72445 0.77454 0.0
C492 C 0.71831 0.73556 0.74849 0.0
C493 C 0.74142 0.75292 0.75257 0.0
C494 C 0.75103 0.75772 0.78362 0.0
C495 C 0.73757 0.74593 0.8097 0.0
C496 C 0.98943 0.28647 0.55958 0.0
C497 C 0.0621 0.28185 0.48001 0.0
O498 O 0.00367 0.30654 0.54908 0.0
Zn499 Zn 0.02711 0.28499 0.52101 0.0
O500 O 0.99569 0.2617 0.55152 0.0
Zn501 Zn 0.02503 0.24109 0.52208 0.0
O502 O 0.04817 0.22096 0.55136 0.0
O503 O 0.056 0.26586 0.55287 0.0
O504 O 0.0541 0.25801 0.48947 0.0
O505 O 0.05161 0.30369 0.49174 0.0
O506 O 0.99714 0.26628 0.4894 0.0
O507 O 0.00077 0.22085 0.49432 0.0
C508 C 0.06171 0.24133 0.5623 0.0
C509 C 0.98923 0.24181 0.48181 0.0
C510 C 0.80449 0.06456 0.55619 0.0
C511 C 0.80458 0.9901 0.47806 0.0
O512 O 0.8252 0.05097 0.5461 0.0
Zn513 Zn 0.80509 0.02694 0.51743 0.0
O514 O 0.7801 0.05763 0.54757 0.0
Zn515 Zn 0.76116 0.02764 0.51698 0.0
O516 O 0.74076 0.00439 0.54629 0.0
O517 O 0.78576 0.99754 0.54793 0.0
O518 O 0.78005 0.9975 0.4859 0.0
O519 O 0.82535 0.00267 0.48957 0.0
O520 O 0.78679 0.0563 0.48573 0.0
O521 O 0.74136 0.0518 0.48811 0.0
C522 C 0.76134 0.99079 0.55667 0.0
C523 C 0.76259 0.06374 0.47688 0.0
C524 C 0.97955 0.80096 0.54556 0.0
C525 C 0.05623 0.8059 0.47016 0.0
O526 O 0.9903 0.82254 0.53359 0.0
Zn527 Zn 0.01825 0.80423 0.50806 0.0
O528 O 0.9901 0.77722 0.53953 0.0
Zn529 Zn 0.02364 0.76062 0.51204 0.0
O530 O 0.04821 0.74611 0.54455 0.0
O531 O 0.04816 0.79162 0.54208 0.0
O532 O 0.05182 0.7812 0.48006 0.0
O533 O 0.04078 0.82561 0.47934 0.0
O534 O 0.99298 0.77969 0.47744 0.0
O535 O 0.00329 0.73555 0.48463 0.0
C536 C 0.05765 0.76922 0.55402 0.0
C537 C 0.98876 0.7541 0.47123 0.0
C538 C 0.28922 0.06254 0.5525 0.0
C539 C 0.2924 0.9857 0.4773 0.0
O540 O 0.31078 0.05135 0.54101 0.0
Zn541 Zn 0.29207 0.02505 0.51306 0.0
O542 O 0.2654 0.05491 0.54283 0.0
Zn543 Zn 0.24829 0.02653 0.51006 0.0
O544 O 0.22507 0.00457 0.53691 0.0
O545 O 0.26983 0.9987 0.5457 0.0
O546 O 0.26791 0.99461 0.48272 0.0
O547 O 0.31315 0.9975 0.48991 0.0
O548 O 0.27657 0.05051 0.47529 0.0
O549 O 0.23139 0.05072 0.47966 0.0
C550 C 0.24457 0.99278 0.55191 0.0
C551 C 0.25303 0.0593 0.46581 0.0
C552 C 0.48636 0.77655 0.06021 0.0
C553 C 0.56366 0.78157 0.98592 0.0
O554 O 0.49989 0.79806 0.05257 0.0
Zn555 Zn 0.5268 0.78013 0.02504 0.0
O556 O 0.49477 0.7528 0.05079 0.0
Zn557 Zn 0.5274 0.73614 0.02254 0.0
O558 O 0.55032 0.71581 0.05173 0.0
O559 O 0.55518 0.76092 0.0572 0.0
O560 O 0.55669 0.75683 0.99313 0.0
O561 O 0.5516 0.80205 0.99889 0.0
O562 O 0.50061 0.76157 0.98948 0.0
O563 O 0.50661 0.71617 0.99118 0.0
C564 C 0.56205 0.73625 0.06499 0.0
C565 C 0.49484 0.73726 0.97922 0.0
C566 C 0.264 0.56712 0.0405 0.0
C567 C 0.25403 0.48838 0.96816 0.0
O568 O 0.28718 0.55598 0.03319 0.0
Zn569 Zn 0.30176 0.52187 0.00472 0.0
O570 O 0.24159 0.55714 0.02971 0.0
Zn571 Zn 0.2583 0.52793 0.00465 0.0
O572 O 0.27354 0.50028 0.04048 0.0
O573 O 0.31875 0.49728 0.03483 0.0
O574 O 0.23494 0.50386 0.97881 0.0
O575 O 0.27918 0.49331 0.97571 0.0
O576 O 0.32528 0.54087 0.97508 0.0
O577 O 0.28106 0.55186 0.97056 0.0
C578 C 0.2968 0.48991 0.04895 0.0
C579 C 0.3063 0.55512 0.9622 0.0
C580 C 0.56038 0.3155 0.97002 0.0
C581 C 0.49521 0.30961 0.05814 0.0
O582 O 0.54855 0.33542 0.98431 0.0
Zn583 Zn 0.52744 0.31354 0.01387 0.0
O584 O 0.55427 0.29048 0.97718 0.0
Zn585 Zn 0.52756 0.2695 0.00999 0.0
O586 O 0.50033 0.25176 0.9824 0.0
O587 O 0.49464 0.29691 0.98589 0.0
O588 O 0.5011 0.28597 0.04617 0.0
O589 O 0.50703 0.33124 0.04766 0.0
O590 O 0.55954 0.29338 0.03924 0.0
O591 O 0.55422 0.24829 0.03517 0.0
C592 C 0.48633 0.27334 0.97586 0.0
C593 C 0.56767 0.26889 0.04591 0.0
C594 C 0.7947 0.56308 0.06496 0.0
C595 C 0.78715 0.49423 0.98103 0.0
O596 O 0.81431 0.5512 0.05036 0.0
Zn597 Zn 0.79141 0.52895 0.02203 0.0
O598 O 0.76963 0.55767 0.05766 0.0
Zn599 Zn 0.74783 0.53222 0.02496 0.0
O600 O 0.72641 0.50834 0.05195 0.0
O601 O 0.77121 0.49934 0.05295 0.0
O602 O 0.76363 0.50294 0.99088 0.0
O603 O 0.80936 0.50398 0.99263 0.0
O604 O 0.77298 0.55842 0.98968 0.0
O605 O 0.72824 0.55864 0.99936 0.0
C606 C 0.74644 0.4936 0.06161 0.0
C607 C 0.74868 0.56778 0.98374 0.0
C608 C 0.10107 0.28622 0.40218 0.0
C609 C 0.12466 0.27036 0.41046 0.0
C610 C 0.11069 0.2714 0.46609 0.0
C611 C 0.08501 0.28298 0.45701 0.0
N612 N 0.05481 0.30101 0.41666 0.0
N613 N 0.15114 0.24566 0.44986 0.0
C614 C 0.08006 0.29075 0.42517 0.0
C615 C 0.1295 0.26267 0.44239 0.0
N616 N 0.09891 0.29696 0.37238 0.0
N617 N 0.11702 0.26888 0.49748 0.0
H618 H 0.1655 0.23868 0.4333 0.0
H619 H 0.1537 0.23667 0.47205 0.0
H620 H 0.10368 0.27548 0.51536 0.0
H621 H 0.13638 0.26288 0.50576 0.0
H622 H 0.08351 0.31078 0.36561 0.0
H623 H 0.11399 0.29384 0.35509 0.0
H624 H 0.04869 0.30386 0.39328 0.0
H625 H 0.03928 0.30529 0.43305 0.0
C626 C 0.77429 0.13757 0.45374 0.0
C627 C 0.76917 0.13674 0.42066 0.0
C628 C 0.75585 0.08786 0.4247 0.0
C629 C 0.76009 0.08921 0.45782 0.0
N630 N 0.76535 0.11691 0.50481 0.0
N631 N 0.74987 0.11316 0.37552 0.0
C632 C 0.76665 0.11465 0.47261 0.0
C633 C 0.75823 0.11248 0.40639 0.0
N634 N 0.78799 0.15946 0.46694 0.0
N635 N 0.75063 0.06293 0.41071 0.0
H636 H 0.75131 0.13093 0.36163 0.0
H637 H 0.73947 0.09696 0.36452 0.0
H638 H 0.74787 0.0448 0.42371 0.0
H639 H 0.7505 0.05993 0.38631 0.0
H640 H 0.79503 0.15954 0.49024 0.0
H641 H 0.79474 0.1765 0.454 0.0
H642 H 0.7676 0.13559 0.51685 0.0
H643 H 0.75899 0.10063 0.51922 0.0
C644 C 0.93665 0.76721 0.40903 0.0
C645 C 0.91238 0.75685 0.42372 0.0
C646 C 0.94028 0.73627 0.46595 0.0
C647 C 0.96439 0.74726 0.45158 0.0
N648 N 0.98647 0.76348 0.40446 0.0
N649 N 0.89201 0.72405 0.45968 0.0
C650 C 0.96279 0.75934 0.42124 0.0
C651 C 0.91457 0.73873 0.44999 0.0
N652 N 0.9349 0.78605 0.38504 0.0
N653 N 0.94148 0.72533 0.49571 0.0
H654 H 0.873 0.72525 0.44809 0.0
H655 H 0.89292 0.70874 0.47697 0.0
H656 H 0.95991 0.72245 0.50798 0.0
H657 H 0.92397 0.7205 0.50891 0.0
H658 H 0.95203 0.79636 0.37595 0.0
H659 H 0.91622 0.79319 0.37592 0.0
H660 H 0.98672 0.77051 0.38117 0.0
H661 H 0.00551 0.75655 0.41292 0.0
C662 C 0.29821 0.93502 0.40883 0.0
C663 C 0.28586 0.91155 0.4232 0.0
C664 C 0.28746 0.93476 0.47471 0.0
C665 C 0.29536 0.95957 0.45948 0.0
N666 N 0.30775 0.98429 0.41222 0.0
N667 N 0.26568 0.89004 0.46939 0.0
C668 C 0.30096 0.95993 0.4266 0.0
C669 C 0.28 0.91149 0.45615 0.0
N670 N 0.30743 0.93333 0.37834 0.0
N671 N 0.28708 0.93355 0.50702 0.0
H672 H 0.25929 0.8727 0.4567 0.0
H673 H 0.25803 0.89046 0.49241 0.0
H674 H 0.29263 0.95031 0.52122 0.0
H675 H 0.28396 0.91533 0.51965 0.0
H676 H 0.3188 0.94884 0.36733 0.0
H677 H 0.30572 0.91531 0.36487 0.0
H678 H 0.30892 0.98672 0.38779 0.0
H679 H 0.31086 0.00257 0.42487 0.0
C680 C 0.10178 0.80013 0.61881 0.0
C681 C 0.12442 0.78155 0.62013 0.0
C682 C 0.10378 0.75425 0.57733 0.0
C683 C 0.07969 0.77118 0.57855 0.0
N684 N 0.05338 0.80552 0.60749 0.0
N685 N 0.14421 0.73763 0.60543 0.0
C686 C 0.07793 0.79259 0.60155 0.0
C687 C 0.12449 0.75747 0.60097 0.0
N688 N 0.10346 0.82573 0.63248 0.0
N689 N 0.10805 0.73655 0.55258 0.0
H690 H 0.15956 0.73934 0.62266 0.0
H691 H 0.14365 0.71845 0.59418 0.0
H692 H 0.09449 0.73457 0.5336 0.0
H693 H 0.12657 0.72596 0.54916 0.0
H694 H 0.08848 0.84096 0.62922 0.0
H695 H 0.12105 0.83294 0.64407 0.0
H696 H 0.05063 0.81932 0.6262 0.0
H697 H 0.03509 0.80024 0.59611 0.0
C698 C 0.27293 0.13111 0.59183 0.0
C699 C 0.27819 0.12414 0.62386 0.0
C700 C 0.29944 0.0802 0.60732 0.0
C701 C 0.29057 0.08548 0.57586 0.0
N702 N 0.27025 0.11594 0.53721 0.0
N703 N 0.29821 0.09398 0.6628 0.0
C704 C 0.2782 0.11121 0.56779 0.0
C705 C 0.29243 0.09939 0.63173 0.0
N706 N 0.26245 0.15661 0.58448 0.0
N707 N 0.31382 0.05652 0.61386 0.0
H708 H 0.29462 0.10836 0.68077 0.0
H709 H 0.30597 0.07533 0.67118 0.0
H710 H 0.31839 0.04166 0.59678 0.0
H711 H 0.32262 0.052 0.63568 0.0
H712 H 0.26089 0.16429 0.56158 0.0
H713 H 0.25679 0.17119 0.60143 0.0
H714 H 0.25787 0.13236 0.53001 0.0
H715 H 0.27526 0.10259 0.51876 0.0
C716 C 0.91818 0.30978 0.58826 0.0
C717 C 0.91195 0.28727 0.60848 0.0
C718 C 0.96 0.27207 0.60506 0.0
C719 C 0.96454 0.29071 0.57967 0.0
N720 N 0.94566 0.32541 0.54419 0.0
N721 N 0.92644 0.24426 0.63265 0.0
C722 C 0.94323 0.30948 0.57074 0.0
C723 C 0.9328 0.26782 0.61635 0.0
N724 N 0.90003 0.3313 0.58563 0.0
N725 N 0.98173 0.25832 0.61837 0.0
H726 H 0.90658 0.23951 0.64039 0.0
H727 H 0.94043 0.22811 0.6358 0.0
H728 H 0.00202 0.26137 0.61102 0.0
H729 H 0.97989 0.24638 0.63878 0.0
H730 H 0.90464 0.34944 0.57344 0.0
H731 H 0.88159 0.33212 0.5984 0.0
H732 H 0.92931 0.33689 0.53498 0.0
H733 H 0.9629 0.32535 0.52953 0.0
C734 C 0.78243 0.9346 0.61317 0.0
C735 C 0.76247 0.91381 0.60706 0.0
C736 C 0.73888 0.94466 0.56987 0.0
C737 C 0.75807 0.96603 0.57728 0.0
N738 N 0.79196 0.98358 0.61406 0.0
N739 N 0.71718 0.90225 0.58748 0.0
C740 C 0.77774 0.96172 0.60172 0.0
C741 C 0.73909 0.92001 0.58815 0.0
N742 N 0.80675 0.92826 0.62792 0.0
N743 N 0.72203 0.94653 0.54401 0.0
H744 H 0.71663 0.88418 0.60096 0.0
H745 H 0.69858 0.90696 0.57626 0.0
H746 H 0.72183 0.96326 0.52859 0.0
H747 H 0.71007 0.93004 0.53599 0.0
H748 H 0.82306 0.94224 0.62976 0.0
H749 H 0.81187 0.90842 0.63551 0.0
H750 H 0.80482 0.98186 0.63374 0.0
H751 H 0.78836 0.00385 0.60684 0.0
C752 C 0.925 0.78739 0.60905 0.0
C753 C 0.90214 0.80194 0.59637 0.0
C754 C 0.92959 0.81504 0.55002 0.0
C755 C 0.95327 0.80246 0.56382 0.0
N756 N 0.97442 0.77961 0.6085 0.0
N757 N 0.88378 0.83401 0.5581 0.0
C758 C 0.95122 0.78946 0.59395 0.0
C759 C 0.90485 0.81722 0.56793 0.0
N760 N 0.92143 0.77082 0.63492 0.0
N761 N 0.92998 0.82309 0.51899 0.0
H762 H 0.86516 0.83585 0.57035 0.0
H763 H 0.88572 0.84793 0.53944 0.0
H764 H 0.94711 0.8207 0.50432 0.0
H765 H 0.9124 0.82943 0.50678 0.0
H766 H 0.93634 0.75702 0.64307 0.0
H767 H 0.90272 0.76938 0.64706 0.0
H768 H 0.97488 0.77294 0.6319 0.0
H769 H 0.99381 0.77997 0.59796 0.0
C770 C 0.22117 0.92428 0.58686 0.0
C771 C 0.23074 0.92711 0.61843 0.0
C772 C 0.24586 0.97452 0.60733 0.0
C773 C 0.23855 0.97073 0.5751 0.0
N774 N 0.22358 0.94066 0.53281 0.0
N775 N 0.25486 0.95325 0.65834 0.0
C776 C 0.22723 0.94529 0.56447 0.0
C777 C 0.2438 0.95182 0.62861 0.0
N778 N 0.2058 0.90172 0.57843 0.0
N779 N 0.254 1.00005 0.61771 0.0
H780 H 0.25324 0.93719 0.6747 0.0
H781 H 0.26729 0.96944 0.6661 0.0
H782 H 0.25565 0.01713 0.60276 0.0
H783 H 0.25698 0.00498 0.64144 0.0
H784 H 0.1956 0.89998 0.55683 0.0
H785 H 0.20133 0.88559 0.59397 0.0
H786 H 0.2186 0.9214 0.52336 0.0
H787 H 0.22786 0.95541 0.51552 0.0
C788 C 0.10999 0.24748 0.63368 0.0
C789 C 0.12912 0.22607 0.62694 0.0
C790 C 0.1065 0.21787 0.57589 0.0
C791 C 0.08521 0.2367 0.5844 0.0
N792 N 0.06511 0.26754 0.62314 0.0
N793 N 0.14338 0.1879 0.59389 0.0
C794 C 0.08659 0.25114 0.61372 0.0
C795 C 0.12677 0.21042 0.59866 0.0
N796 N 0.11459 0.26481 0.65872 0.0
N797 N 0.10829 0.2082 0.54554 0.0
H798 H 0.15856 0.18175 0.60993 0.0
H799 H 0.14048 0.17395 0.57539 0.0
H800 H 0.09463 0.21408 0.52768 0.0
H801 H 0.12503 0.19677 0.5372 0.0
H802 H 0.10314 0.2827 0.66282 0.0
H803 H 0.13143 0.26265 0.67392 0.0
H804 H 0.0634 0.27582 0.64581 0.0
H805 H 0.04782 0.27125 0.60916 0.0
C806 C 0.81887 0.14018 0.57513 0.0
C807 C 0.80703 0.14225 0.6058 0.0
C808 C 0.79636 0.09267 0.60541 0.0
C809 C 0.80808 0.09048 0.57466 0.0
N810 N 0.83249 0.11123 0.53081 0.0
N811 N 0.78872 0.12058 0.6525 0.0
C812 C 0.82022 0.11394 0.55984 0.0
C813 C 0.79716 0.11846 0.62171 0.0
N814 N 0.82795 0.16364 0.56028 0.0
N815 N 0.7837 0.07021 0.6186 0.0
H816 H 0.78818 0.13931 0.66474 0.0
H817 H 0.78403 0.1037 0.66676 0.0
H818 H 0.78399 0.05073 0.60811 0.0
H819 H 0.77176 0.07097 0.63904 0.0
H820 H 0.83368 0.16463 0.53661 0.0
H821 H 0.82887 0.18288 0.5714 0.0
H822 H 0.84442 0.12647 0.52015 0.0
H823 H 0.83182 0.09318 0.51738 0.0
C824 C 0.91876 0.22116 0.44914 0.0
C825 C 0.91752 0.23787 0.42159 0.0
C826 C 0.9657 0.25172 0.43007 0.0
C827 C 0.96537 0.23848 0.46005 0.0
N828 N 0.9394 0.21467 0.50064 0.0
N829 N 0.93875 0.27167 0.38744 0.0
C830 C 0.94141 0.22406 0.47022 0.0
C831 C 0.94078 0.25376 0.41233 0.0
N832 N 0.89845 0.20222 0.45496 0.0
N833 N 0.98999 0.26172 0.41823 0.0
H834 H 0.92086 0.27377 0.3739 0.0
H835 H 0.95402 0.28601 0.38181 0.0
H836 H 0.00872 0.25988 0.43025 0.0
H837 H 0.99207 0.26928 0.39529 0.0
H838 H 0.8997 0.18762 0.47301 0.0
H839 H 0.88169 0.19922 0.43981 0.0
H840 H 0.92117 0.20682 0.51015 0.0
H841 H 0.95496 0.21717 0.51744 0.0
C842 C 0.82263 0.91606 0.45515 0.0
C843 C 0.80851 0.91379 0.42587 0.0
C844 C 0.79739 0.96332 0.42777 0.0
C845 C 0.8083 0.96463 0.45892 0.0
N846 N 0.82759 0.94114 0.50434 0.0
N847 N 0.78104 0.93435 0.38463 0.0
C848 C 0.82025 0.94081 0.47308 0.0
C849 C 0.79565 0.93725 0.4121 0.0
N850 N 0.83841 0.89451 0.46581 0.0
N851 N 0.78917 0.98712 0.41306 0.0
H852 H 0.78013 0.91575 0.37213 0.0
H853 H 0.76855 0.9498 0.37517 0.0
H854 H 0.79039 0.00648 0.42391 0.0
H855 H 0.78337 0.98809 0.38938 0.0
H856 H 0.85156 0.896 0.48524 0.0
H857 H 0.84033 0.87586 0.45357 0.0
H858 H 0.83315 0.92346 0.51688 0.0
H859 H 0.82585 0.95857 0.51873 0.0
C860 C 0.10885 0.7971 0.4044 0.0
C861 C 0.13077 0.81396 0.41555 0.0
C862 C 0.1031 0.8272 0.46179 0.0
C863 C 0.08073 0.81128 0.44993 0.0
N864 N 0.05982 0.78703 0.40641 0.0
N865 N 0.14634 0.85033 0.4503 0.0
C866 C 0.08287 0.79804 0.42009 0.0
C867 C 0.12708 0.83073 0.44281 0.0
N868 N 0.11314 0.77931 0.37973 0.0
N869 N 0.10218 0.83764 0.49185 0.0
H870 H 0.16405 0.85365 0.43676 0.0
H871 H 0.14346 0.86502 0.46804 0.0
H872 H 0.08517 0.83541 0.50674 0.0
H873 H 0.11918 0.84654 0.50301 0.0
H874 H 0.09887 0.76435 0.37288 0.0
H875 H 0.13187 0.77798 0.36763 0.0
H876 H 0.05938 0.77922 0.38344 0.0
H877 H 0.04042 0.78852 0.41697 0.0
C878 C 0.21878 0.10129 0.40147 0.0
C879 C 0.23812 0.12281 0.39622 0.0
C880 C 0.26962 0.10173 0.4347 0.0
C881 C 0.25059 0.07942 0.43904 0.0
N882 N 0.21296 0.05341 0.41604 0.0
N883 N 0.28522 0.13841 0.4 0.0
C884 C 0.22701 0.07776 0.41909 0.0
C885 C 0.26462 0.12134 0.4103 0.0
N886 N 0.19216 0.10372 0.39109 0.0
N887 N 0.29163 0.1055 0.45448 0.0
H888 H 0.28239 0.15267 0.38176 0.0
H889 H 0.30574 0.13632 0.40711 0.0
H890 H 0.29737 0.09207 0.47241 0.0
H891 H 0.30338 0.12355 0.45456 0.0
H892 H 0.17676 0.08965 0.39721 0.0
H893 H 0.18478 0.12105 0.37911 0.0
H894 H 0.19693 0.05069 0.39986 0.0
H895 H 0.21967 0.03508 0.42657 0.0
C896 C 0.63124 0.76605 0.94692 0.0
C897 C 0.62559 0.77429 0.91533 0.0
C898 C 0.5813 0.79429 0.93191 0.0
C899 C 0.58662 0.78516 0.96321 0.0
N900 N 0.61915 0.76994 0.00249 0.0
N901 N 0.59918 0.80181 0.87883 0.0
C902 C 0.61256 0.77364 0.97131 0.0
C903 C 0.6019 0.7904 0.90823 0.0
N904 N 0.65356 0.7496 0.95332 0.0
N905 N 0.55604 0.80512 0.92446 0.0
H906 H 0.61395 0.79905 0.86111 0.0
H907 H 0.58367 0.81576 0.87279 0.0
H908 H 0.54086 0.80898 0.94139 0.0
H909 H 0.54956 0.80902 0.90141 0.0
H910 H 0.65684 0.74009 0.97508 0.0
H911 H 0.66804 0.74387 0.93626 0.0
H912 H 0.63862 0.76383 0.01032 0.0
H913 H 0.6058 0.77562 0.02077 0.0
C914 C 0.30135 0.60234 0.89161 0.0
C915 C 0.31375 0.62667 0.90382 0.0
C916 C 0.32508 0.60267 0.95314 0.0
C917 C 0.31308 0.57821 0.9407 0.0
N918 N 0.29724 0.55246 0.89565 0.0
N919 N 0.34416 0.64791 0.94205 0.0
C920 C 0.30353 0.57735 0.90907 0.0
C921 C 0.32781 0.62615 0.93329 0.0
N922 N 0.2866 0.60335 0.86407 0.0
N923 N 0.33248 0.60407 0.98433 0.0
H924 H 0.34692 0.66537 0.92793 0.0
H925 H 0.35706 0.64749 0.96177 0.0
H926 H 0.33119 0.5873 0.99973 0.0
H927 H 0.33793 0.62246 0.99557 0.0
H928 H 0.27467 0.58695 0.85579 0.0
H929 H 0.28461 0.62131 0.85062 0.0
H930 H 0.29217 0.55002 0.87186 0.0
H931 H 0.30027 0.5339 0.90771 0.0
C932 C 0.41248 0.25422 0.95101 0.0
C933 C 0.40558 0.27785 0.93274 0.0
C934 C 0.45382 0.29289 0.93542 0.0
C935 C 0.45958 0.27211 0.95827 0.0
N936 N 0.44178 0.23582 0.99219 0.0
N937 N 0.41903 0.32264 0.91262 0.0
C938 C 0.43833 0.25327 0.96708 0.0
C939 C 0.4261 0.29795 0.92614 0.0
N940 N 0.39452 0.23251 0.95277 0.0
N941 N 0.4749 0.30759 0.92215 0.0
H942 H 0.3988 0.32787 0.90664 0.0
H943 H 0.43283 0.33906 0.91041 0.0
H944 H 0.49553 0.30393 0.92764 0.0
H945 H 0.47206 0.32114 0.90325 0.0
H946 H 0.39965 0.2137 0.96328 0.0
H947 H 0.37562 0.2323 0.9409 0.0
H948 H 0.42575 0.22396 0.00146 0.0
H949 H 0.45961 0.23512 0.00591 0.0
C950 C 0.79246 0.4535 0.90406 0.0
C951 C 0.77469 0.43112 0.91178 0.0
C952 C 0.77457 0.44613 0.96703 0.0
C953 C 0.78755 0.47111 0.95813 0.0
N954 N 0.80799 0.4997 0.91777 0.0
N955 N 0.74483 0.40902 0.95023 0.0
C956 C 0.79663 0.47504 0.92658 0.0
C957 C 0.76487 0.42797 0.94326 0.0
N958 N 0.80557 0.45393 0.87545 0.0
N959 N 0.77173 0.43966 0.9983 0.0
H960 H 0.7357 0.39624 0.93335 0.0
H961 H 0.73517 0.40803 0.97223 0.0
H962 H 0.77921 0.45241 0.0163 0.0
H963 H 0.7648 0.42043 0.00608 0.0
H964 H 0.82066 0.46838 0.86958 0.0
H965 H 0.80322 0.43823 0.85871 0.0
H966 H 0.81206 0.50492 0.89433 0.0
H967 H 0.81175 0.51569 0.93379 0.0
C968 C 0.62382 0.28894 0.10358 0.0
C969 C 0.64447 0.2688 0.09773 0.0
C970 C 0.61459 0.24713 0.05787 0.0
C971 C 0.59292 0.26582 0.06596 0.0
N972 N 0.57518 0.2991 0.10374 0.0
N973 N 0.65713 0.22498 0.07471 0.0
C974 C 0.59699 0.28491 0.09119 0.0
C975 C 0.63903 0.2466 0.07668 0.0
N976 N 0.63006 0.31287 0.11932 0.0
N977 N 0.61301 0.23134 0.0311 0.0
H978 H 0.67512 0.22397 0.08827 0.0
H979 H 0.65291 0.20699 0.06202 0.0
H980 H 0.59638 0.23187 0.01552 0.0
H981 H 0.62955 0.2197 0.02261 0.0
H982 H 0.61631 0.3294 0.12109 0.0
H983 H 0.64979 0.3176 0.12758 0.0
H984 H 0.57677 0.31111 0.12416 0.0
H985 H 0.555 0.2965 0.09592 0.0
C986 C 0.79209 0.59592 0.14564 0.0
C987 C 0.78381 0.62281 0.13589 0.0
C988 C 0.79869 0.61186 0.082 0.0
C989 C 0.79983 0.58366 0.09019 0.0
N990 N 0.80094 0.54833 0.12997 0.0
N991 N 0.778 0.65614 0.09358 0.0
C992 C 0.798 0.57557 0.12224 0.0
C993 C 0.78737 0.63104 0.10385 0.0
N994 N 0.79413 0.59003 0.17715 0.0
N995 N 0.80833 0.62011 0.05323 0.0
H996 H 0.7686 0.67061 0.10833 0.0
H997 H 0.77747 0.66166 0.06977 0.0
H998 H 0.81774 0.60614 0.03773 0.0
H999 H 0.80992 0.64079 0.04656 0.0
H1000 H 0.80192 0.57148 0.18589 0.0
H1001 H 0.79032 0.60483 0.19462 0.0
H1002 H 0.79673 0.54037 0.15232 0.0
H1003 H 0.80686 0.53351 0.1133 0.0
C1004 C 0.42758 0.7535 0.11292 0.0
C1005 C 0.40673 0.77318 0.10574 0.0
C1006 C 0.43844 0.79652 0.06925 0.0
C1007 C 0.46001 0.77813 0.07839 0.0
N1008 N 0.47658 0.74429 0.11586 0.0
N1009 N 0.39485 0.81764 0.0838 0.0
C1010 C 0.45503 0.75831 0.10251 0.0
C1011 C 0.41303 0.79612 0.08614 0.0
N1012 N 0.42105 0.7294 0.12804 0.0
N1013 N 0.44116 0.81293 0.04313 0.0
H1014 H 0.37624 0.81822 0.09625 0.0
H1015 H 0.39958 0.83604 0.07219 0.0
H1016 H 0.4586 0.81306 0.02875 0.0
H1017 H 0.42483 0.82437 0.03378 0.0
H1018 H 0.43504 0.71318 0.13077 0.0
H1019 H 0.40103 0.72435 0.13502 0.0
H1020 H 0.47433 0.7315 0.13553 0.0
H1021 H 0.49706 0.74785 0.10954 0.0
C1022 C 0.27679 0.42591 0.09596 0.0
C1023 C 0.30086 0.4215 0.11416 0.0
C1024 C 0.31877 0.46614 0.09599 0.0
C1025 C 0.2975 0.46731 0.07283 0.0
N1026 N 0.26025 0.44309 0.0463 0.0
N1027 N 0.34672 0.43632 0.12909 0.0
C1028 C 0.27729 0.44601 0.0718 0.0
C1029 C 0.32238 0.44143 0.11383 0.0
N1030 N 0.25371 0.41034 0.10118 0.0
N1031 N 0.33505 0.48869 0.1015 0.0
H1032 H 0.35031 0.41841 0.14216 0.0
H1033 H 0.36406 0.44889 0.12665 0.0
H1034 H 0.33216 0.5075 0.08992 0.0
H1035 H 0.34929 0.48959 0.11997 0.0
H1036 H 0.23491 0.41433 0.09002 0.0
H1037 H 0.25269 0.39553 0.1191 0.0
H1038 H 0.24699 0.42628 0.04363 0.0
H1039 H 0.26212 0.45499 0.02595 0.0
C1040 C 0.42778 0.33037 0.09832 0.0
C1041 C 0.42631 0.31018 0.12253 0.0
C1042 C 0.47255 0.29364 0.1086 0.0
C1043 C 0.47252 0.31144 0.08175 0.0
N1044 N 0.4471 0.34261 0.0476 0.0
N1045 N 0.44597 0.27142 0.15014 0.0
C1046 C 0.44952 0.32904 0.07586 0.0
C1047 C 0.44845 0.29162 0.1277 0.0
N1048 N 0.40808 0.3506 0.09646 0.0
N1049 N 0.49573 0.27892 0.11612 0.0
H1050 H 0.42913 0.27023 0.16549 0.0
H1051 H 0.45972 0.25498 0.15243 0.0
H1052 H 0.51344 0.27902 0.10223 0.0
H1053 H 0.49821 0.26817 0.13725 0.0
H1054 H 0.40974 0.36762 0.08148 0.0
H1055 H 0.3913 0.35178 0.11188 0.0
H1056 H 0.42928 0.35309 0.04072 0.0
H1057 H 0.4615 0.34107 0.02938 0.0
C1058 C 0.72552 0.42003 0.08334 0.0
C1059 C 0.74079 0.41663 0.11176 0.0
C1060 C 0.75327 0.4658 0.11095 0.0
C1061 C 0.7414 0.4682 0.08042 0.0
N1062 N 0.71742 0.44743 0.03624 0.0
N1063 N 0.76991 0.43552 0.15262 0.0
C1064 C 0.72741 0.44541 0.06644 0.0
C1065 C 0.75474 0.43938 0.1257 0.0
N1066 N 0.70934 0.3989 0.07241 0.0
N1067 N 0.76232 0.48904 0.12616 0.0
H1068 H 0.77037 0.41678 0.16482 0.0
H1069 H 0.78319 0.45035 0.16196 0.0
H1070 H 0.76057 0.5087 0.11619 0.0
H1071 H 0.76902 0.48932 0.14955 0.0
H1072 H 0.69521 0.40105 0.054 0.0
H1073 H 0.70839 0.37957 0.08326 0.0
H1074 H 0.71005 0.43067 0.02329 0.0
H1075 H 0.71839 0.46548 0.02285 0.0
C1076 C 0.6075 0.74237 0.1385 0.0
C1077 C 0.62856 0.72297 0.13125 0.0
C1078 C 0.60782 0.7151 0.07914 0.0
C1079 C 0.58489 0.73178 0.0879 0.0
N1080 N 0.56098 0.75826 0.12796 0.0
N1081 N 0.64602 0.6869 0.09708 0.0
C1082 C 0.58422 0.74468 0.11814 0.0
C1083 C 0.62794 0.70818 0.10224 0.0
N1084 N 0.61014 0.7592 0.16434 0.0
N1085 N 0.61124 0.70704 0.04836 0.0
H1086 H 0.66091 0.68089 0.11353 0.0
H1087 H 0.6445 0.67357 0.07777 0.0
H1088 H 0.5977 0.71266 0.03029 0.0
H1089 H 0.62909 0.69736 0.04014 0.0
H1090 H 0.59697 0.77576 0.16894 0.0
H1091 H 0.62699 0.75821 0.17969 0.0
H1092 H 0.55817 0.76535 0.15101 0.0
H1093 H 0.54344 0.76037 0.11391 0.0
C1094 C 0.26113 0.61916 0.10844 0.0
C1095 C 0.27159 0.64301 0.09294 0.0
C1096 C 0.27162 0.61809 0.04237 0.0
C1097 C 0.2641 0.59348 0.0584 0.0
N1098 N 0.25406 0.5694 0.10687 0.0
N1099 N 0.29103 0.66409 0.04621 0.0
C1100 C 0.25938 0.59368 0.09152 0.0
C1101 C 0.27792 0.6422 0.06015 0.0
N1102 N 0.25234 0.62107 0.13909 0.0
N1103 N 0.27211 0.61856 0.01003 0.0
H1104 H 0.29613 0.68216 0.05836 0.0
H1105 H 0.29904 0.66343 0.02336 0.0
H1106 H 0.26737 0.60133 0.99621 0.0
H1107 H 0.27472 0.63656 0.99685 0.0
H1108 H 0.24193 0.60528 0.1508 0.0
H1109 H 0.2536 0.63934 0.15219 0.0
H1110 H 0.2535 0.56754 0.13139 0.0
H1111 H 0.25187 0.55058 0.095 0.0
C1112 C 0.42844 0.71755 0.93661 0.0
C1113 C 0.42845 0.73768 0.91223 0.0
C1114 C 0.4757 0.75055 0.92647 0.0
C1115 C 0.47349 0.73436 0.95436 0.0
N1116 N 0.44576 0.70508 0.98822 0.0
N1117 N 0.45134 0.77493 0.88487 0.0
C1118 C 0.4495 0.7182 0.95991 0.0
C1119 C 0.45201 0.75446 0.90712 0.0
N1120 N 0.4083 0.69776 0.93743 0.0
N1121 N 0.50059 0.76173 0.91824 0.0
H1122 H 0.43437 0.77833 0.87016 0.0
H1123 H 0.46677 0.78979 0.8826 0.0
H1124 H 0.51851 0.75843 0.93146 0.0
H1125 H 0.50408 0.77172 0.8968 0.0
H1126 H 0.40872 0.68104 0.95295 0.0
H1127 H 0.39271 0.69648 0.92042 0.0
H1128 H 0.4272 0.69574 0.99464 0.0
H1129 H 0.46009 0.70562 0.00659 0.0
C1130 C 0.26264 0.43426 0.90415 0.0
C1131 C 0.25785 0.4103 0.92282 0.0
C1132 C 0.23723 0.43965 0.96394 0.0
C1133 C 0.24809 0.46332 0.94886 0.0
N1134 N 0.26805 0.48423 0.90285 0.0
N1135 N 0.24311 0.39072 0.9728 0.0
C1136 C 0.25971 0.4609 0.91822 0.0
C1137 C 0.24533 0.41304 0.95314 0.0
N1138 N 0.2694 0.43146 0.87292 0.0
N1139 N 0.21936 0.44253 0.98869 0.0
H1140 H 0.25022 0.37104 0.9669 0.0
H1141 H 0.23675 0.39235 0.99628 0.0
H1142 H 0.21303 0.46179 0.99708 0.0
H1143 H 0.20883 0.42588 0.99866 0.0
H1144 H 0.27109 0.44804 0.85736 0.0
H1145 H 0.27093 0.41222 0.86184 0.0
H1146 H 0.27983 0.48411 0.88225 0.0
H1147 H 0.2633 0.5039 0.91148 0.0
C1148 C 0.60568 0.31208 0.89621 0.0
C1149 C 0.62802 0.32915 0.90558 0.0
C1150 C 0.60703 0.33551 0.95784 0.0
C1151 C 0.58329 0.32078 0.94747 0.0
N1152 N 0.55853 0.29751 0.90566 0.0
N1153 N 0.64838 0.36062 0.94324 0.0
C1154 C 0.58224 0.30965 0.91634 0.0
C1155 C 0.6282 0.34194 0.93579 0.0
N1156 N 0.6072 0.29768 0.8684 0.0
N1157 N 0.61019 0.34193 0.98917 0.0
H1158 H 0.66467 0.36541 0.92805 0.0
H1159 H 0.64778 0.373 0.96341 0.0
H1160 H 0.59573 0.33678 0.00646 0.0
H1161 H 0.62841 0.34987 0.99861 0.0
H1162 H 0.5931 0.28249 0.86183 0.0
H1163 H 0.62386 0.29937 0.85285 0.0
H1164 H 0.55527 0.29186 0.88218 0.0
H1165 H 0.54113 0.29495 0.91981 0.0
C1166 C 0.71493 0.60998 0.91807 0.0
C1167 C 0.73502 0.63088 0.91274 0.0
C1168 C 0.76283 0.61197 0.95599 0.0
C1169 C 0.74447 0.58915 0.9587 0.0
N1170 N 0.70724 0.56294 0.93503 0.0
N1171 N 0.78157 0.64708 0.92142 0.0
C1172 C 0.72173 0.58707 0.93757 0.0
C1173 C 0.76011 0.63037 0.93003 0.0
N1174 N 0.68891 0.61247 0.90586 0.0
N1175 N 0.78174 0.61727 0.97914 0.0
H1176 H 0.78066 0.66021 0.90188 0.0
H1177 H 0.80112 0.64563 0.93162 0.0
H1178 H 0.78282 0.60574 0.99984 0.0
H1179 H 0.79387 0.63507 0.97954 0.0
H1180 H 0.67293 0.59897 0.91171 0.0
H1181 H 0.68244 0.62956 0.8928 0.0
H1182 H 0.69204 0.55984 0.91791 0.0
H1183 H 0.71262 0.545 0.94725 0.0
loop_
_geom_bond_atom_site_label_1
_geom_bond_atom_site_label_2
_geom_bond_distance
_geom_bond_site_symmetry_2
_ccdc_geom_bond_type
H0 C27 0.929 . S
N1 C26 1.433 . S
N1 C32 1.435 . S
N1 C38 1.423 . S
H2 C28 0.930 . S
H3 C31 0.931 . S
H4 C30 0.929 . S
H5 C33 0.930 . S
H6 C34 0.932 . S
H7 C37 0.929 . S
H8 C36 0.931 . S
H9 C39 0.929 . S
H10 C43 0.932 . S
H11 C40 0.931 . S
H12 C42 0.929 . S
H13 C45 0.929 . S
H14 C46 0.930 . S
H15 C48 0.929 . S
H16 C49 0.931 . S
H17 C51 0.930 . S
H18 C52 0.932 . S
H19 C54 0.931 . S
H20 C55 0.929 . S
H21 C57 0.929 . S
H22 C58 0.931 . S
H23 C60 0.929 . S
N24 C44 1.433 . S
N24 C50 1.435 . S
N24 C56 1.423 . S
H25 C61 0.932 . S
C26 N1 1.433 . S
C26 C27 1.363 . S
C26 C31 1.370 . S
C27 H0 0.929 . S
C27 C26 1.363 . S
C27 C28 1.385 . S
C28 H2 0.930 . S
C28 C27 1.385 . S
C28 C29 1.357 . S
C29 C28 1.357 . S
C29 C30 1.406 . S
C30 H4 0.929 . S
C30 C29 1.406 . S
C30 C31 1.391 . S
C31 H3 0.931 . S
C31 C26 1.370 . S
C31 C30 1.391 . S
C32 N1 1.435 . S
C32 C33 1.358 . S
C32 C37 1.371 . S
C33 H5 0.930 . S
C33 C32 1.358 . S
C33 C34 1.405 . S
C34 H6 0.932 . S
C34 C33 1.405 . S
C34 C35 1.383 . S
C35 C34 1.383 . S
C35 C36 1.393 . S
C36 H8 0.931 . S
C36 C35 1.393 . S
C36 C37 1.382 . S
C37 H7 0.929 . S
C37 C32 1.371 . S
C37 C36 1.382 . S
C38 N1 1.423 . S
C38 C39 1.362 . S
C38 C43 1.388 . S
C39 H9 0.929 . S
C39 C38 1.362 . S
C39 C40 1.376 . S
C40 H11 0.931 . S
C40 C39 1.376 . S
C40 C41 1.396 . S
C41 C40 1.396 . S
C41 C42 1.348 . S
C41 C59 1.472 . S
C42 H12 0.929 . S
C42 C41 1.348 . S
C42 C43 1.443 . S
C43 H10 0.932 . S
C43 C38 1.388 . S
C43 C42 1.443 . S
C44 N24 1.433 . S
C44 C45 1.363 . S
C44 C49 1.370 . S
C45 H13 0.929 . S
C45 C44 1.363 . S
C45 C46 1.385 . S
C46 H14 0.930 . S
C46 C45 1.385 . S
C46 C47 1.357 . S
C47 C46 1.357 . S
C47 C48 1.406 . S
C48 H15 0.929 . S
C48 C47 1.406 . S
C48 C49 1.391 . S
C49 H16 0.931 . S
C49 C44 1.370 . S
C49 C48 1.391 . S
C50 N24 1.435 . S
C50 C51 1.358 . S
C50 C55 1.371 . S
C51 H17 0.930 . S
C51 C50 1.358 . S
C51 C52 1.405 . S
C52 H18 0.932 . S
C52 C51 1.405 . S
C52 C53 1.383 . S
C53 C52 1.383 . S
C53 C54 1.393 . S
C54 H19 0.931 . S
C54 C53 1.393 . S
C54 C55 1.382 . S
C55 H20 0.929 . S
C55 C50 1.371 . S
C55 C54 1.382 . S
C56 N24 1.423 . S
C56 C57 1.362 . S
C56 C61 1.388 . S
C57 H21 0.929 . S
C57 C56 1.362 . S
C57 C58 1.376 . S
C58 H22 0.931 . S
C58 C57 1.376 . S
C58 C59 1.396 . S
C59 C41 1.472 . S
C59 C58 1.396 . S
C59 C60 1.348 . S
C60 H23 0.929 . S
C60 C59 1.348 . S
C60 C61 1.443 . S
C61 H25 0.932 . S
C61 C56 1.388 . S
C61 C60 1.443 . S
H62 C89 0.929 . S
N63 C88 1.433 . S
N63 C94 1.435 . S
N63 C100 1.423 . S
H64 C90 0.930 . S
H65 C93 0.931 . S
H66 C92 0.929 . S
H67 C95 0.930 . S
H68 C96 0.932 . S
H69 C99 0.929 . S
H70 C98 0.931 . S
H71 C101 0.929 . S
H72 C105 0.932 . S
H73 C102 0.931 . S
H74 C104 0.929 . S
H75 C107 0.929 . S
H76 C108 0.930 . S
H77 C110 0.929 . S
H78 C111 0.931 . S
H79 C113 0.930 . S
H80 C114 0.932 . S
H81 C116 0.931 . S
H82 C117 0.929 . S
H83 C119 0.929 . S
H84 C120 0.931 . S
H85 C122 0.929 . S
N86 C106 1.433 . S
N86 C112 1.435 . S
N86 C118 1.423 . S
H87 C123 0.932 . S
C88 N63 1.433 . S
C88 C89 1.363 . S
C88 C93 1.370 . S
C89 H62 0.929 . S
C89 C88 1.363 . S
C89 C90 1.385 . S
C90 H64 0.930 . S
C90 C89 1.385 . S
C90 C91 1.357 . S
C91 C90 1.357 . S
C91 C92 1.406 . S
C92 H66 0.929 . S
C92 C91 1.406 . S
C92 C93 1.391 . S
C93 H65 0.931 . S
C93 C88 1.370 . S
C93 C92 1.391 . S
C94 N63 1.435 . S
C94 C95 1.358 . S
C94 C99 1.371 . S
C95 H67 0.930 . S
C95 C94 1.358 . S
C95 C96 1.405 . S
C96 H68 0.932 . S
C96 C95 1.405 . S
C96 C97 1.383 . S
C97 C96 1.383 . S
C97 C98 1.393 . S
C98 H70 0.931 . S
C98 C97 1.393 . S
C98 C99 1.382 . S
C99 H69 0.929 . S
C99 C94 1.371 . S
C99 C98 1.382 . S
C100 N63 1.423 . S
C100 C101 1.362 . S
C100 C105 1.388 . S
C101 H71 0.929 . S
C101 C100 1.362 . S
C101 C102 1.376 . S
C102 H73 0.931 . S
C102 C101 1.376 . S
C102 C103 1.396 . S
C103 C102 1.396 . S
C103 C104 1.348 . S
C103 C121 1.472 . S
C104 H74 0.929 . S
C104 C103 1.348 . S
C104 C105 1.443 . S
C105 H72 0.932 . S
C105 C100 1.388 . S
C105 C104 1.443 . S
C106 N86 1.433 . S
C106 C107 1.363 . S
C106 C111 1.370 . S
C107 H75 0.929 . S
C107 C106 1.363 . S
C107 C108 1.385 . S
C108 H76 0.930 . S
C108 C107 1.385 . S
C108 C109 1.357 . S
C109 C108 1.357 . S
C109 C110 1.406 . S
C110 H77 0.929 . S
C110 C109 1.406 . S
C110 C111 1.391 . S
C111 H78 0.931 . S
C111 C106 1.370 . S
C111 C110 1.391 . S
C112 N86 1.435 . S
C112 C113 1.358 . S
C112 C117 1.371 . S
C113 H79 0.930 . S
C113 C112 1.358 . S
C113 C114 1.405 . S
C114 H80 0.932 . S
C114 C113 1.405 . S
C114 C115 1.383 . S
C115 C114 1.383 . S
C115 C116 1.393 . S
C116 H81 0.931 . S
C116 C115 1.393 . S
C116 C117 1.382 . S
C117 H82 0.929 . S
C117 C112 1.371 . S
C117 C116 1.382 . S
C118 N86 1.423 . S
C118 C119 1.362 . S
C118 C123 1.388 . S
C119 H83 0.929 . S
C119 C118 1.362 . S
C119 C120 1.376 . S
C120 H84 0.931 . S
C120 C119 1.376 . S
C120 C121 1.396 . S
C121 C103 1.472 . S
C121 C120 1.396 . S
C121 C122 1.348 . S
C122 H85 0.929 . S
C122 C121 1.348 . S
C122 C123 1.443 . S
C123 H87 0.932 . S
C123 C118 1.388 . S
C123 C122 1.443 . S
H124 C151 0.929 . S
N125 C150 1.433 . S
N125 C156 1.435 . S
N125 C162 1.423 . S
H126 C152 0.930 . S
H127 C155 0.931 . S
H128 C154 0.929 . S
H129 C157 0.930 . S
H130 C158 0.932 . S
H131 C161 0.929 . S
H132 C160 0.931 . S
H133 C163 0.929 . S
H134 C167 0.932 . S
H135 C164 0.931 . S
H136 C166 0.929 . S
H137 C169 0.929 . S
H138 C170 0.930 . S
H139 C172 0.929 . S
H140 C173 0.931 . S
H141 C175 0.930 . S
H142 C176 0.932 . S
H143 C178 0.931 . S
H144 C179 0.929 . S
H145 C181 0.929 . S
H146 C182 0.931 . S
H147 C184 0.929 . S
N148 C168 1.433 . S
N148 C174 1.435 . S
N148 C180 1.423 . S
H149 C185 0.932 . S
C150 N125 1.433 . S
C150 C151 1.363 . S
C150 C155 1.370 . S
C151 H124 0.929 . S
C151 C150 1.363 . S
C151 C152 1.385 . S
C152 H126 0.930 . S
C152 C151 1.385 . S
C152 C153 1.357 . S
C153 C152 1.357 . S
C153 C154 1.406 . S
C154 H128 0.929 . S
C154 C153 1.406 . S
C154 C155 1.391 . S
C155 H127 0.931 . S
C155 C150 1.370 . S
C155 C154 1.391 . S
C156 N125 1.435 . S
C156 C157 1.358 . S
C156 C161 1.371 . S
C157 H129 0.930 . S
C157 C156 1.358 . S
C157 C158 1.405 . S
C158 H130 0.932 . S
C158 C157 1.405 . S
C158 C159 1.383 . S
C159 C158 1.383 . S
C159 C160 1.393 . S
C160 H132 0.931 . S
C160 C159 1.393 . S
C160 C161 1.382 . S
C161 H131 0.929 . S
C161 C156 1.371 . S
C161 C160 1.382 . S
C162 N125 1.423 . S
C162 C163 1.362 . S
C162 C167 1.388 . S
C163 H133 0.929 . S
C163 C162 1.362 . S
C163 C164 1.376 . S
C164 H135 0.931 . S
C164 C163 1.376 . S
C164 C165 1.396 . S
C165 C164 1.396 . S
C165 C166 1.348 . S
C165 C183 1.472 . S
C166 H136 0.929 . S
C166 C165 1.348 . S
C166 C167 1.443 . S
C167 H134 0.932 . S
C167 C162 1.388 . S
C167 C166 1.443 . S
C168 N148 1.433 . S
C168 C169 1.363 . S
C168 C173 1.370 . S
C169 H137 0.929 . S
C169 C168 1.363 . S
C169 C170 1.385 . S
C170 H138 0.930 . S
C170 C169 1.385 . S
C170 C171 1.357 . S
C171 C170 1.357 . S
C171 C172 1.406 . S
C172 H139 0.929 . S
C172 C171 1.406 . S
C172 C173 1.391 . S
C173 H140 0.931 . S
C173 C168 1.370 . S
C173 C172 1.391 . S
C174 N148 1.435 . S
C174 C175 1.358 . S
C174 C179 1.371 . S
C175 H141 0.930 . S
C175 C174 1.358 . S
C175 C176 1.405 . S
C176 H142 0.932 . S
C176 C175 1.405 . S
C176 C177 1.383 . S
C177 C176 1.383 . S
C177 C178 1.393 . S
C178 H143 0.931 . S
C178 C177 1.393 . S
C178 C179 1.382 . S
C179 H144 0.929 . S
C179 C174 1.371 . S
C179 C178 1.382 . S
C180 N148 1.423 . S
C180 C181 1.362 . S
C180 C185 1.388 . S
C181 H145 0.929 . S
C181 C180 1.362 . S
C181 C182 1.376 . S
C182 H146 0.931 . S
C182 C181 1.376 . S
C182 C183 1.396 . S
C183 C165 1.472 . S
C183 C182 1.396 . S
C183 C184 1.348 . S
C184 H147 0.929 . S
C184 C183 1.348 . S
C184 C185 1.443 . S
C185 H149 0.932 . S
C185 C180 1.388 . S
C185 C184 1.443 . S
H186 C213 0.929 . S
N187 C212 1.433 . S
N187 C218 1.435 . S
N187 C224 1.423 . S
H188 C214 0.930 . S
H189 C217 0.931 . S
H190 C216 0.929 . S
H191 C219 0.930 . S
H192 C220 0.932 . S
H193 C223 0.929 . S
H194 C222 0.931 . S
H195 C225 0.929 . S
H196 C229 0.932 . S
H197 C226 0.931 . S
H198 C228 0.929 . S
H199 C231 0.929 . S
H200 C232 0.930 . S
H201 C234 0.929 . S
H202 C235 0.931 . S
H203 C237 0.930 . S
H204 C238 0.932 . S
H205 C240 0.931 . S
H206 C241 0.929 . S
H207 C243 0.929 . S
H208 C244 0.931 . S
H209 C246 0.929 . S
N210 C230 1.433 . S
N210 C236 1.435 . S
N210 C242 1.423 . S
H211 C247 0.932 . S
C212 N187 1.433 . S
C212 C213 1.363 . S
C212 C217 1.370 . S
C213 H186 0.929 . S
C213 C212 1.363 . S
C213 C214 1.385 . S
C214 H188 0.930 . S
C214 C213 1.385 . S
C214 C215 1.357 . S
C215 C214 1.357 . S
C215 C216 1.406 . S
C216 H190 0.929 . S
C216 C215 1.406 . S
C216 C217 1.391 . S
C217 H189 0.931 . S
C217 C212 1.370 . S
C217 C216 1.391 . S
C218 N187 1.435 . S
C218 C219 1.358 . S
C218 C223 1.371 . S
C219 H191 0.930 . S
C219 C218 1.358 . S
C219 C220 1.405 . S
C220 H192 0.932 . S
C220 C219 1.405 . S
C220 C221 1.383 . S
C221 C220 1.383 . S
C221 C222 1.393 . S
C222 H194 0.931 . S
C222 C221 1.393 . S
C222 C223 1.382 . S
C223 H193 0.929 . S
C223 C218 1.371 . S
C223 C222 1.382 . S
C224 N187 1.423 . S
C224 C225 1.362 . S
C224 C229 1.388 . S
C225 H195 0.929 . S
C225 C224 1.362 . S
C225 C226 1.376 . S
C226 H197 0.931 . S
C226 C225 1.376 . S
C226 C227 1.396 . S
C227 C226 1.396 . S
C227 C228 1.348 . S
C227 C245 1.472 . S
C228 H198 0.929 . S
C228 C227 1.348 . S
C228 C229 1.443 . S
C229 H196 0.932 . S
C229 C224 1.388 . S
C229 C228 1.443 . S
C230 N210 1.433 . S
C230 C231 1.363 . S
C230 C235 1.370 . S
C231 H199 0.929 . S
C231 C230 1.363 . S
C231 C232 1.385 . S
C232 H200 0.930 . S
C232 C231 1.385 . S
C232 C233 1.357 . S
C233 C232 1.357 . S
C233 C234 1.406 . S
C234 H201 0.929 . S
C234 C233 1.406 . S
C234 C235 1.391 . S
C235 H202 0.931 . S
C235 C230 1.370 . S
C235 C234 1.391 . S
C236 N210 1.435 . S
C236 C237 1.358 . S
C236 C241 1.371 . S
C237 H203 0.930 . S
C237 C236 1.358 . S
C237 C238 1.405 . S
C238 H204 0.932 . S
C238 C237 1.405 . S
C238 C239 1.383 . S
C239 C238 1.383 . S
C239 C240 1.393 . S
C240 H205 0.931 . S
C240 C239 1.393 . S
C240 C241 1.382 . S
C241 H206 0.929 . S
C241 C236 1.371 . S
C241 C240 1.382 . S
C242 N210 1.423 . S
C242 C243 1.362 . S
C242 C247 1.388 . S
C243 H207 0.929 . S
C243 C242 1.362 . S
C243 C244 1.376 . S
C244 H208 0.931 . S
C244 C243 1.376 . S
C244 C245 1.396 . S
C245 C227 1.472 . S
C245 C244 1.396 . S
C245 C246 1.348 . S
C246 H209 0.929 . S
C246 C245 1.348 . S
C246 C247 1.443 . S
C247 H211 0.932 . S
C247 C242 1.388 . S
C247 C246 1.443 . S
H248 C275 0.929 . S
N249 C274 1.433 . S
N249 C280 1.435 . S
N249 C286 1.423 . S
H250 C276 0.930 . S
H251 C279 0.931 . S
H252 C278 0.929 . S
H253 C281 0.930 . S
H254 C282 0.932 . S
H255 C285 0.929 . S
H256 C284 0.931 . S
H257 C287 0.929 . S
H258 C291 0.932 . S
H259 C288 0.931 . S
H260 C290 0.929 . S
H261 C293 0.929 . S
H262 C294 0.930 . S
H263 C296 0.929 . S
H264 C297 0.931 . S
H265 C299 0.930 . S
H266 C300 0.932 . S
H267 C302 0.931 . S
H268 C303 0.929 . S
H269 C305 0.929 . S
H270 C306 0.931 . S
H271 C308 0.929 . S
N272 C292 1.433 . S
N272 C298 1.435 . S
N272 C304 1.423 . S
H273 C309 0.932 . S
C274 N249 1.433 . S
C274 C275 1.363 . S
C274 C279 1.370 . S
C275 H248 0.929 . S
C275 C274 1.363 . S
C275 C276 1.385 . S
C276 H250 0.930 . S
C276 C275 1.385 . S
C276 C277 1.357 . S
C277 C276 1.357 . S
C277 C278 1.406 . S
C278 H252 0.929 . S
C278 C277 1.406 . S
C278 C279 1.391 . S
C279 H251 0.931 . S
C279 C274 1.370 . S
C279 C278 1.391 . S
C280 N249 1.435 . S
C280 C281 1.358 . S
C280 C285 1.371 . S
C281 H253 0.930 . S
C281 C280 1.358 . S
C281 C282 1.405 . S
C282 H254 0.932 . S
C282 C281 1.405 . S
C282 C283 1.383 . S
C283 C282 1.383 . S
C283 C284 1.393 . S
C284 H256 0.931 . S
C284 C283 1.393 . S
C284 C285 1.382 . S
C285 H255 0.929 . S
C285 C280 1.371 . S
C285 C284 1.382 . S
C286 N249 1.423 . S
C286 C287 1.362 . S
C286 C291 1.388 . S
C287 H257 0.929 . S
C287 C286 1.362 . S
C287 C288 1.376 . S
C288 H259 0.931 . S
C288 C287 1.376 . S
C288 C289 1.396 . S
C289 C288 1.396 . S
C289 C290 1.348 . S
C289 C307 1.472 . S
C290 H260 0.929 . S
C290 C289 1.348 . S
C290 C291 1.443 . S
C291 H258 0.932 . S
C291 C286 1.388 . S
C291 C290 1.443 . S
C292 N272 1.433 . S
C292 C293 1.363 . S
C292 C297 1.370 . S
C293 H261 0.929 . S
C293 C292 1.363 . S
C293 C294 1.385 . S
C294 H262 0.930 . S
C294 C293 1.385 . S
C294 C295 1.357 . S
C295 C294 1.357 . S
C295 C296 1.406 . S
C296 H263 0.929 . S
C296 C295 1.406 . S
C296 C297 1.391 . S
C297 H264 0.931 . S
C297 C292 1.370 . S
C297 C296 1.391 . S
C298 N272 1.435 . S
C298 C299 1.358 . S
C298 C303 1.371 . S
C299 H265 0.930 . S
C299 C298 1.358 . S
C299 C300 1.405 . S
C300 H266 0.932 . S
C300 C299 1.405 . S
C300 C301 1.383 . S
C301 C300 1.383 . S
C301 C302 1.393 . S
C302 H267 0.931 . S
C302 C301 1.393 . S
C302 C303 1.382 . S
C303 H268 0.929 . S
C303 C298 1.371 . S
C303 C302 1.382 . S
C304 N272 1.423 . S
C304 C305 1.362 . S
C304 C309 1.388 . S
C305 H269 0.929 . S
C305 C304 1.362 . S
C305 C306 1.376 . S
C306 H270 0.931 . S
C306 C305 1.376 . S
C306 C307 1.396 . S
C307 C289 1.472 . S
C307 C306 1.396 . S
C307 C308 1.348 . S
C308 H271 0.929 . S
C308 C307 1.348 . S
C308 C309 1.443 . S
C309 H273 0.932 . S
C309 C304 1.388 . S
C309 C308 1.443 . S
H310 C337 0.929 . S
N311 C336 1.433 . S
N311 C342 1.435 . S
N311 C348 1.423 . S
H312 C338 0.930 . S
H313 C341 0.931 . S
H314 C340 0.929 . S
H315 C343 0.930 . S
H316 C344 0.932 . S
H317 C347 0.929 . S
H318 C346 0.931 . S
H319 C349 0.929 . S
H320 C353 0.932 . S
H321 C350 0.931 . S
H322 C352 0.929 . S
H323 C355 0.929 . S
H324 C356 0.930 . S
H325 C358 0.929 . S
H326 C359 0.931 . S
H327 C361 0.930 . S
H328 C362 0.932 . S
H329 C364 0.931 . S
H330 C365 0.929 . S
H331 C367 0.929 . S
H332 C368 0.931 . S
H333 C370 0.929 . S
N334 C354 1.433 . S
N334 C360 1.435 . S
N334 C366 1.423 . S
H335 C371 0.932 . S
C336 N311 1.433 . S
C336 C337 1.363 . S
C336 C341 1.370 . S
C337 H310 0.929 . S
C337 C336 1.363 . S
C337 C338 1.385 . S
C338 H312 0.930 . S
C338 C337 1.385 . S
C338 C339 1.357 . S
C339 C338 1.357 . S
C339 C340 1.406 . S
C340 H314 0.929 . S
C340 C339 1.406 . S
C340 C341 1.391 . S
C341 H313 0.931 . S
C341 C336 1.370 . S
C341 C340 1.391 . S
C342 N311 1.435 . S
C342 C343 1.358 . S
C342 C347 1.371 . S
C343 H315 0.930 . S
C343 C342 1.358 . S
C343 C344 1.405 . S
C344 H316 0.932 . S
C344 C343 1.405 . S
C344 C345 1.383 . S
C345 C344 1.383 . S
C345 C346 1.393 . S
C346 H318 0.931 . S
C346 C345 1.393 . S
C346 C347 1.382 . S
C347 H317 0.929 . S
C347 C342 1.371 . S
C347 C346 1.382 . S
C348 N311 1.423 . S
C348 C349 1.362 . S
C348 C353 1.388 . S
C349 H319 0.929 . S
C349 C348 1.362 . S
C349 C350 1.376 . S
C350 H321 0.931 . S
C350 C349 1.376 . S
C350 C351 1.396 . S
C351 C350 1.396 . S
C351 C352 1.348 . S
C351 C369 1.472 . S
C352 H322 0.929 . S
C352 C351 1.348 . S
C352 C353 1.443 . S
C353 H320 0.932 . S
C353 C348 1.388 . S
C353 C352 1.443 . S
C354 N334 1.433 . S
C354 C355 1.363 . S
C354 C359 1.370 . S
C355 H323 0.929 . S
C355 C354 1.363 . S
C355 C356 1.385 . S
C356 H324 0.930 . S
C356 C355 1.385 . S
C356 C357 1.357 . S
C357 C356 1.357 . S
C357 C358 1.406 . S
C358 H325 0.929 . S
C358 C357 1.406 . S
C358 C359 1.391 . S
C359 H326 0.931 . S
C359 C354 1.370 . S
C359 C358 1.391 . S
C360 N334 1.435 . S
C360 C361 1.358 . S
C360 C365 1.371 . S
C361 H327 0.930 . S
C361 C360 1.358 . S
C361 C362 1.405 . S
C362 H328 0.932 . S
C362 C361 1.405 . S
C362 C363 1.383 . S
C363 C362 1.383 . S
C363 C364 1.393 . S
C364 H329 0.931 . S
C364 C363 1.393 . S
C364 C365 1.382 . S
C365 H330 0.929 . S
C365 C360 1.371 . S
C365 C364 1.382 . S
C366 N334 1.423 . S
C366 C367 1.362 . S
C366 C371 1.388 . S
C367 H331 0.929 . S
C367 C366 1.362 . S
C367 C368 1.376 . S
C368 H332 0.931 . S
C368 C367 1.376 . S
C368 C369 1.396 . S
C369 C351 1.472 . S
C369 C368 1.396 . S
C369 C370 1.348 . S
C370 H333 0.929 . S
C370 C369 1.348 . S
C370 C371 1.443 . S
C371 H335 0.932 . S
C371 C366 1.388 . S
C371 C370 1.443 . S
H372 C399 0.929 . S
N373 C398 1.433 . S
N373 C404 1.435 . S
N373 C410 1.423 . S
H374 C400 0.930 . S
H375 C403 0.931 . S
H376 C402 0.929 . S
H377 C405 0.930 . S
H378 C406 0.932 . S
H379 C409 0.929 . S
H380 C408 0.931 . S
H381 C411 0.929 . S
H382 C415 0.932 . S
H383 C412 0.931 . S
H384 C414 0.929 . S
H385 C417 0.929 . S
H386 C418 0.930 . S
H387 C420 0.929 . S
H388 C421 0.931 . S
H389 C423 0.930 . S
H390 C424 0.932 . S
H391 C426 0.931 . S
H392 C427 0.929 . S
H393 C429 0.929 . S
H394 C430 0.931 . S
H395 C432 0.929 . S
N396 C416 1.433 . S
N396 C422 1.435 . S
N396 C428 1.423 . S
H397 C433 0.932 . S
C398 N373 1.433 . S
C398 C399 1.363 . S
C398 C403 1.370 . S
C399 H372 0.929 . S
C399 C398 1.363 . S
C399 C400 1.385 . S
C400 H374 0.930 . S
C400 C399 1.385 . S
C400 C401 1.357 . S
C401 C400 1.357 . S
C401 C402 1.406 . S
C402 H376 0.929 . S
C402 C401 1.406 . S
C402 C403 1.391 . S
C403 H375 0.931 . S
C403 C398 1.370 . S
C403 C402 1.391 . S
C404 N373 1.435 . S
C404 C405 1.358 . S
C404 C409 1.371 . S
C405 H377 0.930 . S
C405 C404 1.358 . S
C405 C406 1.405 . S
C406 H378 0.932 . S
C406 C405 1.405 . S
C406 C407 1.383 . S
C407 C406 1.383 . S
C407 C408 1.393 . S
C408 H380 0.931 . S
C408 C407 1.393 . S
C408 C409 1.382 . S
C409 H379 0.929 . S
C409 C404 1.371 . S
C409 C408 1.382 . S
C410 N373 1.423 . S
C410 C411 1.362 . S
C410 C415 1.388 . S
C411 H381 0.929 . S
C411 C410 1.362 . S
C411 C412 1.376 . S
C412 H383 0.931 . S
C412 C411 1.376 . S
C412 C413 1.396 . S
C413 C412 1.396 . S
C413 C414 1.348 . S
C413 C431 1.472 . S
C414 H384 0.929 . S
C414 C413 1.348 . S
C414 C415 1.443 . S
C415 H382 0.932 . S
C415 C410 1.388 . S
C415 C414 1.443 . S
C416 N396 1.433 . S
C416 C417 1.363 . S
C416 C421 1.370 . S
C417 H385 0.929 . S
C417 C416 1.363 . S
C417 C418 1.385 . S
C418 H386 0.930 . S
C418 C417 1.385 . S
C418 C419 1.357 . S
C419 C418 1.357 . S
C419 C420 1.406 . S
C420 H387 0.929 . S
C420 C419 1.406 . S
C420 C421 1.391 . S
C421 H388 0.931 . S
C421 C416 1.370 . S
C421 C420 1.391 . S
C422 N396 1.435 . S
C422 C423 1.358 . S
C422 C427 1.371 . S
C423 H389 0.930 . S
C423 C422 1.358 . S
C423 C424 1.405 . S
C424 H390 0.932 . S
C424 C423 1.405 . S
C424 C425 1.383 . S
C425 C424 1.383 . S
C425 C426 1.393 . S
C426 H391 0.931 . S
C426 C425 1.393 . S
C426 C427 1.382 . S
C427 H392 0.929 . S
C427 C422 1.371 . S
C427 C426 1.382 . S
C428 N396 1.423 . S
C428 C429 1.362 . S
C428 C433 1.388 . S
C429 H393 0.929 . S
C429 C428 1.362 . S
C429 C430 1.376 . S
C430 H394 0.931 . S
C430 C429 1.376 . S
C430 C431 1.396 . S
C431 C413 1.472 . S
C431 C430 1.396 . S
C431 C432 1.348 . S
C432 H395 0.929 . S
C432 C431 1.348 . S
C432 C433 1.443 . S
C433 H397 0.932 . S
C433 C428 1.388 . S
C433 C432 1.443 . S
H434 C461 0.929 . S
N435 C460 1.433 . S
N435 C466 1.435 . S
N435 C472 1.423 . S
H436 C462 0.930 . S
H437 C465 0.931 . S
H438 C464 0.929 . S
H439 C467 0.930 . S
H440 C468 0.932 . S
H441 C471 0.929 . S
H442 C470 0.931 . S
H443 C473 0.929 . S
H444 C477 0.932 . S
H445 C474 0.931 . S
H446 C476 0.929 . S
H447 C479 0.929 . S
H448 C480 0.930 . S
H449 C482 0.929 . S
H450 C483 0.931 . S
H451 C485 0.930 . S
H452 C486 0.932 . S
H453 C488 0.931 . S
H454 C489 0.929 . S
H455 C491 0.929 . S
H456 C492 0.931 . S
H457 C494 0.929 . S
N458 C478 1.433 . S
N458 C484 1.435 . S
N458 C490 1.423 . S
H459 C495 0.932 . S
C460 N435 1.433 . S
C460 C461 1.363 . S
C460 C465 1.370 . S
C461 H434 0.929 . S
C461 C460 1.363 . S
C461 C462 1.385 . S
C462 H436 0.930 . S
C462 C461 1.385 . S
C462 C463 1.357 . S
C463 C462 1.357 . S
C463 C464 1.406 . S
C464 H438 0.929 . S
C464 C463 1.406 . S
C464 C465 1.391 . S
C465 H437 0.931 . S
C465 C460 1.370 . S
C465 C464 1.391 . S
C466 N435 1.435 . S
C466 C467 1.358 . S
C466 C471 1.371 . S
C467 H439 0.930 . S
C467 C466 1.358 . S
C467 C468 1.405 . S
C468 H440 0.932 . S
C468 C467 1.405 . S
C468 C469 1.383 . S
C469 C468 1.383 . S
C469 C470 1.393 . S
C470 H442 0.931 . S
C470 C469 1.393 . S
C470 C471 1.382 . S
C471 H441 0.929 . S
C471 C466 1.371 . S
C471 C470 1.382 . S
C472 N435 1.423 . S
C472 C473 1.362 . S
C472 C477 1.388 . S
C473 H443 0.929 . S
C473 C472 1.362 . S
C473 C474 1.376 . S
C474 H445 0.931 . S
C474 C473 1.376 . S
C474 C475 1.396 . S
C475 C474 1.396 . S
C475 C476 1.348 . S
C475 C493 1.472 . S
C476 H446 0.929 . S
C476 C475 1.348 . S
C476 C477 1.443 . S
C477 H444 0.932 . S
C477 C472 1.388 . S
C477 C476 1.443 . S
C478 N458 1.433 . S
C478 C479 1.363 . S
C478 C483 1.370 . S
C479 H447 0.929 . S
C479 C478 1.363 . S
C479 C480 1.385 . S
C480 H448 0.930 . S
C480 C479 1.385 . S
C480 C481 1.357 . S
C481 C480 1.357 . S
C481 C482 1.406 . S
C482 H449 0.929 . S
C482 C481 1.406 . S
C482 C483 1.391 . S
C483 H450 0.931 . S
C483 C478 1.370 . S
C483 C482 1.391 . S
C484 N458 1.435 . S
C484 C485 1.358 . S
C484 C489 1.371 . S
C485 H451 0.930 . S
C485 C484 1.358 . S
C485 C486 1.405 . S
C486 H452 0.932 . S
C486 C485 1.405 . S
C486 C487 1.383 . S
C487 C486 1.383 . S
C487 C488 1.393 . S
C488 H453 0.931 . S
C488 C487 1.393 . S
C488 C489 1.382 . S
C489 H454 0.929 . S
C489 C484 1.371 . S
C489 C488 1.382 . S
C490 N458 1.423 . S
C490 C491 1.362 . S
C490 C495 1.388 . S
C491 H455 0.929 . S
C491 C490 1.362 . S
C491 C492 1.376 . S
C492 H456 0.931 . S
C492 C491 1.376 . S
C492 C493 1.396 . S
C493 C475 1.472 . S
C493 C492 1.396 . S
C493 C494 1.348 . S
C494 H457 0.929 . S
C494 C493 1.348 . S
C494 C495 1.443 . S
C495 H459 0.932 . S
C495 C490 1.388 . S
C495 C494 1.443 . S
C496 O498 1.247 . S
C496 O500 1.258 . S
C497 O504 1.247 . S
C497 O505 1.258 . S
O498 C496 1.247 . S
O498 Zn499 2.028 1_655 S
Zn499 O498 2.028 1_455 S
Zn499 O503 2.035 . S
Zn499 O505 2.035 . S
Zn499 O506 2.028 1_455 S
O500 C496 1.258 . S
O500 Zn501 2.035 1_655 S
Zn501 O500 2.035 1_455 S
Zn501 O502 2.028 . S
Zn501 O504 2.028 . S
Zn501 O507 2.035 1_455 S
O502 Zn501 2.028 . S
O502 C508 1.247 . S
O503 Zn499 2.035 . S
O503 C508 1.258 . S
O504 C497 1.247 . S
O504 Zn501 2.028 . S
O505 C497 1.258 . S
O505 Zn499 2.035 . S
O506 Zn499 2.028 1_655 S
O506 C509 1.247 . S
O507 Zn501 2.035 1_655 S
O507 C509 1.258 . S
C508 O502 1.247 . S
C508 O503 1.258 . S
C509 O506 1.247 . S
C509 O507 1.258 . S
C510 O512 1.247 . S
C510 O514 1.258 . S
C511 O518 1.247 . S
C511 O519 1.258 . S
O512 C510 1.247 . S
O512 Zn513 2.028 . S
Zn513 O512 2.028 . S
Zn513 O517 2.035 1_545 S
Zn513 O519 2.035 1_545 S
Zn513 O520 2.028 . S
O514 C510 1.258 . S
O514 Zn515 2.035 . S
Zn515 O514 2.035 . S
Zn515 O516 2.028 1_545 S
Zn515 O518 2.028 1_545 S
Zn515 O521 2.035 . S
O516 Zn515 2.028 1_565 S
O516 C522 1.247 . S
O517 Zn513 2.035 1_565 S
O517 C522 1.258 . S
O518 C511 1.247 . S
O518 Zn515 2.028 1_565 S
O519 C511 1.258 . S
O519 Zn513 2.035 1_565 S
O520 Zn513 2.028 . S
O520 C523 1.247 . S
O521 Zn515 2.035 . S
O521 C523 1.258 . S
C522 O516 1.247 . S
C522 O517 1.258 . S
C523 O520 1.247 . S
C523 O521 1.258 . S
C524 O526 1.247 . S
C524 O528 1.258 . S
C525 O532 1.247 . S
C525 O533 1.258 . S
O526 C524 1.247 . S
O526 Zn527 2.028 1_655 S
Zn527 O526 2.028 1_455 S
Zn527 O531 2.035 . S
Zn527 O533 2.035 . S
Zn527 O534 2.028 1_455 S
O528 C524 1.258 . S
O528 Zn529 2.035 1_655 S
Zn529 O528 2.035 1_455 S
Zn529 O530 2.028 . S
Zn529 O532 2.028 . S
Zn529 O535 2.035 1_455 S
O530 Zn529 2.028 . S
O530 C536 1.247 . S
O531 Zn527 2.035 . S
O531 C536 1.258 . S
O532 C525 1.247 . S
O532 Zn529 2.028 . S
O533 C525 1.258 . S
O533 Zn527 2.035 . S
O534 Zn527 2.028 1_655 S
O534 C537 1.247 . S
O535 Zn529 2.035 1_655 S
O535 C537 1.258 . S
C536 O530 1.247 . S
C536 O531 1.258 . S
C537 O534 1.247 . S
C537 O535 1.258 . S
C538 O540 1.247 . S
C538 O542 1.258 . S
C539 O546 1.247 . S
C539 O547 1.258 . S
O540 C538 1.247 . S
O540 Zn541 2.028 . S
Zn541 O540 2.028 . S
Zn541 O545 2.035 1_545 S
Zn541 O547 2.035 1_545 S
Zn541 O548 2.028 . S
O542 C538 1.258 . S
O542 Zn543 2.035 . S
Zn543 O542 2.035 . S
Zn543 O544 2.028 1_545 S
Zn543 O546 2.028 1_545 S
Zn543 O549 2.035 . S
O544 Zn543 2.028 1_565 S
O544 C550 1.247 . S
O545 Zn541 2.035 1_565 S
O545 C550 1.258 . S
O546 C539 1.247 . S
O546 Zn543 2.028 1_565 S
O547 C539 1.258 . S
O547 Zn541 2.035 1_565 S
O548 Zn541 2.028 . S
O548 C551 1.247 . S
O549 Zn543 2.035 . S
O549 C551 1.258 . S
C550 O544 1.247 . S
C550 O545 1.258 . S
C551 O548 1.247 . S
C551 O549 1.258 . S
C552 O554 1.247 . S
C552 O556 1.258 . S
C553 O560 1.247 . S
C553 O561 1.258 . S
O554 C552 1.247 . S
O554 Zn555 2.028 . S
Zn555 O554 2.028 . S
Zn555 O559 2.035 . S
Zn555 O561 2.035 1_554 S
Zn555 O562 2.028 1_554 S
O556 C552 1.258 . S
O556 Zn557 2.035 . S
Zn557 O556 2.035 . S
Zn557 O558 2.028 . S
Zn557 O560 2.028 1_554 S
Zn557 O563 2.035 1_554 S
O558 Zn557 2.028 . S
O558 C564 1.247 . S
O559 Zn555 2.035 . S
O559 C564 1.258 . S
O560 C553 1.247 . S
O560 Zn557 2.028 1_556 S
O561 C553 1.258 . S
O561 Zn555 2.035 1_556 S
O562 Zn555 2.028 1_556 S
O562 C565 1.247 . S
O563 Zn557 2.035 1_556 S
O563 C565 1.258 . S
C564 O558 1.247 . S
C564 O559 1.258 . S
C565 O562 1.247 . S
C565 O563 1.258 . S
C566 O568 1.247 . S
C566 O570 1.258 . S
C567 O574 1.247 . S
C567 O575 1.258 . S
O568 C566 1.247 . S
O568 Zn569 2.028 . S
Zn569 O568 2.028 . S
Zn569 O573 2.035 . S
Zn569 O575 2.035 1_554 S
Zn569 O576 2.028 1_554 S
O570 C566 1.258 . S
O570 Zn571 2.035 . S
Zn571 O570 2.035 . S
Zn571 O572 2.028 . S
Zn571 O574 2.028 1_554 S
Zn571 O577 2.035 1_554 S
O572 Zn571 2.028 . S
O572 C578 1.247 . S
O573 Zn569 2.035 . S
O573 C578 1.258 . S
O574 C567 1.247 . S
O574 Zn571 2.028 1_556 S
O575 C567 1.258 . S
O575 Zn569 2.035 1_556 S
O576 Zn569 2.028 1_556 S
O576 C579 1.247 . S
O577 Zn571 2.035 1_556 S
O577 C579 1.258 . S
C578 O572 1.247 . S
C578 O573 1.258 . S
C579 O576 1.247 . S
C579 O577 1.258 . S
C580 O582 1.247 . S
C580 O584 1.258 . S
C581 O588 1.247 . S
C581 O589 1.258 . S
O582 C580 1.247 . S
O582 Zn583 2.028 1_556 S
Zn583 O582 2.028 1_554 S
Zn583 O587 2.035 1_554 S
Zn583 O589 2.035 . S
Zn583 O590 2.028 . S
O584 C580 1.258 . S
O584 Zn585 2.035 1_556 S
Zn585 O584 2.035 1_554 S
Zn585 O586 2.028 1_554 S
Zn585 O588 2.028 . S
Zn585 O591 2.035 . S
O586 Zn585 2.028 1_556 S
O586 C592 1.247 . S
O587 Zn583 2.035 1_556 S
O587 C592 1.258 . S
O588 C581 1.247 . S
O588 Zn585 2.028 . S
O589 C581 1.258 . S
O589 Zn583 2.035 . S
O590 Zn583 2.028 . S
O590 C593 1.247 . S
O591 Zn585 2.035 . S
O591 C593 1.258 . S
C592 O586 1.247 . S
C592 O587 1.258 . S
C593 O590 1.247 . S
C593 O591 1.258 . S
C594 O596 1.247 . S
C594 O598 1.258 . S
C595 O602 1.247 . S
C595 O603 1.258 . S
O596 C594 1.247 . S
O596 Zn597 2.028 . S
Zn597 O596 2.028 . S
Zn597 O601 2.035 . S
Zn597 O603 2.035 1_554 S
Zn597 O604 2.028 1_554 S
O598 C594 1.258 . S
O598 Zn599 2.035 . S
Zn599 O598 2.035 . S
Zn599 O600 2.028 . S
Zn599 O602 2.028 1_554 S
Zn599 O605 2.035 1_554 S
O600 Zn599 2.028 . S
O600 C606 1.247 . S
O601 Zn597 2.035 . S
O601 C606 1.258 . S
O602 C595 1.247 . S
O602 Zn599 2.028 1_556 S
O603 C595 1.258 . S
O603 Zn597 2.035 1_556 S
O604 Zn597 2.028 1_556 S
O604 C607 1.247 . S
O605 Zn599 2.035 1_556 S
O605 C607 1.258 . S
C606 O600 1.247 . S
C606 O601 1.258 . S
C607 O604 1.247 . S
C607 O605 1.258 . S
C608 C609 1.363 . S
C608 C614 1.379 . S
C608 N616 1.356 . S
C609 C608 1.363 . S
C609 C615 1.363 . S
C610 C611 1.363 . S
C610 C615 1.379 . S
C610 N617 1.356 . S
C611 C610 1.363 . S
C611 C614 1.363 . S
N612 C614 1.356 . S
N612 H624 0.984 . S
N612 H625 0.985 . S
N613 C615 1.356 . S
N613 H618 0.984 . S
N613 H619 0.985 . S
C614 C608 1.379 . S
C614 C611 1.363 . S
C614 N612 1.356 . S
C615 C609 1.363 . S
C615 C610 1.379 . S
C615 N613 1.356 . S
N616 C608 1.356 . S
N616 H622 0.984 . S
N616 H623 0.984 . S
N617 C610 1.356 . S
N617 H620 0.984 . S
N617 H621 0.985 . S
H618 N613 0.984 . S
H619 N613 0.985 . S
H620 N617 0.984 . S
H621 N617 0.985 . S
H622 N616 0.984 . S
H623 N616 0.984 . S
H624 N612 0.984 . S
H625 N612 0.985 . S
C626 C627 1.363 . S
C626 C632 1.379 . S
C626 N634 1.356 . S
C627 C626 1.363 . S
C627 C633 1.363 . S
C628 C629 1.363 . S
C628 C633 1.379 . S
C628 N635 1.356 . S
C629 C628 1.363 . S
C629 C632 1.363 . S
N630 C632 1.356 . S
N630 H642 0.984 . S
N630 H643 0.985 . S
N631 C633 1.356 . S
N631 H636 0.984 . S
N631 H637 0.985 . S
C632 C626 1.379 . S
C632 C629 1.363 . S
C632 N630 1.356 . S
C633 C627 1.363 . S
C633 C628 1.379 . S
C633 N631 1.356 . S
N634 C626 1.356 . S
N634 H640 0.984 . S
N634 H641 0.984 . S
N635 C628 1.356 . S
N635 H638 0.984 . S
N635 H639 0.985 . S
H636 N631 0.984 . S
H637 N631 0.985 . S
H638 N635 0.984 . S
H639 N635 0.985 . S
H640 N634 0.984 . S
H641 N634 0.984 . S
H642 N630 0.984 . S
H643 N630 0.985 . S
C644 C645 1.363 . S
C644 C650 1.379 . S
C644 N652 1.356 . S
C645 C644 1.363 . S
C645 C651 1.363 . S
C646 C647 1.363 . S
C646 C651 1.379 . S
C646 N653 1.356 . S
C647 C646 1.363 . S
C647 C650 1.363 . S
N648 C650 1.356 . S
N648 H660 0.984 . S
N648 H661 0.985 . S
N649 C651 1.356 . S
N649 H654 0.984 . S
N649 H655 0.985 . S
C650 C644 1.379 . S
C650 C647 1.363 . S
C650 N648 1.356 . S
C651 C645 1.363 . S
C651 C646 1.379 . S
C651 N649 1.356 . S
N652 C644 1.356 . S
N652 H658 0.984 . S
N652 H659 0.984 . S
N653 C646 1.356 . S
N653 H656 0.984 . S
N653 H657 0.985 . S
H654 N649 0.984 . S
H655 N649 0.985 . S
H656 N653 0.984 . S
H657 N653 0.985 . S
H658 N652 0.984 . S
H659 N652 0.984 . S
H660 N648 0.984 . S
H661 N648 0.985 . S
C662 C663 1.363 . S
C662 C668 1.379 . S
C662 N670 1.356 . S
C663 C662 1.363 . S
C663 C669 1.363 . S
C664 C665 1.363 . S
C664 C669 1.379 . S
C664 N671 1.356 . S
C665 C664 1.363 . S
C665 C668 1.363 . S
N666 C668 1.356 . S
N666 H678 0.984 . S
N666 H679 0.985 . S
N667 C669 1.356 . S
N667 H672 0.984 . S
N667 H673 0.985 . S
C668 C662 1.379 . S
C668 C665 1.363 . S
C668 N666 1.356 . S
C669 C663 1.363 . S
C669 C664 1.379 . S
C669 N667 1.356 . S
N670 C662 1.356 . S
N670 H676 0.984 . S
N670 H677 0.984 . S
N671 C664 1.356 . S
N671 H674 0.984 . S
N671 H675 0.985 . S
H672 N667 0.984 . S
H673 N667 0.985 . S
H674 N671 0.984 . S
H675 N671 0.985 . S
H676 N670 0.984 . S
H677 N670 0.984 . S
H678 N666 0.984 . S
H679 N666 0.985 . S
C680 C681 1.363 . S
C680 C686 1.379 . S
C680 N688 1.356 . S
C681 C680 1.363 . S
C681 C687 1.363 . S
C682 C683 1.363 . S
C682 C687 1.379 . S
C682 N689 1.356 . S
C683 C682 1.363 . S
C683 C686 1.363 . S
N684 C686 1.356 . S
N684 H696 0.984 . S
N684 H697 0.985 . S
N685 C687 1.356 . S
N685 H690 0.984 . S
N685 H691 0.985 . S
C686 C680 1.379 . S
C686 C683 1.363 . S
C686 N684 1.356 . S
C687 C681 1.363 . S
C687 C682 1.379 . S
C687 N685 1.356 . S
N688 C680 1.356 . S
N688 H694 0.984 . S
N688 H695 0.984 . S
N689 C682 1.356 . S
N689 H692 0.984 . S
N689 H693 0.985 . S
H690 N685 0.984 . S
H691 N685 0.985 . S
H692 N689 0.984 . S
H693 N689 0.985 . S
H694 N688 0.984 . S
H695 N688 0.984 . S
H696 N684 0.984 . S
H697 N684 0.985 . S
C698 C699 1.363 . S
C698 C704 1.379 . S
C698 N706 1.356 . S
C699 C698 1.363 . S
C699 C705 1.363 . S
C700 C701 1.363 . S
C700 C705 1.379 . S
C700 N707 1.356 . S
C701 C700 1.363 . S
C701 C704 1.363 . S
N702 C704 1.356 . S
N702 H714 0.984 . S
N702 H715 0.985 . S
N703 C705 1.356 . S
N703 H708 0.984 . S
N703 H709 0.985 . S
C704 C698 1.379 . S
C704 C701 1.363 . S
C704 N702 1.356 . S
C705 C699 1.363 . S
C705 C700 1.379 . S
C705 N703 1.356 . S
N706 C698 1.356 . S
N706 H712 0.984 . S
N706 H713 0.984 . S
N707 C700 1.356 . S
N707 H710 0.984 . S
N707 H711 0.985 . S
H708 N703 0.984 . S
H709 N703 0.985 . S
H710 N707 0.984 . S
H711 N707 0.985 . S
H712 N706 0.984 . S
H713 N706 0.984 . S
H714 N702 0.984 . S
H715 N702 0.985 . S
C716 C717 1.363 . S
C716 C722 1.379 . S
C716 N724 1.356 . S
C717 C716 1.363 . S
C717 C723 1.363 . S
C718 C719 1.363 . S
C718 C723 1.379 . S
C718 N725 1.356 . S
C719 C718 1.363 . S
C719 C722 1.363 . S
N720 C722 1.356 . S
N720 H732 0.984 . S
N720 H733 0.985 . S
N721 C723 1.356 . S
N721 H726 0.984 . S
N721 H727 0.985 . S
C722 C716 1.379 . S
C722 C719 1.363 . S
C722 N720 1.356 . S
C723 C717 1.363 . S
C723 C718 1.379 . S
C723 N721 1.356 . S
N724 C716 1.356 . S
N724 H730 0.984 . S
N724 H731 0.984 . S
N725 C718 1.356 . S
N725 H728 0.984 . S
N725 H729 0.985 . S
H726 N721 0.984 . S
H727 N721 0.985 . S
H728 N725 0.984 . S
H729 N725 0.985 . S
H730 N724 0.984 . S
H731 N724 0.984 . S
H732 N720 0.984 . S
H733 N720 0.985 . S
C734 C735 1.363 . S
C734 C740 1.379 . S
C734 N742 1.356 . S
C735 C734 1.363 . S
C735 C741 1.363 . S
C736 C737 1.363 . S
C736 C741 1.379 . S
C736 N743 1.356 . S
C737 C736 1.363 . S
C737 C740 1.363 . S
N738 C740 1.356 . S
N738 H750 0.984 . S
N738 H751 0.985 . S
N739 C741 1.356 . S
N739 H744 0.984 . S
N739 H745 0.985 . S
C740 C734 1.379 . S
C740 C737 1.363 . S
C740 N738 1.356 . S
C741 C735 1.363 . S
C741 C736 1.379 . S
C741 N739 1.356 . S
N742 C734 1.356 . S
N742 H748 0.984 . S
N742 H749 0.984 . S
N743 C736 1.356 . S
N743 H746 0.984 . S
N743 H747 0.985 . S
H744 N739 0.984 . S
H745 N739 0.985 . S
H746 N743 0.984 . S
H747 N743 0.985 . S
H748 N742 0.984 . S
H749 N742 0.984 . S
H750 N738 0.984 . S
H751 N738 0.985 . S
C752 C753 1.363 . S
C752 C758 1.379 . S
C752 N760 1.356 . S
C753 C752 1.363 . S
C753 C759 1.363 . S
C754 C755 1.363 . S
C754 C759 1.379 . S
C754 N761 1.356 . S
C755 C754 1.363 . S
C755 C758 1.363 . S
N756 C758 1.356 . S
N756 H768 0.984 . S
N756 H769 0.985 . S
N757 C759 1.356 . S
N757 H762 0.984 . S
N757 H763 0.985 . S
C758 C752 1.379 . S
C758 C755 1.363 . S
C758 N756 1.356 . S
C759 C753 1.363 . S
C759 C754 1.379 . S
C759 N757 1.356 . S
N760 C752 1.356 . S
N760 H766 0.984 . S
N760 H767 0.984 . S
N761 C754 1.356 . S
N761 H764 0.984 . S
N761 H765 0.985 . S
H762 N757 0.984 . S
H763 N757 0.985 . S
H764 N761 0.984 . S
H765 N761 0.985 . S
H766 N760 0.984 . S
H767 N760 0.984 . S
H768 N756 0.984 . S
H769 N756 0.985 . S
C770 C771 1.363 . S
C770 C776 1.379 . S
C770 N778 1.356 . S
C771 C770 1.363 . S
C771 C777 1.363 . S
C772 C773 1.363 . S
C772 C777 1.379 . S
C772 N779 1.356 . S
C773 C772 1.363 . S
C773 C776 1.363 . S
N774 C776 1.356 . S
N774 H786 0.984 . S
N774 H787 0.985 . S
N775 C777 1.356 . S
N775 H780 0.984 . S
N775 H781 0.985 . S
C776 C770 1.379 . S
C776 C773 1.363 . S
C776 N774 1.356 . S
C777 C771 1.363 . S
C777 C772 1.379 . S
C777 N775 1.356 . S
N778 C770 1.356 . S
N778 H784 0.984 . S
N778 H785 0.984 . S
N779 C772 1.356 . S
N779 H782 0.984 . S
N779 H783 0.985 . S
H780 N775 0.984 . S
H781 N775 0.985 . S
H782 N779 0.984 . S
H783 N779 0.985 . S
H784 N778 0.984 . S
H785 N778 0.984 . S
H786 N774 0.984 . S
H787 N774 0.985 . S
C788 C789 1.363 . S
C788 C794 1.379 . S
C788 N796 1.356 . S
C789 C788 1.363 . S
C789 C795 1.363 . S
C790 C791 1.363 . S
C790 C795 1.379 . S
C790 N797 1.356 . S
C791 C790 1.363 . S
C791 C794 1.363 . S
N792 C794 1.356 . S
N792 H804 0.984 . S
N792 H805 0.985 . S
N793 C795 1.356 . S
N793 H798 0.984 . S
N793 H799 0.985 . S
C794 C788 1.379 . S
C794 C791 1.363 . S
C794 N792 1.356 . S
C795 C789 1.363 . S
C795 C790 1.379 . S
C795 N793 1.356 . S
N796 C788 1.356 . S
N796 H802 0.984 . S
N796 H803 0.984 . S
N797 C790 1.356 . S
N797 H800 0.984 . S
N797 H801 0.985 . S
H798 N793 0.984 . S
H799 N793 0.985 . S
H800 N797 0.984 . S
H801 N797 0.985 . S
H802 N796 0.984 . S
H803 N796 0.984 . S
H804 N792 0.984 . S
H805 N792 0.985 . S
C806 C807 1.363 . S
C806 C812 1.379 . S
C806 N814 1.356 . S
C807 C806 1.363 . S
C807 C813 1.363 . S
C808 C809 1.363 . S
C808 C813 1.379 . S
C808 N815 1.356 . S
C809 C808 1.363 . S
C809 C812 1.363 . S
N810 C812 1.356 . S
N810 H822 0.984 . S
N810 H823 0.985 . S
N811 C813 1.356 . S
N811 H816 0.984 . S
N811 H817 0.985 . S
C812 C806 1.379 . S
C812 C809 1.363 . S
C812 N810 1.356 . S
C813 C807 1.363 . S
C813 C808 1.379 . S
C813 N811 1.356 . S
N814 C806 1.356 . S
N814 H820 0.984 . S
N814 H821 0.984 . S
N815 C808 1.356 . S
N815 H818 0.984 . S
N815 H819 0.985 . S
H816 N811 0.984 . S
H817 N811 0.985 . S
H818 N815 0.984 . S
H819 N815 0.985 . S
H820 N814 0.984 . S
H821 N814 0.984 . S
H822 N810 0.984 . S
H823 N810 0.985 . S
C824 C825 1.363 . S
C824 C830 1.379 . S
C824 N832 1.356 . S
C825 C824 1.363 . S
C825 C831 1.363 . S
C826 C827 1.363 . S
C826 C831 1.379 . S
C826 N833 1.356 . S
C827 C826 1.363 . S
C827 C830 1.363 . S
N828 C830 1.356 . S
N828 H840 0.984 . S
N828 H841 0.985 . S
N829 C831 1.356 . S
N829 H834 0.984 . S
N829 H835 0.985 . S
C830 C824 1.379 . S
C830 C827 1.363 . S
C830 N828 1.356 . S
C831 C825 1.363 . S
C831 C826 1.379 . S
C831 N829 1.356 . S
N832 C824 1.356 . S
N832 H838 0.984 . S
N832 H839 0.984 . S
N833 C826 1.356 . S
N833 H836 0.984 . S
N833 H837 0.985 . S
H834 N829 0.984 . S
H835 N829 0.985 . S
H836 N833 0.984 . S
H837 N833 0.985 . S
H838 N832 0.984 . S
H839 N832 0.984 . S
H840 N828 0.984 . S
H841 N828 0.985 . S
C842 C843 1.363 . S
C842 C848 1.379 . S
C842 N850 1.356 . S
C843 C842 1.363 . S
C843 C849 1.363 . S
C844 C845 1.363 . S
C844 C849 1.379 . S
C844 N851 1.356 . S
C845 C844 1.363 . S
C845 C848 1.363 . S
N846 C848 1.356 . S
N846 H858 0.984 . S
N846 H859 0.985 . S
N847 C849 1.356 . S
N847 H852 0.984 . S
N847 H853 0.985 . S
C848 C842 1.379 . S
C848 C845 1.363 . S
C848 N846 1.356 . S
C849 C843 1.363 . S
C849 C844 1.379 . S
C849 N847 1.356 . S
N850 C842 1.356 . S
N850 H856 0.984 . S
N850 H857 0.984 . S
N851 C844 1.356 . S
N851 H854 0.984 . S
N851 H855 0.985 . S
H852 N847 0.984 . S
H853 N847 0.985 . S
H854 N851 0.984 . S
H855 N851 0.985 . S
H856 N850 0.984 . S
H857 N850 0.984 . S
H858 N846 0.984 . S
H859 N846 0.985 . S
C860 C861 1.363 . S
C860 C866 1.379 . S
C860 N868 1.356 . S
C861 C860 1.363 . S
C861 C867 1.363 . S
C862 C863 1.363 . S
C862 C867 1.379 . S
C862 N869 1.356 . S
C863 C862 1.363 . S
C863 C866 1.363 . S
N864 C866 1.356 . S
N864 H876 0.984 . S
N864 H877 0.985 . S
N865 C867 1.356 . S
N865 H870 0.984 . S
N865 H871 0.985 . S
C866 C860 1.379 . S
C866 C863 1.363 . S
C866 N864 1.356 . S
C867 C861 1.363 . S
C867 C862 1.379 . S
C867 N865 1.356 . S
N868 C860 1.356 . S
N868 H874 0.984 . S
N868 H875 0.984 . S
N869 C862 1.356 . S
N869 H872 0.984 . S
N869 H873 0.985 . S
H870 N865 0.984 . S
H871 N865 0.985 . S
H872 N869 0.984 . S
H873 N869 0.985 . S
H874 N868 0.984 . S
H875 N868 0.984 . S
H876 N864 0.984 . S
H877 N864 0.985 . S
C878 C879 1.363 . S
C878 C884 1.379 . S
C878 N886 1.356 . S
C879 C878 1.363 . S
C879 C885 1.363 . S
C880 C881 1.363 . S
C880 C885 1.379 . S
C880 N887 1.356 . S
C881 C880 1.363 . S
C881 C884 1.363 . S
N882 C884 1.356 . S
N882 H894 0.984 . S
N882 H895 0.985 . S
N883 C885 1.356 . S
N883 H888 0.984 . S
N883 H889 0.985 . S
C884 C878 1.379 . S
C884 C881 1.363 . S
C884 N882 1.356 . S
C885 C879 1.363 . S
C885 C880 1.379 . S
C885 N883 1.356 . S
N886 C878 1.356 . S
N886 H892 0.984 . S
N886 H893 0.984 . S
N887 C880 1.356 . S
N887 H890 0.984 . S
N887 H891 0.985 . S
H888 N883 0.984 . S
H889 N883 0.985 . S
H890 N887 0.984 . S
H891 N887 0.985 . S
H892 N886 0.984 . S
H893 N886 0.984 . S
H894 N882 0.984 . S
H895 N882 0.985 . S
C896 C897 1.363 . S
C896 C902 1.379 . S
C896 N904 1.356 . S
C897 C896 1.363 . S
C897 C903 1.363 . S
C898 C899 1.363 . S
C898 C903 1.379 . S
C898 N905 1.356 . S
C899 C898 1.363 . S
C899 C902 1.363 . S
N900 C902 1.356 . S
N900 H912 0.984 . S
N900 H913 0.985 . S
N901 C903 1.356 . S
N901 H906 0.984 . S
N901 H907 0.985 . S
C902 C896 1.379 . S
C902 C899 1.363 . S
C902 N900 1.356 . S
C903 C897 1.363 . S
C903 C898 1.379 . S
C903 N901 1.356 . S
N904 C896 1.356 . S
N904 H910 0.984 . S
N904 H911 0.984 . S
N905 C898 1.356 . S
N905 H908 0.984 . S
N905 H909 0.985 . S
H906 N901 0.984 . S
H907 N901 0.985 . S
H908 N905 0.984 . S
H909 N905 0.985 . S
H910 N904 0.984 . S
H911 N904 0.984 . S
H912 N900 0.984 . S
H913 N900 0.985 . S
C914 C915 1.363 . S
C914 C920 1.379 . S
C914 N922 1.356 . S
C915 C914 1.363 . S
C915 C921 1.363 . S
C916 C917 1.363 . S
C916 C921 1.379 . S
C916 N923 1.356 . S
C917 C916 1.363 . S
C917 C920 1.363 . S
N918 C920 1.356 . S
N918 H930 0.984 . S
N918 H931 0.985 . S
N919 C921 1.356 . S
N919 H924 0.984 . S
N919 H925 0.985 . S
C920 C914 1.379 . S
C920 C917 1.363 . S
C920 N918 1.356 . S
C921 C915 1.363 . S
C921 C916 1.379 . S
C921 N919 1.356 . S
N922 C914 1.356 . S
N922 H928 0.984 . S
N922 H929 0.984 . S
N923 C916 1.356 . S
N923 H926 0.984 . S
N923 H927 0.985 . S
H924 N919 0.984 . S
H925 N919 0.985 . S
H926 N923 0.984 . S
H927 N923 0.985 . S
H928 N922 0.984 . S
H929 N922 0.984 . S
H930 N918 0.984 . S
H931 N918 0.985 . S
C932 C933 1.363 . S
C932 C938 1.379 . S
C932 N940 1.356 . S
C933 C932 1.363 . S
C933 C939 1.363 . S
C934 C935 1.363 . S
C934 C939 1.379 . S
C934 N941 1.356 . S
C935 C934 1.363 . S
C935 C938 1.363 . S
N936 C938 1.356 . S
N936 H948 0.984 . S
N936 H949 0.985 . S
N937 C939 1.356 . S
N937 H942 0.984 . S
N937 H943 0.985 . S
C938 C932 1.379 . S
C938 C935 1.363 . S
C938 N936 1.356 . S
C939 C933 1.363 . S
C939 C934 1.379 . S
C939 N937 1.356 . S
N940 C932 1.356 . S
N940 H946 0.984 . S
N940 H947 0.984 . S
N941 C934 1.356 . S
N941 H944 0.984 . S
N941 H945 0.985 . S
H942 N937 0.984 . S
H943 N937 0.985 . S
H944 N941 0.984 . S
H945 N941 0.985 . S
H946 N940 0.984 . S
H947 N940 0.984 . S
H948 N936 0.984 . S
H949 N936 0.985 . S
C950 C951 1.363 . S
C950 C956 1.379 . S
C950 N958 1.356 . S
C951 C950 1.363 . S
C951 C957 1.363 . S
C952 C953 1.363 . S
C952 C957 1.379 . S
C952 N959 1.356 . S
C953 C952 1.363 . S
C953 C956 1.363 . S
N954 C956 1.356 . S
N954 H966 0.984 . S
N954 H967 0.985 . S
N955 C957 1.356 . S
N955 H960 0.984 . S
N955 H961 0.985 . S
C956 C950 1.379 . S
C956 C953 1.363 . S
C956 N954 1.356 . S
C957 C951 1.363 . S
C957 C952 1.379 . S
C957 N955 1.356 . S
N958 C950 1.356 . S
N958 H964 0.984 . S
N958 H965 0.984 . S
N959 C952 1.356 . S
N959 H962 0.984 . S
N959 H963 0.985 . S
H960 N955 0.984 . S
H961 N955 0.985 . S
H962 N959 0.984 . S
H963 N959 0.985 . S
H964 N958 0.984 . S
H965 N958 0.984 . S
H966 N954 0.984 . S
H967 N954 0.985 . S
C968 C969 1.363 . S
C968 C974 1.379 . S
C968 N976 1.356 . S
C969 C968 1.363 . S
C969 C975 1.363 . S
C970 C971 1.363 . S
C970 C975 1.379 . S
C970 N977 1.356 . S
C971 C970 1.363 . S
C971 C974 1.363 . S
N972 C974 1.356 . S
N972 H984 0.984 . S
N972 H985 0.985 . S
N973 C975 1.356 . S
N973 H978 0.984 . S
N973 H979 0.985 . S
C974 C968 1.379 . S
C974 C971 1.363 . S
C974 N972 1.356 . S
C975 C969 1.363 . S
C975 C970 1.379 . S
C975 N973 1.356 . S
N976 C968 1.356 . S
N976 H982 0.984 . S
N976 H983 0.984 . S
N977 C970 1.356 . S
N977 H980 0.984 . S
N977 H981 0.985 . S
H978 N973 0.984 . S
H979 N973 0.985 . S
H980 N977 0.984 . S
H981 N977 0.985 . S
H982 N976 0.984 . S
H983 N976 0.984 . S
H984 N972 0.984 . S
H985 N972 0.985 . S
C986 C987 1.363 . S
C986 C992 1.379 . S
C986 N994 1.356 . S
C987 C986 1.363 . S
C987 C993 1.363 . S
C988 C989 1.363 . S
C988 C993 1.379 . S
C988 N995 1.356 . S
C989 C988 1.363 . S
C989 C992 1.363 . S
N990 C992 1.356 . S
N990 H1002 0.984 . S
N990 H1003 0.985 . S
N991 C993 1.356 . S
N991 H996 0.984 . S
N991 H997 0.985 . S
C992 C986 1.379 . S
C992 C989 1.363 . S
C992 N990 1.356 . S
C993 C987 1.363 . S
C993 C988 1.379 . S
C993 N991 1.356 . S
N994 C986 1.356 . S
N994 H1000 0.984 . S
N994 H1001 0.984 . S
N995 C988 1.356 . S
N995 H998 0.984 . S
N995 H999 0.985 . S
H996 N991 0.984 . S
H997 N991 0.985 . S
H998 N995 0.984 . S
H999 N995 0.985 . S
H1000 N994 0.984 . S
H1001 N994 0.984 . S
H1002 N990 0.984 . S
H1003 N990 0.985 . S
C1004 C1005 1.363 . S
C1004 C1010 1.379 . S
C1004 N1012 1.356 . S
C1005 C1004 1.363 . S
C1005 C1011 1.363 . S
C1006 C1007 1.363 . S
C1006 C1011 1.379 . S
C1006 N1013 1.356 . S
C1007 C1006 1.363 . S
C1007 C1010 1.363 . S
N1008 C1010 1.356 . S
N1008 H1020 0.984 . S
N1008 H1021 0.985 . S
N1009 C1011 1.356 . S
N1009 H1014 0.984 . S
N1009 H1015 0.985 . S
C1010 C1004 1.379 . S
C1010 C1007 1.363 . S
C1010 N1008 1.356 . S
C1011 C1005 1.363 . S
C1011 C1006 1.379 . S
C1011 N1009 1.356 . S
N1012 C1004 1.356 . S
N1012 H1018 0.984 . S
N1012 H1019 0.984 . S
N1013 C1006 1.356 . S
N1013 H1016 0.984 . S
N1013 H1017 0.985 . S
H1014 N1009 0.984 . S
H1015 N1009 0.985 . S
H1016 N1013 0.984 . S
H1017 N1013 0.985 . S
H1018 N1012 0.984 . S
H1019 N1012 0.984 . S
H1020 N1008 0.984 . S
H1021 N1008 0.985 . S
C1022 C1023 1.363 . S
C1022 C1028 1.379 . S
C1022 N1030 1.356 . S
C1023 C1022 1.363 . S
C1023 C1029 1.363 . S
C1024 C1025 1.363 . S
C1024 C1029 1.379 . S
C1024 N1031 1.356 . S
C1025 C1024 1.363 . S
C1025 C1028 1.363 . S
N1026 C1028 1.356 . S
N1026 H1038 0.984 . S
N1026 H1039 0.985 . S
N1027 C1029 1.356 . S
N1027 H1032 0.984 . S
N1027 H1033 0.985 . S
C1028 C1022 1.379 . S
C1028 C1025 1.363 . S
C1028 N1026 1.356 . S
C1029 C1023 1.363 . S
C1029 C1024 1.379 . S
C1029 N1027 1.356 . S
N1030 C1022 1.356 . S
N1030 H1036 0.984 . S
N1030 H1037 0.984 . S
N1031 C1024 1.356 . S
N1031 H1034 0.984 . S
N1031 H1035 0.985 . S
H1032 N1027 0.984 . S
H1033 N1027 0.985 . S
H1034 N1031 0.984 . S
H1035 N1031 0.985 . S
H1036 N1030 0.984 . S
H1037 N1030 0.984 . S
H1038 N1026 0.984 . S
H1039 N1026 0.985 . S
C1040 C1041 1.363 . S
C1040 C1046 1.379 . S
C1040 N1048 1.356 . S
C1041 C1040 1.363 . S
C1041 C1047 1.363 . S
C1042 C1043 1.363 . S
C1042 C1047 1.379 . S
C1042 N1049 1.356 . S
C1043 C1042 1.363 . S
C1043 C1046 1.363 . S
N1044 C1046 1.356 . S
N1044 H1056 0.984 . S
N1044 H1057 0.985 . S
N1045 C1047 1.356 . S
N1045 H1050 0.984 . S
N1045 H1051 0.985 . S
C1046 C1040 1.379 . S
C1046 C1043 1.363 . S
C1046 N1044 1.356 . S
C1047 C1041 1.363 . S
C1047 C1042 1.379 . S
C1047 N1045 1.356 . S
N1048 C1040 1.356 . S
N1048 H1054 0.984 . S
N1048 H1055 0.984 . S
N1049 C1042 1.356 . S
N1049 H1052 0.984 . S
N1049 H1053 0.985 . S
H1050 N1045 0.984 . S
H1051 N1045 0.985 . S
H1052 N1049 0.984 . S
H1053 N1049 0.985 . S
H1054 N1048 0.984 . S
H1055 N1048 0.984 . S
H1056 N1044 0.984 . S
H1057 N1044 0.985 . S
C1058 C1059 1.363 . S
C1058 C1064 1.379 . S
C1058 N1066 1.356 . S
C1059 C1058 1.363 . S
C1059 C1065 1.363 . S
C1060 C1061 1.363 . S
C1060 C1065 1.379 . S
C1060 N1067 1.356 . S
C1061 C1060 1.363 . S
C1061 C1064 1.363 . S
N1062 C1064 1.356 . S
N1062 H1074 0.984 . S
N1062 H1075 0.985 . S
N1063 C1065 1.356 . S
N1063 H1068 0.984 . S
N1063 H1069 0.985 . S
C1064 C1058 1.379 . S
C1064 C1061 1.363 . S
C1064 N1062 1.356 . S
C1065 C1059 1.363 . S
C1065 C1060 1.379 . S
C1065 N1063 1.356 . S
N1066 C1058 1.356 . S
N1066 H1072 0.984 . S
N1066 H1073 0.984 . S
N1067 C1060 1.356 . S
N1067 H1070 0.984 . S
N1067 H1071 0.985 . S
H1068 N1063 0.984 . S
H1069 N1063 0.985 . S
H1070 N1067 0.984 . S
H1071 N1067 0.985 . S
H1072 N1066 0.984 . S
H1073 N1066 0.984 . S
H1074 N1062 0.984 . S
H1075 N1062 0.985 . S
C1076 C1077 1.363 . S
C1076 C1082 1.379 . S
C1076 N1084 1.356 . S
C1077 C1076 1.363 . S
C1077 C1083 1.363 . S
C1078 C1079 1.363 . S
C1078 C1083 1.379 . S
C1078 N1085 1.356 . S
C1079 C1078 1.363 . S
C1079 C1082 1.363 . S
N1080 C1082 1.356 . S
N1080 H1092 0.984 . S
N1080 H1093 0.985 . S
N1081 C1083 1.356 . S
N1081 H1086 0.984 . S
N1081 H1087 0.985 . S
C1082 C1076 1.379 . S
C1082 C1079 1.363 . S
C1082 N1080 1.356 . S
C1083 C1077 1.363 . S
C1083 C1078 1.379 . S
C1083 N1081 1.356 . S
N1084 C1076 1.356 . S
N1084 H1090 0.984 . S
N1084 H1091 0.984 . S
N1085 C1078 1.356 . S
N1085 H1088 0.984 . S
N1085 H1089 0.985 . S
H1086 N1081 0.984 . S
H1087 N1081 0.985 . S
H1088 N1085 0.984 . S
H1089 N1085 0.985 . S
H1090 N1084 0.984 . S
H1091 N1084 0.984 . S
H1092 N1080 0.984 . S
H1093 N1080 0.985 . S
C1094 C1095 1.363 . S
C1094 C1100 1.379 . S
C1094 N1102 1.356 . S
C1095 C1094 1.363 . S
C1095 C1101 1.363 . S
C1096 C1097 1.363 . S
C1096 C1101 1.379 . S
C1096 N1103 1.356 . S
C1097 C1096 1.363 . S
C1097 C1100 1.363 . S
N1098 C1100 1.356 . S
N1098 H1110 0.984 . S
N1098 H1111 0.985 . S
N1099 C1101 1.356 . S
N1099 H1104 0.984 . S
N1099 H1105 0.985 . S
C1100 C1094 1.379 . S
C1100 C1097 1.363 . S
C1100 N1098 1.356 . S
C1101 C1095 1.363 . S
C1101 C1096 1.379 . S
C1101 N1099 1.356 . S
N1102 C1094 1.356 . S
N1102 H1108 0.984 . S
N1102 H1109 0.984 . S
N1103 C1096 1.356 . S
N1103 H1106 0.984 . S
N1103 H1107 0.985 . S
H1104 N1099 0.984 . S
H1105 N1099 0.985 . S
H1106 N1103 0.984 . S
H1107 N1103 0.985 . S
H1108 N1102 0.984 . S
H1109 N1102 0.984 . S
H1110 N1098 0.984 . S
H1111 N1098 0.985 . S
C1112 C1113 1.363 . S
C1112 C1118 1.379 . S
C1112 N1120 1.356 . S
C1113 C1112 1.363 . S
C1113 C1119 1.363 . S
C1114 C1115 1.363 . S
C1114 C1119 1.379 . S
C1114 N1121 1.356 . S
C1115 C1114 1.363 . S
C1115 C1118 1.363 . S
N1116 C1118 1.356 . S
N1116 H1128 0.984 . S
N1116 H1129 0.985 . S
N1117 C1119 1.356 . S
N1117 H1122 0.984 . S
N1117 H1123 0.985 . S
C1118 C1112 1.379 . S
C1118 C1115 1.363 . S
C1118 N1116 1.356 . S
C1119 C1113 1.363 . S
C1119 C1114 1.379 . S
C1119 N1117 1.356 . S
N1120 C1112 1.356 . S
N1120 H1126 0.984 . S
N1120 H1127 0.984 . S
N1121 C1114 1.356 . S
N1121 H1124 0.984 . S
N1121 H1125 0.985 . S
H1122 N1117 0.984 . S
H1123 N1117 0.985 . S
H1124 N1121 0.984 . S
H1125 N1121 0.985 . S
H1126 N1120 0.984 . S
H1127 N1120 0.984 . S
H1128 N1116 0.984 . S
H1129 N1116 0.985 . S
C1130 C1131 1.363 . S
C1130 C1136 1.379 . S
C1130 N1138 1.356 . S
C1131 C1130 1.363 . S
C1131 C1137 1.363 . S
C1132 C1133 1.363 . S
C1132 C1137 1.379 . S
C1132 N1139 1.356 1_556 S
C1133 C1132 1.363 . S
C1133 C1136 1.363 . S
N1134 C1136 1.356 . S
N1134 H1146 0.984 . S
N1134 H1147 0.985 . S
N1135 C1137 1.356 . S
N1135 H1140 0.984 . S
N1135 H1141 0.985 . S
C1136 C1130 1.379 . S
C1136 C1133 1.363 . S
C1136 N1134 1.356 . S
C1137 C1131 1.363 . S
C1137 C1132 1.379 . S
C1137 N1135 1.356 . S
N1138 C1130 1.356 . S
N1138 H1144 0.984 . S
N1138 H1145 0.984 . S
N1139 C1132 1.356 1_554 S
N1139 H1142 0.984 . S
N1139 H1143 0.985 . S
H1140 N1135 0.984 . S
H1141 N1135 0.985 . S
H1142 N1139 0.984 . S
H1143 N1139 0.985 . S
H1144 N1138 0.984 . S
H1145 N1138 0.984 . S
H1146 N1134 0.984 . S
H1147 N1134 0.985 . S
C1148 C1149 1.363 . S
C1148 C1154 1.379 . S
C1148 N1156 1.356 . S
C1149 C1148 1.363 . S
C1149 C1155 1.363 . S
C1150 C1151 1.363 . S
C1150 C1155 1.379 . S
C1150 N1157 1.356 . S
C1151 C1150 1.363 . S
C1151 C1154 1.363 . S
N1152 C1154 1.356 . S
N1152 H1164 0.984 . S
N1152 H1165 0.985 . S
N1153 C1155 1.356 . S
N1153 H1158 0.984 . S
N1153 H1159 0.985 . S
C1154 C1148 1.379 . S
C1154 C1151 1.363 . S
C1154 N1152 1.356 . S
C1155 C1149 1.363 . S
C1155 C1150 1.379 . S
C1155 N1153 1.356 . S
N1156 C1148 1.356 . S
N1156 H1162 0.984 . S
N1156 H1163 0.984 . S
N1157 C1150 1.356 . S
N1157 H1160 0.984 . S
N1157 H1161 0.985 1_556 S
H1158 N1153 0.984 . S
H1159 N1153 0.985 . S
H1160 N1157 0.984 . S
H1161 N1157 0.985 1_554 S
H1162 N1156 0.984 . S
H1163 N1156 0.984 . S
H1164 N1152 0.984 . S
H1165 N1152 0.985 . S
C1166 C1167 1.363 . S
C1166 C1172 1.379 . S
C1166 N1174 1.356 . S
C1167 C1166 1.363 . S
C1167 C1173 1.363 . S
C1168 C1169 1.363 . S
C1168 C1173 1.379 . S
C1168 N1175 1.356 . S
C1169 C1168 1.363 . S
C1169 C1172 1.363 . S
N1170 C1172 1.356 . S
N1170 H1182 0.984 . S
N1170 H1183 0.985 . S
N1171 C1173 1.356 . S
N1171 H1176 0.984 . S
N1171 H1177 0.985 . S
C1172 C1166 1.379 . S
C1172 C1169 1.363 . S
C1172 N1170 1.356 . S
C1173 C1167 1.363 . S
C1173 C1168 1.379 . S
C1173 N1171 1.356 . S
N1174 C1166 1.356 . S
N1174 H1180 0.984 . S
N1174 H1181 0.984 . S
N1175 C1168 1.356 . S
N1175 H1178 0.984 1_556 S
N1175 H1179 0.985 1_556 S
H1176 N1171 0.984 . S
H1177 N1171 0.985 . S
H1178 N1175 0.984 1_554 S
H1179 N1175 0.985 1_554 S
H1180 N1174 0.984 . S
H1181 N1174 0.984 . S
H1182 N1170 0.984 . S
H1183 N1170 0.985 . S
C611 C497 1.606 . S
C609 C47 1.492 . S
C629 C523 1.490 . S
C627 C115 1.452 . S
C647 C537 1.591 . S
C645 C153 1.413 . S
C665 C539 1.677 . S
C663 C233 1.540 . S
C681 C283 1.446 . S
C683 C536 1.490 . S
C701 C538 1.605 . S
C699 C357 1.492 . S
C719 C496 1.676 . S
C717 C401 1.519 . S
C737 C522 1.589 . S
C735 C463 1.413 . S
C755 C524 1.402 . S
C753 C469 1.365 . S
C773 C550 1.535 . S
C771 C277 1.437 . S
C791 C508 1.548 . S
C789 C363 1.551 . S
C809 C510 1.400 . S
C807 C407 1.383 . S
C827 C509 1.535 . S
C825 C109 1.429 . S
C845 C511 1.401 . S
C843 C159 1.366 . S
C863 C525 1.399 . S
C861 C239 1.371 . S
C881 C551 1.549 . S
C879 C53 1.551 . S
C899 C553 1.606 . S
C897 C481 1.492 . S
C915 C301 1.452 . S
C917 C579 1.490 . S
C933 C339 1.413 . S
C935 C592 1.590 . S
C951 C419 1.540 . S
C953 C595 1.677 . S
C969 C97 1.446 . S
C971 C593 1.490 . S
C987 C171 1.492 . S
C989 C594 1.605 . S
C1005 C215 1.519 . S
C1007 C552 1.676 . S
C1025 C578 1.589 . S
C1023 C29 1.413 . S
C1043 C581 1.401 . S
C1041 C35 1.366 . S
C1059 C91 1.437 . S
C1061 C606 1.535 . S
C1077 C177 1.551 . S
C1079 C564 1.548 . S
C1095 C221 1.383 . S
C1097 C566 1.400 . S
C1115 C565 1.535 . S
C1113 C295 1.429 . S
C1133 C567 1.401 . S
C1131 C345 1.366 . S
C1149 C425 1.371 . S
C1151 C580 1.399 . S
C1169 C607 1.549 . S
C1167 C487 1.551 . S
