# Generated by pormake.
# Topology tsx, (6,3)-cn, num edge types: 1
# Building blocks:
#     Node 0, Type 0, BuildingBlock: JUFBIX_clean_sbu_0, # of connection points: 6
#     Node 1, Type 0, BuildingBlock: JUFBIX_clean_sbu_0, # of connection points: 6
#     Node 2, Type 1, BuildingBlock: KAKCAD_clean_linker_0, # of connection points: 3
#     Node 3, Type 1, BuildingBlock: KAKCAD_clean_linker_0, # of connection points: 3
#     Node 4, Type 1, BuildingBlock: KAKCAD_clean_linker_0, # of connection points: 3
#     Node 5, Type 1, BuildingBlock: KAKCAD_clean_linker_0, # of connection points: 3
#     Edge 6, Type (0, 1), BuildingBlock: CIFDUS_clean_linker_0, # of connection points: 2
#     Edge 7, Type (0, 1), BuildingBlock: CIFDUS_clean_linker_0, # of connection points: 2
#     Edge 8, Type (0, 1), BuildingBlock: CIFDUS_clean_linker_0, # of connection points: 2
#     Edge 9, Type (0, 1), BuildingBlock: CIFDUS_clean_linker_0, # of connection points: 2
#     Edge 10, Type (0, 1), BuildingBlock: CIFDUS_clean_linker_0, # of connection points: 2
#     Edge 11, Type (0, 1), BuildingBlock: CIFDUS_clean_linker_0, # of connection points: 2
#     Edge 12, Type (0, 1), BuildingBlock: CIFDUS_clean_linker_0, # of connection points: 2
#     Edge 13, Type (0, 1), BuildingBlock: CIFDUS_clean_linker_0, # of connection points: 2
#     Edge 14, Type (0, 1), BuildingBlock: CIFDUS_clean_linker_0, # of connection points: 2
#     Edge 15, Type (0, 1), BuildingBlock: CIFDUS_clean_linker_0, # of connection points: 2
#     Edge 16, Type (0, 1), BuildingBlock: CIFDUS_clean_linker_0, # of connection points: 2
#     Edge 17, Type (0, 1), BuildingBlock: CIFDUS_clean_linker_0, # of connection points: 2
# Relax obj value: 0.159
# Max RMSD: 0.167
# Mean RMSD: 0.135
data_MOF--net-tsx--node1-JUFBIX_clean_sbu_0--node2-KAKCAD_clean_linker_0--edge1-CIFDUS_clean_linker_0
_symmetry_space_group_name_H-M    P1
_symmetry_Int_Tables_number       1
_symmetry_cell_setting            triclinic
loop_
_symmetry_equiv_pos_as_xyz
'x, y, z'
_cell_length_a     21.501911
_cell_length_b     25.581505
_cell_length_c     39.228695
_cell_angle_alpha  93.219359
_cell_angle_beta   89.090565
_cell_angle_gamma 98.767415
loop_
_atom_site_label
_atom_site_type_symbol
_atom_site_fract_x
_atom_site_fract_y
_atom_site_fract_z
_atom_type_partial_charge
Co0 Co 0.04983 0.97404 0.01852 0.0
C1 C 0.01145 0.99736 0.95345 0.0
Co2 Co 0.97176 0.02177 0.01796 0.0
C3 C 0.13162 0.89206 0.02498 0.0
C4 C 0.17676 0.96186 0.00184 0.0
N5 N 0.1214 0.94026 0.01558 0.0
N6 N 0.19144 0.88379 0.0182 0.0
C7 C 0.21968 0.9277 0.00369 0.0
H8 H 0.09608 0.86363 0.03644 0.0
H9 H 0.1854 0.99978 0.9904 0.0
C10 C 0.0115 0.99932 0.08308 0.0
N11 N 0.90067 0.05532 0.02129 0.0
C12 C 0.88553 0.09844 0.00673 0.0
C13 C 0.85018 0.03804 0.04075 0.0
N14 N 0.82721 0.10786 0.01614 0.0
C15 C 0.80512 0.0699 0.03751 0.0
C16 C 0.93645 0.90997 0.01567 0.0
O17 O 0.05035 0.97422 0.06682 0.0
O18 O 0.97369 0.02184 0.0665 0.0
O19 O 0.91845 0.95505 0.01595 0.0
O20 O 0.99509 0.90756 0.01667 0.0
O21 O 0.97129 0.02141 0.9695 0.0
H22 H 0.84626 1.00412 0.05635 0.0
H23 H 0.91599 0.12174 0.98916 0.0
O24 O 0.04889 0.97461 0.97017 0.0
O25 O 0.10273 0.04128 0.02081 0.0
O26 O 0.02562 0.08809 0.01974 0.0
C27 C 0.08426 0.08619 0.02098 0.0
H28 H 0.26746 0.93379 0.9939 0.0
H29 H 0.75962 0.06574 0.05013 0.0
Co30 Co 0.53265 0.48152 0.50769 0.0
C31 C 0.47917 0.51885 0.44971 0.0
Co32 Co 0.46172 0.53508 0.5178 0.0
C33 C 0.64193 0.42456 0.5085 0.0
C34 C 0.57557 0.39741 0.4688 0.0
N35 N 0.58816 0.43477 0.49448 0.0
N36 N 0.66219 0.38181 0.49271 0.0
C37 C 0.62066 0.3649 0.46774 0.0
H38 H 0.66397 0.44627 0.53074 0.0
H39 H 0.53459 0.39273 0.45264 0.0
C40 C 0.51696 0.49877 0.57574 0.0
N41 N 0.40284 0.57867 0.53157 0.0
C42 C 0.38655 0.62284 0.51894 0.0
C43 C 0.3647 0.56924 0.55886 0.0
N44 N 0.3397 0.64117 0.53747 0.0
C45 C 0.32661 0.60737 0.56269 0.0
C46 C 0.40974 0.4292 0.51275 0.0
O47 O 0.54757 0.47316 0.55445 0.0
O48 O 0.47854 0.52686 0.5647 0.0
O49 O 0.39661 0.47574 0.51767 0.0
O50 O 0.46666 0.423 0.50788 0.0
O51 O 0.44656 0.54317 0.47079 0.0
H52 H 0.3643 0.53634 0.57505 0.0
H53 H 0.408 0.6405 0.49636 0.0
O54 O 0.51747 0.49082 0.46101 0.0
O55 O 0.59799 0.54066 0.50784 0.0
O56 O 0.52729 0.59375 0.51767 0.0
C57 C 0.58447 0.58734 0.51278 0.0
H58 H 0.62229 0.33072 0.45035 0.0
H59 H 0.29224 0.60987 0.5829 0.0
C60 C 0.0652 0.97415 0.30578 0.0
C61 C 0.06526 0.01675 0.28476 0.0
C62 C 0.06737 0.98264 0.34124 0.0
C63 C 0.07043 0.03408 0.35655 0.0
C64 C 0.07054 0.07675 0.33543 0.0
C65 C 0.06773 0.06813 0.29992 0.0
C66 C 0.07297 0.04269 0.3944 0.0
C67 C 0.10731 0.01258 0.41367 0.0
C68 C 0.10575 0.01674 0.44938 0.0
C69 C 0.07054 0.05226 0.46632 0.0
C70 C 0.03803 0.08467 0.44754 0.0
C71 C 0.03917 0.07924 0.41158 0.0
C72 C 0.99999 0.12236 0.46495 0.0
C73 C 0.95979 0.1069 0.49239 0.0
C74 C 0.99993 0.17277 0.45239 0.0
C75 C 0.95763 0.20546 0.4653 0.0
C76 C 0.91425 0.18846 0.49104 0.0
C77 C 0.13895 0.98116 0.46809 0.0
C78 C 0.10644 0.93253 0.47777 0.0
C79 C 0.20461 0.99133 0.47081 0.0
C80 C 0.23771 0.95256 0.48196 0.0
C81 C 0.20582 0.90225 0.48966 0.0
C82 C 0.13949 0.89333 0.48827 0.0
C83 C 0.91721 0.13956 0.50522 0.0
H84 H 0.06232 0.93404 0.29482 0.0
H85 H 0.06568 0.94864 0.35666 0.0
H86 H 0.07361 0.11692 0.34629 0.0
H87 H 0.06841 0.10178 0.28426 0.0
H88 H 0.13473 0.98492 0.40094 0.0
H89 H 0.01137 0.10189 0.39701 0.0
H90 H 0.06863 0.05479 0.49392 0.0
H91 H 0.95875 0.06838 0.50272 0.0
H92 H 0.03118 0.18621 0.43167 0.0
H93 H 0.95646 0.24269 0.45365 0.0
H94 H 0.05575 0.92374 0.47526 0.0
H95 H 0.23044 0.02858 0.46308 0.0
H96 H 0.88489 0.12562 0.52536 0.0
H97 H 0.11294 0.85512 0.49345 0.0
H98 H 0.28846 0.9616 0.48353 0.0
C99 C 0.94271 0.99098 0.7296 0.0
C100 C 0.99497 0.00865 0.75056 0.0
C101 C 0.9498 0.98691 0.69409 0.0
C102 C 1.00918 1.00083 0.67881 0.0
C103 C 0.06118 0.01932 0.69977 0.0
C104 C 0.05418 0.02309 0.73523 0.0
C105 C 0.01719 0.99555 0.64117 0.0
C106 C 0.05376 0.0359 0.62374 0.0
C107 C 0.06229 0.03103 0.58818 0.0
C108 C 0.03376 0.98503 0.56988 0.0
C109 C 0.99704 0.94424 0.587 0.0
C110 C 0.98899 0.94987 0.62259 0.0
C111 C 0.96491 0.8962 0.56808 0.0
C112 C 0.92712 0.90057 0.53981 0.0
C113 C 0.96697 0.84592 0.58028 0.0
C114 C 0.92906 0.80126 0.56588 0.0
C115 C 0.88796 0.80603 0.53913 0.0
C116 C 0.10208 0.07402 0.57069 0.0
C117 C 0.09474 0.12699 0.57829 0.0
C118 C 0.15025 0.06277 0.54817 0.0
C119 C 0.19149 0.10392 0.53427 0.0
C120 C 0.18603 0.15718 0.54308 0.0
C121 C 0.13634 0.16807 0.56481 0.0
C122 C 0.88864 0.85588 0.52559 0.0
H123 H 0.89659 0.97925 0.7407 0.0
H124 H 0.90875 0.97303 0.67856 0.0
H125 H 0.10761 0.02998 0.68877 0.0
H126 H 0.09521 0.03735 0.75069 0.0
H127 H 0.0759 0.07126 0.63794 0.0
H128 H 0.96054 0.91855 0.63587 0.0
H129 H 0.03998 0.98106 0.54243 0.0
H130 H 0.92471 0.93891 0.52993 0.0
H131 H 0.99629 0.84145 0.60181 0.0
H132 H 0.92936 0.76348 0.577 0.0
H133 H 0.05768 0.13672 0.59543 0.0
H134 H 0.15708 0.02221 0.54208 0.0
H135 H 0.85786 0.86057 0.50474 0.0
H136 H 0.13095 0.20836 0.57273 0.0
H137 H 0.22845 0.09394 0.51719 0.0
C138 C 0.52334 0.48027 0.79546 0.0
C139 C 0.5302 0.52873 0.77963 0.0
C140 C 0.52796 0.4792 0.8309 0.0
C141 C 0.53998 0.52657 0.85136 0.0
C142 C 0.54735 0.57506 0.83545 0.0
C143 C 0.54237 0.57612 0.8 0.0
C144 C 0.54434 0.52512 0.88913 0.0
C145 C 0.57409 0.4866 0.90357 0.0
C146 C 0.57628 0.48292 0.93914 0.0
C147 C 0.54877 0.51918 0.96064 0.0
C148 C 0.51978 0.55863 0.94653 0.0
C149 C 0.51785 0.56137 0.91091 0.0
C150 C 0.49007 0.59709 0.96832 0.0
C151 C 0.43423 0.5808 0.98633 0.0
C152 C 0.51339 0.65126 0.96772 0.0
C153 C 0.48041 0.68874 0.98391 0.0
C154 C 0.42298 0.67292 1.00091 0.0
C155 C 0.60762 0.44076 0.95299 0.0
C156 C 0.59687 0.3892 0.93771 0.0
C157 C 0.65183 0.45222 0.97941 0.0
C158 C 0.68631 0.41332 0.98935 0.0
C159 C 0.67677 0.36213 0.97326 0.0
C160 C 0.63103 0.3505 0.94763 0.0
C161 C 0.401 0.61837 0.00259 0.0
H162 H 0.51295 0.44313 0.78052 0.0
H163 H 0.52088 0.44114 0.84231 0.0
H164 H 0.55759 0.61225 0.85034 0.0
H165 H 0.54861 0.61408 0.78847 0.0
H166 H 0.59668 0.4597 0.88697 0.0
H167 H 0.49395 0.59099 0.90022 0.0
H168 H 0.5496 0.51661 0.98811 0.0
H169 H 0.4151 0.53914 0.98671 0.0
H170 H 0.55617 0.66465 0.95373 0.0
H171 H 0.49859 0.73027 0.98165 0.0
H172 H 0.56266 0.37897 0.91751 0.0
H173 H 0.6613 0.49168 0.99154 0.0
H174 H 0.35742 0.60474 0.01577 0.0
H175 H 0.62275 0.31177 0.93442 0.0
H176 H 0.72065 0.42338 0.00948 0.0
C177 C 0.38057 0.56745 0.23517 0.0
C178 C 0.43673 0.57669 0.25385 0.0
C179 C 0.38224 0.56556 0.19944 0.0
C180 C 0.44007 0.57343 0.18176 0.0
C181 C 0.496 0.58523 0.20055 0.0
C182 C 0.49435 0.58667 0.23619 0.0
C183 C 0.44264 0.56528 0.144 0.0
C184 C 0.48306 0.60018 0.12429 0.0
C185 C 0.48936 0.59003 0.08888 0.0
C186 C 0.45469 0.54417 0.07317 0.0
C187 C 0.41318 0.50939 0.09251 0.0
C188 C 0.40741 0.52037 0.1278 0.0
C189 C 0.376 0.46087 0.07654 0.0
C190 C 0.33788 0.46341 0.04809 0.0
C191 C 0.3748 0.41216 0.09153 0.0
C192 C 0.33479 0.36726 0.07915 0.0
C193 C 0.29474 0.36996 0.05154 0.0
C194 C 0.53369 0.62717 0.06903 0.0
C195 C 0.53201 0.68179 0.07293 0.0
C196 C 0.58104 0.60906 0.04849 0.0
C197 C 0.62779 0.64524 0.03358 0.0
C198 C 0.62742 0.70009 0.03863 0.0
C199 C 0.57817 0.71779 0.05787 0.0
C200 C 0.29723 0.41838 0.03583 0.0
H201 H 0.33552 0.55944 0.24811 0.0
H202 H 0.33835 0.55685 0.18561 0.0
H203 H 0.54128 0.5911 0.18768 0.0
H204 H 0.53834 0.5944 0.24998 0.0
H205 H 0.51056 0.63493 0.13666 0.0
H206 H 0.37621 0.49313 0.14286 0.0
H207 H 0.46044 0.53525 0.04612 0.0
H208 H 0.33772 0.5006 0.03622 0.0
H209 H 0.404 0.40907 0.11336 0.0
H210 H 0.33363 0.33078 0.09206 0.0
H211 H 0.49566 0.69676 0.08837 0.0
H212 H 0.58345 0.5671 0.04518 0.0
H213 H 0.26726 0.42155 0.01435 0.0
H214 H 0.57664 0.75972 0.06249 0.0
H215 H 0.66473 0.63039 0.0186 0.0
H216 H 0.06393 0.1894 0.02051 0.0
H217 H 0.211 0.09281 0.02747 0.0
H218 H 0.2891 0.17184 0.03498 0.0
H219 H 0.31569 0.26812 0.04247 0.0
H220 H 0.17004 0.36588 0.03659 0.0
H221 H 0.0919 0.28695 0.02504 0.0
C222 C 0.11309 0.18569 0.0235 0.0
C223 C 0.13127 0.13508 0.02368 0.0
C224 C 0.15824 0.23157 0.0279 0.0
C225 C 0.19536 0.13109 0.02736 0.0
C226 C 0.24027 0.17634 0.03168 0.0
C227 C 0.26685 0.27216 0.03858 0.0
C228 C 0.24868 0.32276 0.04065 0.0
C229 C 0.22218 0.2267 0.03245 0.0
C230 C 0.1854 0.32741 0.0349 0.0
C231 C 0.14058 0.28225 0.02858 0.0
H232 H 0.308 0.88049 0.03977 0.0
H233 H 0.13891 0.7821 0.00382 0.0
H234 H 0.19461 0.70501 0.99877 0.0
H235 H 0.29523 0.66929 0.99724 0.0
H236 H 0.46389 0.7687 0.03407 0.0
H237 H 0.40467 0.84173 0.04608 0.0
C238 C 0.28324 0.84187 0.03141 0.0
C239 C 0.21977 0.83689 0.02183 0.0
C240 C 0.31576 0.79821 0.02826 0.0
C241 C 0.1877 0.7867 0.01144 0.0
C242 C 0.21975 0.74284 0.00828 0.0
C243 C 0.3188 0.70643 0.00874 0.0
C244 C 0.3844 0.71363 0.01409 0.0
C245 C 0.28434 0.74854 0.01558 0.0
C246 C 0.41391 0.7623 0.02888 0.0
C247 C 0.38002 0.80413 0.03587 0.0
H248 H 0.81375 0.90195 0.99892 0.0
H249 H 0.95071 0.80993 0.03316 0.0
H250 H 0.86736 0.73435 0.04018 0.0
H251 H 0.7539 0.69788 0.04192 0.0
H252 H 0.61836 0.79112 0.00739 0.0
H253 H 0.70296 0.86274 0.99505 0.0
C254 C 0.82561 0.8652 0.00762 0.0
C255 C 0.8883 0.86181 0.0159 0.0
C256 C 0.77757 0.82225 0.01175 0.0
C257 C 0.90285 0.81365 0.02669 0.0
C258 C 0.85513 0.77051 0.03083 0.0
C259 C 0.74305 0.73339 0.03098 0.0
C260 C 0.67975 0.7394 0.02601 0.0
C261 C 0.79208 0.77476 0.02416 0.0
C262 C 0.66651 0.78586 0.01202 0.0
C263 C 0.71487 0.82681 0.00492 0.0
H264 H 0.87313 0.21076 0.00764 0.0
H265 H 0.70425 0.09594 0.00161 0.0
H266 H 0.64262 0.16475 0.98864 0.0
H267 H 0.63579 0.25755 0.98062 0.0
H268 H 0.8035 0.37399 0.98623 0.0
H269 H 0.86621 0.3051 0.9985 0.0
C270 C 0.82302 0.201 0.00303 0.0
C271 C 0.79318 0.14844 0.00559 0.0
C272 C 0.78752 0.24114 0.99605 0.0
C273 C 0.72806 0.13621 1.00004 0.0
C274 C 0.69281 0.17551 0.99264 0.0
C275 C 0.68616 0.26791 0.98422 0.0
C276 C 0.71479 0.32092 0.98239 0.0
C277 C 0.72189 0.22814 0.9909 0.0
C278 C 0.78001 0.33364 0.98788 0.0
C279 C 0.81603 0.29415 0.99459 0.0
H280 H 0.7114 0.58792 0.51058 0.0
H281 H 0.57038 0.69165 0.51754 0.0
H282 H 0.65243 0.76861 0.52306 0.0
H283 H 0.7635 0.80617 0.53009 0.0
H284 H 0.90488 0.70309 0.52486 0.0
H285 H 0.82341 0.62617 0.51434 0.0
C286 C 0.69861 0.62738 0.51302 0.0
C287 C 0.63476 0.63389 0.51388 0.0
C288 C 0.74608 0.67159 0.51659 0.0
C289 C 0.61909 0.68536 0.51703 0.0
C290 C 0.66599 0.72948 0.52017 0.0
C291 C 0.77663 0.767 0.52589 0.0
C292 C 0.84009 0.76031 0.52819 0.0
C293 C 0.72954 0.72302 0.52049 0.0
C294 C 0.85624 0.70917 0.52339 0.0
C295 C 0.80971 0.66523 0.5174 0.0
H296 H 0.65825 0.27858 0.50021 0.0
H297 H 0.78279 0.42719 0.5033 0.0
H298 H 0.87413 0.38031 0.50666 0.0
H299 H 0.91799 0.29587 0.50192 0.0
H300 H 0.79075 0.14781 0.49829 0.0
H301 H 0.70101 0.19544 0.50261 0.0
C302 C 0.70546 0.30055 0.5022 0.0
C303 C 0.71431 0.35596 0.50115 0.0
C304 C 0.75709 0.27335 0.50386 0.0
C305 C 0.77527 0.38445 0.50415 0.0
C306 C 0.82727 0.35761 0.50579 0.0
C307 C 0.87061 0.27413 0.50251 0.0
C308 C 0.86125 0.21827 0.49955 0.0
C309 C 0.8188 0.3019 0.50461 0.0
C310 C 0.79954 0.19067 0.50084 0.0
C311 C 0.74803 0.2179 0.503 0.0
H312 H 0.42499 0.32628 0.51606 0.0
H313 H 0.28238 0.42769 0.51237 0.0
H314 H 0.20016 0.35127 0.51778 0.0
H315 H 0.1692 0.25667 0.52661 0.0
H316 H 0.31301 0.15728 0.53549 0.0
H317 H 0.39393 0.23153 0.52372 0.0
C318 C 0.3759 0.33166 0.51616 0.0
C319 C 0.35986 0.38264 0.51397 0.0
C320 C 0.32897 0.2878 0.51998 0.0
C321 C 0.29603 0.3889 0.51423 0.0
C322 C 0.24898 0.34522 0.51728 0.0
C323 C 0.21822 0.25115 0.52616 0.0
C324 C 0.23458 0.20119 0.53216 0.0
C325 C 0.26497 0.29463 0.52075 0.0
C326 C 0.29847 0.1948 0.5305 0.0
C327 C 0.34508 0.23751 0.52416 0.0
H328 H 0.38049 0.72477 0.49868 0.0
H329 H 0.22656 0.65982 0.56338 0.0
H330 H 0.17527 0.73628 0.55657 0.0
H331 H 0.17246 0.82139 0.53229 0.0
H332 H 0.31959 0.88293 0.46254 0.0
H333 H 0.37509 0.80891 0.47198 0.0
C334 C 0.33556 0.72697 0.5111 0.0
C335 C 0.30847 0.68629 0.53195 0.0
C336 C 0.30493 0.77098 0.50648 0.0
C337 C 0.25003 0.69056 0.54787 0.0
C338 C 0.22005 0.73439 0.54382 0.0
C339 C 0.21626 0.81857 0.51874 0.0
C340 C 0.24142 0.85824 0.49679 0.0
C341 C 0.24699 0.77482 0.52322 0.0
C342 C 0.29925 0.85393 0.48021 0.0
C343 C 0.33088 0.8111 0.48525 0.0
H344 H 0.08488 0.95665 0.12685 0.0
H345 H 0.93927 0.05548 0.12426 0.0
H346 H 0.94344 0.06978 0.18614 0.0
H347 H 0.98943 0.05566 0.24109 0.0
H348 H 0.13401 0.95632 0.2442 0.0
H349 H 0.12905 0.94065 0.18214 0.0
C350 C 0.05385 0.98111 0.13983 0.0
C351 C 0.012 1.00504 0.12085 0.0
C352 C 0.0564 0.98925 0.17556 0.0
C353 C 0.97202 0.03653 0.13815 0.0
C354 C 0.97441 0.0449 0.17359 0.0
C355 C 0.0201 0.03087 0.22811 0.0
C356 C 0.06222 0.00741 0.24712 0.0
C357 C 0.01672 0.02181 0.19252 0.0
C358 C 0.10094 0.9746 0.23009 0.0
C359 C 0.09825 0.96575 0.19463 0.0
H360 H 0.93308 0.0325 0.9085 0.0
H361 H 0.10039 0.95882 0.91351 0.0
H362 H 0.10982 0.95615 0.85159 0.0
H363 H 0.07093 0.97409 0.79592 0.0
H364 H 0.90368 0.04703 0.78982 0.0
H365 H 0.89352 0.0501 0.85215 0.0
C366 C 0.97159 0.0159 0.89603 0.0
C367 C 0.01592 0.99594 0.91571 0.0
C368 C 0.97672 0.01418 0.86019 0.0
C369 C 0.06544 0.97439 0.89908 0.0
C370 C 0.07101 0.97286 0.86361 0.0
C371 C 0.03257 0.99112 0.80825 0.0
C372 C 0.98837 0.01059 0.78832 0.0
C373 C 0.02702 0.99266 0.84393 0.0
C374 C 0.93814 0.0315 0.80462 0.0
C375 C 0.93247 0.03346 0.84024 0.0
H376 H 0.4695 0.55884 0.6258 0.0
H377 H 0.58529 0.43575 0.60943 0.0
H378 H 0.59972 0.43417 0.67113 0.0
H379 H 0.57939 0.46809 0.72976 0.0
H380 H 0.46433 0.59177 0.74528 0.0
H381 H 0.45027 0.59313 0.68374 0.0
C382 C 0.49785 0.53152 0.63564 0.0
C383 C 0.52607 0.49729 0.613 0.0
C384 C 0.50633 0.53113 0.67099 0.0
C385 C 0.56298 0.46248 0.62628 0.0
C386 C 0.57125 0.46156 0.66156 0.0
C387 C 0.55099 0.49512 0.71963 0.0
C388 C 0.52298 0.52982 0.74208 0.0
C389 C 0.54308 0.4957 0.68415 0.0
C390 C 0.48701 0.56513 0.72857 0.0
C391 C 0.47863 0.56571 0.69339 0.0
H392 H 0.40387 0.57489 0.41473 0.0
H393 H 0.54727 0.47405 0.40049 0.0
H394 H 0.54695 0.48384 0.33934 0.0
H395 H 0.50734 0.521 0.28968 0.0
H396 H 0.36289 0.62043 0.30198 0.0
H397 H 0.36195 0.61098 0.36391 0.0
C398 C 0.43482 0.55495 0.3982 0.0
C399 C 0.47561 0.52392 0.41236 0.0
C400 C 0.43441 0.56055 0.36266 0.0
C401 C 0.51536 0.49826 0.39049 0.0
C402 C 0.51538 0.50384 0.3554 0.0
C403 C 0.47608 0.54105 0.30596 0.0
C404 C 0.43583 0.57186 0.29139 0.0
C405 C 0.47547 0.53506 0.34125 0.0
C406 C 0.3944 0.59652 0.31267 0.0
C407 C 0.39394 0.59118 0.34804 0.0
loop_
_geom_bond_atom_site_label_1
_geom_bond_atom_site_label_2
_geom_bond_distance
_geom_bond_site_symmetry_2
_ccdc_geom_bond_type
Co0 N5 2.057 . S
Co0 O17 2.021 . S
Co0 O20 2.062 1_455 S
Co0 O24 2.117 1_554 S
Co0 O25 2.020 1_565 S
C1 O21 1.259 1_455 S
C1 O24 1.258 1_545 S
Co2 N11 2.057 . S
Co2 O18 2.117 . S
Co2 O19 2.020 1_545 S
Co2 O21 2.021 1_554 S
Co2 O26 2.062 1_655 S
C3 N5 1.316 . S
C3 N6 1.347 . S
C3 H8 0.931 . S
C4 N5 1.375 1_556 S
C4 C7 1.350 . S
C4 H9 0.930 . S
N5 Co0 2.057 . S
N5 C3 1.316 . S
N5 C4 1.375 1_554 S
N6 C3 1.347 . S
N6 C7 1.373 1_554 S
C7 C4 1.350 . S
C7 N6 1.373 1_556 S
C7 H28 0.931 . S
H8 C3 0.931 . S
H9 C4 0.930 . S
C10 O17 1.259 1_545 S
C10 O18 1.258 1_455 S
N11 Co2 2.057 . S
N11 C12 1.316 . S
N11 C13 1.375 . S
C12 N11 1.316 . S
C12 N14 1.347 . S
C12 H23 0.931 1_554 S
C13 N11 1.375 . S
C13 C15 1.350 . S
C13 H22 0.930 . S
N14 C12 1.347 . S
N14 C15 1.373 . S
C15 C13 1.350 . S
C15 N14 1.373 . S
C15 H29 0.931 . S
C16 O19 1.256 . S
C16 O20 1.255 . S
O17 Co0 2.021 . S
O17 C10 1.259 1_565 S
O18 Co2 2.117 . S
O18 C10 1.258 1_655 S
O19 Co2 2.020 1_565 S
O19 C16 1.256 . S
O20 Co0 2.062 1_655 S
O20 C16 1.255 . S
O21 C1 1.259 1_655 S
O21 Co2 2.021 1_556 S
H22 C13 0.930 . S
H23 C12 0.931 1_556 S
O24 Co0 2.117 1_556 S
O24 C1 1.258 1_565 S
O25 Co0 2.020 1_545 S
O25 C27 1.256 . S
O26 Co2 2.062 1_455 S
O26 C27 1.255 . S
C27 O25 1.256 . S
C27 O26 1.255 . S
H28 C7 0.931 . S
H29 C15 0.931 . S
Co30 N35 2.057 . S
Co30 O47 2.021 . S
Co30 O50 2.062 . S
Co30 O54 2.117 . S
Co30 O55 2.020 . S
C31 O51 1.259 . S
C31 O54 1.258 . S
Co32 N41 2.057 . S
Co32 O48 2.117 . S
Co32 O49 2.020 . S
Co32 O51 2.021 . S
Co32 O56 2.062 . S
C33 N35 1.316 . S
C33 N36 1.347 . S
C33 H38 0.931 . S
C34 N35 1.375 . S
C34 C37 1.350 . S
C34 H39 0.930 . S
N35 Co30 2.057 . S
N35 C33 1.316 . S
N35 C34 1.375 . S
N36 C33 1.347 . S
N36 C37 1.373 . S
C37 C34 1.350 . S
C37 N36 1.373 . S
C37 H58 0.931 . S
H38 C33 0.931 . S
H39 C34 0.930 . S
C40 O47 1.259 . S
C40 O48 1.258 . S
N41 Co32 2.057 . S
N41 C42 1.316 . S
N41 C43 1.375 . S
C42 N41 1.316 . S
C42 N44 1.347 . S
C42 H53 0.931 . S
C43 N41 1.375 . S
C43 C45 1.350 . S
C43 H52 0.930 . S
N44 C42 1.347 . S
N44 C45 1.373 . S
C45 C43 1.350 . S
C45 N44 1.373 . S
C45 H59 0.931 . S
C46 O49 1.256 . S
C46 O50 1.255 . S
O47 Co30 2.021 . S
O47 C40 1.259 . S
O48 Co32 2.117 . S
O48 C40 1.258 . S
O49 Co32 2.020 . S
O49 C46 1.256 . S
O50 Co30 2.062 . S
O50 C46 1.255 . S
O51 C31 1.259 . S
O51 Co32 2.021 . S
H52 C43 0.930 . S
H53 C42 0.931 . S
O54 Co30 2.117 . S
O54 C31 1.258 . S
O55 Co30 2.020 . S
O55 C57 1.256 . S
O56 Co32 2.062 . S
O56 C57 1.255 . S
C57 O55 1.256 . S
C57 O56 1.255 . S
H58 C37 0.931 . S
H59 C45 0.931 . S
C60 C61 1.386 1_665 S
C60 C62 1.397 . S
C60 H84 0.931 . S
C61 C60 1.386 1_445 S
C61 C65 1.397 . S
C62 C60 1.397 . S
C62 C63 1.384 1_665 S
C62 H85 0.930 . S
C63 C62 1.384 1_445 S
C63 C64 1.377 . S
C63 C66 1.481 . S
C64 C63 1.377 . S
C64 C65 1.389 . S
C64 H86 0.929 . S
C65 C61 1.397 . S
C65 C64 1.389 . S
C65 H87 0.931 . S
C66 C63 1.481 . S
C66 C67 1.396 1_545 S
C66 C71 1.381 1_455 S
C67 C66 1.396 1_565 S
C67 C68 1.401 . S
C67 H88 0.930 . S
C68 C67 1.401 . S
C68 C69 1.376 1_465 S
C68 C77 1.511 . S
C69 C68 1.376 1_645 S
C69 C70 1.392 . S
C69 H90 0.931 . S
C70 C69 1.392 . S
C70 C71 1.361 . S
C70 C72 1.500 . S
C71 C66 1.381 1_655 S
C71 C70 1.361 . S
C71 H89 0.931 . S
C72 C70 1.500 . S
C72 C73 1.371 . S
C72 C74 1.365 . S
C73 C72 1.371 . S
C73 C83 1.386 . S
C73 H91 0.931 . S
C74 C72 1.365 . S
C74 C75 1.409 . S
C74 H92 0.929 . S
C75 C74 1.409 . S
C75 C76 1.380 . S
C75 H93 0.930 . S
C76 C75 1.380 . S
C76 C83 1.357 . S
C77 C68 1.511 . S
C77 C78 1.341 . S
C77 C79 1.371 . S
C78 C77 1.341 . S
C78 C82 1.394 . S
C78 H94 0.930 . S
C79 C77 1.371 . S
C79 C80 1.392 . S
C79 H95 0.931 . S
C80 C79 1.392 . S
C80 C81 1.331 . S
C80 H98 0.932 . S
C81 C80 1.331 . S
C81 C82 1.336 . S
C82 C78 1.394 . S
C82 C81 1.336 . S
C82 H97 0.929 . S
C83 C73 1.386 . S
C83 C76 1.357 . S
C83 H96 0.928 . S
H84 C60 0.931 . S
H85 C62 0.930 . S
H86 C64 0.929 . S
H87 C65 0.931 . S
H88 C67 0.930 . S
H89 C71 0.931 . S
H90 C69 0.931 . S
H91 C73 0.931 . S
H92 C74 0.929 . S
H93 C75 0.930 . S
H94 C78 0.930 . S
H95 C79 0.931 . S
H96 C83 0.928 . S
H97 C82 0.929 . S
H98 C80 0.932 . S
C99 C100 1.386 . S
C99 C101 1.397 . S
C99 H123 0.931 . S
C100 C99 1.386 . S
C100 C104 1.397 1_545 S
C101 C99 1.397 . S
C101 C102 1.384 . S
C101 H124 0.930 . S
C102 C101 1.384 . S
C102 C103 1.377 1_545 S
C102 C105 1.481 . S
C103 C102 1.377 1_565 S
C103 C104 1.389 . S
C103 H125 0.929 . S
C104 C100 1.397 1_565 S
C104 C103 1.389 . S
C104 H126 0.931 . S
C105 C102 1.481 . S
C105 C106 1.387 . S
C105 C110 1.390 1_445 S
C106 C105 1.387 . S
C106 C107 1.401 . S
C106 H127 0.930 . S
C107 C106 1.401 . S
C107 C108 1.385 . S
C107 C116 1.511 . S
C108 C107 1.385 . S
C108 C109 1.384 1_445 S
C108 H129 0.930 1_455 S
C109 C108 1.384 1_665 S
C109 C110 1.361 . S
C109 C111 1.500 . S
C110 C105 1.390 1_665 S
C110 C109 1.361 . S
C110 H128 0.931 . S
C111 C109 1.500 . S
C111 C112 1.371 . S
C111 C113 1.365 . S
C112 C111 1.371 . S
C112 C122 1.386 . S
C112 H130 0.931 . S
C113 C111 1.365 . S
C113 C114 1.409 . S
C113 H131 0.929 . S
C114 C113 1.409 . S
C114 C115 1.380 . S
C114 H132 0.930 . S
C115 C114 1.380 . S
C115 C122 1.357 . S
C116 C107 1.511 . S
C116 C117 1.341 . S
C116 C118 1.371 . S
C117 C116 1.341 . S
C117 C121 1.394 . S
C117 H133 0.930 . S
C118 C116 1.371 . S
C118 C119 1.392 . S
C118 H134 0.931 . S
C119 C118 1.392 . S
C119 C120 1.331 . S
C119 H137 0.932 . S
C120 C119 1.331 . S
C120 C121 1.336 . S
C121 C117 1.394 . S
C121 C120 1.336 . S
C121 H136 0.929 . S
C122 C112 1.386 . S
C122 C115 1.357 . S
C122 H135 0.928 . S
H123 C99 0.931 . S
H124 C101 0.930 . S
H125 C103 0.929 . S
H126 C104 0.931 . S
H127 C106 0.930 . S
H128 C110 0.931 . S
H129 C108 0.930 1_655 S
H130 C112 0.931 . S
H131 C113 0.929 . S
H132 C114 0.930 . S
H133 C117 0.930 . S
H134 C118 0.931 . S
H135 C122 0.928 . S
H136 C121 0.929 . S
H137 C119 0.932 . S
C138 C139 1.386 . S
C138 C140 1.397 . S
C138 H162 0.931 . S
C139 C138 1.386 . S
C139 C143 1.397 . S
C140 C138 1.397 . S
C140 C141 1.384 . S
C140 H163 0.930 . S
C141 C140 1.384 . S
C141 C142 1.377 . S
C141 C144 1.481 . S
C142 C141 1.377 . S
C142 C143 1.389 . S
C142 H164 0.929 . S
C143 C139 1.397 . S
C143 C142 1.389 . S
C143 H165 0.931 . S
C144 C141 1.481 . S
C144 C145 1.387 . S
C144 C149 1.390 . S
C145 C144 1.387 . S
C145 C146 1.401 . S
C145 H166 0.930 . S
C146 C145 1.401 . S
C146 C147 1.376 . S
C146 C155 1.511 . S
C147 C146 1.376 . S
C147 C148 1.392 . S
C147 H168 0.931 . S
C148 C147 1.392 . S
C148 C149 1.361 . S
C148 C150 1.500 . S
C149 C144 1.390 . S
C149 C148 1.361 . S
C149 H167 0.931 . S
C150 C148 1.500 . S
C150 C151 1.371 . S
C150 C152 1.365 . S
C151 C150 1.371 . S
C151 C161 1.386 1_556 S
C151 H169 0.931 1_556 S
C152 C150 1.365 . S
C152 C153 1.409 . S
C152 H170 0.929 . S
C153 C152 1.409 . S
C153 C154 1.380 . S
C153 H171 0.930 . S
C154 C153 1.380 . S
C154 C161 1.357 1_556 S
C155 C146 1.511 . S
C155 C156 1.341 . S
C155 C157 1.371 . S
C156 C155 1.341 . S
C156 C160 1.394 . S
C156 H172 0.930 . S
C157 C155 1.371 . S
C157 C158 1.392 1_556 S
C157 H173 0.931 1_556 S
C158 C157 1.392 1_554 S
C158 C159 1.331 1_554 S
C158 H176 0.932 . S
C159 C158 1.331 1_556 S
C159 C160 1.336 . S
C160 C156 1.394 . S
C160 C159 1.336 . S
C160 H175 0.929 . S
C161 C151 1.386 1_554 S
C161 C154 1.357 1_554 S
C161 H174 0.928 . S
H162 C138 0.931 . S
H163 C140 0.930 . S
H164 C142 0.929 . S
H165 C143 0.931 . S
H166 C145 0.930 . S
H167 C149 0.931 . S
H168 C147 0.931 . S
H169 C151 0.931 1_554 S
H170 C152 0.929 . S
H171 C153 0.930 . S
H172 C156 0.930 . S
H173 C157 0.931 1_554 S
H174 C161 0.928 . S
H175 C160 0.929 . S
H176 C158 0.932 . S
C177 C178 1.386 . S
C177 C179 1.397 . S
C177 H201 0.931 . S
C178 C177 1.386 . S
C178 C182 1.397 . S
C179 C177 1.397 . S
C179 C180 1.384 . S
C179 H202 0.930 . S
C180 C179 1.384 . S
C180 C181 1.377 . S
C180 C183 1.481 . S
C181 C180 1.377 . S
C181 C182 1.389 . S
C181 H203 0.929 . S
C182 C178 1.397 . S
C182 C181 1.389 . S
C182 H204 0.931 . S
C183 C180 1.481 . S
C183 C184 1.387 . S
C183 C188 1.390 . S
C184 C183 1.387 . S
C184 C185 1.401 . S
C184 H205 0.930 . S
C185 C184 1.401 . S
C185 C186 1.376 . S
C185 C194 1.511 . S
C186 C185 1.376 . S
C186 C187 1.392 . S
C186 H207 0.931 . S
C187 C186 1.392 . S
C187 C188 1.361 . S
C187 C189 1.500 . S
C188 C183 1.390 . S
C188 C187 1.361 . S
C188 H206 0.931 . S
C189 C187 1.500 . S
C189 C190 1.371 . S
C189 C191 1.365 . S
C190 C189 1.371 . S
C190 C200 1.386 . S
C190 H208 0.931 . S
C191 C189 1.365 . S
C191 C192 1.409 . S
C191 H209 0.929 . S
C192 C191 1.409 . S
C192 C193 1.380 . S
C192 H210 0.930 . S
C193 C192 1.380 . S
C193 C200 1.357 . S
C194 C185 1.511 . S
C194 C195 1.341 . S
C194 C196 1.371 . S
C195 C194 1.341 . S
C195 C199 1.394 . S
C195 H211 0.930 . S
C196 C194 1.371 . S
C196 C197 1.392 . S
C196 H212 0.931 . S
C197 C196 1.392 . S
C197 C198 1.331 . S
C197 H215 0.932 1_554 S
C198 C197 1.331 . S
C198 C199 1.336 . S
C199 C195 1.394 . S
C199 C198 1.336 . S
C199 H214 0.929 . S
C200 C190 1.386 . S
C200 C193 1.357 . S
C200 H213 0.928 1_554 S
H201 C177 0.931 . S
H202 C179 0.930 . S
H203 C181 0.929 . S
H204 C182 0.931 . S
H205 C184 0.930 . S
H206 C188 0.931 . S
H207 C186 0.931 . S
H208 C190 0.931 . S
H209 C191 0.929 . S
H210 C192 0.930 . S
H211 C195 0.930 . S
H212 C196 0.931 . S
H213 C200 0.928 1_556 S
H214 C199 0.929 . S
H215 C197 0.932 1_556 S
H216 C222 0.930 . S
H217 C225 0.930 . S
H218 C226 0.930 . S
H219 C227 0.930 . S
H220 C230 0.930 . S
H221 C231 0.930 . S
C222 H216 0.930 . S
C222 C223 1.355 . S
C222 C224 1.415 . S
C223 C222 1.355 . S
C223 C225 1.419 . S
C224 C222 1.415 . S
C224 C229 1.425 . S
C224 C231 1.409 . S
C225 H217 0.930 . S
C225 C223 1.419 . S
C225 C226 1.362 . S
C226 H218 0.930 . S
C226 C225 1.362 . S
C226 C229 1.409 . S
C227 H219 0.930 . S
C227 C228 1.355 . S
C227 C229 1.415 . S
C228 C227 1.355 . S
C228 C230 1.419 . S
C229 C224 1.425 . S
C229 C226 1.409 . S
C229 C227 1.415 . S
C230 H220 0.930 . S
C230 C228 1.419 . S
C230 C231 1.362 . S
C231 H221 0.930 . S
C231 C224 1.409 . S
C231 C230 1.362 . S
H232 C238 0.930 . S
H233 C241 0.930 . S
H234 C242 0.930 . S
H235 C243 0.930 . S
H236 C246 0.929 1_556 S
H237 C247 0.930 . S
C238 H232 0.930 . S
C238 C239 1.355 . S
C238 C240 1.415 . S
C239 C238 1.355 . S
C239 C241 1.419 . S
C240 C238 1.415 . S
C240 C245 1.425 . S
C240 C247 1.409 . S
C241 H233 0.930 . S
C241 C239 1.419 . S
C241 C242 1.362 . S
C242 H234 0.930 . S
C242 C241 1.362 . S
C242 C245 1.409 . S
C243 H235 0.930 . S
C243 C244 1.355 . S
C243 C245 1.415 . S
C244 C243 1.355 . S
C244 C246 1.419 . S
C245 C240 1.425 . S
C245 C242 1.409 . S
C245 C243 1.415 . S
C246 H236 0.929 1_554 S
C246 C244 1.419 . S
C246 C247 1.362 . S
C247 H237 0.930 . S
C247 C240 1.409 . S
C247 C246 1.362 . S
H248 C254 0.930 . S
H249 C257 0.930 . S
H250 C258 0.930 . S
H251 C259 0.930 . S
H252 C262 0.930 . S
H253 C263 0.930 . S
C254 H248 0.930 . S
C254 C255 1.355 . S
C254 C256 1.415 . S
C255 C254 1.355 . S
C255 C257 1.419 . S
C256 C254 1.415 . S
C256 C261 1.425 . S
C256 C263 1.409 . S
C257 H249 0.930 . S
C257 C255 1.419 . S
C257 C258 1.362 . S
C258 H250 0.930 . S
C258 C257 1.362 . S
C258 C261 1.409 . S
C259 H251 0.930 . S
C259 C260 1.355 . S
C259 C261 1.415 . S
C260 C259 1.355 . S
C260 C262 1.419 . S
C261 C256 1.425 . S
C261 C258 1.409 . S
C261 C259 1.415 . S
C262 H252 0.930 . S
C262 C260 1.419 . S
C262 C263 1.362 . S
C263 H253 0.930 . S
C263 C256 1.409 . S
C263 C262 1.362 . S
H264 C270 0.930 . S
H265 C273 0.930 . S
H266 C274 0.930 . S
H267 C275 0.930 . S
H268 C278 0.930 . S
H269 C279 0.930 . S
C270 H264 0.930 . S
C270 C271 1.355 . S
C270 C272 1.415 . S
C271 C270 1.355 . S
C271 C273 1.419 1_554 S
C272 C270 1.415 . S
C272 C277 1.425 1_554 S
C272 C279 1.409 . S
C273 H265 0.930 . S
C273 C271 1.419 1_556 S
C273 C274 1.362 . S
C274 H266 0.930 . S
C274 C273 1.362 . S
C274 C277 1.409 . S
C275 H267 0.930 . S
C275 C276 1.355 1_556 S
C275 C277 1.415 . S
C276 C275 1.355 1_554 S
C276 C278 1.419 . S
C277 C272 1.425 1_556 S
C277 C274 1.409 . S
C277 C275 1.415 . S
C278 H268 0.930 . S
C278 C276 1.419 . S
C278 C279 1.362 . S
C279 H269 0.930 . S
C279 C272 1.409 . S
C279 C278 1.362 . S
H280 C286 0.930 . S
H281 C289 0.930 . S
H282 C290 0.930 . S
H283 C291 0.930 . S
H284 C294 0.930 . S
H285 C295 0.930 . S
C286 H280 0.930 . S
C286 C287 1.355 . S
C286 C288 1.415 . S
C287 C286 1.355 . S
C287 C289 1.419 . S
C288 C286 1.415 . S
C288 C293 1.425 . S
C288 C295 1.409 . S
C289 H281 0.930 . S
C289 C287 1.419 . S
C289 C290 1.362 . S
C290 H282 0.930 . S
C290 C289 1.362 . S
C290 C293 1.409 . S
C291 H283 0.930 . S
C291 C292 1.355 . S
C291 C293 1.415 . S
C292 C291 1.355 . S
C292 C294 1.419 . S
C293 C288 1.425 . S
C293 C290 1.409 . S
C293 C291 1.415 . S
C294 H284 0.930 . S
C294 C292 1.419 . S
C294 C295 1.362 . S
C295 H285 0.930 . S
C295 C288 1.409 . S
C295 C294 1.362 . S
H296 C302 0.930 . S
H297 C305 0.930 . S
H298 C306 0.930 . S
H299 C307 0.930 . S
H300 C310 0.930 . S
H301 C311 0.930 . S
C302 H296 0.930 . S
C302 C303 1.355 . S
C302 C304 1.415 . S
C303 C302 1.355 . S
C303 C305 1.419 . S
C304 C302 1.415 . S
C304 C309 1.425 . S
C304 C311 1.409 . S
C305 H297 0.930 . S
C305 C303 1.419 . S
C305 C306 1.362 . S
C306 H298 0.930 . S
C306 C305 1.362 . S
C306 C309 1.409 . S
C307 H299 0.930 . S
C307 C308 1.355 . S
C307 C309 1.415 . S
C308 C307 1.355 . S
C308 C310 1.419 . S
C309 C304 1.425 . S
C309 C306 1.409 . S
C309 C307 1.415 . S
C310 H300 0.930 . S
C310 C308 1.419 . S
C310 C311 1.362 . S
C311 H301 0.930 . S
C311 C304 1.409 . S
C311 C310 1.362 . S
H312 C318 0.930 . S
H313 C321 0.930 . S
H314 C322 0.930 . S
H315 C323 0.930 . S
H316 C326 0.930 . S
H317 C327 0.930 . S
C318 H312 0.930 . S
C318 C319 1.355 . S
C318 C320 1.415 . S
C319 C318 1.355 . S
C319 C321 1.419 . S
C320 C318 1.415 . S
C320 C325 1.425 . S
C320 C327 1.409 . S
C321 H313 0.930 . S
C321 C319 1.419 . S
C321 C322 1.362 . S
C322 H314 0.930 . S
C322 C321 1.362 . S
C322 C325 1.409 . S
C323 H315 0.930 . S
C323 C324 1.355 . S
C323 C325 1.415 . S
C324 C323 1.355 . S
C324 C326 1.419 . S
C325 C320 1.425 . S
C325 C322 1.409 . S
C325 C323 1.415 . S
C326 H316 0.930 . S
C326 C324 1.419 . S
C326 C327 1.362 . S
C327 H317 0.930 . S
C327 C320 1.409 . S
C327 C326 1.362 . S
H328 C334 0.930 . S
H329 C337 0.930 . S
H330 C338 0.930 . S
H331 C339 0.930 . S
H332 C342 0.930 . S
H333 C343 0.930 . S
C334 H328 0.930 . S
C334 C335 1.355 . S
C334 C336 1.415 . S
C335 C334 1.355 . S
C335 C337 1.419 . S
C336 C334 1.415 . S
C336 C341 1.425 . S
C336 C343 1.409 . S
C337 H329 0.930 . S
C337 C335 1.419 . S
C337 C338 1.362 . S
C338 H330 0.930 . S
C338 C337 1.362 . S
C338 C341 1.409 . S
C339 H331 0.930 . S
C339 C340 1.355 . S
C339 C341 1.415 . S
C340 C339 1.355 . S
C340 C342 1.419 . S
C341 C336 1.425 . S
C341 C338 1.409 . S
C341 C339 1.415 . S
C342 H332 0.930 . S
C342 C340 1.419 . S
C342 C343 1.362 . S
C343 H333 0.930 . S
C343 C336 1.409 . S
C343 C342 1.362 . S
H344 C350 0.930 . S
H345 C353 0.930 . S
H346 C354 0.930 . S
H347 C355 0.930 . S
H348 C358 0.930 . S
H349 C359 0.930 . S
C350 H344 0.930 . S
C350 C351 1.354 1_565 S
C350 C352 1.415 . S
C351 C350 1.354 1_545 S
C351 C353 1.420 1_455 S
C352 C350 1.415 . S
C352 C357 1.425 1_465 S
C352 C359 1.409 . S
C353 H345 0.930 . S
C353 C351 1.420 1_655 S
C353 C354 1.362 . S
C354 H346 0.930 . S
C354 C353 1.362 . S
C354 C357 1.409 . S
C355 H347 0.930 . S
C355 C356 1.355 1_655 S
C355 C357 1.415 . S
C356 C355 1.355 1_455 S
C356 C358 1.419 1_545 S
C357 C352 1.425 1_645 S
C357 C354 1.409 . S
C357 C355 1.415 . S
C358 H348 0.930 . S
C358 C356 1.419 1_565 S
C358 C359 1.362 . S
C359 H349 0.930 . S
C359 C352 1.409 . S
C359 C358 1.362 . S
H360 C366 0.930 . S
H361 C369 0.930 . S
H362 C370 0.930 . S
H363 C371 0.930 . S
H364 C374 0.930 . S
H365 C375 0.930 . S
C366 H360 0.930 . S
C366 C367 1.355 . S
C366 C368 1.415 . S
C367 C366 1.355 . S
C367 C369 1.419 1_545 S
C368 C366 1.415 . S
C368 C373 1.425 1_545 S
C368 C375 1.409 . S
C369 H361 0.930 . S
C369 C367 1.419 1_565 S
C369 C370 1.362 . S
C370 H362 0.930 . S
C370 C369 1.362 . S
C370 C373 1.409 . S
C371 H363 0.930 . S
C371 C372 1.355 1_565 S
C371 C373 1.415 . S
C372 C371 1.355 1_545 S
C372 C374 1.419 . S
C373 C368 1.425 1_565 S
C373 C370 1.409 . S
C373 C371 1.415 . S
C374 H364 0.930 . S
C374 C372 1.419 . S
C374 C375 1.362 . S
C375 H365 0.930 . S
C375 C368 1.409 . S
C375 C374 1.362 . S
H376 C382 0.930 . S
H377 C385 0.930 . S
H378 C386 0.930 . S
H379 C387 0.930 . S
H380 C390 0.930 . S
H381 C391 0.930 . S
C382 H376 0.930 . S
C382 C383 1.355 . S
C382 C384 1.415 . S
C383 C382 1.355 . S
C383 C385 1.419 . S
C384 C382 1.415 . S
C384 C389 1.425 . S
C384 C391 1.409 . S
C385 H377 0.930 . S
C385 C383 1.419 . S
C385 C386 1.362 . S
C386 H378 0.930 . S
C386 C385 1.362 . S
C386 C389 1.409 . S
C387 H379 0.930 . S
C387 C388 1.355 . S
C387 C389 1.415 . S
C388 C387 1.355 . S
C388 C390 1.419 . S
C389 C384 1.425 . S
C389 C386 1.409 . S
C389 C387 1.415 . S
C390 H380 0.930 . S
C390 C388 1.419 . S
C390 C391 1.362 . S
C391 H381 0.930 . S
C391 C384 1.409 . S
C391 C390 1.362 . S
H392 C398 0.930 . S
H393 C401 0.930 . S
H394 C402 0.930 . S
H395 C403 0.930 . S
H396 C406 0.930 . S
H397 C407 0.930 . S
C398 H392 0.930 . S
C398 C399 1.355 . S
C398 C400 1.415 . S
C399 C398 1.355 . S
C399 C401 1.419 . S
C400 C398 1.415 . S
C400 C405 1.425 . S
C400 C407 1.409 . S
C401 H393 0.930 . S
C401 C399 1.419 . S
C401 C402 1.362 . S
C402 H394 0.930 . S
C402 C401 1.362 . S
C402 C405 1.409 . S
C403 H395 0.930 . S
C403 C404 1.355 . S
C403 C405 1.415 . S
C404 C403 1.355 . S
C404 C406 1.419 . S
C405 C400 1.425 . S
C405 C402 1.409 . S
C405 C403 1.415 . S
C406 H396 0.930 . S
C406 C404 1.419 . S
C406 C407 1.362 . S
C407 H397 0.930 . S
C407 C400 1.409 . S
C407 C406 1.362 . S
C228 C193 1.475 . S
C223 C27 1.531 . S
C239 N6 1.439 . S
C244 C154 1.435 1_554 S
C255 C16 1.509 . S
C260 C198 1.487 . S
C271 N14 1.430 . S
C276 C159 1.445 1_554 S
C287 C57 1.528 . S
C292 C115 1.489 . S
C303 N36 1.404 . S
C308 C76 1.455 . S
C324 C120 1.474 . S
C319 C46 1.507 . S
C340 C81 1.413 . S
C335 N44 1.404 . S
C351 C10 1.396 . S
C356 C61 1.389 . S
C367 C1 1.528 . S
C372 C100 1.532 . S
C388 C139 1.390 . S
C383 C40 1.376 . S
C399 C31 1.526 . S
C404 C178 1.532 . S
