# Generated by pormake.
# Topology tsx, (6,3)-cn, num edge types: 1
# Building blocks:
#     Node 0, Type 0, BuildingBlock: FUNLAD_clean_sbu_0, # of connection points: 6
#     Node 1, Type 0, BuildingBlock: FUNLAD_clean_sbu_0, # of connection points: 6
#     Node 2, Type 1, BuildingBlock: BELTOD_clean_linker_0, # of connection points: 3
#     Node 3, Type 1, BuildingBlock: BELTOD_clean_linker_0, # of connection points: 3
#     Node 4, Type 1, BuildingBlock: BELTOD_clean_linker_0, # of connection points: 3
#     Node 5, Type 1, BuildingBlock: BELTOD_clean_linker_0, # of connection points: 3
#     Edge 6, Type (0, 1), BuildingBlock: KIFKEQ_clean_linker_1, # of connection points: 2
#     Edge 7, Type (0, 1), BuildingBlock: KIFKEQ_clean_linker_1, # of connection points: 2
#     Edge 8, Type (0, 1), BuildingBlock: KIFKEQ_clean_linker_1, # of connection points: 2
#     Edge 9, Type (0, 1), BuildingBlock: KIFKEQ_clean_linker_1, # of connection points: 2
#     Edge 10, Type (0, 1), BuildingBlock: KIFKEQ_clean_linker_1, # of connection points: 2
#     Edge 11, Type (0, 1), BuildingBlock: KIFKEQ_clean_linker_1, # of connection points: 2
#     Edge 12, Type (0, 1), BuildingBlock: KIFKEQ_clean_linker_1, # of connection points: 2
#     Edge 13, Type (0, 1), BuildingBlock: KIFKEQ_clean_linker_1, # of connection points: 2
#     Edge 14, Type (0, 1), BuildingBlock: KIFKEQ_clean_linker_1, # of connection points: 2
#     Edge 15, Type (0, 1), BuildingBlock: KIFKEQ_clean_linker_1, # of connection points: 2
#     Edge 16, Type (0, 1), BuildingBlock: KIFKEQ_clean_linker_1, # of connection points: 2
#     Edge 17, Type (0, 1), BuildingBlock: KIFKEQ_clean_linker_1, # of connection points: 2
# Relax obj value: 0.152
# Max RMSD: 0.149
# Mean RMSD: 0.078
data_MOF--net-tsx--node1-FUNLAD_clean_sbu_0--node2-BELTOD_clean_linker_0--edge1-KIFKEQ_clean_linker_1
_symmetry_space_group_name_H-M    P1
_symmetry_Int_Tables_number       1
_symmetry_cell_setting            triclinic
loop_
_symmetry_equiv_pos_as_xyz
'x, y, z'
_cell_length_a     21.894253
_cell_length_b     24.366766
_cell_length_c     46.831622
_cell_angle_alpha  91.761212
_cell_angle_beta   91.958841
_cell_angle_gamma 89.95082
loop_
_atom_site_label
_atom_site_type_symbol
_atom_site_fract_x
_atom_site_fract_y
_atom_site_fract_z
_atom_type_partial_charge
C0 C 0.88441 0.91514 1.00005 0.0
N1 N 0.97289 -0.00029 0.0693 0.0
C2 C 0.92056 -0.00164 0.08414 0.0
C3 C 0.92318 0.00019 0.11406 0.0
C4 C 0.98019 0.00351 0.1288 0.0
C5 C 0.03327 0.00474 0.11282 0.0
C6 C 0.02857 0.00262 0.08306 0.0
Zn7 Zn 0.97103 -0.00154 0.02556 0.0
C8 C 0.06239 0.9212 0.00178 0.0
N9 N 0.97209 -0.00401 0.93408 0.0
C10 C 0.92119 0.98883 0.91686 0.0
C11 C 0.02842 -0.00033 0.92287 0.0
C12 C 0.03542 -0.00462 0.89346 0.0
C13 C 0.98414 0.98648 0.8751 0.0
C14 C 0.92619 0.98394 0.88712 0.0
Zn15 Zn 0.96932 -0.00216 0.97787 0.0
O16 O 0.90519 0.93558 0.02373 0.0
C17 C 0.87883 0.07578 0.00111 0.0
O18 O 0.90349 0.93322 0.97675 0.0
H19 H 0.06848 0.00504 0.9368 0.0
H20 H 0.87676 -0.00402 0.07276 0.0
H21 H 0.87685 0.98582 0.92619 0.0
O22 O 0.90091 0.05844 0.02465 0.0
O23 O 0.89883 0.05664 0.97763 0.0
H24 H 0.06965 0.00379 0.07092 0.0
O25 O 0.03577 0.06216 0.98001 0.0
O26 O 0.03618 0.06186 0.02682 0.0
O27 O 0.0393 0.93962 0.97881 0.0
O28 O 0.04218 0.93824 0.02557 0.0
C29 C 0.05589 0.08124 0.00406 0.0
H30 H 0.88108 -0.00139 0.12548 0.0
H31 H 0.07815 0.00834 0.12315 0.0
H32 H 0.08084 -0.00122 0.88524 0.0
H33 H 0.88541 0.97678 0.87381 0.0
C34 C 0.38433 0.41877 0.50151 0.0
N35 N 0.47527 0.50335 0.57006 0.0
C36 C 0.4227 0.50369 0.58475 0.0
C37 C 0.42494 0.50625 0.61466 0.0
C38 C 0.48184 0.50858 0.62954 0.0
C39 C 0.53518 0.50821 0.6137 0.0
C40 C 0.53084 0.50537 0.58395 0.0
Zn41 Zn 0.47385 0.50044 0.52634 0.0
C42 C 0.56127 0.41818 0.50396 0.0
N43 N 0.47512 0.4946 0.43498 0.0
C44 C 0.42389 0.49528 0.41769 0.0
C45 C 0.53166 0.49185 0.42384 0.0
C46 C 0.53847 0.48933 0.39439 0.0
C47 C 0.48667 0.4902 0.37589 0.0
C48 C 0.42864 0.49315 0.38791 0.0
Zn49 Zn 0.47204 0.49743 0.47869 0.0
O50 O 0.40588 0.43962 0.52495 0.0
C51 C 0.38462 0.57983 0.50116 0.0
O52 O 0.40349 0.43558 0.47795 0.0
H53 H 0.57191 0.49135 0.43786 0.0
H54 H 0.379 0.50199 0.57327 0.0
H55 H 0.37937 0.49757 0.42698 0.0
O56 O 0.40605 0.56252 0.52482 0.0
O57 O 0.40404 0.55936 0.47783 0.0
H58 H 0.57214 0.50514 0.57193 0.0
O59 O 0.54155 0.5593 0.48026 0.0
O60 O 0.54167 0.56077 0.52704 0.0
O61 O 0.53926 0.43525 0.48044 0.0
O62 O 0.54227 0.43864 0.52728 0.0
C63 C 0.56277 0.57827 0.50415 0.0
H64 H 0.38265 0.50592 0.62598 0.0
H65 H 0.58001 0.511 0.62414 0.0
H66 H 0.58406 0.4859 0.38626 0.0
H67 H 0.38743 0.49438 0.37449 0.0
P68 P 0.09212 0.09252 0.43851 0.0
H69 H 0.07354 0.16057 0.48949 0.0
H70 H 0.98304 0.20272 0.50992 0.0
H71 H 0.87158 0.12948 0.44079 0.0
H72 H 0.96145 0.08494 0.42192 0.0
H73 H 0.21266 0.04607 0.44813 0.0
H74 H 0.24823 0.95948 0.46732 0.0
H75 H 0.06219 0.91555 0.4846 0.0
H76 H 0.02683 0.00302 0.46531 0.0
H77 H 0.10999 0.15721 0.38799 0.0
H78 H 0.04122 -0.00315 0.40643 0.0
O79 O 0.14734 0.13961 0.44256 0.0
H80 H 0.08778 0.1395 0.3371 0.0
H81 H 0.01678 0.97945 0.35577 0.0
C82 C 0.0244 0.1202 0.45411 0.0
C83 C 0.02937 0.15292 0.47914 0.0
C84 C 0.97756 0.17741 0.4906 0.0
C85 C 0.91975 0.17011 0.4769 0.0
C86 C 0.91494 0.13561 0.45224 0.0
C87 C 0.9667 0.11051 0.44113 0.0
C88 C 0.11735 0.03128 0.45575 0.0
C89 C 0.17961 0.01834 0.45656 0.0
C90 C 0.19988 0.96882 0.46761 0.0
C91 C 0.15802 0.93075 0.47759 0.0
C92 C 0.09545 0.94397 0.47692 0.0
C93 C 0.07527 0.994 0.46609 0.0
C94 C 0.07848 0.07794 0.40091 0.0
C95 C 0.0904 0.11805 0.38105 0.0
C96 C 0.07697 0.10805 0.35197 0.0
C97 C 0.05044 0.05797 0.34224 0.0
C98 C 0.03822 0.01803 0.36236 0.0
C99 C 0.05212 0.02796 0.39141 0.0
P100 P 0.10362 0.90462 0.56922 0.0
H101 H 0.0804 0.80907 0.53073 0.0
H102 H 0.98593 0.76597 0.51238 0.0
H103 H 0.88259 0.90085 0.54879 0.0
H104 H 0.9766 0.9407 0.56907 0.0
H105 H 0.22499 0.94725 0.5592 0.0
H106 H 0.26075 0.03321 0.54011 0.0
H107 H 0.07361 0.08464 0.52587 0.0
H108 H 0.03836 -0.00107 0.5446 0.0
H109 H 0.03259 0.84486 0.60964 0.0
H110 H 0.14058 0.99299 0.61069 0.0
O111 O 0.15866 0.85729 0.56776 0.0
H112 H 0.00935 0.86215 0.65978 0.0
H113 H 0.11737 0.01052 0.66085 0.0
C114 C 0.03548 0.878 0.55129 0.0
C115 C 0.03739 0.82952 0.5345 0.0
C116 C 0.98316 0.80518 0.52377 0.0
C117 C 0.9262 0.82945 0.52938 0.0
C118 C 0.92526 0.88011 0.54463 0.0
C119 C 0.97923 0.90358 0.55586 0.0
C120 C 0.12901 0.96594 0.55279 0.0
C121 C 0.19167 0.97654 0.5514 0.0
C122 C 0.21205 0.02567 0.54046 0.0
C123 C 0.16995 0.06559 0.53132 0.0
C124 C 0.10716 0.0548 0.53279 0.0
C125 C 0.08691 0.00545 0.54345 0.0
C126 C 0.08727 0.91817 0.60623 0.0
C127 C 0.05087 0.88137 0.62058 0.0
C128 C 0.03741 0.89139 0.64921 0.0
C129 C 0.06103 0.93798 0.66419 0.0
C130 C 0.09858 0.97423 0.64989 0.0
C131 C 0.11163 0.96436 0.62115 0.0
P132 P 0.59652 0.59298 0.93918 0.0
H133 H 0.57659 0.69036 0.97585 0.0
H134 H 0.48425 0.73393 0.99325 0.0
H135 H 0.37641 0.59964 0.95585 0.0
H136 H 0.46836 0.55863 0.93696 0.0
H137 H 0.71636 0.54364 0.9466 0.0
H138 H 0.75115 0.45618 0.96536 0.0
H139 H 0.56532 0.41527 0.98438 0.0
H140 H 0.53098 0.50308 0.96625 0.0
H141 H 0.61379 0.65864 0.88897 0.0
H142 H 0.54067 0.49963 0.90701 0.0
O143 O 0.65316 0.63876 0.94281 0.0
H144 H 0.58976 0.64234 0.83813 0.0
H145 H 0.51421 0.48382 0.85647 0.0
C146 C 0.52942 0.62128 0.95509 0.0
C147 C 0.53312 0.67008 0.97164 0.0
C148 C 0.48014 0.69475 0.98182 0.0
C149 C 0.42251 0.67062 0.9758 0.0
C150 C 0.41967 0.62014 0.96039 0.0
C151 C 0.47248 0.5962 0.9498 0.0
C152 C 0.62128 0.53051 0.95545 0.0
C153 C 0.68324 0.51637 0.95534 0.0
C154 C 0.70307 0.46642 0.96609 0.0
C155 C 0.6609 0.42911 0.97645 0.0
C156 C 0.59874 0.44322 0.97643 0.0
C157 C 0.57911 0.49363 0.96609 0.0
C158 C 0.58013 0.57994 0.90169 0.0
C159 C 0.59266 0.62014 0.88197 0.0
C160 C 0.57822 0.61098 0.85292 0.0
C161 C 0.55007 0.56167 0.8431 0.0
C162 C 0.53688 0.5218 0.86312 0.0
C163 C 0.55181 0.53088 0.89212 0.0
P164 P 0.60189 0.40597 0.06949 0.0
H165 H 0.57136 0.32854 0.02228 0.0
H166 H 0.47499 0.28457 0.00598 0.0
H167 H 0.37898 0.3815 0.0688 0.0
H168 H 0.47456 0.42607 0.08444 0.0
H169 H 0.72145 0.45039 0.05881 0.0
H170 H 0.75501 0.53561 0.0385 0.0
H171 H 0.56663 0.58204 0.02238 0.0
H172 H 0.53341 0.49623 0.04297 0.0
H173 H 0.62151 0.33934 0.11973 0.0
H174 H 0.56269 0.50404 0.10191 0.0
O175 O 0.65533 0.35778 0.06521 0.0
H176 H 0.60311 0.35607 0.1704 0.0
H177 H 0.54162 0.52046 0.15215 0.0
C178 C 0.53034 0.37958 0.05497 0.0
C179 C 0.52939 0.34097 0.03215 0.0
C180 C 0.47441 0.31606 0.02281 0.0
C181 C 0.4199 0.32927 0.03644 0.0
C182 C 0.42062 0.37015 0.05824 0.0
C183 C 0.47532 0.39549 0.06724 0.0
C184 C 0.6251 0.4666 0.05189 0.0
C185 C 0.68738 0.47844 0.05045 0.0
C186 C 0.70648 0.52719 0.03873 0.0
C187 C 0.66349 0.56555 0.02864 0.0
C188 C 0.60086 0.55352 0.03015 0.0
C189 C 0.58182 0.50434 0.0417 0.0
C190 C 0.59466 0.42075 0.10714 0.0
C191 C 0.60522 0.37932 0.12678 0.0
C192 C 0.59387 0.38876 0.15572 0.0
C193 C 0.57062 0.43963 0.16548 0.0
C194 C 0.56054 0.48116 0.14562 0.0
C195 C 0.57253 0.4718 0.11676 0.0
H196 H 0.14459 0.10039 0.96596 0.0
H197 H 0.07455 0.15809 0.04651 0.0
H198 H 0.23083 0.16356 0.97243 0.0
H199 H 0.15801 0.22358 0.05226 0.0
H200 H 0.35118 0.27764 0.07419 0.0
H201 H 0.26101 0.22149 0.06456 0.0
H202 H 0.27012 0.25334 0.97439 0.0
H203 H 0.36305 0.30756 0.98425 0.0
C204 C 0.14702 0.12754 0.98473 0.0
C205 C 0.10351 0.124 0.00592 0.0
C206 C 0.19626 0.16398 0.98841 0.0
C207 C 0.20219 0.19827 0.01312 0.0
C208 C 0.15629 0.19668 0.03342 0.0
C209 C 0.10806 0.15947 0.03005 0.0
C210 C 0.33353 0.27293 0.05235 0.0
C211 C 0.36362 0.29715 0.02998 0.0
C212 C 0.2815 0.241 0.04677 0.0
C213 C 0.25743 0.23323 0.01868 0.0
C214 C 0.28757 0.25786 0.99625 0.0
C215 C 0.34053 0.28914 0.00184 0.0
H216 H 0.12206 0.88821 0.95448 0.0
H217 H 0.11786 0.86445 0.0455 0.0
H218 H 0.20597 0.82414 0.95093 0.0
H219 H 0.20182 0.79823 0.04174 0.0
H220 H 0.40021 0.73554 0.02362 0.0
H221 H 0.311 0.79344 0.03178 0.0
H222 H 0.22532 0.72826 0.95347 0.0
H223 H 0.31529 0.67386 0.94427 0.0
C224 C 0.13865 0.86881 0.97376 0.0
C225 C 0.11302 0.88123 1.00027 0.0
C226 C 0.18664 0.83166 0.97167 0.0
C227 C 0.21009 0.80541 0.99598 0.0
C228 C 0.18484 0.81794 0.02263 0.0
C229 C 0.13668 0.85562 0.02477 0.0
C230 C 0.36237 0.7337 0.00811 0.0
C231 C 0.36545 0.70032 0.98313 0.0
C232 C 0.31091 0.76636 0.013 0.0
C233 C 0.26143 0.76603 0.99307 0.0
C234 C 0.2632 0.73037 0.96897 0.0
C235 C 0.31464 0.69837 0.96393 0.0
H236 H 0.81804 0.88215 0.04448 0.0
H237 H 0.852 0.84373 0.95573 0.0
H238 H 0.75445 0.80068 0.04648 0.0
H239 H 0.78785 0.76172 0.95779 0.0
H240 H 0.76028 0.58505 0.99488 0.0
H241 H 0.80337 0.67359 0.98365 0.0
H242 H 0.6579 0.75604 0.02783 0.0
H243 H 0.61507 0.66734 0.03945 0.0
C244 C 0.81126 0.85666 0.02527 0.0
C245 C 0.84053 0.86906 1.00002 0.0
C246 C 0.77435 0.81021 0.02636 0.0
C247 C 0.76624 0.7748 0.0023 0.0
C248 C 0.79365 0.78818 0.9767 0.0
C249 C 0.83015 0.83515 0.97551 0.0
C250 C 0.73696 0.62202 0.00187 0.0
C251 C 0.6845 0.61909 0.01826 0.0
C252 C 0.76136 0.67277 0.99519 0.0
C253 C 0.73421 0.72172 0.00503 0.0
C254 C 0.68007 0.7189 0.0202 0.0
C255 C 0.65534 0.6681 0.02667 0.0
H256 H 0.84583 0.14197 0.04619 0.0
H257 H 0.8108 0.11215 0.95564 0.0
H258 H 0.78225 0.22436 0.04442 0.0
H259 H 0.74751 0.19432 0.95397 0.0
H260 H 0.61001 0.32983 0.96159 0.0
H261 H 0.65156 0.23899 0.97154 0.0
H262 H 0.80099 0.31437 0.02091 0.0
H263 H 0.75927 0.40501 0.01114 0.0
C264 C 0.82372 0.15242 0.02604 0.0
C265 C 0.83382 0.12094 0.00097 0.0
C266 C 0.78756 0.19965 0.02504 0.0
C267 C 0.76026 0.21579 0.99906 0.0
C268 C 0.76755 0.18258 0.97435 0.0
C269 C 0.80417 0.13574 0.97527 0.0
C270 C 0.651 0.32686 0.97508 0.0
C271 C 0.68164 0.37437 0.98551 0.0
C272 C 0.67487 0.27497 0.98063 0.0
C273 C 0.72959 0.26971 0.99686 0.0
C274 C 0.75844 0.31717 0.00855 0.0
C275 C 0.73488 0.36903 0.00277 0.0
H276 H 0.61372 0.6327 0.46022 0.0
H277 H 0.62588 0.61504 0.55181 0.0
H278 H 0.69794 0.69894 0.46382 0.0
H279 H 0.71035 0.67903 0.55525 0.0
H280 H 0.82285 0.82782 0.56051 0.0
H281 H 0.73157 0.77363 0.55153 0.0
H282 H 0.80739 0.70439 0.47444 0.0
H283 H 0.8977 0.76233 0.48223 0.0
C284 C 0.63432 0.64293 0.48106 0.0
C285 C 0.61288 0.61893 0.50574 0.0
C286 C 0.6827 0.6806 0.48311 0.0
C287 C 0.71054 0.69472 0.50985 0.0
C288 C 0.68909 0.67028 0.53439 0.0
C289 C 0.64076 0.63317 0.53238 0.0
C290 C 0.81971 0.80251 0.54111 0.0
C291 C 0.86813 0.79957 0.52214 0.0
C292 C 0.76752 0.77055 0.53624 0.0
C293 C 0.7626 0.73381 0.51258 0.0
C294 C 0.80968 0.73233 0.49288 0.0
C295 C 0.86183 0.76502 0.49756 0.0
H296 H 0.646 0.39735 0.54649 0.0
H297 H 0.58614 0.3445 0.46116 0.0
H298 H 0.73144 0.33234 0.54444 0.0
H299 H 0.67056 0.27913 0.45942 0.0
H300 H 0.79991 0.13615 0.47649 0.0
H301 H 0.71004 0.19204 0.48637 0.0
H302 H 0.82632 0.32956 0.51085 0.0
H303 H 0.91615 0.2751 0.49974 0.0
C304 C 0.65058 0.3713 0.52752 0.0
C305 C 0.60971 0.37609 0.50392 0.0
C306 C 0.69942 0.33433 0.52634 0.0
C307 C 0.70725 0.30077 0.50182 0.0
C308 C 0.66509 0.30419 0.47868 0.0
C309 C 0.6171 0.34183 0.47962 0.0
C310 C 0.80651 0.17829 0.48394 0.0
C311 C 0.8655 0.20117 0.48692 0.0
C312 C 0.75502 0.21006 0.48978 0.0
C313 C 0.76146 0.265 0.49926 0.0
C314 C 0.82026 0.28707 0.50384 0.0
C315 C 0.87173 0.25565 0.49755 0.0
H316 H 0.32208 0.38503 0.54704 0.0
H317 H 0.34916 0.34752 0.45755 0.0
H318 H 0.26171 0.30207 0.55028 0.0
H319 H 0.28767 0.2642 0.46078 0.0
H320 H 0.2636 0.08655 0.49599 0.0
H321 H 0.30557 0.17592 0.485 0.0
H322 H 0.16659 0.25594 0.53465 0.0
H323 H 0.1258 0.16666 0.54631 0.0
C324 C 0.31428 0.3595 0.52791 0.0
C325 C 0.34083 0.37256 0.5021 0.0
C326 C 0.27925 0.3121 0.52973 0.0
C327 C 0.2701 0.27651 0.5058 0.0
C328 C 0.29449 0.29066 0.47963 0.0
C329 C 0.32932 0.33847 0.47775 0.0
C330 C 0.24176 0.12328 0.50433 0.0
C331 C 0.19159 0.11961 0.52209 0.0
C332 C 0.26535 0.17445 0.49779 0.0
C333 C 0.2395 0.22293 0.50907 0.0
C334 C 0.18784 0.21926 0.52589 0.0
C335 C 0.16426 0.16815 0.53241 0.0
H336 H 0.3172 0.61684 0.45546 0.0
H337 H 0.35161 0.64642 0.54606 0.0
H338 H 0.25189 0.69801 0.45402 0.0
H339 H 0.28642 0.72777 0.54447 0.0
H340 H 0.25856 0.90812 0.51131 0.0
H341 H 0.3031 0.81853 0.5205 0.0
H342 H 0.15328 0.7401 0.47286 0.0
H343 H 0.10818 0.8301 0.4638 0.0
C344 C 0.31022 0.64023 0.47512 0.0
C345 C 0.34005 0.62551 0.50081 0.0
C346 C 0.27243 0.68645 0.47433 0.0
C347 C 0.26425 0.71919 0.49913 0.0
C348 C 0.29225 0.70337 0.52502 0.0
C349 C 0.32945 0.65677 0.5259 0.0
C350 C 0.23438 0.87177 0.50332 0.0
C351 C 0.17994 0.87622 0.48679 0.0
C352 C 0.25977 0.82043 0.50869 0.0
C353 C 0.2318 0.77242 0.49724 0.0
C354 C 0.17595 0.77656 0.48177 0.0
C355 C 0.15 0.828 0.47676 0.0
H356 H 0.06491 0.95453 0.16402 0.0
H357 H 0.90626 0.06006 0.16564 0.0
H358 H 0.07866 0.96657 0.21551 0.0
H359 H 0.91796 0.06958 0.21751 0.0
H360 H 0.00444 0.13046 0.30333 0.0
H361 H 0.98436 0.11452 0.25235 0.0
H362 H 0.03867 0.94495 0.2603 0.0
H363 H 0.06229 0.96176 0.31095 0.0
C364 C 0.03267 0.98006 0.17539 0.0
C365 C 0.98486 0.00682 0.16059 0.0
C366 C 0.04007 0.98635 0.20503 0.0
C367 C -0.00044 0.01923 0.22074 0.0
C368 C 0.95059 0.04464 0.20606 0.0
C369 C 0.94337 0.03857 0.17633 0.0
C370 C 0.01275 0.0899 0.29417 0.0
C371 C 0.0355 0.04754 0.31129 0.0
C372 C 0.00028 0.08051 0.26496 0.0
C373 C 0.00986 0.02842 0.25213 0.0
C374 C 0.03149 0.98578 0.26935 0.0
C375 C 0.04433 -0.00474 0.29852 0.0
H376 H 0.07475 0.93002 0.84827 0.0
H377 H 0.91133 0.02465 0.83089 0.0
H378 H 0.09172 0.92089 0.79733 0.0
H379 H 0.92796 0.01441 0.77958 0.0
H380 H 0.95103 0.92884 0.68974 0.0
H381 H 0.93013 0.94099 0.74053 0.0
H382 H 0.11963 0.98238 0.75839 0.0
H383 H 0.14072 0.96932 0.7078 0.0
C384 C 0.04261 0.94927 0.83361 0.0
C385 C 0.99205 0.97872 0.84377 0.0
C386 C 0.05235 0.94391 0.80438 0.0
C387 C 0.01156 0.96742 0.78447 0.0
C388 C 0.96005 -0.00435 0.79445 0.0
C389 C 0.95046 0.00137 0.82382 0.0
C390 C 0.98819 0.94044 0.70456 0.0
C391 C 0.04758 0.9479 0.6948 0.0
C392 C 0.9761 0.94787 0.73356 0.0
C393 C 0.02329 0.96238 0.75345 0.0
C394 C 0.08246 0.9706 0.74361 0.0
C395 C 0.09443 0.96363 0.71461 0.0
H396 H 0.40901 0.5673 0.666 0.0
H397 H 0.56464 0.45813 0.6651 0.0
H398 H 0.41997 0.57681 0.7179 0.0
H399 H 0.57776 0.47015 0.71659 0.0
H400 H 0.55932 0.46534 0.81174 0.0
H401 H 0.536 0.44928 0.76104 0.0
H402 H 0.4868 0.62009 0.75316 0.0
H403 H 0.50647 0.63538 0.80423 0.0
C404 C 0.44531 0.54505 0.67686 0.0
C405 C 0.48616 0.51222 0.66131 0.0
C406 C 0.45211 0.55109 0.7066 0.0
C407 C 0.50003 0.52458 0.72148 0.0
C408 C 0.53995 0.49077 0.70596 0.0
C409 C 0.53294 0.48449 0.67631 0.0
C410 C 0.54249 0.4993 0.79933 0.0
C411 C 0.53497 0.55172 0.81214 0.0
C412 C 0.52985 0.49023 0.77012 0.0
C413 C 0.50984 0.53343 0.7529 0.0
C414 C 0.50149 0.58568 0.76578 0.0
C415 C 0.51372 0.59467 0.79504 0.0
H416 H 0.41557 0.43443 0.33512 0.0
H417 H 0.57446 0.53925 0.34515 0.0
H418 H 0.43176 0.42546 0.28395 0.0
H419 H 0.59292 0.52741 0.29457 0.0
H420 H 0.58538 0.53396 0.1986 0.0
H421 H 0.55891 0.54964 0.24816 0.0
H422 H 0.4989 0.38113 0.2519 0.0
H423 H 0.52136 0.36657 0.20177 0.0
C424 C 0.45373 0.45582 0.32643 0.0
C425 C 0.49394 0.48722 0.34437 0.0
C426 C 0.46357 0.45003 0.29712 0.0
C427 C 0.51402 0.47527 0.28505 0.0
C428 C 0.55327 0.50775 0.30293 0.0
C429 C 0.54315 0.51389 0.33212 0.0
C430 C 0.56565 0.50044 0.20982 0.0
C431 C 0.55567 0.44894 0.19607 0.0
C432 C 0.55117 0.50924 0.23843 0.0
C433 C 0.52689 0.46663 0.25419 0.0
C434 C 0.51673 0.41518 0.24041 0.0
C435 C 0.53067 0.40652 0.21172 0.0
loop_
_geom_bond_atom_site_label_1
_geom_bond_atom_site_label_2
_geom_bond_distance
_geom_bond_site_symmetry_2
_ccdc_geom_bond_type
C0 O16 1.251 . S
C0 O18 1.254 1_554 S
N1 C2 1.333 1_445 S
N1 C6 1.307 . S
N1 Zn7 2.020 . S
C2 N1 1.333 1_665 S
C2 C3 1.379 . S
C2 H20 0.952 . S
C3 C2 1.379 . S
C3 C4 1.390 1_665 S
C3 H30 0.949 . S
C4 C3 1.390 1_445 S
C4 C5 1.357 . S
C5 C4 1.357 . S
C5 C6 1.370 . S
C5 H31 0.950 . S
C6 N1 1.307 . S
C6 C5 1.370 . S
C6 H24 0.948 . S
Zn7 N1 2.020 . S
Zn7 O16 2.039 1_445 S
Zn7 O22 2.034 1_455 S
Zn7 O26 2.025 . S
Zn7 O28 2.024 1_545 S
C8 O27 1.246 1_554 S
C8 O28 1.249 . S
N9 C10 1.304 1_445 S
N9 C11 1.339 . S
N9 Zn15 2.020 . S
C10 N9 1.304 1_665 S
C10 C14 1.370 . S
C10 H21 0.948 . S
C11 N9 1.339 . S
C11 C12 1.379 . S
C11 H19 0.952 . S
C12 C11 1.379 . S
C12 C13 1.390 . S
C12 H32 0.949 . S
C13 C12 1.390 . S
C13 C14 1.357 1_445 S
C14 C10 1.370 . S
C14 C13 1.357 1_665 S
C14 H33 0.950 . S
Zn15 N9 2.020 . S
Zn15 O18 2.025 1_445 S
Zn15 O23 2.024 1_455 S
Zn15 O25 2.039 . S
Zn15 O27 2.034 1_545 S
O16 C0 1.251 . S
O16 Zn7 2.039 1_665 S
C17 O22 1.246 . S
C17 O23 1.249 1_554 S
O18 C0 1.254 1_556 S
O18 Zn15 2.025 1_665 S
H19 C11 0.952 . S
H20 C2 0.952 . S
H21 C10 0.948 . S
O22 Zn7 2.034 1_655 S
O22 C17 1.246 . S
O23 Zn15 2.024 1_655 S
O23 C17 1.249 1_556 S
H24 C6 0.948 . S
O25 Zn15 2.039 . S
O25 C29 1.251 1_556 S
O26 Zn7 2.025 . S
O26 C29 1.254 . S
O27 C8 1.246 1_556 S
O27 Zn15 2.034 1_565 S
O28 Zn7 2.024 1_565 S
O28 C8 1.249 . S
C29 O25 1.251 1_554 S
C29 O26 1.254 . S
H30 C3 0.949 . S
H31 C5 0.950 . S
H32 C12 0.949 . S
H33 C14 0.950 . S
C34 O50 1.251 . S
C34 O52 1.254 . S
N35 C36 1.333 . S
N35 C40 1.307 . S
N35 Zn41 2.020 . S
C36 N35 1.333 . S
C36 C37 1.379 . S
C36 H54 0.952 . S
C37 C36 1.379 . S
C37 C38 1.390 . S
C37 H64 0.949 . S
C38 C37 1.390 . S
C38 C39 1.357 . S
C39 C38 1.357 . S
C39 C40 1.370 . S
C39 H65 0.950 . S
C40 N35 1.307 . S
C40 C39 1.370 . S
C40 H58 0.948 . S
Zn41 N35 2.020 . S
Zn41 O50 2.039 . S
Zn41 O56 2.034 . S
Zn41 O60 2.025 . S
Zn41 O62 2.024 . S
C42 O61 1.246 . S
C42 O62 1.249 . S
N43 C44 1.307 . S
N43 C45 1.333 . S
N43 Zn49 2.020 . S
C44 N43 1.307 . S
C44 C48 1.370 . S
C44 H55 0.948 . S
C45 N43 1.333 . S
C45 C46 1.379 . S
C45 H53 0.952 . S
C46 C45 1.379 . S
C46 C47 1.390 . S
C46 H66 0.949 . S
C47 C46 1.390 . S
C47 C48 1.357 . S
C48 C44 1.370 . S
C48 C47 1.357 . S
C48 H67 0.950 . S
Zn49 N43 2.020 . S
Zn49 O52 2.025 . S
Zn49 O57 2.024 . S
Zn49 O59 2.039 . S
Zn49 O61 2.034 . S
O50 C34 1.251 . S
O50 Zn41 2.039 . S
C51 O56 1.246 . S
C51 O57 1.249 . S
O52 C34 1.254 . S
O52 Zn49 2.025 . S
H53 C45 0.952 . S
H54 C36 0.952 . S
H55 C44 0.948 . S
O56 Zn41 2.034 . S
O56 C51 1.246 . S
O57 Zn49 2.024 . S
O57 C51 1.249 . S
H58 C40 0.948 . S
O59 Zn49 2.039 . S
O59 C63 1.251 . S
O60 Zn41 2.025 . S
O60 C63 1.254 . S
O61 C42 1.246 . S
O61 Zn49 2.034 . S
O62 Zn41 2.024 . S
O62 C42 1.249 . S
C63 O59 1.251 . S
C63 O60 1.254 . S
H64 C37 0.949 . S
H65 C39 0.950 . S
H66 C46 0.949 . S
H67 C48 0.950 . S
P68 O79 1.490 . S
P68 C82 1.812 1_455 S
P68 C88 1.803 1_545 S
P68 C94 1.819 . S
H69 C83 0.941 . S
H70 C84 0.939 . S
H71 C86 0.940 . S
H72 C87 0.940 . S
H73 C89 0.939 . S
H74 C90 0.942 . S
H75 C92 0.940 . S
H76 C93 0.939 . S
H77 C95 0.941 . S
H78 C99 0.939 . S
O79 P68 1.490 . S
H80 C96 0.939 . S
H81 C98 0.940 . S
C82 P68 1.812 1_655 S
C82 C83 1.389 1_655 S
C82 C87 1.391 . S
C83 H69 0.941 . S
C83 C82 1.389 1_455 S
C83 C84 1.397 1_455 S
C84 H70 0.939 . S
C84 C83 1.397 1_655 S
C84 C85 1.378 . S
C85 C84 1.378 . S
C85 C86 1.378 . S
C86 H71 0.940 . S
C86 C85 1.378 . S
C86 C87 1.396 . S
C87 H72 0.940 . S
C87 C82 1.391 . S
C87 C86 1.396 . S
C88 P68 1.803 1_565 S
C88 C89 1.378 . S
C88 C93 1.400 . S
C89 H73 0.939 . S
C89 C88 1.378 . S
C89 C90 1.361 . S
C90 H74 0.942 . S
C90 C89 1.361 . S
C90 C91 1.369 . S
C91 C90 1.369 . S
C91 C92 1.404 . S
C92 H75 0.940 . S
C92 C91 1.404 . S
C92 C93 1.389 . S
C93 H76 0.939 . S
C93 C88 1.400 . S
C93 C92 1.389 . S
C94 P68 1.819 . S
C94 C95 1.391 . S
C94 C99 1.391 1_545 S
C95 H77 0.941 . S
C95 C94 1.391 . S
C95 C96 1.396 . S
C96 H80 0.939 . S
C96 C95 1.396 . S
C96 C97 1.397 . S
C97 C96 1.397 . S
C97 C98 1.385 1_545 S
C98 H81 0.940 . S
C98 C97 1.385 1_565 S
C98 C99 1.388 . S
C99 H78 0.939 . S
C99 C94 1.391 1_565 S
C99 C98 1.388 . S
P100 O111 1.490 . S
P100 C114 1.812 . S
P100 C120 1.803 1_565 S
P100 C126 1.819 . S
H101 C115 0.941 . S
H102 C116 0.939 . S
H103 C118 0.940 . S
H104 C119 0.940 . S
H105 C121 0.939 . S
H106 C122 0.942 . S
H107 C124 0.940 . S
H108 C125 0.939 . S
H109 C127 0.941 . S
H110 C131 0.939 . S
O111 P100 1.490 . S
H112 C128 0.939 . S
H113 C130 0.940 . S
C114 P100 1.812 . S
C114 C115 1.389 . S
C114 C119 1.391 1_455 S
C115 H101 0.941 . S
C115 C114 1.389 . S
C115 C116 1.397 1_455 S
C116 H102 0.939 . S
C116 C115 1.397 1_655 S
C116 C117 1.378 . S
C117 C116 1.378 . S
C117 C118 1.378 . S
C118 H103 0.940 . S
C118 C117 1.378 . S
C118 C119 1.396 . S
C119 H104 0.940 . S
C119 C114 1.391 1_655 S
C119 C118 1.396 . S
C120 P100 1.803 1_545 S
C120 C121 1.378 . S
C120 C125 1.400 . S
C121 H105 0.939 . S
C121 C120 1.378 . S
C121 C122 1.361 . S
C122 H106 0.942 . S
C122 C121 1.361 . S
C122 C123 1.369 . S
C123 C122 1.369 . S
C123 C124 1.404 . S
C124 H107 0.940 . S
C124 C123 1.404 . S
C124 C125 1.389 . S
C125 H108 0.939 . S
C125 C120 1.400 . S
C125 C124 1.389 . S
C126 P100 1.819 . S
C126 C127 1.391 . S
C126 C131 1.391 1_565 S
C127 H109 0.941 . S
C127 C126 1.391 . S
C127 C128 1.396 . S
C128 H112 0.939 . S
C128 C127 1.396 . S
C128 C129 1.397 . S
C129 C128 1.397 . S
C129 C130 1.385 1_565 S
C130 H113 0.940 . S
C130 C129 1.385 1_545 S
C130 C131 1.388 . S
C131 H110 0.939 . S
C131 C126 1.391 1_545 S
C131 C130 1.388 . S
P132 O143 1.490 . S
P132 C146 1.812 . S
P132 C152 1.803 . S
P132 C158 1.819 . S
H133 C147 0.941 . S
H134 C148 0.939 1_554 S
H135 C150 0.940 . S
H136 C151 0.940 . S
H137 C153 0.939 . S
H138 C154 0.942 . S
H139 C156 0.940 . S
H140 C157 0.939 . S
H141 C159 0.941 . S
H142 C163 0.939 . S
O143 P132 1.490 . S
H144 C160 0.939 . S
H145 C162 0.940 . S
C146 P132 1.812 . S
C146 C147 1.389 . S
C146 C151 1.391 . S
C147 H133 0.941 . S
C147 C146 1.389 . S
C147 C148 1.397 . S
C148 H134 0.939 1_556 S
C148 C147 1.397 . S
C148 C149 1.378 . S
C149 C148 1.378 . S
C149 C150 1.378 . S
C150 H135 0.940 . S
C150 C149 1.378 . S
C150 C151 1.396 . S
C151 H136 0.940 . S
C151 C146 1.391 . S
C151 C150 1.396 . S
C152 P132 1.803 . S
C152 C153 1.378 . S
C152 C157 1.400 . S
C153 H137 0.939 . S
C153 C152 1.378 . S
C153 C154 1.361 . S
C154 H138 0.942 . S
C154 C153 1.361 . S
C154 C155 1.369 . S
C155 C154 1.369 . S
C155 C156 1.404 . S
C156 H139 0.940 . S
C156 C155 1.404 . S
C156 C157 1.389 . S
C157 H140 0.939 . S
C157 C152 1.400 . S
C157 C156 1.389 . S
C158 P132 1.819 . S
C158 C159 1.391 . S
C158 C163 1.391 . S
C159 H141 0.941 . S
C159 C158 1.391 . S
C159 C160 1.396 . S
C160 H144 0.939 . S
C160 C159 1.396 . S
C160 C161 1.397 . S
C161 C160 1.397 . S
C161 C162 1.385 . S
C162 H145 0.940 . S
C162 C161 1.385 . S
C162 C163 1.388 . S
C163 H142 0.939 . S
C163 C158 1.391 . S
C163 C162 1.388 . S
P164 O175 1.490 . S
P164 C178 1.812 . S
P164 C184 1.803 . S
P164 C190 1.819 . S
H165 C179 0.941 . S
H166 C180 0.939 1_556 S
H167 C182 0.940 . S
H168 C183 0.940 . S
H169 C185 0.939 . S
H170 C186 0.942 . S
H171 C188 0.940 . S
H172 C189 0.939 . S
H173 C191 0.941 . S
H174 C195 0.939 . S
O175 P164 1.490 . S
H176 C192 0.939 . S
H177 C194 0.940 . S
C178 P164 1.812 . S
C178 C179 1.389 . S
C178 C183 1.391 . S
C179 H165 0.941 . S
C179 C178 1.389 . S
C179 C180 1.397 . S
C180 H166 0.939 1_554 S
C180 C179 1.397 . S
C180 C181 1.378 . S
C181 C180 1.378 . S
C181 C182 1.378 . S
C182 H167 0.940 . S
C182 C181 1.378 . S
C182 C183 1.396 . S
C183 H168 0.940 . S
C183 C178 1.391 . S
C183 C182 1.396 . S
C184 P164 1.803 . S
C184 C185 1.378 . S
C184 C189 1.400 . S
C185 H169 0.939 . S
C185 C184 1.378 . S
C185 C186 1.361 . S
C186 H170 0.942 . S
C186 C185 1.361 . S
C186 C187 1.369 . S
C187 C186 1.369 . S
C187 C188 1.404 . S
C188 H171 0.940 . S
C188 C187 1.404 . S
C188 C189 1.389 . S
C189 H172 0.939 . S
C189 C184 1.400 . S
C189 C188 1.389 . S
C190 P164 1.819 . S
C190 C191 1.391 . S
C190 C195 1.391 . S
C191 H173 0.941 . S
C191 C190 1.391 . S
C191 C192 1.396 . S
C192 H176 0.939 . S
C192 C191 1.396 . S
C192 C193 1.397 . S
C193 C192 1.397 . S
C193 C194 1.385 . S
C194 H177 0.940 . S
C194 C193 1.385 . S
C194 C195 1.388 . S
C195 H174 0.939 . S
C195 C190 1.391 . S
C195 C194 1.388 . S
H196 C204 0.950 . S
H197 C209 0.950 . S
H198 C206 0.950 . S
H199 C208 0.950 . S
H200 C210 0.950 . S
H201 C212 0.950 . S
H202 C214 0.950 . S
H203 C215 0.950 . S
C204 H196 0.950 . S
C204 C205 1.386 1_556 S
C204 C206 1.391 . S
C205 C204 1.386 1_554 S
C205 C209 1.393 . S
C206 H198 0.950 . S
C206 C204 1.391 . S
C206 C207 1.400 1_556 S
C207 C206 1.400 1_554 S
C207 C208 1.398 . S
C207 C213 1.491 . S
C208 H199 0.950 . S
C208 C207 1.398 . S
C208 C209 1.391 . S
C209 H197 0.950 . S
C209 C205 1.393 . S
C209 C208 1.391 . S
C210 H200 0.950 . S
C210 C211 1.386 . S
C210 C212 1.391 . S
C211 C210 1.386 . S
C211 C215 1.393 1_554 S
C212 H201 0.950 . S
C212 C210 1.391 . S
C212 C213 1.400 . S
C213 C207 1.491 . S
C213 C212 1.400 . S
C213 C214 1.398 1_554 S
C214 H202 0.950 . S
C214 C213 1.398 1_556 S
C214 C215 1.391 . S
C215 H203 0.950 . S
C215 C211 1.393 1_556 S
C215 C214 1.391 . S
H216 C224 0.950 . S
H217 C229 0.950 . S
H218 C226 0.950 . S
H219 C228 0.950 . S
H220 C230 0.950 . S
H221 C232 0.950 . S
H222 C234 0.950 . S
H223 C235 0.950 . S
C224 H216 0.950 . S
C224 C225 1.386 1_556 S
C224 C226 1.391 . S
C225 C224 1.386 1_554 S
C225 C229 1.393 . S
C226 H218 0.950 . S
C226 C224 1.391 . S
C226 C227 1.400 . S
C227 C226 1.400 . S
C227 C228 1.398 1_556 S
C227 C233 1.491 . S
C228 H219 0.950 . S
C228 C227 1.398 1_554 S
C228 C229 1.391 . S
C229 H217 0.950 . S
C229 C225 1.393 . S
C229 C228 1.391 . S
C230 H220 0.950 . S
C230 C231 1.386 1_554 S
C230 C232 1.391 . S
C231 C230 1.386 1_556 S
C231 C235 1.393 . S
C232 H221 0.950 . S
C232 C230 1.391 . S
C232 C233 1.400 1_554 S
C233 C227 1.491 . S
C233 C232 1.400 1_556 S
C233 C234 1.398 . S
C234 H222 0.950 . S
C234 C233 1.398 . S
C234 C235 1.391 . S
C235 H223 0.950 . S
C235 C231 1.393 . S
C235 C234 1.391 . S
H236 C244 0.950 . S
H237 C249 0.950 . S
H238 C246 0.950 . S
H239 C248 0.950 . S
H240 C250 0.950 . S
H241 C252 0.950 . S
H242 C254 0.950 . S
H243 C255 0.950 . S
C244 H236 0.950 . S
C244 C245 1.386 . S
C244 C246 1.391 . S
C245 C244 1.386 . S
C245 C249 1.393 1_554 S
C246 H238 0.950 . S
C246 C244 1.391 . S
C246 C247 1.400 . S
C247 C246 1.400 . S
C247 C248 1.398 1_554 S
C247 C253 1.491 . S
C248 H239 0.950 . S
C248 C247 1.398 1_556 S
C248 C249 1.391 . S
C249 H237 0.950 . S
C249 C245 1.393 1_556 S
C249 C248 1.391 . S
C250 H240 0.950 . S
C250 C251 1.386 1_556 S
C250 C252 1.391 . S
C251 C250 1.386 1_554 S
C251 C255 1.393 . S
C252 H241 0.950 . S
C252 C250 1.391 . S
C252 C253 1.400 1_556 S
C253 C247 1.491 . S
C253 C252 1.400 1_554 S
C253 C254 1.398 . S
C254 H242 0.950 . S
C254 C253 1.398 . S
C254 C255 1.391 . S
C255 H243 0.950 . S
C255 C251 1.393 . S
C255 C254 1.391 . S
H256 C264 0.950 . S
H257 C269 0.950 . S
H258 C266 0.950 . S
H259 C268 0.950 . S
H260 C270 0.950 . S
H261 C272 0.950 . S
H262 C274 0.950 . S
H263 C275 0.950 . S
C264 H256 0.950 . S
C264 C265 1.386 . S
C264 C266 1.391 . S
C265 C264 1.386 . S
C265 C269 1.393 1_554 S
C266 H258 0.950 . S
C266 C264 1.391 . S
C266 C267 1.376 1_554 S
C267 C266 1.376 1_556 S
C267 C268 1.420 . S
C267 C273 1.494 . S
C268 H259 0.950 . S
C268 C267 1.420 . S
C268 C269 1.391 . S
C269 H257 0.950 . S
C269 C265 1.393 1_556 S
C269 C268 1.391 . S
C270 H260 0.950 . S
C270 C271 1.386 . S
C270 C272 1.391 . S
C271 C270 1.386 . S
C271 C275 1.393 1_556 S
C272 H261 0.950 . S
C272 C270 1.391 . S
C272 C273 1.400 . S
C273 C267 1.494 . S
C273 C272 1.400 . S
C273 C274 1.398 1_556 S
C274 H262 0.950 . S
C274 C273 1.398 1_554 S
C274 C275 1.391 . S
C275 H263 0.950 . S
C275 C271 1.393 1_554 S
C275 C274 1.391 . S
H276 C284 0.950 . S
H277 C289 0.950 . S
H278 C286 0.950 . S
H279 C288 0.950 . S
H280 C290 0.950 . S
H281 C292 0.950 . S
H282 C294 0.950 . S
H283 C295 0.950 . S
C284 H276 0.950 . S
C284 C285 1.386 . S
C284 C286 1.391 . S
C285 C284 1.386 . S
C285 C289 1.393 . S
C286 H278 0.950 . S
C286 C284 1.391 . S
C286 C287 1.400 . S
C287 C286 1.400 . S
C287 C288 1.398 . S
C287 C293 1.491 . S
C288 H279 0.950 . S
C288 C287 1.398 . S
C288 C289 1.391 . S
C289 H277 0.950 . S
C289 C285 1.393 . S
C289 C288 1.391 . S
C290 H280 0.950 . S
C290 C291 1.386 . S
C290 C292 1.391 . S
C291 C290 1.386 . S
C291 C295 1.393 . S
C292 H281 0.950 . S
C292 C290 1.391 . S
C292 C293 1.400 . S
C293 C287 1.491 . S
C293 C292 1.400 . S
C293 C294 1.398 . S
C294 H282 0.950 . S
C294 C293 1.398 . S
C294 C295 1.391 . S
C295 H283 0.950 . S
C295 C291 1.393 . S
C295 C294 1.391 . S
H296 C304 0.950 . S
H297 C309 0.950 . S
H298 C306 0.950 . S
H299 C308 0.950 . S
H300 C310 0.950 . S
H301 C312 0.950 . S
H302 C314 0.950 . S
H303 C315 0.950 . S
C304 H296 0.950 . S
C304 C305 1.386 . S
C304 C306 1.391 . S
C305 C304 1.386 . S
C305 C309 1.393 . S
C306 H298 0.950 . S
C306 C304 1.391 . S
C306 C307 1.400 . S
C307 C306 1.400 . S
C307 C308 1.398 . S
C307 C313 1.491 . S
C308 H299 0.950 . S
C308 C307 1.398 . S
C308 C309 1.391 . S
C309 H297 0.950 . S
C309 C305 1.393 . S
C309 C308 1.391 . S
C310 H300 0.950 . S
C310 C311 1.386 . S
C310 C312 1.391 . S
C311 C310 1.386 . S
C311 C315 1.393 . S
C312 H301 0.950 . S
C312 C310 1.391 . S
C312 C313 1.400 . S
C313 C307 1.491 . S
C313 C312 1.400 . S
C313 C314 1.398 . S
C314 H302 0.950 . S
C314 C313 1.398 . S
C314 C315 1.391 . S
C315 H303 0.950 . S
C315 C311 1.393 . S
C315 C314 1.391 . S
H316 C324 0.950 . S
H317 C329 0.950 . S
H318 C326 0.950 . S
H319 C328 0.950 . S
H320 C330 0.950 . S
H321 C332 0.950 . S
H322 C334 0.950 . S
H323 C335 0.950 . S
C324 H316 0.950 . S
C324 C325 1.386 . S
C324 C326 1.391 . S
C325 C324 1.386 . S
C325 C329 1.393 . S
C326 H318 0.950 . S
C326 C324 1.391 . S
C326 C327 1.400 . S
C327 C326 1.400 . S
C327 C328 1.398 . S
C327 C333 1.491 . S
C328 H319 0.950 . S
C328 C327 1.398 . S
C328 C329 1.391 . S
C329 H317 0.950 . S
C329 C325 1.393 . S
C329 C328 1.391 . S
C330 H320 0.950 . S
C330 C331 1.386 . S
C330 C332 1.391 . S
C331 C330 1.386 . S
C331 C335 1.393 . S
C332 H321 0.950 . S
C332 C330 1.391 . S
C332 C333 1.400 . S
C333 C327 1.491 . S
C333 C332 1.400 . S
C333 C334 1.398 . S
C334 H322 0.950 . S
C334 C333 1.398 . S
C334 C335 1.391 . S
C335 H323 0.950 . S
C335 C331 1.393 . S
C335 C334 1.391 . S
H336 C344 0.950 . S
H337 C349 0.950 . S
H338 C346 0.950 . S
H339 C348 0.950 . S
H340 C350 0.950 . S
H341 C352 0.950 . S
H342 C354 0.950 . S
H343 C355 0.950 . S
C344 H336 0.950 . S
C344 C345 1.386 . S
C344 C346 1.391 . S
C345 C344 1.386 . S
C345 C349 1.393 . S
C346 H338 0.950 . S
C346 C344 1.391 . S
C346 C347 1.400 . S
C347 C346 1.400 . S
C347 C348 1.398 . S
C347 C353 1.491 . S
C348 H339 0.950 . S
C348 C347 1.398 . S
C348 C349 1.391 . S
C349 H337 0.950 . S
C349 C345 1.393 . S
C349 C348 1.391 . S
C350 H340 0.950 . S
C350 C351 1.386 . S
C350 C352 1.391 . S
C351 C350 1.386 . S
C351 C355 1.393 . S
C352 H341 0.950 . S
C352 C350 1.391 . S
C352 C353 1.400 . S
C353 C347 1.491 . S
C353 C352 1.400 . S
C353 C354 1.398 . S
C354 H342 0.950 . S
C354 C353 1.398 . S
C354 C355 1.391 . S
C355 H343 0.950 . S
C355 C351 1.393 . S
C355 C354 1.391 . S
H356 C364 0.950 . S
H357 C369 0.950 . S
H358 C366 0.950 . S
H359 C368 0.950 . S
H360 C370 0.950 . S
H361 C372 0.950 . S
H362 C374 0.950 . S
H363 C375 0.950 . S
C364 H356 0.950 . S
C364 C365 1.386 1_565 S
C364 C366 1.391 . S
C365 C364 1.386 1_545 S
C365 C369 1.393 1_455 S
C366 H358 0.950 . S
C366 C364 1.391 . S
C366 C367 1.400 1_565 S
C367 C366 1.400 1_545 S
C367 C368 1.398 1_455 S
C367 C373 1.491 . S
C368 H359 0.950 . S
C368 C367 1.398 1_655 S
C368 C369 1.391 . S
C369 H357 0.950 . S
C369 C365 1.393 1_655 S
C369 C368 1.391 . S
C370 H360 0.950 . S
C370 C371 1.393 . S
C370 C372 1.391 . S
C371 C370 1.393 . S
C371 C375 1.386 1_645 S
C372 H361 0.950 . S
C372 C370 1.391 . S
C372 C373 1.398 1_655 S
C373 C367 1.491 . S
C373 C372 1.398 1_455 S
C373 C374 1.400 1_545 S
C374 H362 0.950 . S
C374 C373 1.400 1_565 S
C374 C375 1.391 . S
C375 H363 0.950 . S
C375 C371 1.386 1_465 S
C375 C374 1.391 . S
H376 C384 0.950 . S
H377 C389 0.950 . S
H378 C386 0.950 . S
H379 C388 0.950 . S
H380 C390 0.950 . S
H381 C392 0.950 . S
H382 C394 0.950 . S
H383 C395 0.950 . S
C384 H376 0.950 . S
C384 C385 1.386 . S
C384 C386 1.391 . S
C385 C384 1.386 . S
C385 C389 1.393 1_445 S
C386 H378 0.950 . S
C386 C384 1.391 . S
C386 C387 1.400 . S
C387 C386 1.400 . S
C387 C388 1.398 1_445 S
C387 C393 1.491 . S
C388 H379 0.950 . S
C388 C387 1.398 1_665 S
C388 C389 1.391 . S
C389 H377 0.950 . S
C389 C385 1.393 1_665 S
C389 C388 1.391 . S
C390 H380 0.950 . S
C390 C391 1.386 1_665 S
C390 C392 1.391 . S
C391 C390 1.386 1_445 S
C391 C395 1.393 . S
C392 H381 0.950 . S
C392 C390 1.391 . S
C392 C393 1.400 1_665 S
C393 C387 1.491 . S
C393 C392 1.400 1_445 S
C393 C394 1.398 . S
C394 H382 0.950 . S
C394 C393 1.398 . S
C394 C395 1.391 . S
C395 H383 0.950 . S
C395 C391 1.393 . S
C395 C394 1.391 . S
H396 C404 0.950 . S
H397 C409 0.950 . S
H398 C406 0.950 . S
H399 C408 0.950 . S
H400 C410 0.950 . S
H401 C412 0.950 . S
H402 C414 0.950 . S
H403 C415 0.950 . S
C404 H396 0.950 . S
C404 C405 1.386 . S
C404 C406 1.391 . S
C405 C404 1.386 . S
C405 C409 1.393 . S
C406 H398 0.950 . S
C406 C404 1.391 . S
C406 C407 1.400 . S
C407 C406 1.400 . S
C407 C408 1.398 . S
C407 C413 1.491 . S
C408 H399 0.950 . S
C408 C407 1.398 . S
C408 C409 1.391 . S
C409 H397 0.950 . S
C409 C405 1.393 . S
C409 C408 1.391 . S
C410 H400 0.950 . S
C410 C411 1.386 . S
C410 C412 1.391 . S
C411 C410 1.386 . S
C411 C415 1.393 . S
C412 H401 0.950 . S
C412 C410 1.391 . S
C412 C413 1.400 . S
C413 C407 1.491 . S
C413 C412 1.400 . S
C413 C414 1.398 . S
C414 H402 0.950 . S
C414 C413 1.398 . S
C414 C415 1.391 . S
C415 H403 0.950 . S
C415 C411 1.393 . S
C415 C414 1.391 . S
H416 C424 0.950 . S
H417 C429 0.950 . S
H418 C426 0.950 . S
H419 C428 0.950 . S
H420 C430 0.950 . S
H421 C432 0.950 . S
H422 C434 0.950 . S
H423 C435 0.950 . S
C424 H416 0.950 . S
C424 C425 1.386 . S
C424 C426 1.391 . S
C425 C424 1.386 . S
C425 C429 1.393 . S
C426 H418 0.950 . S
C426 C424 1.391 . S
C426 C427 1.400 . S
C427 C426 1.400 . S
C427 C428 1.398 . S
C427 C433 1.491 . S
C428 H419 0.950 . S
C428 C427 1.398 . S
C428 C429 1.391 . S
C429 H417 0.950 . S
C429 C425 1.393 . S
C429 C428 1.391 . S
C430 H420 0.950 . S
C430 C431 1.386 . S
C430 C432 1.391 . S
C431 C430 1.386 . S
C431 C435 1.393 . S
C432 H421 0.950 . S
C432 C430 1.391 . S
C432 C433 1.400 . S
C433 C427 1.491 . S
C433 C432 1.400 . S
C433 C434 1.398 . S
C434 H422 0.950 . S
C434 C433 1.398 . S
C434 C435 1.391 . S
C435 H423 0.950 . S
C435 C431 1.393 . S
C435 C434 1.391 . S
C211 C181 1.395 . S
C205 C29 1.447 . S
C225 C8 1.436 . S
C231 C149 1.403 . S
C245 C0 1.436 . S
C251 C187 1.380 . S
C265 C17 1.446 . S
C271 C155 1.396 . S
C285 C63 1.447 . S
C291 C117 1.396 . S
C305 C42 1.439 . S
C311 C85 1.387 . S
C331 C123 1.385 . S
C325 C34 1.435 . S
C351 C91 1.392 . S
C345 C51 1.437 . S
C365 C4 1.486 . S
C371 C97 1.464 1_655 S
C385 C13 1.483 . S
C391 C129 1.463 1_545 S
C411 C161 1.444 . S
C405 C38 1.490 . S
C425 C47 1.487 . S
C431 C193 1.450 . S
