# Generated by pormake.
# Topology zzz, (3,6)-cn, num edge types: 1
# Building blocks:
#     Node 0, Type 0, BuildingBlock: MIDCAF_clean_linker_0, # of connection points: 3
#     Node 1, Type 0, BuildingBlock: MIDCAF_clean_linker_0, # of connection points: 3
#     Node 2, Type 0, BuildingBlock: MIDCAF_clean_linker_0, # of connection points: 3
#     Node 3, Type 0, BuildingBlock: MIDCAF_clean_linker_0, # of connection points: 3
#     Node 4, Type 0, BuildingBlock: MIDCAF_clean_linker_0, # of connection points: 3
#     Node 5, Type 0, BuildingBlock: MIDCAF_clean_linker_0, # of connection points: 3
#     Node 6, Type 0, BuildingBlock: MIDCAF_clean_linker_0, # of connection points: 3
#     Node 7, Type 0, BuildingBlock: MIDCAF_clean_linker_0, # of connection points: 3
#     Node 8, Type 1, BuildingBlock: BETDEL_clean_sbu_0, # of connection points: 6
#     Node 9, Type 1, BuildingBlock: BETDEL_clean_sbu_0, # of connection points: 6
#     Node 10, Type 1, BuildingBlock: BETDEL_clean_sbu_0, # of connection points: 6
#     Node 11, Type 1, BuildingBlock: BETDEL_clean_sbu_0, # of connection points: 6
#     Edge 12, Type (0, 1), BuildingBlock: XIVTED_clean_linker_0, # of connection points: 2
#     Edge 13, Type (0, 1), BuildingBlock: XIVTED_clean_linker_0, # of connection points: 2
#     Edge 14, Type (0, 1), BuildingBlock: XIVTED_clean_linker_0, # of connection points: 2
#     Edge 15, Type (0, 1), BuildingBlock: XIVTED_clean_linker_0, # of connection points: 2
#     Edge 16, Type (0, 1), BuildingBlock: XIVTED_clean_linker_0, # of connection points: 2
#     Edge 17, Type (0, 1), BuildingBlock: XIVTED_clean_linker_0, # of connection points: 2
#     Edge 18, Type (0, 1), BuildingBlock: XIVTED_clean_linker_0, # of connection points: 2
#     Edge 19, Type (0, 1), BuildingBlock: XIVTED_clean_linker_0, # of connection points: 2
#     Edge 20, Type (0, 1), BuildingBlock: XIVTED_clean_linker_0, # of connection points: 2
#     Edge 21, Type (0, 1), BuildingBlock: XIVTED_clean_linker_0, # of connection points: 2
#     Edge 22, Type (0, 1), BuildingBlock: XIVTED_clean_linker_0, # of connection points: 2
#     Edge 23, Type (0, 1), BuildingBlock: XIVTED_clean_linker_0, # of connection points: 2
#     Edge 24, Type (0, 1), BuildingBlock: XIVTED_clean_linker_0, # of connection points: 2
#     Edge 25, Type (0, 1), BuildingBlock: XIVTED_clean_linker_0, # of connection points: 2
#     Edge 26, Type (0, 1), BuildingBlock: XIVTED_clean_linker_0, # of connection points: 2
#     Edge 27, Type (0, 1), BuildingBlock: XIVTED_clean_linker_0, # of connection points: 2
#     Edge 28, Type (0, 1), BuildingBlock: XIVTED_clean_linker_0, # of connection points: 2
#     Edge 29, Type (0, 1), BuildingBlock: XIVTED_clean_linker_0, # of connection points: 2
#     Edge 30, Type (0, 1), BuildingBlock: XIVTED_clean_linker_0, # of connection points: 2
#     Edge 31, Type (0, 1), BuildingBlock: XIVTED_clean_linker_0, # of connection points: 2
#     Edge 32, Type (0, 1), BuildingBlock: XIVTED_clean_linker_0, # of connection points: 2
#     Edge 33, Type (0, 1), BuildingBlock: XIVTED_clean_linker_0, # of connection points: 2
#     Edge 34, Type (0, 1), BuildingBlock: XIVTED_clean_linker_0, # of connection points: 2
#     Edge 35, Type (0, 1), BuildingBlock: XIVTED_clean_linker_0, # of connection points: 2
# Relax obj value: 0.337
# Max RMSD: 0.229
# Mean RMSD: 0.211
data_MOF--net-zzz--node1-BETDEL_clean_sbu_0--node2-MIDCAF_clean_linker_0--edge1-XIVTED_clean_linker_0
_symmetry_space_group_name_H-M    P1
_symmetry_Int_Tables_number       1
_symmetry_cell_setting            triclinic
loop_
_symmetry_equiv_pos_as_xyz
'x, y, z'
_cell_length_a     56.54982
_cell_length_b     56.313433
_cell_length_c     19.964787
_cell_angle_alpha  91.246154
_cell_angle_beta   89.543823
_cell_angle_gamma 95.878789
loop_
_atom_site_label
_atom_site_type_symbol
_atom_site_fract_x
_atom_site_fract_y
_atom_site_fract_z
_atom_type_partial_charge
C0 C 0.79763 0.47167 0.26723 0.0
C1 C 0.81126 0.49354 0.25536 0.0
C2 C 0.80443 0.50758 0.20258 0.0
C3 C 0.78584 0.49899 0.15938 0.0
H4 H 0.71082 0.49833 0.02859 0.0
H5 H 0.67673 0.50695 0.96054 0.0
H6 H 0.67347 0.43596 0.87239 0.0
H7 H 0.70644 0.4273 0.94024 0.0
H8 H 0.76257 0.41738 0.89623 0.0
H9 H 0.79546 0.40542 0.82835 0.0
H10 H 0.83801 0.40303 0.00609 0.0
H11 H 0.80522 0.41481 0.0743 0.0
H12 H 0.77063 0.44521 0.23078 0.0
H13 H 0.80238 0.46018 0.30667 0.0
H14 H 0.81428 0.52466 0.19245 0.0
H15 H 0.7824 0.5092 0.11577 0.0
N16 N 0.74214 0.46924 0.08064 0.0
N17 N 0.74572 0.43921 0.99826 0.0
N18 N 0.77391 0.44532 0.0829 0.0
C19 C 0.73346 0.45675 0.0249 0.0
C20 C 0.76592 0.4334 0.02674 0.0
C21 C 0.7623 0.46306 0.11031 0.0
C22 C 0.71151 0.46216 0.98988 0.0
C23 C 0.7025 0.48452 0.99541 0.0
C24 C 0.68312 0.48951 0.95595 0.0
C25 C 0.67222 0.47214 0.91091 0.0
C26 C 0.68099 0.4497 0.90708 0.0
C27 C 0.7002 0.4448 0.94586 0.0
C28 C 0.78163 0.41799 0.99037 0.0
C29 C 0.77855 0.41336 0.92134 0.0
C30 C 0.79738 0.40648 0.88232 0.0
C31 C 0.81943 0.40396 0.91186 0.0
C32 C 0.82125 0.40498 0.98194 0.0
C33 C 0.80248 0.41197 0.02096 0.0
C34 C 0.77379 0.4762 0.16811 0.0
C35 C 0.77925 0.46309 0.22393 0.0
C36 C 0.93394 0.77229 0.32117 0.0
C37 C 0.95658 0.78271 0.34054 0.0
C38 C 0.97668 0.77188 0.3184 0.0
C39 C 0.97432 0.75313 0.27076 0.0
H40 H 0.98445 0.67847 0.12782 0.0
H41 H 0.99453 0.64198 0.069 0.0
H42 H 0.94038 0.65008 0.92238 0.0
H43 H 0.93071 0.68644 0.98006 0.0
H44 H 0.96674 0.75253 0.9364 0.0
H45 H 0.97628 0.7892 0.87407 0.0
H46 H 0.94037 0.82849 0.02544 0.0
H47 H 0.93037 0.79204 0.08621 0.0
H48 H 0.91416 0.74791 0.25364 0.0
H49 H 0.9181 0.77995 0.33826 0.0
H50 H 0.99437 0.77949 0.33226 0.0
H51 H 0.99023 0.7472 0.24811 0.0
N52 N 0.95397 0.71459 0.15242 0.0
N53 N 0.95061 0.72693 0.04087 0.0
N54 N 0.94733 0.75408 0.12942 0.0
C55 C 0.95344 0.70938 0.08513 0.0
C56 C 0.94758 0.74935 0.0629 0.0
C57 C 0.95041 0.73706 0.17429 0.0
C58 C 0.9569 0.68529 0.05823 0.0
C59 C 0.97439 0.67206 0.08395 0.0
C60 C 0.98022 0.65131 0.05012 0.0
C61 C 0.96825 0.6432 0.99104 0.0
C62 C 0.94976 0.6557 0.96805 0.0
C63 C 0.94432 0.67661 0.00087 0.0
C64 C 0.94813 0.7695 0.01667 0.0
C65 C 0.96024 0.76887 0.95508 0.0
C66 C 0.96596 0.78992 0.91986 0.0
C67 C 0.9595 0.81184 0.9455 0.0
C68 C 0.94559 0.81196 0.00407 0.0
C69 C 0.93995 0.79103 0.03919 0.0
C70 C 0.95187 0.74495 0.24488 0.0
C71 C 0.93163 0.7536 0.27369 0.0
C72 C 0.70499 0.03421 0.25803 0.0
C73 C 0.69931 0.01017 0.27486 0.0
C74 C 0.71289 0.99292 0.24569 0.0
C75 C 0.73076 0.99949 0.19815 0.0
H76 H 0.78665 0.98143 0.99657 0.0
H77 H 0.82097 0.96918 0.93307 0.0
H78 H 0.85864 0.03882 0.97091 0.0
H79 H 0.82452 0.05076 0.0336 0.0
H80 H 0.75228 0.05055 0.88546 0.0
H81 H 0.72437 0.06736 0.81309 0.0
H82 H 0.70081 0.10923 0.98048 0.0
H83 H 0.72779 0.091 0.05362 0.0
H84 H 0.72567 0.05926 0.19722 0.0
H85 H 0.69488 0.04806 0.27818 0.0
H86 H 0.70925 0.97428 0.25804 0.0
H87 H 0.74004 0.98574 0.17386 0.0
N88 N 0.76926 0.01965 0.09952 0.0
N89 N 0.77276 0.04336 0.00321 0.0
N90 N 0.74174 0.0472 0.07913 0.0
C91 C 0.78114 0.02666 0.04221 0.0
C92 C 0.75305 0.05369 0.02148 0.0
C93 C 0.74953 0.0303 0.11844 0.0
C94 C 0.8032 0.01688 0.0206 0.0
C95 C 0.80266 0.99368 0.99319 0.0
C96 C 0.82217 0.98683 0.95619 0.0
C97 C 0.84254 0.00306 0.94658 0.0
C98 C 0.84344 0.02574 0.9779 0.0
C99 C 0.82392 0.03262 0.01394 0.0
C100 C 0.74177 0.0691 0.97528 0.0
C101 C 0.74163 0.06388 0.90628 0.0
C102 C 0.7256 0.07368 0.86464 0.0
C103 C 0.70973 0.08924 0.89112 0.0
C104 C 0.7121 0.09666 0.95874 0.0
C105 C 0.7277 0.08639 0.00064 0.0
C106 C 0.73518 0.02337 0.1787 0.0
C107 C 0.72264 0.04067 0.21091 0.0
C108 C 0.61772 0.68421 0.0314 0.0
C109 C 0.60922 0.68039 0.966 0.0
C110 C 0.6046 0.70001 0.92775 0.0
C111 C 0.60556 0.72282 0.95756 0.0
H112 H 0.55166 0.81282 0.10229 0.0
H113 H 0.54111 0.84736 0.04114 0.0
H114 H 0.59546 0.83644 0.89382 0.0
H115 H 0.60607 0.80211 0.95454 0.0
H116 H 0.53629 0.75099 0.19335 0.0
H117 H 0.51936 0.72115 0.27248 0.0
H118 H 0.58962 0.71488 0.34914 0.0
H119 H 0.60625 0.74453 0.27044 0.0
H120 H 0.62374 0.70899 0.11329 0.0
H121 H 0.62152 0.66928 0.06146 0.0
H122 H 0.59798 0.69734 0.87709 0.0
H123 H 0.5995 0.73719 0.92915 0.0
N124 N 0.59767 0.76659 0.03418 0.0
N125 N 0.57755 0.77818 0.13157 0.0
N126 N 0.59588 0.74271 0.1285 0.0
C127 C 0.58546 0.78284 0.06786 0.0
C128 C 0.58327 0.75823 0.16234 0.0
C129 C 0.60298 0.74647 0.06451 0.0
C130 C 0.57964 0.80457 0.03323 0.0
C131 C 0.56149 0.81789 0.05715 0.0
C132 C 0.55535 0.8376 0.02196 0.0
C133 C 0.56745 0.84462 0.96263 0.0
C134 C 0.58595 0.83165 0.93969 0.0
C135 C 0.5919 0.81183 0.97433 0.0
C136 C 0.57253 0.75009 0.22621 0.0
C137 C 0.54784 0.74421 0.22983 0.0
C138 C 0.53824 0.7268 0.27429 0.0
C139 C 0.5532 0.71526 0.31612 0.0
C140 C 0.57754 0.7234 0.31792 0.0
C141 C 0.58711 0.74055 0.2731 0.0
C142 C 0.61112 0.7261 0.02588 0.0
C143 C 0.61895 0.70696 0.06088 0.0
C144 C 0.2293 0.53156 0.83584 0.0
C145 C 0.21461 0.51071 0.85169 0.0
C146 C 0.22015 0.49809 0.90879 0.0
C147 C 0.23842 0.50735 0.95221 0.0
H148 H 0.31642 0.51482 0.07671 0.0
H149 H 0.34913 0.50699 0.15083 0.0
H150 H 0.33622 0.5687 0.27267 0.0
H151 H 0.30457 0.57677 0.19942 0.0
H152 H 0.25907 0.60063 0.19202 0.0
H153 H 0.22532 0.6136 0.25411 0.0
H154 H 0.18127 0.59967 0.07887 0.0
H155 H 0.21499 0.58796 0.0163 0.0
H156 H 0.25672 0.55816 0.86916 0.0
H157 H 0.22558 0.54194 0.79287 0.0
H158 H 0.20948 0.48179 0.92206 0.0
H159 H 0.24074 0.49848 0.99897 0.0
N160 N 0.28051 0.53829 0.03289 0.0
N161 N 0.27495 0.5703 0.10735 0.0
N162 N 0.24986 0.56275 0.01586 0.0
C163 C 0.28753 0.55188 0.0884 0.0
C164 C 0.25612 0.57586 0.07154 0.0
C165 C 0.26178 0.54416 0.9959 0.0
C166 C 0.30776 0.54649 0.13145 0.0
C167 C 0.32071 0.52676 0.11912 0.0
C168 C 0.33937 0.5222 0.16185 0.0
C169 C 0.34556 0.53736 0.21754 0.0
C170 C 0.33247 0.55691 0.22963 0.0
C171 C 0.31401 0.56143 0.18742 0.0
C172 C 0.23941 0.59205 0.10023 0.0
C173 C 0.24244 0.60128 0.16592 0.0
C174 C 0.22303 0.60864 0.20166 0.0
C175 C 0.20029 0.60651 0.17255 0.0
C176 C 0.19835 0.60121 0.10357 0.0
C177 C 0.21779 0.59419 0.06762 0.0
C178 C 0.2514 0.5294 0.93942 0.0
C179 C 0.24737 0.54082 0.87936 0.0
C180 C 0.07556 0.22468 0.77471 0.0
C181 C 0.05151 0.21609 0.76653 0.0
C182 C 0.03413 0.22847 0.79895 0.0
C183 C 0.04075 0.24686 0.84557 0.0
H184 H 0.05569 0.32533 0.9807 0.0
H185 H 0.05222 0.36276 0.04395 0.0
H186 H 0.08353 0.3331 0.21595 0.0
H187 H 0.08756 0.29669 0.15351 0.0
H188 H 0.06507 0.23881 0.17044 0.0
H189 H 0.05463 0.20161 0.2292 0.0
H190 H 0.07525 0.16155 0.05506 0.0
H191 H 0.08615 0.19852 0.99705 0.0
H192 H 0.1008 0.24684 0.83382 0.0
H193 H 0.08939 0.21555 0.75062 0.0
H194 H 0.01543 0.22249 0.7929 0.0
H195 H 0.02703 0.25393 0.87597 0.0
N196 N 0.06939 0.28106 0.95983 0.0
N197 N 0.07581 0.26505 0.06554 0.0
N198 N 0.07416 0.24034 0.9704 0.0
C199 C 0.07265 0.28425 0.02749 0.0
C200 C 0.0766 0.24308 0.03732 0.0
C201 C 0.07065 0.25895 0.93136 0.0
C202 C 0.07178 0.30787 0.06191 0.0
C203 C 0.06212 0.32703 0.03171 0.0
C204 C 0.05999 0.34841 0.06811 0.0
C205 C 0.06771 0.35108 0.13509 0.0
C206 C 0.07781 0.33204 0.16424 0.0
C207 C 0.07987 0.31089 0.12831 0.0
C208 C 0.07601 0.22159 0.07865 0.0
C209 C 0.06804 0.22211 0.14545 0.0
C210 C 0.06183 0.2008 0.17885 0.0
C211 C 0.06363 0.17867 0.14618 0.0
C212 C 0.07363 0.17828 0.08164 0.0
C213 C 0.07977 0.19952 0.04824 0.0
C214 C 0.06481 0.2529 0.86106 0.0
C215 C 0.08214 0.24288 0.82184 0.0
C216 C 0.31352 0.96684 0.85617 0.0
C217 C 0.319 0.99122 0.84306 0.0
C218 C 0.30557 0.0078 0.87611 0.0
C219 C 0.28805 1.00018 0.9237 0.0
H220 H 0.22793 0.01374 0.10172 0.0
H221 H 0.19342 0.02581 0.1651 0.0
H222 H 0.16339 0.95216 0.16821 0.0
H223 H 0.19769 0.94033 0.1063 0.0
H224 H 0.25309 0.92538 0.21583 0.0
H225 H 0.27767 0.90875 0.29895 0.0
H226 H 0.33493 0.9087 0.15406 0.0
H227 H 0.31023 0.92413 0.07094 0.0
H228 H 0.2934 0.94048 0.91412 0.0
H229 H 0.32355 0.95345 0.83302 0.0
H230 H 0.30907 0.0267 0.86675 0.0
H231 H 0.27889 0.01336 0.95102 0.0
N232 N 0.24957 0.97662 0.01933 0.0
N233 N 0.24716 0.95082 0.11127 0.0
N234 N 0.27893 0.95071 0.03635 0.0
C235 C 0.23784 0.96775 0.07505 0.0
C236 C 0.26781 0.94234 0.09254 0.0
C237 C 0.27007 0.9676 0.99925 0.0
C238 C 0.2153 0.97615 0.09884 0.0
C239 C 0.21355 1.00035 0.11436 0.0
C240 C 0.19397 0.00718 0.15119 0.0
C241 C 0.17568 0.98993 0.17182 0.0
C242 C 0.17696 0.96594 0.15256 0.0
C243 C 0.19662 0.95914 0.11711 0.0
C244 C 0.27994 0.92685 0.13731 0.0
C245 C 0.27068 0.92114 0.20119 0.0
C246 C 0.28483 0.9117 0.24901 0.0
C247 C 0.30856 0.90799 0.23404 0.0
C248 C 0.31679 0.91123 0.16787 0.0
C249 C 0.30262 0.92043 0.12004 0.0
C250 C 0.28387 0.9759 0.93928 0.0
C251 C 0.29624 0.95934 0.90333 0.0
C252 C 0.41002 0.32296 0.10493 0.0
C253 C 0.42013 0.32492 0.16899 0.0
C254 C 0.42477 0.30403 0.2017 0.0
C255 C 0.42236 0.28202 0.16752 0.0
H256 H 0.41415 0.2014 0.148 0.0
H257 H 0.42337 0.16606 0.20598 0.0
H258 H 0.48275 0.1593 0.0721 0.0
H259 H 0.47348 0.19504 0.01337 0.0
H260 H 0.48768 0.25982 0.92373 0.0
H261 H 0.50329 0.29093 0.84661 0.0
H262 H 0.43232 0.29526 0.77254 0.0
H263 H 0.41701 0.26434 0.84933 0.0
H264 H 0.40208 0.30044 0.01884 0.0
H265 H 0.40615 0.33873 0.07865 0.0
H266 H 0.43216 0.30505 0.2517 0.0
H267 H 0.42831 0.26669 0.19179 0.0
N268 N 0.42692 0.23984 0.08236 0.0
N269 N 0.44603 0.2296 0.98202 0.0
N270 N 0.42927 0.26594 0.99294 0.0
C271 C 0.43824 0.22383 0.04519 0.0
C272 C 0.44097 0.25058 0.95545 0.0
C273 C 0.42237 0.26095 0.05644 0.0
C274 C 0.44314 0.20113 0.07613 0.0
C275 C 0.42911 0.19236 0.13042 0.0
C276 C 0.43428 0.17196 0.16347 0.0
C277 C 0.45377 0.15986 0.14363 0.0
C278 C 0.46768 0.16835 0.08871 0.0
C279 C 0.46228 0.18869 0.05485 0.0
C280 C 0.4512 0.25959 0.89187 0.0
C281 C 0.47572 0.26648 0.88813 0.0
C282 C 0.48455 0.28462 0.84488 0.0
C283 C 0.46898 0.29594 0.8044 0.0
C284 C 0.44486 0.28693 0.8027 0.0
C285 C 0.43605 0.26904 0.84636 0.0
C286 C 0.41555 0.28071 0.09994 0.0
C287 C 0.40776 0.301 0.07061 0.0
Dy288 Dy 0.01749 0.98984 0.62155 0.0
C289 C 0.9987 0.03107 0.37157 0.0
C290 C 0.01748 0.96546 0.73793 0.0
Dy291 Dy 0.99872 0.00765 0.48941 0.0
O292 O 0.03438 0.9664 0.69324 0.0
O293 O 1.00133 0.97878 0.72014 0.0
O294 O 0.05512 1.00098 0.58841 0.0
O295 O 0.02882 0.98922 0.51771 0.0
C296 C 0.05008 0.99805 0.52492 0.0
C297 C 0.96601 0.9992 0.58549 0.0
O298 O 0.99252 0.96874 0.46429 0.0
O299 O 0.9993 0.95638 0.57235 0.0
O300 O 0.98301 0.03236 0.4191 0.0
O301 O 0.01367 0.0162 0.3876 0.0
O302 O 0.96102 0.99669 0.52189 0.0
O303 O 0.98724 0.00807 0.59304 0.0
O304 O 0.02177 0.02871 0.64786 0.0
O305 O 0.01771 0.0409 0.53832 0.0
C306 C 0.99255 0.95178 0.50937 0.0
C307 C 0.02287 0.04563 0.60242 0.0
Dy308 Dy 0.49229 0.98257 0.52551 0.0
C309 C 0.5629 0.05209 0.64164 0.0
C310 C 0.45215 0.95559 0.48392 0.0
Dy311 Dy 0.52537 0.0231 0.59104 0.0
O312 O 0.47364 0.9503 0.47193 0.0
O313 O 0.45273 0.97565 0.51723 0.0
O314 O 0.52356 0.96493 0.48537 0.0
O315 O 0.52605 0.00224 0.49815 0.0
C316 C 0.5376 0.98473 0.48416 0.0
C317 C 0.47977 0.02044 0.6307 0.0
O318 O 0.51496 0.0427 0.5015 0.0
O319 O 0.48488 0.01422 0.46438 0.0
O320 O 0.54239 0.04785 0.67099 0.0
O321 O 0.56291 0.04046 0.58491 0.0
O322 O 0.49326 0.0405 0.62669 0.0
O323 O 0.49178 0.00316 0.61848 0.0
O324 O 0.50156 0.96466 0.61886 0.0
O325 O 0.53535 0.99028 0.64296 0.0
C326 C 0.4969 0.03574 0.46122 0.0
C327 C 0.52165 0.96997 0.65213 0.0
Dy328 Dy 0.51051 0.51822 0.63366 0.0
C329 C 0.49611 0.47494 0.36997 0.0
C330 C 0.52688 0.5363 0.7544 0.0
Dy331 Dy 0.50932 0.4943 0.49205 0.0
O332 O 0.50665 0.54014 0.72823 0.0
O333 O 0.53732 0.52168 0.71599 0.0
O334 O 0.47681 0.53455 0.61069 0.0
O335 O 0.48302 0.50156 0.56707 0.0
C336 C 0.46941 0.51794 0.56718 0.0
C337 C 0.55021 0.49464 0.55989 0.0
O338 O 0.51334 0.53329 0.46595 0.0
O339 O 0.52477 0.54891 0.57103 0.0
O340 O 0.51704 0.47471 0.39629 0.0
O341 O 0.48293 0.48673 0.40922 0.0
O342 O 0.54245 0.4775 0.51856 0.0
O343 O 0.53675 0.5111 0.55841 0.0
O344 O 0.50531 0.4792 0.65979 0.0
O345 O 0.49506 0.46341 0.55392 0.0
C346 C 0.52099 0.55154 0.50626 0.0
C347 C 0.49814 0.46089 0.61909 0.0
Dy348 Dy 1.00135 0.48089 0.60074 0.0
C349 C 0.05443 0.53529 0.39594 0.0
C350 C 0.972 0.45712 0.69104 0.0
Dy351 Dy 0.026 0.51785 0.49738 0.0
O352 O 0.97955 0.44785 0.63579 0.0
O353 O 0.9808 0.47929 0.69742 0.0
O354 O 0.02241 0.45324 0.55396 0.0
O355 O 0.01128 0.48043 0.49447 0.0
C356 C 0.02324 0.46269 0.49499 0.0
C357 C 0.01454 0.54017 0.61239 0.0
O358 O 0.98899 0.51371 0.4557 0.0
O359 O 0.97023 0.49239 0.54398 0.0
O360 O 0.03686 0.54585 0.42126 0.0
O361 O 0.0558 0.51498 0.42466 0.0
O362 O 0.02519 0.55139 0.56259 0.0
O363 O 0.01114 0.51848 0.596 0.0
O364 O 0.0367 0.48922 0.65005 0.0
O365 O 0.05646 0.50602 0.55664 0.0
C366 C 0.96954 0.50403 0.48676 0.0
C367 C 0.05651 0.49732 0.61813 0.0
H368 H 0.17923 0.01852 0.28524 0.0
H369 H 0.04392 0.98225 0.39559 0.0
H370 H 0.12808 0.97493 0.16451 0.0
H371 H 0.0964 0.01816 0.52841 0.0
H372 H 0.07341 0.98413 0.30543 0.0
H373 H 0.14805 0.02357 0.36893 0.0
C374 C 0.16134 0.0104 0.2757 0.0
C375 C 0.1563 0.99616 0.2179 0.0
C376 C 0.07851 0.99175 0.3541 0.0
C377 C 0.12061 0.00159 0.31393 0.0
C378 C 0.06162 0.99079 0.40559 0.0
C379 C 0.06771 1.00012 0.46957 0.0
C380 C 0.1018 0.00205 0.36651 0.0
C381 C 0.09101 0.01069 0.47982 0.0
C382 C 0.1436 0.0131 0.32381 0.0
C383 C 0.13285 0.98581 0.20868 0.0
N384 N 0.10724 0.01129 0.4289 0.0
N385 N 0.11596 0.98862 0.25624 0.0
H386 H 0.4236 0.12239 0.18858 0.0
H387 H 0.45967 0.02928 0.37321 0.0
H388 H 0.49752 0.15032 0.18838 0.0
H389 H 0.51897 0.07997 0.43023 0.0
H390 H 0.44871 0.05684 0.2892 0.0
H391 H 0.43297 0.09073 0.26217 0.0
C392 C 0.44189 0.12164 0.20337 0.0
C393 C 0.4598 0.13903 0.18223 0.0
C394 C 0.46389 0.06216 0.32068 0.0
C395 C 0.47087 0.1024 0.2658 0.0
C396 C 0.47032 0.04628 0.36846 0.0
C397 C 0.49015 0.05236 0.40957 0.0
C398 C 0.47733 0.08441 0.31391 0.0
C399 C 0.5034 0.07457 0.40025 0.0
C400 C 0.44731 0.10336 0.24492 0.0
C401 C 0.48321 0.13714 0.20286 0.0
N402 N 0.49676 0.08975 0.35342 0.0
N403 N 0.48802 0.11932 0.24411 0.0
H404 H 0.35815 0.49461 0.26521 0.0
H405 H 0.45287 0.55883 0.52535 0.0
H406 H 0.37825 0.57061 0.27616 0.0
H407 H 0.44382 0.48251 0.49367 0.0
H408 H 0.42378 0.56298 0.43753 0.0
H409 H 0.38849 0.48915 0.34938 0.0
C410 C 0.36904 0.51012 0.28466 0.0
C411 C 0.36532 0.53315 0.26391 0.0
C412 C 0.42811 0.54529 0.44957 0.0
C413 C 0.39982 0.52705 0.36124 0.0
C414 C 0.44462 0.54292 0.50009 0.0
C415 C 0.45084 0.52031 0.51648 0.0
C416 C 0.41747 0.52487 0.41542 0.0
C417 C 0.43965 0.50029 0.48198 0.0
C418 C 0.38626 0.507 0.33311 0.0
C419 C 0.37996 0.55256 0.29154 0.0
N420 N 0.42349 0.50301 0.43308 0.0
N421 N 0.39634 0.54908 0.33882 0.0
H422 H 0.09813 0.3737 0.22816 0.0
H423 H 0.00997 0.46629 0.36389 0.0
H424 H 0.02968 0.37826 0.13777 0.0
H425 H 0.05759 0.4324 0.48986 0.0
H426 H 0.02296 0.44278 0.26727 0.0
H427 H 0.08945 0.40442 0.31017 0.0
C428 C 0.08132 0.38125 0.22512 0.0
C429 C 0.06437 0.37286 0.17676 0.0
C430 C 0.0307 0.44076 0.316 0.0
C431 C 0.0546 0.40853 0.27009 0.0
C432 C 0.02342 0.45419 0.37091 0.0
C433 C 0.03264 0.45107 0.43484 0.0
C434 C 0.0477 0.42461 0.32512 0.0
C435 C 0.04993 0.43516 0.44146 0.0
C436 C 0.07645 0.39886 0.27191 0.0
C437 C 0.04327 0.38404 0.17414 0.0
N438 N 0.05692 0.42255 0.38732 0.0
N439 N 0.03886 0.40117 0.22063 0.0
H440 H 0.89084 0.01328 0.96082 0.0
H441 H 0.91998 0.97887 0.57923 0.0
H442 H 0.8381 0.98103 0.82259 0.0
H443 H 0.97163 0.01358 0.71653 0.0
H444 H 0.89046 0.9761 0.67016 0.0
H445 H 0.92146 0.00967 0.87515 0.0
C446 C 0.88572 0.00523 0.91263 0.0
C447 C 0.86178 0.99761 0.89887 0.0
C448 C 0.9083 0.98415 0.68056 0.0
C449 C 0.89684 0.99352 0.80008 0.0
C450 C 0.92513 0.98576 0.62864 0.0
C451 C 0.94828 0.99642 0.64043 0.0
C452 C 0.91465 0.99335 0.74472 0.0
C453 C 0.95404 0.00504 0.70537 0.0
C454 C 0.90323 0.00317 0.86368 0.0
C455 C 0.8563 0.98701 0.83574 0.0
N456 N 0.93734 0.0034 0.75492 0.0
N457 N 0.87363 0.9855 0.78855 0.0
H458 H 0.52244 0.85422 0.93069 0.0
H459 H 0.56469 0.96943 0.71488 0.0
H460 H 0.59615 0.88069 0.90382 0.0
H461 H 0.49448 0.93147 0.70316 0.0
H462 H 0.57579 0.94022 0.7951 0.0
H463 H 0.5111 0.88588 0.8592 0.0
C464 C 0.53623 0.86687 0.91037 0.0
C465 C 0.56029 0.86475 0.92307 0.0
C466 C 0.55795 0.93834 0.77497 0.0
C467 C 0.54745 0.90095 0.84073 0.0
C468 C 0.55158 0.95503 0.72931 0.0
C469 C 0.52864 0.95286 0.70192 0.0
C470 C 0.5412 0.91948 0.79396 0.0
C471 C 0.51241 0.9338 0.7225 0.0
C472 C 0.52976 0.88482 0.86913 0.0
C473 C 0.57741 0.88149 0.89469 0.0
N474 N 0.51899 0.9179 0.76726 0.0
N475 N 0.57067 0.89888 0.85486 0.0
H476 H 0.63275 0.44215 0.8756 0.0
H477 H 0.57913 0.5305 0.62162 0.0
H478 H 0.66619 0.51337 0.84281 0.0
H479 H 0.56257 0.45407 0.61582 0.0
H480 H 0.6083 0.52634 0.71048 0.0
H481 H 0.60334 0.44823 0.79086 0.0
C482 C 0.63395 0.45912 0.85067 0.0
C483 C 0.65236 0.47711 0.86586 0.0
C484 C 0.59829 0.5105 0.68967 0.0
C485 C 0.61827 0.4843 0.76859 0.0
C486 C 0.58171 0.51286 0.63902 0.0
C487 C 0.56851 0.49258 0.61142 0.0
C488 C 0.60127 0.48773 0.71378 0.0
C489 C 0.57248 0.47015 0.63554 0.0
C490 C 0.61707 0.46258 0.8022 0.0
C491 C 0.65238 0.49898 0.83302 0.0
N492 N 0.58832 0.46835 0.68565 0.0
N493 N 0.63569 0.50192 0.7857 0.0
H494 H 0.01369 0.63704 0.95268 0.0
H495 H 0.97841 0.52658 0.70093 0.0
H496 H 0.94143 0.60509 0.93162 0.0
H497 H 0.03765 0.57974 0.6698 0.0
H498 H 0.96803 0.54836 0.80376 0.0
H499 H 0.02627 0.60866 0.86829 0.0
C500 C 1.00056 0.62369 0.93145 0.0
C501 C 0.97646 0.6235 0.94893 0.0
C502 C 0.98346 0.55503 0.77469 0.0
C503 C 0.99071 0.59112 0.85197 0.0
C504 C 0.98945 0.54254 0.71649 0.0
C505 C 0.0089 0.55142 0.67718 0.0
C506 C 0.99734 0.57619 0.79399 0.0
C507 C 0.02244 0.5724 0.69867 0.0
C508 C 0.00771 0.60765 0.88287 0.0
C509 C 0.96015 0.60597 0.91905 0.0
N510 N 0.01645 0.58404 0.75563 0.0
N511 N 0.96754 0.59053 0.87177 0.0
H512 H 0.02106 0.17094 0.21161 0.0
H513 H 0.03455 0.03383 0.27954 0.0
H514 H 0.08136 0.13505 0.14634 0.0
H515 H 0.97536 0.07026 0.35034 0.0
H516 H 0.04922 0.0692 0.21709 0.0
H517 H 1.00231 0.13328 0.25413 0.0
C518 C 0.0305 0.15518 0.20696 0.0
C519 C 0.05294 0.15619 0.17602 0.0
C520 C 0.03281 0.06935 0.24537 0.0
C521 C 0.03127 0.11286 0.22309 0.0
C522 C 0.02431 0.04909 0.28048 0.0
C523 C 0.00385 0.04929 0.3205 0.0
C524 C 0.0208 0.08994 0.25078 0.0
C525 C 0.99127 0.06946 0.3202 0.0
C526 C 0.01963 0.13362 0.23047 0.0
C527 C 0.06402 0.13506 0.1697 0.0
N528 N 1.00015 0.08916 0.28666 0.0
N529 N 0.05311 0.11427 0.19324 0.0
H530 H 0.30947 0.92825 0.3601 0.0
H531 H 0.44725 0.91702 0.39713 0.0
H532 H 0.34783 0.88242 0.23209 0.0
H533 H 0.40706 0.96277 0.51946 0.0
H534 H 0.40987 0.89759 0.35095 0.0
H535 H 0.34299 0.93306 0.43557 0.0
C536 C 0.32462 0.91857 0.34855 0.0
C537 C 0.32592 0.90535 0.28838 0.0
C538 C 0.40924 0.91163 0.38864 0.0
C539 C 0.36503 0.91171 0.37399 0.0
C540 C 0.43053 0.92272 0.41482 0.0
C541 C 0.43013 0.94176 0.46105 0.0
C542 C 0.38754 0.91972 0.40908 0.0
C543 C 0.40811 0.9484 0.48294 0.0
C544 C 0.344 0.92161 0.39156 0.0
C545 C 0.3463 0.89346 0.27666 0.0
N546 N 0.38772 0.93757 0.45625 0.0
N547 N 0.36529 0.89736 0.31824 0.0
H548 H 0.39902 0.36693 0.17658 0.0
H549 H 0.5191 0.44154 0.30243 0.0
H550 H 0.46451 0.33689 0.21709 0.0
H551 H 0.45049 0.46811 0.32449 0.0
H552 H 0.50017 0.40602 0.2445 0.0
H553 H 0.41822 0.40654 0.21034 0.0
C554 C 0.41733 0.36867 0.1931 0.0
C555 C 0.43008 0.34859 0.19531 0.0
C556 C 0.48929 0.4198 0.26107 0.0
C557 C 0.45222 0.39361 0.23165 0.0
C558 C 0.50013 0.44019 0.29341 0.0
C559 C 0.48626 0.45754 0.31893 0.0
C560 C 0.46445 0.41682 0.25433 0.0
C561 C 0.46176 0.45496 0.30591 0.0
C562 C 0.42828 0.3912 0.21191 0.0
C563 C 0.45383 0.35178 0.21625 0.0
N564 N 0.45152 0.43473 0.27528 0.0
N565 N 0.46413 0.37384 0.23338 0.0
H566 H 0.19553 0.58473 0.2932 0.0
H567 H 0.09369 0.51609 0.35146 0.0
H568 H 0.15521 0.61986 0.14885 0.0
H569 H 0.05898 0.58082 0.347 0.0
H570 H 0.12907 0.53728 0.30171 0.0
H571 H 0.15869 0.56926 0.34657 0.0
C572 C 0.17904 0.58988 0.27364 0.0
C573 C 0.1786 0.60339 0.21541 0.0
C574 C 0.11367 0.54682 0.31157 0.0
C575 C 0.13622 0.58463 0.2752 0.0
C576 C 0.09341 0.5347 0.33912 0.0
C577 C 0.07357 0.54685 0.35403 0.0
C578 C 0.1141 0.57125 0.29869 0.0
C579 C 0.07408 0.57093 0.33652 0.0
C580 C 0.15797 0.58058 0.30358 0.0
C581 C 0.15639 0.60905 0.19262 0.0
N582 N 0.09419 0.5825 0.30977 0.0
N583 N 0.13594 0.59935 0.22212 0.0
H584 H 0.00437 0.82413 0.89665 0.0
H585 H 0.98004 0.95847 0.82378 0.0
H586 H 0.93679 0.85211 0.92879 0.0
H587 H 0.04357 0.92807 0.75872 0.0
H588 H 0.96678 0.92135 0.8799 0.0
H589 H 0.02096 0.86317 0.85747 0.0
C590 C 0.99291 0.83837 0.89462 0.0
C591 C 0.96909 0.83478 0.91576 0.0
C592 C 0.98379 0.92289 0.85419 0.0
C593 C 0.98821 0.87969 0.87289 0.0
C594 C 0.99149 0.94417 0.82281 0.0
C595 C 0.01282 0.94619 0.78621 0.0
C596 C 0.99752 0.90352 0.84871 0.0
C597 C 0.02696 0.92715 0.78636 0.0
C598 C 1.0025 0.86074 0.87306 0.0
C599 C 0.95529 0.85409 0.91358 0.0
N600 N 0.0189 0.90643 0.81639 0.0
N601 N 0.96506 0.87571 0.89263 0.0
H602 H 0.66461 0.09361 0.93809 0.0
H603 H 0.60703 0.06134 0.58624 0.0
H604 H 0.70575 0.09533 0.7545 0.0
H605 H 0.56647 0.07348 0.76535 0.0
H606 H 0.64304 0.07894 0.64304 0.0
H607 H 0.62863 0.09263 0.87308 0.0
C608 C 0.66629 0.09446 0.88414 0.0
C609 C 0.68848 0.09414 0.85201 0.0
C610 C 0.62622 0.07816 0.66959 0.0
C611 C 0.64676 0.09198 0.77674 0.0
C612 C 0.60569 0.06807 0.63724 0.0
C613 C 0.58391 0.06568 0.67169 0.0
C614 C 0.6249 0.08561 0.73702 0.0
C615 C 0.58302 0.07478 0.73738 0.0
C616 C 0.64553 0.09363 0.84684 0.0
C617 C 0.68907 0.09483 0.78164 0.0
N618 N 0.60331 0.08404 0.76828 0.0
N619 N 0.66849 0.09322 0.74633 0.0
H620 H 0.6239 0.65458 0.85798 0.0
H621 H 0.57377 0.53873 0.78535 0.0
H622 H 0.5737 0.65174 0.02191 0.0
H623 H 0.50951 0.57062 0.83469 0.0
H624 H 0.59693 0.57185 0.84397 0.0
H625 H 0.60564 0.61529 0.81778 0.0
C626 C 0.6093 0.64545 0.88586 0.0
C627 C 0.60038 0.65603 0.94351 0.0
C628 C 0.57774 0.57135 0.84261 0.0
C629 C 0.57936 0.61181 0.89796 0.0
C630 C 0.56449 0.5524 0.80987 0.0
C631 C 0.53975 0.55221 0.80433 0.0
C632 C 0.56605 0.58992 0.87097 0.0
C633 C 0.52858 0.57025 0.83745 0.0
C634 C 0.59902 0.62311 0.86336 0.0
C635 C 0.5812 0.64384 0.97768 0.0
N636 N 0.54187 0.58853 0.86926 0.0
N637 N 0.571 0.62252 0.9537 0.0
H638 H 0.83083 0.43715 0.81826 0.0
H639 H 0.95545 0.40977 0.69617 0.0
H640 H 0.85843 0.37817 0.91568 0.0
H641 H 0.94342 0.47938 0.77584 0.0
H642 H 0.91817 0.39302 0.74999 0.0
H643 H 0.86981 0.44773 0.7681 0.0
C644 C 0.84489 0.42594 0.82742 0.0
C645 C 0.84139 0.40664 0.87087 0.0
C646 C 0.92406 0.41185 0.75631 0.0
C647 C 0.88596 0.41895 0.81429 0.0
C648 C 0.94518 0.42139 0.72592 0.0
C649 C 0.95235 0.44596 0.7317 0.0
C650 C 0.90994 0.42723 0.7905 0.0
C651 C 0.9385 0.46035 0.77036 0.0
C652 C 0.86715 0.43223 0.79956 0.0
C653 C 0.86049 0.39315 0.88231 0.0
N654 N 0.91765 0.45084 0.7972 0.0
N655 N 0.88215 0.39956 0.85404 0.0
H656 H 0.02153 0.17989 0.81736 0.0
H657 H 0.03812 0.08411 0.52537 0.0
H658 H 0.06772 0.19681 0.6483 0.0
H659 H 0.01958 0.06503 0.72871 0.0
H660 H 0.04437 0.12622 0.56156 0.0
H661 H 0.01488 0.13866 0.77609 0.0
C662 C 0.02989 0.17507 0.77069 0.0
C663 C 0.04506 0.19195 0.73591 0.0
C664 C 0.03906 0.11276 0.59817 0.0
C665 C 0.03779 0.14447 0.68895 0.0
C666 C 0.03547 0.08874 0.57765 0.0
C667 C 0.02837 0.07096 0.62414 0.0
C668 C 0.03504 0.11912 0.66537 0.0
C669 C 0.02521 0.07804 0.6912 0.0
C670 C 0.02632 0.15142 0.74769 0.0
C671 C 0.05587 0.1844 0.67661 0.0
N672 N 0.02835 0.10155 0.70962 0.0
N673 N 0.05198 0.16121 0.65484 0.0
H674 H 0.33486 0.96886 0.72962 0.0
H675 H 0.45321 0.05589 0.6742 0.0
H676 H 0.35165 0.03098 0.85784 0.0
H677 H 0.45015 0.97945 0.64727 0.0
H678 H 0.41237 0.05116 0.71904 0.0
H679 H 0.37326 0.97721 0.67367 0.0
C680 C 0.34647 0.98436 0.74589 0.0
C681 C 0.34006 0.99889 0.79993 0.0
C682 C 0.42065 0.03551 0.70262 0.0
C683 C 0.38393 0.00882 0.73437 0.0
C684 C 0.44388 0.03816 0.67704 0.0
C685 C 0.45499 0.01803 0.65623 0.0
C686 C 0.40832 0.01262 0.70602 0.0
C687 C 0.44214 0.99547 0.66146 0.0
C688 C 0.36838 0.9891 0.71367 0.0
C689 C 0.35567 0.01923 0.81664 0.0
N690 N 0.41946 0.99339 0.68534 0.0
N691 N 0.37695 0.02351 0.78428 0.0
H692 H 0.49758 0.33376 0.85739 0.0
H693 H 0.47699 0.42069 0.55598 0.0
H694 H 0.45729 0.31148 0.68025 0.0
H695 H 0.50972 0.44515 0.74312 0.0
H696 H 0.47197 0.38016 0.59781 0.0
H697 H 0.50545 0.37375 0.81206 0.0
C698 C 0.49079 0.33711 0.80828 0.0
C699 C 0.47677 0.31913 0.77251 0.0
C700 C 0.4802 0.39437 0.62987 0.0
C701 C 0.48529 0.3652 0.721 0.0
C702 C 0.48306 0.4176 0.60607 0.0
C703 C 0.49373 0.43648 0.64617 0.0
C704 C 0.48819 0.38979 0.69423 0.0
C705 C 0.50123 0.43124 0.7106 0.0
C706 C 0.49505 0.36007 0.78283 0.0
C707 C 0.46803 0.32478 0.7098 0.0
N708 N 0.49837 0.40838 0.73255 0.0
N709 N 0.47236 0.3473 0.6862 0.0
H710 H 0.20683 0.51301 0.71574 0.0
H711 H 0.06518 0.48412 0.74708 0.0
H712 H 0.17055 0.49423 0.90111 0.0
H713 H 0.10128 0.50907 0.56661 0.0
H714 H 0.10376 0.48427 0.80191 0.0
H715 H 0.16863 0.50787 0.65792 0.0
C716 C 0.1909 0.50762 0.74431 0.0
C717 C 0.19207 0.50419 0.81371 0.0
C718 C 0.10324 0.48963 0.75024 0.0
C719 C 0.14803 0.49825 0.74744 0.0
C720 C 0.08117 0.48955 0.7188 0.0
C721 C 0.07983 0.4967 0.65203 0.0
C722 C 0.12425 0.49684 0.71476 0.0
C723 C 0.10129 0.50352 0.61818 0.0
C724 C 0.16904 0.50467 0.71116 0.0
C725 C 0.17072 0.49685 0.84757 0.0
N726 N 0.12251 0.50347 0.64987 0.0
N727 N 0.14965 0.49431 0.81429 0.0
H728 H 0.93372 0.82127 0.30901 0.0
H729 H 1.00099 0.91142 0.57569 0.0
H730 H 0.98646 0.79964 0.44362 0.0
H731 H 0.96874 0.93443 0.3962 0.0
H732 H 0.99088 0.86986 0.53948 0.0
H733 H 0.94108 0.86207 0.35314 0.0
C734 C 0.94654 0.82499 0.34885 0.0
C735 C 0.95936 0.80689 0.37304 0.0
C736 C 0.98599 0.88402 0.50816 0.0
C737 C 0.96814 0.85386 0.42308 0.0
C738 C 0.99166 0.90778 0.52884 0.0
C739 C 0.98575 0.92653 0.48882 0.0
C740 C 0.97401 0.87888 0.44748 0.0
C741 C 0.97375 0.92062 0.42852 0.0
C742 C 0.95092 0.84839 0.37343 0.0
C743 C 0.9762 0.81301 0.42351 0.0
N744 N 0.96821 0.89733 0.40982 0.0
N745 N 0.98007 0.83598 0.44698 0.0
H746 H 0.68277 0.03479 0.38339 0.0
H747 H 0.56393 0.94873 0.44363 0.0
H748 H 0.66665 0.97028 0.26433 0.0
H749 H 0.56748 0.02536 0.46488 0.0
H750 H 0.60491 0.95276 0.39981 0.0
H751 H 0.64411 0.0275 0.43852 0.0
C752 C 0.67124 0.019 0.36896 0.0
C753 C 0.67794 0.00344 0.31773 0.0
C754 C 0.59672 0.96862 0.4148 0.0
C755 C 0.63373 0.99475 0.38234 0.0
C756 C 0.5734 0.96637 0.43976 0.0
C757 C 0.56241 0.98676 0.4589 0.0
C758 C 0.60923 0.99138 0.41016 0.0
C759 C 0.57544 0.00917 0.45245 0.0
C760 C 0.64918 0.01486 0.4007 0.0
C761 C 0.66241 0.98282 0.30336 0.0
N762 N 0.59819 0.01088 0.42906 0.0
N763 N 0.64097 0.97914 0.33518 0.0
H764 H 0.52359 0.67796 0.26453 0.0
H765 H 0.54233 0.59173 0.56888 0.0
H766 H 0.56393 0.70023 0.4416 0.0
H767 H 0.50911 0.56721 0.38243 0.0
H768 H 0.54773 0.63215 0.52632 0.0
H769 H 0.51457 0.63837 0.31158 0.0
C770 C 0.53013 0.67472 0.314 0.0
C771 C 0.54454 0.69254 0.34921 0.0
C772 C 0.53929 0.61795 0.49461 0.0
C773 C 0.53472 0.64692 0.40267 0.0
C774 C 0.53621 0.59479 0.51882 0.0
C775 C 0.52532 0.57592 0.47907 0.0
C776 C 0.53133 0.62247 0.43017 0.0
C777 C 0.51776 0.58112 0.41468 0.0
C778 C 0.52521 0.65197 0.34044 0.0
C779 C 0.55292 0.68702 0.41245 0.0
N780 N 0.52088 0.6039 0.39228 0.0
N781 N 0.54798 0.6647 0.43697 0.0
H782 H 0.8542 0.51377 0.20675 0.0
H783 H 0.92548 0.49005 0.53958 0.0
H784 H 0.82056 0.48731 0.38904 0.0
H785 H 0.95926 0.52112 0.36282 0.0
H786 H 0.88686 0.49073 0.48664 0.0
H787 H 0.89233 0.51906 0.2647 0.0
C788 C 0.85467 0.50948 0.25929 0.0
C789 C 0.83396 0.49996 0.29276 0.0
C790 C 0.90268 0.49752 0.45944 0.0
C791 C 0.87797 0.50549 0.35926 0.0
C792 C 0.92485 0.4971 0.48965 0.0
C793 C 0.94584 0.50542 0.45564 0.0
C794 C 0.90129 0.50621 0.39431 0.0
C795 C 0.94366 0.51446 0.39109 0.0
C796 C 0.87658 0.5123 0.29223 0.0
C797 C 0.836 0.49435 0.36066 0.0
N798 N 0.92184 0.51448 0.36246 0.0
N799 N 0.85755 0.49703 0.39135 0.0
loop_
_geom_bond_atom_site_label_1
_geom_bond_atom_site_label_2
_geom_bond_distance
_geom_bond_site_symmetry_2
_ccdc_geom_bond_type
C0 C1 1.384 . S
C0 H13 0.947 . S
C0 C35 1.382 . S
C1 C0 1.384 . S
C1 C2 1.378 . S
C2 C1 1.378 . S
C2 C3 1.378 . S
C2 H14 0.952 . S
C3 C2 1.378 . S
C3 H15 0.950 . S
C3 C34 1.383 . S
H4 C23 0.947 . S
H5 C24 0.946 . S
H6 C26 0.953 . S
H7 C27 0.945 . S
H8 C29 0.952 . S
H9 C30 0.949 . S
H10 C32 0.950 . S
H11 C33 0.948 . S
H12 C35 0.951 . S
H13 C0 0.947 . S
H14 C2 0.952 . S
H15 C3 0.950 . S
N16 C19 1.382 . S
N16 C21 1.363 . S
N17 C19 1.371 1_556 S
N17 C20 1.372 . S
N18 C20 1.361 1_554 S
N18 C21 1.377 . S
C19 N16 1.382 . S
C19 N17 1.371 1_554 S
C19 C22 1.480 1_554 S
C20 N17 1.372 . S
C20 N18 1.361 1_556 S
C20 C28 1.457 . S
C21 N16 1.363 . S
C21 N18 1.377 . S
C21 C34 1.479 . S
C22 C19 1.480 1_556 S
C22 C23 1.383 1_556 S
C22 C27 1.385 . S
C23 H4 0.947 . S
C23 C22 1.383 1_554 S
C23 C24 1.388 . S
C24 H5 0.946 . S
C24 C23 1.388 . S
C24 C25 1.384 1_554 S
C25 C24 1.384 1_556 S
C25 C26 1.377 . S
C26 H6 0.953 . S
C26 C25 1.377 . S
C26 C27 1.369 . S
C27 H7 0.945 . S
C27 C22 1.385 . S
C27 C26 1.369 . S
C28 C20 1.457 . S
C28 C29 1.372 . S
C28 C33 1.364 . S
C29 H8 0.952 . S
C29 C28 1.372 . S
C29 C30 1.389 . S
C30 H9 0.949 . S
C30 C29 1.389 . S
C30 C31 1.387 . S
C31 C30 1.387 . S
C31 C32 1.372 . S
C32 H10 0.950 . S
C32 C31 1.372 . S
C32 C33 1.379 . S
C33 H11 0.948 . S
C33 C28 1.364 . S
C33 C32 1.379 . S
C34 C3 1.383 . S
C34 C21 1.479 . S
C34 C35 1.398 . S
C35 C0 1.382 . S
C35 H12 0.951 . S
C35 C34 1.398 . S
C36 C37 1.384 . S
C36 H49 0.947 . S
C36 C71 1.382 . S
C37 C36 1.384 . S
C37 C38 1.378 . S
C38 C37 1.378 . S
C38 C39 1.378 . S
C38 H50 0.952 . S
C39 C38 1.378 . S
C39 H51 0.950 . S
C39 C70 1.383 . S
H40 C59 0.947 . S
H41 C60 0.946 . S
H42 C62 0.953 . S
H43 C63 0.945 . S
H44 C65 0.952 . S
H45 C66 0.949 . S
H46 C68 0.950 . S
H47 C69 0.948 . S
H48 C71 0.951 . S
H49 C36 0.947 . S
H50 C38 0.952 . S
H51 C39 0.950 . S
N52 C55 1.382 1_554 S
N52 C57 1.363 . S
N53 C55 1.371 . S
N53 C56 1.372 . S
N54 C56 1.361 1_554 S
N54 C57 1.377 . S
C55 N52 1.382 1_556 S
C55 N53 1.371 . S
C55 C58 1.480 . S
C56 N53 1.372 . S
C56 N54 1.361 1_556 S
C56 C64 1.457 . S
C57 N52 1.363 . S
C57 N54 1.377 . S
C57 C70 1.479 . S
C58 C55 1.480 . S
C58 C59 1.383 1_556 S
C58 C63 1.385 . S
C59 H40 0.947 . S
C59 C58 1.383 1_554 S
C59 C60 1.388 . S
C60 H41 0.946 . S
C60 C59 1.388 . S
C60 C61 1.384 1_554 S
C61 C60 1.384 1_556 S
C61 C62 1.377 . S
C62 H42 0.953 . S
C62 C61 1.377 . S
C62 C63 1.369 . S
C63 H43 0.945 . S
C63 C58 1.385 . S
C63 C62 1.369 . S
C64 C56 1.457 . S
C64 C65 1.372 . S
C64 C69 1.364 . S
C65 H44 0.952 . S
C65 C64 1.372 . S
C65 C66 1.389 . S
C66 H45 0.949 . S
C66 C65 1.389 . S
C66 C67 1.387 . S
C67 C66 1.387 . S
C67 C68 1.372 . S
C68 H46 0.950 . S
C68 C67 1.372 . S
C68 C69 1.379 . S
C69 H47 0.948 . S
C69 C64 1.364 . S
C69 C68 1.379 . S
C70 C39 1.383 . S
C70 C57 1.479 . S
C70 C71 1.398 . S
C71 C36 1.382 . S
C71 H48 0.951 . S
C71 C70 1.398 . S
C72 C73 1.384 1_565 S
C72 H85 0.947 . S
C72 C107 1.382 1_565 S
C73 C72 1.384 1_545 S
C73 C74 1.378 . S
C74 C73 1.378 . S
C74 C75 1.378 . S
C74 H86 0.952 . S
C75 C74 1.378 . S
C75 H87 0.950 . S
C75 C106 1.383 . S
H76 C95 0.947 . S
H77 C96 0.954 . S
H78 C98 0.953 . S
H79 C99 0.945 . S
H80 C101 0.947 1_565 S
H81 C102 0.957 . S
H82 C104 0.950 . S
H83 C105 0.948 . S
H84 C107 0.951 1_565 S
H85 C72 0.947 . S
H86 C74 0.952 . S
H87 C75 0.950 . S
N88 C91 1.382 . S
N88 C93 1.363 . S
N89 C91 1.371 1_556 S
N89 C92 1.372 . S
N90 C92 1.361 1_554 S
N90 C93 1.377 . S
C91 N88 1.382 . S
C91 N89 1.371 1_554 S
C91 C94 1.480 1_554 S
C92 N89 1.372 . S
C92 N90 1.361 1_556 S
C92 C100 1.457 . S
C93 N88 1.363 . S
C93 N90 1.377 . S
C93 C106 1.479 . S
C94 C91 1.480 1_556 S
C94 C95 1.383 1_556 S
C94 C99 1.385 . S
C95 H76 0.947 . S
C95 C94 1.383 1_554 S
C95 C96 1.383 1_545 S
C96 H77 0.954 . S
C96 C95 1.383 1_565 S
C96 C97 1.382 1_564 S
C97 C96 1.382 1_546 S
C97 C98 1.377 . S
C98 H78 0.953 . S
C98 C97 1.377 . S
C98 C99 1.369 . S
C99 H79 0.945 . S
C99 C94 1.385 . S
C99 C98 1.369 . S
C100 C92 1.457 . S
C100 C101 1.377 . S
C100 C105 1.364 . S
C101 H80 0.947 1_545 S
C101 C100 1.377 . S
C101 C102 1.392 1_545 S
C102 H81 0.957 . S
C102 C101 1.392 1_565 S
C102 C103 1.379 1_565 S
C103 C102 1.379 1_545 S
C103 C104 1.372 . S
C104 H82 0.950 . S
C104 C103 1.372 . S
C104 C105 1.379 . S
C105 H83 0.948 . S
C105 C100 1.364 . S
C105 C104 1.379 . S
C106 C75 1.383 . S
C106 C93 1.479 . S
C106 C107 1.398 . S
C107 C72 1.382 1_545 S
C107 H84 0.951 1_545 S
C107 C106 1.398 . S
C108 C109 1.384 . S
C108 H121 0.947 . S
C108 C143 1.382 . S
C109 C108 1.384 . S
C109 C110 1.378 . S
C110 C109 1.378 . S
C110 C111 1.378 . S
C110 H122 0.952 . S
C111 C110 1.378 . S
C111 H123 0.950 . S
C111 C142 1.383 . S
H112 C131 0.947 . S
H113 C132 0.946 . S
H114 C134 0.953 . S
H115 C135 0.945 . S
H116 C137 0.952 . S
H117 C138 0.949 . S
H118 C140 0.950 . S
H119 C141 0.948 . S
H120 C143 0.951 1_554 S
H121 C108 0.947 . S
H122 C110 0.952 . S
H123 C111 0.950 . S
N124 C127 1.377 1_556 S
N124 C129 1.361 1_556 S
N125 C127 1.371 . S
N125 C128 1.372 . S
N126 C128 1.361 . S
N126 C129 1.377 . S
C127 N124 1.377 1_554 S
C127 N125 1.371 . S
C127 C130 1.480 . S
C128 N125 1.372 . S
C128 N126 1.361 . S
C128 C136 1.457 . S
C129 N124 1.361 1_554 S
C129 N126 1.377 . S
C129 C142 1.479 1_554 S
C130 C127 1.480 . S
C130 C131 1.383 1_554 S
C130 C135 1.385 . S
C131 H112 0.947 . S
C131 C130 1.383 1_556 S
C131 C132 1.388 . S
C132 H113 0.946 . S
C132 C131 1.388 . S
C132 C133 1.384 1_556 S
C133 C132 1.384 1_554 S
C133 C134 1.377 . S
C134 H114 0.953 . S
C134 C133 1.377 . S
C134 C135 1.369 . S
C135 H115 0.945 . S
C135 C130 1.385 . S
C135 C134 1.369 . S
C136 C128 1.457 . S
C136 C137 1.372 . S
C136 C141 1.364 . S
C137 H116 0.952 . S
C137 C136 1.372 . S
C137 C138 1.389 . S
C138 H117 0.949 . S
C138 C137 1.389 . S
C138 C139 1.387 . S
C139 C138 1.387 . S
C139 C140 1.372 . S
C140 H118 0.950 . S
C140 C139 1.372 . S
C140 C141 1.379 . S
C141 H119 0.948 . S
C141 C136 1.364 . S
C141 C140 1.379 . S
C142 C111 1.383 . S
C142 C129 1.479 1_556 S
C142 C143 1.398 . S
C143 C108 1.382 . S
C143 H120 0.951 1_556 S
C143 C142 1.398 . S
C144 C145 1.384 . S
C144 H157 0.947 . S
C144 C179 1.382 . S
C145 C144 1.384 . S
C145 C146 1.378 . S
C146 C145 1.378 . S
C146 C147 1.378 . S
C146 H158 0.952 . S
C147 C146 1.378 . S
C147 H159 0.950 . S
C147 C178 1.383 . S
H148 C167 0.947 . S
H149 C168 0.946 . S
H150 C170 0.953 . S
H151 C171 0.945 . S
H152 C173 0.952 . S
H153 C174 0.949 . S
H154 C176 0.950 . S
H155 C177 0.948 . S
H156 C179 0.951 . S
H157 C144 0.947 . S
H158 C146 0.952 . S
H159 C147 0.950 . S
N160 C163 1.382 . S
N160 C165 1.363 . S
N161 C163 1.371 . S
N161 C164 1.372 . S
N162 C164 1.361 . S
N162 C165 1.377 . S
C163 N160 1.382 . S
C163 N161 1.371 . S
C163 C166 1.480 . S
C164 N161 1.372 . S
C164 N162 1.361 . S
C164 C172 1.457 . S
C165 N160 1.363 . S
C165 N162 1.377 . S
C165 C178 1.479 1_554 S
C166 C163 1.480 . S
C166 C167 1.383 . S
C166 C171 1.385 . S
C167 H148 0.947 . S
C167 C166 1.383 . S
C167 C168 1.388 . S
C168 H149 0.946 . S
C168 C167 1.388 . S
C168 C169 1.384 . S
C169 C168 1.384 . S
C169 C170 1.377 . S
C170 H150 0.953 . S
C170 C169 1.377 . S
C170 C171 1.369 . S
C171 H151 0.945 . S
C171 C166 1.385 . S
C171 C170 1.369 . S
C172 C164 1.457 . S
C172 C173 1.372 . S
C172 C177 1.364 . S
C173 H152 0.952 . S
C173 C172 1.372 . S
C173 C174 1.389 . S
C174 H153 0.949 . S
C174 C173 1.389 . S
C174 C175 1.387 . S
C175 C174 1.387 . S
C175 C176 1.372 . S
C176 H154 0.950 . S
C176 C175 1.372 . S
C176 C177 1.379 . S
C177 H155 0.948 . S
C177 C172 1.364 . S
C177 C176 1.379 . S
C178 C147 1.383 . S
C178 C165 1.479 1_556 S
C178 C179 1.398 . S
C179 C144 1.382 . S
C179 H156 0.951 . S
C179 C178 1.398 . S
C180 C181 1.384 . S
C180 H193 0.947 . S
C180 C215 1.382 . S
C181 C180 1.384 . S
C181 C182 1.378 . S
C182 C181 1.378 . S
C182 C183 1.378 . S
C182 H194 0.952 . S
C183 C182 1.378 . S
C183 H195 0.950 . S
C183 C214 1.383 . S
H184 C203 0.947 . S
H185 C204 0.946 . S
H186 C206 0.953 . S
H187 C207 0.945 . S
H188 C209 0.952 . S
H189 C210 0.949 . S
H190 C212 0.950 . S
H191 C213 0.948 . S
H192 C215 0.951 . S
H193 C180 0.947 . S
H194 C182 0.952 . S
H195 C183 0.950 . S
N196 C199 1.382 . S
N196 C201 1.363 . S
N197 C199 1.371 . S
N197 C200 1.372 . S
N198 C200 1.361 . S
N198 C201 1.377 . S
C199 N196 1.382 . S
C199 N197 1.371 . S
C199 C202 1.480 . S
C200 N197 1.372 . S
C200 N198 1.361 . S
C200 C208 1.457 . S
C201 N196 1.363 . S
C201 N198 1.377 . S
C201 C214 1.479 1_554 S
C202 C199 1.480 . S
C202 C203 1.383 . S
C202 C207 1.385 . S
C203 H184 0.947 . S
C203 C202 1.383 . S
C203 C204 1.388 . S
C204 H185 0.946 . S
C204 C203 1.388 . S
C204 C205 1.384 . S
C205 C204 1.384 . S
C205 C206 1.377 . S
C206 H186 0.953 . S
C206 C205 1.377 . S
C206 C207 1.369 . S
C207 H187 0.945 . S
C207 C202 1.385 . S
C207 C206 1.369 . S
C208 C200 1.457 . S
C208 C209 1.372 . S
C208 C213 1.364 . S
C209 H188 0.952 . S
C209 C208 1.372 . S
C209 C210 1.389 . S
C210 H189 0.949 . S
C210 C209 1.389 . S
C210 C211 1.387 . S
C211 C210 1.387 . S
C211 C212 1.372 . S
C212 H190 0.950 . S
C212 C211 1.372 . S
C212 C213 1.379 . S
C213 H191 0.948 . S
C213 C208 1.364 . S
C213 C212 1.379 . S
C214 C183 1.383 . S
C214 C201 1.479 1_556 S
C214 C215 1.398 . S
C215 C180 1.382 . S
C215 H192 0.951 . S
C215 C214 1.398 . S
C216 C217 1.383 . S
C216 H229 0.948 1_545 S
C216 C251 1.381 . S
C217 C216 1.383 . S
C217 C218 1.378 . S
C218 C217 1.378 . S
C218 C219 1.378 . S
C218 H230 0.952 . S
C219 C218 1.378 . S
C219 H231 0.950 . S
C219 C250 1.383 . S
H220 C239 0.947 . S
H221 C240 0.948 . S
H222 C242 0.953 . S
H223 C243 0.945 . S
H224 C245 0.951 1_565 S
H225 C246 0.954 . S
H226 C248 0.950 . S
H227 C249 0.948 . S
H228 C251 0.949 1_565 S
H229 C216 0.948 1_565 S
H230 C218 0.952 . S
H231 C219 0.950 . S
N232 C235 1.382 . S
N232 C237 1.363 . S
N233 C235 1.371 . S
N233 C236 1.372 . S
N234 C236 1.361 . S
N234 C237 1.377 . S
C235 N232 1.382 . S
C235 N233 1.371 . S
C235 C238 1.480 . S
C236 N233 1.372 . S
C236 N234 1.361 . S
C236 C244 1.457 . S
C237 N232 1.363 . S
C237 N234 1.377 . S
C237 C250 1.479 1_554 S
C238 C235 1.480 . S
C238 C239 1.383 . S
C238 C243 1.385 . S
C239 H220 0.947 . S
C239 C238 1.383 . S
C239 C240 1.388 1_545 S
C240 H221 0.948 . S
C240 C239 1.388 1_565 S
C240 C241 1.382 1_565 S
C241 C240 1.382 1_545 S
C241 C242 1.377 . S
C242 H222 0.953 . S
C242 C241 1.377 . S
C242 C243 1.369 . S
C243 H223 0.945 . S
C243 C238 1.385 . S
C243 C242 1.369 . S
C244 C236 1.457 . S
C244 C245 1.378 . S
C244 C249 1.364 . S
C245 H224 0.951 1_545 S
C245 C244 1.378 . S
C245 C246 1.381 1_545 S
C246 H225 0.954 . S
C246 C245 1.381 1_565 S
C246 C247 1.387 1_565 S
C247 C246 1.387 1_545 S
C247 C248 1.372 . S
C248 H226 0.950 . S
C248 C247 1.372 . S
C248 C249 1.379 . S
C249 H227 0.948 . S
C249 C244 1.364 . S
C249 C248 1.379 . S
C250 C219 1.383 . S
C250 C237 1.479 1_556 S
C250 C251 1.400 . S
C251 C216 1.381 . S
C251 H228 0.949 1_545 S
C251 C250 1.400 . S
C252 C253 1.384 . S
C252 H265 0.947 . S
C252 C287 1.382 . S
C253 C252 1.384 . S
C253 C254 1.378 . S
C254 C253 1.378 . S
C254 C255 1.378 . S
C254 H266 0.952 . S
C255 C254 1.378 . S
C255 H267 0.950 . S
C255 C286 1.383 . S
H256 C275 0.947 . S
H257 C276 0.946 . S
H258 C278 0.953 . S
H259 C279 0.945 1_556 S
H260 C281 0.952 . S
H261 C282 0.949 . S
H262 C284 0.950 . S
H263 C285 0.948 . S
H264 C287 0.951 . S
H265 C252 0.947 . S
H266 C254 0.952 . S
H267 C255 0.950 . S
N268 C271 1.382 . S
N268 C273 1.363 . S
N269 C271 1.371 1_556 S
N269 C272 1.372 . S
N270 C272 1.361 1_554 S
N270 C273 1.377 . S
C271 N268 1.382 . S
C271 N269 1.371 1_554 S
C271 C274 1.480 . S
C272 N269 1.372 . S
C272 N270 1.361 1_556 S
C272 C280 1.457 . S
C273 N268 1.363 . S
C273 N270 1.377 . S
C273 C286 1.479 . S
C274 C271 1.480 . S
C274 C275 1.383 . S
C274 C279 1.385 . S
C275 H256 0.947 . S
C275 C274 1.383 . S
C275 C276 1.388 . S
C276 H257 0.946 . S
C276 C275 1.388 . S
C276 C277 1.384 . S
C277 C276 1.384 . S
C277 C278 1.377 . S
C278 H258 0.953 . S
C278 C277 1.377 . S
C278 C279 1.369 . S
C279 H259 0.945 1_554 S
C279 C274 1.385 . S
C279 C278 1.369 . S
C280 C272 1.457 . S
C280 C281 1.372 . S
C280 C285 1.364 . S
C281 H260 0.952 . S
C281 C280 1.372 . S
C281 C282 1.389 . S
C282 H261 0.949 . S
C282 C281 1.389 . S
C282 C283 1.387 . S
C283 C282 1.387 . S
C283 C284 1.372 . S
C284 H262 0.950 . S
C284 C283 1.372 . S
C284 C285 1.379 . S
C285 H263 0.948 . S
C285 C280 1.364 . S
C285 C284 1.379 . S
C286 C255 1.383 . S
C286 C273 1.479 . S
C286 C287 1.398 . S
C287 C252 1.382 . S
C287 H264 0.951 . S
C287 C286 1.398 . S
Dy288 O292 2.398 . S
Dy288 O293 2.491 1_455 S
Dy288 O294 2.403 . S
Dy288 O295 2.664 1_565 S
Dy288 O299 2.326 . S
Dy288 O303 2.310 1_455 S
Dy288 O304 2.351 1_565 S
C289 O300 1.185 1_455 S
C289 O301 1.355 . S
C290 O292 1.185 . S
C290 O293 1.355 1_455 S
Dy291 O295 2.310 1_655 S
Dy291 O298 2.351 1_545 S
Dy291 O300 2.398 . S
Dy291 O301 2.491 1_655 S
Dy291 O302 2.403 . S
Dy291 O303 2.664 1_545 S
Dy291 O305 2.326 1_655 S
O292 Dy288 2.398 . S
O292 C290 1.185 . S
O293 Dy288 2.491 1_655 S
O293 C290 1.355 1_655 S
O294 Dy288 2.403 . S
O294 C296 1.254 . S
O295 Dy288 2.664 1_545 S
O295 Dy291 2.310 1_455 S
O295 C296 1.268 1_545 S
C296 O294 1.254 . S
C296 O295 1.268 1_565 S
C297 O302 1.254 . S
C297 O303 1.268 1_545 S
O298 Dy291 2.351 1_565 S
O298 C306 1.249 . S
O299 Dy288 2.326 . S
O299 C306 1.267 1_455 S
O300 C289 1.185 1_655 S
O300 Dy291 2.398 . S
O301 C289 1.355 . S
O301 Dy291 2.491 1_455 S
O302 Dy291 2.403 . S
O302 C297 1.254 . S
O303 Dy288 2.310 1_655 S
O303 Dy291 2.664 1_565 S
O303 C297 1.268 1_565 S
O304 Dy288 2.351 1_545 S
O304 C307 1.249 . S
O305 Dy291 2.326 1_455 S
O305 C307 1.267 . S
C306 O298 1.249 . S
C306 O299 1.267 1_655 S
C307 O304 1.249 . S
C307 O305 1.267 . S
Dy308 O312 2.398 . S
Dy308 O313 2.491 . S
Dy308 O314 2.403 . S
Dy308 O315 2.664 . S
Dy308 O319 2.326 1_565 S
Dy308 O323 2.310 1_565 S
Dy308 O324 2.351 . S
C309 O320 1.185 . S
C309 O321 1.355 . S
C310 O312 1.185 . S
C310 O313 1.355 . S
Dy311 O315 2.310 1_545 S
Dy311 O318 2.351 . S
Dy311 O320 2.398 . S
Dy311 O321 2.491 . S
Dy311 O322 2.403 . S
Dy311 O323 2.664 . S
Dy311 O325 2.326 1_545 S
O312 Dy308 2.398 . S
O312 C310 1.185 . S
O313 Dy308 2.491 . S
O313 C310 1.355 . S
O314 Dy308 2.403 . S
O314 C316 1.254 . S
O315 Dy308 2.664 . S
O315 Dy311 2.310 1_565 S
O315 C316 1.268 . S
C316 O314 1.254 . S
C316 O315 1.268 . S
C317 O322 1.254 . S
C317 O323 1.268 . S
O318 Dy311 2.351 . S
O318 C326 1.249 . S
O319 Dy308 2.326 1_545 S
O319 C326 1.267 . S
O320 C309 1.185 . S
O320 Dy311 2.398 . S
O321 C309 1.355 . S
O321 Dy311 2.491 . S
O322 Dy311 2.403 . S
O322 C317 1.254 . S
O323 Dy308 2.310 1_545 S
O323 Dy311 2.664 . S
O323 C317 1.268 . S
O324 Dy308 2.351 . S
O324 C327 1.249 . S
O325 Dy311 2.326 1_565 S
O325 C327 1.267 . S
C326 O318 1.249 . S
C326 O319 1.267 . S
C327 O324 1.249 . S
C327 O325 1.267 . S
Dy328 O332 2.398 . S
Dy328 O333 2.491 . S
Dy328 O334 2.403 . S
Dy328 O335 2.664 . S
Dy328 O339 2.326 . S
Dy328 O343 2.310 . S
Dy328 O344 2.351 . S
C329 O340 1.185 . S
C329 O341 1.355 . S
C330 O332 1.185 . S
C330 O333 1.355 . S
Dy331 O335 2.310 . S
Dy331 O338 2.351 . S
Dy331 O340 2.398 . S
Dy331 O341 2.491 . S
Dy331 O342 2.403 . S
Dy331 O343 2.664 . S
Dy331 O345 2.326 . S
O332 Dy328 2.398 . S
O332 C330 1.185 . S
O333 Dy328 2.491 . S
O333 C330 1.355 . S
O334 Dy328 2.403 . S
O334 C336 1.254 . S
O335 Dy328 2.664 . S
O335 Dy331 2.310 . S
O335 C336 1.268 . S
C336 O334 1.254 . S
C336 O335 1.268 . S
C337 O342 1.254 . S
C337 O343 1.268 . S
O338 Dy331 2.351 . S
O338 C346 1.249 . S
O339 Dy328 2.326 . S
O339 C346 1.267 . S
O340 C329 1.185 . S
O340 Dy331 2.398 . S
O341 C329 1.355 . S
O341 Dy331 2.491 . S
O342 Dy331 2.403 . S
O342 C337 1.254 . S
O343 Dy328 2.310 . S
O343 Dy331 2.664 . S
O343 C337 1.268 . S
O344 Dy328 2.351 . S
O344 C347 1.249 . S
O345 Dy331 2.326 . S
O345 C347 1.267 . S
C346 O338 1.249 . S
C346 O339 1.267 . S
C347 O344 1.249 . S
C347 O345 1.267 . S
Dy348 O352 2.398 . S
Dy348 O353 2.491 . S
Dy348 O354 2.403 1_655 S
Dy348 O355 2.664 1_655 S
Dy348 O359 2.326 . S
Dy348 O363 2.310 . S
Dy348 O364 2.351 1_655 S
C349 O360 1.185 . S
C349 O361 1.355 . S
C350 O352 1.185 . S
C350 O353 1.355 . S
Dy351 O355 2.310 . S
Dy351 O358 2.351 1_455 S
Dy351 O360 2.398 . S
Dy351 O361 2.491 . S
Dy351 O362 2.403 . S
Dy351 O363 2.664 1_455 S
Dy351 O365 2.326 . S
O352 Dy348 2.398 . S
O352 C350 1.185 . S
O353 Dy348 2.491 . S
O353 C350 1.355 . S
O354 Dy348 2.403 1_455 S
O354 C356 1.254 . S
O355 Dy348 2.664 1_455 S
O355 Dy351 2.310 . S
O355 C356 1.268 . S
C356 O354 1.254 . S
C356 O355 1.268 . S
C357 O362 1.254 1_655 S
C357 O363 1.268 . S
O358 Dy351 2.351 1_655 S
O358 C366 1.249 . S
O359 Dy348 2.326 . S
O359 C366 1.267 . S
O360 C349 1.185 . S
O360 Dy351 2.398 . S
O361 C349 1.355 . S
O361 Dy351 2.491 . S
O362 Dy351 2.403 . S
O362 C357 1.254 1_455 S
O363 Dy348 2.310 . S
O363 Dy351 2.664 1_655 S
O363 C357 1.268 . S
O364 Dy348 2.351 1_455 S
O364 C367 1.249 . S
O365 Dy351 2.326 . S
O365 C367 1.267 . S
C366 O358 1.249 . S
C366 O359 1.267 . S
C367 O364 1.249 . S
C367 O365 1.267 . S
H368 C374 0.930 . S
H369 C378 0.930 . S
H370 C383 0.929 . S
H371 C381 0.929 . S
H372 C376 0.929 . S
H373 C382 0.929 . S
C374 H368 0.930 . S
C374 C375 1.365 1_545 S
C374 C382 1.378 . S
C375 C374 1.365 1_565 S
C375 C383 1.435 . S
C376 H372 0.929 . S
C376 C378 1.378 . S
C376 C380 1.350 . S
C377 C380 1.463 . S
C377 C382 1.350 1_565 S
C377 N385 1.427 . S
C378 H369 0.930 . S
C378 C376 1.378 . S
C378 C379 1.367 . S
C379 C378 1.367 . S
C379 C381 1.433 1_565 S
C380 C376 1.350 . S
C380 C377 1.463 . S
C380 N384 1.427 1_565 S
C381 H371 0.929 . S
C381 C379 1.433 1_545 S
C381 N384 1.384 . S
C382 H373 0.929 . S
C382 C374 1.378 . S
C382 C377 1.350 1_545 S
C383 H370 0.929 . S
C383 C375 1.435 . S
C383 N385 1.384 . S
N384 C380 1.427 1_545 S
N384 C381 1.384 . S
N385 C377 1.427 . S
N385 C383 1.384 . S
H386 C392 0.930 . S
H387 C396 0.930 . S
H388 C401 0.929 . S
H389 C399 0.929 . S
H390 C394 0.929 . S
H391 C400 0.929 . S
C392 H386 0.930 . S
C392 C393 1.367 . S
C392 C400 1.378 . S
C393 C392 1.367 . S
C393 C401 1.433 . S
C394 H390 0.929 . S
C394 C396 1.378 . S
C394 C398 1.350 . S
C395 C398 1.463 . S
C395 C400 1.350 . S
C395 N403 1.427 . S
C396 H387 0.930 . S
C396 C394 1.378 . S
C396 C397 1.367 . S
C397 C396 1.367 . S
C397 C399 1.433 . S
C398 C394 1.350 . S
C398 C395 1.463 . S
C398 N402 1.427 . S
C399 H389 0.929 . S
C399 C397 1.433 . S
C399 N402 1.384 . S
C400 H391 0.929 . S
C400 C392 1.378 . S
C400 C395 1.350 . S
C401 H388 0.929 . S
C401 C393 1.433 . S
C401 N403 1.384 . S
N402 C398 1.427 . S
N402 C399 1.384 . S
N403 C395 1.427 . S
N403 C401 1.384 . S
H404 C410 0.930 . S
H405 C414 0.930 . S
H406 C419 0.929 . S
H407 C417 0.929 . S
H408 C412 0.929 . S
H409 C418 0.929 . S
C410 H404 0.930 . S
C410 C411 1.367 . S
C410 C418 1.378 . S
C411 C410 1.367 . S
C411 C419 1.433 . S
C412 H408 0.929 . S
C412 C414 1.378 . S
C412 C416 1.350 . S
C413 C416 1.463 . S
C413 C418 1.350 . S
C413 N421 1.427 . S
C414 H405 0.930 . S
C414 C412 1.378 . S
C414 C415 1.367 . S
C415 C414 1.367 . S
C415 C417 1.433 . S
C416 C412 1.350 . S
C416 C413 1.463 . S
C416 N420 1.427 . S
C417 H407 0.929 . S
C417 C415 1.433 . S
C417 N420 1.384 . S
C418 H409 0.929 . S
C418 C410 1.378 . S
C418 C413 1.350 . S
C419 H406 0.929 . S
C419 C411 1.433 . S
C419 N421 1.384 . S
N420 C416 1.427 . S
N420 C417 1.384 . S
N421 C413 1.427 . S
N421 C419 1.384 . S
H422 C428 0.930 . S
H423 C432 0.902 1_655 S
H424 C437 0.929 . S
H425 C435 0.929 . S
H426 C430 0.929 . S
H427 C436 0.929 . S
C428 H422 0.930 . S
C428 C429 1.367 . S
C428 C436 1.378 . S
C429 C428 1.367 . S
C429 C437 1.433 . S
C430 H426 0.929 . S
C430 C432 1.378 . S
C430 C434 1.350 . S
C431 C434 1.463 . S
C431 C436 1.350 . S
C431 N439 1.427 . S
C432 H423 0.902 1_455 S
C432 C430 1.378 . S
C432 C433 1.367 . S
C433 C432 1.367 . S
C433 C435 1.433 . S
C434 C430 1.350 . S
C434 C431 1.463 . S
C434 N438 1.427 . S
C435 H425 0.929 . S
C435 C433 1.433 . S
C435 N438 1.384 . S
C436 H427 0.929 . S
C436 C428 1.378 . S
C436 C431 1.350 . S
C437 H424 0.929 . S
C437 C429 1.433 . S
C437 N439 1.384 . S
N438 C434 1.427 . S
N438 C435 1.384 . S
N439 C431 1.427 . S
N439 C437 1.384 . S
H440 C446 0.930 . S
H441 C450 0.930 . S
H442 C455 0.929 . S
H443 C453 0.929 . S
H444 C448 0.929 . S
H445 C454 0.929 . S
C446 H440 0.930 . S
C446 C447 1.367 . S
C446 C454 1.378 . S
C447 C446 1.367 . S
C447 C455 1.433 1_545 S
C448 H444 0.929 . S
C448 C450 1.378 . S
C448 C452 1.350 1_565 S
C449 C452 1.463 . S
C449 C454 1.350 . S
C449 N457 1.427 1_545 S
C450 H441 0.930 . S
C450 C448 1.378 . S
C450 C451 1.367 1_565 S
C451 C450 1.367 1_545 S
C451 C453 1.433 . S
C452 C448 1.350 1_545 S
C452 C449 1.463 . S
C452 N456 1.427 . S
C453 H443 0.929 . S
C453 C451 1.433 . S
C453 N456 1.384 . S
C454 H445 0.929 . S
C454 C446 1.378 . S
C454 C449 1.350 . S
C455 H442 0.929 . S
C455 C447 1.433 1_565 S
C455 N457 1.384 . S
N456 C452 1.427 . S
N456 C453 1.384 . S
N457 C449 1.427 1_565 S
N457 C455 1.384 . S
H458 C464 0.930 . S
H459 C468 0.930 . S
H460 C473 0.941 . S
H461 C471 0.929 . S
H462 C466 0.929 . S
H463 C472 0.929 . S
C464 H458 0.930 . S
C464 C465 1.367 . S
C464 C472 1.378 . S
C465 C464 1.367 . S
C465 C473 1.433 . S
C466 H462 0.929 . S
C466 C468 1.378 . S
C466 C470 1.350 . S
C467 C470 1.463 . S
C467 C472 1.350 . S
C467 N475 1.427 . S
C468 H459 0.930 . S
C468 C466 1.378 . S
C468 C469 1.367 . S
C469 C468 1.367 . S
C469 C471 1.433 . S
C470 C466 1.350 . S
C470 C467 1.463 . S
C470 N474 1.427 . S
C471 H461 0.929 . S
C471 C469 1.433 . S
C471 N474 1.384 . S
C472 H463 0.929 . S
C472 C464 1.378 . S
C472 C467 1.350 . S
C473 H460 0.941 . S
C473 C465 1.433 . S
C473 N475 1.384 . S
N474 C470 1.427 . S
N474 C471 1.384 . S
N475 C467 1.427 . S
N475 C473 1.384 . S
H476 C482 0.930 . S
H477 C486 0.930 . S
H478 C491 0.929 . S
H479 C489 0.929 . S
H480 C484 0.929 . S
H481 C490 0.929 . S
C482 H476 0.930 . S
C482 C483 1.367 . S
C482 C490 1.378 . S
C483 C482 1.367 . S
C483 C491 1.433 . S
C484 H480 0.929 . S
C484 C486 1.378 . S
C484 C488 1.350 . S
C485 C488 1.463 . S
C485 C490 1.350 . S
C485 N493 1.427 . S
C486 H477 0.930 . S
C486 C484 1.378 . S
C486 C487 1.367 . S
C487 C486 1.367 . S
C487 C489 1.433 . S
C488 C484 1.350 . S
C488 C485 1.463 . S
C488 N492 1.427 . S
C489 H479 0.929 . S
C489 C487 1.433 . S
C489 N492 1.384 . S
C490 H481 0.929 . S
C490 C482 1.378 . S
C490 C485 1.350 . S
C491 H478 0.929 . S
C491 C483 1.433 . S
C491 N493 1.384 . S
N492 C488 1.427 . S
N492 C489 1.384 . S
N493 C485 1.427 . S
N493 C491 1.384 . S
H494 C500 0.930 . S
H495 C504 0.930 . S
H496 C509 0.929 . S
H497 C507 0.929 . S
H498 C502 0.929 . S
H499 C508 0.929 . S
C500 H494 0.930 . S
C500 C501 1.367 . S
C500 C508 1.378 . S
C501 C500 1.367 . S
C501 C509 1.433 . S
C502 H498 0.929 . S
C502 C504 1.378 . S
C502 C506 1.350 . S
C503 C506 1.463 . S
C503 C508 1.350 . S
C503 N511 1.427 . S
C504 H495 0.930 . S
C504 C502 1.378 . S
C504 C505 1.367 . S
C505 C504 1.367 . S
C505 C507 1.433 . S
C506 C502 1.350 . S
C506 C503 1.463 . S
C506 N510 1.427 . S
C507 H497 0.929 . S
C507 C505 1.433 . S
C507 N510 1.384 . S
C508 H499 0.929 . S
C508 C500 1.378 . S
C508 C503 1.350 . S
C509 H496 0.929 . S
C509 C501 1.433 . S
C509 N511 1.384 . S
N510 C506 1.427 . S
N510 C507 1.384 . S
N511 C503 1.427 . S
N511 C509 1.384 . S
H512 C518 0.930 . S
H513 C522 0.930 . S
H514 C527 0.929 . S
H515 C525 0.929 . S
H516 C520 0.929 . S
H517 C526 0.929 . S
C518 H512 0.930 . S
C518 C519 1.367 . S
C518 C526 1.378 . S
C519 C518 1.367 . S
C519 C527 1.433 . S
C520 H516 0.929 . S
C520 C522 1.378 . S
C520 C524 1.350 . S
C521 C524 1.463 . S
C521 C526 1.350 . S
C521 N529 1.427 . S
C522 H513 0.930 . S
C522 C520 1.378 . S
C522 C523 1.367 . S
C523 C522 1.367 . S
C523 C525 1.433 . S
C524 C520 1.350 . S
C524 C521 1.463 . S
C524 N528 1.427 . S
C525 H515 0.929 . S
C525 C523 1.433 . S
C525 N528 1.384 . S
C526 H517 0.929 . S
C526 C518 1.378 . S
C526 C521 1.350 . S
C527 H514 0.929 . S
C527 C519 1.433 . S
C527 N529 1.384 . S
N528 C524 1.427 . S
N528 C525 1.384 . S
N529 C521 1.427 . S
N529 C527 1.384 . S
H530 C536 0.930 . S
H531 C540 0.930 . S
H532 C545 0.929 . S
H533 C543 0.929 . S
H534 C538 0.929 . S
H535 C544 0.929 . S
C536 H530 0.930 . S
C536 C537 1.367 . S
C536 C544 1.378 . S
C537 C536 1.367 . S
C537 C545 1.433 1_545 S
C538 H534 0.929 . S
C538 C540 1.378 . S
C538 C542 1.350 . S
C539 C542 1.463 . S
C539 C544 1.350 1_565 S
C539 N547 1.427 . S
C540 H531 0.930 . S
C540 C538 1.378 . S
C540 C541 1.367 . S
C541 C540 1.367 . S
C541 C543 1.433 1_565 S
C542 C538 1.350 . S
C542 C539 1.463 . S
C542 N546 1.427 1_565 S
C543 H533 0.929 . S
C543 C541 1.433 1_545 S
C543 N546 1.384 . S
C544 H535 0.929 . S
C544 C536 1.378 . S
C544 C539 1.350 1_545 S
C545 H532 0.929 . S
C545 C537 1.433 1_565 S
C545 N547 1.384 . S
N546 C542 1.427 1_545 S
N546 C543 1.384 . S
N547 C539 1.427 . S
N547 C545 1.384 . S
H548 C554 0.930 . S
H549 C558 0.930 . S
H550 C563 0.929 . S
H551 C561 0.929 . S
H552 C556 0.929 . S
H553 C562 0.929 . S
C554 H548 0.930 . S
C554 C555 1.367 . S
C554 C562 1.378 . S
C555 C554 1.367 . S
C555 C563 1.433 . S
C556 H552 0.929 . S
C556 C558 1.378 . S
C556 C560 1.350 . S
C557 C560 1.463 . S
C557 C562 1.350 . S
C557 N565 1.427 . S
C558 H549 0.930 . S
C558 C556 1.378 . S
C558 C559 1.367 . S
C559 C558 1.367 . S
C559 C561 1.433 . S
C560 C556 1.350 . S
C560 C557 1.463 . S
C560 N564 1.427 . S
C561 H551 0.929 . S
C561 C559 1.433 . S
C561 N564 1.384 . S
C562 H553 0.929 . S
C562 C554 1.378 . S
C562 C557 1.350 . S
C563 H550 0.929 . S
C563 C555 1.433 . S
C563 N565 1.384 . S
N564 C560 1.427 . S
N564 C561 1.384 . S
N565 C557 1.427 . S
N565 C563 1.384 . S
H566 C572 0.930 . S
H567 C576 0.930 . S
H568 C581 0.929 . S
H569 C579 0.929 . S
H570 C574 0.929 . S
H571 C580 0.929 . S
C572 H566 0.930 . S
C572 C573 1.367 . S
C572 C580 1.378 . S
C573 C572 1.367 . S
C573 C581 1.433 . S
C574 H570 0.929 . S
C574 C576 1.378 . S
C574 C578 1.350 . S
C575 C578 1.463 . S
C575 C580 1.350 . S
C575 N583 1.427 . S
C576 H567 0.930 . S
C576 C574 1.378 . S
C576 C577 1.367 . S
C577 C576 1.367 . S
C577 C579 1.433 . S
C578 C574 1.350 . S
C578 C575 1.463 . S
C578 N582 1.427 . S
C579 H569 0.929 . S
C579 C577 1.433 . S
C579 N582 1.384 . S
C580 H571 0.929 . S
C580 C572 1.378 . S
C580 C575 1.350 . S
C581 H568 0.929 . S
C581 C573 1.433 . S
C581 N583 1.384 . S
N582 C578 1.427 . S
N582 C579 1.384 . S
N583 C575 1.427 . S
N583 C581 1.384 . S
H584 C590 0.930 . S
H585 C594 0.930 . S
H586 C599 0.929 . S
H587 C597 0.929 1_455 S
H588 C592 0.929 . S
H589 C598 0.929 . S
C590 H584 0.930 . S
C590 C591 1.367 . S
C590 C598 1.378 . S
C591 C590 1.367 . S
C591 C599 1.433 . S
C592 H588 0.929 . S
C592 C594 1.378 . S
C592 C596 1.350 . S
C593 C596 1.463 . S
C593 C598 1.350 . S
C593 N601 1.427 . S
C594 H585 0.930 . S
C594 C592 1.378 . S
C594 C595 1.379 . S
C595 C594 1.379 . S
C595 C597 1.437 . S
C596 C592 1.350 . S
C596 C593 1.463 . S
C596 N600 1.427 . S
C597 H587 0.929 1_655 S
C597 C595 1.437 . S
C597 N600 1.384 . S
C598 H589 0.929 . S
C598 C590 1.378 . S
C598 C593 1.350 . S
C599 H586 0.929 . S
C599 C591 1.433 . S
C599 N601 1.384 . S
N600 C596 1.427 . S
N600 C597 1.384 . S
N601 C593 1.427 . S
N601 C599 1.384 . S
H602 C608 0.930 . S
H603 C612 0.930 . S
H604 C617 0.929 . S
H605 C615 0.929 . S
H606 C610 0.929 . S
H607 C616 0.929 . S
C608 H602 0.930 . S
C608 C609 1.367 . S
C608 C616 1.378 . S
C609 C608 1.367 . S
C609 C617 1.433 1_565 S
C610 H606 0.929 . S
C610 C612 1.378 . S
C610 C614 1.350 . S
C611 C614 1.463 . S
C611 C616 1.350 1_545 S
C611 N619 1.427 . S
C612 H603 0.930 . S
C612 C610 1.378 . S
C612 C613 1.367 . S
C613 C612 1.367 . S
C613 C615 1.433 1_545 S
C614 C610 1.350 . S
C614 C611 1.463 . S
C614 N618 1.427 1_545 S
C615 H605 0.929 . S
C615 C613 1.433 1_565 S
C615 N618 1.384 . S
C616 H607 0.929 . S
C616 C608 1.378 . S
C616 C611 1.350 1_565 S
C617 H604 0.929 . S
C617 C609 1.433 1_545 S
C617 N619 1.384 . S
N618 C614 1.427 1_565 S
N618 C615 1.384 . S
N619 C611 1.427 . S
N619 C617 1.384 . S
H620 C626 0.930 . S
H621 C630 0.930 . S
H622 C635 0.929 . S
H623 C633 0.929 . S
H624 C628 0.929 . S
H625 C634 0.929 . S
C626 H620 0.930 . S
C626 C627 1.367 . S
C626 C634 1.378 . S
C627 C626 1.367 . S
C627 C635 1.433 . S
C628 H624 0.929 . S
C628 C630 1.378 . S
C628 C632 1.350 . S
C629 C632 1.463 . S
C629 C634 1.350 . S
C629 N637 1.427 . S
C630 H621 0.930 . S
C630 C628 1.378 . S
C630 C631 1.367 . S
C631 C630 1.367 . S
C631 C633 1.433 . S
C632 C628 1.350 . S
C632 C629 1.463 . S
C632 N636 1.427 . S
C633 H623 0.929 . S
C633 C631 1.433 . S
C633 N636 1.384 . S
C634 H625 0.929 . S
C634 C626 1.378 . S
C634 C629 1.350 . S
C635 H622 0.929 . S
C635 C627 1.433 . S
C635 N637 1.384 . S
N636 C632 1.427 . S
N636 C633 1.384 . S
N637 C629 1.427 . S
N637 C635 1.384 . S
H638 C644 0.930 . S
H639 C648 0.930 . S
H640 C653 0.929 . S
H641 C651 0.929 . S
H642 C646 0.929 . S
H643 C652 0.929 . S
C644 H638 0.930 . S
C644 C645 1.367 . S
C644 C652 1.378 . S
C645 C644 1.367 . S
C645 C653 1.433 . S
C646 H642 0.929 . S
C646 C648 1.378 . S
C646 C650 1.350 . S
C647 C650 1.463 . S
C647 C652 1.350 . S
C647 N655 1.427 . S
C648 H639 0.930 . S
C648 C646 1.378 . S
C648 C649 1.367 . S
C649 C648 1.367 . S
C649 C651 1.433 . S
C650 C646 1.350 . S
C650 C647 1.463 . S
C650 N654 1.427 . S
C651 H641 0.929 . S
C651 C649 1.433 . S
C651 N654 1.384 . S
C652 H643 0.929 . S
C652 C644 1.378 . S
C652 C647 1.350 . S
C653 H640 0.929 . S
C653 C645 1.433 . S
C653 N655 1.384 . S
N654 C650 1.427 . S
N654 C651 1.384 . S
N655 C647 1.427 . S
N655 C653 1.384 . S
H656 C662 0.930 . S
H657 C666 0.930 . S
H658 C671 0.929 . S
H659 C669 0.929 . S
H660 C664 0.929 . S
H661 C670 0.929 . S
C662 H656 0.930 . S
C662 C663 1.367 . S
C662 C670 1.378 . S
C663 C662 1.367 . S
C663 C671 1.433 . S
C664 H660 0.929 . S
C664 C666 1.378 . S
C664 C668 1.350 . S
C665 C668 1.463 . S
C665 C670 1.350 . S
C665 N673 1.427 . S
C666 H657 0.930 . S
C666 C664 1.378 . S
C666 C667 1.367 . S
C667 C666 1.367 . S
C667 C669 1.433 . S
C668 C664 1.350 . S
C668 C665 1.463 . S
C668 N672 1.427 . S
C669 H659 0.929 . S
C669 C667 1.433 . S
C669 N672 1.384 . S
C670 H661 0.929 . S
C670 C662 1.378 . S
C670 C665 1.350 . S
C671 H658 0.929 . S
C671 C663 1.433 . S
C671 N673 1.384 . S
N672 C668 1.427 . S
N672 C669 1.384 . S
N673 C665 1.427 . S
N673 C671 1.384 . S
H674 C680 0.930 . S
H675 C684 0.930 . S
H676 C689 0.929 . S
H677 C687 0.929 . S
H678 C682 0.929 . S
H679 C688 0.929 . S
C680 H674 0.930 . S
C680 C681 1.359 1_565 S
C680 C688 1.378 . S
C681 C680 1.359 1_545 S
C681 C689 1.441 . S
C682 H678 0.929 . S
C682 C684 1.378 . S
C682 C686 1.350 . S
C683 C686 1.463 . S
C683 C688 1.350 1_545 S
C683 N691 1.427 . S
C684 H675 0.930 . S
C684 C682 1.378 . S
C684 C685 1.367 . S
C685 C684 1.367 . S
C685 C687 1.433 1_545 S
C686 C682 1.350 . S
C686 C683 1.463 . S
C686 N690 1.427 1_545 S
C687 H677 0.929 . S
C687 C685 1.433 1_565 S
C687 N690 1.384 . S
C688 H679 0.929 . S
C688 C680 1.378 . S
C688 C683 1.350 1_565 S
C689 H676 0.929 . S
C689 C681 1.441 . S
C689 N691 1.384 . S
N690 C686 1.427 1_565 S
N690 C687 1.384 . S
N691 C683 1.427 . S
N691 C689 1.384 . S
H692 C698 0.930 . S
H693 C702 0.930 . S
H694 C707 0.929 . S
H695 C705 0.929 . S
H696 C700 0.929 . S
H697 C706 0.929 . S
C698 H692 0.930 . S
C698 C699 1.367 . S
C698 C706 1.378 . S
C699 C698 1.367 . S
C699 C707 1.433 . S
C700 H696 0.929 . S
C700 C702 1.378 . S
C700 C704 1.350 . S
C701 C704 1.463 . S
C701 C706 1.350 . S
C701 N709 1.427 . S
C702 H693 0.930 . S
C702 C700 1.378 . S
C702 C703 1.367 . S
C703 C702 1.367 . S
C703 C705 1.433 . S
C704 C700 1.350 . S
C704 C701 1.463 . S
C704 N708 1.427 . S
C705 H695 0.929 . S
C705 C703 1.433 . S
C705 N708 1.384 . S
C706 H697 0.929 . S
C706 C698 1.378 . S
C706 C701 1.350 . S
C707 H694 0.929 . S
C707 C699 1.433 . S
C707 N709 1.384 . S
N708 C704 1.427 . S
N708 C705 1.384 . S
N709 C701 1.427 . S
N709 C707 1.384 . S
H710 C716 0.930 . S
H711 C720 0.930 . S
H712 C725 0.929 . S
H713 C723 0.929 . S
H714 C718 0.929 . S
H715 C724 0.929 . S
C716 H710 0.930 . S
C716 C717 1.367 . S
C716 C724 1.378 . S
C717 C716 1.367 . S
C717 C725 1.433 . S
C718 H714 0.929 . S
C718 C720 1.378 . S
C718 C722 1.350 . S
C719 C722 1.463 . S
C719 C724 1.350 . S
C719 N727 1.427 . S
C720 H711 0.930 . S
C720 C718 1.378 . S
C720 C721 1.367 . S
C721 C720 1.367 . S
C721 C723 1.433 . S
C722 C718 1.350 . S
C722 C719 1.463 . S
C722 N726 1.427 . S
C723 H713 0.929 . S
C723 C721 1.433 . S
C723 N726 1.384 . S
C724 H715 0.929 . S
C724 C716 1.378 . S
C724 C719 1.350 . S
C725 H712 0.929 . S
C725 C717 1.433 . S
C725 N727 1.384 . S
N726 C722 1.427 . S
N726 C723 1.384 . S
N727 C719 1.427 . S
N727 C725 1.384 . S
H728 C734 0.930 . S
H729 C738 0.930 . S
H730 C743 0.929 . S
H731 C741 0.929 . S
H732 C736 0.929 . S
H733 C742 0.929 . S
C734 H728 0.930 . S
C734 C735 1.367 . S
C734 C742 1.378 . S
C735 C734 1.367 . S
C735 C743 1.433 . S
C736 H732 0.929 . S
C736 C738 1.378 . S
C736 C740 1.350 . S
C737 C740 1.463 . S
C737 C742 1.350 . S
C737 N745 1.427 . S
C738 H729 0.930 . S
C738 C736 1.378 . S
C738 C739 1.367 . S
C739 C738 1.367 . S
C739 C741 1.433 . S
C740 C736 1.350 . S
C740 C737 1.463 . S
C740 N744 1.427 . S
C741 H731 0.929 . S
C741 C739 1.433 . S
C741 N744 1.384 . S
C742 H733 0.929 . S
C742 C734 1.378 . S
C742 C737 1.350 . S
C743 H730 0.929 . S
C743 C735 1.433 . S
C743 N745 1.384 . S
N744 C740 1.427 . S
N744 C741 1.384 . S
N745 C737 1.427 . S
N745 C743 1.384 . S
H746 C752 0.930 . S
H747 C756 0.930 . S
H748 C761 0.929 . S
H749 C759 0.929 . S
H750 C754 0.929 . S
H751 C760 0.929 . S
C752 H746 0.930 . S
C752 C753 1.364 1_545 S
C752 C760 1.378 . S
C753 C752 1.364 1_565 S
C753 C761 1.436 . S
C754 H750 0.929 . S
C754 C756 1.378 . S
C754 C758 1.350 . S
C755 C758 1.463 . S
C755 C760 1.350 1_565 S
C755 N763 1.427 . S
C756 H747 0.930 . S
C756 C754 1.378 . S
C756 C757 1.367 . S
C757 C756 1.367 . S
C757 C759 1.433 1_565 S
C758 C754 1.350 . S
C758 C755 1.463 . S
C758 N762 1.427 1_565 S
C759 H749 0.929 . S
C759 C757 1.433 1_545 S
C759 N762 1.384 . S
C760 H751 0.929 . S
C760 C752 1.378 . S
C760 C755 1.350 1_545 S
C761 H748 0.929 . S
C761 C753 1.436 . S
C761 N763 1.384 . S
N762 C758 1.427 1_545 S
N762 C759 1.384 . S
N763 C755 1.427 . S
N763 C761 1.384 . S
H764 C770 0.930 . S
H765 C774 0.930 . S
H766 C779 0.929 . S
H767 C777 0.929 . S
H768 C772 0.929 . S
H769 C778 0.929 . S
C770 H764 0.930 . S
C770 C771 1.367 . S
C770 C778 1.378 . S
C771 C770 1.367 . S
C771 C779 1.433 . S
C772 H768 0.929 . S
C772 C774 1.378 . S
C772 C776 1.350 . S
C773 C776 1.463 . S
C773 C778 1.350 . S
C773 N781 1.427 . S
C774 H765 0.930 . S
C774 C772 1.378 . S
C774 C775 1.367 . S
C775 C774 1.367 . S
C775 C777 1.433 . S
C776 C772 1.350 . S
C776 C773 1.463 . S
C776 N780 1.427 . S
C777 H767 0.929 . S
C777 C775 1.433 . S
C777 N780 1.384 . S
C778 H769 0.929 . S
C778 C770 1.378 . S
C778 C773 1.350 . S
C779 H766 0.929 . S
C779 C771 1.433 . S
C779 N781 1.384 . S
N780 C776 1.427 . S
N780 C777 1.384 . S
N781 C773 1.427 . S
N781 C779 1.384 . S
H782 C788 0.930 . S
H783 C792 0.930 . S
H784 C797 0.929 . S
H785 C795 0.929 . S
H786 C790 0.929 . S
H787 C796 0.929 . S
C788 H782 0.930 . S
C788 C789 1.367 . S
C788 C796 1.378 . S
C789 C788 1.367 . S
C789 C797 1.433 . S
C790 H786 0.929 . S
C790 C792 1.378 . S
C790 C794 1.350 . S
C791 C794 1.463 . S
C791 C796 1.350 . S
C791 N799 1.427 . S
C792 H783 0.930 . S
C792 C790 1.378 . S
C792 C793 1.367 . S
C793 C792 1.367 . S
C793 C795 1.433 . S
C794 C790 1.350 . S
C794 C791 1.463 . S
C794 N798 1.427 . S
C795 H785 0.929 . S
C795 C793 1.433 . S
C795 N798 1.384 . S
C796 H787 0.929 . S
C796 C788 1.378 . S
C796 C791 1.350 . S
C797 H784 0.929 . S
C797 C789 1.433 . S
C797 N799 1.384 . S
N798 C794 1.427 . S
N798 C795 1.384 . S
N799 C791 1.427 . S
N799 C797 1.384 . S
C375 C241 1.672 1_565 S
C379 C296 1.782 . S
C397 C326 2.398 . S
C393 C277 2.259 . S
C415 C336 1.867 . S
C411 C169 1.733 . S
C433 C356 1.773 . S
C429 C205 1.655 . S
C451 C297 1.785 . S
C447 C97 1.677 . S
C465 C133 2.334 1_556 S
C469 C327 2.401 . S
C483 C25 1.780 . S
C487 C337 1.873 . S
C501 C61 1.585 . S
C505 C357 1.773 . S
C523 C289 0.798 . S
C519 C211 0.804 . S
C541 C310 0.325 . S
C537 C247 0.435 . S
C559 C329 1.092 . S
C555 C253 1.023 . S
C573 C175 0.619 . S
C577 C349 0.549 . S
C591 C67 0.799 . S
C595 C290 0.799 1_655 S
C613 C309 0.308 . S
C609 C103 0.456 1_565 S
C631 C330 1.085 . S
C627 C109 1.064 . S
C645 C31 0.567 . S
C649 C350 0.559 . S
C663 C181 2.296 . S
C667 C307 2.474 . S
C681 C217 1.808 . S
C685 C317 2.003 . S
C703 C347 2.677 . S
C699 C283 2.346 . S
C721 C367 2.542 . S
C717 C145 2.339 . S
C735 C37 2.259 . S
C739 C306 2.482 . S
C757 C316 2.004 . S
C753 C73 1.812 1_565 S
C775 C346 2.677 . S
C771 C139 2.411 . S
C789 C1 2.372 . S
C793 C366 2.536 . S
