# Generated by pormake.
# Topology pth, (4,4)-cn, num edge types: 1
# Building blocks:
#     Node 0, Type 0, BuildingBlock: UXUYUI_clean_sbu_0, # of connection points: 4
#     Node 1, Type 0, BuildingBlock: UXUYUI_clean_sbu_0, # of connection points: 4
#     Node 2, Type 0, BuildingBlock: UXUYUI_clean_sbu_0, # of connection points: 4
#     Node 3, Type 1, BuildingBlock: NAWXER_clean_linker_0, # of connection points: 4
#     Node 4, Type 1, BuildingBlock: NAWXER_clean_linker_0, # of connection points: 4
#     Node 5, Type 1, BuildingBlock: NAWXER_clean_linker_0, # of connection points: 4
#     Edge 6, Type (0, 1), BuildingBlock: CIFDUS_clean_linker_0, # of connection points: 2
#     Edge 7, Type (0, 1), BuildingBlock: CIFDUS_clean_linker_0, # of connection points: 2
#     Edge 8, Type (0, 1), BuildingBlock: CIFDUS_clean_linker_0, # of connection points: 2
#     Edge 9, Type (0, 1), BuildingBlock: CIFDUS_clean_linker_0, # of connection points: 2
#     Edge 10, Type (0, 1), BuildingBlock: CIFDUS_clean_linker_0, # of connection points: 2
#     Edge 11, Type (0, 1), BuildingBlock: CIFDUS_clean_linker_0, # of connection points: 2
#     Edge 12, Type (0, 1), BuildingBlock: CIFDUS_clean_linker_0, # of connection points: 2
#     Edge 13, Type (0, 1), BuildingBlock: CIFDUS_clean_linker_0, # of connection points: 2
#     Edge 14, Type (0, 1), BuildingBlock: CIFDUS_clean_linker_0, # of connection points: 2
#     Edge 15, Type (0, 1), BuildingBlock: CIFDUS_clean_linker_0, # of connection points: 2
#     Edge 16, Type (0, 1), BuildingBlock: CIFDUS_clean_linker_0, # of connection points: 2
#     Edge 17, Type (0, 1), BuildingBlock: CIFDUS_clean_linker_0, # of connection points: 2
# Relax obj value: 0.074
# Max RMSD: 0.209
# Mean RMSD: 0.112
data_MOF--net-pth--node1-UXUYUI_clean_sbu_0--node2-NAWXER_clean_linker_0--edge1-CIFDUS_clean_linker_0
_symmetry_space_group_name_H-M    P1
_symmetry_Int_Tables_number       1
_symmetry_cell_setting            triclinic
loop_
_symmetry_equiv_pos_as_xyz
'x, y, z'
_cell_length_a     31.483439
_cell_length_b     31.461434
_cell_length_c     71.16774
_cell_angle_alpha  89.986387
_cell_angle_beta   89.979161
_cell_angle_gamma 119.93792
loop_
_atom_site_label
_atom_site_type_symbol
_atom_site_fract_x
_atom_site_fract_y
_atom_site_fract_z
_atom_type_partial_charge
Li0 Li 0.04512 0.02673 0.04043 0.0
Li1 Li 0.99555 0.03519 0.06452 0.0
Li2 Li 0.01583 0.96868 0.0669 0.0
Li3 Li 0.95772 0.96507 0.04352 0.0
C4 C 0.09662 0.08901 0.0709 0.0
N5 N 0.16646 0.18564 0.07764 0.0
C6 C 0.10116 0.12601 0.05878 0.0
C7 C 0.12766 0.10114 0.08643 0.0
C8 C 0.13666 0.17463 0.06243 0.0
C9 C 0.16273 0.15021 0.08961 0.0
C10 C 0.96566 0.06148 0.03165 0.0
C11 C 0.89508 0.07237 0.03097 0.0
N12 N 0.92194 0.11566 0.02176 0.0
C13 C 0.99244 0.10585 0.022 0.0
C14 C 0.9165 0.0444 0.03603 0.0
C15 C 0.96973 0.13279 0.01719 0.0
C16 C 0.07928 0.06635 0.00511 0.0
N17 N 0.09494 0.06066 0.02221 0.0
C18 C 0.17854 0.10986 0.01278 0.0
C19 C 0.14344 0.08088 0.02617 0.0
C20 C 0.16344 0.11815 0.99521 0.0
C21 C 0.11299 0.09521 0.99138 0.0
H22 H 0.04041 0.04968 0.00237 0.0
H23 H 0.15488 0.07561 0.03989 0.0
C24 C 0.97104 0.06902 0.09719 0.0
N25 N 0.98746 0.08156 0.07925 0.0
C26 C 0.96721 0.10259 0.10893 0.0
C27 C 0.99763 0.16147 0.08356 0.0
C28 C 0.00077 0.12682 0.07235 0.0
C29 C 0.98079 0.14966 0.10215 0.0
H30 H 0.96136 0.03303 0.10244 0.0
H31 H 0.01507 0.13671 0.05829 0.0
C32 C 0.04791 0.94096 0.03507 0.0
N33 N 0.11661 0.91457 0.02542 0.0
C34 C 0.03766 0.90637 0.02093 0.0
C35 C 0.09303 0.96207 0.04435 0.0
C36 C 0.07289 0.89352 0.01625 0.0
C37 C 0.12729 0.94827 0.03925 0.0
C38 C 0.90435 0.93673 0.07628 0.0
C39 C 0.88589 0.8871 0.08033 0.0
C40 C 0.87359 0.95674 0.07772 0.0
C41 C 0.83655 0.85796 0.0852 0.0
C42 C 0.82448 0.92643 0.08266 0.0
N43 N 0.8071 0.87805 0.08623 0.0
C44 C 0.05406 0.94472 0.09907 0.0
C45 C 0.00421 0.8792 0.07852 0.0
C46 C 0.05797 0.91228 0.11144 0.0
N47 N 0.0271 0.92755 0.0831 0.0
C48 C 0.0067 0.84551 0.09054 0.0
C49 C 0.03333 0.86185 0.10736 0.0
H50 H 0.0715 0.98335 0.1024 0.0
H51 H 0.98299 0.8667 0.06571 0.0
C52 C 0.88446 0.93028 0.01456 0.0
N53 N 0.90326 0.91799 0.02944 0.0
C54 C 0.85032 0.8938 0.00268 0.0
C55 C 0.8554 0.83295 0.02178 0.0
C56 C 0.88937 0.87048 0.03321 0.0
C57 C 0.83619 0.84444 0.00602 0.0
H58 H 0.89771 0.96839 0.01129 0.0
H59 H 0.90648 0.86191 0.04463 0.0
O60 O 0.0621 0.04109 0.06763 0.0
O61 O 0.9875 0.03488 0.03665 0.0
O62 O 0.01368 0.95376 0.03978 0.0
O63 O 0.95264 0.96586 0.07153 0.0
H64 H 0.0775 0.11732 0.0467 0.0
H65 H 0.12471 0.07295 0.09594 0.0
H66 H 0.14049 0.2036 0.05316 0.0
H67 H 0.18698 0.16013 0.10159 0.0
H68 H 0.85706 0.05956 0.03431 0.0
H69 H 0.03052 0.11966 0.01844 0.0
H70 H 0.89493 0.0096 0.04303 0.0
H71 H 0.99012 0.16735 0.00985 0.0
H72 H 0.21702 0.12613 0.01626 0.0
H73 H 0.09952 0.10094 0.97817 0.0
H74 H 0.95371 0.09176 0.12313 0.0
H75 H 0.00951 0.19761 0.07785 0.0
H76 H 0.00282 0.88964 0.01366 0.0
H77 H 0.10156 0.98878 0.05537 0.0
H78 H 0.06548 0.8668 0.00532 0.0
H79 H 0.16238 0.96434 0.0463 0.0
H80 H 0.90933 0.87115 0.07966 0.0
H81 H 0.88751 0.99536 0.07521 0.0
H82 H 0.82171 0.81939 0.08821 0.0
H83 H 0.80023 0.94142 0.08373 0.0
H84 H 0.0786 0.92621 0.12434 0.0
H85 H 0.98768 0.80701 0.08679 0.0
H86 H 0.83715 0.90436 0.99049 0.0
H87 H 0.84535 0.79541 0.02494 0.0
Li88 Li 0.98211 0.95336 0.37532 0.0
Li89 Li 0.04143 0.0062 0.39876 0.0
Li90 Li 0.95463 0.98344 0.40109 0.0
Li91 Li 0.00795 0.04084 0.37694 0.0
C92 C 0.95988 0.91005 0.41702 0.0
N93 N 0.91086 0.85128 0.44745 0.0
C94 C 0.98467 0.91525 0.43391 0.0
C95 C 0.9102 0.87483 0.41559 0.0
C96 C 0.95923 0.88518 0.44913 0.0
C97 C 0.88605 0.84555 0.43114 0.0
C98 C 0.09497 0.02086 0.36825 0.0
C99 C 0.18202 0.07763 0.36856 0.0
N100 N 0.19032 0.04022 0.36434 0.0
C101 C 0.10433 0.98302 0.36382 0.0
C102 C 0.13407 0.0686 0.37055 0.0
C103 C 0.1528 0.99355 0.36193 0.0
C104 C 0.98514 0.91009 0.34098 0.0
N105 N 0.96784 0.90012 0.35888 0.0
C106 C 0.94155 0.81518 0.3548 0.0
C107 C 0.94564 0.85373 0.36583 0.0
C108 C 0.96107 0.82458 0.33651 0.0
C109 C 0.9821 0.87268 0.32948 0.0
H110 H 0.00336 0.94752 0.33593 0.0
H111 H 0.93273 0.84686 0.38016 0.0
C112 C 0.12092 0.05277 0.42482 0.0
N113 N 0.09659 0.01476 0.4127 0.0
C114 C 0.15908 0.05565 0.43582 0.0
C115 C 0.14668 0.98072 0.42139 0.0
C116 C 0.10851 0.97898 0.41088 0.0
C117 C 0.17224 0.01919 0.43417 0.0
H118 H 0.11007 0.08024 0.42623 0.0
H119 H 0.0875 0.94842 0.40154 0.0
C120 C 0.91205 0.95966 0.35925 0.0
N121 N 0.85719 0.90744 0.32857 0.0
C122 C 0.92583 0.9792 0.34119 0.0
C123 C 0.8703 0.91371 0.36175 0.0
C124 C 0.8976 0.95219 0.32584 0.0
C125 C 0.84308 0.88783 0.34604 0.0
C126 C 0.02396 0.09531 0.4078 0.0
C127 C 0.98729 0.10431 0.41432 0.0
C128 C 0.07064 0.13469 0.40393 0.0
C129 C 0.99781 0.15272 0.4166 0.0
C130 C 0.07968 0.18256 0.40637 0.0
N131 N 0.04337 0.19051 0.41258 0.0
C132 C 0.91012 0.97195 0.43678 0.0
C133 C 0.86155 0.96883 0.41078 0.0
C134 C 0.87402 0.96761 0.4493 0.0
N135 N 0.90309 0.97207 0.41793 0.0
C136 C 0.82499 0.96561 0.4228 0.0
C137 C 0.83121 0.96509 0.4423 0.0
H138 H 0.94426 0.97642 0.44211 0.0
H139 H 0.85745 0.97018 0.39574 0.0
C140 C 0.05242 0.11664 0.34916 0.0
N141 N 0.01749 0.0962 0.36273 0.0
C142 C 0.05616 0.15539 0.33826 0.0
C143 C 0.98842 0.15153 0.35572 0.0
C144 C 0.98541 0.1124 0.36599 0.0
C145 C 0.02391 0.1733 0.34156 0.0
H146 H 0.07672 0.10227 0.34656 0.0
H147 H 0.95692 0.09432 0.37642 0.0
O148 O 0.98406 0.93933 0.40199 0.0
O149 O 0.04781 0.01118 0.37046 0.0
O150 O 0.93993 0.98488 0.37439 0.0
O151 O 0.0142 0.04821 0.40521 0.0
H152 H 0.02302 0.94242 0.43534 0.0
H153 H 0.89033 0.87064 0.40269 0.0
H154 H 0.97791 0.88891 0.46231 0.0
H155 H 0.84755 0.81837 0.43026 0.0
H156 H 0.21264 0.11437 0.37038 0.0
H157 H 0.07455 0.94578 0.36213 0.0
H158 H 0.12747 0.09832 0.3739 0.0
H159 H 0.16059 0.96457 0.35862 0.0
H160 H 0.92435 0.7786 0.36072 0.0
H161 H 0.9982 0.88183 0.31558 0.0
H162 H 0.17799 0.0859 0.44554 0.0
H163 H 0.15508 0.95142 0.41995 0.0
H164 H 0.95824 0.0146 0.33902 0.0
H165 H 0.85928 0.89807 0.37565 0.0
H166 H 0.90792 0.96673 0.31176 0.0
H167 H 0.81079 0.85212 0.34774 0.0
H168 H 0.95097 0.07431 0.41741 0.0
H169 H 0.09949 0.12835 0.39899 0.0
H170 H 0.96971 0.16024 0.42152 0.0
H171 H 0.11556 0.21338 0.40331 0.0
H172 H 0.88025 0.96808 0.46429 0.0
H173 H 0.79243 0.96397 0.41697 0.0
H174 H 0.08386 0.17119 0.32739 0.0
H175 H 0.96232 0.16372 0.35843 0.0
Li176 Li 0.02936 0.99035 0.70786 0.0
Li177 Li 0.0326 0.04598 0.73225 0.0
Li178 Li 0.96297 0.95848 0.73088 0.0
Li179 Li 0.9674 0.01879 0.70802 0.0
C180 C 0.06434 0.96499 0.73801 0.0
N181 N 0.12643 0.92735 0.74254 0.0
C182 C 0.11401 0.99628 0.74185 0.0
C183 C 0.04609 0.91447 0.73684 0.0
C184 C 0.14487 0.97659 0.74399 0.0
C185 C 0.07809 0.89616 0.73908 0.0
C186 C 0.06666 0.10693 0.70037 0.0
C187 C 0.07279 0.18611 0.6969 0.0
N188 N 0.12042 0.20562 0.69159 0.0
C189 C 0.11545 0.12764 0.69457 0.0
C190 C 0.04498 0.13629 0.70129 0.0
C191 C 0.1421 0.17763 0.69032 0.0
C192 C 0.05254 0.94495 0.67785 0.0
N193 N 0.07095 0.97825 0.69204 0.0
C194 C 0.1529 0.0047 0.68206 0.0
C195 C 0.12003 0.00761 0.6944 0.0
C196 C 0.13514 0.97125 0.66705 0.0
C197 C 0.08415 0.94062 0.66518 0.0
H198 H 0.01335 0.92275 0.67601 0.0
H199 H 0.13367 0.03459 0.70551 0.0
C200 C 0.05889 0.10255 0.76562 0.0
N201 N 0.07599 0.09666 0.74884 0.0
C202 C 0.09082 0.13721 0.77853 0.0
C203 C 0.1576 0.1582 0.75688 0.0
C204 C 0.12431 0.1235 0.74432 0.0
C205 C 0.14097 0.16526 0.77428 0.0
H206 H 0.0206 0.07962 0.76915 0.0
H207 H 0.13728 0.11696 0.7312 0.0
C208 C 0.9227 0.9052 0.69899 0.0
N209 N 0.85135 0.80966 0.69134 0.0
C210 C 0.87667 0.89494 0.69246 0.0
C211 C 0.93269 0.86695 0.7013 0.0
C212 C 0.84101 0.84638 0.68876 0.0
C213 C 0.89609 0.81888 0.69745 0.0
C214 C 0.9374 0.04338 0.74216 0.0
C215 C 0.88981 0.01656 0.74933 0.0
C216 C 0.96101 0.0946 0.74202 0.0
C217 C 0.86616 0.04137 0.75575 0.0
C218 C 0.93619 0.11809 0.74858 0.0
N219 N 0.88963 0.09121 0.75522 0.0
C220 C 0.92997 0.8888 0.76084 0.0
C221 C 0.86819 0.88837 0.74169 0.0
C222 C 0.89451 0.85422 0.77293 0.0
N223 N 0.9162 0.9053 0.74566 0.0
C224 C 0.83164 0.85391 0.75335 0.0
C225 C 0.84458 0.83705 0.76942 0.0
H226 H 0.96845 0.90387 0.76397 0.0
H227 H 0.85827 0.90326 0.72991 0.0
C228 C 0.94211 0.05593 0.67599 0.0
N229 N 0.92644 0.03349 0.69294 0.0
C230 C 0.9102 0.0627 0.66433 0.0
C231 C 0.84679 0.02298 0.6878 0.0
C232 C 0.87979 0.0169 0.69892 0.0
C233 C 0.86171 0.04586 0.67018 0.0
H234 H 0.97909 0.06774 0.67137 0.0
H235 H 0.86754 0.99711 0.71201 0.0
O236 O 0.03362 0.98366 0.73573 0.0
O237 O 0.03997 0.05792 0.70453 0.0
O238 O 0.95793 0.9525 0.70285 0.0
O239 O 0.96109 0.01956 0.73584 0.0
H240 H 0.12869 0.0354 0.74302 0.0
H241 H 0.00756 0.88958 0.73439 0.0
H242 H 0.18347 0.00045 0.7468 0.0
H243 H 0.06446 0.85714 0.73813 0.0
H244 H 0.05643 0.20922 0.69763 0.0
H245 H 0.13273 0.10548 0.69344 0.0
H246 H 0.0069 0.12075 0.70513 0.0
H247 H 0.18 0.19416 0.68597 0.0
H248 H 0.19174 0.02981 0.68387 0.0
H249 H 0.06879 0.91407 0.65391 0.0
H250 H 0.07669 0.14098 0.79193 0.0
H251 H 0.19598 0.17913 0.75306 0.0
H252 H 0.86842 0.92408 0.69037 0.0
H253 H 0.96842 0.87432 0.70589 0.0
H254 H 0.80512 0.8379 0.68384 0.0
H255 H 0.9033 0.78892 0.69926 0.0
H256 H 0.87113 0.97697 0.74984 0.0
H257 H 0.99841 0.1161 0.73722 0.0
H258 H 0.82918 0.021 0.76117 0.0
H259 H 0.95407 0.1577 0.7485 0.0
H260 H 0.90612 0.84271 0.78531 0.0
H261 H 0.79363 0.84138 0.75001 0.0
H262 H 0.92321 0.08058 0.65086 0.0
H263 H 0.80944 0.00827 0.69265 0.0
C264 C 0.97426 0.33773 0.2517 0.0
C265 C 0.01027 0.3533 0.26577 0.0
C266 C 0.96936 0.37198 0.2408 0.0
C267 C 0.00124 0.4225 0.24341 0.0
C268 C 0.04101 0.40382 0.26882 0.0
C269 C 0.0365 0.43807 0.25774 0.0
C270 C 0.99744 0.45941 0.23166 0.0
C271 C 0.0319 0.36908 0.19162 0.0
C272 C 0.99362 0.34199 0.17883 0.0
C273 C 0.03216 0.40632 0.20244 0.0
C274 C 0.99401 0.41697 0.20074 0.0
C275 C 0.95565 0.35306 0.17717 0.0
C276 C 0.9561 0.39041 0.1879 0.0
C277 C 0.9937 0.4565 0.21185 0.0
C278 C 0.02109 0.65451 0.19098 0.0
C279 C 0.98984 0.64089 0.17528 0.0
C280 C 0.02118 0.61882 0.20266 0.0
C281 C 0.98925 0.56871 0.19916 0.0
C282 C 0.95866 0.59066 0.17161 0.0
C283 C 0.95845 0.55504 0.18339 0.0
C284 C 0.98972 0.53027 0.21109 0.0
C285 C 0.94169 0.61253 0.24859 0.0
C286 C 0.97442 0.63841 0.26324 0.0
C287 C 0.94704 0.5779 0.23814 0.0
C288 C 0.98563 0.56888 0.24196 0.0
C289 C 0.01246 0.62859 0.26727 0.0
C290 C 0.01781 0.59396 0.25679 0.0
C291 C 0.99154 0.53221 0.23094 0.0
H292 H 0.94937 0.29902 0.24933 0.0
H293 H 0.9405 0.35889 0.23038 0.0
H294 H 0.06908 0.41684 0.27957 0.0
H295 H 0.06111 0.47682 0.26018 0.0
H296 H 0.06216 0.36214 0.19302 0.0
H297 H 0.06235 0.42709 0.21199 0.0
H298 H 0.92523 0.33254 0.16769 0.0
H299 H 0.92638 0.39815 0.18635 0.0
H300 H 0.04541 0.69277 0.19432 0.0
H301 H 0.04662 0.6305 0.21433 0.0
H302 H 0.93487 0.57873 0.15944 0.0
H303 H 0.93408 0.51667 0.18018 0.0
H304 H 0.91142 0.61847 0.24537 0.0
H305 H 0.92077 0.5579 0.22715 0.0
H306 H 0.03854 0.64816 0.27836 0.0
H307 H 0.04758 0.58729 0.26009 0.0
N308 N 0.99614 0.49717 0.24043 0.0
N309 N 0.99011 0.49206 0.20238 0.0
C310 C 0.65697 0.04583 0.51668 0.0
C311 C 0.64464 0.00393 0.50583 0.0
C312 C 0.62268 0.04657 0.52896 0.0
C313 C 0.57542 0.00564 0.53038 0.0
C314 C 0.59746 0.96288 0.5074 0.0
C315 C 0.5629 0.96399 0.51942 0.0
C316 C 0.53841 0.00664 0.5428 0.0
C317 C 0.64502 0.99125 0.5805 0.0
C318 C 0.6699 0.03052 0.59311 0.0
C319 C 0.60481 0.98612 0.57028 0.0
C320 C 0.58891 0.02037 0.57237 0.0
C321 C 0.65393 0.06482 0.59508 0.0
C322 C 0.61365 0.05958 0.5849 0.0
C323 C 0.54508 0.01435 0.56235 0.0
C324 C 0.34383 0.96476 0.58831 0.0
C325 C 0.35684 0.99659 0.6038 0.0
C326 C 0.37936 0.96942 0.57539 0.0
C327 C 0.42851 0.0065 0.57752 0.0
C328 C 0.40601 0.03368 0.60589 0.0
C329 C 0.44147 0.03843 0.59293 0.0
C330 C 0.46721 0.00965 0.56475 0.0
C331 C 0.37358 0.04458 0.52739 0.0
C332 C 0.35049 0.01177 0.51244 0.0
C333 C 0.40887 0.04155 0.5383 0.0
C334 C 0.42144 0.00532 0.53462 0.0
C335 C 0.36291 0.97532 0.50889 0.0
C336 C 0.39824 0.97236 0.51979 0.0
C337 C 0.46174 0.00445 0.54502 0.0
H338 H 0.69318 0.07787 0.5157 0.0
H339 H 0.63281 0.07926 0.53717 0.0
H340 H 0.58706 0.93034 0.49906 0.0
H341 H 0.52648 0.9322 0.52026 0.0
H342 H 0.65572 0.96363 0.57891 0.0
H343 H 0.58546 0.95474 0.56111 0.0
H344 H 0.67256 0.0958 0.60449 0.0
H345 H 0.60187 0.08631 0.58679 0.0
H346 H 0.30642 0.93532 0.58649 0.0
H347 H 0.36855 0.94315 0.56403 0.0
H348 H 0.41712 0.05911 0.61755 0.0
H349 H 0.47916 0.06706 0.59498 0.0
H350 H 0.36551 0.07361 0.5303 0.0
H351 H 0.42735 0.06848 0.54926 0.0
H352 H 0.34537 0.94907 0.49764 0.0
H353 H 0.40761 0.94436 0.51659 0.0
N354 N 0.49721 0.00231 0.53485 0.0
N355 N 0.50908 0.01522 0.57258 0.0
C356 C 0.38378 0.33043 0.85645 0.0
C357 C 0.35793 0.34241 0.84335 0.0
C358 C 0.41936 0.36664 0.86802 0.0
C359 C 0.42954 0.41538 0.86672 0.0
C360 C 0.36835 0.39128 0.8421 0.0
C361 C 0.40402 0.42741 0.85358 0.0
C362 C 0.46847 0.45476 0.87814 0.0
C363 C 0.35264 0.35324 0.91964 0.0
C364 C 0.37084 0.33725 0.93442 0.0
C365 C 0.38486 0.39048 0.90751 0.0
C366 C 0.43582 0.41142 0.90968 0.0
C367 C 0.42171 0.35827 0.93658 0.0
C368 C 0.45381 0.39492 0.92434 0.0
C369 C 0.47116 0.45301 0.89793 0.0
C370 C 0.62171 0.66087 0.91701 0.0
C371 C 0.6421 0.65196 0.93308 0.0
C372 C 0.59034 0.62222 0.90527 0.0
C373 C 0.57918 0.57395 0.90923 0.0
C374 C 0.63066 0.60358 0.93704 0.0
C375 C 0.59943 0.56504 0.92528 0.0
C376 C 0.54334 0.53209 0.89773 0.0
C377 C 0.66909 0.61843 0.85842 0.0
C378 C 0.65803 0.63668 0.84223 0.0
C379 C 0.63169 0.58536 0.87023 0.0
C380 C 0.58244 0.57034 0.86627 0.0
C381 C 0.6087 0.62152 0.83828 0.0
C382 C 0.57132 0.58853 0.85013 0.0
C383 C 0.54231 0.5325 0.87789 0.0
H384 H 0.37645 0.29307 0.85776 0.0
H385 H 0.43935 0.35671 0.87779 0.0
H386 H 0.34968 0.40182 0.83194 0.0
H387 H 0.41175 0.46491 0.8522 0.0
H388 H 0.31353 0.33811 0.91786 0.0
H389 H 0.36988 0.40367 0.89679 0.0
H390 H 0.43669 0.34643 0.94779 0.0
H391 H 0.49292 0.4107 0.92642 0.0
H392 H 0.62994 0.69772 0.91352 0.0
H393 H 0.57406 0.63 0.89331 0.0
H394 H 0.64498 0.59528 0.94948 0.0
H395 H 0.59081 0.52807 0.92881 0.0
H396 H 0.70668 0.62954 0.86193 0.0
H397 H 0.6413 0.57073 0.88224 0.0
H398 H 0.59883 0.63421 0.82577 0.0
H399 H 0.5336 0.57689 0.8466 0.0
N400 N 0.50435 0.49427 0.86892 0.0
N401 N 0.50825 0.492 0.90689 0.0
H402 H 0.00633 0.16869 0.13912 0.0
H403 H 0.9503 0.21431 0.09265 0.0
H404 H 0.95014 0.27798 0.11213 0.0
H405 H 0.9672 0.32165 0.14208 0.0
H406 H 0.01991 0.27423 0.18907 0.0
H407 H 0.02032 0.2105 0.1696 0.0
C408 C 0.99344 0.1921 0.13332 0.0
C409 C 0.97852 0.18675 0.11441 0.0
C410 C 0.99318 0.22856 0.14464 0.0
C411 C 0.96268 0.21802 0.10706 0.0
C412 C 0.96235 0.25433 0.11822 0.0
C413 C 0.97816 0.297 0.14818 0.0
C414 C 0.9935 0.30285 0.16704 0.0
C415 C 0.97774 0.26008 0.13699 0.0
C416 C 0.00856 0.2711 0.17453 0.0
C417 C 0.00848 0.23439 0.16344 0.0
H418 H 0.79884 0.02992 0.44365 0.0
H419 H 0.78237 0.89951 0.47025 0.0
H420 H 0.72203 0.8992 0.49213 0.0
H421 H 0.67447 0.93675 0.50377 0.0
H422 H 0.69512 0.07014 0.47836 0.0
H423 H 0.75349 0.06892 0.45594 0.0
C424 C 0.78169 0.00135 0.45419 0.0
C425 C 0.79438 0.96451 0.45532 0.0
C426 C 0.74808 0.00217 0.46693 0.0
C427 C 0.77285 0.9281 0.46918 0.0
C428 C 0.73845 0.92795 0.48165 0.0
C429 C 0.69176 0.96538 0.49327 0.0
C430 C 0.68058 0.00337 0.4926 0.0
C431 C 0.72585 0.96485 0.48067 0.0
C432 C 0.7035 0.0407 0.47913 0.0
C433 C 0.73666 0.03991 0.4663 0.0
H434 H 0.83781 0.75758 0.7877 0.0
H435 H 0.76541 0.84264 0.78164 0.0
H436 H 0.70176 0.78853 0.80357 0.0
H437 H 0.66674 0.71745 0.82463 0.0
H438 H 0.73836 0.63168 0.83065 0.0
H439 H 0.80279 0.68639 0.809 0.0
C440 C 0.80828 0.76444 0.79129 0.0
C441 C 0.80624 0.80389 0.78291 0.0
C442 C 0.77179 0.73327 0.80401 0.0
C443 C 0.76744 0.81201 0.78759 0.0
C444 C 0.73116 0.78129 0.80025 0.0
C445 C 0.69622 0.71047 0.8211 0.0
C446 C 0.69764 0.6705 0.82928 0.0
C447 C 0.73287 0.74174 0.80849 0.0
C448 C 0.73664 0.66253 0.82477 0.0
C449 C 0.77336 0.69362 0.81228 0.0
H450 H 0.95546 0.77705 0.11937 0.0
H451 H 0.11208 0.8668 0.12562 0.0
H452 H 0.11254 0.80664 0.14736 0.0
H453 H 0.0685 0.72744 0.16381 0.0
H454 H 0.91119 0.6396 0.15835 0.0
H455 H 0.91113 0.69968 0.13675 0.0
C456 C 0.98972 0.78326 0.12542 0.0
C457 C 0.03372 0.82604 0.12081 0.0
C458 C 0.98962 0.74875 0.13794 0.0
C459 C 0.07773 0.83417 0.12902 0.0
C460 C 0.078 0.79973 0.14138 0.0
C461 C 0.03408 0.72168 0.15812 0.0
C462 C 0.98996 0.67871 0.16265 0.0
C463 C 0.03416 0.7568 0.14589 0.0
C464 C 0.94585 0.67173 0.15487 0.0
C465 C 0.94569 0.70626 0.1426 0.0
H466 H 0.18415 0.0346 0.47185 0.0
H467 H 0.24686 0.00441 0.42331 0.0
H468 H 0.30782 1.00001 0.44321 0.0
H469 H 0.34231 0.00333 0.4744 0.0
H470 H 0.2782 0.031 0.52316 0.0
H471 H 0.21934 0.03868 0.50315 0.0
C472 C 0.21159 0.02769 0.46563 0.0
C473 C 0.21107 0.01985 0.44616 0.0
C474 C 0.24617 0.02468 0.47719 0.0
C475 C 0.24634 0.01019 0.43829 0.0
C476 C 0.2812 0.00774 0.44965 0.0
C477 C 0.31516 0.01055 0.48069 0.0
C478 C 0.31459 0.01636 0.50027 0.0
C479 C 0.28114 0.01442 0.46913 0.0
C480 C 0.27978 0.02678 0.50812 0.0
C481 C 0.24595 0.03096 0.49669 0.0
H482 H 0.22912 0.17691 0.78471 0.0
H483 H 0.13088 0.23272 0.795 0.0
H484 H 0.18871 0.29155 0.81767 0.0
H485 H 0.26777 0.32792 0.83418 0.0
H486 H 0.36605 0.27217 0.82378 0.0
H487 H 0.30748 0.21226 0.80164 0.0
C488 C 0.22057 0.20221 0.79182 0.0
C489 C 0.17597 0.20072 0.7881 0.0
C490 C 0.25387 0.23575 0.80487 0.0
C491 C 0.16489 0.23303 0.7977 0.0
C492 C 0.19799 0.26675 0.8106 0.0
C493 C 0.27641 0.30276 0.827 0.0
C494 C 0.32125 0.30459 0.83058 0.0
C495 C 0.24265 0.26855 0.81424 0.0
C496 C 0.33159 0.27121 0.82142 0.0
C497 C 0.29827 0.23716 0.80866 0.0
H498 H 0.8488 0.02839 0.63254 0.0
H499 H 0.79379 0.07166 0.68003 0.0
H500 H 0.73041 0.0717 0.66029 0.0
H501 H 0.68837 0.05581 0.62999 0.0
H502 H 0.74399 0.01407 0.58225 0.0
H503 H 0.80935 0.01696 0.60168 0.0
C504 C 0.82347 0.03863 0.6385 0.0
C505 C 0.82594 0.04983 0.65775 0.0
C506 C 0.78697 0.03843 0.62708 0.0
C507 C 0.79231 0.06228 0.66531 0.0
C508 C 0.75614 0.06245 0.65402 0.0
C509 C 0.71523 0.04813 0.62373 0.0
C510 C 0.71113 0.03464 0.60468 0.0
C511 C 0.75278 0.05003 0.63495 0.0
C512 C 0.74582 0.02389 0.59693 0.0
C513 C 0.78338 0.0258 0.60801 0.0
H514 H 0.75414 0.83248 0.98813 0.0
H515 H 0.84776 0.76921 0.99321 0.0
H516 H 0.79653 0.70486 0.97104 0.0
H517 H 0.7256 0.66661 0.9501 0.0
H518 H 0.63108 0.72876 0.94497 0.0
H519 H 0.68301 0.79422 0.96681 0.0
C520 C 0.76345 0.80477 0.98429 0.0
C521 C 0.80447 0.80546 0.99248 0.0
C522 C 0.73394 0.76787 0.9714 0.0
C523 C 0.81584 0.76904 0.98744 0.0
C524 C 0.78679 0.73239 0.97464 0.0
C525 C 0.71609 0.69423 0.95386 0.0
C526 C 0.67443 0.69264 0.94592 0.0
C527 C 0.7457 0.73135 0.96658 0.0
C528 C 0.66325 0.72937 0.95069 0.0
C529 C 0.69273 0.76664 0.96329 0.0
H530 H 0.94614 0.80701 0.29878 0.0
H531 H 0.98045 0.75413 0.34928 0.0
H532 H 0.9862 0.69144 0.33123 0.0
H533 H 0.9834 0.65258 0.30108 0.0
H534 H 0.95252 0.70717 0.2503 0.0
H535 H 0.94367 0.76817 0.26848 0.0
C536 C 0.9551 0.78193 0.30583 0.0
C537 C 0.96259 0.78529 0.3254 0.0
C538 C 0.9591 0.74626 0.29531 0.0
C539 C 0.97356 0.75197 0.33431 0.0
C540 C 0.97732 0.71629 0.32397 0.0
C541 C 0.97515 0.67809 0.29396 0.0
C542 C 0.96877 0.67533 0.27435 0.0
C543 C 0.97047 0.7133 0.30446 0.0
C544 C 0.95714 0.70811 0.2654 0.0
C545 C 0.95232 0.74319 0.27577 0.0
H546 H 0.22485 0.98056 0.67333 0.0
H547 H 0.12336 0.96092 0.62887 0.0
H548 H 0.18202 0.96505 0.6055 0.0
H549 H 0.26392 0.97864 0.59753 0.0
H550 H 0.36609 0.00063 0.64198 0.0
H551 H 0.3059 0.99257 0.66543 0.0
C552 C 0.21559 0.97741 0.65852 0.0
C553 C 0.16968 0.97051 0.65293 0.0
C554 C 0.24988 0.98085 0.64511 0.0
C555 C 0.15806 0.96555 0.63366 0.0
C556 C 0.1918 0.96837 0.62025 0.0
C557 C 0.27281 0.98119 0.61236 0.0
C558 C 0.31955 0.99053 0.61798 0.0
C559 C 0.23801 0.97653 0.62579 0.0
C560 C 0.33068 0.99425 0.63725 0.0
C561 C 0.29618 0.98934 0.65069 0.0
H562 H 0.24634 0.20489 0.0023 0.0
H563 H 0.16173 0.1092 0.95683 0.0
H564 H 0.21774 0.16883 0.93401 0.0
H565 H 0.29032 0.24898 0.92693 0.0
H566 H 0.37614 0.3428 0.97253 0.0
H567 H 0.3206 0.28266 0.99534 0.0
C568 C 0.24056 0.19655 0.98743 0.0
C569 C 0.19969 0.15259 0.98135 0.0
C570 C 0.27312 0.23076 0.97438 0.0
C571 C 0.19243 0.14303 0.96194 0.0
C572 C 0.22456 0.17702 0.94886 0.0
C573 C 0.29665 0.25615 0.94187 0.0
C574 C 0.33711 0.30018 0.94807 0.0
C575 C 0.26478 0.22122 0.95491 0.0
C576 C 0.34539 0.30895 0.96745 0.0
C577 C 0.31359 0.27468 0.98048 0.0
H578 H 0.02464 0.17896 0.30351 0.0
H579 H 0.02606 0.2564 0.35369 0.0
H580 H 0.02378 0.32002 0.33465 0.0
H581 H 0.01825 0.35193 0.30375 0.0
H582 H 0.01346 0.27277 0.2536 0.0
H583 H 0.02004 0.21144 0.27255 0.0
C584 C 0.02507 0.21013 0.31022 0.0
C585 C 0.02571 0.21322 0.32993 0.0
C586 C 0.02275 0.24599 0.2992 0.0
C587 C 0.02541 0.25328 0.33852 0.0
C588 C 0.02413 0.2896 0.32765 0.0
C589 C 0.01912 0.32148 0.29699 0.0
C590 C 0.01539 0.31684 0.27733 0.0
C591 C 0.02231 0.28609 0.30799 0.0
C592 C 0.01585 0.27684 0.26874 0.0
C593 C 0.0198 0.24191 0.27955 0.0
loop_
_geom_bond_atom_site_label_1
_geom_bond_atom_site_label_2
_geom_bond_distance
_geom_bond_site_symmetry_2
_ccdc_geom_bond_type
Li0 N17 1.990 . S
Li0 O60 1.956 . S
Li0 O61 1.970 1_455 S
Li0 O62 1.961 1_545 S
Li1 N25 1.990 . S
Li1 O60 1.970 1_655 S
Li1 O61 1.956 . S
Li1 O63 1.961 1_545 S
Li2 N47 1.990 . S
Li2 O60 1.961 1_565 S
Li2 O62 1.956 . S
Li2 O63 1.970 1_455 S
Li3 N53 1.990 . S
Li3 O61 1.961 1_565 S
Li3 O62 1.970 1_655 S
Li3 O63 1.956 . S
C4 C6 1.348 . S
C4 C7 1.356 . S
C4 O60 1.325 . S
N5 C8 1.314 . S
N5 C9 1.279 . S
C6 C4 1.348 . S
C6 C8 1.353 . S
C6 H64 0.929 . S
C7 C4 1.356 . S
C7 C9 1.358 . S
C7 H65 0.930 . S
C8 N5 1.314 . S
C8 C6 1.353 . S
C8 H66 0.930 . S
C9 N5 1.279 . S
C9 C7 1.358 . S
C9 H67 0.930 . S
C10 C13 1.348 1_655 S
C10 C14 1.356 . S
C10 O61 1.325 . S
C11 N12 1.279 . S
C11 C14 1.358 . S
C11 H68 0.930 . S
N12 C11 1.279 . S
N12 C15 1.314 . S
C13 C10 1.348 1_455 S
C13 C15 1.353 1_455 S
C13 H69 0.929 . S
C14 C10 1.356 . S
C14 C11 1.358 . S
C14 H70 0.930 . S
C15 N12 1.314 . S
C15 C13 1.353 1_655 S
C15 H71 0.930 1_655 S
C16 N17 1.314 . S
C16 C21 1.353 1_554 S
C16 H22 0.930 . S
N17 Li0 1.990 . S
N17 C16 1.314 . S
N17 C19 1.279 . S
C18 C19 1.358 . S
C18 C20 1.356 . S
C18 H72 0.930 . S
C19 N17 1.279 . S
C19 C18 1.358 . S
C19 H23 0.930 . S
C20 C18 1.356 . S
C20 C21 1.348 1_554 S
C21 C16 1.353 1_556 S
C21 C20 1.348 1_556 S
C21 H73 0.929 . S
H22 C16 0.930 . S
H23 C19 0.930 . S
C24 N25 1.314 . S
C24 C26 1.353 . S
C24 H30 0.930 . S
N25 Li1 1.990 . S
N25 C24 1.314 . S
N25 C28 1.279 . S
C26 C24 1.353 . S
C26 C29 1.348 . S
C26 H74 0.929 . S
C27 C28 1.358 . S
C27 C29 1.356 . S
C27 H75 0.930 . S
C28 N25 1.279 . S
C28 C27 1.358 . S
C28 H31 0.930 . S
C29 C26 1.348 . S
C29 C27 1.356 . S
H30 C24 0.930 . S
H31 C28 0.930 . S
C32 C34 1.348 1_455 S
C32 C35 1.356 . S
C32 O62 1.325 . S
N33 C36 1.314 . S
N33 C37 1.279 . S
C34 C32 1.348 1_655 S
C34 C36 1.353 1_655 S
C34 H76 0.929 . S
C35 C32 1.356 . S
C35 C37 1.358 . S
C35 H77 0.930 . S
C36 N33 1.314 . S
C36 C34 1.353 1_455 S
C36 H78 0.930 1_455 S
C37 N33 1.279 . S
C37 C35 1.358 . S
C37 H79 0.930 . S
C38 C39 1.348 . S
C38 C40 1.356 . S
C38 O63 1.325 . S
C39 C38 1.348 . S
C39 C41 1.353 . S
C39 H80 0.929 . S
C40 C38 1.356 . S
C40 C42 1.358 . S
C40 H81 0.930 . S
C41 C39 1.353 . S
C41 N43 1.314 . S
C41 H82 0.930 . S
C42 C40 1.358 . S
C42 N43 1.279 . S
C42 H83 0.930 . S
N43 C41 1.314 . S
N43 C42 1.279 . S
C44 C46 1.353 . S
C44 N47 1.314 . S
C44 H50 0.930 . S
C45 N47 1.279 . S
C45 C48 1.358 . S
C45 H51 0.930 . S
C46 C44 1.353 . S
C46 C49 1.348 . S
C46 H84 0.929 . S
N47 Li2 1.990 . S
N47 C44 1.314 . S
N47 C45 1.279 . S
C48 C45 1.358 . S
C48 C49 1.356 . S
C48 H85 0.930 . S
C49 C46 1.348 . S
C49 C48 1.356 . S
H50 C44 0.930 . S
H51 C45 0.930 . S
C52 N53 1.314 . S
C52 C54 1.353 1_554 S
C52 H58 0.930 . S
N53 Li3 1.990 . S
N53 C52 1.314 . S
N53 C56 1.279 . S
C54 C52 1.353 1_556 S
C54 C57 1.348 1_556 S
C54 H86 0.929 . S
C55 C56 1.358 . S
C55 C57 1.356 . S
C55 H87 0.930 . S
C56 N53 1.279 . S
C56 C55 1.358 . S
C56 H59 0.930 . S
C57 C54 1.348 1_554 S
C57 C55 1.356 . S
H58 C52 0.930 . S
H59 C56 0.930 . S
O60 Li0 1.956 . S
O60 Li1 1.970 1_455 S
O60 Li2 1.961 1_545 S
O60 C4 1.325 . S
O61 Li0 1.970 1_655 S
O61 Li1 1.956 . S
O61 Li3 1.961 1_545 S
O61 C10 1.325 . S
O62 Li0 1.961 1_565 S
O62 Li2 1.956 . S
O62 Li3 1.970 1_455 S
O62 C32 1.325 . S
O63 Li1 1.961 1_565 S
O63 Li2 1.970 1_655 S
O63 Li3 1.956 . S
O63 C38 1.325 . S
H64 C6 0.929 . S
H65 C7 0.930 . S
H66 C8 0.930 . S
H67 C9 0.930 . S
H68 C11 0.930 . S
H69 C13 0.929 . S
H70 C14 0.930 . S
H71 C15 0.930 1_455 S
H72 C18 0.930 . S
H73 C21 0.929 . S
H74 C26 0.929 . S
H75 C27 0.930 . S
H76 C34 0.929 . S
H77 C35 0.930 . S
H78 C36 0.930 1_655 S
H79 C37 0.930 . S
H80 C39 0.929 . S
H81 C40 0.930 . S
H82 C41 0.930 . S
H83 C42 0.930 . S
H84 C46 0.929 . S
H85 C48 0.930 . S
H86 C54 0.929 . S
H87 C55 0.930 . S
Li88 N105 1.990 . S
Li88 O148 1.956 . S
Li88 O149 1.970 1_665 S
Li88 O150 1.961 . S
Li89 N113 1.990 . S
Li89 O148 1.970 1_445 S
Li89 O149 1.956 . S
Li89 O151 1.961 . S
Li90 N135 1.990 . S
Li90 O148 1.961 . S
Li90 O150 1.956 . S
Li90 O151 1.970 1_665 S
Li91 N141 1.990 . S
Li91 O149 1.961 . S
Li91 O150 1.970 1_445 S
Li91 O151 1.956 . S
C92 C94 1.348 1_655 S
C92 C95 1.356 . S
C92 O148 1.325 . S
N93 C96 1.314 . S
N93 C97 1.279 . S
C94 C92 1.348 1_455 S
C94 C96 1.353 1_455 S
C94 H152 0.929 . S
C95 C92 1.356 . S
C95 C97 1.358 . S
C95 H153 0.930 . S
C96 N93 1.314 . S
C96 C94 1.353 1_655 S
C96 H154 0.930 1_655 S
C97 N93 1.279 . S
C97 C95 1.358 . S
C97 H155 0.930 . S
C98 C101 1.348 1_545 S
C98 C102 1.356 . S
C98 O149 1.325 . S
C99 N100 1.279 . S
C99 C102 1.358 . S
C99 H156 0.930 . S
N100 C99 1.279 . S
N100 C103 1.314 . S
C101 C98 1.348 1_565 S
C101 C103 1.353 1_565 S
C101 H157 0.929 . S
C102 C98 1.356 . S
C102 C99 1.358 . S
C102 H158 0.930 . S
C103 N100 1.314 . S
C103 C101 1.353 1_545 S
C103 H159 0.930 1_545 S
C104 N105 1.314 . S
C104 C109 1.353 . S
C104 H110 0.930 . S
N105 Li88 1.990 . S
N105 C104 1.314 . S
N105 C107 1.279 . S
C106 C107 1.358 . S
C106 C108 1.356 . S
C106 H160 0.930 . S
C107 N105 1.279 . S
C107 C106 1.358 . S
C107 H111 0.930 . S
C108 C106 1.356 . S
C108 C109 1.348 . S
C109 C104 1.353 . S
C109 C108 1.348 . S
C109 H161 0.929 . S
H110 C104 0.930 . S
H111 C107 0.930 . S
C112 N113 1.314 . S
C112 C114 1.353 . S
C112 H118 0.930 . S
N113 Li89 1.990 . S
N113 C112 1.314 . S
N113 C116 1.279 . S
C114 C112 1.353 . S
C114 C117 1.348 . S
C114 H162 0.929 . S
C115 C116 1.358 . S
C115 C117 1.356 . S
C115 H163 0.930 . S
C116 N113 1.279 . S
C116 C115 1.358 . S
C116 H119 0.930 . S
C117 C114 1.348 . S
C117 C115 1.356 . S
H118 C112 0.930 . S
H119 C116 0.930 . S
C120 C122 1.348 1_565 S
C120 C123 1.356 . S
C120 O150 1.325 . S
N121 C124 1.314 . S
N121 C125 1.279 . S
C122 C120 1.348 1_545 S
C122 C124 1.353 1_545 S
C122 H164 0.929 . S
C123 C120 1.356 . S
C123 C125 1.358 . S
C123 H165 0.930 . S
C124 N121 1.314 . S
C124 C122 1.353 1_565 S
C124 H166 0.930 1_565 S
C125 N121 1.279 . S
C125 C123 1.358 . S
C125 H167 0.930 . S
C126 C127 1.348 1_455 S
C126 C128 1.356 . S
C126 O151 1.325 . S
C127 C126 1.348 1_655 S
C127 C129 1.353 1_655 S
C127 H168 0.929 . S
C128 C126 1.356 . S
C128 C130 1.358 . S
C128 H169 0.930 . S
C129 C127 1.353 1_455 S
C129 N131 1.314 . S
C129 H170 0.930 1_455 S
C130 C128 1.358 . S
C130 N131 1.279 . S
C130 H171 0.930 . S
N131 C129 1.314 . S
N131 C130 1.279 . S
C132 C134 1.353 . S
C132 N135 1.314 . S
C132 H138 0.930 . S
C133 N135 1.279 . S
C133 C136 1.358 . S
C133 H139 0.930 . S
C134 C132 1.353 . S
C134 C137 1.348 . S
C134 H172 0.929 . S
N135 Li90 1.990 . S
N135 C132 1.314 . S
N135 C133 1.279 . S
C136 C133 1.358 . S
C136 C137 1.356 . S
C136 H173 0.930 . S
C137 C134 1.348 . S
C137 C136 1.356 . S
H138 C132 0.930 . S
H139 C133 0.930 . S
C140 N141 1.314 . S
C140 C142 1.353 . S
C140 H146 0.930 . S
N141 Li91 1.990 . S
N141 C140 1.314 . S
N141 C144 1.279 . S
C142 C140 1.353 . S
C142 C145 1.348 . S
C142 H174 0.929 . S
C143 C144 1.358 . S
C143 C145 1.356 . S
C143 H175 0.930 . S
C144 N141 1.279 . S
C144 C143 1.358 . S
C144 H147 0.930 . S
C145 C142 1.348 . S
C145 C143 1.356 . S
H146 C140 0.930 . S
H147 C144 0.930 . S
O148 Li88 1.956 . S
O148 Li89 1.970 1_665 S
O148 Li90 1.961 . S
O148 C92 1.325 . S
O149 Li88 1.970 1_445 S
O149 Li89 1.956 . S
O149 Li91 1.961 . S
O149 C98 1.325 . S
O150 Li88 1.961 . S
O150 Li90 1.956 . S
O150 Li91 1.970 1_665 S
O150 C120 1.325 . S
O151 Li89 1.961 . S
O151 Li90 1.970 1_445 S
O151 Li91 1.956 . S
O151 C126 1.325 . S
H152 C94 0.929 . S
H153 C95 0.930 . S
H154 C96 0.930 1_455 S
H155 C97 0.930 . S
H156 C99 0.930 . S
H157 C101 0.929 . S
H158 C102 0.930 . S
H159 C103 0.930 1_565 S
H160 C106 0.930 . S
H161 C109 0.929 . S
H162 C114 0.929 . S
H163 C115 0.930 . S
H164 C122 0.929 . S
H165 C123 0.930 . S
H166 C124 0.930 1_545 S
H167 C125 0.930 . S
H168 C127 0.929 . S
H169 C128 0.930 . S
H170 C129 0.930 1_655 S
H171 C130 0.930 . S
H172 C134 0.929 . S
H173 C136 0.930 . S
H174 C142 0.929 . S
H175 C143 0.930 . S
Li176 N193 1.990 . S
Li176 O236 1.956 . S
Li176 O237 1.970 1_565 S
Li176 O238 1.961 1_455 S
Li177 N201 1.990 . S
Li177 O236 1.970 1_545 S
Li177 O237 1.956 . S
Li177 O239 1.961 1_455 S
Li178 N223 1.990 . S
Li178 O236 1.961 1_655 S
Li178 O238 1.956 . S
Li178 O239 1.970 1_565 S
Li179 N229 1.990 . S
Li179 O237 1.961 1_655 S
Li179 O238 1.970 1_545 S
Li179 O239 1.956 . S
C180 C182 1.348 1_565 S
C180 C183 1.356 . S
C180 O236 1.325 . S
N181 C184 1.314 . S
N181 C185 1.279 . S
C182 C180 1.348 1_545 S
C182 C184 1.353 1_545 S
C182 H240 0.929 . S
C183 C180 1.356 . S
C183 C185 1.358 . S
C183 H241 0.930 . S
C184 N181 1.314 . S
C184 C182 1.353 1_565 S
C184 H242 0.930 1_565 S
C185 N181 1.279 . S
C185 C183 1.358 . S
C185 H243 0.930 . S
C186 C189 1.348 . S
C186 C190 1.356 . S
C186 O237 1.325 . S
C187 N188 1.279 . S
C187 C190 1.358 . S
C187 H244 0.930 . S
N188 C187 1.279 . S
N188 C191 1.314 . S
C189 C186 1.348 . S
C189 C191 1.353 . S
C189 H245 0.929 . S
C190 C186 1.356 . S
C190 C187 1.358 . S
C190 H246 0.930 . S
C191 N188 1.314 . S
C191 C189 1.353 . S
C191 H247 0.930 . S
C192 N193 1.314 . S
C192 C197 1.353 . S
C192 H198 0.930 . S
N193 Li176 1.990 . S
N193 C192 1.314 . S
N193 C195 1.279 . S
C194 C195 1.358 . S
C194 C196 1.356 . S
C194 H248 0.930 . S
C195 N193 1.279 . S
C195 C194 1.358 . S
C195 H199 0.930 . S
C196 C194 1.356 . S
C196 C197 1.348 . S
C197 C192 1.353 . S
C197 C196 1.348 . S
C197 H249 0.929 . S
H198 C192 0.930 . S
H199 C195 0.930 . S
C200 N201 1.314 . S
C200 C202 1.353 . S
C200 H206 0.930 . S
N201 Li177 1.990 . S
N201 C200 1.314 . S
N201 C204 1.279 . S
C202 C200 1.353 . S
C202 C205 1.348 . S
C202 H250 0.929 . S
C203 C204 1.358 . S
C203 C205 1.356 . S
C203 H251 0.930 . S
C204 N201 1.279 . S
C204 C203 1.358 . S
C204 H207 0.930 . S
C205 C202 1.348 . S
C205 C203 1.356 . S
H206 C200 0.930 . S
H207 C204 0.930 . S
C208 C210 1.348 . S
C208 C211 1.356 . S
C208 O238 1.325 . S
N209 C212 1.314 . S
N209 C213 1.279 . S
C210 C208 1.348 . S
C210 C212 1.353 . S
C210 H252 0.929 . S
C211 C208 1.356 . S
C211 C213 1.358 . S
C211 H253 0.930 . S
C212 N209 1.314 . S
C212 C210 1.353 . S
C212 H254 0.930 . S
C213 N209 1.279 . S
C213 C211 1.358 . S
C213 H255 0.930 . S
C214 C215 1.348 1_545 S
C214 C216 1.356 . S
C214 O239 1.325 . S
C215 C214 1.348 1_565 S
C215 C217 1.353 1_565 S
C215 H256 0.929 . S
C216 C214 1.356 . S
C216 C218 1.358 . S
C216 H257 0.930 . S
C217 C215 1.353 1_545 S
C217 N219 1.314 . S
C217 H258 0.930 1_545 S
C218 C216 1.358 . S
C218 N219 1.279 . S
C218 H259 0.930 . S
N219 C217 1.314 . S
N219 C218 1.279 . S
C220 C222 1.353 . S
C220 N223 1.314 . S
C220 H226 0.930 . S
C221 N223 1.279 . S
C221 C224 1.358 . S
C221 H227 0.930 . S
C222 C220 1.353 . S
C222 C225 1.348 . S
C222 H260 0.929 . S
N223 Li178 1.990 . S
N223 C220 1.314 . S
N223 C221 1.279 . S
C224 C221 1.358 . S
C224 C225 1.356 . S
C224 H261 0.930 . S
C225 C222 1.348 . S
C225 C224 1.356 . S
H226 C220 0.930 . S
H227 C221 0.930 . S
C228 N229 1.314 . S
C228 C230 1.353 . S
C228 H234 0.930 . S
N229 Li179 1.990 . S
N229 C228 1.314 . S
N229 C232 1.279 . S
C230 C228 1.353 . S
C230 C233 1.348 . S
C230 H262 0.929 . S
C231 C232 1.358 . S
C231 C233 1.356 . S
C231 H263 0.930 . S
C232 N229 1.279 . S
C232 C231 1.358 . S
C232 H235 0.930 . S
C233 C230 1.348 . S
C233 C231 1.356 . S
H234 C228 0.930 . S
H235 C232 0.930 . S
O236 Li176 1.956 . S
O236 Li177 1.970 1_565 S
O236 Li178 1.961 1_455 S
O236 C180 1.325 . S
O237 Li176 1.970 1_545 S
O237 Li177 1.956 . S
O237 Li179 1.961 1_455 S
O237 C186 1.325 . S
O238 Li176 1.961 1_655 S
O238 Li178 1.956 . S
O238 Li179 1.970 1_565 S
O238 C208 1.325 . S
O239 Li177 1.961 1_655 S
O239 Li178 1.970 1_545 S
O239 Li179 1.956 . S
O239 C214 1.325 . S
H240 C182 0.929 . S
H241 C183 0.930 . S
H242 C184 0.930 1_545 S
H243 C185 0.930 . S
H244 C187 0.930 . S
H245 C189 0.929 . S
H246 C190 0.930 . S
H247 C191 0.930 . S
H248 C194 0.930 . S
H249 C197 0.929 . S
H250 C202 0.929 . S
H251 C203 0.930 . S
H252 C210 0.929 . S
H253 C211 0.930 . S
H254 C212 0.930 . S
H255 C213 0.930 . S
H256 C215 0.929 . S
H257 C216 0.930 . S
H258 C217 0.930 1_565 S
H259 C218 0.930 . S
H260 C222 0.929 . S
H261 C224 0.930 . S
H262 C230 0.929 . S
H263 C231 0.930 . S
C264 C265 1.384 1_655 S
C264 C266 1.384 . S
C264 H292 0.931 . S
C265 C264 1.384 1_455 S
C265 C268 1.382 . S
C266 C264 1.384 . S
C266 C267 1.381 1_655 S
C266 H293 0.930 . S
C267 C266 1.381 1_455 S
C267 C269 1.381 . S
C267 C270 1.487 . S
C268 C265 1.382 . S
C268 C269 1.387 . S
C268 H294 0.930 . S
C269 C267 1.381 . S
C269 C268 1.387 . S
C269 H295 0.931 . S
C270 C267 1.487 . S
C270 C277 1.399 1_455 S
C270 N308 1.343 . S
C271 C272 1.384 1_455 S
C271 C273 1.384 . S
C271 H296 0.931 . S
C272 C271 1.384 1_655 S
C272 C275 1.382 . S
C273 C271 1.384 . S
C273 C274 1.381 1_455 S
C273 H297 0.930 . S
C274 C273 1.381 1_655 S
C274 C276 1.381 . S
C274 C277 1.487 . S
C275 C272 1.382 . S
C275 C276 1.387 . S
C275 H298 0.930 . S
C276 C274 1.381 . S
C276 C275 1.387 . S
C276 H299 0.931 . S
C277 C270 1.399 1_655 S
C277 C274 1.487 . S
C277 N309 1.343 . S
C278 C279 1.384 1_455 S
C278 C280 1.384 . S
C278 H300 0.931 . S
C279 C278 1.384 1_655 S
C279 C282 1.382 . S
C280 C278 1.384 . S
C280 C281 1.381 1_455 S
C280 H301 0.930 . S
C281 C280 1.381 1_655 S
C281 C283 1.381 . S
C281 C284 1.487 . S
C282 C279 1.382 . S
C282 C283 1.387 . S
C282 H302 0.930 . S
C283 C281 1.381 . S
C283 C282 1.387 . S
C283 H303 0.931 . S
C284 C281 1.487 . S
C284 C291 1.399 1_655 S
C284 N309 1.343 . S
C285 C286 1.384 1_655 S
C285 C287 1.384 . S
C285 H304 0.931 . S
C286 C285 1.384 1_455 S
C286 C289 1.382 . S
C287 C285 1.384 . S
C287 C288 1.381 1_655 S
C287 H305 0.930 . S
C288 C287 1.381 1_455 S
C288 C290 1.381 . S
C288 C291 1.487 . S
C289 C286 1.382 . S
C289 C290 1.387 . S
C289 H306 0.930 . S
C290 C288 1.381 . S
C290 C289 1.387 . S
C290 H307 0.931 . S
C291 C284 1.399 1_455 S
C291 C288 1.487 . S
C291 N308 1.343 . S
H292 C264 0.931 . S
H293 C266 0.930 . S
H294 C268 0.930 . S
H295 C269 0.931 . S
H296 C271 0.931 . S
H297 C273 0.930 . S
H298 C275 0.930 . S
H299 C276 0.931 . S
H300 C278 0.931 . S
H301 C280 0.930 . S
H302 C282 0.930 . S
H303 C283 0.931 . S
H304 C285 0.931 . S
H305 C287 0.930 . S
H306 C289 0.930 . S
H307 C290 0.931 . S
N308 C270 1.343 . S
N308 C291 1.343 . S
N309 C277 1.343 . S
N309 C284 1.343 . S
C310 C311 1.384 1_545 S
C310 C312 1.384 . S
C310 H338 0.931 . S
C311 C310 1.384 1_565 S
C311 C314 1.382 . S
C312 C310 1.384 . S
C312 C313 1.381 1_545 S
C312 H339 0.930 . S
C313 C312 1.381 1_565 S
C313 C315 1.381 . S
C313 C316 1.487 . S
C314 C311 1.382 . S
C314 C315 1.387 . S
C314 H340 0.930 . S
C315 C313 1.381 . S
C315 C314 1.387 . S
C315 H341 0.931 . S
C316 C313 1.487 . S
C316 C323 1.399 1_565 S
C316 N354 1.343 . S
C317 C318 1.384 1_565 S
C317 C319 1.384 . S
C317 H342 0.931 . S
C318 C317 1.384 1_545 S
C318 C321 1.382 . S
C319 C317 1.384 . S
C319 C320 1.381 1_565 S
C319 H343 0.930 . S
C320 C319 1.381 1_545 S
C320 C322 1.381 . S
C320 C323 1.487 . S
C321 C318 1.382 . S
C321 C322 1.387 . S
C321 H344 0.930 . S
C322 C320 1.381 . S
C322 C321 1.387 . S
C322 H345 0.931 . S
C323 C316 1.399 1_545 S
C323 C320 1.487 . S
C323 N355 1.343 . S
C324 C325 1.384 1_565 S
C324 C326 1.384 . S
C324 H346 0.931 . S
C325 C324 1.384 1_545 S
C325 C328 1.382 . S
C326 C324 1.384 . S
C326 C327 1.381 1_565 S
C326 H347 0.930 . S
C327 C326 1.381 1_545 S
C327 C329 1.381 . S
C327 C330 1.487 . S
C328 C325 1.382 . S
C328 C329 1.387 . S
C328 H348 0.930 . S
C329 C327 1.381 . S
C329 C328 1.387 . S
C329 H349 0.931 . S
C330 C327 1.487 . S
C330 C337 1.399 1_545 S
C330 N355 1.343 . S
C331 C332 1.384 1_545 S
C331 C333 1.384 . S
C331 H350 0.931 . S
C332 C331 1.384 1_565 S
C332 C335 1.382 . S
C333 C331 1.384 . S
C333 C334 1.381 1_545 S
C333 H351 0.930 . S
C334 C333 1.381 1_565 S
C334 C336 1.381 . S
C334 C337 1.487 . S
C335 C332 1.382 . S
C335 C336 1.387 . S
C335 H352 0.930 . S
C336 C334 1.381 . S
C336 C335 1.387 . S
C336 H353 0.931 . S
C337 C330 1.399 1_565 S
C337 C334 1.487 . S
C337 N354 1.343 . S
H338 C310 0.931 . S
H339 C312 0.930 . S
H340 C314 0.930 . S
H341 C315 0.931 . S
H342 C317 0.931 . S
H343 C319 0.930 . S
H344 C321 0.930 . S
H345 C322 0.931 . S
H346 C324 0.931 . S
H347 C326 0.930 . S
H348 C328 0.930 . S
H349 C329 0.931 . S
H350 C331 0.931 . S
H351 C333 0.930 . S
H352 C335 0.930 . S
H353 C336 0.931 . S
N354 C316 1.343 . S
N354 C337 1.343 . S
N355 C323 1.343 . S
N355 C330 1.343 . S
C356 C357 1.384 . S
C356 C358 1.384 . S
C356 H384 0.931 . S
C357 C356 1.384 . S
C357 C360 1.382 . S
C358 C356 1.384 . S
C358 C359 1.381 . S
C358 H385 0.930 . S
C359 C358 1.381 . S
C359 C361 1.381 . S
C359 C362 1.487 . S
C360 C357 1.382 . S
C360 C361 1.387 . S
C360 H386 0.930 . S
C361 C359 1.381 . S
C361 C360 1.387 . S
C361 H387 0.931 . S
C362 C359 1.487 . S
C362 C369 1.399 . S
C362 N400 1.343 . S
C363 C364 1.384 . S
C363 C365 1.384 . S
C363 H388 0.931 . S
C364 C363 1.384 . S
C364 C367 1.382 . S
C365 C363 1.384 . S
C365 C366 1.381 . S
C365 H389 0.930 . S
C366 C365 1.381 . S
C366 C368 1.381 . S
C366 C369 1.487 . S
C367 C364 1.382 . S
C367 C368 1.387 . S
C367 H390 0.930 . S
C368 C366 1.381 . S
C368 C367 1.387 . S
C368 H391 0.931 . S
C369 C362 1.399 . S
C369 C366 1.487 . S
C369 N401 1.343 . S
C370 C371 1.384 . S
C370 C372 1.384 . S
C370 H392 0.931 . S
C371 C370 1.384 . S
C371 C374 1.382 . S
C372 C370 1.384 . S
C372 C373 1.381 . S
C372 H393 0.930 . S
C373 C372 1.381 . S
C373 C375 1.381 . S
C373 C376 1.487 . S
C374 C371 1.382 . S
C374 C375 1.387 . S
C374 H394 0.930 . S
C375 C373 1.381 . S
C375 C374 1.387 . S
C375 H395 0.931 . S
C376 C373 1.487 . S
C376 C383 1.399 . S
C376 N401 1.343 . S
C377 C378 1.384 . S
C377 C379 1.384 . S
C377 H396 0.931 . S
C378 C377 1.384 . S
C378 C381 1.382 . S
C379 C377 1.384 . S
C379 C380 1.381 . S
C379 H397 0.930 . S
C380 C379 1.381 . S
C380 C382 1.381 . S
C380 C383 1.487 . S
C381 C378 1.382 . S
C381 C382 1.387 . S
C381 H398 0.930 . S
C382 C380 1.381 . S
C382 C381 1.387 . S
C382 H399 0.931 . S
C383 C376 1.399 . S
C383 C380 1.487 . S
C383 N400 1.343 . S
H384 C356 0.931 . S
H385 C358 0.930 . S
H386 C360 0.930 . S
H387 C361 0.931 . S
H388 C363 0.931 . S
H389 C365 0.930 . S
H390 C367 0.930 . S
H391 C368 0.931 . S
H392 C370 0.931 . S
H393 C372 0.930 . S
H394 C374 0.930 . S
H395 C375 0.931 . S
H396 C377 0.931 . S
H397 C379 0.930 . S
H398 C381 0.930 . S
H399 C382 0.931 . S
N400 C362 1.343 . S
N400 C383 1.343 . S
N401 C369 1.343 . S
N401 C376 1.343 . S
H402 C408 0.930 . S
H403 C411 0.930 . S
H404 C412 0.930 . S
H405 C413 0.930 . S
H406 C416 0.930 . S
H407 C417 0.930 . S
C408 H402 0.930 . S
C408 C409 1.355 . S
C408 C410 1.415 . S
C409 C408 1.355 . S
C409 C411 1.419 . S
C410 C408 1.415 . S
C410 C415 1.425 . S
C410 C417 1.409 . S
C411 H403 0.930 . S
C411 C409 1.419 . S
C411 C412 1.362 . S
C412 H404 0.930 . S
C412 C411 1.362 . S
C412 C415 1.409 . S
C413 H405 0.930 . S
C413 C414 1.355 . S
C413 C415 1.415 . S
C414 C413 1.355 . S
C414 C416 1.419 . S
C415 C410 1.425 . S
C415 C412 1.409 . S
C415 C413 1.415 . S
C416 H406 0.930 . S
C416 C414 1.419 . S
C416 C417 1.362 . S
C417 H407 0.930 . S
C417 C410 1.409 . S
C417 C416 1.362 . S
H418 C424 0.930 . S
H419 C427 0.930 . S
H420 C428 0.930 . S
H421 C429 0.930 . S
H422 C432 0.930 . S
H423 C433 0.930 . S
C424 H418 0.930 . S
C424 C425 1.355 . S
C424 C426 1.415 . S
C425 C424 1.355 . S
C425 C427 1.419 . S
C426 C424 1.415 . S
C426 C431 1.425 . S
C426 C433 1.409 1_565 S
C427 H419 0.930 . S
C427 C425 1.419 . S
C427 C428 1.362 . S
C428 H420 0.930 . S
C428 C427 1.362 . S
C428 C431 1.409 . S
C429 H421 0.930 . S
C429 C430 1.355 . S
C429 C431 1.415 . S
C430 C429 1.355 . S
C430 C432 1.419 1_565 S
C431 C426 1.425 . S
C431 C428 1.409 . S
C431 C429 1.415 . S
C432 H422 0.930 . S
C432 C430 1.419 1_545 S
C432 C433 1.362 . S
C433 H423 0.930 . S
C433 C426 1.409 1_545 S
C433 C432 1.362 . S
H434 C440 0.930 . S
H435 C443 0.930 . S
H436 C444 0.930 . S
H437 C445 0.930 . S
H438 C448 0.930 . S
H439 C449 0.930 . S
C440 H434 0.930 . S
C440 C441 1.355 . S
C440 C442 1.415 . S
C441 C440 1.355 . S
C441 C443 1.419 . S
C442 C440 1.415 . S
C442 C447 1.425 . S
C442 C449 1.409 . S
C443 H435 0.930 . S
C443 C441 1.419 . S
C443 C444 1.362 . S
C444 H436 0.930 . S
C444 C443 1.362 . S
C444 C447 1.409 . S
C445 H437 0.930 . S
C445 C446 1.355 . S
C445 C447 1.415 . S
C446 C445 1.355 . S
C446 C448 1.419 . S
C447 C442 1.425 . S
C447 C444 1.409 . S
C447 C445 1.415 . S
C448 H438 0.930 . S
C448 C446 1.419 . S
C448 C449 1.362 . S
C449 H439 0.930 . S
C449 C442 1.409 . S
C449 C448 1.362 . S
H450 C456 0.930 1_655 S
H451 C459 0.930 . S
H452 C460 0.930 . S
H453 C461 0.930 . S
H454 C464 0.930 . S
H455 C465 0.930 . S
C456 H450 0.930 1_455 S
C456 C457 1.355 . S
C456 C458 1.415 . S
C457 C456 1.355 . S
C457 C459 1.419 . S
C458 C456 1.415 . S
C458 C463 1.425 . S
C458 C465 1.409 1_455 S
C459 H451 0.930 . S
C459 C457 1.419 . S
C459 C460 1.362 . S
C460 H452 0.930 . S
C460 C459 1.362 . S
C460 C463 1.409 . S
C461 H453 0.930 . S
C461 C462 1.355 . S
C461 C463 1.415 . S
C462 C461 1.355 . S
C462 C464 1.419 1_455 S
C463 C458 1.425 . S
C463 C460 1.409 . S
C463 C461 1.415 . S
C464 H454 0.930 . S
C464 C462 1.419 1_655 S
C464 C465 1.362 . S
C465 H455 0.930 . S
C465 C458 1.409 1_655 S
C465 C464 1.362 . S
H466 C472 0.930 . S
H467 C475 0.930 . S
H468 C476 0.930 . S
H469 C477 0.930 . S
H470 C480 0.933 . S
H471 C481 0.930 . S
C472 H466 0.930 . S
C472 C473 1.355 . S
C472 C474 1.415 . S
C473 C472 1.355 . S
C473 C475 1.419 . S
C474 C472 1.415 . S
C474 C479 1.425 . S
C474 C481 1.409 . S
C475 H467 0.930 . S
C475 C473 1.419 . S
C475 C476 1.362 . S
C476 H468 0.930 . S
C476 C475 1.362 . S
C476 C479 1.409 . S
C477 H469 0.930 . S
C477 C478 1.355 . S
C477 C479 1.415 . S
C478 C477 1.355 . S
C478 C480 1.419 . S
C479 C474 1.425 . S
C479 C476 1.409 . S
C479 C477 1.415 . S
C480 H470 0.933 . S
C480 C478 1.419 . S
C480 C481 1.362 . S
C481 H471 0.930 . S
C481 C474 1.409 . S
C481 C480 1.362 . S
H482 C488 0.930 . S
H483 C491 0.930 . S
H484 C492 0.930 . S
H485 C493 0.930 . S
H486 C496 0.930 . S
H487 C497 0.930 . S
C488 H482 0.930 . S
C488 C489 1.355 . S
C488 C490 1.415 . S
C489 C488 1.355 . S
C489 C491 1.419 . S
C490 C488 1.415 . S
C490 C495 1.425 . S
C490 C497 1.409 . S
C491 H483 0.930 . S
C491 C489 1.419 . S
C491 C492 1.362 . S
C492 H484 0.930 . S
C492 C491 1.362 . S
C492 C495 1.409 . S
C493 H485 0.930 . S
C493 C494 1.355 . S
C493 C495 1.415 . S
C494 C493 1.355 . S
C494 C496 1.419 . S
C495 C490 1.425 . S
C495 C492 1.409 . S
C495 C493 1.415 . S
C496 H486 0.930 . S
C496 C494 1.419 . S
C496 C497 1.362 . S
C497 H487 0.930 . S
C497 C490 1.409 . S
C497 C496 1.362 . S
H498 C504 0.930 . S
H499 C507 0.930 . S
H500 C508 0.930 . S
H501 C509 0.930 . S
H502 C512 0.930 . S
H503 C513 0.930 . S
C504 H498 0.930 . S
C504 C505 1.355 . S
C504 C506 1.415 . S
C505 C504 1.355 . S
C505 C507 1.419 . S
C506 C504 1.415 . S
C506 C511 1.425 . S
C506 C513 1.409 1_545 S
C507 H499 0.930 . S
C507 C505 1.419 . S
C507 C508 1.362 . S
C508 H500 0.930 . S
C508 C507 1.362 . S
C508 C511 1.409 . S
C509 H501 0.930 . S
C509 C510 1.355 . S
C509 C511 1.415 . S
C510 C509 1.355 . S
C510 C512 1.419 1_545 S
C511 C506 1.425 . S
C511 C508 1.409 . S
C511 C509 1.415 . S
C512 H502 0.930 . S
C512 C510 1.419 1_565 S
C512 C513 1.362 . S
C513 H503 0.930 . S
C513 C506 1.409 1_565 S
C513 C512 1.362 . S
H514 C520 0.930 . S
H515 C523 0.921 1_554 S
H516 C524 0.930 . S
H517 C525 0.930 . S
H518 C528 0.930 . S
H519 C529 0.930 . S
C520 H514 0.930 . S
C520 C521 1.355 . S
C520 C522 1.415 . S
C521 C520 1.355 . S
C521 C523 1.419 . S
C522 C520 1.415 . S
C522 C527 1.425 . S
C522 C529 1.409 . S
C523 H515 0.921 1_556 S
C523 C521 1.419 . S
C523 C524 1.362 . S
C524 H516 0.930 . S
C524 C523 1.362 . S
C524 C527 1.409 . S
C525 H517 0.930 . S
C525 C526 1.355 . S
C525 C527 1.415 . S
C526 C525 1.355 . S
C526 C528 1.419 . S
C527 C522 1.425 . S
C527 C524 1.409 . S
C527 C525 1.415 . S
C528 H518 0.930 . S
C528 C526 1.419 . S
C528 C529 1.362 . S
C529 H519 0.930 . S
C529 C522 1.409 . S
C529 C528 1.362 . S
H530 C536 0.930 . S
H531 C539 0.930 . S
H532 C540 0.930 1_455 S
H533 C541 0.930 . S
H534 C544 0.930 . S
H535 C545 0.930 . S
C536 H530 0.930 . S
C536 C537 1.355 . S
C536 C538 1.415 . S
C537 C536 1.355 . S
C537 C539 1.419 . S
C538 C536 1.415 . S
C538 C543 1.425 . S
C538 C545 1.409 . S
C539 H531 0.930 . S
C539 C537 1.419 . S
C539 C540 1.362 . S
C540 H532 0.930 1_655 S
C540 C539 1.362 . S
C540 C543 1.409 . S
C541 H533 0.930 . S
C541 C542 1.355 1_455 S
C541 C543 1.415 1_455 S
C542 C541 1.355 1_655 S
C542 C544 1.419 . S
C543 C538 1.425 . S
C543 C540 1.409 . S
C543 C541 1.415 1_655 S
C544 H534 0.930 . S
C544 C542 1.419 . S
C544 C545 1.362 . S
C545 H535 0.930 . S
C545 C538 1.409 . S
C545 C544 1.362 . S
H546 C552 0.930 . S
H547 C555 0.930 . S
H548 C556 0.932 1_545 S
H549 C557 0.930 . S
H550 C560 0.930 . S
H551 C561 0.930 . S
C552 H546 0.930 . S
C552 C553 1.355 . S
C552 C554 1.415 . S
C553 C552 1.355 . S
C553 C555 1.419 . S
C554 C552 1.415 . S
C554 C559 1.425 . S
C554 C561 1.409 . S
C555 H547 0.930 . S
C555 C553 1.419 . S
C555 C556 1.362 . S
C556 H548 0.932 1_565 S
C556 C555 1.362 . S
C556 C559 1.407 . S
C557 H549 0.930 . S
C557 C558 1.355 1_545 S
C557 C559 1.415 1_545 S
C558 C557 1.355 1_565 S
C558 C560 1.419 . S
C559 C554 1.425 . S
C559 C556 1.407 . S
C559 C557 1.415 1_565 S
C560 H550 0.930 . S
C560 C558 1.419 . S
C560 C561 1.362 . S
C561 H551 0.930 . S
C561 C554 1.409 . S
C561 C560 1.362 . S
H562 C568 0.930 1_554 S
H563 C571 0.930 . S
H564 C572 0.930 . S
H565 C573 0.930 . S
H566 C576 0.930 . S
H567 C577 0.930 . S
C568 H562 0.930 1_556 S
C568 C569 1.355 . S
C568 C570 1.415 . S
C569 C568 1.355 . S
C569 C571 1.419 . S
C570 C568 1.415 . S
C570 C575 1.425 . S
C570 C577 1.409 . S
C571 H563 0.930 . S
C571 C569 1.419 . S
C571 C572 1.362 . S
C572 H564 0.930 . S
C572 C571 1.362 . S
C572 C575 1.409 . S
C573 H565 0.930 . S
C573 C574 1.355 . S
C573 C575 1.415 . S
C574 C573 1.355 . S
C574 C576 1.419 . S
C575 C570 1.425 . S
C575 C572 1.409 . S
C575 C573 1.415 . S
C576 H566 0.930 . S
C576 C574 1.419 . S
C576 C577 1.362 . S
C577 H567 0.930 . S
C577 C570 1.409 . S
C577 C576 1.362 . S
H578 C584 0.930 . S
H579 C587 0.930 . S
H580 C588 0.930 . S
H581 C589 0.930 . S
H582 C592 0.930 . S
H583 C593 0.930 . S
C584 H578 0.930 . S
C584 C585 1.355 . S
C584 C586 1.415 . S
C585 C584 1.355 . S
C585 C587 1.419 . S
C586 C584 1.415 . S
C586 C591 1.425 . S
C586 C593 1.409 1_455 S
C587 H579 0.930 . S
C587 C585 1.419 . S
C587 C588 1.362 . S
C588 H580 0.930 . S
C588 C587 1.362 . S
C588 C591 1.409 . S
C589 H581 0.930 . S
C589 C590 1.355 . S
C589 C591 1.415 . S
C590 C589 1.355 . S
C590 C592 1.419 1_455 S
C591 C586 1.425 . S
C591 C588 1.409 . S
C591 C589 1.415 . S
C592 H582 0.930 . S
C592 C590 1.419 1_655 S
C592 C593 1.362 . S
C593 H583 0.930 . S
C593 C586 1.409 1_655 S
C593 C592 1.362 . S
C414 C272 1.483 . S
C409 C29 1.468 . S
C425 C137 1.468 . S
C430 C311 1.487 . S
C441 C225 1.441 . S
C446 C378 1.479 . S
C457 C49 1.489 . S
C462 C279 1.502 1_455 S
C478 C332 1.490 1_545 S
C473 C117 1.470 . S
C489 C205 1.476 . S
C494 C357 1.488 . S
C510 C318 1.493 . S
C505 C233 1.487 . S
C521 C57 1.439 1_556 S
C526 C371 1.478 . S
C542 C286 1.484 1_655 S
C537 C108 1.461 . S
C558 C325 1.478 1_565 S
C553 C196 1.437 . S
C574 C364 1.480 . S
C569 C20 1.457 1_556 S
C585 C145 1.485 . S
C590 C265 1.491 . S
