# Generated by pormake.
# Topology rtl, (3,6)-cn, num edge types: 1
# Building blocks:
#     Node 0, Type 0, BuildingBlock: QEWDON_clean_linker_0, # of connection points: 3
#     Node 1, Type 0, BuildingBlock: QEWDON_clean_linker_0, # of connection points: 3
#     Node 2, Type 0, BuildingBlock: QEWDON_clean_linker_0, # of connection points: 3
#     Node 3, Type 0, BuildingBlock: QEWDON_clean_linker_0, # of connection points: 3
#     Node 4, Type 1, BuildingBlock: KUMJIN_clean_sbu_1, # of connection points: 6
#     Node 5, Type 1, BuildingBlock: KUMJIN_clean_sbu_1, # of connection points: 6
#     Edge 6, Type (0, 1), BuildingBlock: AJUNOK_clean_linker_0, # of connection points: 2
#     Edge 7, Type (0, 1), BuildingBlock: AJUNOK_clean_linker_0, # of connection points: 2
#     Edge 8, Type (0, 1), BuildingBlock: AJUNOK_clean_linker_0, # of connection points: 2
#     Edge 9, Type (0, 1), BuildingBlock: AJUNOK_clean_linker_0, # of connection points: 2
#     Edge 10, Type (0, 1), BuildingBlock: AJUNOK_clean_linker_0, # of connection points: 2
#     Edge 11, Type (0, 1), BuildingBlock: AJUNOK_clean_linker_0, # of connection points: 2
#     Edge 12, Type (0, 1), BuildingBlock: AJUNOK_clean_linker_0, # of connection points: 2
#     Edge 13, Type (0, 1), BuildingBlock: AJUNOK_clean_linker_0, # of connection points: 2
#     Edge 14, Type (0, 1), BuildingBlock: AJUNOK_clean_linker_0, # of connection points: 2
#     Edge 15, Type (0, 1), BuildingBlock: AJUNOK_clean_linker_0, # of connection points: 2
#     Edge 16, Type (0, 1), BuildingBlock: AJUNOK_clean_linker_0, # of connection points: 2
#     Edge 17, Type (0, 1), BuildingBlock: AJUNOK_clean_linker_0, # of connection points: 2
# Relax obj value: 0.086
# Max RMSD: 0.288
# Mean RMSD: 0.217
data_MOF--net-rtl--node1-KUMJIN_clean_sbu_1--node2-QEWDON_clean_linker_0--edge1-AJUNOK_clean_linker_0
_symmetry_space_group_name_H-M    P1
_symmetry_Int_Tables_number       1
_symmetry_cell_setting            triclinic
loop_
_symmetry_equiv_pos_as_xyz
'x, y, z'
_cell_length_a     28.344959
_cell_length_b     28.369292
_cell_length_c     20.280828
_cell_angle_alpha  74.717849
_cell_angle_beta   100.63364
_cell_angle_gamma 92.015811
loop_
_atom_site_label
_atom_site_type_symbol
_atom_site_fract_x
_atom_site_fract_y
_atom_site_fract_z
_atom_type_partial_charge
H0 H 0.26992 0.84667 0.1358 0.0
C1 C 0.24946 0.85963 0.08357 0.0
C2 C 0.2025 0.87753 0.07373 0.0
C3 C 0.27016 0.85807 0.02638 0.0
H4 H 0.14176 0.91195 0.99877 0.0
C5 C 0.17708 0.89589 1.00589 0.0
C6 C 0.19718 0.89495 0.94763 0.0
C7 C 0.24366 0.87478 0.95869 0.0
C8 C 0.32132 0.84401 0.03778 0.0
H9 H 0.25977 0.87282 0.91502 0.0
C10 C 0.33567 0.79786 0.03397 0.0
C11 C 0.38475 0.78451 0.05051 0.0
C12 C 0.3562 0.87684 0.05632 0.0
H13 H 0.34572 0.9124 0.05963 0.0
C14 C 0.40476 0.86398 0.0713 0.0
H15 H 0.3089 0.77204 0.02067 0.0
C16 C 0.41899 0.818 0.06893 0.0
H17 H 0.45687 0.80839 0.08178 0.0
H18 H 0.43143 0.88949 0.08566 0.0
H19 H 0.75642 0.72576 0.63663 0.0
C20 C 0.73 0.71256 0.6692 0.0
C21 C 0.69396 0.68117 0.648 0.0
C22 C 0.7331 0.72478 0.73308 0.0
H23 H 0.6341 0.63596 0.67724 0.0
C24 C 0.66128 0.66098 0.69196 0.0
C25 C 0.66388 0.67234 0.75555 0.0
C26 C 0.69821 0.70538 0.77431 0.0
C27 C 0.77355 0.75507 0.75949 0.0
H28 H 0.69764 0.71478 0.82248 0.0
C29 C 0.80033 0.7881 0.71483 0.0
C30 C 0.83818 0.81533 0.74244 0.0
C31 C 0.7866 0.74997 0.83179 0.0
H32 H 0.7705 0.72308 0.86929 0.0
C33 C 0.82144 0.77914 0.85818 0.0
H34 H 0.79257 0.79245 0.65931 0.0
C35 C 0.84637 0.81209 0.814 0.0
H36 H 0.87316 0.8344 0.83639 0.0
H37 H 0.82974 0.77559 0.91358 0.0
H38 H 0.79748 0.18464 0.21373 0.0
C39 C 0.81358 0.18291 0.16992 0.0
C40 C 0.86006 0.16281 0.18106 0.0
C41 C 0.78685 0.19894 0.10236 0.0
H42 H 0.91606 0.14622 0.13054 0.0
C43 C 0.88044 0.16174 0.123 0.0
C44 C 0.8542 0.17817 0.05514 0.0
C45 C 0.80723 0.19619 0.04536 0.0
C46 C 0.73562 0.21293 0.09125 0.0
H47 H 0.78638 0.20803 0.99322 0.0
C48 C 0.72109 0.25677 0.1026 0.0
C49 C 0.67201 0.27011 0.08714 0.0
C50 C 0.70082 0.18224 0.06646 0.0
H51 H 0.71135 0.14841 0.05754 0.0
C52 C 0.65226 0.1949 0.05283 0.0
H53 H 0.74774 0.28107 0.12067 0.0
C54 C 0.63791 0.23869 0.0626 0.0
H55 H 0.60006 0.24837 0.05034 0.0
H56 H 0.62569 0.17102 0.0337 0.0
H57 H 0.33113 0.28927 0.55144 0.0
C58 C 0.34859 0.31087 0.51045 0.0
C59 C 0.37345 0.3533 0.51953 0.0
C60 C 0.3475 0.29512 0.45005 0.0
H61 H 0.41494 0.41401 0.47174 0.0
C62 C 0.39545 0.38145 0.46543 0.0
C63 C 0.39414 0.36663 0.40424 0.0
C64 C 0.3703 0.32357 0.39699 0.0
C65 C 0.32583 0.24724 0.44446 0.0
H66 H 0.36969 0.31225 0.34977 0.0
C67 C 0.28196 0.23161 0.4667 0.0
C68 C 0.26254 0.1862 0.46029 0.0
C69 C 0.35005 0.21614 0.41755 0.0
H70 H 0.38423 0.22633 0.4016 0.0
C71 C 0.33104 0.17109 0.41198 0.0
H72 H 0.26238 0.25506 0.48697 0.0
C73 C 0.28754 0.15626 0.43289 0.0
H74 H 0.2732 0.12127 0.42752 0.0
H75 H 0.3501 0.14757 0.39123 0.0
Eu76 Eu 0.05351 0.97997 0.51568 0.0
C77 C 0.9419 0.16078 0.4995 0.0
N78 N 0.98798 0.14634 0.52995 0.0
C79 C 1.01649 0.22357 0.47002 0.0
C80 C 0.9319 0.20618 0.44972 0.0
C81 C 0.02462 0.17844 0.51934 0.0
C82 C 0.97008 0.23711 0.43402 0.0
C83 C 0.85632 0.14448 0.48832 0.0
C84 C 0.90429 0.13057 0.519 0.0
C85 C 0.84654 0.18902 0.43744 0.0
C86 C 0.8842 0.21975 0.41819 0.0
Eu87 Eu 0.9966 0.06799 0.61076 0.0
N88 N 0.91475 0.08668 0.56629 0.0
C89 C 0.8196 0.11287 0.50914 0.0
C90 C 0.87923 0.05588 0.5874 0.0
C91 C 0.83112 0.06848 0.55909 0.0
H92 H 0.06004 0.17054 0.55007 0.0
H93 H 0.80298 0.04386 0.5755 0.0
H94 H 0.98977 0.87574 0.55668 0.0
H95 H 0.2477 1.0016 0.55557 0.0
H96 H 0.88819 0.02155 0.62599 0.0
H97 H 0.78231 0.12229 0.48676 0.0
H98 H 0.16295 0.02606 0.50554 0.0
H99 H 0.04594 0.24831 0.4608 0.0
H100 H 0.80993 0.20013 0.41283 0.0
H101 H 0.876 0.25427 0.37941 0.0
H102 H 1.00299 0.79218 0.63169 0.0
H103 H 0.96389 0.27225 0.39614 0.0
H104 H 0.267 0.92027 0.63776 0.0
N105 N 0.06113 0.89862 0.58694 0.0
C106 C 0.10684 0.88313 0.61779 0.0
C107 C 0.03232 0.81769 0.62953 0.0
C108 C 0.11625 0.83506 0.66016 0.0
C109 C 0.02466 0.86576 0.58849 0.0
C110 C 0.07803 0.80267 0.66713 0.0
N111 N 0.13514 0.95982 0.56036 0.0
C112 C 0.17124 0.99074 0.54188 0.0
C113 C 0.1926 0.89885 0.63325 0.0
C114 C 0.14487 0.91428 0.60352 0.0
C115 C 0.22985 0.93085 0.61603 0.0
C116 C 0.21912 0.97684 0.56972 0.0
H117 H 0.08382 0.76538 0.69883 0.0
H118 H 0.17138 0.78354 0.72508 0.0
H119 H 0.2381 0.83961 0.7023 0.0
O120 O 0.09167 0.97671 0.43221 0.0
O121 O 0.09552 0.98948 0.61882 0.0
O122 O 0.03711 0.99974 0.67886 0.0
O123 O 0.02342 0.94159 0.43732 0.0
O124 O 0.07176 0.06024 0.48803 0.0
O125 O 0.07297 0.08454 0.58849 0.0
O126 O 0.9594 0.07244 0.69479 0.0
O127 O 0.95557 0.05479 0.50925 0.0
O128 O 1.01476 0.04942 0.44887 0.0
O129 O 0.02504 0.11153 0.68311 0.0
O130 O 0.97818 0.98789 0.64272 0.0
O131 O 0.97882 0.96069 0.54434 0.0
C132 C 0.08016 0.98507 0.67733 0.0
C133 C 0.08034 0.9054 0.39217 0.0
C134 C 0.11767 0.87001 0.31645 0.0
C135 C 0.11569 0.82357 0.36221 0.0
C136 C 0.079 0.85858 0.43734 0.0
C137 C 0.09669 0.81802 0.42248 0.0
C138 C 0.10033 0.91102 0.33194 0.0
C139 C 0.08987 0.08632 0.53131 0.0
C140 C 0.06068 0.94838 0.40683 0.0
C141 C 0.16364 0.82013 0.69172 0.0
C142 C 0.20169 0.85197 0.67846 0.0
C143 C 0.97166 0.06355 0.45067 0.0
C144 C 0.96796 0.14586 0.73008 0.0
C145 C 0.93245 0.18133 0.80771 0.0
C146 C 0.93155 0.22729 0.75972 0.0
C147 C 0.9659 0.19203 0.68236 0.0
C148 C 0.9506 0.14056 0.79245 0.0
C149 C 0.94782 0.23244 0.69727 0.0
C150 C 0.96347 0.95833 0.60296 0.0
C151 C 0.98912 0.10334 0.71632 0.0
H152 H 0.129 0.79161 0.35129 0.0
H153 H 0.06399 0.85311 0.48382 0.0
H154 H 0.09538 0.7821 0.45761 0.0
H155 H 0.10156 0.94695 0.29661 0.0
H156 H 0.91768 0.25912 0.77027 0.0
H157 H 0.97865 0.197 0.63388 0.0
H158 H 0.95195 0.10502 0.82952 0.0
H159 H 0.94659 0.26796 0.66038 0.0
Eu160 Eu 0.47183 0.50172 1.01347 0.0
C161 C 0.67446 0.58492 0.08067 0.0
N162 N 0.65805 0.54243 0.118 0.0
C163 C 0.73098 0.50103 0.12122 0.0
C164 C 0.71975 0.58672 0.06085 0.0
C165 C 0.68569 0.50093 0.13927 0.0
C166 C 0.748 0.54402 0.08152 0.0
C167 C 0.66117 0.67102 0.02196 0.0
C168 C 0.64526 0.62652 0.06109 0.0
C169 C 0.70596 0.67275 1.0012 0.0
C170 C 0.73517 0.63074 0.02063 0.0
Eu171 Eu 0.58025 0.54481 0.1432 0.0
N172 N 0.60152 0.62351 0.08068 0.0
C173 C 0.63188 0.71266 1.00564 0.0
C174 C 0.57482 0.66485 0.06967 0.0
C175 C 0.58893 0.70972 0.03073 0.0
H176 H 0.67296 0.4678 0.17065 0.0
H177 H 0.56703 0.74217 0.02106 0.0
H178 H 0.37786 0.57452 0.99697 0.0
H179 H 0.49238 0.30318 0.12311 0.0
H180 H 0.54341 0.66404 0.09243 0.0
H181 H 0.64279 0.74751 0.97565 0.0
H182 H 0.51182 0.3836 0.05317 0.0
H183 H 0.75273 0.46796 0.13791 0.0
H184 H 0.71853 0.70653 0.97063 0.0
H185 H 0.7697 0.63274 1.00442 0.0
H186 H 0.29948 0.56958 0.0353 0.0
H187 H 0.78301 0.5439 0.06732 0.0
H188 H 0.41926 0.2932 0.17544 0.0
N189 N 0.39543 0.49965 0.04424 0.0
C190 C 0.38123 0.4557 0.0807 0.0
C191 C 0.32221 0.53735 0.04861 0.0
C192 C 0.337 0.45125 0.10396 0.0
C193 C 0.36662 0.54012 0.02723 0.0
C194 C 0.30743 0.4928 0.08745 0.0
N195 N 0.45447 0.4209 0.07339 0.0
C196 C 0.48175 0.3808 0.07931 0.0
C197 C 0.39814 0.36945 0.13452 0.0
C198 C 0.4118 0.41537 0.09628 0.0
C199 C 0.42843 0.32907 0.14627 0.0
C200 C 0.46992 0.33462 0.11728 0.0
H201 H 0.27315 0.49086 0.10435 0.0
H202 H 0.29026 0.40177 0.16228 0.0
H203 H 0.34367 0.33017 0.18883 0.0
O204 O 0.47449 0.4685 0.9283 0.0
O205 O 0.46279 0.50053 0.1235 0.0
O206 O 0.53701 0.47984 0.1907 0.0
O207 O 0.41538 0.51647 0.92075 0.0
O208 O 0.54546 0.46477 0.03518 0.0
O209 O 0.58159 0.46411 0.14753 0.0
O210 O 0.57783 0.5821 0.22444 0.0
O211 O 0.58905 0.54747 0.03277 0.0
O212 O 0.51458 0.56684 0.96538 0.0
O213 O 0.63424 0.52953 0.23865 0.0
O214 O 0.50706 0.58332 0.12006 0.0
O215 O 0.4701 0.58232 1.0085 0.0
C216 C 0.49002 0.47747 0.182 0.0
C217 C 0.39996 0.45201 0.86558 0.0
C218 C 0.37401 0.40649 0.77856 0.0
C219 C 0.33993 0.38261 0.81764 0.0
C220 C 0.36549 0.42785 0.90354 0.0
C221 C 0.33562 0.39345 0.87954 0.0
C222 C 0.40382 0.44155 0.80257 0.0
C223 C 0.57652 0.44629 0.09285 0.0
C224 C 0.43321 0.48662 0.89246 0.0
C225 C 0.32395 0.40582 0.14347 0.0
C226 C 0.35445 0.36506 0.15879 0.0
C227 C 0.56155 0.56899 0.97361 0.0
C228 C 0.65277 0.59539 0.29011 0.0
C229 C 0.68518 0.63672 0.38039 0.0
C230 C 0.71936 0.6591 0.34032 0.0
C231 C 0.68747 0.61801 0.25153 0.0
C232 C 0.65166 0.60491 0.35459 0.0
C233 C 0.72043 0.64973 0.27645 0.0
C234 C 0.47613 0.60148 0.06199 0.0
C235 C 0.61758 0.56212 0.26341 0.0
H236 H 0.31649 0.35568 0.8 0.0
H237 H 0.36171 0.4354 0.9518 0.0
H238 H 0.30919 0.37493 0.90922 0.0
H239 H 0.43056 0.4598 0.77314 0.0
H240 H 0.74576 0.6834 0.3589 0.0
H241 H 0.6893 0.61108 0.2023 0.0
H242 H 0.62454 0.58796 0.38418 0.0
H243 H 0.7471 0.66695 0.24625 0.0
C244 C 0.21 0.15114 0.54839 0.0
C245 C 0.21523 0.16961 0.47857 0.0
C246 C 0.1681 0.12638 0.5656 0.0
C247 C 0.13045 0.11896 0.51347 0.0
H248 H 0.23938 0.15368 0.58979 0.0
H249 H 0.16633 0.11071 0.61989 0.0
S250 S 0.12475 0.16571 0.32304 0.0
N251 N 0.17787 0.18271 0.35751 0.0
N252 N 0.09954 0.13657 0.38926 0.0
C253 C 0.13446 0.13976 0.44363 0.0
C254 C 0.17676 0.16495 0.42634 0.0
C255 C 0.42451 0.70466 0.11564 0.0
C256 C 0.40136 0.73515 0.05232 0.0
C257 C 0.44686 0.66077 0.11826 0.0
C258 C 0.44767 0.64585 0.05743 0.0
H259 H 0.42638 0.7155 0.16344 0.0
H260 H 0.4648 0.63909 0.16842 0.0
S261 S 0.39091 0.71293 0.87834 0.0
N262 N 0.37897 0.74731 0.92767 0.0
N263 N 0.42168 0.6652 0.93171 0.0
C264 C 0.42326 0.67554 0.99378 0.0
C265 C 0.40002 0.72011 0.99143 0.0
C266 C 0.85278 0.88194 0.63695 0.0
C267 C 0.87081 0.84655 0.69915 0.0
C268 C 0.88334 0.91675 0.60307 0.0
C269 C 0.93261 0.91749 0.63088 0.0
H270 H 0.81463 0.88428 0.61627 0.0
H271 H 0.86796 0.94468 0.55702 0.0
S272 S 0.99857 0.82955 0.78697 0.0
N273 N 0.9425 0.811 0.78124 0.0
N274 N 0.99822 0.87844 0.72126 0.0
C275 C 0.95112 0.88127 0.69108 0.0
C276 C 0.92072 0.84515 0.72404 0.0
C277 C 0.63482 0.35212 0.02956 0.0
C278 C 0.65526 0.31799 0.09119 0.0
C279 C 0.61132 0.39432 0.03105 0.0
C280 C 0.60672 0.40393 0.09434 0.0
H281 H 0.63572 0.34532 0.97967 0.0
H282 H 0.59543 0.41891 0.98188 0.0
S283 S 0.65579 0.32622 0.27053 0.0
N284 N 0.6713 0.29689 0.2172 0.0
N285 N 0.62658 0.37609 0.22059 0.0
C286 C 0.62867 0.37081 0.15655 0.0
C287 C 0.65298 0.32783 0.15483 0.0
C288 C 0.20182 0.89969 0.18572 0.0
C289 C 0.17965 0.87702 0.1342 0.0
C290 C 0.1807 0.89893 0.24353 0.0
C291 C 0.13721 0.87477 0.25216 0.0
H292 H 0.23563 0.91816 0.18118 0.0
H293 H 0.19905 0.91624 0.28257 0.0
S294 S 0.06493 0.80996 0.13241 0.0
N295 N 0.11161 0.83026 0.09548 0.0
N296 N 0.07251 0.8282 0.20453 0.0
C297 C 0.11465 0.85228 0.20095 0.0
C298 C 0.13571 0.8536 0.14182 0.0
C299 C 0.65647 0.60541 0.86034 0.0
C300 C 0.63515 0.6452 0.8071 0.0
C301 C 0.63181 0.58039 0.91273 0.0
C302 C 0.585 0.59453 0.91444 0.0
H303 H 0.69278 0.59386 0.86185 0.0
H304 H 0.64982 0.54985 0.95252 0.0
S305 S 0.51371 0.69718 0.78682 0.0
N306 N 0.56486 0.69785 0.75847 0.0
N307 N 0.51836 0.6513 0.85763 0.0
C308 C 0.56306 0.63407 0.86082 0.0
C309 C 0.58825 0.65942 0.80713 0.0
C310 C 0.93605 0.14873 0.27035 0.0
C311 C 0.88663 0.14033 0.25283 0.0
C312 C 0.96297 0.12434 0.33493 0.0
C313 C 0.94153 0.09093 0.38494 0.0
H314 H 0.95429 0.17394 0.23345 0.0
H315 H 1.00097 0.13159 0.34567 0.0
S316 S 0.81382 0.0551 0.36565 0.0
N317 N 0.81755 0.09542 0.29144 0.0
N318 N 0.86825 0.05053 0.41319 0.0
C319 C 0.89207 0.083 0.3692 0.0
C320 C 0.8646 0.10748 0.30313 0.0
C321 C 0.36828 0.41579 0.58648 0.0
C322 C 0.37733 0.36725 0.58638 0.0
C323 C 0.36894 0.4288 0.64899 0.0
C324 C 0.37842 0.39369 0.7135 0.0
H325 H 0.35926 0.44363 0.53783 0.0
H326 H 0.36043 0.46619 0.64674 0.0
S327 S 0.41062 0.2634 0.74282 0.0
N328 N 0.40116 0.28528 0.65749 0.0
N329 N 0.40092 0.30959 0.77417 0.0
C330 C 0.3893 0.34563 0.71436 0.0
C331 C 0.38913 0.33245 0.65106 0.0
C332 C 0.69148 0.70608 0.51909 0.0
C333 C 0.69106 0.66871 0.58038 0.0
C334 C 0.68858 0.69543 0.45468 0.0
C335 C 0.68522 0.64696 0.44887 0.0
H336 H 0.69369 0.74395 0.52084 0.0
H337 H 0.68891 0.72548 0.40894 0.0
S338 S 0.68586 0.53556 0.59436 0.0
N339 N 0.68896 0.58108 0.63159 0.0
N340 N 0.68353 0.56114 0.51063 0.0
C341 C 0.68489 0.60922 0.50978 0.0
C342 C 0.68786 0.62006 0.57543 0.0
C343 C 0.91667 0.20272 0.98 0.0
C344 C 0.87544 0.17579 0.99426 0.0
C345 C 0.93543 0.20361 0.92016 0.0
C346 C 0.91429 0.1767 0.87335 0.0
H347 H 0.9337 0.22432 1.01433 0.0
H348 H 0.96647 0.22585 0.91005 0.0
S349 S 0.80721 0.0986 0.88886 0.0
N350 N 0.8148 0.12066 0.95776 0.0
N351 N 0.85075 0.12145 0.84628 0.0
C352 C 0.87394 0.14852 0.88814 0.0
C353 C 0.85432 0.14833 0.94831 0.0
C354 C 0.39918 0.43842 0.30254 0.0
C355 C 0.41947 0.39491 0.34879 0.0
C356 C 0.42226 0.46493 0.24878 0.0
C357 C 0.46679 0.44924 0.24 0.0
H358 H 0.36499 0.45171 0.30752 0.0
H359 H 0.4052 0.49813 0.21403 0.0
S360 S 0.5339 0.33667 0.34647 0.0
N361 N 0.48569 0.33655 0.38154 0.0
N362 N 0.52949 0.38661 0.28144 0.0
C363 C 0.48735 0.40576 0.28612 0.0
C364 C 0.46353 0.37849 0.34017 0.0
C365 C 0.11915 0.90952 0.86289 0.0
C366 C 0.16921 0.91597 0.87613 0.0
C367 C 0.09089 0.93265 0.799 0.0
C368 C 0.11147 0.96127 0.74409 0.0
H369 H 0.10127 0.88697 0.90266 0.0
H370 H 0.05245 0.92825 0.79293 0.0
S371 S 0.2399 0.99321 0.75176 0.0
N372 N 0.23764 0.95663 0.82931 0.0
N373 N 0.18444 0.99727 0.70761 0.0
C374 C 0.16138 0.9678 0.75572 0.0
C375 C 0.19025 0.94558 0.82185 0.0
loop_
_geom_bond_atom_site_label_1
_geom_bond_atom_site_label_2
_geom_bond_distance
_geom_bond_site_symmetry_2
_ccdc_geom_bond_type
H0 C1 0.949 . S
C1 H0 0.949 . S
C1 C2 1.395 . S
C1 C3 1.391 . S
C2 C1 1.395 . S
C2 C5 1.390 . S
C3 C1 1.391 . S
C3 C7 1.387 1_554 S
C3 C8 1.491 . S
H4 C5 0.950 . S
C5 C2 1.390 . S
C5 H4 0.950 . S
C5 C6 1.378 1_554 S
C6 C5 1.378 1_556 S
C6 C7 1.409 . S
C7 C3 1.387 1_556 S
C7 C6 1.409 . S
C7 H9 0.951 . S
C8 C3 1.491 . S
C8 C10 1.382 . S
C8 C12 1.404 1_554 S
H9 C7 0.951 . S
C10 C8 1.382 . S
C10 C11 1.390 . S
C10 H15 0.949 . S
C11 C10 1.390 . S
C11 C16 1.399 . S
C12 C8 1.404 1_556 S
C12 H13 0.950 . S
C12 C14 1.375 . S
H13 C12 0.950 . S
C14 C12 1.375 . S
C14 C16 1.382 1_556 S
C14 H18 0.950 . S
H15 C10 0.949 . S
C16 C11 1.399 . S
C16 C14 1.382 1_554 S
C16 H17 0.952 . S
H17 C16 0.952 . S
H18 C14 0.950 . S
H19 C20 0.949 . S
C20 H19 0.949 . S
C20 C21 1.395 . S
C20 C22 1.391 . S
C21 C20 1.395 . S
C21 C24 1.390 . S
C22 C20 1.391 . S
C22 C26 1.387 . S
C22 C27 1.491 . S
H23 C24 0.950 . S
C24 C21 1.390 . S
C24 H23 0.950 . S
C24 C25 1.378 . S
C25 C24 1.378 . S
C25 C26 1.409 . S
C26 C22 1.387 . S
C26 C25 1.409 . S
C26 H28 0.951 . S
C27 C22 1.491 . S
C27 C29 1.382 . S
C27 C31 1.404 . S
H28 C26 0.951 . S
C29 C27 1.382 . S
C29 C30 1.390 . S
C29 H34 0.949 . S
C30 C29 1.390 . S
C30 C35 1.399 . S
C31 C27 1.404 . S
C31 H32 0.950 . S
C31 C33 1.375 . S
H32 C31 0.950 . S
C33 C31 1.375 . S
C33 C35 1.382 . S
C33 H37 0.950 . S
H34 C29 0.949 . S
C35 C30 1.399 . S
C35 C33 1.382 . S
C35 H36 0.952 . S
H36 C35 0.952 . S
H37 C33 0.950 . S
H38 C39 0.949 . S
C39 H38 0.949 . S
C39 C40 1.395 . S
C39 C41 1.391 . S
C40 C39 1.395 . S
C40 C43 1.390 . S
C41 C39 1.391 . S
C41 C45 1.387 . S
C41 C46 1.491 . S
H42 C43 0.950 . S
C43 C40 1.390 . S
C43 H42 0.950 . S
C43 C44 1.378 . S
C44 C43 1.378 . S
C44 C45 1.409 . S
C45 C41 1.387 . S
C45 C44 1.409 . S
C45 H47 0.951 1_554 S
C46 C41 1.491 . S
C46 C48 1.382 . S
C46 C50 1.404 1_554 S
H47 C45 0.951 1_556 S
C48 C46 1.382 . S
C48 C49 1.390 . S
C48 H53 0.949 . S
C49 C48 1.390 . S
C49 C54 1.399 . S
C50 C46 1.404 1_556 S
C50 H51 0.950 . S
C50 C52 1.375 . S
H51 C50 0.950 . S
C52 C50 1.375 . S
C52 C54 1.382 1_556 S
C52 H56 0.950 . S
H53 C48 0.949 . S
C54 C49 1.399 . S
C54 C52 1.382 1_554 S
C54 H55 0.952 1_554 S
H55 C54 0.952 1_556 S
H56 C52 0.950 . S
H57 C58 0.949 . S
C58 H57 0.949 . S
C58 C59 1.395 . S
C58 C60 1.391 . S
C59 C58 1.395 . S
C59 C62 1.390 . S
C60 C58 1.391 . S
C60 C64 1.387 . S
C60 C65 1.491 . S
H61 C62 0.950 . S
C62 C59 1.390 . S
C62 H61 0.950 . S
C62 C63 1.378 . S
C63 C62 1.378 . S
C63 C64 1.409 . S
C64 C60 1.387 . S
C64 C63 1.409 . S
C64 H66 0.951 . S
C65 C60 1.491 . S
C65 C67 1.382 . S
C65 C69 1.404 . S
H66 C64 0.951 . S
C67 C65 1.382 . S
C67 C68 1.390 . S
C67 H72 0.949 . S
C68 C67 1.390 . S
C68 C73 1.399 . S
C69 C65 1.404 . S
C69 H70 0.950 . S
C69 C71 1.375 . S
H70 C69 0.950 . S
C71 C69 1.375 . S
C71 C73 1.382 . S
C71 H75 0.950 . S
H72 C67 0.949 . S
C73 C68 1.399 . S
C73 C71 1.382 . S
C73 H74 0.952 . S
H74 C73 0.952 . S
H75 C71 0.950 . S
Eu76 N105 2.600 . S
Eu76 N111 2.562 . S
Eu76 O120 2.462 . S
Eu76 O121 2.373 . S
Eu76 O123 2.432 . S
Eu76 O124 2.291 1_565 S
Eu76 O128 2.335 1_465 S
Eu76 O131 2.372 1_455 S
Eu76 C140 2.787 . S
C77 N78 1.365 . S
C77 C80 1.405 . S
C77 C84 1.448 . S
N78 C77 1.365 . S
N78 C81 1.319 1_655 S
N78 Eu87 2.600 . S
C79 C81 1.397 . S
C79 C82 1.367 1_455 S
C79 H99 0.931 . S
C80 C77 1.405 . S
C80 C82 1.403 . S
C80 C86 1.439 . S
C81 N78 1.319 1_455 S
C81 C79 1.397 . S
C81 H92 0.930 . S
C82 C79 1.367 1_655 S
C82 C80 1.403 . S
C82 H103 0.929 . S
C83 C84 1.430 . S
C83 C85 1.387 . S
C83 C89 1.404 . S
C84 C77 1.448 . S
C84 C83 1.430 . S
C84 N88 1.351 . S
C85 C83 1.387 . S
C85 C86 1.374 . S
C85 H100 0.931 . S
C86 C80 1.439 . S
C86 C85 1.374 . S
C86 H101 0.931 . S
Eu87 N78 2.600 . S
Eu87 N88 2.562 . S
Eu87 O122 2.335 1_655 S
Eu87 O125 2.372 1_655 S
Eu87 O126 2.462 . S
Eu87 O127 2.373 . S
Eu87 O129 2.432 . S
Eu87 O130 2.291 1_545 S
Eu87 C151 2.787 . S
N88 C84 1.351 . S
N88 Eu87 2.562 . S
N88 C90 1.325 . S
C89 C83 1.404 . S
C89 C91 1.366 . S
C89 H97 0.930 . S
C90 N88 1.325 . S
C90 C91 1.416 . S
C90 H96 0.929 . S
C91 C89 1.366 . S
C91 C90 1.416 . S
C91 H93 0.930 . S
H92 C81 0.930 . S
H93 C91 0.930 . S
H94 C109 0.930 1_655 S
H95 C116 0.930 . S
H96 C90 0.929 . S
H97 C89 0.930 . S
H98 C112 0.929 . S
H99 C79 0.931 . S
H100 C85 0.931 . S
H101 C86 0.931 . S
H102 C107 0.931 1_655 S
H103 C82 0.929 . S
H104 C115 0.930 . S
N105 Eu76 2.600 . S
N105 C106 1.365 . S
N105 C109 1.319 . S
C106 N105 1.365 . S
C106 C108 1.405 . S
C106 C114 1.448 . S
C107 H102 0.931 1_455 S
C107 C109 1.397 . S
C107 C110 1.367 . S
C108 C106 1.405 . S
C108 C110 1.403 . S
C108 C141 1.439 . S
C109 H94 0.930 1_455 S
C109 N105 1.319 . S
C109 C107 1.397 . S
C110 C107 1.367 . S
C110 C108 1.403 . S
C110 H117 0.929 . S
N111 Eu76 2.562 . S
N111 C112 1.325 . S
N111 C114 1.351 . S
C112 H98 0.929 . S
C112 N111 1.325 . S
C112 C116 1.416 . S
C113 C114 1.430 . S
C113 C115 1.404 . S
C113 C142 1.387 . S
C114 C106 1.448 . S
C114 N111 1.351 . S
C114 C113 1.430 . S
C115 H104 0.930 . S
C115 C113 1.404 . S
C115 C116 1.366 . S
C116 H95 0.930 . S
C116 C112 1.416 . S
C116 C115 1.366 . S
H117 C110 0.929 . S
H118 C141 0.931 . S
H119 C142 0.931 . S
O120 Eu76 2.462 . S
O120 C140 1.252 . S
O121 Eu76 2.373 . S
O121 C132 1.249 . S
O122 Eu87 2.335 1_455 S
O122 C132 1.264 1_545 S
O123 Eu76 2.432 . S
O123 C140 1.268 . S
O124 Eu76 2.291 1_545 S
O124 C139 1.255 . S
O125 Eu87 2.372 1_455 S
O125 C139 1.257 . S
O126 Eu87 2.462 . S
O126 C151 1.252 . S
O127 Eu87 2.373 . S
O127 C143 1.249 . S
O128 Eu76 2.335 1_645 S
O128 C143 1.264 . S
O129 Eu87 2.432 . S
O129 C151 1.268 . S
O130 Eu87 2.291 1_565 S
O130 C150 1.255 . S
O131 Eu76 2.372 1_655 S
O131 C150 1.257 . S
C132 O121 1.249 . S
C132 O122 1.264 1_565 S
C133 C136 1.382 . S
C133 C138 1.390 . S
C133 C140 1.506 . S
C134 C135 1.398 . S
C134 C138 1.392 . S
C135 C134 1.398 . S
C135 C137 1.372 . S
C135 H152 0.931 . S
C136 C133 1.382 . S
C136 C137 1.390 . S
C136 H153 0.931 . S
C137 C135 1.372 . S
C137 C136 1.390 . S
C137 H154 0.929 . S
C138 C133 1.390 . S
C138 C134 1.392 . S
C138 H155 0.930 . S
C139 O124 1.255 . S
C139 O125 1.257 . S
C140 Eu76 2.787 . S
C140 O120 1.252 . S
C140 O123 1.268 . S
C140 C133 1.506 . S
C141 C108 1.439 . S
C141 H118 0.931 . S
C141 C142 1.374 . S
C142 C113 1.387 . S
C142 H119 0.931 . S
C142 C141 1.374 . S
C143 O127 1.249 . S
C143 O128 1.264 . S
C144 C147 1.382 . S
C144 C148 1.390 . S
C144 C151 1.506 . S
C145 C146 1.398 . S
C145 C148 1.392 . S
C146 C145 1.398 . S
C146 C149 1.372 . S
C146 H156 0.931 . S
C147 C144 1.382 . S
C147 C149 1.390 . S
C147 H157 0.931 . S
C148 C144 1.390 . S
C148 C145 1.392 . S
C148 H158 0.930 . S
C149 C146 1.372 . S
C149 C147 1.390 . S
C149 H159 0.929 . S
C150 O130 1.255 . S
C150 O131 1.257 . S
C151 Eu87 2.787 . S
C151 O126 1.252 . S
C151 O129 1.268 . S
C151 C144 1.506 . S
H152 C135 0.931 . S
H153 C136 0.931 . S
H154 C137 0.929 . S
H155 C138 0.930 . S
H156 C146 0.931 . S
H157 C147 0.931 . S
H158 C148 0.930 . S
H159 C149 0.929 . S
Eu160 N189 2.600 . S
Eu160 N195 2.562 . S
Eu160 O204 2.462 1_554 S
Eu160 O205 2.373 . S
Eu160 O207 2.432 1_554 S
Eu160 O208 2.291 . S
Eu160 O212 2.335 1_554 S
Eu160 O215 2.372 . S
Eu160 C224 2.787 1_554 S
C161 N162 1.365 . S
C161 C164 1.405 . S
C161 C168 1.448 . S
N162 C161 1.365 . S
N162 C165 1.319 . S
N162 Eu171 2.600 . S
C163 C165 1.397 . S
C163 C166 1.367 . S
C163 H183 0.931 . S
C164 C161 1.405 . S
C164 C166 1.403 . S
C164 C170 1.439 . S
C165 N162 1.319 . S
C165 C163 1.397 . S
C165 H176 0.930 . S
C166 C163 1.367 . S
C166 C164 1.403 . S
C166 H187 0.929 . S
C167 C168 1.430 . S
C167 C169 1.387 . S
C167 C173 1.404 . S
C168 C161 1.448 . S
C168 C167 1.430 . S
C168 N172 1.351 . S
C169 C167 1.387 . S
C169 C170 1.374 . S
C169 H184 0.931 . S
C170 C164 1.439 . S
C170 C169 1.374 . S
C170 H185 0.931 . S
Eu171 N162 2.600 . S
Eu171 N172 2.562 . S
Eu171 O206 2.335 . S
Eu171 O209 2.372 . S
Eu171 O210 2.462 . S
Eu171 O211 2.373 . S
Eu171 O213 2.432 . S
Eu171 O214 2.291 . S
Eu171 C235 2.787 . S
N172 C168 1.351 . S
N172 Eu171 2.562 . S
N172 C174 1.325 . S
C173 C167 1.404 . S
C173 C175 1.366 . S
C173 H181 0.930 . S
C174 N172 1.325 . S
C174 C175 1.416 . S
C174 H180 0.929 . S
C175 C173 1.366 . S
C175 C174 1.416 . S
C175 H177 0.930 . S
H176 C165 0.930 . S
H177 C175 0.930 . S
H178 C193 0.930 . S
H179 C200 0.930 . S
H180 C174 0.929 . S
H181 C173 0.930 . S
H182 C196 0.929 . S
H183 C163 0.931 . S
H184 C169 0.931 . S
H185 C170 0.931 . S
H186 C191 0.931 . S
H187 C166 0.929 . S
H188 C199 0.930 . S
N189 Eu160 2.600 . S
N189 C190 1.365 . S
N189 C193 1.319 1_554 S
C190 N189 1.365 . S
C190 C192 1.405 . S
C190 C198 1.448 . S
C191 H186 0.931 . S
C191 C193 1.397 . S
C191 C194 1.367 1_556 S
C192 C190 1.405 . S
C192 C194 1.403 . S
C192 C225 1.439 . S
C193 H178 0.930 . S
C193 N189 1.319 1_556 S
C193 C191 1.397 . S
C194 C191 1.367 1_554 S
C194 C192 1.403 . S
C194 H201 0.929 . S
N195 Eu160 2.562 . S
N195 C196 1.325 . S
N195 C198 1.351 . S
C196 H182 0.929 . S
C196 N195 1.325 . S
C196 C200 1.416 . S
C197 C198 1.430 . S
C197 C199 1.404 . S
C197 C226 1.387 . S
C198 C190 1.448 . S
C198 N195 1.351 . S
C198 C197 1.430 . S
C199 H188 0.930 . S
C199 C197 1.404 . S
C199 C200 1.366 . S
C200 H179 0.930 . S
C200 C196 1.416 . S
C200 C199 1.366 . S
H201 C194 0.929 . S
H202 C225 0.931 . S
H203 C226 0.931 . S
O204 Eu160 2.462 1_556 S
O204 C224 1.252 . S
O205 Eu160 2.373 . S
O205 C216 1.249 . S
O206 Eu171 2.335 . S
O206 C216 1.264 . S
O207 Eu160 2.432 1_556 S
O207 C224 1.268 . S
O208 Eu160 2.291 . S
O208 C223 1.255 . S
O209 Eu171 2.372 . S
O209 C223 1.257 . S
O210 Eu171 2.462 . S
O210 C235 1.252 . S
O211 Eu171 2.373 . S
O211 C227 1.249 1_554 S
O212 Eu160 2.335 1_556 S
O212 C227 1.264 . S
O213 Eu171 2.432 . S
O213 C235 1.268 . S
O214 Eu171 2.291 . S
O214 C234 1.255 . S
O215 Eu160 2.372 . S
O215 C234 1.257 . S
C216 O205 1.249 . S
C216 O206 1.264 . S
C217 C220 1.382 . S
C217 C222 1.390 . S
C217 C224 1.506 . S
C218 C219 1.398 . S
C218 C222 1.392 . S
C219 C218 1.398 . S
C219 C221 1.372 . S
C219 H236 0.931 . S
C220 C217 1.382 . S
C220 C221 1.390 . S
C220 H237 0.931 . S
C221 C219 1.372 . S
C221 C220 1.390 . S
C221 H238 0.929 . S
C222 C217 1.390 . S
C222 C218 1.392 . S
C222 H239 0.930 . S
C223 O208 1.255 . S
C223 O209 1.257 . S
C224 Eu160 2.787 1_556 S
C224 O204 1.252 . S
C224 O207 1.268 . S
C224 C217 1.506 . S
C225 C192 1.439 . S
C225 H202 0.931 . S
C225 C226 1.374 . S
C226 C197 1.387 . S
C226 H203 0.931 . S
C226 C225 1.374 . S
C227 O211 1.249 1_556 S
C227 O212 1.264 . S
C228 C231 1.382 . S
C228 C232 1.390 . S
C228 C235 1.506 . S
C229 C230 1.398 . S
C229 C232 1.392 . S
C230 C229 1.398 . S
C230 C233 1.372 . S
C230 H240 0.931 . S
C231 C228 1.382 . S
C231 C233 1.390 . S
C231 H241 0.931 . S
C232 C228 1.390 . S
C232 C229 1.392 . S
C232 H242 0.930 . S
C233 C230 1.372 . S
C233 C231 1.390 . S
C233 H243 0.929 . S
C234 O214 1.255 . S
C234 O215 1.257 . S
C235 Eu171 2.787 . S
C235 O210 1.252 . S
C235 O213 1.268 . S
C235 C228 1.506 . S
H236 C219 0.931 . S
H237 C220 0.931 . S
H238 C221 0.929 . S
H239 C222 0.930 . S
H240 C230 0.931 . S
H241 C231 0.931 . S
H242 C232 0.930 . S
H243 C233 0.929 . S
C244 C245 1.369 . S
C244 C246 1.419 . S
C244 H248 0.930 . S
C245 C244 1.369 . S
C245 C254 1.429 . S
C246 C244 1.419 . S
C246 C247 1.363 . S
C246 H249 0.929 . S
C247 C246 1.363 . S
C247 C253 1.428 . S
H248 C244 0.930 . S
H249 C246 0.929 . S
S250 N251 1.613 . S
S250 N252 1.610 . S
N251 S250 1.613 . S
N251 C254 1.350 . S
N252 S250 1.610 . S
N252 C253 1.351 . S
C253 C247 1.428 . S
C253 N252 1.351 . S
C253 C254 1.434 . S
C254 C245 1.429 . S
C254 N251 1.350 . S
C254 C253 1.434 . S
C255 C256 1.369 . S
C255 C257 1.419 . S
C255 H259 0.930 . S
C256 C255 1.369 . S
C256 C265 1.429 . S
C257 C255 1.419 . S
C257 C258 1.363 . S
C257 H260 0.929 . S
C258 C257 1.363 . S
C258 C264 1.428 . S
H259 C255 0.930 . S
H260 C257 0.929 . S
S261 N262 1.613 . S
S261 N263 1.610 . S
N262 S261 1.613 . S
N262 C265 1.350 1_556 S
N263 S261 1.610 . S
N263 C264 1.351 1_556 S
C264 C258 1.428 . S
C264 N263 1.351 1_554 S
C264 C265 1.434 . S
C265 C256 1.429 . S
C265 N262 1.350 1_554 S
C265 C264 1.434 . S
C266 C267 1.369 . S
C266 C268 1.419 . S
C266 H270 0.930 . S
C267 C266 1.369 . S
C267 C276 1.429 . S
C268 C266 1.419 . S
C268 C269 1.363 . S
C268 H271 0.929 . S
C269 C268 1.363 . S
C269 C275 1.428 . S
H270 C266 0.930 . S
H271 C268 0.929 . S
S272 N273 1.613 . S
S272 N274 1.610 . S
N273 S272 1.613 . S
N273 C276 1.350 . S
N274 S272 1.610 . S
N274 C275 1.351 . S
C275 C269 1.428 . S
C275 N274 1.351 . S
C275 C276 1.434 . S
C276 C267 1.429 . S
C276 N273 1.350 . S
C276 C275 1.434 . S
C277 C278 1.369 . S
C277 C279 1.419 . S
C277 H281 0.930 1_554 S
C278 C277 1.369 . S
C278 C287 1.429 . S
C279 C277 1.419 . S
C279 C280 1.363 . S
C279 H282 0.929 1_554 S
C280 C279 1.363 . S
C280 C286 1.428 . S
H281 C277 0.930 1_556 S
H282 C279 0.929 1_556 S
S283 N284 1.613 . S
S283 N285 1.610 . S
N284 S283 1.613 . S
N284 C287 1.350 . S
N285 S283 1.610 . S
N285 C286 1.351 . S
C286 C280 1.428 . S
C286 N285 1.351 . S
C286 C287 1.434 . S
C287 C278 1.429 . S
C287 N284 1.350 . S
C287 C286 1.434 . S
C288 C289 1.369 . S
C288 C290 1.419 . S
C288 H292 0.930 . S
C289 C288 1.369 . S
C289 C298 1.429 . S
C290 C288 1.419 . S
C290 C291 1.363 . S
C290 H293 0.929 . S
C291 C290 1.363 . S
C291 C297 1.428 . S
H292 C288 0.930 . S
H293 C290 0.929 . S
S294 N295 1.613 . S
S294 N296 1.610 . S
N295 S294 1.613 . S
N295 C298 1.350 . S
N296 S294 1.610 . S
N296 C297 1.351 . S
C297 C291 1.428 . S
C297 N296 1.351 . S
C297 C298 1.434 . S
C298 C289 1.429 . S
C298 N295 1.350 . S
C298 C297 1.434 . S
C299 C300 1.369 . S
C299 C301 1.419 . S
C299 H303 0.930 . S
C300 C299 1.369 . S
C300 C309 1.429 . S
C301 C299 1.419 . S
C301 C302 1.363 . S
C301 H304 0.929 . S
C302 C301 1.363 . S
C302 C308 1.428 . S
H303 C299 0.930 . S
H304 C301 0.929 . S
S305 N306 1.613 . S
S305 N307 1.610 . S
N306 S305 1.613 . S
N306 C309 1.350 . S
N307 S305 1.610 . S
N307 C308 1.351 . S
C308 C302 1.428 . S
C308 N307 1.351 . S
C308 C309 1.434 . S
C309 C300 1.429 . S
C309 N306 1.350 . S
C309 C308 1.434 . S
C310 C311 1.369 . S
C310 C312 1.419 . S
C310 H314 0.930 . S
C311 C310 1.369 . S
C311 C320 1.429 . S
C312 C310 1.419 . S
C312 C313 1.363 . S
C312 H315 0.929 . S
C313 C312 1.363 . S
C313 C319 1.428 . S
H314 C310 0.930 . S
H315 C312 0.929 . S
S316 N317 1.613 . S
S316 N318 1.610 . S
N317 S316 1.613 . S
N317 C320 1.350 . S
N318 S316 1.610 . S
N318 C319 1.351 . S
C319 C313 1.428 . S
C319 N318 1.351 . S
C319 C320 1.434 . S
C320 C311 1.429 . S
C320 N317 1.350 . S
C320 C319 1.434 . S
C321 C322 1.369 . S
C321 C323 1.419 . S
C321 H325 0.930 . S
C322 C321 1.369 . S
C322 C331 1.429 . S
C323 C321 1.419 . S
C323 C324 1.363 . S
C323 H326 0.929 . S
C324 C323 1.363 . S
C324 C330 1.428 . S
H325 C321 0.930 . S
H326 C323 0.929 . S
S327 N328 1.613 . S
S327 N329 1.610 . S
N328 S327 1.613 . S
N328 C331 1.350 . S
N329 S327 1.610 . S
N329 C330 1.351 . S
C330 C324 1.428 . S
C330 N329 1.351 . S
C330 C331 1.434 . S
C331 C322 1.429 . S
C331 N328 1.350 . S
C331 C330 1.434 . S
C332 C333 1.369 . S
C332 C334 1.419 . S
C332 H336 0.930 . S
C333 C332 1.369 . S
C333 C342 1.429 . S
C334 C332 1.419 . S
C334 C335 1.363 . S
C334 H337 0.929 . S
C335 C334 1.363 . S
C335 C341 1.428 . S
H336 C332 0.930 . S
H337 C334 0.929 . S
S338 N339 1.613 . S
S338 N340 1.610 . S
N339 S338 1.613 . S
N339 C342 1.350 . S
N340 S338 1.610 . S
N340 C341 1.351 . S
C341 C335 1.428 . S
C341 N340 1.351 . S
C341 C342 1.434 . S
C342 C333 1.429 . S
C342 N339 1.350 . S
C342 C341 1.434 . S
C343 C344 1.369 . S
C343 C345 1.419 . S
C343 H347 0.930 1_556 S
C344 C343 1.369 . S
C344 C353 1.429 . S
C345 C343 1.419 . S
C345 C346 1.363 . S
C345 H348 0.929 . S
C346 C345 1.363 . S
C346 C352 1.428 . S
H347 C343 0.930 1_554 S
H348 C345 0.929 . S
S349 N350 1.613 . S
S349 N351 1.610 . S
N350 S349 1.613 . S
N350 C353 1.350 . S
N351 S349 1.610 . S
N351 C352 1.351 . S
C352 C346 1.428 . S
C352 N351 1.351 . S
C352 C353 1.434 . S
C353 C344 1.429 . S
C353 N350 1.350 . S
C353 C352 1.434 . S
C354 C355 1.369 . S
C354 C356 1.419 . S
C354 H358 0.930 . S
C355 C354 1.369 . S
C355 C364 1.429 . S
C356 C354 1.419 . S
C356 C357 1.363 . S
C356 H359 0.929 . S
C357 C356 1.363 . S
C357 C363 1.428 . S
H358 C354 0.930 . S
H359 C356 0.929 . S
S360 N361 1.613 . S
S360 N362 1.610 . S
N361 S360 1.613 . S
N361 C364 1.350 . S
N362 S360 1.610 . S
N362 C363 1.351 . S
C363 C357 1.428 . S
C363 N362 1.351 . S
C363 C364 1.434 . S
C364 C355 1.429 . S
C364 N361 1.350 . S
C364 C363 1.434 . S
C365 C366 1.369 . S
C365 C367 1.419 . S
C365 H369 0.930 . S
C366 C365 1.369 . S
C366 C375 1.429 . S
C367 C365 1.419 . S
C367 C368 1.363 . S
C367 H370 0.929 . S
C368 C367 1.363 . S
C368 C374 1.428 . S
H369 C365 0.930 . S
H370 C367 0.929 . S
S371 N372 1.613 . S
S371 N373 1.610 . S
N372 S371 1.613 . S
N372 C375 1.350 . S
N373 S371 1.610 . S
N373 C374 1.351 . S
C374 C368 1.428 . S
C374 N373 1.351 . S
C374 C375 1.434 . S
C375 C366 1.429 . S
C375 N372 1.350 . S
C375 C374 1.434 . S
C247 C139 1.666 . S
C245 C68 1.632 . S
C256 C11 1.531 . S
C258 C234 1.700 . S
C267 C30 1.594 . S
C269 C150 1.696 . S
C278 C49 1.600 . S
C280 C223 1.641 . S
C291 C134 1.476 . S
C289 C2 1.645 . S
C302 C227 1.761 . S
C300 C25 1.756 . S
C311 C40 1.679 . S
C313 C143 1.705 . S
C322 C59 1.653 . S
C324 C218 1.488 . S
C335 C229 1.437 . S
C333 C21 1.597 . S
C346 C145 1.398 . S
C344 C44 1.590 1_556 S
C357 C216 1.662 . S
C355 C63 1.658 . S
C366 C6 1.635 . S
C368 C132 1.649 . S
