# Generated by pormake.
# Topology pyr, (3,6)-cn, num edge types: 1
# Building blocks:
#     Node 0, Type 0, BuildingBlock: ESEHIV_clean_linker_0, # of connection points: 3
#     Node 1, Type 0, BuildingBlock: ESEHIV_clean_linker_0, # of connection points: 3
#     Node 2, Type 0, BuildingBlock: ESEHIV_clean_linker_0, # of connection points: 3
#     Node 3, Type 0, BuildingBlock: ESEHIV_clean_linker_0, # of connection points: 3
#     Node 4, Type 0, BuildingBlock: ESEHIV_clean_linker_0, # of connection points: 3
#     Node 5, Type 0, BuildingBlock: ESEHIV_clean_linker_0, # of connection points: 3
#     Node 6, Type 0, BuildingBlock: ESEHIV_clean_linker_0, # of connection points: 3
#     Node 7, Type 0, BuildingBlock: ESEHIV_clean_linker_0, # of connection points: 3
#     Node 8, Type 1, BuildingBlock: PAMTOO_clean_sbu_0, # of connection points: 6
#     Node 9, Type 1, BuildingBlock: PAMTOO_clean_sbu_0, # of connection points: 6
#     Node 10, Type 1, BuildingBlock: PAMTOO_clean_sbu_0, # of connection points: 6
#     Node 11, Type 1, BuildingBlock: PAMTOO_clean_sbu_0, # of connection points: 6
#     Edge 12, Type (0, 1), BuildingBlock: KIFKEQ_clean_linker_1, # of connection points: 2
#     Edge 13, Type (0, 1), BuildingBlock: KIFKEQ_clean_linker_1, # of connection points: 2
#     Edge 14, Type (0, 1), BuildingBlock: KIFKEQ_clean_linker_1, # of connection points: 2
#     Edge 15, Type (0, 1), BuildingBlock: KIFKEQ_clean_linker_1, # of connection points: 2
#     Edge 16, Type (0, 1), BuildingBlock: KIFKEQ_clean_linker_1, # of connection points: 2
#     Edge 17, Type (0, 1), BuildingBlock: KIFKEQ_clean_linker_1, # of connection points: 2
#     Edge 18, Type (0, 1), BuildingBlock: KIFKEQ_clean_linker_1, # of connection points: 2
#     Edge 19, Type (0, 1), BuildingBlock: KIFKEQ_clean_linker_1, # of connection points: 2
#     Edge 20, Type (0, 1), BuildingBlock: KIFKEQ_clean_linker_1, # of connection points: 2
#     Edge 21, Type (0, 1), BuildingBlock: KIFKEQ_clean_linker_1, # of connection points: 2
#     Edge 22, Type (0, 1), BuildingBlock: KIFKEQ_clean_linker_1, # of connection points: 2
#     Edge 23, Type (0, 1), BuildingBlock: KIFKEQ_clean_linker_1, # of connection points: 2
#     Edge 24, Type (0, 1), BuildingBlock: KIFKEQ_clean_linker_1, # of connection points: 2
#     Edge 25, Type (0, 1), BuildingBlock: KIFKEQ_clean_linker_1, # of connection points: 2
#     Edge 26, Type (0, 1), BuildingBlock: KIFKEQ_clean_linker_1, # of connection points: 2
#     Edge 27, Type (0, 1), BuildingBlock: KIFKEQ_clean_linker_1, # of connection points: 2
#     Edge 28, Type (0, 1), BuildingBlock: KIFKEQ_clean_linker_1, # of connection points: 2
#     Edge 29, Type (0, 1), BuildingBlock: KIFKEQ_clean_linker_1, # of connection points: 2
#     Edge 30, Type (0, 1), BuildingBlock: KIFKEQ_clean_linker_1, # of connection points: 2
#     Edge 31, Type (0, 1), BuildingBlock: KIFKEQ_clean_linker_1, # of connection points: 2
#     Edge 32, Type (0, 1), BuildingBlock: KIFKEQ_clean_linker_1, # of connection points: 2
#     Edge 33, Type (0, 1), BuildingBlock: KIFKEQ_clean_linker_1, # of connection points: 2
#     Edge 34, Type (0, 1), BuildingBlock: KIFKEQ_clean_linker_1, # of connection points: 2
#     Edge 35, Type (0, 1), BuildingBlock: KIFKEQ_clean_linker_1, # of connection points: 2
# Relax obj value: 0.125
# Max RMSD: 0.174
# Mean RMSD: 0.071
data_MOF--net-pyr--node1-PAMTOO_clean_sbu_0--node2-ESEHIV_clean_linker_0--edge1-KIFKEQ_clean_linker_1
_symmetry_space_group_name_H-M    P1
_symmetry_Int_Tables_number       1
_symmetry_cell_setting            triclinic
loop_
_symmetry_equiv_pos_as_xyz
'x, y, z'
_cell_length_a     35.561478
_cell_length_b     37.41496
_cell_length_c     36.521325
_cell_angle_alpha  90.074205
_cell_angle_beta   90.054641
_cell_angle_gamma 104.28797
loop_
_atom_site_label
_atom_site_type_symbol
_atom_site_fract_x
_atom_site_fract_y
_atom_site_fract_z
_atom_type_partial_charge
H0 H 0.32323 0.31568 0.29496 0.0
H1 H 0.41466 0.26091 0.27875 0.0
H2 H 0.35913 0.297 0.18596 0.0
C3 C 0.343 0.30639 0.27686 0.0
C4 C 0.3386 0.30929 0.23885 0.0
C5 C 0.37 0.28858 0.29157 0.0
C6 C 0.39459 0.27565 0.26763 0.0
C7 C 0.39076 0.27823 0.22944 0.0
C8 C 0.36315 0.29582 0.2153 0.0
H9 H 0.11354 0.81164 0.77956 0.0
H10 H 0.207 0.75832 0.79055 0.0
H11 H 0.16672 0.77855 0.68372 0.0
C12 C 0.13366 0.79762 0.76728 0.0
C13 C 0.13643 0.79618 0.72894 0.0
C14 C 0.15921 0.78437 0.78988 0.0
C15 C 0.18627 0.76758 0.77357 0.0
C16 C 0.18926 0.76544 0.73537 0.0
C17 C 0.16373 0.77913 0.71322 0.0
H18 H 0.68514 0.34527 0.92129 0.0
H19 H 0.69211 0.43377 0.84502 0.0
H20 H 0.59793 0.33586 0.83777 0.0
C21 C 0.67283 0.35717 0.89859 0.0
C22 C 0.63844 0.33667 0.88222 0.0
C23 C 0.69206 0.39242 0.88616 0.0
C24 C 0.67768 0.40651 0.85478 0.0
C25 C 0.6439 0.38625 0.83668 0.0
C26 C 0.62421 0.3514 0.85095 0.0
H27 H 0.84494 0.72048 0.42564 0.0
H28 H 0.92726 0.72424 0.33912 0.0
H29 H 0.82708 0.63148 0.34843 0.0
C30 C 0.85472 0.70765 0.40205 0.0
C31 C 0.83264 0.6733 0.38989 0.0
C32 C 0.8886 0.72634 0.38387 0.0
C33 C 0.90052 0.71017 0.3524 0.0
C34 C 0.87889 0.67544 0.33913 0.0
C35 C 0.8446 0.65766 0.35813 0.0
H36 H 0.63203 0.808 0.84342 0.0
H37 H 0.70261 0.73018 0.84935 0.0
H38 H 0.64157 0.7524 0.94462 0.0
C39 C 0.64144 0.78662 0.85817 0.0
C40 C 0.6315 0.78057 0.89527 0.0
C41 C 0.66763 0.76899 0.84155 0.0
C42 C 0.68161 0.74311 0.86177 0.0
C43 C 0.67324 0.73774 0.89915 0.0
C44 C 0.64747 0.75592 0.91556 0.0
H45 H 0.82413 0.33745 0.33511 0.0
H46 H 0.89551 0.26028 0.33109 0.0
H47 H 0.87927 0.31212 0.43299 0.0
C48 C 0.84407 0.32391 0.34844 0.0
C49 C 0.85 0.32798 0.38636 0.0
C50 C 0.86004 0.29933 0.32823 0.0
C51 C 0.88479 0.28082 0.34595 0.0
C52 C 0.89203 0.28532 0.38374 0.0
C53 C 0.87482 0.30931 0.40366 0.0
H54 H 0.3439 0.71947 0.19022 0.0
H55 H 0.32708 0.63235 0.26917 0.0
H56 H 0.42719 0.72545 0.27653 0.0
C57 C 0.35395 0.70727 0.21407 0.0
C58 C 0.38801 0.72646 0.23179 0.0
C59 C 0.33207 0.6732 0.22697 0.0
C60 C 0.34445 0.65833 0.25894 0.0
C61 C 0.37896 0.67654 0.27744 0.0
C62 C 0.40034 0.71104 0.26354 0.0
H63 H 0.10102 0.33442 0.78036 0.0
H64 H 0.1905 0.34206 0.69955 0.0
H65 H 0.19598 0.43194 0.77425 0.0
C66 C 0.12754 0.34992 0.76762 0.0
C67 C 0.14663 0.38516 0.78148 0.0
C68 C 0.14371 0.33394 0.7384 0.0
C69 C 0.17845 0.35392 0.7225 0.0
C70 C 0.19733 0.38929 0.73492 0.0
C71 C 0.18128 0.40473 0.76441 0.0
Dy72 Dy 0.05674 0.04439 0.52976 0.0
Dy73 Dy 0.97137 1.02963 0.56921 0.0
C74 C 0.0413 0.09673 0.59499 0.0
O75 O 0.04925 0.992 0.56044 0.0
O76 O 1.00476 0.99851 0.60378 0.0
O77 O 0.11744 0.04557 0.53429 0.0
O78 O 0.09348 0.05708 0.48214 0.0
O79 O 0.96921 0.97814 0.53747 0.0
O80 O 0.01633 1.00152 0.49489 0.0
O81 O 0.96866 0.05932 0.51676 0.0
O82 O 0.03206 0.09088 0.51203 0.0
O83 O 0.90913 1.01601 0.56353 0.0
O84 O 0.93571 0.03214 0.61649 0.0
C85 C 0.03102 0.98223 0.59138 0.0
O86 O 0.06607 0.07985 0.58042 0.0
O87 O 1.00397 0.0856 0.58821 0.0
C88 C 0.15858 0.08695 0.49486 0.0
C89 C 0.22319 0.14593 0.48072 0.0
C90 C 0.19053 0.15213 0.49898 0.0
C91 C 0.15841 0.12279 0.50605 0.0
C92 C 0.19138 0.08047 0.47768 0.0
C93 C 0.22341 0.10965 0.47064 0.0
C94 C 0.12476 0.05602 0.50044 0.0
C95 C 0.98669 0.97521 0.5063 0.0
C96 C 0.99533 0.08742 0.50447 0.0
C97 C 0.87396 0.99102 0.61612 0.0
C98 C 0.8199 0.93651 0.65434 0.0
C99 C 0.84345 0.92643 0.62732 0.0
C100 C 0.87056 0.95357 0.60842 0.0
C101 C 0.84958 1.00107 0.64213 0.0
C102 C 0.82279 0.97405 0.66116 0.0
C103 C 0.90342 1.02011 0.59838 0.0
H104 H 0.18956 0.1797 0.50724 0.0
H105 H 0.13327 0.12811 0.51966 0.0
H106 H 0.19189 0.05289 0.46897 0.0
H107 H 0.24768 0.10393 0.45588 0.0
H108 H 0.84199 0.89764 0.6219 0.0
H109 H 0.88933 0.94536 0.58844 0.0
H110 H 0.85182 1.02988 0.64827 0.0
H111 H 0.80477 0.98247 0.68173 0.0
Dy112 Dy 0.4685 1.02441 1.03852 0.0
Dy113 Dy 0.55422 0.04011 0.07811 0.0
C114 C 0.48411 0.97185 0.10278 0.0
O115 O 0.46717 0.05598 0.09021 0.0
O116 O 0.5305 0.08781 0.09356 0.0
O117 O 0.40714 1.01715 1.04658 0.0
O118 O 0.43024 1.0181 0.99161 0.0
O119 O 0.5635 0.07618 1.02795 0.0
O120 O 0.50076 0.07901 1.01614 0.0
O121 O 0.54682 0.9874 1.04771 0.0
O122 O 0.5019 0.99311 1.00434 0.0
O123 O 0.61531 0.04267 0.07426 0.0
O124 O 0.58989 0.05141 0.12661 0.0
C125 C 0.49388 0.08487 0.10095 0.0
O126 O 0.46683 0.9737 0.07126 0.0
O127 O 0.51329 0.99882 0.11389 0.0
C128 C 0.36723 0.98127 1.00238 0.0
C129 C 0.30504 0.92145 0.98376 0.0
C130 C 0.33826 0.91536 1.00113 0.0
C131 C 0.36916 0.94511 1.01041 0.0
C132 C 0.33405 0.98753 0.9857 0.0
C133 C 0.30322 0.95791 0.97641 0.0
C134 C 0.39913 1.01286 1.01182 0.0
C135 C 0.53837 0.09144 1.01146 0.0
C136 C 0.52827 0.97713 1.01696 0.0
C137 C 0.65494 0.08265 0.11648 0.0
C138 C 0.71659 0.14262 0.13628 0.0
C139 C 0.69016 0.14659 0.10875 0.0
C140 C 0.65944 0.11681 0.099 0.0
C141 C 0.68179 0.07823 0.14299 0.0
C142 C 0.71228 0.10789 0.15288 0.0
C143 C 0.6217 0.05168 0.10866 0.0
H144 H 0.34046 0.88764 1.00725 0.0
H145 H 0.39462 0.93995 1.0236 0.0
H146 H 0.33216 1.01534 0.97946 0.0
H147 H 0.27851 0.96359 0.96235 0.0
H148 H 0.69277 0.17284 0.09525 0.0
H149 H 0.63883 0.12061 0.0784 0.0
H150 H 0.67855 0.05203 0.15681 0.0
H151 H 0.73143 0.10392 0.17474 0.0
Dy152 Dy 0.50882 0.49629 0.53803 0.0
Dy153 Dy 0.51514 0.57349 0.5828 0.0
C154 C 0.54654 0.50794 0.61765 0.0
O155 O 0.45745 0.48436 0.57538 0.0
O156 O 0.45256 0.54334 0.58717 0.0
O157 O 0.50423 0.43762 0.53958 0.0
O158 O 0.51093 0.46628 0.48778 0.0
O159 O 0.49346 0.58331 0.52688 0.0
O160 O 0.47107 0.52423 0.5048 0.0
O161 O 0.57566 0.57778 0.56163 0.0
O162 O 0.55903 0.53704 0.51405 0.0
O163 O 0.52687 0.63301 0.58419 0.0
O164 O 0.51041 0.60156 0.63367 0.0
C165 C 0.43843 0.50743 0.58874 0.0
O166 O 0.55142 0.49761 0.58398 0.0
O167 O 0.52718 0.53299 0.62381 0.0
C168 C 0.54852 0.42415 0.49763 0.0
C169 C 0.61826 0.40476 0.48104 0.0
C170 C 0.6182 0.4342 0.50492 0.0
C171 C 0.58374 0.44388 0.51296 0.0
C172 C 0.54809 0.39441 0.47422 0.0
C173 C 0.58276 0.38471 0.46598 0.0
C174 C 0.51316 0.43644 0.50506 0.0
C175 C 0.47427 0.56001 0.50235 0.0
C176 C 0.58408 0.56389 0.53041 0.0
C177 C 0.48339 0.65162 0.62401 0.0
C178 C 0.41937 0.68072 0.64022 0.0
C179 C 0.41695 0.65442 0.61222 0.0
C180 C 0.44865 0.63998 0.60424 0.0
C181 C 0.48636 0.67841 0.65138 0.0
C182 C 0.45462 0.69295 0.65939 0.0
C183 C 0.51509 0.63354 0.61792 0.0
H184 H 0.64483 0.44986 0.51742 0.0
H185 H 0.58468 0.46716 0.53088 0.0
H186 H 0.52118 0.37913 0.4619 0.0
H187 H 0.58191 0.36214 0.44716 0.0
H188 H 0.39043 0.64477 0.59666 0.0
H189 H 0.44579 0.61914 0.58308 0.0
H190 H 0.51285 0.68739 0.66714 0.0
H191 H 0.45728 0.71284 0.6814 0.0
Dy192 Dy 0.01468 0.57017 1.03535 0.0
Dy193 Dy 1.00712 0.4924 0.07911 0.0
C194 C 0.97415 0.55701 0.1154 0.0
O195 O 0.07486 0.5741 1.05692 0.0
O196 O 0.05832 0.53209 0.10353 0.0
O197 O 0.02719 0.62976 1.03411 0.0
O198 O 1.00802 0.59829 0.98502 0.0
O199 O 0.05024 0.4935 1.03377 0.0
O200 O 0.02769 0.53034 0.9941 0.0
O201 O 0.95688 0.4812 1.04017 0.0
O202 O 0.95197 0.54052 1.0317 0.0
O203 O 1.00649 0.43442 0.07699 0.0
O204 O 1.00125 0.46055 0.12892 0.0
C205 C 0.08319 0.55961 0.08785 0.0
O206 O 0.99437 0.58029 0.09158 0.0
O207 O 0.96981 0.52115 0.11214 0.0
C208 C 0.97881 0.64591 0.99869 0.0
C209 C 0.90889 0.667 0.98801 0.0
C210 C 0.91244 0.64316 1.01673 0.0
C211 C 0.94706 0.63276 1.02203 0.0
C212 C 0.97593 0.67061 0.97066 0.0
C213 C 0.94122 0.6813 0.96548 0.0
C214 C 0.01253 0.63 1.0014 0.0
C215 C 0.04638 0.50474 1.00022 0.0
C216 C 0.93789 0.50482 1.02809 0.0
C217 C 0.04059 0.41792 0.12698 0.0
C218 C 0.10588 0.39365 0.14995 0.0
C219 C 0.07908 0.37249 0.1252 0.0
C220 C 0.04661 0.38446 0.11394 0.0
C221 C 0.06734 0.43897 0.15188 0.0
C222 C 0.09952 0.42686 0.16334 0.0
C223 C 1.00813 0.43186 0.11251 0.0
H224 H 0.8882 0.63207 1.03475 0.0
H225 H 0.94861 0.61344 1.0437 0.0
H226 H 0.99998 0.68062 0.95213 0.0
H227 H 0.93914 0.69953 0.94295 0.0
H228 H 0.08313 0.34661 0.1147 0.0
H229 H 0.02652 0.36789 0.09459 0.0
H230 H 0.06386 0.46515 0.1621 0.0
H231 H 0.11993 0.44393 0.18212 0.0
H232 H 0.3745 0.22216 0.31975 0.0
H233 H 0.35572 0.32769 0.35188 0.0
H234 H 0.35055 0.19665 0.37827 0.0
H235 H 0.3302 0.3013 0.41069 0.0
H236 H 0.21721 0.21155 0.45184 0.0
H237 H 0.26651 0.25503 0.41758 0.0
H238 H 0.35089 0.19413 0.44607 0.0
H239 H 0.30141 0.15058 0.48092 0.0
C240 C 0.36687 0.24051 0.33979 0.0
C241 C 0.36643 0.27691 0.33065 0.0
C242 C 0.35295 0.22571 0.37357 0.0
C243 C 0.33789 0.2468 0.39889 0.0
C244 C 0.34112 0.28427 0.39142 0.0
C245 C 0.35557 0.29928 0.3577 0.0
C246 C 0.2466 0.2082 0.45213 0.0
C247 C 0.25517 0.17711 0.46839 0.0
C248 C 0.27499 0.23327 0.43251 0.0
C249 C 0.31245 0.22766 0.42867 0.0
C250 C 0.32208 0.19879 0.44812 0.0
C251 C 0.29371 0.17377 0.46788 0.0
H252 H 0.15356 0.84904 0.82157 0.0
H253 H 0.17579 0.74338 0.84764 0.0
H254 H 0.17768 0.87229 0.88091 0.0
H255 H 0.20159 0.7676 0.90722 0.0
H256 H 0.31329 0.8585 0.9504 0.0
H257 H 0.26467 0.81544 0.91479 0.0
H258 H 0.17766 0.87105 0.9491 0.0
H259 H 0.22642 0.91409 0.98536 0.0
C260 C 0.16202 0.83013 0.84044 0.0
C261 C 0.16334 0.79444 0.82938 0.0
C262 C 0.17602 0.84363 0.87468 0.0
C263 C 0.19208 0.82194 0.89852 0.0
C264 C 0.18984 0.78506 0.88912 0.0
C265 C 0.17527 0.77131 0.85495 0.0
C266 C 0.28352 0.86072 0.95162 0.0
C267 C 0.2739 0.89025 0.96999 0.0
C268 C 0.25554 0.83589 0.93124 0.0
C269 C 0.21747 0.84023 0.92875 0.0
C270 C 0.20694 0.86742 0.95015 0.0
C271 C 0.2349 0.89216 0.97067 0.0
H272 H 0.56896 0.38894 0.82033 0.0
H273 H 0.6855 0.42015 0.77756 0.0
H274 H 0.54581 0.41765 0.76741 0.0
H275 H 0.66242 0.44882 0.72474 0.0
H276 H 0.59796 0.4635 0.61678 0.0
H277 H 0.62097 0.43318 0.66862 0.0
H278 H 0.55196 0.481 0.7422 0.0
H279 H 0.52921 0.51149 0.6906 0.0
C280 C 0.58961 0.40162 0.79951 0.0
C281 C 0.62916 0.4022 0.8034 0.0
C282 C 0.57639 0.41841 0.76927 0.0
C283 C 0.60221 0.43576 0.74168 0.0
C284 C 0.6416 0.4356 0.7452 0.0
C285 C 0.6549 0.41934 0.7757 0.0
C286 C 0.5878 0.46772 0.64402 0.0
C287 C 0.56177 0.49019 0.64932 0.0
C288 C 0.6011 0.45036 0.67382 0.0
C289 C 0.58828 0.45444 0.70975 0.0
C290 C 0.56218 0.47682 0.71498 0.0
C291 C 0.54935 0.4946 0.6853 0.0
H292 H 0.91988 0.70856 0.27839 0.0
H293 H 0.86866 0.60098 0.32381 0.0
H294 H 0.94249 0.67975 0.22624 0.0
H295 H 0.88777 0.57221 0.26995 0.0
H296 H 0.95716 0.52704 0.18401 0.0
H297 H 0.93512 0.55517 0.2375 0.0
H298 H 0.92871 0.64973 0.17198 0.0
H299 H 0.95308 0.62242 0.11951 0.0
C300 C 0.91319 0.67875 0.27744 0.0
C301 C 0.89216 0.6575 0.30599 0.0
C302 C 0.92564 0.66199 0.2468 0.0
C303 C 0.91698 0.62324 0.24302 0.0
C304 C 0.89577 0.602 0.2715 0.0
C305 C 0.88397 0.61875 0.30246 0.0
C306 C 0.95082 0.55375 0.18107 0.0
C307 C 0.95707 0.57243 0.14739 0.0
C308 C 0.93792 0.57002 0.21186 0.0
C309 C 0.93007 0.60523 0.20981 0.0
C310 C 0.93528 0.62323 0.17556 0.0
C311 C 0.94895 0.60731 0.14508 0.0
H312 H 0.36044 0.23605 0.17029 0.0
H313 H 0.46563 0.27068 0.23411 0.0
H314 H 0.38839 0.19264 0.13722 0.0
H315 H 0.49285 0.22546 0.20219 0.0
H316 H 0.5382 0.15406 0.11758 0.0
H317 H 0.51626 0.20515 0.14479 0.0
H318 H 0.40056 0.13464 0.15491 0.0
H319 H 0.42208 0.08419 0.12718 0.0
C320 C 0.38988 0.23505 0.17679 0.0
C321 C 0.41068 0.2568 0.20509 0.0
C322 C 0.40566 0.2096 0.15822 0.0
C323 C 0.44248 0.20494 0.16766 0.0
C324 C 0.46436 0.22828 0.1943 0.0
C325 C 0.44864 0.254 0.21278 0.0
C326 C 0.50814 0.14948 0.12584 0.0
C327 C 0.48185 0.11509 0.12009 0.0
C328 C 0.49559 0.17875 0.14141 0.0
C329 C 0.45654 0.17415 0.15151 0.0
C330 C 0.43061 0.13945 0.14656 0.0
C331 C 0.44306 0.11036 0.13096 0.0
H332 H 0.06119 0.80264 0.73575 0.0
H333 H 0.16518 0.84042 0.67116 0.0
H334 H 0.03058 0.84472 0.70228 0.0
H335 H 0.13469 0.88162 0.63784 0.0
H336 H 0.06281 0.92971 0.56272 0.0
H337 H 0.08266 0.8805 0.59435 0.0
H338 H 0.03891 0.91319 0.69608 0.0
H339 H 0.01804 0.96263 0.66392 0.0
C340 C 0.07735 0.81957 0.71421 0.0
C341 C 0.11553 0.81785 0.70593 0.0
C342 C 0.05987 0.84372 0.69519 0.0
C343 C 0.08016 0.86639 0.66736 0.0
C344 C 0.11795 0.86402 0.65863 0.0
C345 C 0.1354 0.84014 0.67765 0.0
C346 C 0.05722 0.92648 0.59184 0.0
C347 C 0.03956 0.95059 0.61101 0.0
C348 C 0.06863 0.89819 0.60995 0.0
C349 C 0.06299 0.89335 0.6478 0.0
C350 C 0.04356 0.91622 0.66683 0.0
C351 C 0.0318 0.94461 0.64851 0.0
H352 H 0.7029 0.3961 0.9605 0.0
H353 H 0.75998 0.43807 0.85937 0.0
H354 H 0.76146 0.42459 0.99452 0.0
H355 H 0.8184 0.46807 0.89413 0.0
H356 H 0.90137 0.54259 0.98115 0.0
H357 H 0.8416 0.51849 0.94615 0.0
H358 H 0.82991 0.41163 0.99554 0.0
H359 H 0.88985 0.43533 1.02998 0.0
C360 C 0.72791 0.41138 0.94539 0.0
C361 C 0.72677 0.41394 0.9069 0.0
C362 C 0.76144 0.42788 0.96505 0.0
C363 C 0.79468 0.44817 0.947 0.0
C364 C 0.79315 0.45258 0.90879 0.0
C365 C 0.75962 0.43549 0.8889 0.0
C366 C 0.88594 0.51399 0.9847 0.0
C367 C 0.9004 0.49089 1.00849 0.0
C368 C 0.85188 0.50017 0.96443 0.0
C369 C 0.83109 0.46319 0.96808 0.0
C370 C 0.84519 0.44032 0.9923 0.0
C371 C 0.87958 0.45389 1.01199 0.0
H372 H 0.82365 0.66725 0.46434 0.0
H373 H 0.76093 0.63676 0.3632 0.0
H374 H 0.76494 0.64073 0.49904 0.0
H375 H 0.70204 0.61011 0.39796 0.0
H376 H 0.61279 0.53516 0.47099 0.0
H377 H 0.67275 0.55985 0.43801 0.0
H378 H 0.70198 0.65133 0.5137 0.0
H379 H 0.64172 0.62615 0.54735 0.0
C380 C 0.79727 0.65498 0.44944 0.0
C381 C 0.7971 0.6544 0.41085 0.0
C382 C 0.7635 0.63984 0.46942 0.0
C383 C 0.7285 0.62345 0.45145 0.0
C384 C 0.72849 0.62213 0.41285 0.0
C385 C 0.76233 0.63736 0.39282 0.0
C386 C 0.63188 0.56058 0.48079 0.0
C387 C 0.62209 0.57877 0.51185 0.0
C388 C 0.66633 0.57487 0.46161 0.0
C389 C 0.69222 0.60783 0.47282 0.0
C390 C 0.68291 0.62572 0.50436 0.0
C391 C 0.64828 0.61136 0.52365 0.0
H392 H 0.33643 0.35427 0.17966 0.0
H393 H 0.26422 0.29152 0.26414 0.0
H394 H 0.28033 0.37467 0.15658 0.0
H395 H 0.20903 0.31243 0.24171 0.0
H396 H 0.13343 0.39241 0.21939 0.0
H397 H 0.19074 0.37291 0.23936 0.0
H398 H 0.21377 0.34733 0.12753 0.0
H399 H 0.15644 0.36733 0.1074 0.0
C400 C 0.3087 0.34485 0.19326 0.0
C401 C 0.30503 0.3219 0.22419 0.0
C402 C 0.27666 0.35647 0.18006 0.0
C403 C 0.2405 0.34547 0.19768 0.0
C404 C 0.23674 0.322 0.22809 0.0
C405 C 0.26849 0.31021 0.24104 0.0
C406 C 0.15085 0.38282 0.19905 0.0
C407 C 0.14047 0.38131 0.16187 0.0
C408 C 0.18348 0.37145 0.21049 0.0
C409 C 0.20663 0.35856 0.18498 0.0
C410 C 0.19656 0.35739 0.14772 0.0
C411 C 0.1636 0.36845 0.13628 0.0
H412 H 0.62925 0.31933 0.95502 0.0
H413 H 0.6018 0.27099 0.84779 0.0
H414 H 0.60594 0.25905 0.983 0.0
H415 H 0.57653 0.21032 0.87648 0.0
H416 H 0.49932 0.11935 0.958 0.0
H417 H 0.52118 0.17739 0.92423 0.0
H418 H 0.63105 0.19882 0.98071 0.0
H419 H 0.60968 0.14059 1.0139 0.0
C420 C 0.61822 0.29587 0.93727 0.0
C421 C 0.61841 0.30019 0.89888 0.0
C422 C 0.60474 0.26124 0.95346 0.0
C423 C 0.59005 0.22977 0.93198 0.0
C424 C 0.58791 0.23409 0.89376 0.0
C425 C 0.60216 0.2689 0.87734 0.0
C426 C 0.52833 0.13623 0.96293 0.0
C427 C 0.55271 0.12523 0.98877 0.0
C428 C 0.54086 0.16941 0.94344 0.0
C429 C 0.57775 0.1928 0.94991 0.0
C430 C 0.60236 0.18151 0.97526 0.0
C431 C 0.59017 0.14801 0.99416 0.0
H432 H 0.91045 0.74293 0.45457 0.0
H433 H 0.91623 0.79217 0.34734 0.0
H434 H 0.9364 0.80342 0.48173 0.0
H435 H 0.94227 0.85339 0.37472 0.0
H436 H 0.01598 0.95517 0.44128 0.0
H437 H 0.99678 0.89549 0.40961 0.0
H438 H 0.90936 0.85624 0.49191 0.0
H439 H 0.92843 0.91503 0.52342 0.0
C440 C 0.91762 0.76674 0.43672 0.0
C441 C 0.91076 0.76272 0.39882 0.0
C442 C 0.93232 0.80153 0.45233 0.0
C443 C 0.94066 0.83352 0.43059 0.0
C444 C 0.93612 0.82939 0.39233 0.0
C445 C 0.92131 0.79432 0.3766 0.0
C446 C 0.99252 0.93384 0.45248 0.0
C447 C 0.97396 0.94007 0.48511 0.0
C448 C 0.98147 0.89964 0.43425 0.0
C449 C 0.95186 0.87076 0.44842 0.0
C450 C 0.93285 0.87744 0.48055 0.0
C451 C 0.94367 0.91145 0.49855 0.0
H452 H 0.26499 0.78517 0.75658 0.0
H453 H 0.1885 0.71928 0.67665 0.0
H454 H 0.31951 0.76521 0.73111 0.0
H455 H 0.24373 0.7001 0.65012 0.0
H456 H 0.34423 0.64043 0.64665 0.0
H457 H 0.28805 0.66166 0.66666 0.0
H458 H 0.36007 0.77254 0.67703 0.0
H459 H 0.41631 0.75128 0.65707 0.0
C460 C 0.25979 0.76624 0.7336 0.0
C461 C 0.2223 0.75333 0.71896 0.0
C462 C 0.2912 0.75524 0.71863 0.0
C463 C 0.28603 0.73114 0.68851 0.0
C464 C 0.24859 0.71845 0.67355 0.0
C465 C 0.21704 0.72958 0.68854 0.0
C466 C 0.34797 0.66946 0.65265 0.0
C467 C 0.3848 0.69416 0.65043 0.0
C468 C 0.31573 0.68162 0.66409 0.0
C469 C 0.31959 0.71875 0.67361 0.0
C470 C 0.35624 0.74362 0.6705 0.0
C471 C 0.38848 0.73146 0.65909 0.0
H472 H 0.7449 0.78369 0.82707 0.0
H473 H 0.63563 0.79013 0.77877 0.0
H474 H 0.77952 0.8192 0.77684 0.0
H475 H 0.67121 0.82703 0.72837 0.0
H476 H 0.76663 0.8733 0.63342 0.0
H477 H 0.72686 0.8262 0.67396 0.0
H478 H 0.77839 0.88951 0.76818 0.0
H479 H 0.81755 0.93613 0.72822 0.0
C480 C 0.72806 0.79149 0.80512 0.0
C481 C 0.68734 0.78396 0.80701 0.0
C482 C 0.74807 0.81221 0.77651 0.0
C483 C 0.72796 0.82604 0.74916 0.0
C484 C 0.68722 0.81648 0.74927 0.0
C485 C 0.66699 0.79565 0.77814 0.0
C486 C 0.76921 0.87697 0.66282 0.0
C487 C 0.79494 0.90828 0.67782 0.0
C488 C 0.74646 0.85027 0.68584 0.0
C489 C 0.74994 0.85432 0.72399 0.0
C490 C 0.7755 0.88571 0.73879 0.0
C491 C 0.79765 0.91246 0.71597 0.0
H492 H 0.89981 0.28334 0.26804 0.0
H493 H 0.78528 0.28699 0.30474 0.0
H494 H 0.87167 0.25438 0.21076 0.0
H495 H 0.75773 0.25886 0.24835 0.0
H496 H 0.70861 0.21283 0.14694 0.0
H497 H 0.75035 0.26114 0.18333 0.0
H498 H 0.83152 0.19321 0.1972 0.0
H499 H 0.79102 0.14584 0.15881 0.0
C500 C 0.86885 0.27867 0.26363 0.0
C501 C 0.84489 0.28763 0.29099 0.0
C502 C 0.85276 0.26215 0.23086 0.0
C503 C 0.81245 0.25437 0.22488 0.0
C504 C 0.78896 0.26519 0.25148 0.0
C505 C 0.8049 0.28145 0.28406 0.0
C506 C 0.73609 0.20872 0.15644 0.0
C507 C 0.74596 0.175 0.15074 0.0
C508 C 0.75986 0.23632 0.17768 0.0
C509 C 0.79372 0.23063 0.19403 0.0
C510 C 0.8056 0.19854 0.18516 0.0
C511 C 0.78204 0.17109 0.16357 0.0
H512 H 0.42033 0.71051 0.33785 0.0
H513 H 0.36942 0.60237 0.29319 0.0
H514 H 0.44306 0.68229 0.39044 0.0
H515 H 0.38871 0.57425 0.34729 0.0
H516 H 0.45809 0.52999 0.43358 0.0
H517 H 0.4364 0.55785 0.37982 0.0
H518 H 0.42901 0.6525 0.44498 0.0
H519 H 0.45296 0.62539 0.49786 0.0
C520 C 0.41373 0.68072 0.33907 0.0
C521 C 0.39267 0.6591 0.31067 0.0
C522 C 0.42627 0.66431 0.36992 0.0
C523 C 0.41774 0.62559 0.37395 0.0
C524 C 0.39661 0.60403 0.34555 0.0
C525 C 0.38469 0.62041 0.31445 0.0
C526 C 0.45158 0.55665 0.43643 0.0
C527 C 0.4574 0.57537 0.47016 0.0
C528 C 0.43889 0.57277 0.40546 0.0
C529 C 0.43083 0.6079 0.40734 0.0
C530 C 0.43571 0.62601 0.44159 0.0
C531 C 0.44912 0.61021 0.47229 0.0
H532 H 0.18721 0.41874 0.84127 0.0
H533 H 0.07151 0.38846 0.79614 0.0
H534 H 0.16332 0.44698 0.89391 0.0
H535 H 0.04752 0.4168 0.84895 0.0
H536 H 0.03042 0.50984 0.92715 0.0
H537 H 0.05371 0.48004 0.87533 0.0
H538 H 0.12069 0.43004 0.94901 0.0
H539 H 0.09713 0.45966 1.00105 0.0
C540 C 0.15663 0.41815 0.84253 0.0
C541 C 0.13136 0.4014 0.81424 0.0
C542 C 0.14286 0.43411 0.87293 0.0
C543 C 0.10345 0.43433 0.87581 0.0
C544 C 0.0781 0.41747 0.84758 0.0
C545 C 0.09179 0.40095 0.8174 0.0
C546 C 0.05022 0.49261 0.93242 0.0
C547 C 0.06193 0.48738 0.96849 0.0
C548 C 0.06336 0.47524 0.90262 0.0
C549 C 0.08906 0.45247 0.90783 0.0
C550 C 0.10114 0.44755 0.94385 0.0
C551 C 0.08753 0.4645 0.97376 0.0
H552 H 0.56581 0.80038 0.87258 0.0
H553 H 0.65079 0.81724 0.95952 0.0
H554 H 0.53501 0.84504 0.90152 0.0
H555 H 0.62085 0.86182 0.98787 0.0
H556 H 0.54619 0.91864 1.04907 0.0
H557 H 0.5648 0.8673 1.01996 0.0
H558 H 0.54706 0.91094 0.91353 0.0
H559 H 0.52665 0.96198 0.94318 0.0
C560 C 0.57766 0.8134 0.898 0.0
C561 C 0.61034 0.80489 0.91407 0.0
C562 C 0.56021 0.83909 0.91444 0.0
C563 C 0.57525 0.85686 0.94717 0.0
C564 C 0.60779 0.84802 0.96321 0.0
C565 C 0.625 0.82234 0.94697 0.0
C566 C 0.54601 0.91717 1.01943 0.0
C567 C 0.53572 0.94461 0.9983 0.0
C568 C 0.5568 0.88778 1.00272 0.0
C569 C 0.55831 0.88538 0.96439 0.0
C570 C 0.54613 0.91189 0.94314 0.0
C571 C 0.53463 0.94119 0.96002 0.0
H572 H 0.95849 0.26556 0.36349 0.0
H573 H 0.87002 0.24777 0.44719 0.0
H574 H 0.98599 0.2182 0.39157 0.0
H575 H 0.89799 0.20156 0.47555 0.0
H576 H 0.92176 0.08879 0.48495 0.0
H577 H 0.90025 0.13873 0.45615 0.0
H578 H 0.01895 0.20285 0.449 0.0
H579 H 0.04086 0.15245 0.4778 0.0
C580 C 0.9453 0.25194 0.38813 0.0
C581 C 0.91211 0.26044 0.40311 0.0
C582 C 0.96114 0.22503 0.40427 0.0
C583 C 0.94384 0.20592 0.43547 0.0
C584 C 0.9116 0.21545 0.45118 0.0
C585 C 0.89591 0.24234 0.4352 0.0
C586 C 0.94344 0.11336 0.47709 0.0
C587 C 0.98305 0.11668 0.48392 0.0
C588 C 0.93103 0.14211 0.46079 0.0
C589 C 0.95787 0.1749 0.45086 0.0
C590 C 0.99763 0.17785 0.4564 0.0
C591 C 0.01012 0.14902 0.47291 0.0
H592 H 0.26063 0.63747 0.25457 0.0
H593 H 0.32254 0.66482 0.15276 0.0
H594 H 0.20148 0.6096 0.22046 0.0
H595 H 0.26365 0.63697 0.11871 0.0
H596 H 0.14098 0.62109 0.06998 0.0
H597 H 0.20107 0.64715 0.10348 0.0
H598 H 0.17124 0.55837 0.18191 0.0
H599 H 0.1112 0.53283 0.14903 0.0
C600 C 0.26178 0.63712 0.22495 0.0
C601 C 0.29638 0.65366 0.20651 0.0
C602 C 0.22781 0.62115 0.2053 0.0
C603 C 0.22754 0.62121 0.16668 0.0
C604 C 0.2624 0.63705 0.14834 0.0
C605 C 0.29628 0.65297 0.16793 0.0
C606 C 0.14732 0.60705 0.09426 0.0
C607 C 0.12099 0.57491 0.10674 0.0
C608 C 0.18191 0.62192 0.11347 0.0
C609 C 0.19109 0.60502 0.14564 0.0
C610 C 0.16497 0.57259 0.15771 0.0
C611 C 0.1305 0.55777 0.13859 0.0
H612 H 0.26079 0.3636 0.71922 0.0
H613 H 0.21617 0.46032 0.70872 0.0
H614 H 0.31794 0.39357 0.68411 0.0
H615 H 0.27303 0.49029 0.67234 0.0
H616 H 0.3985 0.54381 0.63408 0.0
H617 H 0.34117 0.51721 0.67091 0.0
H618 H 0.33606 0.4102 0.62354 0.0
H619 H 0.39394 0.43648 0.58796 0.0
C620 C 0.26325 0.39136 0.7093 0.0
C621 C 0.23384 0.40949 0.71656 0.0
C622 C 0.29592 0.40852 0.68884 0.0
C623 C 0.30003 0.44424 0.6746 0.0
C624 C 0.27113 0.46289 0.68291 0.0
C625 C 0.23849 0.44575 0.70379 0.0
C626 C 0.38493 0.51464 0.63133 0.0
C627 C 0.4011 0.49226 0.60818 0.0
C628 C 0.35192 0.49936 0.65245 0.0
C629 C 0.33405 0.46133 0.65079 0.0
C630 C 0.34948 0.43935 0.6265 0.0
C631 C 0.3826 0.45453 0.60571 0.0
H632 H 0.71328 0.76562 0.96044 0.0
H633 H 0.69196 0.67194 0.88736 0.0
H634 H 0.76755 0.74605 0.9877 0.0
H635 H 0.74664 0.65255 0.9144 0.0
H636 H 0.83773 0.61851 0.98536 0.0
H637 H 0.77528 0.63162 0.97121 0.0
H638 H 0.83218 0.74711 0.95906 0.0
H639 H 0.89455 0.73406 0.97362 0.0
C640 C 0.71931 0.74012 0.95109 0.0
C641 C 0.69843 0.72029 0.92172 0.0
C642 C 0.75073 0.72923 0.96636 0.0
C643 C 0.76168 0.69816 0.95275 0.0
C644 C 0.73883 0.6766 0.92547 0.0
C645 C 0.70757 0.68767 0.90998 0.0
C646 C 0.83677 0.64677 0.98016 0.0
C647 C 0.87097 0.67532 0.9806 0.0
C648 C 0.80109 0.65419 0.97187 0.0
C649 C 0.79884 0.69037 0.96424 0.0
C650 C 0.83295 0.71901 0.96535 0.0
C651 C 0.86869 0.71154 0.97327 0.0
H652 H 0.41536 0.79349 0.26656 0.0
H653 H 0.40953 0.74099 0.16079 0.0
H654 H 0.44077 0.85392 0.23754 0.0
H655 H 0.43493 0.80067 0.13201 0.0
H656 H 0.42649 0.91067 0.08667 0.0
H657 H 0.40784 0.85284 0.11973 0.0
H658 H 0.49458 0.89544 0.20203 0.0
H659 H 0.5133 0.95414 0.16881 0.0
C660 C 0.42031 0.79476 0.23728 0.0
C661 C 0.40995 0.76245 0.21594 0.0
C662 C 0.43476 0.82939 0.2206 0.0
C663 C 0.43912 0.83237 0.18225 0.0
C664 C 0.43096 0.79969 0.16143 0.0
C665 C 0.41661 0.76536 0.17798 0.0
C666 C 0.44167 0.90802 0.11186 0.0
C667 C 0.47161 0.9373 0.12485 0.0
C668 C 0.43109 0.87455 0.13077 0.0
C669 C 0.45003 0.86908 0.16338 0.0
C670 C 0.47931 0.89863 0.17706 0.0
C671 C 0.49009 0.93229 0.15793 0.0
H672 H 0.06983 0.30717 0.71161 0.0
H673 H 0.17717 0.27632 0.7308 0.0
H674 H 0.04456 0.24935 0.67835 0.0
H675 H 0.15179 0.21802 0.69914 0.0
H676 H 0.11605 0.13854 0.60361 0.0
H677 H 0.13871 0.19399 0.64046 0.0
H678 H 0.02156 0.18504 0.67815 0.0
H679 H 0.99884 0.13047 0.64008 0.0
C680 C 0.08761 0.28754 0.70952 0.0
C681 C 0.12549 0.29634 0.72375 0.0
C682 C 0.0732 0.25429 0.69039 0.0
C683 C 0.09619 0.22879 0.68535 0.0
C684 C 0.13343 0.23709 0.70132 0.0
C685 C 0.14791 0.27041 0.71995 0.0
C686 C 0.09514 0.1483 0.61987 0.0
C687 C 0.05559 0.12987 0.61875 0.0
C688 C 0.10816 0.18014 0.64132 0.0
C689 C 0.08213 0.19437 0.66272 0.0
C690 C 0.04258 0.17559 0.66179 0.0
C691 C 0.02951 0.14398 0.64003 0.0
H692 H 0.82988 0.39273 0.372 0.0
H693 H 0.81073 0.30245 0.44896 0.0
H694 H 0.77602 0.41318 0.39881 0.0
H695 H 0.75806 0.32381 0.47679 0.0
H696 H 0.6324 0.33642 0.47348 0.0
H697 H 0.69296 0.32181 0.45589 0.0
H698 H 0.74926 0.4381 0.45085 0.0
H699 H 0.68825 0.45272 0.46675 0.0
C700 C 0.81483 0.37785 0.39527 0.0
C701 C 0.82436 0.34579 0.40809 0.0
C702 C 0.78408 0.38967 0.41079 0.0
C703 C 0.76231 0.36973 0.43956 0.0
C704 C 0.77375 0.33932 0.45416 0.0
C705 C 0.80441 0.32744 0.43858 0.0
C706 C 0.65763 0.35885 0.4684 0.0
C707 C 0.65542 0.3957 0.47141 0.0
C708 C 0.69253 0.3505 0.45887 0.0
C709 C 0.72605 0.37881 0.45217 0.0
C710 C 0.72394 0.41566 0.45561 0.0
C711 C 0.68903 0.42401 0.46507 0.0
loop_
_geom_bond_atom_site_label_1
_geom_bond_atom_site_label_2
_geom_bond_distance
_geom_bond_site_symmetry_2
_ccdc_geom_bond_type
H0 C3 0.931 . S
H1 C6 0.928 . S
H2 C8 0.930 . S
C3 H0 0.931 . S
C3 C4 1.413 . S
C3 C5 1.360 . S
C4 C3 1.413 . S
C4 C8 1.429 . S
C5 C3 1.360 . S
C5 C6 1.372 . S
C6 H1 0.928 . S
C6 C5 1.372 . S
C6 C7 1.404 . S
C7 C6 1.404 . S
C7 C8 1.391 . S
C8 H2 0.930 . S
C8 C4 1.429 . S
C8 C7 1.391 . S
H9 C12 0.931 . S
H10 C15 0.928 . S
H11 C17 0.930 . S
C12 H9 0.931 . S
C12 C13 1.413 . S
C12 C14 1.360 . S
C13 C12 1.413 . S
C13 C17 1.429 . S
C14 C12 1.360 . S
C14 C15 1.372 . S
C15 H10 0.928 . S
C15 C14 1.372 . S
C15 C16 1.404 . S
C16 C15 1.404 . S
C16 C17 1.391 . S
C17 H11 0.930 . S
C17 C13 1.429 . S
C17 C16 1.391 . S
H18 C21 0.931 . S
H19 C24 0.928 . S
H20 C26 0.930 . S
C21 H18 0.931 . S
C21 C22 1.413 . S
C21 C23 1.360 . S
C22 C21 1.413 . S
C22 C26 1.429 . S
C23 C21 1.360 . S
C23 C24 1.372 . S
C24 H19 0.928 . S
C24 C23 1.372 . S
C24 C25 1.404 . S
C25 C24 1.404 . S
C25 C26 1.391 . S
C26 H20 0.930 . S
C26 C22 1.429 . S
C26 C25 1.391 . S
H27 C30 0.931 . S
H28 C33 0.928 . S
H29 C35 0.930 . S
C30 H27 0.931 . S
C30 C31 1.413 . S
C30 C32 1.360 . S
C31 C30 1.413 . S
C31 C35 1.429 . S
C32 C30 1.360 . S
C32 C33 1.372 . S
C33 H28 0.928 . S
C33 C32 1.372 . S
C33 C34 1.404 . S
C34 C33 1.404 . S
C34 C35 1.391 . S
C35 H29 0.930 . S
C35 C31 1.429 . S
C35 C34 1.391 . S
H36 C39 0.931 . S
H37 C42 0.928 . S
H38 C44 0.930 . S
C39 H36 0.931 . S
C39 C40 1.413 . S
C39 C41 1.360 . S
C40 C39 1.413 . S
C40 C44 1.429 . S
C41 C39 1.360 . S
C41 C42 1.372 . S
C42 H37 0.928 . S
C42 C41 1.372 . S
C42 C43 1.404 . S
C43 C42 1.404 . S
C43 C44 1.391 . S
C44 H38 0.930 . S
C44 C40 1.429 . S
C44 C43 1.391 . S
H45 C48 0.931 . S
H46 C51 0.928 . S
H47 C53 0.930 . S
C48 H45 0.931 . S
C48 C49 1.413 . S
C48 C50 1.360 . S
C49 C48 1.413 . S
C49 C53 1.429 . S
C50 C48 1.360 . S
C50 C51 1.372 . S
C51 H46 0.928 . S
C51 C50 1.372 . S
C51 C52 1.404 . S
C52 C51 1.404 . S
C52 C53 1.391 . S
C53 H47 0.930 . S
C53 C49 1.429 . S
C53 C52 1.391 . S
H54 C57 0.931 . S
H55 C60 0.928 . S
H56 C62 0.930 . S
C57 H54 0.931 . S
C57 C58 1.413 . S
C57 C59 1.360 . S
C58 C57 1.413 . S
C58 C62 1.429 . S
C59 C57 1.360 . S
C59 C60 1.372 . S
C60 H55 0.928 . S
C60 C59 1.372 . S
C60 C61 1.404 . S
C61 C60 1.404 . S
C61 C62 1.391 . S
C62 H56 0.930 . S
C62 C58 1.429 . S
C62 C61 1.391 . S
H63 C66 0.931 . S
H64 C69 0.928 . S
H65 C71 0.930 . S
C66 H63 0.931 . S
C66 C67 1.413 . S
C66 C68 1.360 . S
C67 C66 1.413 . S
C67 C71 1.429 . S
C68 C66 1.360 . S
C68 C69 1.372 . S
C69 H64 0.928 . S
C69 C68 1.372 . S
C69 C70 1.404 . S
C70 C69 1.404 . S
C70 C71 1.391 . S
C71 H65 0.930 . S
C71 C67 1.429 . S
C71 C70 1.391 . S
Dy72 O75 2.307 1_545 S
Dy72 O77 2.395 . S
Dy72 O78 2.379 . S
Dy72 O80 2.339 1_545 S
Dy72 O82 2.298 . S
Dy72 O86 2.275 . S
Dy72 C94 2.738 . S
Dy73 O76 2.298 1_655 S
Dy73 O79 2.275 . S
Dy73 O81 2.307 1_565 S
Dy73 O83 2.395 . S
Dy73 O84 2.379 . S
Dy73 O87 2.339 1_565 S
Dy73 C103 2.738 . S
C74 O86 1.254 . S
C74 O87 1.257 1_455 S
O75 Dy72 2.307 1_565 S
O75 C85 1.266 . S
O76 Dy73 2.298 1_455 S
O76 C85 1.236 . S
O77 Dy72 2.395 . S
O77 C94 1.255 . S
O78 Dy72 2.379 . S
O78 C94 1.249 . S
O79 Dy73 2.275 . S
O79 C95 1.254 . S
O80 Dy72 2.339 1_565 S
O80 C95 1.257 1_455 S
O81 Dy73 2.307 1_545 S
O81 C96 1.266 . S
O82 Dy72 2.298 . S
O82 C96 1.236 1_455 S
O83 Dy73 2.395 . S
O83 C103 1.255 . S
O84 Dy73 2.379 . S
O84 C103 1.249 . S
C85 O75 1.266 . S
C85 O76 1.236 . S
O86 Dy72 2.275 . S
O86 C74 1.254 . S
O87 Dy73 2.339 1_545 S
O87 C74 1.257 1_655 S
C88 C91 1.344 . S
C88 C92 1.328 . S
C88 C94 1.516 . S
C89 C90 1.304 . S
C89 C93 1.323 . S
C90 C89 1.304 . S
C90 C91 1.371 . S
C90 H104 0.930 . S
C91 C88 1.344 . S
C91 C90 1.371 . S
C91 H105 0.931 . S
C92 C88 1.328 . S
C92 C93 1.433 . S
C92 H106 0.931 . S
C93 C89 1.323 . S
C93 C92 1.433 . S
C93 H107 0.933 . S
C94 Dy72 2.738 . S
C94 O77 1.255 . S
C94 O78 1.249 . S
C94 C88 1.516 . S
C95 O79 1.254 . S
C95 O80 1.257 1_655 S
C96 O81 1.266 . S
C96 O82 1.236 1_655 S
C97 C100 1.344 . S
C97 C101 1.328 . S
C97 C103 1.516 . S
C98 C99 1.304 . S
C98 C102 1.323 . S
C99 C98 1.304 . S
C99 C100 1.371 . S
C99 H108 0.930 . S
C100 C97 1.344 . S
C100 C99 1.371 . S
C100 H109 0.931 . S
C101 C97 1.328 . S
C101 C102 1.433 . S
C101 H110 0.931 . S
C102 C98 1.323 . S
C102 C101 1.433 . S
C102 H111 0.933 . S
C103 Dy73 2.738 . S
C103 O83 1.255 . S
C103 O84 1.249 . S
C103 C97 1.516 . S
H104 C90 0.930 . S
H105 C91 0.931 . S
H106 C92 0.931 . S
H107 C93 0.933 . S
H108 C99 0.930 . S
H109 C100 0.931 . S
H110 C101 0.931 . S
H111 C102 0.933 . S
Dy112 O115 2.307 1_566 S
Dy112 O117 2.395 . S
Dy112 O118 2.379 . S
Dy112 O120 2.339 1_565 S
Dy112 O122 2.298 . S
Dy112 O126 2.275 1_556 S
Dy112 C134 2.738 . S
Dy113 O116 2.298 . S
Dy113 O119 2.275 1_554 S
Dy113 O121 2.307 1_544 S
Dy113 O123 2.395 . S
Dy113 O124 2.379 . S
Dy113 O127 2.339 1_545 S
Dy113 C143 2.738 . S
C114 O126 1.254 . S
C114 O127 1.257 . S
O115 Dy112 2.307 1_544 S
O115 C125 1.266 . S
O116 Dy113 2.298 . S
O116 C125 1.236 . S
O117 Dy112 2.395 . S
O117 C134 1.255 . S
O118 Dy112 2.379 . S
O118 C134 1.249 . S
O119 Dy113 2.275 1_556 S
O119 C135 1.254 . S
O120 Dy112 2.339 1_545 S
O120 C135 1.257 . S
O121 Dy113 2.307 1_566 S
O121 C136 1.266 . S
O122 Dy112 2.298 . S
O122 C136 1.236 . S
O123 Dy113 2.395 . S
O123 C143 1.255 . S
O124 Dy113 2.379 . S
O124 C143 1.249 . S
C125 O115 1.266 . S
C125 O116 1.236 . S
O126 Dy112 2.275 1_554 S
O126 C114 1.254 . S
O127 Dy113 2.339 1_565 S
O127 C114 1.257 . S
C128 C131 1.344 . S
C128 C132 1.328 . S
C128 C134 1.516 . S
C129 C130 1.304 . S
C129 C133 1.323 . S
C130 C129 1.304 . S
C130 C131 1.371 . S
C130 H144 0.930 . S
C131 C128 1.344 . S
C131 C130 1.371 . S
C131 H145 0.931 . S
C132 C128 1.328 . S
C132 C133 1.433 . S
C132 H146 0.931 . S
C133 C129 1.323 . S
C133 C132 1.433 . S
C133 H147 0.933 . S
C134 Dy112 2.738 . S
C134 O117 1.255 . S
C134 O118 1.249 . S
C134 C128 1.516 . S
C135 O119 1.254 . S
C135 O120 1.257 . S
C136 O121 1.266 . S
C136 O122 1.236 . S
C137 C140 1.344 . S
C137 C141 1.328 . S
C137 C143 1.516 . S
C138 C139 1.304 . S
C138 C142 1.323 . S
C139 C138 1.304 . S
C139 C140 1.371 . S
C139 H148 0.930 . S
C140 C137 1.344 . S
C140 C139 1.371 . S
C140 H149 0.931 . S
C141 C137 1.328 . S
C141 C142 1.433 . S
C141 H150 0.931 . S
C142 C138 1.323 . S
C142 C141 1.433 . S
C142 H151 0.933 . S
C143 Dy113 2.738 . S
C143 O123 1.255 . S
C143 O124 1.249 . S
C143 C137 1.516 . S
H144 C130 0.930 . S
H145 C131 0.931 . S
H146 C132 0.931 . S
H147 C133 0.933 . S
H148 C139 0.930 . S
H149 C140 0.931 . S
H150 C141 0.931 . S
H151 C142 0.933 . S
Dy152 O155 2.307 . S
Dy152 O157 2.395 . S
Dy152 O158 2.379 . S
Dy152 O160 2.339 . S
Dy152 O162 2.298 . S
Dy152 O166 2.275 . S
Dy152 C174 2.738 . S
Dy153 O156 2.298 . S
Dy153 O159 2.275 . S
Dy153 O161 2.307 . S
Dy153 O163 2.395 . S
Dy153 O164 2.379 . S
Dy153 O167 2.339 . S
Dy153 C183 2.738 . S
C154 O166 1.254 . S
C154 O167 1.257 . S
O155 Dy152 2.307 . S
O155 C165 1.266 . S
O156 Dy153 2.298 . S
O156 C165 1.236 . S
O157 Dy152 2.395 . S
O157 C174 1.255 . S
O158 Dy152 2.379 . S
O158 C174 1.249 . S
O159 Dy153 2.275 . S
O159 C175 1.254 . S
O160 Dy152 2.339 . S
O160 C175 1.257 . S
O161 Dy153 2.307 . S
O161 C176 1.266 . S
O162 Dy152 2.298 . S
O162 C176 1.236 . S
O163 Dy153 2.395 . S
O163 C183 1.255 . S
O164 Dy153 2.379 . S
O164 C183 1.249 . S
C165 O155 1.266 . S
C165 O156 1.236 . S
O166 Dy152 2.275 . S
O166 C154 1.254 . S
O167 Dy153 2.339 . S
O167 C154 1.257 . S
C168 C171 1.344 . S
C168 C172 1.328 . S
C168 C174 1.516 . S
C169 C170 1.304 . S
C169 C173 1.323 . S
C170 C169 1.304 . S
C170 C171 1.371 . S
C170 H184 0.930 . S
C171 C168 1.344 . S
C171 C170 1.371 . S
C171 H185 0.931 . S
C172 C168 1.328 . S
C172 C173 1.433 . S
C172 H186 0.931 . S
C173 C169 1.323 . S
C173 C172 1.433 . S
C173 H187 0.933 . S
C174 Dy152 2.738 . S
C174 O157 1.255 . S
C174 O158 1.249 . S
C174 C168 1.516 . S
C175 O159 1.254 . S
C175 O160 1.257 . S
C176 O161 1.266 . S
C176 O162 1.236 . S
C177 C180 1.344 . S
C177 C181 1.328 . S
C177 C183 1.516 . S
C178 C179 1.304 . S
C178 C182 1.323 . S
C179 C178 1.304 . S
C179 C180 1.371 . S
C179 H188 0.930 . S
C180 C177 1.344 . S
C180 C179 1.371 . S
C180 H189 0.931 . S
C181 C177 1.328 . S
C181 C182 1.433 . S
C181 H190 0.931 . S
C182 C178 1.323 . S
C182 C181 1.433 . S
C182 H191 0.933 . S
C183 Dy153 2.738 . S
C183 O163 1.255 . S
C183 O164 1.249 . S
C183 C177 1.516 . S
H184 C170 0.930 . S
H185 C171 0.931 . S
H186 C172 0.931 . S
H187 C173 0.933 . S
H188 C179 0.930 . S
H189 C180 0.931 . S
H190 C181 0.931 . S
H191 C182 0.933 . S
Dy192 O195 2.307 1_656 S
Dy192 O197 2.395 . S
Dy192 O198 2.379 . S
Dy192 O200 2.339 1_655 S
Dy192 O202 2.298 . S
Dy192 O206 2.275 1_556 S
Dy192 C214 2.738 . S
Dy193 O196 2.298 . S
Dy193 O199 2.275 1_554 S
Dy193 O201 2.307 1_455 S
Dy193 O203 2.395 . S
Dy193 O204 2.379 . S
Dy193 O207 2.339 1_455 S
Dy193 C223 2.738 . S
C194 O206 1.254 . S
C194 O207 1.257 . S
O195 Dy192 2.307 1_454 S
O195 C205 1.266 . S
O196 Dy193 2.298 . S
O196 C205 1.236 . S
O197 Dy192 2.395 . S
O197 C214 1.255 . S
O198 Dy192 2.379 . S
O198 C214 1.249 . S
O199 Dy193 2.275 1_556 S
O199 C215 1.254 . S
O200 Dy192 2.339 1_455 S
O200 C215 1.257 . S
O201 Dy193 2.307 1_655 S
O201 C216 1.266 1_554 S
O202 Dy192 2.298 . S
O202 C216 1.236 . S
O203 Dy193 2.395 . S
O203 C223 1.255 . S
O204 Dy193 2.379 . S
O204 C223 1.249 . S
C205 O195 1.266 . S
C205 O196 1.236 . S
O206 Dy192 2.275 1_554 S
O206 C194 1.254 . S
O207 Dy193 2.339 1_655 S
O207 C194 1.257 . S
C208 C211 1.344 . S
C208 C212 1.328 . S
C208 C214 1.516 . S
C209 C210 1.304 . S
C209 C213 1.323 . S
C210 C209 1.304 . S
C210 C211 1.371 . S
C210 H224 0.930 . S
C211 C208 1.344 . S
C211 C210 1.371 . S
C211 H225 0.931 . S
C212 C208 1.328 . S
C212 C213 1.433 . S
C212 H226 0.931 . S
C213 C209 1.323 . S
C213 C212 1.433 . S
C213 H227 0.933 . S
C214 Dy192 2.738 . S
C214 O197 1.255 . S
C214 O198 1.249 . S
C214 C208 1.516 . S
C215 O199 1.254 . S
C215 O200 1.257 . S
C216 O201 1.266 1_556 S
C216 O202 1.236 . S
C217 C220 1.344 . S
C217 C221 1.328 . S
C217 C223 1.516 . S
C218 C219 1.304 . S
C218 C222 1.323 . S
C219 C218 1.304 . S
C219 C220 1.371 . S
C219 H228 0.930 . S
C220 C217 1.344 . S
C220 C219 1.371 . S
C220 H229 0.931 . S
C221 C217 1.328 . S
C221 C222 1.433 . S
C221 H230 0.931 . S
C222 C218 1.323 . S
C222 C221 1.433 . S
C222 H231 0.933 . S
C223 Dy193 2.738 . S
C223 O203 1.255 . S
C223 O204 1.249 . S
C223 C217 1.516 . S
H224 C210 0.930 . S
H225 C211 0.931 . S
H226 C212 0.931 . S
H227 C213 0.933 . S
H228 C219 0.930 . S
H229 C220 0.931 . S
H230 C221 0.931 . S
H231 C222 0.933 . S
H232 C240 0.950 . S
H233 C245 0.950 . S
H234 C242 0.950 . S
H235 C244 0.950 . S
H236 C246 0.950 . S
H237 C248 0.950 . S
H238 C250 0.950 . S
H239 C251 0.950 . S
C240 H232 0.950 . S
C240 C241 1.386 . S
C240 C242 1.391 . S
C241 C240 1.386 . S
C241 C245 1.393 . S
C242 H234 0.950 . S
C242 C240 1.391 . S
C242 C243 1.400 . S
C243 C242 1.400 . S
C243 C244 1.398 . S
C243 C249 1.491 . S
C244 H235 0.950 . S
C244 C243 1.398 . S
C244 C245 1.391 . S
C245 H233 0.950 . S
C245 C241 1.393 . S
C245 C244 1.391 . S
C246 H236 0.950 . S
C246 C247 1.386 . S
C246 C248 1.391 . S
C247 C246 1.386 . S
C247 C251 1.393 . S
C248 H237 0.950 . S
C248 C246 1.391 . S
C248 C249 1.400 . S
C249 C243 1.491 . S
C249 C248 1.400 . S
C249 C250 1.398 . S
C250 H238 0.950 . S
C250 C249 1.398 . S
C250 C251 1.391 . S
C251 H239 0.950 . S
C251 C247 1.393 . S
C251 C250 1.391 . S
H252 C260 0.950 . S
H253 C265 0.950 . S
H254 C262 0.950 . S
H255 C264 0.950 . S
H256 C266 0.950 . S
H257 C268 0.950 . S
H258 C270 0.950 . S
H259 C271 0.950 . S
C260 H252 0.950 . S
C260 C261 1.386 . S
C260 C262 1.391 . S
C261 C260 1.386 . S
C261 C265 1.393 . S
C262 H254 0.950 . S
C262 C260 1.391 . S
C262 C263 1.400 . S
C263 C262 1.400 . S
C263 C264 1.398 . S
C263 C269 1.491 . S
C264 H255 0.950 . S
C264 C263 1.398 . S
C264 C265 1.391 . S
C265 H253 0.950 . S
C265 C261 1.393 . S
C265 C264 1.391 . S
C266 H256 0.950 . S
C266 C267 1.386 . S
C266 C268 1.391 . S
C267 C266 1.386 . S
C267 C271 1.393 . S
C268 H257 0.950 . S
C268 C266 1.391 . S
C268 C269 1.400 . S
C269 C263 1.491 . S
C269 C268 1.400 . S
C269 C270 1.398 . S
C270 H258 0.950 . S
C270 C269 1.398 . S
C270 C271 1.391 . S
C271 H259 0.950 . S
C271 C267 1.393 . S
C271 C270 1.391 . S
H272 C280 0.950 . S
H273 C285 0.950 . S
H274 C282 0.950 . S
H275 C284 0.950 . S
H276 C286 0.950 . S
H277 C288 0.950 . S
H278 C290 0.950 . S
H279 C291 0.950 . S
C280 H272 0.950 . S
C280 C281 1.386 . S
C280 C282 1.391 . S
C281 C280 1.386 . S
C281 C285 1.393 . S
C282 H274 0.950 . S
C282 C280 1.391 . S
C282 C283 1.400 . S
C283 C282 1.400 . S
C283 C284 1.398 . S
C283 C289 1.491 . S
C284 H275 0.950 . S
C284 C283 1.398 . S
C284 C285 1.391 . S
C285 H273 0.950 . S
C285 C281 1.393 . S
C285 C284 1.391 . S
C286 H276 0.950 . S
C286 C287 1.386 . S
C286 C288 1.391 . S
C287 C286 1.386 . S
C287 C291 1.393 . S
C288 H277 0.950 . S
C288 C286 1.391 . S
C288 C289 1.400 . S
C289 C283 1.491 . S
C289 C288 1.400 . S
C289 C290 1.398 . S
C290 H278 0.950 . S
C290 C289 1.398 . S
C290 C291 1.391 . S
C291 H279 0.950 . S
C291 C287 1.393 . S
C291 C290 1.391 . S
H292 C300 0.950 . S
H293 C305 0.950 . S
H294 C302 0.950 . S
H295 C304 0.950 . S
H296 C306 0.950 . S
H297 C308 0.950 . S
H298 C310 0.950 . S
H299 C311 0.950 . S
C300 H292 0.950 . S
C300 C301 1.386 . S
C300 C302 1.391 . S
C301 C300 1.386 . S
C301 C305 1.393 . S
C302 H294 0.950 . S
C302 C300 1.391 . S
C302 C303 1.400 . S
C303 C302 1.400 . S
C303 C304 1.398 . S
C303 C309 1.491 . S
C304 H295 0.950 . S
C304 C303 1.398 . S
C304 C305 1.391 . S
C305 H293 0.950 . S
C305 C301 1.393 . S
C305 C304 1.391 . S
C306 H296 0.950 . S
C306 C307 1.386 . S
C306 C308 1.391 . S
C307 C306 1.386 . S
C307 C311 1.393 . S
C308 H297 0.950 . S
C308 C306 1.391 . S
C308 C309 1.400 . S
C309 C303 1.491 . S
C309 C308 1.400 . S
C309 C310 1.398 . S
C310 H298 0.950 . S
C310 C309 1.398 . S
C310 C311 1.391 . S
C311 H299 0.950 . S
C311 C307 1.393 . S
C311 C310 1.391 . S
H312 C320 0.950 . S
H313 C325 0.950 . S
H314 C322 0.950 . S
H315 C324 0.950 . S
H316 C326 0.950 . S
H317 C328 0.950 . S
H318 C330 0.950 . S
H319 C331 0.950 . S
C320 H312 0.950 . S
C320 C321 1.386 . S
C320 C322 1.391 . S
C321 C320 1.386 . S
C321 C325 1.393 . S
C322 H314 0.950 . S
C322 C320 1.391 . S
C322 C323 1.400 . S
C323 C322 1.400 . S
C323 C324 1.398 . S
C323 C329 1.491 . S
C324 H315 0.950 . S
C324 C323 1.398 . S
C324 C325 1.391 . S
C325 H313 0.950 . S
C325 C321 1.393 . S
C325 C324 1.391 . S
C326 H316 0.950 . S
C326 C327 1.386 . S
C326 C328 1.391 . S
C327 C326 1.386 . S
C327 C331 1.393 . S
C328 H317 0.950 . S
C328 C326 1.391 . S
C328 C329 1.400 . S
C329 C323 1.491 . S
C329 C328 1.400 . S
C329 C330 1.398 . S
C330 H318 0.950 . S
C330 C329 1.398 . S
C330 C331 1.391 . S
C331 H319 0.950 . S
C331 C327 1.393 . S
C331 C330 1.391 . S
H332 C340 0.950 . S
H333 C345 0.950 . S
H334 C342 0.950 . S
H335 C344 0.950 . S
H336 C346 0.950 . S
H337 C348 0.950 . S
H338 C350 0.950 . S
H339 C351 0.950 1_655 S
C340 H332 0.950 . S
C340 C341 1.386 . S
C340 C342 1.391 . S
C341 C340 1.386 . S
C341 C345 1.393 . S
C342 H334 0.950 . S
C342 C340 1.391 . S
C342 C343 1.400 . S
C343 C342 1.400 . S
C343 C344 1.398 . S
C343 C349 1.491 . S
C344 H335 0.950 . S
C344 C343 1.398 . S
C344 C345 1.391 . S
C345 H333 0.950 . S
C345 C341 1.393 . S
C345 C344 1.391 . S
C346 H336 0.950 . S
C346 C347 1.386 . S
C346 C348 1.391 . S
C347 C346 1.386 . S
C347 C351 1.393 . S
C348 H337 0.950 . S
C348 C346 1.391 . S
C348 C349 1.400 . S
C349 C343 1.491 . S
C349 C348 1.400 . S
C349 C350 1.398 . S
C350 H338 0.950 . S
C350 C349 1.398 . S
C350 C351 1.391 . S
C351 H339 0.950 1_455 S
C351 C347 1.393 . S
C351 C350 1.391 . S
H352 C360 0.950 . S
H353 C365 0.950 . S
H354 C362 0.950 . S
H355 C364 0.950 . S
H356 C366 0.950 . S
H357 C368 0.950 . S
H358 C370 0.950 . S
H359 C371 0.943 1_554 S
C360 H352 0.950 . S
C360 C361 1.386 . S
C360 C362 1.391 . S
C361 C360 1.386 . S
C361 C365 1.393 . S
C362 H354 0.950 . S
C362 C360 1.391 . S
C362 C363 1.400 . S
C363 C362 1.400 . S
C363 C364 1.398 . S
C363 C369 1.491 . S
C364 H355 0.950 . S
C364 C363 1.398 . S
C364 C365 1.391 . S
C365 H353 0.950 . S
C365 C361 1.393 . S
C365 C364 1.391 . S
C366 H356 0.950 . S
C366 C367 1.386 . S
C366 C368 1.391 . S
C367 C366 1.386 . S
C367 C371 1.393 . S
C368 H357 0.950 . S
C368 C366 1.391 . S
C368 C369 1.400 . S
C369 C363 1.491 . S
C369 C368 1.400 . S
C369 C370 1.398 . S
C370 H358 0.950 . S
C370 C369 1.398 . S
C370 C371 1.391 . S
C371 H359 0.943 1_556 S
C371 C367 1.393 . S
C371 C370 1.391 . S
H372 C380 0.950 . S
H373 C385 0.950 . S
H374 C382 0.950 . S
H375 C384 0.950 . S
H376 C386 0.950 . S
H377 C388 0.950 . S
H378 C390 0.950 . S
H379 C391 0.950 . S
C380 H372 0.950 . S
C380 C381 1.386 . S
C380 C382 1.391 . S
C381 C380 1.386 . S
C381 C385 1.393 . S
C382 H374 0.950 . S
C382 C380 1.391 . S
C382 C383 1.400 . S
C383 C382 1.400 . S
C383 C384 1.398 . S
C383 C389 1.491 . S
C384 H375 0.950 . S
C384 C383 1.398 . S
C384 C385 1.391 . S
C385 H373 0.950 . S
C385 C381 1.393 . S
C385 C384 1.391 . S
C386 H376 0.950 . S
C386 C387 1.386 . S
C386 C388 1.391 . S
C387 C386 1.386 . S
C387 C391 1.393 . S
C388 H377 0.950 . S
C388 C386 1.391 . S
C388 C389 1.400 . S
C389 C383 1.491 . S
C389 C388 1.400 . S
C389 C390 1.398 . S
C390 H378 0.950 . S
C390 C389 1.398 . S
C390 C391 1.391 . S
C391 H379 0.950 . S
C391 C387 1.393 . S
C391 C390 1.391 . S
H392 C400 0.950 . S
H393 C405 0.950 . S
H394 C402 0.950 . S
H395 C404 0.950 . S
H396 C406 0.950 . S
H397 C408 0.950 . S
H398 C410 0.950 . S
H399 C411 0.950 . S
C400 H392 0.950 . S
C400 C401 1.386 . S
C400 C402 1.391 . S
C401 C400 1.386 . S
C401 C405 1.393 . S
C402 H394 0.950 . S
C402 C400 1.391 . S
C402 C403 1.400 . S
C403 C402 1.400 . S
C403 C404 1.398 . S
C403 C409 1.491 . S
C404 H395 0.950 . S
C404 C403 1.398 . S
C404 C405 1.391 . S
C405 H393 0.950 . S
C405 C401 1.393 . S
C405 C404 1.391 . S
C406 H396 0.950 . S
C406 C407 1.386 . S
C406 C408 1.391 . S
C407 C406 1.386 . S
C407 C411 1.393 . S
C408 H397 0.950 . S
C408 C406 1.391 . S
C408 C409 1.400 . S
C409 C403 1.491 . S
C409 C408 1.400 . S
C409 C410 1.398 . S
C410 H398 0.950 . S
C410 C409 1.398 . S
C410 C411 1.391 . S
C411 H399 0.950 . S
C411 C407 1.393 . S
C411 C410 1.391 . S
H412 C420 0.950 . S
H413 C425 0.950 . S
H414 C422 0.950 . S
H415 C424 0.950 . S
H416 C426 0.950 . S
H417 C428 0.950 . S
H418 C430 0.950 . S
H419 C431 0.950 . S
C420 H412 0.950 . S
C420 C421 1.386 . S
C420 C422 1.391 . S
C421 C420 1.386 . S
C421 C425 1.393 . S
C422 H414 0.950 . S
C422 C420 1.391 . S
C422 C423 1.400 . S
C423 C422 1.400 . S
C423 C424 1.398 . S
C423 C429 1.491 . S
C424 H415 0.950 . S
C424 C423 1.398 . S
C424 C425 1.391 . S
C425 H413 0.950 . S
C425 C421 1.393 . S
C425 C424 1.391 . S
C426 H416 0.950 . S
C426 C427 1.386 . S
C426 C428 1.391 . S
C427 C426 1.386 . S
C427 C431 1.393 . S
C428 H417 0.950 . S
C428 C426 1.391 . S
C428 C429 1.400 . S
C429 C423 1.491 . S
C429 C428 1.400 . S
C429 C430 1.398 . S
C430 H418 0.950 . S
C430 C429 1.398 . S
C430 C431 1.391 . S
C431 H419 0.950 . S
C431 C427 1.393 . S
C431 C430 1.391 . S
H432 C440 0.950 . S
H433 C445 0.950 . S
H434 C442 0.950 . S
H435 C444 0.950 . S
H436 C446 0.950 . S
H437 C448 0.950 . S
H438 C450 0.950 . S
H439 C451 0.950 . S
C440 H432 0.950 . S
C440 C441 1.386 . S
C440 C442 1.391 . S
C441 C440 1.386 . S
C441 C445 1.393 . S
C442 H434 0.950 . S
C442 C440 1.391 . S
C442 C443 1.400 . S
C443 C442 1.400 . S
C443 C444 1.398 . S
C443 C449 1.491 . S
C444 H435 0.950 . S
C444 C443 1.398 . S
C444 C445 1.391 . S
C445 H433 0.950 . S
C445 C441 1.393 . S
C445 C444 1.391 . S
C446 H436 0.950 . S
C446 C447 1.386 . S
C446 C448 1.391 . S
C447 C446 1.386 . S
C447 C451 1.393 . S
C448 H437 0.950 . S
C448 C446 1.391 . S
C448 C449 1.400 . S
C449 C443 1.491 . S
C449 C448 1.400 . S
C449 C450 1.398 . S
C450 H438 0.950 . S
C450 C449 1.398 . S
C450 C451 1.391 . S
C451 H439 0.950 . S
C451 C447 1.393 . S
C451 C450 1.391 . S
H452 C460 0.950 . S
H453 C465 0.950 . S
H454 C462 0.950 . S
H455 C464 0.950 . S
H456 C466 0.950 . S
H457 C468 0.950 . S
H458 C470 0.950 . S
H459 C471 0.950 . S
C460 H452 0.950 . S
C460 C461 1.386 . S
C460 C462 1.391 . S
C461 C460 1.386 . S
C461 C465 1.393 . S
C462 H454 0.950 . S
C462 C460 1.391 . S
C462 C463 1.400 . S
C463 C462 1.400 . S
C463 C464 1.398 . S
C463 C469 1.491 . S
C464 H455 0.950 . S
C464 C463 1.398 . S
C464 C465 1.391 . S
C465 H453 0.950 . S
C465 C461 1.393 . S
C465 C464 1.391 . S
C466 H456 0.950 . S
C466 C467 1.386 . S
C466 C468 1.391 . S
C467 C466 1.386 . S
C467 C471 1.393 . S
C468 H457 0.950 . S
C468 C466 1.391 . S
C468 C469 1.400 . S
C469 C463 1.491 . S
C469 C468 1.400 . S
C469 C470 1.398 . S
C470 H458 0.950 . S
C470 C469 1.398 . S
C470 C471 1.391 . S
C471 H459 0.950 . S
C471 C467 1.393 . S
C471 C470 1.391 . S
H472 C480 0.950 . S
H473 C485 0.950 . S
H474 C482 0.950 . S
H475 C484 0.950 . S
H476 C486 0.950 . S
H477 C488 0.950 . S
H478 C490 0.950 . S
H479 C491 0.950 . S
C480 H472 0.950 . S
C480 C481 1.386 . S
C480 C482 1.391 . S
C481 C480 1.386 . S
C481 C485 1.393 . S
C482 H474 0.950 . S
C482 C480 1.391 . S
C482 C483 1.400 . S
C483 C482 1.400 . S
C483 C484 1.398 . S
C483 C489 1.491 . S
C484 H475 0.950 . S
C484 C483 1.398 . S
C484 C485 1.391 . S
C485 H473 0.950 . S
C485 C481 1.393 . S
C485 C484 1.391 . S
C486 H476 0.950 . S
C486 C487 1.386 . S
C486 C488 1.391 . S
C487 C486 1.386 . S
C487 C491 1.393 . S
C488 H477 0.950 . S
C488 C486 1.391 . S
C488 C489 1.400 . S
C489 C483 1.491 . S
C489 C488 1.400 . S
C489 C490 1.398 . S
C490 H478 0.950 . S
C490 C489 1.398 . S
C490 C491 1.391 . S
C491 H479 0.950 . S
C491 C487 1.393 . S
C491 C490 1.391 . S
H492 C500 0.950 . S
H493 C505 0.950 . S
H494 C502 0.950 . S
H495 C504 0.950 . S
H496 C506 0.950 . S
H497 C508 0.950 . S
H498 C510 0.950 . S
H499 C511 0.950 . S
C500 H492 0.950 . S
C500 C501 1.386 . S
C500 C502 1.391 . S
C501 C500 1.386 . S
C501 C505 1.393 . S
C502 H494 0.950 . S
C502 C500 1.391 . S
C502 C503 1.400 . S
C503 C502 1.400 . S
C503 C504 1.398 . S
C503 C509 1.491 . S
C504 H495 0.950 . S
C504 C503 1.398 . S
C504 C505 1.391 . S
C505 H493 0.950 . S
C505 C501 1.393 . S
C505 C504 1.391 . S
C506 H496 0.950 . S
C506 C507 1.386 . S
C506 C508 1.391 . S
C507 C506 1.386 . S
C507 C511 1.393 . S
C508 H497 0.950 . S
C508 C506 1.391 . S
C508 C509 1.400 . S
C509 C503 1.491 . S
C509 C508 1.400 . S
C509 C510 1.398 . S
C510 H498 0.950 . S
C510 C509 1.398 . S
C510 C511 1.391 . S
C511 H499 0.950 . S
C511 C507 1.393 . S
C511 C510 1.391 . S
H512 C520 0.950 . S
H513 C525 0.950 . S
H514 C522 0.950 . S
H515 C524 0.950 . S
H516 C526 0.950 . S
H517 C528 0.950 . S
H518 C530 0.950 . S
H519 C531 0.950 . S
C520 H512 0.950 . S
C520 C521 1.386 . S
C520 C522 1.391 . S
C521 C520 1.386 . S
C521 C525 1.393 . S
C522 H514 0.950 . S
C522 C520 1.391 . S
C522 C523 1.400 . S
C523 C522 1.400 . S
C523 C524 1.398 . S
C523 C529 1.491 . S
C524 H515 0.950 . S
C524 C523 1.398 . S
C524 C525 1.391 . S
C525 H513 0.950 . S
C525 C521 1.393 . S
C525 C524 1.391 . S
C526 H516 0.950 . S
C526 C527 1.386 . S
C526 C528 1.391 . S
C527 C526 1.386 . S
C527 C531 1.393 . S
C528 H517 0.950 . S
C528 C526 1.391 . S
C528 C529 1.400 . S
C529 C523 1.491 . S
C529 C528 1.400 . S
C529 C530 1.398 . S
C530 H518 0.950 . S
C530 C529 1.398 . S
C530 C531 1.391 . S
C531 H519 0.950 . S
C531 C527 1.393 . S
C531 C530 1.391 . S
H532 C540 0.950 . S
H533 C545 0.950 . S
H534 C542 0.950 . S
H535 C544 0.950 . S
H536 C546 0.950 . S
H537 C548 0.950 . S
H538 C550 0.950 . S
H539 C551 0.950 . S
C540 H532 0.950 . S
C540 C541 1.386 . S
C540 C542 1.391 . S
C541 C540 1.386 . S
C541 C545 1.393 . S
C542 H534 0.950 . S
C542 C540 1.391 . S
C542 C543 1.400 . S
C543 C542 1.400 . S
C543 C544 1.398 . S
C543 C549 1.491 . S
C544 H535 0.950 . S
C544 C543 1.398 . S
C544 C545 1.391 . S
C545 H533 0.950 . S
C545 C541 1.393 . S
C545 C544 1.391 . S
C546 H536 0.950 . S
C546 C547 1.386 . S
C546 C548 1.391 . S
C547 C546 1.386 . S
C547 C551 1.393 . S
C548 H537 0.950 . S
C548 C546 1.391 . S
C548 C549 1.400 . S
C549 C543 1.491 . S
C549 C548 1.400 . S
C549 C550 1.398 . S
C550 H538 0.950 . S
C550 C549 1.398 . S
C550 C551 1.391 . S
C551 H539 0.950 . S
C551 C547 1.393 . S
C551 C550 1.391 . S
H552 C560 0.950 . S
H553 C565 0.950 . S
H554 C562 0.950 . S
H555 C564 0.950 . S
H556 C566 0.950 . S
H557 C568 0.950 . S
H558 C570 0.950 . S
H559 C571 0.950 . S
C560 H552 0.950 . S
C560 C561 1.386 . S
C560 C562 1.391 . S
C561 C560 1.386 . S
C561 C565 1.393 . S
C562 H554 0.950 . S
C562 C560 1.391 . S
C562 C563 1.400 . S
C563 C562 1.400 . S
C563 C564 1.398 . S
C563 C569 1.491 . S
C564 H555 0.950 . S
C564 C563 1.398 . S
C564 C565 1.391 . S
C565 H553 0.950 . S
C565 C561 1.393 . S
C565 C564 1.391 . S
C566 H556 0.950 . S
C566 C567 1.386 . S
C566 C568 1.391 . S
C567 C566 1.386 . S
C567 C571 1.393 . S
C568 H557 0.950 . S
C568 C566 1.391 . S
C568 C569 1.400 . S
C569 C563 1.491 . S
C569 C568 1.400 . S
C569 C570 1.398 . S
C570 H558 0.950 . S
C570 C569 1.398 . S
C570 C571 1.391 . S
C571 H559 0.950 . S
C571 C567 1.393 . S
C571 C570 1.391 . S
H572 C580 0.950 . S
H573 C585 0.950 . S
H574 C582 0.950 . S
H575 C584 0.950 . S
H576 C586 0.950 . S
H577 C588 0.950 . S
H578 C590 0.950 . S
H579 C591 0.950 1_455 S
C580 H572 0.950 . S
C580 C581 1.386 . S
C580 C582 1.391 . S
C581 C580 1.386 . S
C581 C585 1.393 . S
C582 H574 0.950 . S
C582 C580 1.391 . S
C582 C583 1.400 . S
C583 C582 1.400 . S
C583 C584 1.398 . S
C583 C589 1.491 . S
C584 H575 0.950 . S
C584 C583 1.398 . S
C584 C585 1.391 . S
C585 H573 0.950 . S
C585 C581 1.393 . S
C585 C584 1.391 . S
C586 H576 0.950 . S
C586 C587 1.386 . S
C586 C588 1.391 . S
C587 C586 1.386 . S
C587 C591 1.393 . S
C588 H577 0.950 . S
C588 C586 1.391 . S
C588 C589 1.400 . S
C589 C583 1.491 . S
C589 C588 1.400 . S
C589 C590 1.398 . S
C590 H578 0.950 . S
C590 C589 1.398 . S
C590 C591 1.391 . S
C591 H579 0.950 1_655 S
C591 C587 1.393 . S
C591 C590 1.391 . S
H592 C600 0.950 . S
H593 C605 0.950 . S
H594 C602 0.950 . S
H595 C604 0.950 . S
H596 C606 0.950 . S
H597 C608 0.950 . S
H598 C610 0.950 . S
H599 C611 0.950 . S
C600 H592 0.950 . S
C600 C601 1.386 . S
C600 C602 1.391 . S
C601 C600 1.386 . S
C601 C605 1.393 . S
C602 H594 0.950 . S
C602 C600 1.391 . S
C602 C603 1.400 . S
C603 C602 1.400 . S
C603 C604 1.398 . S
C603 C609 1.491 . S
C604 H595 0.950 . S
C604 C603 1.398 . S
C604 C605 1.391 . S
C605 H593 0.950 . S
C605 C601 1.393 . S
C605 C604 1.391 . S
C606 H596 0.950 . S
C606 C607 1.386 . S
C606 C608 1.391 . S
C607 C606 1.386 . S
C607 C611 1.393 . S
C608 H597 0.950 . S
C608 C606 1.391 . S
C608 C609 1.400 . S
C609 C603 1.491 . S
C609 C608 1.400 . S
C609 C610 1.398 . S
C610 H598 0.950 . S
C610 C609 1.398 . S
C610 C611 1.391 . S
C611 H599 0.950 . S
C611 C607 1.393 . S
C611 C610 1.391 . S
H612 C620 0.950 . S
H613 C625 0.950 . S
H614 C622 0.950 . S
H615 C624 0.950 . S
H616 C626 0.950 . S
H617 C628 0.950 . S
H618 C630 0.950 . S
H619 C631 0.950 . S
C620 H612 0.950 . S
C620 C621 1.386 . S
C620 C622 1.391 . S
C621 C620 1.386 . S
C621 C625 1.393 . S
C622 H614 0.950 . S
C622 C620 1.391 . S
C622 C623 1.400 . S
C623 C622 1.400 . S
C623 C624 1.398 . S
C623 C629 1.491 . S
C624 H615 0.950 . S
C624 C623 1.398 . S
C624 C625 1.391 . S
C625 H613 0.950 . S
C625 C621 1.393 . S
C625 C624 1.391 . S
C626 H616 0.950 . S
C626 C627 1.386 . S
C626 C628 1.391 . S
C627 C626 1.386 . S
C627 C631 1.393 . S
C628 H617 0.950 . S
C628 C626 1.391 . S
C628 C629 1.400 . S
C629 C623 1.491 . S
C629 C628 1.400 . S
C629 C630 1.398 . S
C630 H618 0.950 . S
C630 C629 1.398 . S
C630 C631 1.391 . S
C631 H619 0.950 . S
C631 C627 1.393 . S
C631 C630 1.391 . S
H632 C640 0.950 . S
H633 C645 0.950 . S
H634 C642 0.950 . S
H635 C644 0.950 . S
H636 C646 0.950 . S
H637 C648 0.950 . S
H638 C650 0.950 . S
H639 C651 0.950 . S
C640 H632 0.950 . S
C640 C641 1.386 . S
C640 C642 1.391 . S
C641 C640 1.386 . S
C641 C645 1.393 . S
C642 H634 0.950 . S
C642 C640 1.391 . S
C642 C643 1.400 . S
C643 C642 1.400 . S
C643 C644 1.398 . S
C643 C649 1.491 . S
C644 H635 0.950 . S
C644 C643 1.398 . S
C644 C645 1.391 . S
C645 H633 0.950 . S
C645 C641 1.393 . S
C645 C644 1.391 . S
C646 H636 0.950 . S
C646 C647 1.386 . S
C646 C648 1.391 . S
C647 C646 1.386 . S
C647 C651 1.393 . S
C648 H637 0.950 . S
C648 C646 1.391 . S
C648 C649 1.400 . S
C649 C643 1.491 . S
C649 C648 1.400 . S
C649 C650 1.398 . S
C650 H638 0.950 . S
C650 C649 1.398 . S
C650 C651 1.391 . S
C651 H639 0.950 . S
C651 C647 1.393 . S
C651 C650 1.391 . S
H652 C660 0.950 . S
H653 C665 0.950 . S
H654 C662 0.950 . S
H655 C664 0.950 . S
H656 C666 0.950 . S
H657 C668 0.950 . S
H658 C670 0.950 . S
H659 C671 0.950 . S
C660 H652 0.950 . S
C660 C661 1.386 . S
C660 C662 1.391 . S
C661 C660 1.386 . S
C661 C665 1.393 . S
C662 H654 0.950 . S
C662 C660 1.391 . S
C662 C663 1.400 . S
C663 C662 1.400 . S
C663 C664 1.398 . S
C663 C669 1.491 . S
C664 H655 0.950 . S
C664 C663 1.398 . S
C664 C665 1.391 . S
C665 H653 0.950 . S
C665 C661 1.393 . S
C665 C664 1.391 . S
C666 H656 0.950 . S
C666 C667 1.386 . S
C666 C668 1.391 . S
C667 C666 1.386 . S
C667 C671 1.393 . S
C668 H657 0.950 . S
C668 C666 1.391 . S
C668 C669 1.400 . S
C669 C663 1.491 . S
C669 C668 1.400 . S
C669 C670 1.398 . S
C670 H658 0.950 . S
C670 C669 1.398 . S
C670 C671 1.391 . S
C671 H659 0.950 . S
C671 C667 1.393 . S
C671 C670 1.391 . S
H672 C680 0.950 . S
H673 C685 0.950 . S
H674 C682 0.950 . S
H675 C684 0.950 . S
H676 C686 0.950 . S
H677 C688 0.950 . S
H678 C690 0.950 . S
H679 C691 0.950 1_655 S
C680 H672 0.950 . S
C680 C681 1.386 . S
C680 C682 1.391 . S
C681 C680 1.386 . S
C681 C685 1.393 . S
C682 H674 0.950 . S
C682 C680 1.391 . S
C682 C683 1.400 . S
C683 C682 1.400 . S
C683 C684 1.398 . S
C683 C689 1.491 . S
C684 H675 0.950 . S
C684 C683 1.398 . S
C684 C685 1.391 . S
C685 H673 0.950 . S
C685 C681 1.393 . S
C685 C684 1.391 . S
C686 H676 0.950 . S
C686 C687 1.386 . S
C686 C688 1.391 . S
C687 C686 1.386 . S
C687 C691 1.393 . S
C688 H677 0.950 . S
C688 C686 1.391 . S
C688 C689 1.400 . S
C689 C683 1.491 . S
C689 C688 1.400 . S
C689 C690 1.398 . S
C690 H678 0.950 . S
C690 C689 1.398 . S
C690 C691 1.391 . S
C691 H679 0.950 1_455 S
C691 C687 1.393 . S
C691 C690 1.391 . S
H692 C700 0.950 . S
H693 C705 0.950 . S
H694 C702 0.950 . S
H695 C704 0.950 . S
H696 C706 0.950 . S
H697 C708 0.950 . S
H698 C710 0.950 . S
H699 C711 0.950 . S
C700 H692 0.950 . S
C700 C701 1.386 . S
C700 C702 1.391 . S
C701 C700 1.386 . S
C701 C705 1.393 . S
C702 H694 0.950 . S
C702 C700 1.391 . S
C702 C703 1.400 . S
C703 C702 1.400 . S
C703 C704 1.398 . S
C703 C709 1.491 . S
C704 H695 0.950 . S
C704 C703 1.398 . S
C704 C705 1.391 . S
C705 H693 0.950 . S
C705 C701 1.393 . S
C705 C704 1.391 . S
C706 H696 0.950 . S
C706 C707 1.386 . S
C706 C708 1.391 . S
C707 C706 1.386 . S
C707 C711 1.393 . S
C708 H697 0.950 . S
C708 C706 1.391 . S
C708 C709 1.400 . S
C709 C703 1.491 . S
C709 C708 1.400 . S
C709 C710 1.398 . S
C710 H698 0.950 . S
C710 C709 1.398 . S
C710 C711 1.391 . S
C711 H699 0.950 . S
C711 C707 1.393 . S
C711 C710 1.391 . S
C241 C5 1.002 . S
C247 C89 1.008 . S
C261 C14 0.985 . S
C267 C129 0.996 . S
C287 C154 2.428 . S
C281 C25 2.481 . S
C301 C34 2.479 . S
C307 C194 2.427 . S
C327 C125 1.512 . S
C321 C7 1.463 . S
C347 C85 1.533 . S
C341 C13 1.477 . S
C367 C216 1.724 . S
C361 C23 1.748 . S
C387 C176 1.723 . S
C381 C31 1.746 . S
C401 C4 1.169 . S
C407 C218 1.193 . S
C427 C135 2.169 . S
C421 C22 2.204 . S
C441 C32 2.218 . S
C447 C95 2.182 . S
C461 C16 1.179 . S
C467 C178 1.197 . S
C487 C98 0.997 . S
C481 C41 0.988 . S
C501 C50 0.962 . S
C507 C138 0.988 . S
C521 C61 2.475 . S
C527 C175 2.415 . S
C541 C67 2.488 . S
C547 C215 2.435 . S
C561 C40 1.496 . S
C567 C136 1.532 . S
C587 C96 1.512 . S
C581 C52 1.457 . S
C607 C205 1.731 . S
C601 C59 1.753 . S
C627 C165 1.711 . S
C621 C70 1.737 . S
C641 C43 1.172 . S
C647 C209 1.197 . S
C667 C114 2.179 . S
C661 C58 2.217 . S
C687 C74 2.159 . S
C681 C68 2.195 . S
C701 C49 1.166 . S
C707 C169 1.187 . S
