# Generated by pormake.
# Topology csq, (4,8)-cn, num edge types: 1
# Building blocks:
#     Node 0, Type 0, BuildingBlock: NAHDIM_clean_linker_0, # of connection points: 4
#     Node 1, Type 0, BuildingBlock: NAHDIM_clean_linker_0, # of connection points: 4
#     Node 2, Type 0, BuildingBlock: NAHDIM_clean_linker_0, # of connection points: 4
#     Node 3, Type 0, BuildingBlock: NAHDIM_clean_linker_0, # of connection points: 4
#     Node 4, Type 0, BuildingBlock: NAHDIM_clean_linker_0, # of connection points: 4
#     Node 5, Type 0, BuildingBlock: NAHDIM_clean_linker_0, # of connection points: 4
#     Node 6, Type 1, BuildingBlock: TAGTUT_clean_sbu_1, # of connection points: 8
#     Node 7, Type 1, BuildingBlock: TAGTUT_clean_sbu_1, # of connection points: 8
#     Node 8, Type 1, BuildingBlock: TAGTUT_clean_sbu_1, # of connection points: 8
#     Edge 9, Type (0, 1), BuildingBlock: ZUJKAS_clean_linker_0, # of connection points: 2
#     Edge 10, Type (0, 1), BuildingBlock: ZUJKAS_clean_linker_0, # of connection points: 2
#     Edge 11, Type (0, 1), BuildingBlock: ZUJKAS_clean_linker_0, # of connection points: 2
#     Edge 12, Type (0, 1), BuildingBlock: ZUJKAS_clean_linker_0, # of connection points: 2
#     Edge 13, Type (0, 1), BuildingBlock: ZUJKAS_clean_linker_0, # of connection points: 2
#     Edge 14, Type (0, 1), BuildingBlock: ZUJKAS_clean_linker_0, # of connection points: 2
#     Edge 15, Type (0, 1), BuildingBlock: ZUJKAS_clean_linker_0, # of connection points: 2
#     Edge 16, Type (0, 1), BuildingBlock: ZUJKAS_clean_linker_0, # of connection points: 2
#     Edge 17, Type (0, 1), BuildingBlock: ZUJKAS_clean_linker_0, # of connection points: 2
#     Edge 18, Type (0, 1), BuildingBlock: ZUJKAS_clean_linker_0, # of connection points: 2
#     Edge 19, Type (0, 1), BuildingBlock: ZUJKAS_clean_linker_0, # of connection points: 2
#     Edge 20, Type (0, 1), BuildingBlock: ZUJKAS_clean_linker_0, # of connection points: 2
#     Edge 21, Type (0, 1), BuildingBlock: ZUJKAS_clean_linker_0, # of connection points: 2
#     Edge 22, Type (0, 1), BuildingBlock: ZUJKAS_clean_linker_0, # of connection points: 2
#     Edge 23, Type (0, 1), BuildingBlock: ZUJKAS_clean_linker_0, # of connection points: 2
#     Edge 24, Type (0, 1), BuildingBlock: ZUJKAS_clean_linker_0, # of connection points: 2
#     Edge 25, Type (0, 1), BuildingBlock: ZUJKAS_clean_linker_0, # of connection points: 2
#     Edge 26, Type (0, 1), BuildingBlock: ZUJKAS_clean_linker_0, # of connection points: 2
#     Edge 27, Type (0, 1), BuildingBlock: ZUJKAS_clean_linker_0, # of connection points: 2
#     Edge 28, Type (0, 1), BuildingBlock: ZUJKAS_clean_linker_0, # of connection points: 2
#     Edge 29, Type (0, 1), BuildingBlock: ZUJKAS_clean_linker_0, # of connection points: 2
#     Edge 30, Type (0, 1), BuildingBlock: ZUJKAS_clean_linker_0, # of connection points: 2
#     Edge 31, Type (0, 1), BuildingBlock: ZUJKAS_clean_linker_0, # of connection points: 2
#     Edge 32, Type (0, 1), BuildingBlock: ZUJKAS_clean_linker_0, # of connection points: 2
# Relax obj value: 0.050
# Max RMSD: 0.135
# Mean RMSD: 0.090
data_MOF--net-csq--node1-TAGTUT_clean_sbu_1--node2-NAHDIM_clean_linker_0--edge1-ZUJKAS_clean_linker_0
_symmetry_space_group_name_H-M    P1
_symmetry_Int_Tables_number       1
_symmetry_cell_setting            triclinic
loop_
_symmetry_equiv_pos_as_xyz
'x, y, z'
_cell_length_a     81.967884
_cell_length_b     80.372226
_cell_length_c     32.374585
_cell_angle_alpha  92.14923
_cell_angle_beta   91.932874
_cell_angle_gamma 119.9203
loop_
_atom_site_label
_atom_site_type_symbol
_atom_site_fract_x
_atom_site_fract_y
_atom_site_fract_z
_atom_type_partial_charge
C0 C 0.28993 0.49451 0.41968 0.0
C1 C 0.29599 0.48227 0.39439 0.0
C2 C 0.28738 0.4822 0.32171 0.0
C3 C 0.27661 0.46248 0.31037 0.0
C4 C 0.26293 0.45571 0.27723 0.0
C5 C 0.25995 0.46896 0.25525 0.0
C6 C 0.27145 0.48893 0.2655 0.0
C7 C 0.28527 0.4953 0.29827 0.0
C8 C 0.25124 0.43435 0.26655 0.0
C9 C 0.26856 0.50348 0.24309 0.0
C10 C 0.15663 0.42121 0.38986 0.0
C11 C 0.15738 0.43746 0.36535 0.0
C12 C 0.16346 0.43505 0.29383 0.0
C13 C 0.17467 0.45403 0.28305 0.0
C14 C 0.18879 0.45872 0.25498 0.0
C15 C 0.19192 0.44411 0.23802 0.0
C16 C 0.17991 0.42475 0.24733 0.0
C17 C 0.16559 0.42043 0.27477 0.0
C18 C 0.20104 0.47945 0.24525 0.0
C19 C 0.18297 0.40883 0.23042 0.0
C20 C 0.16569 0.42276 0.95431 0.0
C21 C 0.17265 0.44109 0.97386 0.0
C22 C 0.18828 0.44879 0.00264 0.0
C23 C 0.19659 0.43756 0.01301 0.0
C24 C 0.18936 0.41895 0.99344 0.0
C25 C 0.17425 0.412 0.96364 0.0
C26 C 0.19609 0.46901 0.02125 0.0
C27 C 0.19769 0.40643 0.00343 0.0
C28 C 0.33025 0.45994 0.99017 0.0
C29 C 0.31904 0.46187 0.95359 0.0
C30 C 0.29688 0.46969 0.98698 0.0
C31 C 0.29242 0.48413 0.99491 0.0
C32 C 0.27657 0.48061 0.01666 0.0
C33 C 0.26488 0.46212 0.03093 0.0
C34 C 0.26942 0.44748 0.02364 0.0
C35 C 0.28533 0.45138 0.00175 0.0
C36 C 0.27216 0.49656 0.02405 0.0
C37 C 0.25731 0.42761 0.0386 0.0
C38 C 0.24334 0.46183 0.22545 0.0
C39 C 0.22598 0.45619 0.24207 0.0
C40 C 0.20953 0.44954 0.21677 0.0
C41 C 0.21032 0.44843 0.17324 0.0
C42 C 0.19407 0.44174 0.14674 0.0
C43 C 0.195 0.44055 0.10392 0.0
C44 C 0.21231 0.44644 0.08594 0.0
C45 C 0.21347 0.44552 0.04244 0.0
C46 C 0.2309 0.45131 0.02583 0.0
C47 C 0.24728 0.45769 0.05129 0.0
C48 C 0.24645 0.45882 0.09481 0.0
C49 C 0.26266 0.46522 0.12138 0.0
C50 C 0.26168 0.46614 0.16421 0.0
C51 C 0.24447 0.4608 0.18204 0.0
C52 C 0.2279 0.45416 0.15583 0.0
C53 C 0.2289 0.45323 0.11215 0.0
C54 C 0.11816 0.39434 0.92088 0.0
C55 C 0.13423 0.41509 0.92951 0.0
O56 O 0.29994 0.48896 0.35498 0.0
O57 O 0.31232 0.47406 0.96514 0.0
O58 O 0.15112 0.41534 0.92533 0.0
O59 O 0.15135 0.43087 0.32439 0.0
H60 H 0.28415 0.46713 0.39287 0.0
H61 H 0.27704 0.49342 0.40452 0.0
H62 H 0.30125 0.50986 0.42201 0.0
H63 H 0.28667 0.48934 0.45136 0.0
H64 H 0.27882 0.45238 0.3275 0.0
H65 H 0.29392 0.51053 0.30696 0.0
H66 H 0.2367 0.42902 0.27637 0.0
H67 H 0.25714 0.42623 0.2821 0.0
H68 H 0.25031 0.43131 0.23254 0.0
H69 H 0.27851 0.51847 0.25523 0.0
H70 H 0.25391 0.50052 0.24616 0.0
H71 H 0.27051 0.50223 0.20959 0.0
H72 H 0.17239 0.44931 0.36745 0.0
H73 H 0.16123 0.4262 0.42287 0.0
H74 H 0.16627 0.41663 0.37696 0.0
H75 H 0.14214 0.40856 0.38805 0.0
H76 H 0.17269 0.46521 0.29765 0.0
H77 H 0.15673 0.40578 0.28333 0.0
H78 H 0.20341 0.48053 0.21164 0.0
H79 H 0.21499 0.48546 0.26229 0.0
H80 H 0.19472 0.48836 0.25442 0.0
H81 H 0.17226 0.39451 0.2402 0.0
H82 H 0.19718 0.41167 0.24125 0.0
H83 H 0.18243 0.40842 0.19609 0.0
H84 H 0.1333 0.41962 0.96192 0.0
H85 H 0.16619 0.44954 0.96573 0.0
H86 H 0.16882 0.39792 0.94795 0.0
H87 H 0.19304 0.46855 0.05444 0.0
H88 H 0.18984 0.47675 0.00548 0.0
H89 H 0.21164 0.47732 0.01942 0.0
H90 H 0.18815 0.39118 0.99235 0.0
H91 H 0.20076 0.40708 0.03731 0.0
H92 H 0.21116 0.41175 0.98808 0.0
H93 H 0.30699 0.44742 0.94345 0.0
H94 H 0.33575 0.45031 0.98078 0.0
H95 H 0.32116 0.45368 0.0164 0.0
H96 H 0.34229 0.47423 0.0012 0.0
H97 H 0.30139 0.49823 0.98365 0.0
H98 H 0.28849 0.43997 0.99632 0.0
H99 H 0.27083 0.49858 0.05764 0.0
H100 H 0.25842 0.49253 0.00784 0.0
H101 H 0.28317 0.51042 0.01292 0.0
H102 H 0.26287 0.41784 0.03101 0.0
H103 H 0.24277 0.42118 0.02432 0.0
H104 H 0.25641 0.42856 0.07267 0.0
H105 H 0.22527 0.45706 0.27546 0.0
H106 H 0.18043 0.43724 0.15889 0.0
H107 H 0.18199 0.43504 0.08506 0.0
H108 H 0.23166 0.45037 0.99248 0.0
H109 H 0.27629 0.46959 0.10933 0.0
H110 H 0.27458 0.47113 0.18322 0.0
H111 H 0.11806 0.38923 0.88844 0.0
H112 H 0.1043 0.39316 0.9261 0.0
H113 H 0.12005 0.3848 0.94211 0.0
C114 C 0.86517 0.30707 0.33886 0.0
C115 C 0.86837 0.31732 0.29834 0.0
C116 C 0.83843 0.29575 0.25869 0.0
C117 C 0.84241 0.28094 0.24935 0.0
C118 C 0.82874 0.26351 0.22908 0.0
C119 C 0.81067 0.26074 0.21805 0.0
C120 C 0.80657 0.27554 0.22737 0.0
C121 C 0.82059 0.29293 0.24732 0.0
C122 C 0.8336 0.24803 0.21934 0.0
C123 C 0.7874 0.27297 0.21615 0.0
C124 C 0.7578 0.16542 0.39844 0.0
C125 C 0.74337 0.16658 0.36929 0.0
C126 C 0.74853 0.16905 0.29599 0.0
C127 C 0.74095 0.18062 0.28511 0.0
C128 C 0.74768 0.19254 0.25189 0.0
C129 C 0.76253 0.1931 0.22968 0.0
C130 C 0.76953 0.18068 0.23943 0.0
C131 C 0.7621 0.16848 0.27204 0.0
C132 C 0.73955 0.20522 0.24184 0.0
C133 C 0.7856 0.18108 0.21715 0.0
C134 C 0.73494 0.14143 0.9632 0.0
C135 C 0.72643 0.15244 0.97272 0.0
C136 C 0.73695 0.17081 0.99302 0.0
C137 C 0.75628 0.17818 0.0043 0.0
C138 C 0.76493 0.16724 0.994 0.0
C139 C 0.75416 0.14908 0.97309 0.0
C140 C 0.72745 0.18236 0.00239 0.0
C141 C 0.78554 0.17467 0.00525 0.0
C142 C 0.84887 0.32334 0.00684 0.0
C143 C 0.85613 0.31352 0.97727 0.0
C144 C 0.8289 0.28192 0.96279 0.0
C145 C 0.80972 0.27603 0.96146 0.0
C146 C 0.79676 0.25877 0.97819 0.0
C147 C 0.80323 0.24709 0.99574 0.0
C148 C 0.8224 0.25222 0.99364 0.0
C149 C 0.83508 0.26969 0.97737 0.0
C150 C 0.7764 0.25361 0.97947 0.0
C151 C 0.82968 0.23978 0.01077 0.0
C152 C 0.79626 0.2424 0.19616 0.0
C153 C 0.78536 0.22694 0.2199 0.0
C154 C 0.77268 0.20874 0.20137 0.0
C155 C 0.77074 0.20582 0.15765 0.0
C156 C 0.75832 0.18771 0.13775 0.0
C157 C 0.75723 0.18489 0.09473 0.0
C158 C 0.76824 0.20017 0.06996 0.0
C159 C 0.76762 0.19744 0.0263 0.0
C160 C 0.77882 0.213 0.00276 0.0
C161 C 0.79081 0.23128 0.02166 0.0
C162 C 0.79164 0.23428 0.06517 0.0
C163 C 0.80365 0.25253 0.08507 0.0
C164 C 0.8051 0.25522 0.1279 0.0
C165 C 0.79439 0.23987 0.15256 0.0
C166 C 0.78172 0.22147 0.13321 0.0
C167 C 0.78041 0.21866 0.08939 0.0
C168 C 0.70363 0.09059 0.95332 0.0
C169 C 0.70617 0.11051 0.94734 0.0
O170 O 0.85122 0.31281 0.27875 0.0
O171 O 0.84131 0.29975 0.95133 0.0
O172 O 0.72516 0.12348 0.94432 0.0
O173 O 0.74344 0.15885 0.33028 0.0
H174 H 0.87623 0.31286 0.27758 0.0
H175 H 0.85693 0.29124 0.33267 0.0
H176 H 0.85731 0.3114 0.35991 0.0
H177 H 0.87888 0.31072 0.35474 0.0
H178 H 0.85611 0.28277 0.25767 0.0
H179 H 0.81761 0.30439 0.25457 0.0
H180 H 0.82421 0.23496 0.23554 0.0
H181 H 0.84848 0.25262 0.22883 0.0
H182 H 0.83121 0.244 0.18559 0.0
H183 H 0.7862 0.28558 0.22695 0.0
H184 H 0.77634 0.25994 0.22995 0.0
H185 H 0.78461 0.27073 0.18202 0.0
H186 H 0.74785 0.18213 0.36821 0.0
H187 H 0.75804 0.1716 0.4299 0.0
H188 H 0.77209 0.17377 0.38662 0.0
H189 H 0.75439 0.15026 0.40059 0.0
H190 H 0.73004 0.18059 0.30317 0.0
H191 H 0.76767 0.15928 0.28057 0.0
H192 H 0.73745 0.20531 0.20779 0.0
H193 H 0.74959 0.2202 0.25381 0.0
H194 H 0.72588 0.20045 0.25607 0.0
H195 H 0.79014 0.17135 0.23022 0.0
H196 H 0.79788 0.19594 0.21902 0.0
H197 H 0.78125 0.17666 0.18392 0.0
H198 H 0.70094 0.11435 0.97542 0.0
H199 H 0.71166 0.14683 0.96393 0.0
H200 H 0.76062 0.14056 0.96514 0.0
H201 H 0.72752 0.18467 0.03643 0.0
H202 H 0.71264 0.17512 0.98933 0.0
H203 H 0.73541 0.19674 0.98963 0.0
H204 H 0.78972 0.16372 0.99825 0.0
H205 H 0.78874 0.17923 0.03873 0.0
H206 H 0.79425 0.18747 0.98765 0.0
H207 H 0.86244 0.30663 0.99625 0.0
H208 H 0.86065 0.33453 0.02754 0.0
H209 H 0.83829 0.31259 0.02648 0.0
H210 H 0.84212 0.33015 0.98921 0.0
H211 H 0.80511 0.28551 0.94943 0.0
H212 H 0.84988 0.27401 0.97688 0.0
H213 H 0.77286 0.25401 0.01217 0.0
H214 H 0.76708 0.23873 0.96593 0.0
H215 H 0.77337 0.26359 0.96238 0.0
H216 H 0.84403 0.24408 0.00087 0.0
H217 H 0.82 0.22445 0.00066 0.0
H218 H 0.83027 0.24105 0.04512 0.0
H219 H 0.78713 0.229 0.25343 0.0
H220 H 0.74952 0.17548 0.15531 0.0
H221 H 0.74767 0.17057 0.08114 0.0
H222 H 0.7785 0.21077 0.96941 0.0
H223 H 0.81226 0.26495 0.06784 0.0
H224 H 0.81479 0.26953 0.14141 0.0
H225 H 0.70893 0.08584 0.92683 0.0
H226 H 0.6885 0.07991 0.95616 0.0
H227 H 0.71163 0.09103 0.98213 0.0
C228 C 0.47077 0.79928 0.27757 0.0
C229 C 0.49035 0.81142 0.26129 0.0
C230 C 0.49989 0.80249 0.19821 0.0
C231 C 0.5194 0.81134 0.20706 0.0
C232 C 0.53009 0.80447 0.18743 0.0
C233 C 0.52094 0.78817 0.15905 0.0
C234 C 0.50126 0.77946 0.14956 0.0
C235 C 0.49108 0.78707 0.16864 0.0
C236 C 0.55107 0.81443 0.1976 0.0
C237 C 0.49085 0.76176 0.12034 0.0
C238 C 0.55493 0.7212 0.35053 0.0
C239 C 0.54784 0.71155 0.30695 0.0
C240 C 0.55767 0.73007 0.24574 0.0
C241 C 0.54047 0.72055 0.222 0.0
C242 C 0.53669 0.72966 0.18998 0.0
C243 C 0.55043 0.74859 0.18156 0.0
C244 C 0.56818 0.75776 0.20389 0.0
C245 C 0.57164 0.74824 0.23548 0.0
C246 C 0.51784 0.71927 0.16587 0.0
C247 C 0.5832 0.77789 0.19542 0.0
C248 C 0.58757 0.73016 0.9414 0.0
C249 C 0.56812 0.72103 0.94628 0.0
C250 C 0.55951 0.73179 0.95711 0.0
C251 C 0.57074 0.75201 0.96444 0.0
C252 C 0.59022 0.76129 0.95748 0.0
C253 C 0.59831 0.7502 0.94528 0.0
C254 C 0.53853 0.72143 0.96208 0.0
C255 C 0.60264 0.78281 0.9645 0.0
C256 C 0.5229 0.84671 0.96133 0.0
C257 C 0.5365 0.85348 0.9263 0.0
C258 C 0.53945 0.82515 0.91337 0.0
C259 C 0.52659 0.80546 0.90761 0.0
C260 C 0.53061 0.79197 0.92452 0.0
C261 C 0.54805 0.79845 0.94697 0.0
C262 C 0.5618 0.81824 0.94933 0.0
C263 C 0.55734 0.83141 0.93256 0.0
C264 C 0.51576 0.77095 0.92089 0.0
C265 C 0.5808 0.82557 0.97182 0.0
C266 C 0.5317 0.77952 0.14126 0.0
C267 C 0.53632 0.76867 0.16679 0.0
C268 C 0.54568 0.75937 0.1519 0.0
C269 C 0.55022 0.76045 0.11001 0.0
C270 C 0.55914 0.75081 0.09373 0.0
C271 C 0.56332 0.7518 0.05229 0.0
C272 C 0.55869 0.76242 0.02545 0.0
C273 C 0.56248 0.76315 0.98296 0.0
C274 C 0.55853 0.77464 0.95772 0.0
C275 C 0.5507 0.78532 0.9738 0.0
C276 C 0.54609 0.7841 0.01572 0.0
C277 C 0.53766 0.79421 0.03248 0.0
C278 C 0.53308 0.79287 0.07362 0.0
C279 C 0.53675 0.78138 0.09967 0.0
C280 C 0.54571 0.7715 0.08379 0.0
C281 C 0.55014 0.77265 0.0416 0.0
C282 C 0.61155 0.70534 0.96775 0.0
C283 C 0.59279 0.70336 0.95231 0.0
O284 O 0.4892 0.80821 0.21867 0.0
O285 O 0.53399 0.83777 0.90161 0.0
O286 O 0.59637 0.71999 0.93351 0.0
O287 O 0.56106 0.72229 0.27913 0.0
H288 H 0.49948 0.80643 0.27625 0.0
H289 H 0.46565 0.78378 0.27019 0.0
H290 H 0.46052 0.80287 0.26309 0.0
H291 H 0.47136 0.80172 0.31174 0.0
H292 H 0.52623 0.82357 0.22943 0.0
H293 H 0.476 0.78044 0.16199 0.0
H294 H 0.55433 0.80525 0.21706 0.0
H295 H 0.55643 0.82859 0.21476 0.0
H296 H 0.55872 0.8166 0.16883 0.0
H297 H 0.4753 0.75518 0.12102 0.0
H298 H 0.49476 0.75083 0.12832 0.0
H299 H 0.49484 0.76566 0.08824 0.0
H300 H 0.53434 0.71141 0.30033 0.0
H301 H 0.54471 0.7126 0.3735 0.0
H302 H 0.55643 0.73574 0.35162 0.0
H303 H 0.56889 0.72283 0.35936 0.0
H304 H 0.52992 0.70611 0.22877 0.0
H305 H 0.585 0.75529 0.25356 0.0
H306 H 0.5199 0.71985 0.13212 0.0
H307 H 0.50969 0.72657 0.17294 0.0
H308 H 0.5094 0.70398 0.17344 0.0
H309 H 0.59637 0.7829 0.21513 0.0
H310 H 0.57786 0.78798 0.20108 0.0
H311 H 0.58659 0.77843 0.16241 0.0
H312 H 0.5845 0.70158 0.98008 0.0
H313 H 0.5597 0.70551 0.94188 0.0
H314 H 0.61328 0.75708 0.94069 0.0
H315 H 0.53587 0.72015 0.99552 0.0
H316 H 0.53136 0.70671 0.94671 0.0
H317 H 0.53215 0.72961 0.94904 0.0
H318 H 0.61774 0.78763 0.96055 0.0
H319 H 0.60122 0.78753 0.9962 0.0
H320 H 0.59806 0.79006 0.94222 0.0
H321 H 0.55112 0.8615 0.94057 0.0
H322 H 0.52452 0.85927 0.98048 0.0
H323 H 0.52604 0.83773 0.98174 0.0
H324 H 0.50806 0.83802 0.94859 0.0
H325 H 0.51295 0.80077 0.89199 0.0
H326 H 0.56772 0.84658 0.93523 0.0
H327 H 0.51035 0.76629 0.95185 0.0
H328 H 0.52201 0.76218 0.91018 0.0
H329 H 0.50371 0.76799 0.89913 0.0
H330 H 0.59081 0.84082 0.96603 0.0
H331 H 0.58701 0.81663 0.96214 0.0
H332 H 0.57902 0.82446 0.00563 0.0
H333 H 0.53251 0.76738 0.19878 0.0
H334 H 0.5629 0.74231 0.11283 0.0
H335 H 0.57025 0.7441 0.04162 0.0
H336 H 0.56177 0.77545 0.9254 0.0
H337 H 0.53436 0.8032 0.01397 0.0
H338 H 0.52661 0.80094 0.08476 0.0
H339 H 0.60909 0.69233 0.98364 0.0
H340 H 0.61909 0.71802 0.9902 0.0
H341 H 0.62065 0.70733 0.94155 0.0
C342 C 0.88436 0.59686 0.28038 0.0
C343 C 0.86816 0.58076 0.30222 0.0
C344 C 0.84289 0.56447 0.24669 0.0
C345 C 0.83256 0.54745 0.2219 0.0
C346 C 0.81829 0.54502 0.19299 0.0
C347 C 0.81455 0.56025 0.18817 0.0
C348 C 0.82498 0.57759 0.21306 0.0
C349 C 0.83892 0.57947 0.24238 0.0
C350 C 0.80713 0.52611 0.16785 0.0
C351 C 0.82135 0.59412 0.20876 0.0
C352 C 0.72561 0.56151 0.30707 0.0
C353 C 0.70849 0.55359 0.27586 0.0
C354 C 0.72083 0.54231 0.21981 0.0
C355 C 0.73341 0.56054 0.20604 0.0
C356 C 0.74766 0.56302 0.17987 0.0
C357 C 0.74937 0.54697 0.16698 0.0
C358 C 0.73599 0.52843 0.17851 0.0
C359 C 0.72181 0.52634 0.20461 0.0
C360 C 0.76153 0.58297 0.16768 0.0
C361 C 0.73726 0.51098 0.1649 0.0
C362 C 0.73186 0.53713 0.87609 0.0
C363 C 0.74217 0.55602 0.89326 0.0
C364 C 0.75561 0.56106 0.92639 0.0
C365 C 0.75875 0.54677 0.94281 0.0
C366 C 0.74792 0.52749 0.92663 0.0
C367 C 0.73456 0.52283 0.8935 0.0
C368 C 0.76686 0.58175 0.94305 0.0
C369 C 0.75089 0.51189 0.94355 0.0
C370 C 0.90892 0.59815 0.94269 0.0
C371 C 0.89082 0.58022 0.92552 0.0
C372 C 0.86078 0.5794 0.93095 0.0
C373 C 0.85451 0.59254 0.9369 0.0
C374 C 0.83743 0.58722 0.95515 0.0
C375 C 0.82615 0.56811 0.9667 0.0
C376 C 0.8321 0.55454 0.95934 0.0
C377 C 0.84942 0.56035 0.94165 0.0
C378 C 0.83147 0.60204 0.96216 0.0
C379 C 0.82011 0.53389 0.96993 0.0
C380 C 0.79928 0.55774 0.15811 0.0
C381 C 0.78195 0.55329 0.17346 0.0
C382 C 0.76667 0.55008 0.14709 0.0
C383 C 0.76846 0.55067 0.10377 0.0
C384 C 0.75318 0.54667 0.07608 0.0
C385 C 0.75512 0.54709 0.03343 0.0
C386 C 0.77249 0.55184 0.01698 0.0
C387 C 0.77464 0.55226 0.97379 0.0
C388 C 0.79223 0.5575 0.95865 0.0
C389 C 0.80787 0.56226 0.98535 0.0
C390 C 0.80594 0.56152 0.0286 0.0
C391 C 0.82132 0.56596 0.05639 0.0
C392 C 0.81919 0.56477 0.09881 0.0
C393 C 0.80165 0.55932 0.11512 0.0
C394 C 0.78609 0.55541 0.08779 0.0
C395 C 0.78817 0.55627 0.04443 0.0
C396 C 0.72154 0.51266 0.78991 0.0
C397 C 0.70915 0.51631 0.81917 0.0
O398 O 0.85649 0.56569 0.27395 0.0
O399 O 0.87764 0.58548 0.91409 0.0
O400 O 0.71984 0.53355 0.84252 0.0
O401 O 0.70808 0.53961 0.24855 0.0
H402 H 0.85988 0.58651 0.31756 0.0
H403 H 0.87887 0.6028 0.25684 0.0
H404 H 0.8927 0.59135 0.26456 0.0
H405 H 0.89383 0.60879 0.30323 0.0
H406 H 0.83566 0.53594 0.22554 0.0
H407 H 0.84662 0.5927 0.26154 0.0
H408 H 0.79178 0.52053 0.1699 0.0
H409 H 0.81047 0.51508 0.17833 0.0
H410 H 0.8103 0.52832 0.13479 0.0
H411 H 0.83216 0.60742 0.22656 0.0
H412 H 0.80732 0.59011 0.22021 0.0
H413 H 0.82112 0.59722 0.17567 0.0
H414 H 0.70932 0.56554 0.25813 0.0
H415 H 0.72551 0.57221 0.32969 0.0
H416 H 0.73897 0.56886 0.29113 0.0
H417 H 0.72543 0.54969 0.32413 0.0
H418 H 0.73257 0.57302 0.21642 0.0
H419 H 0.71191 0.51228 0.21478 0.0
H420 H 0.76272 0.58292 0.13362 0.0
H421 H 0.77569 0.58755 0.18237 0.0
H422 H 0.75739 0.59371 0.17723 0.0
H423 H 0.72469 0.49737 0.1726 0.0
H424 H 0.74999 0.51187 0.1804 0.0
H425 H 0.73879 0.51061 0.13098 0.0
H426 H 0.70266 0.50426 0.84003 0.0
H427 H 0.73993 0.56695 0.87992 0.0
H428 H 0.72664 0.50808 0.88107 0.0
H429 H 0.76624 0.58262 0.97722 0.0
H430 H 0.76167 0.59084 0.92931 0.0
H431 H 0.78188 0.58768 0.93619 0.0
H432 H 0.74068 0.49741 0.92913 0.0
H433 H 0.74951 0.5117 0.97756 0.0
H434 H 0.7654 0.51496 0.93794 0.0
H435 H 0.88581 0.57018 0.95097 0.0
H436 H 0.91971 0.59432 0.95238 0.0
H437 H 0.90591 0.60466 0.97017 0.0
H438 H 0.91471 0.60902 0.91905 0.0
H439 H 0.86327 0.60713 0.92795 0.0
H440 H 0.85391 0.54995 0.93556 0.0
H441 H 0.82806 0.60255 0.99493 0.0
H442 H 0.81852 0.59791 0.94244 0.0
H443 H 0.84256 0.61665 0.95471 0.0
H444 H 0.82615 0.52482 0.95985 0.0
H445 H 0.8057 0.52773 0.95505 0.0
H446 H 0.81877 0.53325 0.00391 0.0
H447 H 0.78036 0.55245 0.2066 0.0
H448 H 0.73953 0.54298 0.08714 0.0
H449 H 0.74287 0.54374 0.01345 0.0
H450 H 0.79377 0.55786 0.92547 0.0
H451 H 0.83515 0.57025 0.04562 0.0
H452 H 0.83148 0.56821 0.11872 0.0
H453 H 0.72892 0.52483 0.76973 0.0
H454 H 0.71276 0.49922 0.77015 0.0
H455 H 0.73234 0.51097 0.80783 0.0
C456 C 0.29504 0.82066 0.85353 0.0
C457 C 0.3036 0.84094 0.87441 0.0
C458 C 0.29803 0.83348 0.94593 0.0
C459 C 0.28502 0.83933 0.9553 0.0
C460 C 0.271 0.82938 0.98294 0.0
C461 C 0.26995 0.81317 0.00122 0.0
C462 C 0.28402 0.80823 0.99433 0.0
C463 C 0.29808 0.81865 0.967 0.0
C464 C 0.25655 0.83538 0.99041 0.0
C465 C 0.28337 0.7911 0.01341 0.0
C466 C 0.17557 0.72058 0.80104 0.0
C467 C 0.17604 0.7146 0.84519 0.0
C468 C 0.18203 0.73558 0.90716 0.0
C469 C 0.19286 0.7298 0.93066 0.0
C470 C 0.20474 0.7415 0.96445 0.0
C471 C 0.2056 0.75915 0.97516 0.0
C472 C 0.19378 0.76437 0.95323 0.0
C473 C 0.18201 0.75239 0.91958 0.0
C474 C 0.21685 0.73532 0.98788 0.0
C475 C 0.19413 0.78294 0.96434 0.0
C476 C 0.15188 0.73577 0.21347 0.0
C477 C 0.1644 0.7288 0.20888 0.0
C478 C 0.18313 0.74114 0.1993 0.0
C479 C 0.18929 0.76075 0.19373 0.0
C480 C 0.17693 0.76797 0.20051 0.0
C481 C 0.15841 0.75538 0.21087 0.0
C482 C 0.19616 0.73313 0.19392 0.0
C483 C 0.18307 0.78883 0.19539 0.0
C484 C 0.31876 0.87796 0.27682 0.0
C485 C 0.30805 0.86858 0.31514 0.0
C486 C 0.28467 0.83701 0.28201 0.0
C487 C 0.2812 0.81832 0.27341 0.0
C488 C 0.26693 0.80572 0.24403 0.0
C489 C 0.25568 0.81194 0.22315 0.0
C490 C 0.25872 0.83065 0.23249 0.0
C491 C 0.2732 0.84301 0.26177 0.0
C492 C 0.26398 0.78582 0.23496 0.0
C493 C 0.24673 0.83758 0.21133 0.0
C494 C 0.25229 0.79937 0.01998 0.0
C495 C 0.23761 0.78606 0.99261 0.0
C496 C 0.22013 0.77293 0.00656 0.0
C497 C 0.21697 0.77303 0.04911 0.0
C498 C 0.19933 0.76038 0.06391 0.0
C499 C 0.19632 0.7606 0.10587 0.0
C500 C 0.21095 0.77323 0.13475 0.0
C501 C 0.20806 0.77336 0.17756 0.0
C502 C 0.22291 0.78602 0.20544 0.0
C503 C 0.24065 0.79883 0.19169 0.0
C504 C 0.24377 0.7991 0.1489 0.0
C505 C 0.26135 0.812 0.13383 0.0
C506 C 0.26418 0.81225 0.09157 0.0
C507 C 0.24963 0.7994 0.06292 0.0
C508 C 0.23184 0.78619 0.07747 0.0
C509 C 0.22887 0.78615 0.12042 0.0
C510 C 0.10495 0.7045 0.17981 0.0
C511 C 0.12203 0.70551 0.20293 0.0
O512 O 0.30985 0.84115 0.91494 0.0
O513 O 0.29925 0.8487 0.30959 0.0
O514 O 0.13344 0.72404 0.2204 0.0
O515 O 0.17175 0.72551 0.87206 0.0
H516 H 0.29246 0.84502 0.87414 0.0
H517 H 0.28259 0.81039 0.86994 0.0
H518 H 0.30554 0.81574 0.85415 0.0
H519 H 0.2903 0.82046 0.82085 0.0
H520 H 0.28546 0.85129 0.93998 0.0
H521 H 0.30839 0.81444 0.95989 0.0
H522 H 0.24305 0.82501 0.97322 0.0
H523 H 0.26108 0.84998 0.97991 0.0
H524 H 0.25386 0.83517 0.02383 0.0
H525 H 0.29628 0.79026 0.00833 0.0
H526 H 0.27096 0.77771 0.99963 0.0
H527 H 0.28168 0.79177 0.04721 0.0
H528 H 0.19071 0.7176 0.85196 0.0
H529 H 0.17871 0.71182 0.77882 0.0
H530 H 0.1864 0.73595 0.79906 0.0
H531 H 0.16156 0.71878 0.79193 0.0
H532 H 0.19225 0.71632 0.92237 0.0
H533 H 0.17331 0.75651 0.90172 0.0
H534 H 0.21463 0.73553 0.02149 0.0
H535 H 0.23196 0.74564 0.98379 0.0
H536 H 0.21376 0.72067 0.97723 0.0
H537 H 0.183 0.78418 0.94649 0.0
H538 H 0.20809 0.79527 0.95802 0.0
H539 H 0.1922 0.78404 0.99792 0.0
H540 H 0.1296 0.70184 0.17957 0.0
H541 H 0.15955 0.71373 0.21263 0.0
H542 H 0.14869 0.76065 0.21533 0.0
H543 H 0.19875 0.73251 0.16061 0.0
H544 H 0.19016 0.71842 0.20509 0.0
H545 H 0.20998 0.74268 0.21088 0.0
H546 H 0.17158 0.79206 0.20065 0.0
H547 H 0.18787 0.79271 0.1637 0.0
H548 H 0.19519 0.79808 0.21763 0.0
H549 H 0.29731 0.87292 0.3205 0.0
H550 H 0.32602 0.89389 0.28133 0.0
H551 H 0.30895 0.87361 0.24895 0.0
H552 H 0.32942 0.87359 0.27094 0.0
H553 H 0.29 0.81375 0.28933 0.0
H554 H 0.27545 0.85731 0.26852 0.0
H555 H 0.26526 0.7836 0.20143 0.0
H556 H 0.24951 0.7749 0.24248 0.0
H557 H 0.27428 0.78336 0.25297 0.0
H558 H 0.25035 0.85225 0.22323 0.0
H559 H 0.2316 0.82752 0.21582 0.0
H560 H 0.2486 0.83776 0.17752 0.0
H561 H 0.23981 0.78599 0.95973 0.0
H562 H 0.18761 0.75025 0.04316 0.0
H563 H 0.18237 0.75063 0.11533 0.0
H564 H 0.22058 0.78602 0.23823 0.0
H565 H 0.27309 0.82211 0.15454 0.0
H566 H 0.27792 0.82252 0.08158 0.0
H567 H 0.09565 0.68985 0.16498 0.0
H568 H 0.10974 0.71492 0.15518 0.0
H569 H 0.09672 0.70809 0.20132 0.0
C570 C 0.39642 0.28085 0.34279 0.0
C571 C 0.41703 0.28723 0.33588 0.0
C572 C 0.42981 0.27509 0.28384 0.0
C573 C 0.44859 0.28369 0.29959 0.0
C574 C 0.46038 0.2768 0.28625 0.0
C575 C 0.45301 0.26059 0.2576 0.0
C576 C 0.43388 0.25165 0.24251 0.0
C577 C 0.42272 0.25941 0.25498 0.0
C578 C 0.48074 0.28699 0.30252 0.0
C579 C 0.42512 0.23386 0.21333 0.0
C580 C 0.5044 0.20275 0.45664 0.0
C581 C 0.49753 0.1934 0.41282 0.0
C582 C 0.50136 0.21275 0.35337 0.0
C583 C 0.4837 0.20086 0.33236 0.0
C584 C 0.47701 0.20793 0.30097 0.0
C585 C 0.48827 0.22718 0.2903 0.0
C586 C 0.50628 0.23897 0.31065 0.0
C587 C 0.51265 0.2315 0.34165 0.0
C588 C 0.45796 0.19489 0.27912 0.0
C589 C 0.5187 0.25955 0.29998 0.0
C590 C 0.52975 0.20848 0.05495 0.0
C591 C 0.51005 0.19888 0.05619 0.0
C592 C 0.50074 0.20905 0.06607 0.0
C593 C 0.51143 0.22916 0.07563 0.0
C594 C 0.53121 0.23896 0.07245 0.0
C595 C 0.54008 0.22848 0.06148 0.0
C596 C 0.47955 0.1982 0.06738 0.0
C597 C 0.54307 0.2604 0.08201 0.0
C598 C 0.46226 0.32433 0.04707 0.0
C599 C 0.47955 0.33095 0.02134 0.0
C600 C 0.48239 0.30234 0.01399 0.0
C601 C 0.46939 0.28274 0.00678 0.0
C602 C 0.47213 0.26889 0.02609 0.0
C603 C 0.48844 0.27491 0.05255 0.0
C604 C 0.50236 0.29463 0.05715 0.0
C605 C 0.49919 0.30816 0.03777 0.0
C606 C 0.45715 0.24796 0.02018 0.0
C607 C 0.52019 0.30151 0.08419 0.0
C608 C 0.46525 0.25306 0.24303 0.0
C609 C 0.47035 0.24317 0.27047 0.0
C610 C 0.48131 0.2352 0.25818 0.0
C611 C 0.48647 0.2361 0.21676 0.0
C612 C 0.49644 0.22717 0.2027 0.0
C613 C 0.50149 0.2282 0.16187 0.0
C614 C 0.49701 0.23845 0.13366 0.0
C615 C 0.5021 0.23962 0.09204 0.0
C616 C 0.49862 0.25109 0.06572 0.0
C617 C 0.48987 0.26119 0.07977 0.0
C618 C 0.48364 0.25921 0.12045 0.0
C619 C 0.47406 0.26852 0.13491 0.0
C620 C 0.46806 0.26657 0.175 0.0
C621 C 0.47154 0.25538 0.20237 0.0
C622 C 0.48172 0.24639 0.18887 0.0
C623 C 0.48738 0.24794 0.14756 0.0
C624 C 0.55214 0.18243 0.08319 0.0
C625 C 0.53456 0.18107 0.06183 0.0
O626 O 0.41825 0.28171 0.29561 0.0
O627 O 0.47823 0.31532 0.99844 0.0
O628 O 0.53921 0.19892 0.04776 0.0
O629 O 0.5081 0.20667 0.3847 0.0
H630 H 0.42141 0.27964 0.35792 0.0
H631 H 0.3876 0.26502 0.3368 0.0
H632 H 0.39116 0.28791 0.32151 0.0
H633 H 0.39487 0.28456 0.37529 0.0
H634 H 0.45414 0.29602 0.32159 0.0
H635 H 0.40817 0.2529 0.24308 0.0
H636 H 0.48288 0.27786 0.32445 0.0
H637 H 0.485 0.30106 0.31903 0.0
H638 H 0.49016 0.28941 0.27678 0.0
H639 H 0.40946 0.22626 0.21245 0.0
H640 H 0.42988 0.22371 0.22246 0.0
H641 H 0.4295 0.23801 0.18154 0.0
H642 H 0.48241 0.1893 0.40907 0.0
H643 H 0.50259 0.21552 0.46039 0.0
H644 H 0.51958 0.20748 0.4627 0.0
H645 H 0.49609 0.19245 0.4799 0.0
H646 H 0.47522 0.18604 0.34006 0.0
H647 H 0.52636 0.24043 0.35765 0.0
H648 H 0.45941 0.19429 0.2452 0.0
H649 H 0.4485 0.20084 0.28469 0.0
H650 H 0.45123 0.18005 0.28978 0.0
H651 H 0.532 0.26705 0.31986 0.0
H652 H 0.51101 0.26759 0.30344 0.0
H653 H 0.52229 0.2599 0.26715 0.0
H654 H 0.5239 0.17695 0.08564 0.0
H655 H 0.50196 0.18345 0.04956 0.0
H656 H 0.55525 0.23576 0.05967 0.0
H657 H 0.47569 0.1969 0.10012 0.0
H658 H 0.47313 0.1835 0.05215 0.0
H659 H 0.47341 0.20613 0.05202 0.0
H660 H 0.5584 0.26562 0.08098 0.0
H661 H 0.54028 0.26429 0.1132 0.0
H662 H 0.53918 0.26798 0.05917 0.0
H663 H 0.49226 0.33752 0.04313 0.0
H664 H 0.46303 0.3368 0.06499 0.0
H665 H 0.46174 0.31392 0.06934 0.0
H666 H 0.44906 0.31722 0.02678 0.0
H667 H 0.45663 0.2784 0.98767 0.0
H668 H 0.50973 0.32327 0.04169 0.0
H669 H 0.45045 0.24294 0.04989 0.0
H670 H 0.46363 0.23917 0.0113 0.0
H671 H 0.44603 0.24543 0.99612 0.0
H672 H 0.53052 0.31694 0.08091 0.0
H673 H 0.52691 0.29284 0.07631 0.0
H674 H 0.51665 0.29952 0.1171 0.0
H675 H 0.46598 0.24189 0.30201 0.0
H676 H 0.5003 0.21913 0.22302 0.0
H677 H 0.50911 0.221 0.15285 0.0
H678 H 0.50309 0.25245 0.03427 0.0
H679 H 0.47092 0.27732 0.11534 0.0
H680 H 0.46077 0.27409 0.18434 0.0
H681 H 0.56349 0.18663 0.06122 0.0
H682 H 0.54876 0.1684 0.09541 0.0
H683 H 0.55741 0.19343 0.10957 0.0
C684 C 0.99081 0.45634 0.72538 0.0
C685 C 0.04598 0.48405 0.67606 0.0
C686 C 0.03883 0.5474 0.67823 0.0
Mg687 Mg 0.00535 0.46593 0.63748 0.0
O688 O 0.00487 0.48839 0.6524 0.0
Mg689 Mg 0.01919 0.50316 0.70514 0.0
Mg690 Mg 0.01442 0.50977 0.61445 0.0
O691 O 0.02407 0.53126 0.57645 0.0
Mg692 Mg 0.02278 0.55329 0.59144 0.0
Mg693 Mg 0.00989 0.51641 0.52368 0.0
C694 C 0.98992 0.47216 0.55045 0.0
C695 C 0.04109 0.50421 0.54876 0.0
O696 O 0.00102 0.4743 0.73721 0.0
O697 O 0.98981 0.45005 0.68785 0.0
O698 O 0.0428 0.49563 0.69784 0.0
O699 O 0.03373 0.47179 0.64914 0.0
O700 O 0.99297 0.46133 0.57406 0.0
O701 O 0.99452 0.48949 0.562 0.0
C702 C 0.98783 0.5153 0.68058 0.0
O703 O 0.9922 0.51632 0.64255 0.0
O704 O 0.99602 0.51063 0.70845 0.0
O705 O 0.02747 0.54525 0.49162 0.0
O706 O 0.03758 0.5696 0.54042 0.0
O707 O 0.9862 0.52363 0.53069 0.0
C708 C 0.03684 0.5633 0.503 0.0
O709 O 0.99397 0.54647 0.58103 0.0
O710 O 0.03544 0.55802 0.65463 0.0
C711 C 0.98225 0.53449 0.55294 0.0
O712 O 0.0345 0.53012 0.66678 0.0
O713 O 0.03638 0.50298 0.58651 0.0
O714 O 0.03336 0.50924 0.52055 0.0
C715 C 0.493 0.03582 0.73822 0.0
C716 C 0.46197 0.97969 0.67108 0.0
C717 C 0.52912 0.98544 0.65459 0.0
Mg718 Mg 0.48337 0.02142 0.64536 0.0
O719 O 0.50645 0.02202 0.65334 0.0
Mg720 Mg 0.5086 0.00689 0.69895 0.0
Mg721 Mg 0.51537 0.01205 0.60731 0.0
O722 O 0.52403 0.00196 0.56107 0.0
Mg723 Mg 0.54683 0.00211 0.56851 0.0
Mg724 Mg 0.5216 0.0168 0.51503 0.0
C725 C 0.50152 0.03846 0.55958 0.0
C726 C 0.47953 0.98601 0.54154 0.0
O727 O 0.50083 0.02546 0.7425 0.0
O728 O 0.48573 0.03676 0.70329 0.0
O729 O 0.47729 0.9833 0.69075 0.0
O730 O 0.46115 0.99199 0.64857 0.0
O731 O 0.48909 0.03521 0.58622 0.0
O732 O 0.51383 0.0331 0.56428 0.0
C733 C 0.55071 0.0384 0.67416 0.0
O734 O 0.54554 0.034 0.63545 0.0
O735 O 0.5393 0.03025 0.70257 0.0
O736 O 0.52848 0.99737 0.47132 0.0
O737 O 0.54411 0.98671 0.51086 0.0
O738 O 0.55321 0.04005 0.52161 0.0
C739 C 0.53651 0.98722 0.476 0.0
O740 O 0.56916 0.03112 0.56376 0.0
O741 O 0.5414 0.98844 0.62774 0.0
C742 C 0.56854 0.04342 0.54093 0.0
O743 O 0.51704 0.99109 0.65002 0.0
O744 O 0.4853 0.99003 0.57994 0.0
O745 O 0.49061 0.99413 0.51258 0.0
C746 C 0.5297 0.54668 0.46655 0.0
C747 C 0.55477 0.516 0.51974 0.0
C748 C 0.48396 0.4626 0.55109 0.0
Mg749 Mg 0.54128 0.5425 0.55636 0.0
O750 O 0.51619 0.52247 0.5523 0.0
Mg751 Mg 0.50844 0.50258 0.50505 0.0
Mg752 Mg 0.50676 0.50537 0.59913 0.0
O753 O 0.49735 0.4883 0.64602 0.0
Mg754 Mg 0.47245 0.46794 0.64251 0.0
Mg755 Mg 0.50495 0.50819 0.69311 0.0
C756 C 0.52964 0.54802 0.64742 0.0
C757 C 0.54277 0.51089 0.65689 0.0
O758 O 0.51833 0.52838 0.46221 0.0
O759 O 0.53953 0.55509 0.50035 0.0
O760 O 0.53803 0.50552 0.50334 0.0
O761 O 0.55902 0.5304 0.54482 0.0
O762 O 0.54113 0.55454 0.61823 0.0
O763 O 0.51481 0.53121 0.64411 0.0
C764 C 0.47069 0.49988 0.54166 0.0
O765 O 0.47763 0.50161 0.57883 0.0
O766 O 0.47976 0.5 0.51009 0.0
O767 O 0.4951 0.48249 0.73628 0.0
O768 O 0.4747 0.45543 0.69823 0.0
O769 O 0.47532 0.50514 0.69438 0.0
C770 C 0.48427 0.46409 0.73214 0.0
O771 O 0.45435 0.47962 0.65433 0.0
O772 O 0.47271 0.45606 0.5807 0.0
C773 C 0.45854 0.4943 0.6785 0.0
O774 O 0.49864 0.47953 0.55403 0.0
O775 O 0.5359 0.50912 0.61961 0.0
O776 O 0.53364 0.51081 0.68831 0.0
H777 H 0.11865 0.41905 0.36664 0.0
H778 H 0.09942 0.43035 0.40094 0.0
H779 H 0.14973 0.48367 0.44047 0.0
H780 H 0.169 0.47218 0.4074 0.0
H781 H 0.12619 0.46925 0.5028 0.0
H782 H 0.08632 0.46951 0.3612 0.0
H783 H 0.08429 0.44657 0.36888 0.0
H784 H 0.10684 0.46679 0.35918 0.0
C785 C 0.12555 0.43323 0.38242 0.0
C786 C 0.1453 0.44481 0.38402 0.0
C787 C 0.11457 0.43971 0.40185 0.0
C788 C 0.12312 0.45799 0.42275 0.0
C789 C 0.14283 0.46955 0.42442 0.0
H790 H 0.06547 0.51946 0.48809 0.0
H791 H 0.08648 0.50887 0.46117 0.0
C792 C 0.15381 0.46302 0.40531 0.0
C793 C 0.11161 0.46504 0.44336 0.0
H794 H 0.07607 0.4748 0.42539 0.0
C795 C 0.11526 0.47053 0.4859 0.0
C796 C 0.09749 0.4669 0.42117 0.0
C797 C 0.09359 0.46232 0.37502 0.0
C798 C 0.10515 0.47777 0.50688 0.0
C799 C 0.09072 0.47917 0.48486 0.0
C800 C 0.08708 0.47367 0.44234 0.0
C801 C 0.07946 0.48678 0.50464 0.0
C802 C 0.11039 0.4843 0.5521 0.0
C803 C 0.06874 0.47814 0.5386 0.0
C804 C 0.0569 0.48442 0.55448 0.0
C805 C 0.05534 0.49917 0.53619 0.0
C806 C 0.06636 0.50803 0.5028 0.0
C807 C 0.07835 0.50197 0.48734 0.0
H808 H 0.12493 0.4875 0.56099 0.0
H809 H 0.10937 0.49733 0.55964 0.0
H810 H 0.10057 0.47267 0.57122 0.0
H811 H 0.06895 0.46608 0.55185 0.0
H812 H 0.04827 0.47705 0.57952 0.0
H813 H 0.7191 0.12749 0.36732 0.0
H814 H 0.68875 0.11023 0.39896 0.0
H815 H 0.69398 0.16426 0.44172 0.0
H816 H 0.72449 0.18158 0.41057 0.0
H817 H 0.68387 0.13828 0.50276 0.0
H818 H 0.63812 0.10413 0.35958 0.0
H819 H 0.65743 0.09961 0.36383 0.0
H820 H 0.66205 0.12378 0.35891 0.0
C821 C 0.7136 0.13565 0.38289 0.0
C822 C 0.72395 0.15586 0.38581 0.0
C823 C 0.69628 0.12581 0.40089 0.0
C824 C 0.68897 0.13598 0.42206 0.0
C825 C 0.69931 0.15615 0.42521 0.0
H826 H 0.57297 0.0731 0.49474 0.0
H827 H 0.60239 0.09867 0.47039 0.0
C828 C 0.71665 0.16601 0.40726 0.0
C829 C 0.67088 0.1255 0.44226 0.0
H830 H 0.62464 0.09129 0.42326 0.0
C831 C 0.67085 0.12816 0.48538 0.0
C832 C 0.65387 0.11256 0.41945 0.0
C833 C 0.65277 0.10997 0.37283 0.0
C834 C 0.65438 0.1176 0.50651 0.0
C835 C 0.63763 0.10383 0.48393 0.0
C836 C 0.63752 0.10176 0.44063 0.0
C837 C 0.62029 0.09059 0.50439 0.0
C838 C 0.65511 0.12128 0.55275 0.0
C839 C 0.62062 0.07789 0.53259 0.0
C840 C 0.60383 0.06331 0.5468 0.0
C841 C 0.58635 0.06097 0.53255 0.0
C842 C 0.58616 0.07439 0.50614 0.0
C843 C 0.60296 0.08902 0.49213 0.0
H844 H 0.66653 0.13604 0.56295 0.0
H845 H 0.6415 0.11937 0.56291 0.0
H846 H 0.65807 0.11097 0.56851 0.0
H847 H 0.63376 0.07858 0.54191 0.0
H848 H 0.60453 0.05326 0.56712 0.0
H849 H 0.57372 0.69956 0.31735 0.0
H850 H 0.56754 0.66681 0.32455 0.0
H851 H 0.50807 0.64491 0.29839 0.0
H852 H 0.51415 0.67781 0.29312 0.0
H853 H 0.51341 0.63179 0.36618 0.0
H854 H 0.55561 0.62114 0.25036 0.0
H855 H 0.57021 0.64283 0.28173 0.0
H856 H 0.55088 0.64079 0.24928 0.0
C857 C 0.55938 0.68771 0.31256 0.0
C858 C 0.54439 0.69121 0.30522 0.0
C859 C 0.55587 0.66896 0.3161 0.0
C860 C 0.53735 0.6533 0.31137 0.0
C861 C 0.52248 0.65674 0.30195 0.0
H862 H 0.50303 0.53902 0.40393 0.0
H863 H 0.50294 0.56199 0.35607 0.0
C864 C 0.52595 0.67552 0.299 0.0
C865 C 0.53337 0.63387 0.32207 0.0
H866 H 0.54932 0.60206 0.31115 0.0
C867 C 0.52085 0.62501 0.35324 0.0
C868 C 0.54303 0.62496 0.30517 0.0
C869 C 0.55551 0.63286 0.26946 0.0
C870 C 0.51878 0.60829 0.37002 0.0
C871 C 0.52948 0.60021 0.35519 0.0
C872 C 0.54119 0.60837 0.32246 0.0
C873 C 0.53063 0.58512 0.37755 0.0
C874 C 0.50613 0.60009 0.40544 0.0
C875 C 0.54648 0.59041 0.40423 0.0
C876 C 0.54652 0.57747 0.43168 0.0
C877 C 0.53074 0.55894 0.43268 0.0
C878 C 0.51539 0.5532 0.40382 0.0
C879 C 0.51529 0.56627 0.37655 0.0
H880 H 0.49977 0.6089 0.41518 0.0
H881 H 0.49456 0.58532 0.39601 0.0
H882 H 0.51423 0.5991 0.43251 0.0
H883 H 0.55842 0.60491 0.40544 0.0
H884 H 0.55864 0.58226 0.45323 0.0
H885 H 0.88117 0.55539 0.29162 0.0
H886 H 0.89632 0.54535 0.34353 0.0
H887 H 0.88982 0.58062 0.43779 0.0
H888 H 0.87433 0.5905 0.38593 0.0
H889 H 0.92944 0.57058 0.38945 0.0
H890 H 0.87152 0.5292 0.49274 0.0
H891 H 0.86723 0.53448 0.44106 0.0
H892 H 0.87572 0.55281 0.48252 0.0
C893 C 0.8826 0.56067 0.32357 0.0
C894 C 0.87621 0.57342 0.33491 0.0
C895 C 0.8913 0.55498 0.35315 0.0
C896 C 0.8939 0.56198 0.39462 0.0
C897 C 0.88752 0.57467 0.40617 0.0
H898 H 0.97218 0.5606 0.58078 0.0
H899 H 0.94821 0.56632 0.54797 0.0
C900 C 0.87877 0.58037 0.37653 0.0
C901 C 0.90474 0.55721 0.4247 0.0
H902 H 0.90183 0.53435 0.5135 0.0
C903 C 0.9234 0.5627 0.41658 0.0
C904 C 0.89681 0.54697 0.46015 0.0
C905 C 0.87667 0.54036 0.46966 0.0
C906 C 0.93433 0.55809 0.44274 0.0
C907 C 0.92637 0.54767 0.47785 0.0
C908 C 0.90782 0.54238 0.48651 0.0
C909 C 0.93723 0.54161 0.50433 0.0
C910 C 0.9543 0.56415 0.43251 0.0
C911 C 0.93831 0.52535 0.49172 0.0
C912 C 0.95201 0.52207 0.51015 0.0
C913 C 0.96491 0.53509 0.5414 0.0
C914 C 0.96258 0.55038 0.55659 0.0
C915 C 0.94887 0.55366 0.53799 0.0
H916 H 0.95884 0.57341 0.40579 0.0
H917 H 0.96415 0.57209 0.45975 0.0
H918 H 0.95542 0.55118 0.42495 0.0
H919 H 0.92941 0.51593 0.46571 0.0
H920 H 0.95326 0.51004 0.49799 0.0
H921 H 0.32728 0.85191 0.35103 0.0
H922 H 0.35244 0.86601 0.40589 0.0
H923 H 0.34688 0.91664 0.41513 0.0
H924 H 0.321 0.90211 0.36202 0.0
H925 H 0.38451 0.89532 0.4 0.0
H926 H 0.35503 0.91242 0.53449 0.0
H927 H 0.34017 0.89658 0.49135 0.0
H928 H 0.35048 0.9223 0.48983 0.0
C929 C 0.33093 0.86574 0.36583 0.0
C930 C 0.32185 0.87575 0.35277 0.0
C931 C 0.34541 0.87384 0.39711 0.0
C932 C 0.35139 0.89227 0.41543 0.0
C933 C 0.34213 0.90213 0.40282 0.0
H934 H 0.46084 0.98191 0.46782 0.0
H935 H 0.42919 0.95699 0.44419 0.0
C936 C 0.32744 0.8939 0.37212 0.0
C937 C 0.36894 0.90234 0.44293 0.0
H938 H 0.38908 0.93341 0.52849 0.0
C939 C 0.38533 0.90322 0.42864 0.0
C940 C 0.37016 0.91244 0.48083 0.0
C941 C 0.35293 0.91068 0.50018 0.0
C942 C 0.40299 0.91501 0.44933 0.0
C943 C 0.40444 0.92671 0.48458 0.0
C944 C 0.38797 0.92473 0.50091 0.0
C945 C 0.42303 0.94252 0.50142 0.0
C946 C 0.42005 0.91532 0.43232 0.0
C947 C 0.42976 0.94322 0.54232 0.0
C948 C 0.44801 0.95768 0.55621 0.0
C949 C 0.45966 0.97158 0.52933 0.0
C950 C 0.45242 0.97123 0.48912 0.0
C951 C 0.43431 0.95696 0.47547 0.0
H952 H 0.41614 0.90145 0.41529 0.0
H953 H 0.42635 0.92682 0.4102 0.0
H954 H 0.4309 0.91823 0.45737 0.0
H955 H 0.42115 0.93231 0.56299 0.0
H956 H 0.45319 0.9576 0.58736 0.0
H957 H 0.43347 0.30629 0.41006 0.0
H958 H 0.44982 0.34085 0.42789 0.0
H959 H 0.44421 0.35138 0.29989 0.0
H960 H 0.42708 0.31661 0.28222 0.0
H961 H 0.48171 0.37143 0.40443 0.0
H962 H 0.41915 0.37753 0.35585 0.0
H963 H 0.41789 0.35459 0.35903 0.0
H964 H 0.42866 0.36915 0.31636 0.0
C965 C 0.43594 0.316 0.38566 0.0
C966 C 0.42915 0.30877 0.34478 0.0
C967 C 0.4453 0.33574 0.39581 0.0
C968 C 0.44807 0.34873 0.36532 0.0
C969 C 0.44195 0.34163 0.32406 0.0
H970 H 0.50669 0.46669 0.48668 0.0
H971 H 0.50041 0.44264 0.43001 0.0
C972 C 0.43233 0.32178 0.31394 0.0
C973 C 0.45631 0.36944 0.37807 0.0
H974 H 0.44437 0.40428 0.39143 0.0
C975 C 0.47374 0.37881 0.40097 0.0
C976 C 0.44588 0.37903 0.37332 0.0
C977 C 0.42681 0.36959 0.35009 0.0
C978 C 0.48032 0.3968 0.42209 0.0
C979 C 0.46936 0.40589 0.41925 0.0
C980 C 0.45273 0.39727 0.39345 0.0
C981 C 0.47271 0.42199 0.44885 0.0
C982 C 0.49811 0.40512 0.44992 0.0
C983 C 0.45889 0.4188 0.47681 0.0
C984 C 0.46232 0.43248 0.5086 0.0
C985 C 0.47971 0.44973 0.51343 0.0
C986 C 0.4932 0.45349 0.48397 0.0
C987 C 0.48969 0.43971 0.45179 0.0
H988 H 0.50347 0.39493 0.45287 0.0
H989 H 0.50926 0.41835 0.437 0.0
H990 H 0.49561 0.40907 0.48134 0.0
H991 H 0.44566 0.40529 0.47515 0.0
H992 H 0.45148 0.42915 0.5303 0.0
H993 H 0.55768 0.89277 0.92744 0.0
H994 H 0.5524 0.91472 0.88625 0.0
H995 H 0.50211 0.86658 0.82724 0.0
H996 H 0.50755 0.84448 0.86802 0.0
H997 H 0.52504 0.89076 0.77185 0.0
H998 H 0.51438 0.93278 0.89649 0.0
H999 H 0.53581 0.93222 0.90548 0.0
H1000 H 0.51348 0.91024 0.90478 0.0
C1001 C 0.54551 0.88688 0.90565 0.0
C1002 C 0.5332 0.86691 0.9004 0.0
C1003 C 0.54237 0.89944 0.88254 0.0
C1004 C 0.52668 0.89231 0.85421 0.0
C1005 C 0.51424 0.87238 0.84914 0.0
H1006 H 0.50022 0.96658 0.70605 0.0
H1007 H 0.49782 0.94372 0.7571 0.0
C1008 C 0.5174 0.85979 0.87222 0.0
C1009 C 0.52413 0.90559 0.82777 0.0
H1010 H 0.52222 0.94714 0.83069 0.0
C1011 C 0.52414 0.90292 0.78472 0.0
C1012 C 0.52269 0.92131 0.84454 0.0
C1013 C 0.52138 0.92422 0.89034 0.0
C1014 C 0.52373 0.91607 0.75811 0.0
C1015 C 0.5236 0.93248 0.77508 0.0
C1016 C 0.52259 0.93467 0.81791 0.0
C1017 C 0.52568 0.94794 0.74865 0.0
C1018 C 0.52377 0.91249 0.71203 0.0
C1019 C 0.5424 0.95839 0.72852 0.0
C1020 C 0.54382 0.97136 0.69955 0.0
C1021 C 0.52855 0.97423 0.69027 0.0
C1022 C 0.51222 0.96468 0.71252 0.0
C1023 C 0.5108 0.95159 0.74156 0.0
H1024 H 0.51886 0.89712 0.70347 0.0
H1025 H 0.51466 0.91678 0.69474 0.0
H1026 H 0.53836 0.9212 0.70206 0.0
H1027 H 0.55416 0.95601 0.73422 0.0
H1028 H 0.55669 0.97867 0.68341 0.0
H1029 H 0.71207 0.54349 0.76586 0.0
H1030 H 0.68667 0.54452 0.72592 0.0
H1031 H 0.64574 0.49216 0.77784 0.0
H1032 H 0.67109 0.49068 0.81648 0.0
H1033 H 0.63815 0.49201 0.69525 0.0
H1034 H 0.65167 0.56057 0.77522 0.0
H1035 H 0.67127 0.56188 0.74939 0.0
H1036 H 0.66271 0.54737 0.79315 0.0
C1037 C 0.69764 0.53218 0.76855 0.0
C1038 C 0.69354 0.51709 0.79454 0.0
C1039 C 0.68315 0.53284 0.74594 0.0
C1040 C 0.66429 0.51858 0.74941 0.0
C1041 C 0.6602 0.50334 0.77474 0.0
H1042 H 0.56125 0.5161 0.73182 0.0
H1043 H 0.59179 0.51904 0.74659 0.0
C1044 C 0.67467 0.50256 0.79699 0.0
C1045 C 0.64861 0.51963 0.72774 0.0
H1046 H 0.6265 0.54606 0.72485 0.0
C1047 C 0.63567 0.50391 0.70133 0.0
C1048 C 0.64543 0.53518 0.73582 0.0
C1049 C 0.65839 0.55215 0.76517 0.0
C1050 C 0.61919 0.5029 0.68425 0.0
C1051 C 0.6158 0.51824 0.69318 0.0
C1052 C 0.62921 0.53437 0.71792 0.0
C1053 C 0.59736 0.51673 0.68241 0.0
C1054 C 0.60506 0.48497 0.65882 0.0
C1055 C 0.59028 0.51449 0.6412 0.0
C1056 C 0.5725 0.51255 0.6325 0.0
C1057 C 0.56169 0.51307 0.66487 0.0
C1058 C 0.56907 0.5156 0.70597 0.0
C1059 C 0.58664 0.51737 0.71457 0.0
H1060 H 0.60832 0.47315 0.66088 0.0
H1061 H 0.5906 0.47981 0.66908 0.0
H1062 H 0.60518 0.4883 0.62584 0.0
H1063 H 0.59845 0.51424 0.61583 0.0
H1064 H 0.56722 0.51052 0.60059 0.0
H1065 H 0.18343 0.68527 0.85735 0.0
H1066 H 0.16095 0.65059 0.85339 0.0
H1067 H 0.11504 0.66176 0.83385 0.0
H1068 H 0.13738 0.69637 0.83934 0.0
H1069 H 0.10567 0.63077 0.88264 0.0
H1070 H 0.13886 0.62476 0.73948 0.0
H1071 H 0.1539 0.63372 0.78608 0.0
H1072 H 0.14464 0.64771 0.76393 0.0
C1073 C 0.16851 0.68028 0.85295 0.0
C1074 C 0.16213 0.69345 0.84807 0.0
C1075 C 0.1557 0.6605 0.85055 0.0
C1076 C 0.13637 0.65361 0.84247 0.0
C1077 C 0.12991 0.66677 0.84001 0.0
H1078 H 0.03785 0.57528 0.72592 0.0
H1079 H 0.06122 0.59626 0.78001 0.0
C1080 C 0.14266 0.68652 0.84289 0.0
C1081 C 0.12298 0.63291 0.83219 0.0
H1082 H 0.11056 0.59815 0.75451 0.0
C1083 C 0.1069 0.62345 0.85511 0.0
C1084 C 0.12468 0.6233 0.79645 0.0
C1085 C 0.14135 0.63286 0.7698 0.0
C1086 C 0.09193 0.60517 0.84166 0.0
C1087 C 0.09304 0.59627 0.80422 0.0
C1088 C 0.10977 0.60498 0.78332 0.0
C1089 C 0.07612 0.58033 0.78148 0.0
C1090 C 0.07473 0.59594 0.86666 0.0
C1091 C 0.07629 0.56396 0.76514 0.0
C1092 C 0.06283 0.55187 0.73396 0.0
C1093 C 0.04933 0.55628 0.71828 0.0
C1094 C 0.0482 0.57164 0.73726 0.0
C1095 C 0.06146 0.58355 0.76857 0.0
H1096 H 0.07861 0.60012 0.90018 0.0
H1097 H 0.06493 0.60101 0.85686 0.0
H1098 H 0.06723 0.58001 0.86212 0.0
H1099 H 0.08758 0.56133 0.77442 0.0
H1100 H 0.06403 0.54013 0.71976 0.0
H1101 H 0.5454 0.18444 0.98132 0.0
H1102 H 0.53534 0.15882 0.92661 0.0
H1103 H 0.49829 0.11739 0.00931 0.0
H1104 H 0.5079 0.14308 0.06369 0.0
H1105 H 0.5402 0.12818 0.92858 0.0
H1106 H 0.46387 0.10303 0.90575 0.0
H1107 H 0.48021 0.12544 0.93391 0.0
H1108 H 0.47126 0.10309 0.95859 0.0
C1109 C 0.53474 0.16995 0.98743 0.0
C1110 C 0.52707 0.16581 0.02643 0.0
C1111 C 0.52909 0.15531 0.95627 0.0
C1112 C 0.51582 0.13622 0.96361 0.0
C1113 C 0.50813 0.13206 0.00252 0.0
H1114 H 0.50627 0.03771 0.81832 0.0
H1115 H 0.51061 0.06092 0.87474 0.0
C1116 C 0.51368 0.14672 0.0336 0.0
C1117 C 0.51109 0.12054 0.93156 0.0
H1118 H 0.47455 0.0832 0.87416 0.0
C1119 C 0.52584 0.11839 0.91658 0.0
C1120 C 0.49237 0.10786 0.91572 0.0
C1121 C 0.47604 0.11005 0.92899 0.0
C1122 C 0.52243 0.10388 0.88633 0.0
C1123 C 0.50366 0.09082 0.8714 0.0
C1124 C 0.48889 0.09305 0.88612 0.0
C1125 C 0.49924 0.07542 0.8389 0.0
C1126 C 0.53903 0.10301 0.8699 0.0
C1127 C 0.49053 0.07525 0.80072 0.0
C1128 C 0.48781 0.06186 0.76858 0.0
C1129 C 0.49378 0.04837 0.77394 0.0
C1130 C 0.50168 0.048 0.81293 0.0
C1131 C 0.50429 0.06134 0.84516 0.0
H1132 H 0.55245 0.11679 0.87661 0.0
H1133 H 0.54041 0.09155 0.88493 0.0
H1134 H 0.53703 0.09958 0.83592 0.0
H1135 H 0.48642 0.0859 0.7953 0.0
H1136 H 0.4816 0.06256 0.7391 0.0
H1137 H 0.31968 0.44187 0.88374 0.0
H1138 H 0.34244 0.45329 0.82989 0.0
H1139 H 0.37003 0.51044 0.88923 0.0
H1140 H 0.34725 0.49907 0.94337 0.0
H1141 H 0.35443 0.48549 0.77397 0.0
H1142 H 0.41056 0.49318 0.88808 0.0
H1143 H 0.38583 0.47939 0.89755 0.0
H1144 H 0.39778 0.50519 0.90186 0.0
C1145 C 0.33035 0.45696 0.88485 0.0
C1146 C 0.33159 0.46962 0.91759 0.0
C1147 C 0.34333 0.46345 0.85407 0.0
C1148 C 0.35793 0.48267 0.85571 0.0
C1149 C 0.35888 0.49553 0.88753 0.0
H1150 H 0.46172 0.52443 0.72761 0.0
H1151 H 0.43681 0.52521 0.76543 0.0
C1152 C 0.34584 0.48905 0.9183 0.0
C1153 C 0.373 0.48869 0.82609 0.0
H1154 H 0.41866 0.49954 0.81958 0.0
C1155 C 0.36856 0.48878 0.78387 0.0
C1156 C 0.39139 0.493 0.83918 0.0
C1157 C 0.39677 0.4926 0.88405 0.0
C1158 C 0.38202 0.49285 0.75424 0.0
C1159 C 0.40023 0.49644 0.76716 0.0
C1160 C 0.40476 0.4969 0.8096 0.0
C1161 C 0.41438 0.49812 0.73752 0.0
C1162 C 0.37657 0.49324 0.70947 0.0
C1163 C 0.40999 0.48304 0.70791 0.0
C1164 C 0.42419 0.48264 0.68588 0.0
C1165 C 0.44315 0.49714 0.69363 0.0
C1166 C 0.44731 0.51293 0.72109 0.0
C1167 C 0.43307 0.5134 0.74282 0.0
H1168 H 0.36548 0.4973 0.70672 0.0
H1169 H 0.3889 0.50348 0.69271 0.0
H1170 H 0.37075 0.47865 0.69412 0.0
H1171 H 0.3958 0.47088 0.70376 0.0
H1172 H 0.42044 0.47026 0.66495 0.0
H1173 H 0.85194 0.32895 0.90568 0.0
H1174 H 0.87668 0.35385 0.86696 0.0
H1175 H 0.91899 0.35765 0.95586 0.0
H1176 H 0.89433 0.33239 0.99406 0.0
H1177 H 0.90277 0.39106 0.89235 0.0
H1178 H 0.93853 0.35053 0.84671 0.0
H1179 H 0.91552 0.33911 0.86744 0.0
H1180 H 0.93634 0.3524 0.90144 0.0
C1181 C 0.86654 0.33485 0.91648 0.0
C1182 C 0.87128 0.32832 0.95213 0.0
C1183 C 0.88064 0.34916 0.89457 0.0
C1184 C 0.89969 0.35732 0.9081 0.0
C1185 C 0.90442 0.35118 0.94425 0.0
H1186 H 0.98832 0.46301 0.80835 0.0
H1187 H 0.96751 0.43977 0.85613 0.0
C1188 C 0.89034 0.33679 0.96605 0.0
C1189 C 0.91453 0.37252 0.88469 0.0
H1190 H 0.95322 0.38315 0.8305 0.0
C1191 C 0.91384 0.38938 0.87887 0.0
C1192 C 0.92887 0.37019 0.86698 0.0
C1193 C 0.92983 0.35202 0.87056 0.0
C1194 C 0.92698 0.40392 0.85539 0.0
C1195 C 0.94143 0.40167 0.83801 0.0
C1196 C 0.94224 0.38491 0.84425 0.0
C1197 C 0.95485 0.41575 0.81032 0.0
C1198 C 0.92487 0.42121 0.84815 0.0
C1199 C 0.95508 0.4098 0.76921 0.0
C1200 C 0.96703 0.42293 0.74205 0.0
C1201 C 0.97906 0.44236 0.75538 0.0
C1202 C 0.97916 0.4482 0.79697 0.0
C1203 C 0.9672 0.43498 0.82425 0.0
H1204 H 0.91074 0.41872 0.85582 0.0
H1205 H 0.93563 0.4337 0.86808 0.0
H1206 H 0.92708 0.42502 0.81539 0.0
H1207 H 0.94571 0.39502 0.75785 0.0
H1208 H 0.96657 0.41783 0.71034 0.0
H1209 H 0.8953 0.59067 0.84454 0.0
H1210 H 0.90561 0.57773 0.78765 0.0
H1211 H 0.90756 0.53718 0.86837 0.0
H1212 H 0.89692 0.54976 0.92476 0.0
H1213 H 0.93868 0.57848 0.78637 0.0
H1214 H 0.88156 0.50284 0.76554 0.0
H1215 H 0.87877 0.52098 0.79378 0.0
H1216 H 0.88981 0.50916 0.8189 0.0
C1217 C 0.89743 0.57863 0.84968 0.0
C1218 C 0.89493 0.57093 0.88883 0.0
C1219 C 0.90339 0.57131 0.81726 0.0
C1220 C 0.90696 0.55619 0.82342 0.0
C1221 C 0.9043 0.54841 0.86239 0.0
H1222 H 0.97304 0.5105 0.75614 0.0
H1223 H 0.95115 0.5201 0.78108 0.0
C1224 C 0.89832 0.55567 0.8947 0.0
C1225 C 0.91535 0.54979 0.79088 0.0
H1226 H 0.91241 0.50938 0.74481 0.0
C1227 C 0.93269 0.56344 0.77632 0.0
C1228 C 0.90747 0.53018 0.77749 0.0
C1229 C 0.88827 0.515 0.78942 0.0
C1230 C 0.94305 0.5578 0.75152 0.0
C1231 C 0.93582 0.53805 0.74095 0.0
C1232 C 0.91793 0.52453 0.75314 0.0
C1233 C 0.94785 0.53101 0.72328 0.0
C1234 C 0.96224 0.57282 0.73918 0.0
C1235 C 0.95298 0.53364 0.68207 0.0
C1236 C 0.96555 0.52803 0.66743 0.0
C1237 C 0.97332 0.51995 0.69393 0.0
C1238 C 0.96758 0.51687 0.7348 0.0
C1239 C 0.95497 0.52228 0.74919 0.0
H1240 H 0.96622 0.58751 0.75157 0.0
H1241 H 0.97309 0.56937 0.75057 0.0
H1242 H 0.96237 0.57275 0.7049 0.0
H1243 H 0.94748 0.54024 0.66149 0.0
H1244 H 0.96941 0.53035 0.63577 0.0
H1245 H 0.34053 0.84889 0.87687 0.0
H1246 H 0.36591 0.8707 0.83445 0.0
H1247 H 0.32768 0.88513 0.7722 0.0
H1248 H 0.30242 0.86368 0.81501 0.0
H1249 H 0.36748 0.87006 0.74801 0.0
H1250 H 0.37224 0.93779 0.81049 0.0
H1251 H 0.35989 0.91549 0.83564 0.0
H1252 H 0.34906 0.91962 0.79099 0.0
C1253 C 0.33768 0.857 0.85464 0.0
C1254 C 0.31968 0.85508 0.85012 0.0
C1255 C 0.3521 0.8693 0.83022 0.0
C1256 C 0.34876 0.87979 0.80072 0.0
C1257 C 0.33069 0.87755 0.79549 0.0
H1258 H 0.42559 0.96895 0.64541 0.0
H1259 H 0.3967 0.94243 0.6698 0.0
C1260 C 0.3163 0.86531 0.81995 0.0
C1261 C 0.36413 0.89297 0.7752 0.0
H1262 H 0.39068 0.94017 0.75419 0.0
C1263 C 0.37256 0.88539 0.74929 0.0
C1264 C 0.37063 0.91294 0.77677 0.0
C1265 C 0.36263 0.92203 0.8052 0.0
C1266 C 0.38739 0.89729 0.72497 0.0
C1267 C 0.39408 0.91729 0.72708 0.0
C1268 C 0.3854 0.92479 0.75237 0.0
C1269 C 0.41105 0.93102 0.70625 0.0
C1270 C 0.39573 0.88837 0.69715 0.0
C1271 C 0.42863 0.93306 0.71775 0.0
C1272 C 0.44515 0.94818 0.70397 0.0
C1273 C 0.44441 0.96169 0.67868 0.0
C1274 C 0.42668 0.95888 0.66504 0.0
C1275 C 0.41015 0.94375 0.67897 0.0
H1276 H 0.38564 0.87286 0.68944 0.0
H1277 H 0.39997 0.89585 0.66793 0.0
H1278 H 0.40847 0.8896 0.71333 0.0
H1279 H 0.42969 0.9236 0.73929 0.0
H1280 H 0.45853 0.94981 0.71493 0.0
H1281 H 0.45899 0.32579 0.94817 0.0
H1282 H 0.46053 0.3505 0.90363 0.0
H1283 H 0.5039 0.3947 0.98713 0.0
H1284 H 0.50255 0.37007 0.03151 0.0
H1285 H 0.45459 0.38155 0.92609 0.0
H1286 H 0.52673 0.40719 0.87307 0.0
H1287 H 0.51348 0.38457 0.89669 0.0
H1288 H 0.52474 0.40674 0.92818 0.0
C1289 C 0.46902 0.34077 0.95665 0.0
C1290 C 0.48096 0.34601 0.99276 0.0
C1291 C 0.46982 0.35484 0.93138 0.0
C1292 C 0.48255 0.37438 0.94179 0.0
C1293 C 0.49428 0.37968 0.9781 0.0
H1294 H 0.50574 0.47549 0.8058 0.0
H1295 H 0.505 0.455 0.86078 0.0
C1296 C 0.49348 0.36562 0.0034 0.0
C1297 C 0.48319 0.3892 0.91505 0.0
H1298 H 0.5113 0.42379 0.85132 0.0
C1299 C 0.46699 0.39083 0.90979 0.0
C1300 C 0.49946 0.40137 0.89419 0.0
C1301 C 0.51707 0.39987 0.89793 0.0
C1302 C 0.46656 0.40421 0.88385 0.0
C1303 C 0.48265 0.41602 0.86209 0.0
C1304 C 0.49901 0.41474 0.86817 0.0
C1305 C 0.48233 0.42872 0.8305 0.0
C1306 C 0.4489 0.40562 0.88001 0.0
C1307 C 0.46988 0.4207 0.79534 0.0
C1308 C 0.47026 0.4323 0.76399 0.0
C1309 C 0.48321 0.45219 0.76697 0.0
C1310 C 0.49554 0.46026 0.80256 0.0
C1311 C 0.49516 0.44858 0.83396 0.0
H1312 H 0.44033 0.40017 0.90739 0.0
H1313 H 0.45231 0.42069 0.87644 0.0
H1314 H 0.44013 0.39672 0.85225 0.0
H1315 H 0.46014 0.40535 0.79164 0.0
H1316 H 0.46057 0.42555 0.73706 0.0
H1317 H 0.15508 0.43327 0.86189 0.0
H1318 H 0.14936 0.45279 0.81373 0.0
H1319 H 0.1013 0.44421 0.8804 0.0
H1320 H 0.10782 0.42602 0.93022 0.0
H1321 H 0.12279 0.44447 0.76092 0.0
H1322 H 0.12337 0.49938 0.86751 0.0
H1323 H 0.13147 0.48347 0.88446 0.0
H1324 H 0.10682 0.47645 0.88508 0.0
C1325 C 0.14358 0.43595 0.86692 0.0
C1326 C 0.13199 0.42825 0.90029 0.0
C1327 C 0.14027 0.44706 0.83917 0.0
C1328 C 0.12516 0.45045 0.84382 0.0
C1329 C 0.11352 0.44258 0.8769 0.0
H1330 H 0.04969 0.45237 0.66887 0.0
H1331 H 0.07377 0.44781 0.7033 0.0
C1332 C 0.1171 0.43193 0.90513 0.0
C1333 C 0.12042 0.46076 0.81256 0.0
H1334 H 0.10252 0.49079 0.80458 0.0
C1335 C 0.11879 0.45496 0.7704 0.0
C1336 C 0.11593 0.47509 0.8242 0.0
C1337 C 0.11975 0.48409 0.86776 0.0
C1338 C 0.11121 0.46178 0.74031 0.0
C1339 C 0.10416 0.47395 0.75296 0.0
C1340 C 0.10739 0.48108 0.79455 0.0
C1341 C 0.09155 0.47768 0.72532 0.0
C1342 C 0.11073 0.45566 0.69545 0.0
C1343 C 0.09323 0.496 0.7259 0.0
C1344 C 0.07895 0.49847 0.70748 0.0
C1345 C 0.06291 0.48275 0.68729 0.0
C1346 C 0.06198 0.46482 0.68374 0.0
C1347 C 0.07594 0.46224 0.70322 0.0
H1348 H 0.12349 0.45469 0.68926 0.0
H1349 H 0.09834 0.4411 0.68846 0.0
H1350 H 0.10994 0.4658 0.67421 0.0
H1351 H 0.10512 0.50821 0.74254 0.0
H1352 H 0.08005 0.51246 0.7106 0.0
H1353 H 0.67201 0.10882 0.94281 0.0
H1354 H 0.65151 0.10347 0.88113 0.0
H1355 H 0.69384 0.10479 0.80357 0.0
H1356 H 0.71438 0.10993 0.86545 0.0
H1357 H 0.65662 0.12425 0.80738 0.0
H1358 H 0.6471 0.05114 0.77583 0.0
H1359 H 0.65729 0.06467 0.82465 0.0
H1360 H 0.67082 0.07118 0.77957 0.0
C1361 C 0.67707 0.10831 0.91258 0.0
C1362 C 0.6948 0.10989 0.90888 0.0
C1363 C 0.66537 0.10528 0.87738 0.0
C1364 C 0.6711 0.10358 0.83785 0.0
C1365 C 0.6891 0.10588 0.83385 0.0
H1366 H 0.58329 0.04773 0.63524 0.0
H1367 H 0.61576 0.06784 0.66477 0.0
C1368 C 0.70084 0.10892 0.86912 0.0
C1369 C 0.65749 0.09793 0.80159 0.0
H1370 H 0.62774 0.05909 0.73691 0.0
C1371 C 0.65054 0.11015 0.79136 0.0
C1372 C 0.64972 0.0796 0.78045 0.0
C1373 C 0.65647 0.06577 0.79064 0.0
C1374 C 0.63529 0.1041 0.76216 0.0
C1375 C 0.62659 0.08523 0.74337 0.0
C1376 C 0.63444 0.07356 0.75133 0.0
C1377 C 0.60766 0.07613 0.7215 0.0
C1378 C 0.62822 0.11773 0.75281 0.0
C1379 C 0.59241 0.07436 0.74321 0.0
C1380 C 0.574 0.0629 0.72651 0.0
C1381 C 0.57037 0.05289 0.6877 0.0
C1382 C 0.58566 0.05543 0.6649 0.0
C1383 C 0.60419 0.06685 0.68185 0.0
H1384 H 0.63987 0.13291 0.75638 0.0
H1385 H 0.62157 0.11479 0.72093 0.0
H1386 H 0.61756 0.11602 0.77507 0.0
H1387 H 0.59465 0.08097 0.77421 0.0
H1388 H 0.56253 0.06129 0.74481 0.0
H1389 H 0.56617 0.66697 0.96977 0.0
H1390 H 0.55147 0.63765 0.9236 0.0
H1391 H 0.58171 0.67075 0.82238 0.0
H1392 H 0.59654 0.70008 0.8684 0.0
H1393 H 0.54036 0.64154 0.80568 0.0
H1394 H 0.58398 0.61386 0.87859 0.0
H1395 H 0.57176 0.62172 0.91222 0.0
H1396 H 0.59062 0.63894 0.88373 0.0
C1397 C 0.56941 0.66801 0.93748 0.0
C1398 C 0.58224 0.68583 0.92249 0.0
C1399 C 0.5611 0.65128 0.91128 0.0
C1400 C 0.56557 0.65209 0.86972 0.0
C1401 C 0.57804 0.6699 0.85437 0.0
H1402 H 0.56343 0.57887 0.67427 0.0
H1403 H 0.56993 0.60191 0.73244 0.0
C1404 C 0.58644 0.68662 0.8806 0.0
C1405 C 0.558 0.63431 0.84253 0.0
H1406 H 0.5633 0.59535 0.82186 0.0
C1407 C 0.54513 0.63127 0.80945 0.0
C1408 C 0.56441 0.62107 0.8476 0.0
C1409 C 0.57853 0.62398 0.88226 0.0
C1410 C 0.53879 0.61547 0.78062 0.0
C1411 C 0.54551 0.60246 0.78519 0.0
C1412 C 0.55805 0.60527 0.81882 0.0
C1413 C 0.54148 0.58728 0.75264 0.0
C1414 C 0.52562 0.61323 0.74442 0.0
C1415 C 0.52339 0.57113 0.74548 0.0
C1416 C 0.51961 0.55778 0.71224 0.0
C1417 C 0.53385 0.56056 0.68556 0.0
C1418 C 0.55209 0.5764 0.69396 0.0
C1419 C 0.55587 0.58956 0.72726 0.0
H1420 H 0.52323 0.62565 0.74314 0.0
H1421 H 0.5314 0.61167 0.71491 0.0
H1422 H 0.51181 0.59999 0.74691 0.0
H1423 H 0.51215 0.56908 0.76504 0.0
H1424 H 0.50542 0.54573 0.70654 0.0
H1425 H 0.52936 0.19129 0.39736 0.0
H1426 H 0.53328 0.16303 0.39932 0.0
H1427 H 0.4745 0.12787 0.42287 0.0
H1428 H 0.47046 0.15594 0.42001 0.0
H1429 H 0.52858 0.14369 0.467 0.0
H1430 H 0.48073 0.09256 0.34138 0.0
H1431 H 0.48797 0.11783 0.3433 0.0
H1432 H 0.46865 0.10141 0.37244 0.0
C1433 C 0.51717 0.17739 0.40162 0.0
C1434 C 0.49951 0.17572 0.40785 0.0
C1435 C 0.51942 0.16128 0.40281 0.0
C1436 C 0.50411 0.14323 0.41039 0.0
C1437 C 0.48638 0.14148 0.41561 0.0
H1438 H 0.47386 0.04501 0.53028 0.0
H1439 H 0.47711 0.06931 0.48336 0.0
C1440 C 0.4841 0.15755 0.41429 0.0
C1441 C 0.50707 0.1269 0.41896 0.0
H1442 H 0.4873 0.07837 0.40045 0.0
C1443 C 0.51996 0.1295 0.45167 0.0
C1444 C 0.49586 0.10841 0.39883 0.0
C1445 C 0.48268 0.10494 0.36174 0.0
C1446 C 0.52079 0.11386 0.46716 0.0
C1447 C 0.50858 0.09515 0.44896 0.0
C1448 C 0.49663 0.09272 0.41437 0.0
C1449 C 0.50583 0.07792 0.46979 0.0
C1450 C 0.53367 0.11732 0.50494 0.0
C1451 C 0.52061 0.07404 0.47613 0.0
C1452 C 0.51883 0.06012 0.50326 0.0
C1453 C 0.50223 0.04996 0.52436 0.0
C1454 C 0.48694 0.05279 0.51504 0.0
C1455 C 0.48873 0.06661 0.488 0.0
H1456 H 0.54034 0.13235 0.51844 0.0
H1457 H 0.52573 0.10744 0.52914 0.0
H1458 H 0.54505 0.11444 0.49632 0.0
H1459 H 0.53384 0.08244 0.46181 0.0
H1460 H 0.53082 0.0582 0.50961 0.0
H1461 H 0.33341 0.50984 0.38997 0.0
H1462 H 0.36105 0.51119 0.42476 0.0
H1463 H 0.32487 0.45923 0.48448 0.0
H1464 H 0.29717 0.45752 0.44874 0.0
H1465 H 0.3714 0.51336 0.50758 0.0
H1466 H 0.3608 0.44571 0.42871 0.0
H1467 H 0.348 0.45737 0.41197 0.0
H1468 H 0.34127 0.44332 0.45669 0.0
C1469 C 0.33138 0.49857 0.41006 0.0
C1470 C 0.31319 0.4832 0.41556 0.0
C1471 C 0.34715 0.49944 0.43021 0.0
C1472 C 0.34504 0.48511 0.45659 0.0
C1473 C 0.32685 0.47017 0.46344 0.0
H1474 H 0.44625 0.49966 0.59858 0.0
H1475 H 0.41454 0.49483 0.58428 0.0
C1476 C 0.31107 0.46921 0.44306 0.0
C1477 C 0.36198 0.48574 0.47607 0.0
H1478 H 0.38683 0.46205 0.47666 0.0
C1479 C 0.37474 0.50209 0.50117 0.0
C1480 C 0.36627 0.471 0.46752 0.0
C1481 C 0.35348 0.45342 0.4395 0.0
C1482 C 0.392 0.50441 0.5168 0.0
C1483 C 0.39643 0.48983 0.50758 0.0
C1484 C 0.38333 0.47316 0.48383 0.0
C1485 C 0.4154 0.49251 0.51761 0.0
C1486 C 0.40574 0.52284 0.54126 0.0
C1487 C 0.42621 0.49245 0.48507 0.0
C1488 C 0.44408 0.49489 0.49314 0.0
C1489 C 0.45165 0.49747 0.53408 0.0
C1490 C 0.44082 0.49758 0.5668 0.0
C1491 C 0.42276 0.49499 0.55864 0.0
H1492 H 0.40157 0.53401 0.53929 0.0
H1493 H 0.40631 0.51988 0.57432 0.0
H1494 H 0.42014 0.5287 0.53007 0.0
H1495 H 0.42083 0.49061 0.45318 0.0
H1496 H 0.45194 0.49472 0.46705 0.0
H1497 H 0.85706 0.34394 0.31646 0.0
H1498 H 0.87702 0.37777 0.34046 0.0
H1499 H 0.92645 0.37215 0.33044 0.0
H1500 H 0.90667 0.33873 0.30471 0.0
H1501 H 0.89705 0.38937 0.40914 0.0
H1502 H 0.94644 0.42396 0.28777 0.0
H1503 H 0.92522 0.40089 0.27813 0.0
H1504 H 0.94656 0.40248 0.2999 0.0
C1505 C 0.87223 0.35015 0.31793 0.0
C1506 C 0.88036 0.33881 0.30778 0.0
C1507 C 0.88363 0.36946 0.33177 0.0
C1508 C 0.90331 0.37772 0.33634 0.0
C1509 C 0.91141 0.36644 0.32565 0.0
H1510 H 0.98985 0.44326 0.50416 0.0
H1511 H 0.96882 0.42504 0.44398 0.0
C1512 C 0.90007 0.34726 0.31131 0.0
C1513 C 0.91519 0.39694 0.35813 0.0
H1514 H 0.95892 0.43694 0.35936 0.0
C1515 C 0.91027 0.40009 0.3976 0.0
C1516 C 0.93242 0.41105 0.34312 0.0
C1517 C 0.93782 0.40947 0.29968 0.0
C1518 C 0.92283 0.416 0.42384 0.0
C1519 C 0.94077 0.42906 0.41023 0.0
C1520 C 0.94517 0.42679 0.36971 0.0
C1521 C 0.95595 0.44281 0.44016 0.0
C1522 C 0.9175 0.41795 0.46719 0.0
C1523 C 0.95614 0.45929 0.45677 0.0
C1524 C 0.96828 0.46985 0.49115 0.0
C1525 C 0.9801 0.46382 0.50953 0.0
C1526 C 0.98073 0.4481 0.49092 0.0
C1527 C 0.96882 0.43775 0.45641 0.0
H1528 H 0.90312 0.40627 0.47326 0.0
H1529 H 0.92775 0.41772 0.49015 0.0
H1530 H 0.91803 0.43196 0.47212 0.0
H1531 H 0.94624 0.46334 0.44455 0.0
H1532 H 0.9675 0.48191 0.50492 0.0
H1533 H 0.51956 0.83462 0.31729 0.0
H1534 H 0.52952 0.86748 0.34318 0.0
H1535 H 0.48812 0.86846 0.25906 0.0
H1536 H 0.47838 0.83562 0.23223 0.0
H1537 H 0.52349 0.90416 0.26862 0.0
H1538 H 0.49441 0.87556 0.41892 0.0
H1539 H 0.5114 0.86922 0.40243 0.0
H1540 H 0.4894 0.86021 0.37259 0.0
C1541 C 0.5128 0.84195 0.30383 0.0
C1542 C 0.49808 0.83253 0.27305 0.0
C1543 C 0.51845 0.86068 0.31872 0.0
C1544 C 0.5093 0.87022 0.30356 0.0
C1545 C 0.49529 0.86128 0.27126 0.0
H1546 H 0.51267 0.97419 0.4058 0.0
H1547 H 0.50694 0.94737 0.35723 0.0
C1548 C 0.48971 0.84256 0.25608 0.0
C1549 C 0.5134 0.88884 0.32381 0.0
H1550 H 0.5128 0.90951 0.41729 0.0
C1551 C 0.52105 0.90536 0.30103 0.0
C1552 C 0.50993 0.89027 0.36594 0.0
C1553 C 0.50066 0.87285 0.39134 0.0
C1554 C 0.52603 0.92346 0.31994 0.0
C1555 C 0.5232 0.9249 0.3624 0.0
C1556 C 0.5151 0.90831 0.38476 0.0
C1557 C 0.52902 0.94346 0.38528 0.0
C1558 C 0.53476 0.94102 0.29502 0.0
C1559 C 0.54362 0.95037 0.41627 0.0
C1560 C 0.54687 0.96554 0.44402 0.0
C1561 C 0.53549 0.97405 0.44146 0.0
C1562 C 0.5217 0.96798 0.40854 0.0
C1563 C 0.51843 0.95269 0.38072 0.0
H1564 H 0.53771 0.93778 0.26339 0.0
H1565 H 0.52504 0.94684 0.29228 0.0
H1566 H 0.54811 0.95239 0.31112 0.0
H1567 H 0.5519 0.94336 0.42029 0.0
H1568 H 0.55773 0.96997 0.46872 0.0
H1569 H 0.68845 0.571 0.29793 0.0
H1570 H 0.66159 0.55929 0.34161 0.0
H1571 H 0.66191 0.50611 0.35205 0.0
H1572 H 0.68911 0.51796 0.30879 0.0
H1573 H 0.6261 0.52738 0.33036 0.0
H1574 H 0.66383 0.52408 0.47303 0.0
H1575 H 0.67601 0.5363 0.42858 0.0
H1576 H 0.66429 0.51053 0.4281 0.0
C1577 C 0.68264 0.55671 0.30908 0.0
C1578 C 0.69065 0.54526 0.29928 0.0
C1579 C 0.66735 0.55006 0.33416 0.0
C1580 C 0.65986 0.53191 0.35044 0.0
C1581 C 0.66763 0.52028 0.34033 0.0
H1582 H 0.55166 0.48747 0.46514 0.0
H1583 H 0.57693 0.48777 0.4266 0.0
C1584 C 0.683 0.52695 0.31523 0.0
C1585 C 0.64391 0.52539 0.37791 0.0
H1586 H 0.63169 0.51457 0.47739 0.0
C1587 C 0.62724 0.52439 0.3624 0.0
C1588 C 0.64554 0.52171 0.41984 0.0
C1589 C 0.66341 0.52334 0.43864 0.0
C1590 C 0.6123 0.52024 0.3878 0.0
C1591 C 0.61388 0.51653 0.42975 0.0
C1592 C 0.63042 0.51718 0.44513 0.0
C1593 C 0.59918 0.51376 0.45872 0.0
C1594 C 0.59533 0.52081 0.36991 0.0
C1595 C 0.6035 0.52741 0.49172 0.0
C1596 C 0.58913 0.52716 0.51422 0.0
C1597 C 0.57014 0.5133 0.50392 0.0
C1598 C 0.56608 0.49855 0.47349 0.0
C1599 C 0.5805 0.49875 0.45121 0.0
H1600 H 0.59815 0.52796 0.34018 0.0
H1601 H 0.58341 0.50589 0.36393 0.0
H1602 H 0.5909 0.52853 0.39192 0.0
H1603 H 0.61786 0.539 0.49837 0.0
H1604 H 0.59282 0.5386 0.53778 0.0
H1605 H 0.11507 0.66848 0.1963 0.0
H1606 H 0.10138 0.64381 0.24679 0.0
H1607 H 0.10032 0.6852 0.33379 0.0
H1608 H 0.11345 0.70971 0.28303 0.0
H1609 H 0.11321 0.64147 0.3257 0.0
H1610 H 0.04591 0.64213 0.32685 0.0
H1611 H 0.06297 0.65392 0.28877 0.0
H1612 H 0.06619 0.66536 0.33962 0.0
C1613 C 0.1121 0.67233 0.2264 0.0
C1614 C 0.11556 0.69106 0.23595 0.0
C1615 C 0.10425 0.65825 0.25514 0.0
C1616 C 0.09957 0.6626 0.29378 0.0
C1617 C 0.10348 0.68143 0.30383 0.0
H1618 H 0.05372 0.60246 0.51262 0.0
H1619 H 0.06939 0.62582 0.46089 0.0
C1620 C 0.11119 0.69548 0.27502 0.0
C1621 C 0.0903 0.64738 0.3233 0.0
H1622 H 0.05103 0.62466 0.37857 0.0
C1623 C 0.09956 0.63769 0.33706 0.0
C1624 C 0.0724 0.64236 0.33778 0.0
C1625 C 0.06118 0.65134 0.3222 0.0
C1626 C 0.09163 0.62351 0.36587 0.0
C1627 C 0.074 0.6189 0.38104 0.0
C1628 C 0.06462 0.62837 0.36694 0.0
C1629 C 0.06517 0.60459 0.41239 0.0
C1630 C 0.10229 0.61384 0.38071 0.0
C1631 C 0.05757 0.5849 0.40206 0.0
C1632 C 0.04847 0.57142 0.43151 0.0
C1633 C 0.04688 0.57745 0.47182 0.0
C1634 C 0.05471 0.59726 0.48199 0.0
C1635 C 0.06367 0.61067 0.45248 0.0
H1636 H 0.11695 0.62099 0.37056 0.0
H1637 H 0.10274 0.61382 0.41503 0.0
H1638 H 0.09488 0.59864 0.3682 0.0
H1639 H 0.05844 0.57995 0.37105 0.0
H1640 H 0.04261 0.5563 0.42262 0.0
loop_
_geom_bond_atom_site_label_1
_geom_bond_atom_site_label_2
_geom_bond_distance
_geom_bond_site_symmetry_2
_ccdc_geom_bond_type
C0 C1 1.560 . S
C0 H61 0.959 . S
C0 H62 0.959 . S
C0 H63 0.960 . S
C1 C0 1.560 . S
C1 O56 1.426 . S
C1 H60 0.980 . S
C2 C3 1.407 . S
C2 C7 1.418 . S
C2 O56 1.334 . S
C3 C2 1.407 . S
C3 C4 1.360 . S
C3 H64 0.929 . S
C4 C3 1.360 . S
C4 C5 1.401 . S
C4 C8 1.527 . S
C5 C4 1.401 . S
C5 C6 1.405 . S
C5 C38 1.587 . S
C6 C5 1.405 . S
C6 C7 1.332 . S
C6 C9 1.496 . S
C7 C2 1.418 . S
C7 C6 1.332 . S
C7 H65 0.929 . S
C8 C4 1.527 . S
C8 H66 0.959 . S
C8 H67 0.961 . S
C8 H68 0.961 . S
C9 C6 1.496 . S
C9 H69 0.960 . S
C9 H70 0.960 . S
C9 H71 0.961 . S
C10 C11 1.517 . S
C10 H73 0.961 . S
C10 H74 0.960 . S
C10 H75 0.959 . S
C11 C10 1.517 . S
C11 O59 1.468 . S
C11 H72 0.980 . S
C12 C13 1.349 . S
C12 C17 1.367 . S
C12 O59 1.408 . S
C13 C12 1.349 . S
C13 C14 1.407 . S
C13 H76 0.930 . S
C14 C13 1.407 . S
C14 C15 1.449 . S
C14 C18 1.535 . S
C15 C14 1.449 . S
C15 C16 1.384 . S
C15 C40 1.553 . S
C16 C15 1.384 . S
C16 C17 1.364 . S
C16 C19 1.450 . S
C17 C12 1.367 . S
C17 C16 1.364 . S
C17 H77 0.931 . S
C18 C14 1.535 . S
C18 H78 0.959 . S
C18 H79 0.961 . S
C18 H80 0.959 . S
C19 C16 1.450 . S
C19 H81 0.960 . S
C19 H82 0.960 . S
C19 H83 0.960 . S
C20 C21 1.309 . S
C20 C25 1.304 . S
C20 O58 1.435 1_554 S
C21 C20 1.309 . S
C21 C22 1.476 . S
C21 H85 0.930 . S
C22 C21 1.476 . S
C22 C23 1.400 . S
C22 C26 1.567 . S
C23 C22 1.400 . S
C23 C24 1.373 . S
C23 C45 1.432 . S
C24 C23 1.373 . S
C24 C25 1.339 . S
C24 C27 1.530 . S
C25 C20 1.304 . S
C25 C24 1.339 . S
C25 H86 0.930 . S
C26 C22 1.567 . S
C26 H87 0.961 . S
C26 H88 0.960 . S
C26 H89 0.958 . S
C27 C24 1.530 . S
C27 H90 0.961 . S
C27 H91 0.960 . S
C27 H92 0.960 . S
C28 C29 1.530 . S
C28 H94 0.961 . S
C28 H95 0.961 . S
C28 H96 0.959 . S
C29 C28 1.530 . S
C29 O57 1.412 . S
C29 H93 0.993 . S
C30 C31 1.288 . S
C30 C35 1.377 . S
C30 O57 1.393 1_554 S
C31 C30 1.288 . S
C31 C32 1.369 . S
C31 H97 0.932 . S
C32 C31 1.369 . S
C32 C33 1.398 . S
C32 C36 1.527 . S
C33 C32 1.398 . S
C33 C34 1.380 . S
C33 C47 1.497 . S
C34 C33 1.380 . S
C34 C35 1.383 . S
C34 C37 1.603 . S
C35 C30 1.377 . S
C35 C34 1.383 . S
C35 H98 0.929 . S
C36 C32 1.527 . S
C36 H99 0.961 . S
C36 H100 0.959 . S
C36 H101 0.959 . S
C37 C34 1.603 . S
C37 H102 0.960 . S
C37 H103 0.962 . S
C37 H104 0.961 . S
C38 C5 1.587 . S
C38 C39 1.360 . S
C38 C51 1.412 . S
C39 C38 1.360 . S
C39 C40 1.365 . S
C39 H105 0.929 . S
C40 C15 1.553 . S
C40 C39 1.365 . S
C40 C41 1.404 . S
C41 C40 1.404 . S
C41 C42 1.395 . S
C41 C52 1.451 . S
C42 C41 1.395 . S
C42 C43 1.322 . S
C42 H106 0.930 . S
C43 C42 1.322 . S
C43 C44 1.459 . S
C43 H107 0.929 . S
C44 C43 1.459 . S
C44 C45 1.445 . S
C44 C53 1.395 . S
C45 C23 1.432 . S
C45 C44 1.445 . S
C45 C46 1.370 . S
C46 C45 1.370 . S
C46 C47 1.438 . S
C46 H108 0.930 . S
C47 C33 1.497 . S
C47 C46 1.438 . S
C47 C48 1.360 . S
C48 C47 1.360 . S
C48 C49 1.401 . S
C48 C53 1.446 . S
C49 C48 1.401 . S
C49 C50 1.347 . S
C49 H109 0.929 . S
C50 C49 1.347 . S
C50 C51 1.455 . S
C50 H110 0.930 . S
C51 C38 1.412 . S
C51 C50 1.455 . S
C51 C52 1.331 . S
C52 C41 1.451 . S
C52 C51 1.331 . S
C52 C53 1.497 . S
C53 C44 1.395 . S
C53 C48 1.446 . S
C53 C52 1.497 . S
C54 C55 1.582 . S
C54 H111 0.962 . S
C54 H112 0.959 . S
C54 H113 0.958 . S
C55 C54 1.582 . S
C55 O58 1.458 . S
C55 H84 0.980 1_556 S
O56 C1 1.426 . S
O56 C2 1.334 . S
O57 C29 1.412 . S
O57 C30 1.393 1_556 S
O58 C20 1.435 1_556 S
O58 C55 1.458 . S
O59 C11 1.468 . S
O59 C12 1.408 . S
H60 C1 0.980 . S
H61 C0 0.959 . S
H62 C0 0.959 . S
H63 C0 0.960 . S
H64 C3 0.929 . S
H65 C7 0.929 . S
H66 C8 0.959 . S
H67 C8 0.961 . S
H68 C8 0.961 . S
H69 C9 0.960 . S
H70 C9 0.960 . S
H71 C9 0.961 . S
H72 C11 0.980 . S
H73 C10 0.961 . S
H74 C10 0.960 . S
H75 C10 0.959 . S
H76 C13 0.930 . S
H77 C17 0.931 . S
H78 C18 0.959 . S
H79 C18 0.961 . S
H80 C18 0.959 . S
H81 C19 0.960 . S
H82 C19 0.960 . S
H83 C19 0.960 . S
H84 C55 0.980 1_554 S
H85 C21 0.930 . S
H86 C25 0.930 . S
H87 C26 0.961 . S
H88 C26 0.960 . S
H89 C26 0.958 . S
H90 C27 0.961 . S
H91 C27 0.960 . S
H92 C27 0.960 . S
H93 C29 0.993 . S
H94 C28 0.961 . S
H95 C28 0.961 . S
H96 C28 0.959 . S
H97 C31 0.932 . S
H98 C35 0.929 . S
H99 C36 0.961 . S
H100 C36 0.959 . S
H101 C36 0.959 . S
H102 C37 0.960 . S
H103 C37 0.962 . S
H104 C37 0.961 . S
H105 C39 0.929 . S
H106 C42 0.930 . S
H107 C43 0.929 . S
H108 C46 0.930 . S
H109 C49 0.929 . S
H110 C50 0.930 . S
H111 C54 0.962 . S
H112 C54 0.959 . S
H113 C54 0.958 . S
C114 C115 1.560 . S
C114 H175 0.959 . S
C114 H176 0.959 . S
C114 H177 0.960 . S
C115 C114 1.560 . S
C115 O170 1.426 . S
C115 H174 0.980 . S
C116 C117 1.407 . S
C116 C121 1.418 . S
C116 O170 1.334 . S
C117 C116 1.407 . S
C117 C118 1.360 . S
C117 H178 0.929 . S
C118 C117 1.360 . S
C118 C119 1.401 . S
C118 C122 1.527 . S
C119 C118 1.401 . S
C119 C120 1.405 . S
C119 C152 1.587 . S
C120 C119 1.405 . S
C120 C121 1.332 . S
C120 C123 1.496 . S
C121 C116 1.418 . S
C121 C120 1.332 . S
C121 H179 0.929 . S
C122 C118 1.527 . S
C122 H180 0.959 . S
C122 H181 0.961 . S
C122 H182 0.961 . S
C123 C120 1.496 . S
C123 H183 0.960 . S
C123 H184 0.960 . S
C123 H185 0.961 . S
C124 C125 1.517 . S
C124 H187 0.961 . S
C124 H188 0.960 . S
C124 H189 0.959 . S
C125 C124 1.517 . S
C125 O173 1.468 . S
C125 H186 0.980 . S
C126 C127 1.349 . S
C126 C131 1.367 . S
C126 O173 1.408 . S
C127 C126 1.349 . S
C127 C128 1.407 . S
C127 H190 0.930 . S
C128 C127 1.407 . S
C128 C129 1.449 . S
C128 C132 1.535 . S
C129 C128 1.449 . S
C129 C130 1.384 . S
C129 C154 1.553 . S
C130 C129 1.384 . S
C130 C131 1.364 . S
C130 C133 1.450 . S
C131 C126 1.367 . S
C131 C130 1.364 . S
C131 H191 0.931 . S
C132 C128 1.535 . S
C132 H192 0.959 . S
C132 H193 0.961 . S
C132 H194 0.959 . S
C133 C130 1.450 . S
C133 H195 0.960 . S
C133 H196 0.960 . S
C133 H197 0.960 . S
C134 C135 1.309 . S
C134 C139 1.304 . S
C134 O172 1.435 . S
C135 C134 1.309 . S
C135 C136 1.476 1_556 S
C135 H199 0.930 . S
C136 C135 1.476 1_554 S
C136 C137 1.400 . S
C136 C140 1.567 . S
C137 C136 1.400 . S
C137 C138 1.373 . S
C137 C159 1.432 . S
C138 C137 1.373 . S
C138 C139 1.339 1_554 S
C138 C141 1.530 . S
C139 C134 1.304 . S
C139 C138 1.339 1_556 S
C139 H200 0.930 . S
C140 C136 1.567 . S
C140 H201 0.961 . S
C140 H202 0.960 . S
C140 H203 0.958 . S
C141 C138 1.530 . S
C141 H204 0.961 . S
C141 H205 0.960 . S
C141 H206 0.960 . S
C142 C143 1.530 . S
C142 H208 0.961 . S
C142 H209 0.961 . S
C142 H210 0.959 . S
C143 C142 1.530 . S
C143 O171 1.412 . S
C143 H207 0.980 . S
C144 C145 1.288 . S
C144 C149 1.377 . S
C144 O171 1.393 . S
C145 C144 1.288 . S
C145 C146 1.369 1_556 S
C145 H211 0.932 . S
C146 C145 1.369 1_554 S
C146 C147 1.398 . S
C146 C150 1.527 . S
C147 C146 1.398 . S
C147 C148 1.380 . S
C147 C161 1.497 . S
C148 C147 1.380 . S
C148 C149 1.383 1_554 S
C148 C151 1.603 . S
C149 C144 1.377 . S
C149 C148 1.383 1_556 S
C149 H212 0.929 . S
C150 C146 1.527 . S
C150 H213 0.961 . S
C150 H214 0.959 . S
C150 H215 0.959 . S
C151 C148 1.603 . S
C151 H216 0.960 . S
C151 H217 0.962 . S
C151 H218 0.961 . S
C152 C119 1.587 . S
C152 C153 1.360 . S
C152 C165 1.412 . S
C153 C152 1.360 . S
C153 C154 1.365 . S
C153 H219 0.929 . S
C154 C129 1.553 . S
C154 C153 1.365 . S
C154 C155 1.404 . S
C155 C154 1.404 . S
C155 C156 1.395 . S
C155 C166 1.451 . S
C156 C155 1.395 . S
C156 C157 1.322 . S
C156 H220 0.930 . S
C157 C156 1.322 . S
C157 C158 1.459 . S
C157 H221 0.929 . S
C158 C157 1.459 . S
C158 C159 1.445 . S
C158 C167 1.395 . S
C159 C137 1.432 . S
C159 C158 1.445 . S
C159 C160 1.370 . S
C160 C159 1.370 . S
C160 C161 1.438 . S
C160 H222 0.930 . S
C161 C147 1.497 . S
C161 C160 1.438 . S
C161 C162 1.360 . S
C162 C161 1.360 . S
C162 C163 1.401 . S
C162 C167 1.446 . S
C163 C162 1.401 . S
C163 C164 1.347 . S
C163 H223 0.929 . S
C164 C163 1.347 . S
C164 C165 1.455 . S
C164 H224 0.930 . S
C165 C152 1.412 . S
C165 C164 1.455 . S
C165 C166 1.331 . S
C166 C155 1.451 . S
C166 C165 1.331 . S
C166 C167 1.497 . S
C167 C158 1.395 . S
C167 C162 1.446 . S
C167 C166 1.497 . S
C168 C169 1.582 . S
C168 H225 0.962 . S
C168 H226 0.959 . S
C168 H227 0.958 . S
C169 C168 1.582 . S
C169 O172 1.458 . S
C169 H198 0.980 . S
O170 C115 1.426 . S
O170 C116 1.334 . S
O171 C143 1.412 . S
O171 C144 1.393 . S
O172 C134 1.435 . S
O172 C169 1.458 . S
O173 C125 1.468 . S
O173 C126 1.408 . S
H174 C115 0.980 . S
H175 C114 0.959 . S
H176 C114 0.959 . S
H177 C114 0.960 . S
H178 C117 0.929 . S
H179 C121 0.929 . S
H180 C122 0.959 . S
H181 C122 0.961 . S
H182 C122 0.961 . S
H183 C123 0.960 . S
H184 C123 0.960 . S
H185 C123 0.961 . S
H186 C125 0.980 . S
H187 C124 0.961 . S
H188 C124 0.960 . S
H189 C124 0.959 . S
H190 C127 0.930 . S
H191 C131 0.931 . S
H192 C132 0.959 . S
H193 C132 0.961 . S
H194 C132 0.959 . S
H195 C133 0.960 . S
H196 C133 0.960 . S
H197 C133 0.960 . S
H198 C169 0.980 . S
H199 C135 0.930 . S
H200 C139 0.930 . S
H201 C140 0.961 . S
H202 C140 0.960 . S
H203 C140 0.958 . S
H204 C141 0.961 . S
H205 C141 0.960 . S
H206 C141 0.960 . S
H207 C143 0.980 . S
H208 C142 0.961 . S
H209 C142 0.961 . S
H210 C142 0.959 . S
H211 C145 0.932 . S
H212 C149 0.929 . S
H213 C150 0.961 . S
H214 C150 0.959 . S
H215 C150 0.959 . S
H216 C151 0.960 . S
H217 C151 0.962 . S
H218 C151 0.961 . S
H219 C153 0.929 . S
H220 C156 0.930 . S
H221 C157 0.929 . S
H222 C160 0.930 . S
H223 C163 0.929 . S
H224 C164 0.930 . S
H225 C168 0.962 . S
H226 C168 0.959 . S
H227 C168 0.958 . S
C228 C229 1.560 . S
C228 H289 0.959 . S
C228 H290 0.959 . S
C228 H291 0.960 . S
C229 C228 1.560 . S
C229 O284 1.426 . S
C229 H288 0.980 . S
C230 C231 1.407 . S
C230 C235 1.418 . S
C230 O284 1.334 . S
C231 C230 1.407 . S
C231 C232 1.360 . S
C231 H292 0.929 . S
C232 C231 1.360 . S
C232 C233 1.401 . S
C232 C236 1.527 . S
C233 C232 1.401 . S
C233 C234 1.405 . S
C233 C266 1.587 . S
C234 C233 1.405 . S
C234 C235 1.332 . S
C234 C237 1.496 . S
C235 C230 1.418 . S
C235 C234 1.332 . S
C235 H293 0.929 . S
C236 C232 1.527 . S
C236 H294 0.959 . S
C236 H295 0.961 . S
C236 H296 0.961 . S
C237 C234 1.496 . S
C237 H297 0.960 . S
C237 H298 0.960 . S
C237 H299 0.961 . S
C238 C239 1.517 . S
C238 H301 0.961 . S
C238 H302 0.960 . S
C238 H303 0.959 . S
C239 C238 1.517 . S
C239 O287 1.468 . S
C239 H300 0.980 . S
C240 C241 1.349 . S
C240 C245 1.367 . S
C240 O287 1.408 . S
C241 C240 1.349 . S
C241 C242 1.407 . S
C241 H304 0.930 . S
C242 C241 1.407 . S
C242 C243 1.449 . S
C242 C246 1.535 . S
C243 C242 1.449 . S
C243 C244 1.384 . S
C243 C268 1.553 . S
C244 C243 1.384 . S
C244 C245 1.364 . S
C244 C247 1.450 . S
C245 C240 1.367 . S
C245 C244 1.364 . S
C245 H305 0.931 . S
C246 C242 1.535 . S
C246 H306 0.959 . S
C246 H307 0.961 . S
C246 H308 0.959 . S
C247 C244 1.450 . S
C247 H309 0.960 . S
C247 H310 0.960 . S
C247 H311 0.960 . S
C248 C249 1.309 . S
C248 C253 1.304 . S
C248 O286 1.435 . S
C249 C248 1.309 . S
C249 C250 1.476 . S
C249 H313 0.930 . S
C250 C249 1.476 . S
C250 C251 1.400 . S
C250 C254 1.567 . S
C251 C250 1.400 . S
C251 C252 1.373 . S
C251 C273 1.432 . S
C252 C251 1.373 . S
C252 C253 1.339 . S
C252 C255 1.530 . S
C253 C248 1.304 . S
C253 C252 1.339 . S
C253 H314 0.930 . S
C254 C250 1.567 . S
C254 H315 0.961 . S
C254 H316 0.960 . S
C254 H317 0.958 . S
C255 C252 1.530 . S
C255 H318 0.961 . S
C255 H319 0.960 . S
C255 H320 0.960 . S
C256 C257 1.530 . S
C256 H322 0.961 . S
C256 H323 0.961 . S
C256 H324 0.959 . S
C257 C256 1.530 . S
C257 O285 1.412 . S
C257 H321 0.980 . S
C258 C259 1.288 . S
C258 C263 1.377 . S
C258 O285 1.393 . S
C259 C258 1.288 . S
C259 C260 1.369 . S
C259 H325 0.932 . S
C260 C259 1.369 . S
C260 C261 1.398 . S
C260 C264 1.527 . S
C261 C260 1.398 . S
C261 C262 1.380 . S
C261 C275 1.497 . S
C262 C261 1.380 . S
C262 C263 1.383 . S
C262 C265 1.603 . S
C263 C258 1.377 . S
C263 C262 1.383 . S
C263 H326 0.929 . S
C264 C260 1.527 . S
C264 H327 0.961 . S
C264 H328 0.959 . S
C264 H329 0.959 . S
C265 C262 1.603 . S
C265 H330 0.960 . S
C265 H331 0.962 . S
C265 H332 0.961 . S
C266 C233 1.587 . S
C266 C267 1.360 . S
C266 C279 1.412 . S
C267 C266 1.360 . S
C267 C268 1.365 . S
C267 H333 0.929 . S
C268 C243 1.553 . S
C268 C267 1.365 . S
C268 C269 1.404 . S
C269 C268 1.404 . S
C269 C270 1.395 . S
C269 C280 1.451 . S
C270 C269 1.395 . S
C270 C271 1.322 . S
C270 H334 0.930 . S
C271 C270 1.322 . S
C271 C272 1.459 1_554 S
C271 H335 0.929 . S
C272 C271 1.459 1_556 S
C272 C273 1.445 . S
C272 C281 1.395 1_556 S
C273 C251 1.432 . S
C273 C272 1.445 . S
C273 C274 1.370 . S
C274 C273 1.370 . S
C274 C275 1.438 . S
C274 H336 0.930 . S
C275 C261 1.497 . S
C275 C274 1.438 . S
C275 C276 1.360 . S
C276 C275 1.360 . S
C276 C277 1.401 1_556 S
C276 C281 1.446 1_556 S
C277 C276 1.401 1_554 S
C277 C278 1.347 . S
C277 H337 0.941 . S
C278 C277 1.347 . S
C278 C279 1.455 . S
C278 H338 0.930 . S
C279 C266 1.412 . S
C279 C278 1.455 . S
C279 C280 1.331 . S
C280 C269 1.451 . S
C280 C279 1.331 . S
C280 C281 1.497 . S
C281 C272 1.395 1_554 S
C281 C276 1.446 1_554 S
C281 C280 1.497 . S
C282 C283 1.582 . S
C282 H339 0.962 . S
C282 H340 0.959 . S
C282 H341 0.958 . S
C283 C282 1.582 . S
C283 O286 1.458 . S
C283 H312 0.980 . S
O284 C229 1.426 . S
O284 C230 1.334 . S
O285 C257 1.412 . S
O285 C258 1.393 . S
O286 C248 1.435 . S
O286 C283 1.458 . S
O287 C239 1.468 . S
O287 C240 1.408 . S
H288 C229 0.980 . S
H289 C228 0.959 . S
H290 C228 0.959 . S
H291 C228 0.960 . S
H292 C231 0.929 . S
H293 C235 0.929 . S
H294 C236 0.959 . S
H295 C236 0.961 . S
H296 C236 0.961 . S
H297 C237 0.960 . S
H298 C237 0.960 . S
H299 C237 0.961 . S
H300 C239 0.980 . S
H301 C238 0.961 . S
H302 C238 0.960 . S
H303 C238 0.959 . S
H304 C241 0.930 . S
H305 C245 0.931 . S
H306 C246 0.959 . S
H307 C246 0.961 . S
H308 C246 0.959 . S
H309 C247 0.960 . S
H310 C247 0.960 . S
H311 C247 0.960 . S
H312 C283 0.980 . S
H313 C249 0.930 . S
H314 C253 0.930 . S
H315 C254 0.961 . S
H316 C254 0.960 . S
H317 C254 0.958 . S
H318 C255 0.961 . S
H319 C255 0.960 . S
H320 C255 0.960 . S
H321 C257 0.980 . S
H322 C256 0.961 . S
H323 C256 0.961 . S
H324 C256 0.959 . S
H325 C259 0.932 . S
H326 C263 0.929 . S
H327 C264 0.961 . S
H328 C264 0.959 . S
H329 C264 0.959 . S
H330 C265 0.960 . S
H331 C265 0.962 . S
H332 C265 0.961 . S
H333 C267 0.929 . S
H334 C270 0.930 . S
H335 C271 0.929 . S
H336 C274 0.930 . S
H337 C277 0.941 . S
H338 C278 0.930 . S
H339 C282 0.962 . S
H340 C282 0.959 . S
H341 C282 0.958 . S
C342 C343 1.560 . S
C342 H403 0.959 . S
C342 H404 0.959 . S
C342 H405 0.960 . S
C343 C342 1.560 . S
C343 O398 1.426 . S
C343 H402 0.980 . S
C344 C345 1.407 . S
C344 C349 1.418 . S
C344 O398 1.334 . S
C345 C344 1.407 . S
C345 C346 1.360 . S
C345 H406 0.929 . S
C346 C345 1.360 . S
C346 C347 1.401 . S
C346 C350 1.527 . S
C347 C346 1.401 . S
C347 C348 1.405 . S
C347 C380 1.587 . S
C348 C347 1.405 . S
C348 C349 1.332 . S
C348 C351 1.496 . S
C349 C344 1.418 . S
C349 C348 1.332 . S
C349 H407 0.929 . S
C350 C346 1.527 . S
C350 H408 0.959 . S
C350 H409 0.961 . S
C350 H410 0.961 . S
C351 C348 1.496 . S
C351 H411 0.960 . S
C351 H412 0.960 . S
C351 H413 0.961 . S
C352 C353 1.517 . S
C352 H415 0.961 . S
C352 H416 0.960 . S
C352 H417 0.959 . S
C353 C352 1.517 . S
C353 O401 1.468 . S
C353 H414 0.980 . S
C354 C355 1.349 . S
C354 C359 1.367 . S
C354 O401 1.408 . S
C355 C354 1.349 . S
C355 C356 1.407 . S
C355 H418 0.930 . S
C356 C355 1.407 . S
C356 C357 1.449 . S
C356 C360 1.535 . S
C357 C356 1.449 . S
C357 C358 1.384 . S
C357 C382 1.553 . S
C358 C357 1.384 . S
C358 C359 1.364 . S
C358 C361 1.450 . S
C359 C354 1.367 . S
C359 C358 1.364 . S
C359 H419 0.931 . S
C360 C356 1.535 . S
C360 H420 0.959 . S
C360 H421 0.961 . S
C360 H422 0.959 . S
C361 C358 1.450 . S
C361 H423 0.960 . S
C361 H424 0.960 . S
C361 H425 0.960 . S
C362 C363 1.309 . S
C362 C367 1.304 . S
C362 O400 1.435 . S
C363 C362 1.309 . S
C363 C364 1.476 . S
C363 H427 0.930 . S
C364 C363 1.476 . S
C364 C365 1.400 . S
C364 C368 1.567 . S
C365 C364 1.400 . S
C365 C366 1.373 . S
C365 C387 1.432 . S
C366 C365 1.373 . S
C366 C367 1.339 . S
C366 C369 1.530 . S
C367 C362 1.304 . S
C367 C366 1.339 . S
C367 H428 0.930 . S
C368 C364 1.567 . S
C368 H429 0.961 1_556 S
C368 H430 0.960 . S
C368 H431 0.958 . S
C369 C366 1.530 . S
C369 H432 0.961 . S
C369 H433 0.960 . S
C369 H434 0.960 . S
C370 C371 1.530 . S
C370 H436 0.961 . S
C370 H437 0.961 . S
C370 H438 0.959 . S
C371 C370 1.530 . S
C371 O399 1.412 . S
C371 H435 0.980 . S
C372 C373 1.288 . S
C372 C377 1.377 . S
C372 O399 1.393 . S
C373 C372 1.288 . S
C373 C374 1.369 . S
C373 H439 0.932 . S
C374 C373 1.369 . S
C374 C375 1.398 . S
C374 C378 1.527 . S
C375 C374 1.398 . S
C375 C376 1.380 . S
C375 C389 1.497 . S
C376 C375 1.380 . S
C376 C377 1.383 . S
C376 C379 1.603 . S
C377 C372 1.377 . S
C377 C376 1.383 . S
C377 H440 0.929 . S
C378 C374 1.527 . S
C378 H441 0.961 1_556 S
C378 H442 0.959 . S
C378 H443 0.959 . S
C379 C376 1.603 . S
C379 H444 0.960 . S
C379 H445 0.962 . S
C379 H446 0.961 . S
C380 C347 1.587 . S
C380 C381 1.360 . S
C380 C393 1.412 . S
C381 C380 1.360 . S
C381 C382 1.365 . S
C381 H447 0.929 . S
C382 C357 1.553 . S
C382 C381 1.365 . S
C382 C383 1.404 . S
C383 C382 1.404 . S
C383 C384 1.395 . S
C383 C394 1.451 . S
C384 C383 1.395 . S
C384 C385 1.322 . S
C384 H448 0.930 . S
C385 C384 1.322 . S
C385 C386 1.459 . S
C385 H449 0.929 . S
C386 C385 1.459 . S
C386 C387 1.445 1_554 S
C386 C395 1.395 . S
C387 C365 1.432 . S
C387 C386 1.445 1_556 S
C387 C388 1.370 . S
C388 C387 1.370 . S
C388 C389 1.438 . S
C388 H450 0.930 . S
C389 C375 1.497 . S
C389 C388 1.438 . S
C389 C390 1.360 1_556 S
C390 C389 1.360 1_554 S
C390 C391 1.401 . S
C390 C395 1.446 . S
C391 C390 1.401 . S
C391 C392 1.347 . S
C391 H451 0.929 . S
C392 C391 1.347 . S
C392 C393 1.455 . S
C392 H452 0.930 . S
C393 C380 1.412 . S
C393 C392 1.455 . S
C393 C394 1.331 . S
C394 C383 1.451 . S
C394 C393 1.331 . S
C394 C395 1.497 . S
C395 C386 1.395 . S
C395 C390 1.446 . S
C395 C394 1.497 . S
C396 C397 1.582 . S
C396 H453 0.962 . S
C396 H454 0.959 . S
C396 H455 0.958 . S
C397 C396 1.582 . S
C397 O400 1.458 . S
C397 H426 0.980 . S
O398 C343 1.426 . S
O398 C344 1.334 . S
O399 C371 1.412 . S
O399 C372 1.393 . S
O400 C362 1.435 . S
O400 C397 1.458 . S
O401 C353 1.468 . S
O401 C354 1.408 . S
H402 C343 0.980 . S
H403 C342 0.959 . S
H404 C342 0.959 . S
H405 C342 0.960 . S
H406 C345 0.929 . S
H407 C349 0.929 . S
H408 C350 0.959 . S
H409 C350 0.961 . S
H410 C350 0.961 . S
H411 C351 0.960 . S
H412 C351 0.960 . S
H413 C351 0.961 . S
H414 C353 0.980 . S
H415 C352 0.961 . S
H416 C352 0.960 . S
H417 C352 0.959 . S
H418 C355 0.930 . S
H419 C359 0.931 . S
H420 C360 0.959 . S
H421 C360 0.961 . S
H422 C360 0.959 . S
H423 C361 0.960 . S
H424 C361 0.960 . S
H425 C361 0.960 . S
H426 C397 0.980 . S
H427 C363 0.930 . S
H428 C367 0.930 . S
H429 C368 0.961 1_554 S
H430 C368 0.960 . S
H431 C368 0.958 . S
H432 C369 0.961 . S
H433 C369 0.960 . S
H434 C369 0.960 . S
H435 C371 0.980 . S
H436 C370 0.961 . S
H437 C370 0.961 . S
H438 C370 0.959 . S
H439 C373 0.932 . S
H440 C377 0.929 . S
H441 C378 0.961 1_554 S
H442 C378 0.959 . S
H443 C378 0.959 . S
H444 C379 0.960 . S
H445 C379 0.962 . S
H446 C379 0.961 . S
H447 C381 0.929 . S
H448 C384 0.930 . S
H449 C385 0.929 . S
H450 C388 0.930 . S
H451 C391 0.929 . S
H452 C392 0.930 . S
H453 C396 0.962 . S
H454 C396 0.959 . S
H455 C396 0.958 . S
C456 C457 1.560 . S
C456 H517 0.959 . S
C456 H518 0.959 . S
C456 H519 0.960 . S
C457 C456 1.560 . S
C457 O512 1.426 . S
C457 H516 0.980 . S
C458 C459 1.407 . S
C458 C463 1.418 . S
C458 O512 1.334 . S
C459 C458 1.407 . S
C459 C460 1.360 . S
C459 H520 0.929 . S
C460 C459 1.360 . S
C460 C461 1.401 . S
C460 C464 1.527 . S
C461 C460 1.401 . S
C461 C462 1.405 . S
C461 C494 1.587 . S
C462 C461 1.405 . S
C462 C463 1.332 . S
C462 C465 1.496 . S
C463 C458 1.418 . S
C463 C462 1.332 . S
C463 H521 0.929 . S
C464 C460 1.527 . S
C464 H522 0.959 . S
C464 H523 0.961 . S
C464 H524 0.961 . S
C465 C462 1.496 . S
C465 H525 0.960 . S
C465 H526 0.960 . S
C465 H527 0.961 1_556 S
C466 C467 1.517 . S
C466 H529 0.961 . S
C466 H530 0.960 . S
C466 H531 0.959 . S
C467 C466 1.517 . S
C467 O515 1.468 . S
C467 H528 0.980 . S
C468 C469 1.349 . S
C468 C473 1.367 . S
C468 O515 1.408 . S
C469 C468 1.349 . S
C469 C470 1.407 . S
C469 H532 0.930 . S
C470 C469 1.407 . S
C470 C471 1.449 . S
C470 C474 1.535 . S
C471 C470 1.449 . S
C471 C472 1.384 . S
C471 C496 1.553 . S
C472 C471 1.384 . S
C472 C473 1.364 . S
C472 C475 1.450 . S
C473 C468 1.367 . S
C473 C472 1.364 . S
C473 H533 0.931 . S
C474 C470 1.535 . S
C474 H534 0.959 . S
C474 H535 0.961 . S
C474 H536 0.959 . S
C475 C472 1.450 . S
C475 H537 0.960 . S
C475 H538 0.960 . S
C475 H539 0.960 1_556 S
C476 C477 1.309 . S
C476 C481 1.304 . S
C476 O514 1.435 . S
C477 C476 1.309 . S
C477 C478 1.476 . S
C477 H541 0.930 . S
C478 C477 1.476 . S
C478 C479 1.400 . S
C478 C482 1.567 . S
C479 C478 1.400 . S
C479 C480 1.373 . S
C479 C501 1.432 . S
C480 C479 1.373 . S
C480 C481 1.339 . S
C480 C483 1.530 . S
C481 C476 1.304 . S
C481 C480 1.339 . S
C481 H542 0.930 . S
C482 C478 1.567 . S
C482 H543 0.961 . S
C482 H544 0.960 . S
C482 H545 0.958 . S
C483 C480 1.530 . S
C483 H546 0.961 . S
C483 H547 0.960 . S
C483 H548 0.960 . S
C484 C485 1.530 . S
C484 H550 0.961 . S
C484 H551 0.961 . S
C484 H552 0.959 . S
C485 C484 1.530 . S
C485 O513 1.412 . S
C485 H549 0.980 . S
C486 C487 1.288 . S
C486 C491 1.377 . S
C486 O513 1.393 . S
C487 C486 1.288 . S
C487 C488 1.369 . S
C487 H553 0.932 . S
C488 C487 1.369 . S
C488 C489 1.398 . S
C488 C492 1.527 . S
C489 C488 1.398 . S
C489 C490 1.380 . S
C489 C503 1.497 . S
C490 C489 1.380 . S
C490 C491 1.383 . S
C490 C493 1.603 . S
C491 C486 1.377 . S
C491 C490 1.383 . S
C491 H554 0.929 . S
C492 C488 1.527 . S
C492 H555 0.961 . S
C492 H556 0.959 . S
C492 H557 0.959 . S
C493 C490 1.603 . S
C493 H558 0.960 . S
C493 H559 0.962 . S
C493 H560 0.961 . S
C494 C461 1.587 . S
C494 C495 1.360 . S
C494 C507 1.412 1_556 S
C495 C494 1.360 . S
C495 C496 1.365 . S
C495 H561 0.929 . S
C496 C471 1.553 . S
C496 C495 1.365 . S
C496 C497 1.404 1_556 S
C497 C496 1.404 1_554 S
C497 C498 1.395 . S
C497 C508 1.451 . S
C498 C497 1.395 . S
C498 C499 1.322 . S
C498 H562 0.930 . S
C499 C498 1.322 . S
C499 C500 1.459 . S
C499 H563 0.929 . S
C500 C499 1.459 . S
C500 C501 1.445 . S
C500 C509 1.395 . S
C501 C479 1.432 . S
C501 C500 1.445 . S
C501 C502 1.370 . S
C502 C501 1.370 . S
C502 C503 1.438 . S
C502 H564 0.930 . S
C503 C489 1.497 . S
C503 C502 1.438 . S
C503 C504 1.360 . S
C504 C503 1.360 . S
C504 C505 1.401 . S
C504 C509 1.446 . S
C505 C504 1.401 . S
C505 C506 1.347 . S
C505 H565 0.929 . S
C506 C505 1.347 . S
C506 C507 1.455 . S
C506 H566 0.930 . S
C507 C494 1.412 1_554 S
C507 C506 1.455 . S
C507 C508 1.331 . S
C508 C497 1.451 . S
C508 C507 1.331 . S
C508 C509 1.497 . S
C509 C500 1.395 . S
C509 C504 1.446 . S
C509 C508 1.497 . S
C510 C511 1.582 . S
C510 H567 0.962 . S
C510 H568 0.959 . S
C510 H569 0.958 . S
C511 C510 1.582 . S
C511 O514 1.458 . S
C511 H540 0.980 . S
O512 C457 1.426 . S
O512 C458 1.334 . S
O513 C485 1.412 . S
O513 C486 1.393 . S
O514 C476 1.435 . S
O514 C511 1.458 . S
O515 C467 1.468 . S
O515 C468 1.408 . S
H516 C457 0.980 . S
H517 C456 0.959 . S
H518 C456 0.959 . S
H519 C456 0.960 . S
H520 C459 0.929 . S
H521 C463 0.929 . S
H522 C464 0.959 . S
H523 C464 0.961 . S
H524 C464 0.961 . S
H525 C465 0.960 . S
H526 C465 0.960 . S
H527 C465 0.961 1_554 S
H528 C467 0.980 . S
H529 C466 0.961 . S
H530 C466 0.960 . S
H531 C466 0.959 . S
H532 C469 0.930 . S
H533 C473 0.931 . S
H534 C474 0.959 . S
H535 C474 0.961 . S
H536 C474 0.959 . S
H537 C475 0.960 . S
H538 C475 0.960 . S
H539 C475 0.960 1_554 S
H540 C511 0.980 . S
H541 C477 0.930 . S
H542 C481 0.930 . S
H543 C482 0.961 . S
H544 C482 0.960 . S
H545 C482 0.958 . S
H546 C483 0.961 . S
H547 C483 0.960 . S
H548 C483 0.960 . S
H549 C485 0.980 . S
H550 C484 0.961 . S
H551 C484 0.961 . S
H552 C484 0.959 . S
H553 C487 0.932 . S
H554 C491 0.929 . S
H555 C492 0.961 . S
H556 C492 0.959 . S
H557 C492 0.959 . S
H558 C493 0.960 . S
H559 C493 0.962 . S
H560 C493 0.961 . S
H561 C495 0.929 . S
H562 C498 0.930 . S
H563 C499 0.929 . S
H564 C502 0.930 . S
H565 C505 0.929 . S
H566 C506 0.930 . S
H567 C510 0.962 . S
H568 C510 0.959 . S
H569 C510 0.958 . S
C570 C571 1.560 . S
C570 H631 0.959 . S
C570 H632 0.959 . S
C570 H633 0.960 . S
C571 C570 1.560 . S
C571 O626 1.426 . S
C571 H630 0.980 . S
C572 C573 1.407 . S
C572 C577 1.418 . S
C572 O626 1.334 . S
C573 C572 1.407 . S
C573 C574 1.360 . S
C573 H634 0.929 . S
C574 C573 1.360 . S
C574 C575 1.401 . S
C574 C578 1.527 . S
C575 C574 1.401 . S
C575 C576 1.405 . S
C575 C608 1.587 . S
C576 C575 1.405 . S
C576 C577 1.332 . S
C576 C579 1.496 . S
C577 C572 1.418 . S
C577 C576 1.332 . S
C577 H635 0.929 . S
C578 C574 1.527 . S
C578 H636 0.959 . S
C578 H637 0.961 . S
C578 H638 0.961 . S
C579 C576 1.496 . S
C579 H639 0.960 . S
C579 H640 0.960 . S
C579 H641 0.961 . S
C580 C581 1.517 . S
C580 H643 0.961 . S
C580 H644 0.960 . S
C580 H645 0.959 . S
C581 C580 1.517 . S
C581 O629 1.468 . S
C581 H642 0.980 . S
C582 C583 1.349 . S
C582 C587 1.367 . S
C582 O629 1.408 . S
C583 C582 1.349 . S
C583 C584 1.407 . S
C583 H646 0.930 . S
C584 C583 1.407 . S
C584 C585 1.449 . S
C584 C588 1.535 . S
C585 C584 1.449 . S
C585 C586 1.384 . S
C585 C610 1.553 . S
C586 C585 1.384 . S
C586 C587 1.364 . S
C586 C589 1.450 . S
C587 C582 1.367 . S
C587 C586 1.364 . S
C587 H647 0.931 . S
C588 C584 1.535 . S
C588 H648 0.959 . S
C588 H649 0.961 . S
C588 H650 0.959 . S
C589 C586 1.450 . S
C589 H651 0.960 . S
C589 H652 0.960 . S
C589 H653 0.960 . S
C590 C591 1.309 . S
C590 C595 1.304 . S
C590 O628 1.435 . S
C591 C590 1.309 . S
C591 C592 1.476 . S
C591 H655 0.930 . S
C592 C591 1.476 . S
C592 C593 1.400 . S
C592 C596 1.567 . S
C593 C592 1.400 . S
C593 C594 1.373 . S
C593 C615 1.432 . S
C594 C593 1.373 . S
C594 C595 1.339 . S
C594 C597 1.530 . S
C595 C590 1.304 . S
C595 C594 1.339 . S
C595 H656 0.930 . S
C596 C592 1.567 . S
C596 H657 0.961 . S
C596 H658 0.960 . S
C596 H659 0.958 . S
C597 C594 1.530 . S
C597 H660 0.961 . S
C597 H661 0.960 . S
C597 H662 0.960 . S
C598 C599 1.530 1_556 S
C598 H664 0.961 . S
C598 H665 0.961 1_556 S
C598 H666 0.959 . S
C599 C598 1.530 1_554 S
C599 O627 1.412 . S
C599 H663 0.980 . S
C600 C601 1.288 . S
C600 C605 1.377 . S
C600 O627 1.393 . S
C601 C600 1.288 . S
C601 C602 1.369 . S
C601 H667 0.932 . S
C602 C601 1.369 . S
C602 C603 1.398 . S
C602 C606 1.527 . S
C603 C602 1.398 . S
C603 C604 1.380 . S
C603 C617 1.497 . S
C604 C603 1.380 . S
C604 C605 1.383 . S
C604 C607 1.603 . S
C605 C600 1.377 . S
C605 C604 1.383 . S
C605 H668 0.929 . S
C606 C602 1.527 . S
C606 H669 0.961 . S
C606 H670 0.959 . S
C606 H671 0.959 . S
C607 C604 1.603 . S
C607 H672 0.960 . S
C607 H673 0.962 . S
C607 H674 0.961 . S
C608 C575 1.587 . S
C608 C609 1.360 . S
C608 C621 1.412 . S
C609 C608 1.360 . S
C609 C610 1.365 . S
C609 H675 0.929 . S
C610 C585 1.553 . S
C610 C609 1.365 . S
C610 C611 1.404 . S
C611 C610 1.404 . S
C611 C612 1.395 . S
C611 C622 1.451 . S
C612 C611 1.395 . S
C612 C613 1.322 . S
C612 H676 0.930 . S
C613 C612 1.322 . S
C613 C614 1.459 . S
C613 H677 0.929 . S
C614 C613 1.459 . S
C614 C615 1.445 . S
C614 C623 1.395 . S
C615 C593 1.432 . S
C615 C614 1.445 . S
C615 C616 1.370 . S
C616 C615 1.370 . S
C616 C617 1.438 . S
C616 H678 0.930 . S
C617 C603 1.497 . S
C617 C616 1.438 . S
C617 C618 1.360 . S
C618 C617 1.360 . S
C618 C619 1.401 . S
C618 C623 1.446 . S
C619 C618 1.401 . S
C619 C620 1.347 . S
C619 H679 0.929 . S
C620 C619 1.347 . S
C620 C621 1.455 . S
C620 H680 0.930 . S
C621 C608 1.412 . S
C621 C620 1.455 . S
C621 C622 1.331 . S
C622 C611 1.451 . S
C622 C621 1.331 . S
C622 C623 1.497 . S
C623 C614 1.395 . S
C623 C618 1.446 . S
C623 C622 1.497 . S
C624 C625 1.582 1_556 S
C624 H681 0.962 . S
C624 H682 0.959 1_556 S
C624 H683 0.958 . S
C625 C624 1.582 1_554 S
C625 O628 1.458 . S
C625 H654 0.980 . S
O626 C571 1.426 . S
O626 C572 1.334 . S
O627 C599 1.412 . S
O627 C600 1.393 . S
O628 C590 1.435 . S
O628 C625 1.458 . S
O629 C581 1.468 . S
O629 C582 1.408 . S
H630 C571 0.980 . S
H631 C570 0.959 . S
H632 C570 0.959 . S
H633 C570 0.960 . S
H634 C573 0.929 . S
H635 C577 0.929 . S
H636 C578 0.959 . S
H637 C578 0.961 . S
H638 C578 0.961 . S
H639 C579 0.960 . S
H640 C579 0.960 . S
H641 C579 0.961 . S
H642 C581 0.980 . S
H643 C580 0.961 . S
H644 C580 0.960 . S
H645 C580 0.959 . S
H646 C583 0.930 . S
H647 C587 0.931 . S
H648 C588 0.959 . S
H649 C588 0.961 . S
H650 C588 0.959 . S
H651 C589 0.960 . S
H652 C589 0.960 . S
H653 C589 0.960 . S
H654 C625 0.980 . S
H655 C591 0.930 . S
H656 C595 0.930 . S
H657 C596 0.961 . S
H658 C596 0.960 . S
H659 C596 0.958 . S
H660 C597 0.961 . S
H661 C597 0.960 . S
H662 C597 0.960 . S
H663 C599 0.980 . S
H664 C598 0.961 . S
H665 C598 0.961 1_554 S
H666 C598 0.959 . S
H667 C601 0.932 . S
H668 C605 0.929 . S
H669 C606 0.961 . S
H670 C606 0.959 . S
H671 C606 0.959 . S
H672 C607 0.960 . S
H673 C607 0.962 . S
H674 C607 0.961 . S
H675 C609 0.929 . S
H676 C612 0.930 . S
H677 C613 0.929 . S
H678 C616 0.930 . S
H679 C619 0.929 . S
H680 C620 0.930 . S
H681 C624 0.962 . S
H682 C624 0.959 1_554 S
H683 C624 0.958 . S
C684 O696 1.241 . S
C684 O697 1.280 . S
C685 O698 1.277 . S
C685 O699 1.245 . S
C686 O710 1.247 . S
C686 O712 1.289 . S
Mg687 O688 1.926 . S
Mg687 O697 1.984 1_455 S
Mg687 O699 1.988 . S
Mg687 O700 2.061 1_455 S
O688 Mg687 1.926 . S
O688 Mg689 1.986 . S
O688 Mg690 1.917 . S
Mg689 O688 1.986 . S
Mg689 O696 2.042 1_455 S
Mg689 O698 2.041 . S
Mg689 O704 2.038 1_455 S
Mg689 O712 2.238 . S
Mg690 O688 1.917 . S
Mg690 O691 1.917 . S
Mg690 O701 2.106 1_455 S
Mg690 O703 2.079 1_455 S
Mg690 O712 2.106 . S
Mg690 O713 2.079 . S
O691 Mg690 1.917 . S
O691 Mg692 1.926 . S
O691 Mg693 1.986 . S
Mg692 O691 1.926 . S
Mg692 O706 1.984 . S
Mg692 O709 1.988 1_455 S
Mg692 O710 2.061 . S
Mg693 O691 1.986 . S
Mg693 O701 2.238 1_455 S
Mg693 O705 2.042 . S
Mg693 O707 2.041 1_455 S
Mg693 O714 2.038 . S
C694 O700 1.247 . S
C694 O701 1.289 . S
C695 O713 1.245 . S
C695 O714 1.274 . S
O696 C684 1.241 . S
O696 Mg689 2.042 1_655 S
O697 C684 1.280 . S
O697 Mg687 1.984 1_655 S
O698 C685 1.277 . S
O698 Mg689 2.041 . S
O699 C685 1.245 . S
O699 Mg687 1.988 . S
O700 Mg687 2.061 1_655 S
O700 C694 1.247 . S
O701 Mg690 2.106 1_655 S
O701 Mg693 2.238 1_655 S
O701 C694 1.289 . S
C702 O703 1.245 . S
C702 O704 1.274 . S
O703 Mg690 2.079 1_655 S
O703 C702 1.245 . S
O704 Mg689 2.038 1_655 S
O704 C702 1.274 . S
O705 Mg693 2.042 . S
O705 C708 1.241 . S
O706 Mg692 1.984 . S
O706 C708 1.280 . S
O707 Mg693 2.041 1_655 S
O707 C711 1.277 . S
C708 O705 1.241 . S
C708 O706 1.280 . S
O709 Mg692 1.988 1_655 S
O709 C711 1.245 . S
O710 C686 1.247 . S
O710 Mg692 2.061 . S
C711 O707 1.277 . S
C711 O709 1.245 . S
O712 C686 1.289 . S
O712 Mg689 2.238 . S
O712 Mg690 2.106 . S
O713 Mg690 2.079 . S
O713 C695 1.245 . S
O714 Mg693 2.038 . S
O714 C695 1.274 . S
C715 O727 1.241 . S
C715 O728 1.280 . S
C716 O729 1.277 . S
C716 O730 1.245 . S
C717 O741 1.247 . S
C717 O743 1.289 . S
Mg718 O719 1.926 . S
Mg718 O728 1.984 . S
Mg718 O730 1.988 1_545 S
Mg718 O731 2.061 . S
O719 Mg718 1.926 . S
O719 Mg720 1.986 . S
O719 Mg721 1.917 . S
Mg720 O719 1.986 . S
Mg720 O727 2.042 . S
Mg720 O729 2.041 1_545 S
Mg720 O735 2.038 . S
Mg720 O743 2.238 1_545 S
Mg721 O719 1.917 . S
Mg721 O722 1.938 . S
Mg721 O732 2.106 . S
Mg721 O734 2.079 . S
Mg721 O743 2.106 1_545 S
Mg721 O744 2.079 1_545 S
O722 Mg721 1.938 . S
O722 Mg723 1.904 1_545 S
O722 Mg724 2.004 . S
Mg723 O722 1.904 1_565 S
Mg723 O737 1.984 . S
Mg723 O740 1.988 1_565 S
Mg723 O741 2.061 . S
Mg724 O722 2.004 . S
Mg724 O732 2.238 . S
Mg724 O736 2.042 1_545 S
Mg724 O738 2.041 . S
Mg724 O745 2.038 1_545 S
C725 O731 1.247 . S
C725 O732 1.289 . S
C726 O744 1.245 . S
C726 O745 1.274 . S
O727 C715 1.241 . S
O727 Mg720 2.042 . S
O728 C715 1.280 . S
O728 Mg718 1.984 . S
O729 C716 1.277 . S
O729 Mg720 2.041 1_565 S
O730 C716 1.245 . S
O730 Mg718 1.988 1_565 S
O731 Mg718 2.061 . S
O731 C725 1.247 . S
O732 Mg721 2.106 . S
O732 Mg724 2.238 . S
O732 C725 1.289 . S
C733 O734 1.245 . S
C733 O735 1.274 . S
O734 Mg721 2.079 . S
O734 C733 1.245 . S
O735 Mg720 2.038 . S
O735 C733 1.274 . S
O736 Mg724 2.042 1_565 S
O736 C739 1.241 . S
O737 Mg723 1.984 . S
O737 C739 1.280 . S
O738 Mg724 2.041 . S
O738 C742 1.277 . S
C739 O736 1.241 . S
C739 O737 1.280 . S
O740 Mg723 1.988 1_545 S
O740 C742 1.245 . S
O741 C717 1.247 . S
O741 Mg723 2.061 . S
C742 O738 1.277 . S
C742 O740 1.245 . S
O743 C717 1.289 . S
O743 Mg720 2.238 1_565 S
O743 Mg721 2.106 1_565 S
O744 Mg721 2.079 1_565 S
O744 C726 1.245 . S
O745 Mg724 2.038 1_565 S
O745 C726 1.274 . S
C746 O758 1.241 . S
C746 O759 1.280 . S
C747 O760 1.277 . S
C747 O761 1.245 . S
C748 O772 1.247 . S
C748 O774 1.289 . S
Mg749 O750 1.926 . S
Mg749 O759 1.984 . S
Mg749 O761 1.988 . S
Mg749 O762 2.061 . S
O750 Mg749 1.926 . S
O750 Mg751 1.986 . S
O750 Mg752 1.917 . S
Mg751 O750 1.986 . S
Mg751 O758 2.042 . S
Mg751 O760 2.041 . S
Mg751 O766 2.038 . S
Mg751 O774 2.238 . S
Mg752 O750 1.917 . S
Mg752 O753 1.917 . S
Mg752 O763 2.106 . S
Mg752 O765 2.079 . S
Mg752 O774 2.106 . S
Mg752 O775 2.079 . S
O753 Mg752 1.917 . S
O753 Mg754 1.926 . S
O753 Mg755 1.986 . S
Mg754 O753 1.926 . S
Mg754 O768 1.984 . S
Mg754 O771 1.988 . S
Mg754 O772 2.061 . S
Mg755 O753 1.986 . S
Mg755 O763 2.238 . S
Mg755 O767 2.042 . S
Mg755 O769 2.041 . S
Mg755 O776 2.038 . S
C756 O762 1.247 . S
C756 O763 1.289 . S
C757 O775 1.245 . S
C757 O776 1.274 . S
O758 C746 1.241 . S
O758 Mg751 2.042 . S
O759 C746 1.280 . S
O759 Mg749 1.984 . S
O760 C747 1.277 . S
O760 Mg751 2.041 . S
O761 C747 1.245 . S
O761 Mg749 1.988 . S
O762 Mg749 2.061 . S
O762 C756 1.247 . S
O763 Mg752 2.106 . S
O763 Mg755 2.238 . S
O763 C756 1.289 . S
C764 O765 1.245 . S
C764 O766 1.274 . S
O765 Mg752 2.079 . S
O765 C764 1.245 . S
O766 Mg751 2.038 . S
O766 C764 1.274 . S
O767 Mg755 2.042 . S
O767 C770 1.241 . S
O768 Mg754 1.984 . S
O768 C770 1.280 . S
O769 Mg755 2.041 . S
O769 C773 1.277 . S
C770 O767 1.241 . S
C770 O768 1.280 . S
O771 Mg754 1.988 . S
O771 C773 1.245 . S
O772 C748 1.247 . S
O772 Mg754 2.061 . S
C773 O769 1.277 . S
C773 O771 1.245 . S
O774 C748 1.289 . S
O774 Mg751 2.238 . S
O774 Mg752 2.106 . S
O775 Mg752 2.079 . S
O775 C757 1.245 . S
O776 Mg755 2.038 . S
O776 C757 1.274 . S
H777 C785 0.929 . S
H778 C787 0.930 . S
H779 C789 0.930 . S
H780 C792 0.929 . S
H781 C795 0.930 . S
H782 C797 0.960 . S
H783 C797 0.960 . S
H784 C797 0.960 . S
C785 H777 0.929 . S
C785 C786 1.377 . S
C785 C787 1.384 . S
C786 C785 1.377 . S
C786 C792 1.390 . S
C787 H778 0.930 . S
C787 C785 1.384 . S
C787 C788 1.372 . S
C788 C787 1.372 . S
C788 C789 1.400 . S
C788 C793 1.490 . S
C789 H779 0.930 . S
C789 C788 1.400 . S
C789 C792 1.386 . S
H790 C806 0.930 . S
H791 C807 0.931 . S
C792 H780 0.929 . S
C792 C786 1.390 . S
C792 C789 1.386 . S
C793 C788 1.490 . S
C793 C795 1.395 . S
C793 C796 1.403 . S
H794 C800 0.930 . S
C795 H781 0.930 . S
C795 C793 1.395 . S
C795 C798 1.403 . S
C796 C793 1.403 . S
C796 C797 1.524 . S
C796 C800 1.400 . S
C797 H782 0.960 . S
C797 H783 0.960 . S
C797 H784 0.960 . S
C797 C796 1.524 . S
C798 C795 1.403 . S
C798 C799 1.392 . S
C798 C802 1.495 . S
C799 C798 1.392 . S
C799 C800 1.385 . S
C799 C801 1.478 . S
C800 H794 0.930 . S
C800 C796 1.400 . S
C800 C799 1.385 . S
C801 C799 1.478 . S
C801 C803 1.381 . S
C801 C807 1.383 . S
C802 C798 1.495 . S
C802 H808 0.959 . S
C802 H809 0.961 . S
C802 H810 0.960 . S
C803 C801 1.381 . S
C803 C804 1.394 . S
C803 H811 0.930 . S
C804 C803 1.394 . S
C804 C805 1.383 . S
C804 H812 0.929 . S
C805 C804 1.383 . S
C805 C806 1.377 . S
C806 H790 0.930 . S
C806 C805 1.377 . S
C806 C807 1.379 . S
C807 H791 0.931 . S
C807 C801 1.383 . S
C807 C806 1.379 . S
H808 C802 0.959 . S
H809 C802 0.961 . S
H810 C802 0.960 . S
H811 C803 0.930 . S
H812 C804 0.929 . S
H813 C821 0.929 . S
H814 C823 0.930 . S
H815 C825 0.930 . S
H816 C828 0.929 . S
H817 C831 0.930 . S
H818 C833 0.960 . S
H819 C833 0.960 . S
H820 C833 0.960 . S
C821 H813 0.929 . S
C821 C822 1.377 . S
C821 C823 1.384 . S
C822 C821 1.377 . S
C822 C828 1.390 . S
C823 H814 0.930 . S
C823 C821 1.384 . S
C823 C824 1.372 . S
C824 C823 1.372 . S
C824 C825 1.400 . S
C824 C829 1.490 . S
C825 H815 0.930 . S
C825 C824 1.400 . S
C825 C828 1.386 . S
H826 C842 0.930 . S
H827 C843 0.931 . S
C828 H816 0.929 . S
C828 C822 1.390 . S
C828 C825 1.386 . S
C829 C824 1.490 . S
C829 C831 1.395 . S
C829 C832 1.403 . S
H830 C836 0.930 . S
C831 H817 0.930 . S
C831 C829 1.395 . S
C831 C834 1.403 . S
C832 C829 1.403 . S
C832 C833 1.524 . S
C832 C836 1.400 . S
C833 H818 0.960 . S
C833 H819 0.960 . S
C833 H820 0.960 . S
C833 C832 1.524 . S
C834 C831 1.403 . S
C834 C835 1.392 . S
C834 C838 1.495 . S
C835 C834 1.392 . S
C835 C836 1.385 . S
C835 C837 1.478 . S
C836 H830 0.930 . S
C836 C832 1.400 . S
C836 C835 1.385 . S
C837 C835 1.478 . S
C837 C839 1.381 . S
C837 C843 1.383 . S
C838 C834 1.495 . S
C838 H844 0.959 . S
C838 H845 0.961 . S
C838 H846 0.960 . S
C839 C837 1.381 . S
C839 C840 1.394 . S
C839 H847 0.930 . S
C840 C839 1.394 . S
C840 C841 1.383 . S
C840 H848 0.929 . S
C841 C840 1.383 . S
C841 C842 1.377 . S
C842 H826 0.930 . S
C842 C841 1.377 . S
C842 C843 1.379 . S
C843 H827 0.931 . S
C843 C837 1.383 . S
C843 C842 1.379 . S
H844 C838 0.959 . S
H845 C838 0.961 . S
H846 C838 0.960 . S
H847 C839 0.930 . S
H848 C840 0.929 . S
H849 C857 0.929 . S
H850 C859 0.930 . S
H851 C861 0.930 . S
H852 C864 0.929 . S
H853 C867 0.930 . S
H854 C869 0.960 . S
H855 C869 0.960 . S
H856 C869 0.960 . S
C857 H849 0.929 . S
C857 C858 1.377 . S
C857 C859 1.384 . S
C858 C857 1.377 . S
C858 C864 1.390 . S
C859 H850 0.930 . S
C859 C857 1.384 . S
C859 C860 1.372 . S
C860 C859 1.372 . S
C860 C861 1.400 . S
C860 C865 1.490 . S
C861 H851 0.930 . S
C861 C860 1.400 . S
C861 C864 1.386 . S
H862 C878 0.930 . S
H863 C879 0.931 . S
C864 H852 0.929 . S
C864 C858 1.390 . S
C864 C861 1.386 . S
C865 C860 1.490 . S
C865 C867 1.395 . S
C865 C868 1.403 . S
H866 C872 0.930 . S
C867 H853 0.930 . S
C867 C865 1.395 . S
C867 C870 1.403 . S
C868 C865 1.403 . S
C868 C869 1.524 . S
C868 C872 1.400 . S
C869 H854 0.960 . S
C869 H855 0.960 . S
C869 H856 0.960 . S
C869 C868 1.524 . S
C870 C867 1.403 . S
C870 C871 1.392 . S
C870 C874 1.495 . S
C871 C870 1.392 . S
C871 C872 1.385 . S
C871 C873 1.478 . S
C872 H866 0.930 . S
C872 C868 1.400 . S
C872 C871 1.385 . S
C873 C871 1.478 . S
C873 C875 1.381 . S
C873 C879 1.383 . S
C874 C870 1.495 . S
C874 H880 0.959 . S
C874 H881 0.961 . S
C874 H882 0.960 . S
C875 C873 1.381 . S
C875 C876 1.394 . S
C875 H883 0.930 . S
C876 C875 1.394 . S
C876 C877 1.383 . S
C876 H884 0.929 . S
C877 C876 1.383 . S
C877 C878 1.377 . S
C878 H862 0.930 . S
C878 C877 1.377 . S
C878 C879 1.379 . S
C879 H863 0.931 . S
C879 C873 1.383 . S
C879 C878 1.379 . S
H880 C874 0.959 . S
H881 C874 0.961 . S
H882 C874 0.960 . S
H883 C875 0.930 . S
H884 C876 0.929 . S
H885 C893 0.929 . S
H886 C895 0.930 . S
H887 C897 0.930 . S
H888 C900 0.929 . S
H889 C903 0.930 . S
H890 C905 0.960 . S
H891 C905 0.960 . S
H892 C905 0.960 . S
C893 H885 0.929 . S
C893 C894 1.377 . S
C893 C895 1.384 . S
C894 C893 1.377 . S
C894 C900 1.390 . S
C895 H886 0.930 . S
C895 C893 1.384 . S
C895 C896 1.372 . S
C896 C895 1.372 . S
C896 C897 1.400 . S
C896 C901 1.490 . S
C897 H887 0.930 . S
C897 C896 1.400 . S
C897 C900 1.386 . S
H898 C914 0.930 . S
H899 C915 0.931 . S
C900 H888 0.929 . S
C900 C894 1.390 . S
C900 C897 1.386 . S
C901 C896 1.490 . S
C901 C903 1.395 . S
C901 C904 1.403 . S
H902 C908 0.930 . S
C903 H889 0.930 . S
C903 C901 1.395 . S
C903 C906 1.403 . S
C904 C901 1.403 . S
C904 C905 1.524 . S
C904 C908 1.400 . S
C905 H890 0.960 . S
C905 H891 0.960 . S
C905 H892 0.960 . S
C905 C904 1.524 . S
C906 C903 1.403 . S
C906 C907 1.392 . S
C906 C910 1.495 . S
C907 C906 1.392 . S
C907 C908 1.385 . S
C907 C909 1.478 . S
C908 H902 0.930 . S
C908 C904 1.400 . S
C908 C907 1.385 . S
C909 C907 1.478 . S
C909 C911 1.381 . S
C909 C915 1.383 . S
C910 C906 1.495 . S
C910 H916 0.959 . S
C910 H917 0.961 . S
C910 H918 0.960 . S
C911 C909 1.381 . S
C911 C912 1.394 . S
C911 H919 0.930 . S
C912 C911 1.394 . S
C912 C913 1.383 . S
C912 H920 0.929 . S
C913 C912 1.383 . S
C913 C914 1.377 . S
C914 H898 0.930 . S
C914 C913 1.377 . S
C914 C915 1.379 . S
C915 H899 0.931 . S
C915 C909 1.383 . S
C915 C914 1.379 . S
H916 C910 0.959 . S
H917 C910 0.961 . S
H918 C910 0.960 . S
H919 C911 0.930 . S
H920 C912 0.929 . S
H921 C929 0.929 . S
H922 C931 0.930 . S
H923 C933 0.930 . S
H924 C936 0.929 . S
H925 C939 0.930 . S
H926 C941 0.960 . S
H927 C941 0.960 . S
H928 C941 0.960 . S
C929 H921 0.929 . S
C929 C930 1.377 . S
C929 C931 1.384 . S
C930 C929 1.377 . S
C930 C936 1.390 . S
C931 H922 0.930 . S
C931 C929 1.384 . S
C931 C932 1.372 . S
C932 C931 1.372 . S
C932 C933 1.400 . S
C932 C937 1.490 . S
C933 H923 0.930 . S
C933 C932 1.400 . S
C933 C936 1.386 . S
H934 C950 0.930 . S
H935 C951 0.931 . S
C936 H924 0.929 . S
C936 C930 1.390 . S
C936 C933 1.386 . S
C937 C932 1.490 . S
C937 C939 1.395 . S
C937 C940 1.403 . S
H938 C944 0.930 . S
C939 H925 0.930 . S
C939 C937 1.395 . S
C939 C942 1.403 . S
C940 C937 1.403 . S
C940 C941 1.524 . S
C940 C944 1.400 . S
C941 H926 0.960 . S
C941 H927 0.960 . S
C941 H928 0.960 . S
C941 C940 1.524 . S
C942 C939 1.403 . S
C942 C943 1.392 . S
C942 C946 1.495 . S
C943 C942 1.392 . S
C943 C944 1.385 . S
C943 C945 1.478 . S
C944 H938 0.930 . S
C944 C940 1.400 . S
C944 C943 1.385 . S
C945 C943 1.478 . S
C945 C947 1.381 . S
C945 C951 1.383 . S
C946 C942 1.495 . S
C946 H952 0.959 . S
C946 H953 0.961 . S
C946 H954 0.960 . S
C947 C945 1.381 . S
C947 C948 1.394 . S
C947 H955 0.930 . S
C948 C947 1.394 . S
C948 C949 1.383 . S
C948 H956 0.929 . S
C949 C948 1.383 . S
C949 C950 1.377 . S
C950 H934 0.930 . S
C950 C949 1.377 . S
C950 C951 1.379 . S
C951 H935 0.931 . S
C951 C945 1.383 . S
C951 C950 1.379 . S
H952 C946 0.959 . S
H953 C946 0.961 . S
H954 C946 0.960 . S
H955 C947 0.930 . S
H956 C948 0.929 . S
H957 C965 0.929 . S
H958 C967 0.930 . S
H959 C969 0.930 . S
H960 C972 0.929 . S
H961 C975 0.930 . S
H962 C977 0.960 . S
H963 C977 0.960 . S
H964 C977 0.960 . S
C965 H957 0.929 . S
C965 C966 1.377 . S
C965 C967 1.384 . S
C966 C965 1.377 . S
C966 C972 1.390 . S
C967 H958 0.930 . S
C967 C965 1.384 . S
C967 C968 1.372 . S
C968 C967 1.372 . S
C968 C969 1.400 . S
C968 C973 1.490 . S
C969 H959 0.930 . S
C969 C968 1.400 . S
C969 C972 1.386 . S
H970 C986 0.930 . S
H971 C987 0.931 . S
C972 H960 0.929 . S
C972 C966 1.390 . S
C972 C969 1.386 . S
C973 C968 1.490 . S
C973 C975 1.395 . S
C973 C976 1.403 . S
H974 C980 0.930 . S
C975 H961 0.930 . S
C975 C973 1.395 . S
C975 C978 1.403 . S
C976 C973 1.403 . S
C976 C977 1.524 . S
C976 C980 1.400 . S
C977 H962 0.960 . S
C977 H963 0.960 . S
C977 H964 0.960 . S
C977 C976 1.524 . S
C978 C975 1.403 . S
C978 C979 1.392 . S
C978 C982 1.495 . S
C979 C978 1.392 . S
C979 C980 1.385 . S
C979 C981 1.478 . S
C980 H974 0.930 . S
C980 C976 1.400 . S
C980 C979 1.385 . S
C981 C979 1.478 . S
C981 C983 1.381 . S
C981 C987 1.383 . S
C982 C978 1.495 . S
C982 H988 0.959 . S
C982 H989 0.961 . S
C982 H990 0.960 . S
C983 C981 1.381 . S
C983 C984 1.394 . S
C983 H991 0.930 . S
C984 C983 1.394 . S
C984 C985 1.383 . S
C984 H992 0.929 . S
C985 C984 1.383 . S
C985 C986 1.377 . S
C986 H970 0.930 . S
C986 C985 1.377 . S
C986 C987 1.379 . S
C987 H971 0.931 . S
C987 C981 1.383 . S
C987 C986 1.379 . S
H988 C982 0.959 . S
H989 C982 0.961 . S
H990 C982 0.960 . S
H991 C983 0.930 . S
H992 C984 0.929 . S
H993 C1001 0.929 . S
H994 C1003 0.930 . S
H995 C1005 0.930 . S
H996 C1008 0.929 . S
H997 C1011 0.930 . S
H998 C1013 0.960 . S
H999 C1013 0.960 . S
H1000 C1013 0.960 . S
C1001 H993 0.929 . S
C1001 C1002 1.377 . S
C1001 C1003 1.384 . S
C1002 C1001 1.377 . S
C1002 C1008 1.390 . S
C1003 H994 0.930 . S
C1003 C1001 1.384 . S
C1003 C1004 1.372 . S
C1004 C1003 1.372 . S
C1004 C1005 1.400 . S
C1004 C1009 1.490 . S
C1005 H995 0.930 . S
C1005 C1004 1.400 . S
C1005 C1008 1.386 . S
H1006 C1022 0.930 . S
H1007 C1023 0.931 . S
C1008 H996 0.929 . S
C1008 C1002 1.390 . S
C1008 C1005 1.386 . S
C1009 C1004 1.490 . S
C1009 C1011 1.395 . S
C1009 C1012 1.403 . S
H1010 C1016 0.930 . S
C1011 H997 0.930 . S
C1011 C1009 1.395 . S
C1011 C1014 1.403 . S
C1012 C1009 1.403 . S
C1012 C1013 1.524 . S
C1012 C1016 1.400 . S
C1013 H998 0.960 . S
C1013 H999 0.960 . S
C1013 H1000 0.960 . S
C1013 C1012 1.524 . S
C1014 C1011 1.403 . S
C1014 C1015 1.392 . S
C1014 C1018 1.495 . S
C1015 C1014 1.392 . S
C1015 C1016 1.385 . S
C1015 C1017 1.478 . S
C1016 H1010 0.930 . S
C1016 C1012 1.400 . S
C1016 C1015 1.385 . S
C1017 C1015 1.478 . S
C1017 C1019 1.381 . S
C1017 C1023 1.383 . S
C1018 C1014 1.495 . S
C1018 H1024 0.959 . S
C1018 H1025 0.961 . S
C1018 H1026 0.960 . S
C1019 C1017 1.381 . S
C1019 C1020 1.394 . S
C1019 H1027 0.930 . S
C1020 C1019 1.394 . S
C1020 C1021 1.383 . S
C1020 H1028 0.929 . S
C1021 C1020 1.383 . S
C1021 C1022 1.377 . S
C1022 H1006 0.930 . S
C1022 C1021 1.377 . S
C1022 C1023 1.379 . S
C1023 H1007 0.931 . S
C1023 C1017 1.383 . S
C1023 C1022 1.379 . S
H1024 C1018 0.959 . S
H1025 C1018 0.961 . S
H1026 C1018 0.960 . S
H1027 C1019 0.930 . S
H1028 C1020 0.929 . S
H1029 C1037 0.929 . S
H1030 C1039 0.930 . S
H1031 C1041 0.930 . S
H1032 C1044 0.929 . S
H1033 C1047 0.930 . S
H1034 C1049 0.960 . S
H1035 C1049 0.960 . S
H1036 C1049 0.960 . S
C1037 H1029 0.929 . S
C1037 C1038 1.377 . S
C1037 C1039 1.384 . S
C1038 C1037 1.377 . S
C1038 C1044 1.390 . S
C1039 H1030 0.930 . S
C1039 C1037 1.384 . S
C1039 C1040 1.372 . S
C1040 C1039 1.372 . S
C1040 C1041 1.400 . S
C1040 C1045 1.490 . S
C1041 H1031 0.930 . S
C1041 C1040 1.400 . S
C1041 C1044 1.386 . S
H1042 C1058 0.930 . S
H1043 C1059 0.931 . S
C1044 H1032 0.929 . S
C1044 C1038 1.390 . S
C1044 C1041 1.386 . S
C1045 C1040 1.490 . S
C1045 C1047 1.395 . S
C1045 C1048 1.403 . S
H1046 C1052 0.930 . S
C1047 H1033 0.930 . S
C1047 C1045 1.395 . S
C1047 C1050 1.403 . S
C1048 C1045 1.403 . S
C1048 C1049 1.524 . S
C1048 C1052 1.400 . S
C1049 H1034 0.960 . S
C1049 H1035 0.960 . S
C1049 H1036 0.960 . S
C1049 C1048 1.524 . S
C1050 C1047 1.403 . S
C1050 C1051 1.392 . S
C1050 C1054 1.495 . S
C1051 C1050 1.392 . S
C1051 C1052 1.385 . S
C1051 C1053 1.478 . S
C1052 H1046 0.930 . S
C1052 C1048 1.400 . S
C1052 C1051 1.385 . S
C1053 C1051 1.478 . S
C1053 C1055 1.381 . S
C1053 C1059 1.383 . S
C1054 C1050 1.495 . S
C1054 H1060 0.959 . S
C1054 H1061 0.961 . S
C1054 H1062 0.960 . S
C1055 C1053 1.381 . S
C1055 C1056 1.394 . S
C1055 H1063 0.930 . S
C1056 C1055 1.394 . S
C1056 C1057 1.383 . S
C1056 H1064 0.929 . S
C1057 C1056 1.383 . S
C1057 C1058 1.377 . S
C1058 H1042 0.930 . S
C1058 C1057 1.377 . S
C1058 C1059 1.379 . S
C1059 H1043 0.931 . S
C1059 C1053 1.383 . S
C1059 C1058 1.379 . S
H1060 C1054 0.959 . S
H1061 C1054 0.961 . S
H1062 C1054 0.960 . S
H1063 C1055 0.930 . S
H1064 C1056 0.929 . S
H1065 C1073 0.929 . S
H1066 C1075 0.930 . S
H1067 C1077 0.930 . S
H1068 C1080 0.929 . S
H1069 C1083 0.930 . S
H1070 C1085 0.960 . S
H1071 C1085 0.960 . S
H1072 C1085 0.960 . S
C1073 H1065 0.929 . S
C1073 C1074 1.377 . S
C1073 C1075 1.384 . S
C1074 C1073 1.377 . S
C1074 C1080 1.390 . S
C1075 H1066 0.930 . S
C1075 C1073 1.384 . S
C1075 C1076 1.372 . S
C1076 C1075 1.372 . S
C1076 C1077 1.400 . S
C1076 C1081 1.490 . S
C1077 H1067 0.930 . S
C1077 C1076 1.400 . S
C1077 C1080 1.386 . S
H1078 C1094 0.930 . S
H1079 C1095 0.931 . S
C1080 H1068 0.929 . S
C1080 C1074 1.390 . S
C1080 C1077 1.386 . S
C1081 C1076 1.490 . S
C1081 C1083 1.395 . S
C1081 C1084 1.403 . S
H1082 C1088 0.930 . S
C1083 H1069 0.930 . S
C1083 C1081 1.395 . S
C1083 C1086 1.403 . S
C1084 C1081 1.403 . S
C1084 C1085 1.524 . S
C1084 C1088 1.400 . S
C1085 H1070 0.960 . S
C1085 H1071 0.960 . S
C1085 H1072 0.960 . S
C1085 C1084 1.524 . S
C1086 C1083 1.403 . S
C1086 C1087 1.392 . S
C1086 C1090 1.495 . S
C1087 C1086 1.392 . S
C1087 C1088 1.385 . S
C1087 C1089 1.478 . S
C1088 H1082 0.930 . S
C1088 C1084 1.400 . S
C1088 C1087 1.385 . S
C1089 C1087 1.478 . S
C1089 C1091 1.381 . S
C1089 C1095 1.383 . S
C1090 C1086 1.495 . S
C1090 H1096 0.959 . S
C1090 H1097 0.961 . S
C1090 H1098 0.960 . S
C1091 C1089 1.381 . S
C1091 C1092 1.394 . S
C1091 H1099 0.930 . S
C1092 C1091 1.394 . S
C1092 C1093 1.383 . S
C1092 H1100 0.929 . S
C1093 C1092 1.383 . S
C1093 C1094 1.377 . S
C1094 H1078 0.930 . S
C1094 C1093 1.377 . S
C1094 C1095 1.379 . S
C1095 H1079 0.931 . S
C1095 C1089 1.383 . S
C1095 C1094 1.379 . S
H1096 C1090 0.959 . S
H1097 C1090 0.961 . S
H1098 C1090 0.960 . S
H1099 C1091 0.930 . S
H1100 C1092 0.929 . S
H1101 C1109 0.929 . S
H1102 C1111 0.930 . S
H1103 C1113 0.930 . S
H1104 C1116 0.929 1_554 S
H1105 C1119 0.930 . S
H1106 C1121 0.960 . S
H1107 C1121 0.960 . S
H1108 C1121 0.960 . S
C1109 H1101 0.929 . S
C1109 C1110 1.377 . S
C1109 C1111 1.384 . S
C1110 C1109 1.377 . S
C1110 C1116 1.390 . S
C1111 H1102 0.930 . S
C1111 C1109 1.384 . S
C1111 C1112 1.372 . S
C1112 C1111 1.372 . S
C1112 C1113 1.400 . S
C1112 C1117 1.490 . S
C1113 H1103 0.930 . S
C1113 C1112 1.400 . S
C1113 C1116 1.386 . S
H1114 C1130 0.930 . S
H1115 C1131 0.931 . S
C1116 H1104 0.929 1_556 S
C1116 C1110 1.390 . S
C1116 C1113 1.386 . S
C1117 C1112 1.490 . S
C1117 C1119 1.395 . S
C1117 C1120 1.403 . S
H1118 C1124 0.930 . S
C1119 H1105 0.930 . S
C1119 C1117 1.395 . S
C1119 C1122 1.403 . S
C1120 C1117 1.403 . S
C1120 C1121 1.524 . S
C1120 C1124 1.400 . S
C1121 H1106 0.960 . S
C1121 H1107 0.960 . S
C1121 H1108 0.960 . S
C1121 C1120 1.524 . S
C1122 C1119 1.403 . S
C1122 C1123 1.392 . S
C1122 C1126 1.495 . S
C1123 C1122 1.392 . S
C1123 C1124 1.385 . S
C1123 C1125 1.478 . S
C1124 H1118 0.930 . S
C1124 C1120 1.400 . S
C1124 C1123 1.385 . S
C1125 C1123 1.478 . S
C1125 C1127 1.381 . S
C1125 C1131 1.383 . S
C1126 C1122 1.495 . S
C1126 H1132 0.959 . S
C1126 H1133 0.961 . S
C1126 H1134 0.960 . S
C1127 C1125 1.381 . S
C1127 C1128 1.394 . S
C1127 H1135 0.930 . S
C1128 C1127 1.394 . S
C1128 C1129 1.383 . S
C1128 H1136 0.929 . S
C1129 C1128 1.383 . S
C1129 C1130 1.377 . S
C1130 H1114 0.930 . S
C1130 C1129 1.377 . S
C1130 C1131 1.379 . S
C1131 H1115 0.931 . S
C1131 C1125 1.383 . S
C1131 C1130 1.379 . S
H1132 C1126 0.959 . S
H1133 C1126 0.961 . S
H1134 C1126 0.960 . S
H1135 C1127 0.930 . S
H1136 C1128 0.929 . S
H1137 C1145 0.929 . S
H1138 C1147 0.930 . S
H1139 C1149 0.930 . S
H1140 C1152 0.929 . S
H1141 C1155 0.930 . S
H1142 C1157 0.960 . S
H1143 C1157 0.960 . S
H1144 C1157 0.960 . S
C1145 H1137 0.929 . S
C1145 C1146 1.377 . S
C1145 C1147 1.384 . S
C1146 C1145 1.377 . S
C1146 C1152 1.390 . S
C1147 H1138 0.930 . S
C1147 C1145 1.384 . S
C1147 C1148 1.372 . S
C1148 C1147 1.372 . S
C1148 C1149 1.400 . S
C1148 C1153 1.490 . S
C1149 H1139 0.930 . S
C1149 C1148 1.400 . S
C1149 C1152 1.386 . S
H1150 C1166 0.930 . S
H1151 C1167 0.931 . S
C1152 H1140 0.929 . S
C1152 C1146 1.390 . S
C1152 C1149 1.386 . S
C1153 C1148 1.490 . S
C1153 C1155 1.395 . S
C1153 C1156 1.403 . S
H1154 C1160 0.930 . S
C1155 H1141 0.930 . S
C1155 C1153 1.395 . S
C1155 C1158 1.403 . S
C1156 C1153 1.403 . S
C1156 C1157 1.524 . S
C1156 C1160 1.400 . S
C1157 H1142 0.960 . S
C1157 H1143 0.960 . S
C1157 H1144 0.960 . S
C1157 C1156 1.524 . S
C1158 C1155 1.403 . S
C1158 C1159 1.392 . S
C1158 C1162 1.495 . S
C1159 C1158 1.392 . S
C1159 C1160 1.385 . S
C1159 C1161 1.478 . S
C1160 H1154 0.930 . S
C1160 C1156 1.400 . S
C1160 C1159 1.385 . S
C1161 C1159 1.478 . S
C1161 C1163 1.381 . S
C1161 C1167 1.383 . S
C1162 C1158 1.495 . S
C1162 H1168 0.959 . S
C1162 H1169 0.961 . S
C1162 H1170 0.960 . S
C1163 C1161 1.381 . S
C1163 C1164 1.394 . S
C1163 H1171 0.930 . S
C1164 C1163 1.394 . S
C1164 C1165 1.383 . S
C1164 H1172 0.929 . S
C1165 C1164 1.383 . S
C1165 C1166 1.377 . S
C1166 H1150 0.930 . S
C1166 C1165 1.377 . S
C1166 C1167 1.379 . S
C1167 H1151 0.931 . S
C1167 C1161 1.383 . S
C1167 C1166 1.379 . S
H1168 C1162 0.959 . S
H1169 C1162 0.961 . S
H1170 C1162 0.960 . S
H1171 C1163 0.930 . S
H1172 C1164 0.929 . S
H1173 C1181 0.929 . S
H1174 C1183 0.930 . S
H1175 C1185 0.930 . S
H1176 C1188 0.929 . S
H1177 C1191 0.930 . S
H1178 C1193 0.960 . S
H1179 C1193 0.960 . S
H1180 C1193 0.960 . S
C1181 H1173 0.929 . S
C1181 C1182 1.377 . S
C1181 C1183 1.384 . S
C1182 C1181 1.377 . S
C1182 C1188 1.390 . S
C1183 H1174 0.930 . S
C1183 C1181 1.384 . S
C1183 C1184 1.372 . S
C1184 C1183 1.372 . S
C1184 C1185 1.400 . S
C1184 C1189 1.490 . S
C1185 H1175 0.930 . S
C1185 C1184 1.400 . S
C1185 C1188 1.386 . S
H1186 C1202 0.930 . S
H1187 C1203 0.931 . S
C1188 H1176 0.929 . S
C1188 C1182 1.390 . S
C1188 C1185 1.386 . S
C1189 C1184 1.490 . S
C1189 C1191 1.395 . S
C1189 C1192 1.403 . S
H1190 C1196 0.930 . S
C1191 H1177 0.930 . S
C1191 C1189 1.395 . S
C1191 C1194 1.403 . S
C1192 C1189 1.403 . S
C1192 C1193 1.524 . S
C1192 C1196 1.400 . S
C1193 H1178 0.960 . S
C1193 H1179 0.960 . S
C1193 H1180 0.960 . S
C1193 C1192 1.524 . S
C1194 C1191 1.403 . S
C1194 C1195 1.392 . S
C1194 C1198 1.495 . S
C1195 C1194 1.392 . S
C1195 C1196 1.385 . S
C1195 C1197 1.478 . S
C1196 H1190 0.930 . S
C1196 C1192 1.400 . S
C1196 C1195 1.385 . S
C1197 C1195 1.478 . S
C1197 C1199 1.381 . S
C1197 C1203 1.383 . S
C1198 C1194 1.495 . S
C1198 H1204 0.959 . S
C1198 H1205 0.961 . S
C1198 H1206 0.960 . S
C1199 C1197 1.381 . S
C1199 C1200 1.394 . S
C1199 H1207 0.930 . S
C1200 C1199 1.394 . S
C1200 C1201 1.383 . S
C1200 H1208 0.929 . S
C1201 C1200 1.383 . S
C1201 C1202 1.377 . S
C1202 H1186 0.930 . S
C1202 C1201 1.377 . S
C1202 C1203 1.379 . S
C1203 H1187 0.931 . S
C1203 C1197 1.383 . S
C1203 C1202 1.379 . S
H1204 C1198 0.959 . S
H1205 C1198 0.961 . S
H1206 C1198 0.960 . S
H1207 C1199 0.930 . S
H1208 C1200 0.929 . S
H1209 C1217 0.929 . S
H1210 C1219 0.930 . S
H1211 C1221 0.930 . S
H1212 C1224 0.929 . S
H1213 C1227 0.930 . S
H1214 C1229 0.960 . S
H1215 C1229 0.960 . S
H1216 C1229 0.960 . S
C1217 H1209 0.929 . S
C1217 C1218 1.377 . S
C1217 C1219 1.384 . S
C1218 C1217 1.377 . S
C1218 C1224 1.390 . S
C1219 H1210 0.930 . S
C1219 C1217 1.384 . S
C1219 C1220 1.372 . S
C1220 C1219 1.372 . S
C1220 C1221 1.400 . S
C1220 C1225 1.490 . S
C1221 H1211 0.930 . S
C1221 C1220 1.400 . S
C1221 C1224 1.386 . S
H1222 C1238 0.930 . S
H1223 C1239 0.931 . S
C1224 H1212 0.929 . S
C1224 C1218 1.390 . S
C1224 C1221 1.386 . S
C1225 C1220 1.490 . S
C1225 C1227 1.395 . S
C1225 C1228 1.403 . S
H1226 C1232 0.930 . S
C1227 H1213 0.930 . S
C1227 C1225 1.395 . S
C1227 C1230 1.403 . S
C1228 C1225 1.403 . S
C1228 C1229 1.524 . S
C1228 C1232 1.400 . S
C1229 H1214 0.960 . S
C1229 H1215 0.960 . S
C1229 H1216 0.960 . S
C1229 C1228 1.524 . S
C1230 C1227 1.403 . S
C1230 C1231 1.392 . S
C1230 C1234 1.495 . S
C1231 C1230 1.392 . S
C1231 C1232 1.385 . S
C1231 C1233 1.478 . S
C1232 H1226 0.930 . S
C1232 C1228 1.400 . S
C1232 C1231 1.385 . S
C1233 C1231 1.478 . S
C1233 C1235 1.381 . S
C1233 C1239 1.383 . S
C1234 C1230 1.495 . S
C1234 H1240 0.959 . S
C1234 H1241 0.961 . S
C1234 H1242 0.960 . S
C1235 C1233 1.381 . S
C1235 C1236 1.394 . S
C1235 H1243 0.930 . S
C1236 C1235 1.394 . S
C1236 C1237 1.383 . S
C1236 H1244 0.929 . S
C1237 C1236 1.383 . S
C1237 C1238 1.377 . S
C1238 H1222 0.930 . S
C1238 C1237 1.377 . S
C1238 C1239 1.379 . S
C1239 H1223 0.931 . S
C1239 C1233 1.383 . S
C1239 C1238 1.379 . S
H1240 C1234 0.959 . S
H1241 C1234 0.961 . S
H1242 C1234 0.960 . S
H1243 C1235 0.930 . S
H1244 C1236 0.929 . S
H1245 C1253 0.929 . S
H1246 C1255 0.930 . S
H1247 C1257 0.930 . S
H1248 C1260 0.929 . S
H1249 C1263 0.930 . S
H1250 C1265 0.960 . S
H1251 C1265 0.960 . S
H1252 C1265 0.960 . S
C1253 H1245 0.929 . S
C1253 C1254 1.377 . S
C1253 C1255 1.384 . S
C1254 C1253 1.377 . S
C1254 C1260 1.390 . S
C1255 H1246 0.930 . S
C1255 C1253 1.384 . S
C1255 C1256 1.372 . S
C1256 C1255 1.372 . S
C1256 C1257 1.400 . S
C1256 C1261 1.490 . S
C1257 H1247 0.930 . S
C1257 C1256 1.400 . S
C1257 C1260 1.386 . S
H1258 C1274 0.930 . S
H1259 C1275 0.931 . S
C1260 H1248 0.929 . S
C1260 C1254 1.390 . S
C1260 C1257 1.386 . S
C1261 C1256 1.490 . S
C1261 C1263 1.395 . S
C1261 C1264 1.403 . S
H1262 C1268 0.930 . S
C1263 H1249 0.930 . S
C1263 C1261 1.395 . S
C1263 C1266 1.403 . S
C1264 C1261 1.403 . S
C1264 C1265 1.524 . S
C1264 C1268 1.400 . S
C1265 H1250 0.960 . S
C1265 H1251 0.960 . S
C1265 H1252 0.960 . S
C1265 C1264 1.524 . S
C1266 C1263 1.403 . S
C1266 C1267 1.392 . S
C1266 C1270 1.495 . S
C1267 C1266 1.392 . S
C1267 C1268 1.385 . S
C1267 C1269 1.478 . S
C1268 H1262 0.930 . S
C1268 C1264 1.400 . S
C1268 C1267 1.385 . S
C1269 C1267 1.478 . S
C1269 C1271 1.381 . S
C1269 C1275 1.383 . S
C1270 C1266 1.495 . S
C1270 H1276 0.959 . S
C1270 H1277 0.961 . S
C1270 H1278 0.960 . S
C1271 C1269 1.381 . S
C1271 C1272 1.394 . S
C1271 H1279 0.930 . S
C1272 C1271 1.394 . S
C1272 C1273 1.383 . S
C1272 H1280 0.929 . S
C1273 C1272 1.383 . S
C1273 C1274 1.377 . S
C1274 H1258 0.930 . S
C1274 C1273 1.377 . S
C1274 C1275 1.379 . S
C1275 H1259 0.931 . S
C1275 C1269 1.383 . S
C1275 C1274 1.379 . S
H1276 C1270 0.959 . S
H1277 C1270 0.961 . S
H1278 C1270 0.960 . S
H1279 C1271 0.930 . S
H1280 C1272 0.929 . S
H1281 C1289 0.929 . S
H1282 C1291 0.930 . S
H1283 C1293 0.930 . S
H1284 C1296 0.929 . S
H1285 C1299 0.930 . S
H1286 C1301 0.960 . S
H1287 C1301 0.960 . S
H1288 C1301 0.960 . S
C1289 H1281 0.929 . S
C1289 C1290 1.377 . S
C1289 C1291 1.384 . S
C1290 C1289 1.377 . S
C1290 C1296 1.390 . S
C1291 H1282 0.930 . S
C1291 C1289 1.384 . S
C1291 C1292 1.372 . S
C1292 C1291 1.372 . S
C1292 C1293 1.400 . S
C1292 C1297 1.490 . S
C1293 H1283 0.930 . S
C1293 C1292 1.400 . S
C1293 C1296 1.386 . S
H1294 C1310 0.930 . S
H1295 C1311 0.931 . S
C1296 H1284 0.929 . S
C1296 C1290 1.390 . S
C1296 C1293 1.386 . S
C1297 C1292 1.490 . S
C1297 C1299 1.395 . S
C1297 C1300 1.403 . S
H1298 C1304 0.930 . S
C1299 H1285 0.930 . S
C1299 C1297 1.395 . S
C1299 C1302 1.403 . S
C1300 C1297 1.403 . S
C1300 C1301 1.524 . S
C1300 C1304 1.400 . S
C1301 H1286 0.960 . S
C1301 H1287 0.960 . S
C1301 H1288 0.960 . S
C1301 C1300 1.524 . S
C1302 C1299 1.403 . S
C1302 C1303 1.392 . S
C1302 C1306 1.495 . S
C1303 C1302 1.392 . S
C1303 C1304 1.385 . S
C1303 C1305 1.478 . S
C1304 H1298 0.930 . S
C1304 C1300 1.400 . S
C1304 C1303 1.385 . S
C1305 C1303 1.478 . S
C1305 C1307 1.381 . S
C1305 C1311 1.383 . S
C1306 C1302 1.495 . S
C1306 H1312 0.959 . S
C1306 H1313 0.961 . S
C1306 H1314 0.960 . S
C1307 C1305 1.381 . S
C1307 C1308 1.394 . S
C1307 H1315 0.930 . S
C1308 C1307 1.394 . S
C1308 C1309 1.383 . S
C1308 H1316 0.929 . S
C1309 C1308 1.383 . S
C1309 C1310 1.377 . S
C1310 H1294 0.930 . S
C1310 C1309 1.377 . S
C1310 C1311 1.379 . S
C1311 H1295 0.931 . S
C1311 C1305 1.383 . S
C1311 C1310 1.379 . S
H1312 C1306 0.959 . S
H1313 C1306 0.961 . S
H1314 C1306 0.960 . S
H1315 C1307 0.930 . S
H1316 C1308 0.929 . S
H1317 C1325 0.929 . S
H1318 C1327 0.930 . S
H1319 C1329 0.930 . S
H1320 C1332 0.929 . S
H1321 C1335 0.930 . S
H1322 C1337 0.960 . S
H1323 C1337 0.960 . S
H1324 C1337 0.960 . S
C1325 H1317 0.929 . S
C1325 C1326 1.377 . S
C1325 C1327 1.384 . S
C1326 C1325 1.377 . S
C1326 C1332 1.390 . S
C1327 H1318 0.930 . S
C1327 C1325 1.384 . S
C1327 C1328 1.372 . S
C1328 C1327 1.372 . S
C1328 C1329 1.400 . S
C1328 C1333 1.490 . S
C1329 H1319 0.930 . S
C1329 C1328 1.400 . S
C1329 C1332 1.386 . S
H1330 C1346 0.930 . S
H1331 C1347 0.931 . S
C1332 H1320 0.929 . S
C1332 C1326 1.390 . S
C1332 C1329 1.386 . S
C1333 C1328 1.490 . S
C1333 C1335 1.395 . S
C1333 C1336 1.403 . S
H1334 C1340 0.930 . S
C1335 H1321 0.930 . S
C1335 C1333 1.395 . S
C1335 C1338 1.403 . S
C1336 C1333 1.403 . S
C1336 C1337 1.524 . S
C1336 C1340 1.400 . S
C1337 H1322 0.960 . S
C1337 H1323 0.960 . S
C1337 H1324 0.960 . S
C1337 C1336 1.524 . S
C1338 C1335 1.403 . S
C1338 C1339 1.392 . S
C1338 C1342 1.495 . S
C1339 C1338 1.392 . S
C1339 C1340 1.385 . S
C1339 C1341 1.478 . S
C1340 H1334 0.930 . S
C1340 C1336 1.400 . S
C1340 C1339 1.385 . S
C1341 C1339 1.478 . S
C1341 C1343 1.381 . S
C1341 C1347 1.383 . S
C1342 C1338 1.495 . S
C1342 H1348 0.959 . S
C1342 H1349 0.961 . S
C1342 H1350 0.960 . S
C1343 C1341 1.381 . S
C1343 C1344 1.394 . S
C1343 H1351 0.930 . S
C1344 C1343 1.394 . S
C1344 C1345 1.383 . S
C1344 H1352 0.929 . S
C1345 C1344 1.383 . S
C1345 C1346 1.377 . S
C1346 H1330 0.930 . S
C1346 C1345 1.377 . S
C1346 C1347 1.379 . S
C1347 H1331 0.931 . S
C1347 C1341 1.383 . S
C1347 C1346 1.379 . S
H1348 C1342 0.959 . S
H1349 C1342 0.961 . S
H1350 C1342 0.960 . S
H1351 C1343 0.930 . S
H1352 C1344 0.929 . S
H1353 C1361 0.929 . S
H1354 C1363 0.930 . S
H1355 C1365 0.930 . S
H1356 C1368 0.929 . S
H1357 C1371 0.930 . S
H1358 C1373 0.960 . S
H1359 C1373 0.960 . S
H1360 C1373 0.960 . S
C1361 H1353 0.929 . S
C1361 C1362 1.377 . S
C1361 C1363 1.384 . S
C1362 C1361 1.377 . S
C1362 C1368 1.390 . S
C1363 H1354 0.930 . S
C1363 C1361 1.384 . S
C1363 C1364 1.372 . S
C1364 C1363 1.372 . S
C1364 C1365 1.400 . S
C1364 C1369 1.490 . S
C1365 H1355 0.930 . S
C1365 C1364 1.400 . S
C1365 C1368 1.386 . S
H1366 C1382 0.930 . S
H1367 C1383 0.931 . S
C1368 H1356 0.929 . S
C1368 C1362 1.390 . S
C1368 C1365 1.386 . S
C1369 C1364 1.490 . S
C1369 C1371 1.395 . S
C1369 C1372 1.403 . S
H1370 C1376 0.930 . S
C1371 H1357 0.930 . S
C1371 C1369 1.395 . S
C1371 C1374 1.403 . S
C1372 C1369 1.403 . S
C1372 C1373 1.524 . S
C1372 C1376 1.400 . S
C1373 H1358 0.960 . S
C1373 H1359 0.960 . S
C1373 H1360 0.960 . S
C1373 C1372 1.524 . S
C1374 C1371 1.403 . S
C1374 C1375 1.392 . S
C1374 C1378 1.495 . S
C1375 C1374 1.392 . S
C1375 C1376 1.385 . S
C1375 C1377 1.478 . S
C1376 H1370 0.930 . S
C1376 C1372 1.400 . S
C1376 C1375 1.385 . S
C1377 C1375 1.478 . S
C1377 C1379 1.381 . S
C1377 C1383 1.383 . S
C1378 C1374 1.495 . S
C1378 H1384 0.959 . S
C1378 H1385 0.961 . S
C1378 H1386 0.960 . S
C1379 C1377 1.381 . S
C1379 C1380 1.394 . S
C1379 H1387 0.930 . S
C1380 C1379 1.394 . S
C1380 C1381 1.383 . S
C1380 H1388 0.929 . S
C1381 C1380 1.383 . S
C1381 C1382 1.377 . S
C1382 H1366 0.930 . S
C1382 C1381 1.377 . S
C1382 C1383 1.379 . S
C1383 H1367 0.931 . S
C1383 C1377 1.383 . S
C1383 C1382 1.379 . S
H1384 C1378 0.959 . S
H1385 C1378 0.961 . S
H1386 C1378 0.960 . S
H1387 C1379 0.930 . S
H1388 C1380 0.929 . S
H1389 C1397 0.929 . S
H1390 C1399 0.930 . S
H1391 C1401 0.930 . S
H1392 C1404 0.929 . S
H1393 C1407 0.930 . S
H1394 C1409 0.960 . S
H1395 C1409 0.960 . S
H1396 C1409 0.960 . S
C1397 H1389 0.929 . S
C1397 C1398 1.377 . S
C1397 C1399 1.384 . S
C1398 C1397 1.377 . S
C1398 C1404 1.390 . S
C1399 H1390 0.930 . S
C1399 C1397 1.384 . S
C1399 C1400 1.372 . S
C1400 C1399 1.372 . S
C1400 C1401 1.400 . S
C1400 C1405 1.490 . S
C1401 H1391 0.930 . S
C1401 C1400 1.400 . S
C1401 C1404 1.386 . S
H1402 C1418 0.930 . S
H1403 C1419 0.931 . S
C1404 H1392 0.929 . S
C1404 C1398 1.390 . S
C1404 C1401 1.386 . S
C1405 C1400 1.490 . S
C1405 C1407 1.395 . S
C1405 C1408 1.403 . S
H1406 C1412 0.930 . S
C1407 H1393 0.930 . S
C1407 C1405 1.395 . S
C1407 C1410 1.403 . S
C1408 C1405 1.403 . S
C1408 C1409 1.524 . S
C1408 C1412 1.400 . S
C1409 H1394 0.960 . S
C1409 H1395 0.960 . S
C1409 H1396 0.960 . S
C1409 C1408 1.524 . S
C1410 C1407 1.403 . S
C1410 C1411 1.392 . S
C1410 C1414 1.495 . S
C1411 C1410 1.392 . S
C1411 C1412 1.385 . S
C1411 C1413 1.478 . S
C1412 H1406 0.930 . S
C1412 C1408 1.400 . S
C1412 C1411 1.385 . S
C1413 C1411 1.478 . S
C1413 C1415 1.381 . S
C1413 C1419 1.383 . S
C1414 C1410 1.495 . S
C1414 H1420 0.959 . S
C1414 H1421 0.961 . S
C1414 H1422 0.960 . S
C1415 C1413 1.381 . S
C1415 C1416 1.394 . S
C1415 H1423 0.930 . S
C1416 C1415 1.394 . S
C1416 C1417 1.383 . S
C1416 H1424 0.929 . S
C1417 C1416 1.383 . S
C1417 C1418 1.377 . S
C1418 H1402 0.930 . S
C1418 C1417 1.377 . S
C1418 C1419 1.379 . S
C1419 H1403 0.931 . S
C1419 C1413 1.383 . S
C1419 C1418 1.379 . S
H1420 C1414 0.959 . S
H1421 C1414 0.961 . S
H1422 C1414 0.960 . S
H1423 C1415 0.930 . S
H1424 C1416 0.929 . S
H1425 C1433 0.929 . S
H1426 C1435 0.930 . S
H1427 C1437 0.930 . S
H1428 C1440 0.929 . S
H1429 C1443 0.930 . S
H1430 C1445 0.960 . S
H1431 C1445 0.960 . S
H1432 C1445 0.960 . S
C1433 H1425 0.929 . S
C1433 C1434 1.377 . S
C1433 C1435 1.384 . S
C1434 C1433 1.377 . S
C1434 C1440 1.390 . S
C1435 H1426 0.930 . S
C1435 C1433 1.384 . S
C1435 C1436 1.372 . S
C1436 C1435 1.372 . S
C1436 C1437 1.400 . S
C1436 C1441 1.490 . S
C1437 H1427 0.930 . S
C1437 C1436 1.400 . S
C1437 C1440 1.386 . S
H1438 C1454 0.930 . S
H1439 C1455 0.931 . S
C1440 H1428 0.929 . S
C1440 C1434 1.390 . S
C1440 C1437 1.386 . S
C1441 C1436 1.490 . S
C1441 C1443 1.395 . S
C1441 C1444 1.403 . S
H1442 C1448 0.930 . S
C1443 H1429 0.930 . S
C1443 C1441 1.395 . S
C1443 C1446 1.403 . S
C1444 C1441 1.403 . S
C1444 C1445 1.524 . S
C1444 C1448 1.400 . S
C1445 H1430 0.960 . S
C1445 H1431 0.960 . S
C1445 H1432 0.960 . S
C1445 C1444 1.524 . S
C1446 C1443 1.403 . S
C1446 C1447 1.392 . S
C1446 C1450 1.495 . S
C1447 C1446 1.392 . S
C1447 C1448 1.385 . S
C1447 C1449 1.478 . S
C1448 H1442 0.930 . S
C1448 C1444 1.400 . S
C1448 C1447 1.385 . S
C1449 C1447 1.478 . S
C1449 C1451 1.381 . S
C1449 C1455 1.383 . S
C1450 C1446 1.495 . S
C1450 H1456 0.959 . S
C1450 H1457 0.961 . S
C1450 H1458 0.960 . S
C1451 C1449 1.381 . S
C1451 C1452 1.394 . S
C1451 H1459 0.930 . S
C1452 C1451 1.394 . S
C1452 C1453 1.383 . S
C1452 H1460 0.929 . S
C1453 C1452 1.383 . S
C1453 C1454 1.377 . S
C1454 H1438 0.930 . S
C1454 C1453 1.377 . S
C1454 C1455 1.379 . S
C1455 H1439 0.931 . S
C1455 C1449 1.383 . S
C1455 C1454 1.379 . S
H1456 C1450 0.959 . S
H1457 C1450 0.961 . S
H1458 C1450 0.960 . S
H1459 C1451 0.930 . S
H1460 C1452 0.929 . S
H1461 C1469 0.929 . S
H1462 C1471 0.930 . S
H1463 C1473 0.930 . S
H1464 C1476 0.929 . S
H1465 C1479 0.930 . S
H1466 C1481 0.960 . S
H1467 C1481 0.960 . S
H1468 C1481 0.960 . S
C1469 H1461 0.929 . S
C1469 C1470 1.377 . S
C1469 C1471 1.384 . S
C1470 C1469 1.377 . S
C1470 C1476 1.390 . S
C1471 H1462 0.930 . S
C1471 C1469 1.384 . S
C1471 C1472 1.372 . S
C1472 C1471 1.372 . S
C1472 C1473 1.400 . S
C1472 C1477 1.490 . S
C1473 H1463 0.930 . S
C1473 C1472 1.400 . S
C1473 C1476 1.386 . S
H1474 C1490 0.930 . S
H1475 C1491 0.931 . S
C1476 H1464 0.929 . S
C1476 C1470 1.390 . S
C1476 C1473 1.386 . S
C1477 C1472 1.490 . S
C1477 C1479 1.395 . S
C1477 C1480 1.403 . S
H1478 C1484 0.930 . S
C1479 H1465 0.930 . S
C1479 C1477 1.395 . S
C1479 C1482 1.403 . S
C1480 C1477 1.403 . S
C1480 C1481 1.524 . S
C1480 C1484 1.400 . S
C1481 H1466 0.960 . S
C1481 H1467 0.960 . S
C1481 H1468 0.960 . S
C1481 C1480 1.524 . S
C1482 C1479 1.403 . S
C1482 C1483 1.392 . S
C1482 C1486 1.495 . S
C1483 C1482 1.392 . S
C1483 C1484 1.385 . S
C1483 C1485 1.478 . S
C1484 H1478 0.930 . S
C1484 C1480 1.400 . S
C1484 C1483 1.385 . S
C1485 C1483 1.478 . S
C1485 C1487 1.381 . S
C1485 C1491 1.383 . S
C1486 C1482 1.495 . S
C1486 H1492 0.959 . S
C1486 H1493 0.961 . S
C1486 H1494 0.960 . S
C1487 C1485 1.381 . S
C1487 C1488 1.394 . S
C1487 H1495 0.930 . S
C1488 C1487 1.394 . S
C1488 C1489 1.383 . S
C1488 H1496 0.929 . S
C1489 C1488 1.383 . S
C1489 C1490 1.377 . S
C1490 H1474 0.930 . S
C1490 C1489 1.377 . S
C1490 C1491 1.379 . S
C1491 H1475 0.931 . S
C1491 C1485 1.383 . S
C1491 C1490 1.379 . S
H1492 C1486 0.959 . S
H1493 C1486 0.961 . S
H1494 C1486 0.960 . S
H1495 C1487 0.930 . S
H1496 C1488 0.929 . S
H1497 C1505 0.929 . S
H1498 C1507 0.930 . S
H1499 C1509 0.930 . S
H1500 C1512 0.929 . S
H1501 C1515 0.930 . S
H1502 C1517 0.960 . S
H1503 C1517 0.960 . S
H1504 C1517 0.960 . S
C1505 H1497 0.929 . S
C1505 C1506 1.377 . S
C1505 C1507 1.384 . S
C1506 C1505 1.377 . S
C1506 C1512 1.390 . S
C1507 H1498 0.930 . S
C1507 C1505 1.384 . S
C1507 C1508 1.372 . S
C1508 C1507 1.372 . S
C1508 C1509 1.400 . S
C1508 C1513 1.490 . S
C1509 H1499 0.930 . S
C1509 C1508 1.400 . S
C1509 C1512 1.386 . S
H1510 C1526 0.930 . S
H1511 C1527 0.931 . S
C1512 H1500 0.929 . S
C1512 C1506 1.390 . S
C1512 C1509 1.386 . S
C1513 C1508 1.490 . S
C1513 C1515 1.395 . S
C1513 C1516 1.403 . S
H1514 C1520 0.930 . S
C1515 H1501 0.930 . S
C1515 C1513 1.395 . S
C1515 C1518 1.403 . S
C1516 C1513 1.403 . S
C1516 C1517 1.524 . S
C1516 C1520 1.400 . S
C1517 H1502 0.960 . S
C1517 H1503 0.960 . S
C1517 H1504 0.960 . S
C1517 C1516 1.524 . S
C1518 C1515 1.403 . S
C1518 C1519 1.392 . S
C1518 C1522 1.495 . S
C1519 C1518 1.392 . S
C1519 C1520 1.385 . S
C1519 C1521 1.478 . S
C1520 H1514 0.930 . S
C1520 C1516 1.400 . S
C1520 C1519 1.385 . S
C1521 C1519 1.478 . S
C1521 C1523 1.381 . S
C1521 C1527 1.383 . S
C1522 C1518 1.495 . S
C1522 H1528 0.959 . S
C1522 H1529 0.961 . S
C1522 H1530 0.960 . S
C1523 C1521 1.381 . S
C1523 C1524 1.394 . S
C1523 H1531 0.930 . S
C1524 C1523 1.394 . S
C1524 C1525 1.383 . S
C1524 H1532 0.929 . S
C1525 C1524 1.383 . S
C1525 C1526 1.377 . S
C1526 H1510 0.930 . S
C1526 C1525 1.377 . S
C1526 C1527 1.379 . S
C1527 H1511 0.931 . S
C1527 C1521 1.383 . S
C1527 C1526 1.379 . S
H1528 C1522 0.959 . S
H1529 C1522 0.961 . S
H1530 C1522 0.960 . S
H1531 C1523 0.930 . S
H1532 C1524 0.929 . S
H1533 C1541 0.929 . S
H1534 C1543 0.930 . S
H1535 C1545 0.930 . S
H1536 C1548 0.929 . S
H1537 C1551 0.930 . S
H1538 C1553 0.960 . S
H1539 C1553 0.960 . S
H1540 C1553 0.960 . S
C1541 H1533 0.929 . S
C1541 C1542 1.377 . S
C1541 C1543 1.384 . S
C1542 C1541 1.377 . S
C1542 C1548 1.390 . S
C1543 H1534 0.930 . S
C1543 C1541 1.384 . S
C1543 C1544 1.372 . S
C1544 C1543 1.372 . S
C1544 C1545 1.400 . S
C1544 C1549 1.490 . S
C1545 H1535 0.930 . S
C1545 C1544 1.400 . S
C1545 C1548 1.386 . S
H1546 C1562 0.930 . S
H1547 C1563 0.931 . S
C1548 H1536 0.929 . S
C1548 C1542 1.390 . S
C1548 C1545 1.386 . S
C1549 C1544 1.490 . S
C1549 C1551 1.395 . S
C1549 C1552 1.403 . S
H1550 C1556 0.930 . S
C1551 H1537 0.930 . S
C1551 C1549 1.395 . S
C1551 C1554 1.403 . S
C1552 C1549 1.403 . S
C1552 C1553 1.524 . S
C1552 C1556 1.400 . S
C1553 H1538 0.960 . S
C1553 H1539 0.960 . S
C1553 H1540 0.960 . S
C1553 C1552 1.524 . S
C1554 C1551 1.403 . S
C1554 C1555 1.392 . S
C1554 C1558 1.495 . S
C1555 C1554 1.392 . S
C1555 C1556 1.385 . S
C1555 C1557 1.478 . S
C1556 H1550 0.930 . S
C1556 C1552 1.400 . S
C1556 C1555 1.385 . S
C1557 C1555 1.478 . S
C1557 C1559 1.381 . S
C1557 C1563 1.383 . S
C1558 C1554 1.495 . S
C1558 H1564 0.959 . S
C1558 H1565 0.961 . S
C1558 H1566 0.960 . S
C1559 C1557 1.381 . S
C1559 C1560 1.394 . S
C1559 H1567 0.930 . S
C1560 C1559 1.394 . S
C1560 C1561 1.383 . S
C1560 H1568 0.929 . S
C1561 C1560 1.383 . S
C1561 C1562 1.377 . S
C1562 H1546 0.930 . S
C1562 C1561 1.377 . S
C1562 C1563 1.379 . S
C1563 H1547 0.931 . S
C1563 C1557 1.383 . S
C1563 C1562 1.379 . S
H1564 C1558 0.959 . S
H1565 C1558 0.961 . S
H1566 C1558 0.960 . S
H1567 C1559 0.930 . S
H1568 C1560 0.929 . S
H1569 C1577 0.929 . S
H1570 C1579 0.930 . S
H1571 C1581 0.930 . S
H1572 C1584 0.929 . S
H1573 C1587 0.930 . S
H1574 C1589 0.960 . S
H1575 C1589 0.960 . S
H1576 C1589 0.960 . S
C1577 H1569 0.929 . S
C1577 C1578 1.377 . S
C1577 C1579 1.384 . S
C1578 C1577 1.377 . S
C1578 C1584 1.390 . S
C1579 H1570 0.930 . S
C1579 C1577 1.384 . S
C1579 C1580 1.372 . S
C1580 C1579 1.372 . S
C1580 C1581 1.400 . S
C1580 C1585 1.490 . S
C1581 H1571 0.930 . S
C1581 C1580 1.400 . S
C1581 C1584 1.386 . S
H1582 C1598 0.930 . S
H1583 C1599 0.931 . S
C1584 H1572 0.929 . S
C1584 C1578 1.390 . S
C1584 C1581 1.386 . S
C1585 C1580 1.490 . S
C1585 C1587 1.395 . S
C1585 C1588 1.403 . S
H1586 C1592 0.930 . S
C1587 H1573 0.930 . S
C1587 C1585 1.395 . S
C1587 C1590 1.403 . S
C1588 C1585 1.403 . S
C1588 C1589 1.524 . S
C1588 C1592 1.400 . S
C1589 H1574 0.960 . S
C1589 H1575 0.960 . S
C1589 H1576 0.960 . S
C1589 C1588 1.524 . S
C1590 C1587 1.403 . S
C1590 C1591 1.392 . S
C1590 C1594 1.495 . S
C1591 C1590 1.392 . S
C1591 C1592 1.385 . S
C1591 C1593 1.478 . S
C1592 H1586 0.930 . S
C1592 C1588 1.400 . S
C1592 C1591 1.385 . S
C1593 C1591 1.478 . S
C1593 C1595 1.381 . S
C1593 C1599 1.383 . S
C1594 C1590 1.495 . S
C1594 H1600 0.959 . S
C1594 H1601 0.961 . S
C1594 H1602 0.960 . S
C1595 C1593 1.381 . S
C1595 C1596 1.394 . S
C1595 H1603 0.930 . S
C1596 C1595 1.394 . S
C1596 C1597 1.383 . S
C1596 H1604 0.929 . S
C1597 C1596 1.383 . S
C1597 C1598 1.377 . S
C1598 H1582 0.930 . S
C1598 C1597 1.377 . S
C1598 C1599 1.379 . S
C1599 H1583 0.931 . S
C1599 C1593 1.383 . S
C1599 C1598 1.379 . S
H1600 C1594 0.959 . S
H1601 C1594 0.961 . S
H1602 C1594 0.960 . S
H1603 C1595 0.930 . S
H1604 C1596 0.929 . S
H1605 C1613 0.929 . S
H1606 C1615 0.930 . S
H1607 C1617 0.930 . S
H1608 C1620 0.929 . S
H1609 C1623 0.930 . S
H1610 C1625 0.960 . S
H1611 C1625 0.960 . S
H1612 C1625 0.960 . S
C1613 H1605 0.929 . S
C1613 C1614 1.377 . S
C1613 C1615 1.384 . S
C1614 C1613 1.377 . S
C1614 C1620 1.390 . S
C1615 H1606 0.930 . S
C1615 C1613 1.384 . S
C1615 C1616 1.372 . S
C1616 C1615 1.372 . S
C1616 C1617 1.400 . S
C1616 C1621 1.490 . S
C1617 H1607 0.930 . S
C1617 C1616 1.400 . S
C1617 C1620 1.386 . S
H1618 C1634 0.930 . S
H1619 C1635 0.931 . S
C1620 H1608 0.929 . S
C1620 C1614 1.390 . S
C1620 C1617 1.386 . S
C1621 C1616 1.490 . S
C1621 C1623 1.395 . S
C1621 C1624 1.403 . S
H1622 C1628 0.930 . S
C1623 H1609 0.930 . S
C1623 C1621 1.395 . S
C1623 C1626 1.403 . S
C1624 C1621 1.403 . S
C1624 C1625 1.524 . S
C1624 C1628 1.400 . S
C1625 H1610 0.960 . S
C1625 H1611 0.960 . S
C1625 H1612 0.960 . S
C1625 C1624 1.524 . S
C1626 C1623 1.403 . S
C1626 C1627 1.392 . S
C1626 C1630 1.495 . S
C1627 C1626 1.392 . S
C1627 C1628 1.385 . S
C1627 C1629 1.478 . S
C1628 H1622 0.930 . S
C1628 C1624 1.400 . S
C1628 C1627 1.385 . S
C1629 C1627 1.478 . S
C1629 C1631 1.381 . S
C1629 C1635 1.383 . S
C1630 C1626 1.495 . S
C1630 H1636 0.959 . S
C1630 H1637 0.961 . S
C1630 H1638 0.960 . S
C1631 C1629 1.381 . S
C1631 C1632 1.394 . S
C1631 H1639 0.930 . S
C1632 C1631 1.394 . S
C1632 C1633 1.383 . S
C1632 H1640 0.929 . S
C1633 C1632 1.383 . S
C1633 C1634 1.377 . S
C1634 H1618 0.930 . S
C1634 C1633 1.377 . S
C1634 C1635 1.379 . S
C1635 H1619 0.931 . S
C1635 C1629 1.383 . S
C1635 C1634 1.379 . S
H1636 C1630 0.959 . S
H1637 C1630 0.961 . S
H1638 C1630 0.960 . S
H1639 C1631 0.930 . S
H1640 C1632 0.929 . S
C786 C11 1.481 . S
C805 C695 1.913 . S
C822 C125 1.241 . S
C841 C742 1.698 . S
C877 C746 2.031 . S
C858 C239 1.450 . S
C913 C711 1.429 . S
C894 C343 1.238 . S
C930 C485 1.395 . S
C949 C726 1.779 . S
C985 C748 0.689 . S
C966 C571 0.696 . S
C1021 C717 1.262 . S
C1002 C257 0.950 . S
C1038 C397 0.924 . S
C1057 C757 1.455 . S
C1093 C686 1.302 . S
C1074 C467 0.975 . S
C1110 C625 1.137 1_556 S
C1129 C715 1.586 . S
C1146 C29 1.683 . S
C1165 C773 2.090 . S
C1201 C684 1.579 . S
C1182 C143 1.193 . S
C1237 C702 1.766 . S
C1218 C371 1.576 . S
C1273 C716 1.473 . S
C1254 C457 1.168 . S
C1309 C770 1.860 . S
C1290 C599 1.667 1_556 S
C1345 C685 1.631 . S
C1326 C55 1.327 . S
C1381 C733 1.792 . S
C1362 C169 1.529 . S
C1398 C283 0.737 . S
C1417 C756 0.837 . S
C1453 C725 1.249 . S
C1434 C581 0.825 . S
C1489 C764 1.140 . S
C1470 C1 0.923 . S
C1525 C694 1.043 . S
C1506 C115 0.859 . S
C1561 C739 1.253 . S
C1542 C229 0.984 . S
C1578 C353 1.311 . S
C1597 C747 2.055 . S
C1614 C511 1.262 . S
C1633 C708 1.586 . S
