# Generated by pormake.
# Topology anh, (6,3)-cn, num edge types: 1
# Building blocks:
#     Node 0, Type 0, BuildingBlock: HISSIN_clean_sbu_0, # of connection points: 6
#     Node 1, Type 0, BuildingBlock: HISSIN_clean_sbu_0, # of connection points: 6
#     Node 2, Type 0, BuildingBlock: HISSIN_clean_sbu_0, # of connection points: 6
#     Node 3, Type 1, BuildingBlock: KAKCAD_clean_linker_0, # of connection points: 3
#     Node 4, Type 1, BuildingBlock: KAKCAD_clean_linker_0, # of connection points: 3
#     Node 5, Type 1, BuildingBlock: KAKCAD_clean_linker_0, # of connection points: 3
#     Node 6, Type 1, BuildingBlock: KAKCAD_clean_linker_0, # of connection points: 3
#     Node 7, Type 1, BuildingBlock: KAKCAD_clean_linker_0, # of connection points: 3
#     Node 8, Type 1, BuildingBlock: KAKCAD_clean_linker_0, # of connection points: 3
#     Edge 9, Type (0, 1), BuildingBlock: OJICUG_clean_linker_0, # of connection points: 2
#     Edge 10, Type (0, 1), BuildingBlock: OJICUG_clean_linker_0, # of connection points: 2
#     Edge 11, Type (0, 1), BuildingBlock: OJICUG_clean_linker_0, # of connection points: 2
#     Edge 12, Type (0, 1), BuildingBlock: OJICUG_clean_linker_0, # of connection points: 2
#     Edge 13, Type (0, 1), BuildingBlock: OJICUG_clean_linker_0, # of connection points: 2
#     Edge 14, Type (0, 1), BuildingBlock: OJICUG_clean_linker_0, # of connection points: 2
#     Edge 15, Type (0, 1), BuildingBlock: OJICUG_clean_linker_0, # of connection points: 2
#     Edge 16, Type (0, 1), BuildingBlock: OJICUG_clean_linker_0, # of connection points: 2
#     Edge 17, Type (0, 1), BuildingBlock: OJICUG_clean_linker_0, # of connection points: 2
#     Edge 18, Type (0, 1), BuildingBlock: OJICUG_clean_linker_0, # of connection points: 2
#     Edge 19, Type (0, 1), BuildingBlock: OJICUG_clean_linker_0, # of connection points: 2
#     Edge 20, Type (0, 1), BuildingBlock: OJICUG_clean_linker_0, # of connection points: 2
#     Edge 21, Type (0, 1), BuildingBlock: OJICUG_clean_linker_0, # of connection points: 2
#     Edge 22, Type (0, 1), BuildingBlock: OJICUG_clean_linker_0, # of connection points: 2
#     Edge 23, Type (0, 1), BuildingBlock: OJICUG_clean_linker_0, # of connection points: 2
#     Edge 24, Type (0, 1), BuildingBlock: OJICUG_clean_linker_0, # of connection points: 2
#     Edge 25, Type (0, 1), BuildingBlock: OJICUG_clean_linker_0, # of connection points: 2
#     Edge 26, Type (0, 1), BuildingBlock: OJICUG_clean_linker_0, # of connection points: 2
# Relax obj value: 0.298
# Max RMSD: 0.196
# Mean RMSD: 0.163
data_MOF--net-anh--node1-HISSIN_clean_sbu_0--node2-KAKCAD_clean_linker_0--edge1-OJICUG_clean_linker_0
_symmetry_space_group_name_H-M    P1
_symmetry_Int_Tables_number       1
_symmetry_cell_setting            triclinic
loop_
_symmetry_equiv_pos_as_xyz
'x, y, z'
_cell_length_a     27.916582
_cell_length_b     27.886487
_cell_length_c     52.930695
_cell_angle_alpha  91.107043
_cell_angle_beta   90.28786
_cell_angle_gamma 119.75537
loop_
_atom_site_label
_atom_site_type_symbol
_atom_site_fract_x
_atom_site_fract_y
_atom_site_fract_z
_atom_type_partial_charge
Eu0 Eu 1.09248 0.49288 0.15758 0.0
Eu1 Eu 0.16884 0.62427 0.16653 0.0
C2 C 1.11975 0.54601 0.21433 0.0
C3 C 0.96672 0.3752 0.13453 0.0
C4 C 0.92043 0.33154 0.14553 0.0
C5 C 0.90924 0.41182 0.11929 0.0
C6 C 0.86959 0.32999 0.14468 0.0
C7 C 0.95977 0.41306 0.11991 0.0
C8 C 0.86492 0.3724 0.13302 0.0
C9 C 1.02213 0.39168 0.14464 0.0
O10 O 0.23122 0.59462 0.17032 0.0
O11 O 0.17958 0.50497 0.15517 0.0
C12 C 0.22748 0.54763 0.16246 0.0
O13 O 1.09679 0.53935 0.12215 0.0
O14 O 0.22914 0.69981 0.18623 0.0
O15 O 0.19293 0.70422 0.15048 0.0
O16 O 0.1862 0.59935 0.12891 0.0
C17 C 0.14494 0.57411 0.11316 0.0
O18 O 1.02972 0.52045 0.16498 0.0
O19 O 1.08361 0.6118 0.15594 0.0
O20 O 1.13374 0.59427 0.20481 0.0
O21 O 1.06353 0.42355 0.13042 0.0
O22 O 1.02991 0.40991 0.16804 0.0
O23 O 1.11024 0.50307 0.19986 0.0
C24 C 0.28667 0.76614 0.15727 0.0
C25 C 0.32384 0.74635 0.15426 0.0
C26 C 0.35496 0.8545 0.14148 0.0
C27 C 0.37725 0.78134 0.14596 0.0
C28 C 0.30182 0.81967 0.15003 0.0
C29 C 0.39377 0.83627 0.1402 0.0
C30 C 0.23179 0.73079 0.16745 0.0
C31 C 1.03476 0.56854 0.15975 0.0
H32 H 0.92492 0.30237 0.15713 0.0
H33 H 0.90628 0.44465 0.11012 0.0
H34 H 0.83587 0.2994 0.15558 0.0
H35 H 0.99474 0.44745 0.1113 0.0
H36 H 0.31213 0.70447 0.15915 0.0
H37 H 0.36677 0.89694 0.13761 0.0
H38 H 0.4064 0.76639 0.1452 0.0
H39 H 0.2732 0.83513 0.15181 0.0
Eu40 Eu 0.62203 1.01346 0.48989 0.0
Eu41 Eu 0.5558 1.08086 0.502 0.0
C42 C 0.60152 1.03909 0.54763 0.0
C43 C 0.73269 0.97258 0.48862 0.0
C44 C 0.74698 0.98022 0.51443 0.0
C45 C 0.81962 0.97636 0.47936 0.0
C46 C 0.79619 0.98384 0.52271 0.0
C47 C 0.76995 0.97209 0.4711 0.0
C48 C 0.8326 0.9806 0.50534 0.0
C49 C 0.67915 0.96482 0.47981 0.0
O50 O 0.64589 0.15043 0.50266 0.0
O51 O 0.69027 0.10322 0.49013 0.0
C52 C 0.69114 0.14976 0.49604 0.0
O53 O 0.58644 1.02199 0.45288 0.0
O54 O 0.53725 0.13477 0.52527 0.0
O55 O 0.49388 0.10165 0.48948 0.0
O56 O 0.59189 0.10367 0.46367 0.0
C57 C 0.58967 1.06862 0.44641 0.0
O58 O 0.53344 0.9446 0.49378 0.0
O59 O 0.48735 0.99347 0.49107 0.0
O60 O 0.5623 1.04827 0.5396 0.0
O61 O 0.63963 0.94684 0.49628 0.0
O62 O 0.68104 1.00422 0.46625 0.0
O63 O 0.63436 1.03256 0.53196 0.0
C64 C 0.52771 0.196 0.49914 0.0
C65 C 0.55885 0.21387 0.47703 0.0
C66 C 0.56021 0.29144 0.51157 0.0
C67 C 0.59245 0.27008 0.47283 0.0
C68 C 0.52663 0.23507 0.51578 0.0
C69 C 0.59556 0.30934 0.49073 0.0
C70 C 0.50729 0.1392 0.50742 0.0
C71 C 0.48722 0.94607 0.49129 0.0
H72 H 0.71936 0.98172 0.52833 0.0
H73 H 0.84703 0.97464 0.46543 0.0
H74 H 0.80406 0.9862 0.54287 0.0
H75 H 0.76008 0.96722 0.45106 0.0
H76 H 0.56059 0.18453 0.46392 0.0
H77 H 0.56207 0.32072 0.52583 0.0
H78 H 0.61883 0.28272 0.45651 0.0
H79 H 0.50338 0.22214 0.53306 0.0
Eu80 Eu 0.58203 0.51148 0.82415 0.0
Eu81 Eu 0.71406 0.57956 0.8349 0.0
C82 C 0.63276 0.53479 0.88053 0.0
C83 C 0.44525 0.49612 0.82571 0.0
C84 C 0.46404 0.53119 0.84724 0.0
C85 C 0.3848 0.53275 0.8153 0.0
C86 C 0.44471 0.56762 0.85236 0.0
C87 C 0.40465 0.49628 0.81001 0.0
C88 C 0.4062 0.56997 0.83607 0.0
C89 C 0.47647 0.46912 0.81736 0.0
O90 O 0.69581 0.4928 0.82293 0.0
O91 O 0.60184 0.44223 0.82788 0.0
C92 C 0.64972 0.44479 0.82421 0.0
O93 O 0.62425 0.51666 0.7869 0.0
O94 O 0.79665 0.60519 0.82107 0.0
O95 O 0.78578 0.62965 0.85898 0.0
O96 O 0.69741 0.60081 0.79674 0.0
C97 C 0.66633 0.5634 0.77985 0.0
O98 O 0.60406 0.60113 0.82113 0.0
O99 O 0.69033 0.64677 0.83967 0.0
O100 O 0.67636 0.53635 0.87073 0.0
O101 O 0.51205 0.49552 0.79982 0.0
O102 O 0.49771 0.45351 0.83532 0.0
O103 O 0.59589 0.537 0.86583 0.0
C104 C 0.86494 0.69231 0.83704 0.0
C105 C 0.85599 0.73753 0.83937 0.0
C106 C 0.96243 0.75512 0.83195 0.0
C107 C 0.90066 0.79151 0.8391 0.0
C108 C 0.91794 0.70144 0.83231 0.0
C109 C 0.95473 0.80084 0.83643 0.0
C110 C 0.82061 0.63571 0.84124 0.0
C111 C 0.64651 0.64683 0.8302 0.0
H112 H 0.49598 0.53269 0.85948 0.0
H113 H 0.35494 0.5338 0.80251 0.0
H114 H 0.46117 0.59521 0.86875 0.0
H115 H 0.39044 0.47035 0.79304 0.0
H116 H 0.81496 0.73113 0.84262 0.0
H117 H 1.00335 0.76028 0.83022 0.0
H118 H 0.89326 0.82573 0.84239 0.0
H119 H 0.92542 0.66697 0.83026 0.0
C120 C 0.5734 0.16202 0.3352 0.0
C121 C 0.59947 0.13222 0.34248 0.0
C122 C 0.57662 0.17933 0.31038 0.0
C123 C 0.60589 0.16708 0.29233 0.0
C124 C 0.63229 0.13761 0.29967 0.0
C125 C 0.62898 0.12023 0.32446 0.0
C126 C 0.60728 0.18307 0.26569 0.0
C127 C 0.61558 0.23565 0.25961 0.0
C128 C 0.61681 0.24993 0.23422 0.0
C129 C 0.61006 0.21147 0.21506 0.0
C130 C 0.60284 0.15973 0.22081 0.0
C131 C 0.60096 0.14548 0.24612 0.0
C132 C 0.59624 0.12029 0.20022 0.0
C133 C 0.55938 0.11061 0.18015 0.0
C134 C 0.62455 1.09047 0.20098 0.0
C135 C 0.61284 1.04856 0.183 0.0
C136 C 0.57179 1.03511 0.16429 0.0
C137 C 0.6365 0.30742 0.22667 0.0
C138 C 0.6911 0.3466 0.23321 0.0
C139 C 0.6121 0.31636 0.20527 0.0
C140 C 0.64563 0.3536 0.18721 0.0
C141 C 0.70315 0.38236 0.1909 0.0
C142 C 0.72453 0.3842 0.21529 0.0
C143 C 0.54719 1.06848 0.16242 0.0
H144 H 0.54983 0.17135 0.34863 0.0
H145 H 0.55524 0.20127 0.3052 0.0
H146 H 0.65591 0.12829 0.28626 0.0
H147 H 0.65029 0.0982 0.32963 0.0
H148 H 0.62298 0.26597 0.27446 0.0
H149 H 0.59353 0.10457 0.25056 0.0
H150 H 0.61377 0.223 0.1954 0.0
H151 H 0.53711 0.13317 0.17909 0.0
H152 H 0.65434 0.09833 0.21595 0.0
H153 H 0.63341 1.0245 0.18471 0.0
H154 H 0.71063 0.34163 0.24993 0.0
H155 H 0.56941 0.28757 0.20025 0.0
H156 H 0.51478 1.05929 0.14865 0.0
H157 H 0.76856 0.40707 0.21912 0.0
H158 H 0.62776 0.35296 0.1689 0.0
C159 C 0.77029 0.6618 0.66823 0.0
C160 C 0.7637 0.6158 0.68152 0.0
C161 C 0.80352 0.67957 0.64703 0.0
C162 C 0.83068 0.65155 0.63841 0.0
C163 C 0.82316 0.6047 0.65123 0.0
C164 C 0.79015 0.58711 0.67268 0.0
C165 C 0.86267 0.66898 0.61481 0.0
C166 C 0.89737 0.72535 0.61021 0.0
C167 C 0.9165 0.74341 0.58574 0.0
C168 C 0.90331 0.70359 0.56622 0.0
C169 C 0.87034 0.64713 0.57079 0.0
C170 C 0.85092 0.63007 0.59522 0.0
C171 C 0.84672 0.60659 0.54953 0.0
C172 C 0.81855 0.61563 0.52975 0.0
C173 C 0.84439 0.55532 0.55091 0.0
C174 C 0.811 0.5124 0.53399 0.0
C175 C 0.7789 0.51992 0.51562 0.0
C176 C 0.93925 0.80249 0.57922 0.0
C177 C 0.91678 0.83311 0.59027 0.0
C178 C 0.97511 0.82513 0.55875 0.0
C179 C 0.98156 0.87278 0.54735 0.0
C180 C 0.95315 0.89909 0.55656 0.0
C181 C 0.92403 0.88109 0.57916 0.0
C182 C 0.78469 0.57252 0.51299 0.0
H183 H 0.74965 0.68419 0.67422 0.0
H184 H 0.80703 0.71471 0.63705 0.0
H185 H 0.84326 0.58207 0.64482 0.0
H186 H 0.78645 0.55192 0.68266 0.0
H187 H 0.90635 0.75531 0.62543 0.0
H188 H 0.82204 0.58681 0.59836 0.0
H189 H 0.91482 0.71632 0.54695 0.0
H190 H 0.81929 0.65471 0.52841 0.0
H191 H 0.8658 0.5475 0.566 0.0
H192 H 0.80698 0.47214 0.53663 0.0
H193 H 0.8887 0.81736 0.6059 0.0
H194 H 0.99455 0.80361 0.55025 0.0
H195 H 0.76056 0.57939 0.49891 0.0
H196 H 0.90131 0.90018 0.58669 0.0
H197 H 1.00496 0.88632 0.53014 0.0
C198 C 0.25189 0.74517 0.02211 0.0
C199 C 0.19579 0.7053 0.02477 0.0
C200 C 0.26917 0.78044 0.00165 0.0
C201 C 0.23062 0.77772 0.98384 0.0
C202 C 0.17436 0.74016 0.98705 0.0
C203 C 0.15709 0.70401 0.00723 0.0
C204 C 0.24927 0.80811 0.96013 0.0
C205 C 0.28026 0.79521 0.94353 0.0
C206 C 0.28938 0.81447 0.91879 0.0
C207 C 0.26863 0.84854 0.91098 0.0
C208 C 0.23858 0.86328 0.92767 0.0
C209 C 0.22969 0.84311 0.95242 0.0
C210 C 0.20912 0.89156 0.9179 0.0
C211 C 0.23114 0.92976 0.89832 0.0
C212 C 0.155 0.87437 0.92562 0.0
C213 C 1.1219 0.88989 0.91239 0.0
C214 C 1.1416 0.92232 0.8908 0.0
C215 C 0.31385 0.79219 0.90055 0.0
C216 C 0.36156 0.79034 0.90727 0.0
C217 C 0.28564 0.76601 0.87791 0.0
C218 C 0.30298 0.73561 0.86306 0.0
C219 C 0.34904 0.73127 0.87052 0.0
C220 C 0.37906 0.76032 0.89239 0.0
C221 C 0.19757 0.94477 0.88479 0.0
H222 H 0.28279 0.74876 0.03563 0.0
H223 H 0.31278 0.8091 -0.00057 0.0
H224 H 1.14405 0.73685 0.97321 0.0
H225 H 1.11371 0.67374 0.00847 0.0
H226 H 0.29342 0.76634 0.94926 0.0
H227 H 0.20572 0.85269 0.96551 0.0
H228 H 0.27349 0.86093 0.89146 0.0
H229 H 0.27325 0.94527 0.89237 0.0
H230 H 1.13598 0.84464 0.94037 0.0
H231 H 1.07894 0.87111 0.91756 0.0
H232 H 0.38398 0.8102 0.92464 0.0
H233 H 0.24837 0.76635 0.87244 0.0
H234 H 0.21423 0.97052 0.86849 0.0
H235 H 0.41436 0.75737 0.89885 0.0
H236 H 0.27934 0.71405 0.84619 0.0
C237 C 1.05047 0.50919 0.33525 0.0
C238 C 1.10207 0.53188 0.32361 0.0
C239 C 1.0469 0.51071 0.36168 0.0
C240 C 1.09487 0.53417 0.37715 0.0
C241 C 0.14634 0.55518 0.36531 0.0
C242 C 0.14988 0.55458 0.33895 0.0
C243 C 1.09166 0.53753 0.40541 0.0
C244 C 1.04791 0.49541 0.41865 0.0
C245 C 1.04487 0.49737 0.44525 0.0
C246 C 1.0875 0.54382 0.45881 0.0
C247 C 1.13279 0.58629 0.44579 0.0
C248 C 1.13326 0.58267 0.41926 0.0
C249 C 0.18248 0.63389 0.45864 0.0
C250 C 0.17898 0.67529 0.4728 0.0
C251 C 0.23551 0.64282 0.45297 0.0
C252 C 0.28338 0.69199 0.46035 0.0
C253 C 0.28039 0.73465 0.47371 0.0
C254 C 0.99773 0.44856 0.45782 0.0
C255 C 0.9838 0.39447 0.45008 0.0
C256 C 0.96265 0.45444 0.47513 0.0
C257 C 0.91416 0.40766 0.48361 0.0
C258 C 0.89955 0.35348 0.47524 0.0
C259 C 0.93588 0.34811 0.45851 0.0
C260 C 0.2272 0.725 0.48016 0.0
H261 H 1.01295 0.49185 0.32388 0.0
H262 H 1.00653 0.4947 0.36989 0.0
H263 H 0.18422 0.57212 0.37637 0.0
H264 H 0.1902 0.57179 0.3305 0.0
H265 H 1.01608 0.46007 0.40818 0.0
H266 H 0.16674 0.61594 0.40932 0.0
H267 H 1.08671 0.54568 0.47925 0.0
H268 H 1.13895 0.67035 0.47718 0.0
H269 H 0.23994 0.61229 0.44181 0.0
H270 H 0.32281 0.69731 0.45454 0.0
H271 H 1.00958 0.38791 0.43683 0.0
H272 H 0.97155 0.49529 0.4814 0.0
H273 H 0.22267 0.75618 0.49065 0.0
H274 H 0.92655 0.30791 0.45108 0.0
H275 H 0.88801 0.41409 0.49665 0.0
C276 C 0.60718 0.98739 0.6693 0.0
C277 C 0.63279 1.03677 0.65597 0.0
C278 C 0.61147 0.98826 0.69575 0.0
C279 C 0.64245 1.03852 0.70948 0.0
C280 C 0.66967 1.08766 0.69579 0.0
C281 C 0.66428 1.08682 0.66946 0.0
C282 C 0.64522 1.04012 0.73787 0.0
C283 C 0.64405 0.99657 0.75133 0.0
C284 C 0.64511 0.9968 0.77801 0.0
C285 C 0.64948 1.04364 0.79143 0.0
C286 C 0.65174 1.0886 0.77816 0.0
C287 C 0.64848 1.08531 0.75159 0.0
C288 C 0.65758 0.14021 0.79077 0.0
C289 C 0.61909 0.13864 0.8083 0.0
C290 C 0.69746 0.19226 0.78206 0.0
C291 C 0.69756 0.24083 0.78964 0.0
C292 C 0.65771 0.23951 0.8063 0.0
C293 C 0.64118 0.94697 0.79078 0.0
C294 C 0.6031 0.8935 0.78152 0.0
C295 C 0.67822 0.95151 0.81011 0.0
C296 C 0.67849 0.90412 0.81906 0.0
C297 C 0.64139 0.85067 0.80911 0.0
C298 C 0.60327 0.8465 0.79041 0.0
C299 C 0.61905 0.18754 0.81589 0.0
H300 H 0.58232 0.94828 0.65931 0.0
H301 H 0.58915 0.94955 0.7054 0.0
H302 H 0.69524 0.1271 0.70536 0.0
H303 H 0.68487 0.12543 0.65957 0.0
H304 H 0.6432 0.9623 0.74096 0.0
H305 H 0.64747 0.11829 0.74155 0.0
H306 H 0.65102 1.04506 0.81189 0.0
H307 H 0.58739 0.09936 0.8152 0.0
H308 H 0.7276 0.1952 0.76845 0.0
H309 H 0.72769 0.27925 0.78142 0.0
H310 H 0.57363 0.88796 0.76676 0.0
H311 H 0.70839 0.99185 0.81764 0.0
H312 H 0.58809 0.18441 0.82903 0.0
H313 H 0.57441 0.80686 0.78181 0.0
H314 H 0.70813 0.90952 0.83368 0.0
C315 C 0.63563 0.50373 0.00467 0.0
C316 C 0.61917 0.53527 0.99036 0.0
C317 C 0.63661 0.50671 0.0311 0.0
C318 C 0.62096 0.54115 0.04406 0.0
C319 C 0.60338 0.57188 0.02982 0.0
C320 C 0.60255 0.56902 0.0033 0.0
C321 C 0.62308 0.54474 0.0723 0.0
C322 C 0.66785 0.54728 0.08564 0.0
C323 C 0.67028 0.5487 0.11226 0.0
C324 C 0.62607 0.54846 0.12577 0.0
C325 C 0.57961 0.54481 0.11255 0.0
C326 C 0.57974 0.54396 0.08589 0.0
C327 C 0.52889 0.53955 0.12532 0.0
C328 C 0.47606 0.5008 0.11573 0.0
C329 C 0.53183 0.57631 0.14469 0.0
C330 C 0.4836 0.57589 0.15324 0.0
C331 C 0.43084 0.53854 0.14274 0.0
C332 C 0.71912 0.54838 0.12456 0.0
C333 C 0.73524 0.51065 0.11556 0.0
C334 C 0.75455 0.58962 0.14214 0.0
C335 C 0.80587 0.59462 0.14932 0.0
C336 C 0.8233 0.55878 0.13896 0.0
C337 C 0.7862 0.5158 0.12253 0.0
C338 C 0.42826 0.50047 0.12412 0.0
H339 H 0.64761 0.47638 -0.00455 0.0
H340 H 0.64923 0.48154 0.04143 0.0
H341 H 0.59143 0.59914 0.03916 0.0
H342 H 0.59023 0.59439 0.99297 0.0
H343 H 0.70174 0.54869 0.07512 0.0
H344 H 0.54502 0.5416 0.07552 0.0
H345 H 0.62672 0.54873 0.14623 0.0
H346 H 0.47169 0.47141 0.10096 0.0
H347 H 0.57157 0.60691 0.15252 0.0
H348 H 0.48794 0.60542 0.1679 0.0
H349 H 0.70899 0.47791 0.10223 0.0
H350 H 0.74395 0.61972 0.14933 0.0
H351 H 0.38939 0.47138 0.11508 0.0
H352 H 0.79685 0.48622 0.11467 0.0
H353 H 0.83294 0.62813 0.16211 0.0
C354 C 0.27778 0.49421 0.15342 0.0
C355 C 0.27967 0.54442 0.15974 0.0
H356 H 0.3224 0.45226 0.14425 0.0
C357 C 0.33221 0.5922 0.16195 0.0
H358 H 0.23848 0.45632 0.1517 0.0
C359 C 0.38087 0.5902 0.15713 0.0
C360 C 0.37902 0.54018 0.15011 0.0
H361 H 0.33589 0.63181 0.16672 0.0
H362 H 0.41984 0.6285 0.1581 0.0
C363 C 0.32641 0.49206 0.14889 0.0
C364 C 0.79471 0.20266 0.49035 0.0
C365 C 0.74487 0.20325 0.49336 0.0
H366 H 0.88138 0.24813 0.4834 0.0
C367 C 0.74707 0.25482 0.49206 0.0
H368 H 0.79535 0.16424 0.49144 0.0
C369 C 0.79705 0.30364 0.48697 0.0
C370 C 0.84662 0.30261 0.48308 0.0
H371 H 0.70976 0.25726 0.49414 0.0
H372 H 0.79628 0.34185 0.48519 0.0
C373 C 0.84445 0.25123 0.48548 0.0
C374 C 0.59538 0.69897 0.82256 0.0
C375 C 0.64548 0.70005 0.82773 0.0
H376 H 0.55437 0.74428 0.81371 0.0
C377 C 0.69413 0.75199 0.82862 0.0
H378 H 0.55682 0.66012 0.82199 0.0
C379 C 0.69285 0.80088 0.82341 0.0
C380 C 0.64283 0.79949 0.81727 0.0
H381 H 0.73358 0.75473 0.8324 0.0
H382 H 0.73151 0.83949 0.82325 0.0
C383 C 0.59404 0.74764 0.81759 0.0
C384 C 0.95493 0.58144 0.17391 0.0
C385 C 0.98348 0.57141 0.15454 0.0
H386 H 0.8827 0.58599 0.18435 0.0
C387 C 0.96055 0.56025 0.13 0.0
H388 H 0.97137 0.58981 0.19307 0.0
C389 C 0.9097 0.55755 0.125 0.0
C390 C 0.87999 0.5662 0.14438 0.0
H391 H 0.98141 0.55218 0.11469 0.0
H392 H 0.89335 0.54807 0.10584 0.0
C393 C 0.90413 0.5794 0.16886 0.0
C394 C 0.38303 0.89078 0.48316 0.0
C395 C 0.43349 0.89222 0.48805 0.0
H396 H 0.29616 0.84131 0.47475 0.0
C397 C 0.43226 0.84117 0.48931 0.0
H398 H 0.38185 0.92891 0.482 0.0
C399 C 0.38288 0.79073 0.48536 0.0
C400 C 0.33252 0.78907 0.47986 0.0
H401 H 0.46976 0.83995 0.49321 0.0
H402 H 0.3844 0.75282 0.48664 0.0
C403 C 0.33348 0.84016 0.47915 0.0
C404 C 0.60308 0.33999 0.81975 0.0
C405 C 0.65171 0.39199 0.82077 0.0
H406 H 0.56642 0.25213 0.8143 0.0
C407 C 0.70235 0.3929 0.81811 0.0
H408 H 0.56317 0.33717 0.82168 0.0
C409 C 0.70428 0.3438 0.81413 0.0
C410 C 0.65562 0.29177 0.81253 0.0
H411 H 0.74084 0.43175 0.81897 0.0
H412 H 0.7443 0.34686 0.81233 0.0
C413 C 0.60499 0.29082 0.81568 0.0
C414 C 0.90658 0.99866 0.53765 0.0
C415 C 0.879 0.97349 0.5147 0.0
H416 H 0.95366 0.99546 0.56904 0.0
C417 C 0.8893 0.93384 0.50302 0.0
H418 H 0.90105 1.03062 0.54678 0.0
C419 C 0.92039 0.9147 0.51552 0.0
C420 C 0.94131 0.93437 0.54004 0.0
H421 H 0.86888 0.91335 0.4854 0.0
H422 H 0.92251 0.88008 0.50711 0.0
C423 C 0.93722 0.979 0.5503 0.0
C424 C 1.00208 0.88203 0.86614 0.0
C425 C 1.0034 0.85498 0.84366 0.0
H426 H 1.04778 0.92912 0.8988 0.0
C427 C 1.05484 0.87086 0.83279 0.0
H428 H 0.9633 0.87199 0.87485 0.0
C429 C 1.10331 0.9026 0.84691 0.0
C430 C 1.10064 0.91932 0.87186 0.0
H431 H 1.05723 0.85254 0.81495 0.0
H432 H 1.14127 0.90661 0.83962 0.0
C433 C 1.0507 0.91468 0.88003 0.0
C434 C 0.48804 0.88235 0.15865 0.0
C435 C 0.45284 0.87789 0.13862 0.0
H436 H 0.55503 0.93698 0.18263 0.0
C437 C 0.47021 0.92172 0.12191 0.0
H438 H 0.47604 0.84895 0.1717 0.0
C439 C 0.5167 0.97258 0.12792 0.0
C440 C 0.54498 0.98023 0.15106 0.0
H441 H 0.44439 0.91865 0.10591 0.0
H442 H 0.52595 1.00743 0.11618 0.0
C443 C 0.53382 0.93333 0.16492 0.0
C444 C 0.69598 0.37668 0.487 0.0
C445 C 0.64193 0.3669 0.49043 0.0
H446 H 0.78238 0.43365 0.49204 0.0
C447 C 0.63404 0.41113 0.49767 0.0
H448 H 0.70341 0.34335 0.48154 0.0
C449 C 0.67935 0.46287 0.50363 0.0
C450 C 0.73323 0.47104 0.50263 0.0
H451 H 0.59284 0.40481 0.50023 0.0
H452 H 0.6719 0.49505 0.51101 0.0
C453 C 0.74125 0.42826 0.49316 0.0
C454 C 0.4322 0.66777 0.84583 0.0
C455 C 0.39076 0.61297 0.84068 0.0
H456 H 0.45144 0.74869 0.85857 0.0
C457 C 0.33522 0.59917 0.8421 0.0
H458 H 0.47537 0.67964 0.84441 0.0
C459 C 0.32145 0.63869 0.85039 0.0
C460 C 0.36307 0.69264 0.85723 0.0
H461 H 0.30259 0.55717 0.83822 0.0
H462 H 0.27834 0.62606 0.85289 0.0
C463 C 0.41851 0.70723 0.85395 0.0
C464 C 0.76512 0.34274 0.13782 0.0
C465 C 0.82059 0.38334 0.14084 0.0
H466 H 0.68312 0.31209 0.15077 0.0
C467 C 0.83459 0.43046 0.15601 0.0
H468 H 0.75361 0.30585 0.12639 0.0
C469 C 0.79441 0.43449 0.16997 0.0
C470 C 0.73963 0.39104 0.16915 0.0
H471 H 0.87741 0.46149 0.15908 0.0
H472 H 0.80709 0.46881 0.18329 0.0
C473 C 0.72478 0.34685 0.15165 0.0
C474 C 1.11403 0.6124 0.07859 0.0
C475 C 0.1514 0.59691 0.08786 0.0
H476 H 1.09949 0.66062 0.05191 0.0
C477 C 0.20058 0.61268 0.07503 0.0
H478 H 1.07627 0.60147 0.08853 0.0
C479 C 0.21356 0.64557 0.05387 0.0
C480 C 0.17836 0.66485 0.0455 0.0
H481 H 0.23 0.60117 0.08195 0.0
H482 H 0.25203 0.65703 0.0445 0.0
C483 C 1.12758 0.6465 0.05767 0.0
C484 C 0.58586 1.04667 0.39986 0.0
C485 C 0.59246 1.08381 0.41966 0.0
H486 H 0.58232 1.03269 0.35972 0.0
C487 C 0.60197 0.1368 0.41381 0.0
H488 H 0.57854 1.00561 0.40377 0.0
C489 C 0.60421 0.15221 0.38882 0.0
C490 C 0.59711 0.11512 0.36898 0.0
H491 H 0.60808 0.16687 0.42855 0.0
H492 H 0.61224 0.19358 0.38505 0.0
C493 C 0.58822 1.06224 0.37469 0.0
C494 C 0.67339 0.53228 0.73578 0.0
C495 C 0.68284 0.57471 0.75325 0.0
H496 H 0.69182 0.51194 0.69908 0.0
C497 C 0.71503 0.62993 0.74619 0.0
H498 H 0.649 0.48937 0.74085 0.0
C499 C 0.73969 0.64279 0.72268 0.0
C500 C 0.73275 0.60075 0.70551 0.0
H501 H 0.72291 0.66357 0.75925 0.0
H502 H 0.76625 0.68592 0.71846 0.0
C503 C 0.69845 0.54524 0.71207 0.0
C504 C 0.63331 1.0079 0.58542 0.0
C505 C 0.6096 1.03779 0.57532 0.0
H506 H 0.65813 0.98312 0.61903 0.0
C507 C 0.59365 1.06704 0.59199 0.0
H508 H 0.64592 0.98488 0.57307 0.0
C509 C 0.60177 1.06699 0.61809 0.0
C510 C 0.6248 1.03664 0.6282 0.0
H511 H 0.5756 1.09076 0.58483 0.0
H512 H 0.58947 1.09026 0.63045 0.0
C513 C 0.64014 1.00671 0.61166 0.0
C514 C 0.66816 0.53184 0.92375 0.0
C515 C 0.62746 0.53333 0.90853 0.0
H516 H 0.69803 0.53231 0.96103 0.0
C517 C 0.58336 0.53501 0.92044 0.0
H518 H 0.70296 0.53084 0.91535 0.0
C519 C 0.58036 0.53552 0.94694 0.0
C520 C 0.62131 0.5342 0.96212 0.0
H521 H 0.55131 0.53625 0.90933 0.0
H522 H 0.5457 0.53646 0.95552 0.0
C523 C 0.66517 0.53234 0.95008 0.0
C524 C 1.08112 0.49022 0.2536 0.0
C525 C 1.11555 0.54105 0.24226 0.0
H526 H 1.04898 0.44758 0.28829 0.0
C527 C 0.14557 0.58829 0.25792 0.0
H528 H 1.05728 0.45316 0.24205 0.0
C529 C 1.14155 0.58489 0.28421 0.0
C530 C 1.10654 0.53441 0.29558 0.0
H531 H 0.17264 0.62807 0.24984 0.0
H532 H 0.16522 0.6221 0.2957 0.0
C533 C 1.07613 0.48707 0.28001 0.0
loop_
_geom_bond_atom_site_label_1
_geom_bond_atom_site_label_2
_geom_bond_distance
_geom_bond_site_symmetry_2
_ccdc_geom_bond_type
Eu0 C9 2.828 . S
Eu0 O11 2.392 1_655 S
Eu0 O13 2.418 . S
Eu0 O18 2.373 . S
Eu0 O21 2.488 . S
Eu0 O22 2.471 . S
Eu0 O23 2.349 . S
Eu1 O10 2.373 . S
Eu1 O14 2.488 . S
Eu1 O15 2.471 . S
Eu1 O16 2.349 . S
Eu1 O19 2.392 1_455 S
Eu1 O20 2.418 . S
Eu1 C30 2.828 . S
C2 O20 1.244 . S
C2 O23 1.265 1_455 S
C3 C4 1.379 . S
C3 C7 1.373 . S
C3 C9 1.505 . S
C4 C3 1.379 . S
C4 C6 1.369 . S
C4 H32 0.930 . S
C5 C7 1.383 . S
C5 C8 1.382 . S
C5 H33 0.930 . S
C6 C4 1.369 . S
C6 C8 1.392 . S
C6 H34 0.930 . S
C7 C3 1.373 . S
C7 C5 1.383 . S
C7 H35 0.931 . S
C8 C5 1.382 . S
C8 C6 1.392 . S
C9 Eu0 2.828 . S
C9 C3 1.505 . S
C9 O21 1.249 . S
C9 O22 1.244 . S
O10 Eu1 2.373 . S
O10 C12 1.258 . S
O11 Eu0 2.392 1_455 S
O11 C12 1.242 . S
C12 O10 1.258 . S
C12 O11 1.242 . S
O13 Eu0 2.418 . S
O13 C17 1.244 . S
O14 Eu1 2.488 . S
O14 C30 1.249 . S
O15 Eu1 2.471 . S
O15 C30 1.244 . S
O16 Eu1 2.349 . S
O16 C17 1.265 1_455 S
C17 O13 1.244 . S
C17 O16 1.265 1_655 S
O18 Eu0 2.373 . S
O18 C31 1.258 . S
O19 Eu1 2.392 1_655 S
O19 C31 1.242 . S
O20 Eu1 2.418 . S
O20 C2 1.244 . S
O21 Eu0 2.488 . S
O21 C9 1.249 . S
O22 Eu0 2.471 . S
O22 C9 1.244 . S
O23 Eu0 2.349 . S
O23 C2 1.265 1_655 S
C24 C25 1.379 . S
C24 C28 1.373 . S
C24 C30 1.505 . S
C25 C24 1.379 . S
C25 C27 1.369 . S
C25 H36 0.930 . S
C26 C28 1.383 . S
C26 C29 1.382 . S
C26 H37 0.930 . S
C27 C25 1.369 . S
C27 C29 1.392 . S
C27 H38 0.930 . S
C28 C24 1.373 . S
C28 C26 1.383 . S
C28 H39 0.931 . S
C29 C26 1.382 . S
C29 C27 1.392 . S
C30 Eu1 2.828 . S
C30 O14 1.249 . S
C30 O15 1.244 . S
C30 C24 1.505 . S
C31 O18 1.258 . S
C31 O19 1.242 . S
H32 C4 0.930 . S
H33 C5 0.930 . S
H34 C6 0.930 . S
H35 C7 0.931 . S
H36 C25 0.930 . S
H37 C26 0.930 . S
H38 C27 0.930 . S
H39 C28 0.931 . S
Eu40 C49 2.828 . S
Eu40 O51 2.392 1_565 S
Eu40 O53 2.418 . S
Eu40 O58 2.373 . S
Eu40 O61 2.488 . S
Eu40 O62 2.471 . S
Eu40 O63 2.349 . S
Eu41 O50 2.373 . S
Eu41 O54 2.488 . S
Eu41 O55 2.471 . S
Eu41 O56 2.349 . S
Eu41 O59 2.392 1_545 S
Eu41 O60 2.418 . S
Eu41 C70 2.828 . S
C42 O60 1.244 . S
C42 O63 1.265 1_545 S
C43 C44 1.379 . S
C43 C47 1.373 . S
C43 C49 1.505 . S
C44 C43 1.379 . S
C44 C46 1.369 . S
C44 H72 0.930 . S
C45 C47 1.383 . S
C45 C48 1.382 . S
C45 H73 0.930 . S
C46 C44 1.369 . S
C46 C48 1.392 . S
C46 H74 0.930 . S
C47 C43 1.373 . S
C47 C45 1.383 . S
C47 H75 0.931 . S
C48 C45 1.382 . S
C48 C46 1.392 . S
C49 Eu40 2.828 . S
C49 C43 1.505 . S
C49 O61 1.249 . S
C49 O62 1.244 . S
O50 Eu41 2.373 . S
O50 C52 1.258 . S
O51 Eu40 2.392 1_545 S
O51 C52 1.242 . S
C52 O50 1.258 . S
C52 O51 1.242 . S
O53 Eu40 2.418 . S
O53 C57 1.244 1_565 S
O54 Eu41 2.488 . S
O54 C70 1.249 . S
O55 Eu41 2.471 . S
O55 C70 1.244 . S
O56 Eu41 2.349 . S
O56 C57 1.265 . S
C57 O53 1.244 1_545 S
C57 O56 1.265 . S
O58 Eu40 2.373 . S
O58 C71 1.258 . S
O59 Eu41 2.392 1_565 S
O59 C71 1.242 . S
O60 Eu41 2.418 . S
O60 C42 1.244 . S
O61 Eu40 2.488 . S
O61 C49 1.249 . S
O62 Eu40 2.471 . S
O62 C49 1.244 . S
O63 Eu40 2.349 . S
O63 C42 1.265 1_565 S
C64 C65 1.379 . S
C64 C68 1.373 . S
C64 C70 1.505 . S
C65 C64 1.379 . S
C65 C67 1.369 . S
C65 H76 0.930 . S
C66 C68 1.383 . S
C66 C69 1.382 . S
C66 H77 0.930 . S
C67 C65 1.369 . S
C67 C69 1.392 . S
C67 H78 0.930 . S
C68 C64 1.373 . S
C68 C66 1.383 . S
C68 H79 0.931 . S
C69 C66 1.382 . S
C69 C67 1.392 . S
C70 Eu41 2.828 . S
C70 O54 1.249 . S
C70 O55 1.244 . S
C70 C64 1.505 . S
C71 O58 1.258 . S
C71 O59 1.242 . S
H72 C44 0.930 . S
H73 C45 0.930 . S
H74 C46 0.930 . S
H75 C47 0.931 . S
H76 C65 0.930 . S
H77 C66 0.930 . S
H78 C67 0.930 . S
H79 C68 0.931 . S
Eu80 C89 2.828 . S
Eu80 O91 2.392 . S
Eu80 O93 2.418 . S
Eu80 O98 2.373 . S
Eu80 O101 2.488 . S
Eu80 O102 2.471 . S
Eu80 O103 2.349 . S
Eu81 O90 2.373 . S
Eu81 O94 2.488 . S
Eu81 O95 2.471 . S
Eu81 O96 2.349 . S
Eu81 O99 2.392 . S
Eu81 O100 2.418 . S
Eu81 C110 2.828 . S
C82 O100 1.244 . S
C82 O103 1.265 . S
C83 C84 1.379 . S
C83 C87 1.373 . S
C83 C89 1.505 . S
C84 C83 1.379 . S
C84 C86 1.369 . S
C84 H112 0.930 . S
C85 C87 1.383 . S
C85 C88 1.382 . S
C85 H113 0.930 . S
C86 C84 1.369 . S
C86 C88 1.392 . S
C86 H114 0.930 . S
C87 C83 1.373 . S
C87 C85 1.383 . S
C87 H115 0.931 . S
C88 C85 1.382 . S
C88 C86 1.392 . S
C89 Eu80 2.828 . S
C89 C83 1.505 . S
C89 O101 1.249 . S
C89 O102 1.244 . S
O90 Eu81 2.373 . S
O90 C92 1.258 . S
O91 Eu80 2.392 . S
O91 C92 1.242 . S
C92 O90 1.258 . S
C92 O91 1.242 . S
O93 Eu80 2.418 . S
O93 C97 1.244 . S
O94 Eu81 2.488 . S
O94 C110 1.249 . S
O95 Eu81 2.471 . S
O95 C110 1.244 . S
O96 Eu81 2.349 . S
O96 C97 1.265 . S
C97 O93 1.244 . S
C97 O96 1.265 . S
O98 Eu80 2.373 . S
O98 C111 1.258 . S
O99 Eu81 2.392 . S
O99 C111 1.242 . S
O100 Eu81 2.418 . S
O100 C82 1.244 . S
O101 Eu80 2.488 . S
O101 C89 1.249 . S
O102 Eu80 2.471 . S
O102 C89 1.244 . S
O103 Eu80 2.349 . S
O103 C82 1.265 . S
C104 C105 1.379 . S
C104 C108 1.373 . S
C104 C110 1.505 . S
C105 C104 1.379 . S
C105 C107 1.369 . S
C105 H116 0.930 . S
C106 C108 1.383 . S
C106 C109 1.382 . S
C106 H117 0.930 . S
C107 C105 1.369 . S
C107 C109 1.392 . S
C107 H118 0.930 . S
C108 C104 1.373 . S
C108 C106 1.383 . S
C108 H119 0.931 . S
C109 C106 1.382 . S
C109 C107 1.392 . S
C110 Eu81 2.828 . S
C110 O94 1.249 . S
C110 O95 1.244 . S
C110 C104 1.505 . S
C111 O98 1.258 . S
C111 O99 1.242 . S
H112 C84 0.930 . S
H113 C85 0.930 . S
H114 C86 0.930 . S
H115 C87 0.931 . S
H116 C105 0.930 . S
H117 C106 0.930 . S
H118 C107 0.930 . S
H119 C108 0.931 . S
C120 C121 1.386 . S
C120 C122 1.397 . S
C120 H144 0.931 . S
C121 C120 1.386 . S
C121 C125 1.397 1_545 S
C122 C120 1.397 . S
C122 C123 1.384 . S
C122 H145 0.930 . S
C123 C122 1.384 . S
C123 C124 1.377 1_545 S
C123 C126 1.481 . S
C124 C123 1.377 1_565 S
C124 C125 1.389 . S
C124 H146 0.929 . S
C125 C121 1.397 1_565 S
C125 C124 1.389 . S
C125 H147 0.931 . S
C126 C123 1.481 . S
C126 C127 1.387 . S
C126 C131 1.390 1_545 S
C127 C126 1.387 . S
C127 C128 1.401 . S
C127 H148 0.930 . S
C128 C127 1.401 . S
C128 C129 1.376 . S
C128 C137 1.511 . S
C129 C128 1.376 . S
C129 C130 1.392 1_545 S
C129 H150 0.931 . S
C130 C129 1.392 1_565 S
C130 C131 1.361 . S
C130 C132 1.500 . S
C131 C126 1.390 1_565 S
C131 C130 1.361 . S
C131 H149 0.931 . S
C132 C130 1.500 . S
C132 C133 1.371 . S
C132 C134 1.365 . S
C133 C132 1.371 . S
C133 C143 1.386 . S
C133 H151 0.931 . S
C134 C132 1.365 . S
C134 C135 1.409 . S
C134 H152 0.929 . S
C135 C134 1.409 . S
C135 C136 1.380 . S
C135 H153 0.930 . S
C136 C135 1.380 . S
C136 C143 1.357 . S
C137 C128 1.511 . S
C137 C138 1.341 . S
C137 C139 1.371 . S
C138 C137 1.341 . S
C138 C142 1.394 . S
C138 H154 0.930 . S
C139 C137 1.371 . S
C139 C140 1.392 . S
C139 H155 0.931 . S
C140 C139 1.392 . S
C140 C141 1.331 . S
C140 H158 0.932 . S
C141 C140 1.331 . S
C141 C142 1.336 . S
C142 C138 1.394 . S
C142 C141 1.336 . S
C142 H157 0.929 . S
C143 C133 1.386 . S
C143 C136 1.357 . S
C143 H156 0.928 . S
H144 C120 0.931 . S
H145 C122 0.930 . S
H146 C124 0.929 . S
H147 C125 0.931 . S
H148 C127 0.930 . S
H149 C131 0.931 . S
H150 C129 0.931 . S
H151 C133 0.931 . S
H152 C134 0.929 . S
H153 C135 0.930 . S
H154 C138 0.930 . S
H155 C139 0.931 . S
H156 C143 0.928 . S
H157 C142 0.929 . S
H158 C140 0.932 . S
C159 C160 1.386 . S
C159 C161 1.397 . S
C159 H183 0.931 . S
C160 C159 1.386 . S
C160 C164 1.397 . S
C161 C159 1.397 . S
C161 C162 1.384 . S
C161 H184 0.930 . S
C162 C161 1.384 . S
C162 C163 1.377 . S
C162 C165 1.481 . S
C163 C162 1.377 . S
C163 C164 1.389 . S
C163 H185 0.929 . S
C164 C160 1.397 . S
C164 C163 1.389 . S
C164 H186 0.931 . S
C165 C162 1.481 . S
C165 C166 1.387 . S
C165 C170 1.390 . S
C166 C165 1.387 . S
C166 C167 1.401 . S
C166 H187 0.930 . S
C167 C166 1.401 . S
C167 C168 1.376 . S
C167 C176 1.511 . S
C168 C167 1.376 . S
C168 C169 1.392 . S
C168 H189 0.931 . S
C169 C168 1.392 . S
C169 C170 1.361 . S
C169 C171 1.500 . S
C170 C165 1.390 . S
C170 C169 1.361 . S
C170 H188 0.931 . S
C171 C169 1.500 . S
C171 C172 1.371 . S
C171 C173 1.365 . S
C172 C171 1.371 . S
C172 C182 1.386 . S
C172 H190 0.931 . S
C173 C171 1.365 . S
C173 C174 1.409 . S
C173 H191 0.929 . S
C174 C173 1.409 . S
C174 C175 1.380 . S
C174 H192 0.930 . S
C175 C174 1.380 . S
C175 C182 1.357 . S
C176 C167 1.511 . S
C176 C177 1.341 . S
C176 C178 1.371 . S
C177 C176 1.341 . S
C177 C181 1.394 . S
C177 H193 0.930 . S
C178 C176 1.371 . S
C178 C179 1.392 . S
C178 H194 0.931 . S
C179 C178 1.392 . S
C179 C180 1.331 . S
C179 H197 0.932 . S
C180 C179 1.331 . S
C180 C181 1.336 . S
C181 C177 1.394 . S
C181 C180 1.336 . S
C181 H196 0.929 . S
C182 C172 1.386 . S
C182 C175 1.357 . S
C182 H195 0.928 . S
H183 C159 0.931 . S
H184 C161 0.930 . S
H185 C163 0.929 . S
H186 C164 0.931 . S
H187 C166 0.930 . S
H188 C170 0.931 . S
H189 C168 0.931 . S
H190 C172 0.931 . S
H191 C173 0.929 . S
H192 C174 0.930 . S
H193 C177 0.930 . S
H194 C178 0.931 . S
H195 C182 0.928 . S
H196 C181 0.929 . S
H197 C179 0.932 . S
C198 C199 1.386 . S
C198 C200 1.397 1_554 S
C198 H222 0.931 . S
C199 C198 1.386 . S
C199 C203 1.397 1_455 S
C200 C198 1.397 1_556 S
C200 C201 1.384 . S
C200 H223 0.930 . S
C201 C200 1.384 . S
C201 C202 1.377 1_455 S
C201 C204 1.481 . S
C202 C201 1.377 1_655 S
C202 C203 1.389 1_556 S
C202 H224 0.929 . S
C203 C199 1.397 1_655 S
C203 C202 1.389 1_554 S
C203 H225 0.931 . S
C204 C201 1.481 . S
C204 C205 1.387 . S
C204 C209 1.390 . S
C205 C204 1.387 . S
C205 C206 1.401 . S
C205 H226 0.930 . S
C206 C205 1.401 . S
C206 C207 1.376 . S
C206 C215 1.511 . S
C207 C206 1.376 . S
C207 C208 1.392 . S
C207 H228 0.931 . S
C208 C207 1.392 . S
C208 C209 1.361 . S
C208 C210 1.500 1_455 S
C209 C204 1.390 . S
C209 C208 1.361 . S
C209 H227 0.931 1_455 S
C210 C208 1.500 1_655 S
C210 C211 1.371 . S
C210 C212 1.365 . S
C211 C210 1.371 . S
C211 C221 1.386 . S
C211 H229 0.931 . S
C212 C210 1.365 . S
C212 C213 1.409 . S
C212 H230 0.929 . S
C213 C212 1.409 . S
C213 C214 1.380 . S
C213 H231 0.930 . S
C214 C213 1.380 . S
C214 C221 1.357 . S
C215 C206 1.511 . S
C215 C216 1.341 . S
C215 C217 1.371 . S
C216 C215 1.341 . S
C216 C220 1.394 . S
C216 H232 0.930 . S
C217 C215 1.371 . S
C217 C218 1.392 . S
C217 H233 0.931 . S
C218 C217 1.392 . S
C218 C219 1.331 . S
C218 H236 0.932 . S
C219 C218 1.331 . S
C219 C220 1.336 . S
C220 C216 1.394 . S
C220 C219 1.336 . S
C220 H235 0.929 . S
C221 C211 1.386 . S
C221 C214 1.357 . S
C221 H234 0.928 . S
H222 C198 0.931 . S
H223 C200 0.930 . S
H224 C202 0.929 . S
H225 C203 0.931 . S
H226 C205 0.930 . S
H227 C209 0.931 1_655 S
H228 C207 0.931 . S
H229 C211 0.931 . S
H230 C212 0.929 . S
H231 C213 0.930 . S
H232 C216 0.930 . S
H233 C217 0.931 . S
H234 C221 0.928 . S
H235 C220 0.929 . S
H236 C218 0.932 . S
C237 C238 1.386 1_655 S
C237 C239 1.397 . S
C237 H261 0.931 . S
C238 C237 1.386 1_455 S
C238 C242 1.397 . S
C239 C237 1.397 . S
C239 C240 1.384 1_655 S
C239 H262 0.930 . S
C240 C239 1.384 1_455 S
C240 C241 1.377 . S
C240 C243 1.481 . S
C241 C240 1.377 . S
C241 C242 1.389 . S
C241 H263 0.929 . S
C242 C238 1.397 . S
C242 C241 1.389 . S
C242 H264 0.931 . S
C243 C240 1.481 . S
C243 C244 1.387 1_455 S
C243 C248 1.390 . S
C244 C243 1.387 1_655 S
C244 C245 1.401 . S
C244 H265 0.930 . S
C245 C244 1.401 . S
C245 C246 1.376 1_655 S
C245 C254 1.511 . S
C246 C245 1.376 1_455 S
C246 C247 1.392 . S
C246 H267 0.931 . S
C247 C246 1.392 . S
C247 C248 1.361 . S
C247 C249 1.500 . S
C248 C243 1.390 . S
C248 C247 1.361 . S
C248 H266 0.931 . S
C249 C247 1.500 . S
C249 C250 1.371 . S
C249 C251 1.365 . S
C250 C249 1.371 . S
C250 C260 1.386 . S
C250 H268 0.931 . S
C251 C249 1.365 . S
C251 C252 1.409 . S
C251 H269 0.929 . S
C252 C251 1.409 . S
C252 C253 1.380 . S
C252 H270 0.930 . S
C253 C252 1.380 . S
C253 C260 1.357 . S
C254 C245 1.511 . S
C254 C255 1.341 . S
C254 C256 1.371 . S
C255 C254 1.341 . S
C255 C259 1.394 . S
C255 H271 0.930 . S
C256 C254 1.371 . S
C256 C257 1.392 . S
C256 H272 0.931 . S
C257 C256 1.392 . S
C257 C258 1.331 . S
C257 H275 0.932 . S
C258 C257 1.331 . S
C258 C259 1.336 . S
C259 C255 1.394 . S
C259 C258 1.336 . S
C259 H274 0.929 . S
C260 C250 1.386 . S
C260 C253 1.357 . S
C260 H273 0.928 . S
H261 C237 0.931 . S
H262 C239 0.930 . S
H263 C241 0.929 . S
H264 C242 0.931 . S
H265 C244 0.930 . S
H266 C248 0.931 . S
H267 C246 0.931 . S
H268 C250 0.931 . S
H269 C251 0.929 . S
H270 C252 0.930 . S
H271 C255 0.930 . S
H272 C256 0.931 . S
H273 C260 0.928 . S
H274 C259 0.929 . S
H275 C257 0.932 . S
C276 C277 1.386 1_565 S
C276 C278 1.397 . S
C276 H300 0.931 . S
C277 C276 1.386 1_545 S
C277 C281 1.397 . S
C278 C276 1.397 . S
C278 C279 1.384 1_565 S
C278 H301 0.930 . S
C279 C278 1.384 1_545 S
C279 C280 1.377 . S
C279 C282 1.481 . S
C280 C279 1.377 . S
C280 C281 1.389 . S
C280 H302 0.929 . S
C281 C277 1.397 . S
C281 C280 1.389 . S
C281 H303 0.931 . S
C282 C279 1.481 . S
C282 C283 1.387 1_545 S
C282 C287 1.390 . S
C283 C282 1.387 1_565 S
C283 C284 1.401 . S
C283 H304 0.930 . S
C284 C283 1.401 . S
C284 C285 1.376 1_565 S
C284 C293 1.511 . S
C285 C284 1.376 1_545 S
C285 C286 1.392 . S
C285 H306 0.931 . S
C286 C285 1.392 . S
C286 C287 1.361 . S
C286 C288 1.500 . S
C287 C282 1.390 . S
C287 C286 1.361 . S
C287 H305 0.931 . S
C288 C286 1.500 . S
C288 C289 1.371 . S
C288 C290 1.365 . S
C289 C288 1.371 . S
C289 C299 1.386 . S
C289 H307 0.931 . S
C290 C288 1.365 . S
C290 C291 1.409 . S
C290 H308 0.929 . S
C291 C290 1.409 . S
C291 C292 1.380 . S
C291 H309 0.930 . S
C292 C291 1.380 . S
C292 C299 1.357 . S
C293 C284 1.511 . S
C293 C294 1.341 . S
C293 C295 1.371 . S
C294 C293 1.341 . S
C294 C298 1.394 . S
C294 H310 0.930 . S
C295 C293 1.371 . S
C295 C296 1.392 . S
C295 H311 0.931 . S
C296 C295 1.392 . S
C296 C297 1.331 . S
C296 H314 0.932 . S
C297 C296 1.331 . S
C297 C298 1.336 . S
C298 C294 1.394 . S
C298 C297 1.336 . S
C298 H313 0.929 . S
C299 C289 1.386 . S
C299 C292 1.357 . S
C299 H312 0.928 . S
H300 C276 0.931 . S
H301 C278 0.930 . S
H302 C280 0.929 . S
H303 C281 0.931 . S
H304 C283 0.930 . S
H305 C287 0.931 . S
H306 C285 0.931 . S
H307 C289 0.931 . S
H308 C290 0.929 . S
H309 C291 0.930 . S
H310 C294 0.930 . S
H311 C295 0.931 . S
H312 C299 0.928 . S
H313 C298 0.929 . S
H314 C296 0.932 . S
C315 C316 1.366 1_554 S
C315 C317 1.397 . S
C315 H339 0.931 . S
C316 C315 1.366 1_556 S
C316 C320 1.376 1_556 S
C317 C315 1.397 . S
C317 C318 1.384 . S
C317 H340 0.930 . S
C318 C317 1.384 . S
C318 C319 1.377 . S
C318 C321 1.481 . S
C319 C318 1.377 . S
C319 C320 1.389 . S
C319 H341 0.929 . S
C320 C316 1.376 1_554 S
C320 C319 1.389 . S
C320 H342 0.931 . S
C321 C318 1.481 . S
C321 C322 1.387 . S
C321 C326 1.390 . S
C322 C321 1.387 . S
C322 C323 1.401 . S
C322 H343 0.930 . S
C323 C322 1.401 . S
C323 C324 1.376 . S
C323 C332 1.511 . S
C324 C323 1.376 . S
C324 C325 1.392 . S
C324 H345 0.931 . S
C325 C324 1.392 . S
C325 C326 1.361 . S
C325 C327 1.500 . S
C326 C321 1.390 . S
C326 C325 1.361 . S
C326 H344 0.931 . S
C327 C325 1.500 . S
C327 C328 1.371 . S
C327 C329 1.365 . S
C328 C327 1.371 . S
C328 C338 1.386 . S
C328 H346 0.931 . S
C329 C327 1.365 . S
C329 C330 1.409 . S
C329 H347 0.929 . S
C330 C329 1.409 . S
C330 C331 1.380 . S
C330 H348 0.930 . S
C331 C330 1.380 . S
C331 C338 1.357 . S
C332 C323 1.511 . S
C332 C333 1.341 . S
C332 C334 1.371 . S
C333 C332 1.341 . S
C333 C337 1.394 . S
C333 H349 0.930 . S
C334 C332 1.371 . S
C334 C335 1.392 . S
C334 H350 0.931 . S
C335 C334 1.392 . S
C335 C336 1.331 . S
C335 H353 0.932 . S
C336 C335 1.331 . S
C336 C337 1.336 . S
C337 C333 1.394 . S
C337 C336 1.336 . S
C337 H352 0.929 . S
C338 C328 1.386 . S
C338 C331 1.357 . S
C338 H351 0.928 . S
H339 C315 0.931 . S
H340 C317 0.930 . S
H341 C319 0.929 . S
H342 C320 0.931 . S
H343 C322 0.930 . S
H344 C326 0.931 . S
H345 C324 0.931 . S
H346 C328 0.931 . S
H347 C329 0.929 . S
H348 C330 0.930 . S
H349 C333 0.930 . S
H350 C334 0.931 . S
H351 C338 0.928 . S
H352 C337 0.929 . S
H353 C335 0.932 . S
C354 C355 1.387 . S
C354 H358 0.950 . S
C354 C363 1.390 . S
C355 C354 1.387 . S
C355 C357 1.387 . S
H356 C363 0.950 . S
C357 C355 1.387 . S
C357 C359 1.390 . S
C357 H361 0.950 . S
H358 C354 0.950 . S
C359 C357 1.390 . S
C359 C360 1.387 . S
C359 H362 0.950 . S
C360 C359 1.387 . S
C360 C363 1.387 . S
H361 C357 0.950 . S
H362 C359 0.950 . S
C363 C354 1.390 . S
C363 H356 0.950 . S
C363 C360 1.387 . S
C364 C365 1.387 . S
C364 H368 0.950 . S
C364 C373 1.390 . S
C365 C364 1.387 . S
C365 C367 1.387 . S
H366 C373 0.950 . S
C367 C365 1.387 . S
C367 C369 1.390 . S
C367 H371 0.950 . S
H368 C364 0.950 . S
C369 C367 1.390 . S
C369 C370 1.387 . S
C369 H372 0.950 . S
C370 C369 1.387 . S
C370 C373 1.387 . S
H371 C367 0.950 . S
H372 C369 0.950 . S
C373 C364 1.390 . S
C373 H366 0.950 . S
C373 C370 1.387 . S
C374 C375 1.387 . S
C374 H378 0.950 . S
C374 C383 1.390 . S
C375 C374 1.387 . S
C375 C377 1.387 . S
H376 C383 0.950 . S
C377 C375 1.387 . S
C377 C379 1.390 . S
C377 H381 0.950 . S
H378 C374 0.950 . S
C379 C377 1.390 . S
C379 C380 1.387 . S
C379 H382 0.950 . S
C380 C379 1.387 . S
C380 C383 1.387 . S
H381 C377 0.950 . S
H382 C379 0.950 . S
C383 C374 1.390 . S
C383 H376 0.950 . S
C383 C380 1.387 . S
C384 C385 1.387 . S
C384 H388 0.950 . S
C384 C393 1.390 . S
C385 C384 1.387 . S
C385 C387 1.387 . S
H386 C393 0.950 . S
C387 C385 1.387 . S
C387 C389 1.390 . S
C387 H391 0.950 . S
H388 C384 0.950 . S
C389 C387 1.390 . S
C389 C390 1.387 . S
C389 H392 0.950 . S
C390 C389 1.387 . S
C390 C393 1.387 . S
H391 C387 0.950 . S
H392 C389 0.950 . S
C393 C384 1.390 . S
C393 H386 0.950 . S
C393 C390 1.387 . S
C394 C395 1.387 . S
C394 H398 0.950 . S
C394 C403 1.390 . S
C395 C394 1.387 . S
C395 C397 1.387 . S
H396 C403 0.950 . S
C397 C395 1.387 . S
C397 C399 1.390 . S
C397 H401 0.950 . S
H398 C394 0.950 . S
C399 C397 1.390 . S
C399 C400 1.387 . S
C399 H402 0.950 . S
C400 C399 1.387 . S
C400 C403 1.387 . S
H401 C397 0.950 . S
H402 C399 0.950 . S
C403 C394 1.390 . S
C403 H396 0.950 . S
C403 C400 1.387 . S
C404 C405 1.387 . S
C404 H408 0.950 . S
C404 C413 1.390 . S
C405 C404 1.387 . S
C405 C407 1.387 . S
H406 C413 0.950 . S
C407 C405 1.387 . S
C407 C409 1.390 . S
C407 H411 0.950 . S
H408 C404 0.950 . S
C409 C407 1.390 . S
C409 C410 1.387 . S
C409 H412 0.950 . S
C410 C409 1.387 . S
C410 C413 1.387 . S
H411 C407 0.950 . S
H412 C409 0.950 . S
C413 C404 1.390 . S
C413 H406 0.950 . S
C413 C410 1.387 . S
C414 C415 1.387 . S
C414 H418 0.950 . S
C414 C423 1.390 . S
C415 C414 1.387 . S
C415 C417 1.387 . S
H416 C423 0.950 . S
C417 C415 1.387 . S
C417 C419 1.390 . S
C417 H421 0.950 . S
H418 C414 0.950 . S
C419 C417 1.390 . S
C419 C420 1.387 . S
C419 H422 0.950 . S
C420 C419 1.387 . S
C420 C423 1.387 . S
H421 C417 0.950 . S
H422 C419 0.950 . S
C423 C414 1.390 . S
C423 H416 0.950 . S
C423 C420 1.387 . S
C424 C425 1.387 . S
C424 H428 0.950 . S
C424 C433 1.390 . S
C425 C424 1.387 . S
C425 C427 1.387 . S
H426 C433 0.950 . S
C427 C425 1.387 . S
C427 C429 1.390 . S
C427 H431 0.950 . S
H428 C424 0.950 . S
C429 C427 1.390 . S
C429 C430 1.387 . S
C429 H432 0.950 . S
C430 C429 1.387 . S
C430 C433 1.387 . S
H431 C427 0.950 . S
H432 C429 0.950 . S
C433 C424 1.390 . S
C433 H426 0.950 . S
C433 C430 1.387 . S
C434 C435 1.387 . S
C434 H438 0.950 . S
C434 C443 1.390 . S
C435 C434 1.387 . S
C435 C437 1.387 . S
H436 C443 0.950 . S
C437 C435 1.387 . S
C437 C439 1.390 . S
C437 H441 0.950 . S
H438 C434 0.950 . S
C439 C437 1.390 . S
C439 C440 1.387 . S
C439 H442 0.950 . S
C440 C439 1.387 . S
C440 C443 1.387 . S
H441 C437 0.950 . S
H442 C439 0.950 . S
C443 C434 1.390 . S
C443 H436 0.950 . S
C443 C440 1.387 . S
C444 C445 1.387 . S
C444 H448 0.950 . S
C444 C453 1.390 . S
C445 C444 1.387 . S
C445 C447 1.387 . S
H446 C453 0.950 . S
C447 C445 1.387 . S
C447 C449 1.390 . S
C447 H451 0.950 . S
H448 C444 0.950 . S
C449 C447 1.390 . S
C449 C450 1.387 . S
C449 H452 0.950 . S
C450 C449 1.387 . S
C450 C453 1.387 . S
H451 C447 0.950 . S
H452 C449 0.950 . S
C453 C444 1.390 . S
C453 H446 0.950 . S
C453 C450 1.387 . S
C454 C455 1.387 . S
C454 H458 0.950 . S
C454 C463 1.390 . S
C455 C454 1.387 . S
C455 C457 1.387 . S
H456 C463 0.950 . S
C457 C455 1.387 . S
C457 C459 1.390 . S
C457 H461 0.950 . S
H458 C454 0.950 . S
C459 C457 1.390 . S
C459 C460 1.387 . S
C459 H462 0.950 . S
C460 C459 1.387 . S
C460 C463 1.387 . S
H461 C457 0.950 . S
H462 C459 0.950 . S
C463 C454 1.390 . S
C463 H456 0.950 . S
C463 C460 1.387 . S
C464 C465 1.387 . S
C464 H468 0.950 . S
C464 C473 1.390 . S
C465 C464 1.387 . S
C465 C467 1.387 . S
H466 C473 0.950 . S
C467 C465 1.387 . S
C467 C469 1.390 . S
C467 H471 0.950 . S
H468 C464 0.950 . S
C469 C467 1.390 . S
C469 C470 1.387 . S
C469 H472 0.950 . S
C470 C469 1.387 . S
C470 C473 1.387 . S
H471 C467 0.950 . S
H472 C469 0.950 . S
C473 C464 1.390 . S
C473 H466 0.950 . S
C473 C470 1.387 . S
C474 C475 1.387 1_655 S
C474 H478 0.950 . S
C474 C483 1.390 . S
C475 C474 1.387 1_455 S
C475 C477 1.387 . S
H476 C483 0.950 . S
C477 C475 1.387 . S
C477 C479 1.390 . S
C477 H481 0.950 . S
H478 C474 0.950 . S
C479 C477 1.390 . S
C479 C480 1.387 . S
C479 H482 0.950 . S
C480 C479 1.387 . S
C480 C483 1.387 1_455 S
H481 C477 0.950 . S
H482 C479 0.950 . S
C483 C474 1.390 . S
C483 H476 0.950 . S
C483 C480 1.387 1_655 S
C484 C485 1.387 1_565 S
C484 H488 0.950 . S
C484 C493 1.390 . S
C485 C484 1.387 1_545 S
C485 C487 1.387 . S
H486 C493 0.950 . S
C487 C485 1.387 . S
C487 C489 1.390 . S
C487 H491 0.950 . S
H488 C484 0.950 . S
C489 C487 1.390 . S
C489 C490 1.387 . S
C489 H492 0.950 . S
C490 C489 1.387 . S
C490 C493 1.387 1_545 S
H491 C487 0.950 . S
H492 C489 0.950 . S
C493 C484 1.390 . S
C493 H486 0.950 . S
C493 C490 1.387 1_565 S
C494 C495 1.387 . S
C494 H498 0.950 . S
C494 C503 1.390 . S
C495 C494 1.387 . S
C495 C497 1.387 . S
H496 C503 0.950 . S
C497 C495 1.387 . S
C497 C499 1.390 . S
C497 H501 0.950 . S
H498 C494 0.950 . S
C499 C497 1.390 . S
C499 C500 1.387 . S
C499 H502 0.950 . S
C500 C499 1.387 . S
C500 C503 1.387 . S
H501 C497 0.950 . S
H502 C499 0.950 . S
C503 C494 1.390 . S
C503 H496 0.950 . S
C503 C500 1.387 . S
C504 C505 1.387 1_565 S
C504 H508 0.950 . S
C504 C513 1.390 . S
C505 C504 1.387 1_545 S
C505 C507 1.387 . S
H506 C513 0.950 . S
C507 C505 1.387 . S
C507 C509 1.390 . S
C507 H511 0.950 . S
H508 C504 0.950 . S
C509 C507 1.390 . S
C509 C510 1.387 . S
C509 H512 0.950 . S
C510 C509 1.387 . S
C510 C513 1.387 1_545 S
H511 C507 0.950 . S
H512 C509 0.950 . S
C513 C504 1.390 . S
C513 H506 0.950 . S
C513 C510 1.387 1_565 S
C514 C515 1.387 . S
C514 H518 0.950 . S
C514 C523 1.390 . S
C515 C514 1.387 . S
C515 C517 1.387 . S
H516 C523 0.950 . S
C517 C515 1.387 . S
C517 C519 1.390 . S
C517 H521 0.950 . S
H518 C514 0.950 . S
C519 C517 1.390 . S
C519 C520 1.387 . S
C519 H522 0.950 . S
C520 C519 1.387 . S
C520 C523 1.387 . S
H521 C517 0.950 . S
H522 C519 0.950 . S
C523 C514 1.390 . S
C523 H516 0.950 . S
C523 C520 1.387 . S
C524 C525 1.387 . S
C524 H528 0.950 . S
C524 C533 1.390 . S
C525 C524 1.387 . S
C525 C527 1.387 1_655 S
H526 C533 0.950 . S
C527 C525 1.387 1_455 S
C527 C529 1.390 . S
C527 H531 0.950 . S
H528 C524 0.950 . S
C529 C527 1.390 . S
C529 C530 1.387 . S
C529 H532 0.950 . S
C530 C529 1.387 . S
C530 C533 1.387 1_455 S
H531 C527 0.950 . S
H532 C529 0.950 . S
C533 C524 1.390 . S
C533 H526 0.950 . S
C533 C530 1.387 1_655 S
C355 C12 3.057 . S
C360 C331 2.989 . S
C365 C52 3.054 . S
C370 C258 2.992 . S
C375 C111 3.102 . S
C380 C297 3.031 . S
C385 C31 3.217 . S
C390 C336 3.131 . S
C400 C253 3.128 . S
C395 C71 3.219 . S
C410 C292 3.083 . S
C405 C92 3.169 . S
C415 C48 0.736 . S
C420 C180 0.732 . S
C425 C109 0.773 . S
C430 C214 0.786 . S
C435 C29 0.713 . S
C440 C136 0.685 . S
C450 C175 0.606 . S
C445 C69 0.653 . S
C460 C219 0.488 . S
C455 C88 0.514 . S
C465 C8 0.518 . S
C470 C141 0.457 . S
C480 C199 1.058 . S
C475 C17 1.060 1_455 S
C485 C57 1.041 . S
C490 C121 1.042 . S
C495 C97 1.069 . S
C500 C160 1.060 . S
C510 C277 1.808 . S
C505 C42 1.738 . S
C520 C316 1.846 . S
C515 C82 1.755 . S
C525 C2 1.757 1_655 S
C530 C238 1.809 . S
