# Generated by pormake.
# Topology pyr, (3,6)-cn, num edge types: 1
# Building blocks:
#     Node 0, Type 0, BuildingBlock: BELTOD_clean_linker_0, # of connection points: 3
#     Node 1, Type 0, BuildingBlock: BELTOD_clean_linker_0, # of connection points: 3
#     Node 2, Type 0, BuildingBlock: BELTOD_clean_linker_0, # of connection points: 3
#     Node 3, Type 0, BuildingBlock: BELTOD_clean_linker_0, # of connection points: 3
#     Node 4, Type 0, BuildingBlock: BELTOD_clean_linker_0, # of connection points: 3
#     Node 5, Type 0, BuildingBlock: BELTOD_clean_linker_0, # of connection points: 3
#     Node 6, Type 0, BuildingBlock: BELTOD_clean_linker_0, # of connection points: 3
#     Node 7, Type 0, BuildingBlock: BELTOD_clean_linker_0, # of connection points: 3
#     Node 8, Type 1, BuildingBlock: PAMTUU_clean_sbu_0, # of connection points: 6
#     Node 9, Type 1, BuildingBlock: PAMTUU_clean_sbu_0, # of connection points: 6
#     Node 10, Type 1, BuildingBlock: PAMTUU_clean_sbu_0, # of connection points: 6
#     Node 11, Type 1, BuildingBlock: PAMTUU_clean_sbu_0, # of connection points: 6
#     Edge 12, Type (0, 1), BuildingBlock: KIFKEQ_clean_linker_1, # of connection points: 2
#     Edge 13, Type (0, 1), BuildingBlock: KIFKEQ_clean_linker_1, # of connection points: 2
#     Edge 14, Type (0, 1), BuildingBlock: KIFKEQ_clean_linker_1, # of connection points: 2
#     Edge 15, Type (0, 1), BuildingBlock: KIFKEQ_clean_linker_1, # of connection points: 2
#     Edge 16, Type (0, 1), BuildingBlock: KIFKEQ_clean_linker_1, # of connection points: 2
#     Edge 17, Type (0, 1), BuildingBlock: KIFKEQ_clean_linker_1, # of connection points: 2
#     Edge 18, Type (0, 1), BuildingBlock: KIFKEQ_clean_linker_1, # of connection points: 2
#     Edge 19, Type (0, 1), BuildingBlock: KIFKEQ_clean_linker_1, # of connection points: 2
#     Edge 20, Type (0, 1), BuildingBlock: KIFKEQ_clean_linker_1, # of connection points: 2
#     Edge 21, Type (0, 1), BuildingBlock: KIFKEQ_clean_linker_1, # of connection points: 2
#     Edge 22, Type (0, 1), BuildingBlock: KIFKEQ_clean_linker_1, # of connection points: 2
#     Edge 23, Type (0, 1), BuildingBlock: KIFKEQ_clean_linker_1, # of connection points: 2
#     Edge 24, Type (0, 1), BuildingBlock: KIFKEQ_clean_linker_1, # of connection points: 2
#     Edge 25, Type (0, 1), BuildingBlock: KIFKEQ_clean_linker_1, # of connection points: 2
#     Edge 26, Type (0, 1), BuildingBlock: KIFKEQ_clean_linker_1, # of connection points: 2
#     Edge 27, Type (0, 1), BuildingBlock: KIFKEQ_clean_linker_1, # of connection points: 2
#     Edge 28, Type (0, 1), BuildingBlock: KIFKEQ_clean_linker_1, # of connection points: 2
#     Edge 29, Type (0, 1), BuildingBlock: KIFKEQ_clean_linker_1, # of connection points: 2
#     Edge 30, Type (0, 1), BuildingBlock: KIFKEQ_clean_linker_1, # of connection points: 2
#     Edge 31, Type (0, 1), BuildingBlock: KIFKEQ_clean_linker_1, # of connection points: 2
#     Edge 32, Type (0, 1), BuildingBlock: KIFKEQ_clean_linker_1, # of connection points: 2
#     Edge 33, Type (0, 1), BuildingBlock: KIFKEQ_clean_linker_1, # of connection points: 2
#     Edge 34, Type (0, 1), BuildingBlock: KIFKEQ_clean_linker_1, # of connection points: 2
#     Edge 35, Type (0, 1), BuildingBlock: KIFKEQ_clean_linker_1, # of connection points: 2
# Relax obj value: 0.095
# Max RMSD: 0.128
# Mean RMSD: 0.053
data_MOF--net-pyr--node1-PAMTUU_clean_sbu_0--node2-BELTOD_clean_linker_0--edge1-KIFKEQ_clean_linker_1
_symmetry_space_group_name_H-M    P1
_symmetry_Int_Tables_number       1
_symmetry_cell_setting            triclinic
loop_
_symmetry_equiv_pos_as_xyz
'x, y, z'
_cell_length_a     43.694608
_cell_length_b     45.339891
_cell_length_c     43.461088
_cell_angle_alpha  89.991224
_cell_angle_beta   89.225248
_cell_angle_gamma 100.40286
loop_
_atom_site_label
_atom_site_type_symbol
_atom_site_fract_x
_atom_site_fract_y
_atom_site_fract_z
_atom_type_partial_charge
P0 P 0.3727 0.31244 0.23465 0.0
H1 H 0.40331 0.31206 0.17373 0.0
H2 H 0.42822 0.27439 0.14762 0.0
H3 H 0.41428 0.219 0.22931 0.0
H4 H 0.38971 0.25636 0.25504 0.0
H5 H 0.34935 0.36813 0.24056 0.0
H6 H 0.30857 0.38765 0.21339 0.0
H7 H 0.30327 0.31591 0.14727 0.0
H8 H 0.34368 0.29629 0.17468 0.0
H9 H 0.37214 0.30323 0.30175 0.0
H10 H 0.31307 0.27341 0.22495 0.0
O11 O 0.39787 0.33777 0.25372 0.0
H12 H 0.33676 0.2696 0.33594 0.0
H13 H 0.27723 0.24106 0.25883 0.0
C14 C 0.3935 0.28647 0.21587 0.0
C15 C 0.40555 0.29174 0.18591 0.0
C16 C 0.41979 0.27025 0.17106 0.0
C17 C 0.42289 0.24359 0.18632 0.0
C18 C 0.41234 0.23931 0.21694 0.0
C19 C 0.39794 0.2606 0.23159 0.0
C20 C 0.35018 0.3312 0.20926 0.0
C21 C 0.34022 0.35722 0.21959 0.0
C22 C 0.31672 0.36818 0.20424 0.0
C23 C 0.30273 0.35321 0.1783 0.0
C24 C 0.31396 0.32813 0.16694 0.0
C25 C 0.33728 0.31703 0.1825 0.0
C26 C 0.34498 0.29122 0.26091 0.0
C27 C 0.35123 0.29002 0.29238 0.0
C28 C 0.33096 0.27084 0.31189 0.0
C29 C 0.30425 0.25251 0.30007 0.0
C30 C 0.29782 0.25447 0.26862 0.0
C31 C 0.31814 0.27336 0.24923 0.0
P32 P 0.2141 0.80696 0.68717 0.0
H33 H 0.27592 0.82138 0.71204 0.0
H34 H 0.29551 0.83235 0.76388 0.0
H35 H 0.20124 0.81721 0.79967 0.0
H36 H 0.18171 0.80554 0.74756 0.0
H37 H 0.23351 0.78389 0.62893 0.0
H38 H 0.25739 0.74051 0.61748 0.0
H39 H 0.23441 0.7065 0.70942 0.0
H40 H 0.2108 0.75032 0.72082 0.0
H41 H 0.181 0.85225 0.7106 0.0
H42 H 0.16235 0.77602 0.65 0.0
O43 O 0.23643 0.8324 0.66492 0.0
H44 H 0.13369 0.86829 0.69421 0.0
H45 H 0.11456 0.79203 0.63332 0.0
C46 C 0.2274 0.81376 0.72589 0.0
C47 C 0.25945 0.82035 0.73104 0.0
C48 C 0.27062 0.82628 0.76069 0.0
C49 C 0.24985 0.82574 0.78572 0.0
C50 C 0.21768 0.81806 0.78067 0.0
C51 C 0.20654 0.81164 0.75094 0.0
C52 C 0.22125 0.77066 0.67595 0.0
C53 C 0.23279 0.76667 0.64634 0.0
C54 C 0.24631 0.74171 0.63977 0.0
C55 C 0.24836 0.72036 0.66278 0.0
C56 C 0.23372 0.7229 0.69144 0.0
C57 C 0.22012 0.74787 0.69794 0.0
C58 C 0.17488 0.81261 0.68202 0.0
C59 C 0.16595 0.83818 0.69477 0.0
C60 C 0.13877 0.84735 0.68536 0.0
C61 C 0.12031 0.83143 0.66244 0.0
C62 C 0.12836 0.80478 0.65097 0.0
C63 C 0.15557 0.79551 0.66061 0.0
P64 P 0.68416 0.34401 0.83858 0.0
H65 H 0.75013 0.3393 0.84208 0.0
H66 H 0.79387 0.36556 0.87115 0.0
H67 H 0.73405 0.42012 0.91402 0.0
H68 H 0.68982 0.39357 0.88427 0.0
H69 H 0.63762 0.29148 0.82282 0.0
H70 H 0.61111 0.24833 0.8523 0.0
H71 H 0.64973 0.29 0.93601 0.0
H72 H 0.6768 0.33272 0.90613 0.0
H73 H 0.70808 0.39654 0.80071 0.0
H74 H 0.6181 0.34393 0.82202 0.0
O75 O 0.70009 0.32405 0.81258 0.0
H76 H 0.68529 0.42303 0.76067 0.0
H77 H 0.59468 0.37097 0.78261 0.0
C78 C 0.71651 0.3646 0.86054 0.0
C79 C 0.7462 0.35705 0.85746 0.0
C80 C 0.77143 0.37221 0.87417 0.0
C81 C 0.76775 0.39522 0.89488 0.0
C82 C 0.73781 0.40248 0.8984 0.0
C83 C 0.7125 0.38744 0.88126 0.0
C84 C 0.65915 0.31572 0.86204 0.0
C85 C 0.63989 0.29168 0.84761 0.0
C86 C 0.62466 0.26682 0.86465 0.0
C87 C 0.62823 0.26518 0.89679 0.0
C88 C 0.64671 0.28991 0.91132 0.0
C89 C 0.662 0.31476 0.89419 0.0
C90 C 0.6649 0.36848 0.81505 0.0
C91 C 0.68315 0.39132 0.7975 0.0
C92 C 0.66994 0.40653 0.77435 0.0
C93 C 0.63789 0.39934 0.76782 0.0
C94 C 0.61947 0.37702 0.78625 0.0
C95 C 0.63282 0.36169 0.80932 0.0
P96 P 0.84365 0.6965 0.3254 0.0
H97 H 0.87279 0.75615 0.30371 0.0
H98 H 0.89819 0.80142 0.33012 0.0
H99 H 0.89382 0.75167 0.41529 0.0
H100 H 0.86852 0.7063 0.38853 0.0
H101 H 0.82065 0.64674 0.28466 0.0
H102 H 0.84503 0.62022 0.24511 0.0
H103 H 0.93491 0.67148 0.26838 0.0
H104 H 0.91018 0.6975 0.30862 0.0
H105 H 0.79995 0.71485 0.36893 0.0
H106 H 0.82714 0.63158 0.34254 0.0
O107 O 0.82112 0.71207 0.30195 0.0
H108 H 0.75875 0.68768 0.4019 0.0
H109 H 0.78503 0.60394 0.3747 0.0
C110 C 0.86836 0.7278 0.34412 0.0
C111 C 0.87768 0.75482 0.32798 0.0
C112 C 0.89198 0.78084 0.34323 0.0
C113 C 0.89762 0.7805 0.37505 0.0
C114 C 0.88989 0.7529 0.39082 0.0
C115 C 0.87538 0.72684 0.37551 0.0
C116 C 0.86353 0.67379 0.30014 0.0
C117 C 0.84571 0.65184 0.28178 0.0
C118 C 0.85971 0.63694 0.25874 0.0
C119 C 0.89204 0.64377 0.25309 0.0
C120 C 0.91003 0.66532 0.2721 0.0
C121 C 0.89589 0.68027 0.29525 0.0
C122 C 0.81664 0.67539 0.35303 0.0
C123 C 0.79719 0.69066 0.37039 0.0
C124 C 0.77332 0.67498 0.38902 0.0
C125 C 0.76798 0.64344 0.39066 0.0
C126 C 0.78835 0.62819 0.37414 0.0
C127 C 0.81244 0.64401 0.35551 0.0
P128 P 0.73292 0.82909 0.84995 0.0
H129 H 0.72591 0.85509 0.90982 0.0
H130 H 0.68175 0.86992 0.93635 0.0
H131 H 0.62077 0.82834 0.86488 0.0
H132 H 0.66559 0.81418 0.83801 0.0
H133 H 0.78904 0.80874 0.83087 0.0
H134 H 0.81603 0.7699 0.84982 0.0
H135 H 0.74328 0.74407 0.91801 0.0
H136 H 0.71598 0.78296 0.89854 0.0
H137 H 0.71364 0.87135 0.80787 0.0
H138 H 0.73465 0.78208 0.8028 0.0
O139 O 0.75953 0.86005 0.85484 0.0
H140 H 0.71434 0.87436 0.75184 0.0
H141 H 0.73611 0.78526 0.74661 0.0
C142 C 0.69905 0.8341 0.87175 0.0
C143 C 0.70296 0.84878 0.9001 0.0
C144 C 0.67757 0.85706 0.91535 0.0
C145 C 0.64765 0.85053 0.90263 0.0
C146 C 0.64357 0.83417 0.87501 0.0
C147 C 0.66912 0.82592 0.85972 0.0
C148 C 0.7504 0.79847 0.86305 0.0
C149 C 0.77861 0.79439 0.84957 0.0
C150 C 0.79395 0.77214 0.86034 0.0
C151 C 0.78162 0.75383 0.88523 0.0
C152 C 0.75325 0.7579 0.89878 0.0
C153 C 0.73763 0.78002 0.88763 0.0
C154 C 0.725 0.82693 0.80945 0.0
C155 C 0.71761 0.8521 0.79466 0.0
C156 C 0.71778 0.85368 0.76261 0.0
C157 C 0.72564 0.83014 0.74488 0.0
C158 C 0.7303 0.80382 0.75978 0.0
C159 C 0.72972 0.80212 0.79191 0.0
P160 P 0.87742 0.30295 0.31441 0.0
H161 H 0.86561 0.3637 0.32606 0.0
H162 H 0.82387 0.38214 0.35386 0.0
H163 H 0.78534 0.29153 0.38232 0.0
H164 H 0.82754 0.27348 0.35522 0.0
H165 H 0.91995 0.26507 0.29258 0.0
H166 H 0.94685 0.22933 0.31826 0.0
H167 H 0.91076 0.25364 0.40597 0.0
H168 H 0.88503 0.29002 0.38026 0.0
H169 H 0.85754 0.31563 0.25229 0.0
H170 H 0.84576 0.24068 0.31517 0.0
O171 O 0.90153 0.33102 0.29719 0.0
H172 H 0.82172 0.28569 0.21632 0.0
H173 H 0.8101 0.21093 0.27963 0.0
C174 C 0.84982 0.31725 0.33876 0.0
C175 C 0.84853 0.3479 0.33878 0.0
C176 C 0.82446 0.35837 0.35446 0.0
C177 C 0.80112 0.3383 0.3702 0.0
C178 C 0.80309 0.30768 0.37081 0.0
C179 C 0.82716 0.29729 0.35517 0.0
C180 C 0.90007 0.27978 0.33444 0.0
C181 C 0.91822 0.26294 0.3174 0.0
C182 C 0.93337 0.24236 0.33208 0.0
C183 C 0.93067 0.23831 0.36415 0.0
C184 C 0.91353 0.25628 0.38127 0.0
C185 C 0.89849 0.27695 0.36654 0.0
C186 C 0.85463 0.28021 0.28613 0.0
C187 C 0.8477 0.29262 0.25809 0.0
C188 C 0.82727 0.27555 0.23762 0.0
C189 C 0.81308 0.24608 0.24532 0.0
C190 C 0.82048 0.23368 0.27327 0.0
C191 C 0.84103 0.25061 0.29349 0.0
P192 P 0.37406 0.66815 0.20741 0.0
H193 H 0.35571 0.64709 0.1458 0.0
H194 H 0.30633 0.62595 0.12235 0.0
H195 H 0.25859 0.63586 0.20834 0.0
H196 H 0.30868 0.65736 0.23181 0.0
H197 H 0.43461 0.70679 0.197 0.0
H198 H 0.45054 0.75825 0.17918 0.0
H199 H 0.35461 0.77018 0.18254 0.0
H200 H 0.33883 0.71799 0.19942 0.0
H201 H 0.34765 0.61441 0.24354 0.0
H202 H 0.41473 0.69508 0.25769 0.0
O203 O 0.39942 0.65192 0.18751 0.0
H204 H 0.36253 0.594 0.29198 0.0
H205 H 0.43055 0.67455 0.3057 0.0
C206 C 0.33621 0.65324 0.19088 0.0
C207 C 0.33473 0.64458 0.15983 0.0
C208 C 0.3063 0.6323 0.14637 0.0
C209 C 0.27824 0.62862 0.16343 0.0
C210 C 0.27961 0.63826 0.19439 0.0
C211 C 0.30829 0.65045 0.20795 0.0
C212 C 0.38545 0.70822 0.19944 0.0
C213 C 0.41696 0.72052 0.19424 0.0
C214 C 0.4261 0.75026 0.18411 0.0
C215 C 0.404 0.76885 0.17905 0.0
C216 C 0.37242 0.75668 0.18547 0.0
C217 C 0.36329 0.72677 0.19551 0.0
C218 C 0.37923 0.65681 0.24711 0.0
C219 C 0.36501 0.62818 0.25746 0.0
C220 C 0.37406 0.61623 0.28509 0.0
C221 C 0.3981 0.63233 0.3031 0.0
C222 C 0.4117 0.66143 0.29303 0.0
C223 C 0.40254 0.67336 0.26539 0.0
P224 P 0.18213 0.34062 0.72629 0.0
H225 H 0.19702 0.31093 0.66979 0.0
H226 H 0.1692 0.26933 0.63998 0.0
H227 H 0.08819 0.26702 0.69848 0.0
H228 H 0.11613 0.30925 0.72806 0.0
H229 H 0.24735 0.36327 0.74036 0.0
H230 H 0.29111 0.39003 0.71038 0.0
H231 H 0.22945 0.3988 0.63535 0.0
H232 H 0.18558 0.37119 0.6656 0.0
H233 H 0.14142 0.32169 0.77913 0.0
H234 H 0.17774 0.40514 0.73325 0.0
O235 O 0.1997 0.31908 0.74874 0.0
H236 H 0.11906 0.34869 0.81967 0.0
H237 H 0.15608 0.43261 0.77438 0.0
C238 C 0.15854 0.31414 0.70077 0.0
C239 C 0.17292 0.3023 0.67568 0.0
C240 C 0.15697 0.27822 0.65865 0.0
C241 C 0.12634 0.2647 0.66668 0.0
C242 C 0.1118 0.27672 0.69169 0.0
C243 C 0.12772 0.30115 0.70851 0.0
C244 C 0.21318 0.36469 0.70511 0.0
C245 C 0.24309 0.37109 0.71755 0.0
C246 C 0.26822 0.38664 0.70032 0.0
C247 C 0.2641 0.39651 0.67016 0.0
C248 C 0.23374 0.3911 0.6582 0.0
C249 C 0.20852 0.37553 0.67559 0.0
C250 C 0.16112 0.3612 0.75283 0.0
C251 C 0.14418 0.34586 0.77747 0.0
C252 C 0.13174 0.36147 0.80101 0.0
C253 C 0.13604 0.39304 0.80082 0.0
C254 C 0.15207 0.40836 0.77542 0.0
C255 C 0.16453 0.39261 0.75176 0.0
Tb256 Tb 0.04094 0.02732 0.49938 0.0
Tb257 Tb 0.97483 0.02309 0.53712 0.0
C258 C 0.98416 0.97569 0.48605 0.0
C259 C 0.1143 0.05458 0.45533 0.0
C260 C 0.15758 0.09949 0.42565 0.0
C261 C 0.16732 0.0747 0.43938 0.0
C262 C 0.14583 0.05242 0.45401 0.0
C263 C 0.10441 0.07948 0.44222 0.0
C264 C 0.12588 0.10171 0.42737 0.0
C265 C 0.09229 0.03096 0.47106 0.0
O266 O 1.01214 0.05087 0.47125 0.0
O267 O 0.98045 0.06348 0.50955 0.0
O268 O 1.00905 0.05508 0.56256 0.0
O269 O 0.04524 0.06965 0.52411 0.0
O270 O 0.92753 0.0258 0.53551 0.0
O271 O 0.94917 1.01824 0.5786 0.0
O272 O 0.99386 0.98479 0.55281 0.0
O273 O 0.04502 1.00423 0.54244 0.0
O274 O 0.01446 0.98298 0.48916 0.0
O275 O 0.96531 0.99245 0.49792 0.0
C276 C 0.99266 0.06747 0.48183 0.0
O277 O 0.0897 0.03411 0.5007 0.0
O278 O 0.06529 0.02272 0.45824 0.0
C279 C 0.03307 0.074 0.55122 0.0
C280 C 0.89665 0.99602 0.57276 0.0
C281 C 0.84612 0.95104 0.59018 0.0
C282 C 0.85335 0.97778 0.60717 0.0
C283 C 0.87829 1.00005 0.59846 0.0
C284 C 0.88967 0.9695 0.55555 0.0
C285 C 0.86451 0.94719 0.56416 0.0
C286 C 0.92317 1.0196 0.56472 0.0
C287 C 0.02356 0.98433 0.556 0.0
H288 H 0.19161 0.07255 0.43899 0.0
H289 H 0.15386 0.0335 0.46436 0.0
H290 H 0.08012 0.08163 0.44329 0.0
H291 H 0.11753 0.12031 0.41678 0.0
H292 H 0.84029 0.98125 0.6278 0.0
H293 H 0.88353 1.02031 0.61209 0.0
H294 H 0.90375 0.96599 0.53563 0.0
H295 H 0.85953 0.92696 0.55051 0.0
Tb296 Tb 0.5382 0.02582 0.06632 0.0
Tb297 Tb 0.47433 0.02201 0.02713 0.0
C298 C 0.524 0.98286 1.01036 0.0
C299 C 0.6122 0.05521 0.10495 0.0
C300 C 0.65756 0.10309 0.12525 0.0
C301 C 0.66241 0.07333 0.12768 0.0
C302 C 0.63984 0.04958 0.11764 0.0
C303 C 0.60755 0.08486 0.10168 0.0
C304 C 0.63003 0.10863 0.11184 0.0
C305 C 0.58808 0.03007 0.09581 0.0
O306 O 0.55006 0.05665 0.02706 0.0
O307 O 0.50156 0.06604 1.01583 0.0
O308 O 0.46818 0.04657 0.06911 0.0
O309 O 0.51911 0.06461 0.08034 0.0
O310 O 0.45157 0.0263 0.9856 0.0
O311 O 0.42552 1.01411 0.02766 0.0
O312 O 0.46973 0.97893 0.05092 0.0
O313 O 0.50253 0.99362 0.09096 0.0
O314 O 0.53429 0.98582 0.03853 0.0
O315 O 0.50547 0.99993 0.99932 0.0
C316 C 0.53207 0.07322 1.01374 0.0
O317 O 0.5608 0.02923 0.10872 0.0
O318 O 0.58606 0.02484 0.06633 0.0
C319 C 0.48952 0.066 0.08288 0.0
C320 C 0.4045 0.9922 0.98216 0.0
C321 C 0.3668 0.94501 0.9511 0.0
C322 C 0.35629 0.9721 0.95664 0.0
C323 C 0.37505 0.99554 0.97204 0.0
C324 C 0.41487 0.96501 0.97735 0.0
C325 C 0.39619 0.94161 0.96183 0.0
C326 C 0.42415 1.01702 0.99793 0.0
C327 C 0.48009 0.97413 0.07842 0.0
H328 H 0.6832 0.06834 0.13825 0.0
H329 H 0.64374 0.02678 0.12027 0.0
H330 H 0.58635 0.08956 0.09167 0.0
H331 H 0.62581 0.13133 0.10941 0.0
H332 H 0.33393 0.9755 0.94829 0.0
H333 H 0.36672 1.01638 0.97575 0.0
H334 H 0.4375 0.96203 0.98537 0.0
H335 H 0.40476 0.92089 0.95812 0.0
Tb336 Tb 0.52104 0.48477 0.51375 0.0
Tb337 Tb 0.51897 0.54555 0.55349 0.0
C338 C 0.4894 0.53755 0.48764 0.0
C339 C 0.55379 0.42515 0.4748 0.0
C340 C 0.60689 0.40241 0.45569 0.0
C341 C 0.5774 0.39055 0.44382 0.0
C342 C 0.55108 0.4019 0.45327 0.0
C343 C 0.58295 0.43656 0.48732 0.0
C344 C 0.60927 0.4253 0.47786 0.0
C345 C 0.52673 0.4389 0.48256 0.0
O346 O 0.56851 0.51036 0.51186 0.0
O347 O 0.55804 0.55723 0.52152 0.0
O348 O 0.55157 0.52269 0.57804 0.0
O349 O 0.53425 0.47504 0.56058 0.0
O350 O 0.52096 0.59213 0.55535 0.0
O351 O 0.51494 0.56537 0.59671 0.0
O352 O 0.47924 0.51294 0.56944 0.0
O353 O 0.47254 0.47908 0.52965 0.0
O354 O 0.50598 0.51662 0.48185 0.0
O355 O 0.4864 0.54719 0.51588 0.0
C356 C 0.57645 0.53973 0.51052 0.0
O357 O 0.5183 0.438 0.51142 0.0
O358 O 0.52745 0.4654 0.47084 0.0
C359 C 0.54941 0.49346 0.58088 0.0
C360 C 0.486 0.60384 0.59323 0.0
C361 C 0.43117 0.62373 0.61208 0.0
C362 C 0.45721 0.62726 0.63139 0.0
C363 C 0.48439 0.61742 0.62199 0.0
C364 C 0.46012 0.60024 0.57389 0.0
C365 C 0.43306 0.61026 0.58313 0.0
C366 C 0.51366 0.59134 0.58455 0.0
C367 C 0.46237 0.49044 0.5549 0.0
H368 H 0.57469 0.37264 0.42704 0.0
H369 H 0.52873 0.3929 0.44335 0.0
H370 H 0.58548 0.45466 0.50388 0.0
H371 H 0.63163 0.43523 0.48717 0.0
H372 H 0.45642 0.63711 0.65401 0.0
H373 H 0.50397 0.61992 0.63741 0.0
H374 H 0.46068 0.58944 0.55171 0.0
H375 H 0.41369 0.60759 0.56747 0.0
Tb376 Tb 0.02079 0.54881 1.01077 0.0
Tb377 Tb 0.01851 0.48788 0.05071 0.0
C378 C 0.05008 0.49567 0.98424 0.0
C379 C 0.99243 0.60994 0.97172 0.0
C380 C 0.94159 0.63725 0.95671 0.0
C381 C 0.97214 0.65374 0.9555 0.0
C382 C 0.99738 0.64015 0.96292 0.0
C383 C 0.962 0.59342 0.9731 0.0
C384 C 0.93679 0.60692 0.96551 0.0
C385 C 0.01878 0.59596 0.9806 0.0
O386 O 0.98185 0.51651 0.993 0.0
O387 O 0.97081 0.48459 0.03422 0.0
O388 O 1.00445 0.52074 0.08217 0.0
O389 O 0.98604 0.55047 0.04712 0.0
O390 O 1.01087 0.44082 0.05376 0.0
O391 O 0.02472 0.46823 0.09338 0.0
O392 O 0.0669 0.5112 0.05233 0.0
O393 O 0.0588 0.55889 0.04355 0.0
O394 O 0.05351 0.52501 0.98692 0.0
O395 O 0.03317 0.47775 1.00427 0.0
C396 C 0.96304 0.49496 1.00765 0.0
O397 O 0.02392 0.5956 1.01002 0.0
O398 O 0.01988 0.57011 0.96799 0.0
C399 C 0.98832 0.54168 0.07568 0.0
C400 C 0.04727 0.42566 0.0873 0.0
C401 C 0.10159 0.40312 0.10123 0.0
C402 C 0.07797 0.40314 0.12362 0.0
C403 C 0.05106 0.41426 0.11666 0.0
C404 C 0.07032 0.42497 0.0646 0.0
C405 C 0.09711 0.4136 0.07145 0.0
C406 C 0.02126 0.44142 0.08175 0.0
C407 C 0.07605 0.5404 0.05437 0.0
H408 H 0.97655 0.67707 0.94849 0.0
H409 H 0.02071 0.65323 0.96191 0.0
H410 H 0.95772 0.57012 0.98025 0.0
H411 H 0.91352 0.59376 0.967 0.0
H412 H 0.08078 0.39574 0.14693 0.0
H413 H 0.03374 0.41504 0.13458 0.0
H414 H 0.06807 0.43401 0.04183 0.0
H415 H 0.11455 0.41352 0.05352 0.0
H416 H 0.27763 0.19522 0.28548 0.0
H417 H 0.28472 0.25958 0.35955 0.0
H418 H 0.2426 0.15928 0.31667 0.0
H419 H 0.25073 0.22278 0.39158 0.0
H420 H 0.16075 0.16052 0.425 0.0
H421 H 0.1968 0.19775 0.39558 0.0
H422 H 0.24288 0.12775 0.3605 0.0
H423 H 0.20591 0.09049 0.3884 0.0
C424 C 0.27169 0.20173 0.30846 0.0
C425 C 0.28375 0.23041 0.31991 0.0
C426 C 0.25193 0.18092 0.32654 0.0
C427 C 0.24394 0.18808 0.35669 0.0
C428 C 0.2562 0.21667 0.36833 0.0
C429 C 0.27594 0.23762 0.35012 0.0
C430 C 0.17841 0.15307 0.41079 0.0
C431 C 0.18033 0.12249 0.40896 0.0
C432 C 0.19934 0.17447 0.39426 0.0
C433 C 0.22267 0.16573 0.3756 0.0
C434 C 0.22492 0.13522 0.37429 0.0
C435 C 0.20394 0.11387 0.39064 0.0
H436 H 0.29742 0.80774 0.81635 0.0
H437 H 0.23016 0.86647 0.82356 0.0
H438 H 0.32347 0.83075 0.86205 0.0
H439 H 0.25654 0.8901 0.86861 0.0
H440 H 0.38696 0.91316 0.90436 0.0
H441 H 0.3557 0.87847 0.86967 0.0
H442 H 0.27263 0.88824 0.92094 0.0
H443 H 0.30415 0.92356 0.95546 0.0
C444 C 0.288 0.82531 0.82803 0.0
C445 C 0.26201 0.83558 0.81633 0.0
C446 C 0.30296 0.83857 0.85407 0.0
C447 C 0.29242 0.86262 0.86871 0.0
C448 C 0.26515 0.87147 0.85814 0.0
C449 C 0.25002 0.85799 0.83227 0.0
C450 C 0.36212 0.90741 0.90863 0.0
C451 C 0.34797 0.92122 0.93247 0.0
C452 C 0.34414 0.8874 0.8888 0.0
C453 C 0.31159 0.88059 0.89245 0.0
C454 C 0.29759 0.89336 0.91721 0.0
C455 C 0.3156 0.91356 0.93696 0.0
H456 H 0.58973 0.37513 0.72942 0.0
H457 H 0.65488 0.45727 0.74486 0.0
H458 H 0.56864 0.39818 0.68599 0.0
H459 H 0.63506 0.47971 0.70018 0.0
H460 H 0.57468 0.52224 0.63327 0.0
H461 H 0.59496 0.5004 0.67835 0.0
H462 H 0.57721 0.41336 0.635 0.0
H463 H 0.55607 0.43504 0.59062 0.0
C464 C 0.59961 0.39817 0.72379 0.0
C465 C 0.62424 0.41407 0.74119 0.0
C466 C 0.58774 0.41136 0.69828 0.0
C467 C 0.6001 0.44099 0.68889 0.0
C468 C 0.6245 0.45702 0.70648 0.0
C469 C 0.63627 0.44387 0.73211 0.0
C470 C 0.57518 0.49845 0.63329 0.0
C471 C 0.56354 0.48054 0.60806 0.0
C472 C 0.58701 0.48581 0.65926 0.0
C473 C 0.58779 0.45482 0.66089 0.0
C474 C 0.57655 0.4371 0.63533 0.0
C475 C 0.56456 0.44968 0.60953 0.0
H476 H 0.8685 0.62978 0.1954 0.0
H477 H 0.94859 0.62455 0.25085 0.0
H478 H 0.89092 0.605 0.15327 0.0
H479 H 0.97161 0.60068 0.20818 0.0
H480 H 0.98929 0.53006 0.13767 0.0
H481 H 0.96648 0.55459 0.1798 0.0
H482 H 0.93128 0.61168 0.11462 0.0
H483 H 0.95368 0.58673 0.07235 0.0
C484 C 0.89089 0.62329 0.19874 0.0
C485 C 0.9065 0.6291 0.22689 0.0
C486 C 0.904 0.60935 0.17427 0.0
C487 C 0.9332 0.60066 0.17705 0.0
C488 C 0.94893 0.60662 0.20513 0.0
C489 C 0.93584 0.62068 0.2296 0.0
C490 C 0.97658 0.54776 0.1322 0.0
C491 C 0.97336 0.55625 0.10138 0.0
C492 C 0.96366 0.56207 0.15652 0.0
C493 C 0.947 0.58534 0.1509 0.0
C494 C 0.94358 0.59368 0.12003 0.0
C495 C 0.95658 0.57939 0.09567 0.0
H496 H 0.4096 0.22212 0.12843 0.0
H497 H 0.46433 0.2103 0.20802 0.0
H498 H 0.42663 0.1794 0.10368 0.0
H499 H 0.48074 0.16713 0.1836 0.0
H500 H 0.52668 0.10958 0.11573 0.0
H501 H 0.51217 0.15368 0.1399 0.0
H502 H 0.41706 0.12447 0.11191 0.0
H503 H 0.43151 0.08052 0.08741 0.0
C504 C 0.42557 0.21063 0.14047 0.0
C505 C 0.43557 0.21951 0.17019 0.0
C506 C 0.435 0.18594 0.12647 0.0
C507 C 0.45477 0.16974 0.14184 0.0
C508 C 0.46559 0.17923 0.17114 0.0
C509 C 0.45603 0.20381 0.1852 0.0
C510 C 0.50261 0.11243 0.11487 0.0
C511 C 0.48025 0.0915 0.09961 0.0
C512 C 0.49432 0.13769 0.12879 0.0
C513 C 0.46354 0.14265 0.1276 0.0
C514 C 0.44108 0.12149 0.11277 0.0
C515 C 0.44932 0.09616 0.09898 0.0
H516 H 0.1111 0.83548 0.60093 0.0
H517 H 0.07683 0.86075 0.68902 0.0
H518 H 0.08221 0.86921 0.57524 0.0
H519 H 0.04823 0.89508 0.66303 0.0
H520 H 0.98881 0.94336 0.59526 0.0
H521 H 1.00572 0.90091 0.62106 0.0
H522 H 0.09717 0.92678 0.58009 0.0
H523 H 0.08077 0.96889 0.55481 0.0
C524 C 0.09655 0.84741 0.61478 0.0
C525 C 0.09653 0.84567 0.64707 0.0
C526 C 0.08026 0.86696 0.60004 0.0
C527 C 0.06351 0.88507 0.61724 0.0
C528 C 0.06105 0.88137 0.64929 0.0
C529 C 0.07753 0.86187 0.66412 0.0
C530 C 1.01253 0.93997 0.59191 0.0
C531 C 0.03346 0.95952 0.57304 0.0
C532 C 0.02213 0.91573 0.60662 0.0
C533 C 0.05255 0.91039 0.60211 0.0
C534 C 0.0734 0.93007 0.58347 0.0
C535 C 0.06405 0.9544 0.56925 0.0
H536 H 0.82705 0.41534 0.87316 0.0
H537 H 0.7712 0.41171 0.95617 0.0
H538 H 0.87261 0.43945 0.9013 0.0
H539 H 0.817 0.43636 0.98446 0.0
H540 H 0.91608 0.45012 0.02944 0.0
H541 H 0.86827 0.42722 1.00329 0.0
H542 H 0.89379 0.48678 0.92602 0.0
H543 H 0.94126 0.50945 0.95184 0.0
C544 C 0.82444 0.41968 0.89747 0.0
C545 C 0.79529 0.4114 0.9123 0.0
C546 C 0.85062 0.43381 0.91362 0.0
C547 C 0.84869 0.43999 0.94528 0.0
C548 C 0.81953 0.43179 0.96019 0.0
C549 C 0.79315 0.41791 0.94388 0.0
C550 C 0.91143 0.45844 1.00694 0.0
C551 C 0.93287 0.48161 0.99282 0.0
C552 C 0.88387 0.44537 0.99196 0.0
C553 C 0.8771 0.4549 0.96232 0.0
C554 C 0.89831 0.47841 0.94854 0.0
C555 C 0.92562 0.49158 0.96353 0.0
H556 H 0.76386 0.5921 0.42617 0.0
H557 H 0.70933 0.6567 0.39539 0.0
H558 H 0.71896 0.56619 0.45592 0.0
H559 H 0.6649 0.63109 0.42501 0.0
H560 H 0.60104 0.59948 0.50535 0.0
H561 H 0.64763 0.62314 0.47754 0.0
H562 H 0.66638 0.53606 0.45193 0.0
H563 H 0.6197 0.51216 0.48037 0.0
C564 C 0.74232 0.60072 0.42555 0.0
C565 C 0.74055 0.62684 0.40857 0.0
C566 C 0.71652 0.58583 0.44264 0.0
C567 C 0.68826 0.59667 0.44327 0.0
C568 C 0.6864 0.62243 0.42582 0.0
C569 C 0.71204 0.63721 0.40877 0.0
C570 C 0.61509 0.58523 0.49399 0.0
C571 C 0.60633 0.55381 0.4951 0.0
C572 C 0.64183 0.59889 0.47778 0.0
C573 C 0.66075 0.58162 0.46205 0.0
C574 C 0.65254 0.55014 0.46385 0.0
C575 C 0.62565 0.53641 0.48011 0.0
H576 H 0.28922 0.36075 0.11767 0.0
H577 H 0.25174 0.36364 0.20985 0.0
H578 H 0.24047 0.3716 0.09684 0.0
H579 H 0.20334 0.37443 0.18914 0.0
H580 H 0.1103 0.35729 0.1395 0.0
H581 H 0.15953 0.34536 0.15681 0.0
H582 H 0.20974 0.41542 0.09867 0.0
H583 H 0.16066 0.42818 0.08203 0.0
C584 C 0.27063 0.36385 0.13341 0.0
C585 C 0.27429 0.36158 0.16535 0.0
C586 C 0.24286 0.37011 0.12154 0.0
C587 C 0.21814 0.37363 0.14141 0.0
C588 C 0.22192 0.3715 0.17331 0.0
C589 C 0.24973 0.36568 0.18515 0.0
C590 C 0.13179 0.37028 0.13047 0.0
C591 C 0.13142 0.39386 0.10953 0.0
C592 C 0.15995 0.36336 0.14032 0.0
C593 C 0.18838 0.3796 0.12919 0.0
C594 C 0.18813 0.4024 0.10741 0.0
C595 C 0.15996 0.40958 0.09781 0.0
H596 H 0.57187 0.22745 0.88748 0.0
H597 H 0.65152 0.23921 0.94692 0.0
H598 H 0.54975 0.18148 0.91466 0.0
H599 H 0.62857 0.19407 0.9752 0.0
H600 H 0.59421 0.09544 1.00165 0.0
H601 H 0.61705 0.14112 0.97385 0.0
H602 H 0.52521 0.16113 0.96019 0.0
H603 H 0.50248 0.11515 0.98706 0.0
C604 C 0.58476 0.22038 0.90638 0.0
C605 C 0.61372 0.23744 0.91471 0.0
C606 C 0.57177 0.194 0.92236 0.0
C607 C 0.58716 0.18365 0.94741 0.0
C608 C 0.61601 0.20082 0.9559 0.0
C609 C 0.62904 0.22718 0.93985 0.0
C610 C 0.57885 0.10951 0.99263 0.0
C611 C 0.54637 0.10126 0.99662 0.0
C612 C 0.59201 0.13599 0.9768 0.0
C613 C 0.57317 0.15522 0.9645 0.0
C614 C 0.54068 0.14692 0.96867 0.0
C615 C 0.52755 0.12043 0.98436 0.0
H616 H 0.88218 0.83612 0.36753 0.0
H617 H 0.94156 0.78974 0.42073 0.0
H618 H 0.90266 0.88269 0.39422 0.0
H619 H 0.96167 0.83632 0.4479 0.0
H620 H 0.0154 0.93229 0.4647 0.0
H621 H 0.99447 0.88552 0.4387 0.0
H622 H 0.90225 0.9069 0.44473 0.0
H623 H 0.92322 0.95393 0.47071 0.0
C624 C 0.89973 0.83583 0.38484 0.0
C625 C 0.9103 0.80903 0.39174 0.0
C626 C 0.91123 0.86256 0.40044 0.0
C627 C 0.93388 0.86345 0.42331 0.0
C628 C 0.94447 0.83666 0.43025 0.0
C629 C 0.93273 0.80982 0.41483 0.0
C630 C 0.99063 0.92716 0.46048 0.0
C631 C 0.97109 0.94716 0.46979 0.0
C632 C 0.97858 0.9001 0.44571 0.0
C633 C 0.9466 0.89224 0.43954 0.0
C634 C 0.92703 0.91227 0.44876 0.0
C635 C 0.93907 0.93926 0.4638 0.0
H636 H 0.25593 0.68644 0.6118 0.0
H637 H 0.29036 0.70657 0.70358 0.0
H638 H 0.29863 0.65942 0.60157 0.0
H639 H 0.33239 0.67908 0.69357 0.0
H640 H 0.42613 0.67468 0.64399 0.0
H641 H 0.37892 0.69269 0.6589 0.0
H642 H 0.32329 0.61524 0.61671 0.0
H643 H 0.37061 0.59665 0.60236 0.0
C644 C 0.27219 0.68453 0.62997 0.0
C645 C 0.26986 0.69878 0.65842 0.0
C646 C 0.29651 0.66894 0.62418 0.0
C647 C 0.31902 0.66752 0.64666 0.0
C648 C 0.31558 0.68018 0.67569 0.0
C649 C 0.29124 0.69559 0.68154 0.0
C650 C 0.40388 0.66114 0.63837 0.0
C651 C 0.40224 0.63422 0.62194 0.0
C652 C 0.37681 0.67149 0.6469 0.0
C653 C 0.34743 0.65529 0.63905 0.0
C654 C 0.34565 0.62827 0.62284 0.0
C655 C 0.37277 0.61775 0.61452 0.0
H656 H 0.77834 0.8198 0.71674 0.0
H657 H 0.69429 0.85429 0.69977 0.0
H658 H 0.80118 0.84246 0.66956 0.0
H659 H 0.71666 0.87619 0.65133 0.0
H660 H 0.78955 0.95671 0.61481 0.0
H661 H 0.754 0.91927 0.64352 0.0
H662 H 0.80803 0.85203 0.61708 0.0
H663 H 0.84509 0.89029 0.5903 0.0
C664 C 0.76416 0.83107 0.70212 0.0
C665 C 0.73474 0.83571 0.71217 0.0
C666 C 0.77727 0.84412 0.67484 0.0
C667 C 0.7611 0.86187 0.6568 0.0
C668 C 0.73018 0.86347 0.66511 0.0
C669 C 0.71722 0.85076 0.69271 0.0
C670 C 0.79378 0.9339 0.61496 0.0
C671 C 0.82075 0.92677 0.60112 0.0
C672 C 0.77298 0.91216 0.63101 0.0
C673 C 0.77836 0.88255 0.63323 0.0
C674 C 0.80357 0.87475 0.61657 0.0
C675 C 0.82468 0.89666 0.60087 0.0
H676 H 0.75622 0.215 0.26195 0.0
H677 H 0.81715 0.23756 0.18312 0.0
H678 H 0.71849 0.18353 0.22969 0.0
H679 H 0.77903 0.20612 0.15052 0.0
H680 H 0.7211 0.11262 0.12007 0.0
H681 H 0.75846 0.15044 0.14661 0.0
H682 H 0.68268 0.18758 0.18643 0.0
H683 H 0.64537 0.14947 0.16047 0.0
C684 C 0.76144 0.21327 0.23765 0.0
C685 C 0.78967 0.22848 0.22504 0.0
C686 C 0.73972 0.19552 0.21912 0.0
C687 C 0.74581 0.19243 0.18759 0.0
C688 C 0.77384 0.20802 0.1748 0.0
C689 C 0.79551 0.22609 0.19336 0.0
C690 C 0.71248 0.12901 0.13434 0.0
C691 C 0.68033 0.12796 0.13838 0.0
C692 C 0.73385 0.15081 0.14927 0.0
C693 C 0.72344 0.17181 0.16871 0.0
C694 C 0.69133 0.17147 0.1718 0.0
C695 C 0.66999 0.14982 0.15673 0.0
H696 H 0.42034 0.65931 0.35773 0.0
H697 H 0.40336 0.57318 0.31264 0.0
H698 H 0.44157 0.63681 0.40179 0.0
H699 H 0.42316 0.55052 0.35711 0.0
H700 H 0.49144 0.52387 0.42608 0.0
H701 H 0.4693 0.5466 0.38297 0.0
H702 H 0.43092 0.60467 0.44566 0.0
H703 H 0.45382 0.58227 0.48891 0.0
C704 C 0.42099 0.63557 0.35709 0.0
C705 C 0.40994 0.6183 0.33118 0.0
C706 C 0.43291 0.62249 0.38272 0.0
C707 C 0.43435 0.59165 0.3834 0.0
C708 C 0.42301 0.57436 0.35761 0.0
C709 C 0.4111 0.58741 0.33205 0.0
C710 C 0.4782 0.54141 0.43084 0.0
C711 C 0.47452 0.55104 0.46129 0.0
C712 C 0.46524 0.55444 0.40593 0.0
C713 C 0.44802 0.57762 0.41042 0.0
C714 C 0.44425 0.58721 0.44094 0.0
C715 C 0.45725 0.57414 0.46592 0.0
H716 H 0.13694 0.37957 0.86243 0.0
H717 H 0.11017 0.44456 0.80046 0.0
H718 H 0.11797 0.40507 0.90591 0.0
H719 H 0.09097 0.47021 0.84425 0.0
H720 H 0.08262 0.52367 0.93396 0.0
H721 H 0.10435 0.50027 0.88993 0.0
H722 H 0.07094 0.4129 0.92963 0.0
H723 H 0.05001 0.43612 0.97357 0.0
C724 C 0.12668 0.39914 0.85793 0.0
C725 C 0.12485 0.40961 0.8276 0.0
C726 C 0.11575 0.41388 0.88306 0.0
C727 C 0.10252 0.43971 0.87888 0.0
C728 C 0.10122 0.45061 0.84861 0.0
C729 C 0.11223 0.43581 0.82337 0.0
C730 C 0.08011 0.49947 0.93339 0.0
C731 C 0.06454 0.48192 0.95758 0.0
C732 C 0.09238 0.48598 0.90793 0.0
C733 C 0.0896 0.45454 0.90597 0.0
C734 C 0.07415 0.43713 0.9303 0.0
C735 C 0.06188 0.45055 0.9556 0.0
H736 H 0.63439 0.85482 0.96395 0.0
H737 H 0.60241 0.8749 0.87401 0.0
H738 H 0.59872 0.88339 0.98761 0.0
H739 H 0.56483 0.90181 0.89785 0.0
H740 H 0.54205 0.98541 0.9499 0.0
H741 H 0.56602 0.94839 0.92213 0.0
H742 H 0.54847 0.88866 1.00061 0.0
H743 H 0.52652 0.92653 0.0287 0.0
C744 C 0.61929 0.86488 0.94923 0.0
C745 C 0.6217 0.86297 0.91707 0.0
C746 C 0.59838 0.88097 0.96284 0.0
C747 C 0.57888 0.89521 0.94468 0.0
C748 C 0.57986 0.89165 0.91255 0.0
C749 C 0.60111 0.8758 0.89888 0.0
C750 C 0.54298 0.96413 0.96086 0.0
C751 C 0.53308 0.9589 0.99149 0.0
C752 C 0.55654 0.94279 0.94497 0.0
C753 C 0.55979 0.91563 0.95931 0.0
C754 C 0.54736 0.90964 0.98915 0.0
C755 C 0.53458 0.93122 1.00521 0.0
H756 H 0.93206 0.18152 0.34334 0.0
H757 H 0.95967 0.24079 0.41989 0.0
H758 H 0.95012 0.14094 0.37045 0.0
H759 H 0.97721 0.19998 0.44713 0.0
H760 H 0.96026 0.11055 0.50001 0.0
H761 H 0.94885 0.15247 0.47033 0.0
H762 H 0.99775 0.12422 0.39181 0.0
H763 H 1.00928 0.08177 0.42164 0.0
C764 C 0.94249 0.18609 0.36569 0.0
C765 C 0.9442 0.21441 0.37953 0.0
C766 C 0.95279 0.16279 0.38122 0.0
C767 C 0.96483 0.16723 0.41098 0.0
C768 C 0.96756 0.19578 0.42439 0.0
C769 C 0.95743 0.21912 0.40882 0.0
C770 C 0.96864 0.11312 0.47642 0.0
C771 C 0.98562 0.09268 0.46317 0.0
C772 C 0.9623 0.13737 0.4595 0.0
C773 C 0.97259 0.14176 0.42884 0.0
C774 C 0.98944 0.1213 0.4154 0.0
C775 C 0.99606 0.09706 0.43248 0.0
H776 H 0.26723 0.58084 0.12356 0.0
H777 H 0.22041 0.64476 0.16962 0.0
H778 H 0.2192 0.55977 0.0975 0.0
H779 H 0.172 0.62313 0.14407 0.0
H780 H 0.10029 0.59936 0.06701 0.0
H781 H 0.14809 0.61981 0.09381 0.0
H782 H 0.16759 0.53046 0.10502 0.0
H783 H 0.11984 0.50997 0.07789 0.0
C784 C 0.24669 0.59046 0.12819 0.0
C785 C 0.24801 0.61476 0.14869 0.0
C786 C 0.21892 0.5781 0.11341 0.0
C787 C 0.19145 0.58966 0.11845 0.0
C788 C 0.19265 0.61376 0.13921 0.0
C789 C 0.22042 0.62601 0.1542 0.0
C790 C 0.11476 0.58398 0.07505 0.0
C791 C 0.10601 0.5529 0.07004 0.0
C792 C 0.14218 0.59577 0.09073 0.0
C793 C 0.16193 0.57692 0.10184 0.0
C794 C 0.15329 0.54583 0.09662 0.0
C795 C 0.12574 0.53401 0.08108 0.0
H796 H 0.31492 0.43679 0.68947 0.0
H797 H 0.27606 0.39067 0.6081 0.0
H798 H 0.36114 0.45875 0.66023 0.0
H799 H 0.3219 0.41397 0.57828 0.0
H800 H 0.42514 0.43548 0.54368 0.0
H801 H 0.37639 0.4135 0.56999 0.0
H802 H 0.38012 0.49489 0.62258 0.0
H803 H 0.42885 0.51625 0.59717 0.0
C804 C 0.31611 0.43136 0.66527 0.0
C805 C 0.29158 0.41171 0.65135 0.0
C806 C 0.34261 0.44435 0.64829 0.0
C807 C 0.3455 0.43834 0.61667 0.0
C808 C 0.32081 0.41897 0.60259 0.0
C809 C 0.29423 0.40588 0.61966 0.0
C810 C 0.41539 0.4487 0.56072 0.0
C811 C 0.43124 0.47752 0.56849 0.0
C812 C 0.38732 0.43614 0.57579 0.0
C813 C 0.37429 0.45216 0.59888 0.0
C814 C 0.38966 0.48142 0.60565 0.0
C815 C 0.41768 0.49381 0.59084 0.0
H816 H 0.80895 0.7136 0.85326 0.0
H817 H 0.79519 0.74503 0.94531 0.0
H818 H 0.84475 0.68274 0.87279 0.0
H819 H 0.83072 0.71373 0.96502 0.0
H820 H 0.93076 0.69224 0.97456 0.0
H821 H 0.8881 0.71695 0.95931 0.0
H822 H 0.84893 0.63915 0.90604 0.0
H823 H 0.89199 0.61466 0.92081 0.0
C824 C 0.81326 0.71352 0.87775 0.0
C825 C 0.7995 0.73184 0.89776 0.0
C826 C 0.83356 0.69571 0.88897 0.0
C827 C 0.8407 0.69599 0.9204 0.0
C828 C 0.82589 0.71333 0.94062 0.0
C829 C 0.80535 0.73099 0.92942 0.0
C830 C 0.91304 0.68044 0.95959 0.0
C831 C 0.91483 0.65162 0.94869 0.0
C832 C 0.88842 0.69442 0.95117 0.0
C833 C 0.86516 0.67995 0.93151 0.0
C834 C 0.86663 0.6509 0.92108 0.0
C835 C 0.89115 0.63683 0.92968 0.0
H836 H 0.45838 0.80942 0.18917 0.0
H837 H 0.37234 0.80005 0.13933 0.0
H838 H 0.47588 0.85825 0.16559 0.0
H839 H 0.38901 0.84974 0.11728 0.0
H840 H 0.44062 0.92506 0.05589 0.0
H841 H 0.42212 0.87695 0.08068 0.0
H842 H 0.47182 0.90891 0.16293 0.0
H843 H 0.49126 0.95679 0.13753 0.0
C844 C 0.44302 0.81768 0.17328 0.0
C845 C 0.41387 0.80019 0.1662 0.0
C846 C 0.45297 0.84616 0.15999 0.0
C847 C 0.43408 0.85841 0.13922 0.0
C848 C 0.40465 0.84119 0.13266 0.0
C849 C 0.39478 0.81263 0.14581 0.0
C850 C 0.44755 0.92197 0.07933 0.0
C851 C 0.46753 0.94508 0.09458 0.0
C852 C 0.43671 0.89422 0.09375 0.0
C853 C 0.44525 0.88856 0.12408 0.0
C854 C 0.46498 0.9119 0.13945 0.0
C855 C 0.47602 0.93962 0.12492 0.0
H856 H 0.12575 0.25413 0.60442 0.0
H857 H 0.09116 0.21312 0.69062 0.0
H858 H 0.10256 0.20884 0.57714 0.0
H859 H 0.06856 0.16739 0.66353 0.0
H860 H 1.0091 0.097 0.60309 0.0
H861 H 0.02979 0.14315 0.63046 0.0
H862 H 0.10817 0.15946 0.56717 0.0
H863 H 0.08689 0.11406 0.53931 0.0
C864 C 0.1133 0.23536 0.61761 0.0
C865 C 0.11045 0.23741 0.6498 0.0
C866 C 0.10006 0.20918 0.60194 0.0
C867 C 0.08375 0.18398 0.61795 0.0
C868 C 0.08049 0.18625 0.65015 0.0
C869 C 0.09352 0.21258 0.6658 0.0
C870 C 0.03078 0.11041 0.59503 0.0
C871 C 0.0462 0.10166 0.56885 0.0
C872 C 0.0428 0.13694 0.61087 0.0
C873 C 0.07075 0.15546 0.60116 0.0
C874 C 0.0863 0.14639 0.57515 0.0
C875 C 0.07416 0.12005 0.55921 0.0
H876 H 0.77147 0.32086 0.42508 0.0
H877 H 0.76867 0.37932 0.34704 0.0
H878 H 0.72436 0.33552 0.44609 0.0
H879 H 0.72247 0.3949 0.36865 0.0
H880 H 0.6211 0.38942 0.39634 0.0
H881 H 0.66812 0.37381 0.37682 0.0
H882 H 0.70479 0.3776 0.46885 0.0
H883 H 0.65707 0.39202 0.48861 0.0
C884 C 0.76092 0.33696 0.41249 0.0
C885 C 0.77384 0.34885 0.38433 0.0
C886 C 0.73409 0.34558 0.42469 0.0
C887 C 0.71953 0.36626 0.40897 0.0
C888 C 0.73282 0.37858 0.38113 0.0
C889 C 0.7596 0.36996 0.36895 0.0
C890 C 0.63896 0.38648 0.41251 0.0
C891 C 0.63526 0.39194 0.44406 0.0
C892 C 0.66614 0.37794 0.40125 0.0
C893 C 0.69036 0.37468 0.42123 0.0
C894 C 0.68651 0.37973 0.45285 0.0
C895 C 0.65929 0.38828 0.46413 0.0
loop_
_geom_bond_atom_site_label_1
_geom_bond_atom_site_label_2
_geom_bond_distance
_geom_bond_site_symmetry_2
_ccdc_geom_bond_type
P0 O11 1.490 . S
P0 C14 1.812 . S
P0 C20 1.803 . S
P0 C26 1.819 . S
H1 C15 0.941 . S
H2 C16 0.939 . S
H3 C18 0.940 . S
H4 C19 0.940 . S
H5 C21 0.939 . S
H6 C22 0.942 . S
H7 C24 0.940 . S
H8 C25 0.939 . S
H9 C27 0.941 . S
H10 C31 0.939 . S
O11 P0 1.490 . S
H12 C28 0.939 . S
H13 C30 0.940 . S
C14 P0 1.812 . S
C14 C15 1.389 . S
C14 C19 1.391 . S
C15 H1 0.941 . S
C15 C14 1.389 . S
C15 C16 1.397 . S
C16 H2 0.939 . S
C16 C15 1.397 . S
C16 C17 1.378 . S
C17 C16 1.378 . S
C17 C18 1.378 . S
C18 H3 0.940 . S
C18 C17 1.378 . S
C18 C19 1.396 . S
C19 H4 0.940 . S
C19 C14 1.391 . S
C19 C18 1.396 . S
C20 P0 1.803 . S
C20 C21 1.378 . S
C20 C25 1.400 . S
C21 H5 0.939 . S
C21 C20 1.378 . S
C21 C22 1.361 . S
C22 H6 0.942 . S
C22 C21 1.361 . S
C22 C23 1.369 . S
C23 C22 1.369 . S
C23 C24 1.404 . S
C24 H7 0.940 . S
C24 C23 1.404 . S
C24 C25 1.389 . S
C25 H8 0.939 . S
C25 C20 1.400 . S
C25 C24 1.389 . S
C26 P0 1.819 . S
C26 C27 1.391 . S
C26 C31 1.391 . S
C27 H9 0.941 . S
C27 C26 1.391 . S
C27 C28 1.396 . S
C28 H12 0.939 . S
C28 C27 1.396 . S
C28 C29 1.397 . S
C29 C28 1.397 . S
C29 C30 1.385 . S
C30 H13 0.940 . S
C30 C29 1.385 . S
C30 C31 1.388 . S
C31 H10 0.939 . S
C31 C26 1.391 . S
C31 C30 1.388 . S
P32 O43 1.490 . S
P32 C46 1.812 . S
P32 C52 1.803 . S
P32 C58 1.819 . S
H33 C47 0.941 . S
H34 C48 0.939 . S
H35 C50 0.940 . S
H36 C51 0.940 . S
H37 C53 0.939 . S
H38 C54 0.942 . S
H39 C56 0.940 . S
H40 C57 0.939 . S
H41 C59 0.941 . S
H42 C63 0.939 . S
O43 P32 1.490 . S
H44 C60 0.939 . S
H45 C62 0.940 . S
C46 P32 1.812 . S
C46 C47 1.389 . S
C46 C51 1.391 . S
C47 H33 0.941 . S
C47 C46 1.389 . S
C47 C48 1.397 . S
C48 H34 0.939 . S
C48 C47 1.397 . S
C48 C49 1.378 . S
C49 C48 1.378 . S
C49 C50 1.378 . S
C50 H35 0.940 . S
C50 C49 1.378 . S
C50 C51 1.396 . S
C51 H36 0.940 . S
C51 C46 1.391 . S
C51 C50 1.396 . S
C52 P32 1.803 . S
C52 C53 1.378 . S
C52 C57 1.400 . S
C53 H37 0.939 . S
C53 C52 1.378 . S
C53 C54 1.361 . S
C54 H38 0.942 . S
C54 C53 1.361 . S
C54 C55 1.369 . S
C55 C54 1.369 . S
C55 C56 1.404 . S
C56 H39 0.940 . S
C56 C55 1.404 . S
C56 C57 1.389 . S
C57 H40 0.939 . S
C57 C52 1.400 . S
C57 C56 1.389 . S
C58 P32 1.819 . S
C58 C59 1.391 . S
C58 C63 1.391 . S
C59 H41 0.941 . S
C59 C58 1.391 . S
C59 C60 1.396 . S
C60 H44 0.939 . S
C60 C59 1.396 . S
C60 C61 1.397 . S
C61 C60 1.397 . S
C61 C62 1.385 . S
C62 H45 0.940 . S
C62 C61 1.385 . S
C62 C63 1.388 . S
C63 H42 0.939 . S
C63 C58 1.391 . S
C63 C62 1.388 . S
P64 O75 1.490 . S
P64 C78 1.812 . S
P64 C84 1.803 . S
P64 C90 1.819 . S
H65 C79 0.941 . S
H66 C80 0.939 . S
H67 C82 0.940 . S
H68 C83 0.940 . S
H69 C85 0.939 . S
H70 C86 0.942 . S
H71 C88 0.940 . S
H72 C89 0.939 . S
H73 C91 0.941 . S
H74 C95 0.939 . S
O75 P64 1.490 . S
H76 C92 0.939 . S
H77 C94 0.940 . S
C78 P64 1.812 . S
C78 C79 1.389 . S
C78 C83 1.391 . S
C79 H65 0.941 . S
C79 C78 1.389 . S
C79 C80 1.397 . S
C80 H66 0.939 . S
C80 C79 1.397 . S
C80 C81 1.378 . S
C81 C80 1.378 . S
C81 C82 1.378 . S
C82 H67 0.940 . S
C82 C81 1.378 . S
C82 C83 1.396 . S
C83 H68 0.940 . S
C83 C78 1.391 . S
C83 C82 1.396 . S
C84 P64 1.803 . S
C84 C85 1.378 . S
C84 C89 1.400 . S
C85 H69 0.939 . S
C85 C84 1.378 . S
C85 C86 1.361 . S
C86 H70 0.942 . S
C86 C85 1.361 . S
C86 C87 1.369 . S
C87 C86 1.369 . S
C87 C88 1.404 . S
C88 H71 0.940 . S
C88 C87 1.404 . S
C88 C89 1.389 . S
C89 H72 0.939 . S
C89 C84 1.400 . S
C89 C88 1.389 . S
C90 P64 1.819 . S
C90 C91 1.391 . S
C90 C95 1.391 . S
C91 H73 0.941 . S
C91 C90 1.391 . S
C91 C92 1.396 . S
C92 H76 0.939 . S
C92 C91 1.396 . S
C92 C93 1.397 . S
C93 C92 1.397 . S
C93 C94 1.385 . S
C94 H77 0.940 . S
C94 C93 1.385 . S
C94 C95 1.388 . S
C95 H74 0.939 . S
C95 C90 1.391 . S
C95 C94 1.388 . S
P96 O107 1.490 . S
P96 C110 1.812 . S
P96 C116 1.803 . S
P96 C122 1.819 . S
H97 C111 0.941 . S
H98 C112 0.939 . S
H99 C114 0.940 . S
H100 C115 0.940 . S
H101 C117 0.939 . S
H102 C118 0.942 . S
H103 C120 0.940 . S
H104 C121 0.939 . S
H105 C123 0.941 . S
H106 C127 0.939 . S
O107 P96 1.490 . S
H108 C124 0.939 . S
H109 C126 0.940 . S
C110 P96 1.812 . S
C110 C111 1.389 . S
C110 C115 1.391 . S
C111 H97 0.941 . S
C111 C110 1.389 . S
C111 C112 1.397 . S
C112 H98 0.939 . S
C112 C111 1.397 . S
C112 C113 1.378 . S
C113 C112 1.378 . S
C113 C114 1.378 . S
C114 H99 0.940 . S
C114 C113 1.378 . S
C114 C115 1.396 . S
C115 H100 0.940 . S
C115 C110 1.391 . S
C115 C114 1.396 . S
C116 P96 1.803 . S
C116 C117 1.378 . S
C116 C121 1.400 . S
C117 H101 0.939 . S
C117 C116 1.378 . S
C117 C118 1.361 . S
C118 H102 0.942 . S
C118 C117 1.361 . S
C118 C119 1.369 . S
C119 C118 1.369 . S
C119 C120 1.404 . S
C120 H103 0.940 . S
C120 C119 1.404 . S
C120 C121 1.389 . S
C121 H104 0.939 . S
C121 C116 1.400 . S
C121 C120 1.389 . S
C122 P96 1.819 . S
C122 C123 1.391 . S
C122 C127 1.391 . S
C123 H105 0.941 . S
C123 C122 1.391 . S
C123 C124 1.396 . S
C124 H108 0.939 . S
C124 C123 1.396 . S
C124 C125 1.397 . S
C125 C124 1.397 . S
C125 C126 1.385 . S
C126 H109 0.940 . S
C126 C125 1.385 . S
C126 C127 1.388 . S
C127 H106 0.939 . S
C127 C122 1.391 . S
C127 C126 1.388 . S
P128 O139 1.490 . S
P128 C142 1.812 . S
P128 C148 1.803 . S
P128 C154 1.819 . S
H129 C143 0.941 . S
H130 C144 0.939 . S
H131 C146 0.940 . S
H132 C147 0.940 . S
H133 C149 0.939 . S
H134 C150 0.942 . S
H135 C152 0.940 . S
H136 C153 0.939 . S
H137 C155 0.941 . S
H138 C159 0.939 . S
O139 P128 1.490 . S
H140 C156 0.939 . S
H141 C158 0.940 . S
C142 P128 1.812 . S
C142 C143 1.389 . S
C142 C147 1.391 . S
C143 H129 0.941 . S
C143 C142 1.389 . S
C143 C144 1.397 . S
C144 H130 0.939 . S
C144 C143 1.397 . S
C144 C145 1.378 . S
C145 C144 1.378 . S
C145 C146 1.378 . S
C146 H131 0.940 . S
C146 C145 1.378 . S
C146 C147 1.396 . S
C147 H132 0.940 . S
C147 C142 1.391 . S
C147 C146 1.396 . S
C148 P128 1.803 . S
C148 C149 1.378 . S
C148 C153 1.400 . S
C149 H133 0.939 . S
C149 C148 1.378 . S
C149 C150 1.361 . S
C150 H134 0.942 . S
C150 C149 1.361 . S
C150 C151 1.369 . S
C151 C150 1.369 . S
C151 C152 1.404 . S
C152 H135 0.940 . S
C152 C151 1.404 . S
C152 C153 1.389 . S
C153 H136 0.939 . S
C153 C148 1.400 . S
C153 C152 1.389 . S
C154 P128 1.819 . S
C154 C155 1.391 . S
C154 C159 1.391 . S
C155 H137 0.941 . S
C155 C154 1.391 . S
C155 C156 1.396 . S
C156 H140 0.939 . S
C156 C155 1.396 . S
C156 C157 1.397 . S
C157 C156 1.397 . S
C157 C158 1.385 . S
C158 H141 0.940 . S
C158 C157 1.385 . S
C158 C159 1.388 . S
C159 H138 0.939 . S
C159 C154 1.391 . S
C159 C158 1.388 . S
P160 O171 1.490 . S
P160 C174 1.812 . S
P160 C180 1.803 . S
P160 C186 1.819 . S
H161 C175 0.941 . S
H162 C176 0.939 . S
H163 C178 0.940 . S
H164 C179 0.940 . S
H165 C181 0.939 . S
H166 C182 0.942 . S
H167 C184 0.940 . S
H168 C185 0.939 . S
H169 C187 0.941 . S
H170 C191 0.939 . S
O171 P160 1.490 . S
H172 C188 0.939 . S
H173 C190 0.940 . S
C174 P160 1.812 . S
C174 C175 1.389 . S
C174 C179 1.391 . S
C175 H161 0.941 . S
C175 C174 1.389 . S
C175 C176 1.397 . S
C176 H162 0.939 . S
C176 C175 1.397 . S
C176 C177 1.378 . S
C177 C176 1.378 . S
C177 C178 1.378 . S
C178 H163 0.940 . S
C178 C177 1.378 . S
C178 C179 1.396 . S
C179 H164 0.940 . S
C179 C174 1.391 . S
C179 C178 1.396 . S
C180 P160 1.803 . S
C180 C181 1.378 . S
C180 C185 1.400 . S
C181 H165 0.939 . S
C181 C180 1.378 . S
C181 C182 1.361 . S
C182 H166 0.942 . S
C182 C181 1.361 . S
C182 C183 1.369 . S
C183 C182 1.369 . S
C183 C184 1.404 . S
C184 H167 0.940 . S
C184 C183 1.404 . S
C184 C185 1.389 . S
C185 H168 0.939 . S
C185 C180 1.400 . S
C185 C184 1.389 . S
C186 P160 1.819 . S
C186 C187 1.391 . S
C186 C191 1.391 . S
C187 H169 0.941 . S
C187 C186 1.391 . S
C187 C188 1.396 . S
C188 H172 0.939 . S
C188 C187 1.396 . S
C188 C189 1.397 . S
C189 C188 1.397 . S
C189 C190 1.385 . S
C190 H173 0.940 . S
C190 C189 1.385 . S
C190 C191 1.388 . S
C191 H170 0.939 . S
C191 C186 1.391 . S
C191 C190 1.388 . S
P192 O203 1.490 . S
P192 C206 1.812 . S
P192 C212 1.803 . S
P192 C218 1.819 . S
H193 C207 0.941 . S
H194 C208 0.939 . S
H195 C210 0.940 . S
H196 C211 0.940 . S
H197 C213 0.939 . S
H198 C214 0.942 . S
H199 C216 0.940 . S
H200 C217 0.939 . S
H201 C219 0.941 . S
H202 C223 0.939 . S
O203 P192 1.490 . S
H204 C220 0.939 . S
H205 C222 0.940 . S
C206 P192 1.812 . S
C206 C207 1.389 . S
C206 C211 1.391 . S
C207 H193 0.941 . S
C207 C206 1.389 . S
C207 C208 1.397 . S
C208 H194 0.939 . S
C208 C207 1.397 . S
C208 C209 1.378 . S
C209 C208 1.378 . S
C209 C210 1.378 . S
C210 H195 0.940 . S
C210 C209 1.378 . S
C210 C211 1.396 . S
C211 H196 0.940 . S
C211 C206 1.391 . S
C211 C210 1.396 . S
C212 P192 1.803 . S
C212 C213 1.378 . S
C212 C217 1.400 . S
C213 H197 0.939 . S
C213 C212 1.378 . S
C213 C214 1.361 . S
C214 H198 0.942 . S
C214 C213 1.361 . S
C214 C215 1.369 . S
C215 C214 1.369 . S
C215 C216 1.404 . S
C216 H199 0.940 . S
C216 C215 1.404 . S
C216 C217 1.389 . S
C217 H200 0.939 . S
C217 C212 1.400 . S
C217 C216 1.389 . S
C218 P192 1.819 . S
C218 C219 1.391 . S
C218 C223 1.391 . S
C219 H201 0.941 . S
C219 C218 1.391 . S
C219 C220 1.396 . S
C220 H204 0.939 . S
C220 C219 1.396 . S
C220 C221 1.397 . S
C221 C220 1.397 . S
C221 C222 1.385 . S
C222 H205 0.940 . S
C222 C221 1.385 . S
C222 C223 1.388 . S
C223 H202 0.939 . S
C223 C218 1.391 . S
C223 C222 1.388 . S
P224 O235 1.490 . S
P224 C238 1.812 . S
P224 C244 1.803 . S
P224 C250 1.819 . S
H225 C239 0.941 . S
H226 C240 0.939 . S
H227 C242 0.940 . S
H228 C243 0.940 . S
H229 C245 0.939 . S
H230 C246 0.942 . S
H231 C248 0.940 . S
H232 C249 0.939 . S
H233 C251 0.941 . S
H234 C255 0.939 . S
O235 P224 1.490 . S
H236 C252 0.939 . S
H237 C254 0.940 . S
C238 P224 1.812 . S
C238 C239 1.389 . S
C238 C243 1.391 . S
C239 H225 0.941 . S
C239 C238 1.389 . S
C239 C240 1.397 . S
C240 H226 0.939 . S
C240 C239 1.397 . S
C240 C241 1.378 . S
C241 C240 1.378 . S
C241 C242 1.378 . S
C242 H227 0.940 . S
C242 C241 1.378 . S
C242 C243 1.396 . S
C243 H228 0.940 . S
C243 C238 1.391 . S
C243 C242 1.396 . S
C244 P224 1.803 . S
C244 C245 1.378 . S
C244 C249 1.400 . S
C245 H229 0.939 . S
C245 C244 1.378 . S
C245 C246 1.361 . S
C246 H230 0.942 . S
C246 C245 1.361 . S
C246 C247 1.369 . S
C247 C246 1.369 . S
C247 C248 1.404 . S
C248 H231 0.940 . S
C248 C247 1.404 . S
C248 C249 1.389 . S
C249 H232 0.939 . S
C249 C244 1.400 . S
C249 C248 1.389 . S
C250 P224 1.819 . S
C250 C251 1.391 . S
C250 C255 1.391 . S
C251 H233 0.941 . S
C251 C250 1.391 . S
C251 C252 1.396 . S
C252 H236 0.939 . S
C252 C251 1.396 . S
C252 C253 1.397 . S
C253 C252 1.397 . S
C253 C254 1.385 . S
C254 H237 0.940 . S
C254 C253 1.385 . S
C254 C255 1.388 . S
C255 H234 0.939 . S
C255 C250 1.391 . S
C255 C254 1.388 . S
Tb256 C265 2.764 . S
Tb256 O266 2.325 1_455 S
Tb256 O269 2.303 . S
Tb256 O273 2.322 1_545 S
Tb256 O274 2.349 1_545 S
Tb256 O277 2.415 . S
Tb256 O278 2.399 . S
Tb257 O267 2.324 1_565 S
Tb257 O268 2.351 1_565 S
Tb257 O270 2.413 . S
Tb257 O271 2.399 . S
Tb257 O272 2.324 1_655 S
Tb257 O275 2.302 . S
Tb257 C286 2.763 . S
C258 O274 1.261 1_655 S
C258 O275 1.257 . S
C259 C262 1.358 . S
C259 C263 1.332 . S
C259 C265 1.504 . S
C260 C261 1.373 . S
C260 C264 1.308 . S
C261 C260 1.373 . S
C261 C262 1.429 . S
C261 H288 0.932 . S
C262 C259 1.358 . S
C262 C261 1.429 . S
C262 H289 0.930 . S
C263 C259 1.332 . S
C263 C264 1.394 . S
C263 H290 0.932 . S
C264 C260 1.308 . S
C264 C263 1.394 . S
C264 H291 0.929 . S
C265 Tb256 2.764 . S
C265 C259 1.504 . S
C265 O277 1.239 . S
C265 O278 1.263 . S
O266 Tb256 2.325 1_655 S
O266 C276 1.236 . S
O267 Tb257 2.324 1_545 S
O267 C276 1.257 . S
O268 Tb257 2.351 1_545 S
O268 C279 1.261 1_655 S
O269 Tb256 2.303 . S
O269 C279 1.257 . S
O270 Tb257 2.413 . S
O270 C286 1.239 . S
O271 Tb257 2.399 . S
O271 C286 1.263 . S
O272 Tb257 2.324 1_455 S
O272 C287 1.236 . S
O273 Tb256 2.322 1_565 S
O273 C287 1.257 . S
O274 Tb256 2.349 1_565 S
O274 C258 1.261 1_455 S
O275 Tb257 2.302 . S
O275 C258 1.257 . S
C276 O266 1.236 . S
C276 O267 1.257 . S
O277 Tb256 2.415 . S
O277 C265 1.239 . S
O278 Tb256 2.399 . S
O278 C265 1.263 . S
C279 O268 1.261 1_455 S
C279 O269 1.257 . S
C280 C283 1.358 . S
C280 C284 1.332 . S
C280 C286 1.504 . S
C281 C282 1.373 . S
C281 C285 1.308 . S
C282 C281 1.373 . S
C282 C283 1.429 . S
C282 H292 0.932 . S
C283 C280 1.358 . S
C283 C282 1.429 . S
C283 H293 0.930 . S
C284 C280 1.332 . S
C284 C285 1.394 . S
C284 H294 0.932 . S
C285 C281 1.308 . S
C285 C284 1.394 . S
C285 H295 0.929 . S
C286 Tb257 2.763 . S
C286 O270 1.239 . S
C286 O271 1.263 . S
C286 C280 1.504 . S
C287 O272 1.236 . S
C287 O273 1.257 . S
H288 C261 0.932 . S
H289 C262 0.930 . S
H290 C263 0.932 . S
H291 C264 0.929 . S
H292 C282 0.932 . S
H293 C283 0.930 . S
H294 C284 0.932 . S
H295 C285 0.929 . S
Tb296 C305 2.764 . S
Tb296 O306 2.325 . S
Tb296 O309 2.303 . S
Tb296 O313 2.322 1_545 S
Tb296 O314 2.349 1_545 S
Tb296 O317 2.415 . S
Tb296 O318 2.399 . S
Tb297 O307 2.322 . S
Tb297 O308 2.349 1_556 S
Tb297 O310 2.415 1_545 S
Tb297 O311 2.399 1_545 S
Tb297 O312 2.325 1_546 S
Tb297 O315 2.303 1_545 S
Tb297 C326 2.764 1_545 S
C298 O314 1.261 1_556 S
C298 O315 1.257 . S
C299 C302 1.358 . S
C299 C303 1.332 . S
C299 C305 1.504 . S
C300 C301 1.373 . S
C300 C304 1.308 . S
C301 C300 1.373 . S
C301 C302 1.429 . S
C301 H328 0.932 . S
C302 C299 1.358 . S
C302 C301 1.429 . S
C302 H329 0.930 . S
C303 C299 1.332 . S
C303 C304 1.394 . S
C303 H330 0.932 . S
C304 C300 1.308 . S
C304 C303 1.394 . S
C304 H331 0.929 . S
C305 Tb296 2.764 . S
C305 C299 1.504 . S
C305 O317 1.239 . S
C305 O318 1.263 . S
O306 Tb296 2.325 . S
O306 C316 1.236 1_554 S
O307 Tb297 2.322 . S
O307 C316 1.257 . S
O308 Tb297 2.349 1_554 S
O308 C319 1.261 . S
O309 Tb296 2.303 . S
O309 C319 1.257 . S
O310 Tb297 2.415 1_565 S
O310 C326 1.239 . S
O311 Tb297 2.399 1_565 S
O311 C326 1.263 . S
O312 Tb297 2.325 1_564 S
O312 C327 1.236 . S
O313 Tb296 2.322 1_565 S
O313 C327 1.257 . S
O314 Tb296 2.349 1_565 S
O314 C298 1.261 1_554 S
O315 Tb297 2.303 1_565 S
O315 C298 1.257 . S
C316 O306 1.236 1_556 S
C316 O307 1.257 . S
O317 Tb296 2.415 . S
O317 C305 1.239 . S
O318 Tb296 2.399 . S
O318 C305 1.263 . S
C319 O308 1.261 . S
C319 O309 1.257 . S
C320 C323 1.358 . S
C320 C324 1.332 . S
C320 C326 1.504 . S
C321 C322 1.373 . S
C321 C325 1.308 . S
C322 C321 1.373 . S
C322 C323 1.429 . S
C322 H332 0.932 . S
C323 C320 1.358 . S
C323 C322 1.429 . S
C323 H333 0.930 . S
C324 C320 1.332 . S
C324 C325 1.394 . S
C324 H334 0.932 . S
C325 C321 1.308 . S
C325 C324 1.394 . S
C325 H335 0.929 . S
C326 Tb297 2.764 1_565 S
C326 O310 1.239 . S
C326 O311 1.263 . S
C326 C320 1.504 . S
C327 O312 1.236 . S
C327 O313 1.257 . S
H328 C301 0.932 . S
H329 C302 0.930 . S
H330 C303 0.932 . S
H331 C304 0.929 . S
H332 C322 0.932 . S
H333 C323 0.930 . S
H334 C324 0.932 . S
H335 C325 0.929 . S
Tb336 C345 2.764 . S
Tb336 O346 2.325 . S
Tb336 O349 2.303 . S
Tb336 O353 2.322 . S
Tb336 O354 2.349 . S
Tb336 O357 2.415 . S
Tb336 O358 2.399 . S
Tb337 O347 2.322 . S
Tb337 O348 2.349 . S
Tb337 O350 2.415 . S
Tb337 O351 2.399 . S
Tb337 O352 2.325 . S
Tb337 O355 2.303 . S
Tb337 C366 2.764 . S
C338 O354 1.261 . S
C338 O355 1.257 . S
C339 C342 1.358 . S
C339 C343 1.332 . S
C339 C345 1.504 . S
C340 C341 1.373 . S
C340 C344 1.308 . S
C341 C340 1.373 . S
C341 C342 1.429 . S
C341 H368 0.932 . S
C342 C339 1.358 . S
C342 C341 1.429 . S
C342 H369 0.930 . S
C343 C339 1.332 . S
C343 C344 1.394 . S
C343 H370 0.932 . S
C344 C340 1.308 . S
C344 C343 1.394 . S
C344 H371 0.929 . S
C345 Tb336 2.764 . S
C345 C339 1.504 . S
C345 O357 1.239 . S
C345 O358 1.263 . S
O346 Tb336 2.325 . S
O346 C356 1.236 . S
O347 Tb337 2.322 . S
O347 C356 1.257 . S
O348 Tb337 2.349 . S
O348 C359 1.261 . S
O349 Tb336 2.303 . S
O349 C359 1.257 . S
O350 Tb337 2.415 . S
O350 C366 1.239 . S
O351 Tb337 2.399 . S
O351 C366 1.263 . S
O352 Tb337 2.325 . S
O352 C367 1.236 . S
O353 Tb336 2.322 . S
O353 C367 1.257 . S
O354 Tb336 2.349 . S
O354 C338 1.261 . S
O355 Tb337 2.303 . S
O355 C338 1.257 . S
C356 O346 1.236 . S
C356 O347 1.257 . S
O357 Tb336 2.415 . S
O357 C345 1.239 . S
O358 Tb336 2.399 . S
O358 C345 1.263 . S
C359 O348 1.261 . S
C359 O349 1.257 . S
C360 C363 1.358 . S
C360 C364 1.332 . S
C360 C366 1.504 . S
C361 C362 1.373 . S
C361 C365 1.308 . S
C362 C361 1.373 . S
C362 C363 1.429 . S
C362 H372 0.932 . S
C363 C360 1.358 . S
C363 C362 1.429 . S
C363 H373 0.930 . S
C364 C360 1.332 . S
C364 C365 1.394 . S
C364 H374 0.932 . S
C365 C361 1.308 . S
C365 C364 1.394 . S
C365 H375 0.929 . S
C366 Tb337 2.764 . S
C366 O350 1.239 . S
C366 O351 1.263 . S
C366 C360 1.504 . S
C367 O352 1.236 . S
C367 O353 1.257 . S
H368 C341 0.932 . S
H369 C342 0.930 . S
H370 C343 0.932 . S
H371 C344 0.929 . S
H372 C362 0.932 . S
H373 C363 0.930 . S
H374 C364 0.932 . S
H375 C365 0.929 . S
Tb376 C385 2.764 . S
Tb376 O386 2.325 . S
Tb376 O389 2.303 1_556 S
Tb376 O393 2.309 1_656 S
Tb376 O394 2.349 1_655 S
Tb376 O397 2.415 . S
Tb376 O398 2.399 . S
Tb377 O387 2.322 1_455 S
Tb377 O388 2.349 1_455 S
Tb377 O390 2.415 . S
Tb377 O391 2.399 . S
Tb377 O392 2.325 . S
Tb377 O395 2.303 1_554 S
Tb377 C406 2.764 . S
C378 O394 1.261 . S
C378 O395 1.257 . S
C379 C382 1.358 . S
C379 C383 1.332 . S
C379 C385 1.504 . S
C380 C381 1.373 . S
C380 C384 1.308 . S
C381 C380 1.373 . S
C381 C382 1.429 . S
C381 H408 0.932 . S
C382 C379 1.358 . S
C382 C381 1.429 . S
C382 H409 0.930 . S
C383 C379 1.332 . S
C383 C384 1.394 . S
C383 H410 0.932 . S
C384 C380 1.308 . S
C384 C383 1.394 . S
C384 H411 0.929 . S
C385 Tb376 2.764 . S
C385 C379 1.504 . S
C385 O397 1.239 . S
C385 O398 1.263 . S
O386 Tb376 2.325 . S
O386 C396 1.236 . S
O387 Tb377 2.322 1_655 S
O387 C396 1.257 1_554 S
O388 Tb377 2.349 1_655 S
O388 C399 1.261 . S
O389 Tb376 2.303 1_554 S
O389 C399 1.257 . S
O390 Tb377 2.415 . S
O390 C406 1.239 . S
O391 Tb377 2.399 . S
O391 C406 1.263 . S
O392 Tb377 2.325 . S
O392 C407 1.236 . S
O393 Tb376 2.309 1_454 S
O393 C407 1.279 . S
O394 Tb376 2.349 1_455 S
O394 C378 1.261 . S
O395 Tb377 2.303 1_556 S
O395 C378 1.257 . S
C396 O386 1.236 . S
C396 O387 1.257 1_556 S
O397 Tb376 2.415 . S
O397 C385 1.239 . S
O398 Tb376 2.399 . S
O398 C385 1.263 . S
C399 O388 1.261 . S
C399 O389 1.257 . S
C400 C403 1.358 . S
C400 C404 1.332 . S
C400 C406 1.504 . S
C401 C402 1.373 . S
C401 C405 1.308 . S
C402 C401 1.373 . S
C402 C403 1.429 . S
C402 H412 0.932 . S
C403 C400 1.358 . S
C403 C402 1.429 . S
C403 H413 0.930 . S
C404 C400 1.332 . S
C404 C405 1.394 . S
C404 H414 0.932 . S
C405 C401 1.308 . S
C405 C404 1.394 . S
C405 H415 0.929 . S
C406 Tb377 2.764 . S
C406 O390 1.239 . S
C406 O391 1.263 . S
C406 C400 1.504 . S
C407 O392 1.236 . S
C407 O393 1.279 . S
H408 C381 0.932 . S
H409 C382 0.930 . S
H410 C383 0.932 . S
H411 C384 0.929 . S
H412 C402 0.932 . S
H413 C403 0.930 . S
H414 C404 0.932 . S
H415 C405 0.929 . S
H416 C424 0.950 . S
H417 C429 0.950 . S
H418 C426 0.950 . S
H419 C428 0.950 . S
H420 C430 0.950 . S
H421 C432 0.950 . S
H422 C434 0.950 . S
H423 C435 0.950 . S
C424 H416 0.950 . S
C424 C425 1.386 . S
C424 C426 1.391 . S
C425 C424 1.386 . S
C425 C429 1.393 . S
C426 H418 0.950 . S
C426 C424 1.391 . S
C426 C427 1.400 . S
C427 C426 1.400 . S
C427 C428 1.398 . S
C427 C433 1.491 . S
C428 H419 0.950 . S
C428 C427 1.398 . S
C428 C429 1.391 . S
C429 H417 0.950 . S
C429 C425 1.393 . S
C429 C428 1.391 . S
C430 H420 0.950 . S
C430 C431 1.386 . S
C430 C432 1.391 . S
C431 C430 1.386 . S
C431 C435 1.393 . S
C432 H421 0.950 . S
C432 C430 1.391 . S
C432 C433 1.400 . S
C433 C427 1.491 . S
C433 C432 1.400 . S
C433 C434 1.398 . S
C434 H422 0.950 . S
C434 C433 1.398 . S
C434 C435 1.391 . S
C435 H423 0.950 . S
C435 C431 1.393 . S
C435 C434 1.391 . S
H436 C444 0.950 . S
H437 C449 0.950 . S
H438 C446 0.950 . S
H439 C448 0.950 . S
H440 C450 0.950 . S
H441 C452 0.950 . S
H442 C454 0.950 . S
H443 C455 0.950 . S
C444 H436 0.950 . S
C444 C445 1.386 . S
C444 C446 1.391 . S
C445 C444 1.386 . S
C445 C449 1.393 . S
C446 H438 0.950 . S
C446 C444 1.391 . S
C446 C447 1.400 . S
C447 C446 1.400 . S
C447 C448 1.398 . S
C447 C453 1.491 . S
C448 H439 0.950 . S
C448 C447 1.398 . S
C448 C449 1.391 . S
C449 H437 0.950 . S
C449 C445 1.393 . S
C449 C448 1.391 . S
C450 H440 0.950 . S
C450 C451 1.386 . S
C450 C452 1.391 . S
C451 C450 1.386 . S
C451 C455 1.393 . S
C452 H441 0.950 . S
C452 C450 1.391 . S
C452 C453 1.400 . S
C453 C447 1.491 . S
C453 C452 1.400 . S
C453 C454 1.398 . S
C454 H442 0.950 . S
C454 C453 1.398 . S
C454 C455 1.391 . S
C455 H443 0.950 . S
C455 C451 1.393 . S
C455 C454 1.391 . S
H456 C464 0.950 . S
H457 C469 0.950 . S
H458 C466 0.950 . S
H459 C468 0.950 . S
H460 C470 0.950 . S
H461 C472 0.950 . S
H462 C474 0.950 . S
H463 C475 0.950 . S
C464 H456 0.950 . S
C464 C465 1.386 . S
C464 C466 1.391 . S
C465 C464 1.386 . S
C465 C469 1.393 . S
C466 H458 0.950 . S
C466 C464 1.391 . S
C466 C467 1.400 . S
C467 C466 1.400 . S
C467 C468 1.398 . S
C467 C473 1.491 . S
C468 H459 0.950 . S
C468 C467 1.398 . S
C468 C469 1.391 . S
C469 H457 0.950 . S
C469 C465 1.393 . S
C469 C468 1.391 . S
C470 H460 0.950 . S
C470 C471 1.386 . S
C470 C472 1.391 . S
C471 C470 1.386 . S
C471 C475 1.393 . S
C472 H461 0.950 . S
C472 C470 1.391 . S
C472 C473 1.400 . S
C473 C467 1.491 . S
C473 C472 1.400 . S
C473 C474 1.398 . S
C474 H462 0.950 . S
C474 C473 1.398 . S
C474 C475 1.391 . S
C475 H463 0.950 . S
C475 C471 1.393 . S
C475 C474 1.391 . S
H476 C484 0.950 . S
H477 C489 0.950 . S
H478 C486 0.950 . S
H479 C488 0.950 . S
H480 C490 0.950 . S
H481 C492 0.950 . S
H482 C494 0.950 . S
H483 C495 0.950 . S
C484 H476 0.950 . S
C484 C485 1.386 . S
C484 C486 1.391 . S
C485 C484 1.386 . S
C485 C489 1.393 . S
C486 H478 0.950 . S
C486 C484 1.391 . S
C486 C487 1.400 . S
C487 C486 1.400 . S
C487 C488 1.398 . S
C487 C493 1.491 . S
C488 H479 0.950 . S
C488 C487 1.398 . S
C488 C489 1.391 . S
C489 H477 0.950 . S
C489 C485 1.393 . S
C489 C488 1.391 . S
C490 H480 0.950 . S
C490 C491 1.386 . S
C490 C492 1.391 . S
C491 C490 1.386 . S
C491 C495 1.393 . S
C492 H481 0.950 . S
C492 C490 1.391 . S
C492 C493 1.400 . S
C493 C487 1.491 . S
C493 C492 1.400 . S
C493 C494 1.398 . S
C494 H482 0.950 . S
C494 C493 1.398 . S
C494 C495 1.391 . S
C495 H483 0.950 . S
C495 C491 1.393 . S
C495 C494 1.391 . S
H496 C504 0.950 . S
H497 C509 0.950 . S
H498 C506 0.950 . S
H499 C508 0.950 . S
H500 C510 0.950 . S
H501 C512 0.950 . S
H502 C514 0.950 . S
H503 C515 0.950 . S
C504 H496 0.950 . S
C504 C505 1.386 . S
C504 C506 1.391 . S
C505 C504 1.386 . S
C505 C509 1.393 . S
C506 H498 0.950 . S
C506 C504 1.391 . S
C506 C507 1.400 . S
C507 C506 1.400 . S
C507 C508 1.398 . S
C507 C513 1.491 . S
C508 H499 0.950 . S
C508 C507 1.398 . S
C508 C509 1.391 . S
C509 H497 0.950 . S
C509 C505 1.393 . S
C509 C508 1.391 . S
C510 H500 0.950 . S
C510 C511 1.386 . S
C510 C512 1.391 . S
C511 C510 1.386 . S
C511 C515 1.393 . S
C512 H501 0.950 . S
C512 C510 1.391 . S
C512 C513 1.400 . S
C513 C507 1.491 . S
C513 C512 1.400 . S
C513 C514 1.398 . S
C514 H502 0.950 . S
C514 C513 1.398 . S
C514 C515 1.391 . S
C515 H503 0.950 . S
C515 C511 1.393 . S
C515 C514 1.391 . S
H516 C524 0.950 . S
H517 C529 0.950 . S
H518 C526 0.950 . S
H519 C528 0.950 . S
H520 C530 0.950 . S
H521 C532 0.950 . S
H522 C534 0.950 . S
H523 C535 0.950 . S
C524 H516 0.950 . S
C524 C525 1.386 . S
C524 C526 1.391 . S
C525 C524 1.386 . S
C525 C529 1.393 . S
C526 H518 0.950 . S
C526 C524 1.391 . S
C526 C527 1.400 . S
C527 C526 1.400 . S
C527 C528 1.398 . S
C527 C533 1.491 . S
C528 H519 0.950 . S
C528 C527 1.398 . S
C528 C529 1.391 . S
C529 H517 0.950 . S
C529 C525 1.393 . S
C529 C528 1.391 . S
C530 H520 0.950 . S
C530 C531 1.386 . S
C530 C532 1.391 . S
C531 C530 1.386 . S
C531 C535 1.393 . S
C532 H521 0.950 . S
C532 C530 1.391 . S
C532 C533 1.400 . S
C533 C527 1.491 . S
C533 C532 1.400 . S
C533 C534 1.398 . S
C534 H522 0.950 . S
C534 C533 1.398 . S
C534 C535 1.391 . S
C535 H523 0.950 . S
C535 C531 1.393 . S
C535 C534 1.391 . S
H536 C544 0.950 . S
H537 C549 0.950 . S
H538 C546 0.950 . S
H539 C548 0.950 . S
H540 C550 0.950 1_554 S
H541 C552 0.950 . S
H542 C554 0.950 . S
H543 C555 0.950 . S
C544 H536 0.950 . S
C544 C545 1.386 . S
C544 C546 1.391 . S
C545 C544 1.386 . S
C545 C549 1.393 . S
C546 H538 0.950 . S
C546 C544 1.391 . S
C546 C547 1.400 . S
C547 C546 1.400 . S
C547 C548 1.398 . S
C547 C553 1.491 . S
C548 H539 0.950 . S
C548 C547 1.398 . S
C548 C549 1.391 . S
C549 H537 0.950 . S
C549 C545 1.393 . S
C549 C548 1.391 . S
C550 H540 0.950 1_556 S
C550 C551 1.386 . S
C550 C552 1.391 . S
C551 C550 1.386 . S
C551 C555 1.393 . S
C552 H541 0.950 . S
C552 C550 1.391 . S
C552 C553 1.400 . S
C553 C547 1.491 . S
C553 C552 1.400 . S
C553 C554 1.398 . S
C554 H542 0.950 . S
C554 C553 1.398 . S
C554 C555 1.391 . S
C555 H543 0.950 . S
C555 C551 1.393 . S
C555 C554 1.391 . S
H556 C564 0.950 . S
H557 C569 0.950 . S
H558 C566 0.950 . S
H559 C568 0.950 . S
H560 C570 0.950 . S
H561 C572 0.950 . S
H562 C574 0.950 . S
H563 C575 0.950 . S
C564 H556 0.950 . S
C564 C565 1.386 . S
C564 C566 1.391 . S
C565 C564 1.386 . S
C565 C569 1.393 . S
C566 H558 0.950 . S
C566 C564 1.391 . S
C566 C567 1.400 . S
C567 C566 1.400 . S
C567 C568 1.398 . S
C567 C573 1.491 . S
C568 H559 0.950 . S
C568 C567 1.398 . S
C568 C569 1.391 . S
C569 H557 0.950 . S
C569 C565 1.393 . S
C569 C568 1.391 . S
C570 H560 0.950 . S
C570 C571 1.386 . S
C570 C572 1.391 . S
C571 C570 1.386 . S
C571 C575 1.393 . S
C572 H561 0.950 . S
C572 C570 1.391 . S
C572 C573 1.400 . S
C573 C567 1.491 . S
C573 C572 1.400 . S
C573 C574 1.398 . S
C574 H562 0.950 . S
C574 C573 1.398 . S
C574 C575 1.391 . S
C575 H563 0.950 . S
C575 C571 1.393 . S
C575 C574 1.391 . S
H576 C584 0.950 . S
H577 C589 0.950 . S
H578 C586 0.950 . S
H579 C588 0.950 . S
H580 C590 0.950 . S
H581 C592 0.950 . S
H582 C594 0.950 . S
H583 C595 0.950 . S
C584 H576 0.950 . S
C584 C585 1.386 . S
C584 C586 1.391 . S
C585 C584 1.386 . S
C585 C589 1.393 . S
C586 H578 0.950 . S
C586 C584 1.391 . S
C586 C587 1.400 . S
C587 C586 1.400 . S
C587 C588 1.398 . S
C587 C593 1.491 . S
C588 H579 0.950 . S
C588 C587 1.398 . S
C588 C589 1.391 . S
C589 H577 0.950 . S
C589 C585 1.393 . S
C589 C588 1.391 . S
C590 H580 0.950 . S
C590 C591 1.386 . S
C590 C592 1.391 . S
C591 C590 1.386 . S
C591 C595 1.393 . S
C592 H581 0.950 . S
C592 C590 1.391 . S
C592 C593 1.400 . S
C593 C587 1.491 . S
C593 C592 1.400 . S
C593 C594 1.398 . S
C594 H582 0.950 . S
C594 C593 1.398 . S
C594 C595 1.391 . S
C595 H583 0.950 . S
C595 C591 1.393 . S
C595 C594 1.391 . S
H596 C604 0.950 . S
H597 C609 0.950 . S
H598 C606 0.950 . S
H599 C608 0.950 . S
H600 C610 0.950 . S
H601 C612 0.950 . S
H602 C614 0.950 . S
H603 C615 0.950 . S
C604 H596 0.950 . S
C604 C605 1.386 . S
C604 C606 1.391 . S
C605 C604 1.386 . S
C605 C609 1.393 . S
C606 H598 0.950 . S
C606 C604 1.391 . S
C606 C607 1.400 . S
C607 C606 1.400 . S
C607 C608 1.398 . S
C607 C613 1.491 . S
C608 H599 0.950 . S
C608 C607 1.398 . S
C608 C609 1.391 . S
C609 H597 0.950 . S
C609 C605 1.393 . S
C609 C608 1.391 . S
C610 H600 0.950 . S
C610 C611 1.386 . S
C610 C612 1.391 . S
C611 C610 1.386 . S
C611 C615 1.393 . S
C612 H601 0.950 . S
C612 C610 1.391 . S
C612 C613 1.400 . S
C613 C607 1.491 . S
C613 C612 1.400 . S
C613 C614 1.398 . S
C614 H602 0.950 . S
C614 C613 1.398 . S
C614 C615 1.391 . S
C615 H603 0.950 . S
C615 C611 1.393 . S
C615 C614 1.391 . S
H616 C624 0.950 . S
H617 C629 0.950 . S
H618 C626 0.950 . S
H619 C628 0.950 . S
H620 C630 0.949 1_455 S
H621 C632 0.950 . S
H622 C634 0.950 . S
H623 C635 0.950 . S
C624 H616 0.950 . S
C624 C625 1.386 . S
C624 C626 1.391 . S
C625 C624 1.386 . S
C625 C629 1.393 . S
C626 H618 0.950 . S
C626 C624 1.391 . S
C626 C627 1.400 . S
C627 C626 1.400 . S
C627 C628 1.398 . S
C627 C633 1.491 . S
C628 H619 0.950 . S
C628 C627 1.398 . S
C628 C629 1.391 . S
C629 H617 0.950 . S
C629 C625 1.393 . S
C629 C628 1.391 . S
C630 H620 0.949 1_655 S
C630 C631 1.386 . S
C630 C632 1.391 . S
C631 C630 1.386 . S
C631 C635 1.393 . S
C632 H621 0.950 . S
C632 C630 1.391 . S
C632 C633 1.400 . S
C633 C627 1.491 . S
C633 C632 1.400 . S
C633 C634 1.398 . S
C634 H622 0.950 . S
C634 C633 1.398 . S
C634 C635 1.391 . S
C635 H623 0.950 . S
C635 C631 1.393 . S
C635 C634 1.391 . S
H636 C644 0.950 . S
H637 C649 0.950 . S
H638 C646 0.950 . S
H639 C648 0.950 . S
H640 C650 0.950 . S
H641 C652 0.950 . S
H642 C654 0.950 . S
H643 C655 0.950 . S
C644 H636 0.950 . S
C644 C645 1.386 . S
C644 C646 1.391 . S
C645 C644 1.386 . S
C645 C649 1.393 . S
C646 H638 0.950 . S
C646 C644 1.391 . S
C646 C647 1.400 . S
C647 C646 1.400 . S
C647 C648 1.398 . S
C647 C653 1.491 . S
C648 H639 0.950 . S
C648 C647 1.398 . S
C648 C649 1.391 . S
C649 H637 0.950 . S
C649 C645 1.393 . S
C649 C648 1.391 . S
C650 H640 0.950 . S
C650 C651 1.386 . S
C650 C652 1.391 . S
C651 C650 1.386 . S
C651 C655 1.393 . S
C652 H641 0.950 . S
C652 C650 1.391 . S
C652 C653 1.400 . S
C653 C647 1.491 . S
C653 C652 1.400 . S
C653 C654 1.398 . S
C654 H642 0.950 . S
C654 C653 1.398 . S
C654 C655 1.391 . S
C655 H643 0.950 . S
C655 C651 1.393 . S
C655 C654 1.391 . S
H656 C664 0.950 . S
H657 C669 0.950 . S
H658 C666 0.950 . S
H659 C668 0.950 . S
H660 C670 0.950 . S
H661 C672 0.950 . S
H662 C674 0.950 . S
H663 C675 0.950 . S
C664 H656 0.950 . S
C664 C665 1.386 . S
C664 C666 1.391 . S
C665 C664 1.386 . S
C665 C669 1.393 . S
C666 H658 0.950 . S
C666 C664 1.391 . S
C666 C667 1.400 . S
C667 C666 1.400 . S
C667 C668 1.398 . S
C667 C673 1.491 . S
C668 H659 0.950 . S
C668 C667 1.398 . S
C668 C669 1.391 . S
C669 H657 0.950 . S
C669 C665 1.393 . S
C669 C668 1.391 . S
C670 H660 0.950 . S
C670 C671 1.386 . S
C670 C672 1.391 . S
C671 C670 1.386 . S
C671 C675 1.393 . S
C672 H661 0.950 . S
C672 C670 1.391 . S
C672 C673 1.400 . S
C673 C667 1.491 . S
C673 C672 1.400 . S
C673 C674 1.398 . S
C674 H662 0.950 . S
C674 C673 1.398 . S
C674 C675 1.391 . S
C675 H663 0.950 . S
C675 C671 1.393 . S
C675 C674 1.391 . S
H676 C684 0.950 . S
H677 C689 0.950 . S
H678 C686 0.950 . S
H679 C688 0.950 . S
H680 C690 0.950 . S
H681 C692 0.950 . S
H682 C694 0.950 . S
H683 C695 0.950 . S
C684 H676 0.950 . S
C684 C685 1.386 . S
C684 C686 1.391 . S
C685 C684 1.386 . S
C685 C689 1.393 . S
C686 H678 0.950 . S
C686 C684 1.391 . S
C686 C687 1.400 . S
C687 C686 1.400 . S
C687 C688 1.398 . S
C687 C693 1.491 . S
C688 H679 0.950 . S
C688 C687 1.398 . S
C688 C689 1.391 . S
C689 H677 0.950 . S
C689 C685 1.393 . S
C689 C688 1.391 . S
C690 H680 0.950 . S
C690 C691 1.386 . S
C690 C692 1.391 . S
C691 C690 1.386 . S
C691 C695 1.393 . S
C692 H681 0.950 . S
C692 C690 1.391 . S
C692 C693 1.400 . S
C693 C687 1.491 . S
C693 C692 1.400 . S
C693 C694 1.398 . S
C694 H682 0.950 . S
C694 C693 1.398 . S
C694 C695 1.391 . S
C695 H683 0.950 . S
C695 C691 1.393 . S
C695 C694 1.391 . S
H696 C704 0.950 . S
H697 C709 0.950 . S
H698 C706 0.950 . S
H699 C708 0.950 . S
H700 C710 0.950 . S
H701 C712 0.950 . S
H702 C714 0.950 . S
H703 C715 0.950 . S
C704 H696 0.950 . S
C704 C705 1.386 . S
C704 C706 1.391 . S
C705 C704 1.386 . S
C705 C709 1.393 . S
C706 H698 0.950 . S
C706 C704 1.391 . S
C706 C707 1.400 . S
C707 C706 1.400 . S
C707 C708 1.398 . S
C707 C713 1.491 . S
C708 H699 0.950 . S
C708 C707 1.398 . S
C708 C709 1.391 . S
C709 H697 0.950 . S
C709 C705 1.393 . S
C709 C708 1.391 . S
C710 H700 0.950 . S
C710 C711 1.386 . S
C710 C712 1.391 . S
C711 C710 1.386 . S
C711 C715 1.393 . S
C712 H701 0.950 . S
C712 C710 1.391 . S
C712 C713 1.400 . S
C713 C707 1.491 . S
C713 C712 1.400 . S
C713 C714 1.398 . S
C714 H702 0.950 . S
C714 C713 1.398 . S
C714 C715 1.391 . S
C715 H703 0.950 . S
C715 C711 1.393 . S
C715 C714 1.391 . S
H716 C724 0.950 . S
H717 C729 0.950 . S
H718 C726 0.950 . S
H719 C728 0.950 . S
H720 C730 0.950 . S
H721 C732 0.950 . S
H722 C734 0.950 . S
H723 C735 0.950 . S
C724 H716 0.950 . S
C724 C725 1.386 . S
C724 C726 1.391 . S
C725 C724 1.386 . S
C725 C729 1.393 . S
C726 H718 0.950 . S
C726 C724 1.391 . S
C726 C727 1.400 . S
C727 C726 1.400 . S
C727 C728 1.398 . S
C727 C733 1.491 . S
C728 H719 0.950 . S
C728 C727 1.398 . S
C728 C729 1.391 . S
C729 H717 0.950 . S
C729 C725 1.393 . S
C729 C728 1.391 . S
C730 H720 0.950 . S
C730 C731 1.386 . S
C730 C732 1.391 . S
C731 C730 1.386 . S
C731 C735 1.393 . S
C732 H721 0.950 . S
C732 C730 1.391 . S
C732 C733 1.400 . S
C733 C727 1.491 . S
C733 C732 1.400 . S
C733 C734 1.398 . S
C734 H722 0.950 . S
C734 C733 1.398 . S
C734 C735 1.391 . S
C735 H723 0.950 . S
C735 C731 1.393 . S
C735 C734 1.391 . S
H736 C744 0.950 . S
H737 C749 0.950 . S
H738 C746 0.950 . S
H739 C748 0.950 . S
H740 C750 0.950 . S
H741 C752 0.950 . S
H742 C754 0.950 . S
H743 C755 0.950 . S
C744 H736 0.950 . S
C744 C745 1.386 . S
C744 C746 1.391 . S
C745 C744 1.386 . S
C745 C749 1.393 . S
C746 H738 0.950 . S
C746 C744 1.391 . S
C746 C747 1.400 . S
C747 C746 1.400 . S
C747 C748 1.398 . S
C747 C753 1.491 . S
C748 H739 0.950 . S
C748 C747 1.398 . S
C748 C749 1.391 . S
C749 H737 0.950 . S
C749 C745 1.393 . S
C749 C748 1.391 . S
C750 H740 0.950 . S
C750 C751 1.386 . S
C750 C752 1.391 . S
C751 C750 1.386 . S
C751 C755 1.393 . S
C752 H741 0.950 . S
C752 C750 1.391 . S
C752 C753 1.400 . S
C753 C747 1.491 . S
C753 C752 1.400 . S
C753 C754 1.398 . S
C754 H742 0.950 . S
C754 C753 1.398 . S
C754 C755 1.391 . S
C755 H743 0.950 . S
C755 C751 1.393 . S
C755 C754 1.391 . S
H756 C764 0.950 . S
H757 C769 0.950 . S
H758 C766 0.950 . S
H759 C768 0.950 . S
H760 C770 0.950 . S
H761 C772 0.950 . S
H762 C774 0.950 . S
H763 C775 0.950 . S
C764 H756 0.950 . S
C764 C765 1.386 . S
C764 C766 1.391 . S
C765 C764 1.386 . S
C765 C769 1.393 . S
C766 H758 0.950 . S
C766 C764 1.391 . S
C766 C767 1.400 . S
C767 C766 1.400 . S
C767 C768 1.398 . S
C767 C773 1.491 . S
C768 H759 0.950 . S
C768 C767 1.398 . S
C768 C769 1.391 . S
C769 H757 0.950 . S
C769 C765 1.393 . S
C769 C768 1.391 . S
C770 H760 0.950 . S
C770 C771 1.386 . S
C770 C772 1.391 . S
C771 C770 1.386 . S
C771 C775 1.393 . S
C772 H761 0.950 . S
C772 C770 1.391 . S
C772 C773 1.400 . S
C773 C767 1.491 . S
C773 C772 1.400 . S
C773 C774 1.398 . S
C774 H762 0.950 . S
C774 C773 1.398 . S
C774 C775 1.391 . S
C775 H763 0.950 . S
C775 C771 1.393 . S
C775 C774 1.391 . S
H776 C784 0.950 . S
H777 C789 0.950 . S
H778 C786 0.950 . S
H779 C788 0.950 . S
H780 C790 0.950 . S
H781 C792 0.950 . S
H782 C794 0.950 . S
H783 C795 0.950 . S
C784 H776 0.950 . S
C784 C785 1.386 . S
C784 C786 1.391 . S
C785 C784 1.386 . S
C785 C789 1.393 . S
C786 H778 0.950 . S
C786 C784 1.391 . S
C786 C787 1.400 . S
C787 C786 1.400 . S
C787 C788 1.398 . S
C787 C793 1.491 . S
C788 H779 0.950 . S
C788 C787 1.398 . S
C788 C789 1.391 . S
C789 H777 0.950 . S
C789 C785 1.393 . S
C789 C788 1.391 . S
C790 H780 0.950 . S
C790 C791 1.386 . S
C790 C792 1.391 . S
C791 C790 1.386 . S
C791 C795 1.393 . S
C792 H781 0.950 . S
C792 C790 1.391 . S
C792 C793 1.400 . S
C793 C787 1.491 . S
C793 C792 1.400 . S
C793 C794 1.398 . S
C794 H782 0.950 . S
C794 C793 1.398 . S
C794 C795 1.391 . S
C795 H783 0.950 . S
C795 C791 1.393 . S
C795 C794 1.391 . S
H796 C804 0.950 . S
H797 C809 0.950 . S
H798 C806 0.950 . S
H799 C808 0.950 . S
H800 C810 0.950 . S
H801 C812 0.950 . S
H802 C814 0.950 . S
H803 C815 0.950 . S
C804 H796 0.950 . S
C804 C805 1.386 . S
C804 C806 1.391 . S
C805 C804 1.386 . S
C805 C809 1.393 . S
C806 H798 0.950 . S
C806 C804 1.391 . S
C806 C807 1.400 . S
C807 C806 1.400 . S
C807 C808 1.398 . S
C807 C813 1.491 . S
C808 H799 0.950 . S
C808 C807 1.398 . S
C808 C809 1.391 . S
C809 H797 0.950 . S
C809 C805 1.393 . S
C809 C808 1.391 . S
C810 H800 0.950 . S
C810 C811 1.386 . S
C810 C812 1.391 . S
C811 C810 1.386 . S
C811 C815 1.393 . S
C812 H801 0.950 . S
C812 C810 1.391 . S
C812 C813 1.400 . S
C813 C807 1.491 . S
C813 C812 1.400 . S
C813 C814 1.398 . S
C814 H802 0.950 . S
C814 C813 1.398 . S
C814 C815 1.391 . S
C815 H803 0.950 . S
C815 C811 1.393 . S
C815 C814 1.391 . S
H816 C824 0.950 . S
H817 C829 0.950 . S
H818 C826 0.950 . S
H819 C828 0.950 . S
H820 C830 0.950 . S
H821 C832 0.950 . S
H822 C834 0.950 . S
H823 C835 0.950 . S
C824 H816 0.950 . S
C824 C825 1.386 . S
C824 C826 1.391 . S
C825 C824 1.386 . S
C825 C829 1.393 . S
C826 H818 0.950 . S
C826 C824 1.391 . S
C826 C827 1.400 . S
C827 C826 1.400 . S
C827 C828 1.398 . S
C827 C833 1.491 . S
C828 H819 0.950 . S
C828 C827 1.398 . S
C828 C829 1.391 . S
C829 H817 0.950 . S
C829 C825 1.393 . S
C829 C828 1.391 . S
C830 H820 0.950 . S
C830 C831 1.386 . S
C830 C832 1.391 . S
C831 C830 1.386 . S
C831 C835 1.393 . S
C832 H821 0.950 . S
C832 C830 1.391 . S
C832 C833 1.400 . S
C833 C827 1.491 . S
C833 C832 1.400 . S
C833 C834 1.398 . S
C834 H822 0.950 . S
C834 C833 1.398 . S
C834 C835 1.391 . S
C835 H823 0.950 . S
C835 C831 1.393 . S
C835 C834 1.391 . S
H836 C844 0.950 . S
H837 C849 0.950 . S
H838 C846 0.950 . S
H839 C848 0.950 . S
H840 C850 0.950 . S
H841 C852 0.950 . S
H842 C854 0.950 . S
H843 C855 0.950 . S
C844 H836 0.950 . S
C844 C845 1.386 . S
C844 C846 1.391 . S
C845 C844 1.386 . S
C845 C849 1.393 . S
C846 H838 0.950 . S
C846 C844 1.391 . S
C846 C847 1.400 . S
C847 C846 1.400 . S
C847 C848 1.398 . S
C847 C853 1.491 . S
C848 H839 0.950 . S
C848 C847 1.398 . S
C848 C849 1.391 . S
C849 H837 0.950 . S
C849 C845 1.393 . S
C849 C848 1.391 . S
C850 H840 0.950 . S
C850 C851 1.386 . S
C850 C852 1.391 . S
C851 C850 1.386 . S
C851 C855 1.393 . S
C852 H841 0.950 . S
C852 C850 1.391 . S
C852 C853 1.400 . S
C853 C847 1.491 . S
C853 C852 1.400 . S
C853 C854 1.398 . S
C854 H842 0.950 . S
C854 C853 1.398 . S
C854 C855 1.391 . S
C855 H843 0.950 . S
C855 C851 1.393 . S
C855 C854 1.391 . S
H856 C864 0.950 . S
H857 C869 0.950 . S
H858 C866 0.950 . S
H859 C868 0.950 . S
H860 C870 0.950 . S
H861 C872 0.950 . S
H862 C874 0.950 . S
H863 C875 0.950 . S
C864 H856 0.950 . S
C864 C865 1.386 . S
C864 C866 1.391 . S
C865 C864 1.386 . S
C865 C869 1.393 . S
C866 H858 0.950 . S
C866 C864 1.391 . S
C866 C867 1.400 . S
C867 C866 1.400 . S
C867 C868 1.398 . S
C867 C873 1.491 . S
C868 H859 0.950 . S
C868 C867 1.398 . S
C868 C869 1.391 . S
C869 H857 0.950 . S
C869 C865 1.393 . S
C869 C868 1.391 . S
C870 H860 0.950 . S
C870 C871 1.386 . S
C870 C872 1.391 . S
C871 C870 1.386 . S
C871 C875 1.393 . S
C872 H861 0.950 . S
C872 C870 1.391 . S
C872 C873 1.400 . S
C873 C867 1.491 . S
C873 C872 1.400 . S
C873 C874 1.398 . S
C874 H862 0.950 . S
C874 C873 1.398 . S
C874 C875 1.391 . S
C875 H863 0.950 . S
C875 C871 1.393 . S
C875 C874 1.391 . S
H876 C884 0.950 . S
H877 C889 0.950 . S
H878 C886 0.950 . S
H879 C888 0.950 . S
H880 C890 0.950 . S
H881 C892 0.950 . S
H882 C894 0.950 . S
H883 C895 0.950 . S
C884 H876 0.950 . S
C884 C885 1.386 . S
C884 C886 1.391 . S
C885 C884 1.386 . S
C885 C889 1.393 . S
C886 H878 0.950 . S
C886 C884 1.391 . S
C886 C887 1.400 . S
C887 C886 1.400 . S
C887 C888 1.398 . S
C887 C893 1.491 . S
C888 H879 0.950 . S
C888 C887 1.398 . S
C888 C889 1.391 . S
C889 H877 0.950 . S
C889 C885 1.393 . S
C889 C888 1.391 . S
C890 H880 0.950 . S
C890 C891 1.386 . S
C890 C892 1.391 . S
C891 C890 1.386 . S
C891 C895 1.393 . S
C892 H881 0.950 . S
C892 C890 1.391 . S
C892 C893 1.400 . S
C893 C887 1.491 . S
C893 C892 1.400 . S
C893 C894 1.398 . S
C894 H882 0.950 . S
C894 C893 1.398 . S
C894 C895 1.391 . S
C895 H883 0.950 . S
C895 C891 1.393 . S
C895 C894 1.391 . S
C425 C29 0.931 . S
C431 C260 0.926 . S
C445 C49 1.023 . S
C451 C321 1.123 . S
C471 C359 2.553 . S
C465 C93 2.544 . S
C485 C119 2.251 . S
C491 C399 2.253 . S
C511 C319 1.179 . S
C505 C17 1.196 . S
C531 C287 2.051 . S
C525 C61 1.831 . S
C551 C396 1.735 . S
C545 C81 1.712 . S
C571 C356 1.896 . S
C565 C125 1.878 . S
C585 C23 1.051 . S
C591 C401 1.042 . S
C611 C316 2.357 . S
C605 C87 2.285 . S
C625 C113 2.187 . S
C631 C258 2.186 . S
C645 C55 1.309 . S
C651 C361 1.481 . S
C671 C281 0.917 . S
C665 C157 0.893 . S
C685 C189 1.163 . S
C691 C300 1.166 . S
C705 C221 2.561 . S
C711 C338 2.508 . S
C725 C253 2.304 . S
C731 C378 2.325 . S
C745 C145 1.177 . S
C751 C298 1.289 . S
C771 C276 2.015 . S
C765 C183 2.005 . S
C791 C407 1.781 . S
C785 C209 1.771 . S
C811 C367 1.853 . S
C805 C247 1.818 . S
C825 C151 1.009 . S
C831 C380 1.060 . S
C851 C327 2.352 . S
C845 C215 2.330 . S
C871 C279 2.153 . S
C865 C241 2.130 . S
C885 C177 1.497 . S
C891 C340 1.489 . S
