# Generated by pormake.
# Topology anh, (6,3)-cn, num edge types: 1
# Building blocks:
#     Node 0, Type 0, BuildingBlock: MIFKUJ_clean_sbu_0, # of connection points: 6
#     Node 1, Type 0, BuildingBlock: MIFKUJ_clean_sbu_0, # of connection points: 6
#     Node 2, Type 0, BuildingBlock: MIFKUJ_clean_sbu_0, # of connection points: 6
#     Node 3, Type 1, BuildingBlock: CUQRIR_clean_linker_1, # of connection points: 3
#     Node 4, Type 1, BuildingBlock: CUQRIR_clean_linker_1, # of connection points: 3
#     Node 5, Type 1, BuildingBlock: CUQRIR_clean_linker_1, # of connection points: 3
#     Node 6, Type 1, BuildingBlock: CUQRIR_clean_linker_1, # of connection points: 3
#     Node 7, Type 1, BuildingBlock: CUQRIR_clean_linker_1, # of connection points: 3
#     Node 8, Type 1, BuildingBlock: CUQRIR_clean_linker_1, # of connection points: 3
#     Edge 9, Type (0, 1), BuildingBlock: TEMPAE_clean_linker_10, # of connection points: 2
#     Edge 10, Type (0, 1), BuildingBlock: TEMPAE_clean_linker_10, # of connection points: 2
#     Edge 11, Type (0, 1), BuildingBlock: TEMPAE_clean_linker_10, # of connection points: 2
#     Edge 12, Type (0, 1), BuildingBlock: TEMPAE_clean_linker_10, # of connection points: 2
#     Edge 13, Type (0, 1), BuildingBlock: TEMPAE_clean_linker_10, # of connection points: 2
#     Edge 14, Type (0, 1), BuildingBlock: TEMPAE_clean_linker_10, # of connection points: 2
#     Edge 15, Type (0, 1), BuildingBlock: TEMPAE_clean_linker_10, # of connection points: 2
#     Edge 16, Type (0, 1), BuildingBlock: TEMPAE_clean_linker_10, # of connection points: 2
#     Edge 17, Type (0, 1), BuildingBlock: TEMPAE_clean_linker_10, # of connection points: 2
#     Edge 18, Type (0, 1), BuildingBlock: TEMPAE_clean_linker_10, # of connection points: 2
#     Edge 19, Type (0, 1), BuildingBlock: TEMPAE_clean_linker_10, # of connection points: 2
#     Edge 20, Type (0, 1), BuildingBlock: TEMPAE_clean_linker_10, # of connection points: 2
#     Edge 21, Type (0, 1), BuildingBlock: TEMPAE_clean_linker_10, # of connection points: 2
#     Edge 22, Type (0, 1), BuildingBlock: TEMPAE_clean_linker_10, # of connection points: 2
#     Edge 23, Type (0, 1), BuildingBlock: TEMPAE_clean_linker_10, # of connection points: 2
#     Edge 24, Type (0, 1), BuildingBlock: TEMPAE_clean_linker_10, # of connection points: 2
#     Edge 25, Type (0, 1), BuildingBlock: TEMPAE_clean_linker_10, # of connection points: 2
#     Edge 26, Type (0, 1), BuildingBlock: TEMPAE_clean_linker_10, # of connection points: 2
# Relax obj value: 0.118
# Max RMSD: 0.215
# Mean RMSD: 0.153
data_MOF--net-anh--node1-MIFKUJ_clean_sbu_0--node2-CUQRIR_clean_linker_1--edge1-TEMPAE_clean_linker_10
_symmetry_space_group_name_H-M    P1
_symmetry_Int_Tables_number       1
_symmetry_cell_setting            triclinic
loop_
_symmetry_equiv_pos_as_xyz
'x, y, z'
_cell_length_a     29.674508
_cell_length_b     29.741547
_cell_length_c     44.367105
_cell_angle_alpha  89.400988
_cell_angle_beta   90.865641
_cell_angle_gamma 120.17254
loop_
_atom_site_label
_atom_site_type_symbol
_atom_site_fract_x
_atom_site_fract_y
_atom_site_fract_z
_atom_type_partial_charge
Zn0 Zn 0.99986 0.52317 0.16512 0.0
Zn1 Zn 0.85701 0.40766 0.17316 0.0
C2 C 0.07613 0.49615 0.17738 0.0
O3 O 0.07811 0.52245 0.20147 0.0
C4 C 0.797 0.45733 0.14847 0.0
O5 O 0.83592 0.4835 0.12999 0.0
O6 O 0.053 0.59833 0.16032 0.0
O7 O 0.94022 0.50292 0.13714 0.0
O8 O 0.89755 0.41794 0.13436 0.0
C9 C 0.08271 0.61101 0.13765 0.0
O10 O 0.07151 0.57652 0.1163 0.0
O11 O 0.04143 0.48718 0.15733 0.0
C12 C 0.82284 0.29641 0.16852 0.0
O13 O 0.85546 0.31022 0.14599 0.0
O14 O 0.8183 0.33094 0.18255 0.0
O15 O 0.89791 0.44158 0.2119 0.0
O16 O 0.9776 0.51058 0.20773 0.0
O17 O 0.79929 0.4259 0.16732 0.0
C18 C 0.92847 0.46193 0.12283 0.0
C19 C 0.93956 0.4783 0.22362 0.0
Zn20 Zn 0.63836 0.10548 0.48162 0.0
Zn21 Zn 0.61556 0.97215 0.49422 0.0
C22 C 0.74938 0.17745 0.49214 0.0
O23 O 0.73739 0.16077 0.52001 0.0
C24 C 0.51735 0.89439 0.46921 0.0
O25 O 0.54865 0.892 0.44947 0.0
O26 O 0.60457 0.14866 0.48013 0.0
O27 O 0.60285 0.05088 0.44958 0.0
O28 O 0.64781 0.01064 0.45518 0.0
C29 C 0.61563 0.18294 0.45984 0.0
O30 O 0.64652 0.18677 0.43782 0.0
O31 O 0.71442 0.15709 0.47162 0.0
C32 C 0.62836 0.89696 0.52641 0.0
O33 O 0.60862 0.91211 0.54765 0.0
O34 O 0.6369 0.91862 0.50063 0.0
O35 O 0.63181 0.01101 0.5334 0.0
O36 O 0.63305 0.08508 0.52505 0.0
O37 O 0.53686 0.92846 0.48992 0.0
C38 C 0.62053 0.02349 0.4389 0.0
C39 C 0.63358 0.05188 0.54298 0.0
Zn40 Zn 0.63532 0.62304 0.83607 0.0
Zn41 Zn 0.52475 0.66229 0.84099 0.0
C42 C 0.62239 0.52419 0.84436 0.0
O43 O 0.64808 0.54879 0.86884 0.0
C44 C 0.54356 0.75601 0.81275 0.0
O45 O 0.51203 0.72158 0.79294 0.0
O46 O 0.71274 0.65413 0.83676 0.0
O47 O 0.61329 0.65994 0.80667 0.0
O48 O 0.52942 0.63054 0.80199 0.0
C49 C 0.7365 0.65228 0.81364 0.0
O50 O 0.71147 0.63857 0.78769 0.0
O51 O 0.60872 0.54786 0.82558 0.0
C52 C 0.43511 0.6442 0.87331 0.0
O53 O 0.47125 0.67248 0.8933 0.0
O54 O 0.44866 0.63491 0.84815 0.0
O55 O 0.55067 0.64325 0.87913 0.0
O56 O 0.61354 0.62341 0.87831 0.0
O57 O 0.55718 0.74016 0.83602 0.0
C58 C 0.57106 0.63468 0.79183 0.0
C59 C 0.5808 0.63039 0.89258 0.0
C60 C 0.4911 0.9087 0.17801 0.0
N61 N 0.52755 0.93624 0.19938 0.0
N62 N 0.44825 0.86879 0.19063 0.0
C63 C 0.49801 0.91937 0.14469 0.0
C64 C 0.45983 0.87291 0.22048 0.0
N65 N 0.5083 0.91361 0.2258 0.0
C66 C 0.42134 0.84137 0.24464 0.0
H67 H 0.48343 0.94597 0.13823 0.0
H68 H 0.4754 0.88278 0.13174 0.0
H69 H 0.53978 0.93814 0.13863 0.0
H70 H 0.42432 0.80629 0.24956 0.0
H71 H 0.38082 0.82852 0.23717 0.0
H72 H 0.42948 0.864 0.26573 0.0
C73 C 0.62545 0.53301 0.53616 0.0
N74 N 0.62192 0.56139 0.55854 0.0
N75 N 0.61433 0.48576 0.5466 0.0
C76 C 0.63727 0.55043 0.50387 0.0
C77 C 0.60375 0.48629 0.57614 0.0
N78 N 0.60778 0.53232 0.58335 0.0
C79 C 0.5887 0.44164 0.59767 0.0
H80 H 0.60083 0.5436 0.49247 0.0
H81 H 0.65243 0.52836 0.4918 0.0
H82 H 0.66603 0.59261 0.50251 0.0
H83 H 0.6055 0.41737 0.59104 0.0
H84 H 0.54564 0.41657 0.59741 0.0
H85 H 0.60169 0.45595 0.62097 0.0
C86 C 0.04809 0.5693 0.86878 0.0
N87 N 0.06578 0.55346 0.89259 0.0
N88 N 0.99818 0.55712 0.87303 0.0
C89 C 0.07873 0.59476 0.84079 0.0
C90 C 0.98604 0.5332 0.90028 0.0
N91 N 0.02685 0.53008 0.91193 0.0
C92 C 0.93705 0.51935 0.91727 0.0
H93 H 0.10176 0.63745 0.84419 0.0
H94 H 0.05228 0.58679 0.82111 0.0
H95 H 0.10614 0.58067 0.83602 0.0
H96 H 0.90735 0.47834 0.91238 0.0
H97 H 0.92094 0.54449 0.91042 0.0
H98 H 0.94444 0.52337 0.94194 0.0
C99 C 0.1195 0.55081 0.47318 0.0
N100 N 0.07874 0.51643 0.45594 0.0
N101 N 0.15273 0.59297 0.45654 0.0
C102 C 0.12718 0.54301 0.50591 0.0
C103 C 0.13077 0.58252 0.42862 0.0
N104 N 0.08605 0.53621 0.42837 0.0
C105 C 0.1534 0.61733 0.40152 0.0
H106 H 0.08911 0.52001 0.51726 0.0
H107 H 0.1507 0.58094 0.51743 0.0
H108 H 0.14828 0.5211 0.50775 0.0
H109 H 0.13927 0.59528 0.38016 0.0
H110 H 0.19662 0.63761 0.40228 0.0
H111 H 0.14137 0.64713 0.40163 0.0
C112 C 0.61409 0.15568 0.8024 0.0
N113 N 0.61932 0.12299 0.78357 0.0
N114 N 0.62505 0.20031 0.78783 0.0
C115 C 0.60101 0.14541 0.83525 0.0
C116 C 0.63692 0.19353 0.75954 0.0
N117 N 0.63389 0.14683 0.75705 0.0
C118 C 0.64681 0.23043 0.73365 0.0
H119 H 0.55805 0.12525 0.83768 0.0
H120 H 0.61834 0.18239 0.84803 0.0
H121 H 0.61515 0.12014 0.84495 0.0
H122 H 0.68945 0.25706 0.73164 0.0
H123 H 0.62805 0.25408 0.73738 0.0
H124 H 0.63201 0.20905 0.71209 0.0
C125 C 0.43464 0.47574 0.1436 0.0
N126 N 0.47262 0.48394 0.12385 0.0
N127 N 0.39769 0.48319 0.12986 0.0
C128 C 0.43419 0.4617 0.17623 0.0
C129 C 0.4143 0.49579 0.10118 0.0
N130 N 0.45943 0.49591 0.09751 0.0
C131 C 0.38774 0.51061 0.07712 0.0
H132 H 0.39397 0.44124 0.18511 0.0
H133 H 0.45747 0.4979 0.18939 0.0
H134 H 0.45208 0.43694 0.17936 0.0
H135 H 0.40497 0.55347 0.07724 0.0
H136 H 0.34533 0.49223 0.08134 0.0
H137 H 0.39355 0.49916 0.05445 0.0
C138 C 0.1513 0.48795 0.19643 0.0
C139 C 0.11823 0.48404 0.17238 0.0
C140 C 0.19562 0.48357 0.19177 0.0
C141 C 0.20758 0.47551 0.16228 0.0
C142 C 0.17322 0.46944 0.13806 0.0
C143 C 0.12878 0.47352 0.14342 0.0
C144 C 0.23089 0.4899 0.21826 0.0
C145 C 0.1847 0.46108 0.10623 0.0
C146 C 0.3497 0.52739 0.14284 0.0
C147 C 0.35258 0.48188 0.14235 0.0
C148 C 0.303 0.52591 0.14979 0.0
C149 C 0.25802 0.47759 0.15645 0.0
C150 C 0.26133 0.43166 0.15703 0.0
C151 C 0.30867 0.43436 0.14982 0.0
C152 C 0.30137 0.57584 0.14902 0.0
C153 C 0.21449 0.37953 0.16428 0.0
H154 H 0.14329 0.4958 0.21893 0.0
H155 H 0.10358 0.47071 0.12469 0.0
H156 H 0.23956 0.4577 0.21888 0.0
H157 H 0.26855 0.52673 0.2158 0.0
H158 H 0.21352 0.49078 0.24009 0.0
H159 H 0.15236 0.4534 0.09031 0.0
H160 H 0.22067 0.49611 0.09839 0.0
H161 H 0.19185 0.42791 0.10546 0.0
H162 H 0.38378 0.5639 0.13668 0.0
H163 H 0.311 0.3992 0.14885 0.0
H164 H 0.28682 0.58137 0.17075 0.0
H165 H 0.27387 0.57371 0.1311 0.0
H166 H 0.34023 0.6104 0.14471 0.0
H167 H 0.19752 0.38138 0.18602 0.0
H168 H 0.22433 0.34811 0.16567 0.0
H169 H 0.18399 0.36919 0.14664 0.0
C170 C 0.8088 0.25325 0.45939 0.0
C171 C 0.80099 0.22379 0.48573 0.0
C172 C 0.85565 0.30035 0.45481 0.0
C173 C 0.89592 0.31811 0.47692 0.0
C174 C 0.88891 0.2876 0.50303 0.0
C175 C 0.84149 0.24106 0.5072 0.0
C176 C 0.86143 0.33192 0.42674 0.0
C177 C 0.93111 0.3047 0.5269 0.0
C178 C 0.03242 0.42122 0.45309 0.0
C179 C 0.03571 0.46656 0.4643 0.0
C180 C 0.9876 0.37245 0.45754 0.0
C181 C 0.94478 0.36928 0.47315 0.0
C182 C 0.94835 0.41525 0.48476 0.0
C183 C 0.99395 0.46341 0.48021 0.0
C184 C 0.98565 0.32454 0.44497 0.0
C185 C 0.90344 0.41374 0.50119 0.0
H186 H 0.77762 0.24045 0.44278 0.0
H187 H 0.8359 0.21849 0.52757 0.0
H188 H 0.86638 0.37016 0.43307 0.0
H189 H 0.89685 0.33972 0.41435 0.0
H190 H 0.82719 0.31206 0.41131 0.0
H191 H 0.92066 0.2753 0.54512 0.0
H192 H 0.96811 0.31213 0.51662 0.0
H193 H 0.93847 0.34171 0.5371 0.0
H194 H 0.06471 0.42433 0.4403 0.0
H195 H 0.9965 0.49897 0.48815 0.0
H196 H 0.95453 0.30682 0.42748 0.0
H197 H 0.97586 0.29509 0.46305 0.0
H198 H 0.02321 0.33334 0.43478 0.0
H199 H 0.86884 0.39853 0.486 0.0
H200 H 0.91283 0.45274 0.50933 0.0
H201 H 0.89251 0.38693 0.52078 0.0
C202 C 0.58471 0.84737 0.83231 0.0
C203 C 0.55953 0.81167 0.80887 0.0
C204 C 0.59671 0.89936 0.82944 0.0
C205 C 0.58353 0.91611 0.80244 0.0
C206 C 0.55925 0.88058 0.77844 0.0
C207 C 0.54742 0.82883 0.78198 0.0
C208 C 0.62259 0.93612 0.85552 0.0
C209 C 0.54501 0.89705 0.74917 0.0
C210 C 0.56469 0.03351 0.80261 0.0
C211 C 0.61159 0.07206 0.79026 0.0
C212 C 0.55553 0.98284 0.8074 0.0
C213 C 0.5941 0.9705 0.79935 0.0
C214 C 0.64186 0.00967 0.78721 0.0
C215 C 0.65004 0.06004 0.78292 0.0
C216 C 0.50409 0.94222 0.82036 0.0
C217 C 0.68381 0.9981 0.77814 0.0
H218 H 0.59411 0.83446 0.85318 0.0
H219 H 0.52818 0.80164 0.76369 0.0
H220 H 0.65932 0.97064 0.84806 0.0
H221 H 0.59675 0.95029 0.86363 0.0
H222 H 0.63161 0.91746 0.87467 0.0
H223 H 0.52783 0.86515 0.73235 0.0
H224 H 0.5165 0.90994 0.75345 0.0
H225 H 0.58004 0.93062 0.73928 0.0
H226 H 0.53473 0.04278 0.80777 0.0
H227 H 0.68637 0.09016 0.7735 0.0
H228 H 0.5108 0.92379 0.84048 0.0
H229 H 0.48233 0.91108 0.80353 0.0
H230 H 0.47941 0.95876 0.8269 0.0
H231 H 0.69454 0.98127 0.79747 0.0
H232 H 0.71946 0.03337 0.77012 0.0
H233 H 0.66892 0.96876 0.75985 0.0
C234 C 0.70565 0.4309 0.16381 0.0
C235 C 0.7499 0.46298 0.14661 0.0
C236 C 0.66023 0.43453 0.16137 0.0
C237 C 0.65894 0.47134 0.14138 0.0
C238 C 0.70376 0.50447 0.12436 0.0
C239 C 0.74854 0.4998 0.1271 0.0
C240 C 0.61325 0.39828 0.1798 0.0
C241 C 0.70417 0.54443 0.1029 0.0
C242 C 0.52776 0.44701 0.1111 0.0
C243 C 0.51845 0.47971 0.12917 0.0
C244 C 0.57304 0.44363 0.11498 0.0
C245 C 0.61016 0.47397 0.13746 0.0
C246 C 0.60077 0.50705 0.15587 0.0
C247 C 0.55493 0.50946 0.15151 0.0
C248 C 0.58124 0.40773 0.09491 0.0
C249 C 0.63948 0.5404 0.17988 0.0
H250 H 0.70615 0.4023 0.17893 0.0
H251 H 0.78247 0.52492 0.11377 0.0
H252 H 0.60103 0.42099 0.19371 0.0
H253 H 0.58007 0.37337 0.16458 0.0
H254 H 0.62093 0.3728 0.19491 0.0
H255 H 0.74271 0.5686 0.09217 0.0
H256 H 0.67434 0.52475 0.08491 0.0
H257 H 0.69391 0.57043 0.11504 0.0
H258 H 0.49927 0.42393 0.09393 0.0
H259 H 0.54795 0.53534 0.16513 0.0
H260 H 0.58599 0.37916 0.10885 0.0
H261 H 0.61754 0.4304 0.08187 0.0
H262 H 0.54827 0.38622 0.07884 0.0
H263 H 0.64634 0.51566 0.19601 0.0
H264 H 0.62605 0.56342 0.19259 0.0
H265 H 0.67745 0.56757 0.1694 0.0
C266 C 0.43845 0.82249 0.44385 0.0
C267 C 0.46123 0.854 0.46924 0.0
C268 C 0.38669 0.78114 0.44423 0.0
C269 C 0.35697 0.7705 0.47078 0.0
C270 C 0.37943 0.80272 0.49634 0.0
C271 C 0.43117 0.84429 0.49521 0.0
C272 C 0.36404 0.74832 0.41629 0.0
C273 C 0.34922 0.79249 0.52512 0.0
C274 C 0.21027 0.68783 0.45942 0.0
C275 C 0.20165 0.63773 0.4652 0.0
C276 C 0.26025 0.73172 0.46233 0.0
C277 C 0.30259 0.72534 0.4716 0.0
C278 C 0.29335 0.67499 0.47929 0.0
C279 C 0.24293 0.6317 0.47585 0.0
C280 C 0.2682 0.78448 0.45383 0.0
C281 C 0.33722 0.66651 0.48961 0.0
H282 H 0.4613 0.82987 0.42365 0.0
H283 H 0.44858 0.86822 0.51501 0.0
H284 H 0.3536 0.70759 0.42123 0.0
H285 H 0.3277 0.74772 0.40924 0.0
H286 H 0.39159 0.76284 0.39715 0.0
H287 H 0.37169 0.82197 0.54272 0.0
H288 H 0.31225 0.79229 0.52058 0.0
H289 H 0.33872 0.7535 0.53408 0.0
H290 H 0.17805 0.69227 0.4514 0.0
H291 H 0.2362 0.59286 0.48005 0.0
H292 H 0.29195 0.79866 0.43312 0.0
H293 H 0.28994 0.81307 0.47192 0.0
H294 H 0.23071 0.78346 0.44958 0.0
H295 H 0.36417 0.67436 0.47064 0.0
H296 H 0.32279 0.62613 0.49773 0.0
H297 H 0.36005 0.69393 0.50799 0.0
C298 C 0.62747 0.44584 0.85963 0.0
C299 C 0.61498 0.4722 0.83764 0.0
C300 C 0.62596 0.3991 0.85301 0.0
C301 C 0.61178 0.37821 0.82361 0.0
C302 C 0.59744 0.40368 0.80155 0.0
C303 C 0.59908 0.45036 0.80885 0.0
C304 C 0.64151 0.37317 0.87716 0.0
C305 C 0.58222 0.38266 0.76993 0.0
C306 C 0.66575 0.29432 0.7962 0.0
C307 C 0.62256 0.24426 0.79895 0.0
C308 C 0.66281 0.3382 0.80434 0.0
C309 C 0.61539 0.3317 0.81547 0.0
C310 C 0.57188 0.28098 0.81885 0.0
C311 C 0.57604 0.23775 0.81053 0.0
C312 C 0.71021 0.39153 0.80059 0.0
C313 C 0.52079 0.2725 0.83074 0.0
H314 H 0.63959 0.46232 0.88198 0.0
H315 H 0.58951 0.47057 0.79171 0.0
H316 H 0.61124 0.33156 0.87936 0.0
H317 H 0.67825 0.37469 0.87074 0.0
H318 H 0.64755 0.39211 0.89947 0.0
H319 H 0.5693 0.4054 0.75593 0.0
H320 H 0.61593 0.38356 0.75883 0.0
H321 H 0.55033 0.3415 0.77054 0.0
H322 H 0.70163 0.29893 0.78726 0.0
H323 H 0.5426 0.19889 0.81225 0.0
H324 H 0.72014 0.41294 0.82224 0.0
H325 H 0.70163 0.41434 0.78389 0.0
H326 H 0.74475 0.38975 0.79294 0.0
H327 H 0.52688 0.29084 0.85321 0.0
H328 H 0.49114 0.23057 0.83274 0.0
H329 H 0.5052 0.2914 0.8155 0.0
C330 C 0.63558 0.82233 0.50733 0.0
C331 C 0.63509 0.85168 0.53168 0.0
C332 C 0.63604 0.77592 0.51215 0.0
C333 C 0.63702 0.7592 0.54202 0.0
C334 C 0.63886 0.78986 0.56668 0.0
C335 C 0.63737 0.83559 0.5612 0.0
C336 C 0.63333 0.74374 0.48533 0.0
C337 C 0.64096 0.77364 0.59882 0.0
C338 C 0.58091 0.61487 0.55514 0.0
C339 C 0.62594 0.61118 0.55539 0.0
C340 C 0.58396 0.66304 0.55091 0.0
C341 C 0.63345 0.7083 0.54743 0.0
C342 C 0.67921 0.70465 0.54846 0.0
C343 C 0.67478 0.65576 0.55216 0.0
C344 C 0.5343 0.66537 0.54961 0.0
C345 C 0.73262 0.75219 0.54548 0.0
H346 H 0.63348 0.83451 0.48448 0.0
H347 H 0.63737 0.85846 0.58007 0.0
H348 H 0.66609 0.73584 0.48619 0.0
H349 H 0.59664 0.70561 0.48599 0.0
H350 H 0.63469 0.76317 0.46357 0.0
H351 H 0.64657 0.80395 0.61529 0.0
H352 H 0.60419 0.73735 0.60418 0.0
H353 H 0.6732 0.76521 0.60175 0.0
H354 H 0.5434 0.57977 0.5577 0.0
H355 H 0.7093 0.65205 0.55264 0.0
H356 H 0.53107 0.68155 0.52756 0.0
H357 H 0.53502 0.6917 0.56737 0.0
H358 H 0.49905 0.6265 0.55266 0.0
H359 H 0.73617 0.77056 0.52309 0.0
H360 H 0.76429 0.74281 0.54807 0.0
H361 H 0.73825 0.78135 0.56275 0.0
C362 C 0.81008 0.64415 0.79294 0.0
C363 C 0.78588 0.65193 0.81767 0.0
C364 C 0.8507 0.63336 0.79719 0.0
C365 C 0.86677 0.62963 0.82683 0.0
C366 C 0.84465 0.64058 0.85175 0.0
C367 C 0.80484 0.65211 0.84684 0.0
C368 C 0.87432 0.62314 0.77008 0.0
C369 C 0.86057 0.63679 0.88378 0.0
C370 C 0.9162 0.53876 0.8483 0.0
C371 C 0.96813 0.57415 0.85577 0.0
C372 C 0.88326 0.55608 0.8369 0.0
C373 C 0.90333 0.61006 0.8324 0.0
C374 C 0.95697 0.64548 0.83744 0.0
C375 C 0.98869 0.62709 0.84944 0.0
C376 C 0.82621 0.51701 0.83196 0.0
C377 C 0.98003 0.70313 0.83227 0.0
H378 H 0.79587 0.64427 0.7703 0.0
H379 H 0.78656 0.65827 0.8661 0.0
H380 H 0.91742 0.64342 0.77231 0.0
H381 H 0.86008 0.58088 0.7685 0.0
H382 H 0.86386 0.63585 0.74877 0.0
H383 H 0.84135 0.64894 0.90053 0.0
H384 H 0.85014 0.59605 0.88879 0.0
H385 H 0.9034 0.66142 0.8867 0.0
H386 H 0.9008 0.49781 0.85306 0.0
H387 H 0.02881 0.65443 0.85552 0.0
H388 H 0.81303 0.52242 0.80939 0.0
H389 H 0.80269 0.52304 0.84895 0.0
H390 H 0.81799 0.4763 0.83391 0.0
H391 H 0.96556 0.71063 0.81068 0.0
H392 H 0.02331 0.72386 0.83195 0.0
H393 H 0.9679 0.71972 0.85061 0.0
C394 C 0.15047 0.68969 0.1648 0.0
C395 C 0.13503 0.6581 0.1391 0.0
C396 C 0.20274 0.72777 0.16956 0.0
C397 C 0.24036 0.73479 0.14794 0.0
C398 C 0.22445 0.70579 0.1209 0.0
C399 C 0.17189 0.66763 0.1168 0.0
C400 C 0.21816 0.75801 0.19871 0.0
C401 C 0.26337 0.71271 0.09715 0.0
C402 C 0.37283 0.8551 0.15979 0.0
C403 C 0.39883 0.83462 0.17648 0.0
C404 C 0.32199 0.82265 0.14882 0.0
C405 C 0.29658 0.76873 0.15522 0.0
C406 C 0.32362 0.74768 0.17105 0.0
C407 C 0.37463 0.78098 0.18137 0.0
C408 C 0.29468 0.84639 0.13169 0.0
C409 C 0.29782 0.69041 0.17844 0.0
H410 H 0.12223 0.68284 0.18206 0.0
H411 H 0.16025 0.64362 0.09677 0.0
H412 H 0.24231 0.74671 0.21262 0.0
H413 H 0.24214 0.80031 0.19411 0.0
H414 H 0.18379 0.75088 0.21205 0.0
H415 H 0.24399 0.6933 0.07566 0.0
H416 H 0.29043 0.7546 0.09264 0.0
H417 H 0.28714 0.69577 0.1054 0.0
H418 H 0.39152 0.89676 0.15642 0.0
H419 H 0.39522 0.76551 0.19417 0.0
H420 H 0.26356 0.84516 0.14583 0.0
H421 H 0.27573 0.82376 0.11097 0.0
H422 H 0.32189 0.88748 0.12528 0.0
H423 H 0.2656 0.67982 0.19446 0.0
H424 H 0.32555 0.67973 0.18873 0.0
H425 H 0.28052 0.66687 0.1578 0.0
C426 C 0.6289 0.27128 0.44873 0.0
C427 C 0.60315 0.22442 0.46491 0.0
C428 C 0.62632 0.31491 0.45791 0.0
C429 C 0.59733 0.31126 0.48378 0.0
C430 C 0.56756 0.26282 0.4985 0.0
C431 C 0.57073 0.2199 0.48881 0.0
C432 C 0.65798 0.36582 0.44141 0.0
C433 C 0.53587 0.25731 0.52606 0.0
C434 C 0.64723 0.42722 0.53546 0.0
C435 C 0.61141 0.44365 0.52972 0.0
C436 C 0.64383 0.38487 0.51998 0.0
C437 C 0.60381 0.35894 0.49808 0.0
C438 C 0.56862 0.37678 0.49146 0.0
C439 C 0.57284 0.41912 0.50751 0.0
C440 C 0.68216 0.36703 0.52767 0.0
C441 C 0.52587 0.35038 0.46808 0.0
H442 H 0.6537 0.27494 0.43007 0.0
H443 H 0.55009 0.18354 0.50114 0.0
H444 H 0.63533 0.38595 0.43823 0.0
H445 H 0.69321 0.39171 0.45502 0.0
H446 H 0.67073 0.36025 0.41903 0.0
H447 H 0.51005 0.21597 0.53256 0.0
H448 H 0.56254 0.27782 0.54529 0.0
H449 H 0.51155 0.27548 0.52213 0.0
H450 H 0.67738 0.44727 0.55242 0.0
H451 H 0.54561 0.4327 0.50318 0.0
H452 H 0.70231 0.36606 0.50704 0.0
H453 H 0.66106 0.32691 0.53694 0.0
H454 H 0.71199 0.39268 0.54447 0.0
H455 H 0.54222 0.34656 0.44657 0.0
H456 H 0.50483 0.37194 0.46373 0.0
H457 H 0.49736 0.31052 0.47579 0.0
C458 C 0.36362 0.62529 0.90929 0.0
C459 C 0.37959 0.62472 0.87976 0.0
C460 C 0.31144 0.60934 0.91548 0.0
C461 C 0.27471 0.5933 0.8915 0.0
C462 C 0.29033 0.59118 0.86178 0.0
C463 C 0.34254 0.60658 0.85631 0.0
C464 C 0.29599 0.61126 0.94751 0.0
C465 C 0.25236 0.57475 0.83554 0.0
C466 C 0.12802 0.52293 0.90171 0.0
C467 C 0.11814 0.56378 0.89715 0.0
C468 C 0.17936 0.53221 0.90168 0.0
C469 C 0.22117 0.58343 0.89671 0.0
C470 C 0.21121 0.62511 0.89396 0.0
C471 C 0.15974 0.61472 0.89449 0.0
C472 C 0.1886 0.48698 0.90533 0.0
C473 C 0.25456 0.68028 0.88864 0.0
H474 H 0.392 0.63864 0.92758 0.0
H475 H 0.35463 0.60595 0.83346 0.0
H476 H 0.28645 0.64267 0.94965 0.0
H477 H 0.26054 0.57417 0.95354 0.0
H478 H 0.32757 0.61864 0.96395 0.0
H479 H 0.27009 0.57269 0.8141 0.0
H480 H 0.21777 0.53611 0.84007 0.0
H481 H 0.23839 0.60285 0.83259 0.0
H482 H 0.09548 0.48362 0.90391 0.0
H483 H 0.1516 0.64619 0.89167 0.0
H484 H 0.22102 0.49669 0.92155 0.0
H485 H 0.20007 0.47847 0.88337 0.0
H486 H 0.15323 0.45131 0.91324 0.0
H487 H 0.28559 0.69178 0.90605 0.0
H488 H 0.24048 0.70854 0.88891 0.0
H489 H 0.27248 0.68295 0.86643 0.0
C490 C 0.75877 0.22645 0.20239 0.0
C491 C 0.78792 0.2408 0.17583 0.0
C492 C 0.721 0.17447 0.208 0.0
C493 C 0.71173 0.13609 0.18634 0.0
C494 C 0.74302 0.14984 0.1603 0.0
C495 C 0.781 0.20207 0.15543 0.0
C496 C 0.68895 0.16117 0.23629 0.0
C497 C 0.73411 0.11 0.13663 0.0
C498 C 0.62246 0.99357 0.20648 0.0
C499 C 0.57465 0.98529 0.19507 0.0
C500 C 0.66783 0.04248 0.20375 0.0
C501 C 0.665 0.08345 0.18895 0.0
C502 C 0.61673 0.07478 0.17708 0.0
C503 C 0.57211 0.02595 0.18058 0.0
C504 C 0.71842 0.05059 0.21714 0.0
C505 C 0.61196 0.11733 0.1611 0.0
H506 H 0.76444 0.25609 0.21848 0.0
H507 H 0.80354 0.21282 0.13492 0.0
H508 H 0.64863 0.15156 0.23032 0.0
H509 H 0.68636 0.12644 0.24749 0.0
H510 H 0.70541 0.19385 0.2526 0.0
H511 H 0.76547 0.12557 0.11957 0.0
H512 H 0.73171 0.07492 0.14721 0.0
H513 H 0.69637 0.09755 0.12489 0.0
H514 H 0.62401 0.96191 0.2178 0.0
H515 H 0.53475 0.01967 0.17253 0.0
H516 H 0.73214 0.08047 0.23508 0.0
H517 H 0.74897 0.06529 0.19965 0.0
H518 H 0.71438 0.01426 0.22698 0.0
H519 H 0.62205 0.14981 0.17689 0.0
H520 H 0.572 0.10343 0.15205 0.0
H521 H 0.63977 0.13317 0.14216 0.0
C522 C 0.93753 0.4929 0.07031 0.0
C523 C 0.94887 0.46617 0.0924 0.0
C524 C 0.95761 0.49939 0.04124 0.0
C525 C 0.99143 0.4802 0.03445 0.0
C526 C 0.00396 0.45407 0.05703 0.0
C527 C 0.98173 0.44658 0.08576 0.0
C528 C 0.94201 0.52627 0.01769 0.0
C529 C 0.04139 0.43493 0.051 0.0
C530 C 0.99095 0.46219 0.95062 0.0
C531 C 0.0294 0.51206 0.94176 0.0
C532 C 0.98131 0.44905 0.9812 0.0
C533 C 0.01167 0.48662 0.00329 0.0
C534 C 0.05496 0.53468 0.9943 0.0
C535 C 0.06302 0.5471 0.96348 0.0
C536 C 0.9347 0.39745 0.98963 0.0
C537 C 0.08925 0.5752 0.01714 0.0
H538 H 0.91223 0.50814 0.07574 0.0
H539 H 0.99108 0.42673 0.10324 0.0
H540 H 0.9771 0.56103 0.0088 0.0
H541 H 0.92224 0.49963 0.99846 0.0
H542 H 0.9153 0.53875 0.02671 0.0
H543 H 0.04616 0.41438 0.07077 0.0
H544 H 0.02771 0.40825 0.03141 0.0
H545 H 0.08013 0.46835 0.04518 0.0
H546 H 0.9653 0.43527 0.93358 0.0
H547 H 0.09266 0.58573 0.95651 0.0
H548 H 0.9024 0.4037 0.99639 0.0
H549 H 0.94396 0.37968 0.00909 0.0
H550 H 0.92081 0.36963 0.97052 0.0
H551 H 0.06914 0.59568 0.02521 0.0
H552 H 0.12704 0.60455 0.00726 0.0
H553 H 0.09696 0.55697 0.037 0.0
C554 C 0.64597 0.00827 0.38827 0.0
C555 C 0.60769 0.0056 0.40749 0.0
C556 C 0.63459 0.99491 0.35768 0.0
C557 C 0.58333 0.97679 0.34654 0.0
C558 C 0.54421 0.9724 0.36625 0.0
C559 C 0.55713 0.98776 0.39638 0.0
C560 C 0.67757 0.00136 0.33714 0.0
C561 C 0.48868 0.95164 0.35553 0.0
C562 C 0.55054 0.98264 0.26415 0.0
C563 C 0.53261 0.93143 0.25498 0.0
C564 C 0.57041 0.99891 0.2934 0.0
C565 C 0.57012 0.9624 0.31429 0.0
C566 C 0.55293 0.91086 0.30491 0.0
C567 C 0.53523 0.89632 0.27518 0.0
C568 C 0.58988 0.05464 0.30224 0.0
C569 C 0.5507 0.87039 0.32665 0.0
H570 H 0.68519 0.02253 0.39693 0.0
H571 H 0.5275 0.98532 0.41142 0.0
H572 H 0.66707 0.96363 0.32662 0.0
H573 H 0.68254 0.02877 0.3186 0.0
H574 H 0.71542 0.01628 0.34929 0.0
H575 H 0.46239 0.94793 0.37415 0.0
H576 H 0.48732 0.97791 0.33806 0.0
H577 H 0.47352 0.9129 0.34501 0.0
H578 H 0.54765 0.00956 0.24871 0.0
H579 H 0.52159 0.85684 0.26788 0.0
H580 H 0.62843 0.07122 0.31372 0.0
H581 H 0.56251 0.05619 0.31837 0.0
H582 H 0.59356 0.07943 0.28245 0.0
H583 H 0.5892 0.88439 0.33772 0.0
H584 H 0.53881 0.8328 0.31538 0.0
H585 H 0.52235 0.86346 0.34467 0.0
C586 C 0.54879 0.6308 0.73713 0.0
C587 C 0.57213 0.61809 0.76083 0.0
C588 C 0.55245 0.61783 0.70725 0.0
C589 C 0.57867 0.59017 0.70128 0.0
C590 C 0.60081 0.57588 0.72536 0.0
C591 C 0.59786 0.59072 0.75478 0.0
C592 C 0.52952 0.63485 0.68206 0.0
C593 C 0.62791 0.54519 0.72008 0.0
C594 C 0.55306 0.51613 0.62796 0.0
C595 C 0.599 0.54802 0.61224 0.0
C596 C 0.54549 0.52962 0.65688 0.0
C597 C 0.58415 0.577 0.66985 0.0
C598 C 0.62956 0.61048 0.65341 0.0
C599 C 0.63677 0.59513 0.62497 0.0
C600 C 0.49695 0.49252 0.67388 0.0
C601 C 0.67113 0.66189 0.66614 0.0
H602 H 0.52915 0.65234 0.74187 0.0
H603 H 0.61518 0.58033 0.77312 0.0
H604 H 0.56076 0.66094 0.66636 0.0
H605 H 0.5008 0.60065 0.66886 0.0
H606 H 0.50996 0.65567 0.69053 0.0
H607 H 0.6405 0.53479 0.74147 0.0
H608 H 0.60153 0.50886 0.70769 0.0
H609 H 0.66274 0.56815 0.70592 0.0
H610 H 0.5234 0.48028 0.61772 0.0
H611 H 0.67248 0.61946 0.61288 0.0
H612 H 0.47577 0.51252 0.68083 0.0
H613 H 0.5079 0.47921 0.69474 0.0
H614 H 0.4701 0.45787 0.66028 0.0
H615 H 0.65341 0.68472 0.67409 0.0
H616 H 0.70145 0.6855 0.64931 0.0
H617 H 0.69027 0.65499 0.68589 0.0
C618 C 0.64765 0.03238 0.5964 0.0
C619 C 0.63545 0.06102 0.57585 0.0
C620 C 0.64929 0.0411 0.62759 0.0
C621 C 0.63783 0.07882 0.63837 0.0
C622 C 0.62503 0.10744 0.61774 0.0
C623 C 0.62437 0.09845 0.58678 0.0
C624 C 0.66378 0.01043 0.64895 0.0
C625 C 0.61191 0.14759 0.62837 0.0
C626 C 0.59344 0.08047 0.71767 0.0
C627 C 0.63754 0.1239 0.72954 0.0
C628 C 0.59389 0.0629 0.68852 0.0
C629 C 0.63973 0.08951 0.67114 0.0
C630 C 0.6855 0.13111 0.68405 0.0
C631 C 0.68369 0.14805 0.71313 0.0
C632 C 0.54424 0.01851 0.6756 0.0
C633 C 0.73537 0.15992 0.66648 0.0
H634 H 0.65647 0.00354 0.58813 0.0
H635 H 0.61452 0.1205 0.57111 0.0
H636 H 0.69969 0.03732 0.66173 0.0
H637 H 0.63248 0.98944 0.66566 0.0
H638 H 0.67056 0.98175 0.63701 0.0
H639 H 0.60145 0.16549 0.60943 0.0
H640 H 0.57874 0.12947 0.64419 0.0
H641 H 0.64564 0.17892 0.6408 0.0
H642 H 0.55785 0.06222 0.7306 0.0
H643 H 0.71768 0.18149 0.72272 0.0
H644 H 0.55215 0.99043 0.66395 0.0
H645 H 0.52757 0.03393 0.65862 0.0
H646 H 0.51463 0.99747 0.69325 0.0
H647 H 0.74421 0.13216 0.65522 0.0
H648 H 0.76906 0.18613 0.68109 0.0
H649 H 0.73077 0.18374 0.64861 0.0
C650 C 0.60525 0.6013 0.94028 0.0
C651 C 0.57418 0.61806 0.92529 0.0
C652 C 0.59519 0.58336 0.97019 0.0
C653 C 0.55307 0.58209 0.98543 0.0
C654 C 0.52314 0.60118 0.97095 0.0
C655 C 0.53411 0.61896 0.94111 0.0
C656 C 0.62812 0.56361 0.98497 0.0
C657 C 0.47791 0.60066 0.98651 0.0
C658 C 0.47603 0.4829 0.04547 0.0
C659 C 0.49118 0.514 0.07118 0.0
C660 C 0.49869 0.50381 0.01755 0.0
C661 C 0.53719 0.55715 0.01556 0.0
C662 C 0.55541 0.58759 0.04207 0.0
C663 C 0.53196 0.56549 0.06971 0.0
C664 C 0.47843 0.46988 0.9899 0.0
C665 C 0.59669 0.64438 0.04094 0.0
H666 H 0.63653 0.60062 0.92837 0.0
H667 H 0.50996 0.63184 0.9299 0.0
H668 H 0.64116 0.58066 0.00776 0.0
H669 H 0.60448 0.5208 0.98782 0.0
H670 H 0.66295 0.57277 0.97145 0.0
H671 H 0.46042 0.61956 0.97275 0.0
H672 H 0.4472 0.55993 0.99117 0.0
H673 H 0.49083 0.62092 0.0085 0.0
H674 H 0.44418 0.4431 0.04702 0.0
H675 H 0.54304 0.58916 0.08986 0.0
H676 H 0.51122 0.4741 0.97612 0.0
H677 H 0.4555 0.48234 0.97572 0.0
H678 H 0.45304 0.42816 0.99576 0.0
H679 H 0.62942 0.65047 0.02643 0.0
H680 H 0.6123 0.66013 0.06374 0.0
H681 H 0.57968 0.667 0.03095 0.0
C682 C 0.9182 0.43817 0.27531 0.0
C683 C 0.94664 0.4818 0.25676 0.0
C684 C 0.93109 0.43949 0.30606 0.0
C685 C 0.97314 0.4855 0.31832 0.0
C686 C 0.99963 0.53052 0.3001 0.0
C687 C 0.98609 0.52808 0.26959 0.0
C688 C 0.90178 0.39087 0.32489 0.0
C689 C 0.04437 0.58063 0.31237 0.0
C690 C 0.00701 0.51865 0.40055 0.0
C691 C 0.05104 0.51333 0.40329 0.0
C692 C 0.97775 0.50512 0.37365 0.0
C693 C 0.9935 0.48618 0.34919 0.0
C694 C 0.03541 0.47654 0.35305 0.0
C695 C 0.06382 0.49041 0.38019 0.0
C696 C 0.93292 0.51525 0.3706 0.0
C697 C 0.05317 0.4559 0.32768 0.0
H698 H 0.88766 0.40226 0.26553 0.0
H699 H 0.00776 0.56216 0.2555 0.0
H700 H 0.92646 0.37301 0.32858 0.0
H701 H 0.89276 0.40015 0.34737 0.0
H702 H 0.86484 0.36174 0.31375 0.0
H703 H 0.05836 0.61304 0.2958 0.0
H704 H 0.03246 0.59231 0.33309 0.0
H705 H 0.07745 0.57478 0.31858 0.0
H706 H 0.99743 0.53615 0.41885 0.0
H707 H 0.09789 0.48619 0.38286 0.0
H708 H 0.89959 0.48304 0.35841 0.0
H709 H 0.94552 0.55135 0.35728 0.0
H710 H 0.91947 0.52018 0.39291 0.0
H711 H 0.01937 0.42212 0.31682 0.0
H712 H 0.0813 0.44393 0.33558 0.0
H713 H 0.07235 0.48657 0.31022 0.0
loop_
_geom_bond_atom_site_label_1
_geom_bond_atom_site_label_2
_geom_bond_distance
_geom_bond_site_symmetry_2
_ccdc_geom_bond_type
Zn0 O6 1.969 . S
Zn0 O7 1.965 . S
Zn0 O11 2.024 . S
Zn0 O16 1.969 . S
Zn1 O8 1.969 . S
Zn1 O14 1.969 . S
Zn1 O15 1.965 . S
Zn1 O17 2.024 . S
C2 O3 1.229 . S
C2 O11 1.058 . S
O3 C2 1.229 . S
C4 O5 1.229 . S
C4 O17 1.058 . S
O5 C4 1.229 . S
O6 Zn0 1.969 . S
O6 C9 1.267 . S
O7 Zn0 1.965 . S
O7 C18 1.260 1_455 S
O8 Zn1 1.969 . S
O8 C18 1.258 . S
C9 O6 1.267 . S
C9 O10 1.228 . S
O10 C9 1.228 . S
O11 Zn0 2.024 . S
O11 C2 1.058 . S
C12 O13 1.228 . S
C12 O14 1.267 . S
O13 C12 1.228 . S
O14 Zn1 1.969 . S
O14 C12 1.267 . S
O15 Zn1 1.965 . S
O15 C19 1.260 1_655 S
O16 Zn0 1.969 . S
O16 C19 1.258 . S
O17 Zn1 2.024 . S
O17 C4 1.058 . S
C18 O7 1.260 1_655 S
C18 O8 1.258 . S
C19 O15 1.260 1_455 S
C19 O16 1.258 . S
Zn20 O26 1.969 . S
Zn20 O27 1.965 . S
Zn20 O31 2.024 . S
Zn20 O36 1.969 . S
Zn21 O28 1.969 . S
Zn21 O34 1.969 . S
Zn21 O35 1.965 1_565 S
Zn21 O37 2.024 . S
C22 O23 1.229 . S
C22 O31 1.058 . S
O23 C22 1.229 . S
C24 O25 1.229 . S
C24 O37 1.058 . S
O25 C24 1.229 . S
O26 Zn20 1.969 . S
O26 C29 1.267 . S
O27 Zn20 1.965 . S
O27 C38 1.260 . S
O28 Zn21 1.969 . S
O28 C38 1.258 1_565 S
C29 O26 1.267 . S
C29 O30 1.228 . S
O30 C29 1.228 . S
O31 Zn20 2.024 . S
O31 C22 1.058 . S
C32 O33 1.228 . S
C32 O34 1.267 . S
O33 C32 1.228 . S
O34 Zn21 1.969 . S
O34 C32 1.267 . S
O35 Zn21 1.965 1_545 S
O35 C39 1.260 . S
O36 Zn20 1.969 . S
O36 C39 1.258 . S
O37 Zn21 2.024 . S
O37 C24 1.058 . S
C38 O27 1.260 . S
C38 O28 1.258 1_545 S
C39 O35 1.260 . S
C39 O36 1.258 . S
Zn40 O46 1.969 . S
Zn40 O47 1.965 . S
Zn40 O51 2.024 . S
Zn40 O56 1.969 . S
Zn41 O48 1.969 . S
Zn41 O54 1.969 . S
Zn41 O55 1.965 . S
Zn41 O57 2.024 . S
C42 O43 1.229 . S
C42 O51 1.058 . S
O43 C42 1.229 . S
C44 O45 1.229 . S
C44 O57 1.058 . S
O45 C44 1.229 . S
O46 Zn40 1.969 . S
O46 C49 1.267 . S
O47 Zn40 1.965 . S
O47 C58 1.260 . S
O48 Zn41 1.969 . S
O48 C58 1.258 . S
C49 O46 1.267 . S
C49 O50 1.228 . S
O50 C49 1.228 . S
O51 Zn40 2.024 . S
O51 C42 1.058 . S
C52 O53 1.228 . S
C52 O54 1.267 . S
O53 C52 1.228 . S
O54 Zn41 1.969 . S
O54 C52 1.267 . S
O55 Zn41 1.965 . S
O55 C59 1.260 . S
O56 Zn40 1.969 . S
O56 C59 1.258 . S
O57 Zn41 2.024 . S
O57 C44 1.058 . S
C58 O47 1.260 . S
C58 O48 1.258 . S
C59 O55 1.260 . S
C59 O56 1.258 . S
C60 N61 1.317 . S
C60 N62 1.348 1_545 S
C60 C63 1.485 . S
N61 C60 1.317 . S
N61 N65 1.370 . S
N62 C60 1.348 1_565 S
N62 C64 1.346 . S
C63 C60 1.485 . S
C63 H67 0.960 . S
C63 H68 0.961 1_545 S
C63 H69 0.960 . S
C64 N62 1.346 . S
C64 N65 1.307 1_565 S
C64 C66 1.486 . S
N65 N61 1.370 . S
N65 C64 1.307 1_545 S
C66 C64 1.486 . S
C66 H70 0.960 . S
C66 H71 0.960 . S
C66 H72 0.959 . S
H67 C63 0.960 . S
H68 C63 0.961 1_565 S
H69 C63 0.960 . S
H70 C66 0.960 . S
H71 C66 0.960 . S
H72 C66 0.959 . S
C73 N74 1.317 . S
C73 N75 1.348 . S
C73 C76 1.485 . S
N74 C73 1.317 . S
N74 N78 1.370 . S
N75 C73 1.348 . S
N75 C77 1.346 . S
C76 C73 1.485 . S
C76 H80 0.960 . S
C76 H81 0.961 . S
C76 H82 0.960 . S
C77 N75 1.346 . S
C77 N78 1.307 . S
C77 C79 1.486 . S
N78 N74 1.370 . S
N78 C77 1.307 . S
C79 C77 1.486 . S
C79 H83 0.960 . S
C79 H84 0.960 . S
C79 H85 0.959 . S
H80 C76 0.960 . S
H81 C76 0.961 . S
H82 C76 0.960 . S
H83 C79 0.960 . S
H84 C79 0.960 . S
H85 C79 0.959 . S
C86 N87 1.317 . S
C86 N88 1.348 . S
C86 C89 1.485 . S
N87 C86 1.317 . S
N87 N91 1.370 . S
N88 C86 1.348 . S
N88 C90 1.346 . S
C89 C86 1.485 . S
C89 H93 0.960 . S
C89 H94 0.961 . S
C89 H95 0.960 . S
C90 N88 1.346 . S
C90 N91 1.307 . S
C90 C92 1.486 1_455 S
N91 N87 1.370 . S
N91 C90 1.307 . S
C92 C90 1.486 1_655 S
C92 H96 0.960 . S
C92 H97 0.960 . S
C92 H98 0.959 . S
H93 C89 0.960 . S
H94 C89 0.961 . S
H95 C89 0.960 . S
H96 C92 0.960 . S
H97 C92 0.960 . S
H98 C92 0.959 . S
C99 N100 1.317 . S
C99 N101 1.348 . S
C99 C102 1.485 . S
N100 C99 1.317 . S
N100 N104 1.370 . S
N101 C99 1.348 . S
N101 C103 1.346 . S
C102 C99 1.485 . S
C102 H106 0.960 . S
C102 H107 0.961 . S
C102 H108 0.960 . S
C103 N101 1.346 . S
C103 N104 1.307 . S
C103 C105 1.486 . S
N104 N100 1.370 . S
N104 C103 1.307 . S
C105 C103 1.486 . S
C105 H109 0.960 . S
C105 H110 0.960 . S
C105 H111 0.959 . S
H106 C102 0.960 . S
H107 C102 0.961 . S
H108 C102 0.960 . S
H109 C105 0.960 . S
H110 C105 0.960 . S
H111 C105 0.959 . S
C112 N113 1.317 . S
C112 N114 1.348 . S
C112 C115 1.485 . S
N113 C112 1.317 . S
N113 N117 1.370 . S
N114 C112 1.348 . S
N114 C116 1.346 . S
C115 C112 1.485 . S
C115 H119 0.960 . S
C115 H120 0.961 . S
C115 H121 0.960 . S
C116 N114 1.346 . S
C116 N117 1.307 . S
C116 C118 1.486 . S
N117 N113 1.370 . S
N117 C116 1.307 . S
C118 C116 1.486 . S
C118 H122 0.960 . S
C118 H123 0.960 . S
C118 H124 0.959 . S
H119 C115 0.960 . S
H120 C115 0.961 . S
H121 C115 0.960 . S
H122 C118 0.960 . S
H123 C118 0.960 . S
H124 C118 0.959 . S
C125 N126 1.317 . S
C125 N127 1.348 . S
C125 C128 1.485 . S
N126 C125 1.317 . S
N126 N130 1.370 . S
N127 C125 1.348 . S
N127 C129 1.346 . S
C128 C125 1.485 . S
C128 H132 0.960 . S
C128 H133 0.961 . S
C128 H134 0.960 . S
C129 N127 1.346 . S
C129 N130 1.307 . S
C129 C131 1.486 . S
N130 N126 1.370 . S
N130 C129 1.307 . S
C131 C129 1.486 . S
C131 H135 0.960 . S
C131 H136 0.960 . S
C131 H137 0.959 . S
H132 C128 0.960 . S
H133 C128 0.961 . S
H134 C128 0.960 . S
H135 C131 0.960 . S
H136 C131 0.960 . S
H137 C131 0.959 . S
C138 C139 1.391 . S
C138 C140 1.394 . S
C138 H154 0.931 . S
C139 C138 1.391 . S
C139 C143 1.376 . S
C140 C138 1.394 . S
C140 C141 1.369 . S
C140 C144 1.531 . S
C141 C140 1.369 . S
C141 C142 1.410 . S
C141 C149 1.503 . S
C142 C141 1.410 . S
C142 C143 1.392 . S
C142 C145 1.511 . S
C143 C139 1.376 . S
C143 C142 1.392 . S
C143 H155 0.929 . S
C144 C140 1.531 . S
C144 H156 0.960 . S
C144 H157 0.962 . S
C144 H158 0.960 . S
C145 C142 1.511 . S
C145 H159 0.961 . S
C145 H160 0.961 . S
C145 H161 0.961 . S
C146 C147 1.370 . S
C146 C148 1.363 . S
C146 H162 0.931 . S
C147 C146 1.370 . S
C147 C151 1.408 . S
C148 C146 1.363 . S
C148 C149 1.370 . S
C148 C152 1.524 . S
C149 C141 1.503 . S
C149 C148 1.370 . S
C149 C150 1.403 . S
C150 C149 1.403 . S
C150 C151 1.404 . S
C150 C153 1.539 . S
C151 C147 1.408 . S
C151 C150 1.404 . S
C151 H163 0.930 . S
C152 C148 1.524 . S
C152 H164 0.956 . S
C152 H165 0.961 . S
C152 H166 0.961 . S
C153 C150 1.539 . S
C153 H167 0.958 . S
C153 H168 0.961 . S
C153 H169 0.960 . S
H154 C138 0.931 . S
H155 C143 0.929 . S
H156 C144 0.960 . S
H157 C144 0.962 . S
H158 C144 0.960 . S
H159 C145 0.961 . S
H160 C145 0.961 . S
H161 C145 0.961 . S
H162 C146 0.931 . S
H163 C151 0.930 . S
H164 C152 0.956 . S
H165 C152 0.961 . S
H166 C152 0.961 . S
H167 C153 0.958 . S
H168 C153 0.961 . S
H169 C153 0.960 . S
C170 C171 1.391 . S
C170 C172 1.394 . S
C170 H186 0.931 . S
C171 C170 1.391 . S
C171 C175 1.376 . S
C172 C170 1.394 . S
C172 C173 1.369 . S
C172 C176 1.531 . S
C173 C172 1.369 . S
C173 C174 1.410 . S
C173 C181 1.503 . S
C174 C173 1.410 . S
C174 C175 1.392 . S
C174 C177 1.511 . S
C175 C171 1.376 . S
C175 C174 1.392 . S
C175 H187 0.929 . S
C176 C172 1.531 . S
C176 H188 0.960 . S
C176 H189 0.962 . S
C176 H190 0.960 . S
C177 C174 1.511 . S
C177 H191 0.961 . S
C177 H192 0.961 . S
C177 H193 0.961 . S
C178 C179 1.370 . S
C178 C180 1.363 . S
C178 H194 0.931 1_655 S
C179 C178 1.370 . S
C179 C183 1.408 . S
C180 C178 1.363 . S
C180 C181 1.370 . S
C180 C184 1.524 . S
C181 C173 1.503 . S
C181 C180 1.370 . S
C181 C182 1.403 . S
C182 C181 1.403 . S
C182 C183 1.404 . S
C182 C185 1.539 . S
C183 C179 1.408 . S
C183 C182 1.404 . S
C183 H195 0.930 . S
C184 C180 1.524 . S
C184 H196 0.956 . S
C184 H197 0.961 . S
C184 H198 0.961 . S
C185 C182 1.539 . S
C185 H199 0.958 . S
C185 H200 0.961 . S
C185 H201 0.960 . S
H186 C170 0.931 . S
H187 C175 0.929 . S
H188 C176 0.960 . S
H189 C176 0.962 . S
H190 C176 0.960 . S
H191 C177 0.961 . S
H192 C177 0.961 . S
H193 C177 0.961 . S
H194 C178 0.931 1_455 S
H195 C183 0.930 . S
H196 C184 0.956 . S
H197 C184 0.961 . S
H198 C184 0.961 . S
H199 C185 0.958 . S
H200 C185 0.961 . S
H201 C185 0.960 . S
C202 C203 1.391 . S
C202 C204 1.394 . S
C202 H218 0.931 . S
C203 C202 1.391 . S
C203 C207 1.376 . S
C204 C202 1.394 . S
C204 C205 1.369 . S
C204 C208 1.531 . S
C205 C204 1.369 . S
C205 C206 1.410 . S
C205 C213 1.503 . S
C206 C205 1.410 . S
C206 C207 1.392 . S
C206 C209 1.511 . S
C207 C203 1.376 . S
C207 C206 1.392 . S
C207 H219 0.929 . S
C208 C204 1.531 . S
C208 H220 0.960 . S
C208 H221 0.962 . S
C208 H222 0.960 . S
C209 C206 1.511 . S
C209 H223 0.961 . S
C209 H224 0.961 . S
C209 H225 0.961 . S
C210 C211 1.370 . S
C210 C212 1.363 . S
C210 H226 0.931 . S
C211 C210 1.370 . S
C211 C215 1.408 . S
C212 C210 1.363 . S
C212 C213 1.370 . S
C212 C216 1.524 . S
C213 C205 1.503 . S
C213 C212 1.370 . S
C213 C214 1.403 . S
C214 C213 1.403 . S
C214 C215 1.404 . S
C214 C217 1.539 . S
C215 C211 1.408 . S
C215 C214 1.404 . S
C215 H227 0.930 . S
C216 C212 1.524 . S
C216 H228 0.956 . S
C216 H229 0.961 . S
C216 H230 0.961 . S
C217 C214 1.539 . S
C217 H231 0.958 . S
C217 H232 0.961 . S
C217 H233 0.960 . S
H218 C202 0.931 . S
H219 C207 0.929 . S
H220 C208 0.960 . S
H221 C208 0.962 . S
H222 C208 0.960 . S
H223 C209 0.961 . S
H224 C209 0.961 . S
H225 C209 0.961 . S
H226 C210 0.931 . S
H227 C215 0.930 . S
H228 C216 0.956 . S
H229 C216 0.961 . S
H230 C216 0.961 . S
H231 C217 0.958 . S
H232 C217 0.961 . S
H233 C217 0.960 . S
C234 C235 1.391 . S
C234 C236 1.394 . S
C234 H250 0.931 . S
C235 C234 1.391 . S
C235 C239 1.376 . S
C236 C234 1.394 . S
C236 C237 1.369 . S
C236 C240 1.531 . S
C237 C236 1.369 . S
C237 C238 1.410 . S
C237 C245 1.503 . S
C238 C237 1.410 . S
C238 C239 1.392 . S
C238 C241 1.511 . S
C239 C235 1.376 . S
C239 C238 1.392 . S
C239 H251 0.929 . S
C240 C236 1.531 . S
C240 H252 0.960 . S
C240 H253 0.962 . S
C240 H254 0.960 . S
C241 C238 1.511 . S
C241 H255 0.961 . S
C241 H256 0.961 . S
C241 H257 0.961 . S
C242 C243 1.370 . S
C242 C244 1.363 . S
C242 H258 0.931 . S
C243 C242 1.370 . S
C243 C247 1.408 . S
C244 C242 1.363 . S
C244 C245 1.370 . S
C244 C248 1.524 . S
C245 C237 1.503 . S
C245 C244 1.370 . S
C245 C246 1.403 . S
C246 C245 1.403 . S
C246 C247 1.404 . S
C246 C249 1.539 . S
C247 C243 1.408 . S
C247 C246 1.404 . S
C247 H259 0.930 . S
C248 C244 1.524 . S
C248 H260 0.956 . S
C248 H261 0.961 . S
C248 H262 0.961 . S
C249 C246 1.539 . S
C249 H263 0.958 . S
C249 H264 0.961 . S
C249 H265 0.960 . S
H250 C234 0.931 . S
H251 C239 0.929 . S
H252 C240 0.960 . S
H253 C240 0.962 . S
H254 C240 0.960 . S
H255 C241 0.961 . S
H256 C241 0.961 . S
H257 C241 0.961 . S
H258 C242 0.931 . S
H259 C247 0.930 . S
H260 C248 0.956 . S
H261 C248 0.961 . S
H262 C248 0.961 . S
H263 C249 0.958 . S
H264 C249 0.961 . S
H265 C249 0.960 . S
C266 C267 1.391 . S
C266 C268 1.394 . S
C266 H282 0.931 . S
C267 C266 1.391 . S
C267 C271 1.376 . S
C268 C266 1.394 . S
C268 C269 1.369 . S
C268 C272 1.531 . S
C269 C268 1.369 . S
C269 C270 1.410 . S
C269 C277 1.503 . S
C270 C269 1.410 . S
C270 C271 1.392 . S
C270 C273 1.511 . S
C271 C267 1.376 . S
C271 C270 1.392 . S
C271 H283 0.929 . S
C272 C268 1.531 . S
C272 H284 0.960 . S
C272 H285 0.962 . S
C272 H286 0.960 . S
C273 C270 1.511 . S
C273 H287 0.961 . S
C273 H288 0.961 . S
C273 H289 0.961 . S
C274 C275 1.370 . S
C274 C276 1.363 . S
C274 H290 0.931 . S
C275 C274 1.370 . S
C275 C279 1.408 . S
C276 C274 1.363 . S
C276 C277 1.370 . S
C276 C280 1.524 . S
C277 C269 1.503 . S
C277 C276 1.370 . S
C277 C278 1.403 . S
C278 C277 1.403 . S
C278 C279 1.404 . S
C278 C281 1.539 . S
C279 C275 1.408 . S
C279 C278 1.404 . S
C279 H291 0.930 . S
C280 C276 1.524 . S
C280 H292 0.956 . S
C280 H293 0.961 . S
C280 H294 0.961 . S
C281 C278 1.539 . S
C281 H295 0.958 . S
C281 H296 0.961 . S
C281 H297 0.960 . S
H282 C266 0.931 . S
H283 C271 0.929 . S
H284 C272 0.960 . S
H285 C272 0.962 . S
H286 C272 0.960 . S
H287 C273 0.961 . S
H288 C273 0.961 . S
H289 C273 0.961 . S
H290 C274 0.931 . S
H291 C279 0.930 . S
H292 C280 0.956 . S
H293 C280 0.961 . S
H294 C280 0.961 . S
H295 C281 0.958 . S
H296 C281 0.961 . S
H297 C281 0.960 . S
C298 C299 1.391 . S
C298 C300 1.394 . S
C298 H314 0.931 . S
C299 C298 1.391 . S
C299 C303 1.376 . S
C300 C298 1.394 . S
C300 C301 1.369 . S
C300 C304 1.531 . S
C301 C300 1.369 . S
C301 C302 1.410 . S
C301 C309 1.503 . S
C302 C301 1.410 . S
C302 C303 1.392 . S
C302 C305 1.511 . S
C303 C299 1.376 . S
C303 C302 1.392 . S
C303 H315 0.929 . S
C304 C300 1.531 . S
C304 H316 0.960 . S
C304 H317 0.962 . S
C304 H318 0.960 . S
C305 C302 1.511 . S
C305 H319 0.961 . S
C305 H320 0.961 . S
C305 H321 0.961 . S
C306 C307 1.370 . S
C306 C308 1.363 . S
C306 H322 0.931 . S
C307 C306 1.370 . S
C307 C311 1.408 . S
C308 C306 1.363 . S
C308 C309 1.370 . S
C308 C312 1.524 . S
C309 C301 1.503 . S
C309 C308 1.370 . S
C309 C310 1.403 . S
C310 C309 1.403 . S
C310 C311 1.404 . S
C310 C313 1.539 . S
C311 C307 1.408 . S
C311 C310 1.404 . S
C311 H323 0.930 . S
C312 C308 1.524 . S
C312 H324 0.956 . S
C312 H325 0.961 . S
C312 H326 0.961 . S
C313 C310 1.539 . S
C313 H327 0.958 . S
C313 H328 0.961 . S
C313 H329 0.960 . S
H314 C298 0.931 . S
H315 C303 0.929 . S
H316 C304 0.960 . S
H317 C304 0.962 . S
H318 C304 0.960 . S
H319 C305 0.961 . S
H320 C305 0.961 . S
H321 C305 0.961 . S
H322 C306 0.931 . S
H323 C311 0.930 . S
H324 C312 0.956 . S
H325 C312 0.961 . S
H326 C312 0.961 . S
H327 C313 0.958 . S
H328 C313 0.961 . S
H329 C313 0.960 . S
C330 C331 1.391 . S
C330 C332 1.394 . S
C330 H346 0.931 . S
C331 C330 1.391 . S
C331 C335 1.376 . S
C332 C330 1.394 . S
C332 C333 1.369 . S
C332 C336 1.531 . S
C333 C332 1.369 . S
C333 C334 1.410 . S
C333 C341 1.503 . S
C334 C333 1.410 . S
C334 C335 1.392 . S
C334 C337 1.511 . S
C335 C331 1.376 . S
C335 C334 1.392 . S
C335 H347 0.929 . S
C336 C332 1.531 . S
C336 H348 0.960 . S
C336 H349 0.962 . S
C336 H350 0.960 . S
C337 C334 1.511 . S
C337 H351 0.961 . S
C337 H352 0.961 . S
C337 H353 0.961 . S
C338 C339 1.370 . S
C338 C340 1.363 . S
C338 H354 0.931 . S
C339 C338 1.370 . S
C339 C343 1.408 . S
C340 C338 1.363 . S
C340 C341 1.370 . S
C340 C344 1.524 . S
C341 C333 1.503 . S
C341 C340 1.370 . S
C341 C342 1.403 . S
C342 C341 1.403 . S
C342 C343 1.404 . S
C342 C345 1.539 . S
C343 C339 1.408 . S
C343 C342 1.404 . S
C343 H355 0.930 . S
C344 C340 1.524 . S
C344 H356 0.956 . S
C344 H357 0.961 . S
C344 H358 0.961 . S
C345 C342 1.539 . S
C345 H359 0.958 . S
C345 H360 0.961 . S
C345 H361 0.960 . S
H346 C330 0.931 . S
H347 C335 0.929 . S
H348 C336 0.960 . S
H349 C336 0.962 . S
H350 C336 0.960 . S
H351 C337 0.961 . S
H352 C337 0.961 . S
H353 C337 0.961 . S
H354 C338 0.931 . S
H355 C343 0.930 . S
H356 C344 0.956 . S
H357 C344 0.961 . S
H358 C344 0.961 . S
H359 C345 0.958 . S
H360 C345 0.961 . S
H361 C345 0.960 . S
C362 C363 1.391 . S
C362 C364 1.394 . S
C362 H378 0.931 . S
C363 C362 1.391 . S
C363 C367 1.376 . S
C364 C362 1.394 . S
C364 C365 1.369 . S
C364 C368 1.531 . S
C365 C364 1.369 . S
C365 C366 1.410 . S
C365 C373 1.503 . S
C366 C365 1.410 . S
C366 C367 1.392 . S
C366 C369 1.511 . S
C367 C363 1.376 . S
C367 C366 1.392 . S
C367 H379 0.929 . S
C368 C364 1.531 . S
C368 H380 0.960 . S
C368 H381 0.962 . S
C368 H382 0.960 . S
C369 C366 1.511 . S
C369 H383 0.961 . S
C369 H384 0.961 . S
C369 H385 0.961 . S
C370 C371 1.370 . S
C370 C372 1.363 . S
C370 H386 0.931 . S
C371 C370 1.370 . S
C371 C375 1.408 . S
C372 C370 1.363 . S
C372 C373 1.370 . S
C372 C376 1.524 . S
C373 C365 1.503 . S
C373 C372 1.370 . S
C373 C374 1.403 . S
C374 C373 1.403 . S
C374 C375 1.404 . S
C374 C377 1.539 . S
C375 C371 1.408 . S
C375 C374 1.404 . S
C375 H387 0.930 1_655 S
C376 C372 1.524 . S
C376 H388 0.956 . S
C376 H389 0.961 . S
C376 H390 0.961 . S
C377 C374 1.539 . S
C377 H391 0.958 . S
C377 H392 0.961 . S
C377 H393 0.960 . S
H378 C362 0.931 . S
H379 C367 0.929 . S
H380 C368 0.960 . S
H381 C368 0.962 . S
H382 C368 0.960 . S
H383 C369 0.961 . S
H384 C369 0.961 . S
H385 C369 0.961 . S
H386 C370 0.931 . S
H387 C375 0.930 1_455 S
H388 C376 0.956 . S
H389 C376 0.961 . S
H390 C376 0.961 . S
H391 C377 0.958 . S
H392 C377 0.961 . S
H393 C377 0.960 . S
C394 C395 1.391 . S
C394 C396 1.394 . S
C394 H410 0.931 . S
C395 C394 1.391 . S
C395 C399 1.376 . S
C396 C394 1.394 . S
C396 C397 1.369 . S
C396 C400 1.531 . S
C397 C396 1.369 . S
C397 C398 1.410 . S
C397 C405 1.503 . S
C398 C397 1.410 . S
C398 C399 1.392 . S
C398 C401 1.511 . S
C399 C395 1.376 . S
C399 C398 1.392 . S
C399 H411 0.929 . S
C400 C396 1.531 . S
C400 H412 0.960 . S
C400 H413 0.962 . S
C400 H414 0.960 . S
C401 C398 1.511 . S
C401 H415 0.961 . S
C401 H416 0.961 . S
C401 H417 0.961 . S
C402 C403 1.370 . S
C402 C404 1.363 . S
C402 H418 0.931 . S
C403 C402 1.370 . S
C403 C407 1.408 . S
C404 C402 1.363 . S
C404 C405 1.370 . S
C404 C408 1.524 . S
C405 C397 1.503 . S
C405 C404 1.370 . S
C405 C406 1.403 . S
C406 C405 1.403 . S
C406 C407 1.404 . S
C406 C409 1.539 . S
C407 C403 1.408 . S
C407 C406 1.404 . S
C407 H419 0.930 . S
C408 C404 1.524 . S
C408 H420 0.956 . S
C408 H421 0.961 . S
C408 H422 0.961 . S
C409 C406 1.539 . S
C409 H423 0.958 . S
C409 H424 0.961 . S
C409 H425 0.960 . S
H410 C394 0.931 . S
H411 C399 0.929 . S
H412 C400 0.960 . S
H413 C400 0.962 . S
H414 C400 0.960 . S
H415 C401 0.961 . S
H416 C401 0.961 . S
H417 C401 0.961 . S
H418 C402 0.931 . S
H419 C407 0.930 . S
H420 C408 0.956 . S
H421 C408 0.961 . S
H422 C408 0.961 . S
H423 C409 0.958 . S
H424 C409 0.961 . S
H425 C409 0.960 . S
C426 C427 1.391 . S
C426 C428 1.394 . S
C426 H442 0.931 . S
C427 C426 1.391 . S
C427 C431 1.376 . S
C428 C426 1.394 . S
C428 C429 1.369 . S
C428 C432 1.531 . S
C429 C428 1.369 . S
C429 C430 1.410 . S
C429 C437 1.503 . S
C430 C429 1.410 . S
C430 C431 1.392 . S
C430 C433 1.511 . S
C431 C427 1.376 . S
C431 C430 1.392 . S
C431 H443 0.929 . S
C432 C428 1.531 . S
C432 H444 0.960 . S
C432 H445 0.962 . S
C432 H446 0.960 . S
C433 C430 1.511 . S
C433 H447 0.961 . S
C433 H448 0.961 . S
C433 H449 0.961 . S
C434 C435 1.370 . S
C434 C436 1.363 . S
C434 H450 0.931 . S
C435 C434 1.370 . S
C435 C439 1.408 . S
C436 C434 1.363 . S
C436 C437 1.370 . S
C436 C440 1.524 . S
C437 C429 1.503 . S
C437 C436 1.370 . S
C437 C438 1.403 . S
C438 C437 1.403 . S
C438 C439 1.404 . S
C438 C441 1.539 . S
C439 C435 1.408 . S
C439 C438 1.404 . S
C439 H451 0.930 . S
C440 C436 1.524 . S
C440 H452 0.956 . S
C440 H453 0.961 . S
C440 H454 0.961 . S
C441 C438 1.539 . S
C441 H455 0.958 . S
C441 H456 0.961 . S
C441 H457 0.960 . S
H442 C426 0.931 . S
H443 C431 0.929 . S
H444 C432 0.960 . S
H445 C432 0.962 . S
H446 C432 0.960 . S
H447 C433 0.961 . S
H448 C433 0.961 . S
H449 C433 0.961 . S
H450 C434 0.931 . S
H451 C439 0.930 . S
H452 C440 0.956 . S
H453 C440 0.961 . S
H454 C440 0.961 . S
H455 C441 0.958 . S
H456 C441 0.961 . S
H457 C441 0.960 . S
C458 C459 1.391 . S
C458 C460 1.394 . S
C458 H474 0.931 . S
C459 C458 1.391 . S
C459 C463 1.376 . S
C460 C458 1.394 . S
C460 C461 1.369 . S
C460 C464 1.531 . S
C461 C460 1.369 . S
C461 C462 1.410 . S
C461 C469 1.503 . S
C462 C461 1.410 . S
C462 C463 1.392 . S
C462 C465 1.511 . S
C463 C459 1.376 . S
C463 C462 1.392 . S
C463 H475 0.929 . S
C464 C460 1.531 . S
C464 H476 0.960 . S
C464 H477 0.962 . S
C464 H478 0.960 . S
C465 C462 1.511 . S
C465 H479 0.961 . S
C465 H480 0.961 . S
C465 H481 0.961 . S
C466 C467 1.370 . S
C466 C468 1.363 . S
C466 H482 0.931 . S
C467 C466 1.370 . S
C467 C471 1.408 . S
C468 C466 1.363 . S
C468 C469 1.370 . S
C468 C472 1.524 . S
C469 C461 1.503 . S
C469 C468 1.370 . S
C469 C470 1.403 . S
C470 C469 1.403 . S
C470 C471 1.404 . S
C470 C473 1.539 . S
C471 C467 1.408 . S
C471 C470 1.404 . S
C471 H483 0.930 . S
C472 C468 1.524 . S
C472 H484 0.956 . S
C472 H485 0.961 . S
C472 H486 0.961 . S
C473 C470 1.539 . S
C473 H487 0.958 . S
C473 H488 0.961 . S
C473 H489 0.960 . S
H474 C458 0.931 . S
H475 C463 0.929 . S
H476 C464 0.960 . S
H477 C464 0.962 . S
H478 C464 0.960 . S
H479 C465 0.961 . S
H480 C465 0.961 . S
H481 C465 0.961 . S
H482 C466 0.931 . S
H483 C471 0.930 . S
H484 C472 0.956 . S
H485 C472 0.961 . S
H486 C472 0.961 . S
H487 C473 0.958 . S
H488 C473 0.961 . S
H489 C473 0.960 . S
C490 C491 1.391 . S
C490 C492 1.394 . S
C490 H506 0.931 . S
C491 C490 1.391 . S
C491 C495 1.376 . S
C492 C490 1.394 . S
C492 C493 1.369 . S
C492 C496 1.531 . S
C493 C492 1.369 . S
C493 C494 1.410 . S
C493 C501 1.503 . S
C494 C493 1.410 . S
C494 C495 1.392 . S
C494 C497 1.511 . S
C495 C491 1.376 . S
C495 C494 1.392 . S
C495 H507 0.929 . S
C496 C492 1.531 . S
C496 H508 0.960 . S
C496 H509 0.962 . S
C496 H510 0.960 . S
C497 C494 1.511 . S
C497 H511 0.961 . S
C497 H512 0.961 . S
C497 H513 0.961 . S
C498 C499 1.370 . S
C498 C500 1.363 . S
C498 H514 0.931 . S
C499 C498 1.370 . S
C499 C503 1.408 . S
C500 C498 1.363 . S
C500 C501 1.370 . S
C500 C504 1.524 . S
C501 C493 1.503 . S
C501 C500 1.370 . S
C501 C502 1.403 . S
C502 C501 1.403 . S
C502 C503 1.404 . S
C502 C505 1.539 . S
C503 C499 1.408 . S
C503 C502 1.404 . S
C503 H515 0.930 . S
C504 C500 1.524 . S
C504 H516 0.956 . S
C504 H517 0.961 . S
C504 H518 0.961 . S
C505 C502 1.539 . S
C505 H519 0.958 . S
C505 H520 0.961 . S
C505 H521 0.960 . S
H506 C490 0.931 . S
H507 C495 0.929 . S
H508 C496 0.960 . S
H509 C496 0.962 . S
H510 C496 0.960 . S
H511 C497 0.961 . S
H512 C497 0.961 . S
H513 C497 0.961 . S
H514 C498 0.931 . S
H515 C503 0.930 . S
H516 C504 0.956 . S
H517 C504 0.961 . S
H518 C504 0.961 . S
H519 C505 0.958 . S
H520 C505 0.961 . S
H521 C505 0.960 . S
C522 C523 1.391 1_655 S
C522 C524 1.394 . S
C522 H538 0.931 . S
C523 C522 1.391 1_455 S
C523 C527 1.376 . S
C524 C522 1.394 . S
C524 C525 1.369 1_655 S
C524 C528 1.531 . S
C525 C524 1.369 1_455 S
C525 C526 1.410 . S
C525 C533 1.503 1_554 S
C526 C525 1.410 . S
C526 C527 1.392 . S
C526 C529 1.511 . S
C527 C523 1.376 . S
C527 C526 1.392 . S
C527 H539 0.929 . S
C528 C524 1.531 . S
C528 H540 0.960 . S
C528 H541 0.962 . S
C528 H542 0.960 . S
C529 C526 1.511 . S
C529 H543 0.961 . S
C529 H544 0.961 . S
C529 H545 0.961 . S
C530 C531 1.370 . S
C530 C532 1.363 . S
C530 H546 0.931 . S
C531 C530 1.370 . S
C531 C535 1.408 . S
C532 C530 1.363 . S
C532 C533 1.370 . S
C532 C536 1.524 1_455 S
C533 C525 1.503 1_556 S
C533 C532 1.370 . S
C533 C534 1.403 . S
C534 C533 1.403 . S
C534 C535 1.404 . S
C534 C537 1.552 . S
C535 C531 1.408 . S
C535 C534 1.404 . S
C535 H547 0.930 . S
C536 C532 1.524 1_655 S
C536 H548 0.956 . S
C536 H549 0.961 1_656 S
C536 H550 0.961 . S
C537 C534 1.552 . S
C537 H551 0.956 1_556 S
C537 H552 0.971 . S
C537 H553 0.940 1_556 S
H538 C522 0.931 . S
H539 C527 0.929 . S
H540 C528 0.960 . S
H541 C528 0.962 . S
H542 C528 0.960 . S
H543 C529 0.961 . S
H544 C529 0.961 . S
H545 C529 0.961 . S
H546 C530 0.931 . S
H547 C535 0.930 . S
H548 C536 0.956 . S
H549 C536 0.961 1_454 S
H550 C536 0.961 . S
H551 C537 0.956 1_554 S
H552 C537 0.971 . S
H553 C537 0.940 1_554 S
C554 C555 1.391 . S
C554 C556 1.395 1_545 S
C554 H570 0.931 1_545 S
C555 C554 1.391 . S
C555 C559 1.376 . S
C556 C554 1.395 1_565 S
C556 C557 1.357 1_565 S
C556 C560 1.542 . S
C557 C556 1.357 1_545 S
C557 C558 1.410 . S
C557 C565 1.503 . S
C558 C557 1.410 . S
C558 C559 1.392 . S
C558 C561 1.511 . S
C559 C555 1.376 . S
C559 C558 1.392 . S
C559 H571 0.929 . S
C560 C556 1.542 . S
C560 H572 0.960 . S
C560 H573 0.962 . S
C560 H574 0.960 . S
C561 C558 1.511 . S
C561 H575 0.961 . S
C561 H576 0.961 . S
C561 H577 0.961 . S
C562 C563 1.370 . S
C562 C564 1.363 . S
C562 H578 0.931 . S
C563 C562 1.370 . S
C563 C567 1.408 1_545 S
C564 C562 1.363 . S
C564 C565 1.370 . S
C564 C568 1.524 . S
C565 C557 1.503 . S
C565 C564 1.370 . S
C565 C566 1.403 1_545 S
C566 C565 1.403 1_565 S
C566 C567 1.404 . S
C566 C569 1.539 . S
C567 C563 1.408 1_565 S
C567 C566 1.404 . S
C567 H579 0.930 . S
C568 C564 1.524 . S
C568 H580 0.956 . S
C568 H581 0.961 . S
C568 H582 0.961 . S
C569 C566 1.539 . S
C569 H583 0.958 . S
C569 H584 0.961 . S
C569 H585 0.960 . S
H570 C554 0.931 1_565 S
H571 C559 0.929 . S
H572 C560 0.960 . S
H573 C560 0.962 . S
H574 C560 0.960 . S
H575 C561 0.961 . S
H576 C561 0.961 . S
H577 C561 0.961 . S
H578 C562 0.931 . S
H579 C567 0.930 . S
H580 C568 0.956 . S
H581 C568 0.961 . S
H582 C568 0.961 . S
H583 C569 0.958 . S
H584 C569 0.961 . S
H585 C569 0.960 . S
C586 C587 1.391 . S
C586 C588 1.394 . S
C586 H602 0.931 . S
C587 C586 1.391 . S
C587 C591 1.376 . S
C588 C586 1.394 . S
C588 C589 1.369 . S
C588 C592 1.531 . S
C589 C588 1.369 . S
C589 C590 1.410 . S
C589 C597 1.503 . S
C590 C589 1.410 . S
C590 C591 1.392 . S
C590 C593 1.511 . S
C591 C587 1.376 . S
C591 C590 1.392 . S
C591 H603 0.929 . S
C592 C588 1.531 . S
C592 H604 0.960 . S
C592 H605 0.962 . S
C592 H606 0.960 . S
C593 C590 1.511 . S
C593 H607 0.961 . S
C593 H608 0.961 . S
C593 H609 0.961 . S
C594 C595 1.370 . S
C594 C596 1.363 . S
C594 H610 0.931 . S
C595 C594 1.370 . S
C595 C599 1.408 . S
C596 C594 1.363 . S
C596 C597 1.370 . S
C596 C600 1.524 . S
C597 C589 1.503 . S
C597 C596 1.370 . S
C597 C598 1.403 . S
C598 C597 1.403 . S
C598 C599 1.404 . S
C598 C601 1.539 . S
C599 C595 1.408 . S
C599 C598 1.404 . S
C599 H611 0.930 . S
C600 C596 1.524 . S
C600 H612 0.956 . S
C600 H613 0.961 . S
C600 H614 0.961 . S
C601 C598 1.539 . S
C601 H615 0.958 . S
C601 H616 0.961 . S
C601 H617 0.960 . S
H602 C586 0.931 . S
H603 C591 0.929 . S
H604 C592 0.960 . S
H605 C592 0.962 . S
H606 C592 0.960 . S
H607 C593 0.961 . S
H608 C593 0.961 . S
H609 C593 0.961 . S
H610 C594 0.931 . S
H611 C599 0.930 . S
H612 C600 0.956 . S
H613 C600 0.961 . S
H614 C600 0.961 . S
H615 C601 0.958 . S
H616 C601 0.961 . S
H617 C601 0.960 . S
C618 C619 1.391 . S
C618 C620 1.394 . S
C618 H634 0.931 . S
C619 C618 1.391 . S
C619 C623 1.376 . S
C620 C618 1.394 . S
C620 C621 1.369 . S
C620 C624 1.531 . S
C621 C620 1.369 . S
C621 C622 1.410 . S
C621 C629 1.503 . S
C622 C621 1.410 . S
C622 C623 1.392 . S
C622 C625 1.511 . S
C623 C619 1.376 . S
C623 C622 1.392 . S
C623 H635 0.929 . S
C624 C620 1.531 . S
C624 H636 0.960 . S
C624 H637 0.962 . S
C624 H638 0.960 . S
C625 C622 1.511 . S
C625 H639 0.961 . S
C625 H640 0.961 . S
C625 H641 0.961 . S
C626 C627 1.370 . S
C626 C628 1.363 . S
C626 H642 0.931 1_545 S
C627 C626 1.370 . S
C627 C631 1.408 . S
C628 C626 1.363 . S
C628 C629 1.370 . S
C628 C632 1.524 1_545 S
C629 C621 1.503 . S
C629 C628 1.370 . S
C629 C630 1.403 . S
C630 C629 1.403 . S
C630 C631 1.404 . S
C630 C633 1.539 . S
C631 C627 1.408 . S
C631 C630 1.404 . S
C631 H643 0.930 . S
C632 C628 1.524 1_565 S
C632 H644 0.956 . S
C632 H645 0.961 . S
C632 H646 0.961 . S
C633 C630 1.539 . S
C633 H647 0.958 . S
C633 H648 0.961 . S
C633 H649 0.960 . S
H634 C618 0.931 . S
H635 C623 0.929 . S
H636 C624 0.960 . S
H637 C624 0.962 . S
H638 C624 0.960 . S
H639 C625 0.961 . S
H640 C625 0.961 . S
H641 C625 0.961 . S
H642 C626 0.931 1_565 S
H643 C631 0.930 . S
H644 C632 0.956 . S
H645 C632 0.961 . S
H646 C632 0.961 . S
H647 C633 0.958 . S
H648 C633 0.961 . S
H649 C633 0.960 . S
C650 C651 1.391 . S
C650 C652 1.394 . S
C650 H666 0.931 . S
C651 C650 1.391 . S
C651 C655 1.376 . S
C652 C650 1.394 . S
C652 C653 1.369 . S
C652 C656 1.531 . S
C653 C652 1.369 . S
C653 C654 1.410 . S
C653 C661 1.503 1_556 S
C654 C653 1.410 . S
C654 C655 1.392 . S
C654 C657 1.511 . S
C655 C651 1.376 . S
C655 C654 1.392 . S
C655 H667 0.929 . S
C656 C652 1.531 . S
C656 H668 0.960 . S
C656 H669 0.962 . S
C656 H670 0.960 . S
C657 C654 1.511 . S
C657 H671 0.961 . S
C657 H672 0.961 . S
C657 H673 0.961 . S
C658 C659 1.370 . S
C658 C660 1.363 . S
C658 H674 0.931 . S
C659 C658 1.370 . S
C659 C663 1.408 . S
C660 C658 1.363 . S
C660 C661 1.370 . S
C660 C664 1.524 1_554 S
C661 C653 1.503 1_554 S
C661 C660 1.370 . S
C661 C662 1.403 . S
C662 C661 1.403 . S
C662 C663 1.404 . S
C662 C665 1.539 . S
C663 C659 1.408 . S
C663 C662 1.404 . S
C663 H675 0.930 . S
C664 C660 1.524 1_556 S
C664 H676 0.956 . S
C664 H677 0.961 . S
C664 H678 0.961 1_556 S
C665 C662 1.539 . S
C665 H679 0.958 . S
C665 H680 0.961 . S
C665 H681 0.960 1_554 S
H666 C650 0.931 . S
H667 C655 0.929 . S
H668 C656 0.960 . S
H669 C656 0.962 . S
H670 C656 0.960 . S
H671 C657 0.961 . S
H672 C657 0.961 . S
H673 C657 0.961 . S
H674 C658 0.931 . S
H675 C663 0.930 . S
H676 C664 0.956 . S
H677 C664 0.961 . S
H678 C664 0.961 1_554 S
H679 C665 0.958 . S
H680 C665 0.961 . S
H681 C665 0.960 1_556 S
C682 C683 1.380 1_655 S
C682 C684 1.394 . S
C682 H698 0.931 . S
C683 C682 1.380 1_455 S
C683 C687 1.389 . S
C684 C682 1.394 . S
C684 C685 1.369 1_655 S
C684 C688 1.531 . S
C685 C684 1.369 1_455 S
C685 C686 1.410 . S
C685 C693 1.503 . S
C686 C685 1.410 . S
C686 C687 1.392 . S
C686 C689 1.511 . S
C687 C683 1.389 . S
C687 C686 1.392 . S
C687 H699 0.929 . S
C688 C684 1.531 . S
C688 H700 0.960 . S
C688 H701 0.962 . S
C688 H702 0.960 . S
C689 C686 1.511 . S
C689 H703 0.961 . S
C689 H704 0.961 . S
C689 H705 0.961 . S
C690 C691 1.370 . S
C690 C692 1.363 . S
C690 H706 0.931 . S
C691 C690 1.370 . S
C691 C695 1.408 . S
C692 C690 1.363 . S
C692 C693 1.370 . S
C692 C696 1.524 . S
C693 C685 1.503 . S
C693 C692 1.370 . S
C693 C694 1.403 . S
C694 C693 1.403 . S
C694 C695 1.404 . S
C694 C697 1.539 . S
C695 C691 1.408 . S
C695 C694 1.404 . S
C695 H707 0.930 . S
C696 C692 1.524 . S
C696 H708 0.956 1_455 S
C696 H709 0.961 . S
C696 H710 0.961 . S
C697 C694 1.539 . S
C697 H711 0.958 1_455 S
C697 H712 0.961 . S
C697 H713 0.960 . S
H698 C682 0.931 . S
H699 C687 0.929 . S
H700 C688 0.960 . S
H701 C688 0.962 . S
H702 C688 0.960 . S
H703 C689 0.961 . S
H704 C689 0.961 . S
H705 C689 0.961 . S
H706 C690 0.931 . S
H707 C695 0.930 . S
H708 C696 0.956 1_655 S
H709 C696 0.961 . S
H710 C696 0.961 . S
H711 C697 0.958 1_655 S
H712 C697 0.961 . S
H713 C697 0.960 . S
C139 C2 1.150 . S
C147 N127 1.227 . S
C171 C22 1.254 . S
C179 N100 1.405 1_655 S
C203 C44 1.301 . S
C211 N113 1.406 1_565 S
C235 C4 1.775 . S
C243 N126 1.855 . S
C275 N101 1.644 . S
C267 C24 1.540 . S
C307 N114 1.612 . S
C299 C42 1.562 . S
C331 C32 1.234 . S
C339 N74 1.241 . S
C363 C49 1.026 . S
C371 N88 0.998 1_655 S
C395 C9 1.290 . S
C403 N62 1.329 . S
C435 N75 1.317 . S
C427 C29 1.303 . S
C467 N87 1.539 . S
C459 C52 1.466 . S
C491 C12 1.184 . S
C499 N61 1.228 . S
C531 N91 1.487 . S
C523 C18 1.507 1_455 S
C555 C38 1.480 . S
C563 N65 1.525 . S
C587 C58 1.498 . S
C595 N78 1.500 . S
C627 N117 1.590 . S
C619 C39 1.560 . S
C659 N130 1.516 . S
C651 C59 1.531 . S
C683 C19 1.525 . S
C691 N104 1.551 . S
