# Generated by pormake.
# Topology zzz, (3,6)-cn, num edge types: 1
# Building blocks:
#     Node 0, Type 0, BuildingBlock: CUQRIR_clean_linker_1, # of connection points: 3
#     Node 1, Type 0, BuildingBlock: CUQRIR_clean_linker_1, # of connection points: 3
#     Node 2, Type 0, BuildingBlock: CUQRIR_clean_linker_1, # of connection points: 3
#     Node 3, Type 0, BuildingBlock: CUQRIR_clean_linker_1, # of connection points: 3
#     Node 4, Type 0, BuildingBlock: CUQRIR_clean_linker_1, # of connection points: 3
#     Node 5, Type 0, BuildingBlock: CUQRIR_clean_linker_1, # of connection points: 3
#     Node 6, Type 0, BuildingBlock: CUQRIR_clean_linker_1, # of connection points: 3
#     Node 7, Type 0, BuildingBlock: CUQRIR_clean_linker_1, # of connection points: 3
#     Node 8, Type 1, BuildingBlock: PAMTOO_clean_sbu_0, # of connection points: 6
#     Node 9, Type 1, BuildingBlock: PAMTOO_clean_sbu_0, # of connection points: 6
#     Node 10, Type 1, BuildingBlock: PAMTOO_clean_sbu_0, # of connection points: 6
#     Node 11, Type 1, BuildingBlock: PAMTOO_clean_sbu_0, # of connection points: 6
#     Edge 12, Type (0, 1), BuildingBlock: AJUNOK_clean_linker_0, # of connection points: 2
#     Edge 13, Type (0, 1), BuildingBlock: AJUNOK_clean_linker_0, # of connection points: 2
#     Edge 14, Type (0, 1), BuildingBlock: AJUNOK_clean_linker_0, # of connection points: 2
#     Edge 15, Type (0, 1), BuildingBlock: AJUNOK_clean_linker_0, # of connection points: 2
#     Edge 16, Type (0, 1), BuildingBlock: AJUNOK_clean_linker_0, # of connection points: 2
#     Edge 17, Type (0, 1), BuildingBlock: AJUNOK_clean_linker_0, # of connection points: 2
#     Edge 18, Type (0, 1), BuildingBlock: AJUNOK_clean_linker_0, # of connection points: 2
#     Edge 19, Type (0, 1), BuildingBlock: AJUNOK_clean_linker_0, # of connection points: 2
#     Edge 20, Type (0, 1), BuildingBlock: AJUNOK_clean_linker_0, # of connection points: 2
#     Edge 21, Type (0, 1), BuildingBlock: AJUNOK_clean_linker_0, # of connection points: 2
#     Edge 22, Type (0, 1), BuildingBlock: AJUNOK_clean_linker_0, # of connection points: 2
#     Edge 23, Type (0, 1), BuildingBlock: AJUNOK_clean_linker_0, # of connection points: 2
#     Edge 24, Type (0, 1), BuildingBlock: AJUNOK_clean_linker_0, # of connection points: 2
#     Edge 25, Type (0, 1), BuildingBlock: AJUNOK_clean_linker_0, # of connection points: 2
#     Edge 26, Type (0, 1), BuildingBlock: AJUNOK_clean_linker_0, # of connection points: 2
#     Edge 27, Type (0, 1), BuildingBlock: AJUNOK_clean_linker_0, # of connection points: 2
#     Edge 28, Type (0, 1), BuildingBlock: AJUNOK_clean_linker_0, # of connection points: 2
#     Edge 29, Type (0, 1), BuildingBlock: AJUNOK_clean_linker_0, # of connection points: 2
#     Edge 30, Type (0, 1), BuildingBlock: AJUNOK_clean_linker_0, # of connection points: 2
#     Edge 31, Type (0, 1), BuildingBlock: AJUNOK_clean_linker_0, # of connection points: 2
#     Edge 32, Type (0, 1), BuildingBlock: AJUNOK_clean_linker_0, # of connection points: 2
#     Edge 33, Type (0, 1), BuildingBlock: AJUNOK_clean_linker_0, # of connection points: 2
#     Edge 34, Type (0, 1), BuildingBlock: AJUNOK_clean_linker_0, # of connection points: 2
#     Edge 35, Type (0, 1), BuildingBlock: AJUNOK_clean_linker_0, # of connection points: 2
# Relax obj value: 0.359
# Max RMSD: 0.257
# Mean RMSD: 0.137
data_MOF--net-zzz--node1-PAMTOO_clean_sbu_0--node2-CUQRIR_clean_linker_1--edge1-AJUNOK_clean_linker_0
_symmetry_space_group_name_H-M    P1
_symmetry_Int_Tables_number       1
_symmetry_cell_setting            triclinic
loop_
_symmetry_equiv_pos_as_xyz
'x, y, z'
_cell_length_a     39.424204
_cell_length_b     32.195289
_cell_length_c     10.316399
_cell_angle_alpha  92.987001
_cell_angle_beta   73.860551
_cell_angle_gamma 86.213236
loop_
_atom_site_label
_atom_site_type_symbol
_atom_site_fract_x
_atom_site_fract_y
_atom_site_fract_z
_atom_type_partial_charge
C0 C 0.81311 0.53708 0.74319 0.0
N1 N 0.84318 0.51183 0.73662 0.0
N2 N 0.79213 0.5183 0.67607 0.0
C3 C 0.80184 0.57814 0.82432 0.0
C4 C 0.80981 0.48071 0.63143 0.0
N5 N 0.84037 0.47672 0.66706 0.0
C6 C 0.80057 0.45051 0.53107 0.0
H7 H 0.77258 0.58146 0.86722 0.0
H8 H 0.80902 0.60384 0.75688 0.0
H9 H 0.81437 0.58079 0.90797 0.0
H10 H 0.7749 0.45938 0.51201 0.0
H11 H 0.79933 0.41893 0.56914 0.0
H12 H 0.82152 0.44851 0.43297 0.0
C13 C 1.00821 0.73173 0.67436 0.0
N14 N 1.01793 0.77 0.63513 0.0
N15 N 1.01104 0.70491 0.56477 0.0
C16 C 0.99873 0.71913 0.81689 0.0
C17 C 1.02202 0.72829 0.45749 0.0
N18 N 1.02854 0.76671 0.50032 0.0
C19 C 0.04019 0.70535 0.31296 0.0
H20 H 1.02301 0.70578 0.83903 0.0
H21 H 0.97984 0.69456 0.82902 0.0
H22 H 0.98703 0.74638 0.88964 0.0
H23 H 1.01569 0.69661 0.28569 0.0
H24 H 0.09236 0.64545 0.2792 0.0
H25 H 0.04274 0.73188 0.24499 0.0
C26 C 0.79952 0.01718 0.60073 0.0
N27 N 0.76527 1.01488 0.59508 0.0
N28 N 0.82294 0.01581 0.47314 0.0
C29 C 0.80993 0.02312 0.72881 0.0
C30 C 0.80152 1.01237 0.39151 0.0
N31 N 0.76733 1.01222 0.46423 0.0
C32 C 0.81398 1.0088 0.23913 0.0
H33 H 0.81533 0.05618 0.74315 0.0
H34 H 0.83469 1.00341 0.7211 0.0
H35 H 0.7885 0.01537 0.81726 0.0
H36 H 0.84096 0.9925 0.20232 0.0
H37 H 0.81497 0.04043 0.20123 0.0
H38 H 0.79545 0.99173 0.19683 0.0
C39 C 0.55668 0.77231 0.45423 0.0
N40 N 0.54228 0.73507 0.48296 0.0
N41 N 0.54231 0.79266 0.36555 0.0
C42 C 0.58514 0.78824 0.50914 0.0
C43 C 0.51789 0.76673 0.3477 0.0
N44 N 0.51899 0.7314 0.4125 0.0
C45 C 0.49188 0.77541 0.26768 0.0
H46 H 0.5731 0.81323 0.59022 0.0
H47 H 0.60507 0.80205 0.42825 0.0
H48 H 0.59823 0.76308 0.55223 0.0
H49 H 0.50136 0.75793 0.16701 0.0
H50 H 0.4879 0.80923 0.25505 0.0
H51 H 0.46603 0.76389 0.32007 0.0
C52 C 0.26486 0.48627 0.16744 0.0
N53 N 0.2451 0.51587 0.12286 0.0
N54 N 0.28041 0.50346 0.25712 0.0
C55 C 0.26628 0.44031 0.13309 0.0
C56 C 0.26867 0.54399 0.26988 0.0
N57 N 0.25008 0.5526 0.17968 0.0
C58 C 0.26551 0.56974 0.40055 0.0
H59 H 0.24402 0.42727 0.20648 0.0
H60 H 0.29151 0.42448 0.14016 0.0
H61 H 0.26335 0.43428 0.02997 0.0
H62 H 0.29004 0.5856 0.39298 0.0
H63 H 0.2629 0.54914 0.48517 0.0
H64 H 0.24173 0.59229 0.42977 0.0
C65 C 0.05266 0.29562 0.33638 0.0
N66 N 1.02806 0.26805 0.33408 0.0
N67 N 1.03828 0.3287 0.42753 0.0
C68 C 0.09042 0.29007 0.25099 0.0
C69 C 1.00458 0.31948 0.48325 0.0
N70 N 0.99834 0.28292 0.42684 0.0
C71 C 0.97785 0.34634 0.59426 0.0
H72 H 0.10323 0.3198 0.24864 0.0
H73 H 0.09166 0.27829 0.1466 0.0
H74 H 0.1051 0.26638 0.29381 0.0
H75 H 0.97402 0.3779 0.55975 0.0
H76 H 0.98808 0.34994 0.68384 0.0
H77 H 0.95167 0.33335 0.62369 0.0
C78 C 0.27541 0.0231 0.33072 0.0
N79 N 0.30986 1.01136 0.32742 0.0
N80 N 0.25153 1.00984 0.44326 0.0
C81 C 0.26523 0.04682 0.22449 0.0
C82 C 0.27303 0.9904 0.50754 0.0
N83 N 0.30733 0.99078 0.43721 0.0
C84 C 0.26066 0.9726 0.64366 0.0
H85 H 0.26644 0.08064 0.24756 0.0
H86 H 0.23786 0.04129 0.22278 0.0
H87 H 0.28417 0.03768 0.12375 0.0
H88 H 0.25493 0.93972 0.62862 0.0
H89 H 0.23623 0.9905 0.70791 0.0
H90 H 0.28123 0.97284 0.69821 0.0
C91 C 0.53563 0.26029 0.41896 0.0
N92 N 0.54329 0.30089 0.40246 0.0
N93 N 0.53882 0.2478 0.54095 0.0
C94 C 0.52817 0.23229 0.31119 0.0
C95 C 0.54848 0.2828 0.59646 0.0
N96 N 0.55238 0.31396 0.51143 0.0
C97 C 0.54893 0.28869 0.74202 0.0
H98 H 0.49923 0.23473 0.32357 0.0
H99 H 0.53711 0.19931 0.31867 0.0
H100 H 0.54153 0.24217 0.20935 0.0
H101 H 0.57587 0.27979 0.75009 0.0
H102 H 0.53013 0.26888 0.80657 0.0
H103 H 0.54166 0.32179 0.78127 0.0
Dy104 Dy 1.01806 0.03475 0.84706 0.0
Dy105 Dy 0.05587 1.00346 0.06043 0.0
C106 C 0.10236 0.01744 0.75725 0.0
O107 O 1.02867 0.96464 0.80656 0.0
O108 O 0.04426 0.94029 0.98807 0.0
O109 O 1.01426 0.06192 0.66467 0.0
O110 O 0.97482 0.02154 0.7655 0.0
O111 O 0.998 1.0034 0.18121 0.0
O112 O 0.97333 0.04051 0.04153 0.0
O113 O 0.04602 0.07251 0.10531 0.0
O114 O 1.0187 0.09786 0.95381 0.0
O115 O 0.06435 0.97965 0.24049 0.0
O116 O 0.1043 1.01411 0.11081 0.0
C117 C 1.03465 0.93341 0.87706 0.0
O118 O 0.07603 0.04325 0.7481 0.0
O119 O 0.09661 0.99177 0.85475 0.0
C120 C 0.95727 0.07362 0.64037 0.0
C121 C 0.92394 0.14713 0.58726 0.0
C122 C 0.91456 0.13334 0.71892 0.0
C123 C 0.93211 0.09719 0.74624 0.0
C124 C 0.96051 0.08236 0.50667 0.0
C125 C 0.94387 0.11896 0.47974 0.0
C126 C 0.98476 0.0455 0.66637 0.0
C127 C 0.97014 0.02282 0.15632 0.0
C128 C 1.03177 0.10388 0.05728 0.0
C129 C 0.12298 0.95867 0.21868 0.0
C130 C 0.13212 0.87595 0.26584 0.0
C131 C 0.13963 0.88712 0.13181 0.0
C132 C 0.1346 0.9289 0.10807 0.0
C133 C 0.12516 0.94851 0.34616 0.0
C134 C 0.13011 0.90679 0.36993 0.0
C135 C 0.09645 0.99162 0.21473 0.0
H136 H 0.89833 0.15375 0.80328 0.0
H137 H 0.92874 0.09018 0.85046 0.0
H138 H 0.97937 0.06378 0.42393 0.0
H139 H 0.95168 0.12779 0.37652 0.0
H140 H 0.14214 0.86361 0.04983 0.0
H141 H 0.1336 0.9366 1.00808 0.0
H142 H 0.11652 0.97147 0.43176 0.0
H143 H 0.12495 0.89899 0.47415 0.0
Dy144 Dy 0.53872 0.99156 0.83418 0.0
Dy145 Dy 0.53627 0.0482 0.08979 0.0
C146 C 0.53241 0.09141 0.81638 0.0
O147 O 0.59655 1.00536 0.78921 0.0
O148 O 0.59599 0.03136 1.0006 0.0
O149 O 0.55087 0.97638 0.61959 0.0
O150 O 0.52702 0.93191 0.76171 0.0
O151 O 0.53615 0.98184 0.1587 0.0
O152 O 0.56204 0.94765 0.95458 0.0
O153 O 0.47829 0.05325 0.09413 0.0
O154 O 0.48068 0.99367 0.96357 0.0
O155 O 0.5145 0.06295 0.30534 0.0
O156 O 0.5521 0.10179 0.18558 0.0
C157 C 0.61373 0.01843 0.87455 0.0
O158 O 0.52411 0.0555 0.77154 0.0
O159 O 0.54196 0.09398 0.9286 0.0
C160 C 0.5038 0.94095 0.58065 0.0
C161 C 0.43946 0.94397 0.51867 0.0
C162 C 0.46126 0.97673 0.48752 0.0
C163 C 0.49309 0.97547 0.51958 0.0
C164 C 0.48311 0.90667 0.60198 0.0
C165 C 0.45091 0.90819 0.57104 0.0
C166 C 0.5337 0.94283 0.63794 0.0
C167 C 0.55181 0.94738 0.08641 0.0
C168 C 0.46165 0.02373 0.05095 0.0
C169 C 0.56384 0.07828 0.37622 0.0
C170 C 0.63036 0.05535 0.41079 0.0
C171 C 0.60971 0.02491 0.37752 0.0
C172 C 0.57648 0.03617 0.36445 0.0
C173 C 0.58332 0.10863 0.41606 0.0
C174 C 0.61558 0.09703 0.44025 0.0
C175 C 0.53778 0.08986 0.30579 0.0
H176 H 0.45262 1.00441 0.44585 0.0
H177 H 0.50823 1.00248 0.50296 0.0
H178 H 0.49099 0.87977 0.64906 0.0
H179 H 0.43406 0.88279 0.59563 0.0
H180 H 0.61981 0.99256 0.35224 0.0
H181 H 0.56252 1.01207 0.33059 0.0
H182 H 0.57487 0.14134 0.41888 0.0
H183 H 0.62952 0.12115 0.4748 0.0
Dy184 Dy 0.58613 0.5218 0.95996 0.0
Dy185 Dy 0.50243 0.51082 0.92031 0.0
C186 C 0.53803 0.4443 0.08566 0.0
O187 O 0.59621 0.49082 0.75109 0.0
O188 O 0.5439 0.46174 0.81798 0.0
O189 O 0.63639 0.49612 0.98458 0.0
O190 O 0.62204 0.56244 0.01786 0.0
O191 O 0.52168 0.56851 0.81558 0.0
O192 O 0.57924 0.57394 0.82549 0.0
O193 O 0.49512 0.56623 0.06651 0.0
O194 O 0.54196 0.54459 0.14421 0.0
O195 O 0.48349 0.50065 0.74811 0.0
O196 O 0.4456 0.50137 0.95051 0.0
C197 C 0.57313 0.46645 0.72544 0.0
O198 O 0.56913 0.4599 0.03971 0.0
O199 O 0.50824 0.46278 0.07018 0.0
C200 C 0.66033 0.53488 0.14295 0.0
C201 C 0.69698 0.54067 0.34656 0.0
C202 C 0.69018 0.57583 0.27911 0.0
C203 C 0.67223 0.57294 0.17902 0.0
C204 C 0.66621 0.49987 0.21287 0.0
C205 C 0.68407 0.50282 0.31374 0.0
C206 C 0.64477 0.53212 0.0255 0.0
C207 C 0.55118 0.58781 0.78853 0.0
C208 C 0.51491 0.57132 0.14847 0.0
C209 C 0.42418 0.48686 0.74558 0.0
C210 C 0.37625 0.47744 0.58542 0.0
C211 C 0.41257 0.46503 0.53232 0.0
C212 C 0.43608 0.46957 0.61085 0.0
C213 C 0.38753 0.49716 0.80196 0.0
C214 C 0.36378 0.49239 0.72277 0.0
C215 C 0.45086 0.4971 0.8187 0.0
H216 H 0.69911 0.60564 0.30267 0.0
H217 H 0.66835 0.60053 0.12728 0.0
H218 H 0.65771 0.46994 0.18782 0.0
H219 H 0.68889 0.475 0.36283 0.0
H220 H 0.42306 0.4532 0.4276 0.0
H221 H 0.46399 0.46076 0.56385 0.0
H222 H 0.37745 0.5106 0.90501 0.0
H223 H 0.33597 0.50241 0.76689 0.0
Dy224 Dy 0.0523 0.56143 0.86321 0.0
Dy225 Dy 1.03473 0.48203 0.02598 0.0
C226 C 0.06791 0.47242 0.71322 0.0
O227 O 0.99346 0.56054 0.87962 0.0
O228 O 0.98654 0.49473 0.95087 0.0
O229 O 0.05101 0.60482 0.71371 0.0
O230 O 0.08337 0.6148 0.84886 0.0
O231 O 1.02285 0.53296 0.19746 0.0
O232 O 1.02724 0.59 0.0709 0.0
O233 O 0.08221 0.49989 0.084 0.0
O234 O 0.10459 0.53178 0.89077 0.0
O235 O 1.01073 0.44205 0.17977 0.0
O236 O 0.04855 0.41553 0.9936 0.0
C237 C 0.97425 0.52815 0.90433 0.0
O238 O 0.05438 0.50997 0.70397 0.0
O239 O 0.07445 0.46436 0.82661 0.0
C240 C 0.10521 0.6335 0.62755 0.0
C241 C 0.15824 0.64979 0.39505 0.0
C242 C 0.1415 0.61219 0.40188 0.0
C243 C 0.11552 0.60414 0.51671 0.0
C244 C 0.1234 0.66952 0.62697 0.0
C245 C 0.15034 0.67715 0.51177 0.0
C246 C 0.07521 0.62648 0.74186 0.0
C247 C 1.02135 0.57383 0.18778 0.0
C248 C 0.10918 0.51457 0.9994 0.0
C249 C 0.99914 0.37899 0.08642 0.0
C250 C 0.93047 0.37302 0.2332 0.0
C251 C 0.95732 0.34674 0.25753 0.0
C252 C 0.99211 0.34923 0.18077 0.0
C253 C 0.97201 0.39341 0.03235 0.0
C254 C 0.93692 0.38984 0.1062 0.0
C255 C 1.02471 0.40809 0.1031 0.0
H256 H 0.14797 0.58877 0.31792 0.0
H257 H 0.10234 0.57571 0.51672 0.0
H258 H 0.11644 0.69188 0.71431 0.0
H259 H 0.16463 0.70448 0.51292 0.0
H260 H 0.95273 0.33226 0.3519 0.0
H261 H 1.0134 0.33581 0.21459 0.0
H262 H 0.97742 0.41427 0.95159 0.0
H263 H 0.91604 0.40842 0.081 0.0
C264 C 0.19515 0.97638 0.53153 0.0
C265 C 0.21258 1.01264 0.49139 0.0
C266 C 0.15979 0.97828 0.61481 0.0
C267 C 0.13897 0.01646 0.65734 0.0
H268 H 0.20986 0.94609 0.50489 0.0
H269 H 0.14876 0.94937 0.64755 0.0
S270 S 0.16991 0.12074 0.56989 0.0
N271 N 0.20508 0.08814 0.49714 0.0
N272 N 0.138 0.09162 0.64309 0.0
C273 C 0.15506 0.05287 0.6095 0.0
C274 C 0.19175 0.05101 0.52883 0.0
C275 C 0.56346 0.19265 0.65909 0.0
C276 C 0.53724 0.20673 0.59802 0.0
C277 C 0.56131 0.1559 0.72874 0.0
C278 C 0.53362 0.12975 0.73678 0.0
H279 H 0.58612 0.2104 0.65334 0.0
H280 H 0.5821 0.14748 0.77498 0.0
S281 S 0.45853 0.15005 0.5907 0.0
N282 N 0.48205 0.19063 0.5524 0.0
N283 N 0.47974 0.11988 0.67281 0.0
C284 C 0.50783 0.1422 0.67184 0.0
C285 C 0.50926 0.18081 0.60489 0.0
C286 C 0.29755 0.46496 0.4361 0.0
C287 C 0.30696 0.48716 0.31876 0.0
C288 C 0.3201 0.461 0.52151 0.0
C289 C 0.35284 0.47913 0.49247 0.0
H290 H 0.27171 0.45294 0.46631 0.0
H291 H 0.31148 0.44459 0.61244 0.0
S292 S 0.38765 0.54362 0.20477 0.0
N293 N 0.35028 0.52873 0.18267 0.0
N294 N 0.39215 0.52178 0.34085 0.0
C295 C 0.36248 0.5008 0.37446 0.0
C296 C 0.33978 0.50457 0.28836 0.0
C297 C 0.04084 0.40507 0.45084 0.0
C298 C 0.05408 0.36466 0.46789 0.0
C299 C 0.04808 0.44055 0.52107 0.0
C300 C 0.06853 0.43686 0.61288 0.0
H301 H 1.02258 0.4088 0.39043 0.0
H302 H 1.03534 0.47058 0.51083 0.0
S303 S 0.11263 0.33798 0.68119 0.0
N304 N 0.09091 0.32322 0.57325 0.0
N305 N 0.10519 0.38929 0.70449 0.0
C306 C 0.08417 0.39673 0.6224 0.0
C307 C 0.07675 0.36079 0.55037 0.0
C308 C 0.88727 0.99059 0.4237 0.0
C309 C 0.86072 0.02248 0.42536 0.0
C310 C 0.92298 0.99188 0.34332 0.0
C311 C 0.93357 0.02448 0.25751 0.0
H312 H 0.87997 0.96332 0.47885 0.0
H313 H 0.94192 0.96585 0.34244 0.0
S314 S 0.87474 0.1171 0.23327 0.0
N315 N 0.84861 0.08928 0.34302 0.0
N316 N 0.91415 0.09091 0.18882 0.0
C317 C 0.90745 0.05732 0.26362 0.0
C318 C 0.87165 0.05652 0.34799 0.0
C319 C 0.55355 0.86873 0.35731 0.0
C320 C 0.55232 0.82978 0.29088 0.0
C321 C 0.55514 0.90629 0.28948 0.0
C322 C 0.55537 0.90675 0.15243 0.0
H323 H 0.55209 0.87021 0.46349 0.0
H324 H 0.55599 0.93542 0.34467 0.0
S325 S 0.56371 0.8115 0.92178 0.0
N326 N 0.56059 0.79326 0.07091 0.0
N327 N 0.56139 0.86281 0.94681 0.0
C328 C 0.55814 0.86734 0.08154 0.0
C329 C 0.5572 0.82928 0.14973 0.0
C330 C 0.73079 0.52219 0.65672 0.0
C331 C 0.76505 0.53637 0.61972 0.0
C332 C 0.70837 0.52512 0.57108 0.0
C333 C 0.71907 0.54274 0.44497 0.0
H334 H 0.72253 0.50549 0.74719 0.0
H335 H 0.683 0.51197 0.60151 0.0
S336 S 0.80582 0.58578 0.30344 0.0
N337 N 0.80793 0.56979 0.45078 0.0
N338 N 0.76616 0.57605 0.29126 0.0
C339 C 0.75246 0.55926 0.41097 0.0
C340 C 0.77523 0.55603 0.49793 0.0
C341 C 0.99712 0.63185 0.54731 0.0
C342 C 1.0227 0.66101 0.54485 0.0
C343 C 0.99813 0.60152 0.43847 0.0
C344 C 1.02054 0.60324 0.30537 0.0
H345 H 0.97401 0.63511 0.63265 0.0
H346 H 0.978 0.57952 0.45535 0.0
S347 S 0.10183 0.69908 0.19563 0.0
N348 N 0.08368 0.68982 0.40716 0.0
N349 N 0.06768 0.65432 0.15315 0.0
C350 C 0.04506 0.63285 0.29133 0.0
C351 C 0.05389 0.65386 0.44139 0.0
C352 C 0.96293 0.24709 0.61385 0.0
C353 C 0.96896 0.25884 0.48115 0.0
C354 C 0.94193 0.21467 0.65822 0.0
C355 C 0.92687 0.19232 0.56975 0.0
H356 H 0.97745 0.26016 0.67901 0.0
H357 H 0.94186 0.20372 0.75576 0.0
S358 S 0.92583 0.22047 0.22715 0.0
N359 N 0.95204 0.25275 0.27243 0.0
N360 N 0.91158 0.19204 0.35713 0.0
C361 C 0.92794 0.20864 0.44502 0.0
C362 C 0.9497 0.24149 0.39935 0.0
C363 C 0.349 0.99641 0.57041 0.0
C364 C 0.3369 0.97365 0.47566 0.0
C365 C 0.38177 0.98483 0.58934 0.0
C366 C 0.4031 0.95042 0.51292 0.0
H367 H 0.33384 0.02448 0.62411 0.0
H368 H 0.39125 1.00394 0.65941 0.0
S369 S 0.3811 0.87916 0.26109 0.0
N370 N 0.34643 0.91387 0.31313 0.0
N371 N 0.40907 0.89212 0.34666 0.0
C372 C 0.39031 0.92601 0.42368 0.0
C373 C 0.3568 0.93777 0.4052 0.0
C374 C 0.54356 0.39079 0.52341 0.0
C375 C 0.56418 0.3546 0.53369 0.0
C376 C 0.55305 0.43025 0.55454 0.0
C377 C 0.58116 0.43479 0.61203 0.0
H378 H 0.5187 0.3887 0.49954 0.0
H379 H 0.53481 0.45693 0.55444 0.0
S380 S 0.64693 0.3506 0.63797 0.0
N381 N 0.61849 0.32636 0.57626 0.0
N382 N 0.63277 0.40065 0.65844 0.0
C383 C 0.60386 0.3994 0.61163 0.0
C384 C 0.59569 0.35917 0.56993 0.0
C385 C 0.20988 0.60195 0.09578 0.0
C386 C 0.23821 0.59449 0.15221 0.0
C387 C 0.18435 0.63517 0.15043 0.0
C388 C 0.18594 0.65732 0.26954 0.0
H389 H 0.20538 0.58193 0.01803 0.0
H390 H 0.1598 0.63535 0.12296 0.0
S391 S 0.27196 0.68005 0.32254 0.0
N392 N 0.28043 0.636 0.2248 0.0
N393 N 0.22904 0.69329 0.35308 0.0
C394 C 0.22022 0.66179 0.27941 0.0
C395 C 0.24752 0.6305 0.21352 0.0
C396 C 0.05315 0.81324 0.32341 0.0
C397 C 0.05731 0.78887 0.42665 0.0
C398 C 0.0794 0.8389 0.2633 0.0
C399 C 0.1108 0.84041 0.30313 0.0
H400 H 1.02871 0.8141 0.29468 0.0
H401 H 0.07377 0.8603 0.19314 0.0
S402 S 0.13309 0.78388 0.57399 0.0
N403 N 0.09491 0.76723 0.56637 0.0
N404 N 0.14389 0.81648 0.4541 0.0
C405 C 0.1156 0.81521 0.40352 0.0
C406 C 0.08895 0.78909 0.46483 0.0
C407 C 0.71138 0.99082 0.43943 0.0
C408 C 0.73722 0.01927 0.41489 0.0
C409 C 0.6768 1.00309 0.44084 0.0
C410 C 0.6676 0.04332 0.40665 0.0
H411 H 0.71732 0.96007 0.46915 0.0
H412 H 0.65709 0.98117 0.47438 0.0
S413 S 0.72953 0.1256 0.30142 0.0
N414 N 0.75353 0.08741 0.34329 0.0
N415 N 0.68989 0.10873 0.32148 0.0
C416 C 0.69476 0.07036 0.36571 0.0
C417 C 0.72942 0.05855 0.37369 0.0
C418 C 0.48739 0.66769 0.39642 0.0
C419 C 0.51607 0.69184 0.34767 0.0
C420 C 0.48628 0.62839 0.33085 0.0
C421 C 0.51397 0.61282 0.21655 0.0
H422 H 0.46613 0.67908 0.48507 0.0
H423 H 0.46419 0.60997 0.37051 0.0
S424 S 0.59329 0.66624 0.04848 0.0
N425 N 0.5716 0.69845 0.17897 0.0
N426 N 0.56929 0.62591 0.05518 0.0
C427 C 0.54207 0.63748 0.16713 0.0
C428 C 0.54322 0.67671 0.23308 0.0
C429 C 0.89257 0.46686 0.47582 0.0
C430 C 0.86975 0.44988 0.58558 0.0
C431 C 0.91112 0.44162 0.36123 0.0
C432 C 0.90757 0.39833 0.35243 0.0
H433 H 0.89357 0.50038 0.47407 0.0
H434 H 0.92817 0.45639 0.27833 0.0
S435 S 0.85628 0.33806 0.62554 0.0
N436 N 0.84829 0.38713 0.68892 0.0
N437 N 0.88349 0.3389 0.47173 0.0
C438 C 0.88733 0.38046 0.46689 0.0
C439 C 0.86856 0.40639 0.58435 0.0
C440 C 1.02958 0.22338 0.12676 0.0
C441 C 1.03297 0.2275 0.25936 0.0
C442 C 1.02851 0.18371 0.0619 0.0
C443 C 1.03119 0.14656 0.12678 0.0
H444 H 1.02656 0.25116 0.07484 0.0
H445 H 1.0257 0.18218 0.96033 0.0
S446 S 0.04026 0.14152 0.47625 0.0
N447 N 0.03879 0.19182 0.45279 0.0
N448 N 1.03728 0.11781 0.33453 0.0
C449 C 1.03496 0.15083 0.25961 0.0
C450 C 1.0358 0.19102 0.32467 0.0
C451 C 0.36516 0.04904 0.28487 0.0
C452 C 0.34439 0.02093 0.23746 0.0
C453 C 0.4021 0.05057 0.222 0.0
C454 C 0.42108 0.02355 0.10829 0.0
H455 H 0.35297 0.06874 0.37653 0.0
H456 H 0.41618 0.07225 0.26705 0.0
S457 S 0.37937 0.9446 0.9395 0.0
N458 N 0.34603 0.96607 0.06555 0.0
N459 N 0.41459 0.96851 0.94829 0.0
C460 C 0.40036 0.99599 0.05737 0.0
C461 C 0.36256 0.99477 0.12122 0.0
C462 C 0.57246 0.34594 0.22388 0.0
C463 C 0.54176 0.32764 0.29341 0.0
C464 C 0.57074 0.3825 0.15521 0.0
C465 C 0.53814 0.40305 0.1516 0.0
H466 H 0.598 0.33356 0.23147 0.0
H467 H 0.59548 0.39553 0.10871 0.0
S468 S 0.44986 0.36486 0.30469 0.0
N469 N 0.4778 0.3308 0.34493 0.0
N470 N 0.47428 0.39881 0.21456 0.0
C471 C 0.50727 0.38323 0.21263 0.0
C472 C 0.50916 0.34575 0.28283 0.0
C473 C 0.21057 0.50753 0.95234 0.0
C474 C 0.21273 0.50757 0.08685 0.0
C475 C 0.1772 0.51019 0.92391 0.0
C476 C 0.14494 0.51018 0.02765 0.0
H477 H 0.23445 0.50941 0.87063 0.0
H478 H 0.17669 0.51281 0.82024 0.0
S479 S 0.13815 0.49654 0.39013 0.0
N480 N 0.18084 0.4998 0.31964 0.0
N481 N 0.11908 0.50113 0.26732 0.0
C482 C 0.14763 0.50492 0.15996 0.0
C483 C 0.18123 0.50406 0.18893 0.0
C484 C 1.00412 0.84623 0.6789 0.0
C485 C 1.0184 0.80882 0.71494 0.0
C486 C 1.00922 0.88556 0.73336 0.0
C487 C 1.02926 0.88998 0.82672 0.0
H488 H 0.98956 0.84501 0.60408 0.0
H489 H 0.99754 0.91291 0.6999 0.0
S490 S 0.07432 0.80179 0.95032 0.0
N491 N 0.05414 0.77872 0.8495 0.0
N492 N 0.06442 0.85247 0.94978 0.0
C493 C 0.04351 0.8527 0.86525 0.0
C494 C 1.0379 0.81232 0.81034 0.0
C495 C 0.70866 0.05434 0.73502 0.0
C496 C 0.73105 0.01675 0.70143 0.0
C497 C 0.6714 0.05497 0.7974 0.0
C498 C 0.65415 0.01792 0.82634 0.0
H499 H 0.71973 0.08339 0.70458 0.0
H500 H 0.65566 0.08468 0.81602 0.0
S501 S 0.69987 0.91115 0.75934 0.0
N502 N 0.7324 0.94161 0.70735 0.0
N503 N 0.66321 0.94254 0.81733 0.0
C504 C 0.67632 0.98035 0.79671 0.0
C505 C 0.7143 0.97985 0.73711 0.0
C506 C 0.57904 0.67632 0.54619 0.0
C507 C 0.54779 0.70356 0.57467 0.0
C508 C 0.58085 0.63993 0.61844 0.0
C509 C 0.55115 0.6285 0.71949 0.0
H510 H 0.60166 0.68214 0.4637 0.0
H511 H 0.60515 0.61962 0.59046 0.0
S512 S 0.46397 0.6908 0.8372 0.0
N513 N 0.4875 0.71738 0.7161 0.0
N514 N 0.49033 0.6499 0.84812 0.0
C515 C 0.52031 0.65637 0.75053 0.0
C516 C 0.51877 0.69338 0.67917 0.0
C517 C 0.89056 0.48548 0.8379 0.0
C518 C 0.87384 0.51888 0.78876 0.0
C519 C 0.92202 0.48927 0.87666 0.0
C520 C 0.93873 0.52697 0.8715 0.0
H521 H 0.87942 0.45556 0.84486 0.0
H522 H 0.9336 0.46179 0.90915 0.0
S523 S 0.90408 0.62587 0.76519 0.0
N524 N 0.8768 0.59174 0.7396 0.0
N525 N 0.93312 0.6 0.82631 0.0
C526 C 0.92135 0.56132 0.829 0.0
C527 C 0.8898 0.55707 0.78471 0.0
loop_
_geom_bond_atom_site_label_1
_geom_bond_atom_site_label_2
_geom_bond_distance
_geom_bond_site_symmetry_2
_ccdc_geom_bond_type
C0 N1 1.317 . S
C0 N2 1.348 . S
C0 C3 1.485 1_556 S
N1 C0 1.317 . S
N1 N5 1.370 . S
N2 C0 1.348 . S
N2 C4 1.346 . S
C3 C0 1.485 1_554 S
C3 H7 0.960 . S
C3 H8 0.961 . S
C3 H9 0.960 . S
C4 N2 1.346 . S
C4 N5 1.307 . S
C4 C6 1.486 . S
N5 N1 1.370 . S
N5 C4 1.307 . S
C6 C4 1.486 . S
C6 H10 0.960 . S
C6 H11 0.960 . S
C6 H12 0.959 . S
H7 C3 0.960 . S
H8 C3 0.961 . S
H9 C3 0.960 . S
H10 C6 0.960 . S
H11 C6 0.960 . S
H12 C6 0.959 . S
C13 N14 1.317 . S
C13 N15 1.348 . S
C13 C16 1.485 . S
N14 C13 1.317 . S
N14 N18 1.368 . S
N15 C13 1.348 . S
N15 C17 1.346 1_655 S
C16 C13 1.485 . S
C16 H20 0.960 1_655 S
C16 H21 0.961 . S
C16 H22 0.960 . S
C17 N15 1.346 1_455 S
C17 N18 1.310 1_455 S
C17 C19 1.486 . S
N18 N14 1.368 . S
N18 C17 1.310 1_655 S
C19 C17 1.486 . S
C19 H23 0.960 1_455 S
C19 H24 0.960 . S
C19 H25 0.959 . S
H20 C16 0.960 1_455 S
H21 C16 0.961 . S
H22 C16 0.960 . S
H23 C19 0.960 1_655 S
H24 C19 0.960 . S
H25 C19 0.959 . S
C26 N27 1.317 . S
C26 N28 1.348 . S
C26 C29 1.485 . S
N27 C26 1.317 . S
N27 N31 1.372 . S
N28 C26 1.348 . S
N28 C30 1.346 1_565 S
C29 C26 1.485 . S
C29 H33 0.960 1_565 S
C29 H34 0.961 . S
C29 H35 0.960 . S
C30 N28 1.346 1_545 S
C30 N31 1.304 1_545 S
C30 C32 1.487 . S
N31 N27 1.372 . S
N31 C30 1.304 1_565 S
C32 C30 1.487 . S
C32 H36 0.960 1_545 S
C32 H37 0.960 . S
C32 H38 0.959 . S
H33 C29 0.960 1_545 S
H34 C29 0.961 . S
H35 C29 0.960 . S
H36 C32 0.960 1_565 S
H37 C32 0.960 . S
H38 C32 0.959 . S
C39 N40 1.317 . S
C39 N41 1.348 . S
C39 C42 1.485 . S
N40 C39 1.317 . S
N40 N44 1.370 . S
N41 C39 1.348 . S
N41 C43 1.346 . S
C42 C39 1.485 . S
C42 H46 0.960 . S
C42 H47 0.961 . S
C42 H48 0.960 . S
C43 N41 1.346 . S
C43 N44 1.307 . S
C43 C45 1.486 . S
N44 N40 1.370 . S
N44 C43 1.307 . S
C45 C43 1.486 . S
C45 H49 0.960 . S
C45 H50 0.960 . S
C45 H51 0.959 . S
H46 C42 0.960 . S
H47 C42 0.961 . S
H48 C42 0.960 . S
H49 C45 0.960 . S
H50 C45 0.960 . S
H51 C45 0.959 . S
C52 N53 1.317 . S
C52 N54 1.348 1_556 S
C52 C55 1.485 . S
N53 C52 1.317 . S
N53 N57 1.370 1_556 S
N54 C52 1.348 1_554 S
N54 C56 1.346 . S
C55 C52 1.485 . S
C55 H59 0.960 . S
C55 H60 0.961 . S
C55 H61 0.960 . S
C56 N54 1.346 . S
C56 N57 1.307 . S
C56 C58 1.486 . S
N57 N53 1.370 1_554 S
N57 C56 1.307 . S
C58 C56 1.486 . S
C58 H62 0.960 . S
C58 H63 0.960 . S
C58 H64 0.959 . S
H59 C55 0.960 . S
H60 C55 0.961 . S
H61 C55 0.960 . S
H62 C58 0.960 . S
H63 C58 0.960 . S
H64 C58 0.959 . S
C65 N66 1.317 . S
C65 N67 1.358 . S
C65 C68 1.485 1_554 S
N66 C65 1.317 . S
N66 N70 1.371 . S
N67 C65 1.358 . S
N67 C69 1.342 1_655 S
C68 C65 1.485 1_556 S
C68 H72 0.960 1_655 S
C68 H73 0.961 1_556 S
C68 H74 0.960 . S
C69 N67 1.342 1_455 S
C69 N70 1.304 1_455 S
C69 C71 1.489 . S
N70 N66 1.371 . S
N70 C69 1.304 1_655 S
C71 C69 1.489 . S
C71 H75 0.960 1_455 S
C71 H76 0.960 . S
C71 H77 0.959 . S
H72 C68 0.960 1_455 S
H73 C68 0.961 1_554 S
H74 C68 0.960 . S
H75 C71 0.960 1_655 S
H76 C71 0.960 . S
H77 C71 0.959 . S
C78 N79 1.317 . S
C78 N80 1.348 . S
C78 C81 1.485 . S
N79 C78 1.317 . S
N79 N83 1.370 . S
N80 C78 1.348 . S
N80 C82 1.346 1_565 S
C81 C78 1.485 . S
C81 H85 0.960 1_565 S
C81 H86 0.961 . S
C81 H87 0.960 . S
C82 N80 1.346 1_545 S
C82 N83 1.309 1_545 S
C82 C84 1.485 . S
N83 N79 1.370 . S
N83 C82 1.309 1_565 S
C84 C82 1.485 . S
C84 H88 0.960 1_545 S
C84 H89 0.960 . S
C84 H90 0.959 . S
H85 C81 0.960 1_545 S
H86 C81 0.961 . S
H87 C81 0.960 . S
H88 C84 0.960 1_565 S
H89 C84 0.960 . S
H90 C84 0.959 . S
C91 N92 1.317 . S
C91 N93 1.348 . S
C91 C94 1.485 . S
N92 C91 1.317 . S
N92 N96 1.370 . S
N93 C91 1.348 . S
N93 C95 1.346 . S
C94 C91 1.485 . S
C94 H98 0.960 . S
C94 H99 0.961 . S
C94 H100 0.960 . S
C95 N93 1.346 . S
C95 N96 1.307 . S
C95 C97 1.486 . S
N96 N92 1.370 . S
N96 C95 1.307 . S
C97 C95 1.486 . S
C97 H101 0.960 . S
C97 H102 0.960 . S
C97 H103 0.959 . S
H98 C94 0.960 . S
H99 C94 0.961 . S
H100 C94 0.960 . S
H101 C97 0.960 . S
H102 C97 0.960 . S
H103 C97 0.959 . S
Dy104 O107 2.307 1_545 S
Dy104 O109 2.395 1_655 S
Dy104 O110 2.379 . S
Dy104 O112 2.339 . S
Dy104 O114 2.298 . S
Dy104 O118 2.275 1_655 S
Dy104 C126 2.738 . S
Dy105 O108 2.298 1_554 S
Dy105 O111 2.275 1_455 S
Dy105 O113 2.307 1_565 S
Dy105 O115 2.395 1_455 S
Dy105 O116 2.379 . S
Dy105 O119 2.339 1_554 S
Dy105 C135 2.738 . S
C106 O118 1.254 1_565 S
C106 O119 1.257 . S
O107 Dy104 2.307 1_565 S
O107 C117 1.266 . S
O108 Dy105 2.298 1_556 S
O108 C117 1.236 1_455 S
O109 Dy104 2.395 1_455 S
O109 C126 1.255 1_455 S
O110 Dy104 2.379 . S
O110 C126 1.249 . S
O111 Dy105 2.275 1_655 S
O111 C127 1.254 1_565 S
O112 Dy104 2.339 . S
O112 C127 1.257 1_556 S
O113 Dy105 2.307 1_545 S
O113 C128 1.266 . S
O114 Dy104 2.298 . S
O114 C128 1.236 1_656 S
O115 Dy105 2.395 1_655 S
O115 C135 1.255 1_655 S
O116 Dy105 2.379 . S
O116 C135 1.249 . S
C117 O107 1.266 . S
C117 O108 1.236 1_655 S
O118 Dy104 2.275 1_455 S
O118 C106 1.254 1_545 S
O119 Dy105 2.339 1_556 S
O119 C106 1.257 . S
C120 C123 1.344 1_655 S
C120 C124 1.328 . S
C120 C126 1.516 . S
C121 C122 1.304 1_655 S
C121 C125 1.323 . S
C122 C121 1.304 1_455 S
C122 C123 1.371 . S
C122 H136 0.930 . S
C123 C120 1.344 1_455 S
C123 C122 1.371 . S
C123 H137 0.931 . S
C124 C120 1.328 . S
C124 C125 1.433 . S
C124 H138 0.931 . S
C125 C121 1.323 . S
C125 C124 1.433 . S
C125 H139 0.933 . S
C126 Dy104 2.738 . S
C126 O109 1.255 1_655 S
C126 O110 1.249 . S
C126 C120 1.516 . S
C127 O111 1.254 1_545 S
C127 O112 1.257 1_554 S
C128 O113 1.266 . S
C128 O114 1.236 1_454 S
C129 C132 1.344 1_455 S
C129 C133 1.328 . S
C129 C135 1.516 . S
C130 C131 1.304 1_455 S
C130 C134 1.323 . S
C131 C130 1.304 1_655 S
C131 C132 1.371 . S
C131 H140 0.930 . S
C132 C129 1.344 1_655 S
C132 C131 1.371 . S
C132 H141 0.931 . S
C133 C129 1.328 . S
C133 C134 1.433 . S
C133 H142 0.931 . S
C134 C130 1.323 . S
C134 C133 1.433 . S
C134 H143 0.933 . S
C135 Dy105 2.738 . S
C135 O115 1.255 1_455 S
C135 O116 1.249 . S
C135 C129 1.516 . S
H136 C122 0.930 . S
H137 C123 0.931 . S
H138 C124 0.931 . S
H139 C125 0.933 . S
H140 C131 0.930 . S
H141 C132 0.931 . S
H142 C133 0.931 . S
H143 C134 0.933 . S
Dy144 O147 2.307 . S
Dy144 O149 2.395 1_565 S
Dy144 O150 2.379 . S
Dy144 O152 2.339 . S
Dy144 O154 2.298 . S
Dy144 O158 2.275 1_565 S
Dy144 C166 2.738 . S
Dy145 O148 2.298 1_554 S
Dy145 O151 2.275 1_545 S
Dy145 O153 2.307 . S
Dy145 O155 2.395 1_545 S
Dy145 O156 2.379 . S
Dy145 O159 2.339 1_554 S
Dy145 C175 2.738 . S
C146 O158 1.254 . S
C146 O159 1.257 . S
O147 Dy144 2.307 . S
O147 C157 1.266 . S
O148 Dy145 2.298 1_556 S
O148 C157 1.236 1_545 S
O149 Dy144 2.395 1_545 S
O149 C166 1.255 1_545 S
O150 Dy144 2.379 . S
O150 C166 1.249 . S
O151 Dy145 2.275 1_565 S
O151 C167 1.254 1_554 S
O152 Dy144 2.339 . S
O152 C167 1.257 . S
O153 Dy145 2.307 . S
O153 C168 1.266 . S
O154 Dy144 2.298 . S
O154 C168 1.236 1_566 S
O155 Dy145 2.395 1_565 S
O155 C175 1.255 1_565 S
O156 Dy145 2.379 . S
O156 C175 1.249 . S
C157 O147 1.266 . S
C157 O148 1.236 1_565 S
O158 Dy144 2.275 1_545 S
O158 C146 1.254 . S
O159 Dy145 2.339 1_556 S
O159 C146 1.257 . S
C160 C163 1.344 . S
C160 C164 1.328 . S
C160 C166 1.516 . S
C161 C162 1.304 . S
C161 C165 1.323 . S
C162 C161 1.304 . S
C162 C163 1.371 . S
C162 H176 0.930 1_565 S
C163 C160 1.344 . S
C163 C162 1.371 . S
C163 H177 0.931 1_565 S
C164 C160 1.328 . S
C164 C165 1.433 . S
C164 H178 0.931 . S
C165 C161 1.323 . S
C165 C164 1.433 . S
C165 H179 0.933 . S
C166 Dy144 2.738 . S
C166 O149 1.255 1_565 S
C166 O150 1.249 . S
C166 C160 1.516 . S
C167 O151 1.254 1_556 S
C167 O152 1.257 . S
C168 O153 1.266 . S
C168 O154 1.236 1_544 S
C169 C172 1.344 . S
C169 C173 1.328 . S
C169 C175 1.516 . S
C170 C171 1.304 . S
C170 C174 1.323 . S
C171 C170 1.304 . S
C171 C172 1.371 . S
C171 H180 0.930 1_545 S
C172 C169 1.344 . S
C172 C171 1.371 . S
C172 H181 0.931 1_545 S
C173 C169 1.328 . S
C173 C174 1.433 . S
C173 H182 0.931 . S
C174 C170 1.323 . S
C174 C173 1.433 . S
C174 H183 0.933 . S
C175 Dy145 2.738 . S
C175 O155 1.255 1_545 S
C175 O156 1.249 . S
C175 C169 1.516 . S
H176 C162 0.930 1_545 S
H177 C163 0.931 1_545 S
H178 C164 0.931 . S
H179 C165 0.933 . S
H180 C171 0.930 1_565 S
H181 C172 0.931 1_565 S
H182 C173 0.931 . S
H183 C174 0.933 . S
Dy184 O187 2.307 . S
Dy184 O189 2.395 1_556 S
Dy184 O190 2.379 . S
Dy184 O192 2.339 . S
Dy184 O194 2.298 1_556 S
Dy184 O198 2.275 1_556 S
Dy184 C206 2.738 1_556 S
Dy185 O188 2.298 . S
Dy185 O191 2.275 . S
Dy185 O193 2.307 1_556 S
Dy185 O195 2.395 . S
Dy185 O196 2.379 . S
Dy185 O199 2.339 1_556 S
Dy185 C215 2.738 . S
C186 O198 1.254 . S
C186 O199 1.257 . S
O187 Dy184 2.307 . S
O187 C197 1.266 . S
O188 Dy185 2.298 . S
O188 C197 1.236 . S
O189 Dy184 2.395 1_554 S
O189 C206 1.255 . S
O190 Dy184 2.379 . S
O190 C206 1.249 1_556 S
O191 Dy185 2.275 . S
O191 C207 1.254 . S
O192 Dy184 2.339 . S
O192 C207 1.257 . S
O193 Dy185 2.307 1_554 S
O193 C208 1.266 . S
O194 Dy184 2.298 1_554 S
O194 C208 1.236 . S
O195 Dy185 2.395 . S
O195 C215 1.255 . S
O196 Dy185 2.379 . S
O196 C215 1.249 . S
C197 O187 1.266 . S
C197 O188 1.236 . S
O198 Dy184 2.275 1_554 S
O198 C186 1.254 . S
O199 Dy185 2.339 1_554 S
O199 C186 1.257 . S
C200 C203 1.344 . S
C200 C204 1.328 . S
C200 C206 1.516 . S
C201 C202 1.304 . S
C201 C205 1.323 . S
C202 C201 1.304 . S
C202 C203 1.371 . S
C202 H216 0.930 . S
C203 C200 1.344 . S
C203 C202 1.371 . S
C203 H217 0.931 . S
C204 C200 1.328 . S
C204 C205 1.433 . S
C204 H218 0.931 . S
C205 C201 1.323 . S
C205 C204 1.433 . S
C205 H219 0.933 . S
C206 Dy184 2.738 1_554 S
C206 O189 1.255 . S
C206 O190 1.249 1_554 S
C206 C200 1.516 . S
C207 O191 1.254 . S
C207 O192 1.257 . S
C208 O193 1.266 . S
C208 O194 1.236 . S
C209 C212 1.344 . S
C209 C213 1.328 . S
C209 C215 1.516 . S
C210 C211 1.304 . S
C210 C214 1.323 . S
C211 C210 1.304 . S
C211 C212 1.371 . S
C211 H220 0.930 . S
C212 C209 1.344 . S
C212 C211 1.371 . S
C212 H221 0.931 . S
C213 C209 1.328 . S
C213 C214 1.433 . S
C213 H222 0.931 . S
C214 C210 1.323 . S
C214 C213 1.433 . S
C214 H223 0.933 . S
C215 Dy185 2.738 . S
C215 O195 1.255 . S
C215 O196 1.249 . S
C215 C209 1.516 . S
H216 C202 0.930 . S
H217 C203 0.931 . S
H218 C204 0.931 . S
H219 C205 0.933 . S
H220 C211 0.930 . S
H221 C212 0.931 . S
H222 C213 0.931 . S
H223 C214 0.933 . S
Dy224 O227 2.307 1_455 S
Dy224 O229 2.395 . S
Dy224 O230 2.379 . S
Dy224 O232 2.339 . S
Dy224 O234 2.298 . S
Dy224 O238 2.275 . S
Dy224 C246 2.738 . S
Dy225 O228 2.298 1_554 S
Dy225 O231 2.275 . S
Dy225 O233 2.307 1_655 S
Dy225 O235 2.395 . S
Dy225 O236 2.379 . S
Dy225 O239 2.339 1_554 S
Dy225 C255 2.738 . S
C226 O238 1.254 1_655 S
C226 O239 1.257 . S
O227 Dy224 2.307 1_655 S
O227 C237 1.266 . S
O228 Dy225 2.298 1_556 S
O228 C237 1.236 . S
O229 Dy224 2.395 . S
O229 C246 1.255 . S
O230 Dy224 2.379 . S
O230 C246 1.249 . S
O231 Dy225 2.275 . S
O231 C247 1.254 1_655 S
O232 Dy224 2.339 . S
O232 C247 1.257 1_556 S
O233 Dy225 2.307 1_455 S
O233 C248 1.266 1_554 S
O234 Dy224 2.298 . S
O234 C248 1.236 . S
O235 Dy225 2.395 . S
O235 C255 1.255 . S
O236 Dy225 2.379 . S
O236 C255 1.249 . S
C237 O227 1.266 . S
C237 O228 1.236 . S
O238 Dy224 2.275 . S
O238 C226 1.254 1_455 S
O239 Dy225 2.339 1_556 S
O239 C226 1.257 . S
C240 C243 1.344 . S
C240 C244 1.328 . S
C240 C246 1.516 . S
C241 C242 1.304 . S
C241 C245 1.323 . S
C242 C241 1.304 . S
C242 C243 1.371 . S
C242 H256 0.930 . S
C243 C240 1.344 . S
C243 C242 1.371 . S
C243 H257 0.931 . S
C244 C240 1.328 . S
C244 C245 1.433 . S
C244 H258 0.931 . S
C245 C241 1.323 . S
C245 C244 1.433 . S
C245 H259 0.933 . S
C246 Dy224 2.738 . S
C246 O229 1.255 . S
C246 O230 1.249 . S
C246 C240 1.516 . S
C247 O231 1.254 1_455 S
C247 O232 1.257 1_554 S
C248 O233 1.266 1_556 S
C248 O234 1.236 . S
C249 C252 1.344 . S
C249 C253 1.328 . S
C249 C255 1.516 . S
C250 C251 1.304 . S
C250 C254 1.323 . S
C251 C250 1.304 . S
C251 C252 1.371 . S
C251 H260 0.930 . S
C252 C249 1.344 . S
C252 C251 1.371 . S
C252 H261 0.931 . S
C253 C249 1.328 . S
C253 C254 1.433 . S
C253 H262 0.931 . S
C254 C250 1.323 . S
C254 C253 1.433 . S
C254 H263 0.933 . S
C255 Dy225 2.738 . S
C255 O235 1.255 . S
C255 O236 1.249 . S
C255 C249 1.516 . S
H256 C242 0.930 . S
H257 C243 0.931 . S
H258 C244 0.931 . S
H259 C245 0.933 . S
H260 C251 0.930 . S
H261 C252 0.931 . S
H262 C253 0.931 . S
H263 C254 0.933 . S
C264 C265 1.351 1_565 S
C264 C266 1.419 . S
C264 H268 0.930 . S
C265 C264 1.351 1_545 S
C265 C274 1.445 . S
C266 C264 1.419 . S
C266 C267 1.346 1_565 S
C266 H269 0.929 . S
C267 C266 1.346 1_545 S
C267 C273 1.450 . S
H268 C264 0.930 . S
H269 C266 0.929 . S
S270 N271 1.613 . S
S270 N272 1.610 . S
N271 S270 1.613 . S
N271 C274 1.350 . S
N272 S270 1.610 . S
N272 C273 1.351 . S
C273 C267 1.450 . S
C273 N272 1.351 . S
C273 C274 1.434 . S
C274 C265 1.445 . S
C274 N271 1.350 . S
C274 C273 1.434 . S
C275 C276 1.369 . S
C275 C277 1.419 . S
C275 H279 0.930 . S
C276 C275 1.369 . S
C276 C285 1.429 . S
C277 C275 1.419 . S
C277 C278 1.363 . S
C277 H280 0.929 . S
C278 C277 1.363 . S
C278 C284 1.428 . S
H279 C275 0.930 . S
H280 C277 0.929 . S
S281 N282 1.613 . S
S281 N283 1.610 . S
N282 S281 1.613 . S
N282 C285 1.350 . S
N283 S281 1.610 . S
N283 C284 1.351 . S
C284 C278 1.428 . S
C284 N283 1.351 . S
C284 C285 1.434 . S
C285 C276 1.429 . S
C285 N282 1.350 . S
C285 C284 1.434 . S
C286 C287 1.369 . S
C286 C288 1.419 . S
C286 H290 0.930 . S
C287 C286 1.369 . S
C287 C296 1.429 . S
C288 C286 1.419 . S
C288 C289 1.363 . S
C288 H291 0.929 . S
C289 C288 1.363 . S
C289 C295 1.428 . S
H290 C286 0.930 . S
H291 C288 0.929 . S
S292 N293 1.613 . S
S292 N294 1.610 . S
N293 S292 1.613 . S
N293 C296 1.350 . S
N294 S292 1.610 . S
N294 C295 1.351 . S
C295 C289 1.428 . S
C295 N294 1.351 . S
C295 C296 1.434 . S
C296 C287 1.429 . S
C296 N293 1.350 . S
C296 C295 1.434 . S
C297 C298 1.369 1_655 S
C297 C299 1.419 . S
C297 H301 0.930 . S
C298 C297 1.369 1_455 S
C298 C307 1.429 . S
C299 C297 1.419 . S
C299 C300 1.363 1_655 S
C299 H302 0.929 . S
C300 C299 1.363 1_455 S
C300 C306 1.428 . S
H301 C297 0.930 . S
H302 C299 0.929 . S
S303 N304 1.613 . S
S303 N305 1.610 . S
N304 S303 1.613 . S
N304 C307 1.350 . S
N305 S303 1.610 . S
N305 C306 1.351 . S
C306 C300 1.428 . S
C306 N305 1.351 . S
C306 C307 1.434 . S
C307 C298 1.429 . S
C307 N304 1.350 . S
C307 C306 1.434 . S
C308 C309 1.362 1_565 S
C308 C310 1.419 . S
C308 H312 0.930 . S
C309 C308 1.362 1_545 S
C309 C318 1.437 . S
C310 C308 1.419 . S
C310 C311 1.363 1_565 S
C310 H313 0.929 . S
C311 C310 1.363 1_545 S
C311 C317 1.429 . S
H312 C308 0.930 . S
H313 C310 0.929 . S
S314 N315 1.613 . S
S314 N316 1.610 . S
N315 S314 1.613 . S
N315 C318 1.350 . S
N316 S314 1.610 . S
N316 C317 1.351 . S
C317 C311 1.429 . S
C317 N316 1.351 . S
C317 C318 1.434 . S
C318 C309 1.437 . S
C318 N315 1.350 . S
C318 C317 1.434 . S
C319 C320 1.369 . S
C319 C321 1.419 . S
C319 H323 0.930 . S
C320 C319 1.369 . S
C320 C329 1.429 . S
C321 C319 1.419 . S
C321 C322 1.363 . S
C321 H324 0.929 . S
C322 C321 1.363 . S
C322 C328 1.428 . S
H323 C319 0.930 . S
H324 C321 0.929 . S
S325 N326 1.613 1_556 S
S325 N327 1.610 . S
N326 S325 1.613 1_554 S
N326 C329 1.350 . S
N327 S325 1.610 . S
N327 C328 1.351 1_556 S
C328 C322 1.428 . S
C328 N327 1.351 1_554 S
C328 C329 1.434 . S
C329 C320 1.429 . S
C329 N326 1.350 . S
C329 C328 1.434 . S
C330 C331 1.369 . S
C330 C332 1.419 . S
C330 H334 0.930 . S
C331 C330 1.369 . S
C331 C340 1.429 . S
C332 C330 1.419 . S
C332 C333 1.363 . S
C332 H335 0.929 . S
C333 C332 1.363 . S
C333 C339 1.428 . S
H334 C330 0.930 . S
H335 C332 0.929 . S
S336 N337 1.613 . S
S336 N338 1.610 . S
N337 S336 1.613 . S
N337 C340 1.350 . S
N338 S336 1.610 . S
N338 C339 1.351 . S
C339 C333 1.428 . S
C339 N338 1.351 . S
C339 C340 1.434 . S
C340 C331 1.429 . S
C340 N337 1.350 . S
C340 C339 1.434 . S
C341 C342 1.369 . S
C341 C343 1.419 . S
C341 H345 0.930 . S
C342 C341 1.369 . S
C342 C351 1.429 1_655 S
C343 C341 1.419 . S
C343 C344 1.363 . S
C343 H346 0.929 . S
C344 C343 1.363 . S
C344 C350 1.428 1_655 S
H345 C341 0.930 . S
H346 C343 0.929 . S
S347 N348 1.613 . S
S347 N349 1.610 . S
N348 S347 1.613 . S
N348 C351 1.350 . S
N349 S347 1.610 . S
N349 C350 1.351 . S
C350 C344 1.428 1_455 S
C350 N349 1.351 . S
C350 C351 1.434 . S
C351 C342 1.429 1_455 S
C351 N348 1.350 . S
C351 C350 1.434 . S
C352 C353 1.372 . S
C352 C354 1.413 1_455 S
C352 H356 0.933 . S
C353 C352 1.372 . S
C353 C362 1.429 1_455 S
C354 C352 1.413 1_655 S
C354 C355 1.363 . S
C354 H357 0.929 . S
C355 C354 1.363 . S
C355 C361 1.428 . S
H356 C352 0.933 . S
H357 C354 0.929 . S
S358 N359 1.613 . S
S358 N360 1.610 . S
N359 S358 1.613 . S
N359 C362 1.350 . S
N360 S358 1.610 . S
N360 C361 1.351 . S
C361 C355 1.428 . S
C361 N360 1.351 . S
C361 C362 1.434 . S
C362 C353 1.429 1_655 S
C362 N359 1.350 . S
C362 C361 1.434 . S
C363 C364 1.369 1_545 S
C363 C365 1.419 1_545 S
C363 H367 0.930 . S
C364 C363 1.369 1_565 S
C364 C373 1.429 . S
C365 C363 1.419 1_565 S
C365 C366 1.363 . S
C365 H368 0.929 1_565 S
C366 C365 1.363 . S
C366 C372 1.428 . S
H367 C363 0.930 . S
H368 C365 0.929 1_545 S
S369 N370 1.613 . S
S369 N371 1.610 . S
N370 S369 1.613 . S
N370 C373 1.350 . S
N371 S369 1.610 . S
N371 C372 1.351 . S
C372 C366 1.428 . S
C372 N371 1.351 . S
C372 C373 1.434 . S
C373 C364 1.429 . S
C373 N370 1.350 . S
C373 C372 1.434 . S
C374 C375 1.369 . S
C374 C376 1.419 . S
C374 H378 0.930 . S
C375 C374 1.369 . S
C375 C384 1.429 . S
C376 C374 1.419 . S
C376 C377 1.363 . S
C376 H379 0.929 . S
C377 C376 1.363 . S
C377 C383 1.428 . S
H378 C374 0.930 . S
H379 C376 0.929 . S
S380 N381 1.613 . S
S380 N382 1.610 . S
N381 S380 1.613 . S
N381 C384 1.350 . S
N382 S380 1.610 . S
N382 C383 1.351 . S
C383 C377 1.428 . S
C383 N382 1.351 . S
C383 C384 1.434 . S
C384 C375 1.429 . S
C384 N381 1.350 . S
C384 C383 1.434 . S
C385 C386 1.369 . S
C385 C387 1.419 . S
C385 H389 0.930 . S
C386 C385 1.369 . S
C386 C395 1.429 . S
C387 C385 1.419 . S
C387 C388 1.363 . S
C387 H390 0.929 . S
C388 C387 1.363 . S
C388 C394 1.428 . S
H389 C385 0.930 . S
H390 C387 0.929 . S
S391 N392 1.613 . S
S391 N393 1.610 . S
N392 S391 1.613 . S
N392 C395 1.350 . S
N393 S391 1.610 . S
N393 C394 1.351 . S
C394 C388 1.428 . S
C394 N393 1.351 . S
C394 C395 1.434 . S
C395 C386 1.429 . S
C395 N392 1.350 . S
C395 C394 1.434 . S
C396 C397 1.369 . S
C396 C398 1.411 1_655 S
C396 H400 0.930 . S
C397 C396 1.369 . S
C397 C406 1.429 1_655 S
C398 C396 1.411 1_455 S
C398 C399 1.377 . S
C398 H401 0.923 1_455 S
C399 C398 1.377 . S
C399 C405 1.428 . S
H400 C396 0.930 . S
H401 C398 0.923 1_655 S
S402 N403 1.613 . S
S402 N404 1.610 . S
N403 S402 1.613 . S
N403 C406 1.350 . S
N404 S402 1.610 . S
N404 C405 1.351 . S
C405 C399 1.428 . S
C405 N404 1.351 . S
C405 C406 1.434 . S
C406 C397 1.429 1_455 S
C406 N403 1.350 . S
C406 C405 1.434 . S
C407 C408 1.369 . S
C407 C409 1.419 . S
C407 H411 0.929 1_545 S
C408 C407 1.369 . S
C408 C417 1.429 . S
C409 C407 1.419 . S
C409 C410 1.363 . S
C409 H412 0.929 . S
C410 C409 1.363 . S
C410 C416 1.428 . S
H411 C407 0.929 1_565 S
H412 C409 0.929 . S
S413 N414 1.613 . S
S413 N415 1.610 . S
N414 S413 1.613 . S
N414 C417 1.350 . S
N415 S413 1.610 . S
N415 C416 1.351 . S
C416 C410 1.428 . S
C416 N415 1.351 . S
C416 C417 1.434 . S
C417 C408 1.429 . S
C417 N414 1.350 . S
C417 C416 1.434 . S
C418 C419 1.369 . S
C418 C420 1.419 . S
C418 H422 0.930 . S
C419 C418 1.369 . S
C419 C428 1.429 . S
C420 C418 1.419 . S
C420 C421 1.363 . S
C420 H423 0.929 . S
C421 C420 1.363 . S
C421 C427 1.428 . S
H422 C418 0.930 . S
H423 C420 0.929 . S
S424 N425 1.613 1_556 S
S424 N426 1.610 . S
N425 S424 1.613 1_554 S
N425 C428 1.350 . S
N426 S424 1.610 . S
N426 C427 1.351 1_556 S
C427 C421 1.428 . S
C427 N426 1.351 1_554 S
C427 C428 1.434 . S
C428 C419 1.429 . S
C428 N425 1.350 . S
C428 C427 1.434 . S
C429 C430 1.369 . S
C429 C431 1.419 . S
C429 H433 0.930 . S
C430 C429 1.369 . S
C430 C439 1.429 . S
C431 C429 1.419 . S
C431 C432 1.363 . S
C431 H434 0.929 . S
C432 C431 1.363 . S
C432 C438 1.428 . S
H433 C429 0.930 . S
H434 C431 0.929 . S
S435 N436 1.613 . S
S435 N437 1.610 . S
N436 S435 1.613 . S
N436 C439 1.350 . S
N437 S435 1.610 . S
N437 C438 1.351 . S
C438 C432 1.428 . S
C438 N437 1.351 . S
C438 C439 1.434 . S
C439 C430 1.429 . S
C439 N436 1.350 . S
C439 C438 1.434 . S
C440 C441 1.369 1_655 S
C440 C442 1.419 . S
C440 H444 0.930 . S
C441 C440 1.369 1_455 S
C441 C450 1.429 1_554 S
C442 C440 1.419 . S
C442 C443 1.363 1_655 S
C442 H445 0.929 . S
C443 C442 1.363 1_455 S
C443 C449 1.428 1_554 S
H444 C440 0.930 . S
H445 C442 0.929 . S
S446 N447 1.613 . S
S446 N448 1.610 . S
N447 S446 1.613 . S
N447 C450 1.350 . S
N448 S446 1.610 . S
N448 C449 1.351 . S
C449 C443 1.428 1_556 S
C449 N448 1.351 . S
C449 C450 1.434 . S
C450 C441 1.429 1_556 S
C450 N447 1.350 . S
C450 C449 1.434 . S
C451 C452 1.369 . S
C451 C453 1.419 . S
C451 H455 0.930 . S
C452 C451 1.369 . S
C452 C461 1.429 1_545 S
C453 C451 1.419 . S
C453 C454 1.363 . S
C453 H456 0.929 . S
C454 C453 1.363 . S
C454 C460 1.430 1_554 S
H455 C451 0.930 . S
H456 C453 0.929 . S
S457 N458 1.613 . S
S457 N459 1.610 . S
N458 S457 1.613 . S
N458 C461 1.350 1_556 S
N459 S457 1.610 . S
N459 C460 1.350 1_565 S
C460 C454 1.430 1_556 S
C460 N459 1.350 1_545 S
C460 C461 1.433 1_546 S
C461 C452 1.429 1_565 S
C461 N458 1.350 1_554 S
C461 C460 1.433 1_564 S
C462 C463 1.369 . S
C462 C464 1.419 . S
C462 H466 0.930 . S
C463 C462 1.369 . S
C463 C472 1.429 . S
C464 C462 1.419 . S
C464 C465 1.363 . S
C464 H467 0.929 . S
C465 C464 1.363 . S
C465 C471 1.428 . S
H466 C462 0.930 . S
H467 C464 0.929 . S
S468 N469 1.613 . S
S468 N470 1.610 . S
N469 S468 1.613 . S
N469 C472 1.350 . S
N470 S468 1.610 . S
N470 C471 1.351 . S
C471 C465 1.428 . S
C471 N470 1.351 . S
C471 C472 1.434 . S
C472 C463 1.429 . S
C472 N469 1.350 . S
C472 C471 1.434 . S
C473 C474 1.369 . S
C473 C475 1.419 . S
C473 H477 0.930 . S
C474 C473 1.369 . S
C474 C483 1.429 1_556 S
C475 C473 1.419 . S
C475 C476 1.363 . S
C475 H478 0.929 . S
C476 C475 1.363 . S
C476 C482 1.428 1_556 S
H477 C473 0.930 . S
H478 C475 0.929 . S
S479 N480 1.613 . S
S479 N481 1.610 . S
N480 S479 1.613 . S
N480 C483 1.350 . S
N481 S479 1.610 . S
N481 C482 1.351 . S
C482 C476 1.428 1_554 S
C482 N481 1.351 . S
C482 C483 1.434 . S
C483 C474 1.429 1_554 S
C483 N480 1.350 . S
C483 C482 1.434 . S
C484 C485 1.369 . S
C484 C486 1.419 . S
C484 H488 0.930 . S
C485 C484 1.369 . S
C485 C494 1.429 1_655 S
C486 C484 1.419 . S
C486 C487 1.363 . S
C486 H489 0.929 . S
C487 C486 1.363 . S
C487 C493 1.428 1_655 S
H488 C484 0.930 . S
H489 C486 0.929 . S
S490 N491 1.613 1_554 S
S490 N492 1.610 1_554 S
N491 S490 1.613 1_556 S
N491 C494 1.350 . S
N492 S490 1.610 1_556 S
N492 C493 1.351 . S
C493 C487 1.428 1_455 S
C493 N492 1.351 . S
C493 C494 1.434 . S
C494 C485 1.429 1_455 S
C494 N491 1.350 . S
C494 C493 1.434 . S
C495 C496 1.369 1_545 S
C495 C497 1.419 . S
C495 H499 0.930 . S
C496 C495 1.369 1_565 S
C496 C505 1.429 . S
C497 C495 1.419 . S
C497 C498 1.363 1_545 S
C497 H500 0.929 . S
C498 C497 1.363 1_565 S
C498 C504 1.428 . S
H499 C495 0.930 . S
H500 C497 0.929 . S
S501 N502 1.613 . S
S501 N503 1.610 . S
N502 S501 1.613 . S
N502 C505 1.350 . S
N503 S501 1.610 . S
N503 C504 1.351 . S
C504 C498 1.428 . S
C504 N503 1.351 . S
C504 C505 1.434 . S
C505 C496 1.429 . S
C505 N502 1.350 . S
C505 C504 1.434 . S
C506 C507 1.369 . S
C506 C508 1.419 . S
C506 H510 0.930 . S
C507 C506 1.369 . S
C507 C516 1.429 . S
C508 C506 1.419 . S
C508 C509 1.363 . S
C508 H511 0.929 . S
C509 C508 1.363 . S
C509 C515 1.428 . S
H510 C506 0.930 . S
H511 C508 0.929 . S
S512 N513 1.613 . S
S512 N514 1.610 . S
N513 S512 1.613 . S
N513 C516 1.350 . S
N514 S512 1.610 . S
N514 C515 1.351 . S
C515 C509 1.428 . S
C515 N514 1.351 . S
C515 C516 1.434 . S
C516 C507 1.429 . S
C516 N513 1.350 . S
C516 C515 1.434 . S
C517 C518 1.369 1_554 S
C517 C519 1.419 1_554 S
C517 H521 0.930 . S
C518 C517 1.369 1_556 S
C518 C527 1.429 . S
C519 C517 1.419 1_556 S
C519 C520 1.363 . S
C519 H522 0.929 1_556 S
C520 C519 1.363 . S
C520 C526 1.428 . S
H521 C517 0.930 . S
H522 C519 0.929 1_554 S
S523 N524 1.613 . S
S523 N525 1.610 . S
N524 S523 1.613 . S
N524 C527 1.350 . S
N525 S523 1.610 . S
N525 C526 1.351 . S
C526 C520 1.428 . S
C526 N525 1.351 . S
C526 C527 1.434 . S
C527 C518 1.429 . S
C527 N524 1.350 . S
C527 C526 1.434 . S
C265 N80 2.198 1_545 S
C267 C106 2.245 1_545 S
C278 C146 2.097 . S
C276 N93 2.063 . S
C289 C210 1.958 . S
C287 N54 1.874 . S
C300 C226 1.878 1_455 S
C298 N67 1.657 1_455 S
C311 C127 2.251 . S
C309 N28 2.197 1_545 S
C320 N41 2.068 . S
C322 C167 2.099 1_554 S
C331 N2 1.891 . S
C333 C201 1.952 . S
C342 N15 1.661 . S
C344 C247 1.876 1_655 S
C355 C121 0.638 . S
C353 N70 0.611 1_455 S
C366 C161 0.922 . S
C364 N83 0.943 . S
C377 C197 1.054 . S
C375 N96 1.098 . S
C386 N57 0.881 . S
C388 C241 0.847 . S
C397 N18 0.603 . S
C399 C130 0.651 . S
C410 C170 0.916 . S
C408 N31 0.949 1_545 S
C421 C208 1.052 . S
C419 N44 1.102 . S
C430 N5 0.896 . S
C432 C250 0.853 . S
C441 N66 1.989 1_455 S
C443 C128 2.115 . S
C452 N79 2.204 1_545 S
C454 C168 2.276 . S
C465 C186 1.820 . S
C463 N92 1.861 . S
C476 C248 2.557 . S
C474 N53 2.411 . S
C485 N14 1.984 . S
C487 C117 2.122 . S
C498 C157 2.279 . S
C496 N27 2.187 . S
C509 C207 1.823 . S
C507 N40 1.865 . S
C518 N1 2.418 . S
C520 C237 2.562 . S
