# Generated by pormake.
# Topology llk, (3,12)-cn, num edge types: 1
# Building blocks:
#     Node 0, Type 0, BuildingBlock: MIDCAF_clean_linker_0, # of connection points: 3
#     Node 1, Type 0, BuildingBlock: MIDCAF_clean_linker_0, # of connection points: 3
#     Node 2, Type 0, BuildingBlock: MIDCAF_clean_linker_0, # of connection points: 3
#     Node 3, Type 0, BuildingBlock: MIDCAF_clean_linker_0, # of connection points: 3
#     Node 4, Type 0, BuildingBlock: MIDCAF_clean_linker_0, # of connection points: 3
#     Node 5, Type 0, BuildingBlock: MIDCAF_clean_linker_0, # of connection points: 3
#     Node 6, Type 0, BuildingBlock: MIDCAF_clean_linker_0, # of connection points: 3
#     Node 7, Type 0, BuildingBlock: MIDCAF_clean_linker_0, # of connection points: 3
#     Node 8, Type 0, BuildingBlock: MIDCAF_clean_linker_0, # of connection points: 3
#     Node 9, Type 0, BuildingBlock: MIDCAF_clean_linker_0, # of connection points: 3
#     Node 10, Type 0, BuildingBlock: MIDCAF_clean_linker_0, # of connection points: 3
#     Node 11, Type 0, BuildingBlock: MIDCAF_clean_linker_0, # of connection points: 3
#     Node 12, Type 0, BuildingBlock: MIDCAF_clean_linker_0, # of connection points: 3
#     Node 13, Type 0, BuildingBlock: MIDCAF_clean_linker_0, # of connection points: 3
#     Node 14, Type 0, BuildingBlock: MIDCAF_clean_linker_0, # of connection points: 3
#     Node 15, Type 0, BuildingBlock: MIDCAF_clean_linker_0, # of connection points: 3
#     Node 16, Type 0, BuildingBlock: MIDCAF_clean_linker_0, # of connection points: 3
#     Node 17, Type 0, BuildingBlock: MIDCAF_clean_linker_0, # of connection points: 3
#     Node 18, Type 0, BuildingBlock: MIDCAF_clean_linker_0, # of connection points: 3
#     Node 19, Type 0, BuildingBlock: MIDCAF_clean_linker_0, # of connection points: 3
#     Node 20, Type 0, BuildingBlock: MIDCAF_clean_linker_0, # of connection points: 3
#     Node 21, Type 0, BuildingBlock: MIDCAF_clean_linker_0, # of connection points: 3
#     Node 22, Type 0, BuildingBlock: MIDCAF_clean_linker_0, # of connection points: 3
#     Node 23, Type 0, BuildingBlock: MIDCAF_clean_linker_0, # of connection points: 3
#     Node 24, Type 1, BuildingBlock: QEWDON_clean_sbu_0, # of connection points: 12
#     Node 25, Type 1, BuildingBlock: QEWDON_clean_sbu_0, # of connection points: 12
#     Node 26, Type 1, BuildingBlock: QEWDON_clean_sbu_0, # of connection points: 12
#     Node 27, Type 1, BuildingBlock: QEWDON_clean_sbu_0, # of connection points: 12
#     Node 28, Type 1, BuildingBlock: QEWDON_clean_sbu_0, # of connection points: 12
#     Node 29, Type 1, BuildingBlock: QEWDON_clean_sbu_0, # of connection points: 12
#     Edge 30, Type (0, 1), BuildingBlock: MIFKUJ_clean_linker_0, # of connection points: 2
#     Edge 31, Type (0, 1), BuildingBlock: MIFKUJ_clean_linker_0, # of connection points: 2
#     Edge 32, Type (0, 1), BuildingBlock: MIFKUJ_clean_linker_0, # of connection points: 2
#     Edge 33, Type (0, 1), BuildingBlock: MIFKUJ_clean_linker_0, # of connection points: 2
#     Edge 34, Type (0, 1), BuildingBlock: MIFKUJ_clean_linker_0, # of connection points: 2
#     Edge 35, Type (0, 1), BuildingBlock: MIFKUJ_clean_linker_0, # of connection points: 2
#     Edge 36, Type (0, 1), BuildingBlock: MIFKUJ_clean_linker_0, # of connection points: 2
#     Edge 37, Type (0, 1), BuildingBlock: MIFKUJ_clean_linker_0, # of connection points: 2
#     Edge 38, Type (0, 1), BuildingBlock: MIFKUJ_clean_linker_0, # of connection points: 2
#     Edge 39, Type (0, 1), BuildingBlock: MIFKUJ_clean_linker_0, # of connection points: 2
#     Edge 40, Type (0, 1), BuildingBlock: MIFKUJ_clean_linker_0, # of connection points: 2
#     Edge 41, Type (0, 1), BuildingBlock: MIFKUJ_clean_linker_0, # of connection points: 2
#     Edge 42, Type (0, 1), BuildingBlock: MIFKUJ_clean_linker_0, # of connection points: 2
#     Edge 43, Type (0, 1), BuildingBlock: MIFKUJ_clean_linker_0, # of connection points: 2
#     Edge 44, Type (0, 1), BuildingBlock: MIFKUJ_clean_linker_0, # of connection points: 2
#     Edge 45, Type (0, 1), BuildingBlock: MIFKUJ_clean_linker_0, # of connection points: 2
#     Edge 46, Type (0, 1), BuildingBlock: MIFKUJ_clean_linker_0, # of connection points: 2
#     Edge 47, Type (0, 1), BuildingBlock: MIFKUJ_clean_linker_0, # of connection points: 2
#     Edge 48, Type (0, 1), BuildingBlock: MIFKUJ_clean_linker_0, # of connection points: 2
#     Edge 49, Type (0, 1), BuildingBlock: MIFKUJ_clean_linker_0, # of connection points: 2
#     Edge 50, Type (0, 1), BuildingBlock: MIFKUJ_clean_linker_0, # of connection points: 2
#     Edge 51, Type (0, 1), BuildingBlock: MIFKUJ_clean_linker_0, # of connection points: 2
#     Edge 52, Type (0, 1), BuildingBlock: MIFKUJ_clean_linker_0, # of connection points: 2
#     Edge 53, Type (0, 1), BuildingBlock: MIFKUJ_clean_linker_0, # of connection points: 2
#     Edge 54, Type (0, 1), BuildingBlock: MIFKUJ_clean_linker_0, # of connection points: 2
#     Edge 55, Type (0, 1), BuildingBlock: MIFKUJ_clean_linker_0, # of connection points: 2
#     Edge 56, Type (0, 1), BuildingBlock: MIFKUJ_clean_linker_0, # of connection points: 2
#     Edge 57, Type (0, 1), BuildingBlock: MIFKUJ_clean_linker_0, # of connection points: 2
#     Edge 58, Type (0, 1), BuildingBlock: MIFKUJ_clean_linker_0, # of connection points: 2
#     Edge 59, Type (0, 1), BuildingBlock: MIFKUJ_clean_linker_0, # of connection points: 2
#     Edge 60, Type (0, 1), BuildingBlock: MIFKUJ_clean_linker_0, # of connection points: 2
#     Edge 61, Type (0, 1), BuildingBlock: MIFKUJ_clean_linker_0, # of connection points: 2
#     Edge 62, Type (0, 1), BuildingBlock: MIFKUJ_clean_linker_0, # of connection points: 2
#     Edge 63, Type (0, 1), BuildingBlock: MIFKUJ_clean_linker_0, # of connection points: 2
#     Edge 64, Type (0, 1), BuildingBlock: MIFKUJ_clean_linker_0, # of connection points: 2
#     Edge 65, Type (0, 1), BuildingBlock: MIFKUJ_clean_linker_0, # of connection points: 2
#     Edge 66, Type (0, 1), BuildingBlock: MIFKUJ_clean_linker_0, # of connection points: 2
#     Edge 67, Type (0, 1), BuildingBlock: MIFKUJ_clean_linker_0, # of connection points: 2
#     Edge 68, Type (0, 1), BuildingBlock: MIFKUJ_clean_linker_0, # of connection points: 2
#     Edge 69, Type (0, 1), BuildingBlock: MIFKUJ_clean_linker_0, # of connection points: 2
#     Edge 70, Type (0, 1), BuildingBlock: MIFKUJ_clean_linker_0, # of connection points: 2
#     Edge 71, Type (0, 1), BuildingBlock: MIFKUJ_clean_linker_0, # of connection points: 2
#     Edge 72, Type (0, 1), BuildingBlock: MIFKUJ_clean_linker_0, # of connection points: 2
#     Edge 73, Type (0, 1), BuildingBlock: MIFKUJ_clean_linker_0, # of connection points: 2
#     Edge 74, Type (0, 1), BuildingBlock: MIFKUJ_clean_linker_0, # of connection points: 2
#     Edge 75, Type (0, 1), BuildingBlock: MIFKUJ_clean_linker_0, # of connection points: 2
#     Edge 76, Type (0, 1), BuildingBlock: MIFKUJ_clean_linker_0, # of connection points: 2
#     Edge 77, Type (0, 1), BuildingBlock: MIFKUJ_clean_linker_0, # of connection points: 2
#     Edge 78, Type (0, 1), BuildingBlock: MIFKUJ_clean_linker_0, # of connection points: 2
#     Edge 79, Type (0, 1), BuildingBlock: MIFKUJ_clean_linker_0, # of connection points: 2
#     Edge 80, Type (0, 1), BuildingBlock: MIFKUJ_clean_linker_0, # of connection points: 2
#     Edge 81, Type (0, 1), BuildingBlock: MIFKUJ_clean_linker_0, # of connection points: 2
#     Edge 82, Type (0, 1), BuildingBlock: MIFKUJ_clean_linker_0, # of connection points: 2
#     Edge 83, Type (0, 1), BuildingBlock: MIFKUJ_clean_linker_0, # of connection points: 2
#     Edge 84, Type (0, 1), BuildingBlock: MIFKUJ_clean_linker_0, # of connection points: 2
#     Edge 85, Type (0, 1), BuildingBlock: MIFKUJ_clean_linker_0, # of connection points: 2
#     Edge 86, Type (0, 1), BuildingBlock: MIFKUJ_clean_linker_0, # of connection points: 2
#     Edge 87, Type (0, 1), BuildingBlock: MIFKUJ_clean_linker_0, # of connection points: 2
#     Edge 88, Type (0, 1), BuildingBlock: MIFKUJ_clean_linker_0, # of connection points: 2
#     Edge 89, Type (0, 1), BuildingBlock: MIFKUJ_clean_linker_0, # of connection points: 2
#     Edge 90, Type (0, 1), BuildingBlock: MIFKUJ_clean_linker_0, # of connection points: 2
#     Edge 91, Type (0, 1), BuildingBlock: MIFKUJ_clean_linker_0, # of connection points: 2
#     Edge 92, Type (0, 1), BuildingBlock: MIFKUJ_clean_linker_0, # of connection points: 2
#     Edge 93, Type (0, 1), BuildingBlock: MIFKUJ_clean_linker_0, # of connection points: 2
#     Edge 94, Type (0, 1), BuildingBlock: MIFKUJ_clean_linker_0, # of connection points: 2
#     Edge 95, Type (0, 1), BuildingBlock: MIFKUJ_clean_linker_0, # of connection points: 2
#     Edge 96, Type (0, 1), BuildingBlock: MIFKUJ_clean_linker_0, # of connection points: 2
#     Edge 97, Type (0, 1), BuildingBlock: MIFKUJ_clean_linker_0, # of connection points: 2
#     Edge 98, Type (0, 1), BuildingBlock: MIFKUJ_clean_linker_0, # of connection points: 2
#     Edge 99, Type (0, 1), BuildingBlock: MIFKUJ_clean_linker_0, # of connection points: 2
#     Edge 100, Type (0, 1), BuildingBlock: MIFKUJ_clean_linker_0, # of connection points: 2
#     Edge 101, Type (0, 1), BuildingBlock: MIFKUJ_clean_linker_0, # of connection points: 2
# Relax obj value: 0.128
# Max RMSD: 0.164
# Mean RMSD: 0.148
data_MOF--net-llk--node1-QEWDON_clean_sbu_0--node2-MIDCAF_clean_linker_0--edge1-MIFKUJ_clean_linker_0
_symmetry_space_group_name_H-M    P1
_symmetry_Int_Tables_number       1
_symmetry_cell_setting            triclinic
loop_
_symmetry_equiv_pos_as_xyz
'x, y, z'
_cell_length_a     66.761719
_cell_length_b     69.898396
_cell_length_c     68.352595
_cell_angle_alpha  90.074211
_cell_angle_beta   90.053906
_cell_angle_gamma 89.615888
loop_
_atom_site_label
_atom_site_type_symbol
_atom_site_fract_x
_atom_site_fract_y
_atom_site_fract_z
_atom_type_partial_charge
C0 C 0.01888 0.31892 0.21213 0.0
C1 C 0.02775 0.31214 0.19483 0.0
C2 C 0.03643 0.2937 0.19479 0.0
C3 C 0.03747 0.28291 0.21217 0.0
H4 H 0.00748 0.23132 0.26902 0.0
H5 H 0.0048 0.20107 0.28703 0.0
H6 H 0.06757 0.20417 0.30185 0.0
H7 H 0.07004 0.2344 0.28416 0.0
H8 H 0.04173 0.27902 0.32177 0.0
H9 H 0.04267 0.30187 0.34878 0.0
H10 H 0.04866 0.34821 0.30746 0.0
H11 H 0.04722 0.32559 0.28055 0.0
H12 H 0.01365 0.31442 0.24253 0.0
H13 H 0.01159 0.33281 0.21256 0.0
H14 H 0.04331 0.28807 0.18163 0.0
H15 H 0.04523 0.26926 0.21209 0.0
N16 N 0.03496 0.26242 0.25205 0.0
N17 N 0.04247 0.26788 0.28533 0.0
N18 N 0.03758 0.29375 0.26434 0.0
C19 C 0.03918 0.25553 0.27033 0.0
C20 C 0.04169 0.28701 0.28245 0.0
C21 C 0.03426 0.28175 0.24907 0.0
C22 C 0.03903 0.23496 0.27499 0.0
C23 C 0.02084 0.22504 0.27541 0.0
C24 C 0.01927 0.20789 0.28593 0.0
C25 C 0.03595 0.20031 0.29599 0.0
C26 C 0.05451 0.20951 0.29414 0.0
C27 C 0.05596 0.22677 0.28394 0.0
C28 C 0.04416 0.30049 0.29897 0.0
C29 C 0.04342 0.29407 0.31846 0.0
C30 C 0.04403 0.30715 0.33395 0.0
C31 C 0.04548 0.32686 0.33024 0.0
C32 C 0.04706 0.33315 0.31079 0.0
C33 C 0.04633 0.32014 0.29535 0.0
C34 C 0.02985 0.29048 0.22975 0.0
C35 C 0.01996 0.30829 0.22932 0.0
C36 C 0.7381 0.07101 0.18447 0.0
C37 C 0.74014 0.05769 0.16917 0.0
C38 C 0.75663 0.045 0.16939 0.0
C39 C 0.76927 0.04405 0.18574 0.0
H40 H 0.82627 0.06283 0.24398 0.0
H41 H 0.85476 0.06171 0.26662 0.0
H42 H 0.83826 0.00437 0.28347 0.0
H43 H 0.8101 0.0056 0.26097 0.0
H44 H 0.76215 0.01648 0.28539 0.0
H45 H 0.73545 0.0125 0.30947 0.0
H46 H 0.69746 0.05079 0.27637 0.0
H47 H 0.72391 0.05477 0.25222 0.0
H48 H 0.74741 0.07911 0.2132 0.0
H49 H 0.72558 0.08093 0.18489 0.0
H50 H 0.75883 0.0348 0.15763 0.0
H51 H 0.78049 0.03281 0.18649 0.0
N52 N 0.79116 0.04503 0.2261 0.0
N53 N 0.7805 0.0344 0.25707 0.0
N54 N 0.75712 0.04643 0.23489 0.0
C55 C 0.79546 0.03753 0.24405 0.0
C56 C 0.76131 0.03888 0.2526 0.0
C57 C 0.77177 0.04942 0.22156 0.0
C58 C 0.81609 0.0343 0.25083 0.0
C59 C 0.82945 0.04967 0.25179 0.0
C60 C 0.84557 0.0491 0.26492 0.0
C61 C 0.84857 0.03307 0.27706 0.0
C62 C 0.83651 0.01689 0.27428 0.0
C63 C 0.82035 0.01756 0.26137 0.0
C64 C 0.74515 0.03598 0.26694 0.0
C65 C 0.74808 0.02401 0.28321 0.0
C66 C 0.73282 0.02162 0.29691 0.0
C67 C 0.71453 0.03138 0.29468 0.0
C68 C 0.71152 0.04323 0.27839 0.0
C69 C 0.72664 0.04541 0.26457 0.0
C70 C 0.76549 0.05575 0.20201 0.0
C71 C 0.75065 0.07001 0.20073 0.0
C72 C 0.00179 0.71986 0.20627 0.0
C73 C 0.01273 0.72425 0.18937 0.0
C74 C 0.02387 0.7413 0.18893 0.0
C75 C 0.02535 0.75284 0.20577 0.0
H76 H 8e-05 0.80983 0.25694 0.0
H77 H 0.9985 0.84079 0.27398 0.0
H78 H 0.0559 0.82876 0.30071 0.0
H79 H 0.05743 0.79834 0.28364 0.0
H80 H 0.02058 0.75434 0.31368 0.0
H81 H 0.02311 0.73067 0.33964 0.0
H82 H 0.04979 0.69053 0.29883 0.0
H83 H 0.04585 0.71384 0.2727 0.0
H84 H 0.9955 0.72683 0.23605 0.0
H85 H 0.99281 0.70702 0.20691 0.0
H86 H 0.03246 0.74499 0.17606 0.0
H87 H 0.03518 0.7651 0.20563 0.0
N88 N 0.02252 0.77491 0.24565 0.0
N89 N 0.03106 0.76854 0.27849 0.0
N90 N 0.0248 0.74323 0.25716 0.0
C91 C 0.02762 0.7813 0.26391 0.0
C92 C 0.02974 0.74953 0.2752 0.0
C93 C 0.02114 0.75566 0.24233 0.0
C94 C 0.02891 0.80179 0.26895 0.0
C95 C 0.01266 0.81426 0.26584 0.0
C96 C 0.01166 0.83183 0.27582 0.0
C97 C 0.02698 0.83722 0.2889 0.0
C98 C 0.04392 0.82529 0.29066 0.0
C99 C 0.04481 0.80779 0.28088 0.0
C100 C 0.03289 0.73581 0.29122 0.0
C101 C 0.02707 0.74046 0.31036 0.0
C102 C 0.02867 0.7269 0.32527 0.0
C103 C 0.03658 0.70855 0.32141 0.0
C104 C 0.04312 0.70427 0.30231 0.0
C105 C 0.04103 0.71767 0.28733 0.0
C106 C 0.01566 0.74742 0.22313 0.0
C107 C 0.00324 0.73128 0.22291 0.0
C108 C 0.31084 0.01433 0.18945 0.0
C109 C 0.30646 0.00219 0.17371 0.0
C110 C 0.28784 0.99294 0.17306 0.0
C111 C 0.27457 0.99447 0.18892 0.0
H112 H 0.21378 0.02574 0.23617 0.0
H113 H 0.1818 0.02947 0.2534 0.0
H114 H 0.18799 0.97211 0.27614 0.0
H115 H 0.21986 0.9686 0.25914 0.0
H116 H 0.26244 0.98661 0.29507 0.0
H117 H 0.28311 0.98706 0.32446 0.0
H118 H 0.33143 0.01228 0.29149 0.0
H119 H 0.31111 0.01124 0.26207 0.0
H120 H 0.30204 0.02453 0.21758 0.0
H121 H 0.32494 0.0219 0.19006 0.0
H122 H 0.28417 0.98357 0.16096 0.0
H123 H 0.26099 0.98609 0.18888 0.0
N124 N 0.24927 1.00072 0.2256 0.0
N125 N 0.25251 0.99666 0.25968 0.0
N126 N 0.28087 0.00222 0.24075 0.0
C127 C 0.24082 0.99754 0.24345 0.0
C128 C 0.27255 0.99905 0.25845 0.0
C129 C 0.2695 0.00294 0.2243 0.0
C130 C 0.21908 0.99685 0.24631 0.0
C131 C 0.2077 0.01363 0.244 0.0
C132 C 0.18957 0.01583 0.25405 0.0
C133 C 0.18257 1.00118 0.26633 0.0
C134 C 0.1929 0.98361 0.26672 0.0
C135 C 0.21111 0.98154 0.25693 0.0
C136 C 0.28513 0.99887 0.27622 0.0
C137 C 0.27751 0.99217 0.29409 0.0
C138 C 0.28932 0.9925 0.31095 0.0
C139 C 0.30892 0.99969 0.31033 0.0
C140 C 0.31654 0.0063 0.29242 0.0
C141 C 0.30482 0.0058 0.27555 0.0
C142 C 0.2799 0.00528 0.20545 0.0
C143 C 0.29769 0.01588 0.20513 0.0
C144 C 0.02669 0.72437 0.81466 0.0
C145 C 0.01622 0.72918 0.83181 0.0
C146 C 0.00304 0.74501 0.83147 0.0
C147 C -0.00017 0.75529 0.81408 0.0
H148 H 0.0217 0.81097 0.76322 0.0
H149 H 0.02453 0.84068 0.74408 0.0
H150 H 0.96838 0.82844 0.71569 0.0
H151 H 0.96542 0.79909 0.73472 0.0
H152 H 0.98733 0.75843 0.70639 0.0
H153 H 0.98306 0.73591 0.67959 0.0
H154 H 0.98733 0.68878 0.72017 0.0
H155 H 0.99154 0.71128 0.7472 0.0
H156 H 0.03072 0.72964 0.7841 0.0
H157 H 0.03676 0.71216 0.81434 0.0
H158 H 0.99481 0.74907 0.84449 0.0
H159 H 0.98895 0.76686 0.81394 0.0
N160 N 0.00087 0.77636 0.77404 0.0
N161 N 0.99087 0.76936 0.74183 0.0
N162 N -0.00066 0.74443 0.76295 0.0
C163 C 0.99464 0.7824 0.75602 0.0
C164 C 0.99319 0.75042 0.74509 0.0
C165 C 0.00307 0.7572 0.77751 0.0
C166 C 0.99334 0.80277 0.75043 0.0
C167 C 0.00952 0.81515 0.75362 0.0
C168 C 0.01122 0.83202 0.74259 0.0
C169 C 0.9967 0.83662 0.72842 0.0
C170 C 0.97971 0.82514 0.72656 0.0
C171 C 0.97801 0.80842 0.73751 0.0
C172 C 0.98982 0.73666 0.72899 0.0
C173 C 0.98723 0.74328 0.70971 0.0
C174 C 0.98487 0.73041 0.6943 0.0
C175 C 0.98487 0.71065 0.69784 0.0
C176 C 0.98707 0.70398 0.7171 0.0
C177 C 0.98961 0.71686 0.73254 0.0
C178 C 0.00943 0.74963 0.79673 0.0
C179 C 0.0232 0.73436 0.79731 0.0
C180 C 0.20769 0.03304 0.73789 0.0
C181 C 0.19629 0.01625 0.73737 0.0
C182 C 0.19974 0.002 0.75148 0.0
C183 C 0.21559 0.00377 0.76475 0.0
H184 H 0.2684 0.02727 0.83074 0.0
H185 H 0.29011 0.02088 0.85908 0.0
H186 H 0.30875 0.96746 0.83299 0.0
H187 H 0.28704 0.97373 0.80495 0.0
H188 H 0.31867 0.99659 0.76859 0.0
H189 H 0.34502 0.99323 0.74468 0.0
H190 H 0.31271 0.03082 0.70535 0.0
H191 H 0.28557 0.03339 0.72916 0.0
H192 H 0.23362 0.04681 0.74964 0.0
H193 H 0.20541 0.04415 0.72705 0.0
H194 H 0.19112 0.98893 0.75129 0.0
H195 H 0.21904 0.9919 0.77438 0.0
N196 N 0.25207 0.01181 0.79038 0.0
N197 N 0.28646 0.00969 0.78346 0.0
N198 N 0.26437 0.01991 0.75916 0.0
C199 C 0.27114 0.00794 0.79626 0.0
C200 C 0.28329 0.01568 0.76494 0.0
C201 C 0.24874 0.01804 0.77175 0.0
C202 C 0.27603 1.0009 0.81586 0.0
C203 C 0.27616 0.01365 0.83173 0.0
C204 C 0.28866 0.01006 0.84781 0.0
C205 C 0.3011 0.99376 0.84798 0.0
C206 C 0.29921 0.98007 0.83313 0.0
C207 C 0.28671 0.98359 0.8172 0.0
C208 C 0.29999 0.01528 0.75079 0.0
C209 C 0.31719 0.00433 0.75494 0.0
C210 C 0.33244 0.00247 0.7412 0.0
C211 C 0.33111 0.01179 0.72305 0.0
C212 C 0.3141 0.02317 0.71905 0.0
C213 C 0.29861 0.02478 0.73274 0.0
C214 C 0.2284 0.01957 0.76368 0.0
C215 C 0.2238 0.03458 0.7508 0.0
C216 C 0.00678 0.31628 0.81081 0.0
C217 C 0.02064 0.31131 0.8254 0.0
C218 C 0.03193 0.29433 0.82318 0.0
C219 C 0.03048 0.28344 0.80588 0.0
H220 H 0.0053 0.22434 0.75948 0.0
H221 H 0.00596 0.1932 0.74265 0.0
H222 H 0.05226 0.21418 0.70418 0.0
H223 H 0.05189 0.24447 0.72121 0.0
H224 H 0.0213 0.28158 0.69735 0.0
H225 H 0.01902 0.30462 0.67083 0.0
H226 H 0.01389 0.35061 0.71286 0.0
H227 H 0.01567 0.32757 0.73946 0.0
H228 H 0.9951 0.31035 0.78241 0.0
H229 H 0.99758 0.32904 0.81228 0.0
H230 H 0.04269 0.29014 0.83427 0.0
H231 H 0.04031 0.27121 0.80387 0.0
N232 N 0.0229 0.26269 0.76655 0.0
N233 N 0.02359 0.26997 0.7329 0.0
N234 N 0.01791 0.2943 0.75553 0.0
C235 C 0.02498 0.2569 0.74751 0.0
C236 C 0.02002 0.28865 0.73673 0.0
C237 C 0.01934 0.28163 0.77052 0.0
C238 C 0.02863 0.23676 0.74171 0.0
C239 C 0.01613 0.22188 0.74793 0.0
C240 C 0.0163 0.20418 0.73806 0.0
C241 C 0.02907 0.20107 0.72188 0.0
C242 C 0.04243 0.21569 0.71668 0.0
C243 C 0.0422 0.23321 0.72644 0.0
C244 C 0.01864 0.30269 0.72058 0.0
C245 C 0.01965 0.2966 0.70099 0.0
C246 C 0.01846 0.30982 0.68575 0.0
C247 C 0.01628 0.32945 0.68973 0.0
C248 C 0.01527 0.33556 0.7093 0.0
C249 C 0.0164 0.32233 0.72456 0.0
C250 C 0.01767 0.2894 0.79068 0.0
C251 C 0.0053 0.30549 0.79373 0.0
C252 C 0.85233 0.01799 0.75668 0.0
C253 C 0.86287 0.0351 0.7538 0.0
C254 C 0.85554 0.05207 0.76238 0.0
C255 C 0.83695 0.0523 0.77175 0.0
H256 H 0.78478 0.05055 0.83055 0.0
H257 H 0.76412 0.04997 0.86038 0.0
H258 H 0.72249 0.01219 0.83152 0.0
H259 H 0.74273 0.01301 0.80204 0.0
H260 H 0.73194 0.0324 0.75798 0.0
H261 H 0.71147 0.03328 0.72866 0.0
H262 H 0.76281 0.05085 0.6948 0.0
H263 H 0.78355 0.04938 0.72412 0.0
H264 H 0.82502 0.00526 0.76647 0.0
H265 H 0.85742 0.00474 0.75006 0.0
H266 H 0.86346 0.06542 0.76056 0.0
H267 H 0.83069 0.06583 0.77663 0.0
N268 N 0.7955 0.03476 0.79359 0.0
N269 N 0.76367 0.03656 0.77888 0.0
N270 N 0.79233 0.03898 0.75956 0.0
C271 C 0.77518 0.03458 0.79515 0.0
C272 C 0.77212 0.03894 0.76106 0.0
C273 C 0.80401 0.0369 0.77567 0.0
C274 C 0.7652 0.0319 0.81408 0.0
C275 C 0.77145 0.0418 0.83088 0.0
C276 C 0.75963 0.04155 0.84782 0.0
C277 C 0.74178 0.031 0.84823 0.0
C278 C 0.7363 0.02024 0.83173 0.0
C279 C 0.7478 0.02081 0.81481 0.0
C280 C 0.75943 0.04069 0.7434 0.0
C281 C 0.73888 0.03659 0.74433 0.0
C282 C 0.72708 0.03724 0.72751 0.0
C283 C 0.7355 0.04216 0.70937 0.0
C284 C 0.75594 0.04674 0.7085 0.0
C285 C 0.7678 0.04596 0.72533 0.0
C286 C 0.82565 0.03555 0.77287 0.0
C287 C 0.83379 0.01825 0.76608 0.0
C288 C 0.19872 0.30603 0.0433 0.0
C289 C 0.18341 0.30232 0.0298 0.0
C290 C 0.18414 0.28537 0.01871 0.0
C291 C 0.20102 0.27328 0.01977 0.0
H292 H 0.26172 0.21803 0.05204 0.0
H293 H 0.28294 0.18929 0.05127 0.0
H294 H 0.29133 0.19664 0.98912 0.0
H295 H 0.27034 0.22536 0.99005 0.0
H296 H 0.312 0.26743 0.02402 0.0
H297 H 0.33956 0.29011 0.02291 0.0
H298 H 0.29705 0.33696 0.02052 0.0
H299 H 0.26959 0.31446 0.02219 0.0
H300 H 0.22765 0.29805 0.05395 0.0
H301 H 0.19835 0.3189 0.05216 0.0
H302 H 0.17247 0.28227 0.00818 0.0
H303 H 0.20213 0.26118 0.00991 0.0
N304 N 0.24045 0.25061 0.02631 0.0
N305 N 0.27488 0.25654 0.02193 0.0
N306 N 0.25297 0.28195 0.02791 0.0
C307 C 0.25943 0.24407 0.02288 0.0
C308 C 0.27176 0.27552 0.0244 0.0
C309 C 0.23729 0.26975 0.02888 0.0
C310 C 0.26426 0.22365 0.02105 0.0
C311 C 0.26723 0.21284 0.03809 0.0
C312 C 0.27956 0.19657 0.03767 0.0
C313 C 0.28897 0.19088 0.02017 0.0
C314 C 0.28417 0.20056 0.00277 0.0
C315 C 0.27207 0.21695 0.00326 0.0
C316 C 0.28858 0.28913 0.0233 0.0
C317 C 0.30854 0.28257 0.02324 0.0
C318 C 0.32434 0.29556 0.02251 0.0
C319 C 0.32049 0.31534 0.02171 0.0
C320 C 0.30054 0.32184 0.02151 0.0
C321 C 0.28477 0.3089 0.02237 0.0
C322 C 0.2172 0.27814 0.03192 0.0
C323 C 0.21543 0.29407 0.04435 0.0
C324 C 0.1796 0.7471 0.0435 0.0
C325 C 0.1656 0.74775 0.02817 0.0
C326 C 0.1685 0.76085 0.01281 0.0
C327 C 0.18595 0.77186 0.01197 0.0
H328 H 0.23634 0.83032 0.03217 0.0
H329 H 0.25567 0.86015 0.03179 0.0
H330 H 0.29242 0.83747 0.98517 0.0
H331 H 0.27344 0.80791 0.98568 0.0
H332 H 0.29371 0.7667 0.00409 0.0
H333 H 0.31817 0.74083 0.00189 0.0
H334 H 0.2737 0.70079 0.02201 0.0
H335 H 0.24907 0.7265 0.02387 0.0
H336 H 0.20857 0.75571 0.05355 0.0
H337 H 0.17789 0.73703 0.05541 0.0
H338 H 0.15789 0.76167 0.00084 0.0
H339 H 0.18864 0.78064 0.9992 0.0
N340 N 0.22697 0.79343 0.01785 0.0
N341 N 0.25978 0.7826 0.01145 0.0
N342 N 0.23539 0.76078 0.02086 0.0
C343 C 0.24629 0.79717 0.01264 0.0
C344 C 0.2545 0.76441 0.01555 0.0
C345 C 0.22158 0.77507 0.02197 0.0
C346 C 0.25359 0.81676 0.00913 0.0
C347 C 0.24811 0.83204 0.02143 0.0
C348 C 0.25921 0.84905 0.02126 0.0
C349 C 0.27584 0.8509 0.00877 0.0
C350 C 0.27999 0.83626 0.99527 0.0
C351 C 0.26905 0.81938 0.99549 0.0
C352 C 0.26939 0.74871 0.01418 0.0
C353 C 0.28909 0.75239 0.00803 0.0
C354 C 0.30317 0.73759 0.00685 0.0
C355 C 0.29785 0.7188 0.01179 0.0
C356 C 0.27816 0.71509 0.01785 0.0
C357 C 0.26408 0.72987 0.01903 0.0
C358 C 0.20081 0.76968 0.02632 0.0
C359 C 0.19714 0.75782 0.04247 0.0
C360 C 0.85984 0.29575 0.97235 0.0
C361 C 0.87434 0.29413 0.98711 0.0
C362 C 0.87297 0.27912 0.00071 0.0
C363 C 0.8561 0.26723 0.00079 0.0
H364 H 0.80412 0.20941 0.97955 0.0
H365 H 0.7862 0.17882 0.98139 0.0
H366 H 0.75652 0.1979 0.03398 0.0
H367 H 0.77377 0.22861 0.03178 0.0
H368 H 0.74964 0.27243 0.01473 0.0
H369 H 0.72523 0.29847 0.01682 0.0
H370 H 0.76401 0.33425 0.98218 0.0
H371 H 0.78856 0.30856 0.98053 0.0
H372 H 0.83131 0.28663 0.96186 0.0
H373 H 0.86068 0.30715 0.96165 0.0
H374 H 0.88398 0.27769 0.01228 0.0
H375 H 0.8543 0.25702 0.01256 0.0
N376 N 0.8156 0.24554 0.99646 0.0
N377 N 0.78212 0.25498 0.00215 0.0
N378 N 0.80547 0.27748 0.99185 0.0
C379 C 0.79645 0.24108 0.00167 0.0
C380 C 0.78653 0.27321 0.99714 0.0
C381 C 0.82006 0.26393 0.99158 0.0
C382 C 0.79034 0.22124 0.00558 0.0
C383 C 0.79432 0.20674 0.99186 0.0
C384 C 0.78404 0.18935 0.99284 0.0
C385 C 0.77014 0.1861 0.00788 0.0
C386 C 0.76738 0.20003 0.02242 0.0
C387 C 0.77721 0.21755 0.02115 0.0
C388 C 0.77111 0.28846 0.99761 0.0
C389 C 0.7529 0.28583 0.0075 0.0
C390 C 0.73889 0.30073 0.00864 0.0
C391 C 0.74277 0.31848 0.9998 0.0
C392 C 0.76076 0.3209 0.98952 0.0
C393 C 0.7748 0.30611 0.9885 0.0
C394 C 0.84056 0.27033 0.98727 0.0
C395 C 0.84313 0.28394 0.97241 0.0
C396 C 0.75854 0.83465 0.01876 0.0
C397 C 0.75263 0.84312 0.00107 0.0
C398 C 0.76184 0.8373 0.98358 0.0
C399 C 0.77547 0.822 0.98357 0.0
H400 H 0.8441 0.77736 0.00581 0.0
H401 H 0.87584 0.75981 0.00146 0.0
H402 H 0.84644 0.72079 0.96187 0.0
H403 H 0.81507 0.7381 0.9663 0.0
H404 H 0.77548 0.72146 0.00525 0.0
H405 H 0.74758 0.69931 0.00814 0.0
H406 H 0.70588 0.74616 0.99944 0.0
H407 H 0.73362 0.76829 0.99743 0.0
H408 H 0.77446 0.81141 0.0322 0.0
H409 H 0.75139 0.83878 0.03236 0.0
H410 H 0.75729 0.84357 0.96977 0.0
H411 H 0.78088 0.81652 0.96969 0.0
N412 N 0.80384 0.7857 0.99453 0.0
N413 N 0.79205 0.75399 0.99432 0.0
N414 N 0.77024 0.77906 0.00206 0.0
C415 C 0.80728 0.76659 0.99192 0.0
C416 C 0.77351 0.76015 0.9994 0.0
C417 C 0.78518 0.79185 0.99975 0.0
C418 C 0.82718 0.75898 0.98647 0.0
C419 C 0.84467 0.76537 0.99576 0.0
C420 C 0.86275 0.75527 0.99337 0.0
C421 C 0.86362 0.73891 0.98134 0.0
C422 C 0.84637 0.73345 0.97103 0.0
C423 C 0.82835 0.74329 0.97368 0.0
C424 C 0.75675 0.74661 0.0012 0.0
C425 C 0.76034 0.72699 0.00402 0.0
C426 C 0.74434 0.7143 0.00556 0.0
C427 C 0.72446 0.72095 0.00403 0.0
C428 C 0.72096 0.74058 0.0011 0.0
C429 C 0.7369 0.75327 0.99984 0.0
C430 C 0.77968 0.81216 0.00098 0.0
C431 C 0.77186 0.81913 0.01869 0.0
C432 C 0.55022 0.80223 0.69544 0.0
C433 C 0.53177 0.80174 0.68565 0.0
C434 C 0.51634 0.79028 0.69307 0.0
C435 C 0.51903 0.78019 0.71063 0.0
H436 H 0.54444 0.71943 0.75367 0.0
H437 H 0.54096 0.68842 0.77042 0.0
H438 H 0.50932 0.71664 0.81754 0.0
H439 H 0.51263 0.74701 0.80099 0.0
H440 H 0.5371 0.78544 0.81458 0.0
H441 H 0.53853 0.81158 0.83796 0.0
H442 H 0.54977 0.85133 0.79095 0.0
H443 H 0.54794 0.82521 0.76737 0.0
H444 H 0.56659 0.79433 0.72123 0.0
H445 H 0.56222 0.81117 0.69007 0.0
H446 H 0.50192 0.78989 0.68581 0.0
H447 H 0.50654 0.77241 0.71674 0.0
N448 N 0.53371 0.75854 0.74843 0.0
N449 N 0.53622 0.7694 0.78092 0.0
N450 N 0.54094 0.79083 0.75523 0.0
C451 C 0.53315 0.75489 0.76805 0.0
C452 C 0.54015 0.78737 0.7747 0.0
C453 C 0.53774 0.77662 0.74205 0.0
C454 C 0.52884 0.73564 0.77603 0.0
C455 C 0.53638 0.71881 0.76739 0.0
C456 C 0.53454 0.70113 0.77706 0.0
C457 C 0.5248 0.7 0.79532 0.0
C458 C 0.51663 0.71682 0.8034 0.0
C459 C 0.51866 0.73433 0.79395 0.0
C460 C 0.54234 0.80318 0.78903 0.0
C461 C 0.54001 0.79971 0.80916 0.0
C462 C 0.54094 0.81471 0.82263 0.0
C463 C 0.54426 0.83355 0.81633 0.0
C464 C 0.54694 0.837 0.79625 0.0
C465 C 0.546 0.82199 0.78275 0.0
C466 C 0.537 0.78188 0.72117 0.0
C467 C 0.55273 0.79257 0.71317 0.0
C468 C 0.27086 0.54684 0.68038 0.0
C469 C 0.26917 0.52798 0.67352 0.0
C470 C 0.2797 0.51327 0.68312 0.0
C471 C 0.2906 0.51718 0.70016 0.0
H472 H 0.35041 0.55668 0.7504 0.0
H473 H 0.37945 0.55756 0.77249 0.0
H474 H 0.35455 0.51077 0.80559 0.0
H475 H 0.32546 0.51053 0.78408 0.0
H476 H 0.28071 0.542 0.8007 0.0
H477 H 0.25142 0.54271 0.8219 0.0
H478 H 0.2129 0.5462 0.7712 0.0
H479 H 0.24208 0.54588 0.74997 0.0
H480 H 0.28081 0.56498 0.70371 0.0
H481 H 0.26264 0.55836 0.67335 0.0
H482 H 0.27849 0.49861 0.67812 0.0
H483 H 0.29729 0.50541 0.7082 0.0
N484 N 0.31358 0.5357 0.7366 0.0
N485 N 0.29999 0.5392 0.76819 0.0
N486 N 0.27907 0.54137 0.74093 0.0
C487 C 0.31608 0.53635 0.75639 0.0
C488 C 0.28144 0.54182 0.76059 0.0
C489 C 0.29491 0.53834 0.7289 0.0
C490 C 0.33578 0.5336 0.76569 0.0
C491 C 0.35157 0.54625 0.76206 0.0
C492 C 0.36812 0.54677 0.77474 0.0
C493 C 0.36906 0.53455 0.7911 0.0
C494 C 0.35403 0.52076 0.79349 0.0
C495 C 0.33747 0.52045 0.78106 0.0
C496 C 0.26379 0.54375 0.77358 0.0
C497 C 0.26602 0.5431 0.79404 0.0
C498 C 0.24924 0.5434 0.80621 0.0
C499 C 0.22986 0.54438 0.79821 0.0
C500 C 0.22764 0.54563 0.77782 0.0
C501 C 0.24441 0.54532 0.76564 0.0
C502 C 0.2907 0.53575 0.70799 0.0
C503 C 0.28132 0.55065 0.69765 0.0
C504 C 0.47203 0.23738 0.69269 0.0
C505 C 0.48775 0.24087 0.67951 0.0
C506 C 0.50176 0.25518 0.68426 0.0
C507 C 0.50088 0.26468 0.70238 0.0
H508 H 0.48024 0.3218 0.75143 0.0
H509 H 0.48429 0.35219 0.7693 0.0
H510 H 0.52334 0.32368 0.81059 0.0
H511 H 0.51945 0.29391 0.7929 0.0
H512 H 0.47804 0.25535 0.80802 0.0
H513 H 0.47786 0.22888 0.83152 0.0
H514 H 0.49764 0.19009 0.78625 0.0
H515 H 0.49736 0.2163 0.7626 0.0
H516 H 0.45969 0.24273 0.72101 0.0
H517 H 0.46109 0.22636 0.68982 0.0
H518 H 0.51393 0.25841 0.67436 0.0
H519 H 0.51261 0.27463 0.70625 0.0
N520 N 0.49237 0.28303 0.74325 0.0
N521 N 0.4928 0.27173 0.77571 0.0
N522 N 0.48639 0.25056 0.75012 0.0
C523 C 0.49466 0.2864 0.76283 0.0
C524 C 0.4887 0.25382 0.76948 0.0
C525 C 0.48809 0.26495 0.73694 0.0
C526 C 0.49951 0.30552 0.7708 0.0
C527 C 0.49008 0.32229 0.76402 0.0
C528 C 0.49225 0.33958 0.77435 0.0
C529 C 0.50418 0.34039 0.79136 0.0
C530 C 0.51432 0.32374 0.79741 0.0
C531 C 0.51198 0.30659 0.78732 0.0
C532 C 0.48771 0.23786 0.78351 0.0
C533 C 0.48219 0.24114 0.80307 0.0
C534 C 0.48198 0.22605 0.81646 0.0
C535 C 0.48773 0.20759 0.81057 0.0
C536 C 0.49315 0.20427 0.79104 0.0
C537 C 0.49292 0.21923 0.77755 0.0
C538 C 0.48604 0.25991 0.71604 0.0
C539 C 0.47124 0.24674 0.71069 0.0
C540 C 0.78293 0.52788 0.69652 0.0
C541 C 0.78323 0.51175 0.68423 0.0
C542 C 0.76949 0.49695 0.68761 0.0
C543 C 0.75681 0.49761 0.70391 0.0
H544 H 0.69344 0.52725 0.7531 0.0
H545 H 0.66166 0.52696 0.77118 0.0
H546 H 0.67848 0.47308 0.79751 0.0
H547 H 0.71025 0.47367 0.77986 0.0
H548 H 0.75225 0.49871 0.80908 0.0
H549 H 0.77662 0.49873 0.83546 0.0
H550 H 0.82202 0.51877 0.79557 0.0
H551 H 0.79774 0.51841 0.76894 0.0
H552 H 0.77189 0.54019 0.72312 0.0
H553 H 0.79349 0.53941 0.69445 0.0
H554 H 0.76941 0.48438 0.67832 0.0
H555 H 0.74744 0.48542 0.7071 0.0
N556 N 0.73091 0.50678 0.74098 0.0
N557 N 0.73878 0.50408 0.77443 0.0
N558 N 0.76392 0.51148 0.75206 0.0
C559 C 0.7251 0.50352 0.75977 0.0
C560 C 0.75821 0.50811 0.77072 0.0
C561 C 0.75047 0.51074 0.73718 0.0
C562 C 0.70408 0.50041 0.76506 0.0
C563 C 0.68987 0.51499 0.7621 0.0
C564 C 0.67184 0.51489 0.77255 0.0
C565 C 0.6677 0.50002 0.78575 0.0
C566 C 0.68118 0.48459 0.78726 0.0
C567 C 0.69933 0.48491 0.77717 0.0
C568 C 0.77301 0.50854 0.78684 0.0
C569 C 0.7674 0.50318 0.80587 0.0
C570 C 0.78135 0.50328 0.82105 0.0
C571 C 0.80122 0.50879 0.8176 0.0
C572 C 0.80686 0.51423 0.79862 0.0
C573 C 0.7929 0.5141 0.78339 0.0
C574 C 0.75802 0.51292 0.71715 0.0
C575 C 0.77058 0.52836 0.71294 0.0
C576 C 0.48947 0.24832 0.32724 0.0
C577 C 0.50871 0.24331 0.33402 0.0
C578 C 0.52544 0.25106 0.32441 0.0
C579 C 0.52304 0.2621 0.30745 0.0
H580 H 0.50365 0.32644 0.26603 0.0
H581 H 0.50089 0.35686 0.2479 0.0
H582 H 0.48889 0.32538 0.19485 0.0
H583 H 0.49121 0.29577 0.21242 0.0
H584 H 0.51065 0.25439 0.20864 0.0
H585 H 0.51033 0.22688 0.18702 0.0
H586 H 0.48894 0.19153 0.2344 0.0
H587 H 0.49018 0.21906 0.25635 0.0
H588 H 0.4722 0.26125 0.3042 0.0
H589 H 0.47626 0.24246 0.33413 0.0
H590 H 0.54047 0.24764 0.32934 0.0
H591 H 0.53623 0.26637 0.29938 0.0
N592 N 0.50088 0.28741 0.27074 0.0
N593 N 0.49941 0.27359 0.2394 0.0
N594 N 0.50156 0.25384 0.26674 0.0
C595 C 0.49946 0.2895 0.25084 0.0
C596 C 0.50043 0.25584 0.24713 0.0
C597 C 0.50189 0.2694 0.27862 0.0
C598 C 0.49764 0.30849 0.24085 0.0
C599 C 0.50029 0.3261 0.25054 0.0
C600 C 0.49879 0.34351 0.24013 0.0
C601 C 0.49436 0.34362 0.21993 0.0
C602 C 0.49181 0.326 0.21043 0.0
C603 C 0.49337 0.30885 0.22065 0.0
C604 C 0.50034 0.23892 0.23418 0.0
C605 C 0.50587 0.24076 0.21447 0.0
C606 C 0.50555 0.22497 0.20202 0.0
C607 C 0.49934 0.20699 0.20886 0.0
C608 C 0.49398 0.20511 0.22866 0.0
C609 C 0.4946 0.22089 0.24123 0.0
C610 C 0.50388 0.26569 0.29977 0.0
C611 C 0.4871 0.25926 0.31018 0.0
C612 C 0.68973 0.53014 0.22667 0.0
C613 C 0.67501 0.51683 0.23171 0.0
C614 C 0.67624 0.50735 0.24978 0.0
C615 C 0.69311 0.50981 0.26178 0.0
H616 H 0.74775 0.48802 0.31747 0.0
H617 H 0.76707 0.48581 0.3481 0.0
H618 H 0.7855 0.54441 0.34113 0.0
H619 H 0.76618 0.54665 0.31083 0.0
H620 H 0.80017 0.50058 0.26598 0.0
H621 H 0.82894 0.49924 0.24392 0.0
H622 H 0.79499 0.52961 0.19993 0.0
H623 H 0.76604 0.53076 0.2218 0.0
H624 H 0.71829 0.54191 0.23356 0.0
H625 H 0.68895 0.53767 0.21283 0.0
H626 H 0.66502 0.49696 0.25384 0.0
H627 H 0.69465 0.50122 0.27488 0.0
N628 N 0.73183 0.51888 0.28408 0.0
N629 N 0.76656 0.5161 0.27866 0.0
N630 N 0.74488 0.51929 0.25209 0.0
C631 C 0.75083 0.51707 0.29116 0.0
C632 C 0.76369 0.51707 0.25911 0.0
C633 C 0.72891 0.52012 0.26437 0.0
C634 C 0.75532 0.51759 0.31212 0.0
C635 C 0.75504 0.50068 0.32314 0.0
C636 C 0.76615 0.49938 0.34051 0.0
C637 C 0.7777 0.51495 0.34677 0.0
C638 C 0.77657 0.53231 0.33657 0.0
C639 C 0.76543 0.53362 0.31937 0.0
C640 C 0.7809 0.51586 0.24563 0.0
C641 C 0.79882 0.50693 0.25158 0.0
C642 C 0.81521 0.50603 0.23896 0.0
C643 C 0.81409 0.51435 0.22033 0.0
C644 C 0.79618 0.52317 0.2143 0.0
C645 C 0.77964 0.52376 0.22677 0.0
C646 C 0.7088 0.52167 0.25563 0.0
C647 C 0.70647 0.53253 0.23851 0.0
C648 C 0.53379 0.7975 0.32549 0.0
C649 C 0.55112 0.8049 0.3345 0.0
C650 C 0.56991 0.79923 0.32701 0.0
C651 C 0.57128 0.78799 0.31004 0.0
H652 H 0.56054 0.71897 0.26851 0.0
H653 H 0.56096 0.68823 0.25051 0.0
H654 H 0.54248 0.71765 0.19804 0.0
H655 H 0.54174 0.74766 0.21554 0.0
H656 H 0.56169 0.78664 0.20735 0.0
H657 H 0.56238 0.81298 0.18426 0.0
H658 H 0.55847 0.85336 0.23203 0.0
H659 H 0.55818 0.82696 0.25532 0.0
H660 H 0.5216 0.78205 0.30107 0.0
H661 H 0.51903 0.80163 0.33055 0.0
H662 H 0.58362 0.80425 0.33368 0.0
H663 H 0.5859 0.78527 0.30371 0.0
N664 N 0.55316 0.75849 0.27239 0.0
N665 N 0.5561 0.77039 0.24036 0.0
N666 N 0.55755 0.79153 0.26668 0.0
C667 C 0.55366 0.75529 0.2526 0.0
C668 C 0.55804 0.78845 0.24715 0.0
C669 C 0.55518 0.7768 0.27937 0.0
C670 C 0.55148 0.73594 0.24347 0.0
C671 C 0.55626 0.71875 0.25323 0.0
C672 C 0.55655 0.70119 0.24293 0.0
C673 C 0.5522 0.70063 0.22273 0.0
C674 C 0.54639 0.71764 0.21343 0.0
C675 C 0.54597 0.73492 0.22359 0.0
C676 C 0.55973 0.80463 0.23324 0.0
C677 C 0.5611 0.8011 0.21302 0.0
C678 C 0.5614 0.81622 0.19973 0.0
C679 C 0.5603 0.83526 0.20629 0.0
C680 C 0.55951 0.83885 0.22652 0.0
C681 C 0.55924 0.82369 0.23986 0.0
C682 C 0.55395 0.78176 0.30036 0.0
C683 C 0.53521 0.7861 0.30861 0.0
C684 C 0.35632 0.51304 0.23037 0.0
C685 C 0.37001 0.52769 0.23411 0.0
C686 C 0.36716 0.53972 0.25034 0.0
C687 C 0.34967 0.5383 0.26155 0.0
H688 H 0.29408 0.51229 0.31517 0.0
H689 H 0.27114 0.50975 0.34312 0.0
H690 H 0.2434 0.56328 0.32681 0.0
H691 H 0.2659 0.56565 0.29877 0.0
H692 H 0.24384 0.55151 0.25195 0.0
H693 H 0.21976 0.55359 0.22518 0.0
H694 H 0.26035 0.52169 0.18801 0.0
H695 H 0.28459 0.52013 0.21443 0.0
H696 H 0.3276 0.50145 0.23707 0.0
H697 H 0.35823 0.50376 0.21778 0.0
H698 H 0.3775 0.55126 0.25322 0.0
H699 H 0.34677 0.54889 0.2728 0.0
N700 N 0.30844 0.5321 0.28085 0.0
N701 N 0.27553 0.5383 0.27003 0.0
N702 N 0.30014 0.52956 0.24751 0.0
C703 C 0.28907 0.53699 0.28481 0.0
C704 C 0.28094 0.53453 0.25135 0.0
C705 C 0.31395 0.52843 0.26202 0.0
C706 C 0.28164 0.53914 0.30491 0.0
C707 C 0.28382 0.52399 0.31822 0.0
C708 C 0.2707 0.5225 0.33412 0.0
C709 C 0.25568 0.53636 0.33696 0.0
C710 C 0.25508 0.55258 0.32495 0.0
C711 C 0.26792 0.55392 0.30896 0.0
C712 C 0.26616 0.53571 0.2353 0.0
C713 C 0.24762 0.54497 0.23805 0.0
C714 C 0.2338 0.54612 0.22273 0.0
C715 C 0.23818 0.5379 0.20443 0.0
C716 C 0.25667 0.52855 0.20178 0.0
C717 C 0.27054 0.52755 0.21699 0.0
C718 C 0.33489 0.52504 0.25633 0.0
C719 C 0.33886 0.51173 0.24141 0.0
C720 C 0.71908 0.81754 0.52344 0.0
C721 C 0.70271 0.81261 0.51164 0.0
C722 C 0.70357 0.7954 0.5009 0.0
C723 C 0.72123 0.78421 0.50075 0.0
H724 H 0.77091 0.72546 0.48429 0.0
H725 H 0.7902 0.69523 0.48192 0.0
H726 H 0.82966 0.71483 0.52763 0.0
H727 H 0.81049 0.74449 0.53016 0.0
H728 H 0.82991 0.7836 0.48707 0.0
H729 H 0.8564 0.80701 0.48296 0.0
H730 H 0.81816 0.85058 0.5084 0.0
H731 H 0.79145 0.82738 0.51171 0.0
H732 H 0.74922 0.81134 0.53182 0.0
H733 H 0.71873 0.83053 0.53212 0.0
H734 H 0.6911 0.79126 0.4917 0.0
H735 H 0.72215 0.7718 0.49129 0.0
N736 N 0.76292 0.76312 0.50782 0.0
N737 N 0.7969 0.77057 0.50261 0.0
N738 N 0.77335 0.79515 0.50499 0.0
C739 C 0.78242 0.75733 0.50541 0.0
C740 C 0.79251 0.78944 0.50223 0.0
C741 C 0.75846 0.78229 0.50769 0.0
C742 C 0.78918 0.73724 0.50747 0.0
C743 C 0.78318 0.72287 0.49434 0.0
C744 C 0.79432 0.70572 0.49287 0.0
C745 C 0.81161 0.70293 0.50437 0.0
C746 C 0.81657 0.71673 0.51842 0.0
C747 C 0.80548 0.73362 0.51998 0.0
C748 C 0.80856 0.80365 0.49965 0.0
C749 C 0.82715 0.7982 0.49172 0.0
C750 C 0.84239 0.81161 0.48947 0.0
C751 C 0.83944 0.83072 0.49532 0.0
C752 C 0.82083 0.8361 0.50334 0.0
C753 C 0.80553 0.82276 0.50534 0.0
C754 C 0.73812 0.79012 0.51143 0.0
C755 C 0.7365 0.80647 0.52334 0.0
C756 C 0.71309 0.22198 0.52396 0.0
C757 C 0.69638 0.22445 0.51166 0.0
C758 C 0.69636 0.2398 0.49829 0.0
C759 C 0.71334 0.25145 0.4963 0.0
H760 H 0.7638 0.31445 0.48155 0.0
H761 H 0.78404 0.34384 0.48206 0.0
H762 H 0.81829 0.32133 0.53046 0.0
H763 H 0.79804 0.29238 0.53014 0.0
H764 H 0.82311 0.25903 0.48769 0.0
H765 H 0.85071 0.23702 0.48151 0.0
H766 H 0.80975 0.18948 0.48277 0.0
H767 H 0.78192 0.21149 0.48875 0.0
H768 H 0.74307 0.23039 0.53074 0.0
H769 H 0.71345 0.21066 0.53475 0.0
H770 H 0.68375 0.24209 0.48858 0.0
H771 H 0.71355 0.26236 0.48506 0.0
N772 N 0.75401 0.27522 0.50498 0.0
N773 N 0.78756 0.26921 0.49628 0.0
N774 N 0.76497 0.24396 0.49723 0.0
C775 C 0.77298 0.28166 0.50173 0.0
C776 C 0.78373 0.25041 0.49382 0.0
C777 C 0.75005 0.25619 0.50262 0.0
C778 C 0.77922 0.30137 0.50601 0.0
C779 C 0.77497 0.3163 0.49289 0.0
C780 C 0.78665 0.33296 0.49305 0.0
C781 C 0.8028 0.33461 0.50616 0.0
C782 C 0.80597 0.32029 0.52017 0.0
C783 C 0.79427 0.30387 0.52013 0.0
C784 C 0.80025 0.23704 0.48883 0.0
C785 C 0.81987 0.24391 0.48652 0.0
C786 C 0.83575 0.23131 0.48306 0.0
C787 C 0.83238 0.21156 0.48174 0.0
C788 C 0.81274 0.20468 0.48352 0.0
C789 C 0.79682 0.21729 0.48705 0.0
C790 C 0.73049 0.24788 0.50766 0.0
C791 C 0.72998 0.23342 0.52184 0.0
C792 C 0.32714 0.82516 0.5337 0.0
C793 C 0.34412 0.81771 0.52428 0.0
C794 C 0.34363 0.79886 0.51704 0.0
C795 C 0.32584 0.78821 0.51795 0.0
H796 H 0.26964 0.73439 0.54915 0.0
H797 H 0.25284 0.70323 0.5493 0.0
H798 H 0.23726 0.71086 0.48845 0.0
H799 H 0.25384 0.74185 0.4885 0.0
H800 H 0.21453 0.78381 0.52997 0.0
H801 H 0.1865 0.80622 0.53243 0.0
H802 H 0.22499 0.85209 0.5134 0.0
H803 H 0.25309 0.8299 0.51183 0.0
H804 H 0.29657 0.82121 0.54142 0.0
H805 H 0.32723 0.83953 0.53969 0.0
H806 H 0.3566 0.79282 0.50973 0.0
H807 H 0.32542 0.77415 0.51127 0.0
N808 N 0.28594 0.76806 0.52242 0.0
N809 N 0.25105 0.77289 0.51956 0.0
N810 N 0.27216 0.79909 0.52328 0.0
C811 C 0.2671 0.76087 0.52017 0.0
C812 C 0.25349 0.79203 0.52108 0.0
C813 C 0.28845 0.78738 0.52401 0.0
C814 C 0.26325 0.74025 0.51872 0.0
C815 C 0.26337 0.72892 0.53565 0.0
C816 C 0.25354 0.71126 0.53578 0.0
C817 C 0.24362 0.70464 0.51892 0.0
C818 C 0.24494 0.7154 0.5016 0.0
C819 C 0.25449 0.73312 0.50158 0.0
C820 C 0.23606 0.80514 0.52093 0.0
C821 C 0.21694 0.79867 0.52621 0.0
C822 C 0.20085 0.81152 0.52754 0.0
C823 C 0.2035 0.83104 0.52335 0.0
C824 C 0.22249 0.83728 0.51728 0.0
C825 C 0.2386 0.82453 0.51625 0.0
C826 C 0.30842 0.79634 0.52613 0.0
C827 C 0.30957 0.81462 0.53465 0.0
C828 C 0.23525 0.32483 0.54348 0.0
C829 C 0.2391 0.33844 0.52889 0.0
C830 C 0.25446 0.33469 0.51525 0.0
C831 C 0.2648 0.31713 0.51546 0.0
H832 H 0.32175 0.26034 0.54353 0.0
H833 H 0.35245 0.24093 0.54078 0.0
H834 H 0.33366 0.22162 0.48368 0.0
H835 H 0.30287 0.24057 0.48672 0.0
H836 H 0.26028 0.21206 0.52994 0.0
H837 H 0.23395 0.18832 0.53279 0.0
H838 H 0.18918 0.23272 0.52538 0.0
H839 H 0.21547 0.25652 0.52333 0.0
H840 H 0.2411 0.29665 0.55422 0.0
H841 H 0.22342 0.32711 0.55408 0.0
H842 H 0.25789 0.34498 0.50393 0.0
H843 H 0.27565 0.31407 0.50409 0.0
N844 N 0.28512 0.27767 0.52207 0.0
N845 N 0.27499 0.24546 0.5205 0.0
N846 N 0.25156 0.26934 0.52779 0.0
C847 C 0.28962 0.25879 0.51913 0.0
C848 C 0.25592 0.25064 0.52484 0.0
C849 C 0.26591 0.2829 0.52643 0.0
C850 C 0.31017 0.25207 0.51522 0.0
C851 C 0.32462 0.2525 0.53013 0.0
C852 C 0.34204 0.24127 0.52862 0.0
C853 C 0.34539 0.22974 0.51204 0.0
C854 C 0.33158 0.23051 0.49653 0.0
C855 C 0.31401 0.24137 0.49823 0.0
C856 C 0.23998 0.23616 0.52639 0.0
C857 C 0.24482 0.21674 0.52894 0.0
C858 C 0.2297 0.20313 0.5305 0.0
C859 C 0.20941 0.20859 0.52928 0.0
C860 C 0.20461 0.22804 0.52675 0.0
C861 C 0.21972 0.24168 0.52543 0.0
C862 C 0.2597 0.30303 0.52915 0.0
C863 C 0.24535 0.30732 0.54353 0.0
Zn864 Zn 0.98248 0.99742 0.47069 0.0
Zn865 Zn 0.98097 0.04417 0.47366 0.0
O866 O -0.00026 0.02154 0.47063 0.0
H867 H 0.01196 0.02181 0.4631 0.0
C868 C 0.9745 0.9831 0.51794 0.0
O869 O 0.96813 1.00062 0.5146 0.0
Zn870 Zn 0.05999 0.04178 0.5434 0.0
Zn871 Zn 0.05318 0.99631 0.54885 0.0
O872 O 0.03887 0.02199 0.54838 0.0
H873 H 0.02723 0.02413 0.55648 0.0
Zn874 Zn 0.9981 0.00424 0.54541 0.0
O875 O 0.00089 0.02718 0.5279 0.0
Zn876 Zn 0.9958 0.04995 0.54472 0.0
H877 H 0.0019 0.02632 0.51385 0.0
Zn878 Zn 0.04542 0.99978 0.47566 0.0
O879 O 0.03955 0.02436 0.48955 0.0
H880 H 0.03351 0.02529 0.50232 0.0
Zn881 Zn 0.04697 0.04557 0.47175 0.0
C882 C 0.06775 0.98203 0.50684 0.0
O883 O 0.07429 0.99966 0.50839 0.0
O884 O 0.95387 0.00418 0.46198 0.0
O885 O 0.95355 0.03596 0.4637 0.0
O886 O 0.08237 1.00028 0.55722 0.0
O887 O 0.08675 0.03158 0.55309 0.0
O888 O 0.98484 0.01091 0.57193 0.0
O889 O 0.98011 0.04238 0.56872 0.0
C890 C 0.0089 0.06814 0.45368 0.0
O891 O 0.06024 0.00366 0.44948 0.0
O892 O 0.0624 0.03546 0.44822 0.0
O893 O 0.03932 0.97445 0.56444 0.0
C894 C 0.94501 0.02019 0.4595 0.0
O895 O 0.9927 0.97271 0.45625 0.0
C896 C 0.03564 0.06927 0.56255 0.0
O897 O 0.98789 0.98033 0.53088 0.0
C898 C 0.09323 0.01515 0.55846 0.0
O899 O 0.05495 0.97805 0.4937 0.0
C900 C 0.97707 0.06843 0.51101 0.0
O901 O 0.99024 0.06587 0.45623 0.0
O902 O 0.02073 0.05717 0.46306 0.0
C903 C 0.97787 0.02681 0.57821 0.0
O904 O 0.05395 0.06515 0.55977 0.0
O905 O 0.02277 0.05946 0.55331 0.0
C906 C 0.06685 0.06213 0.50543 0.0
O907 O 0.98125 0.07008 0.52912 0.0
O908 O 0.98171 0.05297 0.50214 0.0
C909 C 0.06608 0.0189 0.44106 0.0
O910 O 0.06388 0.06401 0.48713 0.0
O911 O 0.05895 0.04833 0.5146 0.0
C912 C 0.03128 0.97871 0.58075 0.0
O913 O 0.03104 0.9967 0.58636 0.0
C914 C 0.00881 0.97187 0.44635 0.0
O915 O 0.02059 0.98681 0.44602 0.0
Zn916 Zn 0.49493 0.05327 0.02816 0.0
Zn917 Zn 0.49476 0.05625 0.98077 0.0
O918 O 0.50185 0.0394 0.00327 0.0
H919 H 0.50982 0.02785 0.00249 0.0
C920 C 0.53457 0.08083 0.05277 0.0
O921 O 0.53265 0.0891 0.03562 0.0
Zn922 Zn 0.54806 0.98427 0.98653 0.0
Zn923 Zn 0.54916 0.98549 0.03358 0.0
O924 O 0.54564 0.00202 0.00939 0.0
H925 H 0.54194 0.01539 0.00916 0.0
Zn926 Zn 0.55962 0.05697 0.02894 0.0
O927 O 0.5422 0.0588 0.00494 0.0
Zn928 Zn 0.5613 0.05454 0.98299 0.0
H929 H 0.53027 0.06667 0.00473 0.0
Zn930 Zn 0.47864 0.98758 0.03614 0.0
O931 O 0.49674 0.98724 0.01249 0.0
H932 H 0.51047 0.98287 0.01314 0.0
Zn933 Zn 0.47872 0.98916 0.98924 0.0
C934 C 0.50599 0.97813 0.06872 0.0
O935 O 0.51382 0.99485 0.06465 0.0
O936 O 0.47861 0.07774 0.02244 0.0
O937 O 0.47835 0.07935 0.98992 0.0
O938 O 0.56709 0.96263 0.02677 0.0
O939 O 0.56416 0.96037 0.99437 0.0
O940 O 0.58884 0.0651 0.02376 0.0
O941 O 0.5888 0.0644 0.99118 0.0
C942 C 0.47273 0.02466 0.96551 0.0
O943 O 0.44944 0.98096 0.02917 0.0
O944 O 0.45084 0.97978 0.99664 0.0
O945 O 0.55918 0.9988 0.05873 0.0
C946 C 0.47292 0.08577 0.00663 0.0
O947 O 0.48037 0.03603 0.04785 0.0
C948 C 0.5689 0.01467 0.96489 0.0
O949 O 0.54582 0.06618 0.05431 0.0
C950 C 0.57129 0.95445 0.01064 0.0
O951 O 0.49074 0.97251 0.05924 0.0
C952 C 0.53252 0.0707 0.95731 0.0
O953 O 0.4776 0.04177 0.96165 0.0
O954 O 0.47986 0.0167 0.9807 0.0
C955 C 0.59759 0.06772 0.00743 0.0
O956 O 0.56448 0.99699 0.96558 0.0
O957 O 0.56073 0.02601 0.97716 0.0
C958 C 0.5086 0.97189 0.96508 0.0
O959 O 0.55136 0.06939 0.95945 0.0
O960 O 0.52167 0.06256 0.96995 0.0
C961 C 0.44123 0.97774 0.01266 0.0
O962 O 0.48971 0.97353 0.96674 0.0
O963 O 0.5195 0.97947 0.97816 0.0
C964 C 0.56762 0.01487 0.0566 0.0
O965 O 0.56806 0.02259 0.03912 0.0
C966 C 0.46361 0.03053 0.04115 0.0
O967 O 0.45847 0.03556 0.02331 0.0
Zn968 Zn 0.99436 0.4992 0.97595 0.0
Zn969 Zn 0.98064 0.54398 0.98256 0.0
O970 O 0.00377 0.52538 0.98512 0.0
H971 H 0.01455 0.52728 0.99429 0.0
C972 C 0.98826 0.46182 0.0293 0.0
O973 O 0.00653 0.46585 0.02365 0.0
Zn974 Zn 0.05557 0.54773 0.03528 0.0
Zn975 Zn 0.05195 0.50135 0.04393 0.0
O976 O 0.03706 0.52482 0.03388 0.0
H977 H 0.0244 0.52441 0.02708 0.0
Zn978 Zn 0.98956 0.49966 0.04974 0.0
O979 O 0.98464 0.5221 0.03166 0.0
Zn980 Zn 0.98615 0.54494 0.0495 0.0
H981 H 0.97704 0.52073 0.01972 0.0
Zn982 Zn 0.05343 0.50245 0.96679 0.0
O983 O 0.05135 0.52566 0.98422 0.0
H984 H 0.05262 0.52497 0.99825 0.0
Zn985 Zn 0.04905 0.54877 0.96661 0.0
C986 C 0.05891 0.46537 0.98844 0.0
O987 O 0.04037 0.46798 0.99425 0.0
O988 O 0.96617 0.50073 0.96503 0.0
O989 O 0.95625 0.53079 0.97069 0.0
O990 O 0.07863 0.50929 0.05565 0.0
O991 O 0.08222 0.54002 0.04747 0.0
O992 O 0.98071 0.50618 0.07777 0.0
O993 O 0.97652 0.53778 0.07657 0.0
C994 C 0.00652 0.56797 0.95936 0.0
O995 O 0.06488 0.51069 0.94051 0.0
O996 O 0.06155 0.54249 0.94009 0.0
O997 O 0.03823 0.47892 0.05908 0.0
C998 C 0.95305 0.51396 0.96408 0.0
O999 O 0.01194 0.47876 0.96141 0.0
C1000 C 0.025 0.56706 0.05696 0.0
O1001 O 0.97868 0.47369 0.03989 0.0
C1002 C 0.08869 0.52468 0.05548 0.0
O1003 O 0.06713 0.47785 0.97765 0.0
C1004 C 0.96787 0.56809 0.0203 0.0
O1005 O 0.98854 0.56526 0.96463 0.0
O1006 O 0.01971 0.55604 0.96527 0.0
C1007 C 0.97546 0.52191 0.08575 0.0
O1008 O 0.04353 0.5676 0.05305 0.0
O1009 O 0.01469 0.55356 0.04975 0.0
C1010 C 0.06575 0.57178 0.99731 0.0
O1011 O 0.96981 0.56655 0.03872 0.0
O1012 O 0.97497 0.55465 0.0097 0.0
C1013 C 0.06731 0.52679 0.93219 0.0
O1014 O 0.06385 0.57064 0.97885 0.0
O1015 O 0.05874 0.55828 0.00773 0.0
C1016 C 0.04061 0.46184 0.05302 0.0
O1017 O 0.05028 0.45888 0.03658 0.0
C1018 C 0.00756 0.46152 0.96546 0.0
O1019 O 0.99418 0.45832 0.97913 0.0
Zn1020 Zn 0.48839 0.49315 0.9958 0.0
Zn1021 Zn 0.49087 0.49255 0.04293 0.0
O1022 O 0.49553 0.50914 0.01934 0.0
H1023 H 0.50105 0.52185 0.0186 0.0
C1024 C 0.52465 0.46104 0.95879 0.0
O1025 O 0.51125 0.47296 0.96598 0.0
Zn1026 Zn 0.54997 0.55083 0.04303 0.0
Zn1027 Zn 0.54982 0.54751 0.99568 0.0
O1028 O 0.5422 0.53369 0.02047 0.0
H1029 H 0.53556 0.52149 0.02108 0.0
Zn1030 Zn 0.55362 0.47363 0.99146 0.0
O1031 O 0.53737 0.47979 0.01576 0.0
Zn1032 Zn 0.55672 0.4813 0.03887 0.0
H1033 H 0.52294 0.48077 0.01562 0.0
Zn1034 Zn 0.48847 0.56387 0.99431 0.0
O1035 O 0.50611 0.5655 0.01867 0.0
H1036 H 0.5191 0.57152 0.01862 0.0
Zn1037 Zn 0.48694 0.56292 0.04169 0.0
C1038 C 0.51274 0.57244 0.95705 0.0
O1039 O 0.526 0.55979 0.96303 0.0
O1040 O 0.47451 0.46815 0.00363 0.0
O1041 O 0.47217 0.47077 0.03612 0.0
O1042 O 0.5662 0.57133 0.00147 0.0
O1043 O 0.56777 0.57247 0.03409 0.0
O1044 O 0.58057 0.46248 0.99981 0.0
O1045 O 0.58292 0.46783 0.03198 0.0
C1046 C 0.48005 0.52667 0.06409 0.0
O1047 O 0.45988 0.57225 0.00149 0.0
O1048 O 0.46021 0.57451 0.03403 0.0
O1049 O 0.56016 0.53386 0.97067 0.0
C1050 C 0.46825 0.46211 0.0201 0.0
O1051 O 0.47661 0.50684 0.97128 0.0
C1052 C 0.56445 0.517 0.06221 0.0
O1053 O 0.54171 0.45956 0.96699 0.0
C1054 C 0.57227 0.579 0.01725 0.0
O1055 O 0.49742 0.57595 0.96757 0.0
C1056 C 0.52605 0.472 0.06464 0.0
O1057 O 0.48083 0.50853 0.06509 0.0
O1058 O 0.48408 0.53489 0.04798 0.0
C1059 C 0.58997 0.46123 0.01596 0.0
O1060 O 0.5626 0.53502 0.06395 0.0
O1061 O 0.56036 0.50911 0.0459 0.0
C1062 C 0.51682 0.57213 0.06759 0.0
O1063 O 0.54468 0.46893 0.06272 0.0
O1064 O 0.51733 0.48153 0.05124 0.0
C1065 C 0.4514 0.5767 0.01757 0.0
O1066 O 0.49823 0.57559 0.06597 0.0
O1067 O 0.52494 0.56238 0.05401 0.0
C1068 C 0.55573 0.51841 0.96191 0.0
O1069 O 0.54215 0.50701 0.96928 0.0
C1070 C 0.48619 0.51881 0.96097 0.0
O1071 O 0.50452 0.52336 0.96596 0.0
Zn1072 Zn 0.98357 0.50061 0.48928 0.0
Zn1073 Zn 0.98282 0.5461 0.48809 0.0
O1074 O 0.00147 0.5237 0.48875 0.0
H1075 H 0.01541 0.52332 0.49249 0.0
C1076 C 0.95058 0.47938 0.52971 0.0
O1077 O 0.94438 0.49686 0.53356 0.0
Zn1078 Zn 0.0595 0.55269 0.53794 0.0
Zn1079 Zn 0.05553 0.50738 0.5375 0.0
O1080 O 0.04154 0.53172 0.52889 0.0
H1081 H 0.02847 0.53306 0.52298 0.0
Zn1082 Zn 0.98386 0.4953 0.54998 0.0
O1083 O 0.98835 0.51993 0.53549 0.0
Zn1084 Zn 0.9879 0.54195 0.5545 0.0
H1085 H 0.9855 0.52036 0.52169 0.0
Zn1086 Zn 0.05991 0.50346 0.47656 0.0
O1087 O 0.06176 0.52735 0.4938 0.0
H1088 H 0.07112 0.52837 0.50452 0.0
Zn1089 Zn 0.0557 0.54875 0.47532 0.0
C1090 C 0.08287 0.47758 0.50263 0.0
O1091 O 0.08274 0.49252 0.51425 0.0
O1092 O 0.9559 0.5067 0.47716 0.0
O1093 O 0.95654 0.5386 0.47529 0.0
O1094 O 0.08117 0.51091 0.5538 0.0
O1095 O 0.08367 0.54264 0.55318 0.0
O1096 O 0.97168 0.50115 0.57675 0.0
O1097 O 0.97585 0.53256 0.58033 0.0
C1098 C 0.01438 0.56708 0.46928 0.0
O1099 O 0.0699 0.50966 0.44893 0.0
O1100 O 0.06702 0.54132 0.44885 0.0
O1101 O 0.04004 0.48262 0.54264 0.0
C1102 C 0.94791 0.52262 0.47233 0.0
O1103 O 0.9978 0.47663 0.47843 0.0
C1104 C 0.02484 0.56772 0.55935 0.0
O1105 O 0.96821 0.47451 0.53478 0.0
C1106 C 0.09028 0.52621 0.55831 0.0
O1107 O 0.07354 0.47845 0.48645 0.0
C1108 C 0.96716 0.56422 0.52633 0.0
O1109 O 0.99571 0.56694 0.4729 0.0
O1110 O 0.02561 0.55389 0.47609 0.0
C1111 C 0.96951 0.51648 0.58662 0.0
O1112 O 0.04305 0.57057 0.55463 0.0
O1113 O 0.01661 0.552 0.55456 0.0
C1114 C 0.07756 0.57629 0.50017 0.0
O1115 O 0.96865 0.56245 0.54471 0.0
O1116 O 0.97868 0.55404 0.51582 0.0
C1117 C 0.07239 0.52574 0.44059 0.0
O1118 O 0.07211 0.57167 0.48299 0.0
O1119 O 0.07065 0.56723 0.51479 0.0
C1120 C 0.02706 0.48265 0.55618 0.0
O1121 O 0.02273 0.49886 0.56503 0.0
C1122 C 0.00134 0.47803 0.46025 0.0
O1123 O 0.99552 0.49357 0.45098 0.0
Zn1124 Zn 0.48742 0.00307 0.4718 0.0
Zn1125 Zn 0.48621 0.0492 0.47747 0.0
O1126 O 0.50481 0.02706 0.47161 0.0
H1127 H 0.51555 0.02795 0.46219 0.0
C1128 C 0.47737 0.97385 0.51508 0.0
O1129 O 0.46645 0.98954 0.51411 0.0
Zn1130 Zn 0.55331 0.04674 0.54727 0.0
Zn1131 Zn 0.54926 1.00061 0.55173 0.0
O1132 O 0.5335 0.02559 0.55114 0.0
H1133 H 0.52192 0.02692 0.55949 0.0
Zn1134 Zn 0.50183 0.99913 0.53925 0.0
O1135 O 0.50129 0.02575 0.52651 0.0
Zn1136 Zn 0.49127 0.04413 0.54709 0.0
H1137 H 0.50211 0.0126 0.53077 0.0
Zn1138 Zn 0.54924 0.00348 0.48104 0.0
O1139 O 0.5371 0.02823 0.4925 0.0
H1140 H 0.53096 0.02937 0.5052 0.0
Zn1141 Zn 0.54567 0.05007 0.47498 0.0
C1142 C 0.5589 0.96562 0.49831 0.0
O1143 O 0.54134 0.9614 0.49082 0.0
O1144 O 0.45887 0.01121 0.46357 0.0
O1145 O 0.46018 0.04324 0.46398 0.0
O1146 O 0.57821 0.00603 0.56053 0.0
O1147 O 0.57973 0.0379 0.55833 0.0
O1148 O 0.48728 0.99877 0.56582 0.0
O1149 O 0.47758 0.02927 0.56836 0.0
C1150 C 0.5136 0.07693 0.45813 0.0
O1151 O 0.56409 0.00849 0.45539 0.0
O1152 O 0.56651 0.04021 0.45645 0.0
O1153 O 0.5362 0.97686 0.56542 0.0
C1154 C 0.45105 0.02763 0.4604 0.0
O1155 O 0.49803 0.9764 0.4605 0.0
C1156 C 0.52575 0.0734 0.56502 0.0
O1157 O 0.49428 0.97453 0.5236 0.0
C1158 C 0.58757 0.02174 0.56258 0.0
O1159 O 0.56495 0.98284 0.49746 0.0
C1160 C 0.46951 0.06335 0.5172 0.0
O1161 O 0.49723 0.07365 0.4669 0.0
O1162 O 0.52639 0.06352 0.45559 0.0
C1163 C 0.47748 0.01201 0.57438 0.0
O1164 O 0.54418 0.06958 0.56241 0.0
O1165 O 0.51263 0.06207 0.55808 0.0
C1166 C 0.56072 0.06948 0.50971 0.0
O1167 O 0.47069 0.06123 0.53556 0.0
O1168 O 0.48094 0.05315 0.50635 0.0
C1169 C 0.57106 0.02412 0.44884 0.0
O1170 O 0.55829 0.07049 0.49131 0.0
O1171 O 0.55507 0.05449 0.51873 0.0
C1172 C 0.53298 0.96135 0.55622 0.0
O1173 O 0.53689 0.96061 0.53742 0.0
C1174 C 0.51364 0.97445 0.44992 0.0
O1175 O 0.52442 0.98963 0.44603 0.0
H1176 H 0.20994 0.17271 0.51334 0.0
H1177 H 0.18353 0.14896 0.51389 0.0
H1178 H 0.14552 0.18781 0.54628 0.0
H1179 H 0.17248 0.21136 0.54688 0.0
H1180 H 0.14107 0.15258 0.5598 0.0
H1181 H 0.13833 0.18147 0.49728 0.0
H1182 H 0.15044 0.1939 0.46572 0.0
H1183 H 0.17004 0.13754 0.44915 0.0
H1184 H 0.15831 0.1248 0.48073 0.0
H1185 H 0.05648 0.09341 0.5269 0.0
H1186 H 0.07907 0.11953 0.53643 0.0
H1187 H 0.12943 0.08703 0.51436 0.0
H1188 H 0.10692 0.06114 0.50484 0.0
H1189 H 0.12296 0.12275 0.49637 0.0
H1190 H 0.12569 0.09526 0.56196 0.0
H1191 H 0.11009 0.08449 0.59268 0.0
H1192 H 0.08588 0.14083 0.60215 0.0
H1193 H 0.1011 0.15185 0.57131 0.0
C1194 C 0.19615 0.17614 0.52092 0.0
C1195 C 0.19336 0.194 0.53003 0.0
C1196 C 0.18093 0.16262 0.521 0.0
C1197 C 0.16241 0.16677 0.52979 0.0
C1198 C 0.15965 0.18438 0.5393 0.0
C1199 C 0.175 0.19788 0.53943 0.0
C1200 C 0.14596 0.15271 0.52859 0.0
C1201 C 0.13689 0.14624 0.5459 0.0
C1202 C 0.14031 0.1446 0.51044 0.0
C1203 C 0.14757 0.15221 0.49146 0.0
C1204 C 0.14537 0.17175 0.48698 0.0
C1205 C 0.15214 0.17884 0.46907 0.0
C1206 C 0.16104 0.16652 0.45546 0.0
C1207 C 0.16316 0.14707 0.45972 0.0
C1208 C 0.15643 0.1399 0.47761 0.0
C1209 C 0.07247 0.09171 0.52476 0.0
C1210 C 0.08019 0.07546 0.51529 0.0
C1211 C 0.0853 0.10655 0.53016 0.0
C1212 C 0.10585 0.10516 0.52598 0.0
C1213 C 0.1136 0.08832 0.51766 0.0
C1214 C 0.10082 0.07357 0.5123 0.0
C1215 C 0.11895 0.12198 0.5276 0.0
C1216 C 0.12713 0.12916 0.51025 0.0
C1217 C 0.12333 0.13095 0.54561 0.0
C1218 C 0.11441 0.12434 0.56426 0.0
C1219 C 0.11693 0.10532 0.57052 0.0
C1220 C 0.10818 0.09917 0.58797 0.0
C1221 C 0.09701 0.11197 0.59936 0.0
C1222 C 0.09457 0.13094 0.59333 0.0
C1223 C 0.10326 0.13714 0.57587 0.0
H1224 H 0.09022 0.10718 0.61286 0.0
H1225 H 0.16625 0.17205 0.44159 0.0
H1226 H 0.83505 0.18054 0.45743 0.0
H1227 H 0.86251 0.15724 0.45533 0.0
H1228 H 0.89544 0.18887 0.49891 0.0
H1229 H 0.86816 0.21222 0.50095 0.0
H1230 H 0.92031 0.17598 0.47155 0.0
H1231 H 0.86845 0.15033 0.51169 0.0
H1232 H 0.83429 0.14021 0.52036 0.0
H1233 H 0.83485 0.09954 0.47322 0.0
H1234 H 0.86895 0.10963 0.4641 0.0
H1235 H 0.97621 0.10566 0.52237 0.0
H1236 H 0.95479 0.13109 0.50965 0.0
H1237 H 0.93322 0.09314 0.46459 0.0
H1238 H 0.95417 0.06751 0.47778 0.0
H1239 H 0.90338 0.10859 0.48661 0.0
H1240 H 0.96148 0.13266 0.45282 0.0
H1241 H 0.99703 0.14209 0.45173 0.0
H1242 H 0.98582 0.18583 0.49456 0.0
H1243 H 0.95031 0.17657 0.49611 0.0
C1244 C 0.84819 0.18254 0.46649 0.0
C1245 C 0.84944 0.19812 0.47942 0.0
C1246 C 0.86388 0.16928 0.46523 0.0
C1247 C 0.88093 0.17126 0.47708 0.0
C1248 C 0.88248 0.18715 0.48953 0.0
C1249 C 0.86687 0.20046 0.4907 0.0
C1250 C 0.89653 0.15614 0.4776 0.0
C1251 C 0.91664 0.16122 0.47477 0.0
C1252 C 0.89171 0.13689 0.48175 0.0
C1253 C 0.87112 0.13094 0.48702 0.0
C1254 C 0.8612 0.13938 0.50304 0.0
C1255 C 0.84187 0.13362 0.50807 0.0
C1256 C 0.83237 0.1193 0.4973 0.0
C1257 C 0.8422 0.11068 0.4815 0.0
C1258 C 0.86153 0.11641 0.4764 0.0
C1259 C 0.9672 0.1028 0.50951 0.0
C1260 C 0.96685 0.08447 0.50104 0.0
C1261 C 0.95511 0.11743 0.50214 0.0
C1262 C 0.94255 0.11404 0.48606 0.0
C1263 C 0.94293 0.09607 0.47693 0.0
C1264 C 0.95502 0.08142 0.48438 0.0
C1265 C 0.92718 0.12839 0.48065 0.0
C1266 C 0.90705 0.12319 0.4827 0.0
C1267 C 0.93209 0.1476 0.47644 0.0
C1268 C 0.95322 0.15387 0.47462 0.0
C1269 C 0.96659 0.1443 0.46199 0.0
C1270 C 0.98674 0.1496 0.46131 0.0
C1271 C 0.99366 0.16449 0.47314 0.0
C1272 C 0.98042 0.17429 0.48544 0.0
C1273 C 0.96028 0.16906 0.48617 0.0
H1274 H 0.00928 0.16842 0.47288 0.0
H1275 H 0.81741 0.11484 0.50123 0.0
H1276 H 0.87981 0.82525 0.50088 0.0
H1277 H 0.90628 0.84904 0.49872 0.0
H1278 H 0.86239 0.89241 0.48435 0.0
H1279 H 0.83604 0.86849 0.48513 0.0
H1280 H 0.89439 0.8979 0.46361 0.0
H1281 H 0.88122 0.88584 0.5318 0.0
H1282 H 0.87805 0.86626 0.56161 0.0
H1283 H 0.93967 0.84892 0.55664 0.0
H1284 H 0.94313 0.86822 0.52664 0.0
H1285 H 0.9385 0.98297 0.49916 0.0
H1286 H 0.91945 0.95512 0.48892 0.0
H1287 H 0.96917 0.91835 0.50453 0.0
H1288 H 0.98796 0.9462 0.51569 0.0
H1289 H 0.93755 0.90695 0.52189 0.0
H1290 H 0.95041 0.92358 0.45423 0.0
H1291 H 0.95128 0.94425 0.4249 0.0
H1292 H 0.88839 0.95566 0.43063 0.0
H1293 H 0.88699 0.93497 0.45979 0.0
C1294 C 0.87581 0.83976 0.49686 0.0
C1295 C 0.85573 0.84497 0.49334 0.0
C1296 C 0.89096 0.8534 0.49585 0.0
C1297 C 0.88628 0.87258 0.49172 0.0
C1298 C 0.86636 0.87771 0.48765 0.0
C1299 C 0.85126 0.86404 0.48837 0.0
C1300 C 0.90191 0.88753 0.49236 0.0
C1301 C 0.90381 0.89996 0.47636 0.0
C1302 C 0.91445 0.88996 0.50886 0.0
C1303 C 0.91236 0.87827 0.52684 0.0
C1304 C 0.89404 0.87772 0.53697 0.0
C1305 C 0.8922 0.8667 0.55392 0.0
C1306 C 0.90863 0.8563 0.56098 0.0
C1307 C 0.92694 0.85694 0.55113 0.0
C1308 C 0.92885 0.86792 0.53415 0.0
C1309 C 0.94554 0.96899 0.50004 0.0
C1310 C 0.96456 0.9667 0.50854 0.0
C1311 C 0.93469 0.95305 0.49397 0.0
C1312 C 0.94289 0.93458 0.49582 0.0
C1313 C 0.9625 0.93244 0.50301 0.0
C1314 C 0.97321 0.94835 0.50943 0.0
C1315 C 0.93004 0.91754 0.49315 0.0
C1316 C 0.92853 0.90471 0.50888 0.0
C1317 C 0.91764 0.915 0.47654 0.0
C1318 C 0.91862 0.92777 0.45924 0.0
C1319 C 0.9368 0.93059 0.44931 0.0
C1320 C 0.93738 0.94226 0.43271 0.0
C1321 C 0.91995 0.95125 0.42598 0.0
C1322 C 0.90187 0.94864 0.43583 0.0
C1323 C 0.90115 0.93688 0.45233 0.0
H1324 H 0.92047 0.96023 0.41311 0.0
H1325 H 0.90718 0.84778 0.57411 0.0
H1326 H 0.20562 0.86773 0.53717 0.0
H1327 H 0.17866 0.89106 0.54025 0.0
H1328 H 0.13626 0.84921 0.51978 0.0
H1329 H 0.16349 0.82608 0.5153 0.0
H1330 H 0.12923 0.88128 0.50257 0.0
H1331 H 0.13886 0.8639 0.56921 0.0
H1332 H 0.1578 0.8574 0.59949 0.0
H1333 H 0.17723 0.91581 0.6013 0.0
H1334 H 0.15864 0.92261 0.57087 0.0
H1335 H 0.05244 0.94691 0.51488 0.0
H1336 H 0.07107 0.91899 0.52671 0.0
H1337 H 0.12345 0.95388 0.53496 0.0
H1338 H 0.10472 0.98199 0.52384 0.0
H1339 H 0.12093 0.92213 0.56158 0.0
H1340 H 0.12001 0.93379 0.48915 0.0
H1341 H 0.09918 0.94199 0.46041 0.0
H1342 H 0.0606 0.89462 0.47284 0.0
H1343 H 0.08156 0.88586 0.50119 0.0
C1344 C 0.19062 0.86349 0.53308 0.0
C1345 C 0.18679 0.845 0.52587 0.0
C1346 C 0.17512 0.87678 0.53521 0.0
C1347 C 0.15533 0.87179 0.53066 0.0
C1348 C 0.15139 0.85333 0.52356 0.0
C1349 C 0.16697 0.84007 0.52115 0.0
C1350 C 0.13905 0.88626 0.53225 0.0
C1351 C 0.12718 0.88984 0.51568 0.0
C1352 C 0.13639 0.89769 0.54925 0.0
C1353 C 0.14744 0.89373 0.56768 0.0
C1354 C 0.14726 0.87533 0.576 0.0
C1355 C 0.15793 0.8716 0.5932 0.0
C1356 C 0.16873 0.88617 0.60229 0.0
C1357 C 0.16885 0.90453 0.59424 0.0
C1358 C 0.15823 0.90834 0.57703 0.0
C1359 C 0.06776 0.94871 0.51975 0.0
C1360 C 0.07733 0.96645 0.51797 0.0
C1361 C 0.07834 0.9328 0.52657 0.0
C1362 C 0.09875 0.93434 0.53118 0.0
C1363 C 0.10773 0.95241 0.53136 0.0
C1364 C 0.09704 0.96843 0.52488 0.0
C1365 C 0.11154 0.91702 0.53196 0.0
C1366 C 0.1228 0.91311 0.54878 0.0
C1367 C 0.1136 0.90513 0.51533 0.0
C1368 C 0.10238 0.9091 0.49711 0.0
C1369 C 0.10728 0.92495 0.48547 0.0
C1370 C 0.09545 0.9297 0.46927 0.0
C1371 C 0.07863 0.91877 0.4647 0.0
C1372 C 0.07375 0.90294 0.47619 0.0
C1373 C 0.0857 0.89796 0.49222 0.0
H1374 H 0.06934 0.92259 0.4523 0.0
H1375 H 0.177 0.88325 0.6156 0.0
H1376 H 0.5086 0.16927 0.21637 0.0
H1377 H 0.50856 0.14258 0.19325 0.0
H1378 H 0.48927 0.1808 0.14728 0.0
H1379 H 0.48777 0.20708 0.1705 0.0
H1380 H 0.4715 0.14891 0.14271 0.0
H1381 H 0.54018 0.16708 0.15574 0.0
H1382 H 0.57024 0.17233 0.17601 0.0
H1383 H 0.56964 0.11347 0.19389 0.0
H1384 H 0.5394 0.10794 0.17391 0.0
H1385 H 0.51469 0.11491 0.05514 0.0
H1386 H 0.50261 0.13088 0.08455 0.0
H1387 H 0.52019 0.08198 0.1192 0.0
H1388 H 0.53299 0.06612 0.0898 0.0
H1389 H 0.53526 0.11328 0.13365 0.0
H1390 H 0.46994 0.09574 0.11075 0.0
H1391 H 0.44177 0.09348 0.08742 0.0
H1392 H 0.43767 0.15465 0.08478 0.0
H1393 H 0.46627 0.15743 0.10734 0.0
C1394 C 0.50394 0.17191 0.20144 0.0
C1395 C 0.49847 0.19042 0.19525 0.0
C1396 C 0.50414 0.15666 0.18818 0.0
C1397 C 0.49929 0.15974 0.16843 0.0
C1398 C 0.49316 0.17804 0.16242 0.0
C1399 C 0.49261 0.19317 0.17568 0.0
C1400 C 0.5014 0.14431 0.15363 0.0
C1401 C 0.48546 0.14113 0.14064 0.0
C1402 C 0.51942 0.13378 0.15131 0.0
C1403 C 0.53737 0.13718 0.16358 0.0
C1404 C 0.54634 0.15532 0.16416 0.0
C1405 C 0.56343 0.15833 0.17556 0.0
C1406 C 0.5718 0.14326 0.1863 0.0
C1407 C 0.56311 0.12514 0.18563 0.0
C1408 C 0.54599 0.12206 0.17428 0.0
C1409 C 0.51573 0.10741 0.06896 0.0
C1410 C 0.52503 0.08936 0.0702 0.0
C1411 C 0.50861 0.1165 0.08577 0.0
C1412 C 0.51028 0.10755 0.10407 0.0
C1413 C 0.51871 0.08912 0.10521 0.0
C1414 C 0.52605 0.0801 0.08842 0.0
C1415 C 0.50564 0.11842 0.12214 0.0
C1416 C 0.5211 0.12068 0.13587 0.0
C1417 C 0.48738 0.12854 0.12472 0.0
C1418 C 0.47033 0.12678 0.11082 0.0
C1419 C 0.46319 0.10873 0.10506 0.0
C1420 C 0.44713 0.10735 0.09199 0.0
C1421 C 0.43785 0.12388 0.08483 0.0
C1422 C 0.44481 0.14185 0.09043 0.0
C1423 C 0.46098 0.14334 0.10332 0.0
H1424 H 0.4252 0.12276 0.07503 0.0
H1425 H 0.58505 0.14561 0.19508 0.0
H1426 H 0.83108 0.54518 0.2032 0.0
H1427 H 0.86106 0.54586 0.18277 0.0
H1428 H 0.86675 0.48447 0.18782 0.0
H1429 H 0.83713 0.48394 0.20903 0.0
H1430 H 0.90181 0.49921 0.19092 0.0
H1431 H 0.84868 0.50656 0.14538 0.0
H1432 H 0.81769 0.51979 0.13098 0.0
H1433 H 0.84558 0.57466 0.12509 0.0
H1434 H 0.87667 0.56181 0.13972 0.0
H1435 H 0.96501 0.4902 0.10661 0.0
H1436 H 0.9405 0.48873 0.13285 0.0
H1437 H 0.93715 0.55038 0.13421 0.0
H1438 H 0.96135 0.55204 0.1075 0.0
H1439 H 0.90126 0.53437 0.12795 0.0
H1440 H 0.95624 0.52329 0.1733 0.0
H1441 H 0.9866 0.5063 0.18464 0.0
H1442 H 0.954 0.4536 0.18696 0.0
H1443 H 0.92349 0.47024 0.17546 0.0
C1444 C 0.8387 0.53185 0.19983 0.0
C1445 C 0.83183 0.5145 0.2075 0.0
C1446 C 0.85578 0.53222 0.18813 0.0
C1447 C 0.86598 0.51517 0.18347 0.0
C1448 C 0.85913 0.4978 0.19122 0.0
C1449 C 0.84223 0.49748 0.20324 0.0
C1450 C 0.88386 0.51561 0.17064 0.0
C1451 C 0.90164 0.50674 0.17705 0.0
C1452 C 0.88367 0.52543 0.15255 0.0
C1453 C 0.86494 0.53326 0.14384 0.0
C1454 C 0.84815 0.52149 0.14118 0.0
C1455 C 0.83058 0.52891 0.13294 0.0
C1456 C 0.82965 0.54807 0.12718 0.0
C1457 C 0.84631 0.55983 0.1296 0.0
C1458 C 0.86392 0.55248 0.13784 0.0
C1459 C 0.9595 0.5035 0.11281 0.0
C1460 C 0.96488 0.52125 0.10472 0.0
C1461 C 0.94552 0.50261 0.12791 0.0
C1462 C 0.93695 0.51944 0.13543 0.0
C1463 C 0.94353 0.53722 0.12851 0.0
C1464 C 0.95741 0.53814 0.11328 0.0
C1465 C 0.91932 0.51847 0.14847 0.0
C1466 C 0.90148 0.52705 0.14194 0.0
C1467 C 0.91936 0.5079 0.1661 0.0
C1468 C 0.93761 0.49801 0.17342 0.0
C1469 C 0.95557 0.50807 0.17616 0.0
C1470 C 0.9728 0.4985 0.18262 0.0
C1471 C 0.97223 0.47888 0.18649 0.0
C1472 C 0.95441 0.4688 0.18397 0.0
C1473 C 0.93714 0.4783 0.17753 0.0
H1474 H 0.9856 0.4715 0.19146 0.0
H1475 H 0.81603 0.55378 0.12079 0.0
H1476 H 0.57916 0.87004 0.20773 0.0
H1477 H 0.57607 0.89649 0.18436 0.0
H1478 H 0.53558 0.86287 0.14936 0.0
H1479 H 0.53848 0.83656 0.17258 0.0
H1480 H 0.56265 0.88125 0.12672 0.0
H1481 H 0.51839 0.89697 0.18119 0.0
H1482 H 0.51083 0.90369 0.21585 0.0
H1483 H 0.55235 0.95035 0.21547 0.0
H1484 H 0.56032 0.94374 0.18085 0.0
H1485 H 0.49723 0.94076 0.07545 0.0
H1486 H 0.51324 0.919 0.09852 0.0
H1487 H 0.5523 0.96414 0.11785 0.0
H1488 H 0.53638 0.98621 0.0945 0.0
H1489 H 0.53379 0.9433 0.14856 0.0
H1490 H 0.57264 0.93146 0.09195 0.0
H1491 H 0.57927 0.92524 0.05704 0.0
H1492 H 0.54839 0.87171 0.06097 0.0
H1493 H 0.54117 0.87778 0.09581 0.0
C1494 C 0.56957 0.86833 0.19506 0.0
C1495 C 0.55908 0.8512 0.19199 0.0
C1496 C 0.56788 0.88341 0.18171 0.0
C1497 C 0.55555 0.88165 0.16516 0.0
C1498 C 0.54531 0.86447 0.16194 0.0
C1499 C 0.54701 0.84943 0.17522 0.0
C1500 C 0.55252 0.89782 0.15144 0.0
C1501 C 0.55632 0.89482 0.13146 0.0
C1502 C 0.54495 0.91576 0.15775 0.0
C1503 C 0.54013 0.91972 0.17853 0.0
C1504 C 0.52602 0.90856 0.18855 0.0
C1505 C 0.52164 0.91237 0.20818 0.0
C1506 C 0.53115 0.9274 0.21788 0.0
C1507 C 0.54503 0.93869 0.20795 0.0
C1508 C 0.54948 0.93492 0.18833 0.0
C1509 C 0.50921 0.94614 0.08458 0.0
C1510 C 0.51551 0.96524 0.08317 0.0
C1511 C 0.51843 0.93363 0.09767 0.0
C1512 C 0.53408 0.93993 0.10969 0.0
C1513 C 0.5403 0.95903 0.10858 0.0
C1514 C 0.53119 0.97158 0.09527 0.0
C1515 C 0.54323 0.92644 0.1238 0.0
C1516 C 0.54059 0.92993 0.14384 0.0
C1517 C 0.55189 0.90896 0.11753 0.0
C1518 C 0.55624 0.90515 0.09653 0.0
C1519 C 0.56707 0.91845 0.08535 0.0
C1520 C 0.57094 0.91495 0.06556 0.0
C1521 C 0.56424 0.8981 0.05679 0.0
C1522 C 0.5536 0.88474 0.06779 0.0
C1523 C 0.54961 0.88821 0.08757 0.0
H1524 H 0.56731 0.89539 0.04148 0.0
H1525 H 0.52773 0.93033 0.23307 0.0
H1526 H 0.19752 0.53362 0.20667 0.0
H1527 H 0.17362 0.53264 0.17964 0.0
H1528 H 0.22158 0.54185 0.13853 0.0
H1529 H 0.24546 0.54384 0.16554 0.0
H1530 H 0.18804 0.56198 0.12873 0.0
H1531 H 0.20425 0.49669 0.14808 0.0
H1532 H 0.20706 0.47026 0.17184 0.0
H1533 H 0.14407 0.47452 0.18386 0.0
H1534 H 0.14094 0.50113 0.16038 0.0
H1535 H 0.12699 0.53598 0.04705 0.0
H1536 H 0.1551 0.53776 0.07031 0.0
H1537 H 0.11585 0.51919 0.11676 0.0
H1538 H 0.08864 0.51595 0.09338 0.0
H1539 H 0.14824 0.50269 0.12174 0.0
H1540 H 0.13073 0.56861 0.10736 0.0
H1541 H 0.12539 0.5963 0.08556 0.0
H1542 H 0.1867 0.59291 0.06685 0.0
H1543 H 0.19233 0.56506 0.0884 0.0
C1544 C 0.20294 0.53583 0.19192 0.0
C1545 C 0.22343 0.53861 0.18823 0.0
C1546 C 0.1893 0.53507 0.17649 0.0
C1547 C 0.19595 0.53677 0.1571 0.0
C1548 C 0.21622 0.54034 0.1534 0.0
C1549 C 0.22985 0.54127 0.16883 0.0
C1550 C 0.18191 0.5341 0.14063 0.0
C1551 C 0.17945 0.54895 0.12704 0.0
C1552 C 0.17052 0.51722 0.13868 0.0
C1553 C 0.1724 0.50098 0.15256 0.0
C1554 C 0.19103 0.49204 0.15586 0.0
C1555 C 0.19267 0.47703 0.16928 0.0
C1556 C 0.17576 0.47073 0.17938 0.0
C1557 C 0.15715 0.47941 0.17604 0.0
C1558 C 0.15544 0.49444 0.16266 0.0
C1559 C 0.12465 0.53214 0.06222 0.0
C1560 C 0.10592 0.52574 0.06858 0.0
C1561 C 0.14056 0.53329 0.07551 0.0
C1562 C 0.13754 0.52887 0.09539 0.0
C1563 C 0.11868 0.52253 0.10153 0.0
C1564 C 0.10312 0.52073 0.08821 0.0
C1565 C 0.15369 0.53087 0.11012 0.0
C1566 C 0.15678 0.51576 0.12333 0.0
C1567 C 0.16518 0.54773 0.11202 0.0
C1568 C 0.16189 0.56467 0.09935 0.0
C1569 C 0.14304 0.57374 0.09854 0.0
C1570 C 0.13996 0.58945 0.08623 0.0
C1571 C 0.15568 0.59633 0.07479 0.0
C1572 C 0.17453 0.58755 0.0757 0.0
C1573 C 0.17768 0.57182 0.08797 0.0
H1574 H 0.15327 0.60849 0.06526 0.0
H1575 H 0.17707 0.45912 0.18977 0.0
H1576 H 0.52708 0.86901 0.81241 0.0
H1577 H 0.52549 0.89461 0.83675 0.0
H1578 H 0.55947 0.85982 0.87712 0.0
H1579 H 0.56129 0.8342 0.85278 0.0
H1580 H 0.52676 0.87468 0.89421 0.0
H1581 H 0.58052 0.89824 0.855 0.0
H1582 H 0.59737 0.90782 0.8245 0.0
H1583 H 0.55286 0.95148 0.81507 0.0
H1584 H 0.53554 0.94196 0.84537 0.0
H1585 H 0.54169 0.94869 0.96441 0.0
H1586 H 0.55208 0.92733 0.93764 0.0
H1587 H 0.50487 0.95015 0.90127 0.0
H1588 H 0.494 0.97097 0.92812 0.0
H1589 H 0.54672 0.94202 0.8826 0.0
H1590 H 0.4906 0.91505 0.91824 0.0
H1591 H 0.47314 0.90588 0.94855 0.0
H1592 H 0.52222 0.86888 0.96411 0.0
H1593 H 0.54012 0.8781 0.93399 0.0
C1594 C 0.53454 0.86693 0.82633 0.0
C1595 C 0.54431 0.84955 0.83066 0.0
C1596 C 0.53359 0.88158 0.84024 0.0
C1597 C 0.5425 0.87918 0.8587 0.0
C1598 C 0.55248 0.86195 0.86297 0.0
C1599 C 0.55344 0.84731 0.84908 0.0
C1600 C 0.54048 0.89422 0.8739 0.0
C1601 C 0.53149 0.8893 0.89174 0.0
C1602 C 0.5462 0.91343 0.87056 0.0
C1603 C 0.55663 0.91927 0.85238 0.0
C1604 C 0.57423 0.90979 0.84635 0.0
C1605 C 0.58388 0.91522 0.82911 0.0
C1606 C 0.57617 0.93022 0.81783 0.0
C1607 C 0.55881 0.93985 0.82381 0.0
C1608 C 0.54908 0.93445 0.84103 0.0
C1609 C 0.53388 0.94944 0.95055 0.0
C1610 C 0.51705 0.96137 0.9483 0.0
C1611 C 0.53978 0.93726 0.93532 0.0
C1612 C 0.52921 0.93725 0.91755 0.0
C1613 C 0.51324 0.95007 0.91485 0.0
C1614 C 0.50701 0.96184 0.93021 0.0
C1615 C 0.53316 0.92232 0.90271 0.0
C1616 C 0.54232 0.9273 0.88501 0.0
C1617 C 0.52756 0.90316 0.90606 0.0
C1618 C 0.5168 0.89745 0.92405 0.0
C1619 C 0.49775 0.90511 0.92824 0.0
C1620 C 0.48776 0.89988 0.94535 0.0
C1621 C 0.49659 0.88686 0.95829 0.0
C1622 C 0.51542 0.879 0.9541 0.0
C1623 C 0.52549 0.88422 0.93701 0.0
H1624 H 0.48883 0.88281 0.97153 0.0
H1625 H 0.58367 0.9344 0.80449 0.0
H1626 H 0.1951 0.56526 0.79572 0.0
H1627 H 0.16504 0.56207 0.81588 0.0
H1628 H 0.19427 0.51798 0.84981 0.0
H1629 H 0.22413 0.52068 0.82938 0.0
H1630 H 0.15655 0.50798 0.83947 0.0
H1631 H 0.18923 0.56277 0.86772 0.0
H1632 H 0.20446 0.59481 0.86758 0.0
H1633 H 0.14914 0.61931 0.84713 0.0
H1634 H 0.13365 0.58736 0.8469 0.0
H1635 H 0.0975 0.50236 0.92377 0.0
H1636 H 0.12256 0.50531 0.89844 0.0
H1637 H 0.09176 0.55492 0.87548 0.0
H1638 H 0.06717 0.55288 0.90212 0.0
H1639 H 0.12806 0.56247 0.87701 0.0
H1640 H 0.09432 0.50706 0.85168 0.0
H1641 H 0.07958 0.47483 0.85335 0.0
H1642 H 0.13684 0.45105 0.86899 0.0
H1643 H 0.15189 0.48313 0.86765 0.0
C1644 C 0.19509 0.55485 0.80744 0.0
C1645 C 0.21199 0.54325 0.811 0.0
C1646 C 0.17797 0.55313 0.81901 0.0
C1647 C 0.1775 0.53986 0.83438 0.0
C1648 C 0.19435 0.52831 0.838 0.0
C1649 C 0.21146 0.53002 0.82646 0.0
C1650 C 0.15939 0.53783 0.84664 0.0
C1651 C 0.15032 0.51984 0.84779 0.0
C1652 C 0.15103 0.55345 0.85701 0.0
C1653 C 0.16037 0.57264 0.85704 0.0
C1654 C 0.18038 0.57496 0.863 0.0
C1655 C 0.18904 0.59311 0.86303 0.0
C1656 C 0.1778 0.60908 0.85728 0.0
C1657 C 0.15784 0.60693 0.85153 0.0
C1658 C 0.14912 0.5888 0.85146 0.0
C1659 C 0.09575 0.51369 0.91309 0.0
C1660 C 0.08027 0.52731 0.91479 0.0
C1661 C 0.11007 0.51527 0.89845 0.0
C1662 C 0.10879 0.53002 0.8846 0.0
C1663 C 0.09292 0.54332 0.88589 0.0
C1664 C 0.07888 0.54213 0.90102 0.0
C1665 C 0.12505 0.53251 0.87002 0.0
C1666 C 0.1339 0.55062 0.86843 0.0
C1667 C 0.13319 0.51694 0.85924 0.0
C1668 C 0.12421 0.49755 0.85961 0.0
C1669 C 0.10376 0.49496 0.85552 0.0
C1670 C 0.09535 0.47671 0.85642 0.0
C1671 C 0.10726 0.4609 0.86129 0.0
C1672 C 0.12763 0.4633 0.8652 0.0
C1673 C 0.13612 0.48151 0.86433 0.0
H1674 H 0.10071 0.4468 0.86201 0.0
H1675 H 0.18453 0.62312 0.85732 0.0
H1676 H 0.52065 0.18695 0.82023 0.0
H1677 H 0.52326 0.16123 0.84427 0.0
H1678 H 0.46006 0.16687 0.85671 0.0
H1679 H 0.45777 0.19347 0.83332 0.0
H1680 H 0.47882 0.16183 0.88911 0.0
H1681 H 0.48046 0.12878 0.82801 0.0
H1682 H 0.49156 0.12177 0.79433 0.0
H1683 H 0.55117 0.1104 0.81509 0.0
H1684 H 0.54052 0.1176 0.84885 0.0
H1685 H 0.49288 0.0783 0.94917 0.0
H1686 H 0.47966 0.09833 0.92259 0.0
H1687 H 0.53992 0.1087 0.90259 0.0
H1688 H 0.5531 0.08856 0.92856 0.0
H1689 H 0.51531 0.10193 0.87249 0.0
H1690 H 0.51412 0.14115 0.93222 0.0
H1691 H 0.50293 0.14657 0.9662 0.0
H1692 H 0.44154 0.14465 0.94758 0.0
H1693 H 0.45239 0.13909 0.91349 0.0
C1694 C 0.50734 0.18261 0.82809 0.0
C1695 C 0.48899 0.19195 0.82493 0.0
C1696 C 0.50877 0.16785 0.84171 0.0
C1697 C 0.49172 0.16172 0.85193 0.0
C1698 C 0.47338 0.17124 0.8489 0.0
C1699 C 0.47205 0.18636 0.83557 0.0
C1700 C 0.49334 0.14572 0.86612 0.0
C1701 C 0.48642 0.14858 0.88533 0.0
C1702 C 0.50327 0.12837 0.86127 0.0
C1703 C 0.50968 0.12381 0.84097 0.0
C1704 C 0.49596 0.12487 0.82538 0.0
C1705 C 0.50217 0.12086 0.80628 0.0
C1706 C 0.52206 0.11566 0.80257 0.0
C1707 C 0.53577 0.11442 0.81798 0.0
C1708 C 0.52964 0.11843 0.83711 0.0
C1709 C 0.50325 0.08474 0.93898 0.0
C1710 C 0.52403 0.08195 0.94102 0.0
C1711 C 0.49569 0.0962 0.92387 0.0
C1712 C 0.50884 0.10512 0.91073 0.0
C1713 C 0.5295 0.10192 0.91252 0.0
C1714 C 0.53702 0.09047 0.92747 0.0
C1715 C 0.50156 0.11845 0.89548 0.0
C1716 C 0.50733 0.11505 0.87606 0.0
C1717 C 0.49053 0.1352 0.90011 0.0
C1718 C 0.48405 0.13953 0.92038 0.0
C1719 C 0.49824 0.1419 0.93539 0.0
C1720 C 0.49196 0.14498 0.95466 0.0
C1721 C 0.47154 0.14588 0.95905 0.0
C1722 C 0.45735 0.14393 0.94415 0.0
C1723 C 0.46355 0.14085 0.92485 0.0
H1724 H 0.46672 0.14804 0.974 0.0
H1725 H 0.52684 0.11258 0.78777 0.0
H1726 H 0.79568 0.52107 0.85517 0.0
H1727 H 0.81966 0.51984 0.88216 0.0
H1728 H 0.8642 0.49555 0.84358 0.0
H1729 H 0.84007 0.49614 0.81662 0.0
H1730 H 0.86263 0.47688 0.87868 0.0
H1731 H 0.86621 0.54219 0.85608 0.0
H1732 H 0.85283 0.57404 0.84737 0.0
H1733 H 0.83006 0.58113 0.90569 0.0
H1734 H 0.8431 0.54922 0.91467 0.0
H1735 H 0.9512 0.49272 0.93131 0.0
H1736 H 0.92327 0.4897 0.90887 0.0
H1737 H 0.88612 0.52317 0.94795 0.0
H1738 H 0.91492 0.52757 0.96983 0.0
H1739 H 0.88154 0.53594 0.91429 0.0
H1740 H 0.88037 0.47121 0.93794 0.0
H1741 H 0.89459 0.43964 0.94659 0.0
H1742 H 0.91307 0.43107 0.88707 0.0
H1743 H 0.89913 0.46262 0.87808 0.0
C1744 C 0.81053 0.51533 0.85246 0.0
C1745 C 0.81599 0.50868 0.83378 0.0
C1746 C 0.82424 0.51477 0.86785 0.0
C1747 C 0.8437 0.50772 0.8648 0.0
C1748 C 0.84923 0.50104 0.8462 0.0
C1749 C 0.8355 0.50157 0.83078 0.0
C1750 C 0.85833 0.50735 0.88103 0.0
C1751 C 0.86692 0.48977 0.88645 0.0
C1752 C 0.8634 0.52411 0.89143 0.0
C1753 C 0.85543 0.54323 0.88597 0.0
C1754 C 0.85818 0.55047 0.86699 0.0
C1755 C 0.8507 0.56855 0.86202 0.0
C1756 C 0.84054 0.57958 0.87595 0.0
C1757 C 0.83789 0.57256 0.8949 0.0
C1758 C 0.84534 0.55449 0.89994 0.0
C1759 C 0.93697 0.49916 0.9353 0.0
C1760 C 0.9351 0.51033 0.95229 0.0
C1761 C 0.9209 0.49725 0.92252 0.0
C1762 C 0.90235 0.50579 0.92687 0.0
C1763 C 0.90026 0.51638 0.94429 0.0
C1764 C 0.91663 0.51887 0.9568 0.0
C1765 C 0.88597 0.50539 0.91221 0.0
C1766 C 0.87706 0.52289 0.90692 0.0
C1767 C 0.88058 0.48849 0.90202 0.0
C1768 C 0.88874 0.46935 0.90736 0.0
C1769 C 0.88752 0.46262 0.92671 0.0
C1770 C 0.89552 0.44472 0.93167 0.0
C1771 C 0.90473 0.43336 0.9174 0.0
C1772 C 0.90591 0.43986 0.89811 0.0
C1773 C 0.89791 0.45774 0.89307 0.0
H1774 H 0.91092 0.41952 0.92128 0.0
H1775 H 0.83477 0.59358 0.87208 0.0
H1776 H 0.72221 0.68453 0.98935 0.0
H1777 H 0.6941 0.66256 0.99137 0.0
H1778 H 0.65954 0.70526 0.02237 0.0
H1779 H 0.68806 0.72687 0.0216 0.0
H1780 H 0.65488 0.67191 0.03879 0.0
H1781 H 0.6517 0.6951 0.97265 0.0
H1782 H 0.66488 0.70225 0.93978 0.0
H1783 H 0.67772 0.64265 0.93055 0.0
H1784 H 0.66485 0.63516 0.96346 0.0
H1785 H 0.5678 0.61437 0.03327 0.0
H1786 H 0.59039 0.64166 0.02929 0.0
H1787 H 0.63021 0.60639 0.99455 0.0
H1788 H 0.60682 0.57981 0.99721 0.0
H1789 H 0.62905 0.63942 0.97943 0.0
H1790 H 0.63672 0.61678 0.04666 0.0
H1791 H 0.62291 0.60877 0.07909 0.0
H1792 H 0.60182 0.66656 0.08597 0.0
H1793 H 0.61535 0.67485 0.05348 0.0
C1794 C 0.70875 0.68918 0.99685 0.0
C1795 C 0.7074 0.70751 0.00526 0.0
C1796 C 0.69257 0.6767 0.99772 0.0
C1797 C 0.67458 0.68244 0.00665 0.0
C1798 C 0.67324 0.70062 0.01526 0.0
C1799 C 0.6895 0.71301 0.01463 0.0
C1800 C 0.65735 0.66928 0.00744 0.0
C1801 C 0.64904 0.66502 0.02577 0.0
C1802 C 0.64988 0.66013 0.99048 0.0
C1803 C 0.65742 0.6646 0.97058 0.0
C1804 C 0.65743 0.68353 0.96365 0.0
C1805 C 0.66484 0.68764 0.94501 0.0
C1806 C 0.67216 0.67292 0.9331 0.0
C1807 C 0.67205 0.65404 0.93979 0.0
C1808 C 0.66467 0.64985 0.95843 0.0
C1809 C 0.5814 0.61263 0.0248 0.0
C1810 C 0.58587 0.59516 0.0157 0.0
C1811 C 0.5943 0.62811 0.02256 0.0
C1812 C 0.61224 0.62596 0.01198 0.0
C1813 C 0.61648 0.60843 0.00277 0.0
C1814 C 0.60326 0.59323 0.00441 0.0
C1815 C 0.62704 0.6416 0.01083 0.0
C1816 C 0.63482 0.64642 0.99243 0.0
C1817 C 0.63415 0.65114 0.02772 0.0
C1818 C 0.62694 0.64639 0.04763 0.0
C1819 C 0.62917 0.62777 0.05512 0.0
C1820 C 0.62135 0.62318 0.07348 0.0
C1821 C 0.61145 0.63714 0.08457 0.0
C1822 C 0.60948 0.65576 0.07737 0.0
C1823 C 0.61725 0.66042 0.059 0.0
H1824 H 0.60533 0.63353 0.09874 0.0
H1825 H 0.67791 0.67613 0.91868 0.0
H1826 H 0.33686 0.71965 0.02386 0.0
H1827 H 0.36134 0.6935 0.02307 0.0
H1828 H 0.31719 0.6564 0.99723 0.0
H1829 H 0.29266 0.68254 0.99778 0.0
H1830 H 0.33685 0.63939 0.0278 0.0
H1831 H 0.35385 0.67439 0.96933 0.0
H1832 H 0.36305 0.70295 0.95028 0.0
H1833 H 0.41624 0.70949 0.98495 0.0
H1834 H 0.40722 0.68111 0.00438 0.0
H1835 H 0.42848 0.58389 0.98524 0.0
H1836 H 0.3999 0.60568 0.98293 0.0
H1837 H 0.40215 0.61505 0.04526 0.0
H1838 H 0.43073 0.59321 0.04784 0.0
H1839 H 0.40242 0.64454 0.99409 0.0
H1840 H 0.36102 0.62121 0.06082 0.0
H1841 H 0.35292 0.59159 0.07879 0.0
H1842 H 0.34834 0.56095 0.02446 0.0
H1843 H 0.35671 0.59035 0.00627 0.0
C1844 C 0.33244 0.706 0.01778 0.0
C1845 C 0.31284 0.70313 0.01087 0.0
C1846 C 0.34641 0.69108 0.01739 0.0
C1847 C 0.34105 0.6731 0.00999 0.0
C1848 C 0.32154 0.67019 0.00306 0.0
C1849 C 0.30756 0.6851 0.00343 0.0
C1850 C 0.3557 0.6572 0.00987 0.0
C1851 C 0.35113 0.64052 0.02033 0.0
C1852 C 0.37431 0.65864 0.0001 0.0
C1853 C 0.37976 0.67571 0.98842 0.0
C1854 C 0.36742 0.68201 0.97299 0.0
C1855 C 0.37262 0.69815 0.96211 0.0
C1856 C 0.39019 0.70806 0.96643 0.0
C1857 C 0.40262 0.70182 0.98163 0.0
C1858 C 0.39748 0.68569 0.99257 0.0
C1859 C 0.42269 0.59027 0.99855 0.0
C1860 C 0.43201 0.58694 0.01673 0.0
C1861 C 0.4064 0.60275 0.99715 0.0
C1862 C 0.39905 0.61195 0.0139 0.0
C1863 C 0.40756 0.60791 0.03221 0.0
C1864 C 0.4239 0.59543 0.03364 0.0
C1865 C 0.38354 0.62693 0.01205 0.0
C1866 C 0.38803 0.64345 0.00137 0.0
C1867 C 0.36487 0.62536 0.02147 0.0
C1868 C 0.35937 0.60789 0.03226 0.0
C1869 C 0.35815 0.60815 0.05276 0.0
C1870 C 0.35363 0.59141 0.06297 0.0
C1871 C 0.35008 0.57441 0.05277 0.0
C1872 C 0.35111 0.57411 0.03235 0.0
C1873 C 0.35582 0.59078 0.02209 0.0
H1874 H 0.34655 0.56147 0.06069 0.0
H1875 H 0.3942 0.72054 0.95799 0.0
H1876 H 0.35576 0.3127 0.00132 0.0
H1877 H 0.38283 0.33613 0.00025 0.0
H1878 H 0.34977 0.37287 0.03956 0.0
H1879 H 0.32291 0.34942 0.0411 0.0
H1880 H 0.36415 0.39204 0.00742 0.0
H1881 H 0.38833 0.34806 0.05642 0.0
H1882 H 0.39824 0.31656 0.06955 0.0
H1883 H 0.44338 0.31109 0.02515 0.0
H1884 H 0.43354 0.34248 0.01157 0.0
H1885 H 0.43903 0.45364 0.04641 0.0
H1886 H 0.41546 0.42694 0.04488 0.0
H1887 H 0.44501 0.4055 0.99317 0.0
H1888 H 0.46826 0.4325 0.99419 0.0
H1889 H 0.43381 0.37789 0.02871 0.0
H1890 H 0.40953 0.42196 0.97971 0.0
H1891 H 0.39979 0.45369 0.96703 0.0
H1892 H 0.35487 0.45885 0.01168 0.0
H1893 H 0.36462 0.42726 0.02484 0.0
C1894 C 0.35438 0.32565 0.00993 0.0
C1895 C 0.33716 0.32923 0.02125 0.0
C1896 C 0.36981 0.33903 0.00924 0.0
C1897 C 0.36825 0.35617 0.01984 0.0
C1898 C 0.35115 0.35975 0.03118 0.0
C1899 C 0.3358 0.34638 0.03197 0.0
C1900 C 0.38426 0.3706 0.01898 0.0
C1901 C 0.37934 0.38897 0.01219 0.0
C1902 C 0.40417 0.3664 0.02476 0.0
C1903 C 0.41003 0.3475 0.03283 0.0
C1904 C 0.40023 0.34005 0.04933 0.0
C1905 C 0.40587 0.32224 0.05689 0.0
C1906 C 0.42138 0.3118 0.04815 0.0
C1907 C 0.43133 0.31918 0.03187 0.0
C1908 C 0.42574 0.33698 0.02425 0.0
C1909 C 0.44062 0.44313 0.03484 0.0
C1910 C 0.45536 0.44513 0.02036 0.0
C1911 C 0.42716 0.42797 0.03397 0.0
C1912 C 0.42857 0.41445 0.01887 0.0
C1913 C 0.44378 0.41591 0.00488 0.0
C1914 C 0.45695 0.43131 0.00547 0.0
C1915 C 0.41355 0.39923 0.01737 0.0
C1916 C 0.41865 0.3808 0.02374 0.0
C1917 C 0.39381 0.40332 0.01118 0.0
C1918 C 0.38801 0.42238 0.00344 0.0
C1919 C 0.39777 0.42998 0.98699 0.0
C1920 C 0.3922 0.44791 0.97967 0.0
C1921 C 0.37677 0.45832 0.98859 0.0
C1922 C 0.36686 0.45079 0.00482 0.0
C1923 C 0.3724 0.43288 0.01222 0.0
H1924 H 0.37246 0.47218 0.98288 0.0
H1925 H 0.42574 0.29801 0.05403 0.0
H1926 H 0.70187 0.317 0.99751 0.0
H1927 H 0.67813 0.34359 0.00023 0.0
H1928 H 0.72708 0.38292 0.00773 0.0
H1929 H 0.75089 0.3563 0.00596 0.0
H1930 H 0.69778 0.39057 0.03302 0.0
H1931 H 0.70233 0.37959 0.96391 0.0
H1932 H 0.70165 0.36056 0.93351 0.0
H1933 H 0.64037 0.34567 0.94436 0.0
H1934 H 0.64076 0.36438 0.97496 0.0
H1935 H 0.62937 0.47038 0.02165 0.0
H1936 H 0.65818 0.44836 0.01832 0.0
H1937 H 0.61757 0.40155 0.00797 0.0
H1938 H 0.58917 0.42355 0.0105 0.0
H1939 H 0.64605 0.40103 0.98193 0.0
H1940 H 0.64256 0.40856 0.05255 0.0
H1941 H 0.64256 0.42764 0.08293 0.0
H1942 H 0.70111 0.44883 0.06921 0.0
H1943 H 0.70134 0.43005 0.0386 0.0
C1944 C 0.70758 0.33127 0.99994 0.0
C1945 C 0.72827 0.33455 0.00142 0.0
C1946 C 0.69401 0.34648 0.00127 0.0
C1947 C 0.7009 0.36525 0.00385 0.0
C1948 C 0.7215 0.36855 0.0056 0.0
C1949 C 0.73507 0.35334 0.0044 0.0
C1950 C 0.68651 0.38138 0.00498 0.0
C1951 C 0.68665 0.39307 0.02171 0.0
C1952 C 0.67193 0.3845 0.99029 0.0
C1953 C 0.67163 0.37329 0.97182 0.0
C1954 C 0.68875 0.37215 0.95988 0.0
C1955 C 0.68841 0.36144 0.9426 0.0
C1956 C 0.67099 0.35189 0.93702 0.0
C1957 C 0.65385 0.35306 0.9487 0.0
C1958 C 0.65412 0.36374 0.966 0.0
C1959 C 0.6268 0.45533 0.01891 0.0
C1960 C 0.60731 0.44844 0.01641 0.0
C1961 C 0.64314 0.4428 0.017 0.0
C1962 C 0.63997 0.42331 0.01294 0.0
C1963 C 0.62036 0.41653 0.01095 0.0
C1964 C 0.60419 0.42902 0.01254 0.0
C1965 C 0.65685 0.40975 0.01028 0.0
C1966 C 0.65729 0.39864 0.99316 0.0
C1967 C 0.67185 0.40711 0.02464 0.0
C1968 C 0.67189 0.41806 0.04322 0.0
C1969 C 0.65539 0.41736 0.05597 0.0
C1970 C 0.65535 0.42812 0.07323 0.0
C1971 C 0.6718 0.43948 0.07798 0.0
C1972 C 0.68837 0.44005 0.06551 0.0
C1973 C 0.68847 0.42934 0.04821 0.0
H1974 H 0.67173 0.44782 0.09133 0.0
H1975 H 0.67075 0.3436 0.92364 0.0
H1976 H 0.96102 0.67919 0.69517 0.0
H1977 H 0.96021 0.65557 0.66869 0.0
H1978 H 0.00476 0.68767 0.63718 0.0
H1979 H 0.00535 0.71144 0.66342 0.0
H1980 H 0.97759 0.67354 0.61239 0.0
H1981 H 0.01811 0.64972 0.66553 0.0
H1982 H 0.02528 0.64053 0.69966 0.0
H1983 H 0.978 0.59921 0.69771 0.0
H1984 H 0.97039 0.60834 0.66361 0.0
H1985 H 0.03412 0.60541 0.56031 0.0
H1986 H 0.01919 0.63017 0.58073 0.0
H1987 H 0.97574 0.58981 0.60204 0.0
H1988 H 0.99115 0.56474 0.58198 0.0
H1989 H 0.9957 0.60708 0.63116 0.0
H1990 H 0.96095 0.62799 0.57385 0.0
H1991 H 0.95794 0.63684 0.53906 0.0
H1992 H 0.99834 0.68361 0.54798 0.0
H1993 H 0.00184 0.67487 0.58275 0.0
C1994 C 0.97053 0.68122 0.68252 0.0
C1995 C 0.98335 0.69702 0.68137 0.0
C1996 C 0.97002 0.66779 0.66741 0.0
C1997 C 0.98259 0.66978 0.65109 0.0
C1998 C 0.99487 0.68592 0.6496 0.0
C1999 C 0.99523 0.69945 0.66461 0.0
C2000 C 0.98414 0.65439 0.63628 0.0
C2001 C 0.98154 0.65899 0.61644 0.0
C2002 C 0.98898 0.63537 0.64164 0.0
C2003 C 0.99351 0.62988 0.66213 0.0
C2004 C 0.00914 0.63879 0.67244 0.0
C2005 C 0.0133 0.63357 0.69176 0.0
C2006 C 0.00206 0.61934 0.70087 0.0
C2007 C 0.98666 0.61026 0.69065 0.0
C2008 C 0.98242 0.61545 0.67133 0.0
C2009 C 0.02117 0.60183 0.5691 0.0
C2010 C 0.01378 0.58306 0.56958 0.0
C2011 C 0.01252 0.61608 0.58061 0.0
C2012 C 0.99621 0.61189 0.59272 0.0
C2013 C 0.98823 0.59336 0.59264 0.0
C2014 C 0.99694 0.57906 0.58109 0.0
C2015 C 0.98937 0.62621 0.60721 0.0
C2016 C 0.99113 0.62146 0.62706 0.0
C2017 C 0.98414 0.64512 0.60178 0.0
C2018 C 0.98168 0.65073 0.58094 0.0
C2019 C 0.96925 0.64012 0.56839 0.0
C2020 C 0.96746 0.64512 0.54866 0.0
C2021 C 0.97795 0.66078 0.54131 0.0
C2022 C 0.9902 0.6715 0.55369 0.0
C2023 C 0.99206 0.66655 0.57343 0.0
H2024 H 0.97657 0.66461 0.52603 0.0
H2025 H 0.00531 0.61532 0.71583 0.0
H2026 H 0.32729 0.00907 0.68313 0.0
H2027 H 0.35374 0.00388 0.65916 0.0
H2028 H 0.3976 0.00155 0.70555 0.0
H2029 H 0.37154 0.00842 0.72943 0.0
H2030 H 0.41227 0.02073 0.67822 0.0
H2031 H 0.38027 0.96028 0.67993 0.0
H2032 H 0.35254 0.93719 0.67901 0.0
H2033 H 0.33895 0.95363 0.61994 0.0
H2034 H 0.36639 0.97705 0.6206 0.0
H2035 H 0.48335 0.98702 0.60468 0.0
H2036 H 0.45936 0.97979 0.63104 0.0
H2037 H 0.41567 0.01695 0.60389 0.0
H2038 H 0.43969 0.0249 0.57828 0.0
H2039 H 0.40476 0.97406 0.62389 0.0
H2040 H 0.43015 0.0423 0.63149 0.0
H2041 H 0.46075 0.06183 0.62976 0.0
H2042 H 0.48936 0.02524 0.67196 0.0
H2043 H 0.45907 0.00516 0.67341 0.0
C2044 C 0.34259 0.00779 0.68825 0.0
C2045 C 0.34721 0.00909 0.70828 0.0
C2046 C 0.35768 0.00442 0.67453 0.0
C2047 C 0.37762 0.00179 0.68058 0.0
C2048 C 0.38231 0.00331 0.70052 0.0
C2049 C 0.36731 0.00707 0.7142 0.0
C2050 C 0.39372 0.9984 0.66604 0.0
C2051 C 0.41069 0.01018 0.66668 0.0
C2052 C 0.39189 0.98462 0.65087 0.0
C2053 C 0.37533 0.97054 0.65038 0.0
C2054 C 0.37128 0.95909 0.66679 0.0
C2055 C 0.35562 0.94592 0.66631 0.0
C2056 C 0.34397 0.94397 0.64944 0.0
C2057 C 0.34798 0.95516 0.63301 0.0
C2058 C 0.3636 0.96838 0.63342 0.0
C2059 C 0.46858 0.99352 0.60441 0.0
C2060 C 0.4634 0.00684 0.58987 0.0
C2061 C 0.45489 0.98921 0.61922 0.0
C2062 C 0.4358 0.99771 0.61912 0.0
C2063 C 0.43031 0.01014 0.60398 0.0
C2064 C 0.44411 0.01489 0.58961 0.0
C2065 C 0.42263 0.99648 0.63625 0.0
C2066 C 0.4063 0.98407 0.63593 0.0
C2067 C 0.42513 0.00929 0.65195 0.0
C2068 C 0.44243 0.02235 0.65261 0.0
C2069 C 0.44295 0.03853 0.64047 0.0
C2070 C 0.46026 0.0496 0.63944 0.0
C2071 C 0.47699 0.04479 0.65077 0.0
C2072 C 0.47639 0.02895 0.66321 0.0
C2073 C 0.45917 0.0177 0.66412 0.0
H2074 H 0.49043 0.05331 0.64988 0.0
H2075 H 0.33185 0.93376 0.6491 0.0
H2076 H 0.03841 0.3298 0.65607 0.0
H2077 H 0.03687 0.35308 0.62952 0.0
H2078 H 0.99092 0.38456 0.66041 0.0
H2079 H 0.99176 0.36085 0.68668 0.0
H2080 H 0.98228 0.3829 0.62228 0.0
H2081 H 0.03935 0.39928 0.66127 0.0
H2082 H 0.07156 0.3946 0.67835 0.0
H2083 H 0.09991 0.37984 0.62397 0.0
H2084 H 0.06776 0.38415 0.60663 0.0
H2085 H 0.00046 0.47726 0.58597 0.0
H2086 H 0.99433 0.44757 0.60365 0.0
H2087 H 0.03297 0.41707 0.56365 0.0
H2088 H 0.03874 0.44659 0.54549 0.0
H2089 H 0.04478 0.41614 0.60345 0.0
H2090 H 0.98685 0.40441 0.56429 0.0
H2091 H 0.95479 0.41282 0.54844 0.0
H2092 H 0.92791 0.42232 0.60469 0.0
H2093 H 0.95989 0.4142 0.62089 0.0
C2094 C 0.02776 0.34151 0.6571 0.0
C2095 C 0.01524 0.3435 0.67351 0.0
C2096 C 0.02702 0.3549 0.64199 0.0
C2097 C 0.01392 0.37065 0.64309 0.0
C2098 C 0.00115 0.37251 0.65928 0.0
C2099 C 0.00181 0.35907 0.67437 0.0
C2100 C 0.01399 0.3855 0.62767 0.0
C2101 C 0.99591 0.39027 0.61824 0.0
C2102 C 0.03185 0.39488 0.6222 0.0
C2103 C 0.05109 0.39182 0.63268 0.0
C2104 C 0.0524 0.39483 0.65299 0.0
C2105 C 0.07066 0.39228 0.66271 0.0
C2106 C 0.08776 0.38687 0.65226 0.0
C2107 C 0.08664 0.384 0.63205 0.0
C2108 C 0.06841 0.38649 0.62227 0.0
C2109 C 0.00707 0.46414 0.58048 0.0
C2110 C 0.02016 0.46432 0.5644 0.0
C2111 C 0.00356 0.44718 0.59062 0.0
C2112 C 0.01325 0.43021 0.58493 0.0
C2113 C 0.02534 0.43007 0.56818 0.0
C2114 C 0.02861 0.44696 0.55785 0.0
C2115 C 0.01313 0.41353 0.59811 0.0
C2116 C 0.03122 0.40851 0.60724 0.0
C2117 C 0.99525 0.40423 0.60348 0.0
C2118 C 0.97585 0.40882 0.59382 0.0
C2119 C 0.97415 0.40842 0.57329 0.0
C2120 C 0.95598 0.41311 0.56424 0.0
C2121 C 0.93934 0.41813 0.57555 0.0
C2122 C 0.94082 0.41842 0.59594 0.0
C2123 C 0.95896 0.41374 0.60507 0.0
H2124 H 0.92529 0.42177 0.5685 0.0
H2125 H 0.10189 0.38495 0.65981 0.0
H2126 H 0.69658 0.05387 0.70486 0.0
H2127 H 0.67493 0.04867 0.67656 0.0
H2128 H 0.72463 0.02437 0.64464 0.0
H2129 H 0.74633 0.02888 0.67312 0.0
H2130 H 0.69687 0.05114 0.62275 0.0
H2131 H 0.69766 0.99421 0.66325 0.0
H2132 H 0.69506 0.97723 0.69474 0.0
H2133 H 0.63482 0.99798 0.70183 0.0
H2134 H 0.63719 0.01539 0.67056 0.0
H2135 H 0.62635 0.01256 0.553 0.0
H2136 H 0.65546 0.01351 0.57533 0.0
H2137 H 0.61656 0.03144 0.62246 0.0
H2138 H 0.58789 0.03068 0.60031 0.0
H2139 H 0.64301 0.00374 0.63392 0.0
H2140 H 0.64196 0.06371 0.59934 0.0
H2141 H 0.64169 0.08343 0.56946 0.0
H2142 H 0.699 0.06032 0.55297 0.0
H2143 H 0.69942 0.04017 0.58263 0.0
C2144 C 0.70295 0.04746 0.69183 0.0
C2145 C 0.72311 0.04153 0.69136 0.0
C2146 C 0.69061 0.04465 0.67565 0.0
C2147 C 0.69823 0.036 0.65868 0.0
C2148 C 0.71857 0.03111 0.65765 0.0
C2149 C 0.73093 0.03375 0.67392 0.0
C2150 C 0.68445 0.03063 0.64279 0.0
C2151 C 0.68536 0.04048 0.62495 0.0
C2152 C 0.66925 0.017 0.64598 0.0
C2153 C 0.66767 0.00623 0.66462 0.0
C2154 C 0.68391 0.99527 0.67159 0.0
C2155 C 0.68247 0.98556 0.6894 0.0
C2156 C 0.6648 0.98656 0.7003 0.0
C2157 C 0.64851 0.99723 0.69338 0.0
C2158 C 0.64989 0.00701 0.67561 0.0
C2159 C 0.62423 0.01664 0.56815 0.0
C2160 C 0.6052 0.02174 0.57511 0.0
C2161 C 0.64071 0.01714 0.58083 0.0
C2162 C 0.63805 0.02255 0.60049 0.0
C2163 C 0.61886 0.02715 0.60738 0.0
C2164 C 0.60259 0.02686 0.59475 0.0
C2165 C 0.65516 0.02447 0.61398 0.0
C2166 C 0.65486 0.01401 0.63144 0.0
C2167 C 0.67057 0.03785 0.61062 0.0
C2168 C 0.67062 0.05027 0.59306 0.0
C2169 C 0.65445 0.06274 0.58927 0.0
C2170 C 0.65426 0.07399 0.57239 0.0
C2171 C 0.67029 0.07308 0.55929 0.0
C2172 C 0.68658 0.06097 0.56311 0.0
C2173 C 0.6868 0.04962 0.57995 0.0
H2174 H 0.67012 0.0818 0.54621 0.0
H2175 H 0.66372 0.97903 0.71408 0.0
H2176 H 0.02479 0.36053 0.33076 0.0
H2177 H 0.02397 0.3846 0.35653 0.0
H2178 H 0.06226 0.34925 0.39248 0.0
H2179 H 0.06352 0.32503 0.36641 0.0
H2180 H 0.02848 0.36611 0.41245 0.0
H2181 H 0.08338 0.38528 0.37234 0.0
H2182 H 0.10032 0.39194 0.34106 0.0
H2183 H 0.05745 0.43633 0.32852 0.0
H2184 H 0.04005 0.42975 0.35957 0.0
H2185 H 0.02381 0.44837 0.47491 0.0
H2186 H 0.03862 0.42168 0.45648 0.0
H2187 H 0.01461 0.44526 0.40294 0.0
H2188 H 0.00069 0.47219 0.42105 0.0
H2189 H 0.05005 0.43202 0.39621 0.0
H2190 H 0.99117 0.40812 0.43091 0.0
H2191 H 0.97187 0.40134 0.46086 0.0
H2192 H 0.02001 0.36612 0.48236 0.0
H2193 H 0.03967 0.37288 0.45261 0.0
C2194 C 0.03325 0.35791 0.34403 0.0
C2195 C 0.0445 0.34101 0.34641 0.0
C2196 C 0.03267 0.37164 0.35878 0.0
C2197 C 0.04331 0.36879 0.37623 0.0
C2198 C 0.05404 0.35169 0.37903 0.0
C2199 C 0.0547 0.3379 0.36417 0.0
C2200 C 0.04312 0.38399 0.39126 0.0
C2201 C 0.03362 0.38045 0.40916 0.0
C2202 C 0.04968 0.40266 0.3868 0.0
C2203 C 0.06038 0.40698 0.36829 0.0
C2204 C 0.07751 0.39641 0.36288 0.0
C2205 C 0.0872 0.40017 0.34518 0.0
C2206 C 0.07996 0.41454 0.33281 0.0
C2207 C 0.06305 0.42521 0.33813 0.0
C2208 C 0.0533 0.4215 0.3558 0.0
C2209 C 0.02184 0.44785 0.45918 0.0
C2210 C 0.01095 0.46223 0.4494 0.0
C2211 C 0.03026 0.4326 0.44869 0.0
C2212 C 0.02747 0.4313 0.42835 0.0
C2213 C 0.01703 0.44595 0.4186 0.0
C2214 C 0.00898 0.46131 0.42899 0.0
C2215 C 0.03445 0.41442 0.41702 0.0
C2216 C 0.04536 0.41761 0.3998 0.0
C2217 C 0.02892 0.3955 0.422 0.0
C2218 C 0.01695 0.39116 0.43967 0.0
C2219 C 0.99765 0.39899 0.44207 0.0
C2220 C 0.98665 0.39516 0.459 0.0
C2221 C 0.99473 0.38335 0.47353 0.0
C2222 C 0.01379 0.37529 0.47111 0.0
C2223 C 0.02485 0.37911 0.45422 0.0
H2224 H 0.98621 0.38042 0.48664 0.0
H2225 H 0.08747 0.41741 0.3191 0.0
H2226 H 0.69865 0.99875 0.30967 0.0
H2227 H 0.67272 0.99629 0.33501 0.0
H2228 H 0.66962 0.05786 0.33875 0.0
H2229 H 0.6953 0.06039 0.31331 0.0
H2230 H 0.67428 0.03806 0.37535 0.0
H2231 H 0.63383 0.03852 0.31722 0.0
H2232 H 0.62281 0.02779 0.2846 0.0
H2233 H 0.61016 0.97203 0.30759 0.0
H2234 H 0.62142 0.98235 0.34032 0.0
H2235 H 0.58849 0.05462 0.43106 0.0
H2236 H 0.6117 0.05409 0.40365 0.0
H2237 H 0.60768 0.99257 0.40075 0.0
H2238 H 0.58409 0.99288 0.42814 0.0
H2239 H 0.60692 0.01045 0.36396 0.0
H2240 H 0.64657 0.01043 0.42249 0.0
H2241 H 0.65596 0.02195 0.45532 0.0
H2242 H 0.66939 0.07727 0.43166 0.0
H2243 H 0.65979 0.06615 0.39869 0.0
C2244 C 0.69235 0.0117 0.31592 0.0
C2245 C 0.69882 0.02975 0.30964 0.0
C2246 C 0.67757 0.0103 0.33024 0.0
C2247 C 0.66934 0.02691 0.33857 0.0
C2248 C 0.67585 0.04493 0.33238 0.0
C2249 C 0.69038 0.04634 0.31787 0.0
C2250 C 0.65431 0.02556 0.35418 0.0
C2251 C 0.65949 0.03218 0.37286 0.0
C2252 C 0.63527 0.01746 0.35087 0.0
C2253 C 0.62876 0.01113 0.33116 0.0
C2254 C 0.62895 0.0239 0.31527 0.0
C2255 C 0.6226 0.01791 0.29678 0.0
C2256 C 0.61587 0.99922 0.294 0.0
C2257 C 0.61544 0.98649 0.30974 0.0
C2258 C 0.6218 0.9924 0.32827 0.0
C2259 C 0.59243 0.04094 0.42459 0.0
C2260 C 0.58464 0.02375 0.43191 0.0
C2261 C 0.60568 0.0407 0.40894 0.0
C2262 C 0.6115 0.02328 0.40045 0.0
C2263 C 0.60332 0.00612 0.40724 0.0
C2264 C 0.58998 0.00634 0.42293 0.0
C2265 C 0.62686 0.02307 0.38506 0.0
C2266 C 0.62178 0.01615 0.36648 0.0
C2267 C 0.64603 0.03088 0.38843 0.0
C2268 C 0.65237 0.03748 0.40813 0.0
C2269 C 0.65145 0.02508 0.42429 0.0
C2270 C 0.65681 0.03153 0.44293 0.0
C2271 C 0.66327 0.05032 0.44557 0.0
C2272 C 0.66441 0.0627 0.42957 0.0
C2273 C 0.65904 0.05632 0.4109 0.0
H2274 H 0.66742 0.05527 0.46001 0.0
H2275 H 0.61093 0.99462 0.27968 0.0
H2276 H 0.0312 0.66986 0.31737 0.0
H2277 H 0.03134 0.64569 0.34278 0.0
H2278 H 0.04139 0.68922 0.38647 0.0
H2279 H 0.04328 0.71338 0.36087 0.0
H2280 H 0.06102 0.6598 0.39699 0.0
H2281 H 0.99357 0.66977 0.37684 0.0
H2282 H 0.96442 0.67261 0.35482 0.0
H2283 H 0.97235 0.61417 0.33681 0.0
H2284 H 0.00171 0.61105 0.35856 0.0
H2285 H 0.00543 0.60469 0.47074 0.0
H2286 H 0.01209 0.62847 0.44527 0.0
H2287 H 0.04554 0.58632 0.41248 0.0
H2288 H 0.03861 0.5624 0.43783 0.0
H2289 H 0.00416 0.61433 0.39739 0.0
H2290 H 0.07923 0.61196 0.41658 0.0
H2291 H 0.09924 0.60797 0.44673 0.0
H2292 H 0.06668 0.65407 0.47384 0.0
H2293 H 0.04672 0.65846 0.44373 0.0
C2294 C 0.03399 0.67434 0.33228 0.0
C2295 C 0.03718 0.6937 0.33698 0.0
C2296 C 0.0337 0.66047 0.34689 0.0
C2297 C 0.03589 0.66567 0.3666 0.0
C2298 C 0.03954 0.68486 0.37136 0.0
C2299 C 0.04033 0.69872 0.35669 0.0
C2300 C 0.03382 0.65112 0.38221 0.0
C2301 C 0.04858 0.6499 0.3969 0.0
C2302 C 0.01739 0.63832 0.38256 0.0
C2303 C -0.0 0.64025 0.36914 0.0
C2304 C 0.98923 0.65758 0.36803 0.0
C2305 C 0.97264 0.65923 0.35564 0.0
C2306 C 0.96658 0.6436 0.34438 0.0
C2307 C 0.97708 0.62628 0.34551 0.0
C2308 C 0.9937 0.62456 0.35787 0.0
C2309 C 0.01464 0.60069 0.45833 0.0
C2310 C 0.02203 0.58196 0.45636 0.0
C2311 C 0.01826 0.61416 0.4438 0.0
C2312 C 0.02912 0.60894 0.42711 0.0
C2313 C 0.03714 0.59045 0.42538 0.0
C2314 C 0.0336 0.57698 0.44 0.0
C2315 C 0.03156 0.62285 0.41127 0.0
C2316 C 0.01676 0.62405 0.39688 0.0
C2317 C 0.0474 0.63597 0.41152 0.0
C2318 C 0.06182 0.63575 0.42789 0.0
C2319 C 0.07673 0.62152 0.42883 0.0
C2320 C 0.08787 0.61904 0.44598 0.0
C2321 C 0.08404 0.63061 0.46226 0.0
C2322 C 0.06952 0.64506 0.46124 0.0
C2323 C 0.05846 0.64769 0.44409 0.0
H2324 H 0.09246 0.62859 0.47561 0.0
H2325 H 0.95371 0.64489 0.33482 0.0
H2326 H 0.29672 0.00947 0.34728 0.0
H2327 H 0.3175 0.0132 0.37641 0.0
H2328 H 0.3699 0.99745 0.34296 0.0
H2329 H 0.34907 0.99255 0.31411 0.0
H2330 H 0.37329 0.98271 0.37705 0.0
H2331 H 0.3578 0.04446 0.3524 0.0
H2332 H 0.33721 0.07162 0.34091 0.0
H2333 H 0.3091 0.07561 0.39726 0.0
H2334 H 0.32935 0.04827 0.40901 0.0
H2335 H 0.44736 0.04037 0.42368 0.0
H2336 H 0.41875 0.03557 0.40178 0.0
H2337 H 0.38494 0.01161 0.44947 0.0
H2338 H 0.41407 0.0155 0.47127 0.0
H2339 H 0.37002 0.04514 0.4117 0.0
H2340 H 0.39247 0.97949 0.43362 0.0
H2341 H 0.42184 0.95916 0.44108 0.0
H2342 H 0.4445 0.96811 0.38306 0.0
H2343 H 0.41562 0.98907 0.37553 0.0
C2344 C 0.3126 0.00639 0.34622 0.0
C2345 C 0.32127 1.00086 0.32832 0.0
C2346 C 0.32449 0.00874 0.36283 0.0
C2347 C 0.34529 0.00591 0.36177 0.0
C2348 C 0.35388 0.99977 0.34411 0.0
C2349 C 0.34199 0.9972 0.32756 0.0
C2350 C 0.35826 0.01012 0.37879 0.0
C2351 C 0.37234 0.99628 0.38473 0.0
C2352 C 0.35741 0.02799 0.3886 0.0
C2353 C 0.34485 0.04413 0.38148 0.0
C2354 C 0.34705 0.05097 0.36226 0.0
C2355 C 0.33548 0.06643 0.35572 0.0
C2356 C 0.32179 0.07528 0.36832 0.0
C2357 C 0.31966 0.0687 0.3875 0.0
C2358 C 0.33117 0.05322 0.3941 0.0
C2359 C 0.43362 0.03454 0.42955 0.0
C2360 C 0.43263 0.02835 0.449 0.0
C2361 C 0.41739 0.03179 0.41709 0.0
C2362 C 0.39996 0.02316 0.42411 0.0
C2363 C 0.39842 0.01821 0.44392 0.0
C2364 C 0.4149 0.02046 0.45629 0.0
C2365 C 0.3844 0.01759 0.4101 0.0
C2366 C 0.37019 0.03129 0.40449 0.0
C2367 C 0.38567 0.99995 0.40008 0.0
C2368 C 0.40206 0.98608 0.40413 0.0
C2369 C 0.4038 0.97724 0.42252 0.0
C2370 C 0.42037 0.96563 0.42677 0.0
C2371 C 0.43512 0.96249 0.4126 0.0
C2372 C 0.43314 0.97067 0.39406 0.0
C2373 C 0.41669 0.98243 0.38981 0.0
H2374 H 0.44808 0.9537 0.41597 0.0
H2375 H 0.31288 0.08728 0.36324 0.0
H2376 H 0.05992 0.16856 0.30104 0.0
H2377 H 0.05809 0.14479 0.32743 0.0
H2378 H 0.00553 0.17313 0.35028 0.0
H2379 H 0.00718 0.19675 0.32396 0.0
H2380 H 0.03626 0.1666 0.37833 0.0
H2381 H -0.00028 0.13236 0.32852 0.0
H2382 H 0.99512 0.11776 0.29599 0.0
H2383 H 0.04564 0.08072 0.30609 0.0
H2384 H 0.05072 0.09531 0.3386 0.0
H2385 H 0.99029 0.10117 0.44319 0.0
H2386 H -0.00093 0.12283 0.41655 0.0
H2387 H 0.05126 0.0884 0.40369 0.0
H2388 H 0.04278 0.0668 0.43084 0.0
H2389 H 0.02547 0.09688 0.37035 0.0
H2390 H 0.06029 0.12817 0.42102 0.0
H2391 H 0.06699 0.14334 0.45288 0.0
H2392 H 0.0225 0.18638 0.44084 0.0
H2393 H 0.01502 0.17111 0.40917 0.0
C2394 C 0.04783 0.16953 0.31155 0.0
C2395 C 0.03363 0.18446 0.31034 0.0
C2396 C 0.04679 0.15595 0.32659 0.0
C2397 C 0.03169 0.15721 0.34084 0.0
C2398 C 0.0173 0.17189 0.33945 0.0
C2399 C 0.01816 0.18527 0.32428 0.0
C2400 C 0.03129 0.14383 0.35774 0.0
C2401 C 0.03368 0.15138 0.37662 0.0
C2402 C 0.02878 0.12387 0.35542 0.0
C2403 C 0.02575 0.1151 0.33589 0.0
C2404 C 0.00998 0.12124 0.32373 0.0
C2405 C 0.00725 0.11294 0.30531 0.0
C2406 C 0.02012 0.09836 0.29895 0.0
C2407 C 0.03571 0.09203 0.31102 0.0
C2408 C 0.03851 0.10031 0.32945 0.0
C2409 C 0.00384 0.09837 0.43492 0.0
C2410 C 0.01591 0.08232 0.43915 0.0
C2411 C 0.00883 0.11076 0.41969 0.0
C2412 C 0.0258 0.10723 0.40811 0.0
C2413 C 0.0381 0.09139 0.41246 0.0
C2414 C 0.03334 0.07916 0.42805 0.0
C2415 C 0.02992 0.11975 0.39102 0.0
C2416 C 0.02823 0.11207 0.37209 0.0
C2417 C 0.03323 0.13961 0.39328 0.0
C2418 C 0.03693 0.14834 0.41276 0.0
C2419 C 0.05165 0.14066 0.4253 0.0
C2420 C 0.05564 0.14932 0.44331 0.0
C2421 C 0.04518 0.16581 0.44888 0.0
C2422 C 0.03061 0.17361 0.4365 0.0
C2423 C 0.02643 0.16491 0.41854 0.0
H2424 H 0.04836 0.17255 0.46279 0.0
H2425 H 0.01798 0.09194 0.28469 0.0
H2426 H 0.87391 0.00569 0.29206 0.0
H2427 H 0.88813 0.00502 0.32508 0.0
H2428 H 0.86556 0.06205 0.3356 0.0
H2429 H 0.85129 0.06283 0.30272 0.0
H2430 H 0.90256 0.05602 0.35259 0.0
H2431 H 0.83847 0.02417 0.34943 0.0
H2432 H 0.81471 1.00052 0.33629 0.0
H2433 H 0.85457 0.95483 0.35276 0.0
H2434 H 0.87872 0.97823 0.36571 0.0
H2435 H 0.91973 0.05059 0.45251 0.0
H2436 H 0.89813 0.05412 0.42382 0.0
H2437 H 0.90938 0.99513 0.40842 0.0
H2438 H 0.92979 0.99118 0.43753 0.0
H2439 H 0.87545 0.00439 0.39455 0.0
H2440 H 0.94098 0.03416 0.39348 0.0
H2441 H 0.96665 0.05627 0.40608 0.0
H2442 H 0.92682 0.10389 0.39675 0.0
H2443 H 0.90083 0.08201 0.38432 0.0
C2444 C 0.87235 0.01823 0.30127 0.0
C2445 C 0.86134 0.03425 0.29482 0.0
C2446 C 0.88041 0.01781 0.32014 0.0
C2447 C 0.87747 0.03332 0.33291 0.0
C2448 C 0.8679 0.0499 0.326 0.0
C2449 C 0.85988 0.05036 0.30712 0.0
C2450 C 0.88295 0.03173 0.35387 0.0
C2451 C 0.89645 0.0449 0.36184 0.0
C2452 C 0.87516 0.01705 0.36586 0.0
C2453 C 0.86046 0.00297 0.3584 0.0
C2454 C 0.84221 0.00909 0.35015 0.0
C2455 C 0.82868 0.99573 0.34274 0.0
C2456 C 0.83314 0.97619 0.34366 0.0
C2457 C 0.85113 0.96997 0.35204 0.0
C2458 C 0.86474 0.98327 0.35943 0.0
C2459 C 0.91692 0.03817 0.44344 0.0
C2460 C 0.92694 0.02075 0.44698 0.0
C2461 C 0.90475 0.04026 0.42691 0.0
C2462 C 0.90296 0.02514 0.41344 0.0
C2463 C 0.91082 0.00711 0.41837 0.0
C2464 C 0.92253 0.00488 0.43511 0.0
C2465 C 0.89538 0.02847 0.39327 0.0
C2466 C 0.88144 0.01565 0.38539 0.0
C2467 C 0.90309 0.04324 0.38126 0.0
C2468 C 0.91892 0.05645 0.38813 0.0
C2469 C 0.93771 0.04935 0.39414 0.0
C2470 C 0.95229 0.06183 0.40127 0.0
C2471 C 0.94835 0.08146 0.40225 0.0
C2472 C 0.92984 0.08867 0.39601 0.0
C2473 C 0.91518 0.07625 0.38891 0.0
H2474 H 0.95965 0.09109 0.40782 0.0
H2475 H 0.82265 0.96587 0.33791 0.0
H2476 H 0.9932 0.84868 0.30854 0.0
H2477 H 0.99069 0.87237 0.33472 0.0
H2478 H 0.05294 0.88655 0.32692 0.0
H2479 H 0.05551 0.86304 0.30051 0.0
H2480 H 0.04506 0.87916 0.36448 0.0
H2481 H 0.01599 0.91827 0.31475 0.0
H2482 H 0.99299 0.92697 0.28792 0.0
H2483 H 0.94262 0.92026 0.32626 0.0
H2484 H 0.9653 0.91123 0.35327 0.0
H2485 H 0.04239 0.96449 0.42452 0.0
H2486 H 0.04628 0.94059 0.39853 0.0
H2487 H 0.98752 0.91871 0.41137 0.0
H2488 H 0.98387 0.94212 0.43785 0.0
H2489 H 0.99393 0.93053 0.3712 0.0
H2490 H 0.02247 0.88836 0.41943 0.0
H2491 H 0.04507 0.87716 0.44561 0.0
H2492 H 0.09614 0.89014 0.40997 0.0
H2493 H 0.07376 0.90113 0.38342 0.0
C2494 C 0.00622 0.85722 0.31195 0.0
C2495 C 0.02459 0.85387 0.3024 0.0
C2496 C 0.00478 0.87073 0.32703 0.0
C2497 C 0.02163 0.88125 0.33284 0.0
C2498 C 0.03976 0.87853 0.32279 0.0
C2499 C 0.0412 0.86506 0.30769 0.0
C2500 C 0.02072 0.89404 0.35026 0.0
C2501 C 0.0341 0.89063 0.36576 0.0
C2502 C 0.00606 0.90866 0.35224 0.0
C2503 C 0.99235 0.91387 0.33598 0.0
C2504 C -1e-05 0.91845 0.31742 0.0
C2505 C 0.98702 0.92349 0.30218 0.0
C2506 C 0.96635 0.92411 0.30537 0.0
C2507 C 0.95863 0.91973 0.32381 0.0
C2508 C 0.97154 0.91467 0.33909 0.0
C2509 C 0.03043 0.9544 0.42203 0.0
C2510 C 0.01258 0.95553 0.43291 0.0
C2511 C 0.0327 0.94071 0.40721 0.0
C2512 C 0.01709 0.92803 0.40288 0.0
C2513 C -0.00032 0.92847 0.41437 0.0
C2514 C 0.99759 0.9419 0.42944 0.0
C2515 C 0.01822 0.91556 0.38532 0.0
C2516 C 0.00492 0.9191 0.36981 0.0
C2517 C 0.03296 0.90111 0.38327 0.0
C2518 C 0.04648 0.89575 0.39956 0.0
C2519 C 0.03853 0.88905 0.41728 0.0
C2520 C 0.05129 0.88261 0.43213 0.0
C2521 C 0.07204 0.88298 0.42948 0.0
C2522 C 0.08007 0.88985 0.41199 0.0
C2523 C 0.06735 0.8961 0.39701 0.0
H2524 H 0.08191 0.87793 0.44096 0.0
H2525 H 0.95633 0.92804 0.29356 0.0
H2526 H 0.15085 0.97869 0.27692 0.0
H2527 H 0.12932 0.98282 0.3057 0.0
H2528 H 0.15848 0.03618 0.31892 0.0
H2529 H 0.18003 0.03212 0.29032 0.0
H2530 H 0.15772 0.01127 0.35044 0.0
H2531 H 0.11201 0.03762 0.30349 0.0
H2532 H 0.09213 0.03834 0.27309 0.0
H2533 H 0.06032 0.98828 0.29143 0.0
H2534 H 0.08022 0.98711 0.32185 0.0
H2535 H 0.09088 0.04539 0.4247 0.0
H2536 H 0.10976 0.04246 0.3941 0.0
H2537 H 0.08527 0.98626 0.38479 0.0
H2538 H 0.06672 0.98885 0.41555 0.0
H2539 H 0.08339 0.01242 0.3514 0.0
H2540 H 0.12913 0.98603 0.39828 0.0
H2541 H 0.1489 0.98532 0.42874 0.0
H2542 H 0.18071 0.03541 0.41053 0.0
H2543 H 0.16088 0.03661 0.38006 0.0
C2544 C 0.15236 0.99148 0.28576 0.0
C2545 C 0.16701 0.00514 0.2813 0.0
C2546 C 0.14008 0.99382 0.30217 0.0
C2547 C 0.14237 0.00979 0.31443 0.0
C2548 C 0.1565 0.02376 0.30963 0.0
C2549 C 0.16863 0.02153 0.29315 0.0
C2550 C 0.13087 0.01138 0.33289 0.0
C2551 C 0.14147 0.01181 0.35064 0.0
C2552 C 0.1097 0.01156 0.33313 0.0
C2553 C 0.09776 0.01216 0.31484 0.0
C2554 C 0.10091 0.02666 0.30095 0.0
C2555 C 0.08961 0.02717 0.28374 0.0
C2556 C 0.07501 0.01333 0.2803 0.0
C2557 C 0.07166 0.99897 0.2941 0.0
C2558 C 0.08293 0.99839 0.31134 0.0
C2559 C 0.08952 0.03241 0.41613 0.0
C2560 C 0.07734 0.01733 0.42253 0.0
C2561 C 0.10033 0.03075 0.39872 0.0
C2562 C 0.09888 0.01414 0.38729 0.0
C2563 C 0.08654 0.99918 0.39346 0.0
C2564 C 0.07603 1.00067 0.41105 0.0
C2565 C 0.11026 0.01242 0.36884 0.0
C2566 C 0.09964 0.01192 0.35114 0.0
C2567 C 0.13142 0.01216 0.36864 0.0
C2568 C 0.14332 0.01156 0.38699 0.0
C2569 C 0.14017 0.99703 0.40086 0.0
C2570 C 0.15143 0.99651 0.41811 0.0
C2571 C 0.166 0.01035 0.4216 0.0
C2572 C 0.16938 0.02472 0.40783 0.0
C2573 C 0.15814 0.02533 0.39056 0.0
H2574 H 0.17472 0.00991 0.43496 0.0
H2575 H 0.06626 0.01376 0.26696 0.0
H2576 H 0.99293 0.87555 0.73174 0.0
H2577 H 0.99718 0.89934 0.7055 0.0
H2578 H 0.01288 0.85412 0.66518 0.0
H2579 H 0.00854 0.8305 0.69128 0.0
H2580 H 0.03792 0.8843 0.66164 0.0
H2581 H 0.96762 0.87335 0.66312 0.0
H2582 H 0.93388 0.87092 0.67747 0.0
H2583 H 0.93539 0.93038 0.69321 0.0
H2584 H 0.96931 0.93311 0.67922 0.0
H2585 H 0.03235 0.93983 0.57522 0.0
H2586 H 0.02446 0.915 0.59916 0.0
H2587 H 0.00731 0.9584 0.64095 0.0
H2588 H 0.0148 0.98325 0.61704 0.0
H2589 H 0.98245 0.92815 0.64274 0.0
H2590 H 0.05435 0.93783 0.64184 0.0
H2591 H 0.08731 0.93949 0.62566 0.0
H2592 H 0.08176 0.88107 0.60704 0.0
H2593 H 0.04865 0.87913 0.62295 0.0
C2594 C 0.99745 0.87084 0.71729 0.0
C2595 C 0.00052 0.85133 0.71342 0.0
C2596 C -0.00025 0.88434 0.70231 0.0
C2597 C 0.00522 0.87847 0.68333 0.0
C2598 C 0.00868 0.85897 0.67967 0.0
C2599 C 0.00621 0.84552 0.69455 0.0
C2600 C 0.00731 0.89258 0.66722 0.0
C2601 C 0.02571 0.89374 0.65738 0.0
C2602 C 0.99143 0.90499 0.6617 0.0
C2603 C 0.97113 0.90337 0.67034 0.0
C2604 C 0.96086 0.88586 0.66984 0.0
C2605 C 0.94168 0.88444 0.67787 0.0
C2606 C 0.93252 0.90047 0.68631 0.0
C2607 C 0.94252 0.91797 0.68671 0.0
C2608 C 0.96173 0.91946 0.67873 0.0
C2609 C 0.02666 0.94409 0.58942 0.0
C2610 C 0.02443 0.96355 0.59429 0.0
C2611 C 0.02224 0.92988 0.60312 0.0
C2612 C 0.01568 0.93485 0.622 0.0
C2613 C 0.01246 0.95421 0.62653 0.0
C2614 C 0.01682 0.96842 0.61283 0.0
C2615 C 0.01313 0.92004 0.63739 0.0
C2616 C 0.99464 0.91871 0.64705 0.0
C2617 C 0.02887 0.90736 0.64264 0.0
C2618 C 0.04896 0.90839 0.63344 0.0
C2619 C 0.06013 0.92536 0.63422 0.0
C2620 C 0.07884 0.92635 0.62511 0.0
C2621 C 0.0866 0.91041 0.61528 0.0
C2622 C 0.07572 0.89341 0.61464 0.0
C2623 C 0.05699 0.89235 0.62372 0.0
H2624 H 0.10107 0.91121 0.6082 0.0
H2625 H 0.91766 0.89935 0.69249 0.0
H2626 H 0.16584 0.03793 0.72197 0.0
H2627 H 0.15034 0.03394 0.68956 0.0
H2628 H 0.18539 0.98272 0.68025 0.0
H2629 H 0.20027 0.98621 0.71276 0.0
H2630 H 0.18204 0.02726 0.65307 0.0
H2631 H 0.15641 0.96303 0.67403 0.0
H2632 H 0.1379 0.94303 0.69748 0.0
H2633 H 0.08685 0.98046 0.69274 0.0
H2634 H 0.10531 1.00093 0.66959 0.0
H2635 H 0.11422 0.98307 0.56907 0.0
H2636 H 0.13633 0.98025 0.59743 0.0
H2637 H 0.13398 0.0415 0.60527 0.0
H2638 H 0.11253 0.04449 0.5767 0.0
H2639 H 0.12368 0.98845 0.6327 0.0
H2640 H 0.17116 0.05747 0.63284 0.0
H2641 H 0.18868 0.07814 0.60929 0.0
H2642 H 0.19635 0.03046 0.57028 0.0
H2643 H 0.17908 0.00944 0.59369 0.0
C2644 C 0.16966 0.0255 0.71323 0.0
C2645 C 0.18397 0.01221 0.7199 0.0
C2646 C 0.1609 0.02326 0.69478 0.0
C2647 C 0.16656 0.00788 0.68273 0.0
C2648 C 0.18045 0.99437 0.68958 0.0
C2649 C 0.1889 0.99637 0.70813 0.0
C2650 C 0.15966 0.00717 0.66225 0.0
C2651 C 0.16933 0.01874 0.64849 0.0
C2652 C 0.14334 0.99582 0.6564 0.0
C2653 C 0.13238 0.9837 0.67045 0.0
C2654 C 0.14138 0.96718 0.67827 0.0
C2655 C 0.13087 0.95571 0.69143 0.0
C2656 C 0.11124 0.96053 0.69668 0.0
C2657 C 0.10209 0.9768 0.68874 0.0
C2658 C 0.11258 0.98835 0.67563 0.0
C2659 C 0.11907 0.996 0.57638 0.0
C2660 C 0.11141 0.01398 0.57077 0.0
C2661 C 0.13158 0.99435 0.59269 0.0
C2662 C 0.13667 0.01062 0.60362 0.0
C2663 C 0.1305 0.02874 0.59698 0.0
C2664 C 0.1182 0.03043 0.58055 0.0
C2665 C 0.1461 0.00854 0.62318 0.0
C2666 C 0.13671 0.99667 0.63696 0.0
C2667 C 0.16284 0.01951 0.62897 0.0
C2668 C 0.17373 0.0319 0.615 0.0
C2669 C 0.17671 0.05136 0.6193 0.0
C2670 C 0.18656 0.06315 0.60596 0.0
C2671 C 0.19359 0.05563 0.58828 0.0
C2672 C 0.19085 0.03628 0.58395 0.0
C2673 C 0.18101 0.02442 0.59724 0.0
H2674 H 0.20118 0.06479 0.57796 0.0
H2675 H 0.10311 0.95161 0.70683 0.0
H2676 H 0.99516 0.18106 0.71142 0.0
H2677 H 0.99225 0.15636 0.68607 0.0
H2678 H 0.05602 0.15792 0.67695 0.0
H2679 H 0.05934 0.18166 0.70292 0.0
H2680 H 0.02598 0.1671 0.64271 0.0
H2681 H 0.04501 0.12255 0.69378 0.0
H2682 H 0.04167 0.10489 0.72474 0.0
H2683 H 0.98556 0.08188 0.70535 0.0
H2684 H 0.98826 0.09989 0.67449 0.0
H2685 H 0.05863 0.09853 0.57525 0.0
H2686 H 0.05258 0.11973 0.60296 0.0
H2687 H 0.99501 0.09374 0.61235 0.0
H2688 H 0.00103 0.07225 0.58436 0.0
H2689 H 0.01641 0.09694 0.64649 0.0
H2690 H 0.9969 0.13933 0.5955 0.0
H2691 H -2e-05 0.15533 0.56352 0.0
H2692 H 0.05508 0.18109 0.58197 0.0
H2693 H 0.05244 0.16509 0.61401 0.0
C2694 C 0.00868 0.1757 0.70455 0.0
C2695 C 0.02748 0.18367 0.70913 0.0
C2696 C 0.00694 0.16165 0.68994 0.0
C2697 C 0.0239 0.15542 0.67957 0.0
C2698 C 0.04273 0.1626 0.68474 0.0
C2699 C 0.04455 0.17631 0.69953 0.0
C2700 C 0.02199 0.14308 0.66196 0.0
C2701 C 0.02389 0.15174 0.64355 0.0
C2702 C 0.01861 0.12314 0.66304 0.0
C2703 C 0.01661 0.11299 0.68199 0.0
C2704 C 0.03171 0.11413 0.69629 0.0
C2705 C 0.02999 0.10395 0.71379 0.0
C2706 C 0.01334 0.09239 0.71709 0.0
C2707 C 0.99838 0.09097 0.70286 0.0
C2708 C -2e-05 0.1012 0.68538 0.0
C2709 C 0.04452 0.09748 0.58299 0.0
C2710 C 0.03025 0.08376 0.57754 0.0
C2711 C 0.04108 0.10966 0.59884 0.0
C2712 C 0.02331 0.10846 0.6097 0.0
C2713 C 0.00881 0.09498 0.60414 0.0
C2714 C 0.01217 0.08284 0.58804 0.0
C2715 C 0.02059 0.1209 0.62726 0.0
C2716 C 0.01793 0.11233 0.64564 0.0
C2717 C 0.02301 0.14097 0.62621 0.0
C2718 C 0.02449 0.15097 0.60713 0.0
C2719 C 0.00971 0.14837 0.59271 0.0
C2720 C 0.01137 0.15744 0.57458 0.0
C2721 C 0.02772 0.16922 0.57072 0.0
C2722 C 0.04241 0.17199 0.585 0.0
C2723 C 0.04081 0.16297 0.60317 0.0
H2724 H 0.02899 0.17621 0.55666 0.0
H2725 H 0.01209 0.08444 0.73061 0.0
H2726 H 0.86736 0.06151 0.72508 0.0
H2727 H 0.88947 0.05966 0.69682 0.0
H2728 H 0.91615 0.00793 0.71957 0.0
H2729 H 0.89405 0.00975 0.74825 0.0
H2730 H 0.94384 0.03548 0.70105 0.0
H2731 H 0.88266 1.00121 0.68881 0.0
H2732 H 0.84599 0.99731 0.68808 0.0
H2733 H 0.84061 0.04448 0.6482 0.0
H2734 H 0.87725 0.04887 0.64894 0.0
H2735 H 0.98064 0.00135 0.60839 0.0
H2736 H 0.9631 0.00282 0.63986 0.0
H2737 H 0.93292 0.05457 0.62168 0.0
H2738 H 0.95069 0.05349 0.5904 0.0
H2739 H 0.90759 0.02538 0.63844 0.0
H2740 H 0.96746 0.06046 0.65048 0.0
H2741 H 0.00382 0.0659 0.65104 0.0
H2742 H 0.01157 0.01944 0.6914 0.0
H2743 H 0.97523 0.01323 0.69054 0.0
C2744 C 0.87836 0.05007 0.72448 0.0
C2745 C 0.87899 0.03578 0.73894 0.0
C2746 C 0.89085 0.04895 0.7082 0.0
C2747 C 0.9042 0.03355 0.70608 0.0
C2748 C 0.90586 0.0199 0.72102 0.0
C2749 C 0.89322 0.02093 0.73731 0.0
C2750 C 0.91513 0.03105 0.68749 0.0
C2751 C 0.93602 0.03292 0.68739 0.0
C2752 C 0.90473 0.02819 0.66969 0.0
C2753 C 0.88269 0.02549 0.66909 0.0
C2754 C 0.87365 0.01087 0.68002 0.0
C2755 C 0.85287 0.00855 0.67958 0.0
C2756 C 0.84097 0.02067 0.66814 0.0
C2757 C 0.84984 0.03511 0.65707 0.0
C2758 C 0.87062 0.03751 0.65749 0.0
C2759 C 0.97025 0.01302 0.6111 0.0
C2760 C 0.96704 0.02733 0.59699 0.0
C2761 C 0.96032 0.01386 0.62907 0.0
C2762 C 0.94682 0.02883 0.63301 0.0
C2763 C 0.94332 0.04293 0.61883 0.0
C2764 C 0.95352 0.04232 0.60104 0.0
C2765 C 0.93632 0.02984 0.65196 0.0
C2766 C 0.91548 0.02772 0.65212 0.0
C2767 C 0.94676 0.03261 0.66975 0.0
C2768 C 0.96863 0.03619 0.67022 0.0
C2769 C 0.97692 0.05121 0.65926 0.0
C2770 C 0.99754 0.05448 0.65969 0.0
C2771 C 0.01001 0.04306 0.67127 0.0
C2772 C 0.00189 0.02827 0.68241 0.0
C2773 C 0.98128 0.02483 0.68192 0.0
H2774 H 0.02597 0.04568 0.67164 0.0
H2775 H 0.82489 0.01885 0.66782 0.0
H2776 H 0.30497 0.00604 0.13383 0.0
H2777 H 0.33324 0.00312 0.111 0.0
H2778 H 0.37173 0.98563 0.1586 0.0
H2779 H 0.34376 0.98903 0.18135 0.0
H2780 H 0.38785 0.01372 0.13995 0.0
H2781 H 0.35885 0.95439 0.1209 0.0
H2782 H 0.3317 0.93296 0.11038 0.0
H2783 H 0.32458 0.9652 0.05736 0.0
H2784 H 0.35152 0.98699 0.06768 0.0
H2785 H 0.47079 0.01191 0.07572 0.0
H2786 H 0.44577 0.99891 0.09821 0.0
H2787 H 0.39873 0.01509 0.05801 0.0
H2788 H 0.42358 0.02721 0.03522 0.0
H2789 H 0.38967 0.98238 0.07483 0.0
H2790 H 0.41462 0.04436 0.09691 0.0
H2791 H 0.44074 0.06661 0.10816 0.0
H2792 H 0.45486 0.02932 0.15609 0.0
H2793 H 0.429 0.00666 0.145 0.0
C2794 C 0.31941 1.00124 0.13924 0.0
C2795 C 0.32235 0.99798 0.15928 0.0
C2796 C 0.33551 0.99947 0.12623 0.0
C2797 C 0.35462 0.99409 0.13309 0.0
C2798 C 0.35719 0.98987 0.15299 0.0
C2799 C 0.34123 0.99184 0.16596 0.0
C2800 C 0.37237 0.99491 0.12009 0.0
C2801 C 0.38841 0.00651 0.12589 0.0
C2802 C 0.37301 0.98574 0.10163 0.0
C2803 C 0.35706 0.97246 0.09518 0.0
C2804 C 0.35138 0.95701 0.10707 0.0
C2805 C 0.33602 0.9448 0.10115 0.0
C2806 C 0.32629 0.94781 0.08329 0.0
C2807 C 0.33203 0.96296 0.07125 0.0
C2808 C 0.34738 0.97522 0.07711 0.0
C2809 C 0.45512 0.01241 0.07161 0.0
C2810 C 0.44908 0.02082 0.05387 0.0
C2811 C 0.44085 0.00502 0.08445 0.0
C2812 C 0.42035 0.00637 0.07995 0.0
C2813 C 0.41445 0.01393 0.06183 0.0
C2814 C 0.42868 0.02094 0.04884 0.0
C2815 C 0.40481 0.00154 0.09457 0.0
C2816 C 0.38922 0.98924 0.08908 0.0
C2817 C 0.40451 0.01008 0.11335 0.0
C2818 C 0.42006 0.02371 0.11998 0.0
C2819 C 0.4234 0.04084 0.10976 0.0
C2820 C 0.43814 0.05353 0.11612 0.0
C2821 C 0.44949 0.04938 0.13277 0.0
C2822 C 0.44609 0.03251 0.14316 0.0
C2823 C 0.43141 0.01972 0.13684 0.0
H2824 H 0.46088 0.05925 0.13765 0.0
H2825 H 0.31444 0.93832 0.07871 0.0
H2826 H 0.0385 0.34955 0.1947 0.0
H2827 H 0.03761 0.37208 0.16755 0.0
H2828 H 0.01911 0.32699 0.12855 0.0
H2829 H 0.01991 0.30412 0.15597 0.0
H2830 H 0.04791 0.35186 0.11208 0.0
H2831 H 0.98456 0.35692 0.14433 0.0
H2832 H 0.96224 0.36012 0.17287 0.0
H2833 H 0.98784 0.41476 0.18638 0.0
H2834 H 0.01058 0.41174 0.15811 0.0
H2835 H 0.03261 0.42527 0.04122 0.0
H2836 H 0.02633 0.39744 0.06189 0.0
H2837 H 0.03092 0.43317 0.1133 0.0
H2838 H 0.03575 0.46112 0.09259 0.0
H2839 H 0.00445 0.40917 0.12021 0.0
H2840 H 0.07134 0.40187 0.09115 0.0
H2841 H 0.09489 0.39797 0.06353 0.0
H2842 H 0.06349 0.34782 0.04465 0.0
H2843 H 0.03977 0.35143 0.07208 0.0
C2844 C 0.03418 0.34437 0.18037 0.0
C2845 C 0.02888 0.32511 0.17758 0.0
C2846 C 0.03372 0.35728 0.16484 0.0
C2847 C 0.02788 0.35133 0.1461 0.0
C2848 C 0.02352 0.33191 0.14294 0.0
C2849 C 0.02401 0.31888 0.15859 0.0
C2850 C 0.02587 0.36576 0.1302 0.0
C2851 C 0.0382 0.36428 0.11367 0.0
C2852 C 0.0133 0.38201 0.13234 0.0
C2853 C -0.00065 0.38405 0.14914 0.0
C2854 C 0.98551 0.36957 0.15344 0.0
C2855 C 0.97278 0.37135 0.16958 0.0
C2856 C 0.97364 0.38762 0.18145 0.0
C2857 C 0.9872 0.40216 0.17717 0.0
C2858 C -0.0 0.40044 0.16108 0.0
C2859 C 0.03192 0.42719 0.05693 0.0
C2860 C 0.03475 0.44536 0.0653 0.0
C2861 C 0.02854 0.41121 0.0688 0.0
C2862 C 0.0287 0.41294 0.08932 0.0
C2863 C 0.03078 0.43128 0.09757 0.0
C2864 C 0.03356 0.44732 0.08571 0.0
C2865 C 0.02729 0.39588 0.10242 0.0
C2866 C 0.01413 0.39676 0.11844 0.0
C2867 C 0.03929 0.37919 0.09988 0.0
C2868 C 0.05367 0.37705 0.08352 0.0
C2869 C 0.06942 0.39007 0.08104 0.0
C2870 C 0.0828 0.3879 0.06545 0.0
C2871 C 0.08063 0.37267 0.05237 0.0
C2872 C 0.06511 0.3596 0.05481 0.0
C2873 C 0.05173 0.36169 0.07037 0.0
H2874 H 0.091 0.37088 0.04042 0.0
H2875 H 0.96379 0.38896 0.19394 0.0
H2876 H 0.71685 0.08514 0.15114 0.0
H2877 H 0.68545 0.08007 0.13337 0.0
H2878 H 0.69345 0.01901 0.13862 0.0
H2879 H 0.72452 0.02389 0.15656 0.0
H2880 H 0.68033 0.02822 0.10293 0.0
H2881 H 0.66263 0.0429 0.16915 0.0
H2882 H 0.66112 0.06143 0.19983 0.0
H2883 H 0.63232 0.10792 0.16965 0.0
H2884 H 0.63398 0.08979 0.1387 0.0
H2885 H 0.58115 0.99655 0.08937 0.0
H2886 H 0.60842 0.007 0.1107 0.0
H2887 H 0.61033 0.06111 0.08062 0.0
H2888 H 0.58333 0.05069 0.059 0.0
H2889 H 0.61724 0.05639 0.12898 0.0
H2890 H 0.64221 0.04225 0.06155 0.0
H2891 H 0.64051 0.02174 0.03217 0.0
H2892 H 0.65285 0.97215 0.06734 0.0
H2893 H 0.6545 0.99245 0.09694 0.0
C2894 C 0.71202 0.07063 0.14833 0.0
C2895 C 0.72325 0.05493 0.15527 0.0
C2896 C 0.69404 0.06777 0.13825 0.0
C2897 C 0.68697 0.04917 0.13497 0.0
C2898 C 0.69862 0.03349 0.14101 0.0
C2899 C 0.71653 0.03632 0.15111 0.0
C2900 C 0.66729 0.04592 0.12554 0.0
C2901 C 0.66661 0.03437 0.10874 0.0
C2902 C 0.64928 0.05396 0.13303 0.0
C2903 C 0.64871 0.06509 0.15153 0.0
C2904 C 0.65623 0.05717 0.16899 0.0
C2905 C 0.65528 0.06758 0.18645 0.0
C2906 C 0.6467 0.08587 0.18668 0.0
C2907 C 0.63902 0.09378 0.16944 0.0
C2908 C 0.63997 0.08344 0.15194 0.0
C2909 C 0.58694 0.01089 0.08766 0.0
C2910 C 0.58035 0.02272 0.07229 0.0
C2911 C 0.60247 0.01683 0.09988 0.0
C2912 C 0.61131 0.03476 0.0971 0.0
C2913 C 0.60355 0.04726 0.08298 0.0
C2914 C 0.58823 0.04123 0.07058 0.0
C2915 C 0.63062 0.03899 0.10652 0.0
C2916 C 0.63114 0.05054 0.12323 0.0
C2917 C 0.64849 0.03091 0.09914 0.0
C2918 C 0.64844 0.01881 0.08137 0.0
C2919 C 0.64457 0.02697 0.06297 0.0
C2920 C 0.6436 0.0154 0.0463 0.0
C2921 C 0.64656 0.99564 0.04789 0.0
C2922 C 0.6506 0.98745 0.06614 0.0
C2923 C 0.65159 0.99898 0.08285 0.0
H2924 H 0.64573 0.98667 0.035 0.0
H2925 H 0.64594 0.09389 0.20022 0.0
H2926 H 0.02204 0.68668 0.19297 0.0
H2927 H 0.02262 0.66208 0.16763 0.0
H2928 H 0.00683 0.70431 0.12423 0.0
H2929 H 0.0063 0.72926 0.14983 0.0
H2930 H 0.9838 0.67019 0.12172 0.0
H2931 H 0.05232 0.68805 0.12308 0.0
H2932 H 0.08523 0.69582 0.13729 0.0
H2933 H 0.08954 0.6394 0.16176 0.0
H2934 H 0.05652 0.63136 0.1479 0.0
H2935 H 0.00612 0.59994 0.04598 0.0
H2936 H 0.00192 0.62867 0.06638 0.0
H2937 H 0.02282 0.59701 0.11667 0.0
H2938 H 0.02731 0.56854 0.09621 0.0
H2939 H 0.04378 0.62905 0.11183 0.0
H2940 H 0.97359 0.61229 0.11167 0.0
H2941 H 0.94187 0.6043 0.09516 0.0
H2942 H 0.94156 0.65902 0.06665 0.0
H2943 H 0.97335 0.66729 0.08296 0.0
C2944 C 0.0187 0.69077 0.17802 0.0
C2945 C 0.01399 0.70986 0.17338 0.0
C2946 C 0.01913 0.6767 0.16354 0.0
C2947 C 0.01481 0.68134 0.14402 0.0
C2948 C 0.01019 0.70043 0.13922 0.0
C2949 C 0.01 0.71465 0.15378 0.0
C2950 C 0.01492 0.66593 0.12897 0.0
C2951 C 0.997 0.66139 0.11926 0.0
C2952 C 0.03208 0.65431 0.12593 0.0
C2953 C 0.05184 0.65916 0.13457 0.0
C2954 C 0.06018 0.67736 0.13165 0.0
C2955 C 0.07889 0.6818 0.1396 0.0
C2956 C 0.08945 0.66813 0.15045 0.0
C2957 C 0.08133 0.64998 0.15336 0.0
C2958 C 0.06263 0.64547 0.14544 0.0
C2959 C 0.00901 0.599 0.06156 0.0
C2960 C 0.01657 0.58199 0.06972 0.0
C2961 C 0.00677 0.61544 0.07317 0.0
C2962 C 0.0121 0.61504 0.0931 0.0
C2963 C 0.01866 0.5977 0.10136 0.0
C2964 C 0.02095 0.58137 0.08976 0.0
C2965 C 0.01249 0.63287 0.10507 0.0
C2966 C 0.03058 0.6379 0.11417 0.0
C2967 C 0.99554 0.64494 0.10742 0.0
C2968 C 0.97599 0.6403 0.09831 0.0
C2969 C 0.9668 0.62259 0.10182 0.0
C2970 C 0.94879 0.61802 0.09252 0.0
C2971 C 0.93975 0.63112 0.07979 0.0
C2972 C 0.94861 0.64888 0.07648 0.0
C2973 C 0.9666 0.65352 0.08578 0.0
H2974 H 0.92586 0.62752 0.07254 0.0
H2975 H 0.10395 0.67158 0.15657 0.0
H2976 H 0.30236 0.9899 0.88787 0.0
H2977 H 0.33247 0.98978 0.90864 0.0
H2978 H 0.36938 0.99727 0.85736 0.0
H2979 H 0.33952 0.99631 0.83674 0.0
H2980 H 0.38805 0.97473 0.88017 0.0
H2981 H 0.35525 0.03536 0.88884 0.0
H2982 H 0.32763 0.05768 0.89669 0.0
H2983 H 0.32459 0.03497 0.95495 0.0
H2984 H 0.35205 0.01235 0.94735 0.0
H2985 H 0.47141 0.0223 0.92573 0.0
H2986 H 0.44293 0.01146 0.90593 0.0
H2987 H 0.41139 0.99589 0.95861 0.0
H2988 H 0.43922 0.00784 0.97819 0.0
H2989 H 0.39028 0.01994 0.93608 0.0
H2990 H 0.42867 0.96194 0.92604 0.0
H2991 H 0.45893 0.94385 0.91633 0.0
H2992 H 0.4541 0.96609 0.85799 0.0
H2993 H 0.42406 0.98462 0.86742 0.0
C2994 C 0.31697 0.99131 0.88117 0.0
C2995 C 0.31879 0.99305 0.86084 0.0
C2996 C 0.33413 0.99134 0.89296 0.0
C2997 C 0.35323 0.99378 0.88459 0.0
C2998 C 0.35491 0.99525 0.86419 0.0
C2999 C 0.33787 0.99479 0.85244 0.0
C3000 C 0.37142 0.99563 0.89697 0.0
C3001 C 0.38855 0.98468 0.89235 0.0
C3002 C 0.37215 0.00856 0.9129 0.0
C3003 C 0.35551 0.02201 0.91745 0.0
C3004 C 0.34856 0.03502 0.90327 0.0
C3005 C 0.33297 0.04774 0.90768 0.0
C3006 C 0.32431 0.0477 0.92629 0.0
C3007 C 0.33127 0.03496 0.94053 0.0
C3008 C 0.34685 0.02219 0.93618 0.0
C3009 C 0.45858 0.01604 0.93294 0.0
C3010 C 0.45772 0.01506 0.95341 0.0
C3011 C 0.4424 0.00979 0.92167 0.0
C3012 C 0.42518 0.00259 0.93081 0.0
C3013 C 0.42466 1.00109 0.95126 0.0
C3014 C 0.44073 0.00746 0.96246 0.0
C3015 C 0.40677 0.99897 0.91938 0.0
C3016 C 0.38964 0.00974 0.92411 0.0
C3017 C 0.40631 0.9863 0.90327 0.0
C3018 C 0.42413 0.97476 0.89748 0.0
C3019 C 0.43411 0.96307 0.91116 0.0
C3020 C 0.45124 0.95273 0.90571 0.0
C3021 C 0.45843 0.95382 0.88656 0.0
C3022 C 0.44851 0.96524 0.87281 0.0
C3023 C 0.43142 0.97565 0.8782 0.0
H3024 H 0.47166 0.94579 0.88235 0.0
H3025 H 0.31225 0.05758 0.92969 0.0
H3026 H 0.028 0.34933 0.82282 0.0
H3027 H 0.03102 0.37261 0.84931 0.0
H3028 H 0.02402 0.32753 0.89172 0.0
H3029 H 0.02103 0.30398 0.86501 0.0
H3030 H 0.99836 0.35941 0.89774 0.0
H3031 H 0.06853 0.34793 0.88707 0.0
H3032 H 0.09943 0.34492 0.86755 0.0
H3033 H 0.09348 0.40342 0.8492 0.0
H3034 H 0.06236 0.40669 0.86834 0.0
H3035 H 0.00806 0.42379 0.97533 0.0
H3036 H 0.01571 0.39658 0.9542 0.0
H3037 H 0.03192 0.43514 0.90767 0.0
H3038 H 0.02477 0.46251 0.92905 0.0
H3039 H 0.05494 0.40445 0.90584 0.0
H3040 H 0.98448 0.41537 0.90867 0.0
H3041 H 0.95219 0.42136 0.92514 0.0
H3042 H 0.95718 0.36739 0.95477 0.0
H3043 H 0.98954 0.36108 0.93841 0.0
C3044 C 0.02725 0.34433 0.8378 0.0
C3045 C 0.02415 0.32485 0.84186 0.0
C3046 C 0.02912 0.35764 0.85293 0.0
C3047 C 0.02788 0.35183 0.87252 0.0
C3048 C 0.0251 0.33232 0.8767 0.0
C3049 C 0.02348 0.31888 0.86147 0.0
C3050 C 0.02821 0.36646 0.88839 0.0
C3051 C 0.01096 0.36892 0.89987 0.0
C3052 C 0.04428 0.37945 0.89058 0.0
C3053 C 0.063 0.3775 0.87904 0.0
C3054 C 0.0737 0.3601 0.87874 0.0
C3055 C 0.09128 0.35836 0.86776 0.0
C3056 C 0.09839 0.37395 0.85711 0.0
C3057 C 0.08795 0.39134 0.85744 0.0
C3058 C 0.07035 0.39315 0.86837 0.0
C3059 C 0.01355 0.42649 0.96071 0.0
C3060 C 0.01547 0.4453 0.95374 0.0
C3061 C 0.01788 0.4109 0.94859 0.0
C3062 C 0.02388 0.41376 0.92911 0.0
C3063 C 0.02717 0.43253 0.92257 0.0
C3064 C 0.02306 0.44819 0.9348 0.0
C3065 C 0.02516 0.39731 0.91523 0.0
C3066 C 0.04255 0.39465 0.90401 0.0
C3067 C 0.00906 0.3844 0.91287 0.0
C3068 C 0.98943 0.3878 0.92241 0.0
C3069 C 0.97868 0.40479 0.91871 0.0
C3070 C 0.96037 0.40824 0.92799 0.0
C3071 C 0.95263 0.39476 0.94095 0.0
C3072 C 0.96315 0.37778 0.94465 0.0
C3073 C 0.98146 0.37423 0.93533 0.0
H3074 H 0.93846 0.39754 0.94807 0.0
H3075 H 0.112 0.37257 0.84862 0.0
H3076 H 0.72783 0.06354 0.86577 0.0
H3077 H 0.69819 0.06626 0.8868 0.0
H3078 H 0.6934 0.00476 0.88793 0.0
H3079 H 0.72297 0.00197 0.86705 0.0
H3080 H 0.65937 0.02398 0.87325 0.0
H3081 H 0.70518 0.02821 0.92967 0.0
H3082 H 0.73301 0.04338 0.94757 0.0
H3083 H 0.70177 0.09727 0.94643 0.0
H3084 H 0.67373 0.08237 0.92855 0.0
H3085 H 0.59051 0.99206 0.94033 0.0
H3086 H 0.61901 1.00071 0.92043 0.0
H3087 H 0.61179 0.05983 0.93734 0.0
H3088 H 0.58334 0.05111 0.95768 0.0
H3089 H 0.64983 0.04985 0.94023 0.0
H3090 H 0.60163 0.04568 0.8902 0.0
H3091 H 0.57339 0.03278 0.87118 0.0
H3092 H 0.60808 0.98268 0.85715 0.0
H3093 H 0.63646 0.99513 0.87632 0.0
C3094 C 0.72086 0.05061 0.87111 0.0
C3095 C 0.72753 0.03254 0.86469 0.0
C3096 C 0.70389 0.05219 0.88302 0.0
C3097 C 0.69353 0.03571 0.88868 0.0
C3098 C 0.70112 0.01764 0.88353 0.0
C3099 C 0.71801 0.01606 0.87167 0.0
C3100 C 0.67367 0.03705 0.89809 0.0
C3101 C 0.65725 0.02949 0.88796 0.0
C3102 C 0.67078 0.04538 0.91671 0.0
C3103 C 0.68748 0.05424 0.92765 0.0
C3104 C 0.70432 0.04332 0.93314 0.0
C3105 C 0.72011 0.05186 0.9433 0.0
C3106 C 0.71921 0.0713 0.94803 0.0
C3107 C 0.7025 0.08224 0.94265 0.0
C3108 C 0.68661 0.07373 0.9326 0.0
C3109 C 0.5947 0.00699 0.93971 0.0
C3110 C 0.58454 0.0209 0.95089 0.0
C3111 C 0.61103 0.01193 0.92818 0.0
C3112 C 0.61745 0.03097 0.9272 0.0
C3113 C 0.6071 0.04504 0.93787 0.0
C3114 C 0.59074 0.04003 0.94954 0.0
C3115 C 0.63568 0.03563 0.91584 0.0
C3116 C 0.65176 0.04455 0.92543 0.0
C3117 C 0.6382 0.02893 0.89645 0.0
C3118 C 0.62118 0.02133 0.8848 0.0
C3119 C 0.60321 0.03185 0.88317 0.0
C3120 C 0.58718 0.02463 0.87234 0.0
C3121 C 0.58893 0.00691 0.86298 0.0
C3122 C 0.60675 0.99641 0.8644 0.0
C3123 C 0.62283 0.00356 0.87522 0.0
H3124 H 0.57649 1.00134 0.85461 0.0
H3125 H 0.73141 0.07787 0.95596 0.0
H3126 H 0.9858 0.71484 0.85401 0.0
H3127 H 0.98799 0.68998 0.87901 0.0
H3128 H 0.0524 0.68952 0.87379 0.0
H3129 H 0.0502 0.71415 0.84843 0.0
H3130 H 0.03955 0.65476 0.87189 0.0
H3131 H 0.02644 0.70681 0.9157 0.0
H3132 H 0.00878 0.73502 0.92908 0.0
H3133 H 0.95558 0.70171 0.93691 0.0
H3134 H 0.97278 0.6734 0.92324 0.0
H3135 H 0.0433 0.58182 0.94678 0.0
H3136 H 0.04918 0.61144 0.92826 0.0
H3137 H 0.98547 0.62222 0.92647 0.0
H3138 H 0.97963 0.59349 0.94514 0.0
H3139 H 0.00319 0.65364 0.93505 0.0
H3140 H 0.0132 0.60417 0.8863 0.0
H3141 H 0.02915 0.57566 0.8716 0.0
H3142 H 0.08619 0.60366 0.87257 0.0
H3143 H 0.07059 0.6323 0.8875 0.0
C3144 C 0.00046 0.70981 0.85855 0.0
C3145 C 0.01783 0.71648 0.84923 0.0
C3146 C 0.00172 0.69556 0.87289 0.0
C3147 C 0.0204 0.68789 0.87848 0.0
C3148 C 0.03781 0.69512 0.86974 0.0
C3149 C 0.03654 0.70923 0.85527 0.0
C3150 C 0.02161 0.67124 0.89211 0.0
C3151 C 0.03192 0.6547 0.8859 0.0
C3152 C 0.01135 0.67089 0.91024 0.0
C3153 C 0.00089 0.688 0.91827 0.0
C3154 C 0.01092 0.70554 0.92009 0.0
C3155 C 0.00099 0.72155 0.92775 0.0
C3156 C 0.98106 0.72017 0.93379 0.0
C3157 C 0.97101 0.70277 0.93219 0.0
C3158 C 0.98085 0.68674 0.92449 0.0
C3159 C 0.03062 0.59056 0.94245 0.0
C3160 C 0.01103 0.58524 0.94754 0.0
C3161 C 0.03396 0.60744 0.93178 0.0
C3162 C 0.01773 0.61911 0.92588 0.0
C3163 C 0.99827 0.61364 0.93092 0.0
C3164 C 0.99497 0.59703 0.94157 0.0
C3165 C 0.02049 0.63706 0.91446 0.0
C3166 C 0.01101 0.65386 0.92114 0.0
C3167 C 0.03129 0.6376 0.89668 0.0
C3168 C 0.04078 0.62028 0.88818 0.0
C3169 C 0.02918 0.60417 0.88356 0.0
C3170 C 0.03814 0.58802 0.87515 0.0
C3171 C 0.05865 0.58787 0.87115 0.0
C3172 C 0.07029 0.60382 0.87567 0.0
C3173 C 0.0614 0.62001 0.8841 0.0
H3174 H 0.06547 0.57544 0.8644 0.0
H3175 H 0.97342 0.73258 0.93975 0.0
H3176 H 0.19151 0.33834 0.01852 0.0
H3177 H 0.16808 0.36456 0.01253 0.0
H3178 H 0.11855 0.32734 0.02564 0.0
H3179 H 0.14224 0.30063 0.03097 0.0
H3180 H 0.10935 0.34977 0.99566 0.0
H3181 H 0.13529 0.36089 0.05968 0.0
H3182 H 0.16142 0.36407 0.08499 0.0
H3183 H 0.18686 0.41138 0.05389 0.0
H3184 H 0.16103 0.40832 0.02826 0.0
H3185 H 0.0441 0.43189 0.00328 0.0
H3186 H 0.06305 0.40286 0.01177 0.0
H3187 H 0.11783 0.43024 0.99403 0.0
H3188 H 0.09913 0.45925 0.98579 0.0
H3189 H 0.12149 0.41162 0.02924 0.0
H3190 H 0.09577 0.39852 0.96422 0.0
H3191 H 0.06935 0.39457 0.93937 0.0
H3192 H 0.04204 0.35078 0.97412 0.0
H3193 H 0.0682 0.35467 0.99936 0.0
C3194 C 0.17561 0.33575 0.02012 0.0
C3195 C 0.16863 0.3176 0.02548 0.0
C3196 C 0.16223 0.35076 0.01678 0.0
C3197 C 0.14157 0.3481 0.01916 0.0
C3198 C 0.13445 0.32977 0.02389 0.0
C3199 C 0.14792 0.31456 0.02695 0.0
C3200 C 0.12764 0.3646 0.0167 0.0
C3201 C 0.11179 0.36318 0.00327 0.0
C3202 C 0.1309 0.38221 0.02648 0.0
C3203 C 0.14632 0.38427 0.04198 0.0
C3204 C 0.14653 0.3719 0.05819 0.0
C3205 C 0.16128 0.37369 0.0726 0.0
C3206 C 0.17581 0.38789 0.07103 0.0
C3207 C 0.1756 0.40038 0.05508 0.0
C3208 C 0.16089 0.39864 0.04062 0.0
C3209 C 0.0602 0.43173 0.0013 0.0
C3210 C 0.07014 0.44786 0.99391 0.0
C3211 C 0.07097 0.41512 0.00604 0.0
C3212 C 0.09182 0.41438 0.00336 0.0
C3213 C 0.10175 0.43053 0.99619 0.0
C3214 C 0.09102 0.44707 0.99142 0.0
C3215 C 0.1035 0.39685 0.00797 0.0
C3216 C 0.11896 0.39813 0.02179 0.0
C3217 C 0.0997 0.37911 0.99874 0.0
C3218 C 0.08385 0.37697 0.98372 0.0
C3219 C 0.08403 0.38816 0.96664 0.0
C3220 C 0.06913 0.3859 0.95246 0.0
C3221 C 0.05405 0.37239 0.95514 0.0
C3222 C 0.05376 0.36121 0.97206 0.0
C3223 C 0.06863 0.36342 0.98629 0.0
H3224 H 0.0426 0.37054 0.94409 0.0
H3225 H 0.18723 0.38925 0.08219 0.0
H3226 H 0.13943 0.73544 0.05644 0.0
H3227 H 0.11783 0.70719 0.05499 0.0
H3228 H 0.13699 0.6968 0.99558 0.0
H3229 H 0.15777 0.72526 0.99677 0.0
H3230 H 0.10025 0.68853 0.99768 0.0
H3231 H 0.15776 0.67361 0.03849 0.0
H3232 H 0.1802 0.67756 0.06689 0.0
H3233 H 0.13086 0.6682 0.10592 0.0
H3234 H 0.10809 0.66442 0.07773 0.0
H3235 H 0.09705 0.5905 0.98172 0.0
H3236 H 0.10984 0.62184 0.99102 0.0
H3237 H 0.06921 0.6236 0.04001 0.0
H3238 H 0.05597 0.59225 0.03033 0.0
H3239 H 0.11061 0.63763 0.04728 0.0
H3240 H 0.05483 0.64695 0.00316 0.0
H3241 H 0.03536 0.64138 0.97296 0.0
H3242 H 0.08522 0.6596 0.93823 0.0
H3243 H 0.10512 0.66498 0.96812 0.0
C3244 C 0.13867 0.72728 0.04299 0.0
C3245 C 0.15019 0.7326 0.02669 0.0
C3246 C 0.12648 0.71104 0.04221 0.0
C3247 C 0.12604 0.69956 0.0253 0.0
C3248 C 0.13697 0.70537 0.0088 0.0
C3249 C 0.14881 0.72173 0.00945 0.0
C3250 C 0.11498 0.68111 0.02472 0.0
C3251 C 0.10258 0.67744 0.00855 0.0
C3252 C 0.11753 0.66667 0.03911 0.0
C3253 C 0.13119 0.669 0.05603 0.0
C3254 C 0.15168 0.67255 0.05314 0.0
C3255 C 0.16446 0.67473 0.06919 0.0
C3256 C 0.15695 0.6732 0.0882 0.0
C3257 C 0.13665 0.66943 0.09119 0.0
C3258 C 0.1238 0.66726 0.07518 0.0
C3259 C 0.09112 0.59737 0.99472 0.0
C3260 C 0.07574 0.58876 0.00555 0.0
C3261 C 0.09838 0.6153 0.99996 0.0
C3262 C 0.09033 0.62509 0.01607 0.0
C3263 C 0.07567 0.61619 0.02757 0.0
C3264 C 0.06832 0.59816 0.02224 0.0
C3265 C 0.09663 0.64502 0.01994 0.0
C3266 C 0.10801 0.64893 0.03669 0.0
C3267 C 0.09353 0.65958 0.00588 0.0
C3268 C 0.0815 0.6563 0.9879 0.0
C3269 C 0.0617 0.64963 0.98908 0.0
C3270 C 0.05058 0.64653 0.97202 0.0
C3271 C 0.05907 0.65017 0.95374 0.0
C3272 C 0.07868 0.65684 0.95243 0.0
C3273 C 0.08987 0.65993 0.96941 0.0
H3274 H 0.05049 0.64787 0.94057 0.0
H3275 H 0.16687 0.67488 0.1006 0.0
H3276 H 0.29714 0.16084 0.99536 0.0
H3277 H 0.32868 0.14252 0.99318 0.0
H3278 H 0.35195 0.17354 0.04266 0.0
H3279 H 0.32055 0.19156 0.04518 0.0
H3280 H 0.37523 0.17257 0.00243 0.0
H3281 H 0.34507 0.13528 0.05506 0.0
H3282 H 0.31848 0.11549 0.06952 0.0
H3283 H 0.32452 0.07499 0.02256 0.0
H3284 H 0.35097 0.09472 0.00768 0.0
H3285 H 0.45425 0.09919 0.03946 0.0
H3286 H 0.42315 0.11746 0.04103 0.0
H3287 H 0.42339 0.1239 0.97837 0.0
H3288 H 0.45454 0.10522 0.97645 0.0
H3289 H 0.38771 0.10577 0.02387 0.0
H3290 H 0.39801 0.167 0.96913 0.0
H3291 H 0.42487 0.18697 0.95536 0.0
H3292 H 0.45928 0.17994 0.00799 0.0
H3293 H 0.43256 0.16007 0.02213 0.0
C3294 C 0.30885 0.16343 0.006 0.0
C3295 C 0.30633 0.17751 0.02053 0.0
C3296 C 0.32682 0.15302 0.00471 0.0
C3297 C 0.34258 0.15681 0.01771 0.0
C3298 C 0.33991 0.17045 0.03252 0.0
C3299 C 0.32189 0.18058 0.03405 0.0
C3300 C 0.36231 0.14739 0.01529 0.0
C3301 C 0.37798 0.15792 0.00699 0.0
C3302 C 0.36579 0.12835 0.02129 0.0
C3303 C 0.34977 0.11661 0.03012 0.0
C3304 C 0.34054 0.12229 0.04769 0.0
C3305 C 0.32555 0.11104 0.056 0.0
C3306 C 0.31975 0.09403 0.04692 0.0
C3307 C 0.32898 0.0882 0.02955 0.0
C3308 C 0.34398 0.0994 0.02118 0.0
C3309 C 0.44801 0.10476 0.02597 0.0
C3310 C 0.45685 0.1005 0.00778 0.0
C3311 C 0.43014 0.11514 0.02695 0.0
C3312 C 0.42087 0.12183 0.00987 0.0
C3313 C 0.43029 0.1188 0.99175 0.0
C3314 C 0.44814 0.10818 0.9907 0.0
C3315 C 0.40081 0.13098 0.01115 0.0
C3316 C 0.38499 0.12036 0.01912 0.0
C3317 C 0.39723 0.14995 0.00487 0.0
C3318 C 0.41336 0.16193 0.99659 0.0
C3319 C 0.41129 0.16977 0.97777 0.0
C3320 C 0.42648 0.18108 0.96992 0.0
C3321 C 0.44376 0.18473 0.9808 0.0
C3322 C 0.44589 0.17708 0.99957 0.0
C3323 C 0.43076 0.16575 0.00749 0.0
H3324 H 0.45553 0.19344 0.97467 0.0
H3325 H 0.30816 0.08533 0.05339 0.0
H3326 H 0.86462 0.33102 0.99351 0.0
H3327 H 0.88693 0.35801 0.99861 0.0
H3328 H 0.93817 0.32047 0.99247 0.0
H3329 H 0.91554 0.29305 0.98823 0.0
H3330 H 0.94471 0.34444 0.02075 0.0
H3331 H 0.92149 0.35197 0.95539 0.0
H3332 H 0.89797 0.35509 0.92776 0.0
H3333 H 0.87237 0.40555 0.95375 0.0
H3334 H 0.89548 0.40259 0.98173 0.0
H3335 H 0.00622 0.42945 0.01466 0.0
H3336 H 0.98992 0.39932 0.00555 0.0
H3337 H 0.9325 0.42345 0.02121 0.0
H3338 H 0.94859 0.45334 0.03055 0.0
H3339 H 0.93328 0.40496 0.9845 0.0
H3340 H 0.95315 0.39454 0.05155 0.0
H3341 H 0.97664 0.39169 0.07929 0.0
H3342 H 0.00878 0.34717 0.04917 0.0
H3343 H 0.9857 0.34999 0.02108 0.0
C3344 C 0.88067 0.32856 0.99316 0.0
C3345 C 0.88844 0.31007 0.99019 0.0
C3346 C 0.89342 0.34401 0.99596 0.0
C3347 C 0.91428 0.34144 0.99534 0.0
C3348 C 0.92212 0.32285 0.9928 0.0
C3349 C 0.90927 0.30723 0.99035 0.0
C3350 C 0.92765 0.3582 0.99789 0.0
C3351 C 0.9425 0.35751 0.01247 0.0
C3352 C 0.92457 0.37545 0.98735 0.0
C3353 C 0.91016 0.37694 0.97079 0.0
C3354 C 0.91069 0.3636 0.95536 0.0
C3355 C 0.89746 0.36538 0.9396 0.0
C3356 C 0.88366 0.38048 0.93902 0.0
C3357 C 0.88305 0.39384 0.95423 0.0
C3358 C 0.89622 0.39212 0.97004 0.0
C3359 C 0.99014 0.42828 0.01619 0.0
C3360 C 0.97869 0.44371 0.02341 0.0
C3361 C 0.98088 0.41108 0.01103 0.0
C3362 C 0.96004 0.40919 0.01282 0.0
C3363 C 0.9486 0.42466 0.01974 0.0
C3364 C 0.95784 0.44169 0.02513 0.0
C3365 C 0.94988 0.39117 0.00748 0.0
C3366 C 0.93566 0.3917 0.99242 0.0
C3367 C 0.95354 0.37384 0.01752 0.0
C3368 C 0.96782 0.37261 0.03412 0.0
C3369 C 0.96539 0.38432 0.05072 0.0
C3370 C 0.97858 0.38267 0.06654 0.0
C3371 C 0.99413 0.36921 0.06601 0.0
C3372 C 0.99669 0.35755 0.04957 0.0
C3373 C 0.98358 0.35918 0.03369 0.0
H3374 H 0.00413 0.36776 0.07836 0.0
H3375 H 0.87346 0.38186 0.92678 0.0
H3376 H 0.7167 0.83239 0.9872 0.0
H3377 H 0.68495 0.8499 0.989 0.0
H3378 H 0.71532 0.89776 0.0155 0.0
H3379 H 0.74702 0.87962 0.01466 0.0
H3380 H 0.68234 0.89122 0.03422 0.0
H3381 H 0.69816 0.8962 0.96509 0.0
H3382 H 0.70655 0.88319 0.93251 0.0
H3383 H 0.65205 0.85091 0.93222 0.0
H3384 H 0.64345 0.86354 0.96489 0.0
H3385 H 0.6074 0.96091 0.02612 0.0
H3386 H 0.63732 0.94111 0.02396 0.0
H3387 H 0.60374 0.89767 0.9934 0.0
H3388 H 0.57393 0.91862 0.99403 0.0
H3389 H 0.63724 0.89996 0.97718 0.0
H3390 H 0.62061 0.89432 0.04533 0.0
H3391 H 0.61174 0.90598 0.07832 0.0
H3392 H 0.6664 0.93787 0.08099 0.0
H3393 H 0.67567 0.92635 0.04808 0.0
C3394 C 0.71657 0.84677 0.99314 0.0
C3395 C 0.73421 0.85487 0.00051 0.0
C3396 C 0.69845 0.8568 0.99411 0.0
C3397 C 0.69773 0.87536 0.002 0.0
C3398 C 0.71549 0.88351 0.00925 0.0
C3399 C 0.73358 0.87327 0.00867 0.0
C3400 C 0.67835 0.88593 0.00342 0.0
C3401 C 0.6726 0.89334 0.02168 0.0
C3402 C 0.66518 0.88804 0.98727 0.0
C3403 C 0.67024 0.88071 0.96749 0.0
C3404 C 0.68801 0.88626 0.95811 0.0
C3405 C 0.6928 0.87895 0.93963 0.0
C3406 C 0.67986 0.8662 0.93033 0.0
C3407 C 0.66206 0.86078 0.93945 0.0
C3408 C 0.65722 0.86802 0.95793 0.0
C3409 C 0.60635 0.94702 0.01913 0.0
C3410 C 0.58837 0.94108 0.01049 0.0
C3411 C 0.62346 0.93559 0.01805 0.0
C3412 C 0.62278 0.9175 0.00912 0.0
C3413 C 0.60467 0.91147 0.00053 0.0
C3414 C 0.58763 0.92333 0.00096 0.0
C3415 C 0.64129 0.90549 0.00796 0.0
C3416 C 0.64688 0.89776 0.98977 0.0
C3417 C 0.65421 0.90286 0.02425 0.0
C3418 C 0.6488 0.90952 0.0442 0.0
C3419 C 0.63072 0.90385 0.05294 0.0
C3420 C 0.62561 0.91045 0.07161 0.0
C3421 C 0.63842 0.92276 0.08168 0.0
C3422 C 0.65647 0.92836 0.07317 0.0
C3423 C 0.66171 0.92173 0.05455 0.0
H3424 H 0.6344 0.9279 0.0961 0.0
H3425 H 0.6836 0.86055 0.91603 0.0
H3426 H 0.88181 0.72161 0.94995 0.0
H3427 H 0.90564 0.69482 0.95098 0.0
H3428 H 0.9085 0.69951 0.01385 0.0
H3429 H 0.88495 0.72637 0.01288 0.0
H3430 H 0.9445 0.68835 0.99876 0.0
H3431 H 0.87426 0.6705 0.99145 0.0
H3432 H 0.84173 0.67103 0.97429 0.0
H3433 H 0.86954 0.64764 0.92284 0.0
H3434 H 0.9023 0.64725 0.93964 0.0
H3435 H 0.95696 0.5997 0.04077 0.0
H3436 H 0.94413 0.62984 0.02853 0.0
H3437 H 0.94615 0.60799 0.96948 0.0
H3438 H 0.95787 0.57688 0.98199 0.0
H3439 H 0.91279 0.62841 0.97551 0.0
H3440 H 0.98201 0.63998 0.98585 0.0
H3441 H 0.01379 0.63822 0.00421 0.0
H3442 H 0.98849 0.67295 0.04986 0.0
H3443 H 0.95636 0.67452 0.03207 0.0
C3444 C 0.88792 0.71721 0.96394 0.0
C3445 C 0.88135 0.72596 0.98136 0.0
C3446 C 0.90151 0.7019 0.96451 0.0
C3447 C 0.90851 0.6949 0.98253 0.0
C3448 C 0.90327 0.70464 0.99978 0.0
C3449 C 0.88982 0.72005 0.9992 0.0
C3450 C 0.91918 0.67621 0.98382 0.0
C3451 C 0.93763 0.67525 0.99363 0.0
C3452 C 0.91047 0.65913 0.97665 0.0
C3453 C 0.89073 0.65904 0.96671 0.0
C3454 C 0.87344 0.66556 0.97645 0.0
C3455 C 0.85497 0.66584 0.96679 0.0
C3456 C 0.85358 0.65942 0.94747 0.0
C3457 C 0.87065 0.65264 0.93779 0.0
C3458 C 0.88916 0.65239 0.94737 0.0
C3459 C 0.95464 0.60112 0.02514 0.0
C3460 C 0.95901 0.58593 0.01225 0.0
C3461 C 0.94748 0.61854 0.01814 0.0
C3462 C 0.94487 0.62147 0.99802 0.0
C3463 C 0.94847 0.60617 0.98506 0.0
C3464 C 0.95539 0.58848 0.99216 0.0
C3465 C 0.93784 0.64047 0.99097 0.0
C3466 C 0.92003 0.64152 0.98012 0.0
C3467 C 0.94719 0.65761 0.99715 0.0
C3468 C 0.96673 0.65735 0.0076 0.0
C3469 C 0.98319 0.64721 0.99983 0.0
C3470 C 0.00125 0.64621 0.01016 0.0
C3471 C 0.00314 0.65545 0.0282 0.0
C3472 C 0.98698 0.66577 0.03591 0.0
C3473 C 0.96884 0.66675 0.02569 0.0
H3474 H 0.01712 0.65461 0.03619 0.0
H3475 H 0.83927 0.65965 0.94001 0.0
H3476 H 0.26807 0.88958 0.01154 0.0
H3477 H 0.29279 0.91545 0.01435 0.0
H3478 H 0.34061 0.87363 0.01414 0.0
H3479 H 0.31622 0.848 0.01153 0.0
H3480 H 0.34718 0.90059 0.04139 0.0
H3481 H 0.32922 0.89703 0.9733 0.0
H3482 H 0.30659 0.89784 0.94478 0.0
H3483 H 0.28924 0.95547 0.95899 0.0
H3484 H 0.31158 0.95489 0.98779 0.0
H3485 H 0.42267 0.95913 0.98254 0.0
H3486 H 0.39101 0.94188 0.98378 0.0
H3487 H 0.38122 0.96209 0.04271 0.0
H3488 H 0.41347 0.97828 0.04201 0.0
H3489 H 0.35282 0.94898 0.98864 0.0
H3490 H 0.36323 0.93385 0.06835 0.0
H3491 H 0.39014 0.93022 0.09289 0.0
H3492 H 0.42792 0.90385 0.0496 0.0
H3493 H 0.40126 0.90782 0.02479 0.0
C3494 C 0.28386 0.886 0.01223 0.0
C3495 C 0.29025 0.86682 0.01105 0.0
C3496 C 0.29794 0.90074 0.01377 0.0
C3497 C 0.31855 0.89645 0.01437 0.0
C3498 C 0.32482 0.87728 0.01374 0.0
C3499 C 0.31085 0.86266 0.01204 0.0
C3500 C 0.33387 0.91172 0.01495 0.0
C3501 C 0.3482 0.91135 0.03 0.0
C3502 C 0.33551 0.92554 0.99993 0.0
C3503 C 0.32181 0.92581 0.98286 0.0
C3504 C 0.32039 0.90979 0.97048 0.0
C3505 C 0.30767 0.91022 0.95423 0.0
C3506 C 0.29642 0.92666 0.95012 0.0
C3507 C 0.29791 0.94272 0.96223 0.0
C3508 C 0.31059 0.94235 0.97852 0.0
C3509 C 0.4137 0.96005 0.9957 0.0
C3510 C 0.42071 0.96989 0.01227 0.0
C3511 C 0.39555 0.95023 0.99638 0.0
C3512 C 0.38394 0.95029 0.01351 0.0
C3513 C 0.3902 0.96131 0.02955 0.0
C3514 C 0.40856 0.97075 0.02905 0.0
C3515 C 0.36614 0.93773 0.01497 0.0
C3516 C 0.35141 0.93859 0.00033 0.0
C3517 C 0.36445 0.92391 0.02998 0.0
C3518 C 0.38032 0.92118 0.04484 0.0
C3519 C 0.37725 0.92727 0.06417 0.0
C3520 C 0.39249 0.92524 0.07807 0.0
C3521 C 0.41075 0.9168 0.07281 0.0
C3522 C 0.41381 0.91044 0.05363 0.0
C3523 C 0.39868 0.91268 0.03964 0.0
H3524 H 0.42251 0.91516 0.08359 0.0
H3525 H 0.2866 0.92699 0.93751 0.0
H3526 H 0.74152 0.18022 0.98072 0.0
H3527 H 0.71445 0.15673 0.98179 0.0
H3528 H 0.73994 0.13214 0.03408 0.0
H3529 H 0.76678 0.15619 0.03342 0.0
H3530 H 0.7233 0.10481 0.00184 0.0
H3531 H 0.70737 0.15637 0.04516 0.0
H3532 H 0.70388 0.19004 0.05538 0.0
H3533 H 0.66083 0.19977 0.0097 0.0
H3534 H 0.66443 0.16622 0.99889 0.0
H3535 H 0.6271 0.0647 0.03509 0.0
H3536 H 0.6592 0.08178 0.03576 0.0
H3537 H 0.64435 0.10889 0.98096 0.0
H3538 H 0.61279 0.09132 0.97974 0.0
H3539 H 0.6569 0.13333 0.01749 0.0
H3540 H 0.67247 0.07882 0.97638 0.0
H3541 H 0.67536 0.04433 0.96983 0.0
H3542 H 0.71967 0.03893 0.01505 0.0
H3543 H 0.71633 0.07331 0.02258 0.0
C3544 C 0.74159 0.1695 0.99216 0.0
C3545 C 0.75622 0.16981 0.0069 0.0
C3546 C 0.72613 0.15616 0.99279 0.0
C3547 C 0.72526 0.14274 0.008 0.0
C3548 C 0.74048 0.14234 0.02218 0.0
C3549 C 0.75573 0.15602 0.0218 0.0
C3550 C 0.70737 0.1305 0.00993 0.0
C3551 C 0.70881 0.11092 0.00553 0.0
C3552 C 0.68853 0.13859 0.01473 0.0
C3553 C 0.68643 0.15885 0.02101 0.0
C3554 C 0.69739 0.16576 0.03709 0.0
C3555 C 0.69535 0.18481 0.04303 0.0
C3556 C 0.6822 0.19706 0.03314 0.0
C3557 C 0.67106 0.19027 0.0173 0.0
C3558 C 0.67311 0.17124 0.01125 0.0
C3559 C 0.63087 0.07409 0.02307 0.0
C3560 C 0.61757 0.07661 0.0073 0.0
C3561 C 0.64911 0.08385 0.0235 0.0
C3562 C 0.65401 0.09657 0.00842 0.0
C3563 C 0.64076 0.0991 0.9927 0.0
C3564 C 0.62285 0.08896 0.99197 0.0
C3565 C 0.67273 0.10769 0.00911 0.0
C3566 C 0.6714 0.12714 0.01396 0.0
C3567 C 0.69165 0.09933 0.00509 0.0
C3568 C 0.69385 0.07867 0.00032 0.0
C3569 C 0.6825 0.07026 0.98527 0.0
C3570 C 0.68426 0.05071 0.98133 0.0
C3571 C 0.69766 0.03943 0.99204 0.0
C3572 C 0.70927 0.04768 0.00678 0.0
C3573 C 0.70739 0.06721 0.01094 0.0
H3574 H 0.6991 0.02431 0.98887 0.0
H3575 H 0.68059 0.2118 0.0378 0.0
H3576 H 0.55475 0.67331 0.80123 0.0
H3577 H 0.555 0.6473 0.82542 0.0
H3578 H 0.49374 0.66047 0.84032 0.0
H3579 H 0.49313 0.68591 0.81592 0.0
H3580 H 0.52416 0.66304 0.87181 0.0
H3581 H 0.50091 0.62163 0.81947 0.0
H3582 H 0.50349 0.60512 0.78767 0.0
H3583 H 0.55771 0.57727 0.80643 0.0
H3584 H 0.55564 0.59388 0.83823 0.0
H3585 H 0.48783 0.59905 0.94062 0.0
H3586 H 0.49278 0.61714 0.91058 0.0
H3587 H 0.54883 0.5877 0.90071 0.0
H3588 H 0.54384 0.56918 0.9308 0.0
H3589 H 0.52677 0.59228 0.86627 0.0
H3590 H 0.5513 0.63113 0.91742 0.0
H3591 H 0.5518 0.64748 0.94938 0.0
H3592 H 0.49992 0.68043 0.93305 0.0
H3593 H 0.49893 0.66406 0.90107 0.0
C3594 C 0.54114 0.67024 0.8092 0.0
C3595 C 0.524 0.6819 0.80684 0.0
C3596 C 0.54134 0.65543 0.82307 0.0
C3597 C 0.52444 0.65209 0.83477 0.0
C3598 C 0.50698 0.66289 0.83153 0.0
C3599 C 0.5067 0.67749 0.81762 0.0
C3600 C 0.52541 0.63915 0.85196 0.0
C3601 C 0.52457 0.64756 0.87058 0.0
C3602 C 0.52693 0.619 0.85036 0.0
C3603 C 0.52829 0.60926 0.83112 0.0
C3604 C 0.51354 0.61222 0.81672 0.0
C3605 C 0.51487 0.60278 0.79871 0.0
C3606 C 0.5308 0.59023 0.795 0.0
C3607 C 0.54541 0.58705 0.8093 0.0
C3608 C 0.54417 0.59647 0.82731 0.0
C3609 C 0.50119 0.59631 0.93208 0.0
C3610 C 0.51555 0.58282 0.9383 0.0
C3611 C 0.50402 0.60671 0.91488 0.0
C3612 C 0.52131 0.60398 0.90351 0.0
C3613 C 0.53541 0.59009 0.90929 0.0
C3614 C 0.53257 0.5796 0.92655 0.0
C3615 C 0.52472 0.61623 0.88606 0.0
C3616 C 0.52654 0.60776 0.86748 0.0
C3617 C 0.52455 0.63642 0.88763 0.0
C3618 C 0.52493 0.64622 0.9069 0.0
C3619 C 0.53988 0.64172 0.92071 0.0
C3620 C 0.54027 0.65103 0.93882 0.0
C3621 C 0.52587 0.66495 0.94326 0.0
C3622 C 0.51105 0.66962 0.92959 0.0
C3623 C 0.51058 0.66035 0.91146 0.0
H3624 H 0.52622 0.67216 0.95728 0.0
H3625 H 0.53178 0.58291 0.78106 0.0
H3626 H 0.40946 0.54215 0.78749 0.0
H3627 H 0.43388 0.5465 0.81405 0.0
H3628 H 0.38716 0.53743 0.85655 0.0
H3629 H 0.36284 0.5338 0.83039 0.0
H3630 H 0.41003 0.56588 0.86803 0.0
H3631 H 0.42053 0.502 0.8416 0.0
H3632 H 0.4297 0.47769 0.81697 0.0
H3633 H 0.48788 0.50283 0.81096 0.0
H3634 H 0.47893 0.5275 0.83533 0.0
H3635 H 0.44667 0.51969 0.95139 0.0
H3636 H 0.4316 0.53005 0.92063 0.0
H3637 H 0.48984 0.54554 0.89869 0.0
H3638 H 0.50512 0.5353 0.9297 0.0
H3639 H 0.46753 0.52113 0.8739 0.0
H3640 H 0.4588 0.58051 0.90626 0.0
H3641 H 0.44991 0.60163 0.93386 0.0
H3642 H 0.38889 0.58287 0.9308 0.0
H3643 H 0.39743 0.56143 0.90332 0.0
C3644 C 0.40443 0.54124 0.80251 0.0
C3645 C 0.38426 0.5373 0.80679 0.0
C3646 C 0.41839 0.54365 0.81767 0.0
C3647 C 0.41239 0.54216 0.83733 0.0
C3648 C 0.39219 0.53867 0.84154 0.0
C3649 C 0.37832 0.53631 0.82651 0.0
C3650 C 0.42692 0.54347 0.85377 0.0
C3651 C 0.42268 0.55615 0.86925 0.0
C3652 C 0.44384 0.53121 0.85518 0.0
C3653 C 0.44889 0.51685 0.83996 0.0
C3654 C 0.43515 0.50255 0.83478 0.0
C3655 C 0.44034 0.48865 0.82092 0.0
C3656 C 0.45931 0.48879 0.8123 0.0
C3657 C 0.47314 0.50282 0.81753 0.0
C3658 C 0.468 0.51679 0.83134 0.0
C3659 C 0.45627 0.52551 0.94013 0.0
C3660 C 0.47707 0.52661 0.94293 0.0
C3661 C 0.44762 0.53154 0.92261 0.0
C3662 C 0.45958 0.5387 0.90746 0.0
C3663 C 0.48035 0.54016 0.91027 0.0
C3664 C 0.48902 0.53434 0.92798 0.0
C3665 C 0.45027 0.54297 0.88826 0.0
C3666 C 0.45541 0.53135 0.87232 0.0
C3667 C 0.43415 0.55606 0.8865 0.0
C3668 C 0.42878 0.5693 0.90272 0.0
C3669 C 0.44349 0.58082 0.91151 0.0
C3670 C 0.43852 0.59285 0.92714 0.0
C3671 C 0.41886 0.59356 0.9341 0.0
C3672 C 0.40411 0.58231 0.92538 0.0
C3673 C 0.409 0.57024 0.90973 0.0
H3674 H 0.41505 0.60286 0.94624 0.0
H3675 H 0.46333 0.47796 0.80165 0.0
H3676 H 0.53703 0.35571 0.80921 0.0
H3677 H 0.53731 0.37903 0.83583 0.0
H3678 H 0.47375 0.38791 0.829 0.0
H3679 H 0.47322 0.36411 0.80254 0.0
H3680 H 0.49901 0.42286 0.83943 0.0
H3681 H 0.48268 0.35917 0.86058 0.0
H3682 H 0.4874 0.32417 0.8613 0.0
H3683 H 0.54643 0.33125 0.88511 0.0
H3684 H 0.5422 0.36635 0.88417 0.0
H3685 H 0.4901 0.46053 0.93682 0.0
H3686 H 0.48351 0.44171 0.90724 0.0
H3687 H 0.54272 0.4169 0.9109 0.0
H3688 H 0.5493 0.43535 0.94048 0.0
H3689 H 0.51538 0.39005 0.90191 0.0
H3690 H 0.53234 0.45333 0.88007 0.0
H3691 H 0.5275 0.48825 0.88135 0.0
H3692 H 0.4677 0.48218 0.85923 0.0
H3693 H 0.47192 0.4471 0.85841 0.0
C3694 C 0.52314 0.36284 0.81311 0.0
C3695 C 0.50503 0.35777 0.80398 0.0
C3696 C 0.52336 0.37625 0.82826 0.0
C3697 C 0.50552 0.385 0.83453 0.0
C3698 C 0.48768 0.38131 0.82434 0.0
C3699 C 0.48742 0.36774 0.80919 0.0
C3700 C 0.50532 0.39581 0.85324 0.0
C3701 C 0.50225 0.41568 0.85314 0.0
C3702 C 0.50975 0.38647 0.8711 0.0
C3703 C 0.51219 0.36538 0.87214 0.0
C3704 C 0.49672 0.35327 0.86583 0.0
C3705 C 0.4993 0.33341 0.86629 0.0
C3706 C 0.51722 0.32549 0.8732 0.0
C3707 C 0.53257 0.33741 0.87973 0.0
C3708 C 0.53008 0.35729 0.87925 0.0
C3709 C 0.50168 0.45101 0.93137 0.0
C3710 C 0.52026 0.44951 0.94103 0.0
C3711 C 0.49791 0.44027 0.91443 0.0
C3712 C 0.51267 0.42795 0.90675 0.0
C3713 C 0.53107 0.42624 0.91656 0.0
C3714 C 0.53484 0.4369 0.93345 0.0
C3715 C 0.5094 0.41721 0.88818 0.0
C3716 C 0.51188 0.39727 0.88828 0.0
C3717 C 0.50445 0.42652 0.87038 0.0
C3718 C 0.50238 0.4476 0.86934 0.0
C3719 C 0.51816 0.45944 0.87545 0.0
C3720 C 0.51553 0.47925 0.87611 0.0
C3721 C 0.49737 0.48743 0.87023 0.0
C3722 C 0.48179 0.47582 0.86365 0.0
C3723 C 0.48427 0.45596 0.86314 0.0
H3724 H 0.49545 0.50276 0.87081 0.0
H3725 H 0.5192 0.31011 0.87354 0.0
H3726 H 0.66024 0.53025 0.80957 0.0
H3727 H 0.6377 0.53125 0.83779 0.0
H3728 H 0.61625 0.47494 0.8234 0.0
H3729 H 0.6392 0.47363 0.79529 0.0
H3730 H 0.58701 0.51251 0.83736 0.0
H3731 H 0.64264 0.46755 0.85293 0.0
H3732 H 0.67874 0.45985 0.85398 0.0
H3733 H 0.68943 0.51008 0.88859 0.0
H3734 H 0.65343 0.51826 0.88739 0.0
H3735 H 0.54342 0.49363 0.93297 0.0
H3736 H 0.55914 0.48873 0.90076 0.0
H3737 H 0.60522 0.52907 0.91602 0.0
H3738 H 0.58986 0.53396 0.94788 0.0
H3739 H 0.62056 0.49696 0.90019 0.0
H3740 H 0.56757 0.5411 0.88967 0.0
H3741 H 0.53365 0.55478 0.88712 0.0
H3742 H 0.51933 0.51496 0.84151 0.0
H3743 H 0.55267 0.50003 0.84467 0.0
C3744 C 0.65031 0.51831 0.81209 0.0
C3745 C 0.65134 0.50189 0.80022 0.0
C3746 C 0.63755 0.51886 0.82825 0.0
C3747 C 0.62544 0.50315 0.8326 0.0
C3748 C 0.62551 0.48719 0.82016 0.0
C3749 C 0.63857 0.48647 0.80417 0.0
C3750 C 0.61413 0.50286 0.85113 0.0
C3751 C 0.594 0.50865 0.85114 0.0
C3752 C 0.62382 0.49869 0.86899 0.0
C3753 C 0.6454 0.49363 0.86985 0.0
C3754 C 0.65273 0.47706 0.86056 0.0
C3755 C 0.67316 0.47259 0.86123 0.0
C3756 C 0.68639 0.4845 0.87129 0.0
C3757 C 0.67919 0.50088 0.88076 0.0
C3758 C 0.65877 0.50544 0.88009 0.0
C3759 C 0.55699 0.50131 0.92946 0.0
C3760 C 0.56541 0.51419 0.94294 0.0
C3761 C 0.56581 0.49863 0.91103 0.0
C3762 C 0.5832 0.5087 0.90597 0.0
C3763 C 0.59178 0.5212 0.91961 0.0
C3764 C 0.58295 0.52399 0.93782 0.0
C3765 C 0.59296 0.50624 0.88666 0.0
C3766 C 0.61307 0.50023 0.88648 0.0
C3767 C 0.58326 0.51077 0.86874 0.0
C3768 C 0.56263 0.51902 0.8678 0.0
C3769 C 0.55705 0.53477 0.87953 0.0
C3770 C 0.53789 0.54283 0.87793 0.0
C3771 C 0.5243 0.53569 0.86426 0.0
C3772 C 0.52983 0.52043 0.85218 0.0
C3773 C 0.5488 0.51202 0.85401 0.0
H3774 H 0.50952 0.54202 0.86297 0.0
H3775 H 0.7022 0.48101 0.8718 0.0
H3776 H 0.46651 0.35243 0.19197 0.0
H3777 H 0.46736 0.3785 0.1683 0.0
H3778 H 0.51893 0.40209 0.19732 0.0
H3779 H 0.51854 0.37555 0.22095 0.0
H3780 H 0.48712 0.43043 0.18126 0.0
H3781 H 0.53057 0.37753 0.16252 0.0
H3782 H 0.53791 0.34332 0.15696 0.0
H3783 H 0.49051 0.34055 0.11457 0.0
H3784 H 0.48267 0.37469 0.12013 0.0
H3785 H 0.53567 0.47877 0.10236 0.0
H3786 H 0.52356 0.46199 0.13125 0.0
H3787 H 0.48257 0.43007 0.09516 0.0
H3788 H 0.49401 0.44782 0.06621 0.0
H3789 H 0.50678 0.40662 0.11555 0.0
H3790 H 0.46633 0.46043 0.12998 0.0
H3791 H 0.45758 0.49433 0.13544 0.0
H3792 H 0.49652 0.49596 0.1854 0.0
H3793 H 0.50571 0.46216 0.18014 0.0
C3794 C 0.47795 0.36324 0.19351 0.0
C3795 C 0.4927 0.36164 0.20819 0.0
C3796 C 0.4783 0.37824 0.18002 0.0
C3797 C 0.49328 0.39218 0.18093 0.0
C3798 C 0.50717 0.39152 0.1964 0.0
C3799 C 0.50692 0.37635 0.20991 0.0
C3800 C 0.49574 0.40578 0.16432 0.0
C3801 C 0.49167 0.42537 0.16693 0.0
C3802 C 0.50101 0.39902 0.14548 0.0
C3803 C 0.5059 0.37859 0.1419 0.0
C3804 C 0.52161 0.36958 0.15213 0.0
C3805 C 0.52587 0.35021 0.14897 0.0
C3806 C 0.51465 0.33976 0.13546 0.0
C3807 C 0.49917 0.34866 0.12505 0.0
C3808 C 0.49481 0.36802 0.1282 0.0
C3809 C 0.52359 0.46865 0.10071 0.0
C3810 C 0.51566 0.46468 0.08213 0.0
C3811 C 0.51676 0.45893 0.11724 0.0
C3812 C 0.50235 0.4445 0.11545 0.0
C3813 C 0.49374 0.44111 0.09695 0.0
C3814 C 0.50016 0.45132 0.08044 0.0
C3815 C 0.49825 0.43151 0.1323 0.0
C3816 C 0.5021 0.41188 0.12978 0.0
C3817 C 0.49264 0.43834 0.1511 0.0
C3818 C 0.48705 0.45875 0.15442 0.0
C3819 C 0.47326 0.46805 0.14199 0.0
C3820 C 0.46814 0.48725 0.1451 0.0
C3821 C 0.47655 0.49732 0.1607 0.0
C3822 C 0.49006 0.48817 0.17327 0.0
C3823 C 0.49524 0.46897 0.17023 0.0
H3824 H 0.47253 0.51217 0.16311 0.0
H3825 H 0.51797 0.32476 0.13303 0.0
H3826 H 0.68446 0.49945 0.19796 0.0
H3827 H 0.6624 0.49214 0.17049 0.0
H3828 H 0.61169 0.51336 0.20327 0.0
H3829 H 0.63396 0.52043 0.2312 0.0
H3830 H 0.60357 0.47984 0.18012 0.0
H3831 H 0.63147 0.54279 0.17196 0.0
H3832 H 0.65887 0.56629 0.17126 0.0
H3833 H 0.68782 0.53459 0.12532 0.0
H3834 H 0.6607 0.51078 0.12592 0.0
H3835 H 0.54836 0.52005 0.09818 0.0
H3836 H 0.56394 0.50979 0.12883 0.0
H3837 H 0.61027 0.48058 0.0963 0.0
H3838 H 0.59427 0.49036 0.06546 0.0
H3839 H 0.62041 0.51524 0.11953 0.0
H3840 H 0.58935 0.45495 0.12413 0.0
H3841 H 0.56374 0.42987 0.12637 0.0
H3842 H 0.54104 0.4551 0.17921 0.0
H3843 H 0.56588 0.48087 0.17687 0.0
C3844 C 0.66855 0.5023 0.19938 0.0
C3845 C 0.66083 0.51064 0.21648 0.0
C3846 C 0.65599 0.49813 0.18373 0.0
C3847 C 0.6355 0.50247 0.18478 0.0
C3848 C 0.6275 0.50993 0.20224 0.0
C3849 C 0.64015 0.51399 0.21809 0.0
C3850 C 0.62302 0.50057 0.16699 0.0
C3851 C 0.60693 0.48776 0.1669 0.0
C3852 C 0.62797 0.51051 0.14968 0.0
C3853 C 0.64417 0.52492 0.14912 0.0
C3854 C 0.64376 0.54077 0.16181 0.0
C3855 C 0.65922 0.55415 0.16141 0.0
C3856 C 0.6751 0.55191 0.14829 0.0
C3857 C 0.67552 0.53631 0.13549 0.0
C3858 C 0.6601 0.52288 0.13583 0.0
C3859 C 0.56136 0.51068 0.09761 0.0
C3860 C 0.57023 0.50597 0.07959 0.0
C3861 C 0.57015 0.50475 0.1151 0.0
C3862 C 0.58818 0.4944 0.11478 0.0
C3863 C 0.59618 0.48834 0.09677 0.0
C3864 C 0.58707 0.4939 0.0792 0.0
C3865 C 0.60083 0.49442 0.13249 0.0
C3866 C 0.61695 0.50717 0.13265 0.0
C3867 C 0.5957 0.48449 0.14978 0.0
C3868 C 0.57946 0.47003 0.15021 0.0
C3869 C 0.5786 0.45548 0.13598 0.0
C3870 C 0.56426 0.44105 0.13732 0.0
C3871 C 0.55081 0.44084 0.15296 0.0
C3872 C 0.55142 0.45529 0.16707 0.0
C3873 C 0.56559 0.46985 0.16571 0.0
H3874 H 0.53986 0.42955 0.15408 0.0
H3875 H 0.68707 0.56227 0.14801 0.0
H3876 H 0.57364 0.69649 0.18931 0.0
H3877 H 0.57263 0.67018 0.16584 0.0
H3878 H 0.53431 0.63845 0.20457 0.0
H3879 H 0.53539 0.665 0.2284 0.0
H3880 H 0.5635 0.61476 0.1819 0.0
H3881 H 0.51155 0.66166 0.17199 0.0
H3882 H 0.49835 0.69456 0.16903 0.0
H3883 H 0.53613 0.70416 0.11924 0.0
H3884 H 0.54981 0.67139 0.12212 0.0
H3885 H 0.51296 0.5618 0.10557 0.0
H3886 H 0.52566 0.57876 0.13428 0.0
H3887 H 0.5567 0.61813 0.09659 0.0
H3888 H 0.54474 0.60043 0.06779 0.0
H3889 H 0.53139 0.6367 0.12032 0.0
H3890 H 0.58152 0.58795 0.12893 0.0
H3891 H 0.5944 0.55498 0.13257 0.0
H3892 H 0.55943 0.54794 0.1847 0.0
H3893 H 0.54619 0.5808 0.18129 0.0
C3894 C 0.56531 0.68376 0.19305 0.0
C3895 C 0.55439 0.68293 0.21062 0.0
C3896 C 0.56479 0.66868 0.17962 0.0
C3897 C 0.55321 0.65238 0.18328 0.0
C3898 C 0.54339 0.65085 0.20143 0.0
C3899 C 0.54399 0.66602 0.21502 0.0
C3900 C 0.54951 0.63847 0.16705 0.0
C3901 C 0.55628 0.61943 0.1685 0.0
C3902 C 0.54033 0.64459 0.14944 0.0
C3903 C 0.53181 0.66414 0.14737 0.0
C3904 C 0.51713 0.67083 0.16048 0.0
C3905 C 0.50955 0.68945 0.15882 0.0
C3906 C 0.51643 0.70146 0.14398 0.0
C3907 C 0.53084 0.69485 0.13074 0.0
C3908 C 0.53849 0.67625 0.13237 0.0
C3909 C 0.52305 0.57369 0.10348 0.0
C3910 C 0.52799 0.57976 0.08453 0.0
C3911 C 0.5302 0.5835 0.11992 0.0
C3912 C 0.54187 0.60002 0.11773 0.0
C3913 C 0.54765 0.6055 0.09873 0.0
C3914 C 0.54093 0.59534 0.08228 0.0
C3915 C 0.54573 0.61292 0.13481 0.0
C3916 C 0.53877 0.63189 0.13359 0.0
C3917 C 0.5546 0.60656 0.15257 0.0
C3918 C 0.56266 0.58681 0.15472 0.0
C3919 C 0.57643 0.57933 0.14108 0.0
C3920 C 0.58384 0.56066 0.14313 0.0
C3921 C 0.57769 0.54935 0.15882 0.0
C3922 C 0.56416 0.5567 0.17253 0.0
C3923 C 0.55672 0.57536 0.17056 0.0
H3924 H 0.58345 0.53491 0.16037 0.0
H3925 H 0.51056 0.71588 0.14272 0.0
H3926 H 0.36115 0.54813 0.20217 0.0
H3927 H 0.38272 0.55481 0.17411 0.0
H3928 H 0.43171 0.52538 0.2026 0.0
H3929 H 0.40996 0.51882 0.23096 0.0
H3930 H 0.44327 0.55924 0.18353 0.0
H3931 H 0.40578 0.50237 0.16913 0.0
H3932 H 0.37538 0.48281 0.16554 0.0
H3933 H 0.35251 0.52189 0.12241 0.0
H3934 H 0.38264 0.54185 0.12597 0.0
H3935 H 0.49533 0.5216 0.10024 0.0
H3936 H 0.48006 0.53201 0.13095 0.0
H3937 H 0.43628 0.56492 0.0987 0.0
H3938 H 0.45196 0.55488 0.06784 0.0
H3939 H 0.42157 0.53302 0.11954 0.0
H3940 H 0.46013 0.58825 0.13114 0.0
H3941 H 0.48821 0.61033 0.13676 0.0
H3942 H 0.50862 0.57579 0.18477 0.0
H3943 H 0.48092 0.55329 0.17925 0.0
C3944 C 0.37662 0.54335 0.20249 0.0
C3945 C 0.38405 0.53303 0.21854 0.0
C3946 C 0.38887 0.54709 0.1865 0.0
C3947 C 0.40871 0.5404 0.18622 0.0
C3948 C 0.41642 0.53065 0.2026 0.0
C3949 C 0.40408 0.5269 0.2187 0.0
C3950 C 0.42096 0.54284 0.16839 0.0
C3951 C 0.43877 0.5533 0.16954 0.0
C3952 C 0.41455 0.53566 0.15008 0.0
C3953 C 0.39636 0.52373 0.148 0.0
C3954 C 0.39417 0.5069 0.15903 0.0
C3955 C 0.37701 0.49572 0.15697 0.0
C3956 C 0.362 0.50114 0.1438 0.0
C3957 C 0.36413 0.51773 0.13263 0.0
C3958 C 0.38125 0.52898 0.13466 0.0
C3959 C 0.48299 0.53174 0.09977 0.0
C3960 C 0.47468 0.53742 0.0818 0.0
C3961 C 0.47436 0.53777 0.11731 0.0
C3962 C 0.45703 0.54918 0.11707 0.0
C3963 C 0.44978 0.55625 0.09914 0.0
C3964 C 0.45872 0.55054 0.08155 0.0
C3965 C 0.44407 0.54943 0.13458 0.0
C3966 C 0.42611 0.53919 0.13343 0.0
C3967 C 0.45043 0.55679 0.15281 0.0
C3968 C 0.46843 0.56902 0.15473 0.0
C3969 C 0.47081 0.58513 0.14266 0.0
C3970 C 0.48657 0.59783 0.14594 0.0
C3971 C 0.50003 0.59458 0.16126 0.0
C3972 C 0.49809 0.57837 0.17301 0.0
C3973 C 0.48238 0.56563 0.16979 0.0
H3974 H 0.51203 0.60457 0.16396 0.0
H3975 H 0.34873 0.49245 0.14221 0.0
H3976 H 0.80756 0.48059 0.68007 0.0
H3977 H 0.83999 0.47939 0.66341 0.0
H3978 H 0.82989 0.5363 0.64109 0.0
H3979 H 0.79745 0.53765 0.65778 0.0
H3980 H 0.85426 0.48772 0.62207 0.0
H3981 H 0.86058 0.5584 0.65539 0.0
H3982 H 0.84973 0.57663 0.68458 0.0
H3983 H 0.8599 0.52717 0.72058 0.0
H3984 H 0.87049 0.50865 0.6915 0.0
H3985 H 0.94795 0.54637 0.60176 0.0
H3986 H 0.91675 0.54368 0.62007 0.0
H3987 H 0.92687 0.48302 0.62677 0.0
H3988 H 0.95783 0.48548 0.60797 0.0
H3989 H 0.9023 0.5317 0.65433 0.0
H3990 H 0.88401 0.45949 0.61871 0.0
H3991 H 0.89429 0.44014 0.59014 0.0
H3992 H 0.90808 0.49138 0.55842 0.0
H3993 H 0.8976 0.51097 0.58662 0.0
C3994 C 0.81192 0.49258 0.67104 0.0
C3995 C 0.80004 0.50927 0.6703 0.0
C3996 C 0.83049 0.49189 0.66162 0.0
C3997 C 0.83738 0.50786 0.65132 0.0
C3998 C 0.82487 0.52393 0.64921 0.0
C3999 C 0.80636 0.52467 0.65869 0.0
C4000 C 0.85844 0.50868 0.64476 0.0
C4001 C 0.86485 0.49718 0.62916 0.0
C4002 C 0.87215 0.52105 0.65399 0.0
C4003 C 0.86636 0.53226 0.67142 0.0
C4004 C 0.86058 0.55151 0.66958 0.0
C4005 C 0.85438 0.56184 0.68606 0.0
C4006 C 0.85415 0.55307 0.70443 0.0
C4007 C 0.86007 0.53394 0.70635 0.0
C4008 C 0.8661 0.52352 0.68988 0.0
C4009 C 0.94393 0.53256 0.60769 0.0
C4010 C 0.95517 0.51608 0.60309 0.0
C4011 C 0.92599 0.53102 0.61809 0.0
C4012 C 0.91915 0.51304 0.62419 0.0
C4013 C 0.93158 0.49695 0.62168 0.0
C4014 C 0.94938 0.49842 0.6111 0.0
C4015 C 0.89829 0.51094 0.6313 0.0
C4016 C 0.89185 0.52218 0.64713 0.0
C4017 C 0.88458 0.4983 0.62216 0.0
C4018 C 0.89019 0.48666 0.60483 0.0
C4019 C 0.8891 0.4666 0.60557 0.0
C4020 C 0.89499 0.45559 0.58944 0.0
C4021 C 0.90189 0.4645 0.57247 0.0
C4022 C 0.90277 0.48445 0.57154 0.0
C4023 C 0.89686 0.49552 0.58759 0.0
H4024 H 0.90654 0.45592 0.56008 0.0
H4025 H 0.84938 0.56109 0.71717 0.0
H4026 H 0.54572 0.80032 0.64804 0.0
H4027 H 0.5418 0.82496 0.6227 0.0
H4028 H 0.50678 0.85933 0.66279 0.0
H4029 H 0.50969 0.83416 0.68748 0.0
H4030 H 0.49186 0.86433 0.62948 0.0
H4031 H 0.55987 0.86542 0.65289 0.0
H4032 H 0.59364 0.8527 0.66003 0.0
H4033 H 0.6024 0.84013 0.59911 0.0
H4034 H 0.56855 0.85254 0.59165 0.0
H4035 H 0.5188 0.95823 0.59374 0.0
H4036 H 0.51386 0.92876 0.61252 0.0
H4037 H 0.53044 0.8952 0.56206 0.0
H4038 H 0.53496 0.92446 0.54309 0.0
H4039 H 0.55339 0.88826 0.59747 0.0
H4040 H 0.48545 0.89302 0.57505 0.0
H4041 H 0.45271 0.90874 0.57009 0.0
H4042 H 0.44471 0.91339 0.63218 0.0
H4043 H 0.47773 0.8983 0.63759 0.0
C4044 C 0.53688 0.81301 0.65118 0.0
C4045 C 0.52789 0.8154 0.66956 0.0
C4046 C 0.53481 0.82719 0.63681 0.0
C4047 C 0.52435 0.84432 0.64088 0.0
C4048 C 0.51491 0.84633 0.65916 0.0
C4049 C 0.51657 0.83198 0.6733 0.0
C4050 C 0.5238 0.86048 0.62657 0.0
C4051 C 0.50538 0.86963 0.62265 0.0
C4052 C 0.54133 0.86734 0.61726 0.0
C4053 C 0.56158 0.85967 0.62176 0.0
C4054 C 0.56893 0.85978 0.64105 0.0
C4055 C 0.5881 0.85265 0.64514 0.0
C4056 C 0.60013 0.84555 0.63004 0.0
C4057 C 0.59304 0.84559 0.6108 0.0
C4058 C 0.57387 0.85266 0.60663 0.0
C4059 C 0.52107 0.94457 0.58655 0.0
C4060 C 0.52749 0.94371 0.56696 0.0
C4061 C 0.51817 0.92775 0.59728 0.0
C4062 C 0.52184 0.90981 0.58868 0.0
C4063 C 0.52754 0.9089 0.56896 0.0
C4064 C 0.53011 0.92567 0.55813 0.0
C4065 C 0.5216 0.89217 0.60075 0.0
C4066 C 0.53989 0.88279 0.60422 0.0
C4067 C 0.50406 0.88547 0.61 0.0
C4068 C 0.48422 0.89469 0.60673 0.0
C4069 C 0.47686 0.89761 0.58766 0.0
C4070 C 0.45821 0.90636 0.58476 0.0
C4071 C 0.44661 0.91201 0.60078 0.0
C4072 C 0.45369 0.909 0.61977 0.0
C4073 C 0.47241 0.90038 0.62277 0.0
H4074 H 0.43214 0.91871 0.59847 0.0
H4075 H 0.61497 0.84006 0.63324 0.0
H4076 H 0.2663 0.54161 0.63613 0.0
H4077 H 0.23797 0.53781 0.61361 0.0
H4078 H 0.20832 0.50197 0.65589 0.0
H4079 H 0.23716 0.5048 0.67778 0.0
H4080 H 0.19954 0.48977 0.62087 0.0
H4081 H 0.19787 0.5534 0.65174 0.0
H4082 H 0.21347 0.58436 0.65989 0.0
H4083 H 0.22367 0.59507 0.59886 0.0
H4084 H 0.2077 0.56448 0.59039 0.0
H4085 H 0.09895 0.50354 0.58959 0.0
H4086 H 0.13061 0.5015 0.60753 0.0
H4087 H 0.15672 0.5423 0.5677 0.0
H4088 H 0.12452 0.54553 0.55094 0.0
H4089 H 0.16829 0.55116 0.60049 0.0
H4090 H 0.16774 0.48932 0.56864 0.0
H4091 H 0.15365 0.45802 0.55958 0.0
H4092 H 0.14912 0.44286 0.62028 0.0
H4093 H 0.16336 0.47405 0.62968 0.0
C4094 C 0.25391 0.53257 0.64032 0.0
C4095 C 0.25384 0.52348 0.6586 0.0
C4096 C 0.23764 0.53055 0.62758 0.0
C4097 C 0.22069 0.52007 0.63328 0.0
C4098 C 0.22113 0.51019 0.65115 0.0
C4099 C 0.23762 0.51179 0.66365 0.0
C4100 C 0.20197 0.52048 0.62141 0.0
C4101 C 0.19262 0.50318 0.61648 0.0
C4102 C 0.19303 0.53791 0.61536 0.0
C4103 C 0.20167 0.5567 0.62046 0.0
C4104 C 0.20331 0.56248 0.64009 0.0
C4105 C 0.21215 0.57998 0.64476 0.0
C4106 C 0.21943 0.59177 0.6299 0.0
C4107 C 0.21778 0.58611 0.61035 0.0
C4108 C 0.20875 0.56874 0.6056 0.0
C4109 C 0.1115 0.51208 0.58478 0.0
C4110 C 0.10937 0.52479 0.56903 0.0
C4111 C 0.1297 0.51073 0.59486 0.0
C4112 C 0.14638 0.5214 0.58878 0.0
C4113 C 0.14418 0.53392 0.57279 0.0
C4114 C 0.12579 0.53579 0.5632 0.0
C4115 C 0.1658 0.5204 0.59958 0.0
C4116 C 0.1752 0.53765 0.60456 0.0
C4117 C 0.17482 0.50288 0.60547 0.0
C4118 C 0.16646 0.48406 0.59985 0.0
C4119 C 0.16367 0.47933 0.58005 0.0
C4120 C 0.15566 0.4616 0.57485 0.0
C4121 C 0.15034 0.4485 0.58935 0.0
C4122 C 0.15321 0.45303 0.60907 0.0
C4123 C 0.16133 0.47069 0.61433 0.0
H4124 H 0.14405 0.43483 0.5853 0.0
H4125 H 0.2264 0.60525 0.63353 0.0
H4126 H 0.52298 0.2263 0.66488 0.0
H4127 H 0.52707 0.20044 0.64116 0.0
H4128 H 0.46318 0.19903 0.6323 0.0
H4129 H 0.45894 0.22541 0.65548 0.0
H4130 H 0.48008 0.16376 0.64364 0.0
H4131 H 0.49106 0.21186 0.59452 0.0
H4132 H 0.50676 0.24077 0.58087 0.0
H4133 H 0.56477 0.21428 0.58574 0.0
H4134 H 0.54942 0.18521 0.59929 0.0
H4135 H 0.48792 0.08674 0.57423 0.0
H4136 H 0.47921 0.11684 0.59084 0.0
H4137 H 0.54194 0.13036 0.59602 0.0
H4138 H 0.5507 0.10071 0.57938 0.0
H4139 H 0.52252 0.1607 0.58423 0.0
H4140 H 0.5146 0.11532 0.63586 0.0
H4141 H 0.5021 0.08785 0.65473 0.0
H4142 H 0.44189 0.10918 0.64931 0.0
H4143 H 0.45404 0.13677 0.63033 0.0
C4144 C 0.50982 0.22103 0.65741 0.0
C4145 C 0.49059 0.2279 0.66232 0.0
C4146 C 0.5122 0.20612 0.64389 0.0
C4147 C 0.49542 0.19773 0.63504 0.0
C4148 C 0.47632 0.20522 0.63906 0.0
C4149 C 0.47394 0.22026 0.65239 0.0
C4150 C 0.49768 0.17996 0.62327 0.0
C4151 C 0.48894 0.16313 0.63035 0.0
C4152 C 0.50986 0.17905 0.6064 0.0
C4153 C 0.5191 0.19642 0.59801 0.0
C4154 C 0.50718 0.21224 0.59272 0.0
C4155 C 0.51601 0.22863 0.58492 0.0
C4156 C 0.53676 0.22935 0.58237 0.0
C4157 C 0.5487 0.21367 0.58756 0.0
C4158 C 0.53994 0.19721 0.59525 0.0
C4159 C 0.49983 0.09612 0.57897 0.0
C4160 C 0.52001 0.09126 0.57548 0.0
C4161 C 0.49484 0.11329 0.58853 0.0
C4162 C 0.50993 0.12588 0.59478 0.0
C4163 C 0.53002 0.12098 0.5913 0.0
C4164 C 0.535 0.10391 0.58182 0.0
C4165 C 0.50501 0.14433 0.60467 0.0
C4166 C 0.5133 0.1613 0.59727 0.0
C4167 C 0.49273 0.14531 0.62152 0.0
C4168 C 0.4852 0.12797 0.63147 0.0
C4169 C 0.49865 0.11398 0.6384 0.0
C4170 C 0.49165 0.09845 0.64922 0.0
C4171 C 0.47121 0.0968 0.65325 0.0
C4172 C 0.45771 0.11051 0.64621 0.0
C4173 C 0.46465 0.12609 0.63543 0.0
H4174 H 0.46584 0.08497 0.66192 0.0
H4175 H 0.54358 0.24207 0.57639 0.0
H4176 H 0.81728 0.51416 0.3399 0.0
H4177 H 0.84452 0.51236 0.36377 0.0
H4178 H 0.80136 0.50855 0.41055 0.0
H4179 H 0.77388 0.51015 0.3864 0.0
H4180 H 0.8307 0.53726 0.41568 0.0
H4181 H 0.82848 0.47035 0.40084 0.0
H4182 H 0.82765 0.44182 0.37961 0.0
H4183 H 0.88461 0.45691 0.35518 0.0
H4184 H 0.88566 0.48569 0.37604 0.0
H4185 H 0.90953 0.52484 0.4856 0.0
H4186 H 0.87882 0.52219 0.46591 0.0
H4187 H 0.91459 0.5168 0.41356 0.0
H4188 H 0.94514 0.51911 0.43331 0.0
H4189 H 0.88686 0.49046 0.41389 0.0
H4190 H 0.88459 0.55971 0.41877 0.0
H4191 H 0.88578 0.59105 0.43531 0.0
H4192 H 0.84021 0.57306 0.47545 0.0
H4193 H 0.83815 0.54186 0.45851 0.0
C4194 C 0.81366 0.51269 0.35527 0.0
C4195 C 0.79363 0.51233 0.36145 0.0
C4196 C 0.82918 0.51157 0.36886 0.0
C4197 C 0.82494 0.51017 0.38889 0.0
C4198 C 0.80489 0.50952 0.39512 0.0
C4199 C 0.78927 0.5104 0.38142 0.0
C4200 C 0.8416 0.51088 0.40316 0.0
C4201 C 0.84273 0.52674 0.41569 0.0
C4202 C 0.85766 0.49758 0.40253 0.0
C4203 C 0.85707 0.48028 0.38993 0.0
C4204 C 0.84075 0.46768 0.39083 0.0
C4205 C 0.84026 0.45144 0.37888 0.0
C4206 C 0.85604 0.44758 0.36603 0.0
C4207 C 0.87238 0.45993 0.36513 0.0
C4208 C 0.87294 0.4762 0.37703 0.0
C4209 C 0.91067 0.52329 0.46986 0.0
C4210 C 0.92945 0.52227 0.4608 0.0
C4211 C 0.89321 0.52189 0.45862 0.0
C4212 C 0.8944 0.51951 0.43821 0.0
C4213 C 0.9133 0.51865 0.42925 0.0
C4214 C 0.93069 0.52002 0.44047 0.0
C4215 C 0.87605 0.51696 0.42625 0.0
C4216 C 0.87467 0.5008 0.41412 0.0
C4217 C 0.85991 0.53011 0.42696 0.0
C4218 C 0.8614 0.54846 0.43758 0.0
C4219 C 0.87492 0.56243 0.43121 0.0
C4220 C 0.87568 0.58018 0.44059 0.0
C4221 C 0.8633 0.58397 0.45662 0.0
C4222 C 0.84987 0.57009 0.46309 0.0
C4223 C 0.84875 0.55243 0.4535 0.0
H4224 H 0.86403 0.59769 0.46395 0.0
H4225 H 0.85563 0.43499 0.3568 0.0
H4226 H 0.57509 0.83633 0.3402 0.0
H4227 H 0.57053 0.86255 0.36328 0.0
H4228 H 0.51852 0.83478 0.38708 0.0
H4229 H 0.52321 0.80815 0.36423 0.0
H4230 H 0.51008 0.87082 0.37848 0.0
H4231 H 0.5619 0.83992 0.41438 0.0
H4232 H 0.59458 0.82475 0.42133 0.0
H4233 H 0.62466 0.87645 0.40511 0.0
H4234 H 0.59218 0.89186 0.39779 0.0
H4235 H 0.49349 0.94027 0.4526 0.0
H4236 H 0.50137 0.91006 0.43598 0.0
H4237 H 0.55362 0.93564 0.41016 0.0
H4238 H 0.5461 0.96571 0.42698 0.0
H4239 H 0.56219 0.90028 0.42011 0.0
H4240 H 0.50995 0.93059 0.38499 0.0
H4241 H 0.47726 0.94567 0.37801 0.0
H4242 H 0.44733 0.89384 0.39408 0.0
H4243 H 0.47981 0.87865 0.40183 0.0
C4244 C 0.56298 0.83541 0.35066 0.0
C4245 C 0.54952 0.81993 0.35019 0.0
C4246 C 0.56036 0.85056 0.3639 0.0
C4247 C 0.54422 0.85072 0.37707 0.0
C4248 C 0.53107 0.83508 0.37705 0.0
C4249 C 0.53373 0.81986 0.36387 0.0
C4250 C 0.54011 0.8679 0.38959 0.0
C4251 C 0.52128 0.87689 0.38813 0.0
C4252 C 0.55494 0.87638 0.40159 0.0
C4253 C 0.57458 0.86696 0.40526 0.0
C4254 C 0.57549 0.84798 0.41202 0.0
C4255 C 0.59398 0.83936 0.41611 0.0
C4256 C 0.61169 0.84961 0.4136 0.0
C4257 C 0.61094 0.86851 0.407 0.0
C4258 C 0.59249 0.87719 0.40289 0.0
C4259 C 0.50673 0.93946 0.44348 0.0
C4260 C 0.519 0.95558 0.44097 0.0
C4261 C 0.51116 0.92217 0.43388 0.0
C4262 C 0.52786 0.9206 0.42141 0.0
C4263 C 0.54057 0.93644 0.41954 0.0
C4264 C 0.53618 0.9537 0.42915 0.0
C4265 C 0.53179 0.90266 0.40995 0.0
C4266 C 0.55071 0.8938 0.41118 0.0
C4267 C 0.51696 0.89414 0.39798 0.0
C4268 C 0.49733 0.90355 0.39423 0.0
C4269 C 0.49639 0.9225 0.38737 0.0
C4270 C 0.47789 0.93106 0.38322 0.0
C4271 C 0.46024 0.92071 0.38558 0.0
C4272 C 0.46103 0.90183 0.39224 0.0
C4273 C 0.47947 0.89327 0.39661 0.0
H4274 H 0.44593 0.92732 0.38224 0.0
H4275 H 0.62598 0.84292 0.41682 0.0
H4276 H 0.22269 0.51894 0.32408 0.0
H4277 H 0.1906 0.51572 0.34102 0.0
H4278 H 0.21623 0.54115 0.39278 0.0
H4279 H 0.24851 0.54463 0.37558 0.0
H4280 H 0.18905 0.50799 0.39903 0.0
H4281 H 0.19236 0.56949 0.3679 0.0
H4282 H 0.19863 0.59141 0.34039 0.0
H4283 H 0.15275 0.56386 0.30672 0.0
H4284 H 0.14647 0.54152 0.33393 0.0
H4285 H 0.08986 0.55747 0.42489 0.0
H4286 H 0.12047 0.55777 0.40558 0.0
H4287 H 0.11744 0.49648 0.39883 0.0
H4288 H 0.08707 0.49593 0.41869 0.0
H4289 H 0.13428 0.54797 0.37114 0.0
H4290 H 0.16313 0.47732 0.40381 0.0
H4291 H 0.15778 0.45686 0.43274 0.0
H4292 H 0.14058 0.50614 0.46651 0.0
H4293 H 0.14596 0.52688 0.43781 0.0
C4294 C 0.22153 0.52345 0.33921 0.0
C4295 C 0.23788 0.53193 0.34867 0.0
C4296 C 0.20327 0.52166 0.34882 0.0
C4297 C 0.2011 0.52829 0.36806 0.0
C4298 C 0.21773 0.5359 0.37793 0.0
C4299 C 0.23605 0.53788 0.36819 0.0
C4300 C 0.181 0.52868 0.37705 0.0
C4301 C 0.17705 0.51671 0.39298 0.0
C4302 C 0.16547 0.54021 0.3692 0.0
C4303 C 0.1691 0.5537 0.35287 0.0
C4304 C 0.18374 0.56798 0.35456 0.0
C4305 C 0.18728 0.58051 0.33903 0.0
C4306 C 0.17613 0.579 0.32179 0.0
C4307 C 0.1614 0.56499 0.32007 0.0
C4308 C 0.15784 0.55239 0.33554 0.0
C4309 C 0.09531 0.54408 0.41885 0.0
C4310 C 0.08624 0.52661 0.42373 0.0
C4311 C 0.11292 0.54428 0.40785 0.0
C4312 C 0.12161 0.52707 0.40137 0.0
C4313 C 0.11131 0.50987 0.40424 0.0
C4314 C 0.09381 0.50961 0.41541 0.0
C4315 C 0.14212 0.5271 0.39307 0.0
C4316 C 0.1462 0.53916 0.37721 0.0
C4317 C 0.15783 0.51588 0.40122 0.0
C4318 C 0.15479 0.5036 0.41863 0.0
C4319 C 0.15828 0.48378 0.41744 0.0
C4320 C 0.15521 0.47214 0.43378 0.0
C4321 C 0.14879 0.48019 0.45144 0.0
C4322 C 0.14549 0.49991 0.4528 0.0
C4323 C 0.14851 0.51161 0.4365 0.0
H4324 H 0.14641 0.47115 0.46406 0.0
H4325 H 0.17888 0.58872 0.30979 0.0
H4326 H 0.53457 0.21291 0.33341 0.0
H4327 H 0.5368 0.18626 0.3564 0.0
H4328 H 0.49067 0.21212 0.39192 0.0
H4329 H 0.48831 0.23901 0.36883 0.0
H4330 H 0.52395 0.19541 0.414 0.0
H4331 H 0.47644 0.17871 0.36442 0.0
H4332 H 0.46381 0.17438 0.33081 0.0
H4333 H 0.5111 0.13407 0.31899 0.0
H4334 H 0.5242 0.1384 0.35247 0.0
H4335 H 0.49294 0.11032 0.4641 0.0
H4336 H 0.49448 0.13983 0.44505 0.0
H4337 H 0.53939 0.11444 0.40771 0.0
H4338 H 0.53817 0.08485 0.42691 0.0
H4339 H 0.5069 0.13146 0.38734 0.0
H4340 H 0.55365 0.14726 0.43771 0.0
H4341 H 0.56545 0.15101 0.47168 0.0
H4342 H 0.51904 0.19248 0.48256 0.0
H4343 H 0.50673 0.18874 0.44873 0.0
C4344 C 0.52517 0.21319 0.34631 0.0
C4345 C 0.51131 0.22819 0.34929 0.0
C4346 C 0.52637 0.19785 0.35939 0.0
C4347 C 0.51385 0.19713 0.37585 0.0
C4348 C 0.50051 0.21239 0.37933 0.0
C4349 C 0.49911 0.22769 0.36608 0.0
C4350 C 0.51397 0.17985 0.38862 0.0
C4351 C 0.51998 0.18146 0.40826 0.0
C4352 C 0.50915 0.16158 0.38106 0.0
C4353 C 0.50145 0.15906 0.36087 0.0
C4354 C 0.48428 0.16909 0.35458 0.0
C4355 C 0.477 0.1666 0.33558 0.0
C4356 C 0.48668 0.15401 0.32275 0.0
C4357 C 0.50364 0.14385 0.32893 0.0
C4358 C 0.511 0.14631 0.34792 0.0
C4359 C 0.50323 0.11099 0.4519 0.0
C4360 C 0.51531 0.09511 0.44696 0.0
C4361 C 0.50416 0.12794 0.44108 0.0
C4362 C 0.51707 0.12937 0.42497 0.0
C4363 C 0.52931 0.11364 0.42009 0.0
C4364 C 0.52862 0.09675 0.43111 0.0
C4365 C 0.51703 0.14694 0.41268 0.0
C4366 C 0.51094 0.14539 0.3931 0.0
C4367 C 0.52172 0.1652 0.42036 0.0
C4368 C 0.52913 0.16757 0.44071 0.0
C4369 C 0.54583 0.15704 0.44739 0.0
C4370 C 0.55264 0.15919 0.46661 0.0
C4371 C 0.54297 0.17193 0.47928 0.0
C4372 C 0.5265 0.18259 0.47274 0.0
C4373 C 0.51961 0.18048 0.45353 0.0
H4374 H 0.54828 0.17358 0.49416 0.0
H4375 H 0.48101 0.15208 0.30805 0.0
H4376 H 0.70557 0.84986 0.50136 0.0
H4377 H 0.67926 0.87426 0.50095 0.0
H4378 H 0.63565 0.8318 0.51692 0.0
H4379 H 0.66217 0.80704 0.51688 0.0
H4380 H 0.62047 0.8578 0.49011 0.0
H4381 H 0.65516 0.8612 0.55175 0.0
H4382 H 0.68539 0.86282 0.57245 0.0
H4383 H 0.70135 0.91623 0.54591 0.0
H4384 H 0.67136 0.9148 0.52486 0.0
H4385 H 0.54888 0.92954 0.50994 0.0
H4386 H 0.57147 0.90263 0.5166 0.0
H4387 H 0.62233 0.93909 0.50652 0.0
H4388 H 0.59979 0.96631 0.50129 0.0
H4389 H 0.63208 0.91412 0.5329 0.0
H4390 H 0.59859 0.91105 0.47093 0.0
H4391 H 0.56771 0.91137 0.4514 0.0
H4392 H 0.55062 0.8574 0.47603 0.0
H4393 H 0.58073 0.85754 0.49699 0.0
C4394 C 0.69034 0.84568 0.50464 0.0
C4395 C 0.68595 0.8266 0.50943 0.0
C4396 C 0.67531 0.85965 0.50445 0.0
C4397 C 0.65552 0.85502 0.5094 0.0
C4398 C 0.65084 0.83577 0.51321 0.0
C4399 C 0.66595 0.82164 0.51319 0.0
C4400 C 0.64017 0.87054 0.51132 0.0
C4401 C 0.62281 0.86995 0.49972 0.0
C4402 C 0.64337 0.88663 0.52357 0.0
C4403 C 0.66106 0.88784 0.53668 0.0
C4404 C 0.66515 0.87326 0.5503 0.0
C4405 C 0.68224 0.87414 0.56209 0.0
C4406 C 0.69529 0.88961 0.56048 0.0
C4407 C 0.69123 0.90427 0.54715 0.0
C4408 C 0.67416 0.90344 0.53531 0.0
C4409 C 0.56488 0.93192 0.50966 0.0
C4410 C 0.57252 0.95004 0.50496 0.0
C4411 C 0.57782 0.91647 0.51332 0.0
C4412 C 0.59868 0.91859 0.51146 0.0
C4413 C 0.60634 0.93696 0.50792 0.0
C4414 C 0.59341 0.95254 0.50486 0.0
C4415 C 0.61242 0.90157 0.51152 0.0
C4416 C 0.62954 0.90189 0.52345 0.0
C4417 C 0.60908 0.88534 0.49941 0.0
C4418 C 0.59182 0.88443 0.48572 0.0
C4419 C 0.58823 0.89926 0.47225 0.0
C4420 C 0.57079 0.8994 0.46097 0.0
C4421 C 0.55725 0.88431 0.46229 0.0
C4422 C 0.56111 0.86908 0.47501 0.0
C4423 C 0.57828 0.86914 0.48676 0.0
H4424 H 0.54374 0.88444 0.45354 0.0
H4425 H 0.70855 0.89024 0.56959 0.0
H4426 H 0.65543 0.23025 0.50918 0.0
H4427 H 0.62909 0.20587 0.51027 0.0
H4428 H 0.67418 0.16172 0.51581 0.0
H4429 H 0.70034 0.18572 0.51409 0.0
H4430 H 0.64583 0.1512 0.49043 0.0
H4431 H 0.64651 0.17866 0.55681 0.0
H4432 H 0.64385 0.20631 0.5792 0.0
H4433 H 0.58547 0.21959 0.55628 0.0
H4434 H 0.58773 0.19189 0.53394 0.0
H4435 H 0.59792 0.07049 0.52561 0.0
H4436 H 0.61841 0.09939 0.52841 0.0
H4437 H 0.56648 0.13439 0.51615 0.0
H4438 H 0.54612 0.10549 0.51298 0.0
H4439 H 0.59462 0.15185 0.54303 0.0
H4440 H 0.59097 0.12355 0.47999 0.0
H4441 H 0.59242 0.09789 0.45528 0.0
H4442 H 0.65482 0.08889 0.46778 0.0
H4443 H 0.6536 0.11415 0.49296 0.0
C4444 C 0.65969 0.21533 0.5105 0.0
C4445 C 0.68001 0.21 0.51189 0.0
C4446 C 0.64462 0.20141 0.51127 0.0
C4447 C 0.64962 0.18193 0.51344 0.0
C4448 C 0.66989 0.17662 0.51427 0.0
C4449 C 0.68486 0.19043 0.5135 0.0
C4450 C 0.63401 0.16683 0.51505 0.0
C4451 C 0.63479 0.15127 0.50206 0.0
C4452 C 0.61901 0.16723 0.5297 0.0
C4453 C 0.61731 0.18329 0.54371 0.0
C4454 C 0.63308 0.18745 0.55664 0.0
C4455 C 0.63163 0.2031 0.56933 0.0
C4456 C 0.61447 0.21466 0.56922 0.0
C4457 C 0.59869 0.21054 0.55647 0.0
C4458 C 0.60001 0.19483 0.54385 0.0
C4459 C 0.59071 0.08439 0.52455 0.0
C4460 C 0.57041 0.08582 0.51938 0.0
C4461 C 0.60245 0.10089 0.52589 0.0
C4462 C 0.59401 0.11903 0.52222 0.0
C4463 C 0.57329 0.12057 0.51908 0.0
C4464 C 0.56164 0.10407 0.51743 0.0
C4465 C 0.60714 0.13585 0.51898 0.0
C4466 C 0.60572 0.15177 0.53145 0.0
C4467 C 0.62136 0.13596 0.50361 0.0
C4468 C 0.62212 0.12057 0.4886 0.0
C4469 C 0.60494 0.11592 0.47769 0.0
C4470 C 0.60572 0.10145 0.46355 0.0
C4471 C 0.62368 0.09168 0.46001 0.0
C4472 C 0.64089 0.09638 0.47059 0.0
C4473 C 0.64015 0.11076 0.48482 0.0
H4474 H 0.62428 0.08051 0.44903 0.0
H4475 H 0.61341 0.22683 0.57898 0.0
H4476 H 0.8045 0.66431 0.50696 0.0
H4477 H 0.82958 0.63832 0.50563 0.0
H4478 H 0.87562 0.67943 0.49282 0.0
H4479 H 0.85074 0.70527 0.49433 0.0
H4480 H 0.88086 0.64534 0.47178 0.0
H4481 H 0.8698 0.6665 0.53797 0.0
H4482 H 0.84947 0.67384 0.56716 0.0
H4483 H 0.83026 0.61539 0.5698 0.0
H4484 H 0.85026 0.60778 0.5404 0.0
H4485 H 0.96989 0.59813 0.50678 0.0
H4486 H 0.94215 0.62005 0.49869 0.0
H4487 H 0.89984 0.57845 0.51982 0.0
H4488 H 0.92761 0.55708 0.52869 0.0
H4489 H 0.89119 0.61139 0.53469 0.0
H4490 H 0.90839 0.58965 0.4706 0.0
H4491 H 0.9305 0.58363 0.44243 0.0
H4492 H 0.93993 0.64398 0.43592 0.0
H4493 H 0.9182 0.65039 0.46435 0.0
C4494 C 0.81991 0.66767 0.50349 0.0
C4495 C 0.82574 0.68676 0.50089 0.0
C4496 C 0.83423 0.65287 0.50278 0.0
C4497 C 0.85455 0.65694 0.49924 0.0
C4498 C 0.86009 0.67591 0.49552 0.0
C4499 C 0.84588 0.69066 0.49649 0.0
C4500 C 0.87036 0.6419 0.50131 0.0
C4501 C 0.88321 0.63791 0.48552 0.0
C4502 C 0.87333 0.63212 0.51919 0.0
C4503 C 0.8613 0.63663 0.53685 0.0
C4504 C 0.86109 0.65526 0.54467 0.0
C4505 C 0.84965 0.65946 0.56127 0.0
C4506 C 0.83853 0.6451 0.57029 0.0
C4507 C 0.83885 0.6265 0.56276 0.0
C4508 C 0.85023 0.62224 0.54613 0.0
C4509 C 0.95461 0.5936 0.50925 0.0
C4510 C 0.95076 0.5759 0.5181 0.0
C4511 C 0.93875 0.60609 0.50466 0.0
C4512 C 0.91877 0.6009 0.50849 0.0
C4513 C 0.91504 0.58287 0.51674 0.0
C4514 C 0.93087 0.57058 0.52165 0.0
C4515 C 0.90181 0.61457 0.5051 0.0
C4516 C 0.88876 0.61847 0.52076 0.0
C4517 C 0.89886 0.62432 0.48712 0.0
C4518 C 0.91171 0.6205 0.46976 0.0
C4519 C 0.9153 0.60166 0.46331 0.0
C4520 C 0.92779 0.59817 0.44727 0.0
C4521 C 0.93666 0.61341 0.43741 0.0
C4522 C 0.93304 0.63218 0.44357 0.0
C4523 C 0.92062 0.63575 0.45965 0.0
H4524 H 0.94631 0.61068 0.42499 0.0
H4525 H 0.8297 0.64837 0.58316 0.0
H4526 H 0.38393 0.81243 0.53362 0.0
H4527 H 0.41126 0.83563 0.52922 0.0
H4528 H 0.36972 0.87503 0.50207 0.0
H4529 H 0.3427 0.85212 0.50645 0.0
H4530 H 0.40414 0.87347 0.48218 0.0
H4531 H 0.38275 0.87955 0.54861 0.0
H4532 H 0.37623 0.87052 0.58282 0.0
H4533 H 0.43874 0.85824 0.59129 0.0
H4534 H 0.44557 0.8667 0.55693 0.0
H4535 H 0.44194 0.9673 0.49624 0.0
H4536 H 0.4241 0.93704 0.49376 0.0
H4537 H 0.47413 0.9077 0.52051 0.0
H4538 H 0.49202 0.938 0.52324 0.0
H4539 H 0.44006 0.90038 0.53923 0.0
H4540 H 0.46032 0.90002 0.47165 0.0
H4541 H 0.46391 0.91241 0.43803 0.0
H4542 H 0.40008 0.91832 0.43318 0.0
H4543 H 0.39606 0.9063 0.4668 0.0
C4544 C 0.38081 0.82598 0.52655 0.0
C4545 C 0.36124 0.83058 0.52048 0.0
C4546 C 0.39633 0.83924 0.52414 0.0
C4547 C 0.39249 0.85713 0.51542 0.0
C4548 C 0.37307 0.86135 0.50882 0.0
C4549 C 0.35762 0.84829 0.51141 0.0
C4550 C 0.40835 0.87182 0.51335 0.0
C4551 C 0.41202 0.87937 0.49467 0.0
C4552 C 0.41884 0.87934 0.52962 0.0
C4553 C 0.4146 0.87333 0.55002 0.0
C4554 C 0.39505 0.87453 0.55762 0.0
C4555 C 0.39131 0.86959 0.57708 0.0
C4556 C 0.40704 0.86367 0.58919 0.0
C4557 C 0.42654 0.86267 0.58185 0.0
C4558 C 0.43035 0.86748 0.56236 0.0
C4559 C 0.44935 0.95436 0.50121 0.0
C4560 C 0.46835 0.95512 0.51008 0.0
C4561 C 0.43916 0.93701 0.49968 0.0
C4562 C 0.44778 0.92002 0.50687 0.0
C4563 C 0.46718 0.92059 0.51482 0.0
C4564 C 0.47743 0.93794 0.5163 0.0
C4565 C 0.43567 0.90226 0.50813 0.0
C4566 C 0.43263 0.89416 0.52668 0.0
C4567 C 0.42536 0.89458 0.49185 0.0
C4568 C 0.4279 0.90227 0.47179 0.0
C4569 C 0.44706 0.90411 0.46348 0.0
C4570 C 0.44917 0.91103 0.44441 0.0
C4571 C 0.43222 0.91603 0.43351 0.0
C4572 C 0.41316 0.91433 0.44164 0.0
C4573 C 0.41096 0.90747 0.46069 0.0
H4574 H 0.43378 0.92124 0.41874 0.0
H4575 H 0.40413 0.85997 0.60428 0.0
H4576 H 0.22258 0.35254 0.49525 0.0
H4577 H 0.19622 0.37669 0.49216 0.0
H4578 H 0.19757 0.38601 0.55455 0.0
H4579 H 0.224 0.36176 0.55775 0.0
H4580 H 0.16012 0.38175 0.54263 0.0
H4581 H 0.21547 0.41953 0.52227 0.0
H4582 H 0.24558 0.42828 0.50354 0.0
H4583 H 0.21185 0.42614 0.45006 0.0
H4584 H 0.1816 0.41708 0.46844 0.0
H4585 H 0.09969 0.4677 0.5377 0.0
H4586 H 0.12538 0.44316 0.54351 0.0
H4587 H 0.12274 0.42663 0.48276 0.0
H4588 H 0.09677 0.45074 0.47692 0.0
H4589 H 0.16106 0.43547 0.49531 0.0
H4590 H 0.10555 0.39738 0.51646 0.0
H4591 H 0.07528 0.39099 0.53594 0.0
H4592 H 0.10948 0.39564 0.58894 0.0
H4593 H 0.13997 0.40224 0.56975 0.0
C4594 C 0.21767 0.36008 0.50826 0.0
C4595 C 0.22545 0.35524 0.52675 0.0
C4596 C 0.2025 0.37384 0.50649 0.0
C4597 C 0.19491 0.38323 0.52312 0.0
C4598 C 0.20309 0.37889 0.54152 0.0
C4599 C 0.21824 0.36507 0.54332 0.0
C4600 C 0.17782 0.39689 0.52134 0.0
C4601 C 0.16046 0.39368 0.5325 0.0
C4602 C 0.17806 0.41226 0.50788 0.0
C4603 C 0.19632 0.4174 0.49673 0.0
C4604 C 0.21452 0.42071 0.5065 0.0
C4605 C 0.23161 0.42578 0.49594 0.0
C4606 C 0.23065 0.4277 0.47562 0.0
C4607 C 0.21259 0.4246 0.4658 0.0
C4608 C 0.19547 0.41951 0.47628 0.0
C4609 C 0.10436 0.45861 0.52567 0.0
C4610 C 0.09631 0.46121 0.50683 0.0
C4611 C 0.11904 0.44463 0.529 0.0
C4612 C 0.1261 0.43324 0.51352 0.0
C4613 C 0.11755 0.43535 0.49488 0.0
C4614 C 0.10264 0.44907 0.4916 0.0
C4615 C 0.14339 0.42014 0.51634 0.0
C4616 C 0.16079 0.42353 0.50543 0.0
C4617 C 0.14319 0.40507 0.53011 0.0
C4618 C 0.125 0.40058 0.54167 0.0
C4619 C 0.1066 0.39718 0.53227 0.0
C4620 C 0.08941 0.39348 0.54325 0.0
C4621 C 0.09044 0.39299 0.56366 0.0
C4622 C 0.1087 0.39607 0.57313 0.0
C4623 C 0.12595 0.39977 0.5622 0.0
H4624 H 0.07708 0.39019 0.57211 0.0
H4625 H 0.24389 0.43165 0.46748 0.0
H4626 H 0.35358 0.20319 0.53994 0.0
H4627 H 0.37695 0.17633 0.53802 0.0
H4628 H 0.39743 0.19627 0.48176 0.0
H4629 H 0.37312 0.22271 0.48328 0.0
H4630 H 0.3932 0.1609 0.47873 0.0
H4631 H 0.42694 0.19793 0.52632 0.0
H4632 H 0.43215 0.21721 0.55611 0.0
H4633 H 0.41557 0.16936 0.59178 0.0
H4634 H 0.40997 0.14986 0.56221 0.0
H4635 H 0.47704 0.09161 0.49052 0.0
H4636 H 0.45742 0.12109 0.48581 0.0
H4637 H 0.41295 0.10018 0.52597 0.0
H4638 H 0.43196 0.07042 0.52979 0.0
H4639 H 0.43367 0.13788 0.53495 0.0
H4640 H 0.39764 0.10263 0.48427 0.0
H4641 H 0.39658 0.08411 0.45354 0.0
H4642 H 0.42298 0.13108 0.42267 0.0
H4643 H 0.42448 0.14976 0.4533 0.0
C4644 C 0.36336 0.20206 0.52734 0.0
C4645 C 0.36166 0.21513 0.51184 0.0
C4646 C 0.37682 0.18669 0.52626 0.0
C4647 C 0.38935 0.1843 0.50988 0.0
C4648 C 0.388 0.1977 0.49458 0.0
C4649 C 0.37419 0.21287 0.49548 0.0
C4650 C 0.40277 0.16714 0.50826 0.0
C4651 C 0.40232 0.15617 0.49096 0.0
C4652 C 0.41478 0.16071 0.52412 0.0
C4653 C 0.41788 0.17246 0.542 0.0
C4654 C 0.42423 0.19156 0.54051 0.0
C4655 C 0.42729 0.20252 0.55736 0.0
C4656 C 0.42416 0.19453 0.57582 0.0
C4657 C 0.41797 0.17554 0.57747 0.0
C4658 C 0.41488 0.16452 0.56066 0.0
C4659 C 0.46249 0.09277 0.49723 0.0
C4660 C 0.45573 0.07839 0.5099 0.0
C4661 C 0.4515 0.10981 0.49495 0.0
C4662 C 0.43379 0.11282 0.50565 0.0
C4663 C 0.42658 0.09814 0.51761 0.0
C4664 C 0.43736 0.08108 0.51962 0.0
C4665 C 0.42352 0.13171 0.50577 0.0
C4666 C 0.42467 0.14294 0.52276 0.0
C4667 C 0.41262 0.1386 0.48953 0.0
C4668 C 0.41136 0.1275 0.47109 0.0
C4669 C 0.40337 0.10894 0.47096 0.0
C4670 C 0.40265 0.09843 0.45356 0.0
C4671 C 0.40975 0.1064 0.43617 0.0
C4672 C 0.41751 0.12492 0.43615 0.0
C4673 C 0.41828 0.13548 0.45352 0.0
H4674 H 0.4092 0.09823 0.42272 0.0
H4675 H 0.42656 0.20303 0.58885 0.0
H4676 H 0.84197 0.33002 0.49728 0.0
H4677 H 0.86797 0.35447 0.49602 0.0
H4678 H 0.82383 0.39787 0.50974 0.0
H4679 H 0.79758 0.37334 0.51011 0.0
H4680 H 0.84935 0.41131 0.48418 0.0
H4681 H 0.85633 0.37644 0.54512 0.0
H4682 H 0.86132 0.3477 0.5655 0.0
H4683 H 0.91759 0.33656 0.53716 0.0
H4684 H 0.9128 0.3651 0.51643 0.0
H4685 H 0.91044 0.48374 0.52379 0.0
H4686 H 0.88638 0.45914 0.51554 0.0
H4687 H 0.93465 0.41841 0.5076 0.0
H4688 H 0.95872 0.44271 0.51768 0.0
H4689 H 0.90843 0.40243 0.5273 0.0
H4690 H 0.90282 0.44005 0.46839 0.0
H4691 H 0.89747 0.46956 0.44918 0.0
H4692 H 0.83875 0.4761 0.47393 0.0
H4693 H 0.84383 0.44691 0.49352 0.0
C4694 C 0.83785 0.34483 0.49985 0.0
C4695 C 0.81789 0.34987 0.50399 0.0
C4696 C 0.8527 0.35877 0.49924 0.0
C4697 C 0.848 0.37798 0.50329 0.0
C4698 C 0.82787 0.38313 0.50668 0.0
C4699 C 0.81289 0.36917 0.50693 0.0
C4700 C 0.86411 0.39256 0.50463 0.0
C4701 C 0.86223 0.40946 0.49369 0.0
C4702 C 0.88124 0.38993 0.5166 0.0
C4703 C 0.88409 0.37277 0.52908 0.0
C4704 C 0.86969 0.36778 0.54314 0.0
C4705 C 0.8725 0.35154 0.55477 0.0
C4706 C 0.88973 0.34028 0.55259 0.0
C4707 C 0.90423 0.34527 0.53881 0.0
C4708 C 0.90147 0.36147 0.52712 0.0
C4709 C 0.91598 0.46958 0.52021 0.0
C4710 C 0.93648 0.46511 0.52171 0.0
C4711 C 0.90216 0.45551 0.51516 0.0
C4712 C 0.90858 0.43686 0.51055 0.0
C4713 C 0.92922 0.43264 0.5111 0.0
C4714 C 0.94301 0.44657 0.51678 0.0
C4715 C 0.89372 0.42141 0.50692 0.0
C4716 C 0.89579 0.40428 0.51748 0.0
C4717 C 0.8768 0.42387 0.49457 0.0
C4718 C 0.87375 0.4413 0.4825 0.0
C4719 C 0.8888 0.44782 0.4698 0.0
C4720 C 0.88582 0.4645 0.45885 0.0
C4721 C 0.86778 0.47465 0.46038 0.0
C4722 C 0.85269 0.46819 0.47278 0.0
C4723 C 0.85561 0.45158 0.48379 0.0
H4724 H 0.86541 0.48754 0.45201 0.0
H4725 H 0.89188 0.32772 0.56161 0.0
H4726 H 0.21568 0.69709 0.54694 0.0
H4727 H 0.18878 0.67365 0.54545 0.0
H4728 H 0.21272 0.65168 0.49122 0.0
H4729 H 0.23951 0.6754 0.49249 0.0
H4730 H 0.17441 0.66046 0.48753 0.0
H4731 H 0.21324 0.6257 0.5359 0.0
H4732 H 0.23152 0.62334 0.5672 0.0
H4733 H 0.17776 0.63756 0.59858 0.0
H4734 H 0.15922 0.64028 0.56748 0.0
H4735 H 0.10751 0.58372 0.47459 0.0
H4736 H 0.13608 0.6047 0.47897 0.0
H4737 H 0.11358 0.62173 0.53558 0.0
H4738 H 0.08525 0.59978 0.5316 0.0
H4739 H 0.15122 0.61558 0.5387 0.0
H4740 H 0.11987 0.66458 0.49424 0.0
H4741 H 0.10264 0.67645 0.46459 0.0
H4742 H 0.13969 0.64021 0.42877 0.0
H4743 H 0.15769 0.62881 0.45819 0.0
C4744 C 0.21557 0.6869 0.535 0.0
C4745 C 0.22973 0.68811 0.51982 0.0
C4746 C 0.20014 0.67347 0.53415 0.0
C4747 C 0.19872 0.66078 0.51827 0.0
C4748 C 0.21346 0.66134 0.50361 0.0
C4749 C 0.22877 0.67487 0.50435 0.0
C4750 C 0.18083 0.64838 0.51583 0.0
C4751 C 0.16961 0.65034 0.49859 0.0
C4752 C 0.17391 0.63588 0.53062 0.0
C4753 C 0.18489 0.63338 0.54933 0.0
C4754 C 0.20533 0.62839 0.54947 0.0
C4755 C 0.21574 0.62701 0.56718 0.0
C4756 C 0.20584 0.63046 0.58484 0.0
C4757 C 0.18543 0.63499 0.58487 0.0
C4758 C 0.17496 0.63642 0.56721 0.0
C4759 C 0.10844 0.59216 0.48786 0.0
C4760 C 0.09395 0.59031 0.50264 0.0
C4761 C 0.12477 0.60434 0.49028 0.0
C4762 C 0.12682 0.61536 0.50735 0.0
C4763 C 0.11229 0.61357 0.52216 0.0
C4764 C 0.09609 0.60105 0.51989 0.0
C4765 C 0.14489 0.62753 0.51025 0.0
C4766 C 0.15613 0.62555 0.52758 0.0
C4767 C 0.15169 0.64041 0.49577 0.0
C4768 C 0.13968 0.64548 0.47836 0.0
C4769 C 0.12414 0.65901 0.48003 0.0
C4770 C 0.11449 0.66589 0.46327 0.0
C4771 C 0.12 0.65902 0.44481 0.0
C4772 C 0.13537 0.64545 0.44307 0.0
C4773 C 0.1454 0.63889 0.45976 0.0
H4774 H 0.11234 0.66419 0.43188 0.0
H4775 H 0.21395 0.6296 0.59853 0.0
loop_
_geom_bond_atom_site_label_1
_geom_bond_atom_site_label_2
_geom_bond_distance
_geom_bond_site_symmetry_2
_ccdc_geom_bond_type
C0 C1 1.384 . S
C0 H13 0.947 . S
C0 C35 1.382 . S
C1 C0 1.384 . S
C1 C2 1.378 . S
C2 C1 1.378 . S
C2 C3 1.378 . S
C2 H14 0.952 . S
C3 C2 1.378 . S
C3 H15 0.950 . S
C3 C34 1.383 . S
H4 C23 0.947 . S
H5 C24 0.946 . S
H6 C26 0.953 . S
H7 C27 0.945 . S
H8 C29 0.952 . S
H9 C30 0.949 . S
H10 C32 0.950 . S
H11 C33 0.948 . S
H12 C35 0.951 . S
H13 C0 0.947 . S
H14 C2 0.952 . S
H15 C3 0.950 . S
N16 C19 1.382 . S
N16 C21 1.363 . S
N17 C19 1.371 . S
N17 C20 1.372 . S
N18 C20 1.361 . S
N18 C21 1.377 . S
C19 N16 1.382 . S
C19 N17 1.371 . S
C19 C22 1.480 . S
C20 N17 1.372 . S
C20 N18 1.361 . S
C20 C28 1.457 . S
C21 N16 1.363 . S
C21 N18 1.377 . S
C21 C34 1.479 . S
C22 C19 1.480 . S
C22 C23 1.383 . S
C22 C27 1.385 . S
C23 H4 0.947 . S
C23 C22 1.383 . S
C23 C24 1.388 . S
C24 H5 0.946 . S
C24 C23 1.388 . S
C24 C25 1.384 . S
C25 C24 1.384 . S
C25 C26 1.377 . S
C26 H6 0.953 . S
C26 C25 1.377 . S
C26 C27 1.369 . S
C27 H7 0.945 . S
C27 C22 1.385 . S
C27 C26 1.369 . S
C28 C20 1.457 . S
C28 C29 1.372 . S
C28 C33 1.364 . S
C29 H8 0.952 . S
C29 C28 1.372 . S
C29 C30 1.389 . S
C30 H9 0.949 . S
C30 C29 1.389 . S
C30 C31 1.387 . S
C31 C30 1.387 . S
C31 C32 1.372 . S
C32 H10 0.950 . S
C32 C31 1.372 . S
C32 C33 1.379 . S
C33 H11 0.948 . S
C33 C28 1.364 . S
C33 C32 1.379 . S
C34 C3 1.383 . S
C34 C21 1.479 . S
C34 C35 1.398 . S
C35 C0 1.382 . S
C35 H12 0.951 . S
C35 C34 1.398 . S
C36 C37 1.384 . S
C36 H49 0.947 . S
C36 C71 1.382 . S
C37 C36 1.384 . S
C37 C38 1.378 . S
C38 C37 1.378 . S
C38 C39 1.378 . S
C38 H50 0.952 . S
C39 C38 1.378 . S
C39 H51 0.950 . S
C39 C70 1.383 . S
H40 C59 0.947 . S
H41 C60 0.946 . S
H42 C62 0.953 . S
H43 C63 0.945 . S
H44 C65 0.952 . S
H45 C66 0.949 . S
H46 C68 0.950 . S
H47 C69 0.948 . S
H48 C71 0.951 . S
H49 C36 0.947 . S
H50 C38 0.952 . S
H51 C39 0.950 . S
N52 C55 1.382 . S
N52 C57 1.363 . S
N53 C55 1.371 . S
N53 C56 1.372 . S
N54 C56 1.361 . S
N54 C57 1.377 . S
C55 N52 1.382 . S
C55 N53 1.371 . S
C55 C58 1.480 . S
C56 N53 1.372 . S
C56 N54 1.361 . S
C56 C64 1.457 . S
C57 N52 1.363 . S
C57 N54 1.377 . S
C57 C70 1.479 . S
C58 C55 1.480 . S
C58 C59 1.383 . S
C58 C63 1.385 . S
C59 H40 0.947 . S
C59 C58 1.383 . S
C59 C60 1.388 . S
C60 H41 0.946 . S
C60 C59 1.388 . S
C60 C61 1.384 . S
C61 C60 1.384 . S
C61 C62 1.377 . S
C62 H42 0.953 . S
C62 C61 1.377 . S
C62 C63 1.369 . S
C63 H43 0.945 . S
C63 C58 1.385 . S
C63 C62 1.369 . S
C64 C56 1.457 . S
C64 C65 1.372 . S
C64 C69 1.364 . S
C65 H44 0.952 . S
C65 C64 1.372 . S
C65 C66 1.389 . S
C66 H45 0.949 . S
C66 C65 1.389 . S
C66 C67 1.387 . S
C67 C66 1.387 . S
C67 C68 1.372 . S
C68 H46 0.950 . S
C68 C67 1.372 . S
C68 C69 1.379 . S
C69 H47 0.948 . S
C69 C64 1.364 . S
C69 C68 1.379 . S
C70 C39 1.383 . S
C70 C57 1.479 . S
C70 C71 1.398 . S
C71 C36 1.382 . S
C71 H48 0.951 . S
C71 C70 1.398 . S
C72 C73 1.384 . S
C72 H85 0.947 . S
C72 C107 1.382 . S
C73 C72 1.384 . S
C73 C74 1.378 . S
C74 C73 1.378 . S
C74 C75 1.378 . S
C74 H86 0.952 . S
C75 C74 1.378 . S
C75 H87 0.950 . S
C75 C106 1.383 . S
H76 C95 0.947 . S
H77 C96 0.946 . S
H78 C98 0.953 . S
H79 C99 0.945 . S
H80 C101 0.952 . S
H81 C102 0.949 . S
H82 C104 0.950 . S
H83 C105 0.948 . S
H84 C107 0.951 . S
H85 C72 0.947 . S
H86 C74 0.952 . S
H87 C75 0.950 . S
N88 C91 1.382 . S
N88 C93 1.363 . S
N89 C91 1.371 . S
N89 C92 1.372 . S
N90 C92 1.361 . S
N90 C93 1.377 . S
C91 N88 1.382 . S
C91 N89 1.371 . S
C91 C94 1.480 . S
C92 N89 1.372 . S
C92 N90 1.361 . S
C92 C100 1.457 . S
C93 N88 1.363 . S
C93 N90 1.377 . S
C93 C106 1.479 . S
C94 C91 1.480 . S
C94 C95 1.383 . S
C94 C99 1.385 . S
C95 H76 0.947 . S
C95 C94 1.383 . S
C95 C96 1.388 . S
C96 H77 0.946 . S
C96 C95 1.388 . S
C96 C97 1.384 . S
C97 C96 1.384 . S
C97 C98 1.377 . S
C98 H78 0.953 . S
C98 C97 1.377 . S
C98 C99 1.369 . S
C99 H79 0.945 . S
C99 C94 1.385 . S
C99 C98 1.369 . S
C100 C92 1.457 . S
C100 C101 1.372 . S
C100 C105 1.364 . S
C101 H80 0.952 . S
C101 C100 1.372 . S
C101 C102 1.389 . S
C102 H81 0.949 . S
C102 C101 1.389 . S
C102 C103 1.387 . S
C103 C102 1.387 . S
C103 C104 1.372 . S
C104 H82 0.950 . S
C104 C103 1.372 . S
C104 C105 1.379 . S
C105 H83 0.948 . S
C105 C100 1.364 . S
C105 C104 1.379 . S
C106 C75 1.383 . S
C106 C93 1.479 . S
C106 C107 1.398 . S
C107 C72 1.382 . S
C107 H84 0.951 . S
C107 C106 1.398 . S
C108 C109 1.384 . S
C108 H121 0.947 . S
C108 C143 1.382 . S
C109 C108 1.384 . S
C109 C110 1.378 . S
C110 C109 1.378 . S
C110 C111 1.378 . S
C110 H122 0.952 . S
C111 C110 1.378 . S
C111 H123 0.950 . S
C111 C142 1.383 . S
H112 C131 0.947 . S
H113 C132 0.940 1_565 S
H114 C134 0.953 . S
H115 C135 0.945 . S
H116 C137 0.952 . S
H117 C138 0.951 . S
H118 C140 0.950 . S
H119 C141 0.948 . S
H120 C143 0.951 . S
H121 C108 0.947 . S
H122 C110 0.952 . S
H123 C111 0.950 . S
N124 C127 1.382 . S
N124 C129 1.363 . S
N125 C127 1.371 . S
N125 C128 1.372 . S
N126 C128 1.361 . S
N126 C129 1.377 . S
C127 N124 1.382 . S
C127 N125 1.371 . S
C127 C130 1.480 . S
C128 N125 1.372 . S
C128 N126 1.361 . S
C128 C136 1.457 . S
C129 N124 1.363 . S
C129 N126 1.377 . S
C129 C142 1.479 . S
C130 C127 1.480 . S
C130 C131 1.383 . S
C130 C135 1.385 . S
C131 H112 0.947 . S
C131 C130 1.383 . S
C131 C132 1.388 . S
C132 H113 0.940 1_545 S
C132 C131 1.388 . S
C132 C133 1.384 . S
C133 C132 1.384 . S
C133 C134 1.377 . S
C134 H114 0.953 . S
C134 C133 1.377 . S
C134 C135 1.369 . S
C135 H115 0.945 . S
C135 C130 1.385 . S
C135 C134 1.369 . S
C136 C128 1.457 . S
C136 C137 1.372 . S
C136 C141 1.364 . S
C137 H116 0.952 . S
C137 C136 1.372 . S
C137 C138 1.389 . S
C138 H117 0.951 . S
C138 C137 1.389 . S
C138 C139 1.387 . S
C139 C138 1.387 . S
C139 C140 1.372 . S
C140 H118 0.950 . S
C140 C139 1.372 . S
C140 C141 1.379 . S
C141 H119 0.948 . S
C141 C136 1.364 . S
C141 C140 1.379 . S
C142 C111 1.383 . S
C142 C129 1.479 . S
C142 C143 1.398 . S
C143 C108 1.382 . S
C143 H120 0.951 . S
C143 C142 1.398 . S
C144 C145 1.382 1_455 S
C144 H157 0.949 . S
C144 C179 1.382 . S
C145 C144 1.382 1_655 S
C145 C146 1.385 . S
C146 C145 1.385 . S
C146 C147 1.378 . S
C146 H158 0.952 . S
C147 C146 1.378 . S
C147 H159 0.950 . S
C147 C178 1.383 . S
H148 C167 0.947 . S
H149 C168 0.955 . S
H150 C170 0.953 . S
H151 C171 0.945 . S
H152 C173 0.951 1_455 S
H153 C174 0.960 . S
H154 C176 0.950 . S
H155 C177 0.948 . S
H156 C179 0.952 . S
H157 C144 0.949 . S
H158 C146 0.952 . S
H159 C147 0.950 . S
N160 C163 1.382 . S
N160 C165 1.363 . S
N161 C163 1.371 . S
N161 C164 1.372 . S
N162 C164 1.361 . S
N162 C165 1.377 . S
C163 N160 1.382 . S
C163 N161 1.371 . S
C163 C166 1.480 . S
C164 N161 1.372 . S
C164 N162 1.361 . S
C164 C172 1.457 . S
C165 N160 1.363 . S
C165 N162 1.377 . S
C165 C178 1.479 . S
C166 C163 1.480 . S
C166 C167 1.383 . S
C166 C171 1.385 . S
C167 H148 0.947 . S
C167 C166 1.383 . S
C167 C168 1.384 1_655 S
C168 H149 0.955 . S
C168 C167 1.384 1_455 S
C168 C169 1.381 1_455 S
C169 C168 1.381 1_655 S
C169 C170 1.377 . S
C170 H150 0.953 . S
C170 C169 1.377 . S
C170 C171 1.369 . S
C171 H151 0.945 . S
C171 C166 1.385 . S
C171 C170 1.369 . S
C172 C164 1.457 . S
C172 C173 1.373 . S
C172 C177 1.364 . S
C173 H152 0.951 1_655 S
C173 C172 1.373 . S
C173 C174 1.387 1_655 S
C174 H153 0.960 . S
C174 C173 1.387 1_455 S
C174 C175 1.381 1_455 S
C175 C174 1.381 1_655 S
C175 C176 1.372 . S
C176 H154 0.950 . S
C176 C175 1.372 . S
C176 C177 1.379 . S
C177 H155 0.948 . S
C177 C172 1.364 . S
C177 C176 1.379 . S
C178 C147 1.383 . S
C178 C165 1.479 . S
C178 C179 1.398 1_655 S
C179 C144 1.382 . S
C179 H156 0.952 . S
C179 C178 1.398 1_455 S
C180 C181 1.384 . S
C180 H193 0.947 . S
C180 C215 1.382 . S
C181 C180 1.384 . S
C181 C182 1.378 . S
C182 C181 1.378 . S
C182 C183 1.378 . S
C182 H194 0.952 . S
C183 C182 1.378 . S
C183 H195 0.950 . S
C183 C214 1.383 . S
H184 C203 0.947 . S
H185 C204 0.946 . S
H186 C206 0.953 . S
H187 C207 0.945 . S
H188 C209 0.952 . S
H189 C210 0.949 . S
H190 C212 0.950 . S
H191 C213 0.948 . S
H192 C215 0.951 . S
H193 C180 0.947 . S
H194 C182 0.952 . S
H195 C183 0.950 . S
N196 C199 1.382 . S
N196 C201 1.363 . S
N197 C199 1.371 . S
N197 C200 1.372 . S
N198 C200 1.361 . S
N198 C201 1.377 . S
C199 N196 1.382 . S
C199 N197 1.371 . S
C199 C202 1.480 . S
C200 N197 1.372 . S
C200 N198 1.361 . S
C200 C208 1.457 . S
C201 N196 1.363 . S
C201 N198 1.377 . S
C201 C214 1.479 . S
C202 C199 1.480 . S
C202 C203 1.383 . S
C202 C207 1.385 . S
C203 H184 0.947 . S
C203 C202 1.383 . S
C203 C204 1.388 . S
C204 H185 0.946 . S
C204 C203 1.388 . S
C204 C205 1.384 . S
C205 C204 1.384 . S
C205 C206 1.377 . S
C206 H186 0.953 . S
C206 C205 1.377 . S
C206 C207 1.369 . S
C207 H187 0.945 . S
C207 C202 1.385 . S
C207 C206 1.369 . S
C208 C200 1.457 . S
C208 C209 1.372 . S
C208 C213 1.364 . S
C209 H188 0.952 . S
C209 C208 1.372 . S
C209 C210 1.389 . S
C210 H189 0.949 . S
C210 C209 1.389 . S
C210 C211 1.387 . S
C211 C210 1.387 . S
C211 C212 1.372 . S
C212 H190 0.950 . S
C212 C211 1.372 . S
C212 C213 1.379 . S
C213 H191 0.948 . S
C213 C208 1.364 . S
C213 C212 1.379 . S
C214 C183 1.383 . S
C214 C201 1.479 . S
C214 C215 1.398 . S
C215 C180 1.382 . S
C215 H192 0.951 . S
C215 C214 1.398 . S
C216 C217 1.384 . S
C216 H229 0.947 . S
C216 C251 1.382 . S
C217 C216 1.384 . S
C217 C218 1.378 . S
C218 C217 1.378 . S
C218 C219 1.378 . S
C218 H230 0.952 . S
C219 C218 1.378 . S
C219 H231 0.950 . S
C219 C250 1.383 . S
H220 C239 0.947 . S
H221 C240 0.946 . S
H222 C242 0.953 . S
H223 C243 0.945 . S
H224 C245 0.952 . S
H225 C246 0.949 . S
H226 C248 0.950 . S
H227 C249 0.948 . S
H228 C251 0.951 . S
H229 C216 0.947 . S
H230 C218 0.952 . S
H231 C219 0.950 . S
N232 C235 1.382 . S
N232 C237 1.363 . S
N233 C235 1.371 . S
N233 C236 1.372 . S
N234 C236 1.361 . S
N234 C237 1.377 . S
C235 N232 1.382 . S
C235 N233 1.371 . S
C235 C238 1.480 . S
C236 N233 1.372 . S
C236 N234 1.361 . S
C236 C244 1.457 . S
C237 N232 1.363 . S
C237 N234 1.377 . S
C237 C250 1.479 . S
C238 C235 1.480 . S
C238 C239 1.383 . S
C238 C243 1.385 . S
C239 H220 0.947 . S
C239 C238 1.383 . S
C239 C240 1.388 . S
C240 H221 0.946 . S
C240 C239 1.388 . S
C240 C241 1.384 . S
C241 C240 1.384 . S
C241 C242 1.377 . S
C242 H222 0.953 . S
C242 C241 1.377 . S
C242 C243 1.369 . S
C243 H223 0.945 . S
C243 C238 1.385 . S
C243 C242 1.369 . S
C244 C236 1.457 . S
C244 C245 1.372 . S
C244 C249 1.364 . S
C245 H224 0.952 . S
C245 C244 1.372 . S
C245 C246 1.389 . S
C246 H225 0.949 . S
C246 C245 1.389 . S
C246 C247 1.387 . S
C247 C246 1.387 . S
C247 C248 1.372 . S
C248 H226 0.950 . S
C248 C247 1.372 . S
C248 C249 1.379 . S
C249 H227 0.948 . S
C249 C244 1.364 . S
C249 C248 1.379 . S
C250 C219 1.383 . S
C250 C237 1.479 . S
C250 C251 1.398 . S
C251 C216 1.382 . S
C251 H228 0.951 . S
C251 C250 1.398 . S
C252 C253 1.384 . S
C252 H265 0.947 . S
C252 C287 1.382 . S
C253 C252 1.384 . S
C253 C254 1.378 . S
C254 C253 1.378 . S
C254 C255 1.378 . S
C254 H266 0.952 . S
C255 C254 1.378 . S
C255 H267 0.950 . S
C255 C286 1.383 . S
H256 C275 0.947 . S
H257 C276 0.946 . S
H258 C278 0.953 . S
H259 C279 0.945 . S
H260 C281 0.952 . S
H261 C282 0.949 . S
H262 C284 0.950 . S
H263 C285 0.948 . S
H264 C287 0.951 . S
H265 C252 0.947 . S
H266 C254 0.952 . S
H267 C255 0.950 . S
N268 C271 1.382 . S
N268 C273 1.363 . S
N269 C271 1.371 . S
N269 C272 1.372 . S
N270 C272 1.361 . S
N270 C273 1.377 . S
C271 N268 1.382 . S
C271 N269 1.371 . S
C271 C274 1.480 . S
C272 N269 1.372 . S
C272 N270 1.361 . S
C272 C280 1.457 . S
C273 N268 1.363 . S
C273 N270 1.377 . S
C273 C286 1.479 . S
C274 C271 1.480 . S
C274 C275 1.383 . S
C274 C279 1.385 . S
C275 H256 0.947 . S
C275 C274 1.383 . S
C275 C276 1.388 . S
C276 H257 0.946 . S
C276 C275 1.388 . S
C276 C277 1.384 . S
C277 C276 1.384 . S
C277 C278 1.377 . S
C278 H258 0.953 . S
C278 C277 1.377 . S
C278 C279 1.369 . S
C279 H259 0.945 . S
C279 C274 1.385 . S
C279 C278 1.369 . S
C280 C272 1.457 . S
C280 C281 1.372 . S
C280 C285 1.364 . S
C281 H260 0.952 . S
C281 C280 1.372 . S
C281 C282 1.389 . S
C282 H261 0.949 . S
C282 C281 1.389 . S
C282 C283 1.387 . S
C283 C282 1.387 . S
C283 C284 1.372 . S
C284 H262 0.950 . S
C284 C283 1.372 . S
C284 C285 1.379 . S
C285 H263 0.948 . S
C285 C280 1.364 . S
C285 C284 1.379 . S
C286 C255 1.383 . S
C286 C273 1.479 . S
C286 C287 1.398 . S
C287 C252 1.382 . S
C287 H264 0.951 . S
C287 C286 1.398 . S
C288 C289 1.384 . S
C288 H301 0.947 . S
C288 C323 1.382 . S
C289 C288 1.384 . S
C289 C290 1.378 . S
C290 C289 1.378 . S
C290 C291 1.378 . S
C290 H302 0.952 . S
C291 C290 1.378 . S
C291 H303 0.950 . S
C291 C322 1.383 . S
H292 C311 0.947 . S
H293 C312 0.946 . S
H294 C314 0.953 . S
H295 C315 0.945 . S
H296 C317 0.952 . S
H297 C318 0.949 . S
H298 C320 0.950 . S
H299 C321 0.948 . S
H300 C323 0.951 . S
H301 C288 0.947 . S
H302 C290 0.952 . S
H303 C291 0.950 . S
N304 C307 1.382 . S
N304 C309 1.363 . S
N305 C307 1.371 . S
N305 C308 1.372 . S
N306 C308 1.361 . S
N306 C309 1.377 . S
C307 N304 1.382 . S
C307 N305 1.371 . S
C307 C310 1.480 . S
C308 N305 1.372 . S
C308 N306 1.361 . S
C308 C316 1.457 . S
C309 N304 1.363 . S
C309 N306 1.377 . S
C309 C322 1.479 . S
C310 C307 1.480 . S
C310 C311 1.383 . S
C310 C315 1.385 . S
C311 H292 0.947 . S
C311 C310 1.383 . S
C311 C312 1.388 . S
C312 H293 0.946 . S
C312 C311 1.388 . S
C312 C313 1.384 . S
C313 C312 1.384 . S
C313 C314 1.377 . S
C314 H294 0.953 . S
C314 C313 1.377 . S
C314 C315 1.369 . S
C315 H295 0.945 . S
C315 C310 1.385 . S
C315 C314 1.369 . S
C316 C308 1.457 . S
C316 C317 1.372 . S
C316 C321 1.364 . S
C317 H296 0.952 . S
C317 C316 1.372 . S
C317 C318 1.389 . S
C318 H297 0.949 . S
C318 C317 1.389 . S
C318 C319 1.387 . S
C319 C318 1.387 . S
C319 C320 1.372 . S
C320 H298 0.950 . S
C320 C319 1.372 . S
C320 C321 1.379 . S
C321 H299 0.948 . S
C321 C316 1.364 . S
C321 C320 1.379 . S
C322 C291 1.383 . S
C322 C309 1.479 . S
C322 C323 1.398 . S
C323 C288 1.382 . S
C323 H300 0.951 . S
C323 C322 1.398 . S
C324 C325 1.384 . S
C324 H337 0.947 . S
C324 C359 1.382 . S
C325 C324 1.384 . S
C325 C326 1.378 . S
C326 C325 1.378 . S
C326 C327 1.378 . S
C326 H338 0.952 . S
C327 C326 1.378 . S
C327 H339 0.950 . S
C327 C358 1.383 . S
H328 C347 0.947 . S
H329 C348 0.946 . S
H330 C350 0.953 . S
H331 C351 0.945 . S
H332 C353 0.952 . S
H333 C354 0.949 . S
H334 C356 0.950 . S
H335 C357 0.948 . S
H336 C359 0.951 . S
H337 C324 0.947 . S
H338 C326 0.952 . S
H339 C327 0.950 . S
N340 C343 1.382 . S
N340 C345 1.363 . S
N341 C343 1.371 . S
N341 C344 1.372 . S
N342 C344 1.361 . S
N342 C345 1.377 . S
C343 N340 1.382 . S
C343 N341 1.371 . S
C343 C346 1.480 . S
C344 N341 1.372 . S
C344 N342 1.361 . S
C344 C352 1.457 . S
C345 N340 1.363 . S
C345 N342 1.377 . S
C345 C358 1.479 . S
C346 C343 1.480 . S
C346 C347 1.383 . S
C346 C351 1.385 . S
C347 H328 0.947 . S
C347 C346 1.383 . S
C347 C348 1.388 . S
C348 H329 0.946 . S
C348 C347 1.388 . S
C348 C349 1.384 . S
C349 C348 1.384 . S
C349 C350 1.377 . S
C350 H330 0.953 . S
C350 C349 1.377 . S
C350 C351 1.369 . S
C351 H331 0.945 . S
C351 C346 1.385 . S
C351 C350 1.369 . S
C352 C344 1.457 . S
C352 C353 1.372 . S
C352 C357 1.364 . S
C353 H332 0.952 . S
C353 C352 1.372 . S
C353 C354 1.389 . S
C354 H333 0.949 . S
C354 C353 1.389 . S
C354 C355 1.387 . S
C355 C354 1.387 . S
C355 C356 1.372 . S
C356 H334 0.950 . S
C356 C355 1.372 . S
C356 C357 1.379 . S
C357 H335 0.948 . S
C357 C352 1.364 . S
C357 C356 1.379 . S
C358 C327 1.383 . S
C358 C345 1.479 . S
C358 C359 1.398 . S
C359 C324 1.382 . S
C359 H336 0.951 . S
C359 C358 1.398 . S
C360 C361 1.386 . S
C360 H373 0.947 . S
C360 C395 1.382 . S
C361 C360 1.386 . S
C361 C362 1.375 1_554 S
C362 C361 1.375 1_556 S
C362 C363 1.378 . S
C362 H374 0.952 . S
C363 C362 1.378 . S
C363 H375 0.950 . S
C363 C394 1.391 . S
H364 C383 0.946 . S
H365 C384 0.946 . S
H366 C386 0.953 . S
H367 C387 0.945 . S
H368 C389 0.952 . S
H369 C390 0.949 . S
H370 C392 0.950 . S
H371 C393 0.948 . S
H372 C395 0.951 . S
H373 C360 0.947 . S
H374 C362 0.952 . S
H375 C363 0.950 . S
N376 C379 1.382 . S
N376 C381 1.363 . S
N377 C379 1.374 . S
N377 C380 1.377 . S
N378 C380 1.361 . S
N378 C381 1.377 . S
C379 N376 1.382 . S
C379 N377 1.374 . S
C379 C382 1.480 . S
C380 N377 1.377 . S
C380 N378 1.361 . S
C380 C388 1.457 . S
C381 N376 1.363 . S
C381 N378 1.377 . S
C381 C394 1.485 . S
C382 C379 1.480 . S
C382 C383 1.382 . S
C382 C387 1.385 . S
C383 H364 0.946 . S
C383 C382 1.382 . S
C383 C384 1.389 1_556 S
C384 H365 0.946 . S
C384 C383 1.389 1_554 S
C384 C385 1.384 . S
C385 C384 1.384 . S
C385 C386 1.376 1_554 S
C386 H366 0.953 . S
C386 C385 1.376 1_556 S
C386 C387 1.369 . S
C387 H367 0.945 . S
C387 C382 1.385 . S
C387 C386 1.369 . S
C388 C380 1.457 . S
C388 C389 1.372 1_556 S
C388 C393 1.364 . S
C389 H368 0.952 . S
C389 C388 1.372 1_554 S
C389 C390 1.389 . S
C390 H369 0.949 . S
C390 C389 1.389 . S
C390 C391 1.394 . S
C391 C390 1.394 . S
C391 C392 1.363 1_554 S
C392 H370 0.950 . S
C392 C391 1.363 1_556 S
C392 C393 1.379 . S
C393 H371 0.948 . S
C393 C388 1.364 . S
C393 C392 1.379 . S
C394 C363 1.391 . S
C394 C381 1.485 . S
C394 C395 1.392 1_556 S
C395 C360 1.382 . S
C395 H372 0.951 . S
C395 C394 1.392 1_554 S
C396 C397 1.384 . S
C396 H409 0.947 . S
C396 C431 1.382 . S
C397 C396 1.384 . S
C397 C398 1.380 . S
C398 C397 1.380 . S
C398 C399 1.377 1_554 S
C398 H410 0.952 1_554 S
C399 C398 1.377 1_556 S
C399 H411 0.950 . S
C399 C430 1.383 1_556 S
H400 C419 0.947 . S
H401 C420 0.946 . S
H402 C422 0.953 1_556 S
H403 C423 0.945 . S
H404 C425 0.952 . S
H405 C426 0.949 . S
H406 C428 0.951 . S
H407 C429 0.948 . S
H408 C431 0.951 . S
H409 C396 0.947 . S
H410 C398 0.952 1_556 S
H411 C399 0.950 . S
N412 C415 1.382 . S
N412 C417 1.362 1_554 S
N413 C415 1.371 . S
N413 C416 1.366 1_554 S
N414 C416 1.359 1_554 S
N414 C417 1.375 1_554 S
C415 N412 1.382 . S
C415 N413 1.371 . S
C415 C418 1.479 . S
C416 N413 1.366 1_556 S
C416 N414 1.359 1_556 S
C416 C424 1.457 . S
C417 N412 1.362 1_556 S
C417 N414 1.375 1_556 S
C417 C430 1.476 1_556 S
C418 C415 1.479 . S
C418 C419 1.386 . S
C418 C423 1.383 1_554 S
C419 H400 0.947 . S
C419 C418 1.386 . S
C419 C420 1.388 . S
C420 H401 0.946 . S
C420 C419 1.388 . S
C420 C421 1.384 . S
C421 C420 1.384 . S
C421 C422 1.379 . S
C422 H402 0.953 1_554 S
C422 C421 1.379 . S
C422 C423 1.368 1_554 S
C423 H403 0.945 . S
C423 C418 1.383 1_556 S
C423 C422 1.368 1_556 S
C424 C416 1.457 . S
C424 C425 1.370 1_556 S
C424 C429 1.365 . S
C425 H404 0.952 . S
C425 C424 1.370 1_554 S
C425 C426 1.389 . S
C426 H405 0.949 . S
C426 C425 1.389 . S
C426 C427 1.387 . S
C427 C426 1.387 . S
C427 C428 1.371 1_554 S
C428 H406 0.951 . S
C428 C427 1.371 1_556 S
C428 C429 1.379 . S
C429 H407 0.948 . S
C429 C424 1.365 . S
C429 C428 1.379 . S
C430 C399 1.383 1_554 S
C430 C417 1.476 1_554 S
C430 C431 1.398 . S
C431 C396 1.382 . S
C431 H408 0.951 . S
C431 C430 1.398 . S
C432 C433 1.384 . S
C432 H445 0.947 . S
C432 C467 1.382 . S
C433 C432 1.384 . S
C433 C434 1.378 . S
C434 C433 1.378 . S
C434 C435 1.378 . S
C434 H446 0.952 . S
C435 C434 1.378 . S
C435 H447 0.950 . S
C435 C466 1.383 . S
H436 C455 0.947 . S
H437 C456 0.946 . S
H438 C458 0.953 . S
H439 C459 0.945 . S
H440 C461 0.952 . S
H441 C462 0.949 . S
H442 C464 0.950 . S
H443 C465 0.948 . S
H444 C467 0.951 . S
H445 C432 0.947 . S
H446 C434 0.952 . S
H447 C435 0.950 . S
N448 C451 1.382 . S
N448 C453 1.363 . S
N449 C451 1.371 . S
N449 C452 1.372 . S
N450 C452 1.361 . S
N450 C453 1.377 . S
C451 N448 1.382 . S
C451 N449 1.371 . S
C451 C454 1.480 . S
C452 N449 1.372 . S
C452 N450 1.361 . S
C452 C460 1.457 . S
C453 N448 1.363 . S
C453 N450 1.377 . S
C453 C466 1.479 . S
C454 C451 1.480 . S
C454 C455 1.383 . S
C454 C459 1.385 . S
C455 H436 0.947 . S
C455 C454 1.383 . S
C455 C456 1.388 . S
C456 H437 0.946 . S
C456 C455 1.388 . S
C456 C457 1.384 . S
C457 C456 1.384 . S
C457 C458 1.377 . S
C458 H438 0.953 . S
C458 C457 1.377 . S
C458 C459 1.369 . S
C459 H439 0.945 . S
C459 C454 1.385 . S
C459 C458 1.369 . S
C460 C452 1.457 . S
C460 C461 1.372 . S
C460 C465 1.364 . S
C461 H440 0.952 . S
C461 C460 1.372 . S
C461 C462 1.389 . S
C462 H441 0.949 . S
C462 C461 1.389 . S
C462 C463 1.387 . S
C463 C462 1.387 . S
C463 C464 1.372 . S
C464 H442 0.950 . S
C464 C463 1.372 . S
C464 C465 1.379 . S
C465 H443 0.948 . S
C465 C460 1.364 . S
C465 C464 1.379 . S
C466 C435 1.383 . S
C466 C453 1.479 . S
C466 C467 1.398 . S
C467 C432 1.382 . S
C467 H444 0.951 . S
C467 C466 1.398 . S
C468 C469 1.384 . S
C468 H481 0.947 . S
C468 C503 1.382 . S
C469 C468 1.384 . S
C469 C470 1.378 . S
C470 C469 1.378 . S
C470 C471 1.378 . S
C470 H482 0.952 . S
C471 C470 1.378 . S
C471 H483 0.950 . S
C471 C502 1.383 . S
H472 C491 0.947 . S
H473 C492 0.946 . S
H474 C494 0.953 . S
H475 C495 0.945 . S
H476 C497 0.952 . S
H477 C498 0.949 . S
H478 C500 0.950 . S
H479 C501 0.948 . S
H480 C503 0.951 . S
H481 C468 0.947 . S
H482 C470 0.952 . S
H483 C471 0.950 . S
N484 C487 1.382 . S
N484 C489 1.363 . S
N485 C487 1.371 . S
N485 C488 1.372 . S
N486 C488 1.361 . S
N486 C489 1.377 . S
C487 N484 1.382 . S
C487 N485 1.371 . S
C487 C490 1.480 . S
C488 N485 1.372 . S
C488 N486 1.361 . S
C488 C496 1.457 . S
C489 N484 1.363 . S
C489 N486 1.377 . S
C489 C502 1.479 . S
C490 C487 1.480 . S
C490 C491 1.383 . S
C490 C495 1.385 . S
C491 H472 0.947 . S
C491 C490 1.383 . S
C491 C492 1.388 . S
C492 H473 0.946 . S
C492 C491 1.388 . S
C492 C493 1.384 . S
C493 C492 1.384 . S
C493 C494 1.377 . S
C494 H474 0.953 . S
C494 C493 1.377 . S
C494 C495 1.369 . S
C495 H475 0.945 . S
C495 C490 1.385 . S
C495 C494 1.369 . S
C496 C488 1.457 . S
C496 C497 1.372 . S
C496 C501 1.364 . S
C497 H476 0.952 . S
C497 C496 1.372 . S
C497 C498 1.389 . S
C498 H477 0.949 . S
C498 C497 1.389 . S
C498 C499 1.387 . S
C499 C498 1.387 . S
C499 C500 1.372 . S
C500 H478 0.950 . S
C500 C499 1.372 . S
C500 C501 1.379 . S
C501 H479 0.948 . S
C501 C496 1.364 . S
C501 C500 1.379 . S
C502 C471 1.383 . S
C502 C489 1.479 . S
C502 C503 1.398 . S
C503 C468 1.382 . S
C503 H480 0.951 . S
C503 C502 1.398 . S
C504 C505 1.384 . S
C504 H517 0.947 . S
C504 C539 1.382 . S
C505 C504 1.384 . S
C505 C506 1.378 . S
C506 C505 1.378 . S
C506 C507 1.378 . S
C506 H518 0.952 . S
C507 C506 1.378 . S
C507 H519 0.950 . S
C507 C538 1.383 . S
H508 C527 0.947 . S
H509 C528 0.946 . S
H510 C530 0.953 . S
H511 C531 0.945 . S
H512 C533 0.952 . S
H513 C534 0.949 . S
H514 C536 0.950 . S
H515 C537 0.948 . S
H516 C539 0.951 . S
H517 C504 0.947 . S
H518 C506 0.952 . S
H519 C507 0.950 . S
N520 C523 1.382 . S
N520 C525 1.363 . S
N521 C523 1.371 . S
N521 C524 1.372 . S
N522 C524 1.361 . S
N522 C525 1.377 . S
C523 N520 1.382 . S
C523 N521 1.371 . S
C523 C526 1.480 . S
C524 N521 1.372 . S
C524 N522 1.361 . S
C524 C532 1.457 . S
C525 N520 1.363 . S
C525 N522 1.377 . S
C525 C538 1.479 . S
C526 C523 1.480 . S
C526 C527 1.383 . S
C526 C531 1.385 . S
C527 H508 0.947 . S
C527 C526 1.383 . S
C527 C528 1.388 . S
C528 H509 0.946 . S
C528 C527 1.388 . S
C528 C529 1.384 . S
C529 C528 1.384 . S
C529 C530 1.377 . S
C530 H510 0.953 . S
C530 C529 1.377 . S
C530 C531 1.369 . S
C531 H511 0.945 . S
C531 C526 1.385 . S
C531 C530 1.369 . S
C532 C524 1.457 . S
C532 C533 1.372 . S
C532 C537 1.364 . S
C533 H512 0.952 . S
C533 C532 1.372 . S
C533 C534 1.389 . S
C534 H513 0.949 . S
C534 C533 1.389 . S
C534 C535 1.387 . S
C535 C534 1.387 . S
C535 C536 1.372 . S
C536 H514 0.950 . S
C536 C535 1.372 . S
C536 C537 1.379 . S
C537 H515 0.948 . S
C537 C532 1.364 . S
C537 C536 1.379 . S
C538 C507 1.383 . S
C538 C525 1.479 . S
C538 C539 1.398 . S
C539 C504 1.382 . S
C539 H516 0.951 . S
C539 C538 1.398 . S
C540 C541 1.384 . S
C540 H553 0.947 . S
C540 C575 1.382 . S
C541 C540 1.384 . S
C541 C542 1.378 . S
C542 C541 1.378 . S
C542 C543 1.378 . S
C542 H554 0.952 . S
C543 C542 1.378 . S
C543 H555 0.950 . S
C543 C574 1.383 . S
H544 C563 0.947 . S
H545 C564 0.946 . S
H546 C566 0.953 . S
H547 C567 0.945 . S
H548 C569 0.952 . S
H549 C570 0.949 . S
H550 C572 0.950 . S
H551 C573 0.948 . S
H552 C575 0.951 . S
H553 C540 0.947 . S
H554 C542 0.952 . S
H555 C543 0.950 . S
N556 C559 1.382 . S
N556 C561 1.363 . S
N557 C559 1.371 . S
N557 C560 1.372 . S
N558 C560 1.361 . S
N558 C561 1.377 . S
C559 N556 1.382 . S
C559 N557 1.371 . S
C559 C562 1.480 . S
C560 N557 1.372 . S
C560 N558 1.361 . S
C560 C568 1.457 . S
C561 N556 1.363 . S
C561 N558 1.377 . S
C561 C574 1.479 . S
C562 C559 1.480 . S
C562 C563 1.383 . S
C562 C567 1.385 . S
C563 H544 0.947 . S
C563 C562 1.383 . S
C563 C564 1.388 . S
C564 H545 0.946 . S
C564 C563 1.388 . S
C564 C565 1.384 . S
C565 C564 1.384 . S
C565 C566 1.377 . S
C566 H546 0.953 . S
C566 C565 1.377 . S
C566 C567 1.369 . S
C567 H547 0.945 . S
C567 C562 1.385 . S
C567 C566 1.369 . S
C568 C560 1.457 . S
C568 C569 1.372 . S
C568 C573 1.364 . S
C569 H548 0.952 . S
C569 C568 1.372 . S
C569 C570 1.389 . S
C570 H549 0.949 . S
C570 C569 1.389 . S
C570 C571 1.387 . S
C571 C570 1.387 . S
C571 C572 1.372 . S
C572 H550 0.950 . S
C572 C571 1.372 . S
C572 C573 1.379 . S
C573 H551 0.948 . S
C573 C568 1.364 . S
C573 C572 1.379 . S
C574 C543 1.383 . S
C574 C561 1.479 . S
C574 C575 1.398 . S
C575 C540 1.382 . S
C575 H552 0.951 . S
C575 C574 1.398 . S
C576 C577 1.384 . S
C576 H589 0.947 . S
C576 C611 1.382 . S
C577 C576 1.384 . S
C577 C578 1.378 . S
C578 C577 1.378 . S
C578 C579 1.378 . S
C578 H590 0.952 . S
C579 C578 1.378 . S
C579 H591 0.950 . S
C579 C610 1.383 . S
H580 C599 0.947 . S
H581 C600 0.946 . S
H582 C602 0.953 . S
H583 C603 0.945 . S
H584 C605 0.952 . S
H585 C606 0.949 . S
H586 C608 0.950 . S
H587 C609 0.948 . S
H588 C611 0.951 . S
H589 C576 0.947 . S
H590 C578 0.952 . S
H591 C579 0.950 . S
N592 C595 1.382 . S
N592 C597 1.363 . S
N593 C595 1.371 . S
N593 C596 1.372 . S
N594 C596 1.361 . S
N594 C597 1.377 . S
C595 N592 1.382 . S
C595 N593 1.371 . S
C595 C598 1.480 . S
C596 N593 1.372 . S
C596 N594 1.361 . S
C596 C604 1.457 . S
C597 N592 1.363 . S
C597 N594 1.377 . S
C597 C610 1.479 . S
C598 C595 1.480 . S
C598 C599 1.383 . S
C598 C603 1.385 . S
C599 H580 0.947 . S
C599 C598 1.383 . S
C599 C600 1.388 . S
C600 H581 0.946 . S
C600 C599 1.388 . S
C600 C601 1.384 . S
C601 C600 1.384 . S
C601 C602 1.377 . S
C602 H582 0.953 . S
C602 C601 1.377 . S
C602 C603 1.369 . S
C603 H583 0.945 . S
C603 C598 1.385 . S
C603 C602 1.369 . S
C604 C596 1.457 . S
C604 C605 1.372 . S
C604 C609 1.364 . S
C605 H584 0.952 . S
C605 C604 1.372 . S
C605 C606 1.389 . S
C606 H585 0.949 . S
C606 C605 1.389 . S
C606 C607 1.387 . S
C607 C606 1.387 . S
C607 C608 1.372 . S
C608 H586 0.950 . S
C608 C607 1.372 . S
C608 C609 1.379 . S
C609 H587 0.948 . S
C609 C604 1.364 . S
C609 C608 1.379 . S
C610 C579 1.383 . S
C610 C597 1.479 . S
C610 C611 1.398 . S
C611 C576 1.382 . S
C611 H588 0.951 . S
C611 C610 1.398 . S
C612 C613 1.384 . S
C612 H625 0.947 . S
C612 C647 1.382 . S
C613 C612 1.384 . S
C613 C614 1.378 . S
C614 C613 1.378 . S
C614 C615 1.378 . S
C614 H626 0.952 . S
C615 C614 1.378 . S
C615 H627 0.950 . S
C615 C646 1.383 . S
H616 C635 0.947 . S
H617 C636 0.946 . S
H618 C638 0.953 . S
H619 C639 0.945 . S
H620 C641 0.952 . S
H621 C642 0.949 . S
H622 C644 0.950 . S
H623 C645 0.948 . S
H624 C647 0.951 . S
H625 C612 0.947 . S
H626 C614 0.952 . S
H627 C615 0.950 . S
N628 C631 1.382 . S
N628 C633 1.363 . S
N629 C631 1.371 . S
N629 C632 1.372 . S
N630 C632 1.361 . S
N630 C633 1.377 . S
C631 N628 1.382 . S
C631 N629 1.371 . S
C631 C634 1.480 . S
C632 N629 1.372 . S
C632 N630 1.361 . S
C632 C640 1.457 . S
C633 N628 1.363 . S
C633 N630 1.377 . S
C633 C646 1.479 . S
C634 C631 1.480 . S
C634 C635 1.383 . S
C634 C639 1.385 . S
C635 H616 0.947 . S
C635 C634 1.383 . S
C635 C636 1.388 . S
C636 H617 0.946 . S
C636 C635 1.388 . S
C636 C637 1.384 . S
C637 C636 1.384 . S
C637 C638 1.377 . S
C638 H618 0.953 . S
C638 C637 1.377 . S
C638 C639 1.369 . S
C639 H619 0.945 . S
C639 C634 1.385 . S
C639 C638 1.369 . S
C640 C632 1.457 . S
C640 C641 1.372 . S
C640 C645 1.364 . S
C641 H620 0.952 . S
C641 C640 1.372 . S
C641 C642 1.389 . S
C642 H621 0.949 . S
C642 C641 1.389 . S
C642 C643 1.387 . S
C643 C642 1.387 . S
C643 C644 1.372 . S
C644 H622 0.950 . S
C644 C643 1.372 . S
C644 C645 1.379 . S
C645 H623 0.948 . S
C645 C640 1.364 . S
C645 C644 1.379 . S
C646 C615 1.383 . S
C646 C633 1.479 . S
C646 C647 1.398 . S
C647 C612 1.382 . S
C647 H624 0.951 . S
C647 C646 1.398 . S
C648 C649 1.384 . S
C648 H661 0.947 . S
C648 C683 1.382 . S
C649 C648 1.384 . S
C649 C650 1.378 . S
C650 C649 1.378 . S
C650 C651 1.378 . S
C650 H662 0.952 . S
C651 C650 1.378 . S
C651 H663 0.950 . S
C651 C682 1.383 . S
H652 C671 0.947 . S
H653 C672 0.946 . S
H654 C674 0.953 . S
H655 C675 0.945 . S
H656 C677 0.952 . S
H657 C678 0.949 . S
H658 C680 0.950 . S
H659 C681 0.948 . S
H660 C683 0.951 . S
H661 C648 0.947 . S
H662 C650 0.952 . S
H663 C651 0.950 . S
N664 C667 1.382 . S
N664 C669 1.363 . S
N665 C667 1.371 . S
N665 C668 1.372 . S
N666 C668 1.361 . S
N666 C669 1.377 . S
C667 N664 1.382 . S
C667 N665 1.371 . S
C667 C670 1.480 . S
C668 N665 1.372 . S
C668 N666 1.361 . S
C668 C676 1.457 . S
C669 N664 1.363 . S
C669 N666 1.377 . S
C669 C682 1.479 . S
C670 C667 1.480 . S
C670 C671 1.383 . S
C670 C675 1.385 . S
C671 H652 0.947 . S
C671 C670 1.383 . S
C671 C672 1.388 . S
C672 H653 0.946 . S
C672 C671 1.388 . S
C672 C673 1.384 . S
C673 C672 1.384 . S
C673 C674 1.377 . S
C674 H654 0.953 . S
C674 C673 1.377 . S
C674 C675 1.369 . S
C675 H655 0.945 . S
C675 C670 1.385 . S
C675 C674 1.369 . S
C676 C668 1.457 . S
C676 C677 1.372 . S
C676 C681 1.364 . S
C677 H656 0.952 . S
C677 C676 1.372 . S
C677 C678 1.389 . S
C678 H657 0.949 . S
C678 C677 1.389 . S
C678 C679 1.387 . S
C679 C678 1.387 . S
C679 C680 1.372 . S
C680 H658 0.950 . S
C680 C679 1.372 . S
C680 C681 1.379 . S
C681 H659 0.948 . S
C681 C676 1.364 . S
C681 C680 1.379 . S
C682 C651 1.383 . S
C682 C669 1.479 . S
C682 C683 1.398 . S
C683 C648 1.382 . S
C683 H660 0.951 . S
C683 C682 1.398 . S
C684 C685 1.384 . S
C684 H697 0.947 . S
C684 C719 1.382 . S
C685 C684 1.384 . S
C685 C686 1.378 . S
C686 C685 1.378 . S
C686 C687 1.378 . S
C686 H698 0.952 . S
C687 C686 1.378 . S
C687 H699 0.950 . S
C687 C718 1.383 . S
H688 C707 0.947 . S
H689 C708 0.946 . S
H690 C710 0.953 . S
H691 C711 0.945 . S
H692 C713 0.952 . S
H693 C714 0.949 . S
H694 C716 0.950 . S
H695 C717 0.948 . S
H696 C719 0.951 . S
H697 C684 0.947 . S
H698 C686 0.952 . S
H699 C687 0.950 . S
N700 C703 1.382 . S
N700 C705 1.363 . S
N701 C703 1.371 . S
N701 C704 1.372 . S
N702 C704 1.361 . S
N702 C705 1.377 . S
C703 N700 1.382 . S
C703 N701 1.371 . S
C703 C706 1.480 . S
C704 N701 1.372 . S
C704 N702 1.361 . S
C704 C712 1.457 . S
C705 N700 1.363 . S
C705 N702 1.377 . S
C705 C718 1.479 . S
C706 C703 1.480 . S
C706 C707 1.383 . S
C706 C711 1.385 . S
C707 H688 0.947 . S
C707 C706 1.383 . S
C707 C708 1.388 . S
C708 H689 0.946 . S
C708 C707 1.388 . S
C708 C709 1.384 . S
C709 C708 1.384 . S
C709 C710 1.377 . S
C710 H690 0.953 . S
C710 C709 1.377 . S
C710 C711 1.369 . S
C711 H691 0.945 . S
C711 C706 1.385 . S
C711 C710 1.369 . S
C712 C704 1.457 . S
C712 C713 1.372 . S
C712 C717 1.364 . S
C713 H692 0.952 . S
C713 C712 1.372 . S
C713 C714 1.389 . S
C714 H693 0.949 . S
C714 C713 1.389 . S
C714 C715 1.387 . S
C715 C714 1.387 . S
C715 C716 1.372 . S
C716 H694 0.950 . S
C716 C715 1.372 . S
C716 C717 1.379 . S
C717 H695 0.948 . S
C717 C712 1.364 . S
C717 C716 1.379 . S
C718 C687 1.383 . S
C718 C705 1.479 . S
C718 C719 1.398 . S
C719 C684 1.382 . S
C719 H696 0.951 . S
C719 C718 1.398 . S
C720 C721 1.384 . S
C720 H733 0.947 . S
C720 C755 1.382 . S
C721 C720 1.384 . S
C721 C722 1.378 . S
C722 C721 1.378 . S
C722 C723 1.378 . S
C722 H734 0.952 . S
C723 C722 1.378 . S
C723 H735 0.950 . S
C723 C754 1.383 . S
H724 C743 0.947 . S
H725 C744 0.946 . S
H726 C746 0.953 . S
H727 C747 0.945 . S
H728 C749 0.952 . S
H729 C750 0.949 . S
H730 C752 0.950 . S
H731 C753 0.948 . S
H732 C755 0.951 . S
H733 C720 0.947 . S
H734 C722 0.952 . S
H735 C723 0.950 . S
N736 C739 1.382 . S
N736 C741 1.363 . S
N737 C739 1.371 . S
N737 C740 1.372 . S
N738 C740 1.361 . S
N738 C741 1.377 . S
C739 N736 1.382 . S
C739 N737 1.371 . S
C739 C742 1.480 . S
C740 N737 1.372 . S
C740 N738 1.361 . S
C740 C748 1.457 . S
C741 N736 1.363 . S
C741 N738 1.377 . S
C741 C754 1.479 . S
C742 C739 1.480 . S
C742 C743 1.383 . S
C742 C747 1.385 . S
C743 H724 0.947 . S
C743 C742 1.383 . S
C743 C744 1.388 . S
C744 H725 0.946 . S
C744 C743 1.388 . S
C744 C745 1.384 . S
C745 C744 1.384 . S
C745 C746 1.377 . S
C746 H726 0.953 . S
C746 C745 1.377 . S
C746 C747 1.369 . S
C747 H727 0.945 . S
C747 C742 1.385 . S
C747 C746 1.369 . S
C748 C740 1.457 . S
C748 C749 1.372 . S
C748 C753 1.364 . S
C749 H728 0.952 . S
C749 C748 1.372 . S
C749 C750 1.389 . S
C750 H729 0.949 . S
C750 C749 1.389 . S
C750 C751 1.387 . S
C751 C750 1.387 . S
C751 C752 1.372 . S
C752 H730 0.950 . S
C752 C751 1.372 . S
C752 C753 1.379 . S
C753 H731 0.948 . S
C753 C748 1.364 . S
C753 C752 1.379 . S
C754 C723 1.383 . S
C754 C741 1.479 . S
C754 C755 1.398 . S
C755 C720 1.382 . S
C755 H732 0.951 . S
C755 C754 1.398 . S
C756 C757 1.384 . S
C756 H769 0.947 . S
C756 C791 1.382 . S
C757 C756 1.384 . S
C757 C758 1.378 . S
C758 C757 1.378 . S
C758 C759 1.378 . S
C758 H770 0.952 . S
C759 C758 1.378 . S
C759 H771 0.950 . S
C759 C790 1.383 . S
H760 C779 0.947 . S
H761 C780 0.946 . S
H762 C782 0.953 . S
H763 C783 0.945 . S
H764 C785 0.952 . S
H765 C786 0.949 . S
H766 C788 0.950 . S
H767 C789 0.948 . S
H768 C791 0.951 . S
H769 C756 0.947 . S
H770 C758 0.952 . S
H771 C759 0.950 . S
N772 C775 1.382 . S
N772 C777 1.363 . S
N773 C775 1.371 . S
N773 C776 1.372 . S
N774 C776 1.361 . S
N774 C777 1.377 . S
C775 N772 1.382 . S
C775 N773 1.371 . S
C775 C778 1.480 . S
C776 N773 1.372 . S
C776 N774 1.361 . S
C776 C784 1.457 . S
C777 N772 1.363 . S
C777 N774 1.377 . S
C777 C790 1.479 . S
C778 C775 1.480 . S
C778 C779 1.383 . S
C778 C783 1.385 . S
C779 H760 0.947 . S
C779 C778 1.383 . S
C779 C780 1.388 . S
C780 H761 0.946 . S
C780 C779 1.388 . S
C780 C781 1.384 . S
C781 C780 1.384 . S
C781 C782 1.377 . S
C782 H762 0.953 . S
C782 C781 1.377 . S
C782 C783 1.369 . S
C783 H763 0.945 . S
C783 C778 1.385 . S
C783 C782 1.369 . S
C784 C776 1.457 . S
C784 C785 1.372 . S
C784 C789 1.364 . S
C785 H764 0.952 . S
C785 C784 1.372 . S
C785 C786 1.389 . S
C786 H765 0.949 . S
C786 C785 1.389 . S
C786 C787 1.387 . S
C787 C786 1.387 . S
C787 C788 1.372 . S
C788 H766 0.950 . S
C788 C787 1.372 . S
C788 C789 1.379 . S
C789 H767 0.948 . S
C789 C784 1.364 . S
C789 C788 1.379 . S
C790 C759 1.383 . S
C790 C777 1.479 . S
C790 C791 1.398 . S
C791 C756 1.382 . S
C791 H768 0.951 . S
C791 C790 1.398 . S
C792 C793 1.384 . S
C792 H805 0.947 . S
C792 C827 1.382 . S
C793 C792 1.384 . S
C793 C794 1.378 . S
C794 C793 1.378 . S
C794 C795 1.378 . S
C794 H806 0.952 . S
C795 C794 1.378 . S
C795 H807 0.950 . S
C795 C826 1.383 . S
H796 C815 0.947 . S
H797 C816 0.946 . S
H798 C818 0.953 . S
H799 C819 0.945 . S
H800 C821 0.952 . S
H801 C822 0.949 . S
H802 C824 0.950 . S
H803 C825 0.948 . S
H804 C827 0.951 . S
H805 C792 0.947 . S
H806 C794 0.952 . S
H807 C795 0.950 . S
N808 C811 1.382 . S
N808 C813 1.363 . S
N809 C811 1.371 . S
N809 C812 1.372 . S
N810 C812 1.361 . S
N810 C813 1.377 . S
C811 N808 1.382 . S
C811 N809 1.371 . S
C811 C814 1.480 . S
C812 N809 1.372 . S
C812 N810 1.361 . S
C812 C820 1.457 . S
C813 N808 1.363 . S
C813 N810 1.377 . S
C813 C826 1.479 . S
C814 C811 1.480 . S
C814 C815 1.383 . S
C814 C819 1.385 . S
C815 H796 0.947 . S
C815 C814 1.383 . S
C815 C816 1.388 . S
C816 H797 0.946 . S
C816 C815 1.388 . S
C816 C817 1.384 . S
C817 C816 1.384 . S
C817 C818 1.377 . S
C818 H798 0.953 . S
C818 C817 1.377 . S
C818 C819 1.369 . S
C819 H799 0.945 . S
C819 C814 1.385 . S
C819 C818 1.369 . S
C820 C812 1.457 . S
C820 C821 1.372 . S
C820 C825 1.364 . S
C821 H800 0.952 . S
C821 C820 1.372 . S
C821 C822 1.389 . S
C822 H801 0.949 . S
C822 C821 1.389 . S
C822 C823 1.387 . S
C823 C822 1.387 . S
C823 C824 1.372 . S
C824 H802 0.950 . S
C824 C823 1.372 . S
C824 C825 1.379 . S
C825 H803 0.948 . S
C825 C820 1.364 . S
C825 C824 1.379 . S
C826 C795 1.383 . S
C826 C813 1.479 . S
C826 C827 1.398 . S
C827 C792 1.382 . S
C827 H804 0.951 . S
C827 C826 1.398 . S
C828 C829 1.384 . S
C828 H841 0.947 . S
C828 C863 1.382 . S
C829 C828 1.384 . S
C829 C830 1.378 . S
C830 C829 1.378 . S
C830 C831 1.378 . S
C830 H842 0.952 . S
C831 C830 1.378 . S
C831 H843 0.950 . S
C831 C862 1.383 . S
H832 C851 0.947 . S
H833 C852 0.946 . S
H834 C854 0.953 . S
H835 C855 0.945 . S
H836 C857 0.952 . S
H837 C858 0.949 . S
H838 C860 0.950 . S
H839 C861 0.948 . S
H840 C863 0.951 . S
H841 C828 0.947 . S
H842 C830 0.952 . S
H843 C831 0.950 . S
N844 C847 1.382 . S
N844 C849 1.363 . S
N845 C847 1.371 . S
N845 C848 1.372 . S
N846 C848 1.361 . S
N846 C849 1.377 . S
C847 N844 1.382 . S
C847 N845 1.371 . S
C847 C850 1.480 . S
C848 N845 1.372 . S
C848 N846 1.361 . S
C848 C856 1.457 . S
C849 N844 1.363 . S
C849 N846 1.377 . S
C849 C862 1.479 . S
C850 C847 1.480 . S
C850 C851 1.383 . S
C850 C855 1.385 . S
C851 H832 0.947 . S
C851 C850 1.383 . S
C851 C852 1.388 . S
C852 H833 0.946 . S
C852 C851 1.388 . S
C852 C853 1.384 . S
C853 C852 1.384 . S
C853 C854 1.377 . S
C854 H834 0.953 . S
C854 C853 1.377 . S
C854 C855 1.369 . S
C855 H835 0.945 . S
C855 C850 1.385 . S
C855 C854 1.369 . S
C856 C848 1.457 . S
C856 C857 1.372 . S
C856 C861 1.364 . S
C857 H836 0.952 . S
C857 C856 1.372 . S
C857 C858 1.389 . S
C858 H837 0.949 . S
C858 C857 1.389 . S
C858 C859 1.387 . S
C859 C858 1.387 . S
C859 C860 1.372 . S
C860 H838 0.950 . S
C860 C859 1.372 . S
C860 C861 1.379 . S
C861 H839 0.948 . S
C861 C856 1.364 . S
C861 C860 1.379 . S
C862 C831 1.383 . S
C862 C849 1.479 . S
C862 C863 1.398 . S
C863 C828 1.382 . S
C863 H840 0.951 . S
C863 C862 1.398 . S
Zn864 O866 1.933 1_665 S
Zn864 O884 1.985 1_565 S
Zn864 O895 1.955 1_655 S
Zn865 O866 1.911 1_655 S
Zn865 O885 1.970 . S
Zn865 O901 1.945 1_655 S
Zn865 O908 1.981 . S
O866 Zn864 1.933 1_445 S
O866 Zn865 1.911 1_455 S
O866 H867 0.841 . S
H867 O866 0.841 . S
C868 O869 1.246 . S
C868 O897 1.276 . S
O869 C868 1.246 . S
Zn870 O872 1.911 . S
Zn870 O887 1.970 . S
Zn870 O904 1.945 . S
Zn870 O911 1.981 . S
Zn871 O872 1.933 1_565 S
Zn871 O886 1.985 1_565 S
Zn871 O893 1.955 . S
O872 Zn870 1.911 . S
O872 Zn871 1.933 1_545 S
O872 H873 0.841 . S
H873 O872 0.841 . S
Zn874 O875 1.933 1_565 S
Zn874 O888 1.985 1_565 S
Zn874 O897 1.955 . S
O875 Zn874 1.933 1_545 S
O875 Zn876 1.911 . S
O875 H877 0.841 . S
Zn876 O875 1.911 . S
Zn876 O889 1.970 . S
Zn876 O905 1.981 1_655 S
Zn876 O907 1.945 . S
H877 O875 0.841 . S
Zn878 O879 1.933 1_565 S
Zn878 O891 1.985 1_565 S
Zn878 O899 1.955 . S
O879 Zn878 1.933 1_545 S
O879 H880 0.841 . S
O879 Zn881 1.911 . S
H880 O879 0.841 . S
Zn881 O879 1.911 . S
Zn881 O892 1.970 . S
Zn881 O902 1.981 . S
Zn881 O910 1.945 . S
C882 O883 1.246 . S
C882 O899 1.276 . S
O883 C882 1.246 . S
O884 Zn864 1.985 1_545 S
O884 C894 1.245 . S
O885 Zn865 1.970 . S
O885 C894 1.263 . S
O886 Zn871 1.985 1_545 S
O886 C898 1.245 . S
O887 Zn870 1.970 . S
O887 C898 1.263 . S
O888 Zn874 1.985 1_545 S
O888 C903 1.245 . S
O889 Zn876 1.970 . S
O889 C903 1.263 . S
C890 O901 1.262 . S
C890 O902 1.245 . S
O891 Zn878 1.985 1_545 S
O891 C909 1.245 . S
O892 Zn881 1.970 . S
O892 C909 1.263 . S
O893 Zn871 1.955 . S
O893 C912 1.276 . S
C894 O884 1.245 . S
C894 O885 1.263 . S
O895 Zn864 1.955 1_455 S
O895 C914 1.276 . S
C896 O904 1.262 . S
C896 O905 1.245 . S
O897 C868 1.276 . S
O897 Zn874 1.955 . S
C898 O886 1.245 . S
C898 O887 1.263 . S
O899 Zn878 1.955 . S
O899 C882 1.276 . S
C900 O907 1.262 . S
C900 O908 1.245 . S
O901 Zn865 1.945 1_455 S
O901 C890 1.262 . S
O902 Zn881 1.981 . S
O902 C890 1.245 . S
C903 O888 1.245 . S
C903 O889 1.263 . S
O904 Zn870 1.945 . S
O904 C896 1.262 . S
O905 Zn876 1.981 1_455 S
O905 C896 1.245 . S
C906 O910 1.262 . S
C906 O911 1.245 . S
O907 Zn876 1.945 . S
O907 C900 1.262 . S
O908 Zn865 1.981 . S
O908 C900 1.245 . S
C909 O891 1.245 . S
C909 O892 1.263 . S
O910 Zn881 1.945 . S
O910 C906 1.262 . S
O911 Zn870 1.981 . S
O911 C906 1.245 . S
C912 O893 1.276 . S
C912 O913 1.246 . S
O913 C912 1.246 . S
C914 O895 1.276 . S
C914 O915 1.246 . S
O915 C914 1.246 . S
Zn916 O918 1.933 . S
Zn916 O936 1.985 . S
Zn916 O947 1.955 . S
Zn917 O918 1.911 1_556 S
Zn917 O937 1.970 . S
Zn917 O953 1.945 . S
Zn917 O960 1.981 . S
O918 Zn916 1.933 . S
O918 Zn917 1.911 1_554 S
O918 H919 0.841 . S
H919 O918 0.841 . S
C920 O921 1.246 . S
C920 O949 1.276 . S
O921 C920 1.246 . S
Zn922 O924 1.911 1_566 S
Zn922 O939 1.970 . S
Zn922 O956 1.945 1_565 S
Zn922 O963 1.981 . S
Zn923 O924 1.933 1_565 S
Zn923 O938 1.985 . S
Zn923 O945 1.955 1_565 S
O924 Zn922 1.911 1_544 S
O924 Zn923 1.933 1_545 S
O924 H925 0.841 . S
H925 O924 0.841 . S
Zn926 O927 1.933 . S
Zn926 O940 1.985 . S
Zn926 O949 1.955 . S
O927 Zn926 1.933 . S
O927 Zn928 1.911 1_554 S
O927 H929 0.841 . S
Zn928 O927 1.911 1_556 S
Zn928 O941 1.970 . S
Zn928 O957 1.981 . S
Zn928 O959 1.945 . S
H929 O927 0.841 . S
Zn930 O931 1.933 . S
Zn930 O943 1.985 . S
Zn930 O951 1.955 . S
O931 Zn930 1.933 . S
O931 H932 0.841 . S
O931 Zn933 1.911 1_554 S
H932 O931 0.841 . S
Zn933 O931 1.911 1_556 S
Zn933 O944 1.970 . S
Zn933 O954 1.981 1_565 S
Zn933 O962 1.945 . S
C934 O935 1.246 . S
C934 O951 1.276 . S
O935 C934 1.246 . S
O936 Zn916 1.985 . S
O936 C946 1.245 . S
O937 Zn917 1.970 . S
O937 C946 1.263 1_556 S
O938 Zn923 1.985 . S
O938 C950 1.245 . S
O939 Zn922 1.970 . S
O939 C950 1.263 1_556 S
O940 Zn926 1.985 . S
O940 C955 1.245 . S
O941 Zn928 1.970 . S
O941 C955 1.263 1_556 S
C942 O953 1.262 . S
C942 O954 1.245 . S
O943 Zn930 1.985 . S
O943 C961 1.245 . S
O944 Zn933 1.970 . S
O944 C961 1.263 1_556 S
O945 Zn923 1.955 1_545 S
O945 C964 1.276 . S
C946 O936 1.245 . S
C946 O937 1.263 1_554 S
O947 Zn916 1.955 . S
O947 C966 1.276 . S
C948 O956 1.262 . S
C948 O957 1.245 . S
O949 C920 1.276 . S
O949 Zn926 1.955 . S
C950 O938 1.245 . S
C950 O939 1.263 1_554 S
O951 Zn930 1.955 . S
O951 C934 1.276 . S
C952 O959 1.262 . S
C952 O960 1.245 . S
O953 Zn917 1.945 . S
O953 C942 1.262 . S
O954 Zn933 1.981 1_545 S
O954 C942 1.245 . S
C955 O940 1.245 . S
C955 O941 1.263 1_554 S
O956 Zn922 1.945 1_545 S
O956 C948 1.262 . S
O957 Zn928 1.981 . S
O957 C948 1.245 . S
C958 O962 1.262 . S
C958 O963 1.245 . S
O959 Zn928 1.945 . S
O959 C952 1.262 . S
O960 Zn917 1.981 . S
O960 C952 1.245 . S
C961 O943 1.245 . S
C961 O944 1.263 1_554 S
O962 Zn933 1.945 . S
O962 C958 1.262 . S
O963 Zn922 1.981 . S
O963 C958 1.245 . S
C964 O945 1.276 . S
C964 O965 1.246 . S
O965 C964 1.246 . S
C966 O947 1.276 . S
C966 O967 1.246 . S
O967 C966 1.246 . S
Zn968 O970 1.933 1_655 S
Zn968 O988 1.985 . S
Zn968 O999 1.955 1_655 S
Zn969 O970 1.911 1_655 S
Zn969 O989 1.970 . S
Zn969 O1005 1.933 1_655 S
Zn969 O1012 1.977 . S
O970 Zn968 1.933 1_455 S
O970 Zn969 1.911 1_455 S
O970 H971 0.841 . S
H971 O970 0.841 . S
C972 O973 1.246 1_554 S
C972 O1001 1.276 . S
O973 C972 1.246 1_556 S
Zn974 O976 1.911 . S
Zn974 O991 1.970 . S
Zn974 O1008 1.945 . S
Zn974 O1015 1.981 . S
Zn975 O976 1.933 . S
Zn975 O990 1.985 . S
Zn975 O997 1.955 . S
O976 Zn974 1.911 . S
O976 Zn975 1.933 . S
O976 H977 0.841 . S
H977 O976 0.841 . S
Zn978 O979 1.933 . S
Zn978 O992 1.985 . S
Zn978 O1001 1.955 . S
O979 Zn978 1.933 . S
O979 Zn980 1.911 . S
O979 H981 0.841 . S
Zn980 O979 1.911 . S
Zn980 O993 1.970 . S
Zn980 O1009 1.981 1_655 S
Zn980 O1011 1.945 . S
H981 O979 0.841 . S
Zn982 O983 1.933 . S
Zn982 O995 1.985 . S
Zn982 O1003 1.955 . S
O983 Zn982 1.933 . S
O983 H984 0.841 1_556 S
O983 Zn985 1.911 . S
H984 O983 0.841 1_554 S
Zn985 O983 1.911 . S
Zn985 O996 1.970 . S
Zn985 O1006 1.981 . S
Zn985 O1014 1.945 . S
C986 O987 1.246 . S
C986 O1003 1.276 1_554 S
O987 C986 1.246 . S
O988 Zn968 1.985 . S
O988 C998 1.245 . S
O989 Zn969 1.970 . S
O989 C998 1.263 . S
O990 Zn975 1.985 . S
O990 C1002 1.245 . S
O991 Zn974 1.970 . S
O991 C1002 1.263 . S
O992 Zn978 1.985 . S
O992 C1007 1.245 . S
O993 Zn980 1.970 . S
O993 C1007 1.263 . S
C994 O1005 1.300 . S
C994 O1006 1.245 . S
O995 Zn982 1.985 . S
O995 C1013 1.245 . S
O996 Zn985 1.970 . S
O996 C1013 1.263 . S
O997 Zn975 1.955 . S
O997 C1016 1.276 . S
C998 O988 1.245 . S
C998 O989 1.263 . S
O999 Zn968 1.955 1_455 S
O999 C1018 1.276 . S
C1000 O1008 1.262 . S
C1000 O1009 1.245 . S
O1001 C972 1.276 . S
O1001 Zn978 1.955 . S
C1002 O990 1.245 . S
C1002 O991 1.263 . S
O1003 Zn982 1.955 . S
O1003 C986 1.276 1_556 S
C1004 O1011 1.262 . S
C1004 O1012 1.248 1_554 S
O1005 Zn969 1.933 1_455 S
O1005 C994 1.300 . S
O1006 Zn985 1.981 . S
O1006 C994 1.245 . S
C1007 O992 1.245 . S
C1007 O993 1.263 . S
O1008 Zn974 1.945 . S
O1008 C1000 1.262 . S
O1009 Zn980 1.981 1_455 S
O1009 C1000 1.245 . S
C1010 O1014 1.262 1_554 S
C1010 O1015 1.245 . S
O1011 Zn980 1.945 . S
O1011 C1004 1.262 . S
O1012 Zn969 1.977 . S
O1012 C1004 1.248 1_556 S
C1013 O995 1.245 . S
C1013 O996 1.263 . S
O1014 Zn985 1.945 . S
O1014 C1010 1.262 1_556 S
O1015 Zn974 1.981 . S
O1015 C1010 1.245 . S
C1016 O997 1.276 . S
C1016 O1017 1.246 . S
O1017 C1016 1.246 . S
C1018 O999 1.276 . S
C1018 O1019 1.246 . S
O1019 C1018 1.246 . S
Zn1020 O1022 1.933 1_556 S
Zn1020 O1040 1.985 . S
Zn1020 O1051 1.955 . S
Zn1021 O1022 1.911 . S
Zn1021 O1041 1.970 . S
Zn1021 O1057 1.945 . S
Zn1021 O1064 1.981 . S
O1022 Zn1020 1.933 1_554 S
O1022 Zn1021 1.911 . S
O1022 H1023 0.841 . S
H1023 O1022 0.841 . S
C1024 O1025 1.246 . S
C1024 O1053 1.276 . S
O1025 C1024 1.246 . S
Zn1026 O1028 1.911 . S
Zn1026 O1043 1.970 . S
Zn1026 O1060 1.945 . S
Zn1026 O1067 1.981 . S
Zn1027 O1028 1.933 1_556 S
Zn1027 O1042 1.985 . S
Zn1027 O1049 1.955 . S
O1028 Zn1026 1.911 . S
O1028 Zn1027 1.933 1_554 S
O1028 H1029 0.841 . S
H1029 O1028 0.841 . S
Zn1030 O1031 1.933 1_556 S
Zn1030 O1044 1.985 . S
Zn1030 O1053 1.955 . S
O1031 Zn1030 1.933 1_554 S
O1031 Zn1032 1.911 . S
O1031 H1033 0.841 . S
Zn1032 O1031 1.911 . S
Zn1032 O1045 1.970 . S
Zn1032 O1061 1.981 . S
Zn1032 O1063 1.945 . S
H1033 O1031 0.841 . S
Zn1034 O1035 1.933 1_556 S
Zn1034 O1047 1.985 . S
Zn1034 O1055 1.955 . S
O1035 Zn1034 1.933 1_554 S
O1035 H1036 0.841 . S
O1035 Zn1037 1.911 . S
H1036 O1035 0.841 . S
Zn1037 O1035 1.911 . S
Zn1037 O1048 1.970 . S
Zn1037 O1058 1.981 . S
Zn1037 O1066 1.945 . S
C1038 O1039 1.246 . S
C1038 O1055 1.276 . S
O1039 C1038 1.246 . S
O1040 Zn1020 1.985 . S
O1040 C1050 1.245 1_556 S
O1041 Zn1021 1.970 . S
O1041 C1050 1.263 . S
O1042 Zn1027 1.985 . S
O1042 C1054 1.245 1_556 S
O1043 Zn1026 1.970 . S
O1043 C1054 1.263 . S
O1044 Zn1030 1.985 . S
O1044 C1059 1.245 1_556 S
O1045 Zn1032 1.970 . S
O1045 C1059 1.263 . S
C1046 O1057 1.262 . S
C1046 O1058 1.245 . S
O1047 Zn1034 1.985 . S
O1047 C1065 1.245 1_556 S
O1048 Zn1037 1.970 . S
O1048 C1065 1.263 . S
O1049 Zn1027 1.955 . S
O1049 C1068 1.276 . S
C1050 O1040 1.245 1_554 S
C1050 O1041 1.263 . S
O1051 Zn1020 1.955 . S
O1051 C1070 1.276 . S
C1052 O1060 1.262 . S
C1052 O1061 1.245 . S
O1053 C1024 1.276 . S
O1053 Zn1030 1.955 . S
C1054 O1042 1.245 1_554 S
C1054 O1043 1.263 . S
O1055 Zn1034 1.955 . S
O1055 C1038 1.276 . S
C1056 O1063 1.262 . S
C1056 O1064 1.245 . S
O1057 Zn1021 1.945 . S
O1057 C1046 1.262 . S
O1058 Zn1037 1.981 . S
O1058 C1046 1.245 . S
C1059 O1044 1.245 1_554 S
C1059 O1045 1.263 . S
O1060 Zn1026 1.945 . S
O1060 C1052 1.262 . S
O1061 Zn1032 1.981 . S
O1061 C1052 1.245 . S
C1062 O1066 1.262 . S
C1062 O1067 1.245 . S
O1063 Zn1032 1.945 . S
O1063 C1056 1.262 . S
O1064 Zn1021 1.981 . S
O1064 C1056 1.245 . S
C1065 O1047 1.245 1_554 S
C1065 O1048 1.263 . S
O1066 Zn1037 1.945 . S
O1066 C1062 1.262 . S
O1067 Zn1026 1.981 . S
O1067 C1062 1.245 . S
C1068 O1049 1.276 . S
C1068 O1069 1.246 . S
O1069 C1068 1.246 . S
C1070 O1051 1.276 . S
C1070 O1071 1.246 . S
O1071 C1070 1.246 . S
Zn1072 O1074 1.933 1_655 S
Zn1072 O1092 1.985 . S
Zn1072 O1103 1.955 1_655 S
Zn1073 O1074 1.911 1_655 S
Zn1073 O1093 1.970 . S
Zn1073 O1109 1.945 1_655 S
Zn1073 O1116 1.981 . S
O1074 Zn1072 1.933 1_455 S
O1074 Zn1073 1.911 1_455 S
O1074 H1075 0.841 . S
H1075 O1074 0.841 . S
C1076 O1077 1.246 . S
C1076 O1105 1.276 . S
O1077 C1076 1.246 . S
Zn1078 O1080 1.911 . S
Zn1078 O1095 1.970 . S
Zn1078 O1112 1.945 . S
Zn1078 O1119 1.981 . S
Zn1079 O1080 1.933 . S
Zn1079 O1094 1.985 . S
Zn1079 O1101 1.955 . S
O1080 Zn1078 1.911 . S
O1080 Zn1079 1.933 . S
O1080 H1081 0.841 . S
H1081 O1080 0.841 . S
Zn1082 O1083 1.933 . S
Zn1082 O1096 1.985 . S
Zn1082 O1105 1.955 . S
O1083 Zn1082 1.933 . S
O1083 Zn1084 1.911 . S
O1083 H1085 0.841 . S
Zn1084 O1083 1.911 . S
Zn1084 O1097 1.970 . S
Zn1084 O1113 1.981 1_655 S
Zn1084 O1115 1.945 . S
H1085 O1083 0.841 . S
Zn1086 O1087 1.933 . S
Zn1086 O1099 1.985 . S
Zn1086 O1107 1.955 . S
O1087 Zn1086 1.933 . S
O1087 H1088 0.841 . S
O1087 Zn1089 1.911 . S
H1088 O1087 0.841 . S
Zn1089 O1087 1.911 . S
Zn1089 O1100 1.970 . S
Zn1089 O1110 1.981 . S
Zn1089 O1118 1.945 . S
C1090 O1091 1.246 . S
C1090 O1107 1.276 . S
O1091 C1090 1.246 . S
O1092 Zn1072 1.985 . S
O1092 C1102 1.245 . S
O1093 Zn1073 1.970 . S
O1093 C1102 1.263 . S
O1094 Zn1079 1.985 . S
O1094 C1106 1.245 . S
O1095 Zn1078 1.970 . S
O1095 C1106 1.263 . S
O1096 Zn1082 1.985 . S
O1096 C1111 1.245 . S
O1097 Zn1084 1.970 . S
O1097 C1111 1.263 . S
C1098 O1109 1.262 . S
C1098 O1110 1.245 . S
O1099 Zn1086 1.985 . S
O1099 C1117 1.245 . S
O1100 Zn1089 1.970 . S
O1100 C1117 1.263 . S
O1101 Zn1079 1.955 . S
O1101 C1120 1.276 . S
C1102 O1092 1.245 . S
C1102 O1093 1.263 . S
O1103 Zn1072 1.955 1_455 S
O1103 C1122 1.276 . S
C1104 O1112 1.262 . S
C1104 O1113 1.245 . S
O1105 C1076 1.276 . S
O1105 Zn1082 1.955 . S
C1106 O1094 1.245 . S
C1106 O1095 1.263 . S
O1107 Zn1086 1.955 . S
O1107 C1090 1.276 . S
C1108 O1115 1.262 . S
C1108 O1116 1.245 . S
O1109 Zn1073 1.945 1_455 S
O1109 C1098 1.262 . S
O1110 Zn1089 1.981 . S
O1110 C1098 1.245 . S
C1111 O1096 1.245 . S
C1111 O1097 1.263 . S
O1112 Zn1078 1.945 . S
O1112 C1104 1.262 . S
O1113 Zn1084 1.981 1_455 S
O1113 C1104 1.245 . S
C1114 O1118 1.262 . S
C1114 O1119 1.245 . S
O1115 Zn1084 1.945 . S
O1115 C1108 1.262 . S
O1116 Zn1073 1.981 . S
O1116 C1108 1.245 . S
C1117 O1099 1.245 . S
C1117 O1100 1.263 . S
O1118 Zn1089 1.945 . S
O1118 C1114 1.262 . S
O1119 Zn1078 1.981 . S
O1119 C1114 1.245 . S
C1120 O1101 1.276 . S
C1120 O1121 1.246 . S
O1121 C1120 1.246 . S
C1122 O1103 1.276 . S
C1122 O1123 1.246 . S
O1123 C1122 1.246 . S
Zn1124 O1126 1.933 1_565 S
Zn1124 O1144 1.985 1_565 S
Zn1124 O1155 1.955 . S
Zn1125 O1126 1.911 . S
Zn1125 O1145 1.970 . S
Zn1125 O1161 1.945 . S
Zn1125 O1168 1.981 . S
O1126 Zn1124 1.933 1_545 S
O1126 Zn1125 1.911 . S
O1126 H1127 0.841 . S
H1127 O1126 0.841 . S
C1128 O1129 1.246 . S
C1128 O1157 1.276 . S
O1129 C1128 1.246 . S
Zn1130 O1132 1.911 . S
Zn1130 O1147 1.970 . S
Zn1130 O1164 1.945 . S
Zn1130 O1171 1.981 . S
Zn1131 O1132 1.898 1_565 S
Zn1131 O1146 1.974 1_565 S
Zn1131 O1153 1.996 . S
O1132 Zn1130 1.911 . S
O1132 Zn1131 1.898 1_545 S
O1132 H1133 0.841 . S
H1133 O1132 0.841 . S
Zn1134 O1135 1.933 1_565 S
Zn1134 O1148 1.985 1_565 S
Zn1134 O1157 1.955 . S
O1135 Zn1134 1.933 1_545 S
O1135 Zn1136 1.911 . S
O1135 H1137 0.841 . S
Zn1136 O1135 1.911 . S
Zn1136 O1149 1.970 . S
Zn1136 O1165 1.981 . S
Zn1136 O1167 1.945 . S
H1137 O1135 0.841 . S
Zn1138 O1139 1.936 1_565 S
Zn1138 O1151 1.986 1_565 S
Zn1138 O1159 1.952 . S
O1139 Zn1138 1.936 1_545 S
O1139 H1140 0.841 . S
O1139 Zn1141 1.911 . S
H1140 O1139 0.841 . S
Zn1141 O1139 1.911 . S
Zn1141 O1152 1.970 . S
Zn1141 O1162 1.981 . S
Zn1141 O1170 1.945 . S
C1142 O1143 1.246 . S
C1142 O1159 1.276 . S
O1143 C1142 1.246 . S
O1144 Zn1124 1.985 1_545 S
O1144 C1154 1.245 . S
O1145 Zn1125 1.970 . S
O1145 C1154 1.263 . S
O1146 Zn1131 1.974 1_545 S
O1146 C1158 1.245 . S
O1147 Zn1130 1.970 . S
O1147 C1158 1.263 . S
O1148 Zn1134 1.985 1_545 S
O1148 C1163 1.245 . S
O1149 Zn1136 1.970 . S
O1149 C1163 1.263 . S
C1150 O1161 1.262 . S
C1150 O1162 1.245 . S
O1151 Zn1138 1.986 1_545 S
O1151 C1169 1.245 . S
O1152 Zn1141 1.970 . S
O1152 C1169 1.263 . S
O1153 Zn1131 1.996 . S
O1153 C1172 1.276 . S
C1154 O1144 1.245 . S
C1154 O1145 1.263 . S
O1155 Zn1124 1.955 . S
O1155 C1174 1.276 . S
C1156 O1164 1.262 . S
C1156 O1165 1.245 . S
O1157 C1128 1.276 . S
O1157 Zn1134 1.955 . S
C1158 O1146 1.245 . S
C1158 O1147 1.263 . S
O1159 Zn1138 1.952 . S
O1159 C1142 1.276 . S
C1160 O1167 1.262 . S
C1160 O1168 1.245 . S
O1161 Zn1125 1.945 . S
O1161 C1150 1.262 . S
O1162 Zn1141 1.981 . S
O1162 C1150 1.245 . S
C1163 O1148 1.245 . S
C1163 O1149 1.263 . S
O1164 Zn1130 1.945 . S
O1164 C1156 1.262 . S
O1165 Zn1136 1.981 . S
O1165 C1156 1.245 . S
C1166 O1170 1.262 . S
C1166 O1171 1.245 . S
O1167 Zn1136 1.945 . S
O1167 C1160 1.262 . S
O1168 Zn1125 1.981 . S
O1168 C1160 1.245 . S
C1169 O1151 1.245 . S
C1169 O1152 1.263 . S
O1170 Zn1141 1.945 . S
O1170 C1166 1.262 . S
O1171 Zn1130 1.981 . S
O1171 C1166 1.245 . S
C1172 O1153 1.276 . S
C1172 O1173 1.246 . S
O1173 C1172 1.246 . S
C1174 O1155 1.276 . S
C1174 O1175 1.246 . S
O1175 C1174 1.246 . S
H1176 C1194 0.951 . S
H1177 C1196 0.951 . S
H1178 C1198 0.950 . S
H1179 C1199 0.950 . S
H1180 C1201 0.950 . S
H1181 C1204 0.950 . S
H1182 C1205 0.950 . S
H1183 C1207 0.950 . S
H1184 C1208 0.950 . S
H1185 C1209 0.951 . S
H1186 C1211 0.951 . S
H1187 C1213 0.950 . S
H1188 C1214 0.950 . S
H1189 C1216 0.950 . S
H1190 C1219 0.950 . S
H1191 C1220 0.950 . S
H1192 C1222 0.950 . S
H1193 C1223 0.950 . S
C1194 H1176 0.951 . S
C1194 C1195 1.366 . S
C1194 C1196 1.388 . S
C1195 C1194 1.366 . S
C1195 C1199 1.385 . S
C1196 H1177 0.951 . S
C1196 C1194 1.388 . S
C1196 C1197 1.366 . S
C1197 C1196 1.366 . S
C1197 C1198 1.414 . S
C1197 C1200 1.499 . S
C1198 H1178 0.950 . S
C1198 C1197 1.414 . S
C1198 C1199 1.374 . S
C1199 H1179 0.950 . S
C1199 C1195 1.385 . S
C1199 C1198 1.374 . S
C1200 C1197 1.499 . S
C1200 C1201 1.373 . S
C1200 C1202 1.389 . S
C1201 H1180 0.950 . S
C1201 C1200 1.373 . S
C1201 C1217 1.377 . S
C1202 C1200 1.389 . S
C1202 C1203 1.524 . S
C1202 C1216 1.377 . S
C1203 C1202 1.524 . S
C1203 C1204 1.397 . S
C1203 C1208 1.363 . S
C1204 H1181 0.950 . S
C1204 C1203 1.397 . S
C1204 C1205 1.334 . S
C1205 H1182 0.950 . S
C1205 C1204 1.334 . S
C1205 C1206 1.287 . S
C1206 C1205 1.287 . S
C1206 C1207 1.524 . S
C1206 H1225 0.913 . S
C1207 H1183 0.950 . S
C1207 C1206 1.524 . S
C1207 C1208 1.415 . S
C1208 H1184 0.950 . S
C1208 C1203 1.363 . S
C1208 C1207 1.415 . S
C1209 H1185 0.951 . S
C1209 C1210 1.366 . S
C1209 C1211 1.388 . S
C1210 C1209 1.366 . S
C1210 C1214 1.385 . S
C1211 H1186 0.951 . S
C1211 C1209 1.388 . S
C1211 C1212 1.366 . S
C1212 C1211 1.366 . S
C1212 C1213 1.414 . S
C1212 C1215 1.499 . S
C1213 H1187 0.950 . S
C1213 C1212 1.414 . S
C1213 C1214 1.374 . S
C1214 H1188 0.950 . S
C1214 C1210 1.385 . S
C1214 C1213 1.374 . S
C1215 C1212 1.499 . S
C1215 C1216 1.373 . S
C1215 C1217 1.389 . S
C1216 H1189 0.950 . S
C1216 C1202 1.377 . S
C1216 C1215 1.373 . S
C1217 C1201 1.377 . S
C1217 C1215 1.389 . S
C1217 C1218 1.524 . S
C1218 C1217 1.524 . S
C1218 C1219 1.397 . S
C1218 C1223 1.363 . S
C1219 H1190 0.950 . S
C1219 C1218 1.397 . S
C1219 C1220 1.334 . S
C1220 H1191 0.950 . S
C1220 C1219 1.334 . S
C1220 C1221 1.287 . S
C1221 C1220 1.287 . S
C1221 C1222 1.524 . S
C1221 H1224 0.999 . S
C1222 H1192 0.950 . S
C1222 C1221 1.524 . S
C1222 C1223 1.415 . S
C1223 H1193 0.950 . S
C1223 C1218 1.363 . S
C1223 C1222 1.415 . S
H1224 C1221 0.999 . S
H1225 C1206 0.913 . S
H1226 C1244 0.951 . S
H1227 C1246 0.951 . S
H1228 C1248 0.950 . S
H1229 C1249 0.950 . S
H1230 C1251 0.950 . S
H1231 C1254 0.950 . S
H1232 C1255 0.950 . S
H1233 C1257 0.950 . S
H1234 C1258 0.950 . S
H1235 C1259 0.951 . S
H1236 C1261 0.951 . S
H1237 C1263 0.950 . S
H1238 C1264 0.950 . S
H1239 C1266 0.950 . S
H1240 C1269 0.950 . S
H1241 C1270 0.950 . S
H1242 C1272 0.950 . S
H1243 C1273 0.950 . S
C1244 H1226 0.951 . S
C1244 C1245 1.366 . S
C1244 C1246 1.388 . S
C1245 C1244 1.366 . S
C1245 C1249 1.385 . S
C1246 H1227 0.951 . S
C1246 C1244 1.388 . S
C1246 C1247 1.366 . S
C1247 C1246 1.366 . S
C1247 C1248 1.414 . S
C1247 C1250 1.499 . S
C1248 H1228 0.950 . S
C1248 C1247 1.414 . S
C1248 C1249 1.374 . S
C1249 H1229 0.950 . S
C1249 C1245 1.385 . S
C1249 C1248 1.374 . S
C1250 C1247 1.499 . S
C1250 C1251 1.373 . S
C1250 C1252 1.389 . S
C1251 H1230 0.950 . S
C1251 C1250 1.373 . S
C1251 C1267 1.377 . S
C1252 C1250 1.389 . S
C1252 C1253 1.524 . S
C1252 C1266 1.377 . S
C1253 C1252 1.524 . S
C1253 C1254 1.397 . S
C1253 C1258 1.363 . S
C1254 H1231 0.950 . S
C1254 C1253 1.397 . S
C1254 C1255 1.334 . S
C1255 H1232 0.950 . S
C1255 C1254 1.334 . S
C1255 C1256 1.287 . S
C1256 C1255 1.287 . S
C1256 C1257 1.524 . S
C1256 H1275 0.913 . S
C1257 H1233 0.950 . S
C1257 C1256 1.524 . S
C1257 C1258 1.415 . S
C1258 H1234 0.950 . S
C1258 C1253 1.363 . S
C1258 C1257 1.415 . S
C1259 H1235 0.951 . S
C1259 C1260 1.366 . S
C1259 C1261 1.388 . S
C1260 C1259 1.366 . S
C1260 C1264 1.385 . S
C1261 H1236 0.951 . S
C1261 C1259 1.388 . S
C1261 C1262 1.366 . S
C1262 C1261 1.366 . S
C1262 C1263 1.414 . S
C1262 C1265 1.499 . S
C1263 H1237 0.950 . S
C1263 C1262 1.414 . S
C1263 C1264 1.374 . S
C1264 H1238 0.950 . S
C1264 C1260 1.385 . S
C1264 C1263 1.374 . S
C1265 C1262 1.499 . S
C1265 C1266 1.373 . S
C1265 C1267 1.389 . S
C1266 H1239 0.950 . S
C1266 C1252 1.377 . S
C1266 C1265 1.373 . S
C1267 C1251 1.377 . S
C1267 C1265 1.389 . S
C1267 C1268 1.524 . S
C1268 C1267 1.524 . S
C1268 C1269 1.397 . S
C1268 C1273 1.363 . S
C1269 H1240 0.950 . S
C1269 C1268 1.397 . S
C1269 C1270 1.334 . S
C1270 H1241 0.950 . S
C1270 C1269 1.334 . S
C1270 C1271 1.287 . S
C1271 C1270 1.287 . S
C1271 C1272 1.524 . S
C1271 H1274 0.999 1_655 S
C1272 H1242 0.950 . S
C1272 C1271 1.524 . S
C1272 C1273 1.415 . S
C1273 H1243 0.950 . S
C1273 C1268 1.363 . S
C1273 C1272 1.415 . S
H1274 C1271 0.999 1_455 S
H1275 C1256 0.913 . S
H1276 C1294 0.951 . S
H1277 C1296 0.951 . S
H1278 C1298 0.950 . S
H1279 C1299 0.950 . S
H1280 C1301 0.950 . S
H1281 C1304 0.950 . S
H1282 C1305 0.950 . S
H1283 C1307 0.950 . S
H1284 C1308 0.950 . S
H1285 C1309 0.951 . S
H1286 C1311 0.951 . S
H1287 C1313 0.950 . S
H1288 C1314 0.950 . S
H1289 C1316 0.950 . S
H1290 C1319 0.950 . S
H1291 C1320 0.950 . S
H1292 C1322 0.950 . S
H1293 C1323 0.950 . S
C1294 H1276 0.951 . S
C1294 C1295 1.366 . S
C1294 C1296 1.388 . S
C1295 C1294 1.366 . S
C1295 C1299 1.385 . S
C1296 H1277 0.951 . S
C1296 C1294 1.388 . S
C1296 C1297 1.366 . S
C1297 C1296 1.366 . S
C1297 C1298 1.414 . S
C1297 C1300 1.499 . S
C1298 H1278 0.950 . S
C1298 C1297 1.414 . S
C1298 C1299 1.374 . S
C1299 H1279 0.950 . S
C1299 C1295 1.385 . S
C1299 C1298 1.374 . S
C1300 C1297 1.499 . S
C1300 C1301 1.373 . S
C1300 C1302 1.389 . S
C1301 H1280 0.950 . S
C1301 C1300 1.373 . S
C1301 C1317 1.377 . S
C1302 C1300 1.389 . S
C1302 C1303 1.524 . S
C1302 C1316 1.377 . S
C1303 C1302 1.524 . S
C1303 C1304 1.397 . S
C1303 C1308 1.363 . S
C1304 H1281 0.950 . S
C1304 C1303 1.397 . S
C1304 C1305 1.334 . S
C1305 H1282 0.950 . S
C1305 C1304 1.334 . S
C1305 C1306 1.287 . S
C1306 C1305 1.287 . S
C1306 C1307 1.524 . S
C1306 H1325 0.913 . S
C1307 H1283 0.950 . S
C1307 C1306 1.524 . S
C1307 C1308 1.415 . S
C1308 H1284 0.950 . S
C1308 C1303 1.363 . S
C1308 C1307 1.415 . S
C1309 H1285 0.951 . S
C1309 C1310 1.366 . S
C1309 C1311 1.388 . S
C1310 C1309 1.366 . S
C1310 C1314 1.385 . S
C1311 H1286 0.951 . S
C1311 C1309 1.388 . S
C1311 C1312 1.366 . S
C1312 C1311 1.366 . S
C1312 C1313 1.414 . S
C1312 C1315 1.499 . S
C1313 H1287 0.950 . S
C1313 C1312 1.414 . S
C1313 C1314 1.374 . S
C1314 H1288 0.950 . S
C1314 C1310 1.385 . S
C1314 C1313 1.374 . S
C1315 C1312 1.499 . S
C1315 C1316 1.373 . S
C1315 C1317 1.389 . S
C1316 H1289 0.950 . S
C1316 C1302 1.377 . S
C1316 C1315 1.373 . S
C1317 C1301 1.377 . S
C1317 C1315 1.389 . S
C1317 C1318 1.524 . S
C1318 C1317 1.524 . S
C1318 C1319 1.397 . S
C1318 C1323 1.363 . S
C1319 H1290 0.950 . S
C1319 C1318 1.397 . S
C1319 C1320 1.334 . S
C1320 H1291 0.950 . S
C1320 C1319 1.334 . S
C1320 C1321 1.287 . S
C1321 C1320 1.287 . S
C1321 C1322 1.524 . S
C1321 H1324 0.999 . S
C1322 H1292 0.950 . S
C1322 C1321 1.524 . S
C1322 C1323 1.415 . S
C1323 H1293 0.950 . S
C1323 C1318 1.363 . S
C1323 C1322 1.415 . S
H1324 C1321 0.999 . S
H1325 C1306 0.913 . S
H1326 C1344 0.951 . S
H1327 C1346 0.951 . S
H1328 C1348 0.950 . S
H1329 C1349 0.950 . S
H1330 C1351 0.950 . S
H1331 C1354 0.950 . S
H1332 C1355 0.950 . S
H1333 C1357 0.950 . S
H1334 C1358 0.950 . S
H1335 C1359 0.951 . S
H1336 C1361 0.951 . S
H1337 C1363 0.950 . S
H1338 C1364 0.950 . S
H1339 C1366 0.950 . S
H1340 C1369 0.950 . S
H1341 C1370 0.950 . S
H1342 C1372 0.950 . S
H1343 C1373 0.950 . S
C1344 H1326 0.951 . S
C1344 C1345 1.366 . S
C1344 C1346 1.388 . S
C1345 C1344 1.366 . S
C1345 C1349 1.385 . S
C1346 H1327 0.951 . S
C1346 C1344 1.388 . S
C1346 C1347 1.366 . S
C1347 C1346 1.366 . S
C1347 C1348 1.414 . S
C1347 C1350 1.499 . S
C1348 H1328 0.950 . S
C1348 C1347 1.414 . S
C1348 C1349 1.374 . S
C1349 H1329 0.950 . S
C1349 C1345 1.385 . S
C1349 C1348 1.374 . S
C1350 C1347 1.499 . S
C1350 C1351 1.373 . S
C1350 C1352 1.389 . S
C1351 H1330 0.950 . S
C1351 C1350 1.373 . S
C1351 C1367 1.377 . S
C1352 C1350 1.389 . S
C1352 C1353 1.524 . S
C1352 C1366 1.377 . S
C1353 C1352 1.524 . S
C1353 C1354 1.397 . S
C1353 C1358 1.363 . S
C1354 H1331 0.950 . S
C1354 C1353 1.397 . S
C1354 C1355 1.334 . S
C1355 H1332 0.950 . S
C1355 C1354 1.334 . S
C1355 C1356 1.287 . S
C1356 C1355 1.287 . S
C1356 C1357 1.524 . S
C1356 H1375 0.913 . S
C1357 H1333 0.950 . S
C1357 C1356 1.524 . S
C1357 C1358 1.415 . S
C1358 H1334 0.950 . S
C1358 C1353 1.363 . S
C1358 C1357 1.415 . S
C1359 H1335 0.951 . S
C1359 C1360 1.366 . S
C1359 C1361 1.388 . S
C1360 C1359 1.366 . S
C1360 C1364 1.385 . S
C1361 H1336 0.951 . S
C1361 C1359 1.388 . S
C1361 C1362 1.366 . S
C1362 C1361 1.366 . S
C1362 C1363 1.414 . S
C1362 C1365 1.499 . S
C1363 H1337 0.950 . S
C1363 C1362 1.414 . S
C1363 C1364 1.374 . S
C1364 H1338 0.950 . S
C1364 C1360 1.385 . S
C1364 C1363 1.374 . S
C1365 C1362 1.499 . S
C1365 C1366 1.373 . S
C1365 C1367 1.389 . S
C1366 H1339 0.950 . S
C1366 C1352 1.377 . S
C1366 C1365 1.373 . S
C1367 C1351 1.377 . S
C1367 C1365 1.389 . S
C1367 C1368 1.524 . S
C1368 C1367 1.524 . S
C1368 C1369 1.397 . S
C1368 C1373 1.363 . S
C1369 H1340 0.950 . S
C1369 C1368 1.397 . S
C1369 C1370 1.334 . S
C1370 H1341 0.950 . S
C1370 C1369 1.334 . S
C1370 C1371 1.287 . S
C1371 C1370 1.287 . S
C1371 C1372 1.524 . S
C1371 H1374 0.999 . S
C1372 H1342 0.950 . S
C1372 C1371 1.524 . S
C1372 C1373 1.415 . S
C1373 H1343 0.950 . S
C1373 C1368 1.363 . S
C1373 C1372 1.415 . S
H1374 C1371 0.999 . S
H1375 C1356 0.913 . S
H1376 C1394 0.951 . S
H1377 C1396 0.951 . S
H1378 C1398 0.950 . S
H1379 C1399 0.950 . S
H1380 C1401 0.950 . S
H1381 C1404 0.950 . S
H1382 C1405 0.950 . S
H1383 C1407 0.950 . S
H1384 C1408 0.950 . S
H1385 C1409 0.951 . S
H1386 C1411 0.951 . S
H1387 C1413 0.950 . S
H1388 C1414 0.950 . S
H1389 C1416 0.950 . S
H1390 C1419 0.950 . S
H1391 C1420 0.950 . S
H1392 C1422 0.950 . S
H1393 C1423 0.950 . S
C1394 H1376 0.951 . S
C1394 C1395 1.366 . S
C1394 C1396 1.388 . S
C1395 C1394 1.366 . S
C1395 C1399 1.385 . S
C1396 H1377 0.951 . S
C1396 C1394 1.388 . S
C1396 C1397 1.366 . S
C1397 C1396 1.366 . S
C1397 C1398 1.414 . S
C1397 C1400 1.499 . S
C1398 H1378 0.950 . S
C1398 C1397 1.414 . S
C1398 C1399 1.374 . S
C1399 H1379 0.950 . S
C1399 C1395 1.385 . S
C1399 C1398 1.374 . S
C1400 C1397 1.499 . S
C1400 C1401 1.373 . S
C1400 C1402 1.389 . S
C1401 H1380 0.950 . S
C1401 C1400 1.373 . S
C1401 C1417 1.377 . S
C1402 C1400 1.389 . S
C1402 C1403 1.524 . S
C1402 C1416 1.377 . S
C1403 C1402 1.524 . S
C1403 C1404 1.397 . S
C1403 C1408 1.363 . S
C1404 H1381 0.950 . S
C1404 C1403 1.397 . S
C1404 C1405 1.334 . S
C1405 H1382 0.950 . S
C1405 C1404 1.334 . S
C1405 C1406 1.287 . S
C1406 C1405 1.287 . S
C1406 C1407 1.524 . S
C1406 H1425 0.913 . S
C1407 H1383 0.950 . S
C1407 C1406 1.524 . S
C1407 C1408 1.415 . S
C1408 H1384 0.950 . S
C1408 C1403 1.363 . S
C1408 C1407 1.415 . S
C1409 H1385 0.951 . S
C1409 C1410 1.366 . S
C1409 C1411 1.388 . S
C1410 C1409 1.366 . S
C1410 C1414 1.385 . S
C1411 H1386 0.951 . S
C1411 C1409 1.388 . S
C1411 C1412 1.366 . S
C1412 C1411 1.366 . S
C1412 C1413 1.414 . S
C1412 C1415 1.499 . S
C1413 H1387 0.950 . S
C1413 C1412 1.414 . S
C1413 C1414 1.374 . S
C1414 H1388 0.950 . S
C1414 C1410 1.385 . S
C1414 C1413 1.374 . S
C1415 C1412 1.499 . S
C1415 C1416 1.373 . S
C1415 C1417 1.389 . S
C1416 H1389 0.950 . S
C1416 C1402 1.377 . S
C1416 C1415 1.373 . S
C1417 C1401 1.377 . S
C1417 C1415 1.389 . S
C1417 C1418 1.524 . S
C1418 C1417 1.524 . S
C1418 C1419 1.397 . S
C1418 C1423 1.363 . S
C1419 H1390 0.950 . S
C1419 C1418 1.397 . S
C1419 C1420 1.334 . S
C1420 H1391 0.950 . S
C1420 C1419 1.334 . S
C1420 C1421 1.287 . S
C1421 C1420 1.287 . S
C1421 C1422 1.524 . S
C1421 H1424 0.999 . S
C1422 H1392 0.950 . S
C1422 C1421 1.524 . S
C1422 C1423 1.415 . S
C1423 H1393 0.950 . S
C1423 C1418 1.363 . S
C1423 C1422 1.415 . S
H1424 C1421 0.999 . S
H1425 C1406 0.913 . S
H1426 C1444 0.951 . S
H1427 C1446 0.951 . S
H1428 C1448 0.950 . S
H1429 C1449 0.950 . S
H1430 C1451 0.950 . S
H1431 C1454 0.950 . S
H1432 C1455 0.950 . S
H1433 C1457 0.950 . S
H1434 C1458 0.950 . S
H1435 C1459 0.951 . S
H1436 C1461 0.951 . S
H1437 C1463 0.950 . S
H1438 C1464 0.950 . S
H1439 C1466 0.950 . S
H1440 C1469 0.950 . S
H1441 C1470 0.950 . S
H1442 C1472 0.950 . S
H1443 C1473 0.950 . S
C1444 H1426 0.951 . S
C1444 C1445 1.366 . S
C1444 C1446 1.388 . S
C1445 C1444 1.366 . S
C1445 C1449 1.385 . S
C1446 H1427 0.951 . S
C1446 C1444 1.388 . S
C1446 C1447 1.366 . S
C1447 C1446 1.366 . S
C1447 C1448 1.414 . S
C1447 C1450 1.499 . S
C1448 H1428 0.950 . S
C1448 C1447 1.414 . S
C1448 C1449 1.374 . S
C1449 H1429 0.950 . S
C1449 C1445 1.385 . S
C1449 C1448 1.374 . S
C1450 C1447 1.499 . S
C1450 C1451 1.373 . S
C1450 C1452 1.389 . S
C1451 H1430 0.950 . S
C1451 C1450 1.373 . S
C1451 C1467 1.377 . S
C1452 C1450 1.389 . S
C1452 C1453 1.524 . S
C1452 C1466 1.377 . S
C1453 C1452 1.524 . S
C1453 C1454 1.397 . S
C1453 C1458 1.363 . S
C1454 H1431 0.950 . S
C1454 C1453 1.397 . S
C1454 C1455 1.334 . S
C1455 H1432 0.950 . S
C1455 C1454 1.334 . S
C1455 C1456 1.287 . S
C1456 C1455 1.287 . S
C1456 C1457 1.524 . S
C1456 H1475 0.913 . S
C1457 H1433 0.950 . S
C1457 C1456 1.524 . S
C1457 C1458 1.415 . S
C1458 H1434 0.950 . S
C1458 C1453 1.363 . S
C1458 C1457 1.415 . S
C1459 H1435 0.951 . S
C1459 C1460 1.366 . S
C1459 C1461 1.388 . S
C1460 C1459 1.366 . S
C1460 C1464 1.385 . S
C1461 H1436 0.951 . S
C1461 C1459 1.388 . S
C1461 C1462 1.366 . S
C1462 C1461 1.366 . S
C1462 C1463 1.414 . S
C1462 C1465 1.499 . S
C1463 H1437 0.950 . S
C1463 C1462 1.414 . S
C1463 C1464 1.374 . S
C1464 H1438 0.950 . S
C1464 C1460 1.385 . S
C1464 C1463 1.374 . S
C1465 C1462 1.499 . S
C1465 C1466 1.373 . S
C1465 C1467 1.389 . S
C1466 H1439 0.950 . S
C1466 C1452 1.377 . S
C1466 C1465 1.373 . S
C1467 C1451 1.377 . S
C1467 C1465 1.389 . S
C1467 C1468 1.524 . S
C1468 C1467 1.524 . S
C1468 C1469 1.397 . S
C1468 C1473 1.363 . S
C1469 H1440 0.950 . S
C1469 C1468 1.397 . S
C1469 C1470 1.334 . S
C1470 H1441 0.950 . S
C1470 C1469 1.334 . S
C1470 C1471 1.287 . S
C1471 C1470 1.287 . S
C1471 C1472 1.524 . S
C1471 H1474 0.999 . S
C1472 H1442 0.950 . S
C1472 C1471 1.524 . S
C1472 C1473 1.415 . S
C1473 H1443 0.950 . S
C1473 C1468 1.363 . S
C1473 C1472 1.415 . S
H1474 C1471 0.999 . S
H1475 C1456 0.913 . S
H1476 C1494 0.951 . S
H1477 C1496 0.951 . S
H1478 C1498 0.950 . S
H1479 C1499 0.950 . S
H1480 C1501 0.950 . S
H1481 C1504 0.950 . S
H1482 C1505 0.950 . S
H1483 C1507 0.950 . S
H1484 C1508 0.950 . S
H1485 C1509 0.951 . S
H1486 C1511 0.951 . S
H1487 C1513 0.950 . S
H1488 C1514 0.950 . S
H1489 C1516 0.950 . S
H1490 C1519 0.950 . S
H1491 C1520 0.950 . S
H1492 C1522 0.950 . S
H1493 C1523 0.950 . S
C1494 H1476 0.951 . S
C1494 C1495 1.366 . S
C1494 C1496 1.388 . S
C1495 C1494 1.366 . S
C1495 C1499 1.385 . S
C1496 H1477 0.951 . S
C1496 C1494 1.388 . S
C1496 C1497 1.366 . S
C1497 C1496 1.366 . S
C1497 C1498 1.414 . S
C1497 C1500 1.499 . S
C1498 H1478 0.950 . S
C1498 C1497 1.414 . S
C1498 C1499 1.374 . S
C1499 H1479 0.950 . S
C1499 C1495 1.385 . S
C1499 C1498 1.374 . S
C1500 C1497 1.499 . S
C1500 C1501 1.373 . S
C1500 C1502 1.389 . S
C1501 H1480 0.950 . S
C1501 C1500 1.373 . S
C1501 C1517 1.377 . S
C1502 C1500 1.389 . S
C1502 C1503 1.524 . S
C1502 C1516 1.377 . S
C1503 C1502 1.524 . S
C1503 C1504 1.397 . S
C1503 C1508 1.363 . S
C1504 H1481 0.950 . S
C1504 C1503 1.397 . S
C1504 C1505 1.334 . S
C1505 H1482 0.950 . S
C1505 C1504 1.334 . S
C1505 C1506 1.287 . S
C1506 C1505 1.287 . S
C1506 C1507 1.524 . S
C1506 H1525 0.913 . S
C1507 H1483 0.950 . S
C1507 C1506 1.524 . S
C1507 C1508 1.415 . S
C1508 H1484 0.950 . S
C1508 C1503 1.363 . S
C1508 C1507 1.415 . S
C1509 H1485 0.951 . S
C1509 C1510 1.366 . S
C1509 C1511 1.388 . S
C1510 C1509 1.366 . S
C1510 C1514 1.385 . S
C1511 H1486 0.951 . S
C1511 C1509 1.388 . S
C1511 C1512 1.366 . S
C1512 C1511 1.366 . S
C1512 C1513 1.414 . S
C1512 C1515 1.499 . S
C1513 H1487 0.950 . S
C1513 C1512 1.414 . S
C1513 C1514 1.374 . S
C1514 H1488 0.950 . S
C1514 C1510 1.385 . S
C1514 C1513 1.374 . S
C1515 C1512 1.499 . S
C1515 C1516 1.373 . S
C1515 C1517 1.389 . S
C1516 H1489 0.950 . S
C1516 C1502 1.377 . S
C1516 C1515 1.373 . S
C1517 C1501 1.377 . S
C1517 C1515 1.389 . S
C1517 C1518 1.524 . S
C1518 C1517 1.524 . S
C1518 C1519 1.397 . S
C1518 C1523 1.363 . S
C1519 H1490 0.950 . S
C1519 C1518 1.397 . S
C1519 C1520 1.334 . S
C1520 H1491 0.950 . S
C1520 C1519 1.334 . S
C1520 C1521 1.287 . S
C1521 C1520 1.287 . S
C1521 C1522 1.524 . S
C1521 H1524 0.999 . S
C1522 H1492 0.950 . S
C1522 C1521 1.524 . S
C1522 C1523 1.415 . S
C1523 H1493 0.950 . S
C1523 C1518 1.363 . S
C1523 C1522 1.415 . S
H1524 C1521 0.999 . S
H1525 C1506 0.913 . S
H1526 C1544 0.951 . S
H1527 C1546 0.951 . S
H1528 C1548 0.950 . S
H1529 C1549 0.950 . S
H1530 C1551 0.950 . S
H1531 C1554 0.950 . S
H1532 C1555 0.950 . S
H1533 C1557 0.950 . S
H1534 C1558 0.950 . S
H1535 C1559 0.951 . S
H1536 C1561 0.951 . S
H1537 C1563 0.950 . S
H1538 C1564 0.950 . S
H1539 C1566 0.950 . S
H1540 C1569 0.950 . S
H1541 C1570 0.950 . S
H1542 C1572 0.950 . S
H1543 C1573 0.950 . S
C1544 H1526 0.951 . S
C1544 C1545 1.366 . S
C1544 C1546 1.388 . S
C1545 C1544 1.366 . S
C1545 C1549 1.385 . S
C1546 H1527 0.951 . S
C1546 C1544 1.388 . S
C1546 C1547 1.366 . S
C1547 C1546 1.366 . S
C1547 C1548 1.414 . S
C1547 C1550 1.499 . S
C1548 H1528 0.950 . S
C1548 C1547 1.414 . S
C1548 C1549 1.374 . S
C1549 H1529 0.950 . S
C1549 C1545 1.385 . S
C1549 C1548 1.374 . S
C1550 C1547 1.499 . S
C1550 C1551 1.373 . S
C1550 C1552 1.389 . S
C1551 H1530 0.950 . S
C1551 C1550 1.373 . S
C1551 C1567 1.377 . S
C1552 C1550 1.389 . S
C1552 C1553 1.524 . S
C1552 C1566 1.377 . S
C1553 C1552 1.524 . S
C1553 C1554 1.397 . S
C1553 C1558 1.363 . S
C1554 H1531 0.950 . S
C1554 C1553 1.397 . S
C1554 C1555 1.334 . S
C1555 H1532 0.950 . S
C1555 C1554 1.334 . S
C1555 C1556 1.287 . S
C1556 C1555 1.287 . S
C1556 C1557 1.524 . S
C1556 H1575 0.913 . S
C1557 H1533 0.950 . S
C1557 C1556 1.524 . S
C1557 C1558 1.415 . S
C1558 H1534 0.950 . S
C1558 C1553 1.363 . S
C1558 C1557 1.415 . S
C1559 H1535 0.951 . S
C1559 C1560 1.366 . S
C1559 C1561 1.388 . S
C1560 C1559 1.366 . S
C1560 C1564 1.385 . S
C1561 H1536 0.951 . S
C1561 C1559 1.388 . S
C1561 C1562 1.366 . S
C1562 C1561 1.366 . S
C1562 C1563 1.414 . S
C1562 C1565 1.499 . S
C1563 H1537 0.950 . S
C1563 C1562 1.414 . S
C1563 C1564 1.374 . S
C1564 H1538 0.950 . S
C1564 C1560 1.385 . S
C1564 C1563 1.374 . S
C1565 C1562 1.499 . S
C1565 C1566 1.373 . S
C1565 C1567 1.389 . S
C1566 H1539 0.950 . S
C1566 C1552 1.377 . S
C1566 C1565 1.373 . S
C1567 C1551 1.377 . S
C1567 C1565 1.389 . S
C1567 C1568 1.524 . S
C1568 C1567 1.524 . S
C1568 C1569 1.397 . S
C1568 C1573 1.363 . S
C1569 H1540 0.950 . S
C1569 C1568 1.397 . S
C1569 C1570 1.334 . S
C1570 H1541 0.950 . S
C1570 C1569 1.334 . S
C1570 C1571 1.287 . S
C1571 C1570 1.287 . S
C1571 C1572 1.524 . S
C1571 H1574 0.999 . S
C1572 H1542 0.950 . S
C1572 C1571 1.524 . S
C1572 C1573 1.415 . S
C1573 H1543 0.950 . S
C1573 C1568 1.363 . S
C1573 C1572 1.415 . S
H1574 C1571 0.999 . S
H1575 C1556 0.913 . S
H1576 C1594 0.951 . S
H1577 C1596 0.951 . S
H1578 C1598 0.950 . S
H1579 C1599 0.950 . S
H1580 C1601 0.950 . S
H1581 C1604 0.950 . S
H1582 C1605 0.950 . S
H1583 C1607 0.950 . S
H1584 C1608 0.950 . S
H1585 C1609 0.951 . S
H1586 C1611 0.951 . S
H1587 C1613 0.950 . S
H1588 C1614 0.950 . S
H1589 C1616 0.950 . S
H1590 C1619 0.950 . S
H1591 C1620 0.950 . S
H1592 C1622 0.950 . S
H1593 C1623 0.950 . S
C1594 H1576 0.951 . S
C1594 C1595 1.366 . S
C1594 C1596 1.388 . S
C1595 C1594 1.366 . S
C1595 C1599 1.385 . S
C1596 H1577 0.951 . S
C1596 C1594 1.388 . S
C1596 C1597 1.366 . S
C1597 C1596 1.366 . S
C1597 C1598 1.414 . S
C1597 C1600 1.499 . S
C1598 H1578 0.950 . S
C1598 C1597 1.414 . S
C1598 C1599 1.374 . S
C1599 H1579 0.950 . S
C1599 C1595 1.385 . S
C1599 C1598 1.374 . S
C1600 C1597 1.499 . S
C1600 C1601 1.373 . S
C1600 C1602 1.389 . S
C1601 H1580 0.950 . S
C1601 C1600 1.373 . S
C1601 C1617 1.377 . S
C1602 C1600 1.389 . S
C1602 C1603 1.524 . S
C1602 C1616 1.377 . S
C1603 C1602 1.524 . S
C1603 C1604 1.397 . S
C1603 C1608 1.363 . S
C1604 H1581 0.950 . S
C1604 C1603 1.397 . S
C1604 C1605 1.334 . S
C1605 H1582 0.950 . S
C1605 C1604 1.334 . S
C1605 C1606 1.287 . S
C1606 C1605 1.287 . S
C1606 C1607 1.524 . S
C1606 H1625 0.913 . S
C1607 H1583 0.950 . S
C1607 C1606 1.524 . S
C1607 C1608 1.415 . S
C1608 H1584 0.950 . S
C1608 C1603 1.363 . S
C1608 C1607 1.415 . S
C1609 H1585 0.951 . S
C1609 C1610 1.366 . S
C1609 C1611 1.388 . S
C1610 C1609 1.366 . S
C1610 C1614 1.385 . S
C1611 H1586 0.951 . S
C1611 C1609 1.388 . S
C1611 C1612 1.366 . S
C1612 C1611 1.366 . S
C1612 C1613 1.414 . S
C1612 C1615 1.499 . S
C1613 H1587 0.950 . S
C1613 C1612 1.414 . S
C1613 C1614 1.374 . S
C1614 H1588 0.950 . S
C1614 C1610 1.385 . S
C1614 C1613 1.374 . S
C1615 C1612 1.499 . S
C1615 C1616 1.373 . S
C1615 C1617 1.389 . S
C1616 H1589 0.950 . S
C1616 C1602 1.377 . S
C1616 C1615 1.373 . S
C1617 C1601 1.377 . S
C1617 C1615 1.389 . S
C1617 C1618 1.524 . S
C1618 C1617 1.524 . S
C1618 C1619 1.397 . S
C1618 C1623 1.363 . S
C1619 H1590 0.950 . S
C1619 C1618 1.397 . S
C1619 C1620 1.334 . S
C1620 H1591 0.950 . S
C1620 C1619 1.334 . S
C1620 C1621 1.287 . S
C1621 C1620 1.287 . S
C1621 C1622 1.524 . S
C1621 H1624 0.999 . S
C1622 H1592 0.950 . S
C1622 C1621 1.524 . S
C1622 C1623 1.415 . S
C1623 H1593 0.950 . S
C1623 C1618 1.363 . S
C1623 C1622 1.415 . S
H1624 C1621 0.999 . S
H1625 C1606 0.913 . S
H1626 C1644 0.951 . S
H1627 C1646 0.951 . S
H1628 C1648 0.950 . S
H1629 C1649 0.950 . S
H1630 C1651 0.950 . S
H1631 C1654 0.950 . S
H1632 C1655 0.950 . S
H1633 C1657 0.950 . S
H1634 C1658 0.950 . S
H1635 C1659 0.951 . S
H1636 C1661 0.951 . S
H1637 C1663 0.950 . S
H1638 C1664 0.950 . S
H1639 C1666 0.950 . S
H1640 C1669 0.950 . S
H1641 C1670 0.950 . S
H1642 C1672 0.950 . S
H1643 C1673 0.950 . S
C1644 H1626 0.951 . S
C1644 C1645 1.366 . S
C1644 C1646 1.388 . S
C1645 C1644 1.366 . S
C1645 C1649 1.385 . S
C1646 H1627 0.951 . S
C1646 C1644 1.388 . S
C1646 C1647 1.366 . S
C1647 C1646 1.366 . S
C1647 C1648 1.414 . S
C1647 C1650 1.499 . S
C1648 H1628 0.950 . S
C1648 C1647 1.414 . S
C1648 C1649 1.374 . S
C1649 H1629 0.950 . S
C1649 C1645 1.385 . S
C1649 C1648 1.374 . S
C1650 C1647 1.499 . S
C1650 C1651 1.373 . S
C1650 C1652 1.389 . S
C1651 H1630 0.950 . S
C1651 C1650 1.373 . S
C1651 C1667 1.377 . S
C1652 C1650 1.389 . S
C1652 C1653 1.524 . S
C1652 C1666 1.377 . S
C1653 C1652 1.524 . S
C1653 C1654 1.397 . S
C1653 C1658 1.363 . S
C1654 H1631 0.950 . S
C1654 C1653 1.397 . S
C1654 C1655 1.334 . S
C1655 H1632 0.950 . S
C1655 C1654 1.334 . S
C1655 C1656 1.287 . S
C1656 C1655 1.287 . S
C1656 C1657 1.524 . S
C1656 H1675 0.913 . S
C1657 H1633 0.950 . S
C1657 C1656 1.524 . S
C1657 C1658 1.415 . S
C1658 H1634 0.950 . S
C1658 C1653 1.363 . S
C1658 C1657 1.415 . S
C1659 H1635 0.951 . S
C1659 C1660 1.366 . S
C1659 C1661 1.388 . S
C1660 C1659 1.366 . S
C1660 C1664 1.385 . S
C1661 H1636 0.951 . S
C1661 C1659 1.388 . S
C1661 C1662 1.366 . S
C1662 C1661 1.366 . S
C1662 C1663 1.414 . S
C1662 C1665 1.499 . S
C1663 H1637 0.950 . S
C1663 C1662 1.414 . S
C1663 C1664 1.374 . S
C1664 H1638 0.950 . S
C1664 C1660 1.385 . S
C1664 C1663 1.374 . S
C1665 C1662 1.499 . S
C1665 C1666 1.373 . S
C1665 C1667 1.389 . S
C1666 H1639 0.950 . S
C1666 C1652 1.377 . S
C1666 C1665 1.373 . S
C1667 C1651 1.377 . S
C1667 C1665 1.389 . S
C1667 C1668 1.524 . S
C1668 C1667 1.524 . S
C1668 C1669 1.397 . S
C1668 C1673 1.363 . S
C1669 H1640 0.950 . S
C1669 C1668 1.397 . S
C1669 C1670 1.334 . S
C1670 H1641 0.950 . S
C1670 C1669 1.334 . S
C1670 C1671 1.287 . S
C1671 C1670 1.287 . S
C1671 C1672 1.524 . S
C1671 H1674 0.999 . S
C1672 H1642 0.950 . S
C1672 C1671 1.524 . S
C1672 C1673 1.415 . S
C1673 H1643 0.950 . S
C1673 C1668 1.363 . S
C1673 C1672 1.415 . S
H1674 C1671 0.999 . S
H1675 C1656 0.913 . S
H1676 C1694 0.951 . S
H1677 C1696 0.951 . S
H1678 C1698 0.950 . S
H1679 C1699 0.950 . S
H1680 C1701 0.950 . S
H1681 C1704 0.950 . S
H1682 C1705 0.950 . S
H1683 C1707 0.950 . S
H1684 C1708 0.950 . S
H1685 C1709 0.951 . S
H1686 C1711 0.951 . S
H1687 C1713 0.950 . S
H1688 C1714 0.950 . S
H1689 C1716 0.950 . S
H1690 C1719 0.950 . S
H1691 C1720 0.950 . S
H1692 C1722 0.950 . S
H1693 C1723 0.950 . S
C1694 H1676 0.951 . S
C1694 C1695 1.366 . S
C1694 C1696 1.388 . S
C1695 C1694 1.366 . S
C1695 C1699 1.385 . S
C1696 H1677 0.951 . S
C1696 C1694 1.388 . S
C1696 C1697 1.366 . S
C1697 C1696 1.366 . S
C1697 C1698 1.414 . S
C1697 C1700 1.499 . S
C1698 H1678 0.950 . S
C1698 C1697 1.414 . S
C1698 C1699 1.374 . S
C1699 H1679 0.950 . S
C1699 C1695 1.385 . S
C1699 C1698 1.374 . S
C1700 C1697 1.499 . S
C1700 C1701 1.373 . S
C1700 C1702 1.389 . S
C1701 H1680 0.950 . S
C1701 C1700 1.373 . S
C1701 C1717 1.377 . S
C1702 C1700 1.389 . S
C1702 C1703 1.524 . S
C1702 C1716 1.377 . S
C1703 C1702 1.524 . S
C1703 C1704 1.397 . S
C1703 C1708 1.363 . S
C1704 H1681 0.950 . S
C1704 C1703 1.397 . S
C1704 C1705 1.334 . S
C1705 H1682 0.950 . S
C1705 C1704 1.334 . S
C1705 C1706 1.287 . S
C1706 C1705 1.287 . S
C1706 C1707 1.524 . S
C1706 H1725 0.913 . S
C1707 H1683 0.950 . S
C1707 C1706 1.524 . S
C1707 C1708 1.415 . S
C1708 H1684 0.950 . S
C1708 C1703 1.363 . S
C1708 C1707 1.415 . S
C1709 H1685 0.951 . S
C1709 C1710 1.366 . S
C1709 C1711 1.388 . S
C1710 C1709 1.366 . S
C1710 C1714 1.385 . S
C1711 H1686 0.951 . S
C1711 C1709 1.388 . S
C1711 C1712 1.366 . S
C1712 C1711 1.366 . S
C1712 C1713 1.414 . S
C1712 C1715 1.499 . S
C1713 H1687 0.950 . S
C1713 C1712 1.414 . S
C1713 C1714 1.374 . S
C1714 H1688 0.950 . S
C1714 C1710 1.385 . S
C1714 C1713 1.374 . S
C1715 C1712 1.499 . S
C1715 C1716 1.373 . S
C1715 C1717 1.389 . S
C1716 H1689 0.950 . S
C1716 C1702 1.377 . S
C1716 C1715 1.373 . S
C1717 C1701 1.377 . S
C1717 C1715 1.389 . S
C1717 C1718 1.524 . S
C1718 C1717 1.524 . S
C1718 C1719 1.397 . S
C1718 C1723 1.363 . S
C1719 H1690 0.950 . S
C1719 C1718 1.397 . S
C1719 C1720 1.334 . S
C1720 H1691 0.950 . S
C1720 C1719 1.334 . S
C1720 C1721 1.287 . S
C1721 C1720 1.287 . S
C1721 C1722 1.524 . S
C1721 H1724 0.999 . S
C1722 H1692 0.950 . S
C1722 C1721 1.524 . S
C1722 C1723 1.415 . S
C1723 H1693 0.950 . S
C1723 C1718 1.363 . S
C1723 C1722 1.415 . S
H1724 C1721 0.999 . S
H1725 C1706 0.913 . S
H1726 C1744 0.951 . S
H1727 C1746 0.951 . S
H1728 C1748 0.950 . S
H1729 C1749 0.950 . S
H1730 C1751 0.950 . S
H1731 C1754 0.950 . S
H1732 C1755 0.950 . S
H1733 C1757 0.950 . S
H1734 C1758 0.950 . S
H1735 C1759 0.951 . S
H1736 C1761 0.951 . S
H1737 C1763 0.950 . S
H1738 C1764 0.950 . S
H1739 C1766 0.950 . S
H1740 C1769 0.950 . S
H1741 C1770 0.950 . S
H1742 C1772 0.950 . S
H1743 C1773 0.950 . S
C1744 H1726 0.951 . S
C1744 C1745 1.366 . S
C1744 C1746 1.388 . S
C1745 C1744 1.366 . S
C1745 C1749 1.385 . S
C1746 H1727 0.951 . S
C1746 C1744 1.388 . S
C1746 C1747 1.366 . S
C1747 C1746 1.366 . S
C1747 C1748 1.414 . S
C1747 C1750 1.499 . S
C1748 H1728 0.950 . S
C1748 C1747 1.414 . S
C1748 C1749 1.374 . S
C1749 H1729 0.950 . S
C1749 C1745 1.385 . S
C1749 C1748 1.374 . S
C1750 C1747 1.499 . S
C1750 C1751 1.373 . S
C1750 C1752 1.389 . S
C1751 H1730 0.950 . S
C1751 C1750 1.373 . S
C1751 C1767 1.377 . S
C1752 C1750 1.389 . S
C1752 C1753 1.524 . S
C1752 C1766 1.377 . S
C1753 C1752 1.524 . S
C1753 C1754 1.397 . S
C1753 C1758 1.363 . S
C1754 H1731 0.950 . S
C1754 C1753 1.397 . S
C1754 C1755 1.334 . S
C1755 H1732 0.950 . S
C1755 C1754 1.334 . S
C1755 C1756 1.287 . S
C1756 C1755 1.287 . S
C1756 C1757 1.524 . S
C1756 H1775 0.913 . S
C1757 H1733 0.950 . S
C1757 C1756 1.524 . S
C1757 C1758 1.415 . S
C1758 H1734 0.950 . S
C1758 C1753 1.363 . S
C1758 C1757 1.415 . S
C1759 H1735 0.951 . S
C1759 C1760 1.366 . S
C1759 C1761 1.388 . S
C1760 C1759 1.366 . S
C1760 C1764 1.385 . S
C1761 H1736 0.951 . S
C1761 C1759 1.388 . S
C1761 C1762 1.366 . S
C1762 C1761 1.366 . S
C1762 C1763 1.414 . S
C1762 C1765 1.499 . S
C1763 H1737 0.950 . S
C1763 C1762 1.414 . S
C1763 C1764 1.374 . S
C1764 H1738 0.950 . S
C1764 C1760 1.385 . S
C1764 C1763 1.374 . S
C1765 C1762 1.499 . S
C1765 C1766 1.373 . S
C1765 C1767 1.389 . S
C1766 H1739 0.950 . S
C1766 C1752 1.377 . S
C1766 C1765 1.373 . S
C1767 C1751 1.377 . S
C1767 C1765 1.389 . S
C1767 C1768 1.524 . S
C1768 C1767 1.524 . S
C1768 C1769 1.397 . S
C1768 C1773 1.363 . S
C1769 H1740 0.950 . S
C1769 C1768 1.397 . S
C1769 C1770 1.334 . S
C1770 H1741 0.950 . S
C1770 C1769 1.334 . S
C1770 C1771 1.287 . S
C1771 C1770 1.287 . S
C1771 C1772 1.524 . S
C1771 H1774 0.999 . S
C1772 H1742 0.950 . S
C1772 C1771 1.524 . S
C1772 C1773 1.415 . S
C1773 H1743 0.950 . S
C1773 C1768 1.363 . S
C1773 C1772 1.415 . S
H1774 C1771 0.999 . S
H1775 C1756 0.913 . S
H1776 C1794 0.954 . S
H1777 C1796 0.951 1_556 S
H1778 C1798 0.950 . S
H1779 C1799 0.950 . S
H1780 C1801 0.950 . S
H1781 C1804 0.950 . S
H1782 C1805 0.950 . S
H1783 C1807 0.950 . S
H1784 C1808 0.950 . S
H1785 C1809 0.951 . S
H1786 C1811 0.951 . S
H1787 C1813 0.950 . S
H1788 C1814 0.950 . S
H1789 C1816 0.950 . S
H1790 C1819 0.950 . S
H1791 C1820 0.950 . S
H1792 C1822 0.950 . S
H1793 C1823 0.950 . S
C1794 H1776 0.954 . S
C1794 C1795 1.363 1_556 S
C1794 C1796 1.388 1_556 S
C1795 C1794 1.363 1_554 S
C1795 C1799 1.385 . S
C1796 H1777 0.951 1_554 S
C1796 C1794 1.388 1_554 S
C1796 C1797 1.366 . S
C1797 C1796 1.366 . S
C1797 C1798 1.414 . S
C1797 C1800 1.499 . S
C1798 H1778 0.950 . S
C1798 C1797 1.414 . S
C1798 C1799 1.374 . S
C1799 H1779 0.950 . S
C1799 C1795 1.385 . S
C1799 C1798 1.374 . S
C1800 C1797 1.499 . S
C1800 C1801 1.373 . S
C1800 C1802 1.389 1_554 S
C1801 H1780 0.950 . S
C1801 C1800 1.373 . S
C1801 C1817 1.377 . S
C1802 C1800 1.389 1_556 S
C1802 C1803 1.524 . S
C1802 C1816 1.377 . S
C1803 C1802 1.524 . S
C1803 C1804 1.397 . S
C1803 C1808 1.363 . S
C1804 H1781 0.950 . S
C1804 C1803 1.397 . S
C1804 C1805 1.334 . S
C1805 H1782 0.950 . S
C1805 C1804 1.334 . S
C1805 C1806 1.287 . S
C1806 C1805 1.287 . S
C1806 C1807 1.524 . S
C1806 H1825 0.913 . S
C1807 H1783 0.950 . S
C1807 C1806 1.524 . S
C1807 C1808 1.415 . S
C1808 H1784 0.950 . S
C1808 C1803 1.363 . S
C1808 C1807 1.415 . S
C1809 H1785 0.951 . S
C1809 C1810 1.366 . S
C1809 C1811 1.388 . S
C1810 C1809 1.366 . S
C1810 C1814 1.385 . S
C1811 H1786 0.951 . S
C1811 C1809 1.388 . S
C1811 C1812 1.366 . S
C1812 C1811 1.366 . S
C1812 C1813 1.414 . S
C1812 C1815 1.499 . S
C1813 H1787 0.950 . S
C1813 C1812 1.414 . S
C1813 C1814 1.374 . S
C1814 H1788 0.950 . S
C1814 C1810 1.385 . S
C1814 C1813 1.374 . S
C1815 C1812 1.499 . S
C1815 C1816 1.373 1_554 S
C1815 C1817 1.389 . S
C1816 H1789 0.950 . S
C1816 C1802 1.377 . S
C1816 C1815 1.373 1_556 S
C1817 C1801 1.377 . S
C1817 C1815 1.389 . S
C1817 C1818 1.524 . S
C1818 C1817 1.524 . S
C1818 C1819 1.397 . S
C1818 C1823 1.363 . S
C1819 H1790 0.950 . S
C1819 C1818 1.397 . S
C1819 C1820 1.334 . S
C1820 H1791 0.950 . S
C1820 C1819 1.334 . S
C1820 C1821 1.287 . S
C1821 C1820 1.287 . S
C1821 C1822 1.524 . S
C1821 H1824 0.999 . S
C1822 H1792 0.950 . S
C1822 C1821 1.524 . S
C1822 C1823 1.415 . S
C1823 H1793 0.950 . S
C1823 C1818 1.363 . S
C1823 C1822 1.415 . S
H1824 C1821 0.999 . S
H1825 C1806 0.913 . S
H1826 C1844 0.951 . S
H1827 C1846 0.951 . S
H1828 C1848 0.950 . S
H1829 C1849 0.950 . S
H1830 C1851 0.950 . S
H1831 C1854 0.950 . S
H1832 C1855 0.950 . S
H1833 C1857 0.950 . S
H1834 C1858 0.950 1_554 S
H1835 C1859 0.951 . S
H1836 C1861 0.951 . S
H1837 C1863 0.950 . S
H1838 C1864 0.950 . S
H1839 C1866 0.944 1_556 S
H1840 C1869 0.950 . S
H1841 C1870 0.950 . S
H1842 C1872 0.950 . S
H1843 C1873 0.950 . S
C1844 H1826 0.951 . S
C1844 C1845 1.366 . S
C1844 C1846 1.388 . S
C1845 C1844 1.366 . S
C1845 C1849 1.385 . S
C1846 H1827 0.951 . S
C1846 C1844 1.388 . S
C1846 C1847 1.366 . S
C1847 C1846 1.366 . S
C1847 C1848 1.414 . S
C1847 C1850 1.499 . S
C1848 H1828 0.950 . S
C1848 C1847 1.414 . S
C1848 C1849 1.374 . S
C1849 H1829 0.950 . S
C1849 C1845 1.385 . S
C1849 C1848 1.374 . S
C1850 C1847 1.499 . S
C1850 C1851 1.373 . S
C1850 C1852 1.389 . S
C1851 H1830 0.950 . S
C1851 C1850 1.373 . S
C1851 C1867 1.377 . S
C1852 C1850 1.389 . S
C1852 C1853 1.524 1_554 S
C1852 C1866 1.377 . S
C1853 C1852 1.524 1_556 S
C1853 C1854 1.397 . S
C1853 C1858 1.363 . S
C1854 H1831 0.950 . S
C1854 C1853 1.397 . S
C1854 C1855 1.334 . S
C1855 H1832 0.950 . S
C1855 C1854 1.334 . S
C1855 C1856 1.287 . S
C1856 C1855 1.287 . S
C1856 C1857 1.524 . S
C1856 H1875 0.913 . S
C1857 H1833 0.950 . S
C1857 C1856 1.524 . S
C1857 C1858 1.415 . S
C1858 H1834 0.950 1_556 S
C1858 C1853 1.363 . S
C1858 C1857 1.415 . S
C1859 H1835 0.951 . S
C1859 C1860 1.366 . S
C1859 C1861 1.388 . S
C1860 C1859 1.366 . S
C1860 C1864 1.385 . S
C1861 H1836 0.951 . S
C1861 C1859 1.388 . S
C1861 C1862 1.366 . S
C1862 C1861 1.366 . S
C1862 C1863 1.414 . S
C1862 C1865 1.499 . S
C1863 H1837 0.950 . S
C1863 C1862 1.414 . S
C1863 C1864 1.374 . S
C1864 H1838 0.950 . S
C1864 C1860 1.385 . S
C1864 C1863 1.374 . S
C1865 C1862 1.499 . S
C1865 C1866 1.373 . S
C1865 C1867 1.389 . S
C1866 H1839 0.944 1_554 S
C1866 C1852 1.377 . S
C1866 C1865 1.373 . S
C1867 C1851 1.377 . S
C1867 C1865 1.389 . S
C1867 C1868 1.524 . S
C1868 C1867 1.524 . S
C1868 C1869 1.397 . S
C1868 C1873 1.363 . S
C1869 H1840 0.950 . S
C1869 C1868 1.397 . S
C1869 C1870 1.334 . S
C1870 H1841 0.950 . S
C1870 C1869 1.334 . S
C1870 C1871 1.287 . S
C1871 C1870 1.287 . S
C1871 C1872 1.524 . S
C1871 H1874 0.999 . S
C1872 H1842 0.950 . S
C1872 C1871 1.524 . S
C1872 C1873 1.415 . S
C1873 H1843 0.950 . S
C1873 C1868 1.363 . S
C1873 C1872 1.415 . S
H1874 C1871 0.999 . S
H1875 C1856 0.913 . S
H1876 C1894 0.951 . S
H1877 C1896 0.951 . S
H1878 C1898 0.950 . S
H1879 C1899 0.950 . S
H1880 C1901 0.950 . S
H1881 C1904 0.950 . S
H1882 C1905 0.950 . S
H1883 C1907 0.950 . S
H1884 C1908 0.950 . S
H1885 C1909 0.951 . S
H1886 C1911 0.951 . S
H1887 C1913 0.942 1_556 S
H1888 C1914 0.950 1_556 S
H1889 C1916 0.950 . S
H1890 C1919 0.950 . S
H1891 C1920 0.950 . S
H1892 C1922 0.951 1_554 S
H1893 C1923 0.950 . S
C1894 H1876 0.951 . S
C1894 C1895 1.366 . S
C1894 C1896 1.388 . S
C1895 C1894 1.366 . S
C1895 C1899 1.385 . S
C1896 H1877 0.951 . S
C1896 C1894 1.388 . S
C1896 C1897 1.366 . S
C1897 C1896 1.366 . S
C1897 C1898 1.414 . S
C1897 C1900 1.499 . S
C1898 H1878 0.950 . S
C1898 C1897 1.414 . S
C1898 C1899 1.374 . S
C1899 H1879 0.950 . S
C1899 C1895 1.385 . S
C1899 C1898 1.374 . S
C1900 C1897 1.499 . S
C1900 C1901 1.373 . S
C1900 C1902 1.389 . S
C1901 H1880 0.950 . S
C1901 C1900 1.373 . S
C1901 C1917 1.377 . S
C1902 C1900 1.389 . S
C1902 C1903 1.524 . S
C1902 C1916 1.377 . S
C1903 C1902 1.524 . S
C1903 C1904 1.397 . S
C1903 C1908 1.363 . S
C1904 H1881 0.950 . S
C1904 C1903 1.397 . S
C1904 C1905 1.334 . S
C1905 H1882 0.950 . S
C1905 C1904 1.334 . S
C1905 C1906 1.287 . S
C1906 C1905 1.287 . S
C1906 C1907 1.524 . S
C1906 H1925 0.913 . S
C1907 H1883 0.950 . S
C1907 C1906 1.524 . S
C1907 C1908 1.415 . S
C1908 H1884 0.950 . S
C1908 C1903 1.363 . S
C1908 C1907 1.415 . S
C1909 H1885 0.951 . S
C1909 C1910 1.366 . S
C1909 C1911 1.388 . S
C1910 C1909 1.366 . S
C1910 C1914 1.385 . S
C1911 H1886 0.951 . S
C1911 C1909 1.388 . S
C1911 C1912 1.366 . S
C1912 C1911 1.366 . S
C1912 C1913 1.414 . S
C1912 C1915 1.499 . S
C1913 H1887 0.942 1_554 S
C1913 C1912 1.414 . S
C1913 C1914 1.374 . S
C1914 H1888 0.950 1_554 S
C1914 C1910 1.385 . S
C1914 C1913 1.374 . S
C1915 C1912 1.499 . S
C1915 C1916 1.373 . S
C1915 C1917 1.389 . S
C1916 H1889 0.950 . S
C1916 C1902 1.377 . S
C1916 C1915 1.373 . S
C1917 C1901 1.377 . S
C1917 C1915 1.389 . S
C1917 C1918 1.524 1_554 S
C1918 C1917 1.524 1_556 S
C1918 C1919 1.397 . S
C1918 C1923 1.363 1_556 S
C1919 H1890 0.950 . S
C1919 C1918 1.397 . S
C1919 C1920 1.334 . S
C1920 H1891 0.950 . S
C1920 C1919 1.334 . S
C1920 C1921 1.287 . S
C1921 C1920 1.287 . S
C1921 C1922 1.524 . S
C1921 H1924 0.999 . S
C1922 H1892 0.951 1_556 S
C1922 C1921 1.524 . S
C1922 C1923 1.415 1_556 S
C1923 H1893 0.950 . S
C1923 C1918 1.363 1_554 S
C1923 C1922 1.415 1_554 S
H1924 C1921 0.999 . S
H1925 C1906 0.913 . S
H1926 C1944 0.951 . S
H1927 C1946 0.951 . S
H1928 C1948 0.950 . S
H1929 C1949 0.950 . S
H1930 C1951 0.950 . S
H1931 C1954 0.950 . S
H1932 C1955 0.950 . S
H1933 C1957 0.950 . S
H1934 C1958 0.950 . S
H1935 C1959 0.951 . S
H1936 C1961 0.951 . S
H1937 C1963 0.950 . S
H1938 C1964 0.950 . S
H1939 C1966 0.950 . S
H1940 C1969 0.950 . S
H1941 C1970 0.950 . S
H1942 C1972 0.950 . S
H1943 C1973 0.950 . S
C1944 H1926 0.951 . S
C1944 C1945 1.366 . S
C1944 C1946 1.388 . S
C1945 C1944 1.366 . S
C1945 C1949 1.385 . S
C1946 H1927 0.951 . S
C1946 C1944 1.388 . S
C1946 C1947 1.366 . S
C1947 C1946 1.366 . S
C1947 C1948 1.414 . S
C1947 C1950 1.499 . S
C1948 H1928 0.950 . S
C1948 C1947 1.414 . S
C1948 C1949 1.374 . S
C1949 H1929 0.950 . S
C1949 C1945 1.385 . S
C1949 C1948 1.374 . S
C1950 C1947 1.499 . S
C1950 C1951 1.373 . S
C1950 C1952 1.389 1_554 S
C1951 H1930 0.950 . S
C1951 C1950 1.373 . S
C1951 C1967 1.377 . S
C1952 C1950 1.389 1_556 S
C1952 C1953 1.524 . S
C1952 C1966 1.377 . S
C1953 C1952 1.524 . S
C1953 C1954 1.397 . S
C1953 C1958 1.363 . S
C1954 H1931 0.950 . S
C1954 C1953 1.397 . S
C1954 C1955 1.334 . S
C1955 H1932 0.950 . S
C1955 C1954 1.334 . S
C1955 C1956 1.287 . S
C1956 C1955 1.287 . S
C1956 C1957 1.524 . S
C1956 H1975 0.913 . S
C1957 H1933 0.950 . S
C1957 C1956 1.524 . S
C1957 C1958 1.415 . S
C1958 H1934 0.950 . S
C1958 C1953 1.363 . S
C1958 C1957 1.415 . S
C1959 H1935 0.951 . S
C1959 C1960 1.366 . S
C1959 C1961 1.388 . S
C1960 C1959 1.366 . S
C1960 C1964 1.385 . S
C1961 H1936 0.951 . S
C1961 C1959 1.388 . S
C1961 C1962 1.366 . S
C1962 C1961 1.366 . S
C1962 C1963 1.414 . S
C1962 C1965 1.499 . S
C1963 H1937 0.950 . S
C1963 C1962 1.414 . S
C1963 C1964 1.374 . S
C1964 H1938 0.950 . S
C1964 C1960 1.385 . S
C1964 C1963 1.374 . S
C1965 C1962 1.499 . S
C1965 C1966 1.373 1_554 S
C1965 C1967 1.389 . S
C1966 H1939 0.950 . S
C1966 C1952 1.377 . S
C1966 C1965 1.373 1_556 S
C1967 C1951 1.377 . S
C1967 C1965 1.389 . S
C1967 C1968 1.524 . S
C1968 C1967 1.524 . S
C1968 C1969 1.397 . S
C1968 C1973 1.363 . S
C1969 H1940 0.950 . S
C1969 C1968 1.397 . S
C1969 C1970 1.334 . S
C1970 H1941 0.950 . S
C1970 C1969 1.334 . S
C1970 C1971 1.287 . S
C1971 C1970 1.287 . S
C1971 C1972 1.524 . S
C1971 H1974 0.999 . S
C1972 H1942 0.950 . S
C1972 C1971 1.524 . S
C1972 C1973 1.415 . S
C1973 H1943 0.950 . S
C1973 C1968 1.363 . S
C1973 C1972 1.415 . S
H1974 C1971 0.999 . S
H1975 C1956 0.913 . S
H1976 C1994 0.951 . S
H1977 C1996 0.951 . S
H1978 C1998 0.950 . S
H1979 C1999 0.950 . S
H1980 C2001 0.950 . S
H1981 C2004 0.950 . S
H1982 C2005 0.950 . S
H1983 C2007 0.950 . S
H1984 C2008 0.950 . S
H1985 C2009 0.951 . S
H1986 C2011 0.951 . S
H1987 C2013 0.950 . S
H1988 C2014 0.950 1_655 S
H1989 C2016 0.950 . S
H1990 C2019 0.950 . S
H1991 C2020 0.950 . S
H1992 C2022 0.950 . S
H1993 C2023 0.950 . S
C1994 H1976 0.951 . S
C1994 C1995 1.341 1_655 S
C1994 C1996 1.388 . S
C1995 C1994 1.341 1_455 S
C1995 C1999 1.414 . S
C1996 H1977 0.951 . S
C1996 C1994 1.388 . S
C1996 C1997 1.366 1_655 S
C1997 C1996 1.366 1_455 S
C1997 C1998 1.414 . S
C1997 C2000 1.499 . S
C1998 H1978 0.950 . S
C1998 C1997 1.414 . S
C1998 C1999 1.374 . S
C1999 H1979 0.950 . S
C1999 C1995 1.414 . S
C1999 C1998 1.374 . S
C2000 C1997 1.499 . S
C2000 C2001 1.373 . S
C2000 C2002 1.389 . S
C2001 H1980 0.950 . S
C2001 C2000 1.373 . S
C2001 C2017 1.377 . S
C2002 C2000 1.389 . S
C2002 C2003 1.524 . S
C2002 C2016 1.377 . S
C2003 C2002 1.524 . S
C2003 C2004 1.397 . S
C2003 C2008 1.363 1_455 S
C2004 H1981 0.950 . S
C2004 C2003 1.397 . S
C2004 C2005 1.334 . S
C2005 H1982 0.950 . S
C2005 C2004 1.334 . S
C2005 C2006 1.287 . S
C2006 C2005 1.287 . S
C2006 C2007 1.524 1_455 S
C2006 H2025 0.913 . S
C2007 H1983 0.950 . S
C2007 C2006 1.524 1_655 S
C2007 C2008 1.415 . S
C2008 H1984 0.950 . S
C2008 C2003 1.363 1_655 S
C2008 C2007 1.415 . S
C2009 H1985 0.951 . S
C2009 C2010 1.366 . S
C2009 C2011 1.388 . S
C2010 C2009 1.366 . S
C2010 C2014 1.385 . S
C2011 H1986 0.951 . S
C2011 C2009 1.388 . S
C2011 C2012 1.366 . S
C2012 C2011 1.366 . S
C2012 C2013 1.414 1_455 S
C2012 C2015 1.499 . S
C2013 H1987 0.950 . S
C2013 C2012 1.414 1_655 S
C2013 C2014 1.374 1_655 S
C2014 H1988 0.950 1_455 S
C2014 C2010 1.385 . S
C2014 C2013 1.374 1_455 S
C2015 C2012 1.499 . S
C2015 C2016 1.373 . S
C2015 C2017 1.389 . S
C2016 H1989 0.950 . S
C2016 C2002 1.377 . S
C2016 C2015 1.373 . S
C2017 C2001 1.377 . S
C2017 C2015 1.389 . S
C2017 C2018 1.524 . S
C2018 C2017 1.524 . S
C2018 C2019 1.397 1_455 S
C2018 C2023 1.363 . S
C2019 H1990 0.950 . S
C2019 C2018 1.397 1_655 S
C2019 C2020 1.334 . S
C2020 H1991 0.950 . S
C2020 C2019 1.334 . S
C2020 C2021 1.287 1_655 S
C2021 C2020 1.287 1_455 S
C2021 C2022 1.524 . S
C2021 H2024 1.000 . S
C2022 H1992 0.950 . S
C2022 C2021 1.524 . S
C2022 C2023 1.415 . S
C2023 H1993 0.950 . S
C2023 C2018 1.363 . S
C2023 C2022 1.415 . S
H2024 C2021 1.000 . S
H2025 C2006 0.913 . S
H2026 C2044 0.951 . S
H2027 C2046 0.951 . S
H2028 C2048 0.950 . S
H2029 C2049 0.950 . S
H2030 C2051 0.950 . S
H2031 C2054 0.950 . S
H2032 C2055 0.950 . S
H2033 C2057 0.950 . S
H2034 C2058 0.950 . S
H2035 C2059 0.951 . S
H2036 C2061 0.951 . S
H2037 C2063 0.950 . S
H2038 C2064 0.950 . S
H2039 C2066 0.950 1_565 S
H2040 C2069 0.950 . S
H2041 C2070 0.950 . S
H2042 C2072 0.950 . S
H2043 C2073 0.950 . S
C2044 H2026 0.951 . S
C2044 C2045 1.366 . S
C2044 C2046 1.388 . S
C2045 C2044 1.366 . S
C2045 C2049 1.385 . S
C2046 H2027 0.951 . S
C2046 C2044 1.388 . S
C2046 C2047 1.366 . S
C2047 C2046 1.366 . S
C2047 C2048 1.414 . S
C2047 C2050 1.499 . S
C2048 H2028 0.950 . S
C2048 C2047 1.414 . S
C2048 C2049 1.374 . S
C2049 H2029 0.950 . S
C2049 C2045 1.385 . S
C2049 C2048 1.374 . S
C2050 C2047 1.499 . S
C2050 C2051 1.373 . S
C2050 C2052 1.361 1_545 S
C2051 H2030 0.950 . S
C2051 C2050 1.373 . S
C2051 C2067 1.377 . S
C2052 C2050 1.361 1_565 S
C2052 C2053 1.567 . S
C2052 C2066 1.369 1_565 S
C2053 C2052 1.567 . S
C2053 C2054 1.397 . S
C2053 C2058 1.363 . S
C2054 H2031 0.950 . S
C2054 C2053 1.397 . S
C2054 C2055 1.334 . S
C2055 H2032 0.950 . S
C2055 C2054 1.334 . S
C2055 C2056 1.287 . S
C2056 C2055 1.287 . S
C2056 C2057 1.524 . S
C2056 H2075 0.913 . S
C2057 H2033 0.950 . S
C2057 C2056 1.524 . S
C2057 C2058 1.415 . S
C2058 H2034 0.950 . S
C2058 C2053 1.363 . S
C2058 C2057 1.415 . S
C2059 H2035 0.951 . S
C2059 C2060 1.366 . S
C2059 C2061 1.388 . S
C2060 C2059 1.366 . S
C2060 C2064 1.385 . S
C2061 H2036 0.951 . S
C2061 C2059 1.388 . S
C2061 C2062 1.366 . S
C2062 C2061 1.366 . S
C2062 C2063 1.414 . S
C2062 C2065 1.499 . S
C2063 H2037 0.950 . S
C2063 C2062 1.414 . S
C2063 C2064 1.374 . S
C2064 H2038 0.950 . S
C2064 C2060 1.385 . S
C2064 C2063 1.374 . S
C2065 C2062 1.499 . S
C2065 C2066 1.373 . S
C2065 C2067 1.389 . S
C2066 H2039 0.950 1_545 S
C2066 C2052 1.369 1_545 S
C2066 C2065 1.373 . S
C2067 C2051 1.377 . S
C2067 C2065 1.389 . S
C2067 C2068 1.524 . S
C2068 C2067 1.524 . S
C2068 C2069 1.397 . S
C2068 C2073 1.363 . S
C2069 H2040 0.950 . S
C2069 C2068 1.397 . S
C2069 C2070 1.334 . S
C2070 H2041 0.950 . S
C2070 C2069 1.334 . S
C2070 C2071 1.287 . S
C2071 C2070 1.287 . S
C2071 C2072 1.524 . S
C2071 H2074 0.999 . S
C2072 H2042 0.950 . S
C2072 C2071 1.524 . S
C2072 C2073 1.415 . S
C2073 H2043 0.950 . S
C2073 C2068 1.363 . S
C2073 C2072 1.415 . S
H2074 C2071 0.999 . S
H2075 C2056 0.913 . S
H2076 C2094 0.951 . S
H2077 C2096 0.951 . S
H2078 C2098 0.950 1_655 S
H2079 C2099 0.942 1_655 S
H2080 C2101 0.950 1_655 S
H2081 C2104 0.950 . S
H2082 C2105 0.950 . S
H2083 C2107 0.950 . S
H2084 C2108 0.950 . S
H2085 C2109 0.951 1_655 S
H2086 C2111 0.951 1_655 S
H2087 C2113 0.950 . S
H2088 C2114 0.950 . S
H2089 C2116 0.950 . S
H2090 C2119 0.950 . S
H2091 C2120 0.950 . S
H2092 C2122 0.950 . S
H2093 C2123 0.950 . S
C2094 H2076 0.951 . S
C2094 C2095 1.366 . S
C2094 C2096 1.388 . S
C2095 C2094 1.366 . S
C2095 C2099 1.385 . S
C2096 H2077 0.951 . S
C2096 C2094 1.388 . S
C2096 C2097 1.366 . S
C2097 C2096 1.366 . S
C2097 C2098 1.414 . S
C2097 C2100 1.499 . S
C2098 H2078 0.950 1_455 S
C2098 C2097 1.414 . S
C2098 C2099 1.374 . S
C2099 H2079 0.942 1_455 S
C2099 C2095 1.385 . S
C2099 C2098 1.374 . S
C2100 C2097 1.499 . S
C2100 C2101 1.373 . S
C2100 C2102 1.389 . S
C2101 H2080 0.950 1_455 S
C2101 C2100 1.373 . S
C2101 C2117 1.377 . S
C2102 C2100 1.389 . S
C2102 C2103 1.524 . S
C2102 C2116 1.377 . S
C2103 C2102 1.524 . S
C2103 C2104 1.397 . S
C2103 C2108 1.363 . S
C2104 H2081 0.950 . S
C2104 C2103 1.397 . S
C2104 C2105 1.334 . S
C2105 H2082 0.950 . S
C2105 C2104 1.334 . S
C2105 C2106 1.287 . S
C2106 C2105 1.287 . S
C2106 C2107 1.524 . S
C2106 H2125 0.913 . S
C2107 H2083 0.950 . S
C2107 C2106 1.524 . S
C2107 C2108 1.415 . S
C2108 H2084 0.950 . S
C2108 C2103 1.363 . S
C2108 C2107 1.415 . S
C2109 H2085 0.951 1_455 S
C2109 C2110 1.366 . S
C2109 C2111 1.388 . S
C2110 C2109 1.366 . S
C2110 C2114 1.385 . S
C2111 H2086 0.951 1_455 S
C2111 C2109 1.388 . S
C2111 C2112 1.366 . S
C2112 C2111 1.366 . S
C2112 C2113 1.414 . S
C2112 C2115 1.499 . S
C2113 H2087 0.950 . S
C2113 C2112 1.414 . S
C2113 C2114 1.374 . S
C2114 H2088 0.950 . S
C2114 C2110 1.385 . S
C2114 C2113 1.374 . S
C2115 C2112 1.499 . S
C2115 C2116 1.373 . S
C2115 C2117 1.389 . S
C2116 H2089 0.950 . S
C2116 C2102 1.377 . S
C2116 C2115 1.373 . S
C2117 C2101 1.377 . S
C2117 C2115 1.389 . S
C2117 C2118 1.524 1_455 S
C2118 C2117 1.524 1_655 S
C2118 C2119 1.397 . S
C2118 C2123 1.363 . S
C2119 H2090 0.950 . S
C2119 C2118 1.397 . S
C2119 C2120 1.334 . S
C2120 H2091 0.950 . S
C2120 C2119 1.334 . S
C2120 C2121 1.287 . S
C2121 C2120 1.287 . S
C2121 C2122 1.524 . S
C2121 H2124 0.999 . S
C2122 H2092 0.950 . S
C2122 C2121 1.524 . S
C2122 C2123 1.415 . S
C2123 H2093 0.950 . S
C2123 C2118 1.363 . S
C2123 C2122 1.415 . S
H2124 C2121 0.999 . S
H2125 C2106 0.913 . S
H2126 C2144 0.951 . S
H2127 C2146 0.951 . S
H2128 C2148 0.950 . S
H2129 C2149 0.950 . S
H2130 C2151 0.950 . S
H2131 C2154 0.950 . S
H2132 C2155 0.950 . S
H2133 C2157 0.949 1_545 S
H2134 C2158 0.950 . S
H2135 C2159 0.951 . S
H2136 C2161 0.951 . S
H2137 C2163 0.950 . S
H2138 C2164 0.950 . S
H2139 C2166 0.950 . S
H2140 C2169 0.950 . S
H2141 C2170 0.950 . S
H2142 C2172 0.950 . S
H2143 C2173 0.950 . S
C2144 H2126 0.951 . S
C2144 C2145 1.366 . S
C2144 C2146 1.388 . S
C2145 C2144 1.366 . S
C2145 C2149 1.385 . S
C2146 H2127 0.951 . S
C2146 C2144 1.388 . S
C2146 C2147 1.366 . S
C2147 C2146 1.366 . S
C2147 C2148 1.414 . S
C2147 C2150 1.499 . S
C2148 H2128 0.950 . S
C2148 C2147 1.414 . S
C2148 C2149 1.374 . S
C2149 H2129 0.950 . S
C2149 C2145 1.385 . S
C2149 C2148 1.374 . S
C2150 C2147 1.499 . S
C2150 C2151 1.373 . S
C2150 C2152 1.389 . S
C2151 H2130 0.950 . S
C2151 C2150 1.373 . S
C2151 C2167 1.377 . S
C2152 C2150 1.389 . S
C2152 C2153 1.524 . S
C2152 C2166 1.377 . S
C2153 C2152 1.524 . S
C2153 C2154 1.397 1_545 S
C2153 C2158 1.363 . S
C2154 H2131 0.950 . S
C2154 C2153 1.397 1_565 S
C2154 C2155 1.334 . S
C2155 H2132 0.950 . S
C2155 C2154 1.334 . S
C2155 C2156 1.287 . S
C2156 C2155 1.287 . S
C2156 C2157 1.525 . S
C2156 H2175 0.913 . S
C2157 H2133 0.949 1_565 S
C2157 C2156 1.525 . S
C2157 C2158 1.414 1_565 S
C2158 H2134 0.950 . S
C2158 C2153 1.363 . S
C2158 C2157 1.414 1_545 S
C2159 H2135 0.951 . S
C2159 C2160 1.366 . S
C2159 C2161 1.388 . S
C2160 C2159 1.366 . S
C2160 C2164 1.385 . S
C2161 H2136 0.951 . S
C2161 C2159 1.388 . S
C2161 C2162 1.366 . S
C2162 C2161 1.366 . S
C2162 C2163 1.414 . S
C2162 C2165 1.499 . S
C2163 H2137 0.950 . S
C2163 C2162 1.414 . S
C2163 C2164 1.374 . S
C2164 H2138 0.950 . S
C2164 C2160 1.385 . S
C2164 C2163 1.374 . S
C2165 C2162 1.499 . S
C2165 C2166 1.373 . S
C2165 C2167 1.389 . S
C2166 H2139 0.950 . S
C2166 C2152 1.377 . S
C2166 C2165 1.373 . S
C2167 C2151 1.377 . S
C2167 C2165 1.389 . S
C2167 C2168 1.524 . S
C2168 C2167 1.524 . S
C2168 C2169 1.397 . S
C2168 C2173 1.363 . S
C2169 H2140 0.950 . S
C2169 C2168 1.397 . S
C2169 C2170 1.334 . S
C2170 H2141 0.950 . S
C2170 C2169 1.334 . S
C2170 C2171 1.287 . S
C2171 C2170 1.287 . S
C2171 C2172 1.524 . S
C2171 H2174 0.999 . S
C2172 H2142 0.950 . S
C2172 C2171 1.524 . S
C2172 C2173 1.415 . S
C2173 H2143 0.950 . S
C2173 C2168 1.363 . S
C2173 C2172 1.415 . S
H2174 C2171 0.999 . S
H2175 C2156 0.913 . S
H2176 C2194 0.951 . S
H2177 C2196 0.951 . S
H2178 C2198 0.950 . S
H2179 C2199 0.950 . S
H2180 C2201 0.950 . S
H2181 C2204 0.950 . S
H2182 C2205 0.950 . S
H2183 C2207 0.950 . S
H2184 C2208 0.950 . S
H2185 C2209 0.951 . S
H2186 C2211 0.951 . S
H2187 C2213 0.950 . S
H2188 C2214 0.950 . S
H2189 C2216 0.950 . S
H2190 C2219 0.950 1_655 S
H2191 C2220 0.950 . S
H2192 C2222 0.950 . S
H2193 C2223 0.950 . S
C2194 H2176 0.951 . S
C2194 C2195 1.366 . S
C2194 C2196 1.388 . S
C2195 C2194 1.366 . S
C2195 C2199 1.385 . S
C2196 H2177 0.951 . S
C2196 C2194 1.388 . S
C2196 C2197 1.366 . S
C2197 C2196 1.366 . S
C2197 C2198 1.414 . S
C2197 C2200 1.499 . S
C2198 H2178 0.950 . S
C2198 C2197 1.414 . S
C2198 C2199 1.374 . S
C2199 H2179 0.950 . S
C2199 C2195 1.385 . S
C2199 C2198 1.374 . S
C2200 C2197 1.499 . S
C2200 C2201 1.373 . S
C2200 C2202 1.389 . S
C2201 H2180 0.950 . S
C2201 C2200 1.373 . S
C2201 C2217 1.377 . S
C2202 C2200 1.389 . S
C2202 C2203 1.524 . S
C2202 C2216 1.377 . S
C2203 C2202 1.524 . S
C2203 C2204 1.397 . S
C2203 C2208 1.363 . S
C2204 H2181 0.950 . S
C2204 C2203 1.397 . S
C2204 C2205 1.334 . S
C2205 H2182 0.950 . S
C2205 C2204 1.334 . S
C2205 C2206 1.287 . S
C2206 C2205 1.287 . S
C2206 C2207 1.524 . S
C2206 H2225 0.913 . S
C2207 H2183 0.950 . S
C2207 C2206 1.524 . S
C2207 C2208 1.415 . S
C2208 H2184 0.950 . S
C2208 C2203 1.363 . S
C2208 C2207 1.415 . S
C2209 H2185 0.951 . S
C2209 C2210 1.366 . S
C2209 C2211 1.388 . S
C2210 C2209 1.366 . S
C2210 C2214 1.385 . S
C2211 H2186 0.951 . S
C2211 C2209 1.388 . S
C2211 C2212 1.366 . S
C2212 C2211 1.366 . S
C2212 C2213 1.414 . S
C2212 C2215 1.499 . S
C2213 H2187 0.950 . S
C2213 C2212 1.414 . S
C2213 C2214 1.374 . S
C2214 H2188 0.950 . S
C2214 C2210 1.385 . S
C2214 C2213 1.374 . S
C2215 C2212 1.499 . S
C2215 C2216 1.373 . S
C2215 C2217 1.389 . S
C2216 H2189 0.950 . S
C2216 C2202 1.377 . S
C2216 C2215 1.373 . S
C2217 C2201 1.377 . S
C2217 C2215 1.389 . S
C2217 C2218 1.524 . S
C2218 C2217 1.524 . S
C2218 C2219 1.397 . S
C2218 C2223 1.363 . S
C2219 H2190 0.950 1_455 S
C2219 C2218 1.397 . S
C2219 C2220 1.334 1_455 S
C2220 H2191 0.950 . S
C2220 C2219 1.334 1_655 S
C2220 C2221 1.276 1_655 S
C2221 C2220 1.276 1_455 S
C2221 C2222 1.549 . S
C2221 H2224 0.987 1_455 S
C2222 H2192 0.950 . S
C2222 C2221 1.549 . S
C2222 C2223 1.415 . S
C2223 H2193 0.950 . S
C2223 C2218 1.363 . S
C2223 C2222 1.415 . S
H2224 C2221 0.987 1_655 S
H2225 C2206 0.913 . S
H2226 C2244 0.951 . S
H2227 C2246 0.951 . S
H2228 C2248 0.950 . S
H2229 C2249 0.950 . S
H2230 C2251 0.950 . S
H2231 C2254 0.950 . S
H2232 C2255 0.950 . S
H2233 C2257 0.950 . S
H2234 C2258 0.950 . S
H2235 C2259 0.951 . S
H2236 C2261 0.951 . S
H2237 C2263 0.950 1_565 S
H2238 C2264 0.950 1_565 S
H2239 C2266 0.950 . S
H2240 C2269 0.950 . S
H2241 C2270 0.950 . S
H2242 C2272 0.950 . S
H2243 C2273 0.950 . S
C2244 H2226 0.951 . S
C2244 C2245 1.366 . S
C2244 C2246 1.388 . S
C2245 C2244 1.366 . S
C2245 C2249 1.385 . S
C2246 H2227 0.951 . S
C2246 C2244 1.388 . S
C2246 C2247 1.366 . S
C2247 C2246 1.366 . S
C2247 C2248 1.414 . S
C2247 C2250 1.499 . S
C2248 H2228 0.950 . S
C2248 C2247 1.414 . S
C2248 C2249 1.374 . S
C2249 H2229 0.950 . S
C2249 C2245 1.385 . S
C2249 C2248 1.374 . S
C2250 C2247 1.499 . S
C2250 C2251 1.373 . S
C2250 C2252 1.389 . S
C2251 H2230 0.950 . S
C2251 C2250 1.373 . S
C2251 C2267 1.377 . S
C2252 C2250 1.389 . S
C2252 C2253 1.524 . S
C2252 C2266 1.377 . S
C2253 C2252 1.524 . S
C2253 C2254 1.397 . S
C2253 C2258 1.363 1_545 S
C2254 H2231 0.950 . S
C2254 C2253 1.397 . S
C2254 C2255 1.334 . S
C2255 H2232 0.950 . S
C2255 C2254 1.334 . S
C2255 C2256 1.287 1_545 S
C2256 C2255 1.287 1_565 S
C2256 C2257 1.524 . S
C2256 H2275 0.913 . S
C2257 H2233 0.950 . S
C2257 C2256 1.524 . S
C2257 C2258 1.415 . S
C2258 H2234 0.950 . S
C2258 C2253 1.363 1_565 S
C2258 C2257 1.415 . S
C2259 H2235 0.951 . S
C2259 C2260 1.366 . S
C2259 C2261 1.388 . S
C2260 C2259 1.366 . S
C2260 C2264 1.385 . S
C2261 H2236 0.951 . S
C2261 C2259 1.388 . S
C2261 C2262 1.366 . S
C2262 C2261 1.366 . S
C2262 C2263 1.414 . S
C2262 C2265 1.499 . S
C2263 H2237 0.950 1_545 S
C2263 C2262 1.414 . S
C2263 C2264 1.374 . S
C2264 H2238 0.950 1_545 S
C2264 C2260 1.385 . S
C2264 C2263 1.374 . S
C2265 C2262 1.499 . S
C2265 C2266 1.373 . S
C2265 C2267 1.389 . S
C2266 H2239 0.950 . S
C2266 C2252 1.377 . S
C2266 C2265 1.373 . S
C2267 C2251 1.377 . S
C2267 C2265 1.389 . S
C2267 C2268 1.524 . S
C2268 C2267 1.524 . S
C2268 C2269 1.397 . S
C2268 C2273 1.363 . S
C2269 H2240 0.950 . S
C2269 C2268 1.397 . S
C2269 C2270 1.334 . S
C2270 H2241 0.950 . S
C2270 C2269 1.334 . S
C2270 C2271 1.287 . S
C2271 C2270 1.287 . S
C2271 C2272 1.524 . S
C2271 H2274 0.999 . S
C2272 H2242 0.950 . S
C2272 C2271 1.524 . S
C2272 C2273 1.415 . S
C2273 H2243 0.950 . S
C2273 C2268 1.363 . S
C2273 C2272 1.415 . S
H2274 C2271 0.999 . S
H2275 C2256 0.913 . S
H2276 C2294 0.951 . S
H2277 C2296 0.951 . S
H2278 C2298 0.950 . S
H2279 C2299 0.950 . S
H2280 C2301 0.950 . S
H2281 C2304 0.950 . S
H2282 C2305 0.950 . S
H2283 C2307 0.950 . S
H2284 C2308 0.950 . S
H2285 C2309 0.951 . S
H2286 C2311 0.951 . S
H2287 C2313 0.950 . S
H2288 C2314 0.950 . S
H2289 C2316 0.950 . S
H2290 C2319 0.950 . S
H2291 C2320 0.950 . S
H2292 C2322 0.950 . S
H2293 C2323 0.950 . S
C2294 H2276 0.951 . S
C2294 C2295 1.366 . S
C2294 C2296 1.388 . S
C2295 C2294 1.366 . S
C2295 C2299 1.385 . S
C2296 H2277 0.951 . S
C2296 C2294 1.388 . S
C2296 C2297 1.366 . S
C2297 C2296 1.366 . S
C2297 C2298 1.414 . S
C2297 C2300 1.499 . S
C2298 H2278 0.950 . S
C2298 C2297 1.414 . S
C2298 C2299 1.374 . S
C2299 H2279 0.950 . S
C2299 C2295 1.385 . S
C2299 C2298 1.374 . S
C2300 C2297 1.499 . S
C2300 C2301 1.373 . S
C2300 C2302 1.389 . S
C2301 H2280 0.950 . S
C2301 C2300 1.373 . S
C2301 C2317 1.377 . S
C2302 C2300 1.389 . S
C2302 C2303 1.524 1_455 S
C2302 C2316 1.377 . S
C2303 C2302 1.524 1_655 S
C2303 C2304 1.397 . S
C2303 C2308 1.363 . S
C2304 H2281 0.950 . S
C2304 C2303 1.397 . S
C2304 C2305 1.334 . S
C2305 H2282 0.950 . S
C2305 C2304 1.334 . S
C2305 C2306 1.287 . S
C2306 C2305 1.287 . S
C2306 C2307 1.524 . S
C2306 H2325 0.913 . S
C2307 H2283 0.950 . S
C2307 C2306 1.524 . S
C2307 C2308 1.415 . S
C2308 H2284 0.950 . S
C2308 C2303 1.363 . S
C2308 C2307 1.415 . S
C2309 H2285 0.951 . S
C2309 C2310 1.366 . S
C2309 C2311 1.388 . S
C2310 C2309 1.366 . S
C2310 C2314 1.385 . S
C2311 H2286 0.951 . S
C2311 C2309 1.388 . S
C2311 C2312 1.366 . S
C2312 C2311 1.366 . S
C2312 C2313 1.414 . S
C2312 C2315 1.499 . S
C2313 H2287 0.950 . S
C2313 C2312 1.414 . S
C2313 C2314 1.374 . S
C2314 H2288 0.950 . S
C2314 C2310 1.385 . S
C2314 C2313 1.374 . S
C2315 C2312 1.499 . S
C2315 C2316 1.373 . S
C2315 C2317 1.389 . S
C2316 H2289 0.950 . S
C2316 C2302 1.377 . S
C2316 C2315 1.373 . S
C2317 C2301 1.377 . S
C2317 C2315 1.389 . S
C2317 C2318 1.524 . S
C2318 C2317 1.524 . S
C2318 C2319 1.397 . S
C2318 C2323 1.363 . S
C2319 H2290 0.950 . S
C2319 C2318 1.397 . S
C2319 C2320 1.334 . S
C2320 H2291 0.950 . S
C2320 C2319 1.334 . S
C2320 C2321 1.287 . S
C2321 C2320 1.287 . S
C2321 C2322 1.524 . S
C2321 H2324 0.999 . S
C2322 H2292 0.950 . S
C2322 C2321 1.524 . S
C2322 C2323 1.415 . S
C2323 H2293 0.950 . S
C2323 C2318 1.363 . S
C2323 C2322 1.415 . S
H2324 C2321 0.999 . S
H2325 C2306 0.913 . S
H2326 C2344 0.951 . S
H2327 C2346 0.951 . S
H2328 C2348 0.944 1_565 S
H2329 C2349 0.950 . S
H2330 C2351 0.950 . S
H2331 C2354 0.950 . S
H2332 C2355 0.950 . S
H2333 C2357 0.950 . S
H2334 C2358 0.950 . S
H2335 C2359 0.951 . S
H2336 C2361 0.951 . S
H2337 C2363 0.950 . S
H2338 C2364 0.950 . S
H2339 C2366 0.950 . S
H2340 C2369 0.950 . S
H2341 C2370 0.950 . S
H2342 C2372 0.950 . S
H2343 C2373 0.950 . S
C2344 H2326 0.951 . S
C2344 C2345 1.366 . S
C2344 C2346 1.388 . S
C2345 C2344 1.366 . S
C2345 C2349 1.385 1_545 S
C2346 H2327 0.951 . S
C2346 C2344 1.388 . S
C2346 C2347 1.366 . S
C2347 C2346 1.366 . S
C2347 C2348 1.424 . S
C2347 C2350 1.499 . S
C2348 H2328 0.944 1_545 S
C2348 C2347 1.424 . S
C2348 C2349 1.371 1_545 S
C2349 H2329 0.950 . S
C2349 C2345 1.385 1_565 S
C2349 C2348 1.371 1_565 S
C2350 C2347 1.499 . S
C2350 C2351 1.373 1_545 S
C2350 C2352 1.389 . S
C2351 H2330 0.950 . S
C2351 C2350 1.373 1_565 S
C2351 C2367 1.377 . S
C2352 C2350 1.389 . S
C2352 C2353 1.524 . S
C2352 C2366 1.377 . S
C2353 C2352 1.524 . S
C2353 C2354 1.397 . S
C2353 C2358 1.363 . S
C2354 H2331 0.950 . S
C2354 C2353 1.397 . S
C2354 C2355 1.334 . S
C2355 H2332 0.950 . S
C2355 C2354 1.334 . S
C2355 C2356 1.287 . S
C2356 C2355 1.287 . S
C2356 C2357 1.524 . S
C2356 H2375 0.913 . S
C2357 H2333 0.950 . S
C2357 C2356 1.524 . S
C2357 C2358 1.415 . S
C2358 H2334 0.950 . S
C2358 C2353 1.363 . S
C2358 C2357 1.415 . S
C2359 H2335 0.951 . S
C2359 C2360 1.366 . S
C2359 C2361 1.388 . S
C2360 C2359 1.366 . S
C2360 C2364 1.385 . S
C2361 H2336 0.951 . S
C2361 C2359 1.388 . S
C2361 C2362 1.366 . S
C2362 C2361 1.366 . S
C2362 C2363 1.414 . S
C2362 C2365 1.499 . S
C2363 H2337 0.950 . S
C2363 C2362 1.414 . S
C2363 C2364 1.374 . S
C2364 H2338 0.950 . S
C2364 C2360 1.385 . S
C2364 C2363 1.374 . S
C2365 C2362 1.499 . S
C2365 C2366 1.373 . S
C2365 C2367 1.389 1_545 S
C2366 H2339 0.950 . S
C2366 C2352 1.377 . S
C2366 C2365 1.373 . S
C2367 C2351 1.377 . S
C2367 C2365 1.389 1_565 S
C2367 C2368 1.524 . S
C2368 C2367 1.524 . S
C2368 C2369 1.397 . S
C2368 C2373 1.363 . S
C2369 H2340 0.950 . S
C2369 C2368 1.397 . S
C2369 C2370 1.334 . S
C2370 H2341 0.950 . S
C2370 C2369 1.334 . S
C2370 C2371 1.287 . S
C2371 C2370 1.287 . S
C2371 C2372 1.524 . S
C2371 H2374 0.999 . S
C2372 H2342 0.950 . S
C2372 C2371 1.524 . S
C2372 C2373 1.415 . S
C2373 H2343 0.950 . S
C2373 C2368 1.363 . S
C2373 C2372 1.415 . S
H2374 C2371 0.999 . S
H2375 C2356 0.913 . S
H2376 C2394 0.951 . S
H2377 C2396 0.951 . S
H2378 C2398 0.950 . S
H2379 C2399 0.950 . S
H2380 C2401 0.950 . S
H2381 C2404 0.950 . S
H2382 C2405 0.938 1_655 S
H2383 C2407 0.950 . S
H2384 C2408 0.950 . S
H2385 C2409 0.951 . S
H2386 C2411 0.951 . S
H2387 C2413 0.950 . S
H2388 C2414 0.950 . S
H2389 C2416 0.950 . S
H2390 C2419 0.950 . S
H2391 C2420 0.950 . S
H2392 C2422 0.950 . S
H2393 C2423 0.950 . S
C2394 H2376 0.951 . S
C2394 C2395 1.366 . S
C2394 C2396 1.388 . S
C2395 C2394 1.366 . S
C2395 C2399 1.385 . S
C2396 H2377 0.951 . S
C2396 C2394 1.388 . S
C2396 C2397 1.366 . S
C2397 C2396 1.366 . S
C2397 C2398 1.414 . S
C2397 C2400 1.499 . S
C2398 H2378 0.950 . S
C2398 C2397 1.414 . S
C2398 C2399 1.374 . S
C2399 H2379 0.950 . S
C2399 C2395 1.385 . S
C2399 C2398 1.374 . S
C2400 C2397 1.499 . S
C2400 C2401 1.373 . S
C2400 C2402 1.389 . S
C2401 H2380 0.950 . S
C2401 C2400 1.373 . S
C2401 C2417 1.377 . S
C2402 C2400 1.389 . S
C2402 C2403 1.524 . S
C2402 C2416 1.377 . S
C2403 C2402 1.524 . S
C2403 C2404 1.397 . S
C2403 C2408 1.363 . S
C2404 H2381 0.950 . S
C2404 C2403 1.397 . S
C2404 C2405 1.340 . S
C2405 H2382 0.938 1_455 S
C2405 C2404 1.340 . S
C2405 C2406 1.293 . S
C2406 C2405 1.293 . S
C2406 C2407 1.524 . S
C2406 H2425 0.913 . S
C2407 H2383 0.950 . S
C2407 C2406 1.524 . S
C2407 C2408 1.415 . S
C2408 H2384 0.950 . S
C2408 C2403 1.363 . S
C2408 C2407 1.415 . S
C2409 H2385 0.951 . S
C2409 C2410 1.366 . S
C2409 C2411 1.388 . S
C2410 C2409 1.366 . S
C2410 C2414 1.385 . S
C2411 H2386 0.951 . S
C2411 C2409 1.388 . S
C2411 C2412 1.366 . S
C2412 C2411 1.366 . S
C2412 C2413 1.414 . S
C2412 C2415 1.499 . S
C2413 H2387 0.950 . S
C2413 C2412 1.414 . S
C2413 C2414 1.374 . S
C2414 H2388 0.950 . S
C2414 C2410 1.385 . S
C2414 C2413 1.374 . S
C2415 C2412 1.499 . S
C2415 C2416 1.373 . S
C2415 C2417 1.389 . S
C2416 H2389 0.950 . S
C2416 C2402 1.377 . S
C2416 C2415 1.373 . S
C2417 C2401 1.377 . S
C2417 C2415 1.389 . S
C2417 C2418 1.524 . S
C2418 C2417 1.524 . S
C2418 C2419 1.397 . S
C2418 C2423 1.363 . S
C2419 H2390 0.950 . S
C2419 C2418 1.397 . S
C2419 C2420 1.334 . S
C2420 H2391 0.950 . S
C2420 C2419 1.334 . S
C2420 C2421 1.287 . S
C2421 C2420 1.287 . S
C2421 C2422 1.524 . S
C2421 H2424 0.999 . S
C2422 H2392 0.950 . S
C2422 C2421 1.524 . S
C2422 C2423 1.415 . S
C2423 H2393 0.950 . S
C2423 C2418 1.363 . S
C2423 C2422 1.415 . S
H2424 C2421 0.999 . S
H2425 C2406 0.913 . S
H2426 C2444 0.951 . S
H2427 C2446 0.951 . S
H2428 C2448 0.950 . S
H2429 C2449 0.950 . S
H2430 C2451 0.950 . S
H2431 C2454 0.950 1_545 S
H2432 C2455 0.950 . S
H2433 C2457 0.950 . S
H2434 C2458 0.950 . S
H2435 C2459 0.951 . S
H2436 C2461 0.951 . S
H2437 C2463 0.950 . S
H2438 C2464 0.950 . S
H2439 C2466 0.952 1_565 S
H2440 C2469 0.950 . S
H2441 C2470 0.950 . S
H2442 C2472 0.950 . S
H2443 C2473 0.950 . S
C2444 H2426 0.951 . S
C2444 C2445 1.366 . S
C2444 C2446 1.388 . S
C2445 C2444 1.366 . S
C2445 C2449 1.385 . S
C2446 H2427 0.951 . S
C2446 C2444 1.388 . S
C2446 C2447 1.366 . S
C2447 C2446 1.366 . S
C2447 C2448 1.414 . S
C2447 C2450 1.499 . S
C2448 H2428 0.950 . S
C2448 C2447 1.414 . S
C2448 C2449 1.374 . S
C2449 H2429 0.950 . S
C2449 C2445 1.385 . S
C2449 C2448 1.374 . S
C2450 C2447 1.499 . S
C2450 C2451 1.373 . S
C2450 C2452 1.389 . S
C2451 H2430 0.950 . S
C2451 C2450 1.373 . S
C2451 C2467 1.377 . S
C2452 C2450 1.389 . S
C2452 C2453 1.524 1_545 S
C2452 C2466 1.377 . S
C2453 C2452 1.524 1_565 S
C2453 C2454 1.397 . S
C2453 C2458 1.363 . S
C2454 H2431 0.950 1_565 S
C2454 C2453 1.397 . S
C2454 C2455 1.334 . S
C2455 H2432 0.950 . S
C2455 C2454 1.334 . S
C2455 C2456 1.287 . S
C2456 C2455 1.287 . S
C2456 C2457 1.524 . S
C2456 H2475 0.913 . S
C2457 H2433 0.950 . S
C2457 C2456 1.524 . S
C2457 C2458 1.415 . S
C2458 H2434 0.950 . S
C2458 C2453 1.363 . S
C2458 C2457 1.415 . S
C2459 H2435 0.951 . S
C2459 C2460 1.366 . S
C2459 C2461 1.388 . S
C2460 C2459 1.366 . S
C2460 C2464 1.385 . S
C2461 H2436 0.951 . S
C2461 C2459 1.388 . S
C2461 C2462 1.366 . S
C2462 C2461 1.366 . S
C2462 C2463 1.414 . S
C2462 C2465 1.499 . S
C2463 H2437 0.950 . S
C2463 C2462 1.414 . S
C2463 C2464 1.374 . S
C2464 H2438 0.950 . S
C2464 C2460 1.385 . S
C2464 C2463 1.374 . S
C2465 C2462 1.499 . S
C2465 C2466 1.373 . S
C2465 C2467 1.389 . S
C2466 H2439 0.952 1_545 S
C2466 C2452 1.377 . S
C2466 C2465 1.373 . S
C2467 C2451 1.377 . S
C2467 C2465 1.389 . S
C2467 C2468 1.524 . S
C2468 C2467 1.524 . S
C2468 C2469 1.397 . S
C2468 C2473 1.363 . S
C2469 H2440 0.950 . S
C2469 C2468 1.397 . S
C2469 C2470 1.334 . S
C2470 H2441 0.950 . S
C2470 C2469 1.334 . S
C2470 C2471 1.287 . S
C2471 C2470 1.287 . S
C2471 C2472 1.524 . S
C2471 H2474 0.999 . S
C2472 H2442 0.950 . S
C2472 C2471 1.524 . S
C2472 C2473 1.415 . S
C2473 H2443 0.950 . S
C2473 C2468 1.363 . S
C2473 C2472 1.415 . S
H2474 C2471 0.999 . S
H2475 C2456 0.913 . S
H2476 C2494 0.951 1_655 S
H2477 C2496 0.951 1_655 S
H2478 C2498 0.950 . S
H2479 C2499 0.950 . S
H2480 C2501 0.950 . S
H2481 C2504 0.950 . S
H2482 C2505 0.959 . S
H2483 C2507 0.950 . S
H2484 C2508 0.950 . S
H2485 C2509 0.951 . S
H2486 C2511 0.951 . S
H2487 C2513 0.950 1_655 S
H2488 C2514 0.950 1_655 S
H2489 C2516 0.950 . S
H2490 C2519 0.950 . S
H2491 C2520 0.950 . S
H2492 C2522 0.950 . S
H2493 C2523 0.950 . S
C2494 H2476 0.951 1_455 S
C2494 C2495 1.366 . S
C2494 C2496 1.388 . S
C2495 C2494 1.366 . S
C2495 C2499 1.385 . S
C2496 H2477 0.951 1_455 S
C2496 C2494 1.388 . S
C2496 C2497 1.366 . S
C2497 C2496 1.366 . S
C2497 C2498 1.414 . S
C2497 C2500 1.499 . S
C2498 H2478 0.950 . S
C2498 C2497 1.414 . S
C2498 C2499 1.374 . S
C2499 H2479 0.950 . S
C2499 C2495 1.385 . S
C2499 C2498 1.374 . S
C2500 C2497 1.499 . S
C2500 C2501 1.373 . S
C2500 C2502 1.389 . S
C2501 H2480 0.950 . S
C2501 C2500 1.373 . S
C2501 C2517 1.377 . S
C2502 C2500 1.389 . S
C2502 C2503 1.524 1_455 S
C2502 C2516 1.377 . S
C2503 C2502 1.524 1_655 S
C2503 C2504 1.397 1_655 S
C2503 C2508 1.363 . S
C2504 H2481 0.950 . S
C2504 C2503 1.397 1_455 S
C2504 C2505 1.334 1_455 S
C2505 H2482 0.959 . S
C2505 C2504 1.334 1_655 S
C2505 C2506 1.287 . S
C2506 C2505 1.287 . S
C2506 C2507 1.524 . S
C2506 H2525 0.913 . S
C2507 H2483 0.950 . S
C2507 C2506 1.524 . S
C2507 C2508 1.415 . S
C2508 H2484 0.950 . S
C2508 C2503 1.363 . S
C2508 C2507 1.415 . S
C2509 H2485 0.951 . S
C2509 C2510 1.366 . S
C2509 C2511 1.388 . S
C2510 C2509 1.366 . S
C2510 C2514 1.385 . S
C2511 H2486 0.951 . S
C2511 C2509 1.388 . S
C2511 C2512 1.366 . S
C2512 C2511 1.366 . S
C2512 C2513 1.414 . S
C2512 C2515 1.499 . S
C2513 H2487 0.950 1_455 S
C2513 C2512 1.414 . S
C2513 C2514 1.374 . S
C2514 H2488 0.950 1_455 S
C2514 C2510 1.385 . S
C2514 C2513 1.374 . S
C2515 C2512 1.499 . S
C2515 C2516 1.373 . S
C2515 C2517 1.389 . S
C2516 H2489 0.950 . S
C2516 C2502 1.377 . S
C2516 C2515 1.373 . S
C2517 C2501 1.377 . S
C2517 C2515 1.389 . S
C2517 C2518 1.524 . S
C2518 C2517 1.524 . S
C2518 C2519 1.397 . S
C2518 C2523 1.363 . S
C2519 H2490 0.950 . S
C2519 C2518 1.397 . S
C2519 C2520 1.334 . S
C2520 H2491 0.950 . S
C2520 C2519 1.334 . S
C2520 C2521 1.287 . S
C2521 C2520 1.287 . S
C2521 C2522 1.524 . S
C2521 H2524 0.999 . S
C2522 H2492 0.950 . S
C2522 C2521 1.524 . S
C2522 C2523 1.415 . S
C2523 H2493 0.950 . S
C2523 C2518 1.363 . S
C2523 C2522 1.415 . S
H2524 C2521 0.999 . S
H2525 C2506 0.913 . S
H2526 C2544 0.951 . S
H2527 C2546 0.951 . S
H2528 C2548 0.950 . S
H2529 C2549 0.950 . S
H2530 C2551 0.950 . S
H2531 C2554 0.950 . S
H2532 C2555 0.950 . S
H2533 C2557 0.950 1_565 S
H2534 C2558 0.950 1_565 S
H2535 C2559 0.951 . S
H2536 C2561 0.951 . S
H2537 C2563 0.950 1_565 S
H2538 C2564 0.950 1_565 S
H2539 C2566 0.950 . S
H2540 C2569 0.950 . S
H2541 C2570 0.950 . S
H2542 C2572 0.950 . S
H2543 C2573 0.950 . S
C2544 H2526 0.951 . S
C2544 C2545 1.366 1_565 S
C2544 C2546 1.388 . S
C2545 C2544 1.366 1_545 S
C2545 C2549 1.385 . S
C2546 H2527 0.951 . S
C2546 C2544 1.388 . S
C2546 C2547 1.366 1_565 S
C2547 C2546 1.366 1_545 S
C2547 C2548 1.414 . S
C2547 C2550 1.499 . S
C2548 H2528 0.950 . S
C2548 C2547 1.414 . S
C2548 C2549 1.374 . S
C2549 H2529 0.950 . S
C2549 C2545 1.385 . S
C2549 C2548 1.374 . S
C2550 C2547 1.499 . S
C2550 C2551 1.373 . S
C2550 C2552 1.389 . S
C2551 H2530 0.950 . S
C2551 C2550 1.373 . S
C2551 C2567 1.377 . S
C2552 C2550 1.389 . S
C2552 C2553 1.524 . S
C2552 C2566 1.377 . S
C2553 C2552 1.524 . S
C2553 C2554 1.397 . S
C2553 C2558 1.363 . S
C2554 H2531 0.950 . S
C2554 C2553 1.397 . S
C2554 C2555 1.334 . S
C2555 H2532 0.950 . S
C2555 C2554 1.334 . S
C2555 C2556 1.287 . S
C2556 C2555 1.287 . S
C2556 C2557 1.524 . S
C2556 H2575 0.913 . S
C2557 H2533 0.950 1_545 S
C2557 C2556 1.524 . S
C2557 C2558 1.415 . S
C2558 H2534 0.950 1_545 S
C2558 C2553 1.363 . S
C2558 C2557 1.415 . S
C2559 H2535 0.951 . S
C2559 C2560 1.366 . S
C2559 C2561 1.388 . S
C2560 C2559 1.366 . S
C2560 C2564 1.385 . S
C2561 H2536 0.951 . S
C2561 C2559 1.388 . S
C2561 C2562 1.366 . S
C2562 C2561 1.366 . S
C2562 C2563 1.414 . S
C2562 C2565 1.499 . S
C2563 H2537 0.950 1_545 S
C2563 C2562 1.414 . S
C2563 C2564 1.374 . S
C2564 H2538 0.950 1_545 S
C2564 C2560 1.385 . S
C2564 C2563 1.374 . S
C2565 C2562 1.499 . S
C2565 C2566 1.373 . S
C2565 C2567 1.389 . S
C2566 H2539 0.950 . S
C2566 C2552 1.377 . S
C2566 C2565 1.373 . S
C2567 C2551 1.377 . S
C2567 C2565 1.389 . S
C2567 C2568 1.524 . S
C2568 C2567 1.524 . S
C2568 C2569 1.397 1_545 S
C2568 C2573 1.363 . S
C2569 H2540 0.950 . S
C2569 C2568 1.397 1_565 S
C2569 C2570 1.334 . S
C2570 H2541 0.950 . S
C2570 C2569 1.334 . S
C2570 C2571 1.287 . S
C2571 C2570 1.287 . S
C2571 C2572 1.524 1_565 S
C2571 H2574 0.999 . S
C2572 H2542 0.950 . S
C2572 C2571 1.524 1_545 S
C2572 C2573 1.415 . S
C2573 H2543 0.950 . S
C2573 C2568 1.363 . S
C2573 C2572 1.415 . S
H2574 C2571 0.999 . S
H2575 C2556 0.913 . S
H2576 C2594 0.951 . S
H2577 C2596 0.951 . S
H2578 C2598 0.950 . S
H2579 C2599 0.950 . S
H2580 C2601 0.950 . S
H2581 C2604 0.950 . S
H2582 C2605 0.950 . S
H2583 C2607 0.950 . S
H2584 C2608 0.950 . S
H2585 C2609 0.951 . S
H2586 C2611 0.951 . S
H2587 C2613 0.950 1_655 S
H2588 C2614 0.950 . S
H2589 C2616 0.950 . S
H2590 C2619 0.950 . S
H2591 C2620 0.950 . S
H2592 C2622 0.950 . S
H2593 C2623 0.950 . S
C2594 H2576 0.951 . S
C2594 C2595 1.366 1_655 S
C2594 C2596 1.388 . S
C2595 C2594 1.366 1_455 S
C2595 C2599 1.385 . S
C2596 H2577 0.951 . S
C2596 C2594 1.388 . S
C2596 C2597 1.366 1_655 S
C2597 C2596 1.366 1_455 S
C2597 C2598 1.414 . S
C2597 C2600 1.499 . S
C2598 H2578 0.950 . S
C2598 C2597 1.414 . S
C2598 C2599 1.374 . S
C2599 H2579 0.950 . S
C2599 C2595 1.385 . S
C2599 C2598 1.374 . S
C2600 C2597 1.499 . S
C2600 C2601 1.373 . S
C2600 C2602 1.389 1_455 S
C2601 H2580 0.950 . S
C2601 C2600 1.373 . S
C2601 C2617 1.377 . S
C2602 C2600 1.389 1_655 S
C2602 C2603 1.524 . S
C2602 C2616 1.377 . S
C2603 C2602 1.524 . S
C2603 C2604 1.397 . S
C2603 C2608 1.363 . S
C2604 H2581 0.950 . S
C2604 C2603 1.397 . S
C2604 C2605 1.334 . S
C2605 H2582 0.950 . S
C2605 C2604 1.334 . S
C2605 C2606 1.287 . S
C2606 C2605 1.287 . S
C2606 C2607 1.524 . S
C2606 H2625 0.913 . S
C2607 H2583 0.950 . S
C2607 C2606 1.524 . S
C2607 C2608 1.415 . S
C2608 H2584 0.950 . S
C2608 C2603 1.363 . S
C2608 C2607 1.415 . S
C2609 H2585 0.951 . S
C2609 C2610 1.366 . S
C2609 C2611 1.388 . S
C2610 C2609 1.366 . S
C2610 C2614 1.385 . S
C2611 H2586 0.951 . S
C2611 C2609 1.388 . S
C2611 C2612 1.366 . S
C2612 C2611 1.366 . S
C2612 C2613 1.414 . S
C2612 C2615 1.499 . S
C2613 H2587 0.950 1_455 S
C2613 C2612 1.414 . S
C2613 C2614 1.374 . S
C2614 H2588 0.950 . S
C2614 C2610 1.385 . S
C2614 C2613 1.374 . S
C2615 C2612 1.499 . S
C2615 C2616 1.373 1_455 S
C2615 C2617 1.389 . S
C2616 H2589 0.950 . S
C2616 C2602 1.377 . S
C2616 C2615 1.373 1_655 S
C2617 C2601 1.377 . S
C2617 C2615 1.389 . S
C2617 C2618 1.524 . S
C2618 C2617 1.524 . S
C2618 C2619 1.397 . S
C2618 C2623 1.363 . S
C2619 H2590 0.950 . S
C2619 C2618 1.397 . S
C2619 C2620 1.334 . S
C2620 H2591 0.950 . S
C2620 C2619 1.334 . S
C2620 C2621 1.287 . S
C2621 C2620 1.287 . S
C2621 C2622 1.524 . S
C2621 H2624 0.999 . S
C2622 H2592 0.950 . S
C2622 C2621 1.524 . S
C2622 C2623 1.415 . S
C2623 H2593 0.950 . S
C2623 C2618 1.363 . S
C2623 C2622 1.415 . S
H2624 C2621 0.999 . S
H2625 C2606 0.913 . S
H2626 C2644 0.951 . S
H2627 C2646 0.951 . S
H2628 C2648 0.950 . S
H2629 C2649 0.950 . S
H2630 C2651 0.950 . S
H2631 C2654 0.950 . S
H2632 C2655 0.950 . S
H2633 C2657 0.950 . S
H2634 C2658 0.950 . S
H2635 C2659 0.951 . S
H2636 C2661 0.951 . S
H2637 C2663 0.950 . S
H2638 C2664 0.950 . S
H2639 C2666 0.950 1_565 S
H2640 C2669 0.950 . S
H2641 C2670 0.950 . S
H2642 C2672 0.950 . S
H2643 C2673 0.950 . S
C2644 H2626 0.951 . S
C2644 C2645 1.366 . S
C2644 C2646 1.388 . S
C2645 C2644 1.366 . S
C2645 C2649 1.385 . S
C2646 H2627 0.951 . S
C2646 C2644 1.388 . S
C2646 C2647 1.366 . S
C2647 C2646 1.366 . S
C2647 C2648 1.414 . S
C2647 C2650 1.499 . S
C2648 H2628 0.950 . S
C2648 C2647 1.414 . S
C2648 C2649 1.374 . S
C2649 H2629 0.950 . S
C2649 C2645 1.385 . S
C2649 C2648 1.374 . S
C2650 C2647 1.499 . S
C2650 C2651 1.373 . S
C2650 C2652 1.402 . S
C2651 H2630 0.950 . S
C2651 C2650 1.373 . S
C2651 C2667 1.377 . S
C2652 C2650 1.402 . S
C2652 C2653 1.507 1_545 S
C2652 C2666 1.380 . S
C2653 C2652 1.507 1_565 S
C2653 C2654 1.397 . S
C2653 C2658 1.363 . S
C2654 H2631 0.950 . S
C2654 C2653 1.397 . S
C2654 C2655 1.334 . S
C2655 H2632 0.950 . S
C2655 C2654 1.334 . S
C2655 C2656 1.287 . S
C2656 C2655 1.287 . S
C2656 C2657 1.524 . S
C2656 H2675 0.913 . S
C2657 H2633 0.950 . S
C2657 C2656 1.524 . S
C2657 C2658 1.415 . S
C2658 H2634 0.950 . S
C2658 C2653 1.363 . S
C2658 C2657 1.415 . S
C2659 H2635 0.951 . S
C2659 C2660 1.366 . S
C2659 C2661 1.388 . S
C2660 C2659 1.366 . S
C2660 C2664 1.385 . S
C2661 H2636 0.951 . S
C2661 C2659 1.388 . S
C2661 C2662 1.366 . S
C2662 C2661 1.366 . S
C2662 C2663 1.414 . S
C2662 C2665 1.499 . S
C2663 H2637 0.950 . S
C2663 C2662 1.414 . S
C2663 C2664 1.374 . S
C2664 H2638 0.950 . S
C2664 C2660 1.385 . S
C2664 C2663 1.374 . S
C2665 C2662 1.499 . S
C2665 C2666 1.373 . S
C2665 C2667 1.389 . S
C2666 H2639 0.950 1_545 S
C2666 C2652 1.380 . S
C2666 C2665 1.373 . S
C2667 C2651 1.377 . S
C2667 C2665 1.389 . S
C2667 C2668 1.524 . S
C2668 C2667 1.524 . S
C2668 C2669 1.397 . S
C2668 C2673 1.363 . S
C2669 H2640 0.950 . S
C2669 C2668 1.397 . S
C2669 C2670 1.334 . S
C2670 H2641 0.950 . S
C2670 C2669 1.334 . S
C2670 C2671 1.287 . S
C2671 C2670 1.287 . S
C2671 C2672 1.524 . S
C2671 H2674 0.999 . S
C2672 H2642 0.950 . S
C2672 C2671 1.524 . S
C2672 C2673 1.415 . S
C2673 H2643 0.950 . S
C2673 C2668 1.363 . S
C2673 C2672 1.415 . S
H2674 C2671 0.999 . S
H2675 C2656 0.913 . S
H2676 C2694 0.923 1_655 S
H2677 C2696 0.951 1_655 S
H2678 C2698 0.950 . S
H2679 C2699 0.950 . S
H2680 C2701 0.950 . S
H2681 C2704 0.950 . S
H2682 C2705 0.950 . S
H2683 C2707 0.954 . S
H2684 C2708 0.950 1_655 S
H2685 C2709 0.951 . S
H2686 C2711 0.951 . S
H2687 C2713 0.950 1_655 S
H2688 C2714 0.950 1_655 S
H2689 C2716 0.950 . S
H2690 C2719 0.950 1_655 S
H2691 C2720 0.921 1_655 S
H2692 C2722 0.950 . S
H2693 C2723 0.950 . S
C2694 H2676 0.923 1_455 S
C2694 C2695 1.366 . S
C2694 C2696 1.388 . S
C2695 C2694 1.366 . S
C2695 C2699 1.385 . S
C2696 H2677 0.951 1_455 S
C2696 C2694 1.388 . S
C2696 C2697 1.366 . S
C2697 C2696 1.366 . S
C2697 C2698 1.414 . S
C2697 C2700 1.499 . S
C2698 H2678 0.950 . S
C2698 C2697 1.414 . S
C2698 C2699 1.374 . S
C2699 H2679 0.950 . S
C2699 C2695 1.385 . S
C2699 C2698 1.374 . S
C2700 C2697 1.499 . S
C2700 C2701 1.373 . S
C2700 C2702 1.389 . S
C2701 H2680 0.950 . S
C2701 C2700 1.373 . S
C2701 C2717 1.377 . S
C2702 C2700 1.389 . S
C2702 C2703 1.524 . S
C2702 C2716 1.377 . S
C2703 C2702 1.524 . S
C2703 C2704 1.397 . S
C2703 C2708 1.363 . S
C2704 H2681 0.950 . S
C2704 C2703 1.397 . S
C2704 C2705 1.334 . S
C2705 H2682 0.950 . S
C2705 C2704 1.334 . S
C2705 C2706 1.287 . S
C2706 C2705 1.287 . S
C2706 C2707 1.524 . S
C2706 H2725 0.913 . S
C2707 H2683 0.954 . S
C2707 C2706 1.524 . S
C2707 C2708 1.415 . S
C2708 H2684 0.950 1_455 S
C2708 C2703 1.363 . S
C2708 C2707 1.415 . S
C2709 H2685 0.951 . S
C2709 C2710 1.366 . S
C2709 C2711 1.388 . S
C2710 C2709 1.366 . S
C2710 C2714 1.385 . S
C2711 H2686 0.951 . S
C2711 C2709 1.388 . S
C2711 C2712 1.366 . S
C2712 C2711 1.366 . S
C2712 C2713 1.414 . S
C2712 C2715 1.499 . S
C2713 H2687 0.950 1_455 S
C2713 C2712 1.414 . S
C2713 C2714 1.374 . S
C2714 H2688 0.950 1_455 S
C2714 C2710 1.385 . S
C2714 C2713 1.374 . S
C2715 C2712 1.499 . S
C2715 C2716 1.373 . S
C2715 C2717 1.389 . S
C2716 H2689 0.950 . S
C2716 C2702 1.377 . S
C2716 C2715 1.373 . S
C2717 C2701 1.377 . S
C2717 C2715 1.389 . S
C2717 C2718 1.524 . S
C2718 C2717 1.524 . S
C2718 C2719 1.397 . S
C2718 C2723 1.363 . S
C2719 H2690 0.950 1_455 S
C2719 C2718 1.397 . S
C2719 C2720 1.340 . S
C2720 H2691 0.921 1_455 S
C2720 C2719 1.340 . S
C2720 C2721 1.312 . S
C2721 C2720 1.312 . S
C2721 C2722 1.524 . S
C2721 H2724 0.999 . S
C2722 H2692 0.950 . S
C2722 C2721 1.524 . S
C2722 C2723 1.415 . S
C2723 H2693 0.950 . S
C2723 C2718 1.363 . S
C2723 C2722 1.415 . S
H2724 C2721 0.999 . S
H2725 C2706 0.913 . S
H2726 C2744 0.951 . S
H2727 C2746 0.951 . S
H2728 C2748 0.950 . S
H2729 C2749 0.950 . S
H2730 C2751 0.950 . S
H2731 C2754 0.937 1_565 S
H2732 C2755 0.950 1_565 S
H2733 C2757 0.950 . S
H2734 C2758 0.950 . S
H2735 C2759 0.951 . S
H2736 C2761 0.951 . S
H2737 C2763 0.950 . S
H2738 C2764 0.950 . S
H2739 C2766 0.950 . S
H2740 C2769 0.950 . S
H2741 C2770 0.950 . S
H2742 C2772 0.950 . S
H2743 C2773 0.950 . S
C2744 H2726 0.951 . S
C2744 C2745 1.366 . S
C2744 C2746 1.388 . S
C2745 C2744 1.366 . S
C2745 C2749 1.385 . S
C2746 H2727 0.951 . S
C2746 C2744 1.388 . S
C2746 C2747 1.366 . S
C2747 C2746 1.366 . S
C2747 C2748 1.414 . S
C2747 C2750 1.499 . S
C2748 H2728 0.950 . S
C2748 C2747 1.414 . S
C2748 C2749 1.374 . S
C2749 H2729 0.950 . S
C2749 C2745 1.385 . S
C2749 C2748 1.374 . S
C2750 C2747 1.499 . S
C2750 C2751 1.373 . S
C2750 C2752 1.389 . S
C2751 H2730 0.950 . S
C2751 C2750 1.373 . S
C2751 C2767 1.377 . S
C2752 C2750 1.389 . S
C2752 C2753 1.524 . S
C2752 C2766 1.377 . S
C2753 C2752 1.524 . S
C2753 C2754 1.397 . S
C2753 C2758 1.363 . S
C2754 H2731 0.937 1_545 S
C2754 C2753 1.397 . S
C2754 C2755 1.334 . S
C2755 H2732 0.950 1_545 S
C2755 C2754 1.334 . S
C2755 C2756 1.287 . S
C2756 C2755 1.287 . S
C2756 C2757 1.524 . S
C2756 H2775 0.913 . S
C2757 H2733 0.950 . S
C2757 C2756 1.524 . S
C2757 C2758 1.415 . S
C2758 H2734 0.950 . S
C2758 C2753 1.363 . S
C2758 C2757 1.415 . S
C2759 H2735 0.951 . S
C2759 C2760 1.366 . S
C2759 C2761 1.388 . S
C2760 C2759 1.366 . S
C2760 C2764 1.385 . S
C2761 H2736 0.951 . S
C2761 C2759 1.388 . S
C2761 C2762 1.366 . S
C2762 C2761 1.366 . S
C2762 C2763 1.414 . S
C2762 C2765 1.499 . S
C2763 H2737 0.950 . S
C2763 C2762 1.414 . S
C2763 C2764 1.374 . S
C2764 H2738 0.950 . S
C2764 C2760 1.385 . S
C2764 C2763 1.374 . S
C2765 C2762 1.499 . S
C2765 C2766 1.373 . S
C2765 C2767 1.389 . S
C2766 H2739 0.950 . S
C2766 C2752 1.377 . S
C2766 C2765 1.373 . S
C2767 C2751 1.377 . S
C2767 C2765 1.389 . S
C2767 C2768 1.524 . S
C2768 C2767 1.524 . S
C2768 C2769 1.397 . S
C2768 C2773 1.363 . S
C2769 H2740 0.950 . S
C2769 C2768 1.397 . S
C2769 C2770 1.334 . S
C2770 H2741 0.950 . S
C2770 C2769 1.334 . S
C2770 C2771 1.287 . S
C2771 C2770 1.287 . S
C2771 C2772 1.524 . S
C2771 H2774 0.999 1_655 S
C2772 H2742 0.950 . S
C2772 C2771 1.524 . S
C2772 C2773 1.415 . S
C2773 H2743 0.950 . S
C2773 C2768 1.363 . S
C2773 C2772 1.415 . S
H2774 C2771 0.999 1_455 S
H2775 C2756 0.913 . S
H2776 C2794 0.951 . S
H2777 C2796 0.951 . S
H2778 C2798 0.945 1_565 S
H2779 C2799 0.947 1_565 S
H2780 C2801 0.950 . S
H2781 C2804 0.950 . S
H2782 C2805 0.950 . S
H2783 C2807 0.950 . S
H2784 C2808 0.950 . S
H2785 C2809 0.951 . S
H2786 C2811 0.951 . S
H2787 C2813 0.950 . S
H2788 C2814 0.950 . S
H2789 C2816 0.950 . S
H2790 C2819 0.950 . S
H2791 C2820 0.950 . S
H2792 C2822 0.950 . S
H2793 C2823 0.950 . S
C2794 H2776 0.951 . S
C2794 C2795 1.366 . S
C2794 C2796 1.388 . S
C2795 C2794 1.366 . S
C2795 C2799 1.387 . S
C2796 H2777 0.951 . S
C2796 C2794 1.388 . S
C2796 C2797 1.366 . S
C2797 C2796 1.366 . S
C2797 C2798 1.424 . S
C2797 C2800 1.499 . S
C2798 H2778 0.945 1_545 S
C2798 C2797 1.424 . S
C2798 C2799 1.373 . S
C2799 H2779 0.947 1_545 S
C2799 C2795 1.387 . S
C2799 C2798 1.373 . S
C2800 C2797 1.499 . S
C2800 C2801 1.373 . S
C2800 C2802 1.389 1_545 S
C2801 H2780 0.950 . S
C2801 C2800 1.373 . S
C2801 C2817 1.377 . S
C2802 C2800 1.389 1_565 S
C2802 C2803 1.524 . S
C2802 C2816 1.377 . S
C2803 C2802 1.524 . S
C2803 C2804 1.397 . S
C2803 C2808 1.363 . S
C2804 H2781 0.950 . S
C2804 C2803 1.397 . S
C2804 C2805 1.334 . S
C2805 H2782 0.950 . S
C2805 C2804 1.334 . S
C2805 C2806 1.287 . S
C2806 C2805 1.287 . S
C2806 C2807 1.524 . S
C2806 H2825 0.913 . S
C2807 H2783 0.950 . S
C2807 C2806 1.524 . S
C2807 C2808 1.415 . S
C2808 H2784 0.950 . S
C2808 C2803 1.363 . S
C2808 C2807 1.415 . S
C2809 H2785 0.951 . S
C2809 C2810 1.366 . S
C2809 C2811 1.388 . S
C2810 C2809 1.366 . S
C2810 C2814 1.385 . S
C2811 H2786 0.951 . S
C2811 C2809 1.388 . S
C2811 C2812 1.366 . S
C2812 C2811 1.366 . S
C2812 C2813 1.414 . S
C2812 C2815 1.499 . S
C2813 H2787 0.950 . S
C2813 C2812 1.414 . S
C2813 C2814 1.374 . S
C2814 H2788 0.950 . S
C2814 C2810 1.385 . S
C2814 C2813 1.374 . S
C2815 C2812 1.499 . S
C2815 C2816 1.373 1_545 S
C2815 C2817 1.389 . S
C2816 H2789 0.950 . S
C2816 C2802 1.377 . S
C2816 C2815 1.373 1_565 S
C2817 C2801 1.377 . S
C2817 C2815 1.389 . S
C2817 C2818 1.524 . S
C2818 C2817 1.524 . S
C2818 C2819 1.397 . S
C2818 C2823 1.363 . S
C2819 H2790 0.950 . S
C2819 C2818 1.397 . S
C2819 C2820 1.334 . S
C2820 H2791 0.950 . S
C2820 C2819 1.334 . S
C2820 C2821 1.287 . S
C2821 C2820 1.287 . S
C2821 C2822 1.524 . S
C2821 H2824 0.999 . S
C2822 H2792 0.950 . S
C2822 C2821 1.524 . S
C2822 C2823 1.415 . S
C2823 H2793 0.950 . S
C2823 C2818 1.363 . S
C2823 C2822 1.415 . S
H2824 C2821 0.999 . S
H2825 C2806 0.913 . S
H2826 C2844 0.951 . S
H2827 C2846 0.951 . S
H2828 C2848 0.950 . S
H2829 C2849 0.950 . S
H2830 C2851 0.950 . S
H2831 C2854 0.950 . S
H2832 C2855 0.950 . S
H2833 C2857 0.950 . S
H2834 C2858 0.950 . S
H2835 C2859 0.951 . S
H2836 C2861 0.951 . S
H2837 C2863 0.950 . S
H2838 C2864 0.950 . S
H2839 C2866 0.950 . S
H2840 C2869 0.950 . S
H2841 C2870 0.950 . S
H2842 C2872 0.950 . S
H2843 C2873 0.950 . S
C2844 H2826 0.951 . S
C2844 C2845 1.366 . S
C2844 C2846 1.388 . S
C2845 C2844 1.366 . S
C2845 C2849 1.385 . S
C2846 H2827 0.951 . S
C2846 C2844 1.388 . S
C2846 C2847 1.366 . S
C2847 C2846 1.366 . S
C2847 C2848 1.414 . S
C2847 C2850 1.499 . S
C2848 H2828 0.950 . S
C2848 C2847 1.414 . S
C2848 C2849 1.374 . S
C2849 H2829 0.950 . S
C2849 C2845 1.385 . S
C2849 C2848 1.374 . S
C2850 C2847 1.499 . S
C2850 C2851 1.373 . S
C2850 C2852 1.389 . S
C2851 H2830 0.950 . S
C2851 C2850 1.373 . S
C2851 C2867 1.377 . S
C2852 C2850 1.389 . S
C2852 C2853 1.524 . S
C2852 C2866 1.377 . S
C2853 C2852 1.524 . S
C2853 C2854 1.397 1_455 S
C2853 C2858 1.363 . S
C2854 H2831 0.950 . S
C2854 C2853 1.397 1_655 S
C2854 C2855 1.334 . S
C2855 H2832 0.950 . S
C2855 C2854 1.334 . S
C2855 C2856 1.287 . S
C2856 C2855 1.287 . S
C2856 C2857 1.524 . S
C2856 H2875 0.913 . S
C2857 H2833 0.950 . S
C2857 C2856 1.524 . S
C2857 C2858 1.415 1_655 S
C2858 H2834 0.950 . S
C2858 C2853 1.363 . S
C2858 C2857 1.415 1_455 S
C2859 H2835 0.951 . S
C2859 C2860 1.366 . S
C2859 C2861 1.388 . S
C2860 C2859 1.366 . S
C2860 C2864 1.385 . S
C2861 H2836 0.951 . S
C2861 C2859 1.388 . S
C2861 C2862 1.366 . S
C2862 C2861 1.366 . S
C2862 C2863 1.414 . S
C2862 C2865 1.499 . S
C2863 H2837 0.950 . S
C2863 C2862 1.414 . S
C2863 C2864 1.374 . S
C2864 H2838 0.950 . S
C2864 C2860 1.385 . S
C2864 C2863 1.374 . S
C2865 C2862 1.499 . S
C2865 C2866 1.373 . S
C2865 C2867 1.389 . S
C2866 H2839 0.950 . S
C2866 C2852 1.377 . S
C2866 C2865 1.373 . S
C2867 C2851 1.377 . S
C2867 C2865 1.389 . S
C2867 C2868 1.524 . S
C2868 C2867 1.524 . S
C2868 C2869 1.397 . S
C2868 C2873 1.363 . S
C2869 H2840 0.950 . S
C2869 C2868 1.397 . S
C2869 C2870 1.334 . S
C2870 H2841 0.950 . S
C2870 C2869 1.334 . S
C2870 C2871 1.287 . S
C2871 C2870 1.287 . S
C2871 C2872 1.524 . S
C2871 H2874 0.999 . S
C2872 H2842 0.950 . S
C2872 C2871 1.524 . S
C2872 C2873 1.415 . S
C2873 H2843 0.950 . S
C2873 C2868 1.363 . S
C2873 C2872 1.415 . S
H2874 C2871 0.999 . S
H2875 C2856 0.913 . S
H2876 C2894 0.951 . S
H2877 C2896 0.951 . S
H2878 C2898 0.950 . S
H2879 C2899 0.950 . S
H2880 C2901 0.950 . S
H2881 C2904 0.950 . S
H2882 C2905 0.950 . S
H2883 C2907 0.950 . S
H2884 C2908 0.950 . S
H2885 C2909 0.897 1_565 S
H2886 C2911 0.951 . S
H2887 C2913 0.950 . S
H2888 C2914 0.950 . S
H2889 C2916 0.950 . S
H2890 C2919 0.950 . S
H2891 C2920 0.950 . S
H2892 C2922 0.950 . S
H2893 C2923 0.950 . S
C2894 H2876 0.951 . S
C2894 C2895 1.366 . S
C2894 C2896 1.388 . S
C2895 C2894 1.366 . S
C2895 C2899 1.385 . S
C2896 H2877 0.951 . S
C2896 C2894 1.388 . S
C2896 C2897 1.366 . S
C2897 C2896 1.366 . S
C2897 C2898 1.414 . S
C2897 C2900 1.499 . S
C2898 H2878 0.950 . S
C2898 C2897 1.414 . S
C2898 C2899 1.374 . S
C2899 H2879 0.950 . S
C2899 C2895 1.385 . S
C2899 C2898 1.374 . S
C2900 C2897 1.499 . S
C2900 C2901 1.373 . S
C2900 C2902 1.389 . S
C2901 H2880 0.950 . S
C2901 C2900 1.373 . S
C2901 C2917 1.377 . S
C2902 C2900 1.389 . S
C2902 C2903 1.524 . S
C2902 C2916 1.377 . S
C2903 C2902 1.524 . S
C2903 C2904 1.397 . S
C2903 C2908 1.363 . S
C2904 H2881 0.950 . S
C2904 C2903 1.397 . S
C2904 C2905 1.334 . S
C2905 H2882 0.950 . S
C2905 C2904 1.334 . S
C2905 C2906 1.287 . S
C2906 C2905 1.287 . S
C2906 C2907 1.524 . S
C2906 H2925 0.913 . S
C2907 H2883 0.950 . S
C2907 C2906 1.524 . S
C2907 C2908 1.415 . S
C2908 H2884 0.950 . S
C2908 C2903 1.363 . S
C2908 C2907 1.415 . S
C2909 H2885 0.897 1_545 S
C2909 C2910 1.366 . S
C2909 C2911 1.388 . S
C2910 C2909 1.366 . S
C2910 C2914 1.385 . S
C2911 H2886 0.951 . S
C2911 C2909 1.388 . S
C2911 C2912 1.366 . S
C2912 C2911 1.366 . S
C2912 C2913 1.414 . S
C2912 C2915 1.499 . S
C2913 H2887 0.950 . S
C2913 C2912 1.414 . S
C2913 C2914 1.374 . S
C2914 H2888 0.950 . S
C2914 C2910 1.385 . S
C2914 C2913 1.374 . S
C2915 C2912 1.499 . S
C2915 C2916 1.373 . S
C2915 C2917 1.389 . S
C2916 H2889 0.950 . S
C2916 C2902 1.377 . S
C2916 C2915 1.373 . S
C2917 C2901 1.377 . S
C2917 C2915 1.389 . S
C2917 C2918 1.524 . S
C2918 C2917 1.524 . S
C2918 C2919 1.397 . S
C2918 C2923 1.363 1_545 S
C2919 H2890 0.950 . S
C2919 C2918 1.397 . S
C2919 C2920 1.334 . S
C2920 H2891 0.950 . S
C2920 C2919 1.334 . S
C2920 C2921 1.287 1_545 S
C2921 C2920 1.287 1_565 S
C2921 C2922 1.524 . S
C2921 H2924 0.999 . S
C2922 H2892 0.950 . S
C2922 C2921 1.524 . S
C2922 C2923 1.415 . S
C2923 H2893 0.950 . S
C2923 C2918 1.363 1_565 S
C2923 C2922 1.415 . S
H2924 C2921 0.999 . S
H2925 C2906 0.913 . S
H2926 C2944 0.951 . S
H2927 C2946 0.951 . S
H2928 C2948 0.950 . S
H2929 C2949 0.950 . S
H2930 C2951 0.950 1_655 S
H2931 C2954 0.950 . S
H2932 C2955 0.950 . S
H2933 C2957 0.950 . S
H2934 C2958 0.950 . S
H2935 C2959 0.951 . S
H2936 C2961 0.951 . S
H2937 C2963 0.950 . S
H2938 C2964 0.950 . S
H2939 C2966 0.950 . S
H2940 C2969 0.950 . S
H2941 C2970 0.950 . S
H2942 C2972 0.950 . S
H2943 C2973 0.950 . S
C2944 H2926 0.951 . S
C2944 C2945 1.366 . S
C2944 C2946 1.388 . S
C2945 C2944 1.366 . S
C2945 C2949 1.385 . S
C2946 H2927 0.951 . S
C2946 C2944 1.388 . S
C2946 C2947 1.366 . S
C2947 C2946 1.366 . S
C2947 C2948 1.414 . S
C2947 C2950 1.499 . S
C2948 H2928 0.950 . S
C2948 C2947 1.414 . S
C2948 C2949 1.374 . S
C2949 H2929 0.950 . S
C2949 C2945 1.385 . S
C2949 C2948 1.374 . S
C2950 C2947 1.499 . S
C2950 C2951 1.373 . S
C2950 C2952 1.389 . S
C2951 H2930 0.950 1_455 S
C2951 C2950 1.373 . S
C2951 C2967 1.377 . S
C2952 C2950 1.389 . S
C2952 C2953 1.524 . S
C2952 C2966 1.377 . S
C2953 C2952 1.524 . S
C2953 C2954 1.397 . S
C2953 C2958 1.363 . S
C2954 H2931 0.950 . S
C2954 C2953 1.397 . S
C2954 C2955 1.334 . S
C2955 H2932 0.950 . S
C2955 C2954 1.334 . S
C2955 C2956 1.287 . S
C2956 C2955 1.287 . S
C2956 C2957 1.524 . S
C2956 H2975 0.913 . S
C2957 H2933 0.950 . S
C2957 C2956 1.524 . S
C2957 C2958 1.415 . S
C2958 H2934 0.950 . S
C2958 C2953 1.363 . S
C2958 C2957 1.415 . S
C2959 H2935 0.951 . S
C2959 C2960 1.366 . S
C2959 C2961 1.388 . S
C2960 C2959 1.366 . S
C2960 C2964 1.385 . S
C2961 H2936 0.951 . S
C2961 C2959 1.388 . S
C2961 C2962 1.366 . S
C2962 C2961 1.366 . S
C2962 C2963 1.414 . S
C2962 C2965 1.499 . S
C2963 H2937 0.950 . S
C2963 C2962 1.414 . S
C2963 C2964 1.374 . S
C2964 H2938 0.950 . S
C2964 C2960 1.385 . S
C2964 C2963 1.374 . S
C2965 C2962 1.499 . S
C2965 C2966 1.373 . S
C2965 C2967 1.389 . S
C2966 H2939 0.950 . S
C2966 C2952 1.377 . S
C2966 C2965 1.373 . S
C2967 C2951 1.377 . S
C2967 C2965 1.389 . S
C2967 C2968 1.524 1_455 S
C2968 C2967 1.524 1_655 S
C2968 C2969 1.397 . S
C2968 C2973 1.363 . S
C2969 H2940 0.950 . S
C2969 C2968 1.397 . S
C2969 C2970 1.334 . S
C2970 H2941 0.950 . S
C2970 C2969 1.334 . S
C2970 C2971 1.287 . S
C2971 C2970 1.287 . S
C2971 C2972 1.524 . S
C2971 H2974 0.999 . S
C2972 H2942 0.950 . S
C2972 C2971 1.524 . S
C2972 C2973 1.415 . S
C2973 H2943 0.950 . S
C2973 C2968 1.363 . S
C2973 C2972 1.415 . S
H2974 C2971 0.999 . S
H2975 C2956 0.913 . S
H2976 C2994 0.951 1_565 S
H2977 C2996 0.953 . S
H2978 C2998 0.950 . S
H2979 C2999 0.950 . S
H2980 C3001 0.928 1_565 S
H2981 C3004 0.950 . S
H2982 C3005 0.950 . S
H2983 C3007 0.950 . S
H2984 C3008 0.950 . S
H2985 C3009 0.951 . S
H2986 C3011 0.951 . S
H2987 C3013 0.950 . S
H2988 C3014 0.950 . S
H2989 C3016 0.950 . S
H2990 C3019 0.950 . S
H2991 C3020 0.950 . S
H2992 C3022 0.950 . S
H2993 C3023 0.944 1_545 S
C2994 H2976 0.951 1_545 S
C2994 C2995 1.366 . S
C2994 C2996 1.388 . S
C2995 C2994 1.366 . S
C2995 C2999 1.385 . S
C2996 H2977 0.953 . S
C2996 C2994 1.388 . S
C2996 C2997 1.366 . S
C2997 C2996 1.366 . S
C2997 C2998 1.414 . S
C2997 C3000 1.499 . S
C2998 H2978 0.950 . S
C2998 C2997 1.414 . S
C2998 C2999 1.374 . S
C2999 H2979 0.950 . S
C2999 C2995 1.385 . S
C2999 C2998 1.374 . S
C3000 C2997 1.499 . S
C3000 C3001 1.398 . S
C3000 C3002 1.389 . S
C3001 H2980 0.928 1_545 S
C3001 C3000 1.398 . S
C3001 C3017 1.376 . S
C3002 C3000 1.389 . S
C3002 C3003 1.524 . S
C3002 C3016 1.377 . S
C3003 C3002 1.524 . S
C3003 C3004 1.397 . S
C3003 C3008 1.363 . S
C3004 H2981 0.950 . S
C3004 C3003 1.397 . S
C3004 C3005 1.334 . S
C3005 H2982 0.950 . S
C3005 C3004 1.334 . S
C3005 C3006 1.287 . S
C3006 C3005 1.287 . S
C3006 C3007 1.524 . S
C3006 H3025 0.913 . S
C3007 H2983 0.950 . S
C3007 C3006 1.524 . S
C3007 C3008 1.415 . S
C3008 H2984 0.950 . S
C3008 C3003 1.363 . S
C3008 C3007 1.415 . S
C3009 H2985 0.951 . S
C3009 C3010 1.366 . S
C3009 C3011 1.388 . S
C3010 C3009 1.366 . S
C3010 C3014 1.385 . S
C3011 H2986 0.951 . S
C3011 C3009 1.388 . S
C3011 C3012 1.366 . S
C3012 C3011 1.366 . S
C3012 C3013 1.414 . S
C3012 C3015 1.499 . S
C3013 H2987 0.950 . S
C3013 C3012 1.414 . S
C3013 C3014 1.374 . S
C3014 H2988 0.950 . S
C3014 C3010 1.385 . S
C3014 C3013 1.374 . S
C3015 C3012 1.499 . S
C3015 C3016 1.373 . S
C3015 C3017 1.396 . S
C3016 H2989 0.950 . S
C3016 C3002 1.377 . S
C3016 C3015 1.373 . S
C3017 C3001 1.376 . S
C3017 C3015 1.396 . S
C3017 C3018 1.516 1_545 S
C3018 C3017 1.516 1_565 S
C3018 C3019 1.397 . S
C3018 C3023 1.363 . S
C3019 H2990 0.950 . S
C3019 C3018 1.397 . S
C3019 C3020 1.334 . S
C3020 H2991 0.950 . S
C3020 C3019 1.334 . S
C3020 C3021 1.287 . S
C3021 C3020 1.287 . S
C3021 C3022 1.524 . S
C3021 H3024 0.999 . S
C3022 H2992 0.950 . S
C3022 C3021 1.524 . S
C3022 C3023 1.415 . S
C3023 H2993 0.944 1_565 S
C3023 C3018 1.363 . S
C3023 C3022 1.415 . S
H3024 C3021 0.999 . S
H3025 C3006 0.913 . S
H3026 C3044 0.951 . S
H3027 C3046 0.951 . S
H3028 C3048 0.950 . S
H3029 C3049 0.950 . S
H3030 C3051 0.950 . S
H3031 C3054 0.950 . S
H3032 C3055 0.950 . S
H3033 C3057 0.950 . S
H3034 C3058 0.950 . S
H3035 C3059 0.951 . S
H3036 C3061 0.951 . S
H3037 C3063 0.950 . S
H3038 C3064 0.950 . S
H3039 C3066 0.950 . S
H3040 C3069 0.950 . S
H3041 C3070 0.950 . S
H3042 C3072 0.950 . S
H3043 C3073 0.950 . S
C3044 H3026 0.951 . S
C3044 C3045 1.366 . S
C3044 C3046 1.388 . S
C3045 C3044 1.366 . S
C3045 C3049 1.385 . S
C3046 H3027 0.951 . S
C3046 C3044 1.388 . S
C3046 C3047 1.366 . S
C3047 C3046 1.366 . S
C3047 C3048 1.414 . S
C3047 C3050 1.499 . S
C3048 H3028 0.950 . S
C3048 C3047 1.414 . S
C3048 C3049 1.374 . S
C3049 H3029 0.950 . S
C3049 C3045 1.385 . S
C3049 C3048 1.374 . S
C3050 C3047 1.499 . S
C3050 C3051 1.373 . S
C3050 C3052 1.389 . S
C3051 H3030 0.950 . S
C3051 C3050 1.373 . S
C3051 C3067 1.377 . S
C3052 C3050 1.389 . S
C3052 C3053 1.524 . S
C3052 C3066 1.377 . S
C3053 C3052 1.524 . S
C3053 C3054 1.397 . S
C3053 C3058 1.363 . S
C3054 H3031 0.950 . S
C3054 C3053 1.397 . S
C3054 C3055 1.334 . S
C3055 H3032 0.950 . S
C3055 C3054 1.334 . S
C3055 C3056 1.287 . S
C3056 C3055 1.287 . S
C3056 C3057 1.524 . S
C3056 H3075 0.913 . S
C3057 H3033 0.950 . S
C3057 C3056 1.524 . S
C3057 C3058 1.415 . S
C3058 H3034 0.950 . S
C3058 C3053 1.363 . S
C3058 C3057 1.415 . S
C3059 H3035 0.951 . S
C3059 C3060 1.366 . S
C3059 C3061 1.388 . S
C3060 C3059 1.366 . S
C3060 C3064 1.385 . S
C3061 H3036 0.951 . S
C3061 C3059 1.388 . S
C3061 C3062 1.366 . S
C3062 C3061 1.366 . S
C3062 C3063 1.414 . S
C3062 C3065 1.499 . S
C3063 H3037 0.950 . S
C3063 C3062 1.414 . S
C3063 C3064 1.374 . S
C3064 H3038 0.950 . S
C3064 C3060 1.385 . S
C3064 C3063 1.374 . S
C3065 C3062 1.499 . S
C3065 C3066 1.373 . S
C3065 C3067 1.389 . S
C3066 H3039 0.950 . S
C3066 C3052 1.377 . S
C3066 C3065 1.373 . S
C3067 C3051 1.377 . S
C3067 C3065 1.389 . S
C3067 C3068 1.524 1_455 S
C3068 C3067 1.524 1_655 S
C3068 C3069 1.397 . S
C3068 C3073 1.363 . S
C3069 H3040 0.950 . S
C3069 C3068 1.397 . S
C3069 C3070 1.334 . S
C3070 H3041 0.950 . S
C3070 C3069 1.334 . S
C3070 C3071 1.287 . S
C3071 C3070 1.287 . S
C3071 C3072 1.524 . S
C3071 H3074 0.999 . S
C3072 H3042 0.950 . S
C3072 C3071 1.524 . S
C3072 C3073 1.415 . S
C3073 H3043 0.950 . S
C3073 C3068 1.363 . S
C3073 C3072 1.415 . S
H3074 C3071 0.999 . S
H3075 C3056 0.913 . S
H3076 C3094 0.951 . S
H3077 C3096 0.951 . S
H3078 C3098 0.950 . S
H3079 C3099 0.950 . S
H3080 C3101 0.950 . S
H3081 C3104 0.950 . S
H3082 C3105 0.950 . S
H3083 C3107 0.950 . S
H3084 C3108 0.950 . S
H3085 C3109 0.951 1_565 S
H3086 C3111 0.914 1_565 S
H3087 C3113 0.950 . S
H3088 C3114 0.950 . S
H3089 C3116 0.950 . S
H3090 C3119 0.950 . S
H3091 C3120 0.950 . S
H3092 C3122 0.950 . S
H3093 C3123 0.950 . S
C3094 H3076 0.951 . S
C3094 C3095 1.366 . S
C3094 C3096 1.388 . S
C3095 C3094 1.366 . S
C3095 C3099 1.385 . S
C3096 H3077 0.951 . S
C3096 C3094 1.388 . S
C3096 C3097 1.366 . S
C3097 C3096 1.366 . S
C3097 C3098 1.414 . S
C3097 C3100 1.499 . S
C3098 H3078 0.950 . S
C3098 C3097 1.414 . S
C3098 C3099 1.374 . S
C3099 H3079 0.950 . S
C3099 C3095 1.385 . S
C3099 C3098 1.374 . S
C3100 C3097 1.499 . S
C3100 C3101 1.373 . S
C3100 C3102 1.389 . S
C3101 H3080 0.950 . S
C3101 C3100 1.373 . S
C3101 C3117 1.377 . S
C3102 C3100 1.389 . S
C3102 C3103 1.524 . S
C3102 C3116 1.377 . S
C3103 C3102 1.524 . S
C3103 C3104 1.397 . S
C3103 C3108 1.363 . S
C3104 H3081 0.950 . S
C3104 C3103 1.397 . S
C3104 C3105 1.334 . S
C3105 H3082 0.950 . S
C3105 C3104 1.334 . S
C3105 C3106 1.287 . S
C3106 C3105 1.287 . S
C3106 C3107 1.524 . S
C3106 H3125 0.913 . S
C3107 H3083 0.950 . S
C3107 C3106 1.524 . S
C3107 C3108 1.415 . S
C3108 H3084 0.950 . S
C3108 C3103 1.363 . S
C3108 C3107 1.415 . S
C3109 H3085 0.951 1_545 S
C3109 C3110 1.366 . S
C3109 C3111 1.388 . S
C3110 C3109 1.366 . S
C3110 C3114 1.385 . S
C3111 H3086 0.914 1_545 S
C3111 C3109 1.388 . S
C3111 C3112 1.366 . S
C3112 C3111 1.366 . S
C3112 C3113 1.414 . S
C3112 C3115 1.499 . S
C3113 H3087 0.950 . S
C3113 C3112 1.414 . S
C3113 C3114 1.374 . S
C3114 H3088 0.950 . S
C3114 C3110 1.385 . S
C3114 C3113 1.374 . S
C3115 C3112 1.499 . S
C3115 C3116 1.373 . S
C3115 C3117 1.389 . S
C3116 H3089 0.950 . S
C3116 C3102 1.377 . S
C3116 C3115 1.373 . S
C3117 C3101 1.377 . S
C3117 C3115 1.389 . S
C3117 C3118 1.524 . S
C3118 C3117 1.524 . S
C3118 C3119 1.397 . S
C3118 C3123 1.363 1_545 S
C3119 H3090 0.950 . S
C3119 C3118 1.397 . S
C3119 C3120 1.334 . S
C3120 H3091 0.950 . S
C3120 C3119 1.334 . S
C3120 C3121 1.322 . S
C3121 C3120 1.322 . S
C3121 C3122 1.499 1_545 S
C3121 H3124 0.984 1_545 S
C3122 H3092 0.950 . S
C3122 C3121 1.499 1_565 S
C3122 C3123 1.415 . S
C3123 H3093 0.950 . S
C3123 C3118 1.363 1_565 S
C3123 C3122 1.415 . S
H3124 C3121 0.984 1_565 S
H3125 C3106 0.913 . S
H3126 C3144 0.951 . S
H3127 C3146 0.951 . S
H3128 C3148 0.950 . S
H3129 C3149 0.950 . S
H3130 C3151 0.950 . S
H3131 C3154 0.954 1_455 S
H3132 C3155 0.950 . S
H3133 C3157 0.950 . S
H3134 C3158 0.950 . S
H3135 C3159 0.951 . S
H3136 C3161 0.951 . S
H3137 C3163 0.952 . S
H3138 C3164 0.950 1_655 S
H3139 C3166 0.950 1_655 S
H3140 C3169 0.950 . S
H3141 C3170 0.950 . S
H3142 C3172 0.950 . S
H3143 C3173 0.950 . S
C3144 H3126 0.951 . S
C3144 C3145 1.366 1_655 S
C3144 C3146 1.388 . S
C3145 C3144 1.366 1_455 S
C3145 C3149 1.385 . S
C3146 H3127 0.951 . S
C3146 C3144 1.388 . S
C3146 C3147 1.366 1_655 S
C3147 C3146 1.366 1_455 S
C3147 C3148 1.414 . S
C3147 C3150 1.499 . S
C3148 H3128 0.950 . S
C3148 C3147 1.414 . S
C3148 C3149 1.374 . S
C3149 H3129 0.950 . S
C3149 C3145 1.385 . S
C3149 C3148 1.374 . S
C3150 C3147 1.499 . S
C3150 C3151 1.373 . S
C3150 C3152 1.417 . S
C3151 H3130 0.950 . S
C3151 C3150 1.373 . S
C3151 C3167 1.377 . S
C3152 C3150 1.417 . S
C3152 C3153 1.497 1_455 S
C3152 C3166 1.381 . S
C3153 C3152 1.497 1_655 S
C3153 C3154 1.394 . S
C3153 C3158 1.363 . S
C3154 H3131 0.954 1_655 S
C3154 C3153 1.394 . S
C3154 C3155 1.332 . S
C3155 H3132 0.950 . S
C3155 C3154 1.332 . S
C3155 C3156 1.287 . S
C3156 C3155 1.287 . S
C3156 C3157 1.524 . S
C3156 H3175 0.913 . S
C3157 H3133 0.950 . S
C3157 C3156 1.524 . S
C3157 C3158 1.415 . S
C3158 H3134 0.950 . S
C3158 C3153 1.363 . S
C3158 C3157 1.415 . S
C3159 H3135 0.951 . S
C3159 C3160 1.366 . S
C3159 C3161 1.388 . S
C3160 C3159 1.366 . S
C3160 C3164 1.385 . S
C3161 H3136 0.951 . S
C3161 C3159 1.388 . S
C3161 C3162 1.366 . S
C3162 C3161 1.366 . S
C3162 C3163 1.412 1_455 S
C3162 C3165 1.499 . S
C3163 H3137 0.952 . S
C3163 C3162 1.412 1_655 S
C3163 C3164 1.374 1_655 S
C3164 H3138 0.950 1_455 S
C3164 C3160 1.385 . S
C3164 C3163 1.374 1_455 S
C3165 C3162 1.499 . S
C3165 C3166 1.373 . S
C3165 C3167 1.389 . S
C3166 H3139 0.950 1_455 S
C3166 C3152 1.381 . S
C3166 C3165 1.373 . S
C3167 C3151 1.377 . S
C3167 C3165 1.389 . S
C3167 C3168 1.524 . S
C3168 C3167 1.524 . S
C3168 C3169 1.397 . S
C3168 C3173 1.363 . S
C3169 H3140 0.950 . S
C3169 C3168 1.397 . S
C3169 C3170 1.334 . S
C3170 H3141 0.950 . S
C3170 C3169 1.334 . S
C3170 C3171 1.287 . S
C3171 C3170 1.287 . S
C3171 C3172 1.524 . S
C3171 H3174 0.999 . S
C3172 H3142 0.950 . S
C3172 C3171 1.524 . S
C3172 C3173 1.415 . S
C3173 H3143 0.950 . S
C3173 C3168 1.363 . S
C3173 C3172 1.415 . S
H3174 C3171 0.999 . S
H3175 C3156 0.913 . S
H3176 C3194 0.951 . S
H3177 C3196 0.951 . S
H3178 C3198 0.950 . S
H3179 C3199 0.950 . S
H3180 C3201 0.972 . S
H3181 C3204 0.950 . S
H3182 C3205 0.950 . S
H3183 C3207 0.950 . S
H3184 C3208 0.950 . S
H3185 C3209 0.951 . S
H3186 C3211 0.951 . S
H3187 C3213 0.950 . S
H3188 C3214 0.950 . S
H3189 C3216 0.950 . S
H3190 C3219 0.950 . S
H3191 C3220 0.950 . S
H3192 C3222 0.950 . S
H3193 C3223 0.950 1_554 S
C3194 H3176 0.951 . S
C3194 C3195 1.366 . S
C3194 C3196 1.388 . S
C3195 C3194 1.366 . S
C3195 C3199 1.385 . S
C3196 H3177 0.951 . S
C3196 C3194 1.388 . S
C3196 C3197 1.366 . S
C3197 C3196 1.366 . S
C3197 C3198 1.414 . S
C3197 C3200 1.499 . S
C3198 H3178 0.950 . S
C3198 C3197 1.414 . S
C3198 C3199 1.374 . S
C3199 H3179 0.950 . S
C3199 C3195 1.385 . S
C3199 C3198 1.374 . S
C3200 C3197 1.499 . S
C3200 C3201 1.373 . S
C3200 C3202 1.389 . S
C3201 H3180 0.972 . S
C3201 C3200 1.373 . S
C3201 C3217 1.377 . S
C3202 C3200 1.389 . S
C3202 C3203 1.524 . S
C3202 C3216 1.377 . S
C3203 C3202 1.524 . S
C3203 C3204 1.397 . S
C3203 C3208 1.363 . S
C3204 H3181 0.950 . S
C3204 C3203 1.397 . S
C3204 C3205 1.334 . S
C3205 H3182 0.950 . S
C3205 C3204 1.334 . S
C3205 C3206 1.287 . S
C3206 C3205 1.287 . S
C3206 C3207 1.524 . S
C3206 H3225 0.913 . S
C3207 H3183 0.950 . S
C3207 C3206 1.524 . S
C3207 C3208 1.415 . S
C3208 H3184 0.950 . S
C3208 C3203 1.363 . S
C3208 C3207 1.415 . S
C3209 H3185 0.951 . S
C3209 C3210 1.366 . S
C3209 C3211 1.388 . S
C3210 C3209 1.366 . S
C3210 C3214 1.385 . S
C3211 H3186 0.951 . S
C3211 C3209 1.388 . S
C3211 C3212 1.366 . S
C3212 C3211 1.366 . S
C3212 C3213 1.414 . S
C3212 C3215 1.499 . S
C3213 H3187 0.950 . S
C3213 C3212 1.414 . S
C3213 C3214 1.374 . S
C3214 H3188 0.950 . S
C3214 C3210 1.385 . S
C3214 C3213 1.374 . S
C3215 C3212 1.499 . S
C3215 C3216 1.373 . S
C3215 C3217 1.389 . S
C3216 H3189 0.950 . S
C3216 C3202 1.377 . S
C3216 C3215 1.373 . S
C3217 C3201 1.377 . S
C3217 C3215 1.389 . S
C3217 C3218 1.524 1_554 S
C3218 C3217 1.524 1_556 S
C3218 C3219 1.397 . S
C3218 C3223 1.363 . S
C3219 H3190 0.950 . S
C3219 C3218 1.397 . S
C3219 C3220 1.334 . S
C3220 H3191 0.950 . S
C3220 C3219 1.334 . S
C3220 C3221 1.287 . S
C3221 C3220 1.287 . S
C3221 C3222 1.524 . S
C3221 H3224 0.999 . S
C3222 H3192 0.950 . S
C3222 C3221 1.524 . S
C3222 C3223 1.415 . S
C3223 H3193 0.950 1_556 S
C3223 C3218 1.363 . S
C3223 C3222 1.415 . S
H3224 C3221 0.999 . S
H3225 C3206 0.913 . S
H3226 C3244 0.951 . S
H3227 C3246 0.951 . S
H3228 C3248 0.955 1_556 S
H3229 C3249 0.947 1_556 S
H3230 C3251 0.950 . S
H3231 C3254 0.950 . S
H3232 C3255 0.950 . S
H3233 C3257 0.950 . S
H3234 C3258 0.950 . S
H3235 C3259 0.982 . S
H3236 C3261 0.986 . S
H3237 C3263 0.950 . S
H3238 C3264 0.950 . S
H3239 C3266 0.950 . S
H3240 C3269 0.950 . S
H3241 C3270 0.950 . S
H3242 C3272 0.950 . S
H3243 C3273 0.950 . S
C3244 H3226 0.951 . S
C3244 C3245 1.366 . S
C3244 C3246 1.388 . S
C3245 C3244 1.366 . S
C3245 C3249 1.388 . S
C3246 H3227 0.951 . S
C3246 C3244 1.388 . S
C3246 C3247 1.366 . S
C3247 C3246 1.366 . S
C3247 C3248 1.409 . S
C3247 C3250 1.499 . S
C3248 H3228 0.955 1_554 S
C3248 C3247 1.409 . S
C3248 C3249 1.374 . S
C3249 H3229 0.947 1_554 S
C3249 C3245 1.388 . S
C3249 C3248 1.374 . S
C3250 C3247 1.499 . S
C3250 C3251 1.373 1_554 S
C3250 C3252 1.389 . S
C3251 H3230 0.950 . S
C3251 C3250 1.373 1_556 S
C3251 C3267 1.377 . S
C3252 C3250 1.389 . S
C3252 C3253 1.524 . S
C3252 C3266 1.377 . S
C3253 C3252 1.524 . S
C3253 C3254 1.397 . S
C3253 C3258 1.363 . S
C3254 H3231 0.950 . S
C3254 C3253 1.397 . S
C3254 C3255 1.334 . S
C3255 H3232 0.950 . S
C3255 C3254 1.334 . S
C3255 C3256 1.287 . S
C3256 C3255 1.287 . S
C3256 C3257 1.524 . S
C3256 H3275 0.913 . S
C3257 H3233 0.950 . S
C3257 C3256 1.524 . S
C3257 C3258 1.415 . S
C3258 H3234 0.950 . S
C3258 C3253 1.363 . S
C3258 C3257 1.415 . S
C3259 H3235 0.982 . S
C3259 C3260 1.336 1_556 S
C3259 C3261 1.388 . S
C3260 C3259 1.336 1_554 S
C3260 C3264 1.385 . S
C3261 H3236 0.986 . S
C3261 C3259 1.388 . S
C3261 C3262 1.332 1_556 S
C3262 C3261 1.332 1_554 S
C3262 C3263 1.414 . S
C3262 C3265 1.499 . S
C3263 H3237 0.950 . S
C3263 C3262 1.414 . S
C3263 C3264 1.374 . S
C3264 H3238 0.950 . S
C3264 C3260 1.385 . S
C3264 C3263 1.374 . S
C3265 C3262 1.499 . S
C3265 C3266 1.373 . S
C3265 C3267 1.389 1_554 S
C3266 H3239 0.950 . S
C3266 C3252 1.377 . S
C3266 C3265 1.373 . S
C3267 C3251 1.377 . S
C3267 C3265 1.389 1_556 S
C3267 C3268 1.524 . S
C3268 C3267 1.524 . S
C3268 C3269 1.397 . S
C3268 C3273 1.363 . S
C3269 H3240 0.950 . S
C3269 C3268 1.397 . S
C3269 C3270 1.334 . S
C3270 H3241 0.950 . S
C3270 C3269 1.334 . S
C3270 C3271 1.287 . S
C3271 C3270 1.287 . S
C3271 C3272 1.524 . S
C3271 H3274 0.999 . S
C3272 H3242 0.950 . S
C3272 C3271 1.524 . S
C3272 C3273 1.415 . S
C3273 H3243 0.950 . S
C3273 C3268 1.363 . S
C3273 C3272 1.415 . S
H3274 C3271 0.999 . S
H3275 C3256 0.913 . S
H3276 C3294 0.951 . S
H3277 C3296 0.951 . S
H3278 C3298 0.950 . S
H3279 C3299 0.950 . S
H3280 C3301 0.950 . S
H3281 C3304 0.950 . S
H3282 C3305 0.950 . S
H3283 C3307 0.950 . S
H3284 C3308 0.950 . S
H3285 C3309 0.951 . S
H3286 C3311 0.951 . S
H3287 C3313 0.950 1_556 S
H3288 C3314 0.950 1_556 S
H3289 C3316 0.950 . S
H3290 C3319 0.950 . S
H3291 C3320 0.950 . S
H3292 C3322 0.957 . S
H3293 C3323 0.950 . S
C3294 H3276 0.951 . S
C3294 C3295 1.366 . S
C3294 C3296 1.388 . S
C3295 C3294 1.366 . S
C3295 C3299 1.385 . S
C3296 H3277 0.951 . S
C3296 C3294 1.388 . S
C3296 C3297 1.366 . S
C3297 C3296 1.366 . S
C3297 C3298 1.414 . S
C3297 C3300 1.499 . S
C3298 H3278 0.950 . S
C3298 C3297 1.414 . S
C3298 C3299 1.374 . S
C3299 H3279 0.950 . S
C3299 C3295 1.385 . S
C3299 C3298 1.374 . S
C3300 C3297 1.499 . S
C3300 C3301 1.373 . S
C3300 C3302 1.389 . S
C3301 H3280 0.950 . S
C3301 C3300 1.373 . S
C3301 C3317 1.377 . S
C3302 C3300 1.389 . S
C3302 C3303 1.524 . S
C3302 C3316 1.377 . S
C3303 C3302 1.524 . S
C3303 C3304 1.397 . S
C3303 C3308 1.363 . S
C3304 H3281 0.950 . S
C3304 C3303 1.397 . S
C3304 C3305 1.334 . S
C3305 H3282 0.950 . S
C3305 C3304 1.334 . S
C3305 C3306 1.287 . S
C3306 C3305 1.287 . S
C3306 C3307 1.524 . S
C3306 H3325 0.913 . S
C3307 H3283 0.950 . S
C3307 C3306 1.524 . S
C3307 C3308 1.415 . S
C3308 H3284 0.950 . S
C3308 C3303 1.363 . S
C3308 C3307 1.415 . S
C3309 H3285 0.951 . S
C3309 C3310 1.366 . S
C3309 C3311 1.388 . S
C3310 C3309 1.366 . S
C3310 C3314 1.385 . S
C3311 H3286 0.951 . S
C3311 C3309 1.388 . S
C3311 C3312 1.366 . S
C3312 C3311 1.366 . S
C3312 C3313 1.414 . S
C3312 C3315 1.499 . S
C3313 H3287 0.950 1_554 S
C3313 C3312 1.414 . S
C3313 C3314 1.374 . S
C3314 H3288 0.950 1_554 S
C3314 C3310 1.385 . S
C3314 C3313 1.374 . S
C3315 C3312 1.499 . S
C3315 C3316 1.373 . S
C3315 C3317 1.389 . S
C3316 H3289 0.950 . S
C3316 C3302 1.377 . S
C3316 C3315 1.373 . S
C3317 C3301 1.377 . S
C3317 C3315 1.389 . S
C3317 C3318 1.524 1_554 S
C3318 C3317 1.524 1_556 S
C3318 C3319 1.397 . S
C3318 C3323 1.363 1_556 S
C3319 H3290 0.950 . S
C3319 C3318 1.397 . S
C3319 C3320 1.334 . S
C3320 H3291 0.950 . S
C3320 C3319 1.334 . S
C3320 C3321 1.287 . S
C3321 C3320 1.287 . S
C3321 C3322 1.524 . S
C3321 H3324 0.999 . S
C3322 H3292 0.957 . S
C3322 C3321 1.524 . S
C3322 C3323 1.415 1_556 S
C3323 H3293 0.950 . S
C3323 C3318 1.363 1_554 S
C3323 C3322 1.415 1_554 S
H3324 C3321 0.999 . S
H3325 C3306 0.913 . S
H3326 C3344 0.951 . S
H3327 C3346 0.951 . S
H3328 C3348 0.951 . S
H3329 C3349 0.950 . S
H3330 C3351 0.950 . S
H3331 C3354 0.950 . S
H3332 C3355 0.950 . S
H3333 C3357 0.950 . S
H3334 C3358 0.950 . S
H3335 C3359 0.951 . S
H3336 C3361 0.954 . S
H3337 C3363 0.950 . S
H3338 C3364 0.950 . S
H3339 C3366 0.950 . S
H3340 C3369 0.950 . S
H3341 C3370 0.950 . S
H3342 C3372 0.935 1_455 S
H3343 C3373 0.950 . S
C3344 H3326 0.951 . S
C3344 C3345 1.366 . S
C3344 C3346 1.388 . S
C3345 C3344 1.366 . S
C3345 C3349 1.384 1_554 S
C3346 H3327 0.951 . S
C3346 C3344 1.388 . S
C3346 C3347 1.366 . S
C3347 C3346 1.366 . S
C3347 C3348 1.413 1_554 S
C3347 C3350 1.499 . S
C3348 H3328 0.951 . S
C3348 C3347 1.413 1_556 S
C3348 C3349 1.374 . S
C3349 H3329 0.950 . S
C3349 C3345 1.384 1_556 S
C3349 C3348 1.374 . S
C3350 C3347 1.499 . S
C3350 C3351 1.373 . S
C3350 C3352 1.389 1_554 S
C3351 H3330 0.950 . S
C3351 C3350 1.373 . S
C3351 C3367 1.377 . S
C3352 C3350 1.389 1_556 S
C3352 C3353 1.524 . S
C3352 C3366 1.377 . S
C3353 C3352 1.524 . S
C3353 C3354 1.397 . S
C3353 C3358 1.363 . S
C3354 H3331 0.950 . S
C3354 C3353 1.397 . S
C3354 C3355 1.334 . S
C3355 H3332 0.950 . S
C3355 C3354 1.334 . S
C3355 C3356 1.287 . S
C3356 C3355 1.287 . S
C3356 C3357 1.524 . S
C3356 H3375 0.913 . S
C3357 H3333 0.950 . S
C3357 C3356 1.524 . S
C3357 C3358 1.415 . S
C3358 H3334 0.950 . S
C3358 C3353 1.363 . S
C3358 C3357 1.415 . S
C3359 H3335 0.951 . S
C3359 C3360 1.366 . S
C3359 C3361 1.388 . S
C3360 C3359 1.366 . S
C3360 C3364 1.385 . S
C3361 H3336 0.954 . S
C3361 C3359 1.388 . S
C3361 C3362 1.366 . S
C3362 C3361 1.366 . S
C3362 C3363 1.414 . S
C3362 C3365 1.499 . S
C3363 H3337 0.950 . S
C3363 C3362 1.414 . S
C3363 C3364 1.374 . S
C3364 H3338 0.950 . S
C3364 C3360 1.385 . S
C3364 C3363 1.374 . S
C3365 C3362 1.499 . S
C3365 C3366 1.373 1_554 S
C3365 C3367 1.389 . S
C3366 H3339 0.950 . S
C3366 C3352 1.377 . S
C3366 C3365 1.373 1_556 S
C3367 C3351 1.377 . S
C3367 C3365 1.389 . S
C3367 C3368 1.524 . S
C3368 C3367 1.524 . S
C3368 C3369 1.397 . S
C3368 C3373 1.363 . S
C3369 H3340 0.950 . S
C3369 C3368 1.397 . S
C3369 C3370 1.334 . S
C3370 H3341 0.950 . S
C3370 C3369 1.334 . S
C3370 C3371 1.287 . S
C3371 C3370 1.287 . S
C3371 C3372 1.524 . S
C3371 H3374 0.999 . S
C3372 H3342 0.935 1_655 S
C3372 C3371 1.524 . S
C3372 C3373 1.415 . S
C3373 H3343 0.950 . S
C3373 C3368 1.363 . S
C3373 C3372 1.415 . S
H3374 C3371 0.999 . S
H3375 C3356 0.913 . S
H3376 C3394 0.951 . S
H3377 C3396 0.951 . S
H3378 C3398 0.950 . S
H3379 C3399 0.950 . S
H3380 C3401 0.950 . S
H3381 C3404 0.950 . S
H3382 C3405 0.950 . S
H3383 C3407 0.950 . S
H3384 C3408 0.950 . S
H3385 C3409 0.951 . S
H3386 C3411 0.951 . S
H3387 C3413 0.950 . S
H3388 C3414 0.950 . S
H3389 C3416 0.950 . S
H3390 C3419 0.950 . S
H3391 C3420 0.950 . S
H3392 C3422 0.950 . S
H3393 C3423 0.950 . S
C3394 H3376 0.951 . S
C3394 C3395 1.366 . S
C3394 C3396 1.388 . S
C3395 C3394 1.366 . S
C3395 C3399 1.385 . S
C3396 H3377 0.951 . S
C3396 C3394 1.388 . S
C3396 C3397 1.366 . S
C3397 C3396 1.366 . S
C3397 C3398 1.414 . S
C3397 C3400 1.499 . S
C3398 H3378 0.950 . S
C3398 C3397 1.414 . S
C3398 C3399 1.374 . S
C3399 H3379 0.950 . S
C3399 C3395 1.385 . S
C3399 C3398 1.374 . S
C3400 C3397 1.499 . S
C3400 C3401 1.373 . S
C3400 C3402 1.389 1_554 S
C3401 H3380 0.950 . S
C3401 C3400 1.373 . S
C3401 C3417 1.377 . S
C3402 C3400 1.389 1_556 S
C3402 C3403 1.524 . S
C3402 C3416 1.377 . S
C3403 C3402 1.524 . S
C3403 C3404 1.397 . S
C3403 C3408 1.363 . S
C3404 H3381 0.950 . S
C3404 C3403 1.397 . S
C3404 C3405 1.334 . S
C3405 H3382 0.950 . S
C3405 C3404 1.334 . S
C3405 C3406 1.287 . S
C3406 C3405 1.287 . S
C3406 C3407 1.524 . S
C3406 H3425 0.913 . S
C3407 H3383 0.950 . S
C3407 C3406 1.524 . S
C3407 C3408 1.415 . S
C3408 H3384 0.950 . S
C3408 C3403 1.363 . S
C3408 C3407 1.415 . S
C3409 H3385 0.951 . S
C3409 C3410 1.366 . S
C3409 C3411 1.388 . S
C3410 C3409 1.366 . S
C3410 C3414 1.385 . S
C3411 H3386 0.951 . S
C3411 C3409 1.388 . S
C3411 C3412 1.366 . S
C3412 C3411 1.366 . S
C3412 C3413 1.414 . S
C3412 C3415 1.499 . S
C3413 H3387 0.950 . S
C3413 C3412 1.414 . S
C3413 C3414 1.374 . S
C3414 H3388 0.950 . S
C3414 C3410 1.385 . S
C3414 C3413 1.374 . S
C3415 C3412 1.499 . S
C3415 C3416 1.373 1_554 S
C3415 C3417 1.389 . S
C3416 H3389 0.950 . S
C3416 C3402 1.377 . S
C3416 C3415 1.373 1_556 S
C3417 C3401 1.377 . S
C3417 C3415 1.389 . S
C3417 C3418 1.524 . S
C3418 C3417 1.524 . S
C3418 C3419 1.397 . S
C3418 C3423 1.363 . S
C3419 H3390 0.950 . S
C3419 C3418 1.397 . S
C3419 C3420 1.334 . S
C3420 H3391 0.950 . S
C3420 C3419 1.334 . S
C3420 C3421 1.287 . S
C3421 C3420 1.287 . S
C3421 C3422 1.524 . S
C3421 H3424 0.999 . S
C3422 H3392 0.950 . S
C3422 C3421 1.524 . S
C3422 C3423 1.415 . S
C3423 H3393 0.950 . S
C3423 C3418 1.363 . S
C3423 C3422 1.415 . S
H3424 C3421 0.999 . S
H3425 C3406 0.913 . S
H3426 C3444 0.951 . S
H3427 C3446 0.951 . S
H3428 C3448 0.950 . S
H3429 C3449 0.950 . S
H3430 C3451 0.950 . S
H3431 C3454 0.950 . S
H3432 C3455 0.950 . S
H3433 C3457 0.950 . S
H3434 C3458 0.950 . S
H3435 C3459 0.951 . S
H3436 C3461 0.951 . S
H3437 C3463 0.950 . S
H3438 C3464 0.950 . S
H3439 C3466 0.950 . S
H3440 C3469 0.950 . S
H3441 C3470 0.950 . S
H3442 C3472 0.950 . S
H3443 C3473 0.950 . S
C3444 H3426 0.951 . S
C3444 C3445 1.366 1_556 S
C3444 C3446 1.388 . S
C3445 C3444 1.366 1_554 S
C3445 C3449 1.385 . S
C3446 H3427 0.951 . S
C3446 C3444 1.388 . S
C3446 C3447 1.366 1_556 S
C3447 C3446 1.366 1_554 S
C3447 C3448 1.414 . S
C3447 C3450 1.499 . S
C3448 H3428 0.950 . S
C3448 C3447 1.414 . S
C3448 C3449 1.374 . S
C3449 H3429 0.950 . S
C3449 C3445 1.385 . S
C3449 C3448 1.374 . S
C3450 C3447 1.499 . S
C3450 C3451 1.373 . S
C3450 C3452 1.389 1_554 S
C3451 H3430 0.950 . S
C3451 C3450 1.373 . S
C3451 C3467 1.377 . S
C3452 C3450 1.389 1_556 S
C3452 C3453 1.524 . S
C3452 C3466 1.377 . S
C3453 C3452 1.524 . S
C3453 C3454 1.397 . S
C3453 C3458 1.363 . S
C3454 H3431 0.950 . S
C3454 C3453 1.397 . S
C3454 C3455 1.334 . S
C3455 H3432 0.950 . S
C3455 C3454 1.334 . S
C3455 C3456 1.287 . S
C3456 C3455 1.287 . S
C3456 C3457 1.524 . S
C3456 H3475 0.913 . S
C3457 H3433 0.950 . S
C3457 C3456 1.524 . S
C3457 C3458 1.415 . S
C3458 H3434 0.950 . S
C3458 C3453 1.363 . S
C3458 C3457 1.415 . S
C3459 H3435 0.951 . S
C3459 C3460 1.366 . S
C3459 C3461 1.388 . S
C3460 C3459 1.366 . S
C3460 C3464 1.385 1_554 S
C3461 H3436 0.951 . S
C3461 C3459 1.388 . S
C3461 C3462 1.366 . S
C3462 C3461 1.366 . S
C3462 C3463 1.414 1_554 S
C3462 C3465 1.499 . S
C3463 H3437 0.950 . S
C3463 C3462 1.414 1_556 S
C3463 C3464 1.374 . S
C3464 H3438 0.950 . S
C3464 C3460 1.385 1_556 S
C3464 C3463 1.374 . S
C3465 C3462 1.499 . S
C3465 C3466 1.373 1_554 S
C3465 C3467 1.389 . S
C3466 H3439 0.950 . S
C3466 C3452 1.377 . S
C3466 C3465 1.373 1_556 S
C3467 C3451 1.377 . S
C3467 C3465 1.389 . S
C3467 C3468 1.524 . S
C3468 C3467 1.524 . S
C3468 C3469 1.397 . S
C3468 C3473 1.363 . S
C3469 H3440 0.950 . S
C3469 C3468 1.397 . S
C3469 C3470 1.334 . S
C3470 H3441 0.950 . S
C3470 C3469 1.334 . S
C3470 C3471 1.287 . S
C3471 C3470 1.287 . S
C3471 C3472 1.524 . S
C3471 H3474 0.999 . S
C3472 H3442 0.950 . S
C3472 C3471 1.524 . S
C3472 C3473 1.415 . S
C3473 H3443 0.950 . S
C3473 C3468 1.363 . S
C3473 C3472 1.415 . S
H3474 C3471 0.999 . S
H3475 C3456 0.913 . S
H3476 C3494 0.951 . S
H3477 C3496 0.951 . S
H3478 C3498 0.950 . S
H3479 C3499 0.950 . S
H3480 C3501 0.950 . S
H3481 C3504 0.950 . S
H3482 C3505 0.950 . S
H3483 C3507 0.950 . S
H3484 C3508 0.950 . S
H3485 C3509 0.951 . S
H3486 C3511 0.951 . S
H3487 C3513 0.950 . S
H3488 C3514 0.950 . S
H3489 C3516 0.950 . S
H3490 C3519 0.950 . S
H3491 C3520 0.950 . S
H3492 C3522 0.950 . S
H3493 C3523 0.950 . S
C3494 H3476 0.951 . S
C3494 C3495 1.366 . S
C3494 C3496 1.388 . S
C3495 C3494 1.366 . S
C3495 C3499 1.385 . S
C3496 H3477 0.951 . S
C3496 C3494 1.388 . S
C3496 C3497 1.366 . S
C3497 C3496 1.366 . S
C3497 C3498 1.414 . S
C3497 C3500 1.499 . S
C3498 H3478 0.950 . S
C3498 C3497 1.414 . S
C3498 C3499 1.374 . S
C3499 H3479 0.950 . S
C3499 C3495 1.385 . S
C3499 C3498 1.374 . S
C3500 C3497 1.499 . S
C3500 C3501 1.373 . S
C3500 C3502 1.389 1_554 S
C3501 H3480 0.950 . S
C3501 C3500 1.373 . S
C3501 C3517 1.377 . S
C3502 C3500 1.389 1_556 S
C3502 C3503 1.524 . S
C3502 C3516 1.377 . S
C3503 C3502 1.524 . S
C3503 C3504 1.397 . S
C3503 C3508 1.363 . S
C3504 H3481 0.950 . S
C3504 C3503 1.397 . S
C3504 C3505 1.334 . S
C3505 H3482 0.950 . S
C3505 C3504 1.334 . S
C3505 C3506 1.287 . S
C3506 C3505 1.287 . S
C3506 C3507 1.524 . S
C3506 H3525 0.913 . S
C3507 H3483 0.950 . S
C3507 C3506 1.524 . S
C3507 C3508 1.415 . S
C3508 H3484 0.950 . S
C3508 C3503 1.363 . S
C3508 C3507 1.415 . S
C3509 H3485 0.951 . S
C3509 C3510 1.366 . S
C3509 C3511 1.388 . S
C3510 C3509 1.366 . S
C3510 C3514 1.385 . S
C3511 H3486 0.951 . S
C3511 C3509 1.388 . S
C3511 C3512 1.366 . S
C3512 C3511 1.366 . S
C3512 C3513 1.414 . S
C3512 C3515 1.499 . S
C3513 H3487 0.950 . S
C3513 C3512 1.414 . S
C3513 C3514 1.374 . S
C3514 H3488 0.950 . S
C3514 C3510 1.385 . S
C3514 C3513 1.374 . S
C3515 C3512 1.499 . S
C3515 C3516 1.373 1_554 S
C3515 C3517 1.389 . S
C3516 H3489 0.950 . S
C3516 C3502 1.377 . S
C3516 C3515 1.373 1_556 S
C3517 C3501 1.377 . S
C3517 C3515 1.389 . S
C3517 C3518 1.524 . S
C3518 C3517 1.524 . S
C3518 C3519 1.397 . S
C3518 C3523 1.363 . S
C3519 H3490 0.950 . S
C3519 C3518 1.397 . S
C3519 C3520 1.334 . S
C3520 H3491 0.950 . S
C3520 C3519 1.334 . S
C3520 C3521 1.287 . S
C3521 C3520 1.287 . S
C3521 C3522 1.524 . S
C3521 H3524 0.999 . S
C3522 H3492 0.950 . S
C3522 C3521 1.524 . S
C3522 C3523 1.415 . S
C3523 H3493 0.950 . S
C3523 C3518 1.363 . S
C3523 C3522 1.415 . S
H3524 C3521 0.999 . S
H3525 C3506 0.913 . S
H3526 C3544 0.951 . S
H3527 C3546 0.951 . S
H3528 C3548 0.950 . S
H3529 C3549 0.950 . S
H3530 C3551 0.950 . S
H3531 C3554 0.950 . S
H3532 C3555 0.950 . S
H3533 C3557 0.950 . S
H3534 C3558 0.950 . S
H3535 C3559 0.951 . S
H3536 C3561 0.951 . S
H3537 C3563 0.939 1_556 S
H3538 C3564 0.950 1_556 S
H3539 C3566 0.950 . S
H3540 C3569 0.950 . S
H3541 C3570 0.950 . S
H3542 C3572 0.950 . S
H3543 C3573 0.950 . S
C3544 H3526 0.951 . S
C3544 C3545 1.366 1_556 S
C3544 C3546 1.388 . S
C3545 C3544 1.366 1_554 S
C3545 C3549 1.385 . S
C3546 H3527 0.951 . S
C3546 C3544 1.388 . S
C3546 C3547 1.366 1_556 S
C3547 C3546 1.366 1_554 S
C3547 C3548 1.414 . S
C3547 C3550 1.499 . S
C3548 H3528 0.950 . S
C3548 C3547 1.414 . S
C3548 C3549 1.374 . S
C3549 H3529 0.950 . S
C3549 C3545 1.385 . S
C3549 C3548 1.374 . S
C3550 C3547 1.499 . S
C3550 C3551 1.373 1_554 S
C3550 C3552 1.389 . S
C3551 H3530 0.950 . S
C3551 C3550 1.373 1_556 S
C3551 C3567 1.377 . S
C3552 C3550 1.389 . S
C3552 C3553 1.524 . S
C3552 C3566 1.377 . S
C3553 C3552 1.524 . S
C3553 C3554 1.397 . S
C3553 C3558 1.363 . S
C3554 H3531 0.950 . S
C3554 C3553 1.397 . S
C3554 C3555 1.334 . S
C3555 H3532 0.950 . S
C3555 C3554 1.334 . S
C3555 C3556 1.287 . S
C3556 C3555 1.287 . S
C3556 C3557 1.524 . S
C3556 H3575 0.913 . S
C3557 H3533 0.950 . S
C3557 C3556 1.524 . S
C3557 C3558 1.415 . S
C3558 H3534 0.950 . S
C3558 C3553 1.363 . S
C3558 C3557 1.415 . S
C3559 H3535 0.951 . S
C3559 C3560 1.366 . S
C3559 C3561 1.388 . S
C3560 C3559 1.366 . S
C3560 C3564 1.385 . S
C3561 H3536 0.951 . S
C3561 C3559 1.388 . S
C3561 C3562 1.366 . S
C3562 C3561 1.366 . S
C3562 C3563 1.424 . S
C3562 C3565 1.499 . S
C3563 H3537 0.939 1_554 S
C3563 C3562 1.424 . S
C3563 C3564 1.377 . S
C3564 H3538 0.950 1_554 S
C3564 C3560 1.385 . S
C3564 C3563 1.377 . S
C3565 C3562 1.499 . S
C3565 C3566 1.373 . S
C3565 C3567 1.389 1_554 S
C3566 H3539 0.950 . S
C3566 C3552 1.377 . S
C3566 C3565 1.373 . S
C3567 C3551 1.377 . S
C3567 C3565 1.389 1_556 S
C3567 C3568 1.524 . S
C3568 C3567 1.524 . S
C3568 C3569 1.397 . S
C3568 C3573 1.363 . S
C3569 H3540 0.950 . S
C3569 C3568 1.397 . S
C3569 C3570 1.334 . S
C3570 H3541 0.950 . S
C3570 C3569 1.334 . S
C3570 C3571 1.287 . S
C3571 C3570 1.287 . S
C3571 C3572 1.524 . S
C3571 H3574 0.999 . S
C3572 H3542 0.950 . S
C3572 C3571 1.524 . S
C3572 C3573 1.415 . S
C3573 H3543 0.950 . S
C3573 C3568 1.363 . S
C3573 C3572 1.415 . S
H3574 C3571 0.999 . S
H3575 C3556 0.913 . S
H3576 C3594 0.951 . S
H3577 C3596 0.951 . S
H3578 C3598 0.950 . S
H3579 C3599 0.950 . S
H3580 C3601 0.950 . S
H3581 C3604 0.950 . S
H3582 C3605 0.950 . S
H3583 C3607 0.950 . S
H3584 C3608 0.950 . S
H3585 C3609 0.951 . S
H3586 C3611 0.951 . S
H3587 C3613 0.950 . S
H3588 C3614 0.950 . S
H3589 C3616 0.950 . S
H3590 C3619 0.950 . S
H3591 C3620 0.950 . S
H3592 C3622 0.950 . S
H3593 C3623 0.950 . S
C3594 H3576 0.951 . S
C3594 C3595 1.366 . S
C3594 C3596 1.388 . S
C3595 C3594 1.366 . S
C3595 C3599 1.385 . S
C3596 H3577 0.951 . S
C3596 C3594 1.388 . S
C3596 C3597 1.366 . S
C3597 C3596 1.366 . S
C3597 C3598 1.414 . S
C3597 C3600 1.499 . S
C3598 H3578 0.950 . S
C3598 C3597 1.414 . S
C3598 C3599 1.374 . S
C3599 H3579 0.950 . S
C3599 C3595 1.385 . S
C3599 C3598 1.374 . S
C3600 C3597 1.499 . S
C3600 C3601 1.373 . S
C3600 C3602 1.389 . S
C3601 H3580 0.950 . S
C3601 C3600 1.373 . S
C3601 C3617 1.377 . S
C3602 C3600 1.389 . S
C3602 C3603 1.524 . S
C3602 C3616 1.377 . S
C3603 C3602 1.524 . S
C3603 C3604 1.397 . S
C3603 C3608 1.363 . S
C3604 H3581 0.950 . S
C3604 C3603 1.397 . S
C3604 C3605 1.334 . S
C3605 H3582 0.950 . S
C3605 C3604 1.334 . S
C3605 C3606 1.287 . S
C3606 C3605 1.287 . S
C3606 C3607 1.524 . S
C3606 H3625 0.913 . S
C3607 H3583 0.950 . S
C3607 C3606 1.524 . S
C3607 C3608 1.415 . S
C3608 H3584 0.950 . S
C3608 C3603 1.363 . S
C3608 C3607 1.415 . S
C3609 H3585 0.951 . S
C3609 C3610 1.366 . S
C3609 C3611 1.388 . S
C3610 C3609 1.366 . S
C3610 C3614 1.385 . S
C3611 H3586 0.951 . S
C3611 C3609 1.388 . S
C3611 C3612 1.366 . S
C3612 C3611 1.366 . S
C3612 C3613 1.414 . S
C3612 C3615 1.499 . S
C3613 H3587 0.950 . S
C3613 C3612 1.414 . S
C3613 C3614 1.374 . S
C3614 H3588 0.950 . S
C3614 C3610 1.385 . S
C3614 C3613 1.374 . S
C3615 C3612 1.499 . S
C3615 C3616 1.373 . S
C3615 C3617 1.389 . S
C3616 H3589 0.950 . S
C3616 C3602 1.377 . S
C3616 C3615 1.373 . S
C3617 C3601 1.377 . S
C3617 C3615 1.389 . S
C3617 C3618 1.524 . S
C3618 C3617 1.524 . S
C3618 C3619 1.397 . S
C3618 C3623 1.363 . S
C3619 H3590 0.950 . S
C3619 C3618 1.397 . S
C3619 C3620 1.334 . S
C3620 H3591 0.950 . S
C3620 C3619 1.334 . S
C3620 C3621 1.287 . S
C3621 C3620 1.287 . S
C3621 C3622 1.524 . S
C3621 H3624 0.999 . S
C3622 H3592 0.950 . S
C3622 C3621 1.524 . S
C3622 C3623 1.415 . S
C3623 H3593 0.950 . S
C3623 C3618 1.363 . S
C3623 C3622 1.415 . S
H3624 C3621 0.999 . S
H3625 C3606 0.913 . S
H3626 C3644 0.951 . S
H3627 C3646 0.951 . S
H3628 C3648 0.950 . S
H3629 C3649 0.950 . S
H3630 C3651 0.950 . S
H3631 C3654 0.950 . S
H3632 C3655 0.950 . S
H3633 C3657 0.950 . S
H3634 C3658 0.950 . S
H3635 C3659 0.951 . S
H3636 C3661 0.951 . S
H3637 C3663 0.950 . S
H3638 C3664 0.950 . S
H3639 C3666 0.950 . S
H3640 C3669 0.950 . S
H3641 C3670 0.950 . S
H3642 C3672 0.950 . S
H3643 C3673 0.950 . S
C3644 H3626 0.951 . S
C3644 C3645 1.366 . S
C3644 C3646 1.388 . S
C3645 C3644 1.366 . S
C3645 C3649 1.385 . S
C3646 H3627 0.951 . S
C3646 C3644 1.388 . S
C3646 C3647 1.366 . S
C3647 C3646 1.366 . S
C3647 C3648 1.414 . S
C3647 C3650 1.499 . S
C3648 H3628 0.950 . S
C3648 C3647 1.414 . S
C3648 C3649 1.374 . S
C3649 H3629 0.950 . S
C3649 C3645 1.385 . S
C3649 C3648 1.374 . S
C3650 C3647 1.499 . S
C3650 C3651 1.373 . S
C3650 C3652 1.389 . S
C3651 H3630 0.950 . S
C3651 C3650 1.373 . S
C3651 C3667 1.377 . S
C3652 C3650 1.389 . S
C3652 C3653 1.524 . S
C3652 C3666 1.377 . S
C3653 C3652 1.524 . S
C3653 C3654 1.397 . S
C3653 C3658 1.363 . S
C3654 H3631 0.950 . S
C3654 C3653 1.397 . S
C3654 C3655 1.334 . S
C3655 H3632 0.950 . S
C3655 C3654 1.334 . S
C3655 C3656 1.287 . S
C3656 C3655 1.287 . S
C3656 C3657 1.524 . S
C3656 H3675 0.913 . S
C3657 H3633 0.950 . S
C3657 C3656 1.524 . S
C3657 C3658 1.415 . S
C3658 H3634 0.950 . S
C3658 C3653 1.363 . S
C3658 C3657 1.415 . S
C3659 H3635 0.951 . S
C3659 C3660 1.366 . S
C3659 C3661 1.388 . S
C3660 C3659 1.366 . S
C3660 C3664 1.385 . S
C3661 H3636 0.951 . S
C3661 C3659 1.388 . S
C3661 C3662 1.366 . S
C3662 C3661 1.366 . S
C3662 C3663 1.414 . S
C3662 C3665 1.499 . S
C3663 H3637 0.950 . S
C3663 C3662 1.414 . S
C3663 C3664 1.374 . S
C3664 H3638 0.950 . S
C3664 C3660 1.385 . S
C3664 C3663 1.374 . S
C3665 C3662 1.499 . S
C3665 C3666 1.373 . S
C3665 C3667 1.389 . S
C3666 H3639 0.950 . S
C3666 C3652 1.377 . S
C3666 C3665 1.373 . S
C3667 C3651 1.377 . S
C3667 C3665 1.389 . S
C3667 C3668 1.524 . S
C3668 C3667 1.524 . S
C3668 C3669 1.397 . S
C3668 C3673 1.363 . S
C3669 H3640 0.950 . S
C3669 C3668 1.397 . S
C3669 C3670 1.334 . S
C3670 H3641 0.950 . S
C3670 C3669 1.334 . S
C3670 C3671 1.287 . S
C3671 C3670 1.287 . S
C3671 C3672 1.524 . S
C3671 H3674 0.999 . S
C3672 H3642 0.950 . S
C3672 C3671 1.524 . S
C3672 C3673 1.415 . S
C3673 H3643 0.950 . S
C3673 C3668 1.363 . S
C3673 C3672 1.415 . S
H3674 C3671 0.999 . S
H3675 C3656 0.913 . S
H3676 C3694 0.951 . S
H3677 C3696 0.951 . S
H3678 C3698 0.950 . S
H3679 C3699 0.950 . S
H3680 C3701 0.950 . S
H3681 C3704 0.950 . S
H3682 C3705 0.950 . S
H3683 C3707 0.950 . S
H3684 C3708 0.950 . S
H3685 C3709 0.951 . S
H3686 C3711 0.951 . S
H3687 C3713 0.950 . S
H3688 C3714 0.950 . S
H3689 C3716 0.950 . S
H3690 C3719 0.950 . S
H3691 C3720 0.950 . S
H3692 C3722 0.950 . S
H3693 C3723 0.950 . S
C3694 H3676 0.951 . S
C3694 C3695 1.366 . S
C3694 C3696 1.388 . S
C3695 C3694 1.366 . S
C3695 C3699 1.385 . S
C3696 H3677 0.951 . S
C3696 C3694 1.388 . S
C3696 C3697 1.366 . S
C3697 C3696 1.366 . S
C3697 C3698 1.414 . S
C3697 C3700 1.499 . S
C3698 H3678 0.950 . S
C3698 C3697 1.414 . S
C3698 C3699 1.374 . S
C3699 H3679 0.950 . S
C3699 C3695 1.385 . S
C3699 C3698 1.374 . S
C3700 C3697 1.499 . S
C3700 C3701 1.373 . S
C3700 C3702 1.389 . S
C3701 H3680 0.950 . S
C3701 C3700 1.373 . S
C3701 C3717 1.377 . S
C3702 C3700 1.389 . S
C3702 C3703 1.524 . S
C3702 C3716 1.377 . S
C3703 C3702 1.524 . S
C3703 C3704 1.397 . S
C3703 C3708 1.363 . S
C3704 H3681 0.950 . S
C3704 C3703 1.397 . S
C3704 C3705 1.334 . S
C3705 H3682 0.950 . S
C3705 C3704 1.334 . S
C3705 C3706 1.287 . S
C3706 C3705 1.287 . S
C3706 C3707 1.524 . S
C3706 H3725 0.913 . S
C3707 H3683 0.950 . S
C3707 C3706 1.524 . S
C3707 C3708 1.415 . S
C3708 H3684 0.950 . S
C3708 C3703 1.363 . S
C3708 C3707 1.415 . S
C3709 H3685 0.951 . S
C3709 C3710 1.366 . S
C3709 C3711 1.388 . S
C3710 C3709 1.366 . S
C3710 C3714 1.385 . S
C3711 H3686 0.951 . S
C3711 C3709 1.388 . S
C3711 C3712 1.366 . S
C3712 C3711 1.366 . S
C3712 C3713 1.414 . S
C3712 C3715 1.499 . S
C3713 H3687 0.950 . S
C3713 C3712 1.414 . S
C3713 C3714 1.374 . S
C3714 H3688 0.950 . S
C3714 C3710 1.385 . S
C3714 C3713 1.374 . S
C3715 C3712 1.499 . S
C3715 C3716 1.373 . S
C3715 C3717 1.389 . S
C3716 H3689 0.950 . S
C3716 C3702 1.377 . S
C3716 C3715 1.373 . S
C3717 C3701 1.377 . S
C3717 C3715 1.389 . S
C3717 C3718 1.524 . S
C3718 C3717 1.524 . S
C3718 C3719 1.397 . S
C3718 C3723 1.363 . S
C3719 H3690 0.950 . S
C3719 C3718 1.397 . S
C3719 C3720 1.334 . S
C3720 H3691 0.950 . S
C3720 C3719 1.334 . S
C3720 C3721 1.287 . S
C3721 C3720 1.287 . S
C3721 C3722 1.524 . S
C3721 H3724 0.999 . S
C3722 H3692 0.950 . S
C3722 C3721 1.524 . S
C3722 C3723 1.415 . S
C3723 H3693 0.950 . S
C3723 C3718 1.363 . S
C3723 C3722 1.415 . S
H3724 C3721 0.999 . S
H3725 C3706 0.913 . S
H3726 C3744 0.951 . S
H3727 C3746 0.951 . S
H3728 C3748 0.950 . S
H3729 C3749 0.950 . S
H3730 C3751 0.950 . S
H3731 C3754 0.950 . S
H3732 C3755 0.950 . S
H3733 C3757 0.950 . S
H3734 C3758 0.950 . S
H3735 C3759 0.951 . S
H3736 C3761 0.951 . S
H3737 C3763 0.950 . S
H3738 C3764 0.950 . S
H3739 C3766 0.950 . S
H3740 C3769 0.950 . S
H3741 C3770 0.950 . S
H3742 C3772 0.950 . S
H3743 C3773 0.950 . S
C3744 H3726 0.951 . S
C3744 C3745 1.366 . S
C3744 C3746 1.388 . S
C3745 C3744 1.366 . S
C3745 C3749 1.385 . S
C3746 H3727 0.951 . S
C3746 C3744 1.388 . S
C3746 C3747 1.366 . S
C3747 C3746 1.366 . S
C3747 C3748 1.414 . S
C3747 C3750 1.499 . S
C3748 H3728 0.950 . S
C3748 C3747 1.414 . S
C3748 C3749 1.374 . S
C3749 H3729 0.950 . S
C3749 C3745 1.385 . S
C3749 C3748 1.374 . S
C3750 C3747 1.499 . S
C3750 C3751 1.373 . S
C3750 C3752 1.389 . S
C3751 H3730 0.950 . S
C3751 C3750 1.373 . S
C3751 C3767 1.377 . S
C3752 C3750 1.389 . S
C3752 C3753 1.524 . S
C3752 C3766 1.377 . S
C3753 C3752 1.524 . S
C3753 C3754 1.397 . S
C3753 C3758 1.363 . S
C3754 H3731 0.950 . S
C3754 C3753 1.397 . S
C3754 C3755 1.334 . S
C3755 H3732 0.950 . S
C3755 C3754 1.334 . S
C3755 C3756 1.287 . S
C3756 C3755 1.287 . S
C3756 C3757 1.524 . S
C3756 H3775 0.913 . S
C3757 H3733 0.950 . S
C3757 C3756 1.524 . S
C3757 C3758 1.415 . S
C3758 H3734 0.950 . S
C3758 C3753 1.363 . S
C3758 C3757 1.415 . S
C3759 H3735 0.951 . S
C3759 C3760 1.366 . S
C3759 C3761 1.388 . S
C3760 C3759 1.366 . S
C3760 C3764 1.385 . S
C3761 H3736 0.951 . S
C3761 C3759 1.388 . S
C3761 C3762 1.366 . S
C3762 C3761 1.366 . S
C3762 C3763 1.414 . S
C3762 C3765 1.499 . S
C3763 H3737 0.950 . S
C3763 C3762 1.414 . S
C3763 C3764 1.374 . S
C3764 H3738 0.950 . S
C3764 C3760 1.385 . S
C3764 C3763 1.374 . S
C3765 C3762 1.499 . S
C3765 C3766 1.373 . S
C3765 C3767 1.389 . S
C3766 H3739 0.950 . S
C3766 C3752 1.377 . S
C3766 C3765 1.373 . S
C3767 C3751 1.377 . S
C3767 C3765 1.389 . S
C3767 C3768 1.524 . S
C3768 C3767 1.524 . S
C3768 C3769 1.397 . S
C3768 C3773 1.363 . S
C3769 H3740 0.950 . S
C3769 C3768 1.397 . S
C3769 C3770 1.334 . S
C3770 H3741 0.950 . S
C3770 C3769 1.334 . S
C3770 C3771 1.287 . S
C3771 C3770 1.287 . S
C3771 C3772 1.524 . S
C3771 H3774 0.999 . S
C3772 H3742 0.950 . S
C3772 C3771 1.524 . S
C3772 C3773 1.415 . S
C3773 H3743 0.950 . S
C3773 C3768 1.363 . S
C3773 C3772 1.415 . S
H3774 C3771 0.999 . S
H3775 C3756 0.913 . S
H3776 C3794 0.951 . S
H3777 C3796 0.951 . S
H3778 C3798 0.950 . S
H3779 C3799 0.950 . S
H3780 C3801 0.950 . S
H3781 C3804 0.950 . S
H3782 C3805 0.950 . S
H3783 C3807 0.950 . S
H3784 C3808 0.950 . S
H3785 C3809 0.951 . S
H3786 C3811 0.951 . S
H3787 C3813 0.950 . S
H3788 C3814 0.950 . S
H3789 C3816 0.950 . S
H3790 C3819 0.950 . S
H3791 C3820 0.950 . S
H3792 C3822 0.950 . S
H3793 C3823 0.950 . S
C3794 H3776 0.951 . S
C3794 C3795 1.366 . S
C3794 C3796 1.388 . S
C3795 C3794 1.366 . S
C3795 C3799 1.385 . S
C3796 H3777 0.951 . S
C3796 C3794 1.388 . S
C3796 C3797 1.366 . S
C3797 C3796 1.366 . S
C3797 C3798 1.414 . S
C3797 C3800 1.499 . S
C3798 H3778 0.950 . S
C3798 C3797 1.414 . S
C3798 C3799 1.374 . S
C3799 H3779 0.950 . S
C3799 C3795 1.385 . S
C3799 C3798 1.374 . S
C3800 C3797 1.499 . S
C3800 C3801 1.373 . S
C3800 C3802 1.389 . S
C3801 H3780 0.950 . S
C3801 C3800 1.373 . S
C3801 C3817 1.377 . S
C3802 C3800 1.389 . S
C3802 C3803 1.524 . S
C3802 C3816 1.377 . S
C3803 C3802 1.524 . S
C3803 C3804 1.397 . S
C3803 C3808 1.363 . S
C3804 H3781 0.950 . S
C3804 C3803 1.397 . S
C3804 C3805 1.334 . S
C3805 H3782 0.950 . S
C3805 C3804 1.334 . S
C3805 C3806 1.287 . S
C3806 C3805 1.287 . S
C3806 C3807 1.524 . S
C3806 H3825 0.913 . S
C3807 H3783 0.950 . S
C3807 C3806 1.524 . S
C3807 C3808 1.415 . S
C3808 H3784 0.950 . S
C3808 C3803 1.363 . S
C3808 C3807 1.415 . S
C3809 H3785 0.951 . S
C3809 C3810 1.366 . S
C3809 C3811 1.388 . S
C3810 C3809 1.366 . S
C3810 C3814 1.385 . S
C3811 H3786 0.951 . S
C3811 C3809 1.388 . S
C3811 C3812 1.366 . S
C3812 C3811 1.366 . S
C3812 C3813 1.414 . S
C3812 C3815 1.499 . S
C3813 H3787 0.950 . S
C3813 C3812 1.414 . S
C3813 C3814 1.374 . S
C3814 H3788 0.950 . S
C3814 C3810 1.385 . S
C3814 C3813 1.374 . S
C3815 C3812 1.499 . S
C3815 C3816 1.373 . S
C3815 C3817 1.389 . S
C3816 H3789 0.950 . S
C3816 C3802 1.377 . S
C3816 C3815 1.373 . S
C3817 C3801 1.377 . S
C3817 C3815 1.389 . S
C3817 C3818 1.524 . S
C3818 C3817 1.524 . S
C3818 C3819 1.397 . S
C3818 C3823 1.363 . S
C3819 H3790 0.950 . S
C3819 C3818 1.397 . S
C3819 C3820 1.334 . S
C3820 H3791 0.950 . S
C3820 C3819 1.334 . S
C3820 C3821 1.287 . S
C3821 C3820 1.287 . S
C3821 C3822 1.524 . S
C3821 H3824 0.999 . S
C3822 H3792 0.950 . S
C3822 C3821 1.524 . S
C3822 C3823 1.415 . S
C3823 H3793 0.950 . S
C3823 C3818 1.363 . S
C3823 C3822 1.415 . S
H3824 C3821 0.999 . S
H3825 C3806 0.913 . S
H3826 C3844 0.951 . S
H3827 C3846 0.951 . S
H3828 C3848 0.950 . S
H3829 C3849 0.950 . S
H3830 C3851 0.950 . S
H3831 C3854 0.950 . S
H3832 C3855 0.950 . S
H3833 C3857 0.950 . S
H3834 C3858 0.950 . S
H3835 C3859 0.951 . S
H3836 C3861 0.951 . S
H3837 C3863 0.950 . S
H3838 C3864 0.950 . S
H3839 C3866 0.950 . S
H3840 C3869 0.950 . S
H3841 C3870 0.950 . S
H3842 C3872 0.950 . S
H3843 C3873 0.950 . S
C3844 H3826 0.951 . S
C3844 C3845 1.366 . S
C3844 C3846 1.388 . S
C3845 C3844 1.366 . S
C3845 C3849 1.385 . S
C3846 H3827 0.951 . S
C3846 C3844 1.388 . S
C3846 C3847 1.366 . S
C3847 C3846 1.366 . S
C3847 C3848 1.414 . S
C3847 C3850 1.499 . S
C3848 H3828 0.950 . S
C3848 C3847 1.414 . S
C3848 C3849 1.374 . S
C3849 H3829 0.950 . S
C3849 C3845 1.385 . S
C3849 C3848 1.374 . S
C3850 C3847 1.499 . S
C3850 C3851 1.373 . S
C3850 C3852 1.389 . S
C3851 H3830 0.950 . S
C3851 C3850 1.373 . S
C3851 C3867 1.377 . S
C3852 C3850 1.389 . S
C3852 C3853 1.524 . S
C3852 C3866 1.377 . S
C3853 C3852 1.524 . S
C3853 C3854 1.397 . S
C3853 C3858 1.363 . S
C3854 H3831 0.950 . S
C3854 C3853 1.397 . S
C3854 C3855 1.334 . S
C3855 H3832 0.950 . S
C3855 C3854 1.334 . S
C3855 C3856 1.287 . S
C3856 C3855 1.287 . S
C3856 C3857 1.524 . S
C3856 H3875 0.913 . S
C3857 H3833 0.950 . S
C3857 C3856 1.524 . S
C3857 C3858 1.415 . S
C3858 H3834 0.950 . S
C3858 C3853 1.363 . S
C3858 C3857 1.415 . S
C3859 H3835 0.951 . S
C3859 C3860 1.366 . S
C3859 C3861 1.388 . S
C3860 C3859 1.366 . S
C3860 C3864 1.385 . S
C3861 H3836 0.951 . S
C3861 C3859 1.388 . S
C3861 C3862 1.366 . S
C3862 C3861 1.366 . S
C3862 C3863 1.414 . S
C3862 C3865 1.499 . S
C3863 H3837 0.950 . S
C3863 C3862 1.414 . S
C3863 C3864 1.374 . S
C3864 H3838 0.950 . S
C3864 C3860 1.385 . S
C3864 C3863 1.374 . S
C3865 C3862 1.499 . S
C3865 C3866 1.373 . S
C3865 C3867 1.389 . S
C3866 H3839 0.950 . S
C3866 C3852 1.377 . S
C3866 C3865 1.373 . S
C3867 C3851 1.377 . S
C3867 C3865 1.389 . S
C3867 C3868 1.524 . S
C3868 C3867 1.524 . S
C3868 C3869 1.397 . S
C3868 C3873 1.363 . S
C3869 H3840 0.950 . S
C3869 C3868 1.397 . S
C3869 C3870 1.334 . S
C3870 H3841 0.950 . S
C3870 C3869 1.334 . S
C3870 C3871 1.287 . S
C3871 C3870 1.287 . S
C3871 C3872 1.524 . S
C3871 H3874 0.999 . S
C3872 H3842 0.950 . S
C3872 C3871 1.524 . S
C3872 C3873 1.415 . S
C3873 H3843 0.950 . S
C3873 C3868 1.363 . S
C3873 C3872 1.415 . S
H3874 C3871 0.999 . S
H3875 C3856 0.913 . S
H3876 C3894 0.951 . S
H3877 C3896 0.951 . S
H3878 C3898 0.950 . S
H3879 C3899 0.950 . S
H3880 C3901 0.950 . S
H3881 C3904 0.950 . S
H3882 C3905 0.950 . S
H3883 C3907 0.950 . S
H3884 C3908 0.950 . S
H3885 C3909 0.951 . S
H3886 C3911 0.951 . S
H3887 C3913 0.950 . S
H3888 C3914 0.950 . S
H3889 C3916 0.950 . S
H3890 C3919 0.950 . S
H3891 C3920 0.950 . S
H3892 C3922 0.950 . S
H3893 C3923 0.950 . S
C3894 H3876 0.951 . S
C3894 C3895 1.366 . S
C3894 C3896 1.388 . S
C3895 C3894 1.366 . S
C3895 C3899 1.385 . S
C3896 H3877 0.951 . S
C3896 C3894 1.388 . S
C3896 C3897 1.366 . S
C3897 C3896 1.366 . S
C3897 C3898 1.414 . S
C3897 C3900 1.499 . S
C3898 H3878 0.950 . S
C3898 C3897 1.414 . S
C3898 C3899 1.374 . S
C3899 H3879 0.950 . S
C3899 C3895 1.385 . S
C3899 C3898 1.374 . S
C3900 C3897 1.499 . S
C3900 C3901 1.373 . S
C3900 C3902 1.389 . S
C3901 H3880 0.950 . S
C3901 C3900 1.373 . S
C3901 C3917 1.377 . S
C3902 C3900 1.389 . S
C3902 C3903 1.524 . S
C3902 C3916 1.377 . S
C3903 C3902 1.524 . S
C3903 C3904 1.397 . S
C3903 C3908 1.363 . S
C3904 H3881 0.950 . S
C3904 C3903 1.397 . S
C3904 C3905 1.334 . S
C3905 H3882 0.950 . S
C3905 C3904 1.334 . S
C3905 C3906 1.287 . S
C3906 C3905 1.287 . S
C3906 C3907 1.524 . S
C3906 H3925 0.913 . S
C3907 H3883 0.950 . S
C3907 C3906 1.524 . S
C3907 C3908 1.415 . S
C3908 H3884 0.950 . S
C3908 C3903 1.363 . S
C3908 C3907 1.415 . S
C3909 H3885 0.951 . S
C3909 C3910 1.366 . S
C3909 C3911 1.388 . S
C3910 C3909 1.366 . S
C3910 C3914 1.385 . S
C3911 H3886 0.951 . S
C3911 C3909 1.388 . S
C3911 C3912 1.366 . S
C3912 C3911 1.366 . S
C3912 C3913 1.414 . S
C3912 C3915 1.499 . S
C3913 H3887 0.950 . S
C3913 C3912 1.414 . S
C3913 C3914 1.374 . S
C3914 H3888 0.950 . S
C3914 C3910 1.385 . S
C3914 C3913 1.374 . S
C3915 C3912 1.499 . S
C3915 C3916 1.373 . S
C3915 C3917 1.389 . S
C3916 H3889 0.950 . S
C3916 C3902 1.377 . S
C3916 C3915 1.373 . S
C3917 C3901 1.377 . S
C3917 C3915 1.389 . S
C3917 C3918 1.524 . S
C3918 C3917 1.524 . S
C3918 C3919 1.397 . S
C3918 C3923 1.363 . S
C3919 H3890 0.950 . S
C3919 C3918 1.397 . S
C3919 C3920 1.334 . S
C3920 H3891 0.950 . S
C3920 C3919 1.334 . S
C3920 C3921 1.287 . S
C3921 C3920 1.287 . S
C3921 C3922 1.524 . S
C3921 H3924 0.999 . S
C3922 H3892 0.950 . S
C3922 C3921 1.524 . S
C3922 C3923 1.415 . S
C3923 H3893 0.950 . S
C3923 C3918 1.363 . S
C3923 C3922 1.415 . S
H3924 C3921 0.999 . S
H3925 C3906 0.913 . S
H3926 C3944 0.951 . S
H3927 C3946 0.951 . S
H3928 C3948 0.950 . S
H3929 C3949 0.950 . S
H3930 C3951 0.950 . S
H3931 C3954 0.950 . S
H3932 C3955 0.950 . S
H3933 C3957 0.950 . S
H3934 C3958 0.950 . S
H3935 C3959 0.951 . S
H3936 C3961 0.951 . S
H3937 C3963 0.950 . S
H3938 C3964 0.950 . S
H3939 C3966 0.950 . S
H3940 C3969 0.950 . S
H3941 C3970 0.950 . S
H3942 C3972 0.950 . S
H3943 C3973 0.950 . S
C3944 H3926 0.951 . S
C3944 C3945 1.366 . S
C3944 C3946 1.388 . S
C3945 C3944 1.366 . S
C3945 C3949 1.385 . S
C3946 H3927 0.951 . S
C3946 C3944 1.388 . S
C3946 C3947 1.366 . S
C3947 C3946 1.366 . S
C3947 C3948 1.414 . S
C3947 C3950 1.499 . S
C3948 H3928 0.950 . S
C3948 C3947 1.414 . S
C3948 C3949 1.374 . S
C3949 H3929 0.950 . S
C3949 C3945 1.385 . S
C3949 C3948 1.374 . S
C3950 C3947 1.499 . S
C3950 C3951 1.373 . S
C3950 C3952 1.389 . S
C3951 H3930 0.950 . S
C3951 C3950 1.373 . S
C3951 C3967 1.377 . S
C3952 C3950 1.389 . S
C3952 C3953 1.524 . S
C3952 C3966 1.377 . S
C3953 C3952 1.524 . S
C3953 C3954 1.397 . S
C3953 C3958 1.363 . S
C3954 H3931 0.950 . S
C3954 C3953 1.397 . S
C3954 C3955 1.334 . S
C3955 H3932 0.950 . S
C3955 C3954 1.334 . S
C3955 C3956 1.287 . S
C3956 C3955 1.287 . S
C3956 C3957 1.524 . S
C3956 H3975 0.913 . S
C3957 H3933 0.950 . S
C3957 C3956 1.524 . S
C3957 C3958 1.415 . S
C3958 H3934 0.950 . S
C3958 C3953 1.363 . S
C3958 C3957 1.415 . S
C3959 H3935 0.951 . S
C3959 C3960 1.366 . S
C3959 C3961 1.388 . S
C3960 C3959 1.366 . S
C3960 C3964 1.385 . S
C3961 H3936 0.951 . S
C3961 C3959 1.388 . S
C3961 C3962 1.366 . S
C3962 C3961 1.366 . S
C3962 C3963 1.414 . S
C3962 C3965 1.499 . S
C3963 H3937 0.950 . S
C3963 C3962 1.414 . S
C3963 C3964 1.374 . S
C3964 H3938 0.950 . S
C3964 C3960 1.385 . S
C3964 C3963 1.374 . S
C3965 C3962 1.499 . S
C3965 C3966 1.373 . S
C3965 C3967 1.389 . S
C3966 H3939 0.950 . S
C3966 C3952 1.377 . S
C3966 C3965 1.373 . S
C3967 C3951 1.377 . S
C3967 C3965 1.389 . S
C3967 C3968 1.524 . S
C3968 C3967 1.524 . S
C3968 C3969 1.397 . S
C3968 C3973 1.363 . S
C3969 H3940 0.950 . S
C3969 C3968 1.397 . S
C3969 C3970 1.334 . S
C3970 H3941 0.950 . S
C3970 C3969 1.334 . S
C3970 C3971 1.287 . S
C3971 C3970 1.287 . S
C3971 C3972 1.524 . S
C3971 H3974 0.999 . S
C3972 H3942 0.950 . S
C3972 C3971 1.524 . S
C3972 C3973 1.415 . S
C3973 H3943 0.950 . S
C3973 C3968 1.363 . S
C3973 C3972 1.415 . S
H3974 C3971 0.999 . S
H3975 C3956 0.913 . S
H3976 C3994 0.951 . S
H3977 C3996 0.951 . S
H3978 C3998 0.950 . S
H3979 C3999 0.950 . S
H3980 C4001 0.950 . S
H3981 C4004 0.950 . S
H3982 C4005 0.950 . S
H3983 C4007 0.950 . S
H3984 C4008 0.950 . S
H3985 C4009 0.951 . S
H3986 C4011 0.951 . S
H3987 C4013 0.950 . S
H3988 C4014 0.950 . S
H3989 C4016 0.950 . S
H3990 C4019 0.950 . S
H3991 C4020 0.950 . S
H3992 C4022 0.950 . S
H3993 C4023 0.950 . S
C3994 H3976 0.951 . S
C3994 C3995 1.366 . S
C3994 C3996 1.388 . S
C3995 C3994 1.366 . S
C3995 C3999 1.385 . S
C3996 H3977 0.951 . S
C3996 C3994 1.388 . S
C3996 C3997 1.366 . S
C3997 C3996 1.366 . S
C3997 C3998 1.414 . S
C3997 C4000 1.499 . S
C3998 H3978 0.950 . S
C3998 C3997 1.414 . S
C3998 C3999 1.374 . S
C3999 H3979 0.950 . S
C3999 C3995 1.385 . S
C3999 C3998 1.374 . S
C4000 C3997 1.499 . S
C4000 C4001 1.373 . S
C4000 C4002 1.389 . S
C4001 H3980 0.950 . S
C4001 C4000 1.373 . S
C4001 C4017 1.377 . S
C4002 C4000 1.389 . S
C4002 C4003 1.524 . S
C4002 C4016 1.377 . S
C4003 C4002 1.524 . S
C4003 C4004 1.397 . S
C4003 C4008 1.363 . S
C4004 H3981 0.950 . S
C4004 C4003 1.397 . S
C4004 C4005 1.334 . S
C4005 H3982 0.950 . S
C4005 C4004 1.334 . S
C4005 C4006 1.287 . S
C4006 C4005 1.287 . S
C4006 C4007 1.524 . S
C4006 H4025 0.913 . S
C4007 H3983 0.950 . S
C4007 C4006 1.524 . S
C4007 C4008 1.415 . S
C4008 H3984 0.950 . S
C4008 C4003 1.363 . S
C4008 C4007 1.415 . S
C4009 H3985 0.951 . S
C4009 C4010 1.366 . S
C4009 C4011 1.388 . S
C4010 C4009 1.366 . S
C4010 C4014 1.385 . S
C4011 H3986 0.951 . S
C4011 C4009 1.388 . S
C4011 C4012 1.366 . S
C4012 C4011 1.366 . S
C4012 C4013 1.414 . S
C4012 C4015 1.499 . S
C4013 H3987 0.950 . S
C4013 C4012 1.414 . S
C4013 C4014 1.374 . S
C4014 H3988 0.950 . S
C4014 C4010 1.385 . S
C4014 C4013 1.374 . S
C4015 C4012 1.499 . S
C4015 C4016 1.373 . S
C4015 C4017 1.389 . S
C4016 H3989 0.950 . S
C4016 C4002 1.377 . S
C4016 C4015 1.373 . S
C4017 C4001 1.377 . S
C4017 C4015 1.389 . S
C4017 C4018 1.524 . S
C4018 C4017 1.524 . S
C4018 C4019 1.397 . S
C4018 C4023 1.363 . S
C4019 H3990 0.950 . S
C4019 C4018 1.397 . S
C4019 C4020 1.334 . S
C4020 H3991 0.950 . S
C4020 C4019 1.334 . S
C4020 C4021 1.287 . S
C4021 C4020 1.287 . S
C4021 C4022 1.524 . S
C4021 H4024 0.999 . S
C4022 H3992 0.950 . S
C4022 C4021 1.524 . S
C4022 C4023 1.415 . S
C4023 H3993 0.950 . S
C4023 C4018 1.363 . S
C4023 C4022 1.415 . S
H4024 C4021 0.999 . S
H4025 C4006 0.913 . S
H4026 C4044 0.951 . S
H4027 C4046 0.951 . S
H4028 C4048 0.950 . S
H4029 C4049 0.950 . S
H4030 C4051 0.950 . S
H4031 C4054 0.950 . S
H4032 C4055 0.950 . S
H4033 C4057 0.950 . S
H4034 C4058 0.950 . S
H4035 C4059 0.951 . S
H4036 C4061 0.951 . S
H4037 C4063 0.950 . S
H4038 C4064 0.950 . S
H4039 C4066 0.950 . S
H4040 C4069 0.950 . S
H4041 C4070 0.950 . S
H4042 C4072 0.950 . S
H4043 C4073 0.950 . S
C4044 H4026 0.951 . S
C4044 C4045 1.366 . S
C4044 C4046 1.388 . S
C4045 C4044 1.366 . S
C4045 C4049 1.385 . S
C4046 H4027 0.951 . S
C4046 C4044 1.388 . S
C4046 C4047 1.366 . S
C4047 C4046 1.366 . S
C4047 C4048 1.414 . S
C4047 C4050 1.499 . S
C4048 H4028 0.950 . S
C4048 C4047 1.414 . S
C4048 C4049 1.374 . S
C4049 H4029 0.950 . S
C4049 C4045 1.385 . S
C4049 C4048 1.374 . S
C4050 C4047 1.499 . S
C4050 C4051 1.373 . S
C4050 C4052 1.389 . S
C4051 H4030 0.950 . S
C4051 C4050 1.373 . S
C4051 C4067 1.377 . S
C4052 C4050 1.389 . S
C4052 C4053 1.524 . S
C4052 C4066 1.377 . S
C4053 C4052 1.524 . S
C4053 C4054 1.397 . S
C4053 C4058 1.363 . S
C4054 H4031 0.950 . S
C4054 C4053 1.397 . S
C4054 C4055 1.334 . S
C4055 H4032 0.950 . S
C4055 C4054 1.334 . S
C4055 C4056 1.287 . S
C4056 C4055 1.287 . S
C4056 C4057 1.524 . S
C4056 H4075 0.913 . S
C4057 H4033 0.950 . S
C4057 C4056 1.524 . S
C4057 C4058 1.415 . S
C4058 H4034 0.950 . S
C4058 C4053 1.363 . S
C4058 C4057 1.415 . S
C4059 H4035 0.951 . S
C4059 C4060 1.366 . S
C4059 C4061 1.388 . S
C4060 C4059 1.366 . S
C4060 C4064 1.385 . S
C4061 H4036 0.951 . S
C4061 C4059 1.388 . S
C4061 C4062 1.366 . S
C4062 C4061 1.366 . S
C4062 C4063 1.414 . S
C4062 C4065 1.499 . S
C4063 H4037 0.950 . S
C4063 C4062 1.414 . S
C4063 C4064 1.374 . S
C4064 H4038 0.950 . S
C4064 C4060 1.385 . S
C4064 C4063 1.374 . S
C4065 C4062 1.499 . S
C4065 C4066 1.373 . S
C4065 C4067 1.389 . S
C4066 H4039 0.950 . S
C4066 C4052 1.377 . S
C4066 C4065 1.373 . S
C4067 C4051 1.377 . S
C4067 C4065 1.389 . S
C4067 C4068 1.524 . S
C4068 C4067 1.524 . S
C4068 C4069 1.397 . S
C4068 C4073 1.363 . S
C4069 H4040 0.950 . S
C4069 C4068 1.397 . S
C4069 C4070 1.334 . S
C4070 H4041 0.950 . S
C4070 C4069 1.334 . S
C4070 C4071 1.287 . S
C4071 C4070 1.287 . S
C4071 C4072 1.524 . S
C4071 H4074 0.999 . S
C4072 H4042 0.950 . S
C4072 C4071 1.524 . S
C4072 C4073 1.415 . S
C4073 H4043 0.950 . S
C4073 C4068 1.363 . S
C4073 C4072 1.415 . S
H4074 C4071 0.999 . S
H4075 C4056 0.913 . S
H4076 C4094 0.951 . S
H4077 C4096 0.951 . S
H4078 C4098 0.950 . S
H4079 C4099 0.950 . S
H4080 C4101 0.950 . S
H4081 C4104 0.950 . S
H4082 C4105 0.950 . S
H4083 C4107 0.950 . S
H4084 C4108 0.950 . S
H4085 C4109 0.951 . S
H4086 C4111 0.951 . S
H4087 C4113 0.950 . S
H4088 C4114 0.950 . S
H4089 C4116 0.950 . S
H4090 C4119 0.950 . S
H4091 C4120 0.950 . S
H4092 C4122 0.950 . S
H4093 C4123 0.950 . S
C4094 H4076 0.951 . S
C4094 C4095 1.366 . S
C4094 C4096 1.388 . S
C4095 C4094 1.366 . S
C4095 C4099 1.385 . S
C4096 H4077 0.951 . S
C4096 C4094 1.388 . S
C4096 C4097 1.366 . S
C4097 C4096 1.366 . S
C4097 C4098 1.414 . S
C4097 C4100 1.499 . S
C4098 H4078 0.950 . S
C4098 C4097 1.414 . S
C4098 C4099 1.374 . S
C4099 H4079 0.950 . S
C4099 C4095 1.385 . S
C4099 C4098 1.374 . S
C4100 C4097 1.499 . S
C4100 C4101 1.373 . S
C4100 C4102 1.389 . S
C4101 H4080 0.950 . S
C4101 C4100 1.373 . S
C4101 C4117 1.377 . S
C4102 C4100 1.389 . S
C4102 C4103 1.524 . S
C4102 C4116 1.377 . S
C4103 C4102 1.524 . S
C4103 C4104 1.397 . S
C4103 C4108 1.363 . S
C4104 H4081 0.950 . S
C4104 C4103 1.397 . S
C4104 C4105 1.334 . S
C4105 H4082 0.950 . S
C4105 C4104 1.334 . S
C4105 C4106 1.287 . S
C4106 C4105 1.287 . S
C4106 C4107 1.524 . S
C4106 H4125 0.913 . S
C4107 H4083 0.950 . S
C4107 C4106 1.524 . S
C4107 C4108 1.415 . S
C4108 H4084 0.950 . S
C4108 C4103 1.363 . S
C4108 C4107 1.415 . S
C4109 H4085 0.951 . S
C4109 C4110 1.366 . S
C4109 C4111 1.388 . S
C4110 C4109 1.366 . S
C4110 C4114 1.385 . S
C4111 H4086 0.951 . S
C4111 C4109 1.388 . S
C4111 C4112 1.366 . S
C4112 C4111 1.366 . S
C4112 C4113 1.414 . S
C4112 C4115 1.499 . S
C4113 H4087 0.950 . S
C4113 C4112 1.414 . S
C4113 C4114 1.374 . S
C4114 H4088 0.950 . S
C4114 C4110 1.385 . S
C4114 C4113 1.374 . S
C4115 C4112 1.499 . S
C4115 C4116 1.373 . S
C4115 C4117 1.389 . S
C4116 H4089 0.950 . S
C4116 C4102 1.377 . S
C4116 C4115 1.373 . S
C4117 C4101 1.377 . S
C4117 C4115 1.389 . S
C4117 C4118 1.524 . S
C4118 C4117 1.524 . S
C4118 C4119 1.397 . S
C4118 C4123 1.363 . S
C4119 H4090 0.950 . S
C4119 C4118 1.397 . S
C4119 C4120 1.334 . S
C4120 H4091 0.950 . S
C4120 C4119 1.334 . S
C4120 C4121 1.287 . S
C4121 C4120 1.287 . S
C4121 C4122 1.524 . S
C4121 H4124 0.999 . S
C4122 H4092 0.950 . S
C4122 C4121 1.524 . S
C4122 C4123 1.415 . S
C4123 H4093 0.950 . S
C4123 C4118 1.363 . S
C4123 C4122 1.415 . S
H4124 C4121 0.999 . S
H4125 C4106 0.913 . S
H4126 C4144 0.951 . S
H4127 C4146 0.951 . S
H4128 C4148 0.950 . S
H4129 C4149 0.950 . S
H4130 C4151 0.950 . S
H4131 C4154 0.950 . S
H4132 C4155 0.950 . S
H4133 C4157 0.950 . S
H4134 C4158 0.950 . S
H4135 C4159 0.951 . S
H4136 C4161 0.951 . S
H4137 C4163 0.950 . S
H4138 C4164 0.950 . S
H4139 C4166 0.950 . S
H4140 C4169 0.950 . S
H4141 C4170 0.950 . S
H4142 C4172 0.950 . S
H4143 C4173 0.950 . S
C4144 H4126 0.951 . S
C4144 C4145 1.366 . S
C4144 C4146 1.388 . S
C4145 C4144 1.366 . S
C4145 C4149 1.385 . S
C4146 H4127 0.951 . S
C4146 C4144 1.388 . S
C4146 C4147 1.366 . S
C4147 C4146 1.366 . S
C4147 C4148 1.414 . S
C4147 C4150 1.499 . S
C4148 H4128 0.950 . S
C4148 C4147 1.414 . S
C4148 C4149 1.374 . S
C4149 H4129 0.950 . S
C4149 C4145 1.385 . S
C4149 C4148 1.374 . S
C4150 C4147 1.499 . S
C4150 C4151 1.373 . S
C4150 C4152 1.389 . S
C4151 H4130 0.950 . S
C4151 C4150 1.373 . S
C4151 C4167 1.377 . S
C4152 C4150 1.389 . S
C4152 C4153 1.524 . S
C4152 C4166 1.377 . S
C4153 C4152 1.524 . S
C4153 C4154 1.397 . S
C4153 C4158 1.363 . S
C4154 H4131 0.950 . S
C4154 C4153 1.397 . S
C4154 C4155 1.334 . S
C4155 H4132 0.950 . S
C4155 C4154 1.334 . S
C4155 C4156 1.287 . S
C4156 C4155 1.287 . S
C4156 C4157 1.524 . S
C4156 H4175 0.913 . S
C4157 H4133 0.950 . S
C4157 C4156 1.524 . S
C4157 C4158 1.415 . S
C4158 H4134 0.950 . S
C4158 C4153 1.363 . S
C4158 C4157 1.415 . S
C4159 H4135 0.951 . S
C4159 C4160 1.366 . S
C4159 C4161 1.388 . S
C4160 C4159 1.366 . S
C4160 C4164 1.385 . S
C4161 H4136 0.951 . S
C4161 C4159 1.388 . S
C4161 C4162 1.366 . S
C4162 C4161 1.366 . S
C4162 C4163 1.414 . S
C4162 C4165 1.499 . S
C4163 H4137 0.950 . S
C4163 C4162 1.414 . S
C4163 C4164 1.374 . S
C4164 H4138 0.950 . S
C4164 C4160 1.385 . S
C4164 C4163 1.374 . S
C4165 C4162 1.499 . S
C4165 C4166 1.373 . S
C4165 C4167 1.389 . S
C4166 H4139 0.950 . S
C4166 C4152 1.377 . S
C4166 C4165 1.373 . S
C4167 C4151 1.377 . S
C4167 C4165 1.389 . S
C4167 C4168 1.524 . S
C4168 C4167 1.524 . S
C4168 C4169 1.397 . S
C4168 C4173 1.363 . S
C4169 H4140 0.950 . S
C4169 C4168 1.397 . S
C4169 C4170 1.334 . S
C4170 H4141 0.950 . S
C4170 C4169 1.334 . S
C4170 C4171 1.287 . S
C4171 C4170 1.287 . S
C4171 C4172 1.524 . S
C4171 H4174 0.999 . S
C4172 H4142 0.950 . S
C4172 C4171 1.524 . S
C4172 C4173 1.415 . S
C4173 H4143 0.950 . S
C4173 C4168 1.363 . S
C4173 C4172 1.415 . S
H4174 C4171 0.999 . S
H4175 C4156 0.913 . S
H4176 C4194 0.951 . S
H4177 C4196 0.951 . S
H4178 C4198 0.950 . S
H4179 C4199 0.950 . S
H4180 C4201 0.950 . S
H4181 C4204 0.950 . S
H4182 C4205 0.950 . S
H4183 C4207 0.950 . S
H4184 C4208 0.950 . S
H4185 C4209 0.951 . S
H4186 C4211 0.951 . S
H4187 C4213 0.950 . S
H4188 C4214 0.950 . S
H4189 C4216 0.950 . S
H4190 C4219 0.950 . S
H4191 C4220 0.950 . S
H4192 C4222 0.950 . S
H4193 C4223 0.950 . S
C4194 H4176 0.951 . S
C4194 C4195 1.366 . S
C4194 C4196 1.388 . S
C4195 C4194 1.366 . S
C4195 C4199 1.385 . S
C4196 H4177 0.951 . S
C4196 C4194 1.388 . S
C4196 C4197 1.366 . S
C4197 C4196 1.366 . S
C4197 C4198 1.414 . S
C4197 C4200 1.499 . S
C4198 H4178 0.950 . S
C4198 C4197 1.414 . S
C4198 C4199 1.374 . S
C4199 H4179 0.950 . S
C4199 C4195 1.385 . S
C4199 C4198 1.374 . S
C4200 C4197 1.499 . S
C4200 C4201 1.373 . S
C4200 C4202 1.389 . S
C4201 H4180 0.950 . S
C4201 C4200 1.373 . S
C4201 C4217 1.377 . S
C4202 C4200 1.389 . S
C4202 C4203 1.524 . S
C4202 C4216 1.377 . S
C4203 C4202 1.524 . S
C4203 C4204 1.397 . S
C4203 C4208 1.363 . S
C4204 H4181 0.950 . S
C4204 C4203 1.397 . S
C4204 C4205 1.334 . S
C4205 H4182 0.950 . S
C4205 C4204 1.334 . S
C4205 C4206 1.287 . S
C4206 C4205 1.287 . S
C4206 C4207 1.524 . S
C4206 H4225 0.913 . S
C4207 H4183 0.950 . S
C4207 C4206 1.524 . S
C4207 C4208 1.415 . S
C4208 H4184 0.950 . S
C4208 C4203 1.363 . S
C4208 C4207 1.415 . S
C4209 H4185 0.951 . S
C4209 C4210 1.366 . S
C4209 C4211 1.388 . S
C4210 C4209 1.366 . S
C4210 C4214 1.385 . S
C4211 H4186 0.951 . S
C4211 C4209 1.388 . S
C4211 C4212 1.366 . S
C4212 C4211 1.366 . S
C4212 C4213 1.414 . S
C4212 C4215 1.499 . S
C4213 H4187 0.950 . S
C4213 C4212 1.414 . S
C4213 C4214 1.374 . S
C4214 H4188 0.950 . S
C4214 C4210 1.385 . S
C4214 C4213 1.374 . S
C4215 C4212 1.499 . S
C4215 C4216 1.373 . S
C4215 C4217 1.389 . S
C4216 H4189 0.950 . S
C4216 C4202 1.377 . S
C4216 C4215 1.373 . S
C4217 C4201 1.377 . S
C4217 C4215 1.389 . S
C4217 C4218 1.524 . S
C4218 C4217 1.524 . S
C4218 C4219 1.397 . S
C4218 C4223 1.363 . S
C4219 H4190 0.950 . S
C4219 C4218 1.397 . S
C4219 C4220 1.334 . S
C4220 H4191 0.950 . S
C4220 C4219 1.334 . S
C4220 C4221 1.287 . S
C4221 C4220 1.287 . S
C4221 C4222 1.524 . S
C4221 H4224 0.999 . S
C4222 H4192 0.950 . S
C4222 C4221 1.524 . S
C4222 C4223 1.415 . S
C4223 H4193 0.950 . S
C4223 C4218 1.363 . S
C4223 C4222 1.415 . S
H4224 C4221 0.999 . S
H4225 C4206 0.913 . S
H4226 C4244 0.951 . S
H4227 C4246 0.951 . S
H4228 C4248 0.950 . S
H4229 C4249 0.950 . S
H4230 C4251 0.950 . S
H4231 C4254 0.950 . S
H4232 C4255 0.950 . S
H4233 C4257 0.950 . S
H4234 C4258 0.950 . S
H4235 C4259 0.951 . S
H4236 C4261 0.951 . S
H4237 C4263 0.950 . S
H4238 C4264 0.950 . S
H4239 C4266 0.950 . S
H4240 C4269 0.950 . S
H4241 C4270 0.950 . S
H4242 C4272 0.950 . S
H4243 C4273 0.950 . S
C4244 H4226 0.951 . S
C4244 C4245 1.366 . S
C4244 C4246 1.388 . S
C4245 C4244 1.366 . S
C4245 C4249 1.385 . S
C4246 H4227 0.951 . S
C4246 C4244 1.388 . S
C4246 C4247 1.366 . S
C4247 C4246 1.366 . S
C4247 C4248 1.414 . S
C4247 C4250 1.499 . S
C4248 H4228 0.950 . S
C4248 C4247 1.414 . S
C4248 C4249 1.374 . S
C4249 H4229 0.950 . S
C4249 C4245 1.385 . S
C4249 C4248 1.374 . S
C4250 C4247 1.499 . S
C4250 C4251 1.373 . S
C4250 C4252 1.389 . S
C4251 H4230 0.950 . S
C4251 C4250 1.373 . S
C4251 C4267 1.377 . S
C4252 C4250 1.389 . S
C4252 C4253 1.524 . S
C4252 C4266 1.377 . S
C4253 C4252 1.524 . S
C4253 C4254 1.397 . S
C4253 C4258 1.363 . S
C4254 H4231 0.950 . S
C4254 C4253 1.397 . S
C4254 C4255 1.334 . S
C4255 H4232 0.950 . S
C4255 C4254 1.334 . S
C4255 C4256 1.287 . S
C4256 C4255 1.287 . S
C4256 C4257 1.524 . S
C4256 H4275 0.913 . S
C4257 H4233 0.950 . S
C4257 C4256 1.524 . S
C4257 C4258 1.415 . S
C4258 H4234 0.950 . S
C4258 C4253 1.363 . S
C4258 C4257 1.415 . S
C4259 H4235 0.951 . S
C4259 C4260 1.366 . S
C4259 C4261 1.388 . S
C4260 C4259 1.366 . S
C4260 C4264 1.385 . S
C4261 H4236 0.951 . S
C4261 C4259 1.388 . S
C4261 C4262 1.366 . S
C4262 C4261 1.366 . S
C4262 C4263 1.414 . S
C4262 C4265 1.499 . S
C4263 H4237 0.950 . S
C4263 C4262 1.414 . S
C4263 C4264 1.374 . S
C4264 H4238 0.950 . S
C4264 C4260 1.385 . S
C4264 C4263 1.374 . S
C4265 C4262 1.499 . S
C4265 C4266 1.373 . S
C4265 C4267 1.389 . S
C4266 H4239 0.950 . S
C4266 C4252 1.377 . S
C4266 C4265 1.373 . S
C4267 C4251 1.377 . S
C4267 C4265 1.389 . S
C4267 C4268 1.524 . S
C4268 C4267 1.524 . S
C4268 C4269 1.397 . S
C4268 C4273 1.363 . S
C4269 H4240 0.950 . S
C4269 C4268 1.397 . S
C4269 C4270 1.334 . S
C4270 H4241 0.950 . S
C4270 C4269 1.334 . S
C4270 C4271 1.287 . S
C4271 C4270 1.287 . S
C4271 C4272 1.524 . S
C4271 H4274 0.999 . S
C4272 H4242 0.950 . S
C4272 C4271 1.524 . S
C4272 C4273 1.415 . S
C4273 H4243 0.950 . S
C4273 C4268 1.363 . S
C4273 C4272 1.415 . S
H4274 C4271 0.999 . S
H4275 C4256 0.913 . S
H4276 C4294 0.951 . S
H4277 C4296 0.951 . S
H4278 C4298 0.950 . S
H4279 C4299 0.950 . S
H4280 C4301 0.950 . S
H4281 C4304 0.950 . S
H4282 C4305 0.950 . S
H4283 C4307 0.950 . S
H4284 C4308 0.950 . S
H4285 C4309 0.951 . S
H4286 C4311 0.951 . S
H4287 C4313 0.950 . S
H4288 C4314 0.950 . S
H4289 C4316 0.950 . S
H4290 C4319 0.950 . S
H4291 C4320 0.950 . S
H4292 C4322 0.950 . S
H4293 C4323 0.950 . S
C4294 H4276 0.951 . S
C4294 C4295 1.366 . S
C4294 C4296 1.388 . S
C4295 C4294 1.366 . S
C4295 C4299 1.385 . S
C4296 H4277 0.951 . S
C4296 C4294 1.388 . S
C4296 C4297 1.366 . S
C4297 C4296 1.366 . S
C4297 C4298 1.414 . S
C4297 C4300 1.499 . S
C4298 H4278 0.950 . S
C4298 C4297 1.414 . S
C4298 C4299 1.374 . S
C4299 H4279 0.950 . S
C4299 C4295 1.385 . S
C4299 C4298 1.374 . S
C4300 C4297 1.499 . S
C4300 C4301 1.373 . S
C4300 C4302 1.389 . S
C4301 H4280 0.950 . S
C4301 C4300 1.373 . S
C4301 C4317 1.377 . S
C4302 C4300 1.389 . S
C4302 C4303 1.524 . S
C4302 C4316 1.377 . S
C4303 C4302 1.524 . S
C4303 C4304 1.397 . S
C4303 C4308 1.363 . S
C4304 H4281 0.950 . S
C4304 C4303 1.397 . S
C4304 C4305 1.334 . S
C4305 H4282 0.950 . S
C4305 C4304 1.334 . S
C4305 C4306 1.287 . S
C4306 C4305 1.287 . S
C4306 C4307 1.524 . S
C4306 H4325 0.913 . S
C4307 H4283 0.950 . S
C4307 C4306 1.524 . S
C4307 C4308 1.415 . S
C4308 H4284 0.950 . S
C4308 C4303 1.363 . S
C4308 C4307 1.415 . S
C4309 H4285 0.951 . S
C4309 C4310 1.366 . S
C4309 C4311 1.388 . S
C4310 C4309 1.366 . S
C4310 C4314 1.385 . S
C4311 H4286 0.951 . S
C4311 C4309 1.388 . S
C4311 C4312 1.366 . S
C4312 C4311 1.366 . S
C4312 C4313 1.414 . S
C4312 C4315 1.499 . S
C4313 H4287 0.950 . S
C4313 C4312 1.414 . S
C4313 C4314 1.374 . S
C4314 H4288 0.950 . S
C4314 C4310 1.385 . S
C4314 C4313 1.374 . S
C4315 C4312 1.499 . S
C4315 C4316 1.373 . S
C4315 C4317 1.389 . S
C4316 H4289 0.950 . S
C4316 C4302 1.377 . S
C4316 C4315 1.373 . S
C4317 C4301 1.377 . S
C4317 C4315 1.389 . S
C4317 C4318 1.524 . S
C4318 C4317 1.524 . S
C4318 C4319 1.397 . S
C4318 C4323 1.363 . S
C4319 H4290 0.950 . S
C4319 C4318 1.397 . S
C4319 C4320 1.334 . S
C4320 H4291 0.950 . S
C4320 C4319 1.334 . S
C4320 C4321 1.287 . S
C4321 C4320 1.287 . S
C4321 C4322 1.524 . S
C4321 H4324 0.999 . S
C4322 H4292 0.950 . S
C4322 C4321 1.524 . S
C4322 C4323 1.415 . S
C4323 H4293 0.950 . S
C4323 C4318 1.363 . S
C4323 C4322 1.415 . S
H4324 C4321 0.999 . S
H4325 C4306 0.913 . S
H4326 C4344 0.951 . S
H4327 C4346 0.951 . S
H4328 C4348 0.950 . S
H4329 C4349 0.950 . S
H4330 C4351 0.950 . S
H4331 C4354 0.950 . S
H4332 C4355 0.950 . S
H4333 C4357 0.950 . S
H4334 C4358 0.950 . S
H4335 C4359 0.951 . S
H4336 C4361 0.951 . S
H4337 C4363 0.950 . S
H4338 C4364 0.950 . S
H4339 C4366 0.950 . S
H4340 C4369 0.950 . S
H4341 C4370 0.950 . S
H4342 C4372 0.950 . S
H4343 C4373 0.950 . S
C4344 H4326 0.951 . S
C4344 C4345 1.366 . S
C4344 C4346 1.388 . S
C4345 C4344 1.366 . S
C4345 C4349 1.385 . S
C4346 H4327 0.951 . S
C4346 C4344 1.388 . S
C4346 C4347 1.366 . S
C4347 C4346 1.366 . S
C4347 C4348 1.414 . S
C4347 C4350 1.499 . S
C4348 H4328 0.950 . S
C4348 C4347 1.414 . S
C4348 C4349 1.374 . S
C4349 H4329 0.950 . S
C4349 C4345 1.385 . S
C4349 C4348 1.374 . S
C4350 C4347 1.499 . S
C4350 C4351 1.373 . S
C4350 C4352 1.389 . S
C4351 H4330 0.950 . S
C4351 C4350 1.373 . S
C4351 C4367 1.377 . S
C4352 C4350 1.389 . S
C4352 C4353 1.524 . S
C4352 C4366 1.377 . S
C4353 C4352 1.524 . S
C4353 C4354 1.397 . S
C4353 C4358 1.363 . S
C4354 H4331 0.950 . S
C4354 C4353 1.397 . S
C4354 C4355 1.334 . S
C4355 H4332 0.950 . S
C4355 C4354 1.334 . S
C4355 C4356 1.287 . S
C4356 C4355 1.287 . S
C4356 C4357 1.524 . S
C4356 H4375 0.913 . S
C4357 H4333 0.950 . S
C4357 C4356 1.524 . S
C4357 C4358 1.415 . S
C4358 H4334 0.950 . S
C4358 C4353 1.363 . S
C4358 C4357 1.415 . S
C4359 H4335 0.951 . S
C4359 C4360 1.366 . S
C4359 C4361 1.388 . S
C4360 C4359 1.366 . S
C4360 C4364 1.385 . S
C4361 H4336 0.951 . S
C4361 C4359 1.388 . S
C4361 C4362 1.366 . S
C4362 C4361 1.366 . S
C4362 C4363 1.414 . S
C4362 C4365 1.499 . S
C4363 H4337 0.950 . S
C4363 C4362 1.414 . S
C4363 C4364 1.374 . S
C4364 H4338 0.950 . S
C4364 C4360 1.385 . S
C4364 C4363 1.374 . S
C4365 C4362 1.499 . S
C4365 C4366 1.373 . S
C4365 C4367 1.389 . S
C4366 H4339 0.950 . S
C4366 C4352 1.377 . S
C4366 C4365 1.373 . S
C4367 C4351 1.377 . S
C4367 C4365 1.389 . S
C4367 C4368 1.524 . S
C4368 C4367 1.524 . S
C4368 C4369 1.397 . S
C4368 C4373 1.363 . S
C4369 H4340 0.950 . S
C4369 C4368 1.397 . S
C4369 C4370 1.334 . S
C4370 H4341 0.950 . S
C4370 C4369 1.334 . S
C4370 C4371 1.287 . S
C4371 C4370 1.287 . S
C4371 C4372 1.524 . S
C4371 H4374 0.999 . S
C4372 H4342 0.950 . S
C4372 C4371 1.524 . S
C4372 C4373 1.415 . S
C4373 H4343 0.950 . S
C4373 C4368 1.363 . S
C4373 C4372 1.415 . S
H4374 C4371 0.999 . S
H4375 C4356 0.913 . S
H4376 C4394 0.951 . S
H4377 C4396 0.951 . S
H4378 C4398 0.950 . S
H4379 C4399 0.950 . S
H4380 C4401 0.950 . S
H4381 C4404 0.950 . S
H4382 C4405 0.950 . S
H4383 C4407 0.950 . S
H4384 C4408 0.950 . S
H4385 C4409 0.951 . S
H4386 C4411 0.951 . S
H4387 C4413 0.950 . S
H4388 C4414 0.950 . S
H4389 C4416 0.950 . S
H4390 C4419 0.950 . S
H4391 C4420 0.950 . S
H4392 C4422 0.950 . S
H4393 C4423 0.950 . S
C4394 H4376 0.951 . S
C4394 C4395 1.366 . S
C4394 C4396 1.388 . S
C4395 C4394 1.366 . S
C4395 C4399 1.385 . S
C4396 H4377 0.951 . S
C4396 C4394 1.388 . S
C4396 C4397 1.366 . S
C4397 C4396 1.366 . S
C4397 C4398 1.414 . S
C4397 C4400 1.499 . S
C4398 H4378 0.950 . S
C4398 C4397 1.414 . S
C4398 C4399 1.374 . S
C4399 H4379 0.950 . S
C4399 C4395 1.385 . S
C4399 C4398 1.374 . S
C4400 C4397 1.499 . S
C4400 C4401 1.373 . S
C4400 C4402 1.389 . S
C4401 H4380 0.950 . S
C4401 C4400 1.373 . S
C4401 C4417 1.377 . S
C4402 C4400 1.389 . S
C4402 C4403 1.524 . S
C4402 C4416 1.377 . S
C4403 C4402 1.524 . S
C4403 C4404 1.397 . S
C4403 C4408 1.363 . S
C4404 H4381 0.950 . S
C4404 C4403 1.397 . S
C4404 C4405 1.334 . S
C4405 H4382 0.950 . S
C4405 C4404 1.334 . S
C4405 C4406 1.287 . S
C4406 C4405 1.287 . S
C4406 C4407 1.524 . S
C4406 H4425 0.913 . S
C4407 H4383 0.950 . S
C4407 C4406 1.524 . S
C4407 C4408 1.415 . S
C4408 H4384 0.950 . S
C4408 C4403 1.363 . S
C4408 C4407 1.415 . S
C4409 H4385 0.951 . S
C4409 C4410 1.366 . S
C4409 C4411 1.388 . S
C4410 C4409 1.366 . S
C4410 C4414 1.385 . S
C4411 H4386 0.951 . S
C4411 C4409 1.388 . S
C4411 C4412 1.366 . S
C4412 C4411 1.366 . S
C4412 C4413 1.414 . S
C4412 C4415 1.499 . S
C4413 H4387 0.950 . S
C4413 C4412 1.414 . S
C4413 C4414 1.374 . S
C4414 H4388 0.950 . S
C4414 C4410 1.385 . S
C4414 C4413 1.374 . S
C4415 C4412 1.499 . S
C4415 C4416 1.373 . S
C4415 C4417 1.389 . S
C4416 H4389 0.950 . S
C4416 C4402 1.377 . S
C4416 C4415 1.373 . S
C4417 C4401 1.377 . S
C4417 C4415 1.389 . S
C4417 C4418 1.524 . S
C4418 C4417 1.524 . S
C4418 C4419 1.397 . S
C4418 C4423 1.363 . S
C4419 H4390 0.950 . S
C4419 C4418 1.397 . S
C4419 C4420 1.334 . S
C4420 H4391 0.950 . S
C4420 C4419 1.334 . S
C4420 C4421 1.287 . S
C4421 C4420 1.287 . S
C4421 C4422 1.524 . S
C4421 H4424 0.999 . S
C4422 H4392 0.950 . S
C4422 C4421 1.524 . S
C4422 C4423 1.415 . S
C4423 H4393 0.950 . S
C4423 C4418 1.363 . S
C4423 C4422 1.415 . S
H4424 C4421 0.999 . S
H4425 C4406 0.913 . S
H4426 C4444 0.951 . S
H4427 C4446 0.951 . S
H4428 C4448 0.950 . S
H4429 C4449 0.950 . S
H4430 C4451 0.950 . S
H4431 C4454 0.950 . S
H4432 C4455 0.950 . S
H4433 C4457 0.950 . S
H4434 C4458 0.950 . S
H4435 C4459 0.951 . S
H4436 C4461 0.951 . S
H4437 C4463 0.950 . S
H4438 C4464 0.950 . S
H4439 C4466 0.950 . S
H4440 C4469 0.950 . S
H4441 C4470 0.950 . S
H4442 C4472 0.950 . S
H4443 C4473 0.950 . S
C4444 H4426 0.951 . S
C4444 C4445 1.366 . S
C4444 C4446 1.388 . S
C4445 C4444 1.366 . S
C4445 C4449 1.385 . S
C4446 H4427 0.951 . S
C4446 C4444 1.388 . S
C4446 C4447 1.366 . S
C4447 C4446 1.366 . S
C4447 C4448 1.414 . S
C4447 C4450 1.499 . S
C4448 H4428 0.950 . S
C4448 C4447 1.414 . S
C4448 C4449 1.374 . S
C4449 H4429 0.950 . S
C4449 C4445 1.385 . S
C4449 C4448 1.374 . S
C4450 C4447 1.499 . S
C4450 C4451 1.373 . S
C4450 C4452 1.389 . S
C4451 H4430 0.950 . S
C4451 C4450 1.373 . S
C4451 C4467 1.377 . S
C4452 C4450 1.389 . S
C4452 C4453 1.524 . S
C4452 C4466 1.377 . S
C4453 C4452 1.524 . S
C4453 C4454 1.397 . S
C4453 C4458 1.363 . S
C4454 H4431 0.950 . S
C4454 C4453 1.397 . S
C4454 C4455 1.334 . S
C4455 H4432 0.950 . S
C4455 C4454 1.334 . S
C4455 C4456 1.287 . S
C4456 C4455 1.287 . S
C4456 C4457 1.524 . S
C4456 H4475 0.913 . S
C4457 H4433 0.950 . S
C4457 C4456 1.524 . S
C4457 C4458 1.415 . S
C4458 H4434 0.950 . S
C4458 C4453 1.363 . S
C4458 C4457 1.415 . S
C4459 H4435 0.951 . S
C4459 C4460 1.366 . S
C4459 C4461 1.388 . S
C4460 C4459 1.366 . S
C4460 C4464 1.385 . S
C4461 H4436 0.951 . S
C4461 C4459 1.388 . S
C4461 C4462 1.366 . S
C4462 C4461 1.366 . S
C4462 C4463 1.414 . S
C4462 C4465 1.499 . S
C4463 H4437 0.950 . S
C4463 C4462 1.414 . S
C4463 C4464 1.374 . S
C4464 H4438 0.950 . S
C4464 C4460 1.385 . S
C4464 C4463 1.374 . S
C4465 C4462 1.499 . S
C4465 C4466 1.373 . S
C4465 C4467 1.389 . S
C4466 H4439 0.950 . S
C4466 C4452 1.377 . S
C4466 C4465 1.373 . S
C4467 C4451 1.377 . S
C4467 C4465 1.389 . S
C4467 C4468 1.524 . S
C4468 C4467 1.524 . S
C4468 C4469 1.397 . S
C4468 C4473 1.363 . S
C4469 H4440 0.950 . S
C4469 C4468 1.397 . S
C4469 C4470 1.334 . S
C4470 H4441 0.950 . S
C4470 C4469 1.334 . S
C4470 C4471 1.287 . S
C4471 C4470 1.287 . S
C4471 C4472 1.524 . S
C4471 H4474 0.999 . S
C4472 H4442 0.950 . S
C4472 C4471 1.524 . S
C4472 C4473 1.415 . S
C4473 H4443 0.950 . S
C4473 C4468 1.363 . S
C4473 C4472 1.415 . S
H4474 C4471 0.999 . S
H4475 C4456 0.913 . S
H4476 C4494 0.951 . S
H4477 C4496 0.951 . S
H4478 C4498 0.950 . S
H4479 C4499 0.950 . S
H4480 C4501 0.950 . S
H4481 C4504 0.950 . S
H4482 C4505 0.950 . S
H4483 C4507 0.950 . S
H4484 C4508 0.950 . S
H4485 C4509 0.951 . S
H4486 C4511 0.951 . S
H4487 C4513 0.950 . S
H4488 C4514 0.950 . S
H4489 C4516 0.950 . S
H4490 C4519 0.950 . S
H4491 C4520 0.950 . S
H4492 C4522 0.950 . S
H4493 C4523 0.950 . S
C4494 H4476 0.951 . S
C4494 C4495 1.366 . S
C4494 C4496 1.388 . S
C4495 C4494 1.366 . S
C4495 C4499 1.385 . S
C4496 H4477 0.951 . S
C4496 C4494 1.388 . S
C4496 C4497 1.366 . S
C4497 C4496 1.366 . S
C4497 C4498 1.414 . S
C4497 C4500 1.499 . S
C4498 H4478 0.950 . S
C4498 C4497 1.414 . S
C4498 C4499 1.374 . S
C4499 H4479 0.950 . S
C4499 C4495 1.385 . S
C4499 C4498 1.374 . S
C4500 C4497 1.499 . S
C4500 C4501 1.373 . S
C4500 C4502 1.389 . S
C4501 H4480 0.950 . S
C4501 C4500 1.373 . S
C4501 C4517 1.377 . S
C4502 C4500 1.389 . S
C4502 C4503 1.524 . S
C4502 C4516 1.377 . S
C4503 C4502 1.524 . S
C4503 C4504 1.397 . S
C4503 C4508 1.363 . S
C4504 H4481 0.950 . S
C4504 C4503 1.397 . S
C4504 C4505 1.334 . S
C4505 H4482 0.950 . S
C4505 C4504 1.334 . S
C4505 C4506 1.287 . S
C4506 C4505 1.287 . S
C4506 C4507 1.524 . S
C4506 H4525 0.913 . S
C4507 H4483 0.950 . S
C4507 C4506 1.524 . S
C4507 C4508 1.415 . S
C4508 H4484 0.950 . S
C4508 C4503 1.363 . S
C4508 C4507 1.415 . S
C4509 H4485 0.951 . S
C4509 C4510 1.366 . S
C4509 C4511 1.388 . S
C4510 C4509 1.366 . S
C4510 C4514 1.385 . S
C4511 H4486 0.951 . S
C4511 C4509 1.388 . S
C4511 C4512 1.366 . S
C4512 C4511 1.366 . S
C4512 C4513 1.414 . S
C4512 C4515 1.499 . S
C4513 H4487 0.950 . S
C4513 C4512 1.414 . S
C4513 C4514 1.374 . S
C4514 H4488 0.950 . S
C4514 C4510 1.385 . S
C4514 C4513 1.374 . S
C4515 C4512 1.499 . S
C4515 C4516 1.373 . S
C4515 C4517 1.389 . S
C4516 H4489 0.950 . S
C4516 C4502 1.377 . S
C4516 C4515 1.373 . S
C4517 C4501 1.377 . S
C4517 C4515 1.389 . S
C4517 C4518 1.524 . S
C4518 C4517 1.524 . S
C4518 C4519 1.397 . S
C4518 C4523 1.363 . S
C4519 H4490 0.950 . S
C4519 C4518 1.397 . S
C4519 C4520 1.334 . S
C4520 H4491 0.950 . S
C4520 C4519 1.334 . S
C4520 C4521 1.287 . S
C4521 C4520 1.287 . S
C4521 C4522 1.524 . S
C4521 H4524 0.999 . S
C4522 H4492 0.950 . S
C4522 C4521 1.524 . S
C4522 C4523 1.415 . S
C4523 H4493 0.950 . S
C4523 C4518 1.363 . S
C4523 C4522 1.415 . S
H4524 C4521 0.999 . S
H4525 C4506 0.913 . S
H4526 C4544 0.951 . S
H4527 C4546 0.951 . S
H4528 C4548 0.950 . S
H4529 C4549 0.950 . S
H4530 C4551 0.950 . S
H4531 C4554 0.950 . S
H4532 C4555 0.950 . S
H4533 C4557 0.950 . S
H4534 C4558 0.950 . S
H4535 C4559 0.951 . S
H4536 C4561 0.951 . S
H4537 C4563 0.950 . S
H4538 C4564 0.950 . S
H4539 C4566 0.950 . S
H4540 C4569 0.950 . S
H4541 C4570 0.950 . S
H4542 C4572 0.950 . S
H4543 C4573 0.950 . S
C4544 H4526 0.951 . S
C4544 C4545 1.366 . S
C4544 C4546 1.388 . S
C4545 C4544 1.366 . S
C4545 C4549 1.385 . S
C4546 H4527 0.951 . S
C4546 C4544 1.388 . S
C4546 C4547 1.366 . S
C4547 C4546 1.366 . S
C4547 C4548 1.414 . S
C4547 C4550 1.499 . S
C4548 H4528 0.950 . S
C4548 C4547 1.414 . S
C4548 C4549 1.374 . S
C4549 H4529 0.950 . S
C4549 C4545 1.385 . S
C4549 C4548 1.374 . S
C4550 C4547 1.499 . S
C4550 C4551 1.373 . S
C4550 C4552 1.389 . S
C4551 H4530 0.950 . S
C4551 C4550 1.373 . S
C4551 C4567 1.377 . S
C4552 C4550 1.389 . S
C4552 C4553 1.524 . S
C4552 C4566 1.377 . S
C4553 C4552 1.524 . S
C4553 C4554 1.397 . S
C4553 C4558 1.363 . S
C4554 H4531 0.950 . S
C4554 C4553 1.397 . S
C4554 C4555 1.334 . S
C4555 H4532 0.950 . S
C4555 C4554 1.334 . S
C4555 C4556 1.287 . S
C4556 C4555 1.287 . S
C4556 C4557 1.524 . S
C4556 H4575 0.913 . S
C4557 H4533 0.950 . S
C4557 C4556 1.524 . S
C4557 C4558 1.415 . S
C4558 H4534 0.950 . S
C4558 C4553 1.363 . S
C4558 C4557 1.415 . S
C4559 H4535 0.951 . S
C4559 C4560 1.366 . S
C4559 C4561 1.388 . S
C4560 C4559 1.366 . S
C4560 C4564 1.385 . S
C4561 H4536 0.951 . S
C4561 C4559 1.388 . S
C4561 C4562 1.366 . S
C4562 C4561 1.366 . S
C4562 C4563 1.414 . S
C4562 C4565 1.499 . S
C4563 H4537 0.950 . S
C4563 C4562 1.414 . S
C4563 C4564 1.374 . S
C4564 H4538 0.950 . S
C4564 C4560 1.385 . S
C4564 C4563 1.374 . S
C4565 C4562 1.499 . S
C4565 C4566 1.373 . S
C4565 C4567 1.389 . S
C4566 H4539 0.950 . S
C4566 C4552 1.377 . S
C4566 C4565 1.373 . S
C4567 C4551 1.377 . S
C4567 C4565 1.389 . S
C4567 C4568 1.524 . S
C4568 C4567 1.524 . S
C4568 C4569 1.397 . S
C4568 C4573 1.363 . S
C4569 H4540 0.950 . S
C4569 C4568 1.397 . S
C4569 C4570 1.334 . S
C4570 H4541 0.950 . S
C4570 C4569 1.334 . S
C4570 C4571 1.287 . S
C4571 C4570 1.287 . S
C4571 C4572 1.524 . S
C4571 H4574 0.999 . S
C4572 H4542 0.950 . S
C4572 C4571 1.524 . S
C4572 C4573 1.415 . S
C4573 H4543 0.950 . S
C4573 C4568 1.363 . S
C4573 C4572 1.415 . S
H4574 C4571 0.999 . S
H4575 C4556 0.913 . S
H4576 C4594 0.951 . S
H4577 C4596 0.951 . S
H4578 C4598 0.950 . S
H4579 C4599 0.950 . S
H4580 C4601 0.950 . S
H4581 C4604 0.950 . S
H4582 C4605 0.950 . S
H4583 C4607 0.950 . S
H4584 C4608 0.950 . S
H4585 C4609 0.951 . S
H4586 C4611 0.951 . S
H4587 C4613 0.950 . S
H4588 C4614 0.950 . S
H4589 C4616 0.950 . S
H4590 C4619 0.950 . S
H4591 C4620 0.950 . S
H4592 C4622 0.950 . S
H4593 C4623 0.950 . S
C4594 H4576 0.951 . S
C4594 C4595 1.366 . S
C4594 C4596 1.388 . S
C4595 C4594 1.366 . S
C4595 C4599 1.385 . S
C4596 H4577 0.951 . S
C4596 C4594 1.388 . S
C4596 C4597 1.366 . S
C4597 C4596 1.366 . S
C4597 C4598 1.414 . S
C4597 C4600 1.499 . S
C4598 H4578 0.950 . S
C4598 C4597 1.414 . S
C4598 C4599 1.374 . S
C4599 H4579 0.950 . S
C4599 C4595 1.385 . S
C4599 C4598 1.374 . S
C4600 C4597 1.499 . S
C4600 C4601 1.373 . S
C4600 C4602 1.389 . S
C4601 H4580 0.950 . S
C4601 C4600 1.373 . S
C4601 C4617 1.377 . S
C4602 C4600 1.389 . S
C4602 C4603 1.524 . S
C4602 C4616 1.377 . S
C4603 C4602 1.524 . S
C4603 C4604 1.397 . S
C4603 C4608 1.363 . S
C4604 H4581 0.950 . S
C4604 C4603 1.397 . S
C4604 C4605 1.334 . S
C4605 H4582 0.950 . S
C4605 C4604 1.334 . S
C4605 C4606 1.287 . S
C4606 C4605 1.287 . S
C4606 C4607 1.524 . S
C4606 H4625 0.913 . S
C4607 H4583 0.950 . S
C4607 C4606 1.524 . S
C4607 C4608 1.415 . S
C4608 H4584 0.950 . S
C4608 C4603 1.363 . S
C4608 C4607 1.415 . S
C4609 H4585 0.951 . S
C4609 C4610 1.366 . S
C4609 C4611 1.388 . S
C4610 C4609 1.366 . S
C4610 C4614 1.385 . S
C4611 H4586 0.951 . S
C4611 C4609 1.388 . S
C4611 C4612 1.366 . S
C4612 C4611 1.366 . S
C4612 C4613 1.414 . S
C4612 C4615 1.499 . S
C4613 H4587 0.950 . S
C4613 C4612 1.414 . S
C4613 C4614 1.374 . S
C4614 H4588 0.950 . S
C4614 C4610 1.385 . S
C4614 C4613 1.374 . S
C4615 C4612 1.499 . S
C4615 C4616 1.373 . S
C4615 C4617 1.389 . S
C4616 H4589 0.950 . S
C4616 C4602 1.377 . S
C4616 C4615 1.373 . S
C4617 C4601 1.377 . S
C4617 C4615 1.389 . S
C4617 C4618 1.524 . S
C4618 C4617 1.524 . S
C4618 C4619 1.397 . S
C4618 C4623 1.363 . S
C4619 H4590 0.950 . S
C4619 C4618 1.397 . S
C4619 C4620 1.334 . S
C4620 H4591 0.950 . S
C4620 C4619 1.334 . S
C4620 C4621 1.287 . S
C4621 C4620 1.287 . S
C4621 C4622 1.524 . S
C4621 H4624 0.999 . S
C4622 H4592 0.950 . S
C4622 C4621 1.524 . S
C4622 C4623 1.415 . S
C4623 H4593 0.950 . S
C4623 C4618 1.363 . S
C4623 C4622 1.415 . S
H4624 C4621 0.999 . S
H4625 C4606 0.913 . S
H4626 C4644 0.951 . S
H4627 C4646 0.951 . S
H4628 C4648 0.950 . S
H4629 C4649 0.950 . S
H4630 C4651 0.950 . S
H4631 C4654 0.950 . S
H4632 C4655 0.950 . S
H4633 C4657 0.950 . S
H4634 C4658 0.950 . S
H4635 C4659 0.951 . S
H4636 C4661 0.951 . S
H4637 C4663 0.950 . S
H4638 C4664 0.950 . S
H4639 C4666 0.950 . S
H4640 C4669 0.950 . S
H4641 C4670 0.950 . S
H4642 C4672 0.950 . S
H4643 C4673 0.950 . S
C4644 H4626 0.951 . S
C4644 C4645 1.366 . S
C4644 C4646 1.388 . S
C4645 C4644 1.366 . S
C4645 C4649 1.385 . S
C4646 H4627 0.951 . S
C4646 C4644 1.388 . S
C4646 C4647 1.366 . S
C4647 C4646 1.366 . S
C4647 C4648 1.414 . S
C4647 C4650 1.499 . S
C4648 H4628 0.950 . S
C4648 C4647 1.414 . S
C4648 C4649 1.374 . S
C4649 H4629 0.950 . S
C4649 C4645 1.385 . S
C4649 C4648 1.374 . S
C4650 C4647 1.499 . S
C4650 C4651 1.373 . S
C4650 C4652 1.389 . S
C4651 H4630 0.950 . S
C4651 C4650 1.373 . S
C4651 C4667 1.377 . S
C4652 C4650 1.389 . S
C4652 C4653 1.524 . S
C4652 C4666 1.377 . S
C4653 C4652 1.524 . S
C4653 C4654 1.397 . S
C4653 C4658 1.363 . S
C4654 H4631 0.950 . S
C4654 C4653 1.397 . S
C4654 C4655 1.334 . S
C4655 H4632 0.950 . S
C4655 C4654 1.334 . S
C4655 C4656 1.287 . S
C4656 C4655 1.287 . S
C4656 C4657 1.524 . S
C4656 H4675 0.913 . S
C4657 H4633 0.950 . S
C4657 C4656 1.524 . S
C4657 C4658 1.415 . S
C4658 H4634 0.950 . S
C4658 C4653 1.363 . S
C4658 C4657 1.415 . S
C4659 H4635 0.951 . S
C4659 C4660 1.366 . S
C4659 C4661 1.388 . S
C4660 C4659 1.366 . S
C4660 C4664 1.385 . S
C4661 H4636 0.951 . S
C4661 C4659 1.388 . S
C4661 C4662 1.366 . S
C4662 C4661 1.366 . S
C4662 C4663 1.414 . S
C4662 C4665 1.499 . S
C4663 H4637 0.950 . S
C4663 C4662 1.414 . S
C4663 C4664 1.374 . S
C4664 H4638 0.950 . S
C4664 C4660 1.385 . S
C4664 C4663 1.374 . S
C4665 C4662 1.499 . S
C4665 C4666 1.373 . S
C4665 C4667 1.389 . S
C4666 H4639 0.950 . S
C4666 C4652 1.377 . S
C4666 C4665 1.373 . S
C4667 C4651 1.377 . S
C4667 C4665 1.389 . S
C4667 C4668 1.524 . S
C4668 C4667 1.524 . S
C4668 C4669 1.397 . S
C4668 C4673 1.363 . S
C4669 H4640 0.950 . S
C4669 C4668 1.397 . S
C4669 C4670 1.334 . S
C4670 H4641 0.950 . S
C4670 C4669 1.334 . S
C4670 C4671 1.287 . S
C4671 C4670 1.287 . S
C4671 C4672 1.524 . S
C4671 H4674 0.999 . S
C4672 H4642 0.950 . S
C4672 C4671 1.524 . S
C4672 C4673 1.415 . S
C4673 H4643 0.950 . S
C4673 C4668 1.363 . S
C4673 C4672 1.415 . S
H4674 C4671 0.999 . S
H4675 C4656 0.913 . S
H4676 C4694 0.951 . S
H4677 C4696 0.951 . S
H4678 C4698 0.950 . S
H4679 C4699 0.950 . S
H4680 C4701 0.950 . S
H4681 C4704 0.950 . S
H4682 C4705 0.950 . S
H4683 C4707 0.950 . S
H4684 C4708 0.950 . S
H4685 C4709 0.951 . S
H4686 C4711 0.951 . S
H4687 C4713 0.950 . S
H4688 C4714 0.950 . S
H4689 C4716 0.950 . S
H4690 C4719 0.950 . S
H4691 C4720 0.950 . S
H4692 C4722 0.950 . S
H4693 C4723 0.950 . S
C4694 H4676 0.951 . S
C4694 C4695 1.366 . S
C4694 C4696 1.388 . S
C4695 C4694 1.366 . S
C4695 C4699 1.385 . S
C4696 H4677 0.951 . S
C4696 C4694 1.388 . S
C4696 C4697 1.366 . S
C4697 C4696 1.366 . S
C4697 C4698 1.414 . S
C4697 C4700 1.499 . S
C4698 H4678 0.950 . S
C4698 C4697 1.414 . S
C4698 C4699 1.374 . S
C4699 H4679 0.950 . S
C4699 C4695 1.385 . S
C4699 C4698 1.374 . S
C4700 C4697 1.499 . S
C4700 C4701 1.373 . S
C4700 C4702 1.389 . S
C4701 H4680 0.950 . S
C4701 C4700 1.373 . S
C4701 C4717 1.377 . S
C4702 C4700 1.389 . S
C4702 C4703 1.524 . S
C4702 C4716 1.377 . S
C4703 C4702 1.524 . S
C4703 C4704 1.397 . S
C4703 C4708 1.363 . S
C4704 H4681 0.950 . S
C4704 C4703 1.397 . S
C4704 C4705 1.334 . S
C4705 H4682 0.950 . S
C4705 C4704 1.334 . S
C4705 C4706 1.287 . S
C4706 C4705 1.287 . S
C4706 C4707 1.524 . S
C4706 H4725 0.913 . S
C4707 H4683 0.950 . S
C4707 C4706 1.524 . S
C4707 C4708 1.415 . S
C4708 H4684 0.950 . S
C4708 C4703 1.363 . S
C4708 C4707 1.415 . S
C4709 H4685 0.951 . S
C4709 C4710 1.366 . S
C4709 C4711 1.388 . S
C4710 C4709 1.366 . S
C4710 C4714 1.385 . S
C4711 H4686 0.951 . S
C4711 C4709 1.388 . S
C4711 C4712 1.366 . S
C4712 C4711 1.366 . S
C4712 C4713 1.414 . S
C4712 C4715 1.499 . S
C4713 H4687 0.950 . S
C4713 C4712 1.414 . S
C4713 C4714 1.374 . S
C4714 H4688 0.950 . S
C4714 C4710 1.385 . S
C4714 C4713 1.374 . S
C4715 C4712 1.499 . S
C4715 C4716 1.373 . S
C4715 C4717 1.389 . S
C4716 H4689 0.950 . S
C4716 C4702 1.377 . S
C4716 C4715 1.373 . S
C4717 C4701 1.377 . S
C4717 C4715 1.389 . S
C4717 C4718 1.524 . S
C4718 C4717 1.524 . S
C4718 C4719 1.397 . S
C4718 C4723 1.363 . S
C4719 H4690 0.950 . S
C4719 C4718 1.397 . S
C4719 C4720 1.334 . S
C4720 H4691 0.950 . S
C4720 C4719 1.334 . S
C4720 C4721 1.287 . S
C4721 C4720 1.287 . S
C4721 C4722 1.524 . S
C4721 H4724 0.999 . S
C4722 H4692 0.950 . S
C4722 C4721 1.524 . S
C4722 C4723 1.415 . S
C4723 H4693 0.950 . S
C4723 C4718 1.363 . S
C4723 C4722 1.415 . S
H4724 C4721 0.999 . S
H4725 C4706 0.913 . S
H4726 C4744 0.951 . S
H4727 C4746 0.951 . S
H4728 C4748 0.950 . S
H4729 C4749 0.950 . S
H4730 C4751 0.950 . S
H4731 C4754 0.950 . S
H4732 C4755 0.950 . S
H4733 C4757 0.950 . S
H4734 C4758 0.950 . S
H4735 C4759 0.951 . S
H4736 C4761 0.951 . S
H4737 C4763 0.950 . S
H4738 C4764 0.950 . S
H4739 C4766 0.950 . S
H4740 C4769 0.950 . S
H4741 C4770 0.950 . S
H4742 C4772 0.950 . S
H4743 C4773 0.950 . S
C4744 H4726 0.951 . S
C4744 C4745 1.366 . S
C4744 C4746 1.388 . S
C4745 C4744 1.366 . S
C4745 C4749 1.385 . S
C4746 H4727 0.951 . S
C4746 C4744 1.388 . S
C4746 C4747 1.366 . S
C4747 C4746 1.366 . S
C4747 C4748 1.414 . S
C4747 C4750 1.499 . S
C4748 H4728 0.950 . S
C4748 C4747 1.414 . S
C4748 C4749 1.374 . S
C4749 H4729 0.950 . S
C4749 C4745 1.385 . S
C4749 C4748 1.374 . S
C4750 C4747 1.499 . S
C4750 C4751 1.373 . S
C4750 C4752 1.389 . S
C4751 H4730 0.950 . S
C4751 C4750 1.373 . S
C4751 C4767 1.377 . S
C4752 C4750 1.389 . S
C4752 C4753 1.524 . S
C4752 C4766 1.377 . S
C4753 C4752 1.524 . S
C4753 C4754 1.397 . S
C4753 C4758 1.363 . S
C4754 H4731 0.950 . S
C4754 C4753 1.397 . S
C4754 C4755 1.334 . S
C4755 H4732 0.950 . S
C4755 C4754 1.334 . S
C4755 C4756 1.287 . S
C4756 C4755 1.287 . S
C4756 C4757 1.524 . S
C4756 H4775 0.913 . S
C4757 H4733 0.950 . S
C4757 C4756 1.524 . S
C4757 C4758 1.415 . S
C4758 H4734 0.950 . S
C4758 C4753 1.363 . S
C4758 C4757 1.415 . S
C4759 H4735 0.951 . S
C4759 C4760 1.366 . S
C4759 C4761 1.388 . S
C4760 C4759 1.366 . S
C4760 C4764 1.385 . S
C4761 H4736 0.951 . S
C4761 C4759 1.388 . S
C4761 C4762 1.366 . S
C4762 C4761 1.366 . S
C4762 C4763 1.414 . S
C4762 C4765 1.499 . S
C4763 H4737 0.950 . S
C4763 C4762 1.414 . S
C4763 C4764 1.374 . S
C4764 H4738 0.950 . S
C4764 C4760 1.385 . S
C4764 C4763 1.374 . S
C4765 C4762 1.499 . S
C4765 C4766 1.373 . S
C4765 C4767 1.389 . S
C4766 H4739 0.950 . S
C4766 C4752 1.377 . S
C4766 C4765 1.373 . S
C4767 C4751 1.377 . S
C4767 C4765 1.389 . S
C4767 C4768 1.524 . S
C4768 C4767 1.524 . S
C4768 C4769 1.397 . S
C4768 C4773 1.363 . S
C4769 H4740 0.950 . S
C4769 C4768 1.397 . S
C4769 C4770 1.334 . S
C4770 H4741 0.950 . S
C4770 C4769 1.334 . S
C4770 C4771 1.287 . S
C4771 C4770 1.287 . S
C4771 C4772 1.524 . S
C4771 H4774 0.999 . S
C4772 H4742 0.950 . S
C4772 C4771 1.524 . S
C4772 C4773 1.415 . S
C4773 H4743 0.950 . S
C4773 C4768 1.363 . S
C4773 C4772 1.415 . S
H4774 C4771 0.999 . S
H4775 C4756 0.913 . S
C1210 C906 0.870 . S
C1195 C859 0.886 . S
C1245 C787 0.918 . S
C1260 C900 0.894 . S
C1310 C868 1.049 . S
C1295 C751 1.094 . S
C1345 C823 1.123 . S
C1360 C882 1.071 . S
C1410 C920 1.586 . S
C1395 C607 1.676 . S
C1460 C1007 1.022 . S
C1445 C643 1.037 . S
C1495 C679 1.747 . S
C1510 C934 1.666 . S
C1560 C1002 0.598 . S
C1545 C715 0.585 . S
C1595 C463 1.750 . S
C1610 C958 1.673 . S
C1660 C1013 1.087 . S
C1645 C499 1.103 . S
C1695 C535 1.667 . S
C1710 C952 1.609 . S
C1745 C571 0.653 . S
C1760 C998 0.659 . S
C1810 C1054 0.663 . S
C1795 C427 0.657 . S
C1845 C355 1.179 . S
C1860 C1065 1.162 . S
C1895 C319 0.743 . S
C1910 C1050 0.744 . S
C1960 C1059 1.244 . S
C1945 C391 1.272 . S
C1995 C175 1.059 1_455 S
C2010 C1104 1.027 . S
C2045 C211 0.164 . S
C2060 C1163 0.292 . S
C2095 C247 1.239 . S
C2110 C1120 1.167 . S
C2145 C283 0.552 . S
C2160 C1158 0.572 . S
C2210 C1122 1.211 . S
C2195 C31 1.272 . S
C2260 C1169 0.302 . S
C2245 C67 0.202 . S
C2295 C103 1.038 . S
C2310 C1098 1.000 . S
C2360 C1154 0.534 . S
C2345 C139 0.502 . S
C2410 C890 1.819 . S
C2395 C25 1.803 . S
C2445 C61 1.487 . S
C2460 C894 1.551 . S
C2495 C97 1.842 . S
C2510 C914 1.828 . S
C2545 C133 1.131 . S
C2560 C909 1.215 . S
C2595 C169 1.870 1_455 S
C2610 C912 1.865 . S
C2660 C898 1.524 . S
C2645 C181 1.503 . S
C2695 C241 1.788 . S
C2710 C896 1.787 . S
C2760 C903 1.196 . S
C2745 C253 1.142 . S
C2810 C966 1.843 . S
C2795 C109 1.894 . S
C2845 C1 2.229 . S
C2860 C1016 2.224 . S
C2910 C964 1.413 . S
C2895 C37 1.449 . S
C2960 C1000 2.086 . S
C2945 C73 2.092 . S
C2995 C205 1.342 . S
C3010 C942 1.349 . S
C3060 C1018 2.181 . S
C3045 C217 2.189 . S
C3110 C948 1.792 . S
C3095 C277 1.777 . S
C3160 C994 2.116 . S
C3145 C145 2.117 1_455 S
C3210 C986 1.864 . S
C3195 C289 1.827 . S
C3245 C325 1.633 . S
C3260 C1010 1.694 . S
C3310 C946 1.479 . S
C3295 C313 1.419 . S
C3360 C972 1.752 . S
C3345 C361 1.701 . S
C3395 C397 1.394 . S
C3410 C950 1.414 . S
C3445 C421 1.712 . S
C3460 C1004 1.803 . S
C3510 C961 1.855 . S
C3495 C349 1.719 . S
C3560 C955 1.921 . S
C3545 C385 1.782 . S
C3610 C1038 2.359 . S
C3595 C457 2.274 . S
C3660 C1070 1.900 . S
C3645 C493 1.790 . S
C3695 C529 2.242 . S
C3710 C1024 2.336 . S
C3760 C1068 1.441 . S
C3745 C565 1.378 . S
C3810 C1056 2.300 . S
C3795 C601 2.218 . S
C3845 C613 1.753 . S
C3860 C1052 1.813 . S
C3895 C673 2.301 . S
C3910 C1062 2.396 . S
C3960 C1046 1.362 . S
C3945 C685 1.333 . S
C4010 C1111 1.734 . S
C3995 C541 1.706 . S
C4045 C433 1.922 . S
C4060 C1172 1.962 . S
C4110 C1106 1.413 . S
C4095 C469 1.332 . S
C4160 C1156 1.933 . S
C4145 C505 1.856 . S
C4210 C1102 1.330 . S
C4195 C637 1.224 . S
C4245 C649 1.820 . S
C4260 C1174 1.866 . S
C4310 C1117 1.661 . S
C4295 C709 1.590 . S
C4360 C1150 1.775 . S
C4345 C577 1.747 . S
C4410 C1142 1.989 . S
C4395 C721 1.975 . S
C4445 C757 2.074 . S
C4460 C1166 2.064 . S
C4510 C1108 1.652 . S
C4495 C745 1.641 . S
C4545 C793 2.171 . S
C4560 C1128 2.160 . S
C4610 C1090 1.698 . S
C4595 C829 1.742 . S
C4660 C1160 1.883 . S
C4645 C853 1.812 . S
C4710 C1076 1.663 . S
C4695 C781 1.679 . S
C4745 C817 1.623 . S
C4760 C1114 1.625 . S
