# Generated by pormake.
# Topology hwx, (6,3)-cn, num edge types: 1
# Building blocks:
#     Node 0, Type 0, BuildingBlock: IZENUY_clean_sbu_0, # of connection points: 6
#     Node 1, Type 0, BuildingBlock: IZENUY_clean_sbu_0, # of connection points: 6
#     Node 2, Type 0, BuildingBlock: IZENUY_clean_sbu_0, # of connection points: 6
#     Node 3, Type 0, BuildingBlock: IZENUY_clean_sbu_0, # of connection points: 6
#     Node 4, Type 1, BuildingBlock: KAKCAD_clean_linker_0, # of connection points: 3
#     Node 5, Type 1, BuildingBlock: KAKCAD_clean_linker_0, # of connection points: 3
#     Node 6, Type 1, BuildingBlock: KAKCAD_clean_linker_0, # of connection points: 3
#     Node 7, Type 1, BuildingBlock: KAKCAD_clean_linker_0, # of connection points: 3
#     Node 8, Type 1, BuildingBlock: KAKCAD_clean_linker_0, # of connection points: 3
#     Node 9, Type 1, BuildingBlock: KAKCAD_clean_linker_0, # of connection points: 3
#     Node 10, Type 1, BuildingBlock: KAKCAD_clean_linker_0, # of connection points: 3
#     Node 11, Type 1, BuildingBlock: KAKCAD_clean_linker_0, # of connection points: 3
#     Edge 12, Type (0, 1), BuildingBlock: UVAHIK_clean_linker_0, # of connection points: 2
#     Edge 13, Type (0, 1), BuildingBlock: UVAHIK_clean_linker_0, # of connection points: 2
#     Edge 14, Type (0, 1), BuildingBlock: UVAHIK_clean_linker_0, # of connection points: 2
#     Edge 15, Type (0, 1), BuildingBlock: UVAHIK_clean_linker_0, # of connection points: 2
#     Edge 16, Type (0, 1), BuildingBlock: UVAHIK_clean_linker_0, # of connection points: 2
#     Edge 17, Type (0, 1), BuildingBlock: UVAHIK_clean_linker_0, # of connection points: 2
#     Edge 18, Type (0, 1), BuildingBlock: UVAHIK_clean_linker_0, # of connection points: 2
#     Edge 19, Type (0, 1), BuildingBlock: UVAHIK_clean_linker_0, # of connection points: 2
#     Edge 20, Type (0, 1), BuildingBlock: UVAHIK_clean_linker_0, # of connection points: 2
#     Edge 21, Type (0, 1), BuildingBlock: UVAHIK_clean_linker_0, # of connection points: 2
#     Edge 22, Type (0, 1), BuildingBlock: UVAHIK_clean_linker_0, # of connection points: 2
#     Edge 23, Type (0, 1), BuildingBlock: UVAHIK_clean_linker_0, # of connection points: 2
#     Edge 24, Type (0, 1), BuildingBlock: UVAHIK_clean_linker_0, # of connection points: 2
#     Edge 25, Type (0, 1), BuildingBlock: UVAHIK_clean_linker_0, # of connection points: 2
#     Edge 26, Type (0, 1), BuildingBlock: UVAHIK_clean_linker_0, # of connection points: 2
#     Edge 27, Type (0, 1), BuildingBlock: UVAHIK_clean_linker_0, # of connection points: 2
#     Edge 28, Type (0, 1), BuildingBlock: UVAHIK_clean_linker_0, # of connection points: 2
#     Edge 29, Type (0, 1), BuildingBlock: UVAHIK_clean_linker_0, # of connection points: 2
#     Edge 30, Type (0, 1), BuildingBlock: UVAHIK_clean_linker_0, # of connection points: 2
#     Edge 31, Type (0, 1), BuildingBlock: UVAHIK_clean_linker_0, # of connection points: 2
#     Edge 32, Type (0, 1), BuildingBlock: UVAHIK_clean_linker_0, # of connection points: 2
#     Edge 33, Type (0, 1), BuildingBlock: UVAHIK_clean_linker_0, # of connection points: 2
#     Edge 34, Type (0, 1), BuildingBlock: UVAHIK_clean_linker_0, # of connection points: 2
#     Edge 35, Type (0, 1), BuildingBlock: UVAHIK_clean_linker_0, # of connection points: 2
# Relax obj value: 0.051
# Max RMSD: 0.075
# Mean RMSD: 0.067
data_MOF--net-hwx--node1-IZENUY_clean_sbu_0--node2-KAKCAD_clean_linker_0--edge1-UVAHIK_clean_linker_0
_symmetry_space_group_name_H-M    P1
_symmetry_Int_Tables_number       1
_symmetry_cell_setting            triclinic
loop_
_symmetry_equiv_pos_as_xyz
'x, y, z'
_cell_length_a     71.631627
_cell_length_b     71.563841
_cell_length_c     34.679881
_cell_angle_alpha  89.90391
_cell_angle_beta   90.085905
_cell_angle_gamma 90.008794
loop_
_atom_site_label
_atom_site_type_symbol
_atom_site_fract_x
_atom_site_fract_y
_atom_site_fract_z
_atom_type_partial_charge
Fe0 Fe 0.23691 0.20391 0.04173 0.0
Fe1 Fe 0.236 0.20425 0.95327 0.0
O2 O 0.2309 0.19303 0.99761 0.0
Fe3 Fe 0.2197 0.17094 0.99763 0.0
O4 O 0.20691 0.17478 0.04269 0.0
O5 O 0.21283 0.20398 0.05765 0.0
O6 O 0.23292 0.22781 0.02412 0.0
C7 C 0.22371 0.23398 0.99558 0.0
C8 C 0.24544 0.16565 0.05478 0.0
O9 O 0.22166 0.22425 0.96555 0.0
C10 C 0.24525 0.16831 0.93555 0.0
O11 O 0.26141 0.20468 0.029 0.0
O12 O 0.25724 0.21582 0.97061 0.0
O13 O 0.239 0.16009 0.02293 0.0
O14 O 0.242 0.18195 0.06713 0.0
C15 C 0.20031 0.18841 0.94029 0.0
O16 O 0.25072 0.185 0.9382 0.0
O17 O 0.23051 0.16299 0.95249 0.0
C18 C 0.26778 0.21234 0.99905 0.0
O19 O 0.21564 0.19476 0.92767 0.0
O20 O 0.19956 0.18032 0.97255 0.0
C21 C 0.20265 0.18967 0.06021 0.0
Fe22 Fe 0.26457 0.70239 0.54956 0.0
Fe23 Fe 0.27929 0.6687 0.50399 0.0
O24 O 0.26969 0.69153 0.50489 0.0
Fe25 Fe 0.26528 0.70352 0.46116 0.0
O26 O 0.27037 0.72677 0.48067 0.0
O27 O 0.28043 0.7216 0.53963 0.0
O28 O 0.28377 0.69114 0.57589 0.0
C29 C 0.29881 0.68391 0.56395 0.0
C30 C 0.23422 0.71322 0.50193 0.0
O31 O 0.29956 0.67615 0.53137 0.0
C32 C 0.25431 0.66631 0.4446 0.0
O33 O 0.24837 0.68397 0.56249 0.0
O34 O 0.26703 0.66071 0.54748 0.0
O35 O 0.24066 0.70561 0.47202 0.0
O36 O 0.24442 0.7156 0.53137 0.0
C37 C 0.29884 0.6874 0.44432 0.0
O38 O 0.25971 0.65974 0.47648 0.0
O39 O 0.2594 0.68243 0.43371 0.0
C40 C 0.25245 0.66684 0.5638 0.0
O41 O 0.29324 0.67249 0.46026 0.0
O42 O 0.2896 0.70231 0.44732 0.0
C43 C 0.27958 0.73184 0.51004 0.0
Fe44 Fe 0.76444 0.80327 0.95281 0.0
Fe45 Fe 0.76589 0.80292 0.04115 0.0
O46 O 0.76971 0.81462 0.99688 0.0
Fe47 Fe 0.7788 0.83767 0.99662 0.0
O48 O 0.76601 0.84502 0.95313 0.0
O49 O 0.74776 0.8212 0.93977 0.0
O50 O 0.74472 0.7898 0.97204 0.0
C51 C 0.73469 0.79228 0.00163 0.0
C52 C 0.79812 0.82249 0.93653 0.0
O53 O 0.74122 0.80024 0.0311 0.0
C54 C 0.79915 0.81993 0.05665 0.0
O55 O 0.78075 0.78448 0.96292 0.0
O56 O 0.77127 0.77959 0.02233 0.0
O57 O 0.799 0.83046 0.96888 0.0
O58 O 0.78317 0.8147 0.92547 0.0
C59 C 0.75426 0.84004 0.05665 0.0
O60 O 0.79028 0.80477 0.05422 0.0
O61 O 0.79317 0.83456 0.04015 0.0
C62 C 0.78021 0.77438 0.99276 0.0
O63 O 0.75979 0.82414 0.068 0.0
O64 O 0.75924 0.84643 0.02436 0.0
C65 C 0.75148 0.83838 0.93736 0.0
Fe66 Fe 0.72164 0.3363 0.50313 0.0
Fe67 Fe 0.73477 0.30106 0.54643 0.0
O68 O 0.73012 0.313 0.50261 0.0
Fe69 Fe 0.73396 0.30161 0.45802 0.0
O70 O 0.74026 0.32291 0.4316 0.0
O71 O 0.74157 0.34472 0.47587 0.0
O72 O 0.73432 0.34309 0.54699 0.0
C73 C 0.74815 0.33583 0.56418 0.0
C74 C 0.70103 0.31922 0.44271 0.0
O75 O 0.75148 0.31859 0.56147 0.0
C76 C 0.71921 0.27266 0.50483 0.0
O77 O 0.70114 0.32963 0.53044 0.0
O78 O 0.71582 0.31229 0.57328 0.0
O79 O 0.70962 0.30387 0.44485 0.0
O80 O 0.70734 0.33367 0.45934 0.0
C81 C 0.76483 0.29044 0.498 0.0
O82 O 0.71838 0.28254 0.53484 0.0
O83 O 0.72841 0.27814 0.47584 0.0
C84 C 0.7014 0.32106 0.56223 0.0
O85 O 0.75461 0.28775 0.52729 0.0
O86 O 0.75854 0.29864 0.4685 0.0
C87 C 0.74615 0.33861 0.44315 0.0
C88 C 0.16716 0.5345 0.86011 0.0
C89 C 0.17725 0.55133 0.85863 0.0
C90 C 0.16561 0.52457 0.89482 0.0
C91 C 0.17435 0.53118 0.92856 0.0
C92 C 0.18452 0.54798 0.9267 0.0
C93 C 0.18583 0.55798 0.8923 0.0
C94 C 0.17351 0.52049 0.96545 0.0
C95 C 0.17468 0.50088 0.9658 0.0
C96 C 0.17592 0.49099 0.00081 0.0
C97 C 0.17616 0.50094 0.03577 0.0
C98 C 0.17499 0.52053 0.03597 0.0
C99 C 0.17304 0.53005 0.00076 0.0
C100 C 0.17725 0.5313 0.07236 0.0
C101 C 0.16911 0.52528 0.10716 0.0
C102 C 0.18803 0.54772 0.07243 0.0
C103 C 0.19037 0.55804 0.10609 0.0
C104 C 0.18213 0.55217 0.14076 0.0
C105 C 0.17818 0.47036 0.00063 0.0
C106 C 0.16716 0.45914 0.97635 0.0
C107 C 0.19171 0.46179 0.02409 0.0
C108 C 0.19432 0.44246 0.02301 0.0
C109 C 0.1834 0.43124 0.99855 0.0
C110 C 0.16969 0.43977 0.97544 0.0
C111 C 0.1716 0.5356 0.14111 0.0
H112 H 0.16039 0.5291 0.8345 0.0
H113 H 0.15754 0.51178 0.89522 0.0
H114 H 0.19192 0.55327 0.95165 0.0
H115 H 0.19404 0.57069 0.89181 0.0
H116 H 0.17558 0.49332 0.93882 0.0
H117 H 0.1715 0.54511 0.00087 0.0
H118 H 0.17772 0.49344 0.06274 0.0
H119 H 0.16066 0.51274 0.10807 0.0
H120 H 0.19497 0.5525 0.04651 0.0
H121 H 0.19894 0.57051 0.10511 0.0
H122 H 0.15655 0.46536 0.9581 0.0
H123 H 0.20057 0.47007 0.04278 0.0
H124 H 0.16507 0.53078 0.16747 0.0
H125 H 0.16115 0.4315 0.95611 0.0
H126 H 0.20486 0.43628 0.04146 0.0
C127 C 0.94698 0.81562 0.36918 0.0
C128 C 0.93353 0.82964 0.36335 0.0
C129 C 0.95808 0.81559 0.40229 0.0
C130 C 0.95602 0.82959 0.43035 0.0
C131 C 0.94271 0.84373 0.42436 0.0
C132 C 0.93161 0.84378 0.39116 0.0
C133 C 0.96743 0.82909 0.46613 0.0
C134 C 0.98639 0.82427 0.46453 0.0
C135 C 0.99701 0.82246 0.49836 0.0
C136 C 0.98861 0.82611 0.53412 0.0
C137 C 0.96957 0.83081 0.53647 0.0
C138 C 0.95914 0.83234 0.50218 0.0
C139 C 0.96019 0.83264 0.57462 0.0
C140 C 0.96503 0.82072 0.60536 0.0
C141 C 0.94562 0.84554 0.58 0.0
C142 C 0.9356 0.84592 0.61455 0.0
C143 C 0.94005 0.83358 0.64482 0.0
C144 C 0.0164 0.81525 0.4965 0.0
C145 C 0.02055 0.79982 0.47303 0.0
C146 C 0.03065 0.8231 0.5192 0.0
C147 C 0.04864 0.81549 0.51874 0.0
C148 C 0.05265 0.79981 0.49583 0.0
C149 C 0.03846 0.79218 0.47272 0.0
C150 C 0.95519 0.8213 0.64007 0.0
H151 H 0.94895 0.80465 0.34811 0.0
H152 H 0.96804 0.80436 0.40624 0.0
H153 H 0.94089 0.85478 0.44534 0.0
H154 H 0.92126 0.85469 0.38766 0.0
H155 H 0.99292 0.82178 0.43683 0.0
H156 H 0.94429 0.83512 0.50356 0.0
H157 H 0.9968 0.82467 0.56025 0.0
H158 H 0.976 0.81043 0.6023 0.0
H159 H 0.9417 0.85515 0.55724 0.0
H160 H 0.92394 0.85548 0.61689 0.0
H161 H 0.00982 0.79332 0.45556 0.0
H162 H 0.02787 0.83506 0.5374 0.0
H163 H 0.95928 0.81183 0.66295 0.0
H164 H 0.04119 0.78023 0.45444 0.0
H165 H 0.05928 0.8216 0.53701 0.0
C166 C 0.80461 0.47669 0.13545 0.0
C167 C 0.81366 0.45972 0.14366 0.0
C168 C 0.80845 0.48641 0.10144 0.0
C169 C 0.82145 0.47941 0.07479 0.0
C170 C 0.83099 0.46276 0.08359 0.0
C171 C 0.82717 0.45304 0.11772 0.0
C172 C 0.82409 0.48889 0.037 0.0
C173 C 0.8244 0.50849 0.03466 0.0
C174 C 0.82477 0.51762 0.99875 0.0
C175 C 0.82517 0.50689 0.96488 0.0
C176 C 0.82503 0.48727 0.96667 0.0
C177 C 0.82468 0.47839 0.00281 0.0
C178 C 0.82357 0.47603 0.93091 0.0
C179 C 0.81015 0.48055 0.90286 0.0
C180 C 0.83483 0.46019 0.92549 0.0
C181 C 0.83255 0.44895 0.89285 0.0
C182 C 0.81877 0.45317 0.86516 0.0
C183 C 0.82339 0.53831 0.99662 0.0
C184 C 0.81057 0.54786 0.02006 0.0
C185 C 0.83437 0.5486 0.97055 0.0
C186 C 0.83247 0.56803 0.96786 0.0
C187 C 0.81944 0.57751 0.99094 0.0
C188 C 0.80862 0.56721 0.01723 0.0
C189 C 0.80771 0.46921 0.87051 0.0
H190 H 0.79429 0.48231 0.15506 0.0
H191 H 0.8007 0.49908 0.09541 0.0
H192 H 0.8412 0.4571 0.06381 0.0
H193 H 0.83429 0.43994 0.1231 0.0
H194 H 0.82417 0.51669 0.06091 0.0
H195 H 0.82373 0.46329 0.00418 0.0
H196 H 0.82501 0.51378 0.93703 0.0
H197 H 0.80107 0.49251 0.90662 0.0
H198 H 0.84538 0.45648 0.94658 0.0
H199 H 0.84156 0.43693 0.88943 0.0
H200 H 0.80175 0.54032 0.0401 0.0
H201 H 0.84444 0.54163 0.95228 0.0
H202 H 0.79671 0.47275 0.85034 0.0
H203 H 0.79862 0.57413 0.03576 0.0
H204 H 0.84093 0.57558 0.9472 0.0
C205 C 0.04437 0.1715 0.64392 0.0
C206 C 0.05915 0.184 0.65064 0.0
C207 C 0.03545 0.17112 0.60797 0.0
C208 C 0.04153 0.18291 0.57808 0.0
C209 C 0.05637 0.19528 0.58483 0.0
C210 C 0.06501 0.19591 0.62083 0.0
C211 C 0.03236 0.18269 0.53989 0.0
C212 C 0.01312 0.1859 0.53668 0.0
C213 C 0.00477 0.18809 0.50027 0.0
C214 C 0.01579 0.18631 0.46697 0.0
C215 C 0.03505 0.18293 0.46977 0.0
C216 C 0.0432 0.18108 0.50641 0.0
C217 C 0.04683 0.18271 0.43459 0.0
C218 C 0.04075 0.17364 0.4009 0.0
C219 C 0.06404 0.19213 0.43416 0.0
C220 C 0.07487 0.19259 0.40079 0.0
C221 C 0.06874 0.18368 0.36698 0.0
C222 C 0.98505 0.19418 0.49713 0.0
C223 C 0.97111 0.18606 0.52019 0.0
C224 C 0.98027 0.20897 0.47229 0.0
C225 C 0.96204 0.21575 0.47109 0.0
C226 C 0.94816 0.2079 0.49464 0.0
C227 C 0.95279 0.1928 0.51881 0.0
C228 C 0.05161 0.1741 0.36745 0.0
H229 H 0.03964 0.16219 0.66655 0.0
H230 H 0.02401 0.16149 0.60332 0.0
H231 H 0.06117 0.20462 0.56229 0.0
H232 H 0.0765 0.20553 0.62521 0.0
H233 H 0.0049 0.18791 0.56258 0.0
H234 H 0.05808 0.17858 0.50902 0.0
H235 H 0.00945 0.18826 0.43885 0.0
H236 H 0.02761 0.16616 0.40042 0.0
H237 H 0.06901 0.19948 0.45945 0.0
H238 H 0.08813 0.19987 0.40155 0.0
H239 H 0.97441 0.17461 0.53948 0.0
H240 H 0.99075 0.21568 0.45455 0.0
H241 H 0.04644 0.16721 0.34179 0.0
H242 H 0.94238 0.18656 0.53743 0.0
H243 H 0.95882 0.22727 0.45189 0.0
C244 C 0.66747 0.97087 0.63982 0.0
C245 C 0.67702 0.95374 0.64029 0.0
C246 C 0.66599 0.98118 0.60555 0.0
C247 C 0.67435 0.97468 0.57134 0.0
C248 C 0.68416 0.95763 0.57239 0.0
C249 C 0.68529 0.94722 0.60628 0.0
C250 C 0.6734 0.98564 0.53474 0.0
C251 C 0.67437 0.00526 0.53489 0.0
C252 C 0.67532 0.01539 0.50013 0.0
C253 C 0.67562 0.00566 0.46489 0.0
C254 C 0.67472 0.98606 0.46419 0.0
C255 C 0.67289 0.97631 0.49914 0.0
C256 C 0.67713 0.97549 0.42761 0.0
C257 C 0.66885 0.98147 0.39287 0.0
C258 C 0.68816 0.95924 0.42736 0.0
C259 C 0.69053 0.94898 0.39365 0.0
C260 C 0.68208 0.95475 0.35908 0.0
C261 C 0.6771 0.03607 0.50086 0.0
C262 C 0.66605 0.04684 0.52587 0.0
C263 C 0.69017 0.04515 0.47717 0.0
C264 C 0.69227 0.06454 0.47869 0.0
C265 C 0.68133 0.07532 0.50389 0.0
C266 C 0.6681 0.06627 0.52728 0.0
C267 C 0.67137 0.97121 0.35885 0.0
H268 H 0.661 0.97615 0.66582 0.0
H269 H 0.65821 0.99414 0.60585 0.0
H270 H 0.69133 0.9524 0.54717 0.0
H271 H 0.69306 0.93423 0.60613 0.0
H272 H 0.67529 0.01267 0.56204 0.0
H273 H 0.6714 0.96125 0.49856 0.0
H274 H 0.67699 0.01333 0.43809 0.0
H275 H 0.66024 0.99389 0.3921 0.0
H276 H 0.69523 0.95451 0.45323 0.0
H277 H 0.69925 0.93662 0.39454 0.0
H278 H 0.65577 0.04024 0.54429 0.0
H279 H 0.69905 0.03724 0.45791 0.0
H280 H 0.6647 0.97596 0.33255 0.0
H281 H 0.65955 0.07416 0.54718 0.0
H282 H 0.70244 0.07112 0.45999 0.0
C283 C 0.55292 0.31791 0.13151 0.0
C284 C 0.56568 0.33242 0.13857 0.0
C285 C 0.54206 0.31788 0.0981 0.0
C286 C 0.5436 0.33241 0.07097 0.0
C287 C 0.55608 0.34715 0.07837 0.0
C288 C 0.567 0.34716 0.11184 0.0
C289 C 0.53277 0.33167 0.03444 0.0
C290 C 0.51428 0.32514 0.03442 0.0
C291 C 0.50451 0.32257 0.99972 0.0
C292 C 0.51327 0.32698 0.96469 0.0
C293 C 0.53169 0.3337 0.96416 0.0
C294 C 0.54129 0.33615 0.99915 0.0
C295 C 0.54154 0.33659 0.92709 0.0
C296 C 0.54104 0.3227 0.89856 0.0
C297 C 0.5524 0.35265 0.92092 0.0
C298 C 0.56295 0.35455 0.88727 0.0
C299 C 0.56306 0.34032 0.8593 0.0
C300 C 0.48559 0.31417 4e-05 0.0
C301 C 0.4819 0.29848 0.02322 0.0
C302 C 0.47126 0.32145 0.97676 0.0
C303 C 0.45357 0.31319 0.97669 0.0
C304 C 0.44995 0.29739 0.99965 0.0
C305 C 0.46429 0.29016 0.02297 0.0
C306 C 0.55173 0.3245 0.86513 0.0
H307 H 0.55139 0.30647 0.15175 0.0
H308 H 0.53277 0.30618 0.09311 0.0
H309 H 0.55749 0.35862 0.05818 0.0
H310 H 0.5768 0.35848 0.11629 0.0
H311 H 0.50748 0.32192 0.06153 0.0
H312 H 0.55577 0.34053 0.99869 0.0
H313 H 0.50595 0.32469 0.93772 0.0
H314 H 0.53298 0.31006 0.9028 0.0
H315 H 0.55287 0.36364 0.94233 0.0
H316 H 0.57122 0.36709 0.88344 0.0
H317 H 0.49274 0.29242 0.04112 0.0
H318 H 0.47371 0.33359 0.95875 0.0
H319 H 0.55168 0.3131 0.84465 0.0
H320 H 0.46185 0.27811 0.04124 0.0
H321 H 0.44282 0.31898 0.95822 0.0
C322 C 0.30941 0.0275 0.36042 0.0
C323 C 0.31419 0.04649 0.3566 0.0
C324 C 0.31302 0.01782 0.39462 0.0
C325 C 0.32201 0.02666 0.42576 0.0
C326 C 0.32755 0.04541 0.42132 0.0
C327 C 0.3235 0.05524 0.38746 0.0
C328 C 0.32478 0.01666 0.4632 0.0
C329 C 0.32764 0.99721 0.46419 0.0
C330 C 0.32847 0.98749 0.49938 0.0
C331 C 0.3276 0.99754 0.53406 0.0
C332 C 0.32494 0.01701 0.53391 0.0
C333 C 0.32335 0.02635 0.49834 0.0
C334 C 0.3225 0.02748 0.57067 0.0
C335 C 0.31251 0.0196 0.60156 0.0
C336 C 0.32946 0.04577 0.5746 0.0
C337 C 0.32597 0.05612 0.60796 0.0
C338 C 0.31561 0.04838 0.6385 0.0
C339 C 0.32824 0.96672 0.4999 0.0
C340 C 0.316 0.95702 0.47533 0.0
C341 C 0.33906 0.9565 0.52645 0.0
C342 C 0.33732 0.93704 0.52897 0.0
C343 C 0.32459 0.92749 0.50525 0.0
C344 C 0.3142 0.93766 0.47798 0.0
C345 C 0.30924 0.02985 0.63511 0.0
H346 H 0.30264 0.02006 0.33713 0.0
H347 H 0.30826 0.00351 0.39681 0.0
H348 H 0.33485 0.05266 0.4442 0.0
H349 H 0.32727 0.06987 0.38609 0.0
H350 H 0.32897 0.98947 0.43753 0.0
H351 H 0.32008 0.04112 0.49812 0.0
H352 H 0.32835 0.99009 0.56123 0.0
H353 H 0.30672 0.00566 0.59954 0.0
H354 H 0.33745 0.05221 0.55166 0.0
H355 H 0.33096 0.07038 0.60925 0.0
H356 H 0.30729 0.96446 0.45488 0.0
H357 H 0.34869 0.96358 0.54559 0.0
H358 H 0.30152 0.02327 0.65826 0.0
H359 H 0.30447 0.93065 0.45893 0.0
H360 H 0.34548 0.92956 0.5503 0.0
C361 C 0.4555 0.66968 0.86079 0.0
C362 C 0.44034 0.68171 0.85407 0.0
C363 C 0.46465 0.66977 0.8965 0.0
C364 C 0.45846 0.68158 0.92616 0.0
C365 C 0.44325 0.6935 0.91941 0.0
C366 C 0.43436 0.69367 0.88363 0.0
C367 C 0.46781 0.68177 0.96416 0.0
C368 C 0.487 0.68541 0.9669 0.0
C369 C 0.49551 0.68777 0.00311 0.0
C370 C 0.48472 0.68569 0.03667 0.0
C371 C 0.46553 0.68189 0.03435 0.0
C372 C 0.4572 0.67993 0.99792 0.0
C373 C 0.45399 0.68125 0.06982 0.0
C374 C 0.46035 0.67192 0.10302 0.0
C375 C 0.4367 0.69051 0.071 0.0
C376 C 0.42608 0.69057 0.10469 0.0
C377 C 0.43249 0.68138 0.13801 0.0
C378 C 0.51514 0.69421 0.00578 0.0
C379 C 0.5291 0.68638 0.9824 0.0
C380 C 0.51983 0.70899 0.03062 0.0
C381 C 0.53797 0.71602 0.03156 0.0
C382 C 0.55187 0.70843 0.00775 0.0
C383 C 0.54733 0.69337 0.98351 0.0
C384 C 0.44969 0.67194 0.13676 0.0
H385 H 0.46033 0.66034 0.83835 0.0
H386 H 0.47637 0.66047 0.90116 0.0
H387 H 0.43833 0.70284 0.94177 0.0
H388 H 0.42259 0.70294 0.87924 0.0
H389 H 0.49503 0.68757 0.94079 0.0
H390 H 0.44236 0.6771 0.99571 0.0
H391 H 0.49117 0.6877 0.06465 0.0
H392 H 0.47357 0.66457 0.10289 0.0
H393 H 0.43151 0.69802 0.04606 0.0
H394 H 0.41277 0.69776 0.10458 0.0
H395 H 0.52588 0.67493 0.9631 0.0
H396 H 0.50933 0.71549 0.04861 0.0
H397 H 0.45505 0.66483 0.16205 0.0
H398 H 0.55775 0.68732 0.96468 0.0
H399 H 0.54111 0.72751 0.05082 0.0
C400 C 0.1823 0.20548 0.10917 0.0
C401 C 0.18668 0.18956 0.08725 0.0
C402 C 0.16785 0.20493 0.13618 0.0
C403 C 0.1419 0.17171 0.19649 0.0
H404 H 0.1081 0.21334 0.21191 0.0
C405 C 0.08256 0.16852 0.30832 0.0
C406 C 0.08025 0.18446 0.33145 0.0
C407 C 0.09407 0.16911 0.27583 0.0
C408 C 0.11752 0.20166 0.20811 0.0
H409 H 0.17884 0.1608 0.0756 0.0
H410 H 0.15363 0.15994 0.12254 0.0
H411 H 0.13097 0.21459 0.15983 0.0
H412 H 0.08765 0.21369 0.33779 0.0
H413 H 0.10806 0.21459 0.28175 0.0
H414 H 0.12876 0.1589 0.2451 0.0
C415 C 0.16155 0.17273 0.11924 0.0
C416 C 0.13061 0.20238 0.1783 0.0
C417 C 0.17596 0.17327 0.09221 0.0
C418 C 0.08936 0.20109 0.32089 0.0
C419 C 0.10086 0.20167 0.28846 0.0
C420 C 0.12886 0.171 0.22632 0.0
C421 C 0.15749 0.18847 0.14187 0.0
C422 C 0.14302 0.18746 0.17235 0.0
C423 C 0.1035 0.18564 0.26577 0.0
C424 C 0.11662 0.18602 0.23268 0.0
H425 H 0.19024 0.21827 0.10599 0.0
H426 H 0.16515 0.21724 0.15342 0.0
H427 H 0.15147 0.16012 0.19303 0.0
H428 H 0.07582 0.15546 0.3158 0.0
H429 H 0.09564 0.15657 0.25868 0.0
C430 C 0.24326 0.63459 0.5842 0.0
C431 C 0.24124 0.65403 0.58802 0.0
C432 C 0.23348 0.62241 0.60833 0.0
C433 C 0.19452 0.62014 0.67953 0.0
H434 H 0.22236 0.57759 0.71832 0.0
C435 C 0.17751 0.5812 0.82105 0.0
C436 C 0.1797 0.5617 0.82197 0.0
C437 C 0.18214 0.59136 0.78801 0.0
C438 C 0.21426 0.58922 0.70728 0.0
H439 H 0.22701 0.67593 0.61957 0.0
H440 H 0.21041 0.65474 0.66252 0.0
H441 H 0.23618 0.59758 0.66937 0.0
H442 H 0.18773 0.53742 0.78866 0.0
H443 H 0.19594 0.55522 0.73076 0.0
H444 H 0.17293 0.61209 0.719 0.0
C445 C 0.21923 0.64883 0.64034 0.0
C446 C 0.22217 0.6007 0.67912 0.0
C447 C 0.22886 0.66102 0.61587 0.0
C448 C 0.18583 0.55244 0.78864 0.0
C449 C 0.19066 0.56262 0.75568 0.0
C450 C 0.18668 0.60873 0.70802 0.0
C451 C 0.2216 0.62937 0.63721 0.0
C452 C 0.21251 0.61645 0.66518 0.0
C453 C 0.18922 0.58222 0.75533 0.0
C454 C 0.19657 0.59328 0.72248 0.0
H455 H 0.25249 0.62875 0.56264 0.0
H456 H 0.23535 0.60752 0.60449 0.0
H457 H 0.18652 0.63193 0.66899 0.0
H458 H 0.17267 0.58866 0.8463 0.0
H459 H 0.18101 0.60645 0.7887 0.0
C460 C 0.82404 0.83845 0.09022 0.0
C461 C 0.81535 0.82117 0.08312 0.0
C462 C 0.83841 0.83987 0.11736 0.0
C463 C 0.87278 0.81208 0.17283 0.0
H464 H 0.86968 0.85296 0.24584 0.0
C465 C 0.91361 0.81226 0.31597 0.0
C466 C 0.92129 0.82923 0.32878 0.0
C467 C 0.90189 0.8118 0.28379 0.0
C468 C 0.87093 0.84162 0.22535 0.0
H469 H 0.81543 0.7917 0.09805 0.0
H470 H 0.84039 0.79422 0.1455 0.0
H471 H 0.84738 0.85118 0.19285 0.0
H472 H 0.92295 0.85898 0.31741 0.0
H473 H 0.90246 0.85818 0.26108 0.0
H474 H 0.8962 0.8024 0.20562 0.0
C475 C 0.83616 0.80665 0.12992 0.0
C476 C 0.85815 0.8406 0.19497 0.0
C477 C 0.82177 0.80524 0.10287 0.0
C478 C 0.91705 0.84573 0.30855 0.0
C479 C 0.90533 0.84527 0.27629 0.0
C480 C 0.88558 0.81311 0.20319 0.0
C481 C 0.84446 0.82403 0.13787 0.0
C482 C 0.8588 0.82571 0.16862 0.0
C483 C 0.89758 0.82829 0.26361 0.0
C484 C 0.88467 0.82778 0.23006 0.0
H485 H 0.81953 0.85099 0.07537 0.0
H486 H 0.84472 0.8534 0.12245 0.0
H487 H 0.87382 0.80059 0.15266 0.0
H488 H 0.91634 0.79935 0.3313 0.0
H489 H 0.89588 0.79855 0.27523 0.0
C490 C 0.77028 0.33885 0.61998 0.0
C491 C 0.75915 0.34733 0.59145 0.0
C492 C 0.77935 0.3497 0.64777 0.0
C493 C 0.79607 0.3971 0.66968 0.0
H494 H 0.7872 0.38324 0.77621 0.0
C495 C 0.80988 0.44783 0.79574 0.0
C496 C 0.81535 0.44055 0.83172 0.0
C497 C 0.80523 0.43593 0.76528 0.0
C498 C 0.79019 0.38716 0.74669 0.0
H499 H 0.74953 0.3739 0.56872 0.0
H500 H 0.76558 0.39283 0.61699 0.0
H501 H 0.77561 0.36333 0.72467 0.0
H502 H 0.82069 0.41486 0.86326 0.0
H503 H 0.8135 0.39421 0.80975 0.0
H504 H 0.81076 0.42086 0.69152 0.0
C505 C 0.76718 0.37779 0.61791 0.0
C506 C 0.78346 0.37574 0.71715 0.0
C507 C 0.7579 0.36693 0.59043 0.0
C508 C 0.81672 0.42104 0.83595 0.0
C509 C 0.81228 0.40915 0.80534 0.0
C510 C 0.80302 0.40842 0.69924 0.0
C511 C 0.77772 0.36926 0.64725 0.0
C512 C 0.78611 0.38072 0.67836 0.0
C513 C 0.80615 0.41641 0.76979 0.0
C514 C 0.79995 0.40374 0.73818 0.0
H515 H 0.77155 0.32378 0.62157 0.0
H516 H 0.78751 0.34279 0.66991 0.0
H517 H 0.79846 0.40115 0.63999 0.0
H518 H 0.80897 0.46277 0.79111 0.0
H519 H 0.8004 0.4421 0.73854 0.0
C520 C 0.67829 0.30528 0.39585 0.0
C521 C 0.6848 0.3209 0.41643 0.0
C522 C 0.66379 0.30712 0.36916 0.0
C523 C 0.64126 0.34208 0.30687 0.0
H524 H 0.60358 0.30364 0.2944 0.0
C525 C 0.58177 0.34802 0.19443 0.0
C526 C 0.57799 0.33178 0.17305 0.0
C527 C 0.59357 0.34731 0.22658 0.0
C528 C 0.61408 0.31444 0.29739 0.0
H529 H 0.68069 0.35059 0.42599 0.0
H530 H 0.65529 0.35373 0.37957 0.0
H531 H 0.62617 0.30121 0.34686 0.0
H532 H 0.5839 0.30214 0.16828 0.0
H533 H 0.60439 0.30091 0.22422 0.0
H534 H 0.62934 0.35516 0.25704 0.0
C535 C 0.66162 0.34013 0.38372 0.0
C536 C 0.62701 0.31304 0.32743 0.0
C537 C 0.67611 0.33829 0.41046 0.0
C538 C 0.58623 0.31483 0.18455 0.0
C539 C 0.59797 0.31412 0.21664 0.0
C540 C 0.62831 0.34347 0.27682 0.0
C541 C 0.65545 0.32461 0.36244 0.0
C542 C 0.64089 0.32673 0.33221 0.0
C543 C 0.6018 0.33034 0.238 0.0
C544 C 0.61474 0.32954 0.27145 0.0
H545 H 0.68463 0.29167 0.39976 0.0
H546 H 0.6595 0.29493 0.35294 0.0
H547 H 0.65193 0.35272 0.30944 0.0
H548 H 0.57547 0.36125 0.18658 0.0
H549 H 0.5961 0.36001 0.2427 0.0
C550 C 0.24651 0.13832 0.89868 0.0
C551 C 0.25488 0.15536 0.90893 0.0
C552 C 0.25514 0.12636 0.87245 0.0
C553 C 0.29042 0.12596 0.79459 0.0
H554 H 0.28465 0.07227 0.80444 0.0
C555 C 0.32337 0.0731 0.68779 0.0
C556 C 0.31079 0.0598 0.67296 0.0
C557 C 0.31837 0.08439 0.71902 0.0
C558 C 0.28636 0.08724 0.80134 0.0
H559 H 0.2792 0.17295 0.90047 0.0
H560 H 0.29452 0.15183 0.85532 0.0
H561 H 0.27301 0.09268 0.85523 0.0
H562 H 0.28297 0.04812 0.67961 0.0
H563 H 0.27457 0.06737 0.7346 0.0
H564 H 0.30386 0.12038 0.74063 0.0
C565 C 0.28104 0.14791 0.86689 0.0
C566 C 0.27962 0.09896 0.83032 0.0
C567 C 0.2723 0.15999 0.89292 0.0
C568 C 0.29322 0.05788 0.69064 0.0
C569 C 0.28834 0.06897 0.72211 0.0
C570 C 0.29735 0.11421 0.7658 0.0
C571 C 0.27249 0.13101 0.85608 0.0
C572 C 0.28121 0.11849 0.82696 0.0
C573 C 0.30079 0.08243 0.73641 0.0
C574 C 0.29506 0.09477 0.76857 0.0
H575 H 0.23305 0.13434 0.9103 0.0
H576 H 0.24794 0.11365 0.86432 0.0
H577 H 0.2917 0.14092 0.79072 0.0
H578 H 0.33713 0.07479 0.67538 0.0
H579 H 0.32828 0.09457 0.72972 0.0
C580 C 0.325 0.67003 0.41258 0.0
C581 C 0.31516 0.68681 0.41822 0.0
C582 C 0.33966 0.66915 0.38613 0.0
C583 C 0.37245 0.69831 0.32956 0.0
H584 H 0.3727 0.65591 0.26006 0.0
C585 C 0.41241 0.69835 0.18559 0.0
C586 C 0.42124 0.68177 0.17389 0.0
C587 C 0.4012 0.69863 0.21845 0.0
C588 C 0.37304 0.6677 0.27961 0.0
H589 H 0.31346 0.71599 0.40135 0.0
H590 H 0.33887 0.71437 0.35494 0.0
H591 H 0.35008 0.65707 0.31234 0.0
H592 H 0.42545 0.65252 0.18786 0.0
H593 H 0.40601 0.65305 0.24566 0.0
H594 H 0.39521 0.70908 0.29631 0.0
C595 C 0.33536 0.70193 0.37121 0.0
C596 C 0.36006 0.66837 0.30959 0.0
C597 C 0.3207 0.70282 0.39766 0.0
C598 C 0.41891 0.66554 0.19626 0.0
C599 C 0.40765 0.6658 0.22913 0.0
C600 C 0.38543 0.69765 0.29956 0.0
C601 C 0.34484 0.68502 0.36477 0.0
C602 C 0.35948 0.68378 0.33463 0.0
C603 C 0.39854 0.68232 0.2404 0.0
C604 C 0.38571 0.68244 0.27396 0.0
H605 H 0.32121 0.65746 0.42817 0.0
H606 H 0.34687 0.65599 0.38224 0.0
H607 H 0.37254 0.71024 0.34874 0.0
H608 H 0.41414 0.71115 0.16925 0.0
H609 H 0.39424 0.71153 0.22612 0.0
C610 C 0.74293 0.8699 0.91104 0.0
C611 C 0.73998 0.85047 0.91204 0.0
C612 C 0.73291 0.88118 0.88539 0.0
C613 C 0.70995 0.87872 0.7918 0.0
H614 H 0.68968 0.92725 0.81837 0.0
C615 C 0.67459 0.92363 0.67628 0.0
C616 C 0.67907 0.94272 0.67613 0.0
C617 C 0.6789 0.91251 0.70815 0.0
C618 C 0.69539 0.9138 0.81041 0.0
H619 H 0.72368 0.82777 0.88778 0.0
H620 H 0.70635 0.84746 0.84279 0.0
H621 H 0.70334 0.90754 0.86869 0.0
H622 H 0.69088 0.96537 0.70945 0.0
H623 H 0.69898 0.94587 0.76489 0.0
H624 H 0.70284 0.88506 0.73351 0.0
C625 C 0.71649 0.85392 0.86176 0.0
C626 C 0.70316 0.90251 0.83926 0.0
C627 C 0.72638 0.84266 0.88762 0.0
C628 C 0.68718 0.95069 0.70907 0.0
C629 C 0.69176 0.9395 0.74083 0.0
C630 C 0.70239 0.89004 0.76296 0.0
C631 C 0.71984 0.87324 0.86001 0.0
C632 C 0.7106 0.88489 0.83016 0.0
C633 C 0.68811 0.92015 0.74034 0.0
C634 C 0.69509 0.90778 0.77179 0.0
H635 H 0.75321 0.87639 0.92964 0.0
H636 H 0.73587 0.89601 0.88448 0.0
H637 H 0.71588 0.86535 0.7838 0.0
H638 H 0.66815 0.91723 0.65129 0.0
H639 H 0.67541 0.89779 0.70713 0.0
C640 C 0.81181 0.81824 0.8709 0.0
C641 C 0.81407 0.82366 0.90955 0.0
C642 C 0.82669 0.81929 0.84513 0.0
C643 C 0.8728 0.84144 0.82999 0.0
H644 H 0.87712 0.80284 0.75224 0.0
C645 C 0.91998 0.84889 0.69545 0.0
C646 C 0.92823 0.83269 0.68009 0.0
C647 C 0.9076 0.84771 0.7265 0.0
C648 C 0.87635 0.81361 0.77405 0.0
H649 H 0.83385 0.83435 0.9515 0.0
H650 H 0.86004 0.83581 0.90653 0.0
H651 H 0.85296 0.80049 0.80085 0.0
H652 H 0.93017 0.80254 0.68641 0.0
H653 H 0.90943 0.80063 0.74141 0.0
H654 H 0.89656 0.85431 0.80356 0.0
C655 C 0.84661 0.83107 0.89604 0.0
C656 C 0.86226 0.81241 0.80164 0.0
C657 C 0.83163 0.83015 0.92186 0.0
C658 C 0.92431 0.81538 0.69758 0.0
C659 C 0.91213 0.81423 0.72885 0.0
C660 C 0.88704 0.84257 0.80249 0.0
C661 C 0.84432 0.8256 0.85737 0.0
C662 C 0.86011 0.82644 0.82961 0.0
C663 C 0.90328 0.83031 0.74319 0.0
C664 C 0.88887 0.82876 0.77392 0.0
H665 H 0.79845 0.81331 0.86032 0.0
H666 H 0.82428 0.81534 0.81541 0.0
H667 H 0.87148 0.85256 0.85095 0.0
H668 H 0.92289 0.86251 0.68317 0.0
H669 H 0.90097 0.86039 0.73656 0.0
C670 C 0.761 0.36934 0.42536 0.0
C671 C 0.75623 0.35086 0.41565 0.0
C672 C 0.76901 0.38123 0.39785 0.0
C673 C 0.79364 0.40047 0.33662 0.0
H674 H 0.76955 0.39937 0.23638 0.0
C675 C 0.82158 0.43936 0.20071 0.0
C676 C 0.80814 0.44847 0.17783 0.0
C677 C 0.8161 0.42805 0.23168 0.0
C678 C 0.77637 0.39992 0.26426 0.0
H679 H 0.75705 0.33016 0.36995 0.0
H680 H 0.77094 0.35084 0.32233 0.0
H681 H 0.75896 0.37833 0.287 0.0
H682 H 0.77843 0.45291 0.16964 0.0
H683 H 0.76893 0.43336 0.22366 0.0
H684 H 0.81097 0.42227 0.31362 0.0
C685 C 0.76824 0.35622 0.35096 0.0
C686 C 0.77044 0.38773 0.29314 0.0
C687 C 0.76033 0.34435 0.37837 0.0
C688 C 0.78915 0.44625 0.18692 0.0
C689 C 0.78369 0.43489 0.21763 0.0
C690 C 0.7997 0.41262 0.3075 0.0
C691 C 0.77231 0.37489 0.36012 0.0
C692 C 0.77897 0.38785 0.32964 0.0
C693 C 0.79707 0.4255 0.24009 0.0
C694 C 0.79103 0.41253 0.27109 0.0
H695 H 0.75811 0.37478 0.45386 0.0
H696 H 0.77195 0.39558 0.40568 0.0
H697 H 0.80053 0.40081 0.36443 0.0
H698 H 0.83632 0.44092 0.19458 0.0
H699 H 0.82671 0.4209 0.24838 0.0
C700 C 0.18512 0.19504 0.8768 0.0
C701 C 0.18362 0.1888 0.9151 0.0
C702 C 0.16958 0.1951 0.85255 0.0
C703 C 0.12294 0.17406 0.83977 0.0
H704 H 0.11792 0.21388 0.76456 0.0
C705 C 0.07672 0.16807 0.70367 0.0
C706 C 0.06897 0.18444 0.68812 0.0
C707 C 0.08828 0.16896 0.73615 0.0
C708 C 0.11884 0.20279 0.78575 0.0
H709 H 0.16448 0.17797 0.95814 0.0
H710 H 0.1372 0.17839 0.91581 0.0
H711 H 0.1426 0.21539 0.81231 0.0
H712 H 0.06598 0.21431 0.69558 0.0
H713 H 0.08559 0.21585 0.75304 0.0
H714 H 0.09892 0.16161 0.8134 0.0
C715 C 0.15052 0.18293 0.90441 0.0
C716 C 0.13323 0.20352 0.81281 0.0
C717 C 0.16613 0.18278 0.92871 0.0
C718 C 0.07203 0.20153 0.70683 0.0
C719 C 0.08335 0.2024 0.73956 0.0
C720 C 0.10841 0.17339 0.81279 0.0
C721 C 0.15208 0.18908 0.86601 0.0
C722 C 0.13571 0.189 0.83963 0.0
C723 C 0.09212 0.18622 0.7539 0.0
C724 C 0.10637 0.18761 0.78503 0.0
H725 H 0.19838 0.19968 0.86526 0.0
H726 H 0.1714 0.19958 0.82294 0.0
H727 H 0.1245 0.16259 0.8599 0.0
H728 H 0.07464 0.15474 0.68954 0.0
H729 H 0.09492 0.15624 0.74609 0.0
C730 C 0.24171 0.63508 0.4239 0.0
C731 C 0.24365 0.6544 0.41752 0.0
C732 C 0.2328 0.62378 0.39655 0.0
C733 C 0.22167 0.62337 0.29276 0.0
H734 H 0.18974 0.58143 0.31862 0.0
C735 C 0.18369 0.58292 0.17466 0.0
C736 C 0.18501 0.56335 0.17624 0.0
C737 C 0.18867 0.59377 0.20641 0.0
C738 C 0.19872 0.59304 0.31104 0.0
H739 H 0.23681 0.67714 0.3785 0.0
H740 H 0.22107 0.65757 0.33139 0.0
H741 H 0.20256 0.60101 0.37012 0.0
H742 H 0.19167 0.53974 0.21296 0.0
H743 H 0.2005 0.55878 0.2687 0.0
H744 H 0.21802 0.61546 0.23392 0.0
C745 C 0.22686 0.65103 0.35693 0.0
C746 C 0.20608 0.60423 0.34049 0.0
C747 C 0.23583 0.66227 0.38405 0.0
C748 C 0.19046 0.5548 0.211 0.0
C749 C 0.1955 0.56569 0.24287 0.0
C750 C 0.21431 0.61228 0.26348 0.0
C751 C 0.22559 0.6316 0.3624 0.0
C752 C 0.21758 0.61959 0.33161 0.0
C753 C 0.19515 0.58531 0.2405 0.0
C754 C 0.20268 0.59704 0.2722 0.0
H755 H 0.24754 0.62859 0.44945 0.0
H756 H 0.23215 0.60886 0.40156 0.0
H757 H 0.23086 0.63478 0.2849 0.0
H758 H 0.17918 0.58988 0.1485 0.0
H759 H 0.18783 0.60884 0.20399 0.0
C760 C 0.31348 0.68921 0.6284 0.0
C761 C 0.31523 0.68341 0.5899 0.0
C762 C 0.32887 0.68908 0.65304 0.0
C763 C 0.37593 0.66896 0.6664 0.0
H764 H 0.38012 0.70918 0.74063 0.0
C765 C 0.4229 0.66495 0.802 0.0
C766 C 0.43026 0.68163 0.81684 0.0
C767 C 0.41115 0.66531 0.76976 0.0
C768 C 0.37943 0.69798 0.71973 0.0
H769 H 0.3346 0.67289 0.54706 0.0
H770 H 0.36165 0.67296 0.59012 0.0
H771 H 0.35533 0.7099 0.69308 0.0
H772 H 0.43237 0.71153 0.80829 0.0
H773 H 0.41244 0.71215 0.75125 0.0
H774 H 0.40031 0.65722 0.69286 0.0
C775 C 0.34825 0.67735 0.60133 0.0
C776 C 0.36497 0.69825 0.6928 0.0
C777 C 0.33277 0.67738 0.57663 0.0
C778 C 0.42662 0.69851 0.79763 0.0
C779 C 0.41512 0.69885 0.76513 0.0
C780 C 0.39053 0.66875 0.69328 0.0
C781 C 0.34648 0.68331 0.63978 0.0
C782 C 0.36281 0.68358 0.66628 0.0
C783 C 0.40673 0.68234 0.75152 0.0
C784 C 0.39229 0.68314 0.72065 0.0
H785 H 0.30017 0.69381 0.63971 0.0
H786 H 0.32689 0.69336 0.68269 0.0
H787 H 0.37463 0.6574 0.64648 0.0
H788 H 0.42544 0.65178 0.81652 0.0
H789 H 0.40482 0.65235 0.76037 0.0
C790 C 0.74136 0.87122 0.07674 0.0
C791 C 0.74359 0.85197 0.0836 0.0
C792 C 0.73245 0.88257 0.10393 0.0
C793 C 0.72178 0.88346 0.20791 0.0
H794 H 0.68934 0.92494 0.18143 0.0
C795 C 0.68367 0.92395 0.32543 0.0
C796 C 0.68488 0.94352 0.32364 0.0
C797 C 0.68865 0.91306 0.29379 0.0
C798 C 0.69846 0.91346 0.18917 0.0
H799 H 0.73727 0.8294 0.12334 0.0
H800 H 0.72151 0.84905 0.17018 0.0
H801 H 0.70217 0.90521 0.13024 0.0
H802 H 0.69128 0.96709 0.28665 0.0
H803 H 0.7001 0.94796 0.23106 0.0
H804 H 0.71823 0.89163 0.26661 0.0
C805 C 0.72708 0.85551 0.14438 0.0
C806 C 0.70583 0.90219 0.15991 0.0
C807 C 0.73606 0.84422 0.11741 0.0
C808 C 0.69017 0.95203 0.28877 0.0
C809 C 0.69521 0.94108 0.25699 0.0
C810 C 0.7144 0.89463 0.23701 0.0
C811 C 0.72552 0.87488 0.13841 0.0
C812 C 0.71751 0.88699 0.16901 0.0
C813 C 0.695 0.92146 0.2596 0.0
C814 C 0.70258 0.90969 0.22806 0.0
H815 H 0.74696 0.87763 0.05091 0.0
H816 H 0.73158 0.89746 0.09853 0.0
H817 H 0.73111 0.87219 0.21595 0.0
H818 H 0.67928 0.91703 0.35169 0.0
H819 H 0.68792 0.89799 0.29639 0.0
C820 C 0.68419 0.31108 0.62138 0.0
C821 C 0.68548 0.32288 0.58908 0.0
C822 C 0.66998 0.3135 0.64836 0.0
C823 C 0.62417 0.33639 0.66481 0.0
H824 H 0.6383 0.33016 0.77201 0.0
C825 C 0.57051 0.33394 0.78957 0.0
C826 C 0.57584 0.34129 0.82555 0.0
C827 C 0.58325 0.3331 0.75912 0.0
C828 C 0.63413 0.33222 0.74228 0.0
H829 H 0.6725 0.34616 0.55918 0.0
H830 H 0.64789 0.35067 0.60685 0.0
H831 H 0.66148 0.32574 0.722 0.0
H832 H 0.59869 0.35413 0.85706 0.0
H833 H 0.62054 0.35341 0.80367 0.0
H834 H 0.59689 0.3434 0.68541 0.0
C835 C 0.65773 0.33936 0.61101 0.0
C836 C 0.64738 0.32936 0.71349 0.0
C837 C 0.67188 0.33682 0.58376 0.0
C838 C 0.59398 0.34852 0.82974 0.0
C839 C 0.60665 0.34784 0.79923 0.0
C840 C 0.6109 0.33937 0.69372 0.0
C841 C 0.65679 0.3279 0.64396 0.0
C842 C 0.64256 0.33125 0.67437 0.0
C843 C 0.60159 0.33972 0.76383 0.0
C844 C 0.61571 0.33725 0.73283 0.0
H845 H 0.69429 0.30003 0.62605 0.0
H846 H 0.66941 0.30411 0.67285 0.0
H847 H 0.61995 0.33785 0.63496 0.0
H848 H 0.55656 0.32852 0.78507 0.0
H849 H 0.57888 0.32667 0.73234 0.0
C850 C 0.2508 0.13308 0.07873 0.0
C851 C 0.25501 0.15225 0.08048 0.0
C852 C 0.25849 0.12069 0.1056 0.0
C853 C 0.29695 0.11182 0.17019 0.0
H854 H 0.26108 0.08756 0.23722 0.0
C855 C 0.31973 0.07233 0.30814 0.0
C856 C 0.30879 0.05729 0.32138 0.0
C857 C 0.31396 0.08314 0.27666 0.0
C858 C 0.27136 0.09381 0.21835 0.0
H859 H 0.27121 0.17334 0.11036 0.0
H860 H 0.28515 0.15146 0.15661 0.0
H861 H 0.25015 0.10723 0.18459 0.0
H862 H 0.28318 0.04181 0.31075 0.0
H863 H 0.274 0.05956 0.25458 0.0
H864 H 0.31822 0.09802 0.2028 0.0
C865 C 0.27569 0.14617 0.13478 0.0
C866 C 0.26503 0.1052 0.18835 0.0
C867 C 0.26767 0.15865 0.1085 0.0
C868 C 0.29222 0.05304 0.30135 0.0
C869 C 0.2867 0.06355 0.26937 0.0
C870 C 0.30333 0.10005 0.19966 0.0
C871 C 0.27086 0.12718 0.13399 0.0
C872 C 0.27776 0.11441 0.16428 0.0
C873 C 0.29728 0.07899 0.25695 0.0
C874 C 0.29061 0.09099 0.22444 0.0
H875 H 0.24103 0.12778 0.05755 0.0
H876 H 0.2546 0.10607 0.10454 0.0
H877 H 0.307 0.11877 0.15177 0.0
H878 H 0.33276 0.07589 0.32215 0.0
H879 H 0.32245 0.095 0.26844 0.0
C880 C 0.21092 0.26244 0.96214 0.0
C881 C 0.21716 0.25362 0.99605 0.0
C882 C 0.20601 0.28137 0.96239 0.0
C883 C 0.21426 0.32451 0.01837 0.0
H884 H 0.17366 0.34429 0.95655 0.0
C885 C 0.20478 0.40355 0.99597 0.0
C886 C 0.18654 0.41074 0.99689 0.0
C887 C 0.20785 0.38429 0.99517 0.0
C888 C 0.18495 0.33897 0.97423 0.0
H889 H 0.22225 0.25756 0.0572 0.0
H890 H 0.21336 0.29035 0.05777 0.0
H891 H 0.17943 0.31067 0.95768 0.0
H892 H 0.1572 0.40335 0.99758 0.0
H893 H 0.16255 0.36964 0.99662 0.0
H894 H 0.21956 0.35266 0.03565 0.0
C895 C 0.21273 0.28282 0.03073 0.0
C896 C 0.18839 0.31972 0.97453 0.0
C897 C 0.21774 0.26397 0.03044 0.0
C898 C 0.17141 0.39822 0.99652 0.0
C899 C 0.17449 0.37892 0.9959 0.0
C900 C 0.2108 0.3437 0.01815 0.0
C901 C 0.20712 0.29185 0.9966 0.0
C902 C 0.20311 0.31226 0.99658 0.0
C903 C 0.19276 0.37172 0.99548 0.0
C904 C 0.19616 0.3512 0.99595 0.0
H905 H 0.2103 0.25487 0.93514 0.0
H906 H 0.20189 0.28791 0.93551 0.0
H907 H 0.22588 0.31932 0.03526 0.0
H908 H 0.21672 0.41284 0.9955 0.0
H909 H 0.2221 0.37926 0.99402 0.0
C910 C 0.20476 0.72182 0.46692 0.0
C911 C 0.21521 0.72133 0.50125 0.0
C912 C 0.18717 0.73026 0.46606 0.0
C913 C 0.15802 0.76428 0.51905 0.0
H914 H 0.11778 0.74236 0.45949 0.0
C915 C 0.08763 0.8021 0.4952 0.0
C916 C 0.07141 0.79108 0.4966 0.0
C917 C 0.10526 0.79372 0.49539 0.0
C918 C 0.12882 0.74859 0.47651 0.0
H919 H 0.21515 0.72888 0.56184 0.0
H920 H 0.18438 0.74326 0.56047 0.0
H921 H 0.14809 0.727 0.46136 0.0
H922 H 0.06093 0.76271 0.50042 0.0
H923 H 0.09163 0.74811 0.50118 0.0
H924 H 0.13859 0.78558 0.53509 0.0
C925 C 0.18994 0.73751 0.534 0.0
C926 C 0.14628 0.73991 0.47719 0.0
C927 C 0.20754 0.72915 0.53483 0.0
C928 C 0.07318 0.77155 0.49862 0.0
C929 C 0.09077 0.76319 0.49898 0.0
C930 C 0.14054 0.77293 0.51847 0.0
C931 C 0.17961 0.73831 0.49954 0.0
C932 C 0.16107 0.74761 0.49855 0.0
C933 C 0.10703 0.77415 0.49718 0.0
C934 C 0.12572 0.76516 0.49728 0.0
H935 H 0.21027 0.71597 0.4405 0.0
H936 H 0.17967 0.73081 0.43894 0.0
H937 H 0.16918 0.77073 0.53538 0.0
H938 H 0.08668 0.81717 0.49326 0.0
H939 H 0.11749 0.80256 0.49348 0.0
C940 C 0.79291 0.74666 0.95678 0.0
C941 C 0.78787 0.75516 0.99179 0.0
C942 C 0.79825 0.72784 0.95591 0.0
C943 C 0.79193 0.68454 0.01203 0.0
H944 H 0.82996 0.66449 0.94424 0.0
C945 C 0.79879 0.60569 0.98747 0.0
C946 C 0.81685 0.59803 0.98752 0.0
C947 C 0.7962 0.625 0.98626 0.0
C948 C 0.81939 0.66991 0.96352 0.0
H949 H 0.78567 0.7509 0.05359 0.0
H950 H 0.79527 0.71834 0.05211 0.0
H951 H 0.82476 0.69827 0.94675 0.0
H952 H 0.84637 0.60463 0.98547 0.0
H953 H 0.84185 0.6385 0.98362 0.0
H954 H 0.78671 0.65638 0.02935 0.0
C955 C 0.7946 0.726 0.02518 0.0
C956 C 0.81629 0.68923 0.96468 0.0
C957 C 0.78918 0.74471 0.02604 0.0
C958 C 0.83228 0.61013 0.98524 0.0
C959 C 0.82969 0.62951 0.98413 0.0
C960 C 0.79502 0.66532 0.01087 0.0
C961 C 0.79875 0.71719 0.99003 0.0
C962 C 0.80251 0.69676 0.98897 0.0
C963 C 0.81161 0.63717 0.98519 0.0
C964 C 0.80869 0.65773 0.98647 0.0
H965 H 0.79208 0.75433 0.92988 0.0
H966 H 0.80127 0.72146 0.92831 0.0
H967 H 0.78102 0.68981 0.03065 0.0
H968 H 0.78662 0.59673 0.98837 0.0
H969 H 0.78208 0.63041 0.9862 0.0
C970 C 0.79407 0.28172 0.46263 0.0
C971 C 0.78376 0.28218 0.49706 0.0
C972 C 0.81169 0.27337 0.46166 0.0
C973 C 0.84164 0.24 0.51511 0.0
H974 H 0.88126 0.26274 0.45516 0.0
C975 C 0.9133 0.20432 0.49367 0.0
C976 C 0.92911 0.21593 0.49477 0.0
C977 C 0.89539 0.21207 0.49323 0.0
C978 C 0.87039 0.25628 0.47229 0.0
H979 H 0.78405 0.27459 0.55768 0.0
H980 H 0.8149 0.26042 0.55616 0.0
H981 H 0.85057 0.27728 0.45653 0.0
H982 H 0.93859 0.24467 0.49749 0.0
H983 H 0.90741 0.25817 0.49729 0.0
H984 H 0.86166 0.21934 0.53189 0.0
C985 C 0.80921 0.2661 0.52967 0.0
C986 C 0.85272 0.26448 0.47266 0.0
C987 C 0.79156 0.27434 0.5306 0.0
C988 C 0.92666 0.23539 0.49592 0.0
C989 C 0.90879 0.24312 0.49571 0.0
C990 C 0.85935 0.23183 0.51487 0.0
C991 C 0.81944 0.26541 0.49516 0.0
C992 C 0.83815 0.25649 0.4942 0.0
C993 C 0.89294 0.23157 0.49414 0.0
C994 C 0.87396 0.23993 0.49361 0.0
H995 H 0.78844 0.28758 0.43623 0.0
H996 H 0.8191 0.27289 0.43449 0.0
H997 H 0.83067 0.23333 0.53158 0.0
H998 H 0.91481 0.18927 0.49244 0.0
H999 H 0.88347 0.20279 0.49155 0.0
C1000 C 0.71084 0.24316 0.4705 0.0
C1001 C 0.71171 0.25337 0.50504 0.0
C1002 C 0.70568 0.22436 0.47072 0.0
C1003 C 0.68395 0.18691 0.52962 0.0
H1004 H 0.7142 0.15481 0.4649 0.0
C1005 C 0.66848 0.10797 0.50776 0.0
C1006 C 0.68393 0.09589 0.50597 0.0
C1007 C 0.67103 0.12736 0.50864 0.0
C1008 C 0.70571 0.16354 0.48338 0.0
H1009 H 0.70703 0.25202 0.56677 0.0
H1010 H 0.69829 0.21902 0.56722 0.0
H1011 H 0.71965 0.18831 0.46468 0.0
H1012 H 0.71417 0.09466 0.50524 0.0
H1013 H 0.71863 0.12837 0.50695 0.0
H1014 H 0.67036 0.16193 0.54903 0.0
C1015 C 0.70144 0.22564 0.53989 0.0
C1016 C 0.70865 0.1828 0.48285 0.0
C1017 C 0.70652 0.24454 0.53966 0.0
C1018 C 0.70197 0.1036 0.50582 0.0
C1019 C 0.70452 0.12293 0.5068 0.0
C1020 C 0.681 0.16757 0.53017 0.0
C1021 C 0.70137 0.21523 0.5055 0.0
C1022 C 0.69782 0.19475 0.50592 0.0
C1023 C 0.68909 0.13506 0.50782 0.0
C1024 C 0.69192 0.15565 0.50716 0.0
H1025 H 0.71449 0.24959 0.44324 0.0
H1026 H 0.70533 0.21689 0.44359 0.0
H1027 H 0.67529 0.19573 0.54755 0.0
H1028 H 0.65439 0.10246 0.50757 0.0
H1029 H 0.65884 0.13631 0.509 0.0
C1030 C 0.29802 0.21953 0.03253 0.0
C1031 C 0.28719 0.2194 0.99869 0.0
C1032 C 0.31589 0.22738 0.03249 0.0
C1033 C 0.34497 0.26088 0.97798 0.0
H1034 H 0.38547 0.23902 0.03701 0.0
C1035 C 0.41499 0.29914 0.00068 0.0
C1036 C 0.43134 0.28834 0.99916 0.0
C1037 C 0.39748 0.29054 0.00079 0.0
C1038 C 0.37435 0.24522 0.02011 0.0
H1039 H 0.28695 0.22671 0.93792 0.0
H1040 H 0.31819 0.24002 0.93772 0.0
H1041 H 0.3551 0.22368 0.03595 0.0
H1042 H 0.4422 0.26012 0.99568 0.0
H1043 H 0.41166 0.24511 0.99538 0.0
H1044 H 0.36432 0.28215 0.96132 0.0
C1045 C 0.31271 0.23451 0.96453 0.0
C1046 C 0.35688 0.23654 0.01989 0.0
C1047 C 0.29483 0.22677 0.9646 0.0
C1048 C 0.42983 0.26879 0.99746 0.0
C1049 C 0.41234 0.26019 0.99738 0.0
C1050 C 0.36244 0.26952 0.9781 0.0
C1051 C 0.32336 0.23515 0.99857 0.0
C1052 C 0.34199 0.24427 0.99879 0.0
C1053 C 0.39595 0.27096 0.99915 0.0
C1054 C 0.37735 0.26179 0.99916 0.0
H1055 H 0.29254 0.21399 0.0593 0.0
H1056 H 0.32365 0.22779 0.0593 0.0
H1057 H 0.33374 0.26736 0.96186 0.0
H1058 H 0.41575 0.31423 0.0025 0.0
H1059 H 0.38515 0.29924 0.00277 0.0
C1060 C 0.29278 0.75949 0.54563 0.0
C1061 C 0.28753 0.75094 0.51078 0.0
C1062 C 0.29867 0.77816 0.54609 0.0
C1063 C 0.29387 0.82125 0.48847 0.0
H1064 H 0.33245 0.8406 0.55603 0.0
C1065 C 0.30322 0.89995 0.50964 0.0
C1066 C 0.32149 0.90708 0.50957 0.0
C1067 C 0.30006 0.88075 0.51179 0.0
C1068 C 0.32174 0.83537 0.5368 0.0
H1069 H 0.28552 0.7549 0.44886 0.0
H1070 H 0.29607 0.78715 0.4496 0.0
H1071 H 0.32607 0.807 0.55479 0.0
H1072 H 0.35079 0.89971 0.51277 0.0
H1073 H 0.34528 0.86597 0.5161 0.0
H1074 H 0.2897 0.84938 0.46988 0.0
C1075 C 0.29512 0.77969 0.47673 0.0
C1076 C 0.31796 0.81616 0.53637 0.0
C1077 C 0.28914 0.76115 0.47629 0.0
C1078 C 0.33656 0.8946 0.51288 0.0
C1079 C 0.33339 0.8753 0.51486 0.0
C1080 C 0.29765 0.84035 0.48887 0.0
C1081 C 0.29953 0.78858 0.51169 0.0
C1082 C 0.30396 0.80889 0.51217 0.0
C1083 C 0.31509 0.86816 0.51373 0.0
C1084 C 0.31153 0.84769 0.51318 0.0
H1085 H 0.29173 0.75199 0.57269 0.0
H1086 H 0.30187 0.78461 0.57354 0.0
H1087 H 0.28281 0.8162 0.46989 0.0
H1088 H 0.29131 0.90925 0.50803 0.0
H1089 H 0.28578 0.87577 0.51183 0.0
C1090 C 0.70778 0.77633 0.96945 0.0
C1091 C 0.71576 0.78403 0.00291 0.0
C1092 C 0.69017 0.76802 0.9707 0.0
C1093 C 0.64699 0.76579 0.02878 0.0
H1094 H 0.63806 0.72087 0.9691 0.0
C1095 C 0.57313 0.73615 0.00672 0.0
C1096 C 0.57085 0.71666 0.0075 0.0
C1097 C 0.59093 0.74405 0.00676 0.0
C1098 C 0.64037 0.7333 0.98625 0.0
H1099 H 0.71141 0.78912 0.06391 0.0
H1100 H 0.6808 0.77431 0.0662 0.0
H1101 H 0.66894 0.73511 0.96887 0.0
H1102 H 0.58541 0.69013 0.00907 0.0
H1103 H 0.61662 0.70393 0.00963 0.0
H1104 H 0.61856 0.76372 0.04693 0.0
C1105 C 0.68805 0.77496 0.03886 0.0
C1106 C 0.65801 0.74161 0.98571 0.0
C1107 C 0.70564 0.78338 0.03758 0.0
C1108 C 0.58677 0.7052 0.00811 0.0
C1109 C 0.60462 0.71311 0.00837 0.0
C1110 C 0.62938 0.75743 0.02946 0.0
C1111 C 0.68014 0.76711 0.00546 0.0
C1112 C 0.6615 0.75803 0.00676 0.0
C1113 C 0.6069 0.73264 0.00777 0.0
C1114 C 0.62581 0.74116 0.00798 0.0
H1115 H 0.71513 0.77673 0.94219 0.0
H1116 H 0.68435 0.76244 0.94428 0.0
H1117 H 0.64914 0.77851 0.04506 0.0
H1118 H 0.56111 0.74533 0.00555 0.0
H1119 H 0.59217 0.75912 0.00545 0.0
loop_
_geom_bond_atom_site_label_1
_geom_bond_atom_site_label_2
_geom_bond_distance
_geom_bond_site_symmetry_2
_ccdc_geom_bond_type
Fe0 O2 1.943 . S
Fe0 O5 1.997 . S
Fe0 O6 2.002 . S
Fe0 O11 1.976 . S
Fe0 O14 1.996 . S
Fe1 O2 1.894 1_556 S
Fe1 O9 1.997 . S
Fe1 O12 1.996 . S
Fe1 O16 1.976 . S
Fe1 O19 2.002 . S
O2 Fe0 1.943 . S
O2 Fe1 1.894 1_554 S
O2 Fe3 1.918 . S
Fe3 O2 1.918 . S
Fe3 O4 2.014 . S
Fe3 O13 1.988 . S
Fe3 O17 1.984 1_554 S
Fe3 O20 1.985 1_554 S
O4 Fe3 2.014 . S
O4 C21 1.295 . S
O5 Fe0 1.997 . S
O5 C21 1.235 . S
O6 Fe0 2.002 . S
O6 C7 1.295 . S
C7 O6 1.295 . S
C7 O9 1.235 1_554 S
C8 O13 1.287 . S
C8 O14 1.255 . S
O9 Fe1 1.997 . S
O9 C7 1.235 1_556 S
C10 O16 1.287 . S
C10 O17 1.255 . S
O11 Fe0 1.976 . S
O11 C18 1.284 1_554 S
O12 Fe1 1.996 . S
O12 C18 1.257 . S
O13 Fe3 1.988 . S
O13 C8 1.287 . S
O14 Fe0 1.996 . S
O14 C8 1.255 . S
C15 O19 1.295 . S
C15 O20 1.235 . S
O16 Fe1 1.976 . S
O16 C10 1.287 . S
O17 Fe3 1.984 1_556 S
O17 C10 1.255 . S
C18 O11 1.284 1_556 S
C18 O12 1.257 . S
O19 Fe1 2.002 . S
O19 C15 1.295 . S
O20 Fe3 1.985 1_556 S
O20 C15 1.235 . S
C21 O4 1.295 . S
C21 O5 1.235 . S
Fe22 O24 1.918 . S
Fe22 O27 1.997 . S
Fe22 O28 2.002 . S
Fe22 O33 1.976 . S
Fe22 O36 1.996 . S
Fe23 O24 1.918 . S
Fe23 O31 1.997 . S
Fe23 O34 1.996 . S
Fe23 O38 1.976 . S
Fe23 O41 2.002 . S
O24 Fe22 1.918 . S
O24 Fe23 1.918 . S
O24 Fe25 1.918 . S
Fe25 O24 1.918 . S
Fe25 O26 2.002 . S
Fe25 O35 1.976 . S
Fe25 O39 1.996 . S
Fe25 O42 1.997 . S
O26 Fe25 2.002 . S
O26 C43 1.295 . S
O27 Fe22 1.997 . S
O27 C43 1.235 . S
O28 Fe22 2.002 . S
O28 C29 1.295 . S
C29 O28 1.295 . S
C29 O31 1.235 . S
C30 O35 1.287 . S
C30 O36 1.255 . S
O31 Fe23 1.997 . S
O31 C29 1.235 . S
C32 O38 1.287 . S
C32 O39 1.255 . S
O33 Fe22 1.976 . S
O33 C40 1.287 . S
O34 Fe23 1.996 . S
O34 C40 1.255 . S
O35 Fe25 1.976 . S
O35 C30 1.287 . S
O36 Fe22 1.996 . S
O36 C30 1.255 . S
C37 O41 1.295 . S
C37 O42 1.235 . S
O38 Fe23 1.976 . S
O38 C32 1.287 . S
O39 Fe25 1.996 . S
O39 C32 1.255 . S
C40 O33 1.287 . S
C40 O34 1.255 . S
O41 Fe23 2.002 . S
O41 C37 1.295 . S
O42 Fe25 1.997 . S
O42 C37 1.235 . S
C43 O26 1.295 . S
C43 O27 1.235 . S
Fe44 O46 1.901 1_556 S
Fe44 O49 1.997 . S
Fe44 O50 2.002 . S
Fe44 O55 1.976 . S
Fe44 O58 1.996 . S
Fe45 O46 1.935 . S
Fe45 O53 1.997 . S
Fe45 O56 1.996 . S
Fe45 O60 1.976 . S
Fe45 O63 2.002 . S
O46 Fe44 1.901 1_554 S
O46 Fe45 1.935 . S
O46 Fe47 1.918 . S
Fe47 O46 1.918 . S
Fe47 O48 1.981 1_554 S
Fe47 O57 1.954 1_554 S
Fe47 O61 2.018 . S
Fe47 O64 2.019 . S
O48 Fe47 1.981 1_556 S
O48 C65 1.295 . S
O49 Fe44 1.997 . S
O49 C65 1.235 . S
O50 Fe44 2.002 . S
O50 C51 1.303 . S
C51 O50 1.303 . S
C51 O53 1.227 1_556 S
C52 O57 1.287 . S
C52 O58 1.255 . S
O53 Fe45 1.997 . S
O53 C51 1.227 1_554 S
C54 O60 1.287 . S
C54 O61 1.255 . S
O55 Fe44 1.976 . S
O55 C62 1.287 1_556 S
O56 Fe45 1.996 . S
O56 C62 1.255 . S
O57 Fe47 1.954 1_556 S
O57 C52 1.287 . S
O58 Fe44 1.996 . S
O58 C52 1.255 . S
C59 O63 1.295 . S
C59 O64 1.235 . S
O60 Fe45 1.976 . S
O60 C54 1.287 . S
O61 Fe47 2.018 . S
O61 C54 1.255 . S
C62 O55 1.287 1_554 S
C62 O56 1.255 . S
O63 Fe45 2.002 . S
O63 C59 1.295 . S
O64 Fe47 2.019 . S
O64 C59 1.235 . S
C65 O48 1.295 . S
C65 O49 1.235 . S
Fe66 O68 1.918 . S
Fe66 O71 1.997 . S
Fe66 O72 2.002 . S
Fe66 O77 1.976 . S
Fe66 O80 1.996 . S
Fe67 O68 1.918 . S
Fe67 O75 1.997 . S
Fe67 O78 1.996 . S
Fe67 O82 1.976 . S
Fe67 O85 2.002 . S
O68 Fe66 1.918 . S
O68 Fe67 1.918 . S
O68 Fe69 1.918 . S
Fe69 O68 1.918 . S
Fe69 O70 2.002 . S
Fe69 O79 1.976 . S
Fe69 O83 1.996 . S
Fe69 O86 1.997 . S
O70 Fe69 2.002 . S
O70 C87 1.295 . S
O71 Fe66 1.997 . S
O71 C87 1.235 . S
O72 Fe66 2.002 . S
O72 C73 1.295 . S
C73 O72 1.295 . S
C73 O75 1.235 . S
C74 O79 1.287 . S
C74 O80 1.255 . S
O75 Fe67 1.997 . S
O75 C73 1.235 . S
C76 O82 1.287 . S
C76 O83 1.255 . S
O77 Fe66 1.976 . S
O77 C84 1.287 . S
O78 Fe67 1.996 . S
O78 C84 1.255 . S
O79 Fe69 1.976 . S
O79 C74 1.287 . S
O80 Fe66 1.996 . S
O80 C74 1.255 . S
C81 O85 1.295 . S
C81 O86 1.235 . S
O82 Fe67 1.976 . S
O82 C76 1.287 . S
O83 Fe69 1.996 . S
O83 C76 1.255 . S
C84 O77 1.287 . S
C84 O78 1.255 . S
O85 Fe67 2.002 . S
O85 C81 1.295 . S
O86 Fe69 1.997 . S
O86 C81 1.235 . S
C87 O70 1.295 . S
C87 O71 1.235 . S
C88 C89 1.386 . S
C88 C90 1.397 . S
C88 H112 0.931 . S
C89 C88 1.386 . S
C89 C93 1.397 . S
C90 C88 1.397 . S
C90 C91 1.384 . S
C90 H113 0.930 . S
C91 C90 1.384 . S
C91 C92 1.377 . S
C91 C94 1.481 . S
C92 C91 1.377 . S
C92 C93 1.389 . S
C92 H114 0.929 . S
C93 C89 1.397 . S
C93 C92 1.389 . S
C93 H115 0.931 . S
C94 C91 1.481 . S
C94 C95 1.387 . S
C94 C99 1.390 1_556 S
C95 C94 1.387 . S
C95 C96 1.401 1_556 S
C95 H116 0.930 . S
C96 C95 1.401 1_554 S
C96 C97 1.376 . S
C96 C105 1.511 . S
C97 C96 1.376 . S
C97 C98 1.392 . S
C97 H118 0.931 . S
C98 C97 1.392 . S
C98 C99 1.361 . S
C98 C100 1.500 . S
C99 C94 1.390 1_554 S
C99 C98 1.361 . S
C99 H117 0.931 . S
C100 C98 1.500 . S
C100 C101 1.371 . S
C100 C102 1.365 . S
C101 C100 1.371 . S
C101 C111 1.386 . S
C101 H119 0.931 . S
C102 C100 1.365 . S
C102 C103 1.409 . S
C102 H120 0.929 . S
C103 C102 1.409 . S
C103 C104 1.380 . S
C103 H121 0.930 . S
C104 C103 1.380 . S
C104 C111 1.357 . S
C105 C96 1.511 . S
C105 C106 1.341 1_554 S
C105 C107 1.371 . S
C106 C105 1.341 1_556 S
C106 C110 1.394 . S
C106 H122 0.930 . S
C107 C105 1.371 . S
C107 C108 1.392 . S
C107 H123 0.931 . S
C108 C107 1.392 . S
C108 C109 1.331 . S
C108 H126 0.932 . S
C109 C108 1.331 . S
C109 C110 1.336 1_554 S
C110 C106 1.394 . S
C110 C109 1.336 1_556 S
C110 H125 0.929 . S
C111 C101 1.386 . S
C111 C104 1.357 . S
C111 H124 0.928 . S
H112 C88 0.931 . S
H113 C90 0.930 . S
H114 C92 0.929 . S
H115 C93 0.931 . S
H116 C95 0.930 . S
H117 C99 0.931 . S
H118 C97 0.931 . S
H119 C101 0.931 . S
H120 C102 0.929 . S
H121 C103 0.930 . S
H122 C106 0.930 . S
H123 C107 0.931 . S
H124 C111 0.928 . S
H125 C110 0.929 . S
H126 C108 0.932 . S
C127 C128 1.386 . S
C127 C129 1.397 . S
C127 H151 0.931 . S
C128 C127 1.386 . S
C128 C132 1.397 . S
C129 C127 1.397 . S
C129 C130 1.384 . S
C129 H152 0.930 . S
C130 C129 1.384 . S
C130 C131 1.377 . S
C130 C133 1.481 . S
C131 C130 1.377 . S
C131 C132 1.389 . S
C131 H153 0.929 . S
C132 C128 1.397 . S
C132 C131 1.389 . S
C132 H154 0.931 . S
C133 C130 1.481 . S
C133 C134 1.387 . S
C133 C138 1.390 . S
C134 C133 1.387 . S
C134 C135 1.388 1_655 S
C134 H155 0.930 . S
C135 C134 1.388 1_455 S
C135 C136 1.363 1_455 S
C135 C144 1.536 . S
C136 C135 1.363 1_655 S
C136 C137 1.392 . S
C136 H157 0.931 . S
C137 C136 1.392 . S
C137 C138 1.361 . S
C137 C139 1.500 . S
C138 C133 1.390 . S
C138 C137 1.361 . S
C138 H156 0.931 . S
C139 C137 1.500 . S
C139 C140 1.371 . S
C139 C141 1.365 . S
C140 C139 1.371 . S
C140 C150 1.386 . S
C140 H158 0.931 . S
C141 C139 1.365 . S
C141 C142 1.409 . S
C141 H159 0.929 . S
C142 C141 1.409 . S
C142 C143 1.380 . S
C142 H160 0.930 . S
C143 C142 1.380 . S
C143 C150 1.357 . S
C144 C135 1.536 . S
C144 C145 1.341 . S
C144 C146 1.371 . S
C145 C144 1.341 . S
C145 C149 1.394 . S
C145 H161 0.930 . S
C146 C144 1.371 . S
C146 C147 1.392 . S
C146 H162 0.931 . S
C147 C146 1.392 . S
C147 C148 1.331 . S
C147 H165 0.932 . S
C148 C147 1.331 . S
C148 C149 1.336 . S
C149 C145 1.394 . S
C149 C148 1.336 . S
C149 H164 0.929 . S
C150 C140 1.386 . S
C150 C143 1.357 . S
C150 H163 0.928 . S
H151 C127 0.931 . S
H152 C129 0.930 . S
H153 C131 0.929 . S
H154 C132 0.931 . S
H155 C134 0.930 . S
H156 C138 0.931 . S
H157 C136 0.931 . S
H158 C140 0.931 . S
H159 C141 0.929 . S
H160 C142 0.930 . S
H161 C145 0.930 . S
H162 C146 0.931 . S
H163 C150 0.928 . S
H164 C149 0.929 . S
H165 C147 0.932 . S
C166 C167 1.386 . S
C166 C168 1.397 . S
C166 H190 0.931 . S
C167 C166 1.386 . S
C167 C171 1.397 . S
C168 C166 1.397 . S
C168 C169 1.384 . S
C168 H191 0.930 . S
C169 C168 1.384 . S
C169 C170 1.377 . S
C169 C172 1.481 . S
C170 C169 1.377 . S
C170 C171 1.389 . S
C170 H192 0.929 . S
C171 C167 1.397 . S
C171 C170 1.389 . S
C171 H193 0.931 . S
C172 C169 1.481 . S
C172 C173 1.387 . S
C172 C177 1.395 . S
C173 C172 1.387 . S
C173 C174 1.386 1_554 S
C173 H194 0.930 . S
C174 C173 1.386 1_556 S
C174 C175 1.390 . S
C174 C183 1.511 . S
C175 C174 1.390 . S
C175 C176 1.392 . S
C175 H196 0.931 . S
C176 C175 1.392 . S
C176 C177 1.357 1_556 S
C176 C178 1.500 . S
C177 C172 1.395 . S
C177 C176 1.357 1_554 S
C177 H195 0.931 . S
C178 C176 1.500 . S
C178 C179 1.371 . S
C178 C180 1.365 . S
C179 C178 1.371 . S
C179 C189 1.386 . S
C179 H197 0.931 . S
C180 C178 1.365 . S
C180 C181 1.409 . S
C180 H198 0.929 . S
C181 C180 1.409 . S
C181 C182 1.380 . S
C181 H199 0.930 . S
C182 C181 1.380 . S
C182 C189 1.357 . S
C183 C174 1.511 . S
C183 C184 1.331 1_556 S
C183 C185 1.381 . S
C184 C183 1.331 1_554 S
C184 C188 1.394 . S
C184 H200 0.930 . S
C185 C183 1.381 . S
C185 C186 1.392 . S
C185 H201 0.931 . S
C186 C185 1.392 . S
C186 C187 1.320 1_556 S
C186 H204 0.932 . S
C187 C186 1.320 1_554 S
C187 C188 1.346 . S
C188 C184 1.394 . S
C188 C187 1.346 . S
C188 H203 0.929 . S
C189 C179 1.386 . S
C189 C182 1.357 . S
C189 H202 0.928 . S
H190 C166 0.931 . S
H191 C168 0.930 . S
H192 C170 0.929 . S
H193 C171 0.931 . S
H194 C173 0.930 . S
H195 C177 0.931 . S
H196 C175 0.931 . S
H197 C179 0.931 . S
H198 C180 0.929 . S
H199 C181 0.930 . S
H200 C184 0.930 . S
H201 C185 0.931 . S
H202 C189 0.928 . S
H203 C188 0.929 . S
H204 C186 0.932 . S
C205 C206 1.386 . S
C205 C207 1.397 . S
C205 H229 0.931 . S
C206 C205 1.386 . S
C206 C210 1.397 . S
C207 C205 1.397 . S
C207 C208 1.384 . S
C207 H230 0.930 . S
C208 C207 1.384 . S
C208 C209 1.377 . S
C208 C211 1.481 . S
C209 C208 1.377 . S
C209 C210 1.389 . S
C209 H231 0.929 . S
C210 C206 1.397 . S
C210 C209 1.389 . S
C210 H232 0.931 . S
C211 C208 1.481 . S
C211 C212 1.387 . S
C211 C216 1.390 . S
C212 C211 1.387 . S
C212 C213 1.401 . S
C212 H233 0.930 . S
C213 C212 1.401 . S
C213 C214 1.376 . S
C213 C222 1.511 1_455 S
C214 C213 1.376 . S
C214 C215 1.392 . S
C214 H235 0.931 . S
C215 C214 1.392 . S
C215 C216 1.361 . S
C215 C217 1.500 . S
C216 C211 1.390 . S
C216 C215 1.361 . S
C216 H234 0.931 . S
C217 C215 1.500 . S
C217 C218 1.371 . S
C217 C219 1.365 . S
C218 C217 1.371 . S
C218 C228 1.386 . S
C218 H236 0.931 . S
C219 C217 1.365 . S
C219 C220 1.409 . S
C219 H237 0.929 . S
C220 C219 1.409 . S
C220 C221 1.380 . S
C220 H238 0.930 . S
C221 C220 1.380 . S
C221 C228 1.357 . S
C222 C213 1.511 1_655 S
C222 C223 1.341 . S
C222 C224 1.371 . S
C223 C222 1.341 . S
C223 C227 1.394 . S
C223 H239 0.930 . S
C224 C222 1.371 . S
C224 C225 1.392 . S
C224 H240 0.931 . S
C225 C224 1.392 . S
C225 C226 1.331 . S
C225 H243 0.932 . S
C226 C225 1.331 . S
C226 C227 1.336 . S
C227 C223 1.394 . S
C227 C226 1.336 . S
C227 H242 0.929 . S
C228 C218 1.386 . S
C228 C221 1.357 . S
C228 H241 0.928 . S
H229 C205 0.931 . S
H230 C207 0.930 . S
H231 C209 0.929 . S
H232 C210 0.931 . S
H233 C212 0.930 . S
H234 C216 0.931 . S
H235 C214 0.931 . S
H236 C218 0.931 . S
H237 C219 0.929 . S
H238 C220 0.930 . S
H239 C223 0.930 . S
H240 C224 0.931 . S
H241 C228 0.928 . S
H242 C227 0.929 . S
H243 C225 0.932 . S
C244 C245 1.386 . S
C244 C246 1.397 . S
C244 H268 0.931 . S
C245 C244 1.386 . S
C245 C249 1.397 . S
C246 C244 1.397 . S
C246 C247 1.384 . S
C246 H269 0.930 . S
C247 C246 1.384 . S
C247 C248 1.377 . S
C247 C250 1.481 . S
C248 C247 1.377 . S
C248 C249 1.389 . S
C248 H270 0.929 . S
C249 C245 1.397 . S
C249 C248 1.389 . S
C249 H271 0.931 . S
C250 C247 1.481 . S
C250 C251 1.387 1_565 S
C250 C255 1.390 . S
C251 C250 1.387 1_545 S
C251 C252 1.401 . S
C251 H272 0.930 . S
C252 C251 1.401 . S
C252 C253 1.376 . S
C252 C261 1.511 . S
C253 C252 1.376 . S
C253 C254 1.392 1_545 S
C253 H274 0.931 . S
C254 C253 1.392 1_565 S
C254 C255 1.361 . S
C254 C256 1.500 . S
C255 C250 1.390 . S
C255 C254 1.361 . S
C255 H273 0.931 . S
C256 C254 1.500 . S
C256 C257 1.371 . S
C256 C258 1.365 . S
C257 C256 1.371 . S
C257 C267 1.386 . S
C257 H275 0.931 . S
C258 C256 1.365 . S
C258 C259 1.409 . S
C258 H276 0.929 . S
C259 C258 1.409 . S
C259 C260 1.380 . S
C259 H277 0.930 . S
C260 C259 1.380 . S
C260 C267 1.357 . S
C261 C252 1.511 . S
C261 C262 1.341 . S
C261 C263 1.371 . S
C262 C261 1.341 . S
C262 C266 1.394 . S
C262 H278 0.930 . S
C263 C261 1.371 . S
C263 C264 1.392 . S
C263 H279 0.931 . S
C264 C263 1.392 . S
C264 C265 1.331 . S
C264 H282 0.932 . S
C265 C264 1.331 . S
C265 C266 1.336 . S
C266 C262 1.394 . S
C266 C265 1.336 . S
C266 H281 0.929 . S
C267 C257 1.386 . S
C267 C260 1.357 . S
C267 H280 0.928 . S
H268 C244 0.931 . S
H269 C246 0.930 . S
H270 C248 0.929 . S
H271 C249 0.931 . S
H272 C251 0.930 . S
H273 C255 0.931 . S
H274 C253 0.931 . S
H275 C257 0.931 . S
H276 C258 0.929 . S
H277 C259 0.930 . S
H278 C262 0.930 . S
H279 C263 0.931 . S
H280 C267 0.928 . S
H281 C266 0.929 . S
H282 C264 0.932 . S
C283 C284 1.386 . S
C283 C285 1.397 . S
C283 H307 0.931 . S
C284 C283 1.386 . S
C284 C288 1.397 . S
C285 C283 1.397 . S
C285 C286 1.384 . S
C285 H308 0.930 . S
C286 C285 1.384 . S
C286 C287 1.377 . S
C286 C289 1.481 . S
C287 C286 1.377 . S
C287 C288 1.389 . S
C287 H309 0.929 . S
C288 C284 1.397 . S
C288 C287 1.389 . S
C288 H310 0.931 . S
C289 C286 1.481 . S
C289 C290 1.387 . S
C289 C294 1.384 1_554 S
C290 C289 1.387 . S
C290 C291 1.401 1_554 S
C290 H311 0.930 . S
C291 C290 1.401 1_556 S
C291 C292 1.376 . S
C291 C300 1.511 . S
C292 C291 1.376 . S
C292 C293 1.392 . S
C292 H313 0.931 . S
C293 C292 1.392 . S
C293 C294 1.367 . S
C293 C295 1.500 . S
C294 C289 1.384 1_556 S
C294 C293 1.367 . S
C294 H312 0.931 . S
C295 C293 1.500 . S
C295 C296 1.371 . S
C295 C297 1.365 . S
C296 C295 1.371 . S
C296 C306 1.386 . S
C296 H314 0.931 . S
C297 C295 1.365 . S
C297 C298 1.409 . S
C297 H315 0.929 . S
C298 C297 1.409 . S
C298 C299 1.380 . S
C298 H316 0.930 . S
C299 C298 1.380 . S
C299 C306 1.357 . S
C300 C291 1.511 . S
C300 C301 1.317 1_556 S
C300 C302 1.394 . S
C301 C300 1.317 1_554 S
C301 C305 1.394 . S
C301 H317 0.930 . S
C302 C300 1.394 . S
C302 C303 1.392 . S
C302 H318 0.931 . S
C303 C302 1.392 . S
C303 C304 1.329 . S
C303 H321 0.932 . S
C304 C303 1.329 . S
C304 C305 1.338 1_556 S
C305 C301 1.394 . S
C305 C304 1.338 1_554 S
C305 H320 0.929 . S
C306 C296 1.386 . S
C306 C299 1.357 . S
C306 H319 0.928 . S
H307 C283 0.931 . S
H308 C285 0.930 . S
H309 C287 0.929 . S
H310 C288 0.931 . S
H311 C290 0.930 . S
H312 C294 0.931 . S
H313 C292 0.931 . S
H314 C296 0.931 . S
H315 C297 0.929 . S
H316 C298 0.930 . S
H317 C301 0.930 . S
H318 C302 0.931 . S
H319 C306 0.928 . S
H320 C305 0.929 . S
H321 C303 0.932 . S
C322 C323 1.386 . S
C322 C324 1.397 . S
C322 H346 0.931 . S
C323 C322 1.386 . S
C323 C327 1.397 . S
C324 C322 1.397 . S
C324 C325 1.384 . S
C324 H347 0.930 . S
C325 C324 1.384 . S
C325 C326 1.377 . S
C325 C328 1.481 . S
C326 C325 1.377 . S
C326 C327 1.389 . S
C326 H348 0.929 . S
C327 C323 1.397 . S
C327 C326 1.389 . S
C327 H349 0.931 . S
C328 C325 1.481 . S
C328 C329 1.387 . S
C328 C333 1.390 . S
C329 C328 1.387 . S
C329 C330 1.401 1_545 S
C329 H350 0.930 1_545 S
C330 C329 1.401 1_565 S
C330 C331 1.376 1_565 S
C330 C339 1.511 . S
C331 C330 1.376 1_545 S
C331 C332 1.392 . S
C331 H352 0.931 1_545 S
C332 C331 1.392 . S
C332 C333 1.361 . S
C332 C334 1.500 . S
C333 C328 1.390 . S
C333 C332 1.361 . S
C333 H351 0.931 . S
C334 C332 1.500 . S
C334 C335 1.371 . S
C334 C336 1.365 . S
C335 C334 1.371 . S
C335 C345 1.386 . S
C335 H353 0.931 . S
C336 C334 1.365 . S
C336 C337 1.409 . S
C336 H354 0.929 . S
C337 C336 1.409 . S
C337 C338 1.380 . S
C337 H355 0.930 . S
C338 C337 1.380 . S
C338 C345 1.357 . S
C339 C330 1.511 . S
C339 C340 1.341 . S
C339 C341 1.371 . S
C340 C339 1.341 . S
C340 C344 1.394 . S
C340 H356 0.930 . S
C341 C339 1.371 . S
C341 C342 1.392 . S
C341 H357 0.931 . S
C342 C341 1.392 . S
C342 C343 1.331 . S
C342 H360 0.932 . S
C343 C342 1.331 . S
C343 C344 1.336 . S
C344 C340 1.394 . S
C344 C343 1.336 . S
C344 H359 0.929 . S
C345 C335 1.386 . S
C345 C338 1.357 . S
C345 H358 0.928 . S
H346 C322 0.931 . S
H347 C324 0.930 . S
H348 C326 0.929 . S
H349 C327 0.931 . S
H350 C329 0.930 1_565 S
H351 C333 0.931 . S
H352 C331 0.931 1_565 S
H353 C335 0.931 . S
H354 C336 0.929 . S
H355 C337 0.930 . S
H356 C340 0.930 . S
H357 C341 0.931 . S
H358 C345 0.928 . S
H359 C344 0.929 . S
H360 C342 0.932 . S
C361 C362 1.386 . S
C361 C363 1.397 . S
C361 H385 0.931 . S
C362 C361 1.386 . S
C362 C366 1.397 . S
C363 C361 1.397 . S
C363 C364 1.384 . S
C363 H386 0.930 . S
C364 C363 1.384 . S
C364 C365 1.377 . S
C364 C367 1.481 . S
C365 C364 1.377 . S
C365 C366 1.389 . S
C365 H387 0.929 . S
C366 C362 1.397 . S
C366 C365 1.389 . S
C366 H388 0.931 . S
C367 C364 1.481 . S
C367 C368 1.387 . S
C367 C372 1.390 1_556 S
C368 C367 1.387 . S
C368 C369 1.401 1_556 S
C368 H389 0.930 . S
C369 C368 1.401 1_554 S
C369 C370 1.376 . S
C369 C378 1.511 . S
C370 C369 1.376 . S
C370 C371 1.392 . S
C370 H391 0.931 . S
C371 C370 1.392 . S
C371 C372 1.361 . S
C371 C373 1.500 . S
C372 C367 1.390 1_554 S
C372 C371 1.361 . S
C372 H390 0.931 . S
C373 C371 1.500 . S
C373 C374 1.371 . S
C373 C375 1.365 . S
C374 C373 1.371 . S
C374 C384 1.386 . S
C374 H392 0.931 . S
C375 C373 1.365 . S
C375 C376 1.409 . S
C375 H393 0.929 . S
C376 C375 1.409 . S
C376 C377 1.380 . S
C376 H394 0.930 . S
C377 C376 1.380 . S
C377 C384 1.357 . S
C378 C369 1.511 . S
C378 C379 1.341 1_554 S
C378 C380 1.371 . S
C379 C378 1.341 1_556 S
C379 C383 1.394 . S
C379 H395 0.930 . S
C380 C378 1.371 . S
C380 C381 1.392 . S
C380 H396 0.931 . S
C381 C380 1.392 . S
C381 C382 1.331 . S
C381 H399 0.932 . S
C382 C381 1.331 . S
C382 C383 1.336 1_554 S
C383 C379 1.394 . S
C383 C382 1.336 1_556 S
C383 H398 0.929 . S
C384 C374 1.386 . S
C384 C377 1.357 . S
C384 H397 0.928 . S
H385 C361 0.931 . S
H386 C363 0.930 . S
H387 C365 0.929 . S
H388 C366 0.931 . S
H389 C368 0.930 . S
H390 C372 0.931 . S
H391 C370 0.931 . S
H392 C374 0.931 . S
H393 C375 0.929 . S
H394 C376 0.930 . S
H395 C379 0.930 . S
H396 C380 0.931 . S
H397 C384 0.928 . S
H398 C383 0.929 . S
H399 C381 0.932 . S
C400 C401 1.349 . S
C400 C402 1.327 . S
C400 H425 0.950 . S
C401 C400 1.349 . S
C401 C417 1.349 . S
C402 C400 1.327 . S
C402 C421 1.429 . S
C402 H426 0.950 . S
C403 C420 1.574 . S
C403 C422 1.368 . S
C403 H427 0.949 . S
H404 C408 0.949 . S
C405 C406 1.349 . S
C405 C407 1.327 . S
C405 H428 0.950 . S
C406 C405 1.349 . S
C406 C418 1.349 . S
C407 C405 1.327 . S
C407 C423 1.429 . S
C407 H429 0.950 . S
C408 H404 0.949 . S
C408 C416 1.574 . S
C408 C424 1.368 . S
H409 C417 0.950 . S
H410 C415 0.950 . S
H411 C416 0.949 . S
H412 C418 0.950 . S
H413 C419 0.950 . S
H414 C420 0.949 . S
C415 H410 0.950 . S
C415 C417 1.327 . S
C415 C421 1.429 . S
C416 C408 1.574 . S
C416 H411 0.949 . S
C416 C422 1.368 . S
C417 C401 1.349 . S
C417 H409 0.950 . S
C417 C415 1.327 . S
C418 C406 1.349 . S
C418 H412 0.950 . S
C418 C419 1.327 . S
C419 H413 0.950 . S
C419 C418 1.327 . S
C419 C423 1.429 . S
C420 C403 1.574 . S
C420 H414 0.949 . S
C420 C424 1.368 . S
C421 C402 1.429 . S
C421 C415 1.429 . S
C421 C422 1.523 . S
C422 C403 1.368 . S
C422 C416 1.368 . S
C422 C421 1.523 . S
C423 C407 1.429 . S
C423 C419 1.429 . S
C423 C424 1.523 . S
C424 C408 1.368 . S
C424 C420 1.368 . S
C424 C423 1.523 . S
H425 C400 0.950 . S
H426 C402 0.950 . S
H427 C403 0.949 . S
H428 C405 0.950 . S
H429 C407 0.950 . S
C430 C431 1.349 . S
C430 C432 1.327 . S
C430 H455 0.950 . S
C431 C430 1.349 . S
C431 C447 1.349 . S
C432 C430 1.327 . S
C432 C451 1.429 . S
C432 H456 0.950 . S
C433 C450 1.574 . S
C433 C452 1.368 . S
C433 H457 0.949 . S
H434 C438 0.949 . S
C435 C436 1.349 . S
C435 C437 1.327 . S
C435 H458 0.950 . S
C436 C435 1.349 . S
C436 C448 1.349 . S
C437 C435 1.327 . S
C437 C453 1.429 . S
C437 H459 0.950 . S
C438 H434 0.949 . S
C438 C446 1.574 . S
C438 C454 1.368 . S
H439 C447 0.950 . S
H440 C445 0.950 . S
H441 C446 0.949 . S
H442 C448 0.950 . S
H443 C449 0.950 . S
H444 C450 0.949 . S
C445 H440 0.950 . S
C445 C447 1.327 . S
C445 C451 1.429 . S
C446 C438 1.574 . S
C446 H441 0.949 . S
C446 C452 1.368 . S
C447 C431 1.349 . S
C447 H439 0.950 . S
C447 C445 1.327 . S
C448 C436 1.349 . S
C448 H442 0.950 . S
C448 C449 1.327 . S
C449 H443 0.950 . S
C449 C448 1.327 . S
C449 C453 1.429 . S
C450 C433 1.574 . S
C450 H444 0.949 . S
C450 C454 1.368 . S
C451 C432 1.429 . S
C451 C445 1.429 . S
C451 C452 1.523 . S
C452 C433 1.368 . S
C452 C446 1.368 . S
C452 C451 1.523 . S
C453 C437 1.429 . S
C453 C449 1.429 . S
C453 C454 1.523 . S
C454 C438 1.368 . S
C454 C450 1.368 . S
C454 C453 1.523 . S
H455 C430 0.950 . S
H456 C432 0.950 . S
H457 C433 0.949 . S
H458 C435 0.950 . S
H459 C437 0.950 . S
C460 C461 1.349 . S
C460 C462 1.327 . S
C460 H485 0.950 . S
C461 C460 1.349 . S
C461 C477 1.349 . S
C462 C460 1.327 . S
C462 C481 1.429 . S
C462 H486 0.950 . S
C463 C480 1.574 . S
C463 C482 1.368 . S
C463 H487 0.949 . S
H464 C468 0.949 . S
C465 C466 1.349 . S
C465 C467 1.327 . S
C465 H488 0.950 . S
C466 C465 1.349 . S
C466 C478 1.349 . S
C467 C465 1.327 . S
C467 C483 1.429 . S
C467 H489 0.950 . S
C468 H464 0.949 . S
C468 C476 1.574 . S
C468 C484 1.368 . S
H469 C477 0.950 . S
H470 C475 0.950 . S
H471 C476 0.949 . S
H472 C478 0.950 . S
H473 C479 0.950 . S
H474 C480 0.949 . S
C475 H470 0.950 . S
C475 C477 1.327 . S
C475 C481 1.429 . S
C476 C468 1.574 . S
C476 H471 0.949 . S
C476 C482 1.368 . S
C477 C461 1.349 . S
C477 H469 0.950 . S
C477 C475 1.327 . S
C478 C466 1.349 . S
C478 H472 0.950 . S
C478 C479 1.327 . S
C479 H473 0.950 . S
C479 C478 1.327 . S
C479 C483 1.429 . S
C480 C463 1.574 . S
C480 H474 0.949 . S
C480 C484 1.368 . S
C481 C462 1.429 . S
C481 C475 1.429 . S
C481 C482 1.523 . S
C482 C463 1.368 . S
C482 C476 1.368 . S
C482 C481 1.523 . S
C483 C467 1.429 . S
C483 C479 1.429 . S
C483 C484 1.523 . S
C484 C468 1.368 . S
C484 C480 1.368 . S
C484 C483 1.523 . S
H485 C460 0.950 . S
H486 C462 0.950 . S
H487 C463 0.949 . S
H488 C465 0.950 . S
H489 C467 0.950 . S
C490 C491 1.349 . S
C490 C492 1.327 . S
C490 H515 0.950 . S
C491 C490 1.349 . S
C491 C507 1.349 . S
C492 C490 1.327 . S
C492 C511 1.429 . S
C492 H516 0.950 . S
C493 C510 1.574 . S
C493 C512 1.368 . S
C493 H517 0.949 . S
H494 C498 0.949 . S
C495 C496 1.349 . S
C495 C497 1.327 . S
C495 H518 0.950 . S
C496 C495 1.349 . S
C496 C508 1.349 . S
C497 C495 1.327 . S
C497 C513 1.429 . S
C497 H519 0.950 . S
C498 H494 0.949 . S
C498 C506 1.574 . S
C498 C514 1.368 . S
H499 C507 0.950 . S
H500 C505 0.950 . S
H501 C506 0.949 . S
H502 C508 0.950 . S
H503 C509 0.950 . S
H504 C510 0.949 . S
C505 H500 0.950 . S
C505 C507 1.327 . S
C505 C511 1.429 . S
C506 C498 1.574 . S
C506 H501 0.949 . S
C506 C512 1.368 . S
C507 C491 1.349 . S
C507 H499 0.950 . S
C507 C505 1.327 . S
C508 C496 1.349 . S
C508 H502 0.950 . S
C508 C509 1.327 . S
C509 H503 0.950 . S
C509 C508 1.327 . S
C509 C513 1.429 . S
C510 C493 1.574 . S
C510 H504 0.949 . S
C510 C514 1.368 . S
C511 C492 1.429 . S
C511 C505 1.429 . S
C511 C512 1.523 . S
C512 C493 1.368 . S
C512 C506 1.368 . S
C512 C511 1.523 . S
C513 C497 1.429 . S
C513 C509 1.429 . S
C513 C514 1.523 . S
C514 C498 1.368 . S
C514 C510 1.368 . S
C514 C513 1.523 . S
H515 C490 0.950 . S
H516 C492 0.950 . S
H517 C493 0.949 . S
H518 C495 0.950 . S
H519 C497 0.950 . S
C520 C521 1.349 . S
C520 C522 1.327 . S
C520 H545 0.950 . S
C521 C520 1.349 . S
C521 C537 1.349 . S
C522 C520 1.327 . S
C522 C541 1.429 . S
C522 H546 0.950 . S
C523 C540 1.574 . S
C523 C542 1.368 . S
C523 H547 0.949 . S
H524 C528 0.949 . S
C525 C526 1.349 . S
C525 C527 1.327 . S
C525 H548 0.950 . S
C526 C525 1.349 . S
C526 C538 1.349 . S
C527 C525 1.327 . S
C527 C543 1.429 . S
C527 H549 0.950 . S
C528 H524 0.949 . S
C528 C536 1.574 . S
C528 C544 1.368 . S
H529 C537 0.950 . S
H530 C535 0.950 . S
H531 C536 0.949 . S
H532 C538 0.950 . S
H533 C539 0.950 . S
H534 C540 0.949 . S
C535 H530 0.950 . S
C535 C537 1.327 . S
C535 C541 1.429 . S
C536 C528 1.574 . S
C536 H531 0.949 . S
C536 C542 1.368 . S
C537 C521 1.349 . S
C537 H529 0.950 . S
C537 C535 1.327 . S
C538 C526 1.349 . S
C538 H532 0.950 . S
C538 C539 1.327 . S
C539 H533 0.950 . S
C539 C538 1.327 . S
C539 C543 1.429 . S
C540 C523 1.574 . S
C540 H534 0.949 . S
C540 C544 1.368 . S
C541 C522 1.429 . S
C541 C535 1.429 . S
C541 C542 1.523 . S
C542 C523 1.368 . S
C542 C536 1.368 . S
C542 C541 1.523 . S
C543 C527 1.429 . S
C543 C539 1.429 . S
C543 C544 1.523 . S
C544 C528 1.368 . S
C544 C540 1.368 . S
C544 C543 1.523 . S
H545 C520 0.950 . S
H546 C522 0.950 . S
H547 C523 0.949 . S
H548 C525 0.950 . S
H549 C527 0.950 . S
C550 C551 1.349 . S
C550 C552 1.327 . S
C550 H575 0.950 . S
C551 C550 1.349 . S
C551 C567 1.349 . S
C552 C550 1.327 . S
C552 C571 1.429 . S
C552 H576 0.950 . S
C553 C570 1.574 . S
C553 C572 1.368 . S
C553 H577 0.949 . S
H554 C558 0.949 . S
C555 C556 1.349 . S
C555 C557 1.327 . S
C555 H578 0.950 . S
C556 C555 1.349 . S
C556 C568 1.349 . S
C557 C555 1.327 . S
C557 C573 1.429 . S
C557 H579 0.950 . S
C558 H554 0.949 . S
C558 C566 1.574 . S
C558 C574 1.368 . S
H559 C567 0.950 . S
H560 C565 0.950 . S
H561 C566 0.949 . S
H562 C568 0.950 . S
H563 C569 0.950 . S
H564 C570 0.949 . S
C565 H560 0.950 . S
C565 C567 1.327 . S
C565 C571 1.429 . S
C566 C558 1.574 . S
C566 H561 0.949 . S
C566 C572 1.368 . S
C567 C551 1.349 . S
C567 H559 0.950 . S
C567 C565 1.327 . S
C568 C556 1.349 . S
C568 H562 0.950 . S
C568 C569 1.327 . S
C569 H563 0.950 . S
C569 C568 1.327 . S
C569 C573 1.429 . S
C570 C553 1.574 . S
C570 H564 0.949 . S
C570 C574 1.368 . S
C571 C552 1.429 . S
C571 C565 1.429 . S
C571 C572 1.523 . S
C572 C553 1.368 . S
C572 C566 1.368 . S
C572 C571 1.523 . S
C573 C557 1.429 . S
C573 C569 1.429 . S
C573 C574 1.523 . S
C574 C558 1.368 . S
C574 C570 1.368 . S
C574 C573 1.523 . S
H575 C550 0.950 . S
H576 C552 0.950 . S
H577 C553 0.949 . S
H578 C555 0.950 . S
H579 C557 0.950 . S
C580 C581 1.349 . S
C580 C582 1.327 . S
C580 H605 0.950 . S
C581 C580 1.349 . S
C581 C597 1.349 . S
C582 C580 1.327 . S
C582 C601 1.429 . S
C582 H606 0.950 . S
C583 C600 1.574 . S
C583 C602 1.368 . S
C583 H607 0.949 . S
H584 C588 0.949 . S
C585 C586 1.349 . S
C585 C587 1.327 . S
C585 H608 0.950 . S
C586 C585 1.349 . S
C586 C598 1.349 . S
C587 C585 1.327 . S
C587 C603 1.429 . S
C587 H609 0.950 . S
C588 H584 0.949 . S
C588 C596 1.574 . S
C588 C604 1.368 . S
H589 C597 0.950 . S
H590 C595 0.950 . S
H591 C596 0.949 . S
H592 C598 0.950 . S
H593 C599 0.950 . S
H594 C600 0.949 . S
C595 H590 0.950 . S
C595 C597 1.327 . S
C595 C601 1.429 . S
C596 C588 1.574 . S
C596 H591 0.949 . S
C596 C602 1.368 . S
C597 C581 1.349 . S
C597 H589 0.950 . S
C597 C595 1.327 . S
C598 C586 1.349 . S
C598 H592 0.950 . S
C598 C599 1.327 . S
C599 H593 0.950 . S
C599 C598 1.327 . S
C599 C603 1.429 . S
C600 C583 1.574 . S
C600 H594 0.949 . S
C600 C604 1.368 . S
C601 C582 1.429 . S
C601 C595 1.429 . S
C601 C602 1.523 . S
C602 C583 1.368 . S
C602 C596 1.368 . S
C602 C601 1.523 . S
C603 C587 1.429 . S
C603 C599 1.429 . S
C603 C604 1.523 . S
C604 C588 1.368 . S
C604 C600 1.368 . S
C604 C603 1.523 . S
H605 C580 0.950 . S
H606 C582 0.950 . S
H607 C583 0.949 . S
H608 C585 0.950 . S
H609 C587 0.950 . S
C610 C611 1.349 . S
C610 C612 1.327 . S
C610 H635 0.950 . S
C611 C610 1.349 . S
C611 C627 1.349 . S
C612 C610 1.327 . S
C612 C631 1.429 . S
C612 H636 0.950 . S
C613 C630 1.574 . S
C613 C632 1.368 . S
C613 H637 0.949 . S
H614 C618 0.949 . S
C615 C616 1.349 . S
C615 C617 1.327 . S
C615 H638 0.950 . S
C616 C615 1.349 . S
C616 C628 1.349 . S
C617 C615 1.327 . S
C617 C633 1.429 . S
C617 H639 0.950 . S
C618 H614 0.949 . S
C618 C626 1.574 . S
C618 C634 1.368 . S
H619 C627 0.950 . S
H620 C625 0.950 . S
H621 C626 0.949 . S
H622 C628 0.950 . S
H623 C629 0.950 . S
H624 C630 0.949 . S
C625 H620 0.950 . S
C625 C627 1.327 . S
C625 C631 1.429 . S
C626 C618 1.574 . S
C626 H621 0.949 . S
C626 C632 1.368 . S
C627 C611 1.349 . S
C627 H619 0.950 . S
C627 C625 1.327 . S
C628 C616 1.349 . S
C628 H622 0.950 . S
C628 C629 1.327 . S
C629 H623 0.950 . S
C629 C628 1.327 . S
C629 C633 1.429 . S
C630 C613 1.574 . S
C630 H624 0.949 . S
C630 C634 1.368 . S
C631 C612 1.429 . S
C631 C625 1.429 . S
C631 C632 1.523 . S
C632 C613 1.368 . S
C632 C626 1.368 . S
C632 C631 1.523 . S
C633 C617 1.429 . S
C633 C629 1.429 . S
C633 C634 1.523 . S
C634 C618 1.368 . S
C634 C630 1.368 . S
C634 C633 1.523 . S
H635 C610 0.950 . S
H636 C612 0.950 . S
H637 C613 0.949 . S
H638 C615 0.950 . S
H639 C617 0.950 . S
C640 C641 1.349 . S
C640 C642 1.327 . S
C640 H665 0.950 . S
C641 C640 1.349 . S
C641 C657 1.349 . S
C642 C640 1.327 . S
C642 C661 1.429 . S
C642 H666 0.950 . S
C643 C660 1.574 . S
C643 C662 1.368 . S
C643 H667 0.949 . S
H644 C648 0.949 . S
C645 C646 1.349 . S
C645 C647 1.327 . S
C645 H668 0.950 . S
C646 C645 1.349 . S
C646 C658 1.349 . S
C647 C645 1.327 . S
C647 C663 1.429 . S
C647 H669 0.950 . S
C648 H644 0.949 . S
C648 C656 1.574 . S
C648 C664 1.368 . S
H649 C657 0.950 . S
H650 C655 0.950 . S
H651 C656 0.949 . S
H652 C658 0.950 . S
H653 C659 0.950 . S
H654 C660 0.949 . S
C655 H650 0.950 . S
C655 C657 1.327 . S
C655 C661 1.429 . S
C656 C648 1.574 . S
C656 H651 0.949 . S
C656 C662 1.368 . S
C657 C641 1.349 . S
C657 H649 0.950 . S
C657 C655 1.327 . S
C658 C646 1.349 . S
C658 H652 0.950 . S
C658 C659 1.327 . S
C659 H653 0.950 . S
C659 C658 1.327 . S
C659 C663 1.429 . S
C660 C643 1.574 . S
C660 H654 0.949 . S
C660 C664 1.368 . S
C661 C642 1.429 . S
C661 C655 1.429 . S
C661 C662 1.523 . S
C662 C643 1.368 . S
C662 C656 1.368 . S
C662 C661 1.523 . S
C663 C647 1.429 . S
C663 C659 1.429 . S
C663 C664 1.523 . S
C664 C648 1.368 . S
C664 C660 1.368 . S
C664 C663 1.523 . S
H665 C640 0.950 . S
H666 C642 0.950 . S
H667 C643 0.949 . S
H668 C645 0.950 . S
H669 C647 0.950 . S
C670 C671 1.349 . S
C670 C672 1.327 . S
C670 H695 0.950 . S
C671 C670 1.349 . S
C671 C687 1.349 . S
C672 C670 1.327 . S
C672 C691 1.429 . S
C672 H696 0.950 . S
C673 C690 1.574 . S
C673 C692 1.368 . S
C673 H697 0.949 . S
H674 C678 0.949 . S
C675 C676 1.349 . S
C675 C677 1.327 . S
C675 H698 0.950 . S
C676 C675 1.349 . S
C676 C688 1.349 . S
C677 C675 1.327 . S
C677 C693 1.429 . S
C677 H699 0.950 . S
C678 H674 0.949 . S
C678 C686 1.574 . S
C678 C694 1.368 . S
H679 C687 0.950 . S
H680 C685 0.950 . S
H681 C686 0.949 . S
H682 C688 0.950 . S
H683 C689 0.950 . S
H684 C690 0.949 . S
C685 H680 0.950 . S
C685 C687 1.327 . S
C685 C691 1.429 . S
C686 C678 1.574 . S
C686 H681 0.949 . S
C686 C692 1.368 . S
C687 C671 1.349 . S
C687 H679 0.950 . S
C687 C685 1.327 . S
C688 C676 1.349 . S
C688 H682 0.950 . S
C688 C689 1.327 . S
C689 H683 0.950 . S
C689 C688 1.327 . S
C689 C693 1.429 . S
C690 C673 1.574 . S
C690 H684 0.949 . S
C690 C694 1.368 . S
C691 C672 1.429 . S
C691 C685 1.429 . S
C691 C692 1.523 . S
C692 C673 1.368 . S
C692 C686 1.368 . S
C692 C691 1.523 . S
C693 C677 1.429 . S
C693 C689 1.429 . S
C693 C694 1.523 . S
C694 C678 1.368 . S
C694 C690 1.368 . S
C694 C693 1.523 . S
H695 C670 0.950 . S
H696 C672 0.950 . S
H697 C673 0.949 . S
H698 C675 0.950 . S
H699 C677 0.950 . S
C700 C701 1.349 . S
C700 C702 1.327 . S
C700 H725 0.950 . S
C701 C700 1.349 . S
C701 C717 1.349 . S
C702 C700 1.327 . S
C702 C721 1.429 . S
C702 H726 0.950 . S
C703 C720 1.574 . S
C703 C722 1.368 . S
C703 H727 0.949 . S
H704 C708 0.949 . S
C705 C706 1.349 . S
C705 C707 1.327 . S
C705 H728 0.950 . S
C706 C705 1.349 . S
C706 C718 1.349 . S
C707 C705 1.327 . S
C707 C723 1.429 . S
C707 H729 0.950 . S
C708 H704 0.949 . S
C708 C716 1.574 . S
C708 C724 1.368 . S
H709 C717 0.950 . S
H710 C715 0.950 . S
H711 C716 0.949 . S
H712 C718 0.950 . S
H713 C719 0.950 . S
H714 C720 0.949 . S
C715 H710 0.950 . S
C715 C717 1.327 . S
C715 C721 1.429 . S
C716 C708 1.574 . S
C716 H711 0.949 . S
C716 C722 1.368 . S
C717 C701 1.349 . S
C717 H709 0.950 . S
C717 C715 1.327 . S
C718 C706 1.349 . S
C718 H712 0.950 . S
C718 C719 1.327 . S
C719 H713 0.950 . S
C719 C718 1.327 . S
C719 C723 1.429 . S
C720 C703 1.574 . S
C720 H714 0.949 . S
C720 C724 1.368 . S
C721 C702 1.429 . S
C721 C715 1.429 . S
C721 C722 1.523 . S
C722 C703 1.368 . S
C722 C716 1.368 . S
C722 C721 1.523 . S
C723 C707 1.429 . S
C723 C719 1.429 . S
C723 C724 1.523 . S
C724 C708 1.368 . S
C724 C720 1.368 . S
C724 C723 1.523 . S
H725 C700 0.950 . S
H726 C702 0.950 . S
H727 C703 0.949 . S
H728 C705 0.950 . S
H729 C707 0.950 . S
C730 C731 1.349 . S
C730 C732 1.327 . S
C730 H755 0.950 . S
C731 C730 1.349 . S
C731 C747 1.349 . S
C732 C730 1.327 . S
C732 C751 1.429 . S
C732 H756 0.950 . S
C733 C750 1.574 . S
C733 C752 1.368 . S
C733 H757 0.949 . S
H734 C738 0.949 . S
C735 C736 1.349 . S
C735 C737 1.327 . S
C735 H758 0.950 . S
C736 C735 1.349 . S
C736 C748 1.349 . S
C737 C735 1.327 . S
C737 C753 1.429 . S
C737 H759 0.950 . S
C738 H734 0.949 . S
C738 C746 1.574 . S
C738 C754 1.368 . S
H739 C747 0.950 . S
H740 C745 0.950 . S
H741 C746 0.949 . S
H742 C748 0.950 . S
H743 C749 0.950 . S
H744 C750 0.949 . S
C745 H740 0.950 . S
C745 C747 1.327 . S
C745 C751 1.429 . S
C746 C738 1.574 . S
C746 H741 0.949 . S
C746 C752 1.368 . S
C747 C731 1.349 . S
C747 H739 0.950 . S
C747 C745 1.327 . S
C748 C736 1.349 . S
C748 H742 0.950 . S
C748 C749 1.327 . S
C749 H743 0.950 . S
C749 C748 1.327 . S
C749 C753 1.429 . S
C750 C733 1.574 . S
C750 H744 0.949 . S
C750 C754 1.368 . S
C751 C732 1.429 . S
C751 C745 1.429 . S
C751 C752 1.523 . S
C752 C733 1.368 . S
C752 C746 1.368 . S
C752 C751 1.523 . S
C753 C737 1.429 . S
C753 C749 1.429 . S
C753 C754 1.523 . S
C754 C738 1.368 . S
C754 C750 1.368 . S
C754 C753 1.523 . S
H755 C730 0.950 . S
H756 C732 0.950 . S
H757 C733 0.949 . S
H758 C735 0.950 . S
H759 C737 0.950 . S
C760 C761 1.349 . S
C760 C762 1.327 . S
C760 H785 0.950 . S
C761 C760 1.349 . S
C761 C777 1.349 . S
C762 C760 1.327 . S
C762 C781 1.429 . S
C762 H786 0.950 . S
C763 C780 1.574 . S
C763 C782 1.368 . S
C763 H787 0.949 . S
H764 C768 0.949 . S
C765 C766 1.349 . S
C765 C767 1.327 . S
C765 H788 0.950 . S
C766 C765 1.349 . S
C766 C778 1.349 . S
C767 C765 1.327 . S
C767 C783 1.429 . S
C767 H789 0.950 . S
C768 H764 0.949 . S
C768 C776 1.574 . S
C768 C784 1.368 . S
H769 C777 0.950 . S
H770 C775 0.950 . S
H771 C776 0.949 . S
H772 C778 0.950 . S
H773 C779 0.950 . S
H774 C780 0.949 . S
C775 H770 0.950 . S
C775 C777 1.327 . S
C775 C781 1.429 . S
C776 C768 1.574 . S
C776 H771 0.949 . S
C776 C782 1.368 . S
C777 C761 1.349 . S
C777 H769 0.950 . S
C777 C775 1.327 . S
C778 C766 1.349 . S
C778 H772 0.950 . S
C778 C779 1.327 . S
C779 H773 0.950 . S
C779 C778 1.327 . S
C779 C783 1.429 . S
C780 C763 1.574 . S
C780 H774 0.949 . S
C780 C784 1.368 . S
C781 C762 1.429 . S
C781 C775 1.429 . S
C781 C782 1.523 . S
C782 C763 1.368 . S
C782 C776 1.368 . S
C782 C781 1.523 . S
C783 C767 1.429 . S
C783 C779 1.429 . S
C783 C784 1.523 . S
C784 C768 1.368 . S
C784 C780 1.368 . S
C784 C783 1.523 . S
H785 C760 0.950 . S
H786 C762 0.950 . S
H787 C763 0.949 . S
H788 C765 0.950 . S
H789 C767 0.950 . S
C790 C791 1.349 . S
C790 C792 1.327 . S
C790 H815 0.950 . S
C791 C790 1.349 . S
C791 C807 1.349 . S
C792 C790 1.327 . S
C792 C811 1.429 . S
C792 H816 0.950 . S
C793 C810 1.574 . S
C793 C812 1.368 . S
C793 H817 0.949 . S
H794 C798 0.949 . S
C795 C796 1.349 . S
C795 C797 1.327 . S
C795 H818 0.950 . S
C796 C795 1.349 . S
C796 C808 1.349 . S
C797 C795 1.327 . S
C797 C813 1.429 . S
C797 H819 0.950 . S
C798 H794 0.949 . S
C798 C806 1.574 . S
C798 C814 1.368 . S
H799 C807 0.950 . S
H800 C805 0.950 . S
H801 C806 0.949 . S
H802 C808 0.950 . S
H803 C809 0.950 . S
H804 C810 0.949 . S
C805 H800 0.950 . S
C805 C807 1.327 . S
C805 C811 1.429 . S
C806 C798 1.574 . S
C806 H801 0.949 . S
C806 C812 1.368 . S
C807 C791 1.349 . S
C807 H799 0.950 . S
C807 C805 1.327 . S
C808 C796 1.349 . S
C808 H802 0.950 . S
C808 C809 1.327 . S
C809 H803 0.950 . S
C809 C808 1.327 . S
C809 C813 1.429 . S
C810 C793 1.574 . S
C810 H804 0.949 . S
C810 C814 1.368 . S
C811 C792 1.429 . S
C811 C805 1.429 . S
C811 C812 1.523 . S
C812 C793 1.368 . S
C812 C806 1.368 . S
C812 C811 1.523 . S
C813 C797 1.429 . S
C813 C809 1.429 . S
C813 C814 1.523 . S
C814 C798 1.368 . S
C814 C810 1.368 . S
C814 C813 1.523 . S
H815 C790 0.950 . S
H816 C792 0.950 . S
H817 C793 0.949 . S
H818 C795 0.950 . S
H819 C797 0.950 . S
C820 C821 1.349 . S
C820 C822 1.327 . S
C820 H845 0.950 . S
C821 C820 1.349 . S
C821 C837 1.349 . S
C822 C820 1.327 . S
C822 C841 1.429 . S
C822 H846 0.950 . S
C823 C840 1.574 . S
C823 C842 1.368 . S
C823 H847 0.949 . S
H824 C828 0.949 . S
C825 C826 1.349 . S
C825 C827 1.327 . S
C825 H848 0.950 . S
C826 C825 1.349 . S
C826 C838 1.349 . S
C827 C825 1.327 . S
C827 C843 1.429 . S
C827 H849 0.950 . S
C828 H824 0.949 . S
C828 C836 1.574 . S
C828 C844 1.368 . S
H829 C837 0.950 . S
H830 C835 0.950 . S
H831 C836 0.949 . S
H832 C838 0.950 . S
H833 C839 0.950 . S
H834 C840 0.949 . S
C835 H830 0.950 . S
C835 C837 1.327 . S
C835 C841 1.429 . S
C836 C828 1.574 . S
C836 H831 0.949 . S
C836 C842 1.368 . S
C837 C821 1.349 . S
C837 H829 0.950 . S
C837 C835 1.327 . S
C838 C826 1.349 . S
C838 H832 0.950 . S
C838 C839 1.327 . S
C839 H833 0.950 . S
C839 C838 1.327 . S
C839 C843 1.429 . S
C840 C823 1.574 . S
C840 H834 0.949 . S
C840 C844 1.368 . S
C841 C822 1.429 . S
C841 C835 1.429 . S
C841 C842 1.523 . S
C842 C823 1.368 . S
C842 C836 1.368 . S
C842 C841 1.523 . S
C843 C827 1.429 . S
C843 C839 1.429 . S
C843 C844 1.523 . S
C844 C828 1.368 . S
C844 C840 1.368 . S
C844 C843 1.523 . S
H845 C820 0.950 . S
H846 C822 0.950 . S
H847 C823 0.949 . S
H848 C825 0.950 . S
H849 C827 0.950 . S
C850 C851 1.349 . S
C850 C852 1.327 . S
C850 H875 0.950 . S
C851 C850 1.349 . S
C851 C867 1.349 . S
C852 C850 1.327 . S
C852 C871 1.429 . S
C852 H876 0.950 . S
C853 C870 1.574 . S
C853 C872 1.368 . S
C853 H877 0.949 . S
H854 C858 0.949 . S
C855 C856 1.349 . S
C855 C857 1.327 . S
C855 H878 0.950 . S
C856 C855 1.349 . S
C856 C868 1.349 . S
C857 C855 1.327 . S
C857 C873 1.429 . S
C857 H879 0.950 . S
C858 H854 0.949 . S
C858 C866 1.574 . S
C858 C874 1.368 . S
H859 C867 0.950 . S
H860 C865 0.950 . S
H861 C866 0.949 . S
H862 C868 0.950 . S
H863 C869 0.950 . S
H864 C870 0.949 . S
C865 H860 0.950 . S
C865 C867 1.327 . S
C865 C871 1.429 . S
C866 C858 1.574 . S
C866 H861 0.949 . S
C866 C872 1.368 . S
C867 C851 1.349 . S
C867 H859 0.950 . S
C867 C865 1.327 . S
C868 C856 1.349 . S
C868 H862 0.950 . S
C868 C869 1.327 . S
C869 H863 0.950 . S
C869 C868 1.327 . S
C869 C873 1.429 . S
C870 C853 1.574 . S
C870 H864 0.949 . S
C870 C874 1.368 . S
C871 C852 1.429 . S
C871 C865 1.429 . S
C871 C872 1.523 . S
C872 C853 1.368 . S
C872 C866 1.368 . S
C872 C871 1.523 . S
C873 C857 1.429 . S
C873 C869 1.429 . S
C873 C874 1.523 . S
C874 C858 1.368 . S
C874 C870 1.368 . S
C874 C873 1.523 . S
H875 C850 0.950 . S
H876 C852 0.950 . S
H877 C853 0.949 . S
H878 C855 0.950 . S
H879 C857 0.950 . S
C880 C881 1.349 1_556 S
C880 C882 1.327 . S
C880 H905 0.950 . S
C881 C880 1.349 1_554 S
C881 C897 1.349 . S
C882 C880 1.327 . S
C882 C901 1.408 1_556 S
C882 H906 0.950 . S
C883 C900 1.574 . S
C883 C902 1.389 . S
C883 H907 0.949 . S
H884 C888 0.949 . S
C885 C886 1.359 . S
C885 C887 1.327 . S
C885 H908 0.950 . S
C886 C885 1.359 . S
C886 C898 1.339 1_554 S
C887 C885 1.327 . S
C887 C903 1.442 . S
C887 H909 0.950 . S
C888 H884 0.949 . S
C888 C896 1.574 . S
C888 C904 1.352 1_556 S
H889 C897 0.950 . S
H890 C895 0.950 . S
H891 C896 0.949 . S
H892 C898 0.950 . S
H893 C899 0.950 . S
H894 C900 0.949 . S
C895 H890 0.950 . S
C895 C897 1.327 . S
C895 C901 1.449 . S
C896 C888 1.574 . S
C896 H891 0.949 . S
C896 C902 1.348 1_556 S
C897 C881 1.349 . S
C897 H889 0.950 . S
C897 C895 1.327 . S
C898 C886 1.339 1_556 S
C898 H892 0.950 . S
C898 C899 1.327 . S
C899 H893 0.950 . S
C899 C898 1.327 . S
C899 C903 1.415 1_556 S
C900 C883 1.574 . S
C900 H894 0.949 . S
C900 C904 1.385 . S
C901 C882 1.408 1_554 S
C901 C895 1.449 . S
C901 C902 1.523 . S
C902 C883 1.389 . S
C902 C896 1.348 1_554 S
C902 C901 1.523 . S
C903 C887 1.442 . S
C903 C899 1.415 1_554 S
C903 C904 1.523 . S
C904 C888 1.352 1_554 S
C904 C900 1.385 . S
C904 C903 1.523 . S
H905 C880 0.950 . S
H906 C882 0.950 . S
H907 C883 0.949 . S
H908 C885 0.950 . S
H909 C887 0.950 . S
C910 C911 1.349 . S
C910 C912 1.327 . S
C910 H935 0.950 . S
C911 C910 1.349 . S
C911 C927 1.349 . S
C912 C910 1.327 . S
C912 C931 1.429 . S
C912 H936 0.950 . S
C913 C930 1.574 . S
C913 C932 1.368 . S
C913 H937 0.949 . S
H914 C918 0.949 . S
C915 C916 1.349 . S
C915 C917 1.327 . S
C915 H938 0.950 . S
C916 C915 1.349 . S
C916 C928 1.349 . S
C917 C915 1.327 . S
C917 C933 1.429 . S
C917 H939 0.950 . S
C918 H914 0.949 . S
C918 C926 1.574 . S
C918 C934 1.368 . S
H919 C927 0.950 . S
H920 C925 0.950 . S
H921 C926 0.949 . S
H922 C928 0.950 . S
H923 C929 0.950 . S
H924 C930 0.949 . S
C925 H920 0.950 . S
C925 C927 1.327 . S
C925 C931 1.429 . S
C926 C918 1.574 . S
C926 H921 0.949 . S
C926 C932 1.368 . S
C927 C911 1.349 . S
C927 H919 0.950 . S
C927 C925 1.327 . S
C928 C916 1.349 . S
C928 H922 0.950 . S
C928 C929 1.327 . S
C929 H923 0.950 . S
C929 C928 1.327 . S
C929 C933 1.429 . S
C930 C913 1.574 . S
C930 H924 0.949 . S
C930 C934 1.368 . S
C931 C912 1.429 . S
C931 C925 1.429 . S
C931 C932 1.523 . S
C932 C913 1.368 . S
C932 C926 1.368 . S
C932 C931 1.523 . S
C933 C917 1.429 . S
C933 C929 1.429 . S
C933 C934 1.523 . S
C934 C918 1.368 . S
C934 C930 1.368 . S
C934 C933 1.523 . S
H935 C910 0.950 . S
H936 C912 0.950 . S
H937 C913 0.949 . S
H938 C915 0.950 . S
H939 C917 0.950 . S
C940 C941 1.349 1_556 S
C940 C942 1.327 . S
C940 H965 0.950 . S
C941 C940 1.349 1_554 S
C941 C957 1.349 . S
C942 C940 1.327 . S
C942 C961 1.429 1_556 S
C942 H966 0.950 . S
C943 C960 1.574 . S
C943 C962 1.368 . S
C943 H967 0.949 . S
H944 C948 0.949 . S
C945 C946 1.349 . S
C945 C947 1.327 . S
C945 H968 0.950 . S
C946 C945 1.349 . S
C946 C958 1.349 1_554 S
C947 C945 1.327 . S
C947 C963 1.429 . S
C947 H969 0.950 . S
C948 H944 0.949 . S
C948 C956 1.574 . S
C948 C964 1.368 1_556 S
H949 C957 0.950 . S
H950 C955 0.950 . S
H951 C956 0.949 . S
H952 C958 0.950 . S
H953 C959 0.950 . S
H954 C960 0.949 . S
C955 H950 0.950 . S
C955 C957 1.327 . S
C955 C961 1.429 . S
C956 C948 1.574 . S
C956 H951 0.949 . S
C956 C962 1.368 1_556 S
C957 C941 1.349 . S
C957 H949 0.950 . S
C957 C955 1.327 . S
C958 C946 1.349 1_556 S
C958 H952 0.950 . S
C958 C959 1.327 . S
C959 H953 0.950 . S
C959 C958 1.327 . S
C959 C963 1.429 1_556 S
C960 C943 1.574 . S
C960 H954 0.949 . S
C960 C964 1.368 . S
C961 C942 1.429 1_554 S
C961 C955 1.429 . S
C961 C962 1.523 . S
C962 C943 1.368 . S
C962 C956 1.368 1_554 S
C962 C961 1.523 . S
C963 C947 1.429 . S
C963 C959 1.429 1_554 S
C963 C964 1.523 . S
C964 C948 1.368 1_554 S
C964 C960 1.368 . S
C964 C963 1.523 . S
H965 C940 0.950 . S
H966 C942 0.950 . S
H967 C943 0.949 . S
H968 C945 0.950 . S
H969 C947 0.950 . S
C970 C971 1.349 . S
C970 C972 1.327 . S
C970 H995 0.950 . S
C971 C970 1.349 . S
C971 C987 1.349 . S
C972 C970 1.327 . S
C972 C991 1.429 . S
C972 H996 0.950 . S
C973 C990 1.574 . S
C973 C992 1.368 . S
C973 H997 0.949 . S
H974 C978 0.949 . S
C975 C976 1.349 . S
C975 C977 1.327 . S
C975 H998 0.950 . S
C976 C975 1.349 . S
C976 C988 1.349 . S
C977 C975 1.327 . S
C977 C993 1.429 . S
C977 H999 0.950 . S
C978 H974 0.949 . S
C978 C986 1.574 . S
C978 C994 1.368 . S
H979 C987 0.950 . S
H980 C985 0.950 . S
H981 C986 0.949 . S
H982 C988 0.950 . S
H983 C989 0.950 . S
H984 C990 0.949 . S
C985 H980 0.950 . S
C985 C987 1.327 . S
C985 C991 1.429 . S
C986 C978 1.574 . S
C986 H981 0.949 . S
C986 C992 1.368 . S
C987 C971 1.349 . S
C987 H979 0.950 . S
C987 C985 1.327 . S
C988 C976 1.349 . S
C988 H982 0.950 . S
C988 C989 1.327 . S
C989 H983 0.950 . S
C989 C988 1.327 . S
C989 C993 1.429 . S
C990 C973 1.574 . S
C990 H984 0.949 . S
C990 C994 1.368 . S
C991 C972 1.429 . S
C991 C985 1.429 . S
C991 C992 1.523 . S
C992 C973 1.368 . S
C992 C986 1.368 . S
C992 C991 1.523 . S
C993 C977 1.429 . S
C993 C989 1.429 . S
C993 C994 1.523 . S
C994 C978 1.368 . S
C994 C990 1.368 . S
C994 C993 1.523 . S
H995 C970 0.950 . S
H996 C972 0.950 . S
H997 C973 0.949 . S
H998 C975 0.950 . S
H999 C977 0.950 . S
C1000 C1001 1.349 . S
C1000 C1002 1.327 . S
C1000 H1025 0.950 . S
C1001 C1000 1.349 . S
C1001 C1017 1.349 . S
C1002 C1000 1.327 . S
C1002 C1021 1.429 . S
C1002 H1026 0.950 . S
C1003 C1020 1.574 . S
C1003 C1022 1.368 . S
C1003 H1027 0.949 . S
H1004 C1008 0.949 . S
C1005 C1006 1.349 . S
C1005 C1007 1.327 . S
C1005 H1028 0.950 . S
C1006 C1005 1.349 . S
C1006 C1018 1.349 . S
C1007 C1005 1.327 . S
C1007 C1023 1.429 . S
C1007 H1029 0.950 . S
C1008 H1004 0.949 . S
C1008 C1016 1.574 . S
C1008 C1024 1.368 . S
H1009 C1017 0.950 . S
H1010 C1015 0.950 . S
H1011 C1016 0.949 . S
H1012 C1018 0.950 . S
H1013 C1019 0.950 . S
H1014 C1020 0.949 . S
C1015 H1010 0.950 . S
C1015 C1017 1.327 . S
C1015 C1021 1.429 . S
C1016 C1008 1.574 . S
C1016 H1011 0.949 . S
C1016 C1022 1.368 . S
C1017 C1001 1.349 . S
C1017 H1009 0.950 . S
C1017 C1015 1.327 . S
C1018 C1006 1.349 . S
C1018 H1012 0.950 . S
C1018 C1019 1.327 . S
C1019 H1013 0.950 . S
C1019 C1018 1.327 . S
C1019 C1023 1.429 . S
C1020 C1003 1.574 . S
C1020 H1014 0.949 . S
C1020 C1024 1.368 . S
C1021 C1002 1.429 . S
C1021 C1015 1.429 . S
C1021 C1022 1.523 . S
C1022 C1003 1.368 . S
C1022 C1016 1.368 . S
C1022 C1021 1.523 . S
C1023 C1007 1.429 . S
C1023 C1019 1.429 . S
C1023 C1024 1.523 . S
C1024 C1008 1.368 . S
C1024 C1020 1.368 . S
C1024 C1023 1.523 . S
H1025 C1000 0.950 . S
H1026 C1002 0.950 . S
H1027 C1003 0.949 . S
H1028 C1005 0.950 . S
H1029 C1007 0.950 . S
C1030 C1031 1.360 . S
C1030 C1032 1.327 . S
C1030 H1055 0.950 . S
C1031 C1030 1.360 . S
C1031 C1047 1.338 1_554 S
C1032 C1030 1.327 . S
C1032 C1051 1.440 . S
C1032 H1056 0.950 . S
C1033 C1050 1.574 . S
C1033 C1052 1.356 1_556 S
C1033 H1057 0.949 . S
H1034 C1038 0.949 . S
C1035 C1036 1.336 1_556 S
C1035 C1037 1.327 . S
C1035 H1058 0.950 . S
C1036 C1035 1.336 1_554 S
C1036 C1048 1.362 . S
C1037 C1035 1.327 . S
C1037 C1053 1.417 1_556 S
C1037 H1059 0.950 . S
C1038 H1034 0.949 . S
C1038 C1046 1.574 . S
C1038 C1054 1.381 . S
H1039 C1047 0.950 . S
H1040 C1045 0.950 . S
H1041 C1046 0.949 . S
H1042 C1048 0.950 . S
H1043 C1049 0.950 . S
H1044 C1050 0.949 . S
C1045 H1040 0.950 . S
C1045 C1047 1.327 . S
C1045 C1051 1.418 1_556 S
C1046 C1038 1.574 . S
C1046 H1041 0.949 . S
C1046 C1052 1.381 . S
C1047 C1031 1.338 1_556 S
C1047 H1039 0.950 . S
C1047 C1045 1.327 . S
C1048 C1036 1.362 . S
C1048 H1042 0.950 . S
C1048 C1049 1.327 . S
C1049 H1043 0.950 . S
C1049 C1048 1.327 . S
C1049 C1053 1.440 . S
C1050 C1033 1.574 . S
C1050 H1044 0.949 . S
C1050 C1054 1.356 1_556 S
C1051 C1032 1.440 . S
C1051 C1045 1.418 1_554 S
C1051 C1052 1.523 . S
C1052 C1033 1.356 1_554 S
C1052 C1046 1.381 . S
C1052 C1051 1.523 . S
C1053 C1037 1.417 1_554 S
C1053 C1049 1.440 . S
C1053 C1054 1.523 . S
C1054 C1038 1.381 . S
C1054 C1050 1.356 1_554 S
C1054 C1053 1.523 . S
H1055 C1030 0.950 . S
H1056 C1032 0.950 . S
H1057 C1033 0.949 . S
H1058 C1035 0.950 . S
H1059 C1037 0.950 . S
C1060 C1061 1.349 . S
C1060 C1062 1.327 . S
C1060 H1085 0.950 . S
C1061 C1060 1.349 . S
C1061 C1077 1.349 . S
C1062 C1060 1.327 . S
C1062 C1081 1.429 . S
C1062 H1086 0.950 . S
C1063 C1080 1.574 . S
C1063 C1082 1.368 . S
C1063 H1087 0.949 . S
H1064 C1068 0.949 . S
C1065 C1066 1.349 . S
C1065 C1067 1.327 . S
C1065 H1088 0.950 . S
C1066 C1065 1.349 . S
C1066 C1078 1.349 . S
C1067 C1065 1.327 . S
C1067 C1083 1.429 . S
C1067 H1089 0.950 . S
C1068 H1064 0.949 . S
C1068 C1076 1.574 . S
C1068 C1084 1.368 . S
H1069 C1077 0.950 . S
H1070 C1075 0.950 . S
H1071 C1076 0.949 . S
H1072 C1078 0.950 . S
H1073 C1079 0.950 . S
H1074 C1080 0.949 . S
C1075 H1070 0.950 . S
C1075 C1077 1.327 . S
C1075 C1081 1.429 . S
C1076 C1068 1.574 . S
C1076 H1071 0.949 . S
C1076 C1082 1.368 . S
C1077 C1061 1.349 . S
C1077 H1069 0.950 . S
C1077 C1075 1.327 . S
C1078 C1066 1.349 . S
C1078 H1072 0.950 . S
C1078 C1079 1.327 . S
C1079 H1073 0.950 . S
C1079 C1078 1.327 . S
C1079 C1083 1.429 . S
C1080 C1063 1.574 . S
C1080 H1074 0.949 . S
C1080 C1084 1.368 . S
C1081 C1062 1.429 . S
C1081 C1075 1.429 . S
C1081 C1082 1.523 . S
C1082 C1063 1.368 . S
C1082 C1076 1.368 . S
C1082 C1081 1.523 . S
C1083 C1067 1.429 . S
C1083 C1079 1.429 . S
C1083 C1084 1.523 . S
C1084 C1068 1.368 . S
C1084 C1080 1.368 . S
C1084 C1083 1.523 . S
H1085 C1060 0.950 . S
H1086 C1062 0.950 . S
H1087 C1063 0.949 . S
H1088 C1065 0.950 . S
H1089 C1067 0.950 . S
C1090 C1091 1.344 1_556 S
C1090 C1092 1.327 . S
C1090 H1115 0.950 . S
C1091 C1090 1.344 1_554 S
C1091 C1107 1.354 . S
C1092 C1090 1.327 . S
C1092 C1111 1.420 1_556 S
C1092 H1116 0.950 . S
C1093 C1110 1.574 . S
C1093 C1112 1.379 . S
C1093 H1117 0.949 . S
H1094 C1098 0.949 . S
C1095 C1096 1.368 . S
C1095 C1097 1.327 . S
C1095 H1118 0.950 . S
C1096 C1095 1.368 . S
C1096 C1108 1.330 1_554 S
C1097 C1095 1.327 . S
C1097 C1113 1.443 . S
C1097 H1119 0.950 . S
C1098 H1094 0.949 . S
C1098 C1106 1.574 . S
C1098 C1114 1.354 1_556 S
H1099 C1107 0.950 . S
H1100 C1105 0.950 . S
H1101 C1106 0.949 . S
H1102 C1108 0.950 . S
H1103 C1109 0.950 . S
H1104 C1110 0.949 . S
C1105 H1100 0.950 . S
C1105 C1107 1.327 . S
C1105 C1111 1.437 . S
C1106 C1098 1.574 . S
C1106 H1101 0.949 . S
C1106 C1112 1.357 1_556 S
C1107 C1091 1.354 . S
C1107 H1099 0.950 . S
C1107 C1105 1.327 . S
C1108 C1096 1.330 1_556 S
C1108 H1102 0.950 . S
C1108 C1109 1.327 . S
C1109 H1103 0.950 . S
C1109 C1108 1.327 . S
C1109 C1113 1.414 1_556 S
C1110 C1093 1.574 . S
C1110 H1104 0.949 . S
C1110 C1114 1.383 . S
C1111 C1092 1.420 1_554 S
C1111 C1105 1.437 . S
C1111 C1112 1.523 . S
C1112 C1093 1.379 . S
C1112 C1106 1.357 1_554 S
C1112 C1111 1.523 . S
C1113 C1097 1.443 . S
C1113 C1109 1.414 1_554 S
C1113 C1114 1.523 . S
C1114 C1098 1.354 1_554 S
C1114 C1110 1.383 . S
C1114 C1113 1.523 . S
H1115 C1090 0.950 . S
H1116 C1092 0.950 . S
H1117 C1093 0.949 . S
H1118 C1095 0.950 . S
H1119 C1097 0.950 . S
C401 C21 1.593 . S
C406 C221 1.586 . S
C431 C40 1.702 . S
C436 C89 1.662 . S
C466 C128 1.534 . S
C461 C54 1.557 . S
C491 C73 1.744 . S
C496 C182 1.708 . S
C526 C284 1.534 . S
C521 C74 1.558 . S
C556 C338 1.658 . S
C551 C10 1.701 . S
C586 C377 1.586 . S
C581 C37 1.593 . S
C616 C245 1.711 . S
C611 C65 1.745 . S
C641 C52 1.558 . S
C646 C143 1.536 . S
C671 C87 1.742 . S
C676 C167 1.703 . S
C701 C15 1.596 . S
C706 C206 1.592 . S
C736 C104 1.652 . S
C731 C32 1.696 . S
C761 C29 1.596 . S
C766 C362 1.593 . S
C796 C260 1.703 . S
C791 C59 1.741 . S
C826 C299 1.536 . S
C821 C84 1.557 . S
C851 C8 1.697 . S
C856 C323 1.653 . S
C886 C109 1.811 . S
C881 C7 1.843 . S
C916 C148 1.657 . S
C911 C30 1.679 . S
C941 C62 1.864 . S
C946 C187 1.813 . S
C971 C81 1.666 . S
C976 C226 1.673 . S
C1006 C265 1.828 . S
C1001 C76 1.864 . S
C1031 C18 1.678 1_554 S
C1036 C304 1.657 1_554 S
C1061 C43 1.843 . S
C1066 C343 1.795 . S
C1091 C51 1.665 1_554 S
C1096 C382 1.674 . S
