# Generated by pormake.
# Topology tsx, (6,3)-cn, num edge types: 1
# Building blocks:
#     Node 0, Type 0, BuildingBlock: MIDCAF_clean_sbu_0, # of connection points: 6
#     Node 1, Type 0, BuildingBlock: MIDCAF_clean_sbu_0, # of connection points: 6
#     Node 2, Type 1, BuildingBlock: ESEHIV_clean_linker_0, # of connection points: 3
#     Node 3, Type 1, BuildingBlock: ESEHIV_clean_linker_0, # of connection points: 3
#     Node 4, Type 1, BuildingBlock: ESEHIV_clean_linker_0, # of connection points: 3
#     Node 5, Type 1, BuildingBlock: ESEHIV_clean_linker_0, # of connection points: 3
#     Edge 6, Type (0, 1), BuildingBlock: EZIPEK_clean_linker_0, # of connection points: 2
#     Edge 7, Type (0, 1), BuildingBlock: EZIPEK_clean_linker_0, # of connection points: 2
#     Edge 8, Type (0, 1), BuildingBlock: EZIPEK_clean_linker_0, # of connection points: 2
#     Edge 9, Type (0, 1), BuildingBlock: EZIPEK_clean_linker_0, # of connection points: 2
#     Edge 10, Type (0, 1), BuildingBlock: EZIPEK_clean_linker_0, # of connection points: 2
#     Edge 11, Type (0, 1), BuildingBlock: EZIPEK_clean_linker_0, # of connection points: 2
#     Edge 12, Type (0, 1), BuildingBlock: EZIPEK_clean_linker_0, # of connection points: 2
#     Edge 13, Type (0, 1), BuildingBlock: EZIPEK_clean_linker_0, # of connection points: 2
#     Edge 14, Type (0, 1), BuildingBlock: EZIPEK_clean_linker_0, # of connection points: 2
#     Edge 15, Type (0, 1), BuildingBlock: EZIPEK_clean_linker_0, # of connection points: 2
#     Edge 16, Type (0, 1), BuildingBlock: EZIPEK_clean_linker_0, # of connection points: 2
#     Edge 17, Type (0, 1), BuildingBlock: EZIPEK_clean_linker_0, # of connection points: 2
# Relax obj value: 0.118
# Max RMSD: 0.182
# Mean RMSD: 0.113
data_MOF--net-tsx--node1-MIDCAF_clean_sbu_0--node2-ESEHIV_clean_linker_0--edge1-EZIPEK_clean_linker_0
_symmetry_space_group_name_H-M    P1
_symmetry_Int_Tables_number       1
_symmetry_cell_setting            triclinic
loop_
_symmetry_equiv_pos_as_xyz
'x, y, z'
_cell_length_a     12.791884
_cell_length_b     13.396532
_cell_length_c     26.283701
_cell_angle_alpha  90.597625
_cell_angle_beta   99.42599
_cell_angle_gamma 90.112939
loop_
_atom_site_label
_atom_site_type_symbol
_atom_site_fract_x
_atom_site_fract_y
_atom_site_fract_z
_atom_type_partial_charge
Zn0 Zn 0.88296 0.97725 0.9138 0.0
Zn1 Zn 0.20621 0.98912 0.07325 0.0
Zn2 Zn 0.04217 1.00015 -0.00622 0.0
C3 C 0.15641 0.19334 0.04718 0.0
C4 C 0.26571 0.88144 -0.00652 0.0
O5 O 0.91131 0.91122 0.01551 0.0
O6 O 0.79352 0.88191 0.94516 0.0
C7 C 0.91687 0.18423 0.94128 0.0
O8 O 0.08029 0.15548 0.01474 0.0
O9 O 0.22332 0.13784 0.07408 0.0
O10 O 0.30083 0.90052 0.04025 0.0
O11 O 0.17557 0.9156 0.97167 0.0
O12 O 0.85393 0.12393 0.91438 0.0
O13 O 0.99559 0.15233 0.9736 0.0
O14 O 0.10691 0.9429 0.92647 0.0
O15 O 0.97073 0.93268 0.86282 0.0
C16 C 0.06922 0.92785 0.8785 0.0
O17 O 0.98243 0.93691 0.06032 0.0
O18 O 0.12107 0.93438 0.12286 0.0
C19 C 0.82502 0.86983 -0.00729 0.0
C20 C 0.02306 0.92165 0.1077 0.0
Zn21 Zn 0.71385 0.48796 0.57129 0.0
Zn22 Zn 0.38865 0.48711 0.41179 0.0
Zn23 Zn 0.55362 0.50309 0.49103 0.0
C24 C 0.57373 0.42244 0.37714 0.0
C25 C 0.43609 0.69279 0.43829 0.0
O26 O 0.49022 0.4451 0.55774 0.0
O27 O 0.62642 0.44059 0.62149 0.0
C28 C 0.77362 0.3781 0.49229 0.0
O29 O 0.6144 0.43893 0.42458 0.0
O30 O 0.4755 0.43323 0.36217 0.0
O31 O 0.36939 0.63553 0.41154 0.0
O32 O 0.5132 0.65705 0.47033 0.0
O33 O 0.80561 0.39462 0.5396 0.0
O34 O 0.68581 0.41528 0.4694 0.0
O35 O 0.59805 0.6573 0.51126 0.0
O36 O 0.73908 0.63533 0.5713 0.0
C37 C 0.67537 0.69276 0.54382 0.0
O38 O 0.42033 0.41765 0.51286 0.0
O39 O 0.29479 0.39794 0.44452 0.0
C40 C 0.52829 0.43138 0.60557 0.0
C41 C 0.33034 0.38145 0.49131 0.0
H42 H 0.89078 0.10323 0.31779 0.0
H43 H 0.16348 0.92121 0.30852 0.0
H44 H 0.15341 0.1045 0.44294 0.0
C45 C 0.96956 0.07806 0.33414 0.0
C46 C 0.01725 0.11326 0.38288 0.0
C47 C 0.02416 0.01265 0.3059 0.0
C48 C 0.12324 0.9758 0.32908 0.0
C49 C 0.16914 0.00581 0.37917 0.0
C50 C 0.11838 0.07952 0.40462 0.0
H51 H 0.94522 0.92913 0.6769 0.0
H52 H 0.21519 0.11834 0.67191 0.0
H53 H 0.96346 0.10186 0.54161 0.0
C54 C 0.98613 0.98334 0.65682 0.0
C55 C 0.94349 0.00907 0.60603 0.0
C56 C 0.0829 0.02396 0.6814 0.0
C57 C 0.13843 0.08954 0.65411 0.0
C58 C 0.09437 0.11938 0.60417 0.0
C59 C 0.99576 0.081 0.58072 0.0
H60 H 0.38162 0.61298 0.81447 0.0
H61 H 0.6493 0.42261 0.80771 0.0
H62 H 0.63106 0.59364 0.9454 0.0
C63 C 0.45769 0.58344 0.83215 0.0
C64 C 0.50161 0.61283 0.88248 0.0
C65 C 0.51283 0.51811 0.80412 0.0
C66 C 0.60868 0.47666 0.82842 0.0
C67 C 0.65068 0.50135 0.87973 0.0
C68 C 0.5991 0.57336 0.90588 0.0
H69 H 0.43247 0.42176 0.17676 0.0
H70 H 0.70804 0.6006 0.16797 0.0
H71 H 0.44427 0.60201 0.04333 0.0
C72 C 0.47339 0.47544 0.15639 0.0
C73 C 0.42741 0.50497 0.1066 0.0
C74 C 0.57327 0.51171 0.17953 0.0
C75 C 0.62878 0.57583 0.15156 0.0
C76 C 0.58133 0.61048 0.10309 0.0
C77 C 0.47932 0.57742 0.08141 0.0
C78 C 0.17103 0.35907 0.09191 0.0
C79 C 0.18011 0.301 0.04769 0.0
C80 C 0.33431 0.39496 0.03391 0.0
C81 C 0.33099 0.45096 0.07996 0.0
N82 N 0.22456 0.50994 0.14169 0.0
N83 N 0.23657 0.2936 0.9653 0.0
C84 C 0.24108 0.44155 0.10504 0.0
C85 C 0.2484 0.33178 0.01423 0.0
N86 N 0.09942 0.33182 0.1224 0.0
N87 N 0.42389 0.39077 0.01235 0.0
H88 H 0.17524 0.24434 0.95118 0.0
H89 H 0.28011 0.31912 0.93776 0.0
H90 H 0.49387 0.42753 0.02738 0.0
H91 H 0.43142 0.34038 0.98276 0.0
H92 H 0.09622 0.36427 0.1583 0.0
H93 H 0.04538 0.27371 0.11176 0.0
H94 H 0.15687 0.51059 0.15898 0.0
H95 H 0.27449 0.57151 0.15098 0.0
C96 C 0.30186 0.70997 0.96331 0.0
C97 C 0.32543 0.8135 0.96454 0.0
C98 C 0.46894 0.78494 0.91485 0.0
C99 C 0.44214 0.68191 0.91151 0.0
N100 N 0.3262 0.54681 0.92641 0.0
N101 N 0.42018 0.95314 0.93719 0.0
C102 C 0.35644 0.64456 0.93394 0.0
C103 C 0.40598 0.8521 0.93911 0.0
N104 N 0.22967 0.67387 -0.00831 0.0
N105 N 0.55518 0.81811 0.8952 0.0
H106 H 0.37779 0.00398 0.95612 0.0
H107 H 0.46918 0.98749 0.91464 0.0
H108 H 0.60072 0.77179 0.87545 0.0
H109 H 0.58557 0.89018 0.90072 0.0
H110 H 0.21771 0.59824 -0.00255 0.0
H111 H 0.18598 0.71973 0.01266 0.0
H112 H 0.25596 0.51825 0.93556 0.0
H113 H 0.36825 0.49469 0.90811 0.0
C114 C 0.67114 0.84193 0.03865 0.0
C115 C 0.76366 0.80473 0.0219 0.0
C116 C 0.73065 0.63861 0.05394 0.0
C117 C 0.64205 0.67724 0.07383 0.0
N118 N 0.53591 0.81749 0.09226 0.0
N119 N 0.89096 0.67317 0.01892 0.0
C120 C 0.61407 0.77945 0.06797 0.0
C121 C 0.7965 0.70468 0.03134 0.0
N122 N 0.63772 0.93685 0.02623 0.0
N123 N 0.74925 0.53806 0.05491 0.0
H124 H 0.93941 0.71837 0.0005 0.0
H125 H 0.92551 0.60486 0.03005 0.0
H126 H 0.70084 0.48681 0.06967 0.0
H127 H 0.80742 0.50396 0.03747 0.0
H128 H 0.56521 0.96524 0.03251 0.0
H129 H 0.68002 0.9861 0.00668 0.0
H130 H 0.51939 0.89329 0.09437 0.0
H131 H 0.49218 0.77395 0.11393 0.0
C132 C 0.90372 0.35096 0.89897 0.0
C133 C 0.88658 0.29005 0.94048 0.0
C134 C 0.72701 0.38048 0.94901 0.0
C135 C 0.7412 0.44201 0.90691 0.0
N136 N 0.86075 0.5058 0.85296 0.0
N137 N 0.81048 0.27362 0.01747 0.0
C138 C 0.83642 0.43454 0.88589 0.0
C139 C 0.80942 0.31623 0.97044 0.0
N140 N 0.97993 0.32546 0.87052 0.0
N141 N 0.63106 0.37325 0.96463 0.0
H142 H 0.87024 0.22463 0.03319 0.0
H143 H 0.75926 0.29547 0.04255 0.0
H144 H 0.56428 0.41092 0.9468 0.0
H145 H 0.61559 0.31996 0.99106 0.0
H146 H 0.98899 0.36063 0.83634 0.0
H147 H 0.03092 0.26546 0.88037 0.0
H148 H 0.93257 0.50786 0.83917 0.0
H149 H 0.81269 0.56801 0.84354 0.0
C150 C 0.68827 0.86049 0.58671 0.0
C151 C 0.70339 0.79938 0.54436 0.0
C152 C 0.86227 0.8904 0.53492 0.0
C153 C 0.85104 0.95112 0.57841 0.0
N154 N 0.73483 0.01495 0.63448 0.0
N155 N 0.77481 0.78363 0.46591 0.0
C156 C 0.75685 0.94382 0.60028 0.0
C157 C 0.77857 0.82617 0.51357 0.0
N158 N 0.61267 0.83531 0.61541 0.0
N159 N 0.95691 0.88338 0.51794 0.0
H160 H 0.71426 0.73446 0.45036 0.0
H161 H 0.82463 0.80551 0.44033 0.0
H162 H 0.02465 0.92099 0.53542 0.0
H163 H 0.97046 0.8306 0.49037 0.0
H164 H 0.60497 0.87044 0.65014 0.0
H165 H 0.56044 0.77581 0.60494 0.0
H166 H 0.6639 0.01713 0.64908 0.0
H167 H 0.78387 0.07697 0.64423 0.0
C168 C 0.92483 0.34959 0.44424 0.0
C169 C 0.83576 0.31166 0.46375 0.0
C170 C 0.87163 0.14353 0.43441 0.0
C171 C 0.95767 0.18141 0.41237 0.0
N172 N 0.05986 0.32141 0.39057 0.0
N173 N 0.72431 0.17262 0.47869 0.0
C174 C 0.98313 0.28479 0.41602 0.0
C175 C 0.80894 0.20908 0.45884 0.0
N176 N 0.95461 0.44704 0.45367 0.0
N177 N 0.8476 0.04431 0.43321 0.0
H178 H 0.67544 0.21744 0.49739 0.0
H179 H 0.70297 0.09722 0.47616 0.0
H180 H 0.89054 0.98913 0.41746 0.0
H181 H 0.89054 0.98913 0.41746 0.0
H182 H 0.02514 0.47709 0.4457 0.0
H183 H 0.91143 0.49724 0.47258 0.0
H184 H 0.07474 0.3971 0.38677 0.0
H185 H 0.10482 0.27608 0.37002 0.0
C186 C 0.29512 0.21204 0.5232 0.0
C187 C 0.27076 0.31526 0.52081 0.0
C188 C 0.12762 0.28978 0.57102 0.0
C189 C 0.15479 0.1871 0.57526 0.0
N190 N 0.26988 0.0509 0.56064 0.0
N191 N 0.174 0.45632 0.54594 0.0
C192 C 0.24035 0.1484 0.55292 0.0
C193 C 0.18964 0.35531 0.54567 0.0
N194 N 0.36804 0.17443 0.49541 0.0
N195 N 0.04201 0.32412 0.59098 0.0
H196 H 0.21601 0.5058 0.52638 0.0
H197 H 0.12412 0.49245 0.56763 0.0
H198 H 0.99762 0.27931 0.61174 0.0
H199 H 0.01131 0.39564 0.58516 0.0
H200 H 0.38089 0.09856 0.49039 0.0
H201 H 0.41168 0.21908 0.47418 0.0
H202 H 0.33983 0.02145 0.55156 0.0
H203 H 0.22722 0.99971 0.57882 0.0
C204 C 0.3427 0.83181 0.47096 0.0
C205 C 0.41184 0.80021 0.43782 0.0
C206 C 0.35443 0.94023 0.38124 0.0
C207 C 0.26397 0.95099 0.40585 0.0
N208 N 0.16802 0.89317 0.47231 0.0
N209 N 0.49497 0.82898 0.36391 0.0
C210 C 0.25839 0.89574 0.45132 0.0
C211 C 0.42292 0.85737 0.39415 0.0
N212 N 0.35247 0.79413 0.51953 0.0
N213 N 0.37301 0.00778 0.34524 0.0
H214 H 0.54793 0.77059 0.37435 0.0
H215 H 0.49949 0.86072 0.32832 0.0
H216 H 0.32426 0.06965 0.33612 0.0
H217 H 0.44124 0.00751 0.32837 0.0
H218 H 0.30839 0.82035 0.54691 0.0
H219 H 0.41274 0.74453 0.53368 0.0
H220 H 0.1584 0.84357 0.50144 0.0
H221 H 0.09916 0.93059 0.45708 0.0
C222 C 0.97334 0.84901 0.18651 0.0
C223 C 0.95577 0.92257 0.14817 0.0
C224 C 0.95113 0.05267 0.21256 0.0
C225 C 0.97897 0.981 0.25213 0.0
N226 N 0.9725 0.80779 0.27617 0.0
N227 N 0.87178 0.07849 0.12341 0.0
C228 C 0.97436 0.87754 0.23886 0.0
C229 C 0.92229 0.01826 0.16108 0.0
N230 N 0.99579 0.754 0.17281 0.0
N231 N 0.96268 0.15277 0.2225 0.0
H232 H 0.85041 0.05306 0.08546 0.0
H233 H 0.84089 0.14791 0.13124 0.0
H234 H 0.99337 0.18282 0.25851 0.0
H235 H 0.95228 0.20596 0.19346 0.0
H236 H 0.02099 0.69837 0.19938 0.0
H237 H 0.99186 0.73319 0.13409 0.0
H238 H 0.96273 0.7317 0.26818 0.0
H239 H 0.9703 0.82771 0.3145 0.0
C240 C 0.16302 0.03695 0.82756 0.0
C241 C 0.13773 0.9379 0.83879 0.0
C242 C 0.13547 0.89272 0.74844 0.0
C243 C 0.12457 0.99562 0.73567 0.0
N244 N 0.12427 0.16803 0.76536 0.0
N245 N 0.1177 0.76667 0.81261 0.0
C246 C 0.14066 0.069 0.77575 0.0
C247 C 0.13225 0.86365 0.80007 0.0
N248 N 0.20087 0.10159 0.86669 0.0
N249 N 0.14703 0.82385 0.71115 0.0
H250 H 0.11927 0.74557 0.8509 0.0
H251 H 0.10146 0.70918 0.78546 0.0
H252 H 0.15168 0.84441 0.67337 0.0
H253 H 0.16192 0.74861 0.71876 0.0
H254 H 0.22723 0.17338 0.86036 0.0
H255 H 0.21707 0.07881 0.90496 0.0
H256 H 0.12456 0.22218 0.79414 0.0
H257 H 0.10039 0.19576 0.72848 0.0
C258 C 0.46491 0.36225 0.68213 0.0
C259 C 0.45909 0.43809 0.64508 0.0
C260 C 0.4558 0.56636 0.71073 0.0
C261 C 0.47185 0.4915 0.74925 0.0
N262 N 0.44921 0.31846 0.77 0.0
N263 N 0.39503 0.60174 0.62052 0.0
C264 C 0.46113 0.38904 0.73429 0.0
C265 C 0.43305 0.53611 0.65833 0.0
N266 N 0.48034 0.26613 0.66757 0.0
N267 N 0.47298 0.66507 0.72306 0.0
H268 H 0.37894 0.58008 0.5818 0.0
H269 H 0.3686 0.673 0.62828 0.0
H270 H 0.49825 0.6916 0.76038 0.0
H271 H 0.4724 0.72018 0.69532 0.0
H272 H 0.49681 0.20779 0.69352 0.0
H273 H 0.47935 0.24672 0.62887 0.0
H274 H 0.4345 0.24342 0.76068 0.0
H275 H 0.44401 0.33732 0.80815 0.0
C276 C 0.62362 0.3498 0.29767 0.0
C277 C 0.64077 0.42396 0.33657 0.0
C278 C 0.64584 0.55335 0.27314 0.0
C279 C 0.61826 0.48096 0.23306 0.0
N280 N 0.62414 0.30754 0.20765 0.0
N281 N 0.72376 0.58115 0.36263 0.0
C282 C 0.62262 0.3777 0.24554 0.0
C283 C 0.67393 0.5199 0.32444 0.0
N284 N 0.60154 0.25472 0.31068 0.0
N285 N 0.63487 0.65325 0.26375 0.0
H286 H 0.74466 0.55659 0.40046 0.0
H287 H 0.75464 0.6507 0.35539 0.0
H288 H 0.60536 0.68256 0.22778 0.0
H289 H 0.64476 0.70705 0.2931 0.0
H290 H 0.57657 0.19852 0.28371 0.0
H291 H 0.60563 0.23437 0.34924 0.0
H292 H 0.63377 0.23157 0.21502 0.0
H293 H 0.6261 0.32702 0.16946 0.0
loop_
_geom_bond_atom_site_label_1
_geom_bond_atom_site_label_2
_geom_bond_distance
_geom_bond_site_symmetry_2
_ccdc_geom_bond_type
Zn0 O6 1.920 1_545 S
Zn0 O12 1.898 . S
Zn0 O15 1.905 1_545 S
Zn1 O9 1.905 . S
Zn1 O10 1.898 1_545 S
Zn1 O18 1.920 1_545 S
Zn2 O5 2.081 1_444 S
Zn2 O8 2.113 1_554 S
Zn2 O11 2.120 1_545 S
Zn2 O13 2.121 1_455 S
Zn2 O14 2.099 1_554 S
Zn2 O17 2.095 . S
C3 O8 1.166 1_554 S
C3 O9 1.182 . S
C4 O10 1.167 1_556 S
C4 O11 1.299 1_556 S
O5 Zn2 2.081 1_666 S
O5 C19 1.305 1_556 S
O6 Zn0 1.920 1_565 S
O6 C19 1.234 1_556 S
C7 O12 1.167 . S
C7 O13 1.299 1_556 S
O8 Zn2 2.113 1_556 S
O8 C3 1.166 1_556 S
O9 Zn1 1.905 . S
O9 C3 1.182 . S
O10 Zn1 1.898 1_565 S
O10 C4 1.167 1_554 S
O11 Zn2 2.120 1_565 S
O11 C4 1.299 1_554 S
O12 Zn0 1.898 . S
O12 C7 1.167 . S
O13 Zn2 2.121 1_655 S
O13 C7 1.299 1_554 S
O14 Zn2 2.099 1_556 S
O14 C16 1.166 1_445 S
O15 Zn0 1.905 1_565 S
O15 C16 1.182 . S
C16 O14 1.166 1_665 S
C16 O15 1.182 . S
O17 Zn2 2.095 . S
O17 C20 1.305 1_545 S
O18 Zn1 1.920 1_565 S
O18 C20 1.234 . S
C19 O5 1.305 1_554 S
C19 O6 1.234 1_554 S
C20 O17 1.305 1_565 S
C20 O18 1.234 . S
Zn21 O27 1.920 . S
Zn21 O33 1.898 . S
Zn21 O36 1.905 . S
Zn22 O30 1.905 . S
Zn22 O31 1.898 . S
Zn22 O39 1.920 . S
Zn23 O26 2.080 . S
Zn23 O29 2.114 . S
Zn23 O32 2.120 . S
Zn23 O34 2.120 . S
Zn23 O35 2.114 . S
Zn23 O38 2.080 . S
C24 O29 1.166 . S
C24 O30 1.182 . S
C25 O31 1.167 . S
C25 O32 1.299 . S
O26 Zn23 2.080 . S
O26 C40 1.305 . S
O27 Zn21 1.920 . S
O27 C40 1.234 . S
C28 O33 1.167 . S
C28 O34 1.299 . S
O29 Zn23 2.114 . S
O29 C24 1.166 . S
O30 Zn22 1.905 . S
O30 C24 1.182 . S
O31 Zn22 1.898 . S
O31 C25 1.167 . S
O32 Zn23 2.120 . S
O32 C25 1.299 . S
O33 Zn21 1.898 . S
O33 C28 1.167 . S
O34 Zn23 2.120 . S
O34 C28 1.299 . S
O35 Zn23 2.114 . S
O35 C37 1.166 . S
O36 Zn21 1.905 . S
O36 C37 1.182 . S
C37 O35 1.166 . S
C37 O36 1.182 . S
O38 Zn23 2.080 . S
O38 C41 1.305 . S
O39 Zn22 1.920 . S
O39 C41 1.234 . S
C40 O26 1.305 . S
C40 O27 1.234 . S
C41 O38 1.305 . S
C41 O39 1.234 . S
H42 C45 0.931 1_655 S
H43 C48 0.928 . S
H44 C50 0.930 . S
C45 H42 0.931 1_455 S
C45 C46 1.413 . S
C45 C47 1.360 . S
C46 C45 1.413 . S
C46 C50 1.429 . S
C47 C45 1.360 . S
C47 C48 1.372 1_545 S
C48 H43 0.928 . S
C48 C47 1.372 1_565 S
C48 C49 1.404 . S
C49 C48 1.404 . S
C49 C50 1.391 1_565 S
C50 H44 0.930 . S
C50 C46 1.429 . S
C50 C49 1.391 1_545 S
H51 C54 0.931 . S
H52 C57 0.928 . S
H53 C59 0.930 . S
C54 H51 0.931 . S
C54 C55 1.413 . S
C54 C56 1.360 1_665 S
C55 C54 1.413 . S
C55 C59 1.429 1_665 S
C56 C54 1.360 1_445 S
C56 C57 1.372 . S
C57 H52 0.928 . S
C57 C56 1.372 . S
C57 C58 1.404 . S
C58 C57 1.404 . S
C58 C59 1.391 . S
C59 H53 0.930 . S
C59 C55 1.429 1_445 S
C59 C58 1.391 . S
H60 C63 0.931 . S
H61 C66 0.928 . S
H62 C68 0.930 . S
C63 H60 0.931 . S
C63 C64 1.413 . S
C63 C65 1.360 . S
C64 C63 1.413 . S
C64 C68 1.429 . S
C65 C63 1.360 . S
C65 C66 1.372 . S
C66 H61 0.928 . S
C66 C65 1.372 . S
C66 C67 1.404 . S
C67 C66 1.404 . S
C67 C68 1.391 . S
C68 H62 0.930 . S
C68 C64 1.429 . S
C68 C67 1.391 . S
H69 C72 0.931 . S
H70 C75 0.928 . S
H71 C77 0.930 . S
C72 H69 0.931 . S
C72 C73 1.413 . S
C72 C74 1.360 . S
C73 C72 1.413 . S
C73 C77 1.429 . S
C74 C72 1.360 . S
C74 C75 1.372 . S
C75 H70 0.928 . S
C75 C74 1.372 . S
C75 C76 1.404 . S
C76 C75 1.404 . S
C76 C77 1.391 . S
C77 H71 0.930 . S
C77 C73 1.429 . S
C77 C76 1.391 . S
C78 C79 1.363 . S
C78 C84 1.379 . S
C78 N86 1.356 . S
C79 C78 1.363 . S
C79 C85 1.357 1_554 S
C80 C81 1.363 . S
C80 C85 1.376 1_554 S
C80 N87 1.356 . S
C81 C80 1.363 . S
C81 C84 1.363 . S
N82 C84 1.356 . S
N82 H94 0.984 . S
N82 H95 0.985 . S
N83 C85 1.364 . S
N83 H88 0.984 . S
N83 H89 0.985 . S
C84 C78 1.379 . S
C84 C81 1.363 . S
C84 N82 1.356 . S
C85 C79 1.357 1_556 S
C85 C80 1.376 1_556 S
C85 N83 1.364 . S
N86 C78 1.356 . S
N86 H92 0.984 . S
N86 H93 0.984 . S
N87 C80 1.356 . S
N87 H90 0.984 . S
N87 H91 0.985 1_554 S
H88 N83 0.984 . S
H89 N83 0.985 . S
H90 N87 0.984 . S
H91 N87 0.985 1_556 S
H92 N86 0.984 . S
H93 N86 0.984 . S
H94 N82 0.984 . S
H95 N82 0.985 . S
C96 C97 1.363 . S
C96 C102 1.379 . S
C96 N104 1.356 . S
C97 C96 1.363 . S
C97 C103 1.363 . S
C98 C99 1.363 . S
C98 C103 1.379 . S
C98 N105 1.356 . S
C99 C98 1.363 . S
C99 C102 1.363 . S
N100 C102 1.356 . S
N100 H112 0.984 . S
N100 H113 0.985 . S
N101 C103 1.356 . S
N101 H106 0.984 . S
N101 H107 0.985 . S
C102 C96 1.379 . S
C102 C99 1.363 . S
C102 N100 1.356 . S
C103 C97 1.363 . S
C103 C98 1.379 . S
C103 N101 1.356 . S
N104 C96 1.356 . S
N104 H110 0.984 1_556 S
N104 H111 0.983 1_556 S
N105 C98 1.356 . S
N105 H108 0.984 . S
N105 H109 0.985 . S
H106 N101 0.984 . S
H107 N101 0.985 . S
H108 N105 0.984 . S
H109 N105 0.985 . S
H110 N104 0.984 1_554 S
H111 N104 0.983 1_554 S
H112 N100 0.984 . S
H113 N100 0.985 . S
C114 C115 1.363 . S
C114 C120 1.379 . S
C114 N122 1.356 1_554 S
C115 C114 1.363 . S
C115 C121 1.363 . S
C116 C117 1.363 . S
C116 C121 1.379 . S
C116 N123 1.356 . S
C117 C116 1.363 . S
C117 C120 1.363 . S
N118 C120 1.356 . S
N118 H130 0.984 1_554 S
N118 H131 0.985 . S
N119 C121 1.356 . S
N119 H124 0.984 . S
N119 H125 0.985 . S
C120 C114 1.379 . S
C120 C117 1.363 . S
C120 N118 1.356 . S
C121 C115 1.363 . S
C121 C116 1.379 . S
C121 N119 1.356 . S
N122 C114 1.356 1_556 S
N122 H128 0.984 . S
N122 H129 0.984 . S
N123 C116 1.356 . S
N123 H126 0.984 . S
N123 H127 0.985 . S
H124 N119 0.984 . S
H125 N119 0.985 . S
H126 N123 0.984 . S
H127 N123 0.985 . S
H128 N122 0.984 . S
H129 N122 0.984 . S
H130 N118 0.984 1_556 S
H131 N118 0.985 . S
C132 C133 1.363 . S
C132 C138 1.379 . S
C132 N140 1.356 . S
C133 C132 1.363 . S
C133 C139 1.363 . S
C134 C135 1.363 . S
C134 C139 1.379 . S
C134 N141 1.356 . S
C135 C134 1.363 . S
C135 C138 1.363 . S
N136 C138 1.356 . S
N136 H148 0.984 . S
N136 H149 0.985 . S
N137 C139 1.356 1_554 S
N137 H142 0.984 . S
N137 H143 0.985 . S
C138 C132 1.379 . S
C138 C135 1.363 . S
C138 N136 1.356 . S
C139 C133 1.363 . S
C139 C134 1.379 . S
C139 N137 1.356 1_556 S
N140 C132 1.356 . S
N140 H146 0.984 1_655 S
N140 H147 0.984 . S
N141 C134 1.356 . S
N141 H144 0.984 . S
N141 H145 0.985 1_556 S
H142 N137 0.984 . S
H143 N137 0.985 . S
H144 N141 0.984 . S
H145 N141 0.985 1_554 S
H146 N140 0.984 1_455 S
H147 N140 0.984 . S
H148 N136 0.984 . S
H149 N136 0.985 . S
C150 C151 1.363 . S
C150 C156 1.379 . S
C150 N158 1.356 . S
C151 C150 1.363 . S
C151 C157 1.363 . S
C152 C153 1.363 . S
C152 C157 1.379 . S
C152 N159 1.356 . S
C153 C152 1.363 . S
C153 C156 1.363 . S
N154 C156 1.356 . S
N154 H166 0.984 . S
N154 H167 0.985 . S
N155 C157 1.356 . S
N155 H160 0.984 . S
N155 H161 0.985 . S
C156 C150 1.379 . S
C156 C153 1.363 . S
C156 N154 1.356 . S
C157 C151 1.363 . S
C157 C152 1.379 . S
C157 N155 1.356 . S
N158 C150 1.356 . S
N158 H164 0.984 . S
N158 H165 0.984 . S
N159 C152 1.356 . S
N159 H162 0.984 1_655 S
N159 H163 0.985 1_655 S
H160 N155 0.984 . S
H161 N155 0.985 . S
H162 N159 0.984 1_455 S
H163 N159 0.985 1_455 S
H164 N158 0.984 . S
H165 N158 0.984 . S
H166 N154 0.984 . S
H167 N154 0.985 . S
C168 C169 1.363 . S
C168 C174 1.379 . S
C168 N176 1.356 . S
C169 C168 1.363 . S
C169 C175 1.363 . S
C170 C171 1.363 . S
C170 C175 1.379 . S
C170 N177 1.356 1_655 S
C171 C170 1.363 . S
C171 C174 1.363 . S
N172 C174 1.356 . S
N172 H184 0.984 . S
N172 H185 0.985 . S
N173 C175 1.356 . S
N173 H178 0.984 . S
N173 H179 0.985 . S
C174 C168 1.379 . S
C174 C171 1.363 . S
C174 N172 1.356 . S
C175 C169 1.363 . S
C175 C170 1.379 . S
C175 N173 1.356 . S
N176 C168 1.356 . S
N176 H182 0.984 . S
N176 H183 0.984 . S
N177 C170 1.356 1_455 S
N177 H180 0.984 . S
N177 H181 0.985 . S
H178 N173 0.984 . S
H179 N173 0.985 . S
H180 N177 0.984 . S
H181 N177 0.985 . S
H182 N176 0.984 . S
H183 N176 0.984 . S
H184 N172 0.984 . S
H185 N172 0.985 . S
C186 C187 1.363 . S
C186 C192 1.379 . S
C186 N194 1.356 . S
C187 C186 1.363 . S
C187 C193 1.363 . S
C188 C189 1.363 . S
C188 C193 1.379 . S
C188 N195 1.356 . S
C189 C188 1.363 . S
C189 C192 1.363 . S
N190 C192 1.356 . S
N190 H202 0.984 . S
N190 H203 0.985 . S
N191 C193 1.356 . S
N191 H196 0.984 . S
N191 H197 0.985 . S
C192 C186 1.379 . S
C192 C189 1.363 . S
C192 N190 1.356 . S
C193 C187 1.363 . S
C193 C188 1.379 . S
C193 N191 1.356 . S
N194 C186 1.356 . S
N194 H200 0.984 . S
N194 H201 0.984 . S
N195 C188 1.356 . S
N195 H198 0.984 1_455 S
N195 H199 0.985 1_455 S
H196 N191 0.984 . S
H197 N191 0.985 . S
H198 N195 0.984 1_655 S
H199 N195 0.985 1_655 S
H200 N194 0.984 . S
H201 N194 0.984 . S
H202 N190 0.984 . S
H203 N190 0.985 . S
C204 C205 1.363 . S
C204 C210 1.379 . S
C204 N212 1.356 . S
C205 C204 1.363 . S
C205 C211 1.363 . S
C206 C207 1.363 . S
C206 C211 1.379 . S
C206 N213 1.356 . S
C207 C206 1.363 . S
C207 C210 1.363 . S
N208 C210 1.356 . S
N208 H220 0.984 . S
N208 H221 0.985 . S
N209 C211 1.356 . S
N209 H214 0.984 . S
N209 H215 0.985 . S
C210 C204 1.379 . S
C210 C207 1.363 . S
C210 N208 1.356 . S
C211 C205 1.363 . S
C211 C206 1.379 . S
C211 N209 1.356 . S
N212 C204 1.356 . S
N212 H218 0.984 . S
N212 H219 0.984 . S
N213 C206 1.356 . S
N213 H216 0.984 . S
N213 H217 0.985 . S
H214 N209 0.984 . S
H215 N209 0.985 . S
H216 N213 0.984 . S
H217 N213 0.985 . S
H218 N212 0.984 . S
H219 N212 0.984 . S
H220 N208 0.984 . S
H221 N208 0.985 . S
C222 C223 1.363 . S
C222 C228 1.379 . S
C222 N230 1.356 1_455 S
C223 C222 1.363 . S
C223 C229 1.363 1_565 S
C224 C225 1.363 . S
C224 C229 1.379 . S
C224 N231 1.356 . S
C225 C224 1.363 . S
C225 C228 1.363 1_545 S
N226 C228 1.356 1_655 S
N226 H238 0.984 . S
N226 H239 0.985 . S
N227 C229 1.356 . S
N227 H232 0.984 . S
N227 H233 0.985 . S
C228 C222 1.379 . S
C228 C225 1.363 1_565 S
C228 N226 1.356 1_455 S
C229 C223 1.363 1_545 S
C229 C224 1.379 . S
C229 N227 1.356 . S
N230 C222 1.356 1_655 S
N230 H236 0.984 . S
N230 H237 0.984 . S
N231 C224 1.356 . S
N231 H234 0.984 . S
N231 H235 0.985 . S
H232 N227 0.984 . S
H233 N227 0.985 . S
H234 N231 0.984 . S
H235 N231 0.985 . S
H236 N230 0.984 . S
H237 N230 0.984 . S
H238 N226 0.984 . S
H239 N226 0.985 . S
C240 C241 1.363 1_645 S
C240 C246 1.379 . S
C240 N248 1.356 . S
C241 C240 1.363 1_465 S
C241 C247 1.363 . S
C242 C243 1.363 1_565 S
C242 C247 1.379 . S
C242 N249 1.356 . S
C243 C242 1.363 1_545 S
C243 C246 1.363 1_455 S
N244 C246 1.356 . S
N244 H256 0.984 . S
N244 H257 0.985 . S
N245 C247 1.356 . S
N245 H250 0.984 . S
N245 H251 0.985 . S
C246 C240 1.379 . S
C246 C243 1.363 1_655 S
C246 N244 1.356 . S
C247 C241 1.363 . S
C247 C242 1.379 . S
C247 N245 1.356 . S
N248 C240 1.356 . S
N248 H254 0.984 . S
N248 H255 0.984 . S
N249 C242 1.356 . S
N249 H252 0.984 . S
N249 H253 0.985 . S
H250 N245 0.984 . S
H251 N245 0.985 . S
H252 N249 0.984 . S
H253 N249 0.985 . S
H254 N248 0.984 . S
H255 N248 0.984 . S
H256 N244 0.984 . S
H257 N244 0.985 . S
C258 C259 1.363 . S
C258 C264 1.379 . S
C258 N266 1.356 . S
C259 C258 1.363 . S
C259 C265 1.363 . S
C260 C261 1.363 . S
C260 C265 1.379 . S
C260 N267 1.356 . S
C261 C260 1.363 . S
C261 C264 1.363 . S
N262 C264 1.356 . S
N262 H274 0.984 . S
N262 H275 0.985 . S
N263 C265 1.356 . S
N263 H268 0.984 . S
N263 H269 0.985 . S
C264 C258 1.379 . S
C264 C261 1.363 . S
C264 N262 1.356 . S
C265 C259 1.363 . S
C265 C260 1.379 . S
C265 N263 1.356 . S
N266 C258 1.356 . S
N266 H272 0.984 . S
N266 H273 0.984 . S
N267 C260 1.356 . S
N267 H270 0.984 . S
N267 H271 0.985 . S
H268 N263 0.984 . S
H269 N263 0.985 . S
H270 N267 0.984 . S
H271 N267 0.985 . S
H272 N266 0.984 . S
H273 N266 0.984 . S
H274 N262 0.984 . S
H275 N262 0.985 . S
C276 C277 1.363 . S
C276 C282 1.379 . S
C276 N284 1.356 . S
C277 C276 1.363 . S
C277 C283 1.363 . S
C278 C279 1.363 . S
C278 C283 1.379 . S
C278 N285 1.356 . S
C279 C278 1.363 . S
C279 C282 1.363 . S
N280 C282 1.356 . S
N280 H292 0.984 . S
N280 H293 0.985 . S
N281 C283 1.356 . S
N281 H286 0.984 . S
N281 H287 0.985 . S
C282 C276 1.379 . S
C282 C279 1.363 . S
C282 N280 1.356 . S
C283 C277 1.363 . S
C283 C278 1.379 . S
C283 N281 1.356 . S
N284 C276 1.356 . S
N284 H290 0.984 . S
N284 H291 0.984 . S
N285 C278 1.356 . S
N285 H288 0.984 . S
N285 H289 0.985 . S
H286 N281 0.984 . S
H287 N281 0.985 . S
H288 N285 0.984 . S
H289 N285 0.985 . S
H290 N284 0.984 . S
H291 N284 0.984 . S
H292 N280 0.984 . S
H293 N280 0.985 . S
C81 C73 1.344 . S
C79 C3 1.176 . S
C97 C4 1.456 . S
C99 C64 1.542 . S
C115 C19 1.479 . S
C117 C76 1.553 . S
C133 C7 1.170 . S
C135 C67 1.339 . S
C151 C37 1.176 . S
C153 C55 1.344 . S
C169 C28 1.456 . S
C171 C46 1.542 1_655 S
C189 C58 1.553 . S
C187 C41 1.479 . S
C207 C49 1.339 . S
C205 C25 1.170 . S
C223 C20 1.335 . S
C225 C47 1.505 . S
C241 C16 1.375 1_455 S
C243 C56 1.548 . S
C261 C65 1.505 . S
C259 C40 1.335 . S
C277 C24 1.375 . S
C279 C74 1.548 . S
