# Generated by pormake.
# Topology zzz, (3,6)-cn, num edge types: 1
# Building blocks:
#     Node 0, Type 0, BuildingBlock: BELTOD_clean_linker_0, # of connection points: 3
#     Node 1, Type 0, BuildingBlock: BELTOD_clean_linker_0, # of connection points: 3
#     Node 2, Type 0, BuildingBlock: BELTOD_clean_linker_0, # of connection points: 3
#     Node 3, Type 0, BuildingBlock: BELTOD_clean_linker_0, # of connection points: 3
#     Node 4, Type 0, BuildingBlock: BELTOD_clean_linker_0, # of connection points: 3
#     Node 5, Type 0, BuildingBlock: BELTOD_clean_linker_0, # of connection points: 3
#     Node 6, Type 0, BuildingBlock: BELTOD_clean_linker_0, # of connection points: 3
#     Node 7, Type 0, BuildingBlock: BELTOD_clean_linker_0, # of connection points: 3
#     Node 8, Type 1, BuildingBlock: KUMBOL_clean_sbu_0, # of connection points: 6
#     Node 9, Type 1, BuildingBlock: KUMBOL_clean_sbu_0, # of connection points: 6
#     Node 10, Type 1, BuildingBlock: KUMBOL_clean_sbu_0, # of connection points: 6
#     Node 11, Type 1, BuildingBlock: KUMBOL_clean_sbu_0, # of connection points: 6
#     Edge 12, Type (0, 1), BuildingBlock: UVAHIK_clean_linker_0, # of connection points: 2
#     Edge 13, Type (0, 1), BuildingBlock: UVAHIK_clean_linker_0, # of connection points: 2
#     Edge 14, Type (0, 1), BuildingBlock: UVAHIK_clean_linker_0, # of connection points: 2
#     Edge 15, Type (0, 1), BuildingBlock: UVAHIK_clean_linker_0, # of connection points: 2
#     Edge 16, Type (0, 1), BuildingBlock: UVAHIK_clean_linker_0, # of connection points: 2
#     Edge 17, Type (0, 1), BuildingBlock: UVAHIK_clean_linker_0, # of connection points: 2
#     Edge 18, Type (0, 1), BuildingBlock: UVAHIK_clean_linker_0, # of connection points: 2
#     Edge 19, Type (0, 1), BuildingBlock: UVAHIK_clean_linker_0, # of connection points: 2
#     Edge 20, Type (0, 1), BuildingBlock: UVAHIK_clean_linker_0, # of connection points: 2
#     Edge 21, Type (0, 1), BuildingBlock: UVAHIK_clean_linker_0, # of connection points: 2
#     Edge 22, Type (0, 1), BuildingBlock: UVAHIK_clean_linker_0, # of connection points: 2
#     Edge 23, Type (0, 1), BuildingBlock: UVAHIK_clean_linker_0, # of connection points: 2
#     Edge 24, Type (0, 1), BuildingBlock: UVAHIK_clean_linker_0, # of connection points: 2
#     Edge 25, Type (0, 1), BuildingBlock: UVAHIK_clean_linker_0, # of connection points: 2
#     Edge 26, Type (0, 1), BuildingBlock: UVAHIK_clean_linker_0, # of connection points: 2
#     Edge 27, Type (0, 1), BuildingBlock: UVAHIK_clean_linker_0, # of connection points: 2
#     Edge 28, Type (0, 1), BuildingBlock: UVAHIK_clean_linker_0, # of connection points: 2
#     Edge 29, Type (0, 1), BuildingBlock: UVAHIK_clean_linker_0, # of connection points: 2
#     Edge 30, Type (0, 1), BuildingBlock: UVAHIK_clean_linker_0, # of connection points: 2
#     Edge 31, Type (0, 1), BuildingBlock: UVAHIK_clean_linker_0, # of connection points: 2
#     Edge 32, Type (0, 1), BuildingBlock: UVAHIK_clean_linker_0, # of connection points: 2
#     Edge 33, Type (0, 1), BuildingBlock: UVAHIK_clean_linker_0, # of connection points: 2
#     Edge 34, Type (0, 1), BuildingBlock: UVAHIK_clean_linker_0, # of connection points: 2
#     Edge 35, Type (0, 1), BuildingBlock: UVAHIK_clean_linker_0, # of connection points: 2
# Relax obj value: 0.261
# Max RMSD: 0.213
# Mean RMSD: 0.200
data_MOF--net-zzz--node1-KUMBOL_clean_sbu_0--node2-BELTOD_clean_linker_0--edge1-UVAHIK_clean_linker_0
_symmetry_space_group_name_H-M    P1
_symmetry_Int_Tables_number       1
_symmetry_cell_setting            triclinic
loop_
_symmetry_equiv_pos_as_xyz
'x, y, z'
_cell_length_a     67.153532
_cell_length_b     67.24488
_cell_length_c     23.190069
_cell_angle_alpha  90.535348
_cell_angle_beta   90.167894
_cell_angle_gamma 89.97435
loop_
_atom_site_label
_atom_site_type_symbol
_atom_site_fract_x
_atom_site_fract_y
_atom_site_fract_z
_atom_type_partial_charge
P0 P 0.73415 0.56449 0.19463 0.0
H1 H 0.73372 0.54709 0.30992 0.0
H2 H 0.76144 0.54751 0.37786 0.0
H3 H 0.78394 0.60083 0.29879 0.0
H4 H 0.75554 0.60094 0.23348 0.0
H5 H 0.7107 0.53454 0.13606 0.0
H6 H 0.68134 0.53558 0.07688 0.0
H7 H 0.6721 0.59714 0.12376 0.0
H8 H 0.70243 0.59605 0.18485 0.0
H9 H 0.77643 0.56106 0.17938 0.0
H10 H 0.72806 0.59191 0.09554 0.0
O11 O 0.74041 0.54044 0.19509 0.0
H12 H 0.79937 0.57328 0.10697 0.0
H13 H 0.75102 0.60369 0.02188 0.0
C14 C 0.74289 0.57344 0.2645 0.0
C15 C 0.74392 0.55957 0.30925 0.0
C16 C 0.7602 0.55953 0.34731 0.0
C17 C 0.7757 0.57352 0.34179 0.0
C18 C 0.77266 0.58949 0.30385 0.0
C19 C 0.75616 0.58964 0.2664 0.0
C20 C 0.70875 0.56505 0.16683 0.0
C21 C 0.70219 0.5482 0.13609 0.0
C22 C 0.68525 0.54881 0.10146 0.0
C23 C 0.67415 0.56636 0.09573 0.0
C24 C 0.6803 0.58334 0.12736 0.0
C25 C 0.69743 0.58264 0.16304 0.0
C26 C 0.75048 0.57517 0.14226 0.0
C27 C 0.77078 0.57064 0.14575 0.0
C28 C 0.78393 0.5779 0.10496 0.0
C29 C 0.77691 0.58958 0.05937 0.0
C30 C 0.75671 0.59484 0.05708 0.0
C31 C 0.74356 0.58786 0.09882 0.0
P32 P 0.9641 0.73513 0.20378 0.0
H33 H 0.98158 0.74107 0.31891 0.0
H34 H 0.97928 0.77034 0.38108 0.0
H35 H 0.92523 0.7878 0.29407 0.0
H36 H 0.92763 0.75838 0.23182 0.0
H37 H 0.99201 0.70571 0.15963 0.0
H38 H 0.98774 0.67706 0.09695 0.0
H39 H 0.92438 0.67889 0.12437 0.0
H40 H 0.92864 0.70796 0.18951 0.0
H41 H 0.97675 0.77428 0.1722 0.0
H42 H 0.93246 0.73219 0.11256 0.0
O43 O 0.98876 0.73824 0.20716 0.0
H44 H 0.96474 0.79822 0.10223 0.0
H45 H 0.92082 0.7561 0.04141 0.0
C46 C 0.95509 0.74751 0.26921 0.0
C47 C 0.96866 0.7506 0.31475 0.0
C48 C 0.96744 0.76765 0.35022 0.0
C49 C 0.95247 0.78203 0.3415 0.0
C50 C 0.93739 0.7775 0.30098 0.0
C51 C 0.93855 0.76033 0.26586 0.0
C52 C 0.96064 0.70938 0.17974 0.0
C53 C 0.97714 0.69976 0.15461 0.0
C54 C 0.97475 0.68332 0.118 0.0
C55 C 0.95577 0.67594 0.10512 0.0
C56 C 0.93922 0.68438 0.13352 0.0
C57 C 0.94168 0.70087 0.17119 0.0
C58 C 0.95602 0.75117 0.14674 0.0
C59 C 0.96469 0.77002 0.14353 0.0
C60 C 0.95763 0.78378 0.10423 0.0
C61 C 0.94177 0.77893 0.06723 0.0
C62 C 0.93304 0.76006 0.06987 0.0
C63 C 0.93993 0.74633 0.11019 0.0
P64 P 0.78418 0.96978 0.21923 0.0
H65 H 0.77793 0.98429 0.33767 0.0
H66 H 0.74803 0.98091 0.39653 0.0
H67 H 0.72998 0.93027 0.29363 0.0
H68 H 0.76016 0.93327 0.23613 0.0
H69 H 0.81527 0.99613 0.1797 0.0
H70 H 0.84378 0.99029 0.11815 0.0
H71 H 0.83763 0.9271 0.14126 0.0
H72 H 0.80919 0.93301 0.20666 0.0
H73 H 0.74891 0.98824 0.17158 0.0
H74 H 0.78444 0.93602 0.13536 0.0
O75 O 0.78233 0.99442 0.2277 0.0
H76 H 0.72481 0.97731 0.09911 0.0
H77 H 0.76054 0.92544 0.06226 0.0
C78 C 0.77117 0.95948 0.28088 0.0
C79 C 0.76814 0.97178 0.32947 0.0
C80 C 0.75084 0.96996 0.36298 0.0
C81 C 0.73621 0.95577 0.34846 0.0
C82 C 0.74068 0.94171 0.30502 0.0
C83 C 0.75815 0.94333 0.2723 0.0
C84 C 0.80978 0.96501 0.19799 0.0
C85 C 0.82041 0.98098 0.17433 0.0
C86 C 0.83671 0.97767 0.13839 0.0
C87 C 0.84268 0.9583 0.12442 0.0
C88 C 0.83318 0.94222 0.15131 0.0
C89 C 0.81704 0.94561 0.18894 0.0
C90 C 0.76887 0.96335 0.15812 0.0
C91 C 0.75186 0.97474 0.14724 0.0
C92 C 0.738 0.96838 0.10642 0.0
C93 C 0.74091 0.95048 0.07602 0.0
C94 C 0.75815 0.93931 0.08536 0.0
C95 C 0.77195 0.94559 0.12676 0.0
P96 P 0.55428 0.78549 0.20057 0.0
H97 H 0.53562 0.77962 0.31223 0.0
H98 H 0.54024 0.75233 0.37809 0.0
H99 H 0.59762 0.73979 0.30166 0.0
H100 H 0.5924 0.76694 0.23406 0.0
H101 H 0.52786 0.81557 0.15552 0.0
H102 H 0.53463 0.84453 0.09733 0.0
H103 H 0.59704 0.84048 0.13948 0.0
H104 H 0.59013 0.81137 0.20044 0.0
H105 H 0.54695 0.74437 0.17291 0.0
H106 H 0.58353 0.7915 0.10493 0.0
O107 O 0.52967 0.7819 0.20027 0.0
H108 H 0.56095 0.72146 0.10164 0.0
H109 H 0.59742 0.76859 0.03406 0.0
C110 C 0.56337 0.77504 0.26709 0.0
C111 C 0.5496 0.7716 0.31112 0.0
C112 C 0.55229 0.75577 0.34898 0.0
C113 C 0.56904 0.74323 0.34422 0.0
C114 C 0.58419 0.74861 0.30539 0.0
C115 C 0.5814 0.76445 0.2673 0.0
C116 C 0.5585 0.81118 0.18243 0.0
C117 C 0.54291 0.82131 0.155 0.0
C118 C 0.54677 0.83783 0.12119 0.0
C119 C 0.56631 0.84447 0.11368 0.0
C120 C 0.58182 0.83555 0.145 0.0
C121 C 0.57784 0.81912 0.18026 0.0
C122 C 0.56396 0.76972 0.14431 0.0
C123 C 0.55794 0.74982 0.14281 0.0
C124 C 0.56616 0.73671 0.10278 0.0
C125 C 0.58053 0.74332 0.06349 0.0
C126 C 0.58653 0.76323 0.06458 0.0
C127 C 0.57841 0.77634 0.10513 0.0
P128 P 0.28949 0.4128 0.98531 0.0
H129 H 0.27262 0.39885 0.87569 0.0
H130 H 0.24433 0.41033 0.81919 0.0
H131 H 0.24261 0.4645 0.92016 0.0
H132 H 0.27094 0.45271 0.97769 0.0
H133 H 0.32091 0.39324 0.04661 0.0
H134 H 0.34697 0.40505 0.10975 0.0
H135 H 0.33618 0.46524 0.05321 0.0
H136 H 0.30885 0.45304 0.99174 0.0
H137 H 0.25193 0.39232 1.00547 0.0
H138 H 0.29051 0.43286 0.09896 0.0
O139 O 0.29336 0.38936 0.96378 0.0
H140 H 0.22596 0.3978 0.07848 0.0
H141 H 0.26505 0.43784 0.17076 0.0
C142 C 0.27442 0.42504 0.93058 0.0
C143 C 0.26673 0.41353 0.88472 0.0
C144 C 0.25024 0.41999 0.85272 0.0
C145 C 0.24094 0.43827 0.86535 0.0
C146 C 0.24943 0.45041 0.90886 0.0
C147 C 0.26585 0.44378 0.94146 0.0
C148 C 0.31314 0.4221 0.01286 0.0
C149 C 0.32456 0.40893 0.04589 0.0
C150 C 0.33962 0.41582 0.08262 0.0
C151 C 0.34406 0.43624 0.08727 0.0
C152 C 0.33318 0.44943 0.05183 0.0
C153 C 0.31776 0.44246 0.01542 0.0
C154 C 0.27322 0.41208 0.0465 0.0
C155 C 0.25515 0.40168 0.04261 0.0
C156 C 0.24042 0.40468 0.08425 0.0
C157 C 0.24381 0.41807 0.12988 0.0
C158 C 0.26238 0.42724 0.13608 0.0
C159 C 0.27694 0.42439 0.09454 0.0
P160 P 0.09954 0.28908 0.97154 0.0
H161 H 0.11551 0.26798 0.87095 0.0
H162 H 0.10473 0.23843 0.82014 0.0
H163 H 0.04696 0.24344 0.90105 0.0
H164 H 0.05869 0.2725 0.95527 0.0
H165 H 0.12041 0.31883 0.03826 0.0
H166 H 0.10973 0.34532 0.10257 0.0
H167 H 0.04935 0.33826 0.04106 0.0
H168 H 0.06031 0.31095 0.97718 0.0
H169 H 0.12404 0.25496 1.00308 0.0
H170 H 0.07337 0.28677 0.07179 0.0
O171 O 0.12323 0.29241 0.95212 0.0
H172 H 0.11987 0.2296 0.07756 0.0
H173 H 0.06948 0.26204 0.14562 0.0
C174 C 0.08787 0.2731 0.91658 0.0
C175 C 0.10026 0.26322 0.87666 0.0
C176 C 0.09396 0.24594 0.84723 0.0
C177 C 0.07485 0.23779 0.85605 0.0
C178 C 0.06198 0.24854 0.89343 0.0
C179 C 0.06847 0.26572 0.9237 0.0
C180 C 0.09131 0.31298 1.00146 0.0
C181 C 0.10495 0.32339 0.0367 0.0
C182 C 0.09875 0.33864 0.07414 0.0
C183 C 0.07857 0.34411 0.07794 0.0
C184 C 0.06499 0.33436 0.04032 0.0
C185 C 0.07126 0.31892 1.00271 0.0
C186 C 0.09937 0.27303 0.03268 0.0
C187 C 0.11248 0.25685 0.03514 0.0
C188 C 0.11004 0.24238 0.07733 0.0
C189 C 0.09448 0.24404 0.11743 0.0
C190 C 0.08188 0.26065 0.11605 0.0
C191 C 0.08415 0.27487 0.07363 0.0
P192 P 0.2329 0.09914 0.9622 0.0
H193 H 0.24838 0.11039 0.84859 0.0
H194 H 0.2774 0.09914 0.79468 0.0
H195 H 0.28407 0.04988 0.91154 0.0
H196 H 0.2546 0.06099 0.96407 0.0
H197 H 0.19934 0.11926 0.01283 0.0
H198 H 0.17275 0.10779 0.07406 0.0
H199 H 0.18676 0.04696 0.02784 0.0
H200 H 0.21431 0.05883 0.96767 0.0
H201 H 0.27082 0.11779 0.98808 0.0
H202 H 0.22832 0.08116 0.07807 0.0
O203 O 0.22983 0.12254 0.94046 0.0
H204 H 0.29505 0.11206 0.06528 0.0
H205 H 0.25227 0.07568 0.15415 0.0
C206 C 0.24892 0.08643 0.91025 0.0
C207 C 0.25559 0.09673 0.86148 0.0
C208 C 0.27259 0.09045 0.83114 0.0
C209 C 0.2836 0.07372 0.84888 0.0
C210 C 0.27611 0.06272 0.89573 0.0
C211 C 0.25901 0.06898 0.92585 0.0
C212 C 0.20868 0.08999 0.98433 0.0
C213 C 0.19623 0.10347 0.01359 0.0
C214 C 0.18094 0.0968 0.04929 0.0
C215 C 0.17748 0.07635 0.05672 0.0
C216 C 0.18912 0.06282 0.02413 0.0
C217 C 0.20465 0.06957 0.98853 0.0
C218 C 0.24777 0.09989 0.0267 0.0
C219 C 0.26642 0.10915 0.02511 0.0
C220 C 0.28022 0.10586 0.069 0.0
C221 C 0.2754 0.09339 0.11512 0.0
C222 C 0.25619 0.08552 0.11921 0.0
C223 C 0.2425 0.08861 0.07508 0.0
P224 P 0.41155 0.23112 0.97126 0.0
H225 H 0.39825 0.2502 0.86491 0.0
H226 H 0.41101 0.27865 0.81257 0.0
H227 H 0.46508 0.27671 0.91365 0.0
H228 H 0.45175 0.24874 0.96779 0.0
H229 H 0.39266 0.19711 0.0223 0.0
H230 H 0.40563 0.17128 0.08465 0.0
H231 H 0.46562 0.18796 0.03976 0.0
H232 H 0.45245 0.21386 0.9762 0.0
H233 H 0.39176 0.26855 0.99787 0.0
H234 H 0.43113 0.22779 0.08541 0.0
O235 O 0.38811 0.22755 0.94932 0.0
H236 H 0.39724 0.29303 0.07502 0.0
H237 H 0.43709 0.252 0.15972 0.0
C238 C 0.42422 0.24674 0.91946 0.0
C239 C 0.41317 0.25535 0.87459 0.0
C240 C 0.42049 0.27181 0.8446 0.0
C241 C 0.43909 0.28021 0.85883 0.0
C242 C 0.45059 0.27089 0.90183 0.0
C243 C 0.44318 0.25448 0.93205 0.0
C244 C 0.42151 0.20735 0.99356 0.0
C245 C 0.4086 0.19465 0.02335 0.0
C246 C 0.41606 0.17996 0.05976 0.0
C247 C 0.43667 0.17769 0.06774 0.0
C248 C 0.44965 0.18952 0.035 0.0
C249 C 0.44213 0.20414 0.99785 0.0
C250 C 0.41102 0.24633 0.03526 0.0
C251 C 0.40109 0.26462 0.0342 0.0
C252 C 0.40436 0.27862 0.07799 0.0
C253 C 0.41777 0.27449 0.12304 0.0
C254 C 0.42648 0.25559 0.12609 0.0
C255 C 0.42316 0.24167 0.08264 0.0
Gd256 Gd 0.99171 0.02064 0.54382 0.0
Gd257 Gd 0.02917 1.00168 0.63868 0.0
C258 C 0.04757 0.03785 0.79736 0.0
C259 C 0.08359 0.03631 0.79123 0.0
C260 C 0.06311 0.02335 0.71247 0.0
C261 C 0.04604 0.02826 0.74299 0.0
C262 C 0.08208 0.02724 0.73666 0.0
C263 C 0.06639 0.04169 0.82135 0.0
C264 C 0.03016 0.04303 0.82667 0.0
C265 C 0.01178 0.03877 0.80177 0.0
N266 N 0.02801 0.02336 0.72027 0.0
C267 C 0.01095 0.02883 0.74872 0.0
H268 H 0.99646 0.02634 0.73043 0.0
C269 C 0.0779 0.00747 0.63196 0.0
N270 N 0.06125 0.01394 0.66063 0.0
C271 C 0.09693 0.01132 0.65373 0.0
C272 C 0.09904 0.02124 0.70635 0.0
H273 H 0.07661 0.9983 0.59363 0.0
H274 H 0.0678 0.04867 0.86346 0.0
H275 H 0.02487 0.99539 0.45498 0.0
H276 H 0.03075 0.05044 0.86833 0.0
H277 H 0.99817 0.04305 0.82352 0.0
H278 H 0.09801 0.0391 0.81073 0.0
H279 H 0.94393 0.02329 0.5875 0.0
H280 H 0.99164 0.97318 0.31206 0.0
H281 H 0.02383 0.97901 0.36104 0.0
H282 H 0.924 0.98583 0.36396 0.0
H283 H 0.10994 0.00601 0.63084 0.0
H284 H 0.11381 0.02375 0.72387 0.0
H285 H 0.95457 0.9761 0.31314 0.0
H286 H 0.91083 0.01651 0.54683 0.0
N287 N 0.99338 0.99939 0.4615 0.0
C288 C 0.99193 0.98037 0.35407 0.0
C289 C 0.01011 0.9837 0.38144 0.0
C290 C 0.97432 0.98607 0.38157 0.0
C291 C 0.97548 0.99534 0.43643 0.0
C292 C 0.01059 0.99333 0.43502 0.0
N293 N 0.9597 0.00887 0.51902 0.0
C294 C 0.95818 1.00032 0.46583 0.0
C295 C 0.92399 0.01156 0.524 0.0
C296 C 0.92223 1.00252 0.46996 0.0
C297 C 0.94286 0.01493 0.54754 0.0
C298 C 0.9394 0.99686 0.44004 0.0
H299 H 0.90758 1.00029 0.45128 0.0
O300 O 0.97122 0.0455 0.54075 0.0
O301 O 0.01712 0.0297 0.6015 0.0
O302 O 0.99918 0.99596 0.68036 0.0
O303 O 0.97432 0.00654 0.61731 0.0
O304 O 0.99066 0.04474 0.6128 0.0
O305 O 0.99001 0.03856 0.46662 0.0
O306 O 0.04971 0.97697 0.6459 0.0
O307 O 1.00374 0.99245 0.58104 0.0
O308 O 0.02165 0.0274 0.50221 0.0
O309 O 0.04621 0.01406 0.56201 0.0
O310 O 0.03035 0.97778 0.57023 0.0
O311 O 0.02918 0.98357 0.71588 0.0
C312 C 0.0091 0.04411 0.62812 0.0
C313 C 0.93828 0.98831 0.38469 0.0
C314 C 0.95568 0.98284 0.35567 0.0
C315 C 0.97582 0.04975 0.48776 0.0
C316 C 0.97461 0.07061 0.47069 0.0
C317 C 0.95574 0.0796 0.47019 0.0
C318 C 0.99129 0.08127 0.45189 0.0
C319 C 0.98898 0.10095 0.43344 0.0
C320 C 0.95348 0.09911 0.45161 0.0
C321 C 0.97002 0.1098 0.43346 0.0
C322 C 0.98018 0.99882 0.66699 0.0
C323 C 0.01187 0.97788 0.55514 0.0
C324 C 0.04369 0.97231 0.69731 0.0
C325 C 0.04411 0.95117 0.71266 0.0
C326 C 0.06256 0.94134 0.71059 0.0
C327 C 0.02724 0.94102 0.73287 0.0
C328 C 0.02894 0.92108 0.74991 0.0
C329 C 0.06423 0.92163 0.72792 0.0
C330 C 0.0475 0.91149 0.74733 0.0
C331 C 0.04054 0.02328 0.51436 0.0
H332 H 0.94268 0.07139 0.48356 0.0
H333 H 0.00588 0.07438 0.45149 0.0
H334 H 0.93886 0.10589 0.4508 0.0
H335 H 0.96801 0.12488 0.41841 0.0
H336 H 0.07579 0.94906 0.69628 0.0
H337 H 0.01296 0.94851 0.73545 0.0
H338 H 0.07855 0.91425 0.72676 0.0
H339 H 0.04909 0.89624 0.76131 0.0
Gd340 Gd 0.49995 0.99199 0.54339 0.0
Gd341 Gd 0.51752 0.0305 0.64062 0.0
C342 C 0.48047 0.04704 0.79878 0.0
C343 C 0.48069 0.08307 0.79435 0.0
C344 C 0.49474 0.06334 0.71568 0.0
C345 C 0.49041 0.04604 0.74515 0.0
C346 C 0.49008 0.08206 0.74043 0.0
C347 C 0.47578 0.06561 0.82326 0.0
C348 C 0.47573 0.02938 0.82678 0.0
C349 C 0.48081 0.01127 0.80138 0.0
N350 N 0.49608 0.0283 0.72193 0.0
C351 C 0.49111 0.01098 0.7492 0.0
H352 H 0.49431 0.99667 0.73057 0.0
C353 C 0.51047 0.07889 0.63709 0.0
N354 N 0.5043 0.06198 0.66427 0.0
C355 C 0.50593 0.09768 0.65947 0.0
C356 C 0.49565 0.09929 0.71136 0.0
H357 H 0.51993 0.07793 0.59961 0.0
H358 H 0.46851 0.06662 0.86484 0.0
H359 H 0.52162 0.02602 0.45111 0.0
H360 H 0.46804 0.02955 0.8678 0.0
H361 H 0.4769 0.99746 0.82214 0.0
H362 H 0.47728 0.0973 0.81426 0.0
H363 H 0.49904 0.94452 0.5867 0.0
H364 H 0.5485 0.99323 0.31479 0.0
H365 H 0.53861 0.02526 0.3589 0.0
H366 H 0.54192 0.92557 0.37197 0.0
H367 H 0.51099 0.11091 0.63768 0.0
H368 H 0.49257 0.1139 0.72938 0.0
H369 H 0.5495 0.95624 0.31984 0.0
H370 H 0.50881 0.9117 0.54919 0.0
N371 N 0.52099 0.99444 0.46146 0.0
C372 C 0.54099 0.9934 0.35608 0.0
C373 C 0.53531 0.01147 0.38059 0.0
C374 C 0.53705 0.97576 0.38526 0.0
C375 C 0.52727 0.97675 0.43914 0.0
C376 C 0.52523 0.01173 0.43315 0.0
N377 N 0.51396 0.96072 0.52091 0.0
C378 C 0.52356 0.95945 0.46949 0.0
C379 C 0.51338 0.92499 0.52682 0.0
C380 C 0.52372 0.92349 0.47504 0.0
C381 C 0.50825 0.94372 0.54855 0.0
C382 C 0.52876 0.94076 0.44536 0.0
H383 H 0.52726 0.90892 0.45755 0.0
O384 O 0.47591 0.97059 0.53999 0.0
O385 O 0.4903 0.01678 0.60224 0.0
O386 O 0.52458 1.00078 0.68152 0.0
O387 O 0.51505 0.97562 0.617 0.0
O388 O 0.47595 0.98988 0.61117 0.0
O389 O 0.48232 0.98899 0.46541 0.0
O390 O 0.54195 0.05143 0.64576 0.0
O391 O 0.52693 0.00574 0.58185 0.0
O392 O 0.49196 0.02192 0.50375 0.0
O393 O 0.50351 0.04711 0.56569 0.0
O394 O 0.54143 0.03244 0.57206 0.0
O395 O 0.53586 0.03184 0.7178 0.0
C396 C 0.4762 0.00819 0.62799 0.0
C397 C 0.53808 0.93979 0.39136 0.0
C398 C 0.54232 0.95724 0.36156 0.0
C399 C 0.47128 0.97489 0.48698 0.0
C400 C 0.45015 0.97422 0.47178 0.0
C401 C 0.4402 0.95592 0.47557 0.0
C402 C 0.44014 0.99087 0.45019 0.0
C403 C 0.42029 0.98906 0.43251 0.0
C404 C 0.4204 0.95422 0.45802 0.0
C405 C 0.41044 0.97074 0.43646 0.0
C406 C 0.52255 0.98174 0.66706 0.0
C407 C 0.54093 0.01412 0.55548 0.0
C408 C 0.54701 0.04607 0.69756 0.0
C409 C 0.56833 0.04621 0.71126 0.0
C410 C 0.57868 0.06425 0.70625 0.0
C411 C 0.5781 0.02948 0.73356 0.0
C412 C 0.598 0.03104 0.75124 0.0
C413 C 0.59853 0.06569 0.72359 0.0
C414 C 0.60816 0.04916 0.74632 0.0
C415 C 0.49491 0.04101 0.51705 0.0
H416 H 0.44786 0.94286 0.49133 0.0
H417 H 0.44773 0.00502 0.44629 0.0
H418 H 0.41285 0.94003 0.46043 0.0
H419 H 0.39516 0.96919 0.42193 0.0
H420 H 0.57126 0.07738 0.68997 0.0
H421 H 0.5702 0.01554 0.73861 0.0
H422 H 0.60633 0.07971 0.72033 0.0
H423 H 0.62346 0.05055 0.76087 0.0
Gd424 Gd 0.49073 0.5207 0.63762 0.0
Gd425 Gd 0.52683 0.49899 0.54212 0.0
C426 C 0.58729 0.48159 0.61608 0.0
C427 C 0.60992 0.49795 0.55037 0.0
C428 C 0.57413 0.50336 0.54219 0.0
C429 C 0.57091 0.49062 0.58817 0.0
C430 C 0.5937 0.50671 0.52209 0.0
C431 C 0.60673 0.4855 0.59736 0.0
C432 C 0.58368 0.46823 0.66062 0.0
C433 C 0.56416 0.46377 0.67572 0.0
N434 N 0.55188 0.48603 0.60317 0.0
C435 C 0.5484 0.47262 0.64608 0.0
H436 H 0.53355 0.46889 0.65911 0.0
C437 C 0.56082 0.52058 0.46253 0.0
N438 N 0.55818 0.51103 0.51391 0.0
C439 C 0.57985 0.52464 0.44183 0.0
C440 C 0.5964 0.51785 0.47207 0.0
H441 H 0.54807 0.52488 0.43687 0.0
H442 H 0.6194 0.47851 0.61794 0.0
H443 H 0.48336 0.5516 0.52288 0.0
H444 H 0.59586 0.46102 0.68299 0.0
H445 H 0.5612 0.45337 0.70999 0.0
H446 H 0.62499 0.50027 0.53521 0.0
H447 H 0.4698 0.49223 0.73894 0.0
H448 H 0.42171 0.56574 0.51699 0.0
H449 H 0.45614 0.57122 0.48381 0.0
H450 H 0.39292 0.52453 0.66084 0.0
H451 H 0.58171 0.53251 0.4017 0.0
H452 H 0.61117 0.52056 0.45512 0.0
H453 H 0.39832 0.54805 0.58212 0.0
H454 H 0.43648 0.48558 0.77767 0.0
N455 N 0.4652 0.53506 0.58107 0.0
C456 C 0.43374 0.557 0.53502 0.0
C457 C 0.45315 0.56025 0.51652 0.0
C458 C 0.4301 0.54276 0.57716 0.0
C459 C 0.44632 0.53188 0.59984 0.0
C460 C 0.46872 0.54908 0.53979 0.0
N461 N 0.45925 0.50945 0.66821 0.0
C462 C 0.44325 0.5186 0.64433 0.0
C463 C 0.4381 0.49461 0.73957 0.0
C464 C 0.42148 0.50347 0.71456 0.0
C465 C 0.45695 0.49811 0.71659 0.0
C466 C 0.42393 0.51588 0.66705 0.0
H467 H 0.40693 0.50117 0.73342 0.0
O468 O 0.48735 0.52738 0.72891 0.0
O469 O 0.52321 0.51651 0.62329 0.0
O470 O 0.51008 0.47317 0.58392 0.0
O471 O 0.48697 0.48745 0.64725 0.0
O472 O 0.51237 0.50912 0.70354 0.0
O473 O 0.48704 0.55145 0.6647 0.0
O474 O 0.52903 0.49302 0.45032 0.0
O475 O 0.49418 0.50304 0.55648 0.0
O476 O 0.50723 0.54584 0.59234 0.0
O477 O 0.53221 0.53202 0.53528 0.0
O478 O 0.50439 0.50963 0.47623 0.0
O479 O 0.53764 0.47036 0.51286 0.0
C480 C 0.52829 0.5113 0.67342 0.0
C481 C 0.40778 0.52633 0.64361 0.0
C482 C 0.41086 0.53974 0.59883 0.0
C483 C 0.48517 0.54624 0.71844 0.0
C484 C 0.48203 0.56074 0.76427 0.0
C485 C 0.46742 0.55763 0.8063 0.0
C486 C 0.4943 0.57745 0.76728 0.0
C487 C 0.49258 0.59067 0.81364 0.0
C488 C 0.46522 0.57127 0.85161 0.0
C489 C 0.47793 0.58765 0.85577 0.0
C490 C 0.49599 0.47185 0.62393 0.0
C491 C 0.48845 0.50796 0.50663 0.0
C492 C 0.53751 0.47589 0.459 0.0
C493 C 0.53632 0.46083 0.41424 0.0
C494 C 0.5502 0.4614 0.36921 0.0
C495 C 0.52196 0.44591 0.416 0.0
C496 C 0.52146 0.4316 0.37218 0.0
C497 C 0.54972 0.44699 0.32568 0.0
C498 C 0.53532 0.43209 0.327 0.0
C499 C 0.52222 0.54751 0.55554 0.0
H500 H 0.45782 0.54469 0.8041 0.0
H501 H 0.50596 0.5795 0.73557 0.0
H502 H 0.45399 0.56889 0.88422 0.0
H503 H 0.47668 0.59772 0.89234 0.0
H504 H 0.56144 0.47297 0.36792 0.0
H505 H 0.51118 0.44552 0.45075 0.0
H506 H 0.56043 0.4474 0.29094 0.0
H507 H 0.53491 0.421 0.29282 0.0
Gd508 Gd 1.00009 0.49046 0.63436 0.0
Gd509 Gd 0.02077 0.52816 0.54644 0.0
C510 C 0.04428 0.5879 0.609 0.0
C511 C 0.02855 0.61047 0.54156 0.0
C512 C 0.01984 0.57531 0.54058 0.0
C513 C 0.03354 0.57187 0.58441 0.0
C514 C 0.01733 0.59467 0.51851 0.0
C515 C 0.0419 0.60711 0.58686 0.0
C516 C 0.05696 0.58422 0.65559 0.0
C517 C 0.05845 0.56503 0.67732 0.0
N518 N 0.03576 0.55304 0.60459 0.0
C519 C 0.04776 0.54955 0.65126 0.0
H520 H 0.04915 0.53494 0.66946 0.0
C521 C 0.99667 0.56246 0.47281 0.0
N522 N 0.00926 0.55975 0.51877 0.0
C523 C 0.99357 0.58136 0.45007 0.0
C524 C 1.00394 0.59755 0.47303 0.0
H525 H 0.98942 0.54984 0.45245 0.0
H526 H 0.05025 0.61952 0.60469 0.0
H527 H 0.97231 0.48225 0.51098 0.0
H528 H 0.06541 0.59615 0.67569 0.0
H529 H 0.06797 0.5621 0.71404 0.0
H530 H 0.02694 0.62537 0.52477 0.0
H531 H 0.02907 0.47042 0.73626 0.0
H532 H 0.95963 0.42035 0.50245 0.0
H533 H 0.95525 0.45434 0.4652 0.0
H534 H 0.99665 0.39316 0.65918 0.0
H535 H 0.98357 0.58333 0.41389 0.0
H536 H 1.00175 0.61216 0.45468 0.0
H537 H 0.9749 0.3978 0.57508 0.0
H538 H 0.0349 0.4374 0.77816 0.0
N539 N 0.98717 0.4647 0.57459 0.0
C540 C 0.96756 0.43261 0.52262 0.0
C541 C 0.96497 0.45176 0.50168 0.0
C542 C 0.98025 0.4295 0.56953 0.0
C543 C 0.99028 0.44597 0.59437 0.0
C544 C 0.9747 0.46769 0.52856 0.0
N545 N 0.01195 0.45938 0.66532 0.0
C546 C 1.00291 0.44326 0.64116 0.0
C547 C 0.02611 0.43877 0.73919 0.0
C548 C 0.01721 0.42205 0.71431 0.0
C549 C 0.02301 0.45741 0.71473 0.0
C550 C 1.00532 0.42415 0.66513 0.0
H551 H 0.01923 0.40767 0.73419 0.0
O552 O 0.99428 0.48708 0.72566 0.0
O553 O 1.00313 0.52353 0.62642 0.0
O554 O 0.04683 0.51249 0.59206 0.0
O555 O 0.03338 0.48446 0.63568 0.0
O556 O 0.01194 0.5115 0.70258 0.0
O557 O 0.97021 0.48306 0.66292 0.0
O558 O 0.02415 0.53163 0.45441 0.0
O559 O 0.01769 0.49523 0.55475 0.0
O560 O 0.97454 0.50546 0.58511 0.0
O561 O 0.98771 0.53505 0.5511 0.0
O562 O 0.00867 0.50727 0.47786 0.0
O563 O 0.04963 0.53613 0.51201 0.0
C564 C 0.00829 0.5281 0.6773 0.0
C565 C 0.99517 0.40786 0.64085 0.0
C566 C 0.98275 0.41051 0.59306 0.0
C567 C 0.97592 0.48174 0.7167 0.0
C568 C 0.96154 0.4843 0.76325 0.0
C569 C 0.96362 0.47218 0.81186 0.0
C570 C 0.94571 0.49781 0.75987 0.0
C571 C 0.93187 0.49882 0.80491 0.0
C572 C 0.94983 0.47326 0.85655 0.0
C573 C 0.93391 0.48647 0.85302 0.0
C574 C 0.04878 0.49589 0.62245 0.0
C575 C 0.01195 0.49086 0.50437 0.0
C576 C 0.04277 0.53682 0.45917 0.0
C577 C 0.05595 0.53208 0.41101 0.0
C578 C 0.05042 0.53851 0.35577 0.0
C579 C 0.07463 0.52332 0.41969 0.0
C580 C 0.08788 0.52154 0.37351 0.0
C581 C 0.06351 0.53645 0.30964 0.0
C582 C 0.08224 0.52812 0.31845 0.0
C583 C 0.9725 0.52286 0.55902 0.0
H584 H 0.97584 0.4617 0.81493 0.0
H585 H 0.9441 0.50733 0.72265 0.0
H586 H 0.95146 0.46383 0.89384 0.0
H587 H 0.92328 0.48724 0.88806 0.0
H588 H 0.0361 0.54553 0.34859 0.0
H589 H 0.07906 0.51837 0.46221 0.0
H590 H 0.05921 0.54149 0.26719 0.0
H591 H 0.09224 0.52656 0.2821 0.0
C592 C 0.16691 0.05263 0.13544 0.0
C593 C 0.16293 0.06949 0.1016 0.0
C594 C 0.15426 0.04733 0.18094 0.0
C595 C 0.11548 0.06866 0.27872 0.0
H596 H 0.10381 0.01347 0.31148 0.0
C597 C 0.05266 0.04549 0.43539 0.0
C598 C 0.0559 0.02914 0.47157 0.0
C599 C 0.06651 0.05048 0.3928 0.0
C600 C 0.1071 0.02896 0.30349 0.0
H601 H 0.14172 0.09342 0.0886 0.0
H602 H 0.11992 0.0843 0.16754 0.0
H603 H 0.12593 0.02166 0.2318 0.0
H604 H 0.07623 0.00506 0.49071 0.0
H605 H 0.10042 0.0137 0.41635 0.0
H606 H 0.09654 0.07597 0.35007 0.0
C607 C 0.13305 0.07534 0.15964 0.0
C608 C 0.11982 0.03368 0.25761 0.0
C609 C 0.14562 0.08057 0.11404 0.0
C610 C 0.07341 0.01793 0.46422 0.0
C611 C 0.08717 0.02276 0.42105 0.0
C612 C 0.10275 0.06395 0.32445 0.0
C613 C 0.13727 0.05876 0.19426 0.0
C614 C 0.12408 0.05361 0.24418 0.0
C615 C 0.0839 0.03909 0.38454 0.0
C616 C 0.09823 0.04404 0.33728 0.0
H617 H 0.18021 0.04386 0.12822 0.0
H618 H 0.15817 0.03458 0.20681 0.0
H619 H 0.11871 0.08417 0.27078 0.0
H620 H 0.03933 0.05445 0.43986 0.0
H621 H 0.06331 0.06303 0.36532 0.0
C622 C 0.45883 0.17019 0.15285 0.0
C623 C 0.4443 0.16391 0.11278 0.0
C624 C 0.46495 0.15766 0.19765 0.0
C625 C 0.4666 0.10461 0.23848 0.0
H626 H 0.47189 0.1245 0.39521 0.0
C627 C 0.47579 0.05075 0.42836 0.0
C628 C 0.48851 0.05612 0.47417 0.0
C629 C 0.47072 0.06449 0.38577 0.0
C630 C 0.47074 0.11871 0.3516 0.0
H631 H 0.42488 0.13951 0.08841 0.0
H632 H 0.43562 0.11765 0.1659 0.0
H633 H 0.46313 0.14736 0.31778 0.0
H634 H 0.50594 0.08036 0.51027 0.0
H635 H 0.49732 0.1042 0.43607 0.0
H636 H 0.4744 0.0761 0.27154 0.0
C637 C 0.44239 0.13221 0.16266 0.0
C638 C 0.46569 0.13185 0.30717 0.0
C639 C 0.43615 0.14478 0.11837 0.0
C640 C 0.49585 0.07571 0.47646 0.0
C641 C 0.49088 0.08945 0.43362 0.0
C642 C 0.47176 0.09154 0.28265 0.0
C643 C 0.45683 0.13847 0.20299 0.0
C644 C 0.46329 0.1249 0.25014 0.0
C645 C 0.47839 0.08399 0.38727 0.0
C646 C 0.47363 0.0983 0.34005 0.0
H647 H 0.46515 0.18498 0.15035 0.0
H648 H 0.47613 0.16294 0.22784 0.0
H649 H 0.46529 0.09881 0.19491 0.0
H650 H 0.46977 0.03585 0.42508 0.0
H651 H 0.46072 0.05977 0.35161 0.0
C652 C 0.3571 0.46203 0.15924 0.0
C653 C 0.35914 0.44345 0.13121 0.0
C654 C 0.37042 0.46801 0.20302 0.0
C655 C 0.42014 0.45522 0.27001 0.0
H656 H 0.40123 0.48981 0.39269 0.0
C657 C 0.47047 0.47828 0.4654 0.0
C658 C 0.47073 0.49884 0.47766 0.0
C659 C 0.45609 0.47001 0.4279 0.0
C660 C 0.40678 0.48015 0.35874 0.0
H661 H 0.37778 0.41702 0.12731 0.0
H662 H 0.39986 0.42677 0.20498 0.0
H663 H 0.3783 0.47891 0.31727 0.0
H664 H 0.45644 0.52661 0.45642 0.0
H665 H 0.43039 0.5123 0.39729 0.0
H666 H 0.44859 0.45634 0.3124 0.0
C667 C 0.38826 0.43706 0.19251 0.0
C668 C 0.39362 0.47399 0.31491 0.0
C669 C 0.37521 0.43126 0.14812 0.0
C670 C 0.45603 0.51073 0.4521 0.0
C671 C 0.44121 0.50244 0.41672 0.0
C672 C 0.43322 0.46119 0.31431 0.0
C673 C 0.38611 0.45552 0.22105 0.0
C674 C 0.4001 0.46163 0.26917 0.0
C675 C 0.44128 0.48205 0.40275 0.0
C676 C 0.42682 0.47399 0.35888 0.0
H677 H 0.34493 0.47188 0.14848 0.0
H678 H 0.36833 0.48252 0.22262 0.0
H679 H 0.426 0.44599 0.23557 0.0
H680 H 0.48205 0.46875 0.48247 0.0
H681 H 0.45676 0.45426 0.41786 0.0
C682 C 0.05362 0.35621 0.15261 0.0
C683 C 0.07179 0.35885 0.12356 0.0
C684 C 0.04773 0.36916 0.19741 0.0
C685 C 0.06642 0.41046 0.29712 0.0
H686 H 0.00989 0.4175 0.32231 0.0
C687 C 0.03505 0.46162 0.48361 0.0
C688 C 0.0178 0.47268 0.47072 0.0
C689 C 0.04203 0.44676 0.44514 0.0
C690 C 0.02578 0.416 0.31588 0.0
H691 H 0.09787 0.37784 0.11976 0.0
H692 H 0.08746 0.40057 0.19617 0.0
H693 H 0.02115 0.3954 0.24673 0.0
H694 H 0.99433 0.4765 0.40788 0.0
H695 H 0.006 0.4508 0.34212 0.0
H696 H 0.07081 0.43217 0.36469 0.0
C697 C 0.07783 0.38816 0.1855 0.0
C698 C 0.03236 0.40284 0.27262 0.0
C699 C 0.08382 0.37506 0.14098 0.0
C700 C 0.0075 0.46811 0.41953 0.0
C701 C 0.01426 0.45321 0.3817 0.0
C702 C 0.05979 0.42393 0.34008 0.0
C703 C 0.05962 0.38551 0.21474 0.0
C704 C 0.05281 0.39973 0.26208 0.0
C705 C 0.0318 0.44238 0.39312 0.0
C706 C 0.03929 0.42708 0.34993 0.0
H707 H 0.04408 0.34373 0.14195 0.0
H708 H 0.03388 0.36595 0.21913 0.0
H709 H 0.0823 0.40848 0.29174 0.0
H710 H 0.04361 0.46502 0.5221 0.0
H711 H 0.05552 0.43881 0.45609 0.0
C712 C 0.85061 0.95151 0.02091 0.0
C713 C 0.85733 0.95552 0.07727 0.0
C714 C 0.86351 0.9535 0.97381 0.0
C715 C 0.9166 0.95716 0.93225 0.0
H716 H 0.89721 0.98979 0.80703 0.0
C717 C 0.9711 0.99003 0.76813 0.0
C718 C 0.96514 0.99285 0.7106 0.0
C719 C 0.95741 0.98441 0.81014 0.0
C720 C 0.90285 0.98036 0.84093 0.0
H721 H 0.88275 0.96422 0.12894 0.0
H722 H 0.90552 0.96705 0.04709 0.0
H723 H 0.87467 0.98029 0.88436 0.0
H724 H 0.93985 0.99189 0.65242 0.0
H725 H 0.91596 0.98139 0.72539 0.0
H726 H 0.94461 0.9568 0.88899 0.0
C727 C 0.89033 0.96235 0.03906 0.0
C728 C 0.88988 0.97494 0.88546 0.0
C729 C 0.87736 0.96066 0.08599 0.0
C730 C 0.94497 0.98995 0.69629 0.0
C731 C 0.93124 0.98399 0.7384 0.0
C732 C 0.92948 0.9623 0.88742 0.0
C733 C 0.88343 0.95936 0.98223 0.0
C734 C 0.8967 0.96356 0.9322 0.0
C735 C 0.9373 0.98098 0.79602 0.0
C736 C 0.92296 0.97435 0.84158 0.0
H737 H 0.83511 0.9479 0.01304 0.0
H738 H 0.85777 0.95092 0.93068 0.0
H739 H 0.92227 0.94815 0.96712 0.0
H740 H 0.98642 0.99237 0.7812 0.0
H741 H 0.9627 0.98296 0.85403 0.0
C742 C 0.57265 0.8517 0.01069 0.0
C743 C 0.57008 0.8588 0.0673 0.0
C744 C 0.57087 0.86458 0.96396 0.0
C745 C 0.56916 0.91755 0.92252 0.0
H746 H 0.53215 0.89946 0.80445 0.0
C747 C 0.53248 0.97252 0.76728 0.0
C748 C 0.52931 0.96678 0.70953 0.0
C749 C 0.5388 0.95873 0.80802 0.0
C750 C 0.54277 0.90466 0.83643 0.0
H751 H 0.56434 0.88479 0.12012 0.0
H752 H 0.56172 0.90756 0.03862 0.0
H753 H 0.54269 0.87671 0.88006 0.0
H754 H 0.53045 0.94189 0.64957 0.0
H755 H 0.54175 0.91781 0.72059 0.0
H756 H 0.56931 0.94546 0.87926 0.0
C757 C 0.56522 0.89209 0.03015 0.0
C758 C 0.54881 0.89161 0.8798 0.0
C759 C 0.5668 0.87914 0.07683 0.0
C760 C 0.53254 0.94681 0.69366 0.0
C761 C 0.53901 0.93298 0.73451 0.0
C762 C 0.56326 0.93054 0.87897 0.0
C763 C 0.56656 0.88483 0.97314 0.0
C764 C 0.56182 0.89803 0.92387 0.0
C765 C 0.54239 0.93882 0.79218 0.0
C766 C 0.54969 0.92441 0.83597 0.0
H767 H 0.57483 0.83595 1.00248 0.0
H768 H 0.57217 0.8586 0.9206 0.0
H769 H 0.57939 0.92285 0.95543 0.0
H770 H 0.5299 0.9877 0.78141 0.0
H771 H 0.54071 0.96371 0.85223 0.0
C772 C 0.6549 0.58056 0.01091 0.0
C773 C 0.65686 0.56629 0.05474 0.0
C774 C 0.64128 0.57759 0.96514 0.0
C775 C 0.61923 0.53552 0.88658 0.0
H776 H 0.57968 0.57145 0.82415 0.0
C777 C 0.55357 0.50706 0.75097 0.0
C778 C 0.54682 0.51784 0.70326 0.0
C779 C 0.56861 0.51458 0.78683 0.0
C780 C 0.5909 0.56136 0.84041 0.0
H781 H 0.64468 0.53882 0.08753 0.0
H782 H 0.62132 0.53365 0.00852 0.0
H783 H 0.60185 0.58282 0.90258 0.0
H784 H 0.55028 0.54536 0.65653 0.0
H785 H 0.57645 0.55884 0.72031 0.0
H786 H 0.60843 0.51402 0.82563 0.0
C787 C 0.63047 0.54691 0.00857 0.0
C788 C 0.60355 0.56788 0.88546 0.0
C789 C 0.64384 0.54992 0.05405 0.0
C790 C 0.55559 0.53642 0.69201 0.0
C791 C 0.57037 0.54426 0.72902 0.0
C792 C 0.60677 0.5291 0.84176 0.0
C793 C 0.62952 0.56024 0.96237 0.0
C794 C 0.61746 0.55478 0.9102 0.0
C795 C 0.57699 0.53345 0.77723 0.0
C796 C 0.59202 0.54166 0.81908 0.0
H797 H 0.66473 0.59332 0.01003 0.0
H798 H 0.64079 0.58822 0.93037 0.0
H799 H 0.6301 0.52521 0.90364 0.0
H800 H 0.54673 0.493 0.76169 0.0
H801 H 0.57305 0.50592 0.82385 0.0
C802 C 0.95375 0.66703 1.0002 0.0
C803 C 0.95379 0.66086 0.05793 0.0
C804 C 0.95597 0.65319 0.9549 0.0
C805 C 0.95569 0.59858 0.91927 0.0
H806 H 0.99113 0.61439 0.7968 0.0
C807 C 0.98729 0.53888 0.76148 0.0
C808 C 0.99814 0.54413 0.71212 0.0
C809 C 0.97909 0.55332 0.79837 0.0
C810 C 0.9809 0.60943 0.82947 0.0
H811 H 0.95592 0.63536 0.11354 0.0
H812 H 0.9597 0.61109 0.03488 0.0
H813 H 0.98143 0.63832 0.86924 0.0
H814 H 0.00651 0.56923 0.66049 0.0
H815 H 0.99304 0.59435 0.72364 0.0
H816 H 0.95439 0.57004 0.87972 0.0
C817 C 0.95764 0.62658 0.0241 0.0
C818 C 0.97533 0.62345 0.8718 0.0
C819 C 0.95544 0.64047 0.0694 0.0
C820 C 0.99931 0.56442 0.69899 0.0
C821 C 0.99131 0.57904 0.73622 0.0
C822 C 0.96092 0.58464 0.87637 0.0
C823 C 0.95844 0.63276 0.9661 0.0
C824 C 0.96297 0.61817 0.91815 0.0
C825 C 0.98136 0.57387 0.7878 0.0
C826 C 0.97411 0.58951 0.83103 0.0
H827 H 0.95279 0.68271 0.9902 0.0
H828 H 0.95614 0.6586 0.91108 0.0
H829 H 0.9458 0.59394 0.95337 0.0
H830 H 0.9853 0.52341 0.7725 0.0
H831 H 0.97163 0.54793 0.83623 0.0
C832 C 0.08769 0.2082 0.1342 0.0
C833 C 0.08967 0.22759 0.15639 0.0
C834 C 0.07984 0.19318 0.16837 0.0
C835 C 0.04643 0.18716 0.2903 0.0
H836 H 0.06657 0.13309 0.29365 0.0
C837 C 0.01066 0.1307 0.43734 0.0
C838 C 0.00597 0.11234 0.41179 0.0
C839 C 0.02399 0.14347 0.41067 0.0
C840 C 0.06076 0.14811 0.29287 0.0
H841 H 0.08602 0.24642 0.23195 0.0
H842 H 0.07253 0.22008 0.2921 0.0
H843 H 0.08397 0.1582 0.23712 0.0
H844 H 0.01214 0.09216 0.34082 0.0
H845 H 0.03521 0.11477 0.29288 0.0
H846 H 0.02296 0.17718 0.34445 0.0
C847 C 0.07675 0.21656 0.24811 0.0
C848 C 0.07069 0.16244 0.26061 0.0
C849 C 0.08455 0.23156 0.21396 0.0
C850 C 0.01571 0.10629 0.3612 0.0
C851 C 0.02889 0.1192 0.33395 0.0
C852 C 0.03649 0.17289 0.32223 0.0
C853 C 0.07391 0.19736 0.2252 0.0
C854 C 0.06367 0.18211 0.25945 0.0
C855 C 0.03255 0.13821 0.35743 0.0
C856 C 0.04362 0.15325 0.32426 0.0
H857 H 0.09116 0.2049 0.08953 0.0
H858 H 0.07755 0.17856 0.14947 0.0
H859 H 0.04039 0.2021 0.28888 0.0
H860 H 1.00335 0.13549 0.4767 0.0
H861 H 0.02695 0.15781 0.43052 0.0
C862 C 0.28909 0.08596 0.21302 0.0
C863 C 0.29117 0.08576 0.15283 0.0
C864 C 0.3036 0.0771 0.2476 0.0
C865 C 0.3426 0.03913 0.24119 0.0
H866 H 0.36594 0.06701 0.37214 0.0
C867 C 0.41222 0.00928 0.34736 0.0
C868 C 0.4099 0.0058 0.40636 0.0
C869 C 0.39902 0.02185 0.31904 0.0
C870 C 0.35948 0.05911 0.33573 0.0
H871 H 0.30934 0.07576 0.08113 0.0
H872 H 0.33468 0.06042 0.14124 0.0
H873 H 0.33846 0.08234 0.31864 0.0
H874 H 0.39349 0.01345 0.48351 0.0
H875 H 0.37035 0.03577 0.43396 0.0
H876 H 0.36352 0.01597 0.2578 0.0
C877 C 0.32204 0.0675 0.16189 0.0
C878 C 0.34374 0.06776 0.30552 0.0
C879 C 0.30773 0.0765 0.12759 0.0
C880 C 0.39539 0.01613 0.43786 0.0
C881 C 0.38227 0.02885 0.40963 0.0
C882 C 0.35831 0.03056 0.2711 0.0
C883 C 0.32009 0.06767 0.2221 0.0
C884 C 0.33541 0.05794 0.25751 0.0
C885 C 0.38344 0.03104 0.3496 0.0
C886 C 0.36706 0.0406 0.31803 0.0
H887 H 0.27622 0.09282 0.23308 0.0
H888 H 0.30175 0.07725 0.29399 0.0
H889 H 0.33612 0.03108 0.20505 0.0
H890 H 0.42337 1.00129 0.32264 0.0
H891 H 0.40031 0.02356 0.27278 0.0
C892 C 0.42981 0.28657 0.21951 0.0
C893 C 0.42506 0.29046 0.1616 0.0
C894 C 0.43971 0.3008 0.25294 0.0
C895 C 0.47081 0.34539 0.23585 0.0
H896 H 0.45608 0.35721 0.39435 0.0
C897 C 0.49005 0.4184 0.33369 0.0
C898 C 0.50609 0.41643 0.37175 0.0
C899 C 0.47801 0.4021 0.32187 0.0
C900 C 0.46031 0.35384 0.35029 0.0
H901 H 0.42663 0.31243 0.0937 0.0
H902 H 0.44273 0.33757 0.15276 0.0
H903 H 0.43995 0.32948 0.34284 0.0
H904 H 0.52135 0.39724 0.43187 0.0
H905 H 0.50013 0.36827 0.41044 0.0
H906 H 0.49048 0.37023 0.24249 0.0
C907 C 0.43933 0.32335 0.17197 0.0
C908 C 0.45125 0.33802 0.32097 0.0
C909 C 0.42969 0.30909 0.13847 0.0
C910 C 0.50892 0.39878 0.40233 0.0
C911 C 0.49684 0.3824 0.39043 0.0
C912 C 0.47959 0.36124 0.26477 0.0
C913 C 0.44484 0.31918 0.22908 0.0
C914 C 0.45601 0.3341 0.2629 0.0
C915 C 0.48204 0.38382 0.34798 0.0
C916 C 0.47397 0.36584 0.32141 0.0
H917 H 0.42634 0.27233 0.23849 0.0
H918 H 0.44385 0.29719 0.29679 0.0
H919 H 0.47525 0.3423 0.19179 0.0
H920 H 0.48777 0.43206 0.31012 0.0
H921 H 0.46661 0.4033 0.28888 0.0
C922 C 0.21796 0.41543 0.20683 0.0
C923 C 0.22714 0.42618 0.16284 0.0
C924 C 0.20314 0.42448 0.24032 0.0
C925 C 0.16833 0.46678 0.23739 0.0
H926 H 0.16927 0.46361 0.40451 0.0
C927 C 0.12444 0.52157 0.36051 0.0
C928 C 0.10736 0.51209 0.38122 0.0
C929 C 0.14173 0.51066 0.35124 0.0
C930 C 0.169 0.46454 0.35791 0.0
H931 H 0.22831 0.45419 0.11778 0.0
H932 H 0.2028 0.47004 0.17602 0.0
H933 H 0.19282 0.44358 0.34711 0.0
H934 H 0.09539 0.48482 0.41606 0.0
H935 H 0.12575 0.4655 0.39851 0.0
H936 H 0.14506 0.48806 0.2478 0.0
C937 C 0.20661 0.4547 0.18475 0.0
C938 C 0.18221 0.45301 0.32516 0.0
C939 C 0.22126 0.44573 0.15164 0.0
C940 C 0.10847 0.49231 0.39976 0.0
C941 C 0.1258 0.48133 0.39013 0.0
C942 C 0.15548 0.47842 0.26988 0.0
C943 C 0.19743 0.44423 0.22951 0.0
C944 C 0.18218 0.45437 0.26463 0.0
C945 C 0.14196 0.49019 0.36221 0.0
C946 C 0.15598 0.47766 0.33021 0.0
H947 H 0.22251 0.40033 0.21593 0.0
H948 H 0.19618 0.4161 0.27443 0.0
H949 H 0.16762 0.46775 0.19082 0.0
H950 H 0.12387 0.53693 0.34687 0.0
H951 H 0.15417 0.51769 0.32982 0.0
C952 C 0.93094 0.81287 0.04227 0.0
C953 C 0.93574 0.79354 0.02396 0.0
C954 C 0.93314 0.82871 1.00468 0.0
C955 C 0.94615 0.84473 0.85816 0.0
H956 H 0.98587 0.87629 0.93941 0.0
C957 C 0.00572 0.89236 0.74558 0.0
C958 C 0.01175 0.91011 0.77254 0.0
C959 C 0.9917 0.88012 0.77174 0.0
C960 C 0.97447 0.86802 0.91635 0.0
H961 H 0.94373 0.77496 0.95095 0.0
H962 H 0.94763 0.80279 0.88473 0.0
H963 H 0.96728 0.85121 0.99099 0.0
H964 H 0.00763 0.92954 0.84644 0.0
H965 H 0.98295 0.90817 0.8925 0.0
H966 H 0.95384 0.86132 0.78296 0.0
C967 C 0.94221 0.80574 0.92793 0.0
C968 C 0.96382 0.85364 0.94592 0.0
C969 C 0.93995 0.78983 0.96566 0.0
C970 C 1.00298 0.91597 0.82476 0.0
C971 C 0.98905 0.90365 0.85121 0.0
C972 C 0.95674 0.85932 0.82849 0.0
C973 C 0.94022 0.82535 0.94854 0.0
C974 C 0.94962 0.84183 0.91714 0.0
C975 C 0.98364 0.88536 0.82562 0.0
C976 C 0.97112 0.87101 0.85728 0.0
H977 H 0.92755 0.81593 0.08715 0.0
H978 H 0.93121 0.84372 0.02113 0.0
H979 H 0.93542 0.83563 0.83506 0.0
H980 H 0.01242 0.88762 0.70529 0.0
H981 H 0.98801 0.86606 0.75121 0.0
C982 C 0.70598 0.94172 0.05468 0.0
C983 C 0.72558 0.94383 0.03511 0.0
C984 C 0.69026 0.9423 0.01563 0.0
C985 C 0.66829 0.94579 0.87825 0.0
H986 H 0.6574 1.00087 0.91913 0.0
C987 C 0.61943 1.00096 0.74643 0.0
C988 C 0.60801 0.01435 0.77907 0.0
C989 C 0.63192 0.98741 0.7741 0.0
C990 C 0.66002 0.98543 0.9077 0.0
H991 H 0.7446 0.94541 0.96014 0.0
H992 H 0.71682 0.94694 0.89135 0.0
H993 H 0.68308 0.98277 0.97062 0.0
H994 H 0.59945 0.02374 0.8649 0.0
H995 H 0.62098 0.99986 0.9136 0.0
H996 H 0.64501 0.94859 0.81508 0.0
C997 C 0.71369 0.94451 0.93655 0.0
C998 C 0.67478 0.97517 0.93682 0.0
C999 C 0.72951 0.94378 0.97575 0.0
C1000 C 0.60818 0.0134 0.83928 0.0
C1001 C 0.62056 0.99987 0.86689 0.0
C1002 C 0.65332 0.95613 0.84887 0.0
C1003 C 0.69405 0.94512 0.95689 0.0
C1004 C 0.67882 0.95528 0.92286 0.0
C1005 C 0.63311 0.98729 0.83458 0.0
C1006 C 0.64889 0.97596 0.86413 0.0
H1007 H 0.70277 0.94165 0.10046 0.0
H1008 H 0.67516 0.94297 0.03198 0.0
H1009 H 0.67143 0.93045 0.86692 0.0
H1010 H 0.61944 1.00168 0.69978 0.0
H1011 H 0.6415 0.97793 0.74828 0.0
C1012 C 0.59399 0.71064 0.03322 0.0
C1013 C 0.5873 0.72963 0.01803 0.0
C1014 C 0.59245 0.69504 0.99373 0.0
C1015 C 0.57393 0.67708 0.85395 0.0
H1016 H 0.53542 0.65059 0.95137 0.0
C1017 C 0.50956 0.62215 0.78565 0.0
C1018 C 0.50794 0.60576 0.8224 0.0
C1019 C 0.52377 0.63687 0.79721 0.0
C1020 C 0.54629 0.65766 0.9238 0.0
H1021 H 0.5771 0.74818 0.94808 0.0
H1022 H 0.57375 0.72063 0.87934 0.0
H1023 H 0.55598 0.67677 0.99166 0.0
H1024 H 0.5207 0.59045 0.8953 0.0
H1025 H 0.54564 0.61593 0.91519 0.0
H1026 H 0.56361 0.65773 0.78562 0.0
C1027 C 0.5804 0.71783 0.92111 0.0
C1028 C 0.55814 0.67253 0.94689 0.0
C1029 C 0.5822 0.73354 0.96051 0.0
C1030 C 0.52144 0.60335 0.86773 0.0
C1031 C 0.53572 0.61778 0.87867 0.0
C1032 C 0.562 0.66189 0.8306 0.0
C1033 C 0.58379 0.69831 0.93943 0.0
C1034 C 0.57235 0.68206 0.91269 0.0
C1035 C 0.53646 0.63501 0.84505 0.0
C1036 C 0.54842 0.65186 0.86601 0.0
H1037 H 0.59814 0.70744 0.07738 0.0
H1038 H 0.59531 0.68004 0.00838 0.0
H1039 H 0.58445 0.68473 0.82667 0.0
H1040 H 0.4994 0.62388 0.74967 0.0
H1041 H 0.52413 0.65008 0.77086 0.0
C1042 C 0.80967 0.59888 0.01779 0.0
C1043 C 0.78998 0.59243 0.00947 0.0
C1044 C 0.82418 0.59428 0.97682 0.0
C1045 C 0.83418 0.55127 0.89696 0.0
H1046 H 0.87805 0.57892 0.82494 0.0
C1047 C 0.89609 0.50638 0.79218 0.0
C1048 C 0.91544 0.51306 0.80354 0.0
C1049 C 0.87994 0.51896 0.80209 0.0
C1050 C 0.86595 0.57098 0.84507 0.0
H1051 H 0.7694 0.5783 0.94977 0.0
H1052 H 0.7948 0.57009 0.87855 0.0
H1053 H 0.85117 0.59804 0.87036 0.0
H1054 H 0.93361 0.53787 0.83133 0.0
H1055 H 0.90545 0.55973 0.85124 0.0
H1056 H 0.84929 0.52433 0.87682 0.0
C1057 C 0.79897 0.57878 0.91627 0.0
C1058 C 0.85056 0.58194 0.8705 0.0
C1059 C 0.78447 0.58359 0.95679 0.0
C1060 C 0.91867 0.53265 0.82198 0.0
C1061 C 0.90252 0.54513 0.83304 0.0
C1062 C 0.84967 0.54036 0.87281 0.0
C1063 C 0.81904 0.58306 0.9277 0.0
C1064 C 0.83458 0.57211 0.89634 0.0
C1065 C 0.88292 0.53819 0.82511 0.0
C1066 C 0.86578 0.55004 0.84653 0.0
H1067 H 0.81417 0.6057 0.05831 0.0
H1068 H 0.83962 0.59761 0.98645 0.0
H1069 H 0.82223 0.54341 0.91831 0.0
H1070 H 0.89344 0.49121 0.778 0.0
H1071 H 0.86509 0.51329 0.79398 0.0
C1072 C 0.05461 0.20549 0.85546 0.0
C1073 C 0.06899 0.21775 0.82939 0.0
C1074 C 0.04972 0.18662 0.8326 0.0
C1075 C 0.05709 0.15231 0.70181 0.0
H1076 H 0.03477 0.11376 0.80647 0.0
C1077 C 0.03827 0.06858 0.6365 0.0
C1078 C 0.01929 0.06204 0.65412 0.0
C1079 C 0.04609 0.087 0.65645 0.0
C1080 C 0.04092 0.1243 0.77634 0.0
H1081 H 0.08908 0.21886 0.75604 0.0
H1082 H 0.08162 0.18589 0.71904 0.0
H1083 H 0.04483 0.14609 0.84284 0.0
H1084 H 0.99394 0.06986 0.70694 0.0
H1085 H 0.00773 0.10104 0.74343 0.0
H1086 H 0.05361 0.12976 0.6357 0.0
C1087 C 0.07361 0.19102 0.75673 0.0
C1088 C 0.04659 0.14319 0.79721 0.0
C1089 C 0.07821 0.21013 0.77896 0.0
C1090 C 0.00867 0.07422 0.69293 0.0
C1091 C 0.01663 0.0922 0.71393 0.0
C1092 C 0.05171 0.13317 0.68109 0.0
C1093 C 0.05931 0.17872 0.78324 0.0
C1094 C 0.05438 0.15789 0.76037 0.0
C1095 C 0.03535 0.09913 0.69569 0.0
C1096 C 0.04313 0.11896 0.71785 0.0
H1097 H 0.04719 0.21016 0.89462 0.0
H1098 H 0.03821 0.17832 0.85421 0.0
H1099 H 0.06287 0.16285 0.67116 0.0
H1100 H 0.04676 0.05981 0.60582 0.0
H1101 H 0.06055 0.09173 0.6413 0.0
C1102 C 0.30957 0.04843 0.81635 0.0
C1103 C 0.30321 0.06835 0.82074 0.0
C1104 C 0.3282 0.04349 0.79274 0.0
C1105 C 0.37818 0.06531 0.75426 0.0
H1106 H 0.38466 0.01426 0.67794 0.0
C1107 C 0.45349 0.03805 0.6472 0.0
C1108 C 0.45806 0.01774 0.65377 0.0
C1109 C 0.43501 0.04578 0.6661 0.0
C1110 C 0.38327 0.02852 0.69963 0.0
H1111 H 0.31215 0.0987 0.8027 0.0
H1112 H 0.34405 0.09007 0.75965 0.0
H1113 H 0.35194 0.02451 0.71069 0.0
H1114 H 0.44696 0.98993 0.68712 0.0
H1115 H 0.41527 1.00318 0.71998 0.0
H1116 H 0.40971 0.06926 0.74214 0.0
C1117 C 0.33477 0.07818 0.77559 0.0
C1118 C 0.36434 0.03443 0.71876 0.0
C1119 C 0.31616 0.08314 0.79965 0.0
C1120 C 0.44396 0.0056 0.681 0.0
C1121 C 0.42562 0.01321 0.69948 0.0
C1122 C 0.39719 0.05941 0.73467 0.0
C1123 C 0.34123 0.05824 0.77197 0.0
C1124 C 0.36143 0.05274 0.74765 0.0
C1125 C 0.42057 0.03331 0.69134 0.0
C1126 C 0.40013 0.04069 0.70821 0.0
H1127 H 0.30013 0.03649 0.83116 0.0
H1128 H 0.33249 0.02798 0.79193 0.0
H1129 H 0.37681 0.0795 0.77632 0.0
H1130 H 0.4639 0.04782 0.6259 0.0
H1131 H 0.43176 0.06134 0.65902 0.0
C1132 C 0.45539 0.31406 0.86541 0.0
C1133 C 0.44575 0.29935 0.832 0.0
C1134 C 0.4608 0.33236 0.8415 0.0
C1135 C 0.45168 0.365 0.71254 0.0
H1136 H 0.49763 0.39308 0.77365 0.0
C1137 C 0.48567 0.43619 0.60715 0.0
C1138 C 0.49021 0.45192 0.64526 0.0
C1139 C 0.47989 0.41753 0.6284 0.0
C1140 C 0.48468 0.3855 0.75625 0.0
H1141 H 0.43457 0.29256 0.74626 0.0
H1142 H 0.44439 0.3241 0.70421 0.0
H1143 H 0.48884 0.36075 0.81213 0.0
H1144 H 0.49264 0.46041 0.73525 0.0
H1145 H 0.4833 0.42777 0.77234 0.0
H1146 H 0.44808 0.38973 0.65534 0.0
C1147 C 0.4474 0.32178 0.74952 0.0
C1148 C 0.4795 0.3669 0.77864 0.0
C1149 C 0.44181 0.30352 0.77365 0.0
C1150 C 0.4891 0.44857 0.70489 0.0
C1151 C 0.48386 0.42984 0.72611 0.0
C1152 C 0.4571 0.38349 0.68948 0.0
C1153 C 0.45695 0.3366 0.78305 0.0
C1154 C 0.46278 0.35634 0.75763 0.0
C1155 C 0.4791 0.41405 0.68823 0.0
C1156 C 0.47358 0.39407 0.71136 0.0
H1157 H 0.4583 0.31169 0.91079 0.0
H1158 H 0.46763 0.34334 0.86962 0.0
H1159 H 0.43852 0.35773 0.69554 0.0
H1160 H 0.48629 0.43842 0.56098 0.0
H1161 H 0.47637 0.40571 0.59802 0.0
C1162 C 0.20646 0.42977 0.82835 0.0
C1163 C 0.22178 0.44389 0.83596 0.0
C1164 C 0.18821 0.43503 0.80287 0.0
C1165 C 0.16379 0.47297 0.70988 0.0
H1166 H 0.11514 0.45361 0.77896 0.0
C1167 C 0.0856 0.50237 0.63911 0.0
C1168 C 0.06913 0.48946 0.64185 0.0
C1169 C 0.10436 0.49662 0.66067 0.0
C1170 C 0.12849 0.45896 0.75821 0.0
H1171 H 0.22983 0.47458 0.8212 0.0
H1172 H 0.1981 0.48374 0.77631 0.0
H1173 H 0.14719 0.44375 0.81868 0.0
H1174 H 0.06013 0.45986 0.66721 0.0
H1175 H 0.09238 0.44991 0.70421 0.0
H1176 H 0.14517 0.48794 0.64883 0.0
C1177 C 0.2002 0.46856 0.79022 0.0
C1178 C 0.147 0.4533 0.78133 0.0
C1179 C 0.21838 0.46336 0.81644 0.0
C1180 C 0.07217 0.47048 0.66548 0.0
C1181 C 0.09086 0.46473 0.68697 0.0
C1182 C 0.14527 0.47849 0.68636 0.0
C1183 C 0.18473 0.45453 0.78355 0.0
C1184 C 0.16496 0.46028 0.75777 0.0
C1185 C 0.1073 0.47774 0.68554 0.0
C1186 C 0.12724 0.47167 0.71022 0.0
H1187 H 0.20841 0.41468 0.84324 0.0
H1188 H 0.17683 0.42373 0.79807 0.0
H1189 H 0.17724 0.47844 0.6899 0.0
H1190 H 0.08395 0.51711 0.62132 0.0
H1191 H 0.11643 0.50726 0.65899 0.0
C1192 C 0.96079 0.80462 0.42707 0.0
C1193 C 0.9538 0.80229 0.37013 0.0
C1194 C 0.96374 0.82363 0.4517 0.0
C1195 C 0.95727 0.87951 0.42135 0.0
H1196 H 0.99463 0.88383 0.54816 0.0
C1197 C 0.98143 0.9566 0.52583 0.0
C1198 C 1.00196 0.95861 0.5373 0.0
C1199 C 0.97323 0.93804 0.50858 0.0
C1200 C 0.98427 0.88304 0.51235 0.0
H1201 H 0.94435 0.81869 0.2949 0.0
H1202 H 0.95012 0.85137 0.33595 0.0
H1203 H 0.98563 0.85145 0.51152 0.0
H1204 H 0.02945 0.94178 0.54413 0.0
H1205 H 0.01534 0.91001 0.51722 0.0
H1206 H 0.95716 0.91153 0.42086 0.0
C1207 C 0.95284 0.83872 0.36325 0.0
C1208 C 0.9787 0.86414 0.49149 0.0
C1209 C 0.9495 0.8197 0.33912 0.0
C1210 C 0.01369 0.94123 0.53423 0.0
C1211 C 0.00548 0.92274 0.51917 0.0
C1212 C 0.96313 0.89849 0.44179 0.0
C1213 C 0.96032 0.84123 0.41998 0.0
C1214 C 0.96527 0.8618 0.44482 0.0
C1215 C 0.98517 0.92073 0.50525 0.0
C1216 C 0.97705 0.9006 0.48699 0.0
H1217 H 0.96403 0.79168 0.4529 0.0
H1218 H 0.96878 0.82425 0.49594 0.0
H1219 H 0.94651 0.87895 0.38667 0.0
H1220 H 0.97168 0.96926 0.53055 0.0
H1221 H 0.95745 0.93718 0.4991 0.0
C1222 C 0.71181 0.96074 0.43108 0.0
C1223 C 0.7155 0.95751 0.37201 0.0
C1224 C 0.69231 0.96415 0.45128 0.0
C1225 C 0.64201 0.98025 0.39653 0.0
H1226 H 0.62449 0.96691 0.55043 0.0
C1227 C 0.57099 0.0151 0.49258 0.0
C1228 C 0.55881 1.00422 0.52988 0.0
C1229 C 0.58915 0.00742 0.47297 0.0
C1230 C 0.629 0.97053 0.50699 0.0
H1231 H 0.70142 0.95535 0.28806 0.0
H1232 H 0.66779 0.96068 0.32268 0.0
H1233 H 0.65766 0.95682 0.51801 0.0
H1234 H 0.55639 0.97656 0.57645 0.0
H1235 H 0.58835 0.96301 0.54235 0.0
H1236 H 0.61333 0.99337 0.38457 0.0
C1237 C 0.67977 0.96089 0.35395 0.0
C1238 C 0.64825 0.96498 0.48856 0.0
C1239 C 0.69916 0.95745 0.33396 0.0
C1240 C 0.56525 0.98521 0.5469 0.0
C1241 C 0.58372 0.97756 0.52784 0.0
C1242 C 0.62283 0.98557 0.41464 0.0
C1243 C 0.67594 0.96466 0.41285 0.0
C1244 C 0.65517 0.9699 0.43301 0.0
C1245 C 0.59602 0.98862 0.4906 0.0
C1246 C 0.61604 0.98114 0.47045 0.0
H1247 H 0.72405 0.96085 0.4616 0.0
H1248 H 0.69023 0.96704 0.49684 0.0
H1249 H 0.64659 0.98476 0.35391 0.0
H1250 H 0.56656 0.02984 0.47911 0.0
H1251 H 0.59813 0.01665 0.44528 0.0
C1252 C 0.57682 0.70646 0.34533 0.0
C1253 C 0.56919 0.72346 0.37361 0.0
C1254 C 0.57403 0.68746 0.36821 0.0
C1255 C 0.55649 0.6605 0.50003 0.0
H1256 H 0.54508 0.61859 0.38895 0.0
C1257 C 0.52087 0.585 0.56425 0.0
C1258 C 0.5285 0.56778 0.5373 0.0
C1259 C 0.52674 0.60398 0.54611 0.0
C1260 C 0.5484 0.63006 0.42065 0.0
H1261 H 0.55384 0.73355 0.45074 0.0
H1262 H 0.54811 0.70061 0.48879 0.0
H1263 H 0.55481 0.65126 0.35525 0.0
H1264 H 0.54815 0.5575 0.46936 0.0
H1265 H 0.55847 0.59007 0.43864 0.0
H1266 H 0.54955 0.63924 0.56533 0.0
C1267 C 0.55654 0.70188 0.4493 0.0
C1268 C 0.55412 0.64886 0.4013 0.0
C1269 C 0.5596 0.72089 0.42692 0.0
C1270 C 0.54206 0.57014 0.49177 0.0
C1271 C 0.54786 0.589 0.47356 0.0
C1272 C 0.55059 0.64173 0.51936 0.0
C1273 C 0.56329 0.68481 0.41965 0.0
C1274 C 0.5582 0.66443 0.44065 0.0
C1275 C 0.54027 0.6062 0.50031 0.0
C1276 C 0.54643 0.62627 0.47993 0.0
H1277 H 0.58414 0.70763 0.30398 0.0
H1278 H 0.57994 0.6748 0.34467 0.0
H1279 H 0.55984 0.67189 0.53187 0.0
H1280 H 0.51034 0.58386 0.59936 0.0
H1281 H 0.52042 0.61692 0.56735 0.0
C1282 C 0.80327 0.55031 0.37205 0.0
C1283 C 0.79576 0.56984 0.36889 0.0
C1284 C 0.8225 0.54654 0.39275 0.0
C1285 C 0.86466 0.56847 0.47728 0.0
H1286 H 0.89407 0.52527 0.40541 0.0
C1287 C 0.94775 0.5496 0.53272 0.0
C1288 C 0.9523 0.52931 0.53967 0.0
C1289 C 0.92897 0.55558 0.51223 0.0
C1290 C 0.88603 0.53728 0.42635 0.0
H1291 H 0.80306 0.60076 0.38604 0.0
H1292 H 0.83677 0.59418 0.42154 0.0
H1293 H 0.86126 0.53409 0.36883 0.0
H1294 H 0.94051 0.49946 0.53044 0.0
H1295 H 0.90808 0.50981 0.49361 0.0
H1296 H 0.88976 0.5717 0.53439 0.0
C1297 C 0.82756 0.58172 0.40847 0.0
C1298 C 0.86711 0.54234 0.40544 0.0
C1299 C 0.80821 0.58552 0.38765 0.0
C1300 C 0.93757 0.51519 0.52579 0.0
C1301 C 0.91897 0.52114 0.50425 0.0
C1302 C 0.88373 0.56348 0.49797 0.0
C1303 C 0.83509 0.56215 0.41074 0.0
C1304 C 0.85592 0.55778 0.43116 0.0
C1305 C 0.91439 0.54142 0.49705 0.0
C1306 C 0.89454 0.54759 0.47337 0.0
H1307 H 0.7945 0.5378 0.35693 0.0
H1308 H 0.82747 0.53124 0.39457 0.0
H1309 H 0.85656 0.58035 0.49859 0.0
H1310 H 0.95868 0.5609 0.54329 0.0
H1311 H 0.92603 0.5713 0.5071 0.0
loop_
_geom_bond_atom_site_label_1
_geom_bond_atom_site_label_2
_geom_bond_distance
_geom_bond_site_symmetry_2
_ccdc_geom_bond_type
P0 O11 1.490 . S
P0 C14 1.812 . S
P0 C20 1.803 . S
P0 C26 1.819 . S
H1 C15 0.941 . S
H2 C16 0.939 . S
H3 C18 0.940 . S
H4 C19 0.940 . S
H5 C21 0.939 . S
H6 C22 0.942 . S
H7 C24 0.940 . S
H8 C25 0.939 . S
H9 C27 0.941 . S
H10 C31 0.939 . S
O11 P0 1.490 . S
H12 C28 0.939 . S
H13 C30 0.948 . S
C14 P0 1.812 . S
C14 C15 1.389 . S
C14 C19 1.391 . S
C15 H1 0.941 . S
C15 C14 1.389 . S
C15 C16 1.397 . S
C16 H2 0.939 . S
C16 C15 1.397 . S
C16 C17 1.378 . S
C17 C16 1.378 . S
C17 C18 1.378 . S
C18 H3 0.940 . S
C18 C17 1.378 . S
C18 C19 1.396 . S
C19 H4 0.940 . S
C19 C14 1.391 . S
C19 C18 1.396 . S
C20 P0 1.803 . S
C20 C21 1.378 . S
C20 C25 1.400 . S
C21 H5 0.939 . S
C21 C20 1.378 . S
C21 C22 1.361 . S
C22 H6 0.942 . S
C22 C21 1.361 . S
C22 C23 1.369 . S
C23 C22 1.369 . S
C23 C24 1.404 . S
C24 H7 0.940 . S
C24 C23 1.404 . S
C24 C25 1.389 . S
C25 H8 0.939 . S
C25 C20 1.400 . S
C25 C24 1.389 . S
C26 P0 1.819 . S
C26 C27 1.391 . S
C26 C31 1.391 . S
C27 H9 0.941 . S
C27 C26 1.391 . S
C27 C28 1.396 . S
C28 H12 0.939 . S
C28 C27 1.396 . S
C28 C29 1.397 . S
C29 C28 1.397 . S
C29 C30 1.385 . S
C30 H13 0.948 . S
C30 C29 1.385 . S
C30 C31 1.388 . S
C31 H10 0.939 . S
C31 C26 1.391 . S
C31 C30 1.388 . S
P32 O43 1.490 . S
P32 C46 1.812 . S
P32 C52 1.803 . S
P32 C58 1.819 . S
H33 C47 0.941 . S
H34 C48 0.939 . S
H35 C50 0.940 . S
H36 C51 0.940 . S
H37 C53 0.939 . S
H38 C54 0.942 . S
H39 C56 0.940 . S
H40 C57 0.939 . S
H41 C59 0.941 . S
H42 C63 0.939 . S
O43 P32 1.490 . S
H44 C60 0.939 . S
H45 C62 0.940 . S
C46 P32 1.812 . S
C46 C47 1.389 . S
C46 C51 1.391 . S
C47 H33 0.941 . S
C47 C46 1.389 . S
C47 C48 1.397 . S
C48 H34 0.939 . S
C48 C47 1.397 . S
C48 C49 1.378 . S
C49 C48 1.378 . S
C49 C50 1.378 . S
C50 H35 0.940 . S
C50 C49 1.378 . S
C50 C51 1.396 . S
C51 H36 0.940 . S
C51 C46 1.391 . S
C51 C50 1.396 . S
C52 P32 1.803 . S
C52 C53 1.378 . S
C52 C57 1.400 . S
C53 H37 0.939 . S
C53 C52 1.378 . S
C53 C54 1.361 . S
C54 H38 0.942 . S
C54 C53 1.361 . S
C54 C55 1.369 . S
C55 C54 1.369 . S
C55 C56 1.404 . S
C56 H39 0.940 . S
C56 C55 1.404 . S
C56 C57 1.389 . S
C57 H40 0.939 . S
C57 C52 1.400 . S
C57 C56 1.389 . S
C58 P32 1.819 . S
C58 C59 1.391 . S
C58 C63 1.391 . S
C59 H41 0.941 . S
C59 C58 1.391 . S
C59 C60 1.396 . S
C60 H44 0.939 . S
C60 C59 1.396 . S
C60 C61 1.397 . S
C61 C60 1.397 . S
C61 C62 1.385 . S
C62 H45 0.940 . S
C62 C61 1.385 . S
C62 C63 1.388 . S
C63 H42 0.939 . S
C63 C58 1.391 . S
C63 C62 1.388 . S
P64 O75 1.490 . S
P64 C78 1.812 . S
P64 C84 1.803 . S
P64 C90 1.819 . S
H65 C79 0.941 . S
H66 C80 0.939 . S
H67 C82 0.940 . S
H68 C83 0.940 . S
H69 C85 0.939 . S
H70 C86 0.942 . S
H71 C88 0.940 . S
H72 C89 0.939 . S
H73 C91 0.941 . S
H74 C95 0.939 . S
O75 P64 1.490 . S
H76 C92 0.939 . S
H77 C94 0.940 . S
C78 P64 1.812 . S
C78 C79 1.389 . S
C78 C83 1.391 . S
C79 H65 0.941 . S
C79 C78 1.389 . S
C79 C80 1.397 . S
C80 H66 0.939 . S
C80 C79 1.397 . S
C80 C81 1.378 . S
C81 C80 1.378 . S
C81 C82 1.378 . S
C82 H67 0.940 . S
C82 C81 1.378 . S
C82 C83 1.396 . S
C83 H68 0.940 . S
C83 C78 1.391 . S
C83 C82 1.396 . S
C84 P64 1.803 . S
C84 C85 1.378 . S
C84 C89 1.400 . S
C85 H69 0.939 . S
C85 C84 1.378 . S
C85 C86 1.361 . S
C86 H70 0.942 . S
C86 C85 1.361 . S
C86 C87 1.369 . S
C87 C86 1.369 . S
C87 C88 1.404 . S
C88 H71 0.940 . S
C88 C87 1.404 . S
C88 C89 1.389 . S
C89 H72 0.939 . S
C89 C84 1.400 . S
C89 C88 1.389 . S
C90 P64 1.819 . S
C90 C91 1.391 . S
C90 C95 1.391 . S
C91 H73 0.941 . S
C91 C90 1.391 . S
C91 C92 1.396 . S
C92 H76 0.939 . S
C92 C91 1.396 . S
C92 C93 1.397 . S
C93 C92 1.397 . S
C93 C94 1.385 . S
C94 H77 0.940 . S
C94 C93 1.385 . S
C94 C95 1.388 . S
C95 H74 0.939 . S
C95 C90 1.391 . S
C95 C94 1.388 . S
P96 O107 1.490 . S
P96 C110 1.812 . S
P96 C116 1.803 . S
P96 C122 1.819 . S
H97 C111 0.941 . S
H98 C112 0.939 . S
H99 C114 0.940 . S
H100 C115 0.940 . S
H101 C117 0.939 . S
H102 C118 0.942 . S
H103 C120 0.940 . S
H104 C121 0.939 . S
H105 C123 0.941 . S
H106 C127 0.939 . S
O107 P96 1.490 . S
H108 C124 0.939 . S
H109 C126 0.940 . S
C110 P96 1.812 . S
C110 C111 1.389 . S
C110 C115 1.391 . S
C111 H97 0.941 . S
C111 C110 1.389 . S
C111 C112 1.397 . S
C112 H98 0.939 . S
C112 C111 1.397 . S
C112 C113 1.378 . S
C113 C112 1.378 . S
C113 C114 1.378 . S
C114 H99 0.940 . S
C114 C113 1.378 . S
C114 C115 1.396 . S
C115 H100 0.940 . S
C115 C110 1.391 . S
C115 C114 1.396 . S
C116 P96 1.803 . S
C116 C117 1.378 . S
C116 C121 1.400 . S
C117 H101 0.939 . S
C117 C116 1.378 . S
C117 C118 1.361 . S
C118 H102 0.942 . S
C118 C117 1.361 . S
C118 C119 1.369 . S
C119 C118 1.369 . S
C119 C120 1.404 . S
C120 H103 0.940 . S
C120 C119 1.404 . S
C120 C121 1.389 . S
C121 H104 0.939 . S
C121 C116 1.400 . S
C121 C120 1.389 . S
C122 P96 1.819 . S
C122 C123 1.391 . S
C122 C127 1.391 . S
C123 H105 0.941 . S
C123 C122 1.391 . S
C123 C124 1.396 . S
C124 H108 0.939 . S
C124 C123 1.396 . S
C124 C125 1.397 . S
C125 C124 1.397 . S
C125 C126 1.385 . S
C126 H109 0.940 . S
C126 C125 1.385 . S
C126 C127 1.388 . S
C127 H106 0.939 . S
C127 C122 1.391 . S
C127 C126 1.388 . S
P128 O139 1.490 . S
P128 C142 1.812 1_554 S
P128 C148 1.803 . S
P128 C154 1.819 . S
H129 C143 0.941 . S
H130 C144 0.939 . S
H131 C146 0.940 . S
H132 C147 0.940 . S
H133 C149 0.939 . S
H134 C150 0.942 . S
H135 C152 0.940 . S
H136 C153 0.939 1_556 S
H137 C155 0.941 . S
H138 C159 0.939 . S
O139 P128 1.490 . S
H140 C156 0.939 . S
H141 C158 0.940 . S
C142 P128 1.812 1_556 S
C142 C143 1.389 . S
C142 C147 1.391 . S
C143 H129 0.941 . S
C143 C142 1.389 . S
C143 C144 1.397 . S
C144 H130 0.939 . S
C144 C143 1.397 . S
C144 C145 1.378 . S
C145 C144 1.378 . S
C145 C146 1.378 . S
C146 H131 0.940 . S
C146 C145 1.378 . S
C146 C147 1.396 . S
C147 H132 0.940 . S
C147 C142 1.391 . S
C147 C146 1.396 . S
C148 P128 1.803 . S
C148 C149 1.378 . S
C148 C153 1.400 . S
C149 H133 0.939 . S
C149 C148 1.378 . S
C149 C150 1.361 . S
C150 H134 0.942 . S
C150 C149 1.361 . S
C150 C151 1.369 . S
C151 C150 1.369 . S
C151 C152 1.404 . S
C152 H135 0.940 . S
C152 C151 1.404 . S
C152 C153 1.389 . S
C153 H136 0.939 1_554 S
C153 C148 1.400 . S
C153 C152 1.389 . S
C154 P128 1.819 . S
C154 C155 1.391 . S
C154 C159 1.391 . S
C155 H137 0.941 . S
C155 C154 1.391 . S
C155 C156 1.396 . S
C156 H140 0.939 . S
C156 C155 1.396 . S
C156 C157 1.397 . S
C157 C156 1.397 . S
C157 C158 1.385 . S
C158 H141 0.940 . S
C158 C157 1.385 . S
C158 C159 1.388 . S
C159 H138 0.939 . S
C159 C154 1.391 . S
C159 C158 1.388 . S
P160 O171 1.490 . S
P160 C174 1.812 1_554 S
P160 C180 1.803 . S
P160 C186 1.819 . S
H161 C175 0.941 . S
H162 C176 0.939 . S
H163 C178 0.940 . S
H164 C179 0.940 . S
H165 C181 0.939 . S
H166 C182 0.942 . S
H167 C184 0.940 . S
H168 C185 0.939 1_556 S
H169 C187 0.941 . S
H170 C191 0.939 . S
O171 P160 1.490 . S
H172 C188 0.939 . S
H173 C190 0.940 . S
C174 P160 1.812 1_556 S
C174 C175 1.389 . S
C174 C179 1.391 . S
C175 H161 0.941 . S
C175 C174 1.389 . S
C175 C176 1.397 . S
C176 H162 0.939 . S
C176 C175 1.397 . S
C176 C177 1.378 . S
C177 C176 1.378 . S
C177 C178 1.378 . S
C178 H163 0.940 . S
C178 C177 1.378 . S
C178 C179 1.396 . S
C179 H164 0.940 . S
C179 C174 1.391 . S
C179 C178 1.396 . S
C180 P160 1.803 . S
C180 C181 1.378 . S
C180 C185 1.400 . S
C181 H165 0.939 . S
C181 C180 1.378 . S
C181 C182 1.361 . S
C182 H166 0.942 . S
C182 C181 1.361 . S
C182 C183 1.369 . S
C183 C182 1.369 . S
C183 C184 1.404 . S
C184 H167 0.940 . S
C184 C183 1.404 . S
C184 C185 1.389 . S
C185 H168 0.939 1_554 S
C185 C180 1.400 . S
C185 C184 1.389 . S
C186 P160 1.819 . S
C186 C187 1.391 . S
C186 C191 1.391 . S
C187 H169 0.941 . S
C187 C186 1.391 . S
C187 C188 1.396 . S
C188 H172 0.939 . S
C188 C187 1.396 . S
C188 C189 1.397 . S
C189 C188 1.397 . S
C189 C190 1.385 . S
C190 H173 0.940 . S
C190 C189 1.385 . S
C190 C191 1.388 . S
C191 H170 0.939 . S
C191 C186 1.391 . S
C191 C190 1.388 . S
P192 O203 1.490 . S
P192 C206 1.812 1_554 S
P192 C212 1.803 . S
P192 C218 1.819 . S
H193 C207 0.941 . S
H194 C208 0.939 . S
H195 C210 0.940 . S
H196 C211 0.940 . S
H197 C213 0.939 . S
H198 C214 0.942 . S
H199 C216 0.940 . S
H200 C217 0.939 1_556 S
H201 C219 0.941 . S
H202 C223 0.939 . S
O203 P192 1.490 . S
H204 C220 0.939 . S
H205 C222 0.940 . S
C206 P192 1.812 1_556 S
C206 C207 1.389 . S
C206 C211 1.391 . S
C207 H193 0.941 . S
C207 C206 1.389 . S
C207 C208 1.397 . S
C208 H194 0.939 . S
C208 C207 1.397 . S
C208 C209 1.378 . S
C209 C208 1.378 . S
C209 C210 1.378 . S
C210 H195 0.940 . S
C210 C209 1.378 . S
C210 C211 1.396 . S
C211 H196 0.940 . S
C211 C206 1.391 . S
C211 C210 1.396 . S
C212 P192 1.803 . S
C212 C213 1.378 . S
C212 C217 1.400 . S
C213 H197 0.939 . S
C213 C212 1.378 . S
C213 C214 1.361 . S
C214 H198 0.942 . S
C214 C213 1.361 . S
C214 C215 1.369 . S
C215 C214 1.369 . S
C215 C216 1.404 . S
C216 H199 0.940 . S
C216 C215 1.404 . S
C216 C217 1.389 . S
C217 H200 0.939 1_554 S
C217 C212 1.400 . S
C217 C216 1.389 . S
C218 P192 1.819 . S
C218 C219 1.391 . S
C218 C223 1.391 . S
C219 H201 0.941 . S
C219 C218 1.391 . S
C219 C220 1.396 . S
C220 H204 0.939 . S
C220 C219 1.396 . S
C220 C221 1.397 . S
C221 C220 1.397 . S
C221 C222 1.385 . S
C222 H205 0.940 . S
C222 C221 1.385 . S
C222 C223 1.388 . S
C223 H202 0.939 . S
C223 C218 1.391 . S
C223 C222 1.388 . S
P224 O235 1.490 . S
P224 C238 1.812 1_554 S
P224 C244 1.803 . S
P224 C250 1.819 . S
H225 C239 0.941 . S
H226 C240 0.939 . S
H227 C242 0.940 . S
H228 C243 0.940 . S
H229 C245 0.939 . S
H230 C246 0.942 . S
H231 C248 0.940 . S
H232 C249 0.939 1_556 S
H233 C251 0.941 . S
H234 C255 0.939 . S
O235 P224 1.490 . S
H236 C252 0.939 . S
H237 C254 0.940 . S
C238 P224 1.812 1_556 S
C238 C239 1.389 . S
C238 C243 1.391 . S
C239 H225 0.941 . S
C239 C238 1.389 . S
C239 C240 1.397 . S
C240 H226 0.939 . S
C240 C239 1.397 . S
C240 C241 1.378 . S
C241 C240 1.378 . S
C241 C242 1.378 . S
C242 H227 0.940 . S
C242 C241 1.378 . S
C242 C243 1.396 . S
C243 H228 0.940 . S
C243 C238 1.391 . S
C243 C242 1.396 . S
C244 P224 1.803 . S
C244 C245 1.378 . S
C244 C249 1.400 . S
C245 H229 0.939 . S
C245 C244 1.378 . S
C245 C246 1.361 . S
C246 H230 0.942 . S
C246 C245 1.361 . S
C246 C247 1.369 . S
C247 C246 1.369 . S
C247 C248 1.404 . S
C248 H231 0.940 . S
C248 C247 1.404 . S
C248 C249 1.389 . S
C249 H232 0.939 1_554 S
C249 C244 1.400 . S
C249 C248 1.389 . S
C250 P224 1.819 . S
C250 C251 1.391 . S
C250 C255 1.391 . S
C251 H233 0.941 . S
C251 C250 1.391 . S
C251 C252 1.396 . S
C252 H236 0.939 . S
C252 C251 1.396 . S
C252 C253 1.397 . S
C253 C252 1.397 . S
C253 C254 1.385 . S
C254 H237 0.940 . S
C254 C253 1.385 . S
C254 C255 1.388 . S
C255 H234 0.939 . S
C255 C250 1.391 . S
C255 C254 1.388 . S
Gd256 N287 2.661 . S
Gd256 N293 2.601 . S
Gd256 O300 2.545 . S
Gd256 O301 2.606 1_655 S
Gd256 O303 2.429 . S
Gd256 O304 2.545 1_655 S
Gd256 O305 2.412 . S
Gd256 O307 2.362 1_545 S
Gd256 O308 2.324 1_655 S
Gd256 C315 2.828 . S
Gd257 N266 2.661 1_565 S
Gd257 N270 2.601 . S
Gd257 O301 2.362 1_565 S
Gd257 O302 2.324 1_455 S
Gd257 O306 2.545 . S
Gd257 O307 2.606 1_455 S
Gd257 O309 2.429 . S
Gd257 O310 2.545 . S
Gd257 O311 2.412 . S
Gd257 C324 2.828 . S
C258 C261 1.417 . S
C258 C263 1.431 . S
C258 C264 1.412 . S
C259 C262 1.437 . S
C259 C263 1.317 . S
C259 H278 0.929 . S
C260 C261 1.426 . S
C260 C262 1.413 . S
C260 N270 1.359 1_545 S
C261 C258 1.417 . S
C261 C260 1.426 . S
C261 N266 1.350 . S
C262 C259 1.437 . S
C262 C260 1.413 . S
C262 C272 1.391 1_545 S
C263 C258 1.431 . S
C263 C259 1.317 . S
C263 H274 0.930 . S
C264 C258 1.412 . S
C264 C265 1.355 . S
C264 H276 0.930 . S
C265 C264 1.355 . S
C265 C267 1.402 . S
C265 H277 0.930 1_455 S
N266 Gd257 2.661 1_545 S
N266 C261 1.350 . S
N266 C267 1.307 . S
C267 C265 1.402 . S
C267 N266 1.307 . S
C267 H268 0.930 1_455 S
H268 C267 0.930 1_655 S
C269 N270 1.334 . S
C269 C271 1.394 . S
C269 H273 0.930 . S
N270 Gd257 2.601 . S
N270 C260 1.359 1_565 S
N270 C269 1.334 . S
C271 C269 1.394 . S
C271 C272 1.359 . S
C271 H283 0.930 . S
C272 C262 1.391 1_565 S
C272 C271 1.359 . S
C272 H284 0.933 . S
H273 C269 0.930 . S
H274 C263 0.930 . S
H275 C292 0.930 . S
H276 C264 0.930 . S
H277 C265 0.930 1_655 S
H278 C259 0.929 . S
H279 C297 0.930 . S
H280 C288 0.930 . S
H281 C289 0.930 . S
H282 C313 0.929 . S
H283 C271 0.930 . S
H284 C272 0.933 . S
H285 C314 0.930 . S
H286 C295 0.930 . S
N287 Gd256 2.661 . S
N287 C291 1.350 1_545 S
N287 C292 1.307 1_645 S
C288 H280 0.930 . S
C288 C289 1.355 1_655 S
C288 C290 1.412 . S
C289 H281 0.930 . S
C289 C288 1.355 1_455 S
C289 C292 1.402 . S
C290 C288 1.412 . S
C290 C291 1.417 . S
C290 C314 1.431 . S
C291 N287 1.350 1_565 S
C291 C290 1.417 . S
C291 C294 1.426 1_565 S
C292 H275 0.930 . S
C292 N287 1.307 1_465 S
C292 C289 1.402 . S
N293 Gd256 2.601 . S
N293 C294 1.359 . S
N293 C297 1.334 . S
C294 C291 1.426 1_545 S
C294 N293 1.359 . S
C294 C298 1.413 . S
C295 H286 0.930 . S
C295 C296 1.359 . S
C295 C297 1.394 . S
C296 C295 1.359 . S
C296 C298 1.391 . S
C296 H299 0.929 . S
C297 H279 0.930 . S
C297 N293 1.334 . S
C297 C295 1.394 . S
C298 C294 1.413 . S
C298 C296 1.391 . S
C298 C313 1.437 1_545 S
H299 C296 0.929 . S
O300 Gd256 2.545 . S
O300 C315 1.258 . S
O301 Gd256 2.606 1_455 S
O301 Gd257 2.362 1_545 S
O301 C312 1.284 . S
O302 Gd257 2.324 1_655 S
O302 C322 1.254 1_565 S
O303 Gd256 2.429 . S
O303 C322 1.268 . S
O304 Gd256 2.545 1_455 S
O304 C312 1.250 . S
O305 Gd256 2.412 . S
O305 C315 1.252 . S
O306 Gd257 2.545 . S
O306 C324 1.258 . S
O307 Gd256 2.362 1_565 S
O307 Gd257 2.606 1_655 S
O307 C323 1.284 . S
O308 Gd256 2.324 1_455 S
O308 C331 1.254 . S
O309 Gd257 2.429 . S
O309 C331 1.268 1_565 S
O310 Gd257 2.545 . S
O310 C323 1.250 1_455 S
O311 Gd257 2.412 . S
O311 C324 1.252 . S
C312 O301 1.284 . S
C312 O304 1.250 . S
C313 H282 0.929 . S
C313 C298 1.437 1_565 S
C313 C314 1.317 . S
C314 H285 0.930 . S
C314 C290 1.431 . S
C314 C313 1.317 . S
C315 Gd256 2.828 . S
C315 O300 1.258 . S
C315 O305 1.252 . S
C315 C316 1.497 . S
C316 C315 1.497 . S
C316 C317 1.395 . S
C316 C318 1.380 . S
C317 C316 1.395 . S
C317 C320 1.398 . S
C317 H332 0.930 . S
C318 C316 1.380 . S
C318 C319 1.391 . S
C318 H333 0.930 1_655 S
C319 C318 1.391 . S
C319 C321 1.387 . S
C320 C317 1.398 . S
C320 C321 1.380 . S
C320 H334 0.930 . S
C321 C319 1.387 . S
C321 C320 1.380 . S
C321 H335 0.930 . S
C322 O302 1.254 1_545 S
C322 O303 1.268 . S
C323 O307 1.284 . S
C323 O310 1.250 1_655 S
C324 Gd257 2.828 . S
C324 O306 1.258 . S
C324 O311 1.252 . S
C324 C325 1.497 . S
C325 C324 1.497 . S
C325 C326 1.395 . S
C325 C327 1.380 . S
C326 C325 1.395 . S
C326 C329 1.398 . S
C326 H336 0.930 . S
C327 C325 1.380 . S
C327 C328 1.391 . S
C327 H337 0.930 1_455 S
C328 C327 1.391 . S
C328 C330 1.387 . S
C329 C326 1.398 . S
C329 C330 1.380 . S
C329 H338 0.930 . S
C330 C328 1.387 . S
C330 C329 1.380 . S
C330 H339 0.930 . S
C331 O308 1.254 . S
C331 O309 1.268 1_545 S
H332 C317 0.930 . S
H333 C318 0.930 1_455 S
H334 C320 0.930 . S
H335 C321 0.930 . S
H336 C326 0.930 . S
H337 C327 0.930 1_655 S
H338 C329 0.930 . S
H339 C330 0.930 . S
Gd340 N371 2.661 . S
Gd340 N377 2.601 . S
Gd340 O384 2.545 . S
Gd340 O385 2.606 1_565 S
Gd340 O387 2.429 . S
Gd340 O388 2.545 1_565 S
Gd340 O389 2.412 . S
Gd340 O391 2.362 . S
Gd340 O392 2.324 1_565 S
Gd340 C399 2.828 . S
Gd341 N350 2.661 . S
Gd341 N354 2.601 . S
Gd341 O385 2.362 . S
Gd341 O386 2.324 1_545 S
Gd341 O390 2.545 . S
Gd341 O391 2.606 1_545 S
Gd341 O393 2.429 . S
Gd341 O394 2.545 . S
Gd341 O395 2.412 . S
Gd341 C408 2.828 . S
C342 C345 1.417 . S
C342 C347 1.431 . S
C342 C348 1.412 . S
C343 C346 1.437 . S
C343 C347 1.317 . S
C343 H362 0.929 . S
C344 C345 1.426 . S
C344 C346 1.413 . S
C344 N354 1.359 . S
C345 C342 1.417 . S
C345 C344 1.426 . S
C345 N350 1.350 . S
C346 C343 1.437 . S
C346 C344 1.413 . S
C346 C356 1.391 . S
C347 C342 1.431 . S
C347 C343 1.317 . S
C347 H358 0.930 . S
C348 C342 1.412 . S
C348 C349 1.355 . S
C348 H360 0.930 . S
C349 C348 1.355 . S
C349 C351 1.402 . S
C349 H361 0.930 1_545 S
N350 Gd341 2.661 . S
N350 C345 1.350 . S
N350 C351 1.307 . S
C351 C349 1.402 . S
C351 N350 1.307 . S
C351 H352 0.930 1_545 S
H352 C351 0.930 1_565 S
C353 N354 1.334 . S
C353 C355 1.394 . S
C353 H357 0.930 . S
N354 Gd341 2.601 . S
N354 C344 1.359 . S
N354 C353 1.334 . S
C355 C353 1.394 . S
C355 C356 1.359 . S
C355 H367 0.930 . S
C356 C346 1.391 . S
C356 C355 1.359 . S
C356 H368 0.929 . S
H357 C353 0.930 . S
H358 C347 0.930 . S
H359 C376 0.930 . S
H360 C348 0.930 . S
H361 C349 0.930 1_565 S
H362 C343 0.929 . S
H363 C381 0.930 . S
H364 C372 0.930 . S
H365 C373 0.930 . S
H366 C397 0.929 . S
H367 C355 0.930 . S
H368 C356 0.929 . S
H369 C398 0.930 . S
H370 C379 0.930 . S
N371 Gd340 2.661 . S
N371 C375 1.350 . S
N371 C376 1.307 1_565 S
C372 H364 0.930 . S
C372 C373 1.355 1_565 S
C372 C374 1.412 . S
C373 H365 0.930 . S
C373 C372 1.355 1_545 S
C373 C376 1.402 . S
C374 C372 1.412 . S
C374 C375 1.417 . S
C374 C398 1.431 . S
C375 N371 1.350 . S
C375 C374 1.417 . S
C375 C378 1.426 . S
C376 H359 0.930 . S
C376 N371 1.307 1_545 S
C376 C373 1.402 . S
N377 Gd340 2.601 . S
N377 C378 1.359 . S
N377 C381 1.334 . S
C378 C375 1.426 . S
C378 N377 1.359 . S
C378 C382 1.413 . S
C379 H370 0.930 . S
C379 C380 1.359 . S
C379 C381 1.394 . S
C380 C379 1.359 . S
C380 C382 1.391 . S
C380 H383 0.929 . S
C381 H363 0.930 . S
C381 N377 1.334 . S
C381 C379 1.394 . S
C382 C378 1.413 . S
C382 C380 1.391 . S
C382 C397 1.437 . S
H383 C380 0.929 . S
O384 Gd340 2.545 . S
O384 C399 1.258 . S
O385 Gd340 2.606 1_545 S
O385 Gd341 2.362 . S
O385 C396 1.284 . S
O386 Gd341 2.324 1_565 S
O386 C406 1.254 . S
O387 Gd340 2.429 . S
O387 C406 1.268 . S
O388 Gd340 2.545 1_545 S
O388 C396 1.250 . S
O389 Gd340 2.412 . S
O389 C399 1.252 . S
O390 Gd341 2.545 . S
O390 C408 1.258 . S
O391 Gd340 2.362 . S
O391 Gd341 2.606 1_565 S
O391 C407 1.284 . S
O392 Gd340 2.324 1_545 S
O392 C415 1.254 . S
O393 Gd341 2.429 . S
O393 C415 1.268 . S
O394 Gd341 2.545 . S
O394 C407 1.250 1_545 S
O395 Gd341 2.412 . S
O395 C408 1.252 . S
C396 O385 1.284 . S
C396 O388 1.250 . S
C397 H366 0.929 . S
C397 C382 1.437 . S
C397 C398 1.317 . S
C398 H369 0.930 . S
C398 C374 1.431 . S
C398 C397 1.317 . S
C399 Gd340 2.828 . S
C399 O384 1.258 . S
C399 O389 1.252 . S
C399 C400 1.497 . S
C400 C399 1.497 . S
C400 C401 1.395 . S
C400 C402 1.380 . S
C401 C400 1.395 . S
C401 C404 1.398 . S
C401 H416 0.930 . S
C402 C400 1.380 . S
C402 C403 1.391 . S
C402 H417 0.930 1_565 S
C403 C402 1.391 . S
C403 C405 1.387 . S
C404 C401 1.398 . S
C404 C405 1.380 . S
C404 H418 0.930 . S
C405 C403 1.387 . S
C405 C404 1.380 . S
C405 H419 0.930 . S
C406 O386 1.254 . S
C406 O387 1.268 . S
C407 O391 1.284 . S
C407 O394 1.250 1_565 S
C408 Gd341 2.828 . S
C408 O390 1.258 . S
C408 O395 1.252 . S
C408 C409 1.497 . S
C409 C408 1.497 . S
C409 C410 1.395 . S
C409 C411 1.380 . S
C410 C409 1.395 . S
C410 C413 1.398 . S
C410 H420 0.930 . S
C411 C409 1.380 . S
C411 C412 1.391 . S
C411 H421 0.948 . S
C412 C411 1.391 . S
C412 C414 1.387 . S
C413 C410 1.398 . S
C413 C414 1.380 . S
C413 H422 0.930 . S
C414 C412 1.387 . S
C414 C413 1.380 . S
C414 H423 0.930 . S
C415 O392 1.254 . S
C415 O393 1.268 . S
H416 C401 0.930 . S
H417 C402 0.930 1_545 S
H418 C404 0.930 . S
H419 C405 0.930 . S
H420 C410 0.930 . S
H421 C411 0.948 . S
H422 C413 0.930 . S
H423 C414 0.930 . S
Gd424 N455 2.661 . S
Gd424 N461 2.601 . S
Gd424 O468 2.545 . S
Gd424 O469 2.606 . S
Gd424 O471 2.429 . S
Gd424 O472 2.545 . S
Gd424 O473 2.412 . S
Gd424 O475 2.362 . S
Gd424 O476 2.324 . S
Gd424 C483 2.828 . S
Gd425 N434 2.661 . S
Gd425 N438 2.601 . S
Gd425 O469 2.362 . S
Gd425 O470 2.324 . S
Gd425 O474 2.545 . S
Gd425 O475 2.606 . S
Gd425 O477 2.429 . S
Gd425 O478 2.545 . S
Gd425 O479 2.412 . S
Gd425 C492 2.828 . S
C426 C429 1.417 . S
C426 C431 1.431 . S
C426 C432 1.412 . S
C427 C430 1.437 . S
C427 C431 1.317 . S
C427 H446 0.929 . S
C428 C429 1.426 . S
C428 C430 1.413 . S
C428 N438 1.359 . S
C429 C426 1.417 . S
C429 C428 1.426 . S
C429 N434 1.350 . S
C430 C427 1.437 . S
C430 C428 1.413 . S
C430 C440 1.391 . S
C431 C426 1.431 . S
C431 C427 1.317 . S
C431 H442 0.930 . S
C432 C426 1.412 . S
C432 C433 1.355 . S
C432 H444 0.930 . S
C433 C432 1.355 . S
C433 C435 1.402 . S
C433 H445 0.930 . S
N434 Gd425 2.661 . S
N434 C429 1.350 . S
N434 C435 1.307 . S
C435 C433 1.402 . S
C435 N434 1.307 . S
C435 H436 0.930 . S
H436 C435 0.930 . S
C437 N438 1.334 . S
C437 C439 1.394 . S
C437 H441 0.930 . S
N438 Gd425 2.601 . S
N438 C428 1.359 . S
N438 C437 1.334 . S
C439 C437 1.394 . S
C439 C440 1.359 . S
C439 H451 0.930 . S
C440 C430 1.391 . S
C440 C439 1.359 . S
C440 H452 0.929 . S
H441 C437 0.930 . S
H442 C431 0.930 . S
H443 C460 0.930 . S
H444 C432 0.930 . S
H445 C433 0.930 . S
H446 C427 0.929 . S
H447 C465 0.930 . S
H448 C456 0.930 . S
H449 C457 0.930 . S
H450 C481 0.929 . S
H451 C439 0.930 . S
H452 C440 0.929 . S
H453 C482 0.930 . S
H454 C463 0.930 . S
N455 Gd424 2.661 . S
N455 C459 1.350 . S
N455 C460 1.307 . S
C456 H448 0.930 . S
C456 C457 1.355 . S
C456 C458 1.412 . S
C457 H449 0.930 . S
C457 C456 1.355 . S
C457 C460 1.402 . S
C458 C456 1.412 . S
C458 C459 1.417 . S
C458 C482 1.431 . S
C459 N455 1.350 . S
C459 C458 1.417 . S
C459 C462 1.426 . S
C460 H443 0.930 . S
C460 N455 1.307 . S
C460 C457 1.402 . S
N461 Gd424 2.601 . S
N461 C462 1.359 . S
N461 C465 1.334 . S
C462 C459 1.426 . S
C462 N461 1.359 . S
C462 C466 1.413 . S
C463 H454 0.930 . S
C463 C464 1.359 . S
C463 C465 1.394 . S
C464 C463 1.359 . S
C464 C466 1.391 . S
C464 H467 0.929 . S
C465 H447 0.930 . S
C465 N461 1.334 . S
C465 C463 1.394 . S
C466 C462 1.413 . S
C466 C464 1.391 . S
C466 C481 1.437 . S
H467 C464 0.929 . S
O468 Gd424 2.545 . S
O468 C483 1.258 . S
O469 Gd424 2.606 . S
O469 Gd425 2.362 . S
O469 C480 1.284 . S
O470 Gd425 2.324 . S
O470 C490 1.254 . S
O471 Gd424 2.429 . S
O471 C490 1.268 . S
O472 Gd424 2.545 . S
O472 C480 1.250 . S
O473 Gd424 2.412 . S
O473 C483 1.252 . S
O474 Gd425 2.545 . S
O474 C492 1.258 . S
O475 Gd424 2.362 . S
O475 Gd425 2.606 . S
O475 C491 1.284 . S
O476 Gd424 2.324 . S
O476 C499 1.254 . S
O477 Gd425 2.429 . S
O477 C499 1.268 . S
O478 Gd425 2.545 . S
O478 C491 1.250 . S
O479 Gd425 2.412 . S
O479 C492 1.252 . S
C480 O469 1.284 . S
C480 O472 1.250 . S
C481 H450 0.929 . S
C481 C466 1.437 . S
C481 C482 1.317 . S
C482 H453 0.930 . S
C482 C458 1.431 . S
C482 C481 1.317 . S
C483 Gd424 2.828 . S
C483 O468 1.258 . S
C483 O473 1.252 . S
C483 C484 1.497 . S
C484 C483 1.497 . S
C484 C485 1.395 . S
C484 C486 1.380 . S
C485 C484 1.395 . S
C485 C488 1.398 . S
C485 H500 0.930 . S
C486 C484 1.380 . S
C486 C487 1.391 . S
C486 H501 0.930 . S
C487 C486 1.391 . S
C487 C489 1.387 . S
C488 C485 1.398 . S
C488 C489 1.380 . S
C488 H502 0.930 . S
C489 C487 1.387 . S
C489 C488 1.380 . S
C489 H503 0.930 . S
C490 O470 1.254 . S
C490 O471 1.268 . S
C491 O475 1.284 . S
C491 O478 1.250 . S
C492 Gd425 2.828 . S
C492 O474 1.258 . S
C492 O479 1.252 . S
C492 C493 1.497 . S
C493 C492 1.497 . S
C493 C494 1.395 . S
C493 C495 1.380 . S
C494 C493 1.395 . S
C494 C497 1.398 . S
C494 H504 0.930 . S
C495 C493 1.380 . S
C495 C496 1.391 . S
C495 H505 0.930 . S
C496 C495 1.391 . S
C496 C498 1.387 . S
C497 C494 1.398 . S
C497 C498 1.380 . S
C497 H506 0.930 . S
C498 C496 1.387 . S
C498 C497 1.380 . S
C498 H507 0.930 . S
C499 O476 1.254 . S
C499 O477 1.268 . S
H500 C485 0.930 . S
H501 C486 0.930 . S
H502 C488 0.930 . S
H503 C489 0.930 . S
H504 C494 0.930 . S
H505 C495 0.930 . S
H506 C497 0.930 . S
H507 C498 0.930 . S
Gd508 N539 2.661 . S
Gd508 N545 2.601 . S
Gd508 O552 2.545 . S
Gd508 O553 2.587 1_655 S
Gd508 O555 2.429 1_655 S
Gd508 O556 2.545 . S
Gd508 O557 2.412 . S
Gd508 O559 2.362 1_655 S
Gd508 O560 2.324 . S
Gd508 C567 2.828 . S
Gd509 N518 2.661 . S
Gd509 N522 2.601 . S
Gd509 O553 2.394 . S
Gd509 O554 2.324 . S
Gd509 O558 2.545 . S
Gd509 O559 2.606 . S
Gd509 O561 2.429 1_455 S
Gd509 O562 2.545 . S
Gd509 O563 2.412 . S
Gd509 C576 2.828 . S
C510 C513 1.417 . S
C510 C515 1.431 . S
C510 C516 1.412 . S
C511 C514 1.437 . S
C511 C515 1.317 . S
C511 H530 0.929 . S
C512 C513 1.426 . S
C512 C514 1.413 . S
C512 N522 1.359 . S
C513 C510 1.417 . S
C513 C512 1.426 . S
C513 N518 1.350 . S
C514 C511 1.437 . S
C514 C512 1.413 . S
C514 C524 1.391 . S
C515 C510 1.431 . S
C515 C511 1.317 . S
C515 H526 0.930 . S
C516 C510 1.412 . S
C516 C517 1.355 . S
C516 H528 0.930 . S
C517 C516 1.355 . S
C517 C519 1.402 . S
C517 H529 0.930 . S
N518 Gd509 2.661 . S
N518 C513 1.350 . S
N518 C519 1.307 . S
C519 C517 1.402 . S
C519 N518 1.307 . S
C519 H520 0.930 . S
H520 C519 0.930 . S
C521 N522 1.334 . S
C521 C523 1.394 . S
C521 H525 0.930 1_455 S
N522 Gd509 2.601 . S
N522 C512 1.359 . S
N522 C521 1.334 . S
C523 C521 1.394 . S
C523 C524 1.359 . S
C523 H535 0.930 1_455 S
C524 C514 1.391 . S
C524 C523 1.359 . S
C524 H536 0.929 . S
H525 C521 0.930 1_655 S
H526 C515 0.930 . S
H527 C544 0.930 . S
H528 C516 0.930 . S
H529 C517 0.930 . S
H530 C511 0.929 . S
H531 C549 0.930 . S
H532 C540 0.930 . S
H533 C541 0.930 . S
H534 C565 0.929 . S
H535 C523 0.930 1_655 S
H536 C524 0.929 . S
H537 C566 0.930 . S
H538 C547 0.930 . S
N539 Gd508 2.661 . S
N539 C543 1.350 . S
N539 C544 1.307 . S
C540 H532 0.930 . S
C540 C541 1.355 . S
C540 C542 1.412 . S
C541 H533 0.930 . S
C541 C540 1.355 . S
C541 C544 1.402 . S
C542 C540 1.412 . S
C542 C543 1.417 . S
C542 C566 1.431 . S
C543 N539 1.350 . S
C543 C542 1.417 . S
C543 C546 1.426 . S
C544 H527 0.930 . S
C544 N539 1.307 . S
C544 C541 1.402 . S
N545 Gd508 2.601 . S
N545 C546 1.359 . S
N545 C549 1.334 1_655 S
C546 C543 1.426 . S
C546 N545 1.359 . S
C546 C550 1.413 . S
C547 H538 0.930 . S
C547 C548 1.359 1_455 S
C547 C549 1.394 . S
C548 C547 1.359 1_655 S
C548 C550 1.391 . S
C548 H551 0.929 . S
C549 H531 0.930 . S
C549 N545 1.334 1_455 S
C549 C547 1.394 . S
C550 C546 1.413 . S
C550 C548 1.391 . S
C550 C565 1.437 . S
H551 C548 0.929 . S
O552 Gd508 2.545 . S
O552 C567 1.258 . S
O553 Gd508 2.587 1_455 S
O553 Gd509 2.394 . S
O553 C564 1.263 1_455 S
O554 Gd509 2.324 . S
O554 C574 1.254 . S
O555 Gd508 2.429 1_455 S
O555 C574 1.268 . S
O556 Gd508 2.545 . S
O556 C564 1.250 . S
O557 Gd508 2.412 . S
O557 C567 1.252 . S
O558 Gd509 2.545 . S
O558 C576 1.258 . S
O559 Gd508 2.362 1_455 S
O559 Gd509 2.606 . S
O559 C575 1.284 . S
O560 Gd508 2.324 . S
O560 C583 1.254 . S
O561 Gd509 2.429 1_655 S
O561 C583 1.268 . S
O562 Gd509 2.545 . S
O562 C575 1.250 . S
O563 Gd509 2.412 . S
O563 C576 1.252 . S
C564 O553 1.263 1_655 S
C564 O556 1.250 . S
C565 H534 0.929 . S
C565 C550 1.437 . S
C565 C566 1.317 . S
C566 H537 0.930 . S
C566 C542 1.431 . S
C566 C565 1.317 . S
C567 Gd508 2.828 . S
C567 O552 1.258 . S
C567 O557 1.252 . S
C567 C568 1.497 . S
C568 C567 1.497 . S
C568 C569 1.395 . S
C568 C570 1.380 . S
C569 C568 1.395 . S
C569 C572 1.398 . S
C569 H584 0.930 . S
C570 C568 1.380 . S
C570 C571 1.391 . S
C570 H585 0.930 . S
C571 C570 1.391 . S
C571 C573 1.387 . S
C572 C569 1.398 . S
C572 C573 1.380 . S
C572 H586 0.930 . S
C573 C571 1.387 . S
C573 C572 1.380 . S
C573 H587 0.930 . S
C574 O554 1.254 . S
C574 O555 1.268 . S
C575 O559 1.284 . S
C575 O562 1.250 . S
C576 Gd509 2.828 . S
C576 O558 1.258 . S
C576 O563 1.252 . S
C576 C577 1.497 . S
C577 C576 1.497 . S
C577 C578 1.395 . S
C577 C579 1.380 . S
C578 C577 1.395 . S
C578 C581 1.398 . S
C578 H588 0.930 . S
C579 C577 1.380 . S
C579 C580 1.391 . S
C579 H589 0.930 . S
C580 C579 1.391 . S
C580 C582 1.387 . S
C581 C578 1.398 . S
C581 C582 1.380 . S
C581 H590 0.930 . S
C582 C580 1.387 . S
C582 C581 1.380 . S
C582 H591 0.930 . S
C583 O560 1.254 . S
C583 O561 1.268 . S
H584 C569 0.930 . S
H585 C570 0.930 . S
H586 C572 0.930 . S
H587 C573 0.930 . S
H588 C578 0.930 . S
H589 C579 0.930 . S
H590 C581 0.930 . S
H591 C582 0.930 . S
C592 C593 1.349 . S
C592 C594 1.327 . S
C592 H617 0.950 . S
C593 C592 1.349 . S
C593 C609 1.349 . S
C594 C592 1.327 . S
C594 C613 1.429 . S
C594 H618 0.950 . S
C595 C612 1.574 . S
C595 C614 1.368 . S
C595 H619 0.949 . S
H596 C600 0.949 . S
C597 C598 1.349 . S
C597 C599 1.327 . S
C597 H620 0.950 . S
C598 C597 1.349 . S
C598 C610 1.349 . S
C599 C597 1.327 . S
C599 C615 1.429 . S
C599 H621 0.950 . S
C600 H596 0.949 . S
C600 C608 1.574 . S
C600 C616 1.368 . S
H601 C609 0.950 . S
H602 C607 0.950 . S
H603 C608 0.949 . S
H604 C610 0.950 1_565 S
H605 C611 0.950 . S
H606 C612 0.949 . S
C607 H602 0.950 . S
C607 C609 1.327 . S
C607 C613 1.429 . S
C608 C600 1.574 . S
C608 H603 0.949 . S
C608 C614 1.368 . S
C609 C593 1.349 . S
C609 H601 0.950 . S
C609 C607 1.327 . S
C610 C598 1.349 . S
C610 H604 0.950 1_545 S
C610 C611 1.327 . S
C611 H605 0.950 . S
C611 C610 1.327 . S
C611 C615 1.429 . S
C612 C595 1.574 . S
C612 H606 0.949 . S
C612 C616 1.368 . S
C613 C594 1.429 . S
C613 C607 1.429 . S
C613 C614 1.523 . S
C614 C595 1.368 . S
C614 C608 1.368 . S
C614 C613 1.523 . S
C615 C599 1.429 . S
C615 C611 1.429 . S
C615 C616 1.523 . S
C616 C600 1.368 . S
C616 C612 1.368 . S
C616 C615 1.523 . S
H617 C592 0.950 . S
H618 C594 0.950 . S
H619 C595 0.949 . S
H620 C597 0.950 . S
H621 C599 0.950 . S
C622 C623 1.349 . S
C622 C624 1.327 . S
C622 H647 0.950 . S
C623 C622 1.349 . S
C623 C639 1.349 . S
C624 C622 1.327 . S
C624 C643 1.429 . S
C624 H648 0.950 . S
C625 C642 1.574 . S
C625 C644 1.368 . S
C625 H649 0.949 . S
H626 C630 0.949 . S
C627 C628 1.349 . S
C627 C629 1.327 . S
C627 H650 0.950 . S
C628 C627 1.349 . S
C628 C640 1.349 . S
C629 C627 1.327 . S
C629 C645 1.429 . S
C629 H651 0.950 . S
C630 H626 0.949 . S
C630 C638 1.574 . S
C630 C646 1.368 . S
H631 C639 0.950 . S
H632 C637 0.950 . S
H633 C638 0.949 . S
H634 C640 0.950 . S
H635 C641 0.950 . S
H636 C642 0.949 . S
C637 H632 0.950 . S
C637 C639 1.327 . S
C637 C643 1.429 . S
C638 C630 1.574 . S
C638 H633 0.949 . S
C638 C644 1.368 . S
C639 C623 1.349 . S
C639 H631 0.950 . S
C639 C637 1.327 . S
C640 C628 1.349 . S
C640 H634 0.950 . S
C640 C641 1.327 . S
C641 H635 0.950 . S
C641 C640 1.327 . S
C641 C645 1.429 . S
C642 C625 1.574 . S
C642 H636 0.949 . S
C642 C646 1.368 . S
C643 C624 1.429 . S
C643 C637 1.429 . S
C643 C644 1.523 . S
C644 C625 1.368 . S
C644 C638 1.368 . S
C644 C643 1.523 . S
C645 C629 1.429 . S
C645 C641 1.429 . S
C645 C646 1.523 . S
C646 C630 1.368 . S
C646 C642 1.368 . S
C646 C645 1.523 . S
H647 C622 0.950 . S
H648 C624 0.950 . S
H649 C625 0.949 . S
H650 C627 0.950 . S
H651 C629 0.950 . S
C652 C653 1.349 . S
C652 C654 1.327 . S
C652 H677 0.950 . S
C653 C652 1.349 . S
C653 C669 1.349 . S
C654 C652 1.327 . S
C654 C673 1.429 . S
C654 H678 0.950 . S
C655 C672 1.574 . S
C655 C674 1.368 . S
C655 H679 0.949 . S
H656 C660 0.949 . S
C657 C658 1.349 . S
C657 C659 1.327 . S
C657 H680 0.950 . S
C658 C657 1.349 . S
C658 C670 1.349 . S
C659 C657 1.327 . S
C659 C675 1.429 . S
C659 H681 0.950 . S
C660 H656 0.949 . S
C660 C668 1.574 . S
C660 C676 1.368 . S
H661 C669 0.950 . S
H662 C667 0.950 . S
H663 C668 0.949 . S
H664 C670 0.950 . S
H665 C671 0.950 . S
H666 C672 0.949 . S
C667 H662 0.950 . S
C667 C669 1.327 . S
C667 C673 1.429 . S
C668 C660 1.574 . S
C668 H663 0.949 . S
C668 C674 1.368 . S
C669 C653 1.349 . S
C669 H661 0.950 . S
C669 C667 1.327 . S
C670 C658 1.349 . S
C670 H664 0.950 . S
C670 C671 1.327 . S
C671 H665 0.950 . S
C671 C670 1.327 . S
C671 C675 1.429 . S
C672 C655 1.574 . S
C672 H666 0.949 . S
C672 C676 1.368 . S
C673 C654 1.429 . S
C673 C667 1.429 . S
C673 C674 1.523 . S
C674 C655 1.368 . S
C674 C668 1.368 . S
C674 C673 1.523 . S
C675 C659 1.429 . S
C675 C671 1.429 . S
C675 C676 1.523 . S
C676 C660 1.368 . S
C676 C672 1.368 . S
C676 C675 1.523 . S
H677 C652 0.950 . S
H678 C654 0.950 . S
H679 C655 0.949 . S
H680 C657 0.950 . S
H681 C659 0.950 . S
C682 C683 1.349 . S
C682 C684 1.327 . S
C682 H707 0.950 . S
C683 C682 1.349 . S
C683 C699 1.349 . S
C684 C682 1.327 . S
C684 C703 1.429 . S
C684 H708 0.950 . S
C685 C702 1.574 . S
C685 C704 1.368 . S
C685 H709 0.949 . S
H686 C690 0.949 . S
C687 C688 1.349 . S
C687 C689 1.327 . S
C687 H710 0.950 . S
C688 C687 1.349 . S
C688 C700 1.349 . S
C689 C687 1.327 . S
C689 C705 1.429 . S
C689 H711 0.950 . S
C690 H686 0.949 . S
C690 C698 1.574 . S
C690 C706 1.368 . S
H691 C699 0.950 . S
H692 C697 0.950 . S
H693 C698 0.949 . S
H694 C700 0.950 1_655 S
H695 C701 0.950 . S
H696 C702 0.949 . S
C697 H692 0.950 . S
C697 C699 1.327 . S
C697 C703 1.429 . S
C698 C690 1.574 . S
C698 H693 0.949 . S
C698 C704 1.368 . S
C699 C683 1.349 . S
C699 H691 0.950 . S
C699 C697 1.327 . S
C700 C688 1.349 . S
C700 H694 0.950 1_455 S
C700 C701 1.327 . S
C701 H695 0.950 . S
C701 C700 1.327 . S
C701 C705 1.429 . S
C702 C685 1.574 . S
C702 H696 0.949 . S
C702 C706 1.368 . S
C703 C684 1.429 . S
C703 C697 1.429 . S
C703 C704 1.523 . S
C704 C685 1.368 . S
C704 C698 1.368 . S
C704 C703 1.523 . S
C705 C689 1.429 . S
C705 C701 1.429 . S
C705 C706 1.523 . S
C706 C690 1.368 . S
C706 C702 1.368 . S
C706 C705 1.523 . S
H707 C682 0.950 . S
H708 C684 0.950 . S
H709 C685 0.949 . S
H710 C687 0.950 . S
H711 C689 0.950 . S
C712 C713 1.349 . S
C712 C714 1.327 1_554 S
C712 H737 0.950 . S
C713 C712 1.349 . S
C713 C729 1.349 . S
C714 C712 1.327 1_556 S
C714 C733 1.429 . S
C714 H738 0.950 . S
C715 C732 1.574 . S
C715 C734 1.368 . S
C715 H739 0.949 . S
H716 C720 0.949 . S
C717 C718 1.349 . S
C717 C719 1.327 . S
C717 H740 0.950 . S
C718 C717 1.349 . S
C718 C730 1.349 . S
C719 C717 1.327 . S
C719 C735 1.429 . S
C719 H741 0.950 . S
C720 H716 0.949 . S
C720 C728 1.574 . S
C720 C736 1.368 . S
H721 C729 0.950 . S
H722 C727 0.950 . S
H723 C728 0.949 . S
H724 C730 0.950 . S
H725 C731 0.950 . S
H726 C732 0.949 . S
C727 H722 0.950 . S
C727 C729 1.327 . S
C727 C733 1.429 1_554 S
C728 C720 1.574 . S
C728 H723 0.949 . S
C728 C734 1.368 . S
C729 C713 1.349 . S
C729 H721 0.950 . S
C729 C727 1.327 . S
C730 C718 1.349 . S
C730 H724 0.950 . S
C730 C731 1.327 . S
C731 H725 0.950 . S
C731 C730 1.327 . S
C731 C735 1.429 . S
C732 C715 1.574 . S
C732 H726 0.949 . S
C732 C736 1.368 . S
C733 C714 1.429 . S
C733 C727 1.429 1_556 S
C733 C734 1.523 . S
C734 C715 1.368 . S
C734 C728 1.368 . S
C734 C733 1.523 . S
C735 C719 1.429 . S
C735 C731 1.429 . S
C735 C736 1.523 . S
C736 C720 1.368 . S
C736 C732 1.368 . S
C736 C735 1.523 . S
H737 C712 0.950 . S
H738 C714 0.950 . S
H739 C715 0.949 . S
H740 C717 0.950 . S
H741 C719 0.950 . S
C742 C743 1.349 . S
C742 C744 1.327 1_554 S
C742 H767 0.950 . S
C743 C742 1.349 . S
C743 C759 1.349 . S
C744 C742 1.327 1_556 S
C744 C763 1.429 . S
C744 H768 0.950 . S
C745 C762 1.574 . S
C745 C764 1.368 . S
C745 H769 0.949 . S
H746 C750 0.949 . S
C747 C748 1.349 . S
C747 C749 1.327 . S
C747 H770 0.950 . S
C748 C747 1.349 . S
C748 C760 1.349 . S
C749 C747 1.327 . S
C749 C765 1.429 . S
C749 H771 0.950 . S
C750 H746 0.949 . S
C750 C758 1.574 . S
C750 C766 1.368 . S
H751 C759 0.950 . S
H752 C757 0.950 . S
H753 C758 0.949 . S
H754 C760 0.950 . S
H755 C761 0.950 . S
H756 C762 0.949 . S
C757 H752 0.950 . S
C757 C759 1.327 . S
C757 C763 1.429 1_554 S
C758 C750 1.574 . S
C758 H753 0.949 . S
C758 C764 1.368 . S
C759 C743 1.349 . S
C759 H751 0.950 . S
C759 C757 1.327 . S
C760 C748 1.349 . S
C760 H754 0.950 . S
C760 C761 1.327 . S
C761 H755 0.950 . S
C761 C760 1.327 . S
C761 C765 1.429 . S
C762 C745 1.574 . S
C762 H756 0.949 . S
C762 C766 1.368 . S
C763 C744 1.429 . S
C763 C757 1.429 1_556 S
C763 C764 1.523 . S
C764 C745 1.368 . S
C764 C758 1.368 . S
C764 C763 1.523 . S
C765 C749 1.429 . S
C765 C761 1.429 . S
C765 C766 1.523 . S
C766 C750 1.368 . S
C766 C762 1.368 . S
C766 C765 1.523 . S
H767 C742 0.950 . S
H768 C744 0.950 . S
H769 C745 0.949 . S
H770 C747 0.950 . S
H771 C749 0.950 . S
C772 C773 1.349 . S
C772 C774 1.327 1_554 S
C772 H797 0.950 . S
C773 C772 1.349 . S
C773 C789 1.349 . S
C774 C772 1.327 1_556 S
C774 C793 1.429 . S
C774 H798 0.950 . S
C775 C792 1.574 . S
C775 C794 1.368 . S
C775 H799 0.949 . S
H776 C780 0.949 . S
C777 C778 1.349 . S
C777 C779 1.327 . S
C777 H800 0.950 . S
C778 C777 1.349 . S
C778 C790 1.349 . S
C779 C777 1.327 . S
C779 C795 1.429 . S
C779 H801 0.950 . S
C780 H776 0.949 . S
C780 C788 1.574 . S
C780 C796 1.368 . S
H781 C789 0.950 . S
H782 C787 0.950 1_556 S
H783 C788 0.949 . S
H784 C790 0.950 . S
H785 C791 0.950 . S
H786 C792 0.949 . S
C787 H782 0.950 1_554 S
C787 C789 1.327 . S
C787 C793 1.429 1_554 S
C788 C780 1.574 . S
C788 H783 0.949 . S
C788 C794 1.368 . S
C789 C773 1.349 . S
C789 H781 0.950 . S
C789 C787 1.327 . S
C790 C778 1.349 . S
C790 H784 0.950 . S
C790 C791 1.327 . S
C791 H785 0.950 . S
C791 C790 1.327 . S
C791 C795 1.429 . S
C792 C775 1.574 . S
C792 H786 0.949 . S
C792 C796 1.368 . S
C793 C774 1.429 . S
C793 C787 1.429 1_556 S
C793 C794 1.523 . S
C794 C775 1.368 . S
C794 C788 1.368 . S
C794 C793 1.523 . S
C795 C779 1.429 . S
C795 C791 1.429 . S
C795 C796 1.523 . S
C796 C780 1.368 . S
C796 C792 1.368 . S
C796 C795 1.523 . S
H797 C772 0.950 . S
H798 C774 0.950 . S
H799 C775 0.949 . S
H800 C777 0.950 . S
H801 C779 0.950 . S
C802 C803 1.349 . S
C802 C804 1.327 1_554 S
C802 H827 0.950 . S
C803 C802 1.349 . S
C803 C819 1.349 . S
C804 C802 1.327 1_556 S
C804 C823 1.429 . S
C804 H828 0.950 . S
C805 C822 1.574 . S
C805 C824 1.368 . S
C805 H829 0.949 . S
H806 C810 0.949 . S
C807 C808 1.349 . S
C807 C809 1.327 . S
C807 H830 0.950 . S
C808 C807 1.349 . S
C808 C820 1.349 . S
C809 C807 1.327 . S
C809 C825 1.429 . S
C809 H831 0.950 . S
C810 H806 0.949 . S
C810 C818 1.574 . S
C810 C826 1.368 . S
H811 C819 0.950 . S
H812 C817 0.950 . S
H813 C818 0.949 . S
H814 C820 0.950 . S
H815 C821 0.950 . S
H816 C822 0.949 . S
C817 H812 0.950 . S
C817 C819 1.327 . S
C817 C823 1.429 1_554 S
C818 C810 1.574 . S
C818 H813 0.949 . S
C818 C824 1.368 . S
C819 C803 1.349 . S
C819 H811 0.950 . S
C819 C817 1.327 . S
C820 C808 1.349 . S
C820 H814 0.950 . S
C820 C821 1.327 . S
C821 H815 0.950 . S
C821 C820 1.327 . S
C821 C825 1.429 . S
C822 C805 1.574 . S
C822 H816 0.949 . S
C822 C826 1.368 . S
C823 C804 1.429 . S
C823 C817 1.429 1_556 S
C823 C824 1.523 . S
C824 C805 1.368 . S
C824 C818 1.368 . S
C824 C823 1.523 . S
C825 C809 1.429 . S
C825 C821 1.429 . S
C825 C826 1.523 . S
C826 C810 1.368 . S
C826 C822 1.368 . S
C826 C825 1.523 . S
H827 C802 0.950 . S
H828 C804 0.950 . S
H829 C805 0.949 . S
H830 C807 0.950 . S
H831 C809 0.950 . S
C832 C833 1.349 . S
C832 C834 1.327 . S
C832 H857 0.950 . S
C833 C832 1.349 . S
C833 C849 1.349 . S
C834 C832 1.327 . S
C834 C853 1.429 . S
C834 H858 0.950 . S
C835 C852 1.574 . S
C835 C854 1.368 . S
C835 H859 0.949 . S
H836 C840 0.949 . S
C837 C838 1.349 . S
C837 C839 1.327 . S
C837 H860 0.950 1_455 S
C838 C837 1.349 . S
C838 C850 1.349 . S
C839 C837 1.327 . S
C839 C855 1.429 . S
C839 H861 0.950 . S
C840 H836 0.949 . S
C840 C848 1.574 . S
C840 C856 1.368 . S
H841 C849 0.950 . S
H842 C847 0.950 . S
H843 C848 0.949 . S
H844 C850 0.950 . S
H845 C851 0.950 . S
H846 C852 0.949 . S
C847 H842 0.950 . S
C847 C849 1.327 . S
C847 C853 1.429 . S
C848 C840 1.574 . S
C848 H843 0.949 . S
C848 C854 1.368 . S
C849 C833 1.349 . S
C849 H841 0.950 . S
C849 C847 1.327 . S
C850 C838 1.349 . S
C850 H844 0.950 . S
C850 C851 1.327 . S
C851 H845 0.950 . S
C851 C850 1.327 . S
C851 C855 1.429 . S
C852 C835 1.574 . S
C852 H846 0.949 . S
C852 C856 1.368 . S
C853 C834 1.429 . S
C853 C847 1.429 . S
C853 C854 1.523 . S
C854 C835 1.368 . S
C854 C848 1.368 . S
C854 C853 1.523 . S
C855 C839 1.429 . S
C855 C851 1.429 . S
C855 C856 1.523 . S
C856 C840 1.368 . S
C856 C852 1.368 . S
C856 C855 1.523 . S
H857 C832 0.950 . S
H858 C834 0.950 . S
H859 C835 0.949 . S
H860 C837 0.950 1_655 S
H861 C839 0.950 . S
C862 C863 1.349 . S
C862 C864 1.327 . S
C862 H887 0.950 . S
C863 C862 1.349 . S
C863 C879 1.349 . S
C864 C862 1.327 . S
C864 C883 1.429 . S
C864 H888 0.950 . S
C865 C882 1.574 . S
C865 C884 1.368 . S
C865 H889 0.949 . S
H866 C870 0.949 . S
C867 C868 1.349 1_565 S
C867 C869 1.327 1_565 S
C867 H890 0.950 . S
C868 C867 1.349 1_545 S
C868 C880 1.349 . S
C869 C867 1.327 1_545 S
C869 C885 1.429 . S
C869 H891 0.950 . S
C870 H866 0.949 . S
C870 C878 1.574 . S
C870 C886 1.368 . S
H871 C879 0.950 . S
H872 C877 0.950 . S
H873 C878 0.949 . S
H874 C880 0.950 . S
H875 C881 0.950 . S
H876 C882 0.949 . S
C877 H872 0.950 . S
C877 C879 1.327 . S
C877 C883 1.429 . S
C878 C870 1.574 . S
C878 H873 0.949 . S
C878 C884 1.368 . S
C879 C863 1.349 . S
C879 H871 0.950 . S
C879 C877 1.327 . S
C880 C868 1.349 . S
C880 H874 0.950 . S
C880 C881 1.327 . S
C881 H875 0.950 . S
C881 C880 1.327 . S
C881 C885 1.429 . S
C882 C865 1.574 . S
C882 H876 0.949 . S
C882 C886 1.368 . S
C883 C864 1.429 . S
C883 C877 1.429 . S
C883 C884 1.523 . S
C884 C865 1.368 . S
C884 C878 1.368 . S
C884 C883 1.523 . S
C885 C869 1.429 . S
C885 C881 1.429 . S
C885 C886 1.523 . S
C886 C870 1.368 . S
C886 C882 1.368 . S
C886 C885 1.523 . S
H887 C862 0.950 . S
H888 C864 0.950 . S
H889 C865 0.949 . S
H890 C867 0.950 . S
H891 C869 0.950 . S
C892 C893 1.349 . S
C892 C894 1.327 . S
C892 H917 0.950 . S
C893 C892 1.349 . S
C893 C909 1.349 . S
C894 C892 1.327 . S
C894 C913 1.429 . S
C894 H918 0.950 . S
C895 C912 1.574 . S
C895 C914 1.368 . S
C895 H919 0.949 . S
H896 C900 0.949 . S
C897 C898 1.349 . S
C897 C899 1.327 . S
C897 H920 0.950 . S
C898 C897 1.349 . S
C898 C910 1.349 . S
C899 C897 1.327 . S
C899 C915 1.429 . S
C899 H921 0.950 . S
C900 H896 0.949 . S
C900 C908 1.574 . S
C900 C916 1.368 . S
H901 C909 0.950 . S
H902 C907 0.950 . S
H903 C908 0.949 . S
H904 C910 0.950 . S
H905 C911 0.950 . S
H906 C912 0.949 . S
C907 H902 0.950 . S
C907 C909 1.327 . S
C907 C913 1.429 . S
C908 C900 1.574 . S
C908 H903 0.949 . S
C908 C914 1.368 . S
C909 C893 1.349 . S
C909 H901 0.950 . S
C909 C907 1.327 . S
C910 C898 1.349 . S
C910 H904 0.950 . S
C910 C911 1.327 . S
C911 H905 0.950 . S
C911 C910 1.327 . S
C911 C915 1.429 . S
C912 C895 1.574 . S
C912 H906 0.949 . S
C912 C916 1.368 . S
C913 C894 1.429 . S
C913 C907 1.429 . S
C913 C914 1.523 . S
C914 C895 1.368 . S
C914 C908 1.368 . S
C914 C913 1.523 . S
C915 C899 1.429 . S
C915 C911 1.429 . S
C915 C916 1.523 . S
C916 C900 1.368 . S
C916 C912 1.368 . S
C916 C915 1.523 . S
H917 C892 0.950 . S
H918 C894 0.950 . S
H919 C895 0.949 . S
H920 C897 0.950 . S
H921 C899 0.950 . S
C922 C923 1.349 . S
C922 C924 1.327 . S
C922 H947 0.950 . S
C923 C922 1.349 . S
C923 C939 1.349 . S
C924 C922 1.327 . S
C924 C943 1.429 . S
C924 H948 0.950 . S
C925 C942 1.574 . S
C925 C944 1.368 . S
C925 H949 0.949 . S
H926 C930 0.949 . S
C927 C928 1.349 . S
C927 C929 1.327 . S
C927 H950 0.950 . S
C928 C927 1.349 . S
C928 C940 1.349 . S
C929 C927 1.327 . S
C929 C945 1.429 . S
C929 H951 0.950 . S
C930 H926 0.949 . S
C930 C938 1.574 . S
C930 C946 1.368 . S
H931 C939 0.950 . S
H932 C937 0.950 . S
H933 C938 0.949 . S
H934 C940 0.950 . S
H935 C941 0.950 . S
H936 C942 0.949 . S
C937 H932 0.950 . S
C937 C939 1.327 . S
C937 C943 1.429 . S
C938 C930 1.574 . S
C938 H933 0.949 . S
C938 C944 1.368 . S
C939 C923 1.349 . S
C939 H931 0.950 . S
C939 C937 1.327 . S
C940 C928 1.349 . S
C940 H934 0.950 . S
C940 C941 1.327 . S
C941 H935 0.950 . S
C941 C940 1.327 . S
C941 C945 1.429 . S
C942 C925 1.574 . S
C942 H936 0.949 . S
C942 C946 1.368 . S
C943 C924 1.429 . S
C943 C937 1.429 . S
C943 C944 1.523 . S
C944 C925 1.368 . S
C944 C938 1.368 . S
C944 C943 1.523 . S
C945 C929 1.429 . S
C945 C941 1.429 . S
C945 C946 1.523 . S
C946 C930 1.368 . S
C946 C942 1.368 . S
C946 C945 1.523 . S
H947 C922 0.950 . S
H948 C924 0.950 . S
H949 C925 0.949 . S
H950 C927 0.950 . S
H951 C929 0.950 . S
C952 C953 1.349 . S
C952 C954 1.327 . S
C952 H977 0.950 . S
C953 C952 1.349 . S
C953 C969 1.349 1_554 S
C954 C952 1.327 . S
C954 C973 1.429 1_554 S
C954 H978 0.950 . S
C955 C972 1.574 . S
C955 C974 1.368 . S
C955 H979 0.949 . S
H956 C960 0.949 . S
C957 C958 1.349 1_655 S
C957 C959 1.327 . S
C957 H980 0.950 . S
C958 C957 1.349 1_455 S
C958 C970 1.349 . S
C959 C957 1.327 . S
C959 C975 1.429 . S
C959 H981 0.950 . S
C960 H956 0.949 . S
C960 C968 1.574 . S
C960 C976 1.368 . S
H961 C969 0.950 . S
H962 C967 0.950 . S
H963 C968 0.949 1_554 S
H964 C970 0.950 . S
H965 C971 0.950 . S
H966 C972 0.949 . S
C967 H962 0.950 . S
C967 C969 1.327 . S
C967 C973 1.429 . S
C968 C960 1.574 . S
C968 H963 0.949 1_556 S
C968 C974 1.368 . S
C969 C953 1.349 1_556 S
C969 H961 0.950 . S
C969 C967 1.327 . S
C970 C958 1.349 . S
C970 H964 0.950 . S
C970 C971 1.327 1_455 S
C971 H965 0.950 . S
C971 C970 1.327 1_655 S
C971 C975 1.429 . S
C972 C955 1.574 . S
C972 H966 0.949 . S
C972 C976 1.368 . S
C973 C954 1.429 1_556 S
C973 C967 1.429 . S
C973 C974 1.523 . S
C974 C955 1.368 . S
C974 C968 1.368 . S
C974 C973 1.523 . S
C975 C959 1.429 . S
C975 C971 1.429 . S
C975 C976 1.523 . S
C976 C960 1.368 . S
C976 C972 1.368 . S
C976 C975 1.523 . S
H977 C952 0.950 . S
H978 C954 0.950 . S
H979 C955 0.949 . S
H980 C957 0.950 . S
H981 C959 0.950 . S
C982 C983 1.349 . S
C982 C984 1.327 . S
C982 H1007 0.950 . S
C983 C982 1.349 . S
C983 C999 1.349 1_554 S
C984 C982 1.327 . S
C984 C1003 1.429 1_554 S
C984 H1008 0.950 . S
C985 C1002 1.574 . S
C985 C1004 1.368 . S
C985 H1009 0.949 . S
H986 C990 0.949 1_545 S
C987 C988 1.349 1_565 S
C987 C989 1.327 . S
C987 H1010 0.950 . S
C988 C987 1.349 1_545 S
C988 C1000 1.349 . S
C989 C987 1.327 . S
C989 C1005 1.429 . S
C989 H1011 0.950 . S
C990 H986 0.949 1_565 S
C990 C998 1.574 . S
C990 C1006 1.368 . S
H991 C999 0.950 . S
H992 C997 0.950 . S
H993 C998 0.949 . S
H994 C1000 0.950 . S
H995 C1001 0.950 . S
H996 C1002 0.949 . S
C997 H992 0.950 . S
C997 C999 1.327 . S
C997 C1003 1.429 . S
C998 C990 1.574 . S
C998 H993 0.949 . S
C998 C1004 1.368 . S
C999 C983 1.349 1_556 S
C999 H991 0.950 . S
C999 C997 1.327 . S
C1000 C988 1.349 . S
C1000 H994 0.950 . S
C1000 C1001 1.327 . S
C1001 H995 0.950 . S
C1001 C1000 1.327 . S
C1001 C1005 1.429 1_545 S
C1002 C985 1.574 . S
C1002 H996 0.949 . S
C1002 C1006 1.368 . S
C1003 C984 1.429 1_556 S
C1003 C997 1.429 . S
C1003 C1004 1.523 . S
C1004 C985 1.368 . S
C1004 C998 1.368 . S
C1004 C1003 1.523 . S
C1005 C989 1.429 . S
C1005 C1001 1.429 1_565 S
C1005 C1006 1.523 . S
C1006 C990 1.368 . S
C1006 C1002 1.368 . S
C1006 C1005 1.523 . S
H1007 C982 0.950 . S
H1008 C984 0.950 . S
H1009 C985 0.949 . S
H1010 C987 0.950 . S
H1011 C989 0.950 . S
C1012 C1013 1.349 . S
C1012 C1014 1.327 . S
C1012 H1037 0.950 . S
C1013 C1012 1.349 . S
C1013 C1029 1.349 1_554 S
C1014 C1012 1.327 . S
C1014 C1033 1.429 1_554 S
C1014 H1038 0.950 . S
C1015 C1032 1.574 . S
C1015 C1034 1.368 . S
C1015 H1039 0.949 . S
H1016 C1020 0.949 . S
C1017 C1018 1.349 . S
C1017 C1019 1.327 . S
C1017 H1040 0.950 . S
C1018 C1017 1.349 . S
C1018 C1030 1.349 . S
C1019 C1017 1.327 . S
C1019 C1035 1.429 . S
C1019 H1041 0.950 . S
C1020 H1016 0.949 . S
C1020 C1028 1.574 . S
C1020 C1036 1.368 . S
H1021 C1029 0.950 . S
H1022 C1027 0.950 . S
H1023 C1028 0.949 1_554 S
H1024 C1030 0.950 . S
H1025 C1031 0.950 . S
H1026 C1032 0.949 . S
C1027 H1022 0.950 . S
C1027 C1029 1.327 . S
C1027 C1033 1.429 . S
C1028 C1020 1.574 . S
C1028 H1023 0.949 1_556 S
C1028 C1034 1.368 . S
C1029 C1013 1.349 1_556 S
C1029 H1021 0.950 . S
C1029 C1027 1.327 . S
C1030 C1018 1.349 . S
C1030 H1024 0.950 . S
C1030 C1031 1.327 . S
C1031 H1025 0.950 . S
C1031 C1030 1.327 . S
C1031 C1035 1.429 . S
C1032 C1015 1.574 . S
C1032 H1026 0.949 . S
C1032 C1036 1.368 . S
C1033 C1014 1.429 1_556 S
C1033 C1027 1.429 . S
C1033 C1034 1.523 . S
C1034 C1015 1.368 . S
C1034 C1028 1.368 . S
C1034 C1033 1.523 . S
C1035 C1019 1.429 . S
C1035 C1031 1.429 . S
C1035 C1036 1.523 . S
C1036 C1020 1.368 . S
C1036 C1032 1.368 . S
C1036 C1035 1.523 . S
H1037 C1012 0.950 . S
H1038 C1014 0.950 . S
H1039 C1015 0.949 . S
H1040 C1017 0.950 . S
H1041 C1019 0.950 . S
C1042 C1043 1.349 . S
C1042 C1044 1.327 1_554 S
C1042 H1067 0.950 . S
C1043 C1042 1.349 . S
C1043 C1059 1.349 1_554 S
C1044 C1042 1.327 1_556 S
C1044 C1063 1.429 . S
C1044 H1068 0.950 . S
C1045 C1062 1.574 . S
C1045 C1064 1.368 . S
C1045 H1069 0.949 . S
H1046 C1050 0.949 . S
C1047 C1048 1.349 . S
C1047 C1049 1.327 . S
C1047 H1070 0.950 . S
C1048 C1047 1.349 . S
C1048 C1060 1.349 . S
C1049 C1047 1.327 . S
C1049 C1065 1.429 . S
C1049 H1071 0.950 . S
C1050 H1046 0.949 . S
C1050 C1058 1.574 . S
C1050 C1066 1.368 . S
H1051 C1059 0.950 . S
H1052 C1057 0.950 . S
H1053 C1058 0.949 . S
H1054 C1060 0.950 . S
H1055 C1061 0.950 . S
H1056 C1062 0.949 . S
C1057 H1052 0.950 . S
C1057 C1059 1.327 . S
C1057 C1063 1.429 . S
C1058 C1050 1.574 . S
C1058 H1053 0.949 . S
C1058 C1064 1.368 . S
C1059 C1043 1.349 1_556 S
C1059 H1051 0.950 . S
C1059 C1057 1.327 . S
C1060 C1048 1.349 . S
C1060 H1054 0.950 . S
C1060 C1061 1.327 . S
C1061 H1055 0.950 . S
C1061 C1060 1.327 . S
C1061 C1065 1.429 . S
C1062 C1045 1.574 . S
C1062 H1056 0.949 . S
C1062 C1066 1.368 . S
C1063 C1044 1.429 . S
C1063 C1057 1.429 . S
C1063 C1064 1.523 . S
C1064 C1045 1.368 . S
C1064 C1058 1.368 . S
C1064 C1063 1.523 . S
C1065 C1049 1.429 . S
C1065 C1061 1.429 . S
C1065 C1066 1.523 . S
C1066 C1050 1.368 . S
C1066 C1062 1.368 . S
C1066 C1065 1.523 . S
H1067 C1042 0.950 . S
H1068 C1044 0.950 . S
H1069 C1045 0.949 . S
H1070 C1047 0.950 . S
H1071 C1049 0.950 . S
C1072 C1073 1.349 . S
C1072 C1074 1.327 . S
C1072 H1097 0.950 . S
C1073 C1072 1.349 . S
C1073 C1089 1.349 . S
C1074 C1072 1.327 . S
C1074 C1093 1.429 . S
C1074 H1098 0.950 . S
C1075 C1092 1.574 . S
C1075 C1094 1.368 . S
C1075 H1099 0.949 . S
H1076 C1080 0.949 . S
C1077 C1078 1.349 . S
C1077 C1079 1.327 . S
C1077 H1100 0.950 . S
C1078 C1077 1.349 . S
C1078 C1090 1.349 . S
C1079 C1077 1.327 . S
C1079 C1095 1.429 . S
C1079 H1101 0.950 . S
C1080 H1076 0.949 . S
C1080 C1088 1.574 . S
C1080 C1096 1.368 . S
H1081 C1089 0.950 . S
H1082 C1087 0.950 . S
H1083 C1088 0.949 . S
H1084 C1090 0.950 . S
H1085 C1091 0.950 . S
H1086 C1092 0.949 . S
C1087 H1082 0.950 . S
C1087 C1089 1.327 . S
C1087 C1093 1.429 . S
C1088 C1080 1.574 . S
C1088 H1083 0.949 . S
C1088 C1094 1.368 . S
C1089 C1073 1.349 . S
C1089 H1081 0.950 . S
C1089 C1087 1.327 . S
C1090 C1078 1.349 . S
C1090 H1084 0.950 . S
C1090 C1091 1.327 . S
C1091 H1085 0.950 . S
C1091 C1090 1.327 . S
C1091 C1095 1.429 . S
C1092 C1075 1.574 . S
C1092 H1086 0.949 . S
C1092 C1096 1.368 . S
C1093 C1074 1.429 . S
C1093 C1087 1.429 . S
C1093 C1094 1.523 . S
C1094 C1075 1.368 . S
C1094 C1088 1.368 . S
C1094 C1093 1.523 . S
C1095 C1079 1.429 . S
C1095 C1091 1.429 . S
C1095 C1096 1.523 . S
C1096 C1080 1.368 . S
C1096 C1092 1.368 . S
C1096 C1095 1.523 . S
H1097 C1072 0.950 . S
H1098 C1074 0.950 . S
H1099 C1075 0.949 . S
H1100 C1077 0.950 . S
H1101 C1079 0.950 . S
C1102 C1103 1.349 . S
C1102 C1104 1.327 . S
C1102 H1127 0.950 . S
C1103 C1102 1.349 . S
C1103 C1119 1.349 . S
C1104 C1102 1.327 . S
C1104 C1123 1.429 . S
C1104 H1128 0.950 . S
C1105 C1122 1.574 . S
C1105 C1124 1.368 . S
C1105 H1129 0.949 . S
H1106 C1110 0.949 . S
C1107 C1108 1.349 . S
C1107 C1109 1.327 . S
C1107 H1130 0.950 . S
C1108 C1107 1.349 . S
C1108 C1120 1.349 . S
C1109 C1107 1.327 . S
C1109 C1125 1.429 . S
C1109 H1131 0.950 . S
C1110 H1106 0.949 . S
C1110 C1118 1.574 . S
C1110 C1126 1.368 . S
H1111 C1119 0.950 . S
H1112 C1117 0.950 . S
H1113 C1118 0.949 . S
H1114 C1120 0.944 . S
H1115 C1121 0.950 . S
H1116 C1122 0.949 . S
C1117 H1112 0.950 . S
C1117 C1119 1.327 . S
C1117 C1123 1.429 . S
C1118 C1110 1.574 . S
C1118 H1113 0.949 . S
C1118 C1124 1.368 . S
C1119 C1103 1.349 . S
C1119 H1111 0.950 . S
C1119 C1117 1.327 . S
C1120 C1108 1.349 . S
C1120 H1114 0.944 . S
C1120 C1121 1.327 . S
C1121 H1115 0.950 . S
C1121 C1120 1.327 . S
C1121 C1125 1.429 . S
C1122 C1105 1.574 . S
C1122 H1116 0.949 . S
C1122 C1126 1.368 . S
C1123 C1104 1.429 . S
C1123 C1117 1.429 . S
C1123 C1124 1.523 . S
C1124 C1105 1.368 . S
C1124 C1118 1.368 . S
C1124 C1123 1.523 . S
C1125 C1109 1.429 . S
C1125 C1121 1.429 . S
C1125 C1126 1.523 . S
C1126 C1110 1.368 . S
C1126 C1122 1.368 . S
C1126 C1125 1.523 . S
H1127 C1102 0.950 . S
H1128 C1104 0.950 . S
H1129 C1105 0.949 . S
H1130 C1107 0.950 . S
H1131 C1109 0.950 . S
C1132 C1133 1.349 . S
C1132 C1134 1.327 . S
C1132 H1157 0.950 . S
C1133 C1132 1.349 . S
C1133 C1149 1.349 . S
C1134 C1132 1.327 . S
C1134 C1153 1.429 . S
C1134 H1158 0.950 . S
C1135 C1152 1.574 . S
C1135 C1154 1.368 . S
C1135 H1159 0.949 . S
H1136 C1140 0.949 . S
C1137 C1138 1.349 . S
C1137 C1139 1.327 . S
C1137 H1160 0.950 . S
C1138 C1137 1.349 . S
C1138 C1150 1.349 . S
C1139 C1137 1.327 . S
C1139 C1155 1.429 . S
C1139 H1161 0.950 . S
C1140 H1136 0.949 . S
C1140 C1148 1.574 . S
C1140 C1156 1.368 . S
H1141 C1149 0.950 . S
H1142 C1147 0.950 . S
H1143 C1148 0.949 . S
H1144 C1150 0.950 . S
H1145 C1151 0.950 . S
H1146 C1152 0.949 . S
C1147 H1142 0.950 . S
C1147 C1149 1.327 . S
C1147 C1153 1.429 . S
C1148 C1140 1.574 . S
C1148 H1143 0.949 . S
C1148 C1154 1.368 . S
C1149 C1133 1.349 . S
C1149 H1141 0.950 . S
C1149 C1147 1.327 . S
C1150 C1138 1.349 . S
C1150 H1144 0.950 . S
C1150 C1151 1.327 . S
C1151 H1145 0.950 . S
C1151 C1150 1.327 . S
C1151 C1155 1.429 . S
C1152 C1135 1.574 . S
C1152 H1146 0.949 . S
C1152 C1156 1.368 . S
C1153 C1134 1.429 . S
C1153 C1147 1.429 . S
C1153 C1154 1.523 . S
C1154 C1135 1.368 . S
C1154 C1148 1.368 . S
C1154 C1153 1.523 . S
C1155 C1139 1.429 . S
C1155 C1151 1.429 . S
C1155 C1156 1.523 . S
C1156 C1140 1.368 . S
C1156 C1152 1.368 . S
C1156 C1155 1.523 . S
H1157 C1132 0.950 . S
H1158 C1134 0.950 . S
H1159 C1135 0.949 . S
H1160 C1137 0.950 . S
H1161 C1139 0.950 . S
C1162 C1163 1.349 . S
C1162 C1164 1.327 . S
C1162 H1187 0.950 . S
C1163 C1162 1.349 . S
C1163 C1179 1.349 . S
C1164 C1162 1.327 . S
C1164 C1183 1.429 . S
C1164 H1188 0.950 . S
C1165 C1182 1.574 . S
C1165 C1184 1.368 . S
C1165 H1189 0.949 . S
H1166 C1170 0.949 . S
C1167 C1168 1.349 . S
C1167 C1169 1.327 . S
C1167 H1190 0.950 . S
C1168 C1167 1.349 . S
C1168 C1180 1.349 . S
C1169 C1167 1.327 . S
C1169 C1185 1.429 . S
C1169 H1191 0.950 . S
C1170 H1166 0.949 . S
C1170 C1178 1.574 . S
C1170 C1186 1.368 . S
H1171 C1179 0.950 . S
H1172 C1177 0.950 . S
H1173 C1178 0.949 . S
H1174 C1180 0.950 . S
H1175 C1181 0.950 . S
H1176 C1182 0.949 . S
C1177 H1172 0.950 . S
C1177 C1179 1.327 . S
C1177 C1183 1.429 . S
C1178 C1170 1.574 . S
C1178 H1173 0.949 . S
C1178 C1184 1.368 . S
C1179 C1163 1.349 . S
C1179 H1171 0.950 . S
C1179 C1177 1.327 . S
C1180 C1168 1.349 . S
C1180 H1174 0.950 . S
C1180 C1181 1.327 . S
C1181 H1175 0.950 . S
C1181 C1180 1.327 . S
C1181 C1185 1.429 . S
C1182 C1165 1.574 . S
C1182 H1176 0.949 . S
C1182 C1186 1.368 . S
C1183 C1164 1.429 . S
C1183 C1177 1.429 . S
C1183 C1184 1.523 . S
C1184 C1165 1.368 . S
C1184 C1178 1.368 . S
C1184 C1183 1.523 . S
C1185 C1169 1.429 . S
C1185 C1181 1.429 . S
C1185 C1186 1.523 . S
C1186 C1170 1.368 . S
C1186 C1182 1.368 . S
C1186 C1185 1.523 . S
H1187 C1162 0.950 . S
H1188 C1164 0.950 . S
H1189 C1165 0.949 . S
H1190 C1167 0.950 . S
H1191 C1169 0.950 . S
C1192 C1193 1.349 . S
C1192 C1194 1.327 . S
C1192 H1217 0.950 . S
C1193 C1192 1.349 . S
C1193 C1209 1.349 . S
C1194 C1192 1.327 . S
C1194 C1213 1.429 . S
C1194 H1218 0.950 . S
C1195 C1212 1.574 . S
C1195 C1214 1.368 . S
C1195 H1219 0.949 . S
H1196 C1200 0.949 . S
C1197 C1198 1.349 . S
C1197 C1199 1.327 . S
C1197 H1220 0.950 . S
C1198 C1197 1.349 . S
C1198 C1210 1.349 . S
C1199 C1197 1.327 . S
C1199 C1215 1.429 . S
C1199 H1221 0.950 . S
C1200 H1196 0.949 . S
C1200 C1208 1.574 . S
C1200 C1216 1.368 . S
H1201 C1209 0.950 . S
H1202 C1207 0.950 . S
H1203 C1208 0.949 . S
H1204 C1210 0.950 . S
H1205 C1211 0.950 . S
H1206 C1212 0.949 . S
C1207 H1202 0.950 . S
C1207 C1209 1.327 . S
C1207 C1213 1.429 . S
C1208 C1200 1.574 . S
C1208 H1203 0.949 . S
C1208 C1214 1.368 . S
C1209 C1193 1.349 . S
C1209 H1201 0.950 . S
C1209 C1207 1.327 . S
C1210 C1198 1.349 . S
C1210 H1204 0.950 . S
C1210 C1211 1.327 . S
C1211 H1205 0.950 . S
C1211 C1210 1.327 . S
C1211 C1215 1.429 . S
C1212 C1195 1.574 . S
C1212 H1206 0.949 . S
C1212 C1216 1.368 . S
C1213 C1194 1.429 . S
C1213 C1207 1.429 . S
C1213 C1214 1.523 . S
C1214 C1195 1.368 . S
C1214 C1208 1.368 . S
C1214 C1213 1.523 . S
C1215 C1199 1.429 . S
C1215 C1211 1.429 . S
C1215 C1216 1.523 . S
C1216 C1200 1.368 . S
C1216 C1212 1.368 . S
C1216 C1215 1.523 . S
H1217 C1192 0.950 . S
H1218 C1194 0.950 . S
H1219 C1195 0.949 . S
H1220 C1197 0.950 . S
H1221 C1199 0.950 . S
C1222 C1223 1.349 . S
C1222 C1224 1.327 . S
C1222 H1247 0.950 . S
C1223 C1222 1.349 . S
C1223 C1239 1.349 . S
C1224 C1222 1.327 . S
C1224 C1243 1.429 . S
C1224 H1248 0.950 . S
C1225 C1242 1.574 . S
C1225 C1244 1.368 . S
C1225 H1249 0.949 . S
H1226 C1230 0.949 . S
C1227 C1228 1.349 . S
C1227 C1229 1.327 . S
C1227 H1250 0.950 . S
C1228 C1227 1.349 . S
C1228 C1240 1.349 . S
C1229 C1227 1.327 . S
C1229 C1245 1.429 . S
C1229 H1251 0.950 . S
C1230 H1226 0.949 . S
C1230 C1238 1.574 . S
C1230 C1246 1.368 . S
H1231 C1239 0.950 . S
H1232 C1237 0.950 . S
H1233 C1238 0.949 . S
H1234 C1240 0.950 . S
H1235 C1241 0.950 . S
H1236 C1242 0.949 . S
C1237 H1232 0.950 . S
C1237 C1239 1.327 . S
C1237 C1243 1.429 . S
C1238 C1230 1.574 . S
C1238 H1233 0.949 . S
C1238 C1244 1.368 . S
C1239 C1223 1.349 . S
C1239 H1231 0.950 . S
C1239 C1237 1.327 . S
C1240 C1228 1.349 . S
C1240 H1234 0.950 . S
C1240 C1241 1.327 . S
C1241 H1235 0.950 . S
C1241 C1240 1.327 . S
C1241 C1245 1.429 . S
C1242 C1225 1.574 . S
C1242 H1236 0.949 . S
C1242 C1246 1.368 . S
C1243 C1224 1.429 . S
C1243 C1237 1.429 . S
C1243 C1244 1.523 . S
C1244 C1225 1.368 . S
C1244 C1238 1.368 . S
C1244 C1243 1.523 . S
C1245 C1229 1.429 . S
C1245 C1241 1.429 . S
C1245 C1246 1.523 . S
C1246 C1230 1.368 . S
C1246 C1242 1.368 . S
C1246 C1245 1.523 . S
H1247 C1222 0.950 . S
H1248 C1224 0.950 . S
H1249 C1225 0.949 . S
H1250 C1227 0.950 . S
H1251 C1229 0.950 . S
C1252 C1253 1.349 . S
C1252 C1254 1.327 . S
C1252 H1277 0.950 . S
C1253 C1252 1.349 . S
C1253 C1269 1.349 . S
C1254 C1252 1.327 . S
C1254 C1273 1.429 . S
C1254 H1278 0.950 . S
C1255 C1272 1.574 . S
C1255 C1274 1.368 . S
C1255 H1279 0.949 . S
H1256 C1260 0.949 . S
C1257 C1258 1.349 . S
C1257 C1259 1.327 . S
C1257 H1280 0.950 . S
C1258 C1257 1.349 . S
C1258 C1270 1.349 . S
C1259 C1257 1.327 . S
C1259 C1275 1.429 . S
C1259 H1281 0.950 . S
C1260 H1256 0.949 . S
C1260 C1268 1.574 . S
C1260 C1276 1.368 . S
H1261 C1269 0.950 . S
H1262 C1267 0.950 . S
H1263 C1268 0.949 . S
H1264 C1270 0.950 . S
H1265 C1271 0.950 . S
H1266 C1272 0.949 . S
C1267 H1262 0.950 . S
C1267 C1269 1.327 . S
C1267 C1273 1.429 . S
C1268 C1260 1.574 . S
C1268 H1263 0.949 . S
C1268 C1274 1.368 . S
C1269 C1253 1.349 . S
C1269 H1261 0.950 . S
C1269 C1267 1.327 . S
C1270 C1258 1.349 . S
C1270 H1264 0.950 . S
C1270 C1271 1.327 . S
C1271 H1265 0.950 . S
C1271 C1270 1.327 . S
C1271 C1275 1.429 . S
C1272 C1255 1.574 . S
C1272 H1266 0.949 . S
C1272 C1276 1.368 . S
C1273 C1254 1.429 . S
C1273 C1267 1.429 . S
C1273 C1274 1.523 . S
C1274 C1255 1.368 . S
C1274 C1268 1.368 . S
C1274 C1273 1.523 . S
C1275 C1259 1.429 . S
C1275 C1271 1.429 . S
C1275 C1276 1.523 . S
C1276 C1260 1.368 . S
C1276 C1272 1.368 . S
C1276 C1275 1.523 . S
H1277 C1252 0.950 . S
H1278 C1254 0.950 . S
H1279 C1255 0.949 . S
H1280 C1257 0.950 . S
H1281 C1259 0.950 . S
C1282 C1283 1.349 . S
C1282 C1284 1.327 . S
C1282 H1307 0.950 . S
C1283 C1282 1.349 . S
C1283 C1299 1.349 . S
C1284 C1282 1.327 . S
C1284 C1303 1.429 . S
C1284 H1308 0.950 . S
C1285 C1302 1.574 . S
C1285 C1304 1.368 . S
C1285 H1309 0.949 . S
H1286 C1290 0.949 . S
C1287 C1288 1.349 . S
C1287 C1289 1.327 . S
C1287 H1310 0.950 . S
C1288 C1287 1.349 . S
C1288 C1300 1.349 . S
C1289 C1287 1.327 . S
C1289 C1305 1.429 . S
C1289 H1311 0.950 . S
C1290 H1286 0.949 . S
C1290 C1298 1.574 . S
C1290 C1306 1.368 . S
H1291 C1299 0.950 . S
H1292 C1297 0.950 . S
H1293 C1298 0.949 . S
H1294 C1300 0.950 . S
H1295 C1301 0.950 . S
H1296 C1302 0.949 . S
C1297 H1292 0.950 . S
C1297 C1299 1.327 . S
C1297 C1303 1.429 . S
C1298 C1290 1.574 . S
C1298 H1293 0.949 . S
C1298 C1304 1.368 . S
C1299 C1283 1.349 . S
C1299 H1291 0.950 . S
C1299 C1297 1.327 . S
C1300 C1288 1.349 . S
C1300 H1294 0.950 . S
C1300 C1301 1.327 . S
C1301 H1295 0.950 . S
C1301 C1300 1.327 . S
C1301 C1305 1.429 . S
C1302 C1285 1.574 . S
C1302 H1296 0.949 . S
C1302 C1306 1.368 . S
C1303 C1284 1.429 . S
C1303 C1297 1.429 . S
C1303 C1304 1.523 . S
C1304 C1285 1.368 . S
C1304 C1298 1.368 . S
C1304 C1303 1.523 . S
C1305 C1289 1.429 . S
C1305 C1301 1.429 . S
C1305 C1306 1.523 . S
C1306 C1290 1.368 . S
C1306 C1302 1.368 . S
C1306 C1305 1.523 . S
H1307 C1282 0.950 . S
H1308 C1284 0.950 . S
H1309 C1285 0.949 . S
H1310 C1287 0.950 . S
H1311 C1289 0.950 . S
C593 C215 1.972 . S
C598 C331 1.972 . S
C628 C415 2.006 . S
C623 C247 2.008 . S
C658 C491 1.982 . S
C653 C151 2.134 . S
C688 C575 1.957 . S
C683 C183 2.108 . S
C718 C322 1.972 1_565 S
C713 C87 1.870 . S
C743 C119 1.895 . S
C748 C406 2.006 . S
C773 C23 2.014 . S
C778 C480 1.982 . S
C803 C55 1.994 . S
C808 C564 1.957 . S
C838 C319 0.449 1_455 S
C833 C189 0.351 . S
C868 C403 0.429 1_545 S
C863 C221 0.297 . S
C898 C496 0.467 . S
C893 C253 0.245 . S
C923 C157 0.294 . S
C928 C580 0.472 . S
C953 C61 0.585 . S
C958 C328 0.449 . S
C988 C412 0.429 . S
C983 C93 0.569 . S
C1018 C487 0.467 . S
C1013 C125 0.583 . S
C1043 C29 0.589 . S
C1048 C571 0.472 . S
C1073 C177 2.374 . S
C1078 C312 2.396 . S
C1103 C209 2.329 . S
C1108 C396 2.354 . S
C1138 C490 2.347 . S
C1133 C241 2.212 . S
C1168 C574 2.383 . S
C1163 C145 2.249 . S
C1193 C49 2.275 . S
C1198 C323 2.396 . S
C1228 C407 2.354 . S
C1223 C81 2.238 . S
C1258 C499 2.347 . S
C1253 C113 2.114 . S
C1283 C17 2.145 . S
C1288 C583 2.383 . S
