# Generated by pormake.
# Topology ctn, (3,4)-cn, num edge types: 1
# Building blocks:
#     Node 0, Type 0, BuildingBlock: KAKCAD_clean_linker_0, # of connection points: 3
#     Node 1, Type 0, BuildingBlock: KAKCAD_clean_linker_0, # of connection points: 3
#     Node 2, Type 0, BuildingBlock: KAKCAD_clean_linker_0, # of connection points: 3
#     Node 3, Type 0, BuildingBlock: KAKCAD_clean_linker_0, # of connection points: 3
#     Node 4, Type 0, BuildingBlock: KAKCAD_clean_linker_0, # of connection points: 3
#     Node 5, Type 0, BuildingBlock: KAKCAD_clean_linker_0, # of connection points: 3
#     Node 6, Type 0, BuildingBlock: KAKCAD_clean_linker_0, # of connection points: 3
#     Node 7, Type 0, BuildingBlock: KAKCAD_clean_linker_0, # of connection points: 3
#     Node 8, Type 0, BuildingBlock: KAKCAD_clean_linker_0, # of connection points: 3
#     Node 9, Type 0, BuildingBlock: KAKCAD_clean_linker_0, # of connection points: 3
#     Node 10, Type 0, BuildingBlock: KAKCAD_clean_linker_0, # of connection points: 3
#     Node 11, Type 0, BuildingBlock: KAKCAD_clean_linker_0, # of connection points: 3
#     Node 12, Type 0, BuildingBlock: KAKCAD_clean_linker_0, # of connection points: 3
#     Node 13, Type 0, BuildingBlock: KAKCAD_clean_linker_0, # of connection points: 3
#     Node 14, Type 0, BuildingBlock: KAKCAD_clean_linker_0, # of connection points: 3
#     Node 15, Type 0, BuildingBlock: KAKCAD_clean_linker_0, # of connection points: 3
#     Node 16, Type 1, BuildingBlock: UXUYUI_clean_sbu_0, # of connection points: 4
#     Node 17, Type 1, BuildingBlock: UXUYUI_clean_sbu_0, # of connection points: 4
#     Node 18, Type 1, BuildingBlock: UXUYUI_clean_sbu_0, # of connection points: 4
#     Node 19, Type 1, BuildingBlock: UXUYUI_clean_sbu_0, # of connection points: 4
#     Node 20, Type 1, BuildingBlock: UXUYUI_clean_sbu_0, # of connection points: 4
#     Node 21, Type 1, BuildingBlock: UXUYUI_clean_sbu_0, # of connection points: 4
#     Node 22, Type 1, BuildingBlock: UXUYUI_clean_sbu_0, # of connection points: 4
#     Node 23, Type 1, BuildingBlock: UXUYUI_clean_sbu_0, # of connection points: 4
#     Node 24, Type 1, BuildingBlock: UXUYUI_clean_sbu_0, # of connection points: 4
#     Node 25, Type 1, BuildingBlock: UXUYUI_clean_sbu_0, # of connection points: 4
#     Node 26, Type 1, BuildingBlock: UXUYUI_clean_sbu_0, # of connection points: 4
#     Node 27, Type 1, BuildingBlock: UXUYUI_clean_sbu_0, # of connection points: 4
#     Edge 28, Type (0, 1), BuildingBlock: TEMPAE_clean_linker_10, # of connection points: 2
#     Edge 29, Type (0, 1), BuildingBlock: TEMPAE_clean_linker_10, # of connection points: 2
#     Edge 30, Type (0, 1), BuildingBlock: TEMPAE_clean_linker_10, # of connection points: 2
#     Edge 31, Type (0, 1), BuildingBlock: TEMPAE_clean_linker_10, # of connection points: 2
#     Edge 32, Type (0, 1), BuildingBlock: TEMPAE_clean_linker_10, # of connection points: 2
#     Edge 33, Type (0, 1), BuildingBlock: TEMPAE_clean_linker_10, # of connection points: 2
#     Edge 34, Type (0, 1), BuildingBlock: TEMPAE_clean_linker_10, # of connection points: 2
#     Edge 35, Type (0, 1), BuildingBlock: TEMPAE_clean_linker_10, # of connection points: 2
#     Edge 36, Type (0, 1), BuildingBlock: TEMPAE_clean_linker_10, # of connection points: 2
#     Edge 37, Type (0, 1), BuildingBlock: TEMPAE_clean_linker_10, # of connection points: 2
#     Edge 38, Type (0, 1), BuildingBlock: TEMPAE_clean_linker_10, # of connection points: 2
#     Edge 39, Type (0, 1), BuildingBlock: TEMPAE_clean_linker_10, # of connection points: 2
#     Edge 40, Type (0, 1), BuildingBlock: TEMPAE_clean_linker_10, # of connection points: 2
#     Edge 41, Type (0, 1), BuildingBlock: TEMPAE_clean_linker_10, # of connection points: 2
#     Edge 42, Type (0, 1), BuildingBlock: TEMPAE_clean_linker_10, # of connection points: 2
#     Edge 43, Type (0, 1), BuildingBlock: TEMPAE_clean_linker_10, # of connection points: 2
#     Edge 44, Type (0, 1), BuildingBlock: TEMPAE_clean_linker_10, # of connection points: 2
#     Edge 45, Type (0, 1), BuildingBlock: TEMPAE_clean_linker_10, # of connection points: 2
#     Edge 46, Type (0, 1), BuildingBlock: TEMPAE_clean_linker_10, # of connection points: 2
#     Edge 47, Type (0, 1), BuildingBlock: TEMPAE_clean_linker_10, # of connection points: 2
#     Edge 48, Type (0, 1), BuildingBlock: TEMPAE_clean_linker_10, # of connection points: 2
#     Edge 49, Type (0, 1), BuildingBlock: TEMPAE_clean_linker_10, # of connection points: 2
#     Edge 50, Type (0, 1), BuildingBlock: TEMPAE_clean_linker_10, # of connection points: 2
#     Edge 51, Type (0, 1), BuildingBlock: TEMPAE_clean_linker_10, # of connection points: 2
#     Edge 52, Type (0, 1), BuildingBlock: TEMPAE_clean_linker_10, # of connection points: 2
#     Edge 53, Type (0, 1), BuildingBlock: TEMPAE_clean_linker_10, # of connection points: 2
#     Edge 54, Type (0, 1), BuildingBlock: TEMPAE_clean_linker_10, # of connection points: 2
#     Edge 55, Type (0, 1), BuildingBlock: TEMPAE_clean_linker_10, # of connection points: 2
#     Edge 56, Type (0, 1), BuildingBlock: TEMPAE_clean_linker_10, # of connection points: 2
#     Edge 57, Type (0, 1), BuildingBlock: TEMPAE_clean_linker_10, # of connection points: 2
#     Edge 58, Type (0, 1), BuildingBlock: TEMPAE_clean_linker_10, # of connection points: 2
#     Edge 59, Type (0, 1), BuildingBlock: TEMPAE_clean_linker_10, # of connection points: 2
#     Edge 60, Type (0, 1), BuildingBlock: TEMPAE_clean_linker_10, # of connection points: 2
#     Edge 61, Type (0, 1), BuildingBlock: TEMPAE_clean_linker_10, # of connection points: 2
#     Edge 62, Type (0, 1), BuildingBlock: TEMPAE_clean_linker_10, # of connection points: 2
#     Edge 63, Type (0, 1), BuildingBlock: TEMPAE_clean_linker_10, # of connection points: 2
#     Edge 64, Type (0, 1), BuildingBlock: TEMPAE_clean_linker_10, # of connection points: 2
#     Edge 65, Type (0, 1), BuildingBlock: TEMPAE_clean_linker_10, # of connection points: 2
#     Edge 66, Type (0, 1), BuildingBlock: TEMPAE_clean_linker_10, # of connection points: 2
#     Edge 67, Type (0, 1), BuildingBlock: TEMPAE_clean_linker_10, # of connection points: 2
#     Edge 68, Type (0, 1), BuildingBlock: TEMPAE_clean_linker_10, # of connection points: 2
#     Edge 69, Type (0, 1), BuildingBlock: TEMPAE_clean_linker_10, # of connection points: 2
#     Edge 70, Type (0, 1), BuildingBlock: TEMPAE_clean_linker_10, # of connection points: 2
#     Edge 71, Type (0, 1), BuildingBlock: TEMPAE_clean_linker_10, # of connection points: 2
#     Edge 72, Type (0, 1), BuildingBlock: TEMPAE_clean_linker_10, # of connection points: 2
#     Edge 73, Type (0, 1), BuildingBlock: TEMPAE_clean_linker_10, # of connection points: 2
#     Edge 74, Type (0, 1), BuildingBlock: TEMPAE_clean_linker_10, # of connection points: 2
#     Edge 75, Type (0, 1), BuildingBlock: TEMPAE_clean_linker_10, # of connection points: 2
# Relax obj value: 0.000
# Max RMSD: 0.005
# Mean RMSD: 0.004
data_MOF--net-ctn--node1-UXUYUI_clean_sbu_0--node2-KAKCAD_clean_linker_0--edge1-TEMPAE_clean_linker_10
_symmetry_space_group_name_H-M    P1
_symmetry_Int_Tables_number       1
_symmetry_cell_setting            triclinic
loop_
_symmetry_equiv_pos_as_xyz
'x, y, z'
_cell_length_a     81.6997
_cell_length_b     81.600949
_cell_length_c     81.541164
_cell_angle_alpha  90.089932
_cell_angle_beta   90.306586
_cell_angle_gamma 90.223452
loop_
_atom_site_label
_atom_site_type_symbol
_atom_site_fract_x
_atom_site_fract_y
_atom_site_fract_z
_atom_type_partial_charge
C0 C 0.03496 0.07873 0.99183 0.0
C1 C 0.03339 0.09475 0.99796 0.0
C2 C 0.03754 0.06558 0.0025 0.0
C3 C 0.03834 0.06816 0.01954 0.0
C4 C 0.03663 0.08417 0.02567 0.0
C5 C 0.0343 0.09734 0.01498 0.0
C6 C 0.04098 0.05423 0.03091 0.0
C7 C 0.05359 0.04294 0.02804 0.0
C8 C 0.05645 0.02996 0.03899 0.0
C9 C 0.04631 0.02819 0.05276 0.0
C10 C 0.03344 0.03921 0.05569 0.0
C11 C 0.03098 0.05228 0.04473 0.0
C12 C 0.02244 0.03694 0.07002 0.0
C13 C 0.01704 0.0212 0.07453 0.0
C14 C 0.01707 0.05049 0.07919 0.0
C15 C 0.0065 0.04836 0.09246 0.0
C16 C 1.00104 0.03263 0.09691 0.0
C17 C 0.07015 0.01838 0.03615 0.0
C18 C 0.07304 0.01196 0.02043 0.0
C19 C 0.08052 0.01375 0.04914 0.0
C20 C 0.09352 0.00301 0.04646 0.0
C21 C 0.09643 0.99654 0.03074 0.0
C22 C 0.08599 1.00112 0.01777 0.0
C23 C 0.0065 0.01907 0.08781 0.0
H24 H 0.03438 0.07642 0.97875 0.0
H25 H 0.03873 0.05335 0.99747 0.0
H26 H 0.0373 0.08651 0.03874 0.0
H27 H 0.03302 0.10955 0.02003 0.0
H28 H 0.06151 0.04459 0.01755 0.0
H29 H 0.02097 0.06073 0.04669 0.0
H30 H 0.04845 0.01818 0.06121 0.0
H31 H 0.02077 0.0105 0.06764 0.0
H32 H 0.02112 0.06277 0.07618 0.0
H33 H 0.00242 0.05909 0.0991 0.0
H34 H 0.06514 0.01514 0.01022 0.0
H35 H 0.07875 0.01868 0.06134 0.0
H36 H 0.0027 0.00676 0.09101 0.0
H37 H 0.08768 0.99618 0.00556 0.0
H38 H 0.10147 0.99999 0.05668 0.0
C39 C 0.3369 0.73816 0.25047 0.0
C40 C 0.34535 0.72483 0.2573 0.0
C41 C 0.32368 0.73555 0.23979 0.0
C42 C 0.31872 0.71954 0.23556 0.0
C43 C 0.32726 0.70623 0.24241 0.0
C44 C 0.34035 0.70885 0.25322 0.0
C45 C 0.30486 0.71668 0.22389 0.0
C46 C 0.30254 0.72703 0.2103 0.0
C47 C 0.28979 0.72414 0.19902 0.0
C48 C 0.27938 0.7106 0.20129 0.0
C49 C 0.28132 0.70018 0.21489 0.0
C50 C 0.29402 0.70345 0.22617 0.0
C51 C 0.27013 0.68591 0.21735 0.0
C52 C 0.25335 0.68704 0.2135 0.0
C53 C 0.27613 0.67102 0.22363 0.0
C54 C 0.26563 0.6577 0.22615 0.0
C55 C 0.24891 0.65887 0.22226 0.0
C56 C 0.28734 0.73534 0.18489 0.0
C57 C 0.28737 0.75241 0.18724 0.0
C58 C 0.28486 0.72908 0.16899 0.0
C59 C 0.28253 0.73968 0.15572 0.0
C60 C 0.28243 0.75675 0.15811 0.0
C61 C 0.28485 0.763 0.17401 0.0
C62 C 0.24289 0.67364 0.21585 0.0
H63 H 0.34039 0.75061 0.25355 0.0
H64 H 0.31725 0.7461 0.23501 0.0
H65 H 0.32404 0.69374 0.23922 0.0
H66 H 0.34678 0.69835 0.25815 0.0
H67 H 0.31092 0.73712 0.20819 0.0
H68 H 0.29529 0.69583 0.23697 0.0
H69 H 0.26971 0.70824 0.19244 0.0
H70 H 0.2482 0.69836 0.20892 0.0
H71 H 0.28901 0.66956 0.22644 0.0
H72 H 0.27064 0.64639 0.23092 0.0
H73 H 0.28914 0.75757 0.19937 0.0
H74 H 0.28488 0.71599 0.1668 0.0
H75 H 0.23001 0.67493 0.21291 0.0
H76 H 0.28495 0.7761 0.17618 0.0
H77 H 0.28059 0.73452 0.14361 0.0
C78 C 0.98662 0.47403 0.10017 0.0
C79 C 0.00372 0.47314 0.09838 0.0
C80 C 0.97623 0.47158 0.0867 0.0
C81 C 0.98267 0.46807 0.07114 0.0
C82 C 0.99973 0.46707 0.06935 0.0
C83 C 0.01014 0.46963 0.08279 0.0
C84 C 0.97161 0.46556 0.05681 0.0
C85 C 0.95828 0.47609 0.05416 0.0
C86 C 0.94781 0.4739 0.04061 0.0
C87 C 0.95068 0.46088 0.02971 0.0
C88 C 0.96385 0.45011 0.03223 0.0
C89 C 0.97432 0.45263 0.04575 0.0
C90 C 0.96647 0.43606 0.02091 0.0
C91 C 0.95316 0.42646 0.01551 0.0
C92 C 0.98228 0.43206 0.01552 0.0
C93 C 0.98471 0.41877 0.00496 0.0
C94 C 0.9714 0.40913 0.99963 0.0
C95 C 0.93389 0.48524 0.0378 0.0
C96 C 0.92364 0.48977 0.05082 0.0
C97 C 0.93078 0.49163 0.0221 0.0
C98 C 0.91773 0.50237 0.01949 0.0
C99 C 0.90742 0.50683 0.03249 0.0
C100 C 0.9105 0.50039 0.04818 0.0
C101 C 0.9556 0.41314 0.00502 0.0
H102 H 0.98124 0.47643 0.11203 0.0
H103 H 0.96313 0.4722 0.08852 0.0
H104 H 0.00507 0.46461 0.05747 0.0
H105 H 0.02324 0.46911 0.0809 0.0
H106 H 0.9563 0.48629 0.06244 0.0
H107 H 0.98432 0.44421 0.04796 0.0
H108 H 0.9426 0.45909 0.01927 0.0
H109 H 0.94085 0.42911 0.01957 0.0
H110 H 0.99277 0.43929 0.01935 0.0
H111 H 0.99705 0.41591 1.00113 0.0
H112 H 0.92567 0.48495 0.06303 0.0
H113 H 0.93855 0.48847 0.01186 0.0
H114 H 0.94508 0.40604 1.00102 0.0
H115 H 0.90284 0.5037 0.05845 0.0
H116 H 0.91558 0.50705 0.00724 0.0
C117 C 0.70618 0.7536 0.16397 0.0
C118 C 0.72212 0.74874 0.15978 0.0
C119 C 0.70355 0.76424 0.17715 0.0
C120 C 0.71678 0.77024 0.18652 0.0
C121 C 0.73271 0.76532 0.18237 0.0
C122 C 0.73535 0.75473 0.16915 0.0
C123 C 0.71397 0.78162 0.20052 0.0
C124 C 0.70057 0.77929 0.21104 0.0
C125 C 0.69775 0.79004 0.22421 0.0
C126 C 0.70854 0.80325 0.22683 0.0
C127 C 0.72202 0.80578 0.21649 0.0
C128 C 0.72463 0.79491 0.20338 0.0
C129 C 0.73332 0.81984 0.21929 0.0
C130 C 0.72715 0.83552 0.22273 0.0
C131 C 0.75035 0.81769 0.21851 0.0
C132 C 0.76099 0.83091 0.22115 0.0
C133 C 0.75484 0.84663 0.22453 0.0
C134 C 0.68355 0.78742 0.23525 0.0
C135 C 0.66806 0.78344 0.22876 0.0
C136 C 0.68538 0.78889 0.25234 0.0
C137 C 0.67203 0.78639 0.26271 0.0
C138 C 0.65653 0.78247 0.25622 0.0
C139 C 0.65469 0.78104 0.23913 0.0
C140 C 0.73778 0.84877 0.22527 0.0
H141 H 0.69568 0.74909 0.15714 0.0
H142 H 0.69113 0.7679 0.17986 0.0
H143 H 0.74318 0.76954 0.18943 0.0
H144 H 0.7478 0.7514 0.16617 0.0
H145 H 0.69252 0.76886 0.20923 0.0
H146 H 0.73476 0.79709 0.19512 0.0
H147 H 0.70644 0.8116 0.23694 0.0
H148 H 0.71407 0.83761 0.22319 0.0
H149 H 0.75547 0.8057 0.21609 0.0
H150 H 0.77405 0.82874 0.22076 0.0
H151 H 0.66623 0.78235 0.21564 0.0
H152 H 0.69719 0.7918 0.25772 0.0
H153 H 0.7326 0.86074 0.22756 0.0
H154 H 0.64293 0.77789 0.23376 0.0
H155 H 0.67381 0.78772 0.27582 0.0
C156 C 0.9959 0.96595 0.41907 0.0
C157 C 0.00232 0.97107 0.40395 0.0
C158 C 0.00617 0.96357 0.43261 0.0
C159 C 0.02314 0.96622 0.43137 0.0
C160 C 0.02959 0.97121 0.41621 0.0
C161 C 0.0193 0.97362 0.40267 0.0
C162 C 0.03398 0.96409 0.44594 0.0
C163 C 0.03152 0.95095 0.4568 0.0
C164 C 0.04121 0.94919 0.47102 0.0
C165 C 0.05361 0.96083 0.47417 0.0
C166 C 0.05658 0.97375 0.46321 0.0
C167 C 0.04667 0.97533 0.44918 0.0
C168 C 0.07018 0.9855 0.46627 0.0
C169 C 0.07247 0.99261 0.48183 0.0
C170 C 0.08112 0.98951 0.45364 0.0
C171 C 0.09419 1.00025 0.45655 0.0
C172 C 0.09648 0.00737 0.4721 0.0
C173 C 0.03849 0.93513 0.48244 0.0
C174 C 0.02265 0.92888 0.48512 0.0
C175 C 0.05171 0.92775 0.49069 0.0
C176 C 0.04916 0.9146 0.50136 0.0
C177 C 0.03334 0.9082 0.50387 0.0
C178 C 0.02013 0.91552 0.49554 0.0
C179 C 0.08543 0.00352 0.48469 0.0
H180 H 0.98285 0.96411 0.42054 0.0
H181 H 1.00076 0.95999 0.44417 0.0
H182 H 0.04263 0.97312 0.41475 0.0
H183 H 0.02466 0.97733 0.39113 0.0
H184 H 0.02224 0.94187 0.45392 0.0
H185 H 0.04861 0.98561 0.44101 0.0
H186 H 0.06111 0.95982 0.48511 0.0
H187 H 0.06415 0.98982 0.49176 0.0
H188 H 0.07972 0.98412 0.44156 0.0
H189 H 0.10244 0.00309 0.44659 0.0
H190 H 0.01209 0.93434 0.47924 0.0
H191 H 0.06413 0.93197 0.48881 0.0
H192 H 0.08696 0.00876 0.49682 0.0
H193 H 0.0078 0.91086 0.4969 0.0
H194 H 0.05964 0.90954 0.50773 0.0
C195 C 0.16588 0.70793 0.74922 0.0
C196 C 0.16116 0.72386 0.74475 0.0
C197 C 0.17905 0.70544 0.75993 0.0
C198 C 0.18788 0.71883 0.7664 0.0
C199 C 0.18324 0.73477 0.76179 0.0
C200 C 0.17002 0.73725 0.75113 0.0
C201 C 0.20168 0.71615 0.77811 0.0
C202 C 0.21263 0.7031 0.77579 0.0
C203 C 0.22531 0.70002 0.78712 0.0
C204 C 0.22702 0.71039 0.80084 0.0
C205 C 0.21646 0.72373 0.80316 0.0
C206 C 0.2038 0.72647 0.79179 0.0
C207 C 0.21866 0.73486 0.81746 0.0
C208 C 0.22136 0.72851 0.83326 0.0
C209 C 0.2182 0.75195 0.81536 0.0
C210 C 0.22053 0.76246 0.82874 0.0
C211 C 0.22322 0.75611 0.84453 0.0
C212 C 0.23675 0.68602 0.78458 0.0
C213 C 0.23109 0.67113 0.77782 0.0
C214 C 0.25343 0.68739 0.78886 0.0
C215 C 0.26409 0.67423 0.78654 0.0
C216 C 0.25841 0.65948 0.77966 0.0
C217 C 0.24182 0.65807 0.77528 0.0
C218 C 0.22353 0.73902 0.84666 0.0
H219 H 0.15916 0.69736 0.74469 0.0
H220 H 0.18209 0.69302 0.76342 0.0
H221 H 0.18992 0.74535 0.76632 0.0
H222 H 0.16683 0.74967 0.74773 0.0
H223 H 0.21145 0.69553 0.76493 0.0
H224 H 0.1953 0.73642 0.79387 0.0
H225 H 0.23664 0.70815 0.80975 0.0
H226 H 0.22165 0.71539 0.83527 0.0
H227 H 0.21626 0.75719 0.80332 0.0
H228 H 0.2201 0.77557 0.82674 0.0
H229 H 0.2183 0.66944 0.77467 0.0
H230 H 0.25835 0.69872 0.79379 0.0
H231 H 0.22569 0.73378 0.85868 0.0
H232 H 0.23708 0.64675 0.77013 0.0
H233 H 0.27687 0.67568 0.78987 0.0
C234 C 0.97167 0.60071 0.4888 0.0
C235 C 0.97186 0.5983 0.50586 0.0
C236 C 0.96914 0.5875 0.47813 0.0
C237 C 0.96654 0.57164 0.4843 0.0
C238 C 0.96659 0.56924 0.50137 0.0
C239 C 0.96933 0.58243 0.51203 0.0
C240 C 0.96386 0.55761 0.47296 0.0
C241 C 0.9741 0.55541 0.45935 0.0
C242 C 0.97179 0.54208 0.44863 0.0
C243 C 0.95885 0.53106 0.45149 0.0
C244 C 0.94837 0.53316 0.46495 0.0
C245 C 0.95108 0.54639 0.47571 0.0
C246 C 0.93445 0.5217 0.46762 0.0
C247 C 0.92439 0.51683 0.45443 0.0
C248 C 0.93101 0.51566 0.48338 0.0
C249 C 0.91783 0.50497 0.48587 0.0
C250 C 0.90771 0.5002 0.4727 0.0
C251 C 0.98303 0.53957 0.43458 0.0
C252 C 0.98764 0.55279 0.42458 0.0
C253 C 0.98937 0.52395 0.43119 0.0
C254 C 1.00018 0.52163 0.41816 0.0
C255 C 0.00482 0.53484 0.40812 0.0
C256 C 0.99835 0.55045 0.41147 0.0
C257 C 0.91114 0.50625 0.45695 0.0
H258 H 0.97369 0.6128 0.4837 0.0
H259 H 0.96905 0.58972 0.46503 0.0
H260 H 0.96473 0.55713 0.50646 0.0
H261 H 0.96931 0.58023 0.52513 0.0
H262 H 0.9842 0.56382 0.45737 0.0
H263 H 0.94292 0.54825 0.48598 0.0
H264 H 0.95693 0.52082 0.44321 0.0
H265 H 0.92662 0.52139 0.44217 0.0
H266 H 0.93861 0.51909 0.49376 0.0
H267 H 0.91542 0.50061 0.49817 0.0
H268 H 0.98279 0.56493 0.42676 0.0
H269 H 0.98622 0.51357 0.43883 0.0
H270 H 0.90365 0.50268 0.44653 0.0
H271 H 1.00141 0.56086 0.40383 0.0
H272 H 0.00512 0.5095 0.41615 0.0
C273 C 0.79757 0.75311 0.84231 0.0
C274 C 0.78159 0.74863 0.8469 0.0
C275 C 0.80019 0.76391 0.82929 0.0
C276 C 0.78693 0.77044 0.82042 0.0
C277 C 0.77095 0.76591 0.82496 0.0
C278 C 0.76832 0.75518 0.83805 0.0
C279 C 0.78976 0.78192 0.80651 0.0
C280 C 0.80286 0.77943 0.79568 0.0
C281 C 0.80576 0.79026 0.78262 0.0
C282 C 0.79526 0.80368 0.78035 0.0
C283 C 0.78203 0.80637 0.79097 0.0
C284 C 0.77943 0.79545 0.80403 0.0
C285 C 0.77098 0.82062 0.78848 0.0
C286 C 0.77735 0.83612 0.78444 0.0
C287 C 0.75394 0.81881 0.79011 0.0
C288 C 0.74353 0.83217 0.78773 0.0
C289 C 0.74989 0.84767 0.78369 0.0
C290 C 0.8198 0.78755 0.77139 0.0
C291 C 0.83517 0.7829 0.77764 0.0
C292 C 0.81796 0.7896 0.75436 0.0
C293 C 0.83118 0.78705 0.74383 0.0
C294 C 0.84655 0.78243 0.75009 0.0
C295 C 0.84839 0.78039 0.76712 0.0
C296 C 0.76694 0.84948 0.78208 0.0
H297 H 0.80809 0.74817 0.8487 0.0
H298 H 0.81266 0.76727 0.82629 0.0
H299 H 0.76044 0.77053 0.8183 0.0
H300 H 0.75584 0.75216 0.84135 0.0
H301 H 0.81062 0.76879 0.79717 0.0
H302 H 0.76956 0.79776 0.81255 0.0
H303 H 0.79739 0.81207 0.77029 0.0
H304 H 0.79043 0.83799 0.78334 0.0
H305 H 0.74862 0.80699 0.79298 0.0
H306 H 0.73045 0.83028 0.7888 0.0
H307 H 0.83704 0.78137 0.7907 0.0
H308 H 0.80625 0.79302 0.74913 0.0
H309 H 0.77227 0.8613 0.77923 0.0
H310 H 0.86002 0.77668 0.77233 0.0
H311 H 0.8294 0.78887 0.73079 0.0
C312 C 0.29501 0.25365 0.34151 0.0
C313 C 0.279 0.24965 0.3464 0.0
C314 C 0.29773 0.26424 0.32833 0.0
C315 C 0.28451 0.271 0.31956 0.0
C316 C 0.2685 0.26689 0.32436 0.0
C317 C 0.26578 0.25642 0.33764 0.0
C318 C 0.28746 0.28237 0.30555 0.0
C319 C 0.30062 0.27975 0.2948 0.0
C320 C 0.3038 0.29063 0.28183 0.0
C321 C 0.29348 0.3042 0.27955 0.0
C322 C 0.28013 0.3069 0.28998 0.0
C323 C 0.27725 0.29597 0.30296 0.0
C324 C 0.26917 0.32115 0.28734 0.0
C325 C 0.2757 0.33684 0.28442 0.0
C326 C 0.25208 0.31914 0.28766 0.0
C327 C 0.24174 0.3325 0.285 0.0
C328 C 0.24827 0.3482 0.28216 0.0
C329 C 0.3179 0.2878 0.27069 0.0
C330 C 0.33306 0.28257 0.27699 0.0
C331 C 0.31634 0.29032 0.2537 0.0
C332 C 0.32962 0.2877 0.24327 0.0
C333 C 0.34478 0.28247 0.24957 0.0
C334 C 0.34633 0.27992 0.26656 0.0
C335 C 0.26536 0.35024 0.28196 0.0
H336 H 0.30551 0.24851 0.34779 0.0
H337 H 0.31023 0.26727 0.32517 0.0
H338 H 0.25801 0.27167 0.31778 0.0
H339 H 0.25328 0.25379 0.34115 0.0
H340 H 0.30823 0.26902 0.29632 0.0
H341 H 0.26727 0.29837 0.31132 0.0
H342 H 0.29582 0.31269 0.26962 0.0
H343 H 0.28883 0.33877 0.28423 0.0
H344 H 0.24671 0.30718 0.28976 0.0
H345 H 0.22862 0.33059 0.28536 0.0
H346 H 0.33475 0.28067 0.29003 0.0
H347 H 0.3048 0.29418 0.24841 0.0
H348 H 0.27073 0.36218 0.27969 0.0
H349 H 0.35777 0.27573 0.27181 0.0
H350 H 0.32804 0.28994 0.23027 0.0
C351 C 0.48826 0.97459 0.59951 0.0
C352 C 0.50522 0.97252 0.59763 0.0
C353 C 0.47762 0.97234 0.5862 0.0
C354 C 0.48369 0.9679 0.57072 0.0
C355 C 0.50066 0.96586 0.56884 0.0
C356 C 0.5113 0.96818 0.58213 0.0
C357 C 0.47236 0.9653 0.55661 0.0
C358 C 0.45937 0.97617 0.55371 0.0
C359 C 0.44855 0.97377 0.54043 0.0
C360 C 0.45095 0.96028 0.52995 0.0
C361 C 0.4639 0.94927 0.53262 0.0
C362 C 0.4745 0.95189 0.54602 0.0
C363 C 0.46634 0.93499 0.52149 0.0
C364 C 0.45289 0.926 0.51541 0.0
C365 C 0.4822 0.9302 0.51691 0.0
C366 C 0.48455 0.91671 0.50661 0.0
C367 C 0.47109 0.90775 0.50054 0.0
C368 C 0.43478 0.98536 0.53751 0.0
C369 C 0.42584 0.99175 0.55075 0.0
C370 C 0.43044 0.99011 0.52149 0.0
C371 C 0.41745 1.0009 0.51878 0.0
C372 C 0.40856 0.00729 0.53202 0.0
C373 C 0.41292 0.00262 0.54804 0.0
C374 C 0.45523 0.91258 0.50502 0.0
H375 H 0.48321 0.97808 0.61125 0.0
H376 H 0.4646 0.97387 0.58808 0.0
H377 H 0.50573 0.9626 0.55704 0.0
H378 H 0.52429 0.96636 0.58031 0.0
H379 H 0.45793 0.98676 0.56159 0.0
H380 H 0.48421 0.94322 0.54848 0.0
H381 H 0.4427 0.95833 0.51969 0.0
H382 H 0.44052 0.92917 0.51889 0.0
H383 H 0.49284 0.937 0.52112 0.0
H384 H 0.4969 0.91343 0.50318 0.0
H385 H 0.42865 0.98817 0.56323 0.0
H386 H 0.43722 0.98566 0.51103 0.0
H387 H 0.44463 0.90578 0.5007 0.0
H388 H 0.40616 0.00717 0.55848 0.0
H389 H 0.41452 0.00444 0.50631 0.0
C390 C 0.20653 0.25352 0.665 0.0
C391 C 0.22226 0.24741 0.66172 0.0
C392 C 0.20393 0.2641 0.67823 0.0
C393 C 0.217 0.26893 0.68843 0.0
C394 C 0.23273 0.26288 0.68516 0.0
C395 C 0.23533 0.25221 0.672 0.0
C396 C 0.21423 0.2803 0.70239 0.0
C397 C 0.2007 0.2781 0.71276 0.0
C398 C 0.19789 0.28884 0.72593 0.0
C399 C 0.20872 0.30204 0.72854 0.0
C400 C 0.22231 0.30443 0.71831 0.0
C401 C 0.22503 0.29344 0.70534 0.0
C402 C 0.23357 0.31852 0.72106 0.0
C403 C 0.22733 0.33429 0.72389 0.0
C404 C 0.25062 0.31631 0.7208 0.0
C405 C 0.26121 0.32958 0.72338 0.0
C406 C 0.25496 0.34538 0.72609 0.0
C407 C 0.18376 0.28618 0.73706 0.0
C408 C 0.16832 0.28177 0.73072 0.0
C409 C 0.18564 0.2879 0.75413 0.0
C410 C 0.17241 0.28523 0.76461 0.0
C411 C 0.15697 0.2808 0.75827 0.0
C412 C 0.15507 0.27914 0.7412 0.0
C413 C 0.23792 0.3476 0.7263 0.0
H414 H 0.19623 0.25033 0.65719 0.0
H415 H 0.1917 0.26873 0.6803 0.0
H416 H 0.24301 0.26621 0.69293 0.0
H417 H 0.24755 0.24755 0.67001 0.0
H418 H 0.19259 0.26773 0.71081 0.0
H419 H 0.2353 0.29541 0.69721 0.0
H420 H 0.20659 0.31048 0.73858 0.0
H421 H 0.21425 0.33639 0.72403 0.0
H422 H 0.25577 0.30427 0.71875 0.0
H423 H 0.27429 0.32753 0.72304 0.0
H424 H 0.16642 0.28048 0.71762 0.0
H425 H 0.19741 0.29112 0.75942 0.0
H426 H 0.23276 0.35961 0.72848 0.0
H427 H 0.14338 0.2756 0.73594 0.0
H428 H 0.17424 0.28677 0.77769 0.0
C429 C 0.8373 0.23666 0.74941 0.0
C430 C 0.84663 0.22336 0.75512 0.0
C431 C 0.82387 0.23409 0.73901 0.0
C432 C 0.81942 0.21816 0.73405 0.0
C433 C 0.82878 0.20487 0.73972 0.0
C434 C 0.84221 0.20744 0.75013 0.0
C435 C 0.80506 0.21539 0.72306 0.0
C436 C 0.80203 0.22593 0.70976 0.0
C437 C 0.78852 0.22339 0.6993 0.0
C438 C 0.77795 0.21009 0.70227 0.0
C439 C 0.78075 0.19941 0.71549 0.0
C440 C 0.79432 0.20219 0.72582 0.0
C441 C 0.7695 0.18537 0.71857 0.0
C442 C 0.75245 0.18732 0.7173 0.0
C443 C 0.77575 0.16991 0.72283 0.0
C444 C 0.7652 0.15671 0.72573 0.0
C445 C 0.74815 0.15865 0.72448 0.0
C446 C 0.78551 0.23459 0.68522 0.0
C447 C 0.78727 0.25164 0.6871 0.0
C448 C 0.78092 0.22832 0.66978 0.0
C449 C 0.7782 0.23885 0.65653 0.0
C450 C 0.77994 0.2559 0.65842 0.0
C451 C 0.78449 0.26217 0.67386 0.0
C452 C 0.74189 0.17412 0.72025 0.0
H453 H 0.84047 0.24909 0.75288 0.0
H454 H 0.81684 0.24459 0.73501 0.0
H455 H 0.82582 0.19245 0.736 0.0
H456 H 0.84901 0.1969 0.75442 0.0
H457 H 0.81046 0.23589 0.70728 0.0
H458 H 0.79629 0.19426 0.73629 0.0
H459 H 0.76752 0.20804 0.69425 0.0
H460 H 0.74723 0.1991 0.7142 0.0
H461 H 0.78883 0.16796 0.72377 0.0
H462 H 0.77041 0.145 0.72912 0.0
H463 H 0.79065 0.25687 0.69886 0.0
H464 H 0.77961 0.21524 0.66788 0.0
H465 H 0.72883 0.17599 0.71904 0.0
H466 H 0.78609 0.27523 0.67569 0.0
H467 H 0.77457 0.23363 0.64484 0.0
C468 C 0.5372 0.58261 0.4946 0.0
C469 C 0.53318 0.59815 0.50087 0.0
C470 C 0.5398 0.56936 0.50515 0.0
C471 C 0.53837 0.57131 0.52221 0.0
C472 C 0.53434 0.58682 0.52849 0.0
C473 C 0.53182 0.60009 0.51795 0.0
C474 C 0.54099 0.55718 0.53342 0.0
C475 C 0.5541 0.54638 0.5309 0.0
C476 C 0.55663 0.53288 0.54132 0.0
C477 C 0.54581 0.53036 0.55447 0.0
C478 C 0.53268 0.54109 0.55727 0.0
C479 C 0.53037 0.55444 0.54663 0.0
C480 C 0.52134 0.53838 0.57127 0.0
C481 C 0.51607 0.5225 0.57543 0.0
C482 C 0.51565 0.5517 0.58058 0.0
C483 C 0.50494 0.54921 0.59367 0.0
C484 C 0.49967 0.53333 0.59783 0.0
C485 C 0.5706 0.52152 0.53849 0.0
C486 C 0.57526 0.51721 0.52246 0.0
C487 C 0.57946 0.51493 0.55178 0.0
C488 C 0.59258 0.50432 0.54909 0.0
C489 C 0.59727 0.50016 0.53307 0.0
C490 C 0.58848 0.50673 0.51979 0.0
C491 C 0.50539 0.52 0.58855 0.0
H492 H 0.5381 0.5806 0.48151 0.0
H493 H 0.54265 0.55751 0.49992 0.0
H494 H 0.53338 0.58877 0.54159 0.0
H495 H 0.529 0.61193 0.52322 0.0
H496 H 0.56259 0.54875 0.52101 0.0
H497 H 0.52002 0.5625 0.54838 0.0
H498 H 0.54763 0.52001 0.56257 0.0
H499 H 0.52005 0.51197 0.56842 0.0
H500 H 0.51959 0.56408 0.57786 0.0
H501 H 0.50064 0.55978 0.60042 0.0
H502 H 0.56856 0.52179 0.51194 0.0
H503 H 0.57645 0.51818 0.56428 0.0
H504 H 0.50174 0.50759 0.59151 0.0
H505 H 0.59169 0.50357 0.50731 0.0
H506 H 0.59926 0.49959 0.55956 0.0
C507 C 0.49505 0.46619 0.92038 0.0
C508 C 0.50144 0.47097 0.90514 0.0
C509 C 0.50541 0.46363 0.93382 0.0
C510 C 0.52242 0.46584 0.93236 0.0
C511 C 0.52883 0.47052 0.91709 0.0
C512 C 0.51847 0.47302 0.90362 0.0
C513 C 0.53335 0.46357 0.94683 0.0
C514 C 0.53093 0.45036 0.95761 0.0
C515 C 0.54073 0.44846 0.97173 0.0
C516 C 0.55321 0.46003 0.97485 0.0
C517 C 0.5561 0.47307 0.96398 0.0
C518 C 0.54607 0.47477 0.95005 0.0
C519 C 0.56968 0.48487 0.9671 0.0
C520 C 0.57238 0.49137 0.98287 0.0
C521 C 0.58014 0.48959 0.9543 0.0
C522 C 0.59309 0.50047 0.95722 0.0
C523 C 0.59582 0.50696 0.97298 0.0
C524 C 0.53801 0.43436 0.98311 0.0
C525 C 0.52214 0.42814 0.98582 0.0
C526 C 0.55126 0.42693 0.99133 0.0
C527 C 0.54868 0.41381 0.00203 0.0
C528 C 0.53287 0.40757 0.00449 0.0
C529 C 0.51963 0.41478 0.99624 0.0
C530 C 0.58528 0.50235 0.98576 0.0
H531 H 0.48201 0.46434 0.9219 0.0
H532 H 0.50006 0.46019 0.94545 0.0
H533 H 0.54189 0.47217 0.91552 0.0
H534 H 0.52377 0.47682 0.89209 0.0
H535 H 0.52156 0.44136 0.95473 0.0
H536 H 0.54791 0.48511 0.94194 0.0
H537 H 0.5608 0.45889 0.98571 0.0
H538 H 0.56445 0.48807 0.99294 0.0
H539 H 0.57845 0.48469 0.94206 0.0
H540 H 0.60092 0.5039 0.9471 0.0
H541 H 0.51156 0.43368 0.98005 0.0
H542 H 0.5637 0.43106 0.98935 0.0
H543 H 0.58714 0.50706 0.99806 0.0
H544 H 0.5073 0.41025 0.99809 0.0
H545 H 0.5591 0.40832 0.00817 0.0
C546 C 0.66493 0.20759 0.25142 0.0
C547 C 0.66016 0.22351 0.2469 0.0
C548 C 0.67824 0.20516 0.26198 0.0
C549 C 0.68712 0.21858 0.26829 0.0
C550 C 0.68239 0.2345 0.26372 0.0
C551 C 0.66907 0.23693 0.25316 0.0
C552 C 0.70118 0.21599 0.27967 0.0
C553 C 0.71237 0.20325 0.27686 0.0
C554 C 0.72551 0.20044 0.2877 0.0
C555 C 0.72751 0.21081 0.30138 0.0
C556 C 0.71657 0.22375 0.30434 0.0
C557 C 0.7034 0.22615 0.29344 0.0
C558 C 0.71888 0.23476 0.31879 0.0
C559 C 0.72404 0.22847 0.33401 0.0
C560 C 0.71598 0.25169 0.31747 0.0
C561 C 0.71817 0.26205 0.33098 0.0
C562 C 0.72342 0.25578 0.34618 0.0
C563 C 0.73706 0.18662 0.28477 0.0
C564 C 0.73133 0.17155 0.27857 0.0
C565 C 0.75388 0.18832 0.28823 0.0
C566 C 0.76462 0.17525 0.2857 0.0
C567 C 0.75888 0.16019 0.27948 0.0
C568 C 0.74209 0.15856 0.27587 0.0
C569 C 0.72633 0.23885 0.34751 0.0
H570 H 0.65843 0.19698 0.2467 0.0
H571 H 0.68144 0.19275 0.26537 0.0
H572 H 0.68905 0.2451 0.26821 0.0
H573 H 0.66564 0.24935 0.25006 0.0
H574 H 0.711 0.19571 0.26599 0.0
H575 H 0.69457 0.2357 0.29592 0.0
H576 H 0.7376 0.2088 0.30979 0.0
H577 H 0.72618 0.21548 0.33558 0.0
H578 H 0.71218 0.25701 0.30591 0.0
H579 H 0.7156 0.27497 0.32954 0.0
H580 H 0.71845 0.16967 0.27596 0.0
H581 H 0.75882 0.19979 0.2928 0.0
H582 H 0.73055 0.23359 0.35895 0.0
H583 H 0.73722 0.14725 0.27083 0.0
H584 H 0.77741 0.17694 0.28882 0.0
C585 C 0.47551 0.09736 0.99214 0.0
C586 C 0.47504 0.0951 0.00923 0.0
C587 C 0.47301 0.08416 0.98146 0.0
C588 C 0.46981 0.0684 0.98759 0.0
C589 C 0.46925 0.0661 0.00465 0.0
C590 C 0.47191 0.07927 0.01535 0.0
C591 C 0.46694 0.05446 0.97617 0.0
C592 C 0.47721 0.05215 0.96259 0.0
C593 C 0.47437 0.0393 0.95139 0.0
C594 C 0.46095 0.02876 0.95394 0.0
C595 C 0.45067 0.03075 0.96757 0.0
C596 C 0.45381 0.04359 0.97866 0.0
C597 C 0.43655 0.01952 0.97013 0.0
C598 C 0.4261 0.01534 0.95701 0.0
C599 C 0.43341 0.01291 0.98571 0.0
C600 C 0.42016 0.00228 0.9881 0.0
C601 C 0.40968 0.99815 0.97499 0.0
C602 C 0.48547 0.03685 0.93713 0.0
C603 C 0.49211 0.05036 0.92872 0.0
C604 C 0.48965 0.02098 0.93187 0.0
C605 C 0.50014 0.01869 0.91857 0.0
C606 C 0.50688 0.0322 0.91025 0.0
C607 C 0.50273 0.04806 0.91553 0.0
C608 C 0.41277 0.00483 0.95943 0.0
H609 H 0.47757 0.1094 0.98695 0.0
H610 H 0.47328 0.08635 0.96836 0.0
H611 H 0.46699 0.05404 0.00973 0.0
H612 H 0.47172 0.077 0.02843 0.0
H613 H 0.48766 0.06019 0.961 0.0
H614 H 0.4457 0.04546 0.98897 0.0
H615 H 0.45847 0.01893 0.94532 0.0
H616 H 0.42812 0.02036 0.94489 0.0
H617 H 0.44131 0.01581 0.99603 0.0
H618 H 0.41801 0.99742 1.00026 0.0
H619 H 0.48902 0.06276 0.93225 0.0
H620 H 0.48498 0.01027 0.93815 0.0
H621 H 0.40498 0.00178 0.94907 0.0
H622 H 0.50782 0.05877 0.90958 0.0
H623 H 0.50284 0.00629 0.91475 0.0
Li624 Li 0.26743 0.88781 0.99837 0.0
Li625 Li 0.25578 0.86681 0.01648 0.0
Li626 Li 0.25091 0.86618 0.98681 0.0
Li627 Li 0.23805 0.88703 0.0042 0.0
C628 C 0.28855 0.86409 0.99855 0.0
N629 N 0.3223 0.86634 0.99884 0.0
C630 C 0.29725 0.86192 0.01318 0.0
C631 C 0.29701 0.86736 0.98405 0.0
C632 C 0.31432 0.86309 0.01307 0.0
C633 C 0.31408 0.86848 0.98446 0.0
C634 C 0.25098 0.9037 0.02864 0.0
C635 C 0.23308 0.91505 0.04912 0.0
N636 N 0.23858 0.93034 0.04537 0.0
C637 C 0.25648 0.91951 0.02501 0.0
C638 C 0.23923 0.90142 0.04084 0.0
C639 C 0.25006 0.93282 0.0336 0.0
C640 C 0.28858 0.90898 0.98044 0.0
N641 N 0.28586 0.90198 0.9953 0.0
C642 C 0.30972 0.91498 0.00649 0.0
C643 C 0.29606 0.90479 0.00824 0.0
C644 C 0.31293 0.92228 0.99124 0.0
C645 C 0.30217 0.91915 0.9781 0.0
H646 H 0.2802 0.9067 0.97041 0.0
H647 H 0.29357 0.89908 0.01993 0.0
C648 C 0.26185 0.83696 0.0327 0.0
N649 N 0.25969 0.85328 0.0352 0.0
C650 C 0.26422 0.82644 0.04599 0.0
C651 C 0.26288 0.84983 0.06416 0.0
C652 C 0.26032 0.85988 0.05052 0.0
C653 C 0.26472 0.83286 0.06197 0.0
H654 H 0.26165 0.8321 0.02036 0.0
H655 H 0.25883 0.87293 0.05215 0.0
C656 C 0.2433 0.88997 0.96711 0.0
N657 N 0.23122 0.88779 0.93545 0.0
C658 C 0.22658 0.89203 0.96405 0.0
C659 C 0.25387 0.88683 0.95406 0.0
C660 C 0.22072 0.8909 0.94796 0.0
C661 C 0.24752 0.88574 0.93815 0.0
C662 C 0.22835 0.85015 0.01286 0.0
C663 C 0.22924 0.8344 0.00616 0.0
C664 C 0.2215 0.85236 0.02838 0.0
C665 C 0.22333 0.82109 0.01516 0.0
C666 C 0.21577 0.83874 0.037 0.0
N667 N 0.21679 0.82352 0.03027 0.0
C668 C 0.26041 0.84502 0.96079 0.0
C669 C 0.23185 0.84927 0.96313 0.0
C670 C 0.25798 0.83479 0.94724 0.0
N671 N 0.24744 0.85206 0.96837 0.0
C672 C 0.22883 0.83903 0.94969 0.0
C673 C 0.242 0.83161 0.94151 0.0
H674 H 0.27267 0.84735 0.96525 0.0
H675 H 0.22175 0.85494 0.96948 0.0
C676 C 0.2205 0.91671 0.00369 0.0
N677 N 0.21918 0.90047 0.0072 0.0
C678 C 0.20725 0.92716 0.00615 0.0
C679 C 0.19129 0.9039 0.0152 0.0
C680 C 0.20491 0.89391 0.0127 0.0
C681 C 0.1924 0.92079 0.01203 0.0
H682 H 0.23191 0.92154 0.99904 0.0
H683 H 0.2041 0.88094 0.01517 0.0
O684 O 0.27181 0.86341 0.99848 0.0
O685 O 0.25685 0.89054 0.02011 0.0
O686 O 0.24921 0.89061 0.98282 0.0
O687 O 0.23436 0.86329 0.00437 0.0
H688 H 0.29092 0.85951 0.02454 0.0
H689 H 0.29047 0.86938 0.97267 0.0
H690 H 0.32121 0.86149 0.02432 0.0
H691 H 0.32077 0.87115 0.97337 0.0
H692 H 0.2239 0.91347 0.05851 0.0
H693 H 0.26545 0.92153 0.01551 0.0
H694 H 0.23474 0.88928 0.04372 0.0
H695 H 0.25414 0.94514 0.03086 0.0
H696 H 0.31778 0.91698 0.01689 0.0
H697 H 0.3041 0.9247 0.96621 0.0
H698 H 0.26584 0.81346 0.04378 0.0
H699 H 0.26317 0.85523 0.0763 0.0
H700 H 0.21818 0.89432 0.97399 0.0
H701 H 0.2668 0.88488 0.95622 0.0
H702 H 0.2078 0.89242 0.94542 0.0
H703 H 0.25555 0.88318 0.92796 0.0
H704 H 0.23463 0.83241 0.99424 0.0
H705 H 0.22085 0.86443 0.03381 0.0
H706 H 0.22401 0.80883 0.01017 0.0
H707 H 0.21056 0.84027 0.04908 0.0
H708 H 0.26853 0.82955 0.94123 0.0
H709 H 0.2163 0.83677 0.94591 0.0
H710 H 0.20855 0.94006 0.0033 0.0
H711 H 0.18009 0.89852 0.0198 0.0
Li712 Li 0.11751 0.5069 0.26937 0.0
Li713 Li 0.13687 0.48877 0.25658 0.0
Li714 Li 0.13854 0.51784 0.2509 0.0
Li715 Li 0.11554 0.50046 0.23934 0.0
C716 C 0.1465 0.50147 0.28734 0.0
N717 N 0.15601 0.49055 0.31798 0.0
C718 C 0.13942 0.48737 0.29397 0.0
C719 C 0.15846 0.51 0.29625 0.0
C720 C 0.14438 0.48204 0.30948 0.0
C721 C 0.16308 0.50429 0.31174 0.0
C722 C 0.10494 0.47137 0.25974 0.0
C723 C 0.09359 0.44688 0.24753 0.0
N724 N 0.08855 0.44184 0.26258 0.0
C725 C 0.09952 0.46603 0.27507 0.0
C726 C 0.10184 0.4618 0.24583 0.0
C727 C 0.09131 0.45103 0.27626 0.0
C728 C 0.08784 0.50796 0.28607 0.0
N729 N 0.10406 0.51128 0.2879 0.0
C730 C 0.09979 0.52051 0.31539 0.0
C731 C 0.11016 0.51761 0.30212 0.0
C732 C 0.08298 0.5171 0.31388 0.0
C733 C 0.07702 0.51081 0.29895 0.0
H734 H 0.08333 0.50305 0.27456 0.0
H735 H 0.12303 0.5205 0.30318 0.0
C736 C 0.16683 0.47293 0.262 0.0
N737 N 0.15055 0.4699 0.26006 0.0
C738 C 0.1778 0.46003 0.26427 0.0
C739 C 0.15502 0.4411 0.26311 0.0
C740 C 0.14452 0.45434 0.2606 0.0
C741 C 0.1719 0.44387 0.26489 0.0
H742 H 0.1713 0.48542 0.26168 0.0
H743 H 0.13162 0.4521 0.25905 0.0
C744 C 0.11031 0.53742 0.25671 0.0
N745 N 0.10193 0.56769 0.26923 0.0
C746 C 0.09663 0.54566 0.25059 0.0
C747 C 0.11969 0.54451 0.26925 0.0
C748 C 0.09261 0.56098 0.25707 0.0
C749 C 0.11526 0.55984 0.2754 0.0
C750 C 0.1502 0.4894 0.22736 0.0
C751 C 0.16675 0.49368 0.22652 0.0
C752 C 0.1449 0.47434 0.22105 0.0
C753 C 0.1778 0.48268 0.21955 0.0
C754 C 0.15633 0.46367 0.2142 0.0
N755 N 0.17241 0.46802 0.21362 0.0
C756 C 0.1683 0.53533 0.25221 0.0
C757 C 0.14698 0.54908 0.23806 0.0
C758 C 0.17901 0.54842 0.24942 0.0
N759 N 0.15263 0.53592 0.24655 0.0
C760 C 0.15719 0.56254 0.23521 0.0
C761 C 0.17344 0.56229 0.24092 0.0
H762 H 0.17245 0.52468 0.25891 0.0
H763 H 0.1345 0.54916 0.23355 0.0
C764 C 0.08466 0.49592 0.22425 0.0
N765 N 0.10097 0.49732 0.22139 0.0
C766 C 0.07375 0.49339 0.21121 0.0
C767 C 0.09667 0.49387 0.19258 0.0
C768 C 0.10712 0.49639 0.20597 0.0
C769 C 0.07972 0.49233 0.1951 0.0
H770 H 0.08014 0.49673 0.23667 0.0
H771 H 0.12017 0.49755 0.20408 0.0
O772 O 0.14188 0.50695 0.27218 0.0
O773 O 0.11285 0.4861 0.25833 0.0
O774 O 0.11429 0.52233 0.25063 0.0
O775 O 0.13927 0.4998 0.23452 0.0
H776 H 0.13025 0.48058 0.28719 0.0
H777 H 0.16406 0.52094 0.29127 0.0
H778 H 0.139 0.47114 0.31476 0.0
H779 H 0.1723 0.51079 0.3188 0.0
H780 H 0.09117 0.43931 0.23688 0.0
H781 H 0.10158 0.47339 0.28594 0.0
H782 H 0.10581 0.46579 0.23386 0.0
H783 H 0.0871 0.44672 0.28805 0.0
H784 H 0.10483 0.52559 0.32662 0.0
H785 H 0.06416 0.50791 0.29732 0.0
H786 H 0.19073 0.46268 0.26575 0.0
H787 H 0.15003 0.42879 0.26341 0.0
H788 H 0.08921 0.54027 0.24094 0.0
H789 H 0.13025 0.53825 0.27421 0.0
H790 H 0.08206 0.56752 0.25244 0.0
H791 H 0.12241 0.56549 0.2851 0.0
H792 H 0.17104 0.50529 0.23134 0.0
H793 H 0.13213 0.47086 0.22159 0.0
H794 H 0.19066 0.48577 0.21892 0.0
H795 H 0.15243 0.45192 0.20939 0.0
H796 H 0.19142 0.54782 0.2541 0.0
H797 H 0.1525 0.57294 0.22846 0.0
H798 H 0.06077 0.49247 0.21371 0.0
H799 H 0.10185 0.49292 0.18042 0.0
Li800 Li 0.73713 0.61798 1.00056 0.0
Li801 Li 0.75017 0.639 0.01783 0.0
Li802 Li 0.75481 0.63815 0.9882 0.0
Li803 Li 0.76652 0.61737 0.00649 0.0
C804 C 0.72769 0.65491 0.99169 0.0
N805 N 0.71661 0.68168 0.9742 0.0
C806 C 0.72905 0.67066 0.99834 0.0
C807 C 0.72061 0.65277 0.97618 0.0
C808 C 0.72337 0.68404 0.9893 0.0
C809 C 0.71513 0.66646 0.96751 0.0
C810 C 0.74272 0.61523 0.03773 0.0
C811 C 0.74731 0.61973 0.06664 0.0
N812 N 0.73109 0.6173 0.06942 0.0
C813 C 0.72609 0.61277 0.04087 0.0
C814 C 0.75344 0.6187 0.05071 0.0
C815 C 0.72045 0.61386 0.05698 0.0
C816 C 0.71945 0.58829 1.00143 0.0
N817 N 0.7182 0.60445 0.99765 0.0
C818 C 0.69025 0.60083 0.98954 0.0
C819 C 0.70395 0.61089 0.99196 0.0
C820 C 0.69124 0.58399 0.99305 0.0
C821 C 0.70611 0.57777 0.99911 0.0
H822 H 0.73089 0.58354 0.00612 0.0
H823 H 0.70318 0.62383 0.98933 0.0
C824 C 0.75983 0.6608 0.04341 0.0
N825 N 0.74686 0.6532 0.03615 0.0
C826 C 0.75748 0.67102 0.05695 0.0
C827 C 0.72842 0.66559 0.05512 0.0
C828 C 0.73135 0.65545 0.04164 0.0
C829 C 0.7416 0.67354 0.063 0.0
H830 H 0.77201 0.65892 0.03872 0.0
H831 H 0.72124 0.64936 0.03551 0.0
C832 C 0.74974 0.60115 0.97634 0.0
N833 N 0.73701 0.57432 0.95988 0.0
C834 C 0.75531 0.5854 0.98001 0.0
C835 C 0.73774 0.60327 0.96424 0.0
C836 C 0.74873 0.57199 0.97155 0.0
C837 C 0.73143 0.58954 0.95609 0.0
C838 C 0.7877 0.64117 0.00632 0.0
C839 C 0.79639 0.64309 0.99172 0.0
C840 C 0.79618 0.6382 0.02095 0.0
C841 C 0.81346 0.64197 0.99201 0.0
C842 C 0.81324 0.63713 0.02072 0.0
N843 N 0.82145 0.63903 0.00637 0.0
C844 C 0.76148 0.66783 0.97195 0.0
C845 C 0.75846 0.64507 0.95408 0.0
C846 C 0.7638 0.67834 0.95867 0.0
N847 N 0.75863 0.65159 0.96943 0.0
C848 C 0.76089 0.65512 0.94043 0.0
C849 C 0.76347 0.67202 0.94264 0.0
H850 H 0.76184 0.67262 0.98432 0.0
H851 H 0.75641 0.63209 0.95242 0.0
C852 C 0.7876 0.59649 0.02477 0.0
N853 N 0.7849 0.60332 0.00981 0.0
C854 C 0.80112 0.58637 0.02733 0.0
C855 C 0.80864 0.59024 0.99897 0.0
C856 C 0.79505 0.60039 0.99699 0.0
C857 C 0.81183 0.58311 0.01432 0.0
H858 H 0.77925 0.59885 0.0347 0.0
H859 H 0.79256 0.60597 0.98521 0.0
O860 O 0.73349 0.6417 1.0002 0.0
O861 O 0.74842 0.6146 0.02199 0.0
O862 O 0.75578 0.61441 0.98473 0.0
O863 O 0.77097 0.64178 0.00622 0.0
H864 H 0.73461 0.67258 0.01025 0.0
H865 H 0.71961 0.6407 0.97078 0.0
H866 H 0.72442 0.6963 0.99426 0.0
H867 H 0.70975 0.66499 0.95545 0.0
H868 H 0.75544 0.62255 0.07678 0.0
H869 H 0.71759 0.61021 0.03098 0.0
H870 H 0.7663 0.62095 0.04848 0.0
H871 H 0.70761 0.61203 0.05959 0.0
H872 H 0.67898 0.60623 0.98514 0.0
H873 H 0.70753 0.56487 0.00182 0.0
H874 H 0.76802 0.67673 0.06272 0.0
H875 H 0.71595 0.66736 0.05916 0.0
H876 H 0.76447 0.58351 0.98944 0.0
H877 H 0.73316 0.61534 0.96136 0.0
H878 H 0.75287 0.55973 0.97432 0.0
H879 H 0.72206 0.59099 0.94679 0.0
H880 H 0.79005 0.64524 0.98026 0.0
H881 H 0.78964 0.6364 0.03231 0.0
H882 H 0.82033 0.64338 0.9808 0.0
H883 H 0.81994 0.63471 0.03192 0.0
H884 H 0.76602 0.69124 0.96093 0.0
H885 H 0.7605 0.64978 0.92826 0.0
H886 H 0.80303 0.58094 0.0393 0.0
H887 H 0.81667 0.58812 0.98866 0.0
Li888 Li 0.86708 0.01723 0.2534 0.0
Li889 Li 0.88867 0.99947 0.26503 0.0
Li890 Li 0.88793 0.00476 0.23572 0.0
Li891 Li 0.86718 0.98769 0.24944 0.0
C892 C 0.89506 0.03581 0.2471 0.0
N893 N 0.90272 0.06598 0.23382 0.0
C894 C 0.90784 0.04515 0.25373 0.0
C895 C 0.88619 0.04178 0.23367 0.0
C896 C 0.91152 0.06039 0.24685 0.0
C897 C 0.89025 0.05707 0.22715 0.0
C898 C 0.8518 0.99249 0.27731 0.0
C899 C 0.83957 0.96962 0.29151 0.0
N900 N 0.82467 0.97688 0.29022 0.0
C901 C 0.83638 0.9998 0.2763 0.0
C902 C 0.85343 0.97735 0.28514 0.0
C903 C 0.82281 0.9917 0.28285 0.0
C904 C 0.83929 0.03715 0.24872 0.0
N905 N 0.85402 0.03629 0.25647 0.0
C906 C 0.84996 0.06264 0.26861 0.0
C907 C 0.85949 0.04865 0.26628 0.0
C908 C 0.83454 0.06384 0.26093 0.0
C909 C 0.82926 0.0508 0.25087 0.0
H910 H 0.8352 0.02706 0.24111 0.0
H911 H 0.87128 0.04765 0.27227 0.0
C912 C 0.91964 0.9987 0.28053 0.0
N913 N 0.90331 0.99684 0.28311 0.0
C914 C 0.93077 0.99615 0.29333 0.0
C915 C 0.90804 0.99024 0.31127 0.0
C916 C 0.89736 0.99284 0.29811 0.0
C917 C 0.92502 0.99181 0.30895 0.0
H918 H 0.924 0.00198 0.26847 0.0
H919 H 0.88431 0.99151 0.29983 0.0
C920 C 0.85863 0.99844 0.21806 0.0
N921 N 0.84856 0.98458 0.18874 0.0
C922 C 0.86583 0.98397 0.21245 0.0
C923 C 0.84629 0.00583 0.20877 0.0
C924 C 0.86057 0.97716 0.19759 0.0
C925 C 0.84138 0.99865 0.19397 0.0
C926 C 0.90267 0.97302 0.25257 0.0
C927 C 0.91791 0.97225 0.24489 0.0
C928 C 0.89968 0.96322 0.26628 0.0
C929 C 0.93003 0.96206 0.25135 0.0
C930 C 0.91212 0.95321 0.27239 0.0
N931 N 0.92693 0.95286 0.26488 0.0
C932 C 0.91795 0.0102 0.22032 0.0
C933 C 0.89564 0.01158 0.20173 0.0
C934 C 0.92903 0.01324 0.20769 0.0
N935 N 0.90164 0.00904 0.21712 0.0
C936 C 0.90627 0.01471 0.18872 0.0
C937 C 0.92323 0.01542 0.19159 0.0
H938 H 0.92236 0.00879 0.23277 0.0
H939 H 0.88264 0.01132 0.19946 0.0
C940 C 0.83667 0.97207 0.2443 0.0
N941 N 0.8529 0.96925 0.24661 0.0
C942 C 0.82578 0.95901 0.24212 0.0
C943 C 0.84858 0.94034 0.24428 0.0
C944 C 0.85901 0.95378 0.24651 0.0
C945 C 0.83169 0.94284 0.24208 0.0
H946 H 0.83217 0.98452 0.24417 0.0
H947 H 0.872 0.95186 0.24799 0.0
O948 O 0.89144 0.02081 0.25364 0.0
O949 O 0.86518 1.00012 0.27067 0.0
O950 O 0.86335 0.00521 0.23271 0.0
O951 O 0.89073 0.98318 0.24661 0.0
H952 H 0.91486 0.04065 0.26407 0.0
H953 H 0.8763 0.0347 0.22832 0.0
H954 H 0.92139 0.06776 0.25186 0.0
H955 H 0.88349 0.06184 0.21677 0.0
H956 H 0.84067 0.95784 0.29747 0.0
H957 H 0.83485 0.01154 0.27044 0.0
H958 H 0.86524 0.97156 0.28623 0.0
H959 H 0.8108 0.99718 0.28204 0.0
H960 H 0.85469 0.07244 0.27625 0.0
H961 H 0.81738 0.05097 0.24493 0.0
H962 H 0.94373 0.99769 0.29105 0.0
H963 H 0.90309 0.98677 0.32306 0.0
H964 H 0.87539 0.97803 0.21943 0.0
H965 H 0.84058 0.01702 0.21293 0.0
H966 H 0.86603 0.96598 0.1931 0.0
H967 H 0.83185 0.00425 0.18665 0.0
H968 H 0.92034 0.97933 0.234 0.0
H969 H 0.88794 0.96349 0.27226 0.0
H970 H 0.9419 0.96143 0.24557 0.0
H971 H 0.91 0.94573 0.28312 0.0
H972 H 0.94197 0.01407 0.21052 0.0
H973 H 0.90127 0.01636 0.17652 0.0
H974 H 0.81286 0.96155 0.24064 0.0
H975 H 0.85375 0.92815 0.244 0.0
Li976 Li 0.24932 0.13839 0.51915 0.0
Li977 Li 0.23797 0.11783 0.50016 0.0
Li978 Li 0.26821 0.11878 0.50573 0.0
Li979 Li 0.25439 0.13943 0.4887 0.0
C980 C 0.25263 0.10733 0.53624 0.0
N981 N 0.25828 0.09346 0.56667 0.0
C982 C 0.24043 0.09805 0.54385 0.0
C983 C 0.2678 0.10932 0.54403 0.0
C984 C 0.24349 0.09121 0.55926 0.0
C985 C 0.2704 0.10228 0.55941 0.0
C986 C 0.21682 0.14183 0.49989 0.0
C987 C 0.19183 0.13817 0.4844 0.0
N988 N 0.18305 0.14075 0.49828 0.0
C989 C 0.20755 0.14451 0.51399 0.0
C990 C 0.20892 0.13872 0.48495 0.0
C991 C 0.19048 0.1439 0.51292 0.0
C992 C 0.24831 0.16789 0.53658 0.0
N993 N 0.24543 0.15155 0.53811 0.0
C994 C 0.23739 0.15512 0.56604 0.0
C995 C 0.23993 0.14505 0.55242 0.0
C996 C 0.24034 0.17205 0.56485 0.0
C997 C 0.24582 0.17842 0.54985 0.0
H998 H 0.25262 0.17272 0.52503 0.0
H999 H 0.2374 0.1321 0.55328 0.0
C1000 C 0.21804 0.09539 0.48224 0.0
N1001 N 0.21961 0.10362 0.49667 0.0
C1002 C 0.2045 0.08524 0.4794 0.0
C1003 C 0.1946 0.09197 0.50646 0.0
C1004 C 0.20824 0.10212 0.5087 0.0
C1005 C 0.1926 0.0834 0.49164 0.0
H1006 H 0.22729 0.09669 0.47292 0.0
H1007 H 0.20968 0.10896 0.51998 0.0
C1008 C 0.28374 0.14998 0.51404 0.0
N1009 N 0.31132 0.16416 0.52796 0.0
C1010 C 0.29527 0.15789 0.50419 0.0
C1011 C 0.28614 0.14955 0.53103 0.0
C1012 C 0.30916 0.16491 0.51144 0.0
C1013 C 0.30018 0.15672 0.53782 0.0
C1014 C 0.26135 0.11515 0.46862 0.0
C1015 C 0.27766 0.11176 0.46485 0.0
C1016 C 0.25025 0.1186 0.45599 0.0
C1017 C 0.28263 0.11203 0.44849 0.0
C1018 C 0.25571 0.11879 0.43979 0.0
N1019 N 0.27166 0.11553 0.4364 0.0
C1020 C 0.28437 0.08911 0.51059 0.0
C1021 C 0.30264 0.11163 0.50868 0.0
C1022 C 0.29741 0.07834 0.51298 0.0
N1023 N 0.28718 0.10541 0.5086 0.0
C1024 C 0.31605 0.10131 0.51111 0.0
C1025 C 0.31354 0.0844 0.51335 0.0
H1026 H 0.27194 0.08449 0.51034 0.0
H1027 H 0.30464 0.12457 0.50688 0.0
C1028 C 0.24441 0.16285 0.46496 0.0
N1029 N 0.25725 0.15375 0.47035 0.0
C1030 C 0.24614 0.17312 0.45137 0.0
C1031 C 0.27435 0.16466 0.44928 0.0
C1032 C 0.27203 0.15448 0.46282 0.0
C1033 C 0.26129 0.17416 0.44332 0.0
H1034 H 0.23278 0.1621 0.47117 0.0
H1035 H 0.28202 0.14704 0.46727 0.0
O1036 O 0.24981 0.11407 0.52112 0.0
O1037 O 0.23354 0.14204 0.50076 0.0
O1038 O 0.27002 0.14312 0.5071 0.0
O1039 O 0.25632 0.1152 0.48459 0.0
H1040 H 0.22869 0.09615 0.53797 0.0
H1041 H 0.27756 0.11603 0.53819 0.0
H1042 H 0.23411 0.08409 0.56531 0.0
H1043 H 0.28208 0.10375 0.56556 0.0
H1044 H 0.18556 0.13565 0.47295 0.0
H1045 H 0.21346 0.1469 0.52565 0.0
H1046 H 0.21592 0.13652 0.47394 0.0
H1047 H 0.18315 0.14588 0.52375 0.0
H1048 H 0.23292 0.14975 0.57731 0.0
H1049 H 0.24837 0.19137 0.54845 0.0
H1050 H 0.20347 0.0787 0.46787 0.0
H1051 H 0.1856 0.09102 0.51612 0.0
H1052 H 0.29358 0.15858 0.49107 0.0
H1053 H 0.27721 0.14393 0.53896 0.0
H1054 H 0.31822 0.17097 0.50392 0.0
H1055 H 0.30218 0.15642 0.55094 0.0
H1056 H 0.28642 0.10907 0.47446 0.0
H1057 H 0.23761 0.12137 0.4587 0.0
H1058 H 0.29524 0.1095 0.4454 0.0
H1059 H 0.24729 0.12157 0.42991 0.0
H1060 H 0.29487 0.06539 0.51436 0.0
H1061 H 0.32823 0.10658 0.51144 0.0
H1062 H 0.23564 0.18001 0.44712 0.0
H1063 H 0.28632 0.1652 0.44367 0.0
Li1064 Li 0.38784 0.49878 0.76603 0.0
Li1065 Li 0.3661 0.51648 0.75461 0.0
Li1066 Li 0.36638 0.48689 0.75054 0.0
Li1067 Li 0.38698 0.50418 0.73676 0.0
C1068 C 0.35101 0.49174 0.77864 0.0
N1069 N 0.32393 0.47644 0.79202 0.0
C1070 C 0.33582 0.49957 0.7786 0.0
C1071 C 0.35246 0.47624 0.78578 0.0
C1072 C 0.32227 0.49162 0.78536 0.0
C1073 C 0.33862 0.46867 0.79238 0.0
C1074 C 0.39392 0.53525 0.7482 0.0
C1075 C 0.38886 0.5565 0.7283 0.0
N1076 N 0.40126 0.56552 0.73497 0.0
C1077 C 0.40662 0.5447 0.75483 0.0
C1078 C 0.38497 0.54115 0.7348 0.0
C1079 C 0.41014 0.55999 0.74798 0.0
C1080 C 0.41873 0.4992 0.78177 0.0
N1081 N 0.40255 0.49608 0.78404 0.0
C1082 C 0.40755 0.48796 0.81175 0.0
C1083 C 0.39679 0.4907 0.79869 0.0
C1084 C 0.42438 0.49087 0.80975 0.0
C1085 C 0.42993 0.49666 0.79452 0.0
H1086 H 0.42295 0.50344 0.76995 0.0
H1087 H 0.38385 0.48844 0.8002 0.0
C1088 C 0.3379 0.53591 0.75038 0.0
N1089 N 0.35288 0.53544 0.75772 0.0
C1090 C 0.3277 0.54942 0.7526 0.0
C1091 C 0.34873 0.56197 0.76946 0.0
C1092 C 0.35842 0.54808 0.76714 0.0
C1093 C 0.33311 0.56267 0.76224 0.0
H1094 H 0.33379 0.52564 0.74303 0.0
H1095 H 0.37036 0.54735 0.77288 0.0
C1096 C 0.40198 0.47258 0.75368 0.0
N1097 N 0.42638 0.45286 0.76643 0.0
C1098 C 0.41755 0.47254 0.74664 0.0
C1099 C 0.39875 0.46228 0.76697 0.0
C1100 C 0.42973 0.46256 0.75331 0.0
C1101 C 0.41126 0.4525 0.77332 0.0
C1102 C 0.35742 0.49774 0.71934 0.0
C1103 C 0.3646 0.48334 0.71351 0.0
C1104 C 0.34485 0.50509 0.71033 0.0
C1105 C 0.35908 0.47656 0.69874 0.0
C1106 C 0.33969 0.49794 0.6956 0.0
N1107 N 0.34685 0.48394 0.69016 0.0
C1108 C 0.33585 0.47092 0.74646 0.0
C1109 C 0.35865 0.45305 0.74632 0.0
C1110 C 0.32511 0.45771 0.74436 0.0
N1111 N 0.35225 0.46834 0.74763 0.0
C1112 C 0.34837 0.43951 0.74402 0.0
C1113 C 0.33136 0.44175 0.7431 0.0
H1114 H 0.33112 0.48325 0.74714 0.0
H1115 H 0.37174 0.45136 0.74694 0.0
C1116 C 0.41682 0.51017 0.72118 0.0
N1117 N 0.40052 0.5086 0.71805 0.0
C1118 C 0.42778 0.51322 0.70845 0.0
C1119 C 0.40494 0.51394 0.68955 0.0
C1120 C 0.39442 0.51079 0.70265 0.0
C1121 C 0.4219 0.515 0.69234 0.0
H1122 H 0.4213 0.50908 0.73364 0.0
H1123 H 0.38142 0.51023 0.70042 0.0
O1124 O 0.36438 0.49926 0.77183 0.0
O1125 O 0.39046 0.5202 0.75472 0.0
O1126 O 0.38997 0.48255 0.74755 0.0
O1127 O 0.36238 0.50446 0.73394 0.0
H1128 H 0.33445 0.51163 0.77339 0.0
H1129 H 0.36409 0.47003 0.78613 0.0
H1130 H 0.31044 0.49751 0.7853 0.0
H1131 H 0.33956 0.45662 0.7978 0.0
H1132 H 0.38204 0.56122 0.71795 0.0
H1133 H 0.4137 0.54025 0.76516 0.0
H1134 H 0.37515 0.53398 0.72945 0.0
H1135 H 0.41993 0.56745 0.75299 0.0
H1136 H 0.40271 0.48373 0.82335 0.0
H1137 H 0.44282 0.49892 0.79239 0.0
H1138 H 0.31576 0.54956 0.74676 0.0
H1139 H 0.35326 0.57191 0.77706 0.0
H1140 H 0.42019 0.48002 0.73608 0.0
H1141 H 0.38677 0.46197 0.77243 0.0
H1142 H 0.44185 0.46249 0.74803 0.0
H1143 H 0.40895 0.44464 0.78372 0.0
H1144 H 0.37435 0.47745 0.72028 0.0
H1145 H 0.33915 0.51623 0.71466 0.0
H1146 H 0.36453 0.46543 0.69409 0.0
H1147 H 0.32999 0.50352 0.68849 0.0
H1148 H 0.31208 0.45999 0.74345 0.0
H1149 H 0.35367 0.42739 0.74312 0.0
H1150 H 0.44072 0.51436 0.71122 0.0
H1151 H 0.39987 0.5153 0.67734 0.0
Li1152 Li 0.7672 0.38814 0.49952 0.0
Li1153 Li 0.75488 0.36807 0.5179 0.0
Li1154 Li 0.74915 0.36689 0.48801 0.0
Li1155 Li 0.73725 0.38884 0.50517 0.0
C1156 C 0.78557 0.35846 0.50354 0.0
N1157 N 0.81659 0.34758 0.51148 0.0
C1158 C 0.79291 0.36318 0.51833 0.0
C1159 C 0.79397 0.34816 0.49281 0.0
C1160 C 0.8086 0.35756 0.52213 0.0
C1161 C 0.80965 0.34281 0.49703 0.0
C1162 C 0.75995 0.40041 0.53432 0.0
C1163 C 0.75232 0.41435 0.55924 0.0
N1164 N 0.7684 0.41715 0.56265 0.0
C1165 C 0.7764 0.40357 0.53801 0.0
C1166 C 0.74779 0.40597 0.54496 0.0
C1167 C 0.78042 0.412 0.55241 0.0
C1168 C 0.78376 0.41825 0.49852 0.0
N1169 N 0.78568 0.40199 0.49549 0.0
C1170 C 0.81333 0.40647 0.48706 0.0
C1171 C 0.80004 0.39599 0.48968 0.0
C1172 C 0.8118 0.42334 0.49026 0.0
C1173 C 0.7967 0.42918 0.49598 0.0
H1174 H 0.77213 0.42271 0.50293 0.0
H1175 H 0.80122 0.3831 0.48702 0.0
C1176 C 0.75524 0.33816 0.53454 0.0
N1177 N 0.75797 0.35446 0.53678 0.0
C1178 C 0.75728 0.32722 0.54755 0.0
C1179 C 0.76496 0.35001 0.56494 0.0
C1180 C 0.76269 0.36053 0.55162 0.0
C1181 C 0.76226 0.3331 0.563 0.0
H1182 H 0.75153 0.33368 0.52259 0.0
H1183 H 0.76478 0.37348 0.55318 0.0
C1184 C 0.75501 0.39454 0.46848 0.0
N1185 N 0.76799 0.40183 0.43813 0.0
C1186 C 0.74859 0.40741 0.45921 0.0
C1187 C 0.76806 0.38539 0.46234 0.0
C1188 C 0.75532 0.41089 0.44389 0.0
C1189 C 0.77444 0.38927 0.44697 0.0
C1190 C 0.72133 0.35994 0.51688 0.0
C1191 C 0.71003 0.34794 0.5121 0.0
C1192 C 0.72027 0.36698 0.53246 0.0
C1193 C 0.69773 0.34326 0.523 0.0
C1194 C 0.70782 0.36196 0.54301 0.0
N1195 N 0.69689 0.35031 0.5381 0.0
C1196 C 0.75119 0.33711 0.47067 0.0
C1197 C 0.73664 0.35793 0.45664 0.0
C1198 C 0.74878 0.32628 0.45758 0.0
N1199 N 0.74521 0.35261 0.46992 0.0
C1200 C 0.73405 0.34756 0.44321 0.0
C1201 C 0.74017 0.33147 0.44354 0.0
H1202 H 0.75782 0.33317 0.48148 0.0
H1203 H 0.73191 0.37029 0.45641 0.0
C1204 C 0.72197 0.41897 0.51165 0.0
N1205 N 0.71895 0.40294 0.50819 0.0
C1206 C 0.70903 0.4298 0.51421 0.0
C1207 C 0.69009 0.40745 0.50948 0.0
C1208 C 0.7034 0.39709 0.50688 0.0
C1209 C 0.69278 0.42408 0.51324 0.0
H1210 H 0.73448 0.42332 0.51243 0.0
H1211 H 0.70129 0.38435 0.50387 0.0
O1212 O 0.77024 0.36384 0.49952 0.0
O1213 O 0.75573 0.39226 0.52022 0.0
O1214 O 0.74861 0.3911 0.48357 0.0
O1215 O 0.73347 0.3646 0.50637 0.0
H1216 H 0.78654 0.37104 0.5268 0.0
H1217 H 0.78845 0.34443 0.48128 0.0
H1218 H 0.81442 0.36112 0.53354 0.0
H1219 H 0.81632 0.33487 0.48882 0.0
H1220 H 0.74303 0.41866 0.5676 0.0
H1221 H 0.78599 0.39963 0.52984 0.0
H1222 H 0.73498 0.40389 0.54222 0.0
H1223 H 0.7931 0.41448 0.55542 0.0
H1224 H 0.82474 0.40135 0.48276 0.0
H1225 H 0.79482 0.4421 0.49833 0.0
H1226 H 0.75522 0.31426 0.54546 0.0
H1227 H 0.76863 0.35509 0.57668 0.0
H1228 H 0.73852 0.41463 0.46383 0.0
H1229 H 0.77321 0.37541 0.46935 0.0
H1230 H 0.75047 0.42082 0.43657 0.0
H1231 H 0.78454 0.38229 0.44207 0.0
H1232 H 0.71074 0.34234 0.50008 0.0
H1233 H 0.72904 0.37613 0.53639 0.0
H1234 H 0.68887 0.33401 0.51946 0.0
H1235 H 0.70686 0.36731 0.55512 0.0
H1236 H 0.75347 0.31393 0.45854 0.0
H1237 H 0.72753 0.3522 0.43261 0.0
H1238 H 0.71174 0.44256 0.51677 0.0
H1239 H 0.67783 0.40241 0.50875 0.0
Li1240 Li 0.63785 0.98732 0.75594 0.0
Li1241 Li 0.61537 0.00518 0.76794 0.0
Li1242 Li 0.61669 0.9979 0.73935 0.0
Li1243 Li 0.63772 0.01657 0.74995 0.0
C1244 C 0.60141 0.97284 0.7532 0.0
N1245 N 0.57577 0.95332 0.74238 0.0
C1246 C 0.58565 0.97513 0.75936 0.0
C1247 C 0.60416 0.96037 0.74178 0.0
C1248 C 0.57284 0.9652 0.75369 0.0
C1249 C 0.59104 0.95071 0.73638 0.0
C1250 C 0.6473 0.01678 0.78185 0.0
C1251 C 0.64779 0.04296 0.79559 0.0
N1252 N 0.66301 0.03958 0.80149 0.0
C1253 C 0.66292 0.01354 0.78805 0.0
C1254 C 0.63964 0.03158 0.78564 0.0
C1255 C 0.67067 0.02523 0.79796 0.0
C1256 C 0.66865 0.97235 0.7609 0.0
N1257 N 0.65224 0.9695 0.76047 0.0
C1258 C 0.65643 0.94098 0.76554 0.0
C1259 C 0.646 0.95424 0.76285 0.0
C1260 C 0.67347 0.94347 0.76584 0.0
C1261 C 0.67954 0.95945 0.76354 0.0
H1262 H 0.67328 0.98462 0.75895 0.0
H1263 H 0.6329 0.95235 0.76262 0.0
C1264 C 0.58618 0.01388 0.78419 0.0
N1265 N 0.60202 0.0094 0.78661 0.0
C1266 C 0.57591 0.01657 0.79754 0.0
C1267 C 0.59854 0.01044 0.8157 0.0
C1268 C 0.60833 0.00764 0.80197 0.0
C1269 C 0.58206 0.01484 0.81355 0.0
H1270 H 0.58143 0.015 0.77186 0.0
H1271 H 0.62093 0.00394 0.80356 0.0
C1272 C 0.65265 0.98966 0.72698 0.0
N1273 N 0.67782 0.97192 0.71307 0.0
C1274 C 0.66784 0.99705 0.72418 0.0
C1275 C 0.65017 0.97336 0.72228 0.0
C1276 C 0.68043 0.98786 0.71723 0.0
C1277 C 0.66306 0.96455 0.7154 0.0
C1278 C 0.60586 0.02861 0.73682 0.0
C1279 C 0.61342 0.03018 0.72155 0.0
C1280 C 0.59027 0.03517 0.73916 0.0
C1281 C 0.60515 0.03809 0.70881 0.0
C1282 C 0.5824 0.04301 0.72611 0.0
N1283 N 0.58994 0.04428 0.71133 0.0
C1284 C 0.58613 0.99598 0.7228 0.0
C1285 C 0.60886 0.98874 0.70642 0.0
C1286 C 0.57546 0.99353 0.70959 0.0
N1287 N 0.60248 0.99359 0.721 0.0
C1288 C 0.59862 0.98608 0.69289 0.0
C1289 C 0.58168 0.98855 0.69436 0.0
H1290 H 0.58138 0.99995 0.73449 0.0
H1291 H 0.62192 0.98716 0.70523 0.0
C1292 C 0.66783 0.03387 0.75026 0.0
N1293 N 0.65152 0.03546 0.74728 0.0
C1294 C 0.67836 0.04727 0.74846 0.0
C1295 C 0.65507 0.06388 0.74101 0.0
C1296 C 0.64499 0.05017 0.74303 0.0
C1297 C 0.67203 0.06251 0.74361 0.0
H1298 H 0.67269 0.02213 0.75397 0.0
H1299 H 0.63195 0.05134 0.74128 0.0
O1300 O 0.61406 0.98266 0.75843 0.0
O1301 O 0.63968 0.00568 0.77178 0.0
O1302 O 0.64024 0.99841 0.73402 0.0
O1303 O 0.61362 0.02048 0.74929 0.0
H1304 H 0.58329 0.98448 0.76839 0.0
H1305 H 0.61627 0.95816 0.73709 0.0
H1306 H 0.56058 0.96695 0.75828 0.0
H1307 H 0.593 0.94112 0.72744 0.0
H1308 H 0.64204 0.05449 0.79858 0.0
H1309 H 0.66903 0.00215 0.78517 0.0
H1310 H 0.62759 0.03432 0.78079 0.0
H1311 H 0.68279 0.02292 0.80283 0.0
H1312 H 0.6512 0.92894 0.76752 0.0
H1313 H 0.69257 0.96191 0.76349 0.0
H1314 H 0.5633 0.02004 0.79538 0.0
H1315 H 0.6037 0.00884 0.82786 0.0
H1316 H 0.66988 0.00978 0.72717 0.0
H1317 H 0.63845 0.96752 0.72403 0.0
H1318 H 0.69227 0.99342 0.7151 0.0
H1319 H 0.66132 0.95187 0.71191 0.0
H1320 H 0.6255 0.02519 0.71952 0.0
H1321 H 0.58427 0.03423 0.7509 0.0
H1322 H 0.61082 0.03929 0.69691 0.0
H1323 H 0.57031 0.04808 0.72773 0.0
H1324 H 0.56247 0.99543 0.71132 0.0
H1325 H 0.60395 0.98245 0.68131 0.0
H1326 H 0.69135 0.04563 0.75055 0.0
H1327 H 0.64962 0.07548 0.73762 0.0
Li1328 Li 0.01564 0.25631 0.86879 0.0
Li1329 Li 0.99713 0.2667 0.8898 0.0
Li1330 Li 0.00422 0.23814 0.8911 0.0
Li1331 Li 0.98637 0.25029 0.86851 0.0
C1332 C 0.02747 0.26924 0.90114 0.0
N1333 N 0.04236 0.29478 0.91787 0.0
C1334 C 0.02939 0.28451 0.89361 0.0
C1335 C 0.03329 0.26692 0.91711 0.0
C1336 C 0.0369 0.29728 0.90229 0.0
C1337 C 0.04075 0.28 0.92538 0.0
C1338 C 0.98874 0.27927 0.85378 0.0
C1339 C 0.9637 0.29111 0.84345 0.0
N1340 N 0.9708 0.29315 0.82855 0.0
C1341 C 0.99587 0.28177 0.83844 0.0
C1342 C 0.97261 0.28425 0.85638 0.0
C1343 C 0.98658 0.28871 0.82582 0.0
C1344 C 0.03269 0.25582 0.8387 0.0
N1345 N 0.03438 0.25906 0.85499 0.0
C1346 C 0.0627 0.26562 0.85136 0.0
C1347 C 0.04909 0.26361 0.86148 0.0
C1348 C 0.06122 0.26271 0.83443 0.0
C1349 C 0.04598 0.25761 0.82815 0.0
H1350 H 0.02095 0.25191 0.83388 0.0
H1351 H 0.05033 0.26558 0.87452 0.0
C1352 C 0.99443 0.28318 0.92043 0.0
N1353 N 0.99293 0.28508 0.90392 0.0
C1354 C 0.992 0.29646 0.93095 0.0
C1355 C 0.98664 0.31347 0.90731 0.0
C1356 C 0.98915 0.29984 0.89725 0.0
C1357 C 0.98809 0.3119 0.92442 0.0
H1358 H 0.99767 0.27137 0.92543 0.0
H1359 H 0.98834 0.30112 0.88408 0.0
C1360 C 0.01558 0.22441 0.85916 0.0
N1361 N 0.03806 0.20466 0.84358 0.0
C1362 C 0.01207 0.21797 0.84364 0.0
C1363 C 0.0305 0.2208 0.86678 0.0
C1364 C 0.02361 0.20801 0.83596 0.0
C1365 C 0.04171 0.21079 0.85869 0.0
C1366 C 0.97194 0.25259 0.9049 0.0
C1367 C 0.97391 0.24591 0.92055 0.0
C1368 C 0.95968 0.26419 0.90218 0.0
C1369 C 0.9639 0.25127 0.93331 0.0
C1370 C 0.94994 0.26927 0.91525 0.0
N1371 N 0.95225 0.26277 0.93043 0.0
C1372 C 0.01261 0.22141 0.92033 0.0
C1373 C 0.007 0.20404 0.89766 0.0
C1374 C 0.0154 0.20787 0.93041 0.0
N1375 N 0.00842 0.21928 0.90431 0.0
C1376 C 0.00995 0.19015 0.90723 0.0
C1377 C 0.01411 0.192 0.92387 0.0
H1378 H 0.01346 0.23363 0.92537 0.0
H1379 H 0.00348 0.20265 0.88493 0.0
C1380 C 0.97139 0.24543 0.83756 0.0
N1381 N 0.96853 0.24588 0.85396 0.0
C1382 C 0.95849 0.24289 0.82652 0.0
C1383 C 0.93999 0.24097 0.84948 0.0
C1384 C 0.95324 0.24361 0.86007 0.0
C1385 C 0.94251 0.24066 0.83244 0.0
H1386 H 0.9837 0.2472 0.83305 0.0
H1387 H 0.95132 0.24395 0.87317 0.0
O1388 O 0.0197 0.25675 0.89296 0.0
O1389 O 0.99756 0.27219 0.86622 0.0
O1390 O 0.00463 0.23452 0.8667 0.0
O1391 O 0.98181 0.24762 0.8923 0.0
H1392 H 0.02494 0.28654 0.88126 0.0
H1393 H 0.03206 0.25518 0.9231 0.0
H1394 H 0.03835 0.30919 0.89666 0.0
H1395 H 0.04525 0.27839 0.93777 0.0
H1396 H 0.95115 0.29484 0.84528 0.0
H1397 H 0.00846 0.27853 0.8363 0.0
H1398 H 0.96699 0.28277 0.86822 0.0
H1399 H 0.99193 0.2906 0.81386 0.0
H1400 H 0.0743 0.26922 0.85677 0.0
H1401 H 0.04427 0.25529 0.81517 0.0
H1402 H 0.99309 0.29461 0.94405 0.0
H1403 H 0.98393 0.32518 0.90172 0.0
H1404 H 1.00059 0.2207 0.83757 0.0
H1405 H 0.03345 0.22582 0.87873 0.0
H1406 H 0.02108 0.20296 0.82393 0.0
H1407 H 0.05333 0.20794 0.86441 0.0
H1408 H 0.98306 0.2367 0.92287 0.0
H1409 H 0.95771 0.26927 0.89014 0.0
H1410 H 0.9654 0.24627 0.9455 0.0
H1411 H 0.94052 0.27835 0.91331 0.0
H1412 H 0.01865 0.2098 0.94317 0.0
H1413 H 0.00869 0.17809 0.90178 0.0
H1414 H 0.96102 0.24253 0.8135 0.0
H1415 H 0.92786 0.23947 0.85457 0.0
Li1416 Li 0.51599 0.75695 0.36723 0.0
Li1417 Li 0.49797 0.76697 0.38929 0.0
Li1418 Li 0.50515 0.73833 0.38883 0.0
Li1419 Li 0.48734 0.74971 0.36848 0.0
C1420 C 0.52796 0.76904 0.40046 0.0
N1421 N 0.54191 0.79379 0.41909 0.0
C1422 C 0.53108 0.78437 0.39348 0.0
C1423 C 0.53204 0.76627 0.41688 0.0
C1424 C 0.53811 0.79673 0.4031 0.0
C1425 C 0.53906 0.77894 0.4261 0.0
C1426 C 0.48539 0.77917 0.3563 0.0
C1427 C 0.45858 0.79116 0.35359 0.0
N1428 N 0.46082 0.79243 0.33713 0.0
C1429 C 0.48747 0.78067 0.33937 0.0
C1430 C 0.47086 0.78451 0.3635 0.0
C1431 C 0.47489 0.78738 0.32988 0.0
C1432 C 0.53172 0.7592 0.3367 0.0
N1433 N 0.53409 0.76102 0.35311 0.0
C1434 C 0.56238 0.76727 0.34901 0.0
C1435 C 0.54908 0.76477 0.35942 0.0
C1436 C 0.56028 0.76566 0.33197 0.0
C1437 C 0.5447 0.76149 0.32584 0.0
H1438 H 0.51976 0.75578 0.33206 0.0
H1439 H 0.55081 0.76558 0.37253 0.0
C1440 C 0.49159 0.78201 0.41979 0.0
N1441 N 0.49385 0.78498 0.40357 0.0
C1442 C 0.48912 0.79499 0.43069 0.0
C1443 C 0.49119 0.81381 0.40792 0.0
C1444 C 0.49371 0.80048 0.39749 0.0
C1445 C 0.4889 0.81119 0.42479 0.0
H1446 H 0.49193 0.76954 0.42428 0.0
H1447 H 0.49569 0.80249 0.38455 0.0
C1448 C 0.51776 0.72402 0.36001 0.0
N1449 N 0.54191 0.70228 0.35087 0.0
C1450 C 0.51494 0.71292 0.34723 0.0
C1451 C 0.5329 0.7241 0.36811 0.0
C1452 C 0.5273 0.70201 0.3428 0.0
C1453 C 0.54494 0.71301 0.36331 0.0
C1454 C 0.47252 0.73569 0.39577 0.0
C1455 C 0.4725 0.72133 0.38638 0.0
C1456 C 0.46158 0.73725 0.40879 0.0
C1457 C 0.46148 0.70878 0.39018 0.0
C1458 C 0.45075 0.72442 0.41219 0.0
N1459 N 0.45093 0.71057 0.40289 0.0
C1460 C 0.51007 0.72259 0.41901 0.0
C1461 C 0.51033 0.70428 0.39646 0.0
C1462 C 0.51261 0.70967 0.42995 0.0
N1463 N 0.50923 0.71975 0.4026 0.0
C1464 C 0.51294 0.691 0.40693 0.0
C1465 C 0.51416 0.69359 0.42394 0.0
H1466 H 0.50847 0.7349 0.42363 0.0
H1467 H 0.50901 0.70214 0.38346 0.0
C1468 C 0.47146 0.74144 0.33877 0.0
N1469 N 0.46875 0.74569 0.35464 0.0
C1470 C 0.45832 0.73919 0.32796 0.0
C1471 C 0.43982 0.74546 0.3501 0.0
C1472 C 0.45332 0.74775 0.36043 0.0
C1473 C 0.44219 0.7412 0.33356 0.0
H1474 H 0.48389 0.7401 0.33445 0.0
H1475 H 0.45148 0.75138 0.37304 0.0
O1476 O 0.52059 0.75698 0.39134 0.0
O1477 O 0.49734 0.77218 0.36575 0.0
O1478 O 0.50581 0.7349 0.36425 0.0
O1479 O 0.48326 0.74815 0.39249 0.0
H1480 H 0.52785 0.78677 0.38082 0.0
H1481 H 0.52981 0.75447 0.42247 0.0
H1482 H 0.54047 0.80868 0.39789 0.0
H1483 H 0.54223 0.77698 0.43884 0.0
H1484 H 0.44722 0.79522 0.35898 0.0
H1485 H 0.49864 0.77661 0.33361 0.0
H1486 H 0.46898 0.78326 0.37657 0.0
H1487 H 0.4763 0.78854 0.31675 0.0
H1488 H 0.57426 0.77013 0.35427 0.0
H1489 H 0.54255 0.76014 0.31279 0.0
H1490 H 0.48767 0.79238 0.44361 0.0
H1491 H 0.49092 0.82603 0.40277 0.0
H1492 H 0.50331 0.71276 0.3408 0.0
H1493 H 0.53535 0.73259 0.37801 0.0
H1494 H 0.52527 0.69334 0.33294 0.0
H1495 H 0.55669 0.71293 0.36948 0.0
H1496 H 0.48086 0.71984 0.37627 0.0
H1497 H 0.46148 0.74827 0.4162 0.0
H1498 H 0.46134 0.69761 0.38301 0.0
H1499 H 0.44221 0.72547 0.42222 0.0
H1500 H 0.51305 0.71222 0.44298 0.0
H1501 H 0.51408 0.67885 0.40173 0.0
H1502 H 0.46081 0.73621 0.31527 0.0
H1503 H 0.42765 0.74695 0.35507 0.0
Li1504 Li 0.00494 0.7695 0.61744 0.0
Li1505 Li 0.98675 0.75751 0.63841 0.0
Li1506 Li 0.01654 0.75206 0.63835 0.0
Li1507 Li 0.99934 0.7388 0.61776 0.0
C1508 C 0.00636 0.7896 0.64445 0.0
N1509 N 0.00874 0.82296 0.64993 0.0
C1510 C 0.99318 0.79815 0.65114 0.0
C1511 C 0.02077 0.79803 0.64057 0.0
C1512 C 0.99462 0.81501 0.65381 0.0
C1513 C 0.02172 0.81489 0.64342 0.0
C1514 C 0.97006 0.76112 0.6059 0.0
C1515 C 0.94635 0.75287 0.59013 0.0
N1516 N 0.94185 0.76884 0.58877 0.0
C1517 C 0.96519 0.77744 0.60436 0.0
C1518 C 0.96057 0.74871 0.59873 0.0
C1519 C 0.95089 0.7811 0.59566 0.0
C1520 C 0.01717 0.78469 0.58904 0.0
N1521 N 0.00835 0.78766 0.60283 0.0
C1522 C 0.00515 0.81579 0.59521 0.0
C1523 C 0.00212 0.8028 0.60591 0.0
C1524 C 0.01427 0.81307 0.58097 0.0
C1525 C 0.02019 0.79727 0.57781 0.0
H1526 H 0.02185 0.77253 0.58676 0.0
H1527 H 0.99476 0.80488 0.61665 0.0
C1528 C 0.97026 0.75783 0.66842 0.0
N1529 N 0.96808 0.76077 0.65215 0.0
C1530 C 0.95732 0.7599 0.67937 0.0
C1531 C 0.94013 0.76803 0.65663 0.0
C1532 C 0.95336 0.76571 0.64612 0.0
C1533 C 0.94201 0.76514 0.6735 0.0
H1534 H 0.98209 0.75389 0.67289 0.0
H1535 H 0.95178 0.76783 0.63319 0.0
C1536 C 0.03641 0.74709 0.61423 0.0
N1537 N 0.06925 0.73937 0.61565 0.0
C1538 C 0.04132 0.73071 0.61414 0.0
C1539 C 0.04817 0.75956 0.6149 0.0
C1540 C 0.058 0.72705 0.61489 0.0
C1541 C 0.06472 0.75539 0.61565 0.0
C1542 C 0.98743 0.72423 0.64656 0.0
C1543 C 0.99156 0.71295 0.65876 0.0
C1544 C 0.97201 0.72343 0.63912 0.0
C1545 C 0.98019 0.70096 0.66324 0.0
C1546 C 0.96097 0.71127 0.64394 0.0
N1547 N 0.96525 0.70038 0.6558 0.0
C1548 C 0.04443 0.76106 0.65757 0.0
C1549 C 0.03922 0.73253 0.65578 0.0
C1550 C 0.05832 0.7583 0.6672 0.0
N1551 N 0.03526 0.74825 0.65201 0.0
C1552 C 0.05298 0.7292 0.66546 0.0
C1553 C 0.06277 0.74219 0.67127 0.0
H1554 H 0.04099 0.77343 0.65454 0.0
H1555 H 0.03174 0.72257 0.65113 0.0
C1556 C 0.99449 0.72294 0.5876 0.0
N1557 N 0.99624 0.72012 0.60394 0.0
C1558 C 0.99209 0.70989 0.57672 0.0
C1559 C 0.99349 0.69123 0.59967 0.0
C1560 C 0.99606 0.70463 0.61008 0.0
C1561 C 0.99144 0.69379 0.58276 0.0
H1562 H 0.99485 0.73538 0.58304 0.0
H1563 H 0.99796 0.70261 0.62303 0.0
O1564 O 0.00518 0.77308 0.64186 0.0
O1565 O 0.98412 0.75727 0.61423 0.0
O1566 O 0.02014 0.7509 0.61405 0.0
O1567 O 0.99844 0.73608 0.64213 0.0
H1568 H 0.98194 0.79184 0.65422 0.0
H1569 H 0.03097 0.7917 0.63508 0.0
H1570 H 0.98451 0.82178 0.65896 0.0
H1571 H 0.03274 0.82158 0.64037 0.0
H1572 H 0.93889 0.74339 0.58453 0.0
H1573 H 0.97218 0.78715 0.61009 0.0
H1574 H 0.96409 0.736 0.59982 0.0
H1575 H 0.94695 0.79368 0.59443 0.0
H1576 H 1.0002 0.82779 0.59791 0.0
H1577 H 0.02728 0.79475 0.5669 0.0
H1578 H 0.95934 0.75766 0.69231 0.0
H1579 H 0.92848 0.77186 0.65155 0.0
H1580 H 0.03233 0.72094 0.6137 0.0
H1581 H 0.04452 0.77229 0.61499 0.0
H1582 H 0.06199 0.71443 0.61494 0.0
H1583 H 0.07397 0.7649 0.61628 0.0
H1584 H 0.00344 0.71345 0.6647 0.0
H1585 H 0.96857 0.73212 0.62976 0.0
H1586 H 0.98322 0.69212 0.67265 0.0
H1587 H 0.94899 0.71052 0.63827 0.0
H1588 H 0.06538 0.76868 0.67161 0.0
H1589 H 0.05606 0.71659 0.66817 0.0
H1590 H 0.9905 0.71237 0.56377 0.0
H1591 H 0.99334 0.67898 0.60476 0.0
Li1592 Li 0.50439 0.26902 0.11842 0.0
Li1593 Li 0.48615 0.25699 0.13936 0.0
Li1594 Li 0.51613 0.25192 0.1396 0.0
Li1595 Li 0.49903 0.23827 0.11902 0.0
C1596 C 0.50567 0.28933 0.14519 0.0
N1597 N 0.50818 0.32276 0.15012 0.0
C1598 C 0.49246 0.29806 0.15156 0.0
C1599 C 0.52019 0.29759 0.1414 0.0
C1600 C 0.49397 0.31496 0.15396 0.0
C1601 C 0.52121 0.31449 0.14395 0.0
C1602 C 0.46908 0.25893 0.10717 0.0
C1603 C 0.4447 0.24808 0.09423 0.0
N1604 N 0.43983 0.26359 0.09065 0.0
C1605 C 0.46387 0.27475 0.10325 0.0
C1606 C 0.45946 0.24547 0.10253 0.0
C1607 C 0.44903 0.27686 0.09495 0.0
C1608 C 0.51705 0.28452 0.09034 0.0
N1609 N 0.50769 0.28716 0.10381 0.0
C1610 C 0.50351 0.31506 0.09591 0.0
C1611 C 0.50075 0.30201 0.10661 0.0
C1612 C 0.51315 0.31277 0.08185 0.0
C1613 C 0.51987 0.29714 0.07912 0.0
H1614 H 0.52224 0.27253 0.08824 0.0
H1615 H 0.49301 0.3038 0.11714 0.0
C1616 C 0.46871 0.25579 0.1689 0.0
N1617 N 0.46739 0.26038 0.15292 0.0
C1618 C 0.45559 0.25789 0.17961 0.0
C1619 C 0.43997 0.26953 0.15727 0.0
C1620 C 0.4534 0.26719 0.14701 0.0
C1621 C 0.44095 0.26486 0.17383 0.0
H1622 H 0.48003 0.25052 0.17332 0.0
H1623 H 0.4526 0.2709 0.13437 0.0
C1624 C 0.53607 0.24674 0.11532 0.0
N1625 N 0.56894 0.23906 0.11628 0.0
C1626 C 0.54102 0.2304 0.11444 0.0
C1627 C 0.5478 0.25919 0.11653 0.0
C1628 C 0.55772 0.22676 0.11498 0.0
C1629 C 0.56437 0.25505 0.11705 0.0
C1630 C 0.48817 0.22335 0.1483 0.0
C1631 C 0.49395 0.2117 0.15944 0.0
C1632 C 0.47214 0.22219 0.14236 0.0
C1633 C 0.48359 0.19898 0.16436 0.0
C1634 C 0.46215 0.2093 0.14758 0.0
N1635 N 0.46804 0.19805 0.15838 0.0
C1636 C 0.54251 0.26134 0.16067 0.0
C1637 C 0.53997 0.23281 0.1558 0.0
C1638 C 0.55622 0.25879 0.17063 0.0
N1639 N 0.53476 0.24843 0.15343 0.0
C1640 C 0.55365 0.2297 0.16566 0.0
C1641 C 0.56198 0.2428 0.17325 0.0
H1642 H 0.53807 0.27361 0.15872 0.0
H1643 H 0.53351 0.22276 0.14997 0.0
C1644 C 0.49316 0.22179 0.08932 0.0
N1645 N 0.49614 0.21933 0.10554 0.0
C1646 C 0.49096 0.20845 0.07876 0.0
C1647 C 0.49511 0.19028 0.10176 0.0
C1648 C 0.49735 0.20397 0.11185 0.0
C1649 C 0.49184 0.19239 0.08494 0.0
H1650 H 0.49251 0.23415 0.08459 0.0
H1651 H 0.5001 0.20229 0.1247 0.0
O1652 O 0.5044 0.27278 0.1428 0.0
O1653 O 0.48369 0.25662 0.11512 0.0
O1654 O 0.51979 0.25051 0.11529 0.0
O1655 O 0.49819 0.23584 0.14336 0.0
H1656 H 0.48115 0.29187 0.15461 0.0
H1657 H 0.53048 0.29106 0.13629 0.0
H1658 H 0.48383 0.32188 0.15885 0.0
H1659 H 0.53233 0.32105 0.14097 0.0
H1660 H 0.43714 0.23777 0.0906 0.0
H1661 H 0.47108 0.2853 0.10679 0.0
H1662 H 0.46334 0.23311 0.10524 0.0
H1663 H 0.44482 0.28905 0.09194 0.0
H1664 H 0.49822 0.32686 0.09879 0.0
H1665 H 0.52707 0.29457 0.06832 0.0
H1666 H 0.45699 0.25433 0.19232 0.0
H1667 H 0.42889 0.27479 0.15224 0.0
H1668 H 0.53207 0.22062 0.11355 0.0
H1669 H 0.54413 0.2719 0.11718 0.0
H1670 H 0.56174 0.21416 0.11442 0.0
H1671 H 0.57359 0.26455 0.11808 0.0
H1672 H 0.50632 0.21247 0.1642 0.0
H1673 H 0.46742 0.23121 0.13393 0.0
H1674 H 0.48791 0.18986 0.17294 0.0
H1675 H 0.44971 0.20827 0.14308 0.0
H1676 H 0.56234 0.26927 0.17609 0.0
H1677 H 0.55751 0.21715 0.1675 0.0
H1678 H 0.4888 0.21072 0.06585 0.0
H1679 H 0.49577 0.17818 0.10714 0.0
C1680 C 0.2365 0.7807 0.85749 0.0
C1681 C 0.22578 0.76729 0.85873 0.0
C1682 C 0.23918 0.79128 0.87085 0.0
C1683 C 0.23083 0.78847 0.88576 0.0
C1684 C 0.21989 0.77502 0.88704 0.0
C1685 C 0.21757 0.76455 0.87354 0.0
C1686 C 0.25108 0.80536 0.86906 0.0
C1687 C 0.21062 0.77173 0.90267 0.0
C1688 C 0.24857 0.80637 0.92513 0.0
C1689 C 0.2391 0.82055 0.92721 0.0
C1690 C 0.24605 0.79589 0.91168 0.0
C1691 C 0.23364 0.79952 0.90007 0.0
C1692 C 0.22397 0.81373 0.90213 0.0
C1693 C 0.22687 0.8241 0.91561 0.0
C1694 C 0.25668 0.78089 0.90988 0.0
C1695 C 0.21057 0.81799 0.89006 0.0
H1696 H 0.24301 0.78276 0.84613 0.0
H1697 H 0.20914 0.75431 0.87449 0.0
H1698 H 0.2448 0.81713 0.87149 0.0
H1699 H 0.26108 0.8042 0.87823 0.0
H1700 H 0.25656 0.80588 0.85663 0.0
H1701 H 0.20241 0.7609 0.9016 0.0
H1702 H 0.21933 0.76964 0.91293 0.0
H1703 H 0.20315 0.78257 0.90594 0.0
H1704 H 0.25786 0.80334 0.93414 0.0
H1705 H 0.21965 0.83513 0.91694 0.0
H1706 H 0.26307 0.7812 0.89791 0.0
H1707 H 0.24897 0.76967 0.91001 0.0
H1708 H 0.26598 0.77995 0.91982 0.0
H1709 H 0.21584 0.81977 0.87768 0.0
H1710 H 0.20391 0.82929 0.89359 0.0
H1711 H 0.20164 0.80773 0.88916 0.0
C1712 C 0.01545 0.51819 0.38451 0.0
C1713 C 0.01639 0.53237 0.39426 0.0
C1714 C 0.02636 0.51563 0.37151 0.0
C1715 C 0.03842 0.52762 0.36802 0.0
C1716 C 0.0394 0.54199 0.37772 0.0
C1717 C 0.02844 0.54415 0.39076 0.0
C1718 C 0.02495 0.50011 0.36148 0.0
C1719 C 0.05204 0.55509 0.37434 0.0
C1720 C 0.07588 0.51488 0.34368 0.0
C1721 C 0.07169 0.52003 0.3278 0.0
C1722 C 0.06517 0.51726 0.35688 0.0
C1723 C 0.04997 0.52513 0.35417 0.0
C1724 C 0.04576 0.53051 0.3382 0.0
C1725 C 0.05664 0.52783 0.3252 0.0
C1726 C 0.07003 0.51118 0.37368 0.0
C1727 C 0.02977 0.53913 0.33485 0.0
H1728 H 0.00605 0.50912 0.38693 0.0
H1729 H 0.02946 0.55503 0.39835 0.0
H1730 H 0.02238 0.50318 0.34847 0.0
H1731 H 0.03672 0.49338 0.36181 0.0
H1732 H 0.01511 0.49186 0.36597 0.0
H1733 H 0.05103 0.56567 0.38286 0.0
H1734 H 0.06452 0.54988 0.3755 0.0
H1735 H 0.05068 0.5596 0.36158 0.0
H1736 H 0.08743 0.50869 0.34571 0.0
H1737 H 0.05343 0.532 0.31298 0.0
H1738 H 0.06091 0.5021 0.37807 0.0
H1739 H 0.07012 0.52149 0.38256 0.0
H1740 H 0.0823 0.50537 0.37376 0.0
H1741 H 0.01937 0.53101 0.33811 0.0
H1742 H 0.02843 0.54277 0.32179 0.0
H1743 H 0.02886 0.55026 0.34261 0.0
C1744 C 0.76648 0.72519 0.86001 0.0
C1745 C 0.7788 0.73721 0.86087 0.0
C1746 C 0.76368 0.71441 0.87312 0.0
C1747 C 0.77354 0.71555 0.88741 0.0
C1748 C 0.78605 0.72758 0.88835 0.0
C1749 C 0.78847 0.73829 0.87512 0.0
C1750 C 0.75018 0.70179 0.87168 0.0
C1751 C 0.79685 0.72916 0.90336 0.0
C1752 C 0.75769 0.69809 0.92753 0.0
C1753 C 0.76585 0.68302 0.92835 0.0
C1754 C 0.75994 0.70871 0.91419 0.0
C1755 C 0.77073 0.70422 0.90143 0.0
C1756 C 0.77898 0.689 0.90217 0.0
C1757 C 0.77638 0.67855 0.91558 0.0
C1758 C 0.75079 0.72475 0.91377 0.0
C1759 C 0.7907 0.68385 0.88888 0.0
H1760 H 0.7591 0.72407 0.84897 0.0
H1761 H 0.79785 0.74768 0.87604 0.0
H1762 H 0.75536 0.68929 0.87281 0.0
H1763 H 0.74133 0.70338 0.88182 0.0
H1764 H 0.74347 0.70264 0.85983 0.0
H1765 H 0.80624 0.73893 0.90203 0.0
H1766 H 0.78928 0.73195 0.91426 0.0
H1767 H 0.80314 0.71737 0.90578 0.0
H1768 H 0.74937 0.70149 0.93726 0.0
H1769 H 0.78285 0.667 0.91625 0.0
H1770 H 0.74327 0.72548 0.90243 0.0
H1771 H 0.75959 0.73513 0.91352 0.0
H1772 H 0.74264 0.72629 0.92453 0.0
H1773 H 0.78432 0.68362 0.87684 0.0
H1774 H 0.79602 0.67156 0.8912 0.0
H1775 H 0.80082 0.6929 0.88796 0.0
C1776 C 0.97853 0.96293 0.38608 0.0
C1777 C 0.99131 0.97392 0.38966 0.0
C1778 C 0.96785 0.96565 0.37282 0.0
C1779 C 0.96997 0.97972 0.3629 0.0
C1780 C 0.9829 0.99081 0.36638 0.0
C1781 C 0.99342 0.98777 0.3797 0.0
C1782 C 0.95425 0.95349 0.36946 0.0
C1783 C 0.98552 0.00598 0.35613 0.0
C1784 C 0.951 0.97985 0.32021 0.0
C1785 C 0.93663 0.98885 0.32274 0.0
C1786 C 0.96197 0.97681 0.33315 0.0
C1787 C 0.95852 0.98293 0.34901 0.0
C1788 C 0.94407 0.99208 0.35163 0.0
C1789 C 0.9333 0.99491 0.33847 0.0
C1790 C 0.97721 0.96694 0.32989 0.0
C1791 C 0.93999 0.99888 0.36835 0.0
H1792 H 0.97696 0.95209 0.39359 0.0
H1793 H 0.00314 0.99643 0.38252 0.0
H1794 H 0.94222 0.95968 0.37029 0.0
H1795 H 0.95533 0.94859 0.35681 0.0
H1796 H 0.95439 0.94306 0.3782 0.0
H1797 H 0.9963 0.01325 0.3603 0.0
H1798 H 0.98728 0.00253 0.3431 0.0
H1799 H 0.97451 0.01388 0.35669 0.0
H1800 H 0.95354 0.97495 0.30813 0.0
H1801 H 0.92233 0.00205 0.34047 0.0
H1802 H 0.97726 0.95579 0.33765 0.0
H1803 H 0.98825 0.97422 0.33321 0.0
H1804 H 0.97818 0.96316 0.31684 0.0
H1805 H 0.93903 0.98875 0.37736 0.0
H1806 H 0.9283 0.0058 0.36833 0.0
H1807 H 0.94995 0.00715 0.37263 0.0
C1808 C 0.21355 0.22388 0.64371 0.0
C1809 C 0.22503 0.23615 0.6476 0.0
C1810 C 0.21589 0.21332 0.63032 0.0
C1811 C 0.23013 0.21496 0.62063 0.0
C1812 C 0.24183 0.22722 0.62454 0.0
C1813 C 0.23911 0.2377 0.63792 0.0
C1814 C 0.20311 0.20043 0.62651 0.0
C1815 C 0.25719 0.22932 0.61453 0.0
C1816 C 0.24329 0.17852 0.5948 0.0
C1817 C 0.23769 0.18301 0.57916 0.0
C1818 C 0.24097 0.18882 0.6084 0.0
C1819 C 0.23273 0.20392 0.60632 0.0
C1820 C 0.22697 0.20848 0.59057 0.0
C1821 C 0.22957 0.198 0.57717 0.0
C1822 C 0.24743 0.1836 0.62496 0.0
C1823 C 0.21798 0.22439 0.58789 0.0
H1824 H 0.20276 0.2224 0.65125 0.0
H1825 H 0.24793 0.24728 0.64065 0.0
H1826 H 0.19836 0.20212 0.61386 0.0
H1827 H 0.20867 0.18806 0.62708 0.0
H1828 H 0.19265 0.20085 0.63516 0.0
H1829 H 0.26526 0.2392 0.6194 0.0
H1830 H 0.26418 0.21769 0.61434 0.0
H1831 H 0.25393 0.23228 0.60165 0.0
H1832 H 0.24973 0.16703 0.59636 0.0
H1833 H 0.22504 0.20143 0.56514 0.0
H1834 H 0.23726 0.18291 0.63389 0.0
H1835 H 0.25629 0.19285 0.62965 0.0
H1836 H 0.25359 0.1715 0.6245 0.0
H1837 H 0.20689 0.22476 0.59567 0.0
H1838 H 0.21423 0.2261 0.57489 0.0
H1839 H 0.22587 0.23487 0.59161 0.0
C1840 C 0.47545 0.51922 0.6105 0.0
C1841 C 0.48824 0.5307 0.61177 0.0
C1842 C 0.46459 0.51661 0.62355 0.0
C1843 C 0.4665 0.52575 0.63821 0.0
C1844 C 0.47934 0.53738 0.63957 0.0
C1845 C 0.49007 0.53968 0.62637 0.0
C1846 C 0.45106 0.50408 0.62163 0.0
C1847 C 0.48177 0.54737 0.65501 0.0
C1848 C 0.42978 0.52956 0.66644 0.0
C1849 C 0.43338 0.51789 0.67854 0.0
C1850 C 0.44048 0.5323 0.65329 0.0
C1851 C 0.45509 0.52309 0.65216 0.0
C1852 C 0.45879 0.5113 0.66434 0.0
C1853 C 0.44791 0.50888 0.6774 0.0
C1854 C 0.43617 0.54507 0.64062 0.0
C1855 C 0.47418 0.50116 0.66351 0.0
H1856 H 0.47377 0.5124 0.5992 0.0
H1857 H 0.50005 0.54839 0.62757 0.0
H1858 H 0.4521 0.49466 0.63137 0.0
H1859 H 0.43899 0.51007 0.62308 0.0
H1860 H 0.45134 0.49787 0.6095 0.0
H1861 H 0.49219 0.5561 0.65402 0.0
H1862 H 0.47051 0.5544 0.65774 0.0
H1863 H 0.48406 0.53912 0.66557 0.0
H1864 H 0.41867 0.5367 0.66736 0.0
H1865 H 0.45066 0.4997 0.6866 0.0
H1866 H 0.43531 0.53932 0.62831 0.0
H1867 H 0.44597 0.5545 0.64007 0.0
H1868 H 0.42438 0.55123 0.6433 0.0
H1869 H 0.47431 0.49398 0.65195 0.0
H1870 H 0.47531 0.49255 0.674 0.0
H1871 H 0.4851 0.50929 0.66342 0.0
C1872 C 0.76831 0.28169 0.64641 0.0
C1873 C 0.77711 0.2671 0.64431 0.0
C1874 C 0.76566 0.29244 0.63324 0.0
C1875 C 0.77199 0.28855 0.61758 0.0
C1876 C 0.78084 0.27383 0.61537 0.0
C1877 C 0.78327 0.26328 0.62875 0.0
C1878 C 0.75608 0.30797 0.63608 0.0
C1879 C 0.78786 0.2693 0.59889 0.0
C1880 C 0.75342 0.30907 0.58002 0.0
C1881 C 0.76473 0.32167 0.57698 0.0
C1882 C 0.75561 0.29822 0.5932 0.0
C1883 C 0.76948 0.29996 0.60356 0.0
C1884 C 0.78097 0.31263 0.60052 0.0
C1885 C 0.77844 0.32334 0.5873 0.0
C1886 C 0.74304 0.28494 0.59609 0.0
C1887 C 0.79596 0.31483 0.61122 0.0
H1888 H 0.76333 0.28461 0.65836 0.0
H1889 H 0.79025 0.25214 0.62708 0.0
H1890 H 0.76375 0.31879 0.63309 0.0
H1891 H 0.74524 0.30826 0.62783 0.0
H1892 H 0.75185 0.30912 0.64895 0.0
H1893 H 0.79431 0.25734 0.59916 0.0
H1894 H 0.77794 0.26864 0.58956 0.0
H1895 H 0.7966 0.2789 0.59485 0.0
H1896 H 0.74271 0.30783 0.57221 0.0
H1897 H 0.78733 0.33292 0.58489 0.0
H1898 H 0.73774 0.2863 0.60851 0.0
H1899 H 0.74895 0.27273 0.59559 0.0
H1900 H 0.73294 0.28522 0.58692 0.0
H1901 H 0.79227 0.31696 0.62411 0.0
H1902 H 0.80373 0.32526 0.60719 0.0
H1903 H 0.80343 0.3035 0.61102 0.0
C1904 C 0.51264 0.96835 0.62722 0.0
C1905 C 0.51654 0.97484 0.61179 0.0
C1906 C 0.52323 0.97041 0.64069 0.0
C1907 C 0.53805 0.97922 0.63872 0.0
C1908 C 0.54206 0.98581 0.62319 0.0
C1909 C 0.53127 0.98352 0.60992 0.0
C1910 C 0.51857 0.96312 0.65704 0.0
C1911 C 0.5577 0.99537 0.62063 0.0
C1912 C 0.55812 0.99751 0.67676 0.0
C1913 C 0.57056 0.98617 0.68006 0.0
C1914 C 0.54749 0.99543 0.66333 0.0
C1915 C 0.54932 0.98164 0.65295 0.0
C1916 C 0.56186 0.97015 0.65619 0.0
C1917 C 0.57236 0.97257 0.66969 0.0
C1918 C 0.53433 0.00801 0.66022 0.0
C1919 C 0.56414 0.95525 0.64546 0.0
H1920 H 0.50138 0.96145 0.6287 0.0
H1921 H 0.53426 0.98873 0.59808 0.0
H1922 H 0.52814 0.95444 0.66117 0.0
H1923 H 0.51778 0.97294 0.66643 0.0
H1924 H 0.50665 0.95653 0.65651 0.0
H1925 H 0.55905 0.99963 0.60777 0.0
H1926 H 0.55799 0.0062 0.62887 0.0
H1927 H 0.5684 0.98767 0.62384 0.0
H1928 H 0.55681 0.00817 0.68459 0.0
H1929 H 0.58184 0.96367 0.67227 0.0
H1930 H 0.5221 0.00207 0.66051 0.0
H1931 H 0.53585 0.01339 0.64783 0.0
H1932 H 0.53458 0.01807 0.66941 0.0
H1933 H 0.55282 0.9477 0.64542 0.0
H1934 H 0.57452 0.9475 0.64961 0.0
H1935 H 0.56639 0.95908 0.63261 0.0
C1936 C 0.85992 0.23745 0.77918 0.0
C1937 C 0.86086 0.22607 0.7663 0.0
C1938 C 0.87319 0.24002 0.7899 0.0
C1939 C 0.88777 0.23097 0.78774 0.0
C1940 C 0.88884 0.2195 0.77475 0.0
C1941 C 0.87539 0.21721 0.76418 0.0
C1942 C 0.87157 0.25235 0.80363 0.0
C1943 C 0.90419 0.20963 0.77202 0.0
C1944 C 0.92721 0.2475 0.80658 0.0
C1945 C 0.92854 0.23811 0.82093 0.0
C1946 C 0.91402 0.2453 0.79567 0.0
C1947 C 0.90187 0.23341 0.79916 0.0
C1948 C 0.90316 0.22386 0.81359 0.0
C1949 C 0.91646 0.22633 0.8243 0.0
C1950 C 0.91304 0.25578 0.78045 0.0
C1951 C 0.8905 0.211 0.81771 0.0
H1952 H 0.84867 0.24419 0.78105 0.0
H1953 H 0.87632 0.20856 0.75413 0.0
H1954 H 0.87313 0.24616 0.81563 0.0
H1955 H 0.88136 0.26176 0.8027 0.0
H1956 H 0.85951 0.2586 0.80347 0.0
H1957 H 0.90305 0.2012 0.76136 0.0
H1958 H 0.91473 0.21797 0.76994 0.0
H1959 H 0.90703 0.2023 0.78311 0.0
H1960 H 0.93637 0.25677 0.80401 0.0
H1961 H 0.91752 0.21888 0.83525 0.0
H1962 H 0.90154 0.26297 0.78051 0.0
H1963 H 0.91272 0.24788 0.76936 0.0
H1964 H 0.92355 0.26439 0.77945 0.0
H1965 H 0.87825 0.21672 0.81867 0.0
H1966 H 0.89328 0.20461 0.82941 0.0
H1967 H 0.88979 0.20175 0.80773 0.0
C1968 C 0.46402 0.89142 0.47539 0.0
C1969 C 0.47361 0.89343 0.48958 0.0
C1970 C 0.46639 0.87803 0.46484 0.0
C1971 C 0.47857 0.86631 0.46862 0.0
C1972 C 0.48821 0.8682 0.48299 0.0
C1973 C 0.48565 0.88177 0.49326 0.0
C1974 C 0.45597 0.87652 0.44955 0.0
C1975 C 0.5012 0.85588 0.48752 0.0
C1976 C 0.475 0.82414 0.44897 0.0
C1977 C 0.48635 0.82526 0.43615 0.0
C1978 C 0.47242 0.83736 0.45969 0.0
C1979 C 0.4813 0.85211 0.45748 0.0
C1980 C 0.49277 0.85334 0.44458 0.0
C1981 C 0.4952 0.83989 0.43413 0.0
C1982 C 0.46013 0.83556 0.47334 0.0
C1983 C 0.50247 0.86887 0.44181 0.0
H1984 H 0.45482 0.90049 0.4724 0.0
H1985 H 0.49296 0.88316 0.50431 0.0
H1986 H 0.46389 0.87655 0.43854 0.0
H1987 H 0.44923 0.8647 0.44962 0.0
H1988 H 0.44698 0.88664 0.44842 0.0
H1989 H 0.50754 0.85905 0.4992 0.0
H1990 H 0.49563 0.84353 0.48877 0.0
H1991 H 0.51045 0.85513 0.47764 0.0
H1992 H 0.46794 0.81298 0.4505 0.0
H1993 H 0.50419 0.84079 0.42444 0.0
H1994 H 0.45028 0.84477 0.47186 0.0
H1995 H 0.46613 0.83792 0.48535 0.0
H1996 H 0.45447 0.82316 0.47361 0.0
H1997 H 0.49402 0.8793 0.43975 0.0
H1998 H 0.51079 0.86791 0.43112 0.0
H1999 H 0.50989 0.87181 0.45287 0.0
C2000 C 0.14503 0.26904 0.78402 0.0
C2001 C 0.14291 0.27793 0.76944 0.0
C2002 C 0.13189 0.2663 0.79471 0.0
C2003 C 0.11624 0.27261 0.79076 0.0
C2004 C 0.114 0.28155 0.77606 0.0
C2005 C 0.12736 0.28409 0.76558 0.0
C2006 C 0.13474 0.25663 0.81024 0.0
C2007 C 0.09752 0.28854 0.77145 0.0
C2008 C 0.0787 0.25379 0.81083 0.0
C2009 C 0.07545 0.2651 0.82336 0.0
C2010 C 0.09197 0.25604 0.80018 0.0
C2011 C 0.10222 0.26995 0.80207 0.0
C2012 C 0.09904 0.28139 0.81472 0.0
C2013 C 0.08571 0.27882 0.82522 0.0
C2014 C 0.09502 0.24353 0.78689 0.0
C2015 C 0.10964 0.29642 0.81709 0.0
H2016 H 0.15696 0.26405 0.78698 0.0
H2017 H 0.12567 0.29114 0.75444 0.0
H2018 H 0.13165 0.26422 0.82108 0.0
H2019 H 0.1266 0.24572 0.81042 0.0
H2020 H 0.14763 0.25249 0.81148 0.0
H2021 H 0.09779 0.2951 0.75953 0.0
H2022 H 0.08828 0.27858 0.77068 0.0
H2023 H 0.09341 0.2972 0.78108 0.0
H2024 H 0.07095 0.24306 0.80946 0.0
H2025 H 0.08315 0.28772 0.83474 0.0
H2026 H 0.10747 0.23832 0.78831 0.0
H2027 H 0.09447 0.24949 0.77468 0.0
H2028 H 0.08597 0.23333 0.78711 0.0
H2029 H 0.12254 0.29274 0.81922 0.0
H2030 H 0.1056 0.30406 0.8276 0.0
H2031 H 0.10939 0.30402 0.80583 0.0
C2032 C 0.51766 0.62337 0.49257 0.0
C2033 C 0.53039 0.61225 0.48963 0.0
C2034 C 0.51489 0.63671 0.48207 0.0
C2035 C 0.52504 0.63898 0.46823 0.0
C2036 C 0.53789 0.62781 0.46516 0.0
C2037 C 0.54043 0.61462 0.47591 0.0
C2038 C 0.50107 0.64836 0.48577 0.0
C2039 C 0.54896 0.6298 0.45052 0.0
C2040 C 0.50891 0.66455 0.43275 0.0
C2041 C 0.51688 0.67961 0.43535 0.0
C2042 C 0.51146 0.65124 0.44333 0.0
C2043 C 0.52218 0.65301 0.45692 0.0
C2044 C 0.53021 0.66819 0.45968 0.0
C2045 C 0.5275 0.68128 0.44885 0.0
C2046 C 0.50267 0.63525 0.43997 0.0
C2047 C 0.54172 0.67057 0.47405 0.0
H2048 H 0.50969 0.62151 0.50299 0.0
H2049 H 0.55044 0.60625 0.47366 0.0
H2050 H 0.50591 0.66101 0.48715 0.0
H2051 H 0.49223 0.64847 0.4754 0.0
H2052 H 0.49442 0.645 0.49713 0.0
H2053 H 0.55832 0.61999 0.4498 0.0
H2054 H 0.54159 0.62963 0.43905 0.0
H2055 H 0.5553 0.64184 0.45112 0.0
H2056 H 0.50049 0.66322 0.42252 0.0
H2057 H 0.53388 0.69278 0.45085 0.0
H2058 H 0.49491 0.63194 0.45059 0.0
H2059 H 0.5117 0.62526 0.43837 0.0
H2060 H 0.49482 0.63584 0.42883 0.0
H2061 H 0.53522 0.66803 0.48569 0.0
H2062 H 0.54684 0.68319 0.4746 0.0
H2063 H 0.552 0.66177 0.47323 0.0
C2064 C 0.87625 0.78577 0.74305 0.0
C2065 C 0.86064 0.77978 0.73891 0.0
C2066 C 0.88964 0.7834 0.7326 0.0
C2067 C 0.8874 0.77481 0.71765 0.0
C2068 C 0.87169 0.76869 0.71342 0.0
C2069 C 0.85851 0.77126 0.72409 0.0
C2070 C 0.90618 0.79019 0.7375 0.0
C2071 C 0.86882 0.7594 0.69763 0.0
C2072 C 0.91808 0.7815 0.6834 0.0
C2073 C 0.92808 0.76764 0.68489 0.0
C2074 C 0.90484 0.78401 0.694 0.0
C2075 C 0.90146 0.77233 0.70637 0.0
C2076 C 0.91151 0.75831 0.70795 0.0
C2077 C 0.92472 0.75616 0.69722 0.0
C2078 C 0.89449 0.79917 0.692 0.0
C2079 C 0.90823 0.74554 0.72092 0.0
H2080 H 0.87795 0.79255 0.75437 0.0
H2081 H 0.84653 0.7664 0.72092 0.0
H2082 H 0.91529 0.78016 0.73809 0.0
H2083 H 0.91049 0.79904 0.72814 0.0
H2084 H 0.90592 0.79647 0.7496 0.0
H2085 H 0.85589 0.75536 0.69618 0.0
H2086 H 0.8721 0.76722 0.68701 0.0
H2087 H 0.87681 0.74845 0.69721 0.0
H2088 H 0.92075 0.79052 0.67403 0.0
H2089 H 0.93229 0.74532 0.69832 0.0
H2090 H 0.8947 0.80645 0.7035 0.0
H2091 H 0.88157 0.79564 0.68959 0.0
H2092 H 0.89878 0.80708 0.68179 0.0
H2093 H 0.90871 0.75126 0.73327 0.0
H2094 H 0.9172 0.73535 0.72055 0.0
H2095 H 0.89575 0.74038 0.71926 0.0
C2096 C 0.04234 0.88146 0.51639 0.0
C2097 C 0.03065 0.89399 0.5151 0.0
C2098 C 0.04008 0.86817 0.52708 0.0
C2099 C 0.02557 0.8671 0.53643 0.0
C2100 C 0.0136 0.87952 0.53504 0.0
C2101 C 0.01637 0.89289 0.52459 0.0
C2102 C 0.05326 0.85531 0.52843 0.0
C2103 C 0.99785 0.8787 0.54463 0.0
C2104 C 0.01312 0.8253 0.5529 0.0
C2105 C 0.01751 0.82671 0.56947 0.0
C2106 C 0.01558 0.8384 0.54201 0.0
C2107 C 0.02297 0.85306 0.54779 0.0
C2108 C 0.02772 0.85438 0.56447 0.0
C2109 C 0.02474 0.84125 0.57516 0.0
C2110 C 0.01002 0.83665 0.52441 0.0
C2111 C 0.03596 0.86965 0.57103 0.0
H2112 H 0.05326 0.88192 0.50894 0.0
H2113 H 0.00737 0.90258 0.524 0.0
H2114 H 0.05739 0.85421 0.54136 0.0
H2115 H 0.0483 0.8432 0.52467 0.0
H2116 H 0.06404 0.85819 0.52069 0.0
H2117 H 0.98947 0.88896 0.54162 0.0
H2118 H 0.99144 0.86695 0.54207 0.0
H2119 H 1.00056 0.87905 0.55797 0.0
H2120 H 0.00741 0.81408 0.54856 0.0
H2121 H 0.02823 0.84225 0.58798 0.0
H2122 H 0.02054 0.83835 0.51604 0.0
H2123 H 1.00096 0.84631 0.52144 0.0
H2124 H 0.00437 0.82449 0.5219 0.0
H2125 H 0.04715 0.87234 0.56384 0.0
H2126 H 0.03943 0.86849 0.58417 0.0
H2127 H 0.02768 0.88031 0.56967 0.0
C2128 C 0.13532 0.73861 0.7372 0.0
C2129 C 0.14691 0.72649 0.73364 0.0
C2130 C 0.12168 0.74108 0.72697 0.0
C2131 C 0.1196 0.73124 0.71278 0.0
C2132 C 0.13129 0.71905 0.70906 0.0
C2133 C 0.14479 0.71679 0.71956 0.0
C2134 C 0.10942 0.75414 0.7314 0.0
C2135 C 0.12957 0.7084 0.69398 0.0
C2136 C 0.07683 0.7276 0.69443 0.0
C2137 C 0.07747 0.73903 0.68162 0.0
C2138 C 0.09047 0.72487 0.7046 0.0
C2139 C 0.10515 0.73372 0.70184 0.0
C2140 C 0.10594 0.74512 0.6888 0.0
C2141 C 0.09208 0.74766 0.67887 0.0
C2142 C 0.08912 0.71268 0.71845 0.0
C2143 C 0.12139 0.7547 0.68538 0.0
H2144 H 0.13678 0.746 0.74817 0.0
H2145 H 0.1538 0.70753 0.71664 0.0
H2146 H 0.10839 0.76317 0.7213 0.0
H2147 H 0.09715 0.74853 0.73304 0.0
H2148 H 0.11283 0.76075 0.74285 0.0
H2149 H 0.13978 0.69954 0.69278 0.0
H2150 H 0.11787 0.70148 0.69442 0.0
H2151 H 0.1292 0.71617 0.68283 0.0
H2152 H 0.06552 0.72103 0.69674 0.0
H2153 H 0.09272 0.75635 0.66884 0.0
H2154 H 0.09127 0.71895 0.73035 0.0
H2155 H 0.09865 0.70312 0.7172 0.0
H2156 H 0.07693 0.70661 0.71879 0.0
H2157 H 0.12469 0.7623 0.6962 0.0
H2158 H 0.12011 0.76285 0.67455 0.0
H2159 H 0.1317 0.74617 0.6832 0.0
C2160 C 0.98608 0.61099 0.53007 0.0
C2161 C 0.97473 0.61231 0.51718 0.0
C2162 C 0.98903 0.62419 0.54077 0.0
C2163 C 0.98026 0.63898 0.53867 0.0
C2164 C 0.96869 0.64033 0.52574 0.0
C2165 C 0.96615 0.62701 0.51509 0.0
C2166 C 0.00162 0.62235 0.55426 0.0
C2167 C 0.95893 0.6558 0.52323 0.0
C2168 C 0.97701 0.66765 0.57532 0.0
C2169 C 0.98862 0.67974 0.57148 0.0
C2170 C 0.97409 0.65438 0.5647 0.0
C2171 C 0.98316 0.65304 0.55001 0.0
C2172 C 0.99498 0.66516 0.54614 0.0
C2173 C 0.99749 0.67842 0.55687 0.0
C2174 C 0.96122 0.64185 0.56915 0.0
C2175 C 0.00506 0.66405 0.53071 0.0
H2176 H 0.99286 0.5997 0.53161 0.0
H2177 H 0.95725 0.628 0.50524 0.0
H2178 H 0.01124 0.6319 0.553 0.0
H2179 H 0.9958 0.62417 0.56638 0.0
H2180 H 0.00754 0.61012 0.55411 0.0
H2181 H 0.95027 0.65481 0.51272 0.0
H2182 H 0.95187 0.65864 0.53447 0.0
H2183 H 0.9673 0.6663 0.52103 0.0
H2184 H 0.97001 0.66874 0.58652 0.0
H2185 H 0.00658 0.68766 0.55396 0.0
H2186 H 0.96684 0.62953 0.57014 0.0
H2187 H 0.95178 0.64117 0.55934 0.0
H2188 H 0.95511 0.64476 0.58094 0.0
H2189 H 0.01193 0.65235 0.53055 0.0
H2190 H 0.01391 0.67435 0.5296 0.0
H2191 H 0.99691 0.66407 0.51978 0.0
C2192 C 0.76287 0.87251 0.23934 0.0
C2193 C 0.76617 0.86076 0.22722 0.0
C2194 C 0.77338 0.88594 0.24192 0.0
C2195 C 0.78763 0.88762 0.23224 0.0
C2196 C 0.79109 0.87577 0.22006 0.0
C2197 C 0.7803 0.86254 0.21765 0.0
C2198 C 0.76924 0.89835 0.255 0.0
C2199 C 0.80618 0.87711 0.20952 0.0
C2200 C 0.80736 0.9297 0.22831 0.0
C2201 C 0.82034 0.9287 0.23962 0.0
C2202 C 0.79658 0.91646 0.22586 0.0
C2203 C 0.79888 0.9018 0.23483 0.0
C2204 C 0.81196 0.90068 0.24623 0.0
C2205 C 0.82248 0.91415 0.24853 0.0
C2206 C 0.78274 0.91816 0.21364 0.0
C2207 C 0.81485 0.88524 0.25599 0.0
H2208 H 0.75214 0.87113 0.24697 0.0
H2209 H 0.78284 0.85368 0.20809 0.0
H2210 H 0.77923 0.89897 0.26425 0.0
H2211 H 0.76813 0.91071 0.24947 0.0
H2212 H 0.75762 0.89536 0.26137 0.0
H2213 H 0.80726 0.86673 0.20076 0.0
H2214 H 0.80592 0.88872 0.20247 0.0
H2215 H 0.8173 0.87743 0.21739 0.0
H2216 H 0.80574 0.94077 0.22118 0.0
H2217 H 0.83231 0.91333 0.25747 0.0
H2218 H 0.77085 0.91596 0.21977 0.0
H2219 H 0.78395 0.90879 0.20385 0.0
H2220 H 0.78247 0.93047 0.20785 0.0
H2221 H 0.80393 0.88238 0.2635 0.0
H2222 H 0.82566 0.88628 0.26425 0.0
H2223 H 0.81673 0.87473 0.24756 0.0
C2224 C 0.7653 0.13006 0.28003 0.0
C2225 C 0.77031 0.14622 0.2768 0.0
C2226 C 0.77582 0.11677 0.27737 0.0
C2227 C 0.79188 0.11966 0.27158 0.0
C2228 C 0.79711 0.13591 0.26847 0.0
C2229 C 0.78624 0.14897 0.27099 0.0
C2230 C 0.76973 0.0996 0.28071 0.0
C2231 C 0.81419 0.13951 0.26244 0.0
C2232 C 0.8233 0.08617 0.27894 0.0
C2233 C 0.82392 0.07845 0.26355 0.0
C2234 C 0.81316 0.09975 0.28165 0.0
C2235 C 0.80315 0.10565 0.26873 0.0
C2236 C 0.80372 0.09798 0.25317 0.0
C2237 C 0.81417 0.08458 0.25073 0.0
C2238 C 0.81303 0.10771 0.29838 0.0
C2239 C 0.79314 0.10382 0.23911 0.0
H2240 H 0.75316 0.12777 0.28481 0.0
H2241 H 0.79019 0.16134 0.2682 0.0
H2242 H 0.7707 0.09203 0.26944 0.0
H2243 H 0.77747 0.09375 0.29025 0.0
H2244 H 0.75681 0.0994 0.28489 0.0
H2245 H 0.81651 0.15286 0.26102 0.0
H2246 H 0.82335 0.13445 0.27114 0.0
H2247 H 0.81616 0.13344 0.25043 0.0
H2248 H 0.83055 0.08143 0.28903 0.0
H2249 H 0.81474 0.07895 0.2387 0.0
H2250 H 0.80066 0.10661 0.30383 0.0
H2251 H 0.81583 0.12097 0.29729 0.0
H2252 H 0.82203 0.10209 0.30692 0.0
H2253 H 0.78004 0.10308 0.24258 0.0
H2254 H 0.79497 0.0965 0.22778 0.0
H2255 H 0.79589 0.11685 0.23638 0.0
C2256 C 0.3801 0.99078 0.97104 0.0
C2257 C 0.39554 0.98694 0.97754 0.0
C2258 C 0.36662 0.98032 0.97336 0.0
C2259 C 0.36866 0.96557 0.98227 0.0
C2260 C 0.38424 0.96161 0.98882 0.0
C2261 C 0.39747 0.97237 0.98644 0.0
C2262 C 0.35018 0.98507 0.96632 0.0
C2263 C 0.38695 0.94593 0.99825 0.0
C2264 C 0.33104 0.94533 1.00075 0.0
C2265 C 0.32735 0.93321 0.98907 0.0
C2266 C 0.34444 0.95594 0.9987 0.0
C2267 C 0.3545 0.9543 0.9847 0.0
C2268 C 0.35093 0.94198 0.97295 0.0
C2269 C 0.33736 0.93163 0.97524 0.0
C2270 C 0.34774 0.96903 0.01142 0.0
C2271 C 0.36146 0.93972 0.95796 0.0
H2272 H 0.3785 0.00212 0.96431 0.0
H2273 H 0.40942 0.96927 0.99134 0.0
H2274 H 0.34586 0.97554 0.95759 0.0
H2275 H 0.34101 0.98584 0.97628 0.0
H2276 H 0.3506 0.99702 0.95984 0.0
H2277 H 0.39982 0.94461 0.00249 0.0
H2278 H 0.37882 0.94556 0.00909 0.0
H2279 H 0.38374 0.93523 0.99044 0.0
H2280 H 0.32323 0.94671 0.01137 0.0
H2281 H 0.33466 0.92216 0.96628 0.0
H2282 H 0.34724 0.98131 0.00563 0.0
H2283 H 0.36023 0.96754 0.01659 0.0
H2284 H 0.3388 0.96865 0.02162 0.0
H2285 H 0.36141 0.95108 0.9505 0.0
H2286 H 0.3572 0.92937 0.95013 0.0
H2287 H 0.37432 0.93741 0.96171 0.0
C2288 C 0.22397 0.36112 0.26856 0.0
C2289 C 0.23727 0.3624 0.27944 0.0
C2290 C 0.21343 0.37442 0.26591 0.0
C2291 C 0.21613 0.38929 0.2745 0.0
C2292 C 0.22953 0.39064 0.28553 0.0
C2293 C 0.23999 0.37721 0.28778 0.0
C2294 C 0.19941 0.37257 0.25389 0.0
C2295 C 0.23269 0.40621 0.29507 0.0
C2296 C 0.19747 0.4286 0.25791 0.0
C2297 C 0.18328 0.42997 0.26741 0.0
C2298 C 0.20822 0.41537 0.26002 0.0
C2299 C 0.20483 0.40338 0.27209 0.0
C2300 C 0.1906 0.40481 0.28182 0.0
C2301 C 0.17992 0.41802 0.27927 0.0
C2302 C 0.22313 0.41414 0.24923 0.0
C2303 C 0.18668 0.39242 0.29498 0.0
H2304 H 0.22194 0.34975 0.26195 0.0
H2305 H 0.25016 0.37818 0.29633 0.0
H2306 H 0.1876 0.37442 0.26027 0.0
H2307 H 0.20031 0.38208 0.24423 0.0
H2308 H 0.19921 0.36032 0.24793 0.0
H2309 H 0.24362 0.40527 0.30317 0.0
H2310 H 0.23452 0.41661 0.28652 0.0
H2311 H 0.2219 0.40916 0.30273 0.0
H2312 H 0.19999 0.43775 0.24863 0.0
H2313 H 0.16904 0.41916 0.28673 0.0
H2314 H 0.22285 0.40241 0.24234 0.0
H2315 H 0.23439 0.41415 0.25688 0.0
H2316 H 0.22393 0.4244 0.24031 0.0
H2317 H 0.18524 0.38007 0.28944 0.0
H2318 H 0.17529 0.39547 0.30169 0.0
H2319 H 0.19693 0.39175 0.30392 0.0
C2320 C 0.10804 0.03368 0.48318 0.0
C2321 C 0.11046 0.01866 0.47519 0.0
C2322 C 0.12115 0.04453 0.48598 0.0
C2323 C 0.13708 0.04015 0.48086 0.0
C2324 C 0.13961 0.02493 0.47292 0.0
C2325 C 0.12625 0.01441 0.47009 0.0
C2326 C 0.11792 0.06074 0.49429 0.0
C2327 C 0.15645 0.01972 0.46749 0.0
C2328 C 0.16921 0.07332 0.47433 0.0
C2329 C 0.17822 0.07252 0.48898 0.0
C2330 C 0.15565 0.06302 0.47162 0.0
C2331 C 0.15114 0.05149 0.48377 0.0
C2332 C 0.1602 0.05064 0.49859 0.0
C2333 C 0.17357 0.06124 0.50107 0.0
C2334 C 0.14616 0.06446 0.45575 0.0
C2335 C 0.15591 0.03838 0.51175 0.0
H2336 H 0.09581 0.03705 0.48699 0.0
H2337 H 0.12819 0.00273 0.46408 0.0
H2338 H 0.12529 0.06172 0.50572 0.0
H2339 H 0.12175 0.07095 0.48618 0.0
H2340 H 0.10481 0.06236 0.4974 0.0
H2341 H 0.15638 0.00738 0.46171 0.0
H2342 H 0.1614 0.02867 0.45856 0.0
H2343 H 0.16493 0.01955 0.47816 0.0
H2344 H 0.17267 0.08215 0.46505 0.0
H2345 H 0.18062 0.06049 0.51234 0.0
H2346 H 0.1331 0.06699 0.45835 0.0
H2347 H 0.14664 0.0527 0.44892 0.0
H2348 H 0.15099 0.07434 0.44774 0.0
H2349 H 0.14312 0.04025 0.51584 0.0
H2350 H 0.16415 0.03932 0.5226 0.0
H2351 H 0.15667 0.02576 0.50674 0.0
C2352 C 0.7405 0.129 0.72122 0.0
C2353 C 0.73693 0.14458 0.72754 0.0
C2354 C 0.73 0.11563 0.72394 0.0
C2355 C 0.71559 0.11785 0.73323 0.0
C2356 C 0.71193 0.13353 0.73969 0.0
C2357 C 0.72264 0.1467 0.73676 0.0
C2358 C 0.73428 0.09912 0.71678 0.0
C2359 C 0.69672 0.13638 0.74972 0.0
C2360 C 0.68089 0.08715 0.72754 0.0
C2361 C 0.68305 0.07684 0.74113 0.0
C2362 C 0.69134 0.10057 0.72486 0.0
C2363 C 0.70426 0.1038 0.73606 0.0
C2364 C 0.70644 0.09352 0.74987 0.0
C2365 C 0.69583 0.08016 0.75223 0.0
C2366 C 0.68866 0.11119 0.70995 0.0
C2367 C 0.72002 0.09662 0.76214 0.0
H2368 H 0.75141 0.12732 0.71391 0.0
H2369 H 0.71991 0.15865 0.74186 0.0
H2370 H 0.73524 0.08988 0.72669 0.0
H2371 H 0.72442 0.09498 0.70831 0.0
H2372 H 0.74602 0.0994 0.70995 0.0
H2373 H 0.6957 0.14928 0.75395 0.0
H2374 H 0.68568 0.13326 0.74236 0.0
H2375 H 0.69675 0.12824 0.76061 0.0
H2376 H 0.67118 0.08454 0.7188 0.0
H2377 H 0.69744 0.07237 0.76287 0.0
H2378 H 0.69969 0.11096 0.70208 0.0
H2379 H 0.68674 0.1241 0.71375 0.0
H2380 H 0.67794 0.10714 0.70252 0.0
H2381 H 0.73205 0.09607 0.75593 0.0
H2382 H 0.71996 0.08758 0.77232 0.0
H2383 H 0.71882 0.1091 0.76742 0.0
C2384 C 0.38311 0.0155 0.51684 0.0
C2385 C 0.39474 0.01875 0.52915 0.0
C2386 C 0.36989 0.02612 0.51411 0.0
C2387 C 0.36833 0.04041 0.52385 0.0
C2388 C 0.38009 0.04382 0.53622 0.0
C2389 C 0.39312 0.03292 0.53876 0.0
C2390 C 0.35752 0.02198 0.5009 0.0
C2391 C 0.37893 0.059 0.54675 0.0
C2392 C 0.34227 0.07528 0.50736 0.0
C2393 C 0.32763 0.07316 0.51606 0.0
C2394 C 0.35563 0.06477 0.50983 0.0
C2395 C 0.3543 0.05172 0.52117 0.0
C2396 C 0.33957 0.04947 0.52996 0.0
C2397 C 0.32646 0.06024 0.52736 0.0
C2398 C 0.37115 0.0676 0.50025 0.0
C2399 C 0.33767 0.03569 0.54215 0.0
H2400 H 0.3842 0.00447 0.5095 0.0
H2401 H 0.40218 0.03559 0.54815 0.0
H2402 H 0.34518 0.02067 0.50638 0.0
H2403 H 0.35686 0.03207 0.49183 0.0
H2404 H 0.36054 0.01044 0.49434 0.0
H2405 H 0.38916 0.05995 0.55574 0.0
H2406 H 0.37901 0.07009 0.5389 0.0
H2407 H 0.3672 0.05896 0.55355 0.0
H2408 H 0.34323 0.08506 0.49844 0.0
H2409 H 0.31531 0.05864 0.53433 0.0
H2410 H 0.37388 0.05667 0.49264 0.0
H2411 H 0.38162 0.06937 0.50879 0.0
H2412 H 0.37031 0.07846 0.49209 0.0
H2413 H 0.33977 0.02374 0.536 0.0
H2414 H 0.32534 0.03547 0.54783 0.0
H2415 H 0.34699 0.03691 0.55202 0.0
C2416 C 0.6128 0.47439 0.53908 0.0
C2417 C 0.61133 0.48903 0.53021 0.0
C2418 C 0.62595 0.4637 0.53639 0.0
C2419 C 0.63803 0.46784 0.52469 0.0
C2420 C 0.63666 0.48266 0.51578 0.0
C2421 C 0.62328 0.49303 0.51858 0.0
C2422 C 0.62686 0.44792 0.54599 0.0
C2423 C 0.64938 0.48761 0.50335 0.0
C2424 C 0.6797 0.4475 0.52833 0.0
C2425 C 0.67875 0.43536 0.51613 0.0
C2426 C 0.66659 0.45821 0.53117 0.0
C2427 C 0.65208 0.45664 0.52174 0.0
C2428 C 0.65098 0.44439 0.50947 0.0
C2429 C 0.66434 0.43397 0.50675 0.0
C2430 C 0.66827 0.47118 0.54432 0.0
C2431 C 0.63568 0.44228 0.49919 0.0
H2432 H 0.60349 0.47118 0.54795 0.0
H2433 H 0.62228 0.50442 0.51183 0.0
H2434 H 0.62691 0.43732 0.53745 0.0
H2435 H 0.63845 0.4475 0.55313 0.0
H2436 H 0.61645 0.44647 0.55458 0.0
H2437 H 0.64661 0.4996 0.49756 0.0
H2438 H 0.66159 0.4884 0.50933 0.0
H2439 H 0.65019 0.47818 0.49358 0.0
H2440 H 0.69065 0.44853 0.53583 0.0
H2441 H 0.66355 0.42484 0.49712 0.0
H2442 H 0.65877 0.46934 0.55381 0.0
H2443 H 0.66629 0.48349 0.53893 0.0
H2444 H 0.68049 0.471 0.55035 0.0
H2445 H 0.625 0.44003 0.50724 0.0
H2446 H 0.63666 0.43196 0.49036 0.0
H2447 H 0.63318 0.45368 0.49224 0.0
C2448 C 0.7213 0.26182 0.37636 0.0
C2449 C 0.72587 0.26685 0.36056 0.0
C2450 C 0.7236 0.27211 0.39001 0.0
C2451 C 0.7305 0.2879 0.38783 0.0
C2452 C 0.73507 0.2931 0.37194 0.0
C2453 C 0.73278 0.2825 0.35853 0.0
C2454 C 0.71864 0.26609 0.40677 0.0
C2455 C 0.7424 0.30987 0.3691 0.0
C2456 C 0.72281 0.32022 0.42053 0.0
C2457 C 0.73764 0.32021 0.42931 0.0
C2458 C 0.72034 0.30982 0.40699 0.0
C2459 C 0.73293 0.29899 0.40218 0.0
C2460 C 0.74788 0.2988 0.41104 0.0
C2461 C 0.75008 0.30946 0.42442 0.0
C2462 C 0.70425 0.31044 0.39782 0.0
C2463 C 0.76158 0.28738 0.40634 0.0
H2464 H 0.71572 0.24988 0.37805 0.0
H2465 H 0.7366 0.28642 0.34645 0.0
H2466 H 0.72933 0.26642 0.41522 0.0
H2467 H 0.7092 0.2743 0.41199 0.0
H2468 H 0.71368 0.2534 0.40643 0.0
H2469 H 0.74508 0.31215 0.35596 0.0
H2470 H 0.73388 0.31946 0.37349 0.0
H2471 H 0.75392 0.3112 0.37624 0.0
H2472 H 0.71301 0.32827 0.42434 0.0
H2473 H 0.76168 0.30951 0.43093 0.0
H2474 H 0.69819 0.29825 0.39816 0.0
H2475 H 0.70643 0.31343 0.38474 0.0
H2476 H 0.69576 0.31967 0.40301 0.0
H2477 H 0.75718 0.2745 0.40655 0.0
H2478 H 0.77233 0.2885 0.41468 0.0
H2479 H 0.76561 0.29002 0.39364 0.0
C2480 C 0.52966 0.01697 0.89632 0.0
C2481 C 0.51818 0.02974 0.89615 0.0
C2482 C 0.54022 0.01439 0.88304 0.0
C2483 C 0.53949 0.02497 0.86932 0.0
C2484 C 0.52809 0.03799 0.86911 0.0
C2485 C 0.51751 0.04014 0.88245 0.0
C2486 C 0.55212 1.00029 0.88366 0.0
C2487 C 0.52701 0.0496 0.85475 0.0
C2488 C 0.57644 0.02706 0.84117 0.0
C2489 C 0.57125 0.01737 0.82791 0.0
C2490 C 0.5662 0.02971 0.8547 0.0
C2491 C 0.55051 0.02229 0.85507 0.0
C2492 C 0.54529 0.01234 0.84177 0.0
C2493 C 0.55568 0.01009 0.82831 0.0
C2494 C 0.57212 0.04058 0.86854 0.0
C2495 C 0.52875 0.00402 0.8418 0.0
H2496 H 0.53051 0.00903 0.90693 0.0
H2497 H 0.50854 0.04988 0.88203 0.0
H2498 H 0.54999 0.99199 0.87307 0.0
H2499 H 0.56485 0.00496 0.88272 0.0
H2500 H 0.55103 0.99306 0.89514 0.0
H2501 H 0.51787 0.05944 0.85673 0.0
H2502 H 0.53913 0.05536 0.85254 0.0
H2503 H 0.5236 0.04274 0.84348 0.0
H2504 H 0.58841 0.03282 0.84082 0.0
H2505 H 0.55171 0.00243 0.81815 0.0
H2506 H 0.5722 0.03363 0.88022 0.0
H2507 H 0.56361 0.05103 0.87011 0.0
H2508 H 0.58462 0.04549 0.86635 0.0
H2509 H 0.52766 0.996 0.85272 0.0
H2510 H 0.52663 0.99648 0.83063 0.0
H2511 H 0.51892 0.01332 0.84262 0.0
C2512 C 0.2633 0.22702 0.36027 0.0
C2513 C 0.27614 0.23852 0.36061 0.0
C2514 C 0.26047 0.2165 0.37359 0.0
C2515 C 0.27084 0.21733 0.38753 0.0
C2516 C 0.28385 0.22883 0.38795 0.0
C2517 C 0.28627 0.23934 0.37456 0.0
C2518 C 0.24638 0.20448 0.37273 0.0
C2519 C 0.29524 0.23001 0.40255 0.0
C2520 C 0.25595 0.20055 0.42833 0.0
C2521 C 0.2635 0.18512 0.42887 0.0
C2522 C 0.25806 0.21105 0.41486 0.0
C2523 C 0.26812 0.20613 0.40168 0.0
C2524 C 0.27577 0.1906 0.40211 0.0
C2525 C 0.27329 0.18026 0.41563 0.0
C2526 C 0.24959 0.22747 0.4148 0.0
C2527 C 0.28668 0.18495 0.38834 0.0
H2528 H 0.25555 0.22608 0.34948 0.0
H2529 H 0.29603 0.24835 0.37511 0.0
H2530 H 0.25105 0.19177 0.37366 0.0
H2531 H 0.23804 0.20645 0.38323 0.0
H2532 H 0.23923 0.20563 0.36116 0.0
H2533 H 0.30494 0.23943 0.40086 0.0
H2534 H 0.2882 0.23309 0.41373 0.0
H2535 H 0.30117 0.218 0.40475 0.0
H2536 H 0.24858 0.20457 0.43857 0.0
H2537 H 0.27894 0.16827 0.41575 0.0
H2538 H 0.24188 0.22866 0.40363 0.0
H2539 H 0.25882 0.23746 0.41448 0.0
H2540 H 0.24174 0.22924 0.42574 0.0
H2541 H 0.2797 0.18471 0.37663 0.0
H2542 H 0.29179 0.17255 0.39057 0.0
H2543 H 0.29698 0.1937 0.38677 0.0
C2544 C 0.49439 0.46815 0.87525 0.0
C2545 C 0.49036 0.47395 0.89092 0.0
C2546 C 0.48397 0.47081 0.86176 0.0
C2547 C 0.46919 0.47952 0.86398 0.0
C2548 C 0.46509 0.48547 0.87975 0.0
C2549 C 0.47572 0.48261 0.89301 0.0
C2550 C 0.48873 0.4642 0.84515 0.0
C2551 C 0.44948 0.49488 0.8826 0.0
C2552 C 0.44864 0.49909 0.82695 0.0
C2553 C 0.43606 0.48785 0.82346 0.0
C2554 C 0.45957 0.4965 0.84004 0.0
C2555 C 0.45791 0.48229 0.84985 0.0
C2556 C 0.44532 0.47083 0.84631 0.0
C2557 C 0.43455 0.47375 0.83317 0.0
C2558 C 0.47279 0.50904 0.84347 0.0
C2559 C 0.4432 0.45549 0.85642 0.0
H2560 H 0.5056 0.46129 0.87357 0.0
H2561 H 0.47264 0.48733 0.90504 0.0
H2562 H 0.47924 0.45548 0.84068 0.0
H2563 H 0.48941 0.47434 0.83614 0.0
H2564 H 0.50071 0.45781 0.84545 0.0
H2565 H 0.44815 0.49879 0.89558 0.0
H2566 H 0.44921 0.50593 0.87469 0.0
H2567 H 0.43876 0.48721 0.87917 0.0
H2568 H 0.44977 0.5101 0.81961 0.0
H2569 H 0.425 0.4649 0.8304 0.0
H2570 H 0.485 0.50315 0.84308 0.0
H2571 H 0.47126 0.51414 0.85599 0.0
H2572 H 0.4726 0.5193 0.83454 0.0
H2573 H 0.45462 0.44817 0.85621 0.0
H2574 H 0.43294 0.44769 0.85193 0.0
H2575 H 0.44085 0.45881 0.8694 0.0
C2576 C 0.73667 0.72505 0.14667 0.0
C2577 C 0.72493 0.73753 0.14564 0.0
C2578 C 0.73953 0.71449 0.13338 0.0
C2579 C 0.73037 0.71636 0.11872 0.0
C2580 C 0.71845 0.72886 0.11762 0.0
C2581 C 0.71591 0.73931 0.13105 0.0
C2582 C 0.75238 0.70132 0.13503 0.0
C2583 C 0.70841 0.73123 0.1022 0.0
C2584 C 0.74754 0.69921 0.07903 0.0
C2585 C 0.73878 0.68446 0.07735 0.0
C2586 C 0.74499 0.70965 0.09247 0.0
C2587 C 0.73333 0.70531 0.1045 0.0
C2588 C 0.72443 0.69047 0.10289 0.0
C2589 C 0.72729 0.68021 0.08937 0.0
C2590 C 0.75475 0.72536 0.09377 0.0
C2591 C 0.71186 0.68543 0.11544 0.0
H2592 H 0.74353 0.72341 0.15796 0.0
H2593 H 0.707 0.74906 0.13003 0.0
H2594 H 0.74672 0.68908 0.13316 0.0
H2595 H 0.76181 0.7029 0.12542 0.0
H2596 H 0.75851 0.70154 0.14722 0.0
H2597 H 0.69944 0.74135 0.10341 0.0
H2598 H 0.71659 0.73397 0.09173 0.0
H2599 H 0.70168 0.71978 0.09916 0.0
H2600 H 0.75626 0.70273 0.06969 0.0
H2601 H 0.72064 0.66873 0.08831 0.0
H2602 H 0.76165 0.72565 0.10552 0.0
H2603 H 0.74636 0.73602 0.09378 0.0
H2604 H 0.76354 0.72682 0.08353 0.0
H2605 H 0.71772 0.68437 0.1277 0.0
H2606 H 0.70592 0.67354 0.11236 0.0
H2607 H 0.70226 0.69495 0.11639 0.0
C2608 C 0.99168 0.03939 0.12544 0.0
C2609 C 0.98962 0.03035 0.11092 0.0
C2610 C 0.981 0.03734 0.13873 0.0
C2611 C 0.96796 0.02591 0.13751 0.0
C2612 C 0.96579 0.01675 0.12289 0.0
C2613 C 0.97661 0.01911 0.10978 0.0
C2614 C 0.98371 0.04733 0.15412 0.0
C2615 C 0.95203 0.00446 0.12111 0.0
C2616 C 0.94925 0.00915 0.17668 0.0
C2617 C 0.93482 0.01833 0.17787 0.0
C2618 C 0.96017 0.01155 0.16366 0.0
C2619 C 0.95662 0.02345 0.15155 0.0
C2620 C 0.94214 0.03285 0.15275 0.0
C2621 C 0.9314 0.03016 0.16587 0.0
C2622 C 0.97543 1.00121 0.16276 0.0
C2623 C 0.93798 0.04573 0.14014 0.0
H2624 H 0.00181 0.04794 0.12653 0.0
H2625 H 0.97476 0.01225 0.09852 0.0
H2626 H 0.97258 0.05453 0.15693 0.0
H2627 H 0.98596 0.03907 0.16468 0.0
H2628 H 0.99425 0.05589 0.15301 0.0
H2629 H 0.95208 0.99825 0.10897 0.0
H2630 H 0.95301 0.99501 0.13083 0.0
H2631 H 0.94008 0.01065 0.12268 0.0
H2632 H 0.95186 0.99985 0.18579 0.0
H2633 H 0.92038 0.03744 0.16684 0.0
H2634 H 0.98645 0.00919 0.16252 0.0
H2635 H 0.97536 0.99396 0.15124 0.0
H2636 H 0.97653 0.99265 0.17329 0.0
H2637 H 0.94796 0.05497 0.13951 0.0
H2638 H 0.92634 0.05213 0.14294 0.0
H2639 H 0.93689 0.04002 0.12783 0.0
C2640 C 0.28849 0.76586 0.12943 0.0
C2641 C 0.27979 0.76801 0.14405 0.0
C2642 C 0.2862 0.77649 0.11609 0.0
C2643 C 0.27478 0.78945 0.11733 0.0
C2644 C 0.26589 0.7916 0.13204 0.0
C2645 C 0.26858 0.78092 0.14526 0.0
C2646 C 0.29606 0.77391 0.1007 0.0
C2647 C 0.25345 0.80513 0.13377 0.0
C2648 C 0.27868 0.82582 0.08847 0.0
C2649 C 0.26717 0.82186 0.07626 0.0
C2650 C 0.28133 0.81535 0.10187 0.0
C2651 C 0.27208 0.8007 0.10321 0.0
C2652 C 0.26031 0.79675 0.09101 0.0
C2653 C 0.25807 0.80733 0.07762 0.0
C2654 C 0.29414 0.81989 0.11452 0.0
C2655 C 0.25004 0.78137 0.09211 0.0
H2656 H 0.29728 0.75599 0.12852 0.0
H2657 H 0.26172 0.7825 0.15649 0.0
H2658 H 0.28774 0.77166 0.09013 0.0
H2659 H 0.30324 0.78513 0.09791 0.0
H2660 H 0.30461 0.76342 0.10179 0.0
H2661 H 0.24747 0.80506 0.14597 0.0
H2662 H 0.25942 0.81721 0.13195 0.0
H2663 H 0.24386 0.80383 0.12416 0.0
H2664 H 0.28585 0.83697 0.08736 0.0
H2665 H 0.24903 0.80434 0.06829 0.0
H2666 H 0.30352 0.81011 0.11528 0.0
H2667 H 0.28844 0.8209 0.1268 0.0
H2668 H 0.30034 0.83167 0.11166 0.0
H2669 H 0.25806 0.77043 0.09214 0.0
H2670 H 0.2412 0.78023 0.08176 0.0
H2671 H 0.24314 0.78128 0.10379 0.0
C2672 C 0.01137 0.48824 0.12422 0.0
C2673 C 0.0148 0.47593 0.11271 0.0
C2674 C 0.0217 0.491 0.13778 0.0
C2675 C 0.03588 0.4813 0.13985 0.0
C2676 C 0.03945 0.46888 0.12828 0.0
C2677 C 0.02885 0.4663 0.1149 0.0
C2678 C 0.01746 0.50436 0.14986 0.0
C2679 C 0.05448 0.45829 0.13004 0.0
C2680 C 0.07067 0.49805 0.16619 0.0
C2681 C 0.06838 0.4896 0.18099 0.0
C2682 C 0.06019 0.49547 0.15272 0.0
C2683 C 0.04705 0.48421 0.15407 0.0
C2684 C 0.04461 0.47569 0.16898 0.0
C2685 C 0.0553 0.47847 0.18224 0.0
C2686 C 0.06319 0.50481 0.13704 0.0
C2687 C 0.03073 0.46358 0.17089 0.0
H2688 H 1.00069 0.49591 0.12252 0.0
H2689 H 0.03149 0.4566 0.10622 0.0
H2690 H 0.01629 0.49912 0.16235 0.0
H2691 H 0.02744 0.5136 0.15033 0.0
H2692 H 0.00585 0.51065 0.14663 0.0
H2693 H 0.05556 0.44922 0.11994 0.0
H2694 H 0.06563 0.46609 0.1302 0.0
H2695 H 0.05412 0.45161 0.14187 0.0
H2696 H 0.08059 0.50685 0.16519 0.0
H2697 H 0.05357 0.47172 0.19354 0.0
H2698 H 0.05228 0.51224 0.13387 0.0
H2699 H 0.06517 0.49611 0.12678 0.0
H2700 H 0.07398 0.51309 0.13796 0.0
H2701 H 0.01886 0.4697 0.16846 0.0
H2702 H 0.03038 0.45811 0.18335 0.0
H2703 H 0.03195 0.45356 0.16177 0.0
C2704 C 0.36053 0.71892 0.28338 0.0
C2705 C 0.35944 0.72756 0.26857 0.0
C2706 C 0.37385 0.72126 0.2941 0.0
C2707 C 0.38649 0.73234 0.28978 0.0
C2708 C 0.38546 0.74108 0.27482 0.0
C2709 C 0.37188 0.73867 0.26444 0.0
C2710 C 0.37438 0.7119 0.31005 0.0
C2711 C 0.39879 0.75284 0.26969 0.0
C2712 C 0.41421 0.74922 0.32345 0.0
C2713 C 0.42796 0.739 0.32224 0.0
C2714 C 0.40063 0.74715 0.31302 0.0
C2715 C 0.40084 0.73472 0.3009 0.0
C2716 C 0.41471 0.72449 0.29946 0.0
C2717 C 0.42804 0.72667 0.31021 0.0
C2718 C 0.38602 0.75825 0.315 0.0
C2719 C 0.41545 0.71117 0.28661 0.0
H2720 H 0.35084 0.71045 0.28668 0.0
H2721 H 0.37115 0.74524 0.25292 0.0
H2722 H 0.38547 0.7041 0.31051 0.0
H2723 H 0.37519 0.72058 0.32051 0.0
H2724 H 0.36344 0.70396 0.31171 0.0
H2725 H 0.39615 0.75866 0.25766 0.0
H2726 H 0.40033 0.76261 0.27904 0.0
H2727 H 0.41063 0.74627 0.26884 0.0
H2728 H 0.41411 0.75898 0.33247 0.0
H2729 H 0.43845 0.71855 0.3093 0.0
H2730 H 0.37489 0.75082 0.31741 0.0
H2731 H 0.38381 0.76515 0.3035 0.0
H2732 H 0.38768 0.76716 0.3252 0.0
H2733 H 0.40546 0.70216 0.28861 0.0
H2734 H 0.42732 0.70457 0.28678 0.0
H2735 H 0.41359 0.71651 0.27424 0.0
C2736 C 0.98448 0.39618 0.97504 0.0
C2737 C 0.97397 0.39489 0.98854 0.0
C2738 C 0.98693 0.38284 0.96443 0.0
C2739 C 0.97873 0.36783 0.96742 0.0
C2740 C 0.96815 0.36643 0.98105 0.0
C2741 C 0.96588 0.37998 0.99142 0.0
C2742 C 0.99823 0.38485 0.94997 0.0
C2743 C 0.95928 0.3506 0.98472 0.0
C2744 C 0.97317 0.33756 0.93229 0.0
C2745 C 0.98573 0.32629 0.93539 0.0
C2746 C 0.9708 0.35118 0.94256 0.0
C2747 C 0.98121 0.35356 0.9563 0.0
C2748 C 0.99393 0.34225 0.95949 0.0
C2749 C 0.99605 0.32878 0.94899 0.0
C2750 C 0.9571 0.36297 0.93875 0.0
C2751 C 0.00529 0.34438 0.97402 0.0
H2752 H 0.99062 0.40772 0.97264 0.0
H2753 H 0.95792 0.37883 0.00195 0.0
H2754 H 0.00825 0.37574 0.95068 0.0
H2755 H 0.99141 0.38248 0.93839 0.0
H2756 H 0.00371 0.39731 0.94938 0.0
H2757 H 0.95146 0.35153 0.99579 0.0
H2758 H 0.95145 0.34705 0.97412 0.0
H2759 H 0.96825 0.34061 0.98662 0.0
H2760 H 0.965 0.33563 0.92194 0.0
H2761 H 0.00596 0.32029 0.95133 0.0
H2762 H 0.9621 0.37554 0.93721 0.0
H2763 H 0.94839 0.36336 0.94913 0.0
H2764 H 0.95027 0.35954 0.92743 0.0
H2765 H 0.01179 0.3563 0.97317 0.0
H2766 H 0.01453 0.33445 0.97483 0.0
H2767 H 0.99813 0.34454 0.98554 0.0
C2768 C 0.62706 0.78684 0.26349 0.0
C2769 C 0.64231 0.7799 0.26725 0.0
C2770 C 0.61357 0.78462 0.27385 0.0
C2771 C 0.61532 0.77515 0.28828 0.0
C2772 C 0.63066 0.76805 0.29211 0.0
C2773 C 0.64397 0.77055 0.28157 0.0
C2774 C 0.59745 0.79249 0.2694 0.0
C2775 C 0.63299 0.75777 0.30733 0.0
C2776 C 0.5851 0.78137 0.32302 0.0
C2777 C 0.57431 0.76814 0.3207 0.0
C2778 C 0.59845 0.78383 0.31252 0.0
C2779 C 0.60114 0.77275 0.29944 0.0
C2780 C 0.59031 0.75936 0.29704 0.0
C2781 C 0.577 0.75724 0.30767 0.0
C2782 C 0.60966 0.79833 0.3154 0.0
C2783 C 0.59284 0.74721 0.28331 0.0
H2784 H 0.62576 0.79425 0.25254 0.0
H2785 H 0.65567 0.76499 0.28444 0.0
H2786 H 0.58777 0.78297 0.26822 0.0
H2787 H 0.59365 0.80097 0.27931 0.0
H2788 H 0.59809 0.79944 0.25772 0.0
H2789 H 0.64566 0.753 0.30848 0.0
H2790 H 0.6302 0.76515 0.3184 0.0
H2791 H 0.62436 0.74724 0.30713 0.0
H2792 H 0.58298 0.78993 0.33295 0.0
H2793 H 0.56882 0.74688 0.30595 0.0
H2794 H 0.60989 0.80622 0.30434 0.0
H2795 H 0.62235 0.79404 0.31758 0.0
H2796 H 0.60582 0.80586 0.32605 0.0
H2797 H 0.59268 0.75363 0.27133 0.0
H2798 H 0.5833 0.73747 0.2831 0.0
H2799 H 0.605 0.74135 0.28462 0.0
C2800 C 0.01854 0.10799 0.97456 0.0
C2801 C 0.03077 0.10874 0.98666 0.0
C2802 C 0.01566 0.12132 0.96407 0.0
C2803 C 0.02543 0.13563 0.96556 0.0
C2804 C 0.03797 0.13634 0.9776 0.0
C2805 C 0.0404 0.12293 0.9881 0.0
C2806 C 0.00199 0.1202 0.95157 0.0
C2807 C 0.04882 0.15126 0.9794 0.0
C2808 C 0.02728 0.16485 0.92928 0.0
C2809 C 0.01688 0.17746 0.93442 0.0
C2810 C 0.03023 0.15118 0.93931 0.0
C2811 C 0.02236 0.14998 0.95471 0.0
C2812 C 0.01167 0.16259 0.95983 0.0
C2813 C 0.00917 0.17624 0.94968 0.0
C2814 C 0.04191 0.13813 0.93353 0.0
C2815 C 0.00284 0.16165 0.97603 0.0
H2816 H 0.01099 0.09708 0.97353 0.0
H2817 H 0.04997 0.12346 0.99735 0.0
H2818 H 0.99297 0.13007 0.95378 0.0
H2819 H 0.00692 0.12202 0.93905 0.0
H2820 H 0.99553 0.1082 0.95197 0.0
H2821 H 0.05837 0.14965 0.98901 0.0
H2822 H 0.05493 0.15396 0.96757 0.0
H2823 H 0.04133 0.1621 0.98259 0.0
H2824 H 0.03335 0.16584 0.91754 0.0
H2825 H 1.00098 0.1859 0.95359 0.0
H2826 H 0.03555 0.1261 0.93289 0.0
H2827 H 0.05214 0.13686 0.94245 0.0
H2828 H 0.04709 0.14092 0.92128 0.0
H2829 H 0.99547 0.15021 0.9766 0.0
H2830 H 0.9946 0.17226 0.97801 0.0
H2831 H 0.01185 0.16121 0.98625 0.0
C2832 C 0.37472 0.28485 0.24311 0.0
C2833 C 0.35894 0.27973 0.23848 0.0
C2834 C 0.38818 0.28237 0.23277 0.0
C2835 C 0.38581 0.27463 0.21738 0.0
C2836 C 0.36993 0.26942 0.21263 0.0
C2837 C 0.3567 0.27201 0.22323 0.0
C2838 C 0.40492 0.28812 0.23828 0.0
C2839 C 0.36692 0.26111 0.19632 0.0
C2840 C 0.41755 0.28177 0.18419 0.0
C2841 C 0.42682 0.26735 0.18502 0.0
C2842 C 0.40416 0.28428 0.19461 0.0
C2843 C 0.39995 0.2721 0.20621 0.0
C2844 C 0.40926 0.25752 0.20714 0.0
C2845 C 0.42256 0.25532 0.19653 0.0
C2846 C 0.39455 0.29999 0.19325 0.0
C2847 C 0.40514 0.24424 0.21933 0.0
H2848 H 0.37653 0.29102 0.25476 0.0
H2849 H 0.3446 0.2678 0.21965 0.0
H2850 H 0.41356 0.27766 0.23841 0.0
H2851 H 0.40977 0.29727 0.22949 0.0
H2852 H 0.40474 0.29373 0.2507 0.0
H2853 H 0.35384 0.25779 0.19445 0.0
H2854 H 0.37078 0.26929 0.18619 0.0
H2855 H 0.37437 0.24981 0.19547 0.0
H2856 H 0.42089 0.29124 0.1755 0.0
H2857 H 0.42951 0.24405 0.19711 0.0
H2858 H 0.39496 0.30668 0.2051 0.0
H2859 H 0.38151 0.2972 0.19054 0.0
H2860 H 0.39933 0.30819 0.1835 0.0
H2861 H 0.40562 0.24926 0.23198 0.0
H2862 H 0.41364 0.23368 0.21856 0.0
H2863 H 0.39248 0.23975 0.21717 0.0
C2864 C 0.5353 0.39445 0.03205 0.0
C2865 C 0.53018 0.39355 0.01565 0.0
C2866 C 0.53253 0.38137 0.04286 0.0
C2867 C 0.52484 0.36689 0.037 0.0
C2868 C 0.51989 0.36585 0.02035 0.0
C2869 C 0.52244 0.37929 0.00992 0.0
C2870 C 0.53762 0.38312 0.06061 0.0
C2871 C 0.51201 0.3505 0.01353 0.0
C2872 C 0.53108 0.32799 0.06187 0.0
C2873 C 0.5161 0.32655 0.07016 0.0
C2874 C 0.53398 0.34089 0.05085 0.0
C2875 C 0.5218 0.35292 0.04833 0.0
C2876 C 0.50672 0.35166 0.05671 0.0
C2877 C 0.50397 0.3384 0.06731 0.0
C2878 C 0.55011 0.34165 0.04193 0.0
C2879 C 0.49351 0.36438 0.05455 0.0
H2880 H 0.54118 0.40556 0.03647 0.0
H2881 H 0.5186 0.37859 0.99718 0.0
H2882 H 0.52682 0.38146 0.06864 0.0
H2883 H 0.54655 0.37345 0.06389 0.0
H2884 H 0.54323 0.39527 0.06326 0.0
H2885 H 0.50938 0.35147 1.00019 0.0
H2886 H 0.52014 0.33984 0.01562 0.0
H2887 H 0.50037 0.34796 0.02001 0.0
H2888 H 0.54068 0.31915 0.06412 0.0
H2889 H 0.49221 0.33731 0.07328 0.0
H2890 H 0.55683 0.35298 0.04541 0.0
H2891 H 0.54794 0.34215 0.02849 0.0
H2892 H 0.55801 0.33094 0.04467 0.0
H2893 H 0.49842 0.37671 0.05765 0.0
H2894 H 0.48268 0.36192 0.06236 0.0
H2895 H 0.48945 0.36475 0.04155 0.0
C2896 C 0.6315 0.21682 0.23773 0.0
C2897 C 0.64586 0.2261 0.23581 0.0
C2898 C 0.61787 0.21924 0.22748 0.0
C2899 C 0.61856 0.23127 0.215 0.0
C2900 C 0.63303 0.24064 0.21294 0.0
C2901 C 0.6465 0.23794 0.22336 0.0
C2902 C 0.60265 0.20903 0.23008 0.0
C2903 C 0.63427 0.25356 0.19976 0.0
C2904 C 0.58836 0.22828 0.17943 0.0
C2905 C 0.57649 0.23981 0.18394 0.0
C2906 C 0.60212 0.22538 0.18941 0.0
C2907 C 0.60407 0.23422 0.20426 0.0
C2908 C 0.59214 0.24587 0.20888 0.0
C2909 C 0.57851 0.24851 0.19868 0.0
C2910 C 0.61458 0.21288 0.18405 0.0
C2911 C 0.59376 0.25551 0.22463 0.0
H2912 H 0.63082 0.20781 0.24746 0.0
H2913 H 0.65762 0.245 0.22164 0.0
H2914 H 0.59219 0.2171 0.23308 0.0
H2915 H 0.59942 0.20236 0.21865 0.0
H2916 H 0.60418 0.19998 0.24013 0.0
H2917 H 0.64643 0.2597 0.19968 0.0
H2918 H 0.63205 0.24796 0.18754 0.0
H2919 H 0.62471 0.26299 0.20162 0.0
H2920 H 0.58701 0.22167 0.16796 0.0
H2921 H 0.56928 0.25726 0.20237 0.0
H2922 H 0.61582 0.2032 0.19352 0.0
H2923 H 0.62675 0.21881 0.18276 0.0
H2924 H 0.61124 0.207 0.1722 0.0
H2925 H 0.59418 0.24703 0.23524 0.0
H2926 H 0.58347 0.26419 0.2264 0.0
H2927 H 0.6054 0.26256 0.22467 0.0
C2928 C 0.4894 0.12133 0.017 0.0
C2929 C 0.47771 0.10921 0.0206 0.0
C2930 C 0.49182 0.13486 0.0274 0.0
C2931 C 0.48246 0.13626 0.04189 0.0
C2932 C 0.47078 0.12401 0.04572 0.0
C2933 C 0.46848 0.1107 0.035 0.0
C2934 C 0.50434 0.14771 0.02285 0.0
C2935 C 0.46063 0.12501 0.06112 0.0
C2936 C 0.49885 0.16375 0.07598 0.0
C2937 C 0.48941 0.17796 0.07392 0.0
C2938 C 0.49663 0.15006 0.06574 0.0
C2939 C 0.48482 0.15061 0.05299 0.0
C2940 C 0.4753 0.16491 0.05078 0.0
C2941 C 0.47765 0.17836 0.06131 0.0
C2942 C 0.50695 0.135 0.06854 0.0
C2943 C 0.46265 0.16601 0.03726 0.0
H2944 H 0.4968 0.12018 0.00607 0.0
H2945 H 0.45924 0.10157 0.0378 0.0
H2946 H 0.49836 0.15985 0.02177 0.0
H2947 H 0.51377 0.14873 0.03263 0.0
H2948 H 0.51052 0.14488 0.01108 0.0
H2949 H 0.45237 0.11427 0.06254 0.0
H2950 H 0.46876 0.12579 0.07204 0.0
H2951 H 0.45311 0.1363 0.06092 0.0
H2952 H 0.50815 0.16338 0.08549 0.0
H2953 H 0.4701 0.18914 0.05977 0.0
H2954 H 0.51434 0.13238 0.05748 0.0
H2955 H 0.49895 0.1242 0.07065 0.0
H2956 H 0.51536 0.1364 0.07921 0.0
H2957 H 0.46851 0.16398 0.02519 0.0
H2958 H 0.4564 0.17808 0.03705 0.0
H2959 H 0.45328 0.15627 0.03883 0.0
C2960 C 0.26361 0.37428 0.72027 0.0
C2961 C 0.2662 0.35952 0.72866 0.0
C2962 C 0.27418 0.38772 0.7225 0.0
C2963 C 0.28757 0.38641 0.73351 0.0
C2964 C 0.2902 0.37157 0.74209 0.0
C2965 C 0.27953 0.35827 0.73949 0.0
C2966 C 0.27108 0.40327 0.71299 0.0
C2967 C 0.30423 0.36976 0.75407 0.0
C2968 C 0.32359 0.41565 0.72878 0.0
C2969 C 0.32018 0.42755 0.7407 0.0
C2970 C 0.31305 0.40224 0.72626 0.0
C2971 C 0.29886 0.40059 0.73603 0.0
C2972 C 0.29542 0.41251 0.74817 0.0
C2973 C 0.30608 0.42589 0.75029 0.0
C2974 C 0.31703 0.3899 0.71307 0.0
C2975 C 0.28053 0.41108 0.75896 0.0
H2976 H 0.25342 0.37523 0.71176 0.0
H2977 H 0.28147 0.34693 0.74612 0.0
H2978 H 0.26919 0.41364 0.72157 0.0
H2979 H 0.28192 0.40631 0.70542 0.0
H2980 H 0.26021 0.40225 0.70481 0.0
H2981 H 0.30447 0.35746 0.75989 0.0
H2982 H 0.31603 0.37181 0.74772 0.0
H2983 H 0.3033 0.37918 0.76385 0.0
H2984 H 0.33438 0.41699 0.72121 0.0
H2985 H 0.30351 0.43498 0.75963 0.0
H2986 H 0.30685 0.38922 0.70404 0.0
H2987 H 0.31836 0.37753 0.71854 0.0
H2988 H 0.32849 0.393 0.70647 0.0
H2989 H 0.26926 0.41104 0.7513 0.0
H2990 H 0.27972 0.42127 0.76796 0.0
H2991 H 0.28081 0.3993 0.76574 0.0
C2992 C 0.27028 0.63758 0.76185 0.0
C2993 C 0.26973 0.64555 0.77707 0.0
C2994 C 0.28088 0.62433 0.75923 0.0
C2995 C 0.29094 0.61874 0.77225 0.0
C2996 C 0.2904 0.62674 0.78767 0.0
C2997 C 0.2799 0.64015 0.78985 0.0
C2998 C 0.2813 0.61631 0.74254 0.0
C2999 C 0.30073 0.62099 0.80193 0.0
C3000 C 0.30613 0.57483 0.76984 0.0
C3001 C 0.32239 0.57705 0.7649 0.0
C3002 C 0.29582 0.5883 0.77247 0.0
C3003 C 0.30185 0.60437 0.7698 0.0
C3004 C 0.31825 0.60667 0.76472 0.0
C3005 C 0.32838 0.59298 0.76247 0.0
C3006 C 0.27851 0.58534 0.77817 0.0
C3007 C 0.32505 0.62358 0.76148 0.0
H3008 H 0.26253 0.64185 0.75191 0.0
H3009 H 0.27938 0.64623 0.80167 0.0
H3010 H 0.29397 0.61653 0.7377 0.0
H3011 H 0.27756 0.60327 0.74353 0.0
H3012 H 0.2731 0.62247 0.73357 0.0
H3013 H 0.29886 0.62852 0.81312 0.0
H3014 H 0.29771 0.60804 0.80482 0.0
H3015 H 0.31388 0.62144 0.79865 0.0
H3016 H 0.30154 0.56252 0.77189 0.0
H3017 H 0.34091 0.5947 0.75851 0.0
H3018 H 0.26971 0.59023 0.76903 0.0
H3019 H 0.27637 0.59195 0.78986 0.0
H3020 H 0.27584 0.57212 0.78006 0.0
H3021 H 0.31762 0.62974 0.75188 0.0
H3022 H 0.338 0.62327 0.75742 0.0
H3023 H 0.32428 0.63118 0.77273 0.0
C3024 C 0.89536 0.4749 0.48505 0.0
C3025 C 0.89359 0.48897 0.47536 0.0
C3026 C 0.88216 0.46413 0.48755 0.0
C3027 C 0.86677 0.46758 0.48029 0.0
C3028 C 0.86488 0.48182 0.47057 0.0
C3029 C 0.87832 0.49231 0.46817 0.0
C3030 C 0.8847 0.44899 0.49786 0.0
C3031 C 0.84863 0.48602 0.46275 0.0
C3032 C 0.83632 0.43269 0.47419 0.0
C3033 C 0.82586 0.43474 0.48765 0.0
C3034 C 0.8497 0.44323 0.47169 0.0
C3035 C 0.85265 0.45626 0.48282 0.0
C3036 C 0.84211 0.45848 0.49636 0.0
C3037 C 0.82891 0.44766 0.49865 0.0
C3038 C 0.86069 0.44043 0.45713 0.0
C3039 C 0.8448 0.47227 0.50846 0.0
H3040 H 0.90718 0.47216 0.49048 0.0
H3041 H 0.87683 0.50327 0.46084 0.0
H3042 H 0.87616 0.44904 0.50839 0.0
H3043 H 0.88193 0.43787 0.49049 0.0
H3044 H 0.89742 0.44807 0.50265 0.0
H3045 H 0.84917 0.4976 0.45563 0.0
H3046 H 0.84467 0.47598 0.45443 0.0
H3047 H 0.83914 0.48725 0.47235 0.0
H3048 H 0.83394 0.42292 0.46547 0.0
H3049 H 0.82108 0.44922 0.50922 0.0
H3050 H 0.87349 0.43863 0.46134 0.0
H3051 H 0.8606 0.45137 0.44907 0.0
H3052 H 0.85688 0.42959 0.44977 0.0
H3053 H 0.85699 0.47103 0.51438 0.0
H3054 H 0.83533 0.47251 0.51818 0.0
H3055 H 0.84469 0.48421 0.50197 0.0
C3056 C 0.74151 0.87293 0.76824 0.0
C3057 C 0.73879 0.86189 0.78113 0.0
C3058 C 0.73109 0.88634 0.76564 0.0
C3059 C 0.71758 0.88877 0.77616 0.0
C3060 C 0.71477 0.8777 0.78921 0.0
C3061 C 0.72541 0.86442 0.79155 0.0
C3062 C 0.73448 0.89785 0.75157 0.0
C3063 C 0.70052 0.87989 0.80071 0.0
C3064 C 0.69865 0.93121 0.77861 0.0
C3065 C 0.68483 0.92947 0.76845 0.0
C3066 C 0.70943 0.91809 0.7812 0.0
C3067 C 0.70632 0.90284 0.77346 0.0
C3068 C 0.69242 0.901 0.76318 0.0
C3069 C 0.68185 0.91433 0.76079 0.0
C3070 C 0.72411 0.92052 0.79228 0.0
C3071 C 0.6887 0.88495 0.75467 0.0
H3072 H 0.75169 0.87095 0.76 0.0
H3073 H 0.72335 0.85609 0.80167 0.0
H3074 H 0.72389 0.89796 0.743 0.0
H3075 H 0.73609 0.91054 0.75625 0.0
H3076 H 0.74561 0.89437 0.74463 0.0
H3077 H 0.70004 0.87021 0.81027 0.0
H3078 H 0.70137 0.892 0.80686 0.0
H3079 H 0.68886 0.87965 0.79368 0.0
H3080 H 0.70093 0.9428 0.78475 0.0
H3081 H 0.67135 0.91295 0.75273 0.0
H3082 H 0.73551 0.91789 0.78545 0.0
H3083 H 0.72355 0.9118 0.80269 0.0
H3084 H 0.72488 0.93318 0.79726 0.0
H3085 H 0.69906 0.88149 0.74665 0.0
H3086 H 0.67738 0.88552 0.74709 0.0
H3087 H 0.68726 0.87507 0.76388 0.0
C3088 C 0.60741 0.53269 0.98539 0.0
C3089 C 0.60969 0.51841 0.97609 0.0
C3090 C 0.6204 0.54365 0.98831 0.0
C3091 C 0.63608 0.54019 0.98188 0.0
C3092 C 0.63847 0.52576 0.97254 0.0
C3093 C 0.62524 0.51508 0.96972 0.0
C3094 C 0.61734 0.55899 0.9982 0.0
C3095 C 0.65504 0.52155 0.96561 0.0
C3096 C 0.66681 0.57487 0.9765 0.0
C3097 C 0.6769 0.57296 0.99034 0.0
C3098 C 0.65339 0.56441 0.97368 0.0
C3099 C 0.65002 0.55164 0.98492 0.0
C3100 C 0.6601 0.54966 0.99894 0.0
C3101 C 0.67337 0.56037 0.00152 0.0
C3102 C 0.64289 0.56694 0.9586 0.0
C3103 C 0.65693 0.53618 0.01119 0.0
H3104 H 0.59537 0.53542 0.99018 0.0
H3105 H 0.62712 0.50396 0.9627 0.0
H3106 H 0.62544 0.55923 0.00915 0.0
H3107 H 0.62032 0.56997 0.99077 0.0
H3108 H 0.60443 0.5599 0.00231 0.0
H3109 H 0.65487 0.50984 0.95864 0.0
H3110 H 0.65926 0.53147 0.95734 0.0
H3111 H 0.66416 0.52056 0.97569 0.0
H3112 H 0.66956 0.58439 0.96767 0.0
H3113 H 0.68091 0.55895 0.01239 0.0
H3114 H 0.62993 0.56864 0.96219 0.0
H3115 H 0.6434 0.55591 0.95066 0.0
H3116 H 0.64685 0.57774 0.95133 0.0
H3117 H 0.64445 0.53744 0.01634 0.0
H3118 H 0.66591 0.53629 0.02147 0.0
H3119 H 0.65747 0.52407 0.005 0.0
C3120 C 0.23812 0.63617 0.23985 0.0
C3121 C 0.23778 0.6447 0.22494 0.0
C3122 C 0.22762 0.6228 0.2426 0.0
C3123 C 0.21667 0.6177 0.23005 0.0
C3124 C 0.21636 0.62621 0.21493 0.0
C3125 C 0.22683 0.63969 0.2126 0.0
C3126 C 0.22816 0.61419 0.25898 0.0
C3127 C 0.20503 0.62102 0.20117 0.0
C3128 C 0.2003 0.57405 0.23194 0.0
C3129 C 0.18449 0.57647 0.23807 0.0
C3130 C 0.21085 0.58737 0.22912 0.0
C3131 C 0.20554 0.60347 0.23276 0.0
C3132 C 0.18962 0.60596 0.23905 0.0
C3133 C 0.17924 0.59244 0.24151 0.0
C3134 C 0.22764 0.58423 0.22217 0.0
C3135 C 0.1836 0.6229 0.24332 0.0
H3136 H 0.24645 0.64013 0.24948 0.0
H3137 H 0.22666 0.64617 0.201 0.0
H3138 H 0.21591 0.61457 0.26477 0.0
H3139 H 0.23134 0.60111 0.25723 0.0
H3140 H 0.23722 0.61981 0.26752 0.0
H3141 H 0.20642 0.6288 0.19009 0.0
H3142 H 0.20748 0.60809 0.19774 0.0
H3143 H 0.19212 0.62165 0.20528 0.0
H3144 H 0.20433 0.56172 0.22912 0.0
H3145 H 0.16708 0.59432 0.24641 0.0
H3146 H 0.23718 0.5887 0.23083 0.0
H3147 H 0.22918 0.5911 0.21055 0.0
H3148 H 0.22979 0.57101 0.21973 0.0
H3149 H 0.19184 0.62859 0.25259 0.0
H3150 H 0.17095 0.62274 0.24826 0.0
H3151 H 0.18383 0.63083 0.23229 0.0
C3152 C 0.878 0.51455 0.03613 0.0
C3153 C 0.89349 0.51815 0.02969 0.0
C3154 C 0.8647 0.5251 0.03353 0.0
C3155 C 0.86698 0.53967 0.0244 0.0
C3156 C 0.8826 0.5434 0.01793 0.0
C3157 C 0.89565 0.53256 0.02058 0.0
C3158 C 0.8482 0.5206 0.04049 0.0
C3159 C 0.88555 0.5589 0.00828 0.0
C3160 C 0.82963 0.55988 0.00527 0.0
C3161 C 0.82614 0.57219 0.01674 0.0
C3162 C 0.84289 0.54922 0.0076 0.0
C3163 C 0.853 0.55102 0.02166 0.0
C3164 C 0.84964 0.56355 0.03318 0.0
C3165 C 0.83621 0.57393 0.03062 0.0
C3166 C 0.84597 0.53592 0.99511 0.0
C3167 C 0.86024 0.56597 0.04823 0.0
H3168 H 0.87624 0.50334 0.04301 0.0
H3169 H 0.90764 0.53547 0.01574 0.0
H3170 H 0.84404 0.53031 0.04903 0.0
H3171 H 0.839 0.51974 0.03047 0.0
H3172 H 0.84844 0.50875 0.04718 0.0
H3173 H 0.89844 0.56005 0.00415 0.0
H3174 H 0.87742 0.55917 0.99734 0.0
H3175 H 0.88251 0.56975 0.01588 0.0
H3176 H 0.82177 0.55838 0.99461 0.0
H3177 H 0.83366 0.58355 0.03942 0.0
H3178 H 0.84527 0.52373 1.00109 0.0
H3179 H 0.85849 0.53721 0.99005 0.0
H3180 H 0.83703 0.53622 0.98481 0.0
H3181 H 0.86001 0.55474 0.05588 0.0
H3182 H 0.85617 0.57649 0.05583 0.0
H3183 H 0.87313 0.56808 0.04456 0.0
C3184 C 0.11977 0.98635 0.01358 0.0
C3185 C 0.11035 0.98514 0.02788 0.0
C3186 C 0.133 0.97578 0.0108 0.0
C3187 C 0.13702 0.96377 0.02265 0.0
C3188 C 0.12758 0.96246 0.0371 0.0
C3189 C 0.11434 0.9731 0.03951 0.0
C3190 C 0.14275 0.97753 0.99521 0.0
C3191 C 0.13151 0.94984 0.05005 0.0
C3192 C 0.16246 0.92709 0.00957 0.0
C3193 C 0.17818 0.93173 0.01483 0.0
C3194 C 0.14896 0.93741 0.012 0.0
C3195 C 0.15121 0.95267 0.02 0.0
C3196 C 0.16704 0.95737 0.02543 0.0
C3197 C 0.18034 0.94688 0.02273 0.0
C3198 C 0.1323 0.93202 0.0059 0.0
C3199 C 0.16993 0.97348 0.03415 0.0
H3200 H 0.11697 0.99575 0.00464 0.0
H3201 H 0.107 0.97189 0.05047 0.0
H3202 H 0.15566 0.98058 0.99822 0.0
H3203 H 0.14277 0.96574 0.98841 0.0
H3204 H 0.13779 0.98721 0.98703 0.0
H3205 H 0.12304 0.95047 0.06064 0.0
H3206 H 0.13081 0.93736 0.04468 0.0
H3207 H 0.14421 0.95165 0.0546 0.0
H3208 H 0.16076 0.91548 0.0033 0.0
H3209 H 0.19243 0.95043 0.027 0.0
H3210 H 0.12752 0.94105 0.99693 0.0
H3211 H 0.12355 0.93157 0.01625 0.0
H3212 H 0.1326 0.91977 0.99995 0.0
H3213 H 0.16616 0.98378 0.02614 0.0
H3214 H 0.18296 0.97527 0.0377 0.0
H3215 H 0.16232 0.97407 0.04537 0.0
loop_
_geom_bond_atom_site_label_1
_geom_bond_atom_site_label_2
_geom_bond_distance
_geom_bond_site_symmetry_2
_ccdc_geom_bond_type
C0 C1 1.386 . S
C0 C2 1.397 . S
C0 H24 0.931 . S
C1 C0 1.386 . S
C1 C5 1.397 1_556 S
C2 C0 1.397 . S
C2 C3 1.384 1_556 S
C2 H25 0.930 . S
C3 C2 1.384 1_554 S
C3 C4 1.377 . S
C3 C6 1.481 . S
C4 C3 1.377 . S
C4 C5 1.389 . S
C4 H26 0.929 . S
C5 C1 1.397 1_554 S
C5 C4 1.389 . S
C5 H27 0.931 . S
C6 C3 1.481 . S
C6 C7 1.387 . S
C6 C11 1.390 . S
C7 C6 1.387 . S
C7 C8 1.401 . S
C7 H28 0.930 . S
C8 C7 1.401 . S
C8 C9 1.376 . S
C8 C17 1.511 . S
C9 C8 1.376 . S
C9 C10 1.392 . S
C9 H30 0.931 . S
C10 C9 1.392 . S
C10 C11 1.361 . S
C10 C12 1.500 . S
C11 C6 1.390 . S
C11 C10 1.361 . S
C11 H29 0.931 . S
C12 C10 1.500 . S
C12 C13 1.371 . S
C12 C14 1.365 . S
C13 C12 1.371 . S
C13 C23 1.386 1_455 S
C13 H31 0.931 . S
C14 C12 1.365 . S
C14 C15 1.409 1_455 S
C14 H32 0.929 . S
C15 C14 1.409 1_655 S
C15 C16 1.380 . S
C15 H33 0.930 . S
C16 C15 1.380 . S
C16 C23 1.357 . S
C17 C8 1.511 . S
C17 C18 1.341 . S
C17 C19 1.358 1_545 S
C18 C17 1.341 . S
C18 C22 1.394 1_545 S
C18 H34 0.930 . S
C19 C17 1.358 1_565 S
C19 C20 1.406 . S
C19 H35 0.931 . S
C20 C19 1.406 . S
C20 C21 1.331 . S
C20 H38 0.932 . S
C21 C20 1.331 . S
C21 C22 1.336 . S
C22 C18 1.394 1_565 S
C22 C21 1.336 . S
C22 H37 0.891 1_554 S
C23 C13 1.386 1_655 S
C23 C16 1.357 . S
C23 H36 0.928 1_545 S
H24 C0 0.931 . S
H25 C2 0.930 . S
H26 C4 0.929 . S
H27 C5 0.931 . S
H28 C7 0.930 . S
H29 C11 0.931 . S
H30 C9 0.931 . S
H31 C13 0.931 . S
H32 C14 0.929 . S
H33 C15 0.930 . S
H34 C18 0.930 . S
H35 C19 0.931 . S
H36 C23 0.928 1_565 S
H37 C22 0.891 1_556 S
H38 C20 0.932 . S
C39 C40 1.386 . S
C39 C41 1.397 . S
C39 H63 0.931 . S
C40 C39 1.386 . S
C40 C44 1.397 . S
C41 C39 1.397 . S
C41 C42 1.384 . S
C41 H64 0.930 . S
C42 C41 1.384 . S
C42 C43 1.377 . S
C42 C45 1.481 . S
C43 C42 1.377 . S
C43 C44 1.389 . S
C43 H65 0.929 . S
C44 C40 1.397 . S
C44 C43 1.389 . S
C44 H66 0.931 . S
C45 C42 1.481 . S
C45 C46 1.387 . S
C45 C50 1.390 . S
C46 C45 1.387 . S
C46 C47 1.401 . S
C46 H67 0.930 . S
C47 C46 1.401 . S
C47 C48 1.376 . S
C47 C56 1.511 . S
C48 C47 1.376 . S
C48 C49 1.392 . S
C48 H69 0.931 . S
C49 C48 1.392 . S
C49 C50 1.361 . S
C49 C51 1.500 . S
C50 C45 1.390 . S
C50 C49 1.361 . S
C50 H68 0.931 . S
C51 C49 1.500 . S
C51 C52 1.371 . S
C51 C53 1.365 . S
C52 C51 1.371 . S
C52 C62 1.386 . S
C52 H70 0.931 . S
C53 C51 1.365 . S
C53 C54 1.409 . S
C53 H71 0.929 . S
C54 C53 1.409 . S
C54 C55 1.380 . S
C54 H72 0.930 . S
C55 C54 1.380 . S
C55 C62 1.357 . S
C56 C47 1.511 . S
C56 C57 1.341 . S
C56 C58 1.371 . S
C57 C56 1.341 . S
C57 C61 1.394 . S
C57 H73 0.930 . S
C58 C56 1.371 . S
C58 C59 1.392 . S
C58 H74 0.931 . S
C59 C58 1.392 . S
C59 C60 1.331 . S
C59 H77 0.932 . S
C60 C59 1.331 . S
C60 C61 1.336 . S
C61 C57 1.394 . S
C61 C60 1.336 . S
C61 H76 0.929 . S
C62 C52 1.386 . S
C62 C55 1.357 . S
C62 H75 0.928 . S
H63 C39 0.931 . S
H64 C41 0.930 . S
H65 C43 0.929 . S
H66 C44 0.931 . S
H67 C46 0.930 . S
H68 C50 0.931 . S
H69 C48 0.931 . S
H70 C52 0.931 . S
H71 C53 0.929 . S
H72 C54 0.930 . S
H73 C57 0.930 . S
H74 C58 0.931 . S
H75 C62 0.928 . S
H76 C61 0.929 . S
H77 C59 0.932 . S
C78 C79 1.386 1_655 S
C78 C80 1.397 . S
C78 H102 0.931 . S
C79 C78 1.386 1_455 S
C79 C83 1.397 . S
C80 C78 1.397 . S
C80 C81 1.384 . S
C80 H103 0.930 . S
C81 C80 1.384 . S
C81 C82 1.377 1_655 S
C81 C84 1.481 . S
C82 C81 1.377 1_455 S
C82 C83 1.389 . S
C82 H104 0.929 . S
C83 C79 1.397 . S
C83 C82 1.389 . S
C83 H105 0.931 . S
C84 C81 1.481 . S
C84 C85 1.387 . S
C84 C89 1.390 . S
C85 C84 1.387 . S
C85 C86 1.401 . S
C85 H106 0.930 . S
C86 C85 1.401 . S
C86 C87 1.376 . S
C86 C95 1.511 . S
C87 C86 1.376 . S
C87 C88 1.392 . S
C87 H108 0.931 . S
C88 C87 1.392 . S
C88 C89 1.361 . S
C88 C90 1.500 . S
C89 C84 1.390 . S
C89 C88 1.361 . S
C89 H107 0.931 . S
C90 C88 1.500 . S
C90 C91 1.371 . S
C90 C92 1.365 . S
C91 C90 1.371 . S
C91 C101 1.386 1_554 S
C91 H109 0.931 . S
C92 C90 1.365 . S
C92 C93 1.409 1_554 S
C92 H110 0.929 . S
C93 C92 1.409 1_556 S
C93 C94 1.380 . S
C93 H111 0.930 1_655 S
C94 C93 1.380 . S
C94 C101 1.357 . S
C95 C86 1.511 . S
C95 C96 1.341 . S
C95 C97 1.371 . S
C96 C95 1.341 . S
C96 C100 1.394 . S
C96 H112 0.930 . S
C97 C95 1.371 . S
C97 C98 1.392 . S
C97 H113 0.931 . S
C98 C97 1.392 . S
C98 C99 1.331 . S
C98 H116 0.929 . S
C99 C98 1.331 . S
C99 C100 1.336 . S
C100 C96 1.394 . S
C100 C99 1.336 . S
C100 H115 0.929 . S
C101 C91 1.386 1_556 S
C101 C94 1.357 . S
C101 H114 0.928 . S
H102 C78 0.931 . S
H103 C80 0.930 . S
H104 C82 0.929 . S
H105 C83 0.931 . S
H106 C85 0.930 . S
H107 C89 0.931 . S
H108 C87 0.931 . S
H109 C91 0.931 . S
H110 C92 0.929 . S
H111 C93 0.930 1_455 S
H112 C96 0.930 . S
H113 C97 0.931 . S
H114 C101 0.928 . S
H115 C100 0.929 . S
H116 C98 0.929 . S
C117 C118 1.386 . S
C117 C119 1.397 . S
C117 H141 0.931 . S
C118 C117 1.386 . S
C118 C122 1.397 . S
C119 C117 1.397 . S
C119 C120 1.384 . S
C119 H142 0.930 . S
C120 C119 1.384 . S
C120 C121 1.377 . S
C120 C123 1.481 . S
C121 C120 1.377 . S
C121 C122 1.389 . S
C121 H143 0.929 . S
C122 C118 1.397 . S
C122 C121 1.389 . S
C122 H144 0.931 . S
C123 C120 1.481 . S
C123 C124 1.387 . S
C123 C128 1.390 . S
C124 C123 1.387 . S
C124 C125 1.401 . S
C124 H145 0.930 . S
C125 C124 1.401 . S
C125 C126 1.376 . S
C125 C134 1.511 . S
C126 C125 1.376 . S
C126 C127 1.392 . S
C126 H147 0.931 . S
C127 C126 1.392 . S
C127 C128 1.361 . S
C127 C129 1.500 . S
C128 C123 1.390 . S
C128 C127 1.361 . S
C128 H146 0.931 . S
C129 C127 1.500 . S
C129 C130 1.371 . S
C129 C131 1.365 . S
C130 C129 1.371 . S
C130 C140 1.386 . S
C130 H148 0.931 . S
C131 C129 1.365 . S
C131 C132 1.409 . S
C131 H149 0.929 . S
C132 C131 1.409 . S
C132 C133 1.380 . S
C132 H150 0.930 . S
C133 C132 1.380 . S
C133 C140 1.357 . S
C134 C125 1.511 . S
C134 C135 1.341 . S
C134 C136 1.371 . S
C135 C134 1.341 . S
C135 C139 1.394 . S
C135 H151 0.930 . S
C136 C134 1.371 . S
C136 C137 1.392 . S
C136 H152 0.931 . S
C137 C136 1.392 . S
C137 C138 1.331 . S
C137 H155 0.932 . S
C138 C137 1.331 . S
C138 C139 1.336 . S
C139 C135 1.394 . S
C139 C138 1.336 . S
C139 H154 0.929 . S
C140 C130 1.386 . S
C140 C133 1.357 . S
C140 H153 0.928 . S
H141 C117 0.931 . S
H142 C119 0.930 . S
H143 C121 0.929 . S
H144 C122 0.931 . S
H145 C124 0.930 . S
H146 C128 0.931 . S
H147 C126 0.931 . S
H148 C130 0.931 . S
H149 C131 0.929 . S
H150 C132 0.930 . S
H151 C135 0.930 . S
H152 C136 0.931 . S
H153 C140 0.928 . S
H154 C139 0.929 . S
H155 C137 0.932 . S
C156 C157 1.386 . S
C156 C158 1.397 . S
C156 H180 0.931 . S
C157 C156 1.386 . S
C157 C161 1.397 1_655 S
C158 C156 1.397 . S
C158 C159 1.384 1_655 S
C158 H181 0.930 . S
C159 C158 1.384 1_455 S
C159 C160 1.377 . S
C159 C162 1.481 . S
C160 C159 1.377 . S
C160 C161 1.389 . S
C160 H182 0.929 . S
C161 C157 1.397 1_455 S
C161 C160 1.389 . S
C161 H183 0.931 . S
C162 C159 1.481 . S
C162 C163 1.387 . S
C162 C167 1.390 . S
C163 C162 1.387 . S
C163 C164 1.401 . S
C163 H184 0.930 . S
C164 C163 1.401 . S
C164 C165 1.376 . S
C164 C173 1.511 . S
C165 C164 1.376 . S
C165 C166 1.392 . S
C165 H186 0.931 . S
C166 C165 1.392 . S
C166 C167 1.361 . S
C166 C168 1.500 . S
C167 C162 1.390 . S
C167 C166 1.361 . S
C167 H185 0.931 . S
C168 C166 1.500 . S
C168 C169 1.371 . S
C168 C170 1.365 . S
C169 C168 1.371 . S
C169 C179 1.386 1_565 S
C169 H187 0.931 . S
C170 C168 1.365 . S
C170 C171 1.409 1_565 S
C170 H188 0.929 . S
C171 C170 1.409 1_545 S
C171 C172 1.380 . S
C171 H189 0.930 . S
C172 C171 1.380 . S
C172 C179 1.357 . S
C173 C164 1.511 . S
C173 C174 1.341 . S
C173 C175 1.371 . S
C174 C173 1.341 . S
C174 C178 1.394 . S
C174 H190 0.930 . S
C175 C173 1.371 . S
C175 C176 1.392 . S
C175 H191 0.931 . S
C176 C175 1.392 . S
C176 C177 1.331 . S
C176 H194 0.932 . S
C177 C176 1.331 . S
C177 C178 1.336 . S
C178 C174 1.394 . S
C178 C177 1.336 . S
C178 H193 0.890 1_455 S
C179 C169 1.386 1_545 S
C179 C172 1.357 . S
C179 H192 0.928 . S
H180 C156 0.931 . S
H181 C158 0.930 . S
H182 C160 0.929 . S
H183 C161 0.931 . S
H184 C163 0.930 . S
H185 C167 0.931 . S
H186 C165 0.931 . S
H187 C169 0.931 . S
H188 C170 0.929 . S
H189 C171 0.930 . S
H190 C174 0.930 . S
H191 C175 0.931 . S
H192 C179 0.928 . S
H193 C178 0.890 1_655 S
H194 C176 0.932 . S
C195 C196 1.386 . S
C195 C197 1.397 . S
C195 H219 0.931 . S
C196 C195 1.386 . S
C196 C200 1.397 . S
C197 C195 1.397 . S
C197 C198 1.384 . S
C197 H220 0.930 . S
C198 C197 1.384 . S
C198 C199 1.377 . S
C198 C201 1.481 . S
C199 C198 1.377 . S
C199 C200 1.389 . S
C199 H221 0.929 . S
C200 C196 1.397 . S
C200 C199 1.389 . S
C200 H222 0.931 . S
C201 C198 1.481 . S
C201 C202 1.387 . S
C201 C206 1.390 . S
C202 C201 1.387 . S
C202 C203 1.401 . S
C202 H223 0.930 . S
C203 C202 1.401 . S
C203 C204 1.376 . S
C203 C212 1.511 . S
C204 C203 1.376 . S
C204 C205 1.392 . S
C204 H225 0.931 . S
C205 C204 1.392 . S
C205 C206 1.361 . S
C205 C207 1.500 . S
C206 C201 1.390 . S
C206 C205 1.361 . S
C206 H224 0.931 . S
C207 C205 1.500 . S
C207 C208 1.371 . S
C207 C209 1.365 . S
C208 C207 1.371 . S
C208 C218 1.386 . S
C208 H226 0.931 . S
C209 C207 1.365 . S
C209 C210 1.409 . S
C209 H227 0.929 . S
C210 C209 1.409 . S
C210 C211 1.380 . S
C210 H228 0.930 . S
C211 C210 1.380 . S
C211 C218 1.357 . S
C212 C203 1.511 . S
C212 C213 1.341 . S
C212 C214 1.371 . S
C213 C212 1.341 . S
C213 C217 1.394 . S
C213 H229 0.930 . S
C214 C212 1.371 . S
C214 C215 1.392 . S
C214 H230 0.931 . S
C215 C214 1.392 . S
C215 C216 1.331 . S
C215 H233 0.932 . S
C216 C215 1.331 . S
C216 C217 1.336 . S
C217 C213 1.394 . S
C217 C216 1.336 . S
C217 H232 0.929 . S
C218 C208 1.386 . S
C218 C211 1.357 . S
C218 H231 0.928 . S
H219 C195 0.931 . S
H220 C197 0.930 . S
H221 C199 0.929 . S
H222 C200 0.931 . S
H223 C202 0.930 . S
H224 C206 0.931 . S
H225 C204 0.931 . S
H226 C208 0.931 . S
H227 C209 0.929 . S
H228 C210 0.930 . S
H229 C213 0.930 . S
H230 C214 0.931 . S
H231 C218 0.928 . S
H232 C217 0.929 . S
H233 C215 0.932 . S
C234 C235 1.386 . S
C234 C236 1.397 . S
C234 H258 0.931 . S
C235 C234 1.386 . S
C235 C239 1.397 . S
C236 C234 1.397 . S
C236 C237 1.384 . S
C236 H259 0.930 . S
C237 C236 1.384 . S
C237 C238 1.377 . S
C237 C240 1.481 . S
C238 C237 1.377 . S
C238 C239 1.389 . S
C238 H260 0.929 . S
C239 C235 1.397 . S
C239 C238 1.389 . S
C239 H261 0.931 . S
C240 C237 1.481 . S
C240 C241 1.387 . S
C240 C245 1.390 . S
C241 C240 1.387 . S
C241 C242 1.401 . S
C241 H262 0.930 . S
C242 C241 1.401 . S
C242 C243 1.376 . S
C242 C251 1.511 . S
C243 C242 1.376 . S
C243 C244 1.392 . S
C243 H264 0.931 . S
C244 C243 1.392 . S
C244 C245 1.361 . S
C244 C246 1.500 . S
C245 C240 1.390 . S
C245 C244 1.361 . S
C245 H263 0.931 . S
C246 C244 1.500 . S
C246 C247 1.371 . S
C246 C248 1.365 . S
C247 C246 1.371 . S
C247 C257 1.386 . S
C247 H265 0.931 . S
C248 C246 1.365 . S
C248 C249 1.409 . S
C248 H266 0.929 . S
C249 C248 1.409 . S
C249 C250 1.380 . S
C249 H267 0.930 . S
C250 C249 1.380 . S
C250 C257 1.357 . S
C251 C242 1.511 . S
C251 C252 1.341 1_655 S
C251 C253 1.371 . S
C252 C251 1.341 1_455 S
C252 C256 1.394 . S
C252 H268 0.933 . S
C253 C251 1.371 . S
C253 C254 1.392 1_655 S
C253 H269 0.931 . S
C254 C253 1.392 1_455 S
C254 C255 1.331 . S
C254 H272 0.932 . S
C255 C254 1.331 . S
C255 C256 1.336 . S
C256 C252 1.394 . S
C256 C255 1.336 . S
C256 H271 0.929 . S
C257 C247 1.386 . S
C257 C250 1.357 . S
C257 H270 0.928 . S
H258 C234 0.931 . S
H259 C236 0.930 . S
H260 C238 0.929 . S
H261 C239 0.931 . S
H262 C241 0.930 . S
H263 C245 0.931 . S
H264 C243 0.931 . S
H265 C247 0.931 . S
H266 C248 0.929 . S
H267 C249 0.930 . S
H268 C252 0.933 . S
H269 C253 0.931 . S
H270 C257 0.928 . S
H271 C256 0.929 . S
H272 C254 0.932 . S
C273 C274 1.386 . S
C273 C275 1.397 . S
C273 H297 0.931 . S
C274 C273 1.386 . S
C274 C278 1.397 . S
C275 C273 1.397 . S
C275 C276 1.384 . S
C275 H298 0.930 . S
C276 C275 1.384 . S
C276 C277 1.377 . S
C276 C279 1.481 . S
C277 C276 1.377 . S
C277 C278 1.389 . S
C277 H299 0.929 . S
C278 C274 1.397 . S
C278 C277 1.389 . S
C278 H300 0.931 . S
C279 C276 1.481 . S
C279 C280 1.387 . S
C279 C284 1.390 . S
C280 C279 1.387 . S
C280 C281 1.401 . S
C280 H301 0.930 . S
C281 C280 1.401 . S
C281 C282 1.376 . S
C281 C290 1.511 . S
C282 C281 1.376 . S
C282 C283 1.392 . S
C282 H303 0.931 . S
C283 C282 1.392 . S
C283 C284 1.361 . S
C283 C285 1.500 . S
C284 C279 1.390 . S
C284 C283 1.361 . S
C284 H302 0.931 . S
C285 C283 1.500 . S
C285 C286 1.371 . S
C285 C287 1.365 . S
C286 C285 1.371 . S
C286 C296 1.386 . S
C286 H304 0.931 . S
C287 C285 1.365 . S
C287 C288 1.409 . S
C287 H305 0.929 . S
C288 C287 1.409 . S
C288 C289 1.380 . S
C288 H306 0.930 . S
C289 C288 1.380 . S
C289 C296 1.357 . S
C290 C281 1.511 . S
C290 C291 1.341 . S
C290 C292 1.371 . S
C291 C290 1.341 . S
C291 C295 1.394 . S
C291 H307 0.930 . S
C292 C290 1.371 . S
C292 C293 1.392 . S
C292 H308 0.931 . S
C293 C292 1.392 . S
C293 C294 1.331 . S
C293 H311 0.932 . S
C294 C293 1.331 . S
C294 C295 1.336 . S
C295 C291 1.394 . S
C295 C294 1.336 . S
C295 H310 0.929 . S
C296 C286 1.386 . S
C296 C289 1.357 . S
C296 H309 0.928 . S
H297 C273 0.931 . S
H298 C275 0.930 . S
H299 C277 0.929 . S
H300 C278 0.931 . S
H301 C280 0.930 . S
H302 C284 0.931 . S
H303 C282 0.931 . S
H304 C286 0.931 . S
H305 C287 0.929 . S
H306 C288 0.930 . S
H307 C291 0.930 . S
H308 C292 0.931 . S
H309 C296 0.928 . S
H310 C295 0.929 . S
H311 C293 0.932 . S
C312 C313 1.386 . S
C312 C314 1.397 . S
C312 H336 0.931 . S
C313 C312 1.386 . S
C313 C317 1.397 . S
C314 C312 1.397 . S
C314 C315 1.384 . S
C314 H337 0.930 . S
C315 C314 1.384 . S
C315 C316 1.377 . S
C315 C318 1.481 . S
C316 C315 1.377 . S
C316 C317 1.389 . S
C316 H338 0.929 . S
C317 C313 1.397 . S
C317 C316 1.389 . S
C317 H339 0.931 . S
C318 C315 1.481 . S
C318 C319 1.387 . S
C318 C323 1.390 . S
C319 C318 1.387 . S
C319 C320 1.401 . S
C319 H340 0.930 . S
C320 C319 1.401 . S
C320 C321 1.376 . S
C320 C329 1.511 . S
C321 C320 1.376 . S
C321 C322 1.392 . S
C321 H342 0.931 . S
C322 C321 1.392 . S
C322 C323 1.361 . S
C322 C324 1.500 . S
C323 C318 1.390 . S
C323 C322 1.361 . S
C323 H341 0.931 . S
C324 C322 1.500 . S
C324 C325 1.371 . S
C324 C326 1.365 . S
C325 C324 1.371 . S
C325 C335 1.386 . S
C325 H343 0.931 . S
C326 C324 1.365 . S
C326 C327 1.409 . S
C326 H344 0.929 . S
C327 C326 1.409 . S
C327 C328 1.380 . S
C327 H345 0.930 . S
C328 C327 1.380 . S
C328 C335 1.357 . S
C329 C320 1.511 . S
C329 C330 1.341 . S
C329 C331 1.371 . S
C330 C329 1.341 . S
C330 C334 1.394 . S
C330 H346 0.930 . S
C331 C329 1.371 . S
C331 C332 1.392 . S
C331 H347 0.931 . S
C332 C331 1.392 . S
C332 C333 1.331 . S
C332 H350 0.932 . S
C333 C332 1.331 . S
C333 C334 1.336 . S
C334 C330 1.394 . S
C334 C333 1.336 . S
C334 H349 0.929 . S
C335 C325 1.386 . S
C335 C328 1.357 . S
C335 H348 0.928 . S
H336 C312 0.931 . S
H337 C314 0.930 . S
H338 C316 0.929 . S
H339 C317 0.931 . S
H340 C319 0.930 . S
H341 C323 0.931 . S
H342 C321 0.931 . S
H343 C325 0.931 . S
H344 C326 0.929 . S
H345 C327 0.930 . S
H346 C330 0.930 . S
H347 C331 0.931 . S
H348 C335 0.928 . S
H349 C334 0.929 . S
H350 C332 0.932 . S
C351 C352 1.386 . S
C351 C353 1.397 . S
C351 H375 0.931 . S
C352 C351 1.386 . S
C352 C356 1.397 . S
C353 C351 1.397 . S
C353 C354 1.384 . S
C353 H376 0.930 . S
C354 C353 1.384 . S
C354 C355 1.377 . S
C354 C357 1.481 . S
C355 C354 1.377 . S
C355 C356 1.389 . S
C355 H377 0.929 . S
C356 C352 1.397 . S
C356 C355 1.389 . S
C356 H378 0.931 . S
C357 C354 1.481 . S
C357 C358 1.387 . S
C357 C362 1.390 . S
C358 C357 1.387 . S
C358 C359 1.401 . S
C358 H379 0.930 . S
C359 C358 1.401 . S
C359 C360 1.376 . S
C359 C368 1.511 . S
C360 C359 1.376 . S
C360 C361 1.392 . S
C360 H381 0.931 . S
C361 C360 1.392 . S
C361 C362 1.361 . S
C361 C363 1.500 . S
C362 C357 1.390 . S
C362 C361 1.361 . S
C362 H380 0.931 . S
C363 C361 1.500 . S
C363 C364 1.371 . S
C363 C365 1.365 . S
C364 C363 1.371 . S
C364 C374 1.386 . S
C364 H382 0.931 . S
C365 C363 1.365 . S
C365 C366 1.409 . S
C365 H383 0.929 . S
C366 C365 1.409 . S
C366 C367 1.380 . S
C366 H384 0.930 . S
C367 C366 1.380 . S
C367 C374 1.357 . S
C368 C359 1.511 . S
C368 C369 1.306 1_565 S
C368 C370 1.371 . S
C369 C368 1.306 1_545 S
C369 C373 1.433 . S
C369 H385 0.929 . S
C370 C368 1.371 . S
C370 C371 1.392 1_565 S
C370 H386 0.931 . S
C371 C370 1.392 1_545 S
C371 C372 1.331 . S
C371 H389 0.932 . S
C372 C371 1.331 . S
C372 C373 1.336 . S
C373 C369 1.433 . S
C373 C372 1.336 . S
C373 H388 0.929 . S
C374 C364 1.386 . S
C374 C367 1.357 . S
C374 H387 0.928 . S
H375 C351 0.931 . S
H376 C353 0.930 . S
H377 C355 0.929 . S
H378 C356 0.931 . S
H379 C358 0.930 . S
H380 C362 0.931 . S
H381 C360 0.931 . S
H382 C364 0.931 . S
H383 C365 0.929 . S
H384 C366 0.930 . S
H385 C369 0.929 . S
H386 C370 0.931 . S
H387 C374 0.928 . S
H388 C373 0.929 . S
H389 C371 0.932 . S
C390 C391 1.386 . S
C390 C392 1.397 . S
C390 H414 0.931 . S
C391 C390 1.386 . S
C391 C395 1.397 . S
C392 C390 1.397 . S
C392 C393 1.384 . S
C392 H415 0.930 . S
C393 C392 1.384 . S
C393 C394 1.377 . S
C393 C396 1.481 . S
C394 C393 1.377 . S
C394 C395 1.389 . S
C394 H416 0.929 . S
C395 C391 1.397 . S
C395 C394 1.389 . S
C395 H417 0.931 . S
C396 C393 1.481 . S
C396 C397 1.387 . S
C396 C401 1.390 . S
C397 C396 1.387 . S
C397 C398 1.401 . S
C397 H418 0.930 . S
C398 C397 1.401 . S
C398 C399 1.376 . S
C398 C407 1.511 . S
C399 C398 1.376 . S
C399 C400 1.392 . S
C399 H420 0.931 . S
C400 C399 1.392 . S
C400 C401 1.361 . S
C400 C402 1.500 . S
C401 C396 1.390 . S
C401 C400 1.361 . S
C401 H419 0.931 . S
C402 C400 1.500 . S
C402 C403 1.371 . S
C402 C404 1.365 . S
C403 C402 1.371 . S
C403 C413 1.386 . S
C403 H421 0.931 . S
C404 C402 1.365 . S
C404 C405 1.409 . S
C404 H422 0.929 . S
C405 C404 1.409 . S
C405 C406 1.380 . S
C405 H423 0.930 . S
C406 C405 1.380 . S
C406 C413 1.357 . S
C407 C398 1.511 . S
C407 C408 1.341 . S
C407 C409 1.371 . S
C408 C407 1.341 . S
C408 C412 1.394 . S
C408 H424 0.930 . S
C409 C407 1.371 . S
C409 C410 1.392 . S
C409 H425 0.931 . S
C410 C409 1.392 . S
C410 C411 1.331 . S
C410 H428 0.932 . S
C411 C410 1.331 . S
C411 C412 1.336 . S
C412 C408 1.394 . S
C412 C411 1.336 . S
C412 H427 0.929 . S
C413 C403 1.386 . S
C413 C406 1.357 . S
C413 H426 0.928 . S
H414 C390 0.931 . S
H415 C392 0.930 . S
H416 C394 0.929 . S
H417 C395 0.931 . S
H418 C397 0.930 . S
H419 C401 0.931 . S
H420 C399 0.931 . S
H421 C403 0.931 . S
H422 C404 0.929 . S
H423 C405 0.930 . S
H424 C408 0.930 . S
H425 C409 0.931 . S
H426 C413 0.928 . S
H427 C412 0.929 . S
H428 C410 0.932 . S
C429 C430 1.386 . S
C429 C431 1.397 . S
C429 H453 0.931 . S
C430 C429 1.386 . S
C430 C434 1.397 . S
C431 C429 1.397 . S
C431 C432 1.384 . S
C431 H454 0.930 . S
C432 C431 1.384 . S
C432 C433 1.377 . S
C432 C435 1.481 . S
C433 C432 1.377 . S
C433 C434 1.389 . S
C433 H455 0.929 . S
C434 C430 1.397 . S
C434 C433 1.389 . S
C434 H456 0.931 . S
C435 C432 1.481 . S
C435 C436 1.387 . S
C435 C440 1.390 . S
C436 C435 1.387 . S
C436 C437 1.401 . S
C436 H457 0.930 . S
C437 C436 1.401 . S
C437 C438 1.376 . S
C437 C446 1.511 . S
C438 C437 1.376 . S
C438 C439 1.392 . S
C438 H459 0.931 . S
C439 C438 1.392 . S
C439 C440 1.361 . S
C439 C441 1.500 . S
C440 C435 1.390 . S
C440 C439 1.361 . S
C440 H458 0.931 . S
C441 C439 1.500 . S
C441 C442 1.371 . S
C441 C443 1.365 . S
C442 C441 1.371 . S
C442 C452 1.386 . S
C442 H460 0.931 . S
C443 C441 1.365 . S
C443 C444 1.409 . S
C443 H461 0.929 . S
C444 C443 1.409 . S
C444 C445 1.380 . S
C444 H462 0.930 . S
C445 C444 1.380 . S
C445 C452 1.357 . S
C446 C437 1.511 . S
C446 C447 1.341 . S
C446 C448 1.371 . S
C447 C446 1.341 . S
C447 C451 1.394 . S
C447 H463 0.930 . S
C448 C446 1.371 . S
C448 C449 1.392 . S
C448 H464 0.931 . S
C449 C448 1.392 . S
C449 C450 1.331 . S
C449 H467 0.932 . S
C450 C449 1.331 . S
C450 C451 1.336 . S
C451 C447 1.394 . S
C451 C450 1.336 . S
C451 H466 0.929 . S
C452 C442 1.386 . S
C452 C445 1.357 . S
C452 H465 0.928 . S
H453 C429 0.931 . S
H454 C431 0.930 . S
H455 C433 0.929 . S
H456 C434 0.931 . S
H457 C436 0.930 . S
H458 C440 0.931 . S
H459 C438 0.931 . S
H460 C442 0.931 . S
H461 C443 0.929 . S
H462 C444 0.930 . S
H463 C447 0.930 . S
H464 C448 0.931 . S
H465 C452 0.928 . S
H466 C451 0.929 . S
H467 C449 0.932 . S
C468 C469 1.386 . S
C468 C470 1.397 . S
C468 H492 0.931 . S
C469 C468 1.386 . S
C469 C473 1.397 . S
C470 C468 1.397 . S
C470 C471 1.384 . S
C470 H493 0.930 . S
C471 C470 1.384 . S
C471 C472 1.377 . S
C471 C474 1.481 . S
C472 C471 1.377 . S
C472 C473 1.389 . S
C472 H494 0.929 . S
C473 C469 1.397 . S
C473 C472 1.389 . S
C473 H495 0.931 . S
C474 C471 1.481 . S
C474 C475 1.387 . S
C474 C479 1.390 . S
C475 C474 1.387 . S
C475 C476 1.401 . S
C475 H496 0.930 . S
C476 C475 1.401 . S
C476 C477 1.376 . S
C476 C485 1.511 . S
C477 C476 1.376 . S
C477 C478 1.392 . S
C477 H498 0.931 . S
C478 C477 1.392 . S
C478 C479 1.361 . S
C478 C480 1.500 . S
C479 C474 1.390 . S
C479 C478 1.361 . S
C479 H497 0.931 . S
C480 C478 1.500 . S
C480 C481 1.371 . S
C480 C482 1.365 . S
C481 C480 1.371 . S
C481 C491 1.386 . S
C481 H499 0.931 . S
C482 C480 1.365 . S
C482 C483 1.409 . S
C482 H500 0.929 . S
C483 C482 1.409 . S
C483 C484 1.380 . S
C483 H501 0.930 . S
C484 C483 1.380 . S
C484 C491 1.357 . S
C485 C476 1.511 . S
C485 C486 1.341 . S
C485 C487 1.371 . S
C486 C485 1.341 . S
C486 C490 1.394 . S
C486 H502 0.930 . S
C487 C485 1.371 . S
C487 C488 1.392 . S
C487 H503 0.931 . S
C488 C487 1.392 . S
C488 C489 1.331 . S
C488 H506 0.932 . S
C489 C488 1.331 . S
C489 C490 1.336 . S
C490 C486 1.394 . S
C490 C489 1.336 . S
C490 H505 0.929 . S
C491 C481 1.386 . S
C491 C484 1.357 . S
C491 H504 0.928 . S
H492 C468 0.931 . S
H493 C470 0.930 . S
H494 C472 0.929 . S
H495 C473 0.931 . S
H496 C475 0.930 . S
H497 C479 0.931 . S
H498 C477 0.931 . S
H499 C481 0.931 . S
H500 C482 0.929 . S
H501 C483 0.930 . S
H502 C486 0.930 . S
H503 C487 0.931 . S
H504 C491 0.928 . S
H505 C490 0.929 . S
H506 C488 0.932 . S
C507 C508 1.386 . S
C507 C509 1.397 . S
C507 H531 0.931 . S
C508 C507 1.386 . S
C508 C512 1.397 . S
C509 C507 1.397 . S
C509 C510 1.384 . S
C509 H532 0.930 . S
C510 C509 1.384 . S
C510 C511 1.377 . S
C510 C513 1.481 . S
C511 C510 1.377 . S
C511 C512 1.389 . S
C511 H533 0.929 . S
C512 C508 1.397 . S
C512 C511 1.389 . S
C512 H534 0.931 . S
C513 C510 1.481 . S
C513 C514 1.387 . S
C513 C518 1.390 . S
C514 C513 1.387 . S
C514 C515 1.401 . S
C514 H535 0.930 . S
C515 C514 1.401 . S
C515 C516 1.376 . S
C515 C524 1.511 . S
C516 C515 1.376 . S
C516 C517 1.392 . S
C516 H537 0.931 . S
C517 C516 1.392 . S
C517 C518 1.361 . S
C517 C519 1.500 . S
C518 C513 1.390 . S
C518 C517 1.361 . S
C518 H536 0.931 . S
C519 C517 1.500 . S
C519 C520 1.371 . S
C519 C521 1.365 . S
C520 C519 1.371 . S
C520 C530 1.386 . S
C520 H538 0.980 . S
C521 C519 1.365 . S
C521 C522 1.409 . S
C521 H539 0.929 . S
C522 C521 1.409 . S
C522 C523 1.380 . S
C522 H540 0.930 . S
C523 C522 1.380 . S
C523 C530 1.357 . S
C524 C515 1.511 . S
C524 C525 1.341 . S
C524 C526 1.371 1_556 S
C525 C524 1.341 . S
C525 C529 1.394 1_556 S
C525 H541 0.930 . S
C526 C524 1.371 1_554 S
C526 C527 1.392 . S
C526 H542 0.931 . S
C527 C526 1.392 . S
C527 C528 1.331 . S
C527 H545 0.932 . S
C528 C527 1.331 . S
C528 C529 1.336 . S
C529 C525 1.394 1_554 S
C529 C528 1.336 . S
C529 H544 0.929 . S
C530 C520 1.386 . S
C530 C523 1.357 . S
C530 H543 0.928 1_556 S
H531 C507 0.931 . S
H532 C509 0.930 . S
H533 C511 0.929 . S
H534 C512 0.931 . S
H535 C514 0.930 . S
H536 C518 0.931 . S
H537 C516 0.931 . S
H538 C520 0.980 . S
H539 C521 0.929 . S
H540 C522 0.930 . S
H541 C525 0.930 . S
H542 C526 0.931 . S
H543 C530 0.928 1_554 S
H544 C529 0.929 . S
H545 C527 0.932 . S
C546 C547 1.386 . S
C546 C548 1.397 . S
C546 H570 0.931 . S
C547 C546 1.386 . S
C547 C551 1.397 . S
C548 C546 1.397 . S
C548 C549 1.384 . S
C548 H571 0.930 . S
C549 C548 1.384 . S
C549 C550 1.377 . S
C549 C552 1.481 . S
C550 C549 1.377 . S
C550 C551 1.389 . S
C550 H572 0.929 . S
C551 C547 1.397 . S
C551 C550 1.389 . S
C551 H573 0.931 . S
C552 C549 1.481 . S
C552 C553 1.387 . S
C552 C557 1.390 . S
C553 C552 1.387 . S
C553 C554 1.401 . S
C553 H574 0.930 . S
C554 C553 1.401 . S
C554 C555 1.376 . S
C554 C563 1.511 . S
C555 C554 1.376 . S
C555 C556 1.392 . S
C555 H576 0.931 . S
C556 C555 1.392 . S
C556 C557 1.361 . S
C556 C558 1.500 . S
C557 C552 1.390 . S
C557 C556 1.361 . S
C557 H575 0.931 . S
C558 C556 1.500 . S
C558 C559 1.371 . S
C558 C560 1.365 . S
C559 C558 1.371 . S
C559 C569 1.386 . S
C559 H577 0.931 . S
C560 C558 1.365 . S
C560 C561 1.409 . S
C560 H578 0.929 . S
C561 C560 1.409 . S
C561 C562 1.380 . S
C561 H579 0.930 . S
C562 C561 1.380 . S
C562 C569 1.357 . S
C563 C554 1.511 . S
C563 C564 1.341 . S
C563 C565 1.371 . S
C564 C563 1.341 . S
C564 C568 1.394 . S
C564 H580 0.930 . S
C565 C563 1.371 . S
C565 C566 1.392 . S
C565 H581 0.931 . S
C566 C565 1.392 . S
C566 C567 1.331 . S
C566 H584 0.932 . S
C567 C566 1.331 . S
C567 C568 1.336 . S
C568 C564 1.394 . S
C568 C567 1.336 . S
C568 H583 0.929 . S
C569 C559 1.386 . S
C569 C562 1.357 . S
C569 H582 0.928 . S
H570 C546 0.931 . S
H571 C548 0.930 . S
H572 C550 0.929 . S
H573 C551 0.931 . S
H574 C553 0.930 . S
H575 C557 0.931 . S
H576 C555 0.931 . S
H577 C559 0.931 . S
H578 C560 0.929 . S
H579 C561 0.930 . S
H580 C564 0.930 . S
H581 C565 0.931 . S
H582 C569 0.928 . S
H583 C568 0.929 . S
H584 C566 0.932 . S
C585 C586 1.386 1_556 S
C585 C587 1.397 . S
C585 H609 0.931 . S
C586 C585 1.386 1_554 S
C586 C590 1.397 . S
C587 C585 1.397 . S
C587 C588 1.384 . S
C587 H610 0.930 . S
C588 C587 1.384 . S
C588 C589 1.377 1_556 S
C588 C591 1.481 . S
C589 C588 1.377 1_554 S
C589 C590 1.389 . S
C589 H611 0.929 . S
C590 C586 1.397 . S
C590 C589 1.389 . S
C590 H612 0.931 . S
C591 C588 1.481 . S
C591 C592 1.387 . S
C591 C596 1.390 . S
C592 C591 1.387 . S
C592 C593 1.401 . S
C592 H613 0.930 . S
C593 C592 1.401 . S
C593 C594 1.376 . S
C593 C602 1.511 . S
C594 C593 1.376 . S
C594 C595 1.392 . S
C594 H615 0.931 . S
C595 C594 1.392 . S
C595 C596 1.361 . S
C595 C597 1.500 . S
C596 C591 1.390 . S
C596 C595 1.361 . S
C596 H614 0.931 . S
C597 C595 1.500 . S
C597 C598 1.371 . S
C597 C599 1.365 . S
C598 C597 1.371 . S
C598 C608 1.386 1_545 S
C598 H616 0.931 . S
C599 C597 1.365 . S
C599 C600 1.409 1_545 S
C599 H617 0.948 . S
C600 C599 1.409 1_565 S
C600 C601 1.380 . S
C600 H618 0.930 1_556 S
C601 C600 1.380 . S
C601 C608 1.357 . S
C602 C593 1.511 . S
C602 C603 1.341 . S
C602 C604 1.371 . S
C603 C602 1.341 . S
C603 C607 1.394 . S
C603 H619 0.930 . S
C604 C602 1.371 . S
C604 C605 1.392 . S
C604 H620 0.931 . S
C605 C604 1.392 . S
C605 C606 1.331 . S
C605 H623 0.869 1_545 S
C606 C605 1.331 . S
C606 C607 1.336 . S
C607 C603 1.394 . S
C607 C606 1.336 . S
C607 H622 0.929 . S
C608 C598 1.386 1_565 S
C608 C601 1.357 . S
C608 H621 0.928 . S
H609 C585 0.931 . S
H610 C587 0.930 . S
H611 C589 0.929 . S
H612 C590 0.931 . S
H613 C592 0.930 . S
H614 C596 0.931 . S
H615 C594 0.931 . S
H616 C598 0.931 . S
H617 C599 0.948 . S
H618 C600 0.930 1_554 S
H619 C603 0.930 . S
H620 C604 0.931 . S
H621 C608 0.928 . S
H622 C607 0.929 . S
H623 C605 0.869 1_565 S
Li624 N641 1.990 . S
Li624 O684 1.956 . S
Li624 O685 1.970 1_556 S
Li624 O686 1.961 . S
Li625 N649 1.990 . S
Li625 O684 1.970 1_554 S
Li625 O685 1.956 . S
Li625 O687 1.961 . S
Li626 N671 1.990 . S
Li626 O684 1.961 . S
Li626 O686 1.956 . S
Li626 O687 1.970 1_556 S
Li627 N677 1.990 . S
Li627 O685 1.961 . S
Li627 O686 1.970 1_554 S
Li627 O687 1.956 . S
C628 C630 1.348 1_556 S
C628 C631 1.356 . S
C628 O684 1.325 . S
N629 C632 1.314 1_556 S
N629 C633 1.279 . S
C630 C628 1.348 1_554 S
C630 C632 1.353 . S
C630 H688 0.929 . S
C631 C628 1.356 . S
C631 C633 1.358 . S
C631 H689 0.930 . S
C632 N629 1.314 1_554 S
C632 C630 1.353 . S
C632 H690 0.930 . S
C633 N629 1.279 . S
C633 C631 1.358 . S
C633 H691 0.930 . S
C634 C637 1.348 . S
C634 C638 1.356 . S
C634 O685 1.325 . S
C635 N636 1.279 . S
C635 C638 1.358 . S
C635 H692 0.930 . S
N636 C635 1.279 . S
N636 C639 1.314 . S
C637 C634 1.348 . S
C637 C639 1.353 . S
C637 H693 0.929 . S
C638 C634 1.356 . S
C638 C635 1.358 . S
C638 H694 0.930 . S
C639 N636 1.314 . S
C639 C637 1.353 . S
C639 H695 0.930 . S
C640 N641 1.314 . S
C640 C645 1.353 . S
C640 H646 0.930 . S
N641 Li624 1.990 . S
N641 C640 1.314 . S
N641 C643 1.279 . S
C642 C643 1.358 . S
C642 C644 1.356 . S
C642 H696 0.930 . S
C643 N641 1.279 . S
C643 C642 1.358 . S
C643 H647 0.930 . S
C644 C642 1.356 . S
C644 C645 1.348 . S
C645 C640 1.353 . S
C645 C644 1.348 . S
C645 H697 0.929 . S
H646 C640 0.930 . S
H647 C643 0.930 . S
C648 N649 1.314 . S
C648 C650 1.353 . S
C648 H654 0.930 . S
N649 Li625 1.990 . S
N649 C648 1.314 . S
N649 C652 1.279 . S
C650 C648 1.353 . S
C650 C653 1.348 . S
C650 H698 0.929 . S
C651 C652 1.358 . S
C651 C653 1.356 . S
C651 H699 0.930 . S
C652 N649 1.279 . S
C652 C651 1.358 . S
C652 H655 0.930 . S
C653 C650 1.348 . S
C653 C651 1.356 . S
H654 C648 0.930 . S
H655 C652 0.930 . S
C656 C658 1.348 . S
C656 C659 1.356 . S
C656 O686 1.325 . S
N657 C660 1.314 . S
N657 C661 1.279 . S
C658 C656 1.348 . S
C658 C660 1.353 . S
C658 H700 0.929 . S
C659 C656 1.356 . S
C659 C661 1.358 . S
C659 H701 0.930 . S
C660 N657 1.314 . S
C660 C658 1.353 . S
C660 H702 0.930 . S
C661 N657 1.279 . S
C661 C659 1.358 . S
C661 H703 0.930 . S
C662 C663 1.348 1_554 S
C662 C664 1.356 . S
C662 O687 1.325 . S
C663 C662 1.348 1_556 S
C663 C665 1.353 . S
C663 H704 0.929 . S
C664 C662 1.356 . S
C664 C666 1.358 . S
C664 H705 0.930 . S
C665 C663 1.353 . S
C665 N667 1.314 1_556 S
C665 H706 0.930 . S
C666 C664 1.358 . S
C666 N667 1.279 . S
C666 H707 0.930 . S
N667 C665 1.314 1_554 S
N667 C666 1.279 . S
C668 C670 1.353 . S
C668 N671 1.314 . S
C668 H674 0.930 . S
C669 N671 1.279 . S
C669 C672 1.358 . S
C669 H675 0.930 . S
C670 C668 1.353 . S
C670 C673 1.348 . S
C670 H708 0.929 . S
N671 Li626 1.990 . S
N671 C668 1.314 . S
N671 C669 1.279 . S
C672 C669 1.358 . S
C672 C673 1.356 . S
C672 H709 0.930 . S
C673 C670 1.348 . S
C673 C672 1.356 . S
H674 C668 0.930 . S
H675 C669 0.930 . S
C676 N677 1.314 . S
C676 C678 1.353 . S
C676 H682 0.930 . S
N677 Li627 1.990 . S
N677 C676 1.314 . S
N677 C680 1.279 . S
C678 C676 1.353 . S
C678 C681 1.348 . S
C678 H710 0.929 . S
C679 C680 1.358 . S
C679 C681 1.356 . S
C679 H711 0.930 . S
C680 N677 1.279 . S
C680 C679 1.358 . S
C680 H683 0.930 . S
C681 C678 1.348 . S
C681 C679 1.356 . S
H682 C676 0.930 . S
H683 C680 0.930 . S
O684 Li624 1.956 . S
O684 Li625 1.970 1_556 S
O684 Li626 1.961 . S
O684 C628 1.325 . S
O685 Li624 1.970 1_554 S
O685 Li625 1.956 . S
O685 Li627 1.961 . S
O685 C634 1.325 . S
O686 Li624 1.961 . S
O686 Li626 1.956 . S
O686 Li627 1.970 1_556 S
O686 C656 1.325 . S
O687 Li625 1.961 . S
O687 Li626 1.970 1_554 S
O687 Li627 1.956 . S
O687 C662 1.325 . S
H688 C630 0.929 . S
H689 C631 0.930 . S
H690 C632 0.930 . S
H691 C633 0.930 . S
H692 C635 0.930 . S
H693 C637 0.929 . S
H694 C638 0.930 . S
H695 C639 0.930 . S
H696 C642 0.930 . S
H697 C645 0.929 . S
H698 C650 0.929 . S
H699 C651 0.930 . S
H700 C658 0.929 . S
H701 C659 0.930 . S
H702 C660 0.930 . S
H703 C661 0.930 . S
H704 C663 0.929 . S
H705 C664 0.930 . S
H706 C665 0.930 . S
H707 C666 0.930 . S
H708 C670 0.929 . S
H709 C672 0.930 . S
H710 C678 0.929 . S
H711 C679 0.930 . S
Li712 N729 1.990 . S
Li712 O772 1.956 . S
Li712 O773 1.970 . S
Li712 O774 1.961 . S
Li713 N737 1.990 . S
Li713 O772 1.970 . S
Li713 O773 1.956 . S
Li713 O775 1.961 . S
Li714 N759 1.990 . S
Li714 O772 1.961 . S
Li714 O774 1.956 . S
Li714 O775 1.970 . S
Li715 N765 1.990 . S
Li715 O773 1.961 . S
Li715 O774 1.970 . S
Li715 O775 1.956 . S
C716 C718 1.348 . S
C716 C719 1.356 . S
C716 O772 1.325 . S
N717 C720 1.314 . S
N717 C721 1.279 . S
C718 C716 1.348 . S
C718 C720 1.353 . S
C718 H776 0.929 . S
C719 C716 1.356 . S
C719 C721 1.358 . S
C719 H777 0.930 . S
C720 N717 1.314 . S
C720 C718 1.353 . S
C720 H778 0.930 . S
C721 N717 1.279 . S
C721 C719 1.358 . S
C721 H779 0.930 . S
C722 C725 1.348 . S
C722 C726 1.356 . S
C722 O773 1.325 . S
C723 N724 1.279 . S
C723 C726 1.358 . S
C723 H780 0.930 . S
N724 C723 1.279 . S
N724 C727 1.314 . S
C725 C722 1.348 . S
C725 C727 1.353 . S
C725 H781 0.929 . S
C726 C722 1.356 . S
C726 C723 1.358 . S
C726 H782 0.930 . S
C727 N724 1.314 . S
C727 C725 1.353 . S
C727 H783 0.930 . S
C728 N729 1.314 . S
C728 C733 1.353 . S
C728 H734 0.930 . S
N729 Li712 1.990 . S
N729 C728 1.314 . S
N729 C731 1.279 . S
C730 C731 1.358 . S
C730 C732 1.356 . S
C730 H784 0.930 . S
C731 N729 1.279 . S
C731 C730 1.358 . S
C731 H735 0.930 . S
C732 C730 1.356 . S
C732 C733 1.348 . S
C733 C728 1.353 . S
C733 C732 1.348 . S
C733 H785 0.929 . S
H734 C728 0.930 . S
H735 C731 0.930 . S
C736 N737 1.314 . S
C736 C738 1.353 . S
C736 H742 0.930 . S
N737 Li713 1.990 . S
N737 C736 1.314 . S
N737 C740 1.279 . S
C738 C736 1.353 . S
C738 C741 1.348 . S
C738 H786 0.929 . S
C739 C740 1.358 . S
C739 C741 1.356 . S
C739 H787 0.930 . S
C740 N737 1.279 . S
C740 C739 1.358 . S
C740 H743 0.930 . S
C741 C738 1.348 . S
C741 C739 1.356 . S
H742 C736 0.930 . S
H743 C740 0.930 . S
C744 C746 1.348 . S
C744 C747 1.356 . S
C744 O774 1.325 . S
N745 C748 1.314 . S
N745 C749 1.279 . S
C746 C744 1.348 . S
C746 C748 1.353 . S
C746 H788 0.929 . S
C747 C744 1.356 . S
C747 C749 1.358 . S
C747 H789 0.930 . S
C748 N745 1.314 . S
C748 C746 1.353 . S
C748 H790 0.930 . S
C749 N745 1.279 . S
C749 C747 1.358 . S
C749 H791 0.930 . S
C750 C751 1.348 . S
C750 C752 1.356 . S
C750 O775 1.325 . S
C751 C750 1.348 . S
C751 C753 1.353 . S
C751 H792 0.929 . S
C752 C750 1.356 . S
C752 C754 1.358 . S
C752 H793 0.930 . S
C753 C751 1.353 . S
C753 N755 1.314 . S
C753 H794 0.930 . S
C754 C752 1.358 . S
C754 N755 1.279 . S
C754 H795 0.930 . S
N755 C753 1.314 . S
N755 C754 1.279 . S
C756 C758 1.353 . S
C756 N759 1.314 . S
C756 H762 0.930 . S
C757 N759 1.279 . S
C757 C760 1.358 . S
C757 H763 0.930 . S
C758 C756 1.353 . S
C758 C761 1.348 . S
C758 H796 0.929 . S
N759 Li714 1.990 . S
N759 C756 1.314 . S
N759 C757 1.279 . S
C760 C757 1.358 . S
C760 C761 1.356 . S
C760 H797 0.930 . S
C761 C758 1.348 . S
C761 C760 1.356 . S
H762 C756 0.930 . S
H763 C757 0.930 . S
C764 N765 1.314 . S
C764 C766 1.353 . S
C764 H770 0.930 . S
N765 Li715 1.990 . S
N765 C764 1.314 . S
N765 C768 1.279 . S
C766 C764 1.353 . S
C766 C769 1.348 . S
C766 H798 0.929 . S
C767 C768 1.358 . S
C767 C769 1.356 . S
C767 H799 0.930 . S
C768 N765 1.279 . S
C768 C767 1.358 . S
C768 H771 0.930 . S
C769 C766 1.348 . S
C769 C767 1.356 . S
H770 C764 0.930 . S
H771 C768 0.930 . S
O772 Li712 1.956 . S
O772 Li713 1.970 . S
O772 Li714 1.961 . S
O772 C716 1.325 . S
O773 Li712 1.970 . S
O773 Li713 1.956 . S
O773 Li715 1.961 . S
O773 C722 1.325 . S
O774 Li712 1.961 . S
O774 Li714 1.956 . S
O774 Li715 1.970 . S
O774 C744 1.325 . S
O775 Li713 1.961 . S
O775 Li714 1.970 . S
O775 Li715 1.956 . S
O775 C750 1.325 . S
H776 C718 0.929 . S
H777 C719 0.930 . S
H778 C720 0.930 . S
H779 C721 0.930 . S
H780 C723 0.930 . S
H781 C725 0.929 . S
H782 C726 0.930 . S
H783 C727 0.930 . S
H784 C730 0.930 . S
H785 C733 0.929 . S
H786 C738 0.929 . S
H787 C739 0.930 . S
H788 C746 0.929 . S
H789 C747 0.930 . S
H790 C748 0.930 . S
H791 C749 0.930 . S
H792 C751 0.929 . S
H793 C752 0.930 . S
H794 C753 0.930 . S
H795 C754 0.930 . S
H796 C758 0.929 . S
H797 C760 0.930 . S
H798 C766 0.929 . S
H799 C767 0.930 . S
Li800 N817 1.990 . S
Li800 O860 1.956 . S
Li800 O861 1.970 1_556 S
Li800 O862 1.961 . S
Li801 N825 1.990 . S
Li801 O860 1.970 1_554 S
Li801 O861 1.956 . S
Li801 O863 1.961 . S
Li802 N847 1.990 . S
Li802 O860 1.961 . S
Li802 O862 1.956 . S
Li802 O863 1.970 1_556 S
Li803 N853 1.990 . S
Li803 O861 1.961 . S
Li803 O862 1.970 1_554 S
Li803 O863 1.956 . S
C804 C806 1.348 1_556 S
C804 C807 1.356 . S
C804 O860 1.325 . S
N805 C808 1.314 1_556 S
N805 C809 1.279 . S
C806 C804 1.348 1_554 S
C806 C808 1.353 . S
C806 H864 0.929 . S
C807 C804 1.356 . S
C807 C809 1.358 . S
C807 H865 0.930 . S
C808 N805 1.314 1_554 S
C808 C806 1.353 . S
C808 H866 0.930 . S
C809 N805 1.279 . S
C809 C807 1.358 . S
C809 H867 0.930 . S
C810 C813 1.348 . S
C810 C814 1.356 . S
C810 O861 1.325 . S
C811 N812 1.279 . S
C811 C814 1.358 . S
C811 H868 0.930 . S
N812 C811 1.279 . S
N812 C815 1.314 . S
C813 C810 1.348 . S
C813 C815 1.353 . S
C813 H869 0.929 . S
C814 C810 1.356 . S
C814 C811 1.358 . S
C814 H870 0.930 . S
C815 N812 1.314 . S
C815 C813 1.353 . S
C815 H871 0.930 . S
C816 N817 1.314 . S
C816 C821 1.353 . S
C816 H822 0.930 . S
N817 Li800 1.990 . S
N817 C816 1.314 . S
N817 C819 1.279 . S
C818 C819 1.358 . S
C818 C820 1.356 . S
C818 H872 0.930 . S
C819 N817 1.279 . S
C819 C818 1.358 . S
C819 H823 0.930 . S
C820 C818 1.356 . S
C820 C821 1.348 . S
C821 C816 1.353 . S
C821 C820 1.348 . S
C821 H873 0.929 . S
H822 C816 0.930 . S
H823 C819 0.930 . S
C824 N825 1.314 . S
C824 C826 1.353 . S
C824 H830 0.930 . S
N825 Li801 1.990 . S
N825 C824 1.314 . S
N825 C828 1.279 . S
C826 C824 1.353 . S
C826 C829 1.348 . S
C826 H874 0.929 . S
C827 C828 1.358 . S
C827 C829 1.356 . S
C827 H875 0.930 . S
C828 N825 1.279 . S
C828 C827 1.358 . S
C828 H831 0.930 . S
C829 C826 1.348 . S
C829 C827 1.356 . S
H830 C824 0.930 . S
H831 C828 0.930 . S
C832 C834 1.348 . S
C832 C835 1.356 . S
C832 O862 1.325 . S
N833 C836 1.314 . S
N833 C837 1.279 . S
C834 C832 1.348 . S
C834 C836 1.353 . S
C834 H876 0.929 . S
C835 C832 1.356 . S
C835 C837 1.358 . S
C835 H877 0.930 . S
C836 N833 1.314 . S
C836 C834 1.353 . S
C836 H878 0.930 . S
C837 N833 1.279 . S
C837 C835 1.358 . S
C837 H879 0.930 . S
C838 C839 1.348 1_554 S
C838 C840 1.356 . S
C838 O863 1.325 . S
C839 C838 1.348 1_556 S
C839 C841 1.353 . S
C839 H880 0.929 . S
C840 C838 1.356 . S
C840 C842 1.358 . S
C840 H881 0.930 . S
C841 C839 1.353 . S
C841 N843 1.314 1_556 S
C841 H882 0.930 . S
C842 C840 1.358 . S
C842 N843 1.279 . S
C842 H883 0.930 . S
N843 C841 1.314 1_554 S
N843 C842 1.279 . S
C844 C846 1.353 . S
C844 N847 1.314 . S
C844 H850 0.930 . S
C845 N847 1.279 . S
C845 C848 1.358 . S
C845 H851 0.930 . S
C846 C844 1.353 . S
C846 C849 1.348 . S
C846 H884 0.929 . S
N847 Li802 1.990 . S
N847 C844 1.314 . S
N847 C845 1.279 . S
C848 C845 1.358 . S
C848 C849 1.356 . S
C848 H885 0.930 . S
C849 C846 1.348 . S
C849 C848 1.356 . S
H850 C844 0.930 . S
H851 C845 0.930 . S
C852 N853 1.314 . S
C852 C854 1.353 . S
C852 H858 0.930 . S
N853 Li803 1.990 . S
N853 C852 1.314 . S
N853 C856 1.279 . S
C854 C852 1.353 . S
C854 C857 1.348 . S
C854 H886 0.929 . S
C855 C856 1.358 . S
C855 C857 1.356 . S
C855 H887 0.930 . S
C856 N853 1.279 . S
C856 C855 1.358 . S
C856 H859 0.930 . S
C857 C854 1.348 . S
C857 C855 1.356 . S
H858 C852 0.930 . S
H859 C856 0.930 . S
O860 Li800 1.956 . S
O860 Li801 1.970 1_556 S
O860 Li802 1.961 . S
O860 C804 1.325 . S
O861 Li800 1.970 1_554 S
O861 Li801 1.956 . S
O861 Li803 1.961 . S
O861 C810 1.325 . S
O862 Li800 1.961 . S
O862 Li802 1.956 . S
O862 Li803 1.970 1_556 S
O862 C832 1.325 . S
O863 Li801 1.961 . S
O863 Li802 1.970 1_554 S
O863 Li803 1.956 . S
O863 C838 1.325 . S
H864 C806 0.929 . S
H865 C807 0.930 . S
H866 C808 0.930 . S
H867 C809 0.930 . S
H868 C811 0.930 . S
H869 C813 0.929 . S
H870 C814 0.930 . S
H871 C815 0.930 . S
H872 C818 0.930 . S
H873 C821 0.929 . S
H874 C826 0.929 . S
H875 C827 0.930 . S
H876 C834 0.929 . S
H877 C835 0.930 . S
H878 C836 0.930 . S
H879 C837 0.930 . S
H880 C839 0.929 . S
H881 C840 0.930 . S
H882 C841 0.930 . S
H883 C842 0.930 . S
H884 C846 0.929 . S
H885 C848 0.930 . S
H886 C854 0.929 . S
H887 C855 0.930 . S
Li888 N905 1.990 . S
Li888 O948 1.956 . S
Li888 O949 1.923 1_545 S
Li888 O950 1.961 . S
Li889 N913 1.990 . S
Li889 O948 1.970 1_565 S
Li889 O949 1.958 . S
Li889 O951 1.961 . S
Li890 N935 1.990 . S
Li890 O948 1.961 . S
Li890 O950 1.956 . S
Li890 O951 1.970 1_545 S
Li891 N941 1.990 . S
Li891 O949 1.997 . S
Li891 O950 1.970 1_565 S
Li891 O951 1.956 . S
C892 C894 1.348 . S
C892 C895 1.356 . S
C892 O948 1.325 . S
N893 C896 1.314 . S
N893 C897 1.279 . S
C894 C892 1.348 . S
C894 C896 1.353 . S
C894 H952 0.929 . S
C895 C892 1.356 . S
C895 C897 1.358 . S
C895 H953 0.930 . S
C896 N893 1.314 . S
C896 C894 1.353 . S
C896 H954 0.930 . S
C897 N893 1.279 . S
C897 C895 1.358 . S
C897 H955 0.930 . S
C898 C901 1.348 1_565 S
C898 C902 1.356 . S
C898 O949 1.334 . S
C899 N900 1.279 . S
C899 C902 1.358 . S
C899 H956 0.930 . S
N900 C899 1.279 . S
N900 C903 1.314 1_565 S
C901 C898 1.348 1_545 S
C901 C903 1.353 . S
C901 H957 0.929 . S
C902 C898 1.356 . S
C902 C899 1.358 . S
C902 H958 0.930 . S
C903 N900 1.314 1_545 S
C903 C901 1.353 . S
C903 H959 0.930 . S
C904 N905 1.314 . S
C904 C909 1.353 . S
C904 H910 0.930 . S
N905 Li888 1.990 . S
N905 C904 1.314 . S
N905 C907 1.279 . S
C906 C907 1.358 . S
C906 C908 1.356 . S
C906 H960 0.930 . S
C907 N905 1.279 . S
C907 C906 1.358 . S
C907 H911 0.930 . S
C908 C906 1.356 . S
C908 C909 1.348 . S
C909 C904 1.353 . S
C909 C908 1.348 . S
C909 H961 0.929 . S
H910 C904 0.930 . S
H911 C907 0.930 . S
C912 N913 1.314 . S
C912 C914 1.353 . S
C912 H918 0.930 . S
N913 Li889 1.990 . S
N913 C912 1.314 . S
N913 C916 1.279 . S
C914 C912 1.353 . S
C914 C917 1.348 . S
C914 H962 0.929 . S
C915 C916 1.358 . S
C915 C917 1.356 . S
C915 H963 0.930 . S
C916 N913 1.279 . S
C916 C915 1.358 . S
C916 H919 0.930 . S
C917 C914 1.348 . S
C917 C915 1.356 . S
H918 C912 0.930 . S
H919 C916 0.930 . S
C920 C922 1.348 1_545 S
C920 C923 1.356 . S
C920 O950 1.325 . S
N921 C924 1.314 1_545 S
N921 C925 1.279 . S
C922 C920 1.348 1_565 S
C922 C924 1.353 . S
C922 H964 0.929 . S
C923 C920 1.356 . S
C923 C925 1.358 . S
C923 H965 0.930 . S
C924 N921 1.314 1_565 S
C924 C922 1.353 . S
C924 H966 0.930 . S
C925 N921 1.279 . S
C925 C923 1.358 . S
C925 H967 0.930 . S
C926 C927 1.348 . S
C926 C928 1.356 . S
C926 O951 1.325 . S
C927 C926 1.348 . S
C927 C929 1.353 . S
C927 H968 0.929 . S
C928 C926 1.356 . S
C928 C930 1.358 . S
C928 H969 0.930 . S
C929 C927 1.353 . S
C929 N931 1.314 . S
C929 H970 0.930 . S
C930 C928 1.358 . S
C930 N931 1.279 . S
C930 H971 0.930 . S
N931 C929 1.314 . S
N931 C930 1.279 . S
C932 C934 1.353 . S
C932 N935 1.314 . S
C932 H938 0.930 . S
C933 N935 1.279 . S
C933 C936 1.358 . S
C933 H939 0.930 . S
C934 C932 1.353 . S
C934 C937 1.348 . S
C934 H972 0.929 . S
N935 Li890 1.990 . S
N935 C932 1.314 . S
N935 C933 1.279 . S
C936 C933 1.358 . S
C936 C937 1.356 . S
C936 H973 0.930 . S
C937 C934 1.348 . S
C937 C936 1.356 . S
H938 C932 0.930 . S
H939 C933 0.930 . S
C940 N941 1.314 . S
C940 C942 1.353 . S
C940 H946 0.930 . S
N941 Li891 1.990 . S
N941 C940 1.314 . S
N941 C944 1.279 . S
C942 C940 1.353 . S
C942 C945 1.348 . S
C942 H974 0.929 . S
C943 C944 1.358 . S
C943 C945 1.356 . S
C943 H975 0.930 . S
C944 N941 1.279 . S
C944 C943 1.358 . S
C944 H947 0.930 . S
C945 C942 1.348 . S
C945 C943 1.356 . S
H946 C940 0.930 . S
H947 C944 0.930 . S
O948 Li888 1.956 . S
O948 Li889 1.970 1_545 S
O948 Li890 1.961 . S
O948 C892 1.325 . S
O949 Li888 1.923 1_565 S
O949 Li889 1.958 . S
O949 Li891 1.997 . S
O949 C898 1.334 . S
O950 Li888 1.961 . S
O950 Li890 1.956 . S
O950 Li891 1.970 1_545 S
O950 C920 1.325 . S
O951 Li889 1.961 . S
O951 Li890 1.970 1_565 S
O951 Li891 1.956 . S
O951 C926 1.325 . S
H952 C894 0.929 . S
H953 C895 0.930 . S
H954 C896 0.930 . S
H955 C897 0.930 . S
H956 C899 0.930 . S
H957 C901 0.929 . S
H958 C902 0.930 . S
H959 C903 0.930 . S
H960 C906 0.930 . S
H961 C909 0.929 . S
H962 C914 0.929 . S
H963 C915 0.930 . S
H964 C922 0.929 . S
H965 C923 0.930 . S
H966 C924 0.930 . S
H967 C925 0.930 . S
H968 C927 0.929 . S
H969 C928 0.930 . S
H970 C929 0.930 . S
H971 C930 0.930 . S
H972 C934 0.929 . S
H973 C936 0.930 . S
H974 C942 0.929 . S
H975 C943 0.930 . S
Li976 N993 1.990 . S
Li976 O1036 1.956 . S
Li976 O1037 1.970 . S
Li976 O1038 1.961 . S
Li977 N1001 1.990 . S
Li977 O1036 1.970 . S
Li977 O1037 1.956 . S
Li977 O1039 1.961 . S
Li978 N1023 1.990 . S
Li978 O1036 1.961 . S
Li978 O1038 1.956 . S
Li978 O1039 1.970 . S
Li979 N1029 1.990 . S
Li979 O1037 1.961 . S
Li979 O1038 1.970 . S
Li979 O1039 1.956 . S
C980 C982 1.348 . S
C980 C983 1.356 . S
C980 O1036 1.325 . S
N981 C984 1.314 . S
N981 C985 1.279 . S
C982 C980 1.348 . S
C982 C984 1.353 . S
C982 H1040 0.929 . S
C983 C980 1.356 . S
C983 C985 1.358 . S
C983 H1041 0.930 . S
C984 N981 1.314 . S
C984 C982 1.353 . S
C984 H1042 0.930 . S
C985 N981 1.279 . S
C985 C983 1.358 . S
C985 H1043 0.930 . S
C986 C989 1.348 . S
C986 C990 1.356 . S
C986 O1037 1.325 . S
C987 N988 1.279 . S
C987 C990 1.358 . S
C987 H1044 0.930 . S
N988 C987 1.279 . S
N988 C991 1.314 . S
C989 C986 1.348 . S
C989 C991 1.353 . S
C989 H1045 0.929 . S
C990 C986 1.356 . S
C990 C987 1.358 . S
C990 H1046 0.930 . S
C991 N988 1.314 . S
C991 C989 1.353 . S
C991 H1047 0.930 . S
C992 N993 1.314 . S
C992 C997 1.353 . S
C992 H998 0.930 . S
N993 Li976 1.990 . S
N993 C992 1.314 . S
N993 C995 1.279 . S
C994 C995 1.358 . S
C994 C996 1.356 . S
C994 H1048 0.930 . S
C995 N993 1.279 . S
C995 C994 1.358 . S
C995 H999 0.930 . S
C996 C994 1.356 . S
C996 C997 1.348 . S
C997 C992 1.353 . S
C997 C996 1.348 . S
C997 H1049 0.929 . S
H998 C992 0.930 . S
H999 C995 0.930 . S
C1000 N1001 1.314 . S
C1000 C1002 1.353 . S
C1000 H1006 0.930 . S
N1001 Li977 1.990 . S
N1001 C1000 1.314 . S
N1001 C1004 1.279 . S
C1002 C1000 1.353 . S
C1002 C1005 1.348 . S
C1002 H1050 0.929 . S
C1003 C1004 1.358 . S
C1003 C1005 1.356 . S
C1003 H1051 0.930 . S
C1004 N1001 1.279 . S
C1004 C1003 1.358 . S
C1004 H1007 0.930 . S
C1005 C1002 1.348 . S
C1005 C1003 1.356 . S
H1006 C1000 0.930 . S
H1007 C1004 0.930 . S
C1008 C1010 1.348 . S
C1008 C1011 1.356 . S
C1008 O1038 1.325 . S
N1009 C1012 1.314 . S
N1009 C1013 1.279 . S
C1010 C1008 1.348 . S
C1010 C1012 1.353 . S
C1010 H1052 0.929 . S
C1011 C1008 1.356 . S
C1011 C1013 1.358 . S
C1011 H1053 0.930 . S
C1012 N1009 1.314 . S
C1012 C1010 1.353 . S
C1012 H1054 0.930 . S
C1013 N1009 1.279 . S
C1013 C1011 1.358 . S
C1013 H1055 0.930 . S
C1014 C1015 1.348 . S
C1014 C1016 1.356 . S
C1014 O1039 1.325 . S
C1015 C1014 1.348 . S
C1015 C1017 1.353 . S
C1015 H1056 0.929 . S
C1016 C1014 1.356 . S
C1016 C1018 1.358 . S
C1016 H1057 0.930 . S
C1017 C1015 1.353 . S
C1017 N1019 1.314 . S
C1017 H1058 0.930 . S
C1018 C1016 1.358 . S
C1018 N1019 1.279 . S
C1018 H1059 0.930 . S
N1019 C1017 1.314 . S
N1019 C1018 1.279 . S
C1020 C1022 1.353 . S
C1020 N1023 1.314 . S
C1020 H1026 0.930 . S
C1021 N1023 1.279 . S
C1021 C1024 1.358 . S
C1021 H1027 0.930 . S
C1022 C1020 1.353 . S
C1022 C1025 1.348 . S
C1022 H1060 0.929 . S
N1023 Li978 1.990 . S
N1023 C1020 1.314 . S
N1023 C1021 1.279 . S
C1024 C1021 1.358 . S
C1024 C1025 1.356 . S
C1024 H1061 0.930 . S
C1025 C1022 1.348 . S
C1025 C1024 1.356 . S
H1026 C1020 0.930 . S
H1027 C1021 0.930 . S
C1028 N1029 1.314 . S
C1028 C1030 1.353 . S
C1028 H1034 0.930 . S
N1029 Li979 1.990 . S
N1029 C1028 1.314 . S
N1029 C1032 1.279 . S
C1030 C1028 1.353 . S
C1030 C1033 1.348 . S
C1030 H1062 0.929 . S
C1031 C1032 1.358 . S
C1031 C1033 1.356 . S
C1031 H1063 0.930 . S
C1032 N1029 1.279 . S
C1032 C1031 1.358 . S
C1032 H1035 0.930 . S
C1033 C1030 1.348 . S
C1033 C1031 1.356 . S
H1034 C1028 0.930 . S
H1035 C1032 0.930 . S
O1036 Li976 1.956 . S
O1036 Li977 1.970 . S
O1036 Li978 1.961 . S
O1036 C980 1.325 . S
O1037 Li976 1.970 . S
O1037 Li977 1.956 . S
O1037 Li979 1.961 . S
O1037 C986 1.325 . S
O1038 Li976 1.961 . S
O1038 Li978 1.956 . S
O1038 Li979 1.970 . S
O1038 C1008 1.325 . S
O1039 Li977 1.961 . S
O1039 Li978 1.970 . S
O1039 Li979 1.956 . S
O1039 C1014 1.325 . S
H1040 C982 0.929 . S
H1041 C983 0.930 . S
H1042 C984 0.930 . S
H1043 C985 0.930 . S
H1044 C987 0.930 . S
H1045 C989 0.929 . S
H1046 C990 0.930 . S
H1047 C991 0.930 . S
H1048 C994 0.930 . S
H1049 C997 0.929 . S
H1050 C1002 0.929 . S
H1051 C1003 0.930 . S
H1052 C1010 0.929 . S
H1053 C1011 0.930 . S
H1054 C1012 0.930 . S
H1055 C1013 0.930 . S
H1056 C1015 0.929 . S
H1057 C1016 0.930 . S
H1058 C1017 0.930 . S
H1059 C1018 0.930 . S
H1060 C1022 0.929 . S
H1061 C1024 0.930 . S
H1062 C1030 0.929 . S
H1063 C1031 0.930 . S
Li1064 N1081 1.990 . S
Li1064 O1124 1.956 . S
Li1064 O1125 1.970 . S
Li1064 O1126 1.961 . S
Li1065 N1089 1.990 . S
Li1065 O1124 1.970 . S
Li1065 O1125 1.956 . S
Li1065 O1127 1.961 . S
Li1066 N1111 1.990 . S
Li1066 O1124 1.961 . S
Li1066 O1126 1.956 . S
Li1066 O1127 1.970 . S
Li1067 N1117 1.990 . S
Li1067 O1125 1.961 . S
Li1067 O1126 1.970 . S
Li1067 O1127 1.956 . S
C1068 C1070 1.348 . S
C1068 C1071 1.356 . S
C1068 O1124 1.325 . S
N1069 C1072 1.314 . S
N1069 C1073 1.279 . S
C1070 C1068 1.348 . S
C1070 C1072 1.353 . S
C1070 H1128 0.929 . S
C1071 C1068 1.356 . S
C1071 C1073 1.358 . S
C1071 H1129 0.930 . S
C1072 N1069 1.314 . S
C1072 C1070 1.353 . S
C1072 H1130 0.930 . S
C1073 N1069 1.279 . S
C1073 C1071 1.358 . S
C1073 H1131 0.930 . S
C1074 C1077 1.348 . S
C1074 C1078 1.356 . S
C1074 O1125 1.325 . S
C1075 N1076 1.279 . S
C1075 C1078 1.358 . S
C1075 H1132 0.930 . S
N1076 C1075 1.279 . S
N1076 C1079 1.314 . S
C1077 C1074 1.348 . S
C1077 C1079 1.353 . S
C1077 H1133 0.929 . S
C1078 C1074 1.356 . S
C1078 C1075 1.358 . S
C1078 H1134 0.930 . S
C1079 N1076 1.314 . S
C1079 C1077 1.353 . S
C1079 H1135 0.930 . S
C1080 N1081 1.314 . S
C1080 C1085 1.353 . S
C1080 H1086 0.930 . S
N1081 Li1064 1.990 . S
N1081 C1080 1.314 . S
N1081 C1083 1.279 . S
C1082 C1083 1.358 . S
C1082 C1084 1.356 . S
C1082 H1136 0.930 . S
C1083 N1081 1.279 . S
C1083 C1082 1.358 . S
C1083 H1087 0.930 . S
C1084 C1082 1.356 . S
C1084 C1085 1.348 . S
C1085 C1080 1.353 . S
C1085 C1084 1.348 . S
C1085 H1137 0.929 . S
H1086 C1080 0.930 . S
H1087 C1083 0.930 . S
C1088 N1089 1.314 . S
C1088 C1090 1.353 . S
C1088 H1094 0.930 . S
N1089 Li1065 1.990 . S
N1089 C1088 1.314 . S
N1089 C1092 1.279 . S
C1090 C1088 1.353 . S
C1090 C1093 1.348 . S
C1090 H1138 0.929 . S
C1091 C1092 1.358 . S
C1091 C1093 1.356 . S
C1091 H1139 0.930 . S
C1092 N1089 1.279 . S
C1092 C1091 1.358 . S
C1092 H1095 0.930 . S
C1093 C1090 1.348 . S
C1093 C1091 1.356 . S
H1094 C1088 0.930 . S
H1095 C1092 0.930 . S
C1096 C1098 1.348 . S
C1096 C1099 1.356 . S
C1096 O1126 1.325 . S
N1097 C1100 1.314 . S
N1097 C1101 1.279 . S
C1098 C1096 1.348 . S
C1098 C1100 1.353 . S
C1098 H1140 0.929 . S
C1099 C1096 1.356 . S
C1099 C1101 1.358 . S
C1099 H1141 0.930 . S
C1100 N1097 1.314 . S
C1100 C1098 1.353 . S
C1100 H1142 0.930 . S
C1101 N1097 1.279 . S
C1101 C1099 1.358 . S
C1101 H1143 0.930 . S
C1102 C1103 1.348 . S
C1102 C1104 1.356 . S
C1102 O1127 1.325 . S
C1103 C1102 1.348 . S
C1103 C1105 1.353 . S
C1103 H1144 0.929 . S
C1104 C1102 1.356 . S
C1104 C1106 1.358 . S
C1104 H1145 0.930 . S
C1105 C1103 1.353 . S
C1105 N1107 1.314 . S
C1105 H1146 0.930 . S
C1106 C1104 1.358 . S
C1106 N1107 1.279 . S
C1106 H1147 0.930 . S
N1107 C1105 1.314 . S
N1107 C1106 1.279 . S
C1108 C1110 1.353 . S
C1108 N1111 1.314 . S
C1108 H1114 0.930 . S
C1109 N1111 1.279 . S
C1109 C1112 1.358 . S
C1109 H1115 0.930 . S
C1110 C1108 1.353 . S
C1110 C1113 1.348 . S
C1110 H1148 0.929 . S
N1111 Li1066 1.990 . S
N1111 C1108 1.314 . S
N1111 C1109 1.279 . S
C1112 C1109 1.358 . S
C1112 C1113 1.356 . S
C1112 H1149 0.930 . S
C1113 C1110 1.348 . S
C1113 C1112 1.356 . S
H1114 C1108 0.930 . S
H1115 C1109 0.930 . S
C1116 N1117 1.314 . S
C1116 C1118 1.353 . S
C1116 H1122 0.930 . S
N1117 Li1067 1.990 . S
N1117 C1116 1.314 . S
N1117 C1120 1.279 . S
C1118 C1116 1.353 . S
C1118 C1121 1.348 . S
C1118 H1150 0.929 . S
C1119 C1120 1.358 . S
C1119 C1121 1.356 . S
C1119 H1151 0.930 . S
C1120 N1117 1.279 . S
C1120 C1119 1.358 . S
C1120 H1123 0.930 . S
C1121 C1118 1.348 . S
C1121 C1119 1.356 . S
H1122 C1116 0.930 . S
H1123 C1120 0.930 . S
O1124 Li1064 1.956 . S
O1124 Li1065 1.970 . S
O1124 Li1066 1.961 . S
O1124 C1068 1.325 . S
O1125 Li1064 1.970 . S
O1125 Li1065 1.956 . S
O1125 Li1067 1.961 . S
O1125 C1074 1.325 . S
O1126 Li1064 1.961 . S
O1126 Li1066 1.956 . S
O1126 Li1067 1.970 . S
O1126 C1096 1.325 . S
O1127 Li1065 1.961 . S
O1127 Li1066 1.970 . S
O1127 Li1067 1.956 . S
O1127 C1102 1.325 . S
H1128 C1070 0.929 . S
H1129 C1071 0.930 . S
H1130 C1072 0.930 . S
H1131 C1073 0.930 . S
H1132 C1075 0.930 . S
H1133 C1077 0.929 . S
H1134 C1078 0.930 . S
H1135 C1079 0.930 . S
H1136 C1082 0.930 . S
H1137 C1085 0.929 . S
H1138 C1090 0.929 . S
H1139 C1091 0.930 . S
H1140 C1098 0.929 . S
H1141 C1099 0.930 . S
H1142 C1100 0.930 . S
H1143 C1101 0.930 . S
H1144 C1103 0.929 . S
H1145 C1104 0.930 . S
H1146 C1105 0.930 . S
H1147 C1106 0.930 . S
H1148 C1110 0.929 . S
H1149 C1112 0.930 . S
H1150 C1118 0.929 . S
H1151 C1119 0.930 . S
Li1152 N1169 1.990 . S
Li1152 O1212 1.956 . S
Li1152 O1213 1.970 . S
Li1152 O1214 1.961 . S
Li1153 N1177 1.990 . S
Li1153 O1212 1.970 . S
Li1153 O1213 1.956 . S
Li1153 O1215 1.961 . S
Li1154 N1199 1.990 . S
Li1154 O1212 1.961 . S
Li1154 O1214 1.956 . S
Li1154 O1215 1.970 . S
Li1155 N1205 1.990 . S
Li1155 O1213 1.961 . S
Li1155 O1214 1.970 . S
Li1155 O1215 1.956 . S
C1156 C1158 1.348 . S
C1156 C1159 1.356 . S
C1156 O1212 1.325 . S
N1157 C1160 1.314 . S
N1157 C1161 1.279 . S
C1158 C1156 1.348 . S
C1158 C1160 1.353 . S
C1158 H1216 0.929 . S
C1159 C1156 1.356 . S
C1159 C1161 1.358 . S
C1159 H1217 0.930 . S
C1160 N1157 1.314 . S
C1160 C1158 1.353 . S
C1160 H1218 0.930 . S
C1161 N1157 1.279 . S
C1161 C1159 1.358 . S
C1161 H1219 0.930 . S
C1162 C1165 1.348 . S
C1162 C1166 1.356 . S
C1162 O1213 1.325 . S
C1163 N1164 1.279 . S
C1163 C1166 1.358 . S
C1163 H1220 0.930 . S
N1164 C1163 1.279 . S
N1164 C1167 1.314 . S
C1165 C1162 1.348 . S
C1165 C1167 1.353 . S
C1165 H1221 0.929 . S
C1166 C1162 1.356 . S
C1166 C1163 1.358 . S
C1166 H1222 0.930 . S
C1167 N1164 1.314 . S
C1167 C1165 1.353 . S
C1167 H1223 0.930 . S
C1168 N1169 1.314 . S
C1168 C1173 1.353 . S
C1168 H1174 0.930 . S
N1169 Li1152 1.990 . S
N1169 C1168 1.314 . S
N1169 C1171 1.279 . S
C1170 C1171 1.358 . S
C1170 C1172 1.356 . S
C1170 H1224 0.930 . S
C1171 N1169 1.279 . S
C1171 C1170 1.358 . S
C1171 H1175 0.930 . S
C1172 C1170 1.356 . S
C1172 C1173 1.348 . S
C1173 C1168 1.353 . S
C1173 C1172 1.348 . S
C1173 H1225 0.929 . S
H1174 C1168 0.930 . S
H1175 C1171 0.930 . S
C1176 N1177 1.314 . S
C1176 C1178 1.353 . S
C1176 H1182 0.930 . S
N1177 Li1153 1.990 . S
N1177 C1176 1.314 . S
N1177 C1180 1.279 . S
C1178 C1176 1.353 . S
C1178 C1181 1.348 . S
C1178 H1226 0.929 . S
C1179 C1180 1.358 . S
C1179 C1181 1.356 . S
C1179 H1227 0.930 . S
C1180 N1177 1.279 . S
C1180 C1179 1.358 . S
C1180 H1183 0.930 . S
C1181 C1178 1.348 . S
C1181 C1179 1.356 . S
H1182 C1176 0.930 . S
H1183 C1180 0.930 . S
C1184 C1186 1.348 . S
C1184 C1187 1.356 . S
C1184 O1214 1.325 . S
N1185 C1188 1.314 . S
N1185 C1189 1.279 . S
C1186 C1184 1.348 . S
C1186 C1188 1.353 . S
C1186 H1228 0.929 . S
C1187 C1184 1.356 . S
C1187 C1189 1.358 . S
C1187 H1229 0.930 . S
C1188 N1185 1.314 . S
C1188 C1186 1.353 . S
C1188 H1230 0.930 . S
C1189 N1185 1.279 . S
C1189 C1187 1.358 . S
C1189 H1231 0.930 . S
C1190 C1191 1.348 . S
C1190 C1192 1.356 . S
C1190 O1215 1.325 . S
C1191 C1190 1.348 . S
C1191 C1193 1.353 . S
C1191 H1232 0.929 . S
C1192 C1190 1.356 . S
C1192 C1194 1.358 . S
C1192 H1233 0.930 . S
C1193 C1191 1.353 . S
C1193 N1195 1.314 . S
C1193 H1234 0.930 . S
C1194 C1192 1.358 . S
C1194 N1195 1.279 . S
C1194 H1235 0.930 . S
N1195 C1193 1.314 . S
N1195 C1194 1.279 . S
C1196 C1198 1.353 . S
C1196 N1199 1.314 . S
C1196 H1202 0.930 . S
C1197 N1199 1.279 . S
C1197 C1200 1.358 . S
C1197 H1203 0.930 . S
C1198 C1196 1.353 . S
C1198 C1201 1.348 . S
C1198 H1236 0.929 . S
N1199 Li1154 1.990 . S
N1199 C1196 1.314 . S
N1199 C1197 1.279 . S
C1200 C1197 1.358 . S
C1200 C1201 1.356 . S
C1200 H1237 0.930 . S
C1201 C1198 1.348 . S
C1201 C1200 1.356 . S
H1202 C1196 0.930 . S
H1203 C1197 0.930 . S
C1204 N1205 1.314 . S
C1204 C1206 1.353 . S
C1204 H1210 0.930 . S
N1205 Li1155 1.990 . S
N1205 C1204 1.314 . S
N1205 C1208 1.279 . S
C1206 C1204 1.353 . S
C1206 C1209 1.348 . S
C1206 H1238 0.929 . S
C1207 C1208 1.358 . S
C1207 C1209 1.356 . S
C1207 H1239 0.930 . S
C1208 N1205 1.279 . S
C1208 C1207 1.358 . S
C1208 H1211 0.930 . S
C1209 C1206 1.348 . S
C1209 C1207 1.356 . S
H1210 C1204 0.930 . S
H1211 C1208 0.930 . S
O1212 Li1152 1.956 . S
O1212 Li1153 1.970 . S
O1212 Li1154 1.961 . S
O1212 C1156 1.325 . S
O1213 Li1152 1.970 . S
O1213 Li1153 1.956 . S
O1213 Li1155 1.961 . S
O1213 C1162 1.325 . S
O1214 Li1152 1.961 . S
O1214 Li1154 1.956 . S
O1214 Li1155 1.970 . S
O1214 C1184 1.325 . S
O1215 Li1153 1.961 . S
O1215 Li1154 1.970 . S
O1215 Li1155 1.956 . S
O1215 C1190 1.325 . S
H1216 C1158 0.929 . S
H1217 C1159 0.930 . S
H1218 C1160 0.930 . S
H1219 C1161 0.930 . S
H1220 C1163 0.930 . S
H1221 C1165 0.929 . S
H1222 C1166 0.930 . S
H1223 C1167 0.930 . S
H1224 C1170 0.930 . S
H1225 C1173 0.929 . S
H1226 C1178 0.929 . S
H1227 C1179 0.930 . S
H1228 C1186 0.929 . S
H1229 C1187 0.930 . S
H1230 C1188 0.930 . S
H1231 C1189 0.930 . S
H1232 C1191 0.929 . S
H1233 C1192 0.930 . S
H1234 C1193 0.930 . S
H1235 C1194 0.930 . S
H1236 C1198 0.929 . S
H1237 C1200 0.930 . S
H1238 C1206 0.929 . S
H1239 C1207 0.930 . S
Li1240 N1257 1.990 . S
Li1240 O1300 1.956 . S
Li1240 O1301 1.970 1_565 S
Li1240 O1302 1.961 . S
Li1241 N1265 1.990 . S
Li1241 O1300 1.970 1_545 S
Li1241 O1301 1.956 . S
Li1241 O1303 1.961 . S
Li1242 N1287 1.990 . S
Li1242 O1300 1.961 . S
Li1242 O1302 1.956 . S
Li1242 O1303 1.970 1_565 S
Li1243 N1293 1.990 . S
Li1243 O1301 1.961 . S
Li1243 O1302 1.970 1_545 S
Li1243 O1303 1.956 . S
C1244 C1246 1.348 . S
C1244 C1247 1.356 . S
C1244 O1300 1.325 . S
N1245 C1248 1.314 . S
N1245 C1249 1.279 . S
C1246 C1244 1.348 . S
C1246 C1248 1.353 . S
C1246 H1304 0.929 . S
C1247 C1244 1.356 . S
C1247 C1249 1.358 . S
C1247 H1305 0.930 . S
C1248 N1245 1.314 . S
C1248 C1246 1.353 . S
C1248 H1306 0.930 . S
C1249 N1245 1.279 . S
C1249 C1247 1.358 . S
C1249 H1307 0.930 . S
C1250 C1253 1.348 1_545 S
C1250 C1254 1.356 . S
C1250 O1301 1.325 . S
C1251 N1252 1.279 . S
C1251 C1254 1.358 . S
C1251 H1308 0.930 . S
N1252 C1251 1.279 . S
N1252 C1255 1.314 1_545 S
C1253 C1250 1.348 1_565 S
C1253 C1255 1.353 . S
C1253 H1309 0.929 . S
C1254 C1250 1.356 . S
C1254 C1251 1.358 . S
C1254 H1310 0.930 . S
C1255 N1252 1.314 1_565 S
C1255 C1253 1.353 . S
C1255 H1311 0.930 . S
C1256 N1257 1.314 . S
C1256 C1261 1.353 . S
C1256 H1262 0.930 . S
N1257 Li1240 1.990 . S
N1257 C1256 1.314 . S
N1257 C1259 1.279 . S
C1258 C1259 1.358 . S
C1258 C1260 1.356 . S
C1258 H1312 0.930 . S
C1259 N1257 1.279 . S
C1259 C1258 1.358 . S
C1259 H1263 0.930 . S
C1260 C1258 1.356 . S
C1260 C1261 1.348 . S
C1261 C1256 1.353 . S
C1261 C1260 1.348 . S
C1261 H1313 0.929 . S
H1262 C1256 0.930 . S
H1263 C1259 0.930 . S
C1264 N1265 1.314 . S
C1264 C1266 1.353 . S
C1264 H1270 0.930 . S
N1265 Li1241 1.990 . S
N1265 C1264 1.314 . S
N1265 C1268 1.279 . S
C1266 C1264 1.353 . S
C1266 C1269 1.348 . S
C1266 H1314 0.929 . S
C1267 C1268 1.358 . S
C1267 C1269 1.356 . S
C1267 H1315 0.930 . S
C1268 N1265 1.279 . S
C1268 C1267 1.358 . S
C1268 H1271 0.930 . S
C1269 C1266 1.348 . S
C1269 C1267 1.356 . S
H1270 C1264 0.930 . S
H1271 C1268 0.930 . S
C1272 C1274 1.348 1_565 S
C1272 C1275 1.356 . S
C1272 O1302 1.325 . S
N1273 C1276 1.314 1_565 S
N1273 C1277 1.279 . S
C1274 C1272 1.348 1_545 S
C1274 C1276 1.353 . S
C1274 H1316 0.929 . S
C1275 C1272 1.356 . S
C1275 C1277 1.358 . S
C1275 H1317 0.930 . S
C1276 N1273 1.314 1_545 S
C1276 C1274 1.353 . S
C1276 H1318 0.930 . S
C1277 N1273 1.279 . S
C1277 C1275 1.358 . S
C1277 H1319 0.930 . S
C1278 C1279 1.348 . S
C1278 C1280 1.356 . S
C1278 O1303 1.325 . S
C1279 C1278 1.348 . S
C1279 C1281 1.353 . S
C1279 H1320 0.929 . S
C1280 C1278 1.356 . S
C1280 C1282 1.358 . S
C1280 H1321 0.930 . S
C1281 C1279 1.353 . S
C1281 N1283 1.314 . S
C1281 H1322 0.930 . S
C1282 C1280 1.358 . S
C1282 N1283 1.279 . S
C1282 H1323 0.930 . S
N1283 C1281 1.314 . S
N1283 C1282 1.279 . S
C1284 C1286 1.353 . S
C1284 N1287 1.314 . S
C1284 H1290 0.930 . S
C1285 N1287 1.279 . S
C1285 C1288 1.358 . S
C1285 H1291 0.930 . S
C1286 C1284 1.353 . S
C1286 C1289 1.348 . S
C1286 H1324 0.929 . S
N1287 Li1242 1.990 . S
N1287 C1284 1.314 . S
N1287 C1285 1.279 . S
C1288 C1285 1.358 . S
C1288 C1289 1.356 . S
C1288 H1325 0.930 . S
C1289 C1286 1.348 . S
C1289 C1288 1.356 . S
H1290 C1284 0.930 . S
H1291 C1285 0.930 . S
C1292 N1293 1.314 . S
C1292 C1294 1.353 . S
C1292 H1298 0.930 . S
N1293 Li1243 1.990 . S
N1293 C1292 1.314 . S
N1293 C1296 1.279 . S
C1294 C1292 1.353 . S
C1294 C1297 1.348 . S
C1294 H1326 0.929 . S
C1295 C1296 1.358 . S
C1295 C1297 1.356 . S
C1295 H1327 0.930 . S
C1296 N1293 1.279 . S
C1296 C1295 1.358 . S
C1296 H1299 0.930 . S
C1297 C1294 1.348 . S
C1297 C1295 1.356 . S
H1298 C1292 0.930 . S
H1299 C1296 0.930 . S
O1300 Li1240 1.956 . S
O1300 Li1241 1.970 1_565 S
O1300 Li1242 1.961 . S
O1300 C1244 1.325 . S
O1301 Li1240 1.970 1_545 S
O1301 Li1241 1.956 . S
O1301 Li1243 1.961 . S
O1301 C1250 1.325 . S
O1302 Li1240 1.961 . S
O1302 Li1242 1.956 . S
O1302 Li1243 1.970 1_565 S
O1302 C1272 1.325 . S
O1303 Li1241 1.961 . S
O1303 Li1242 1.970 1_545 S
O1303 Li1243 1.956 . S
O1303 C1278 1.325 . S
H1304 C1246 0.929 . S
H1305 C1247 0.930 . S
H1306 C1248 0.930 . S
H1307 C1249 0.930 . S
H1308 C1251 0.930 . S
H1309 C1253 0.929 . S
H1310 C1254 0.930 . S
H1311 C1255 0.930 . S
H1312 C1258 0.930 . S
H1313 C1261 0.929 . S
H1314 C1266 0.929 . S
H1315 C1267 0.930 . S
H1316 C1274 0.929 . S
H1317 C1275 0.930 . S
H1318 C1276 0.930 . S
H1319 C1277 0.930 . S
H1320 C1279 0.929 . S
H1321 C1280 0.930 . S
H1322 C1281 0.930 . S
H1323 C1282 0.930 . S
H1324 C1286 0.929 . S
H1325 C1288 0.930 . S
H1326 C1294 0.929 . S
H1327 C1295 0.930 . S
Li1328 N1345 1.990 . S
Li1328 O1388 1.956 . S
Li1328 O1389 1.970 1_455 S
Li1328 O1390 1.961 . S
Li1329 N1353 1.990 . S
Li1329 O1388 1.970 1_655 S
Li1329 O1389 1.956 . S
Li1329 O1391 1.961 . S
Li1330 N1375 1.990 . S
Li1330 O1388 1.961 . S
Li1330 O1390 1.956 . S
Li1330 O1391 1.970 1_455 S
Li1331 N1381 1.990 . S
Li1331 O1389 1.961 . S
Li1331 O1390 1.970 1_655 S
Li1331 O1391 1.956 . S
C1332 C1334 1.348 . S
C1332 C1335 1.356 . S
C1332 O1388 1.325 . S
N1333 C1336 1.314 . S
N1333 C1337 1.279 . S
C1334 C1332 1.348 . S
C1334 C1336 1.353 . S
C1334 H1392 0.929 . S
C1335 C1332 1.356 . S
C1335 C1337 1.358 . S
C1335 H1393 0.930 . S
C1336 N1333 1.314 . S
C1336 C1334 1.353 . S
C1336 H1394 0.930 . S
C1337 N1333 1.279 . S
C1337 C1335 1.358 . S
C1337 H1395 0.930 . S
C1338 C1341 1.348 1_655 S
C1338 C1342 1.356 . S
C1338 O1389 1.325 . S
C1339 N1340 1.279 . S
C1339 C1342 1.358 . S
C1339 H1396 0.930 . S
N1340 C1339 1.279 . S
N1340 C1343 1.314 1_655 S
C1341 C1338 1.348 1_455 S
C1341 C1343 1.353 . S
C1341 H1397 0.929 . S
C1342 C1338 1.356 . S
C1342 C1339 1.358 . S
C1342 H1398 0.930 . S
C1343 N1340 1.314 1_455 S
C1343 C1341 1.353 . S
C1343 H1399 0.930 . S
C1344 N1345 1.314 . S
C1344 C1349 1.353 . S
C1344 H1350 0.930 . S
N1345 Li1328 1.990 . S
N1345 C1344 1.314 . S
N1345 C1347 1.279 . S
C1346 C1347 1.358 . S
C1346 C1348 1.356 . S
C1346 H1400 0.930 . S
C1347 N1345 1.279 . S
C1347 C1346 1.358 . S
C1347 H1351 0.930 . S
C1348 C1346 1.356 . S
C1348 C1349 1.348 . S
C1349 C1344 1.353 . S
C1349 C1348 1.348 . S
C1349 H1401 0.929 . S
H1350 C1344 0.930 . S
H1351 C1347 0.930 . S
C1352 N1353 1.314 . S
C1352 C1354 1.353 . S
C1352 H1358 0.930 . S
N1353 Li1329 1.990 . S
N1353 C1352 1.314 . S
N1353 C1356 1.279 . S
C1354 C1352 1.353 . S
C1354 C1357 1.348 . S
C1354 H1402 0.929 . S
C1355 C1356 1.358 . S
C1355 C1357 1.356 . S
C1355 H1403 0.930 . S
C1356 N1353 1.279 . S
C1356 C1355 1.358 . S
C1356 H1359 0.930 . S
C1357 C1354 1.348 . S
C1357 C1355 1.356 . S
H1358 C1352 0.930 . S
H1359 C1356 0.930 . S
C1360 C1362 1.348 1_455 S
C1360 C1363 1.356 . S
C1360 O1390 1.325 . S
N1361 C1364 1.314 1_455 S
N1361 C1365 1.279 . S
C1362 C1360 1.348 1_655 S
C1362 C1364 1.353 . S
C1362 H1404 0.929 . S
C1363 C1360 1.356 . S
C1363 C1365 1.358 . S
C1363 H1405 0.930 . S
C1364 N1361 1.314 1_655 S
C1364 C1362 1.353 . S
C1364 H1406 0.930 . S
C1365 N1361 1.279 . S
C1365 C1363 1.358 . S
C1365 H1407 0.930 . S
C1366 C1367 1.348 . S
C1366 C1368 1.356 . S
C1366 O1391 1.325 . S
C1367 C1366 1.348 . S
C1367 C1369 1.353 . S
C1367 H1408 0.929 . S
C1368 C1366 1.356 . S
C1368 C1370 1.358 . S
C1368 H1409 0.930 . S
C1369 C1367 1.353 . S
C1369 N1371 1.314 . S
C1369 H1410 0.930 . S
C1370 C1368 1.358 . S
C1370 N1371 1.279 . S
C1370 H1411 0.930 . S
N1371 C1369 1.314 . S
N1371 C1370 1.279 . S
C1372 C1374 1.353 . S
C1372 N1375 1.314 . S
C1372 H1378 0.930 . S
C1373 N1375 1.279 . S
C1373 C1376 1.358 . S
C1373 H1379 0.930 . S
C1374 C1372 1.353 . S
C1374 C1377 1.348 . S
C1374 H1412 0.929 . S
N1375 Li1330 1.990 . S
N1375 C1372 1.314 . S
N1375 C1373 1.279 . S
C1376 C1373 1.358 . S
C1376 C1377 1.356 . S
C1376 H1413 0.930 . S
C1377 C1374 1.348 . S
C1377 C1376 1.356 . S
H1378 C1372 0.930 . S
H1379 C1373 0.930 . S
C1380 N1381 1.314 . S
C1380 C1382 1.353 . S
C1380 H1386 0.930 . S
N1381 Li1331 1.990 . S
N1381 C1380 1.314 . S
N1381 C1384 1.279 . S
C1382 C1380 1.353 . S
C1382 C1385 1.348 . S
C1382 H1414 0.929 . S
C1383 C1384 1.358 . S
C1383 C1385 1.356 . S
C1383 H1415 0.930 . S
C1384 N1381 1.279 . S
C1384 C1383 1.358 . S
C1384 H1387 0.930 . S
C1385 C1382 1.348 . S
C1385 C1383 1.356 . S
H1386 C1380 0.930 . S
H1387 C1384 0.930 . S
O1388 Li1328 1.956 . S
O1388 Li1329 1.970 1_455 S
O1388 Li1330 1.961 . S
O1388 C1332 1.325 . S
O1389 Li1328 1.970 1_655 S
O1389 Li1329 1.956 . S
O1389 Li1331 1.961 . S
O1389 C1338 1.325 . S
O1390 Li1328 1.961 . S
O1390 Li1330 1.956 . S
O1390 Li1331 1.970 1_455 S
O1390 C1360 1.325 . S
O1391 Li1329 1.961 . S
O1391 Li1330 1.970 1_655 S
O1391 Li1331 1.956 . S
O1391 C1366 1.325 . S
H1392 C1334 0.929 . S
H1393 C1335 0.930 . S
H1394 C1336 0.930 . S
H1395 C1337 0.930 . S
H1396 C1339 0.930 . S
H1397 C1341 0.929 . S
H1398 C1342 0.930 . S
H1399 C1343 0.930 . S
H1400 C1346 0.930 . S
H1401 C1349 0.929 . S
H1402 C1354 0.929 . S
H1403 C1355 0.930 . S
H1404 C1362 0.929 . S
H1405 C1363 0.930 . S
H1406 C1364 0.930 . S
H1407 C1365 0.930 . S
H1408 C1367 0.929 . S
H1409 C1368 0.930 . S
H1410 C1369 0.930 . S
H1411 C1370 0.930 . S
H1412 C1374 0.929 . S
H1413 C1376 0.930 . S
H1414 C1382 0.929 . S
H1415 C1383 0.930 . S
Li1416 N1433 1.990 . S
Li1416 O1476 1.956 . S
Li1416 O1477 1.970 . S
Li1416 O1478 1.961 . S
Li1417 N1441 1.990 . S
Li1417 O1476 1.970 . S
Li1417 O1477 1.956 . S
Li1417 O1479 1.961 . S
Li1418 N1463 1.990 . S
Li1418 O1476 1.961 . S
Li1418 O1478 1.956 . S
Li1418 O1479 1.970 . S
Li1419 N1469 1.990 . S
Li1419 O1477 1.961 . S
Li1419 O1478 1.970 . S
Li1419 O1479 1.956 . S
C1420 C1422 1.348 . S
C1420 C1423 1.356 . S
C1420 O1476 1.325 . S
N1421 C1424 1.314 . S
N1421 C1425 1.279 . S
C1422 C1420 1.348 . S
C1422 C1424 1.353 . S
C1422 H1480 0.929 . S
C1423 C1420 1.356 . S
C1423 C1425 1.358 . S
C1423 H1481 0.930 . S
C1424 N1421 1.314 . S
C1424 C1422 1.353 . S
C1424 H1482 0.930 . S
C1425 N1421 1.279 . S
C1425 C1423 1.358 . S
C1425 H1483 0.930 . S
C1426 C1429 1.348 . S
C1426 C1430 1.356 . S
C1426 O1477 1.325 . S
C1427 N1428 1.279 . S
C1427 C1430 1.358 . S
C1427 H1484 0.930 . S
N1428 C1427 1.279 . S
N1428 C1431 1.314 . S
C1429 C1426 1.348 . S
C1429 C1431 1.353 . S
C1429 H1485 0.929 . S
C1430 C1426 1.356 . S
C1430 C1427 1.358 . S
C1430 H1486 0.930 . S
C1431 N1428 1.314 . S
C1431 C1429 1.353 . S
C1431 H1487 0.930 . S
C1432 N1433 1.314 . S
C1432 C1437 1.353 . S
C1432 H1438 0.930 . S
N1433 Li1416 1.990 . S
N1433 C1432 1.314 . S
N1433 C1435 1.279 . S
C1434 C1435 1.358 . S
C1434 C1436 1.356 . S
C1434 H1488 0.930 . S
C1435 N1433 1.279 . S
C1435 C1434 1.358 . S
C1435 H1439 0.930 . S
C1436 C1434 1.356 . S
C1436 C1437 1.348 . S
C1437 C1432 1.353 . S
C1437 C1436 1.348 . S
C1437 H1489 0.929 . S
H1438 C1432 0.930 . S
H1439 C1435 0.930 . S
C1440 N1441 1.314 . S
C1440 C1442 1.353 . S
C1440 H1446 0.930 . S
N1441 Li1417 1.990 . S
N1441 C1440 1.314 . S
N1441 C1444 1.279 . S
C1442 C1440 1.353 . S
C1442 C1445 1.348 . S
C1442 H1490 0.929 . S
C1443 C1444 1.358 . S
C1443 C1445 1.356 . S
C1443 H1491 0.930 . S
C1444 N1441 1.279 . S
C1444 C1443 1.358 . S
C1444 H1447 0.930 . S
C1445 C1442 1.348 . S
C1445 C1443 1.356 . S
H1446 C1440 0.930 . S
H1447 C1444 0.930 . S
C1448 C1450 1.348 . S
C1448 C1451 1.356 . S
C1448 O1478 1.325 . S
N1449 C1452 1.314 . S
N1449 C1453 1.279 . S
C1450 C1448 1.348 . S
C1450 C1452 1.353 . S
C1450 H1492 0.929 . S
C1451 C1448 1.356 . S
C1451 C1453 1.358 . S
C1451 H1493 0.930 . S
C1452 N1449 1.314 . S
C1452 C1450 1.353 . S
C1452 H1494 0.930 . S
C1453 N1449 1.279 . S
C1453 C1451 1.358 . S
C1453 H1495 0.930 . S
C1454 C1455 1.348 . S
C1454 C1456 1.356 . S
C1454 O1479 1.325 . S
C1455 C1454 1.348 . S
C1455 C1457 1.353 . S
C1455 H1496 0.929 . S
C1456 C1454 1.356 . S
C1456 C1458 1.358 . S
C1456 H1497 0.930 . S
C1457 C1455 1.353 . S
C1457 N1459 1.314 . S
C1457 H1498 0.930 . S
C1458 C1456 1.358 . S
C1458 N1459 1.279 . S
C1458 H1499 0.930 . S
N1459 C1457 1.314 . S
N1459 C1458 1.279 . S
C1460 C1462 1.353 . S
C1460 N1463 1.314 . S
C1460 H1466 0.930 . S
C1461 N1463 1.279 . S
C1461 C1464 1.358 . S
C1461 H1467 0.930 . S
C1462 C1460 1.353 . S
C1462 C1465 1.348 . S
C1462 H1500 0.929 . S
N1463 Li1418 1.990 . S
N1463 C1460 1.314 . S
N1463 C1461 1.279 . S
C1464 C1461 1.358 . S
C1464 C1465 1.356 . S
C1464 H1501 0.930 . S
C1465 C1462 1.348 . S
C1465 C1464 1.356 . S
H1466 C1460 0.930 . S
H1467 C1461 0.930 . S
C1468 N1469 1.314 . S
C1468 C1470 1.353 . S
C1468 H1474 0.930 . S
N1469 Li1419 1.990 . S
N1469 C1468 1.314 . S
N1469 C1472 1.279 . S
C1470 C1468 1.353 . S
C1470 C1473 1.348 . S
C1470 H1502 0.929 . S
C1471 C1472 1.358 . S
C1471 C1473 1.356 . S
C1471 H1503 0.930 . S
C1472 N1469 1.279 . S
C1472 C1471 1.358 . S
C1472 H1475 0.930 . S
C1473 C1470 1.348 . S
C1473 C1471 1.356 . S
H1474 C1468 0.930 . S
H1475 C1472 0.930 . S
O1476 Li1416 1.956 . S
O1476 Li1417 1.970 . S
O1476 Li1418 1.961 . S
O1476 C1420 1.325 . S
O1477 Li1416 1.970 . S
O1477 Li1417 1.956 . S
O1477 Li1419 1.961 . S
O1477 C1426 1.325 . S
O1478 Li1416 1.961 . S
O1478 Li1418 1.956 . S
O1478 Li1419 1.970 . S
O1478 C1448 1.325 . S
O1479 Li1417 1.961 . S
O1479 Li1418 1.970 . S
O1479 Li1419 1.956 . S
O1479 C1454 1.325 . S
H1480 C1422 0.929 . S
H1481 C1423 0.930 . S
H1482 C1424 0.930 . S
H1483 C1425 0.930 . S
H1484 C1427 0.930 . S
H1485 C1429 0.929 . S
H1486 C1430 0.930 . S
H1487 C1431 0.930 . S
H1488 C1434 0.930 . S
H1489 C1437 0.929 . S
H1490 C1442 0.929 . S
H1491 C1443 0.930 . S
H1492 C1450 0.929 . S
H1493 C1451 0.930 . S
H1494 C1452 0.930 . S
H1495 C1453 0.930 . S
H1496 C1455 0.929 . S
H1497 C1456 0.930 . S
H1498 C1457 0.930 . S
H1499 C1458 0.930 . S
H1500 C1462 0.929 . S
H1501 C1464 0.930 . S
H1502 C1470 0.929 . S
H1503 C1471 0.930 . S
Li1504 N1521 1.990 . S
Li1504 O1564 1.956 . S
Li1504 O1565 1.970 1_455 S
Li1504 O1566 1.961 . S
Li1505 N1529 1.990 . S
Li1505 O1564 1.970 1_655 S
Li1505 O1565 1.956 . S
Li1505 O1567 1.961 . S
Li1506 N1551 1.990 . S
Li1506 O1564 1.961 . S
Li1506 O1566 1.956 . S
Li1506 O1567 1.970 1_455 S
Li1507 N1557 1.990 . S
Li1507 O1565 1.961 . S
Li1507 O1566 1.970 1_655 S
Li1507 O1567 1.956 . S
C1508 C1510 1.348 1_455 S
C1508 C1511 1.356 . S
C1508 O1564 1.325 . S
N1509 C1512 1.314 1_455 S
N1509 C1513 1.279 . S
C1510 C1508 1.348 1_655 S
C1510 C1512 1.353 . S
C1510 H1568 0.929 . S
C1511 C1508 1.356 . S
C1511 C1513 1.358 . S
C1511 H1569 0.930 . S
C1512 N1509 1.314 1_655 S
C1512 C1510 1.353 . S
C1512 H1570 0.930 . S
C1513 N1509 1.279 . S
C1513 C1511 1.358 . S
C1513 H1571 0.930 . S
C1514 C1517 1.348 . S
C1514 C1518 1.356 . S
C1514 O1565 1.325 . S
C1515 N1516 1.279 . S
C1515 C1518 1.358 . S
C1515 H1572 0.930 . S
N1516 C1515 1.279 . S
N1516 C1519 1.314 . S
C1517 C1514 1.348 . S
C1517 C1519 1.353 . S
C1517 H1573 0.929 . S
C1518 C1514 1.356 . S
C1518 C1515 1.358 . S
C1518 H1574 0.930 . S
C1519 N1516 1.314 . S
C1519 C1517 1.353 . S
C1519 H1575 0.930 . S
C1520 N1521 1.314 . S
C1520 C1525 1.353 . S
C1520 H1526 0.930 . S
N1521 Li1504 1.990 . S
N1521 C1520 1.314 . S
N1521 C1523 1.279 . S
C1522 C1523 1.358 . S
C1522 C1524 1.356 . S
C1522 H1576 0.930 . S
C1523 N1521 1.279 . S
C1523 C1522 1.358 . S
C1523 H1527 0.930 . S
C1524 C1522 1.356 . S
C1524 C1525 1.348 . S
C1525 C1520 1.353 . S
C1525 C1524 1.348 . S
C1525 H1577 0.929 . S
H1526 C1520 0.930 . S
H1527 C1523 0.930 . S
C1528 N1529 1.314 . S
C1528 C1530 1.353 . S
C1528 H1534 0.930 . S
N1529 Li1505 1.990 . S
N1529 C1528 1.314 . S
N1529 C1532 1.279 . S
C1530 C1528 1.353 . S
C1530 C1533 1.348 . S
C1530 H1578 0.929 . S
C1531 C1532 1.358 . S
C1531 C1533 1.356 . S
C1531 H1579 0.930 . S
C1532 N1529 1.279 . S
C1532 C1531 1.358 . S
C1532 H1535 0.930 . S
C1533 C1530 1.348 . S
C1533 C1531 1.356 . S
H1534 C1528 0.930 . S
H1535 C1532 0.930 . S
C1536 C1538 1.348 . S
C1536 C1539 1.356 . S
C1536 O1566 1.325 . S
N1537 C1540 1.314 . S
N1537 C1541 1.279 . S
C1538 C1536 1.348 . S
C1538 C1540 1.353 . S
C1538 H1580 0.929 . S
C1539 C1536 1.356 . S
C1539 C1541 1.358 . S
C1539 H1581 0.930 . S
C1540 N1537 1.314 . S
C1540 C1538 1.353 . S
C1540 H1582 0.930 . S
C1541 N1537 1.279 . S
C1541 C1539 1.358 . S
C1541 H1583 0.930 . S
C1542 C1543 1.348 1_655 S
C1542 C1544 1.356 . S
C1542 O1567 1.325 . S
C1543 C1542 1.348 1_455 S
C1543 C1545 1.353 . S
C1543 H1584 0.929 . S
C1544 C1542 1.356 . S
C1544 C1546 1.358 . S
C1544 H1585 0.930 . S
C1545 C1543 1.353 . S
C1545 N1547 1.314 1_455 S
C1545 H1586 0.930 . S
C1546 C1544 1.358 . S
C1546 N1547 1.279 . S
C1546 H1587 0.930 . S
N1547 C1545 1.314 1_655 S
N1547 C1546 1.279 . S
C1548 C1550 1.353 . S
C1548 N1551 1.314 . S
C1548 H1554 0.930 . S
C1549 N1551 1.279 . S
C1549 C1552 1.358 . S
C1549 H1555 0.930 . S
C1550 C1548 1.353 . S
C1550 C1553 1.348 . S
C1550 H1588 0.929 . S
N1551 Li1506 1.990 . S
N1551 C1548 1.314 . S
N1551 C1549 1.279 . S
C1552 C1549 1.358 . S
C1552 C1553 1.356 . S
C1552 H1589 0.930 . S
C1553 C1550 1.348 . S
C1553 C1552 1.356 . S
H1554 C1548 0.930 . S
H1555 C1549 0.930 . S
C1556 N1557 1.314 . S
C1556 C1558 1.353 . S
C1556 H1562 0.930 . S
N1557 Li1507 1.990 . S
N1557 C1556 1.314 . S
N1557 C1560 1.279 . S
C1558 C1556 1.353 . S
C1558 C1561 1.348 . S
C1558 H1590 0.929 . S
C1559 C1560 1.358 . S
C1559 C1561 1.356 . S
C1559 H1591 0.930 . S
C1560 N1557 1.279 . S
C1560 C1559 1.358 . S
C1560 H1563 0.930 . S
C1561 C1558 1.348 . S
C1561 C1559 1.356 . S
H1562 C1556 0.930 . S
H1563 C1560 0.930 . S
O1564 Li1504 1.956 . S
O1564 Li1505 1.970 1_455 S
O1564 Li1506 1.961 . S
O1564 C1508 1.325 . S
O1565 Li1504 1.970 1_655 S
O1565 Li1505 1.956 . S
O1565 Li1507 1.961 . S
O1565 C1514 1.325 . S
O1566 Li1504 1.961 . S
O1566 Li1506 1.956 . S
O1566 Li1507 1.970 1_455 S
O1566 C1536 1.325 . S
O1567 Li1505 1.961 . S
O1567 Li1506 1.970 1_655 S
O1567 Li1507 1.956 . S
O1567 C1542 1.325 . S
H1568 C1510 0.929 . S
H1569 C1511 0.930 . S
H1570 C1512 0.930 . S
H1571 C1513 0.930 . S
H1572 C1515 0.930 . S
H1573 C1517 0.929 . S
H1574 C1518 0.930 . S
H1575 C1519 0.930 . S
H1576 C1522 0.930 . S
H1577 C1525 0.929 . S
H1578 C1530 0.929 . S
H1579 C1531 0.930 . S
H1580 C1538 0.929 . S
H1581 C1539 0.930 . S
H1582 C1540 0.930 . S
H1583 C1541 0.930 . S
H1584 C1543 0.929 . S
H1585 C1544 0.930 . S
H1586 C1545 0.930 . S
H1587 C1546 0.930 . S
H1588 C1550 0.929 . S
H1589 C1552 0.930 . S
H1590 C1558 0.929 . S
H1591 C1559 0.930 . S
Li1592 N1609 1.990 . S
Li1592 O1652 1.956 . S
Li1592 O1653 1.970 . S
Li1592 O1654 1.961 . S
Li1593 N1617 1.990 . S
Li1593 O1652 1.970 . S
Li1593 O1653 1.956 . S
Li1593 O1655 1.961 . S
Li1594 N1639 1.990 . S
Li1594 O1652 1.961 . S
Li1594 O1654 1.956 . S
Li1594 O1655 1.970 . S
Li1595 N1645 1.990 . S
Li1595 O1653 1.961 . S
Li1595 O1654 1.970 . S
Li1595 O1655 1.956 . S
C1596 C1598 1.348 . S
C1596 C1599 1.356 . S
C1596 O1652 1.325 . S
N1597 C1600 1.314 . S
N1597 C1601 1.279 . S
C1598 C1596 1.348 . S
C1598 C1600 1.353 . S
C1598 H1656 0.929 . S
C1599 C1596 1.356 . S
C1599 C1601 1.358 . S
C1599 H1657 0.930 . S
C1600 N1597 1.314 . S
C1600 C1598 1.353 . S
C1600 H1658 0.930 . S
C1601 N1597 1.279 . S
C1601 C1599 1.358 . S
C1601 H1659 0.930 . S
C1602 C1605 1.348 . S
C1602 C1606 1.356 . S
C1602 O1653 1.325 . S
C1603 N1604 1.279 . S
C1603 C1606 1.358 . S
C1603 H1660 0.930 . S
N1604 C1603 1.279 . S
N1604 C1607 1.314 . S
C1605 C1602 1.348 . S
C1605 C1607 1.353 . S
C1605 H1661 0.929 . S
C1606 C1602 1.356 . S
C1606 C1603 1.358 . S
C1606 H1662 0.930 . S
C1607 N1604 1.314 . S
C1607 C1605 1.353 . S
C1607 H1663 0.930 . S
C1608 N1609 1.314 . S
C1608 C1613 1.353 . S
C1608 H1614 0.930 . S
N1609 Li1592 1.990 . S
N1609 C1608 1.314 . S
N1609 C1611 1.279 . S
C1610 C1611 1.358 . S
C1610 C1612 1.356 . S
C1610 H1664 0.930 . S
C1611 N1609 1.279 . S
C1611 C1610 1.358 . S
C1611 H1615 0.930 . S
C1612 C1610 1.356 . S
C1612 C1613 1.348 . S
C1613 C1608 1.353 . S
C1613 C1612 1.348 . S
C1613 H1665 0.929 . S
H1614 C1608 0.930 . S
H1615 C1611 0.930 . S
C1616 N1617 1.314 . S
C1616 C1618 1.353 . S
C1616 H1622 0.930 . S
N1617 Li1593 1.990 . S
N1617 C1616 1.314 . S
N1617 C1620 1.279 . S
C1618 C1616 1.353 . S
C1618 C1621 1.348 . S
C1618 H1666 0.929 . S
C1619 C1620 1.358 . S
C1619 C1621 1.356 . S
C1619 H1667 0.930 . S
C1620 N1617 1.279 . S
C1620 C1619 1.358 . S
C1620 H1623 0.930 . S
C1621 C1618 1.348 . S
C1621 C1619 1.356 . S
H1622 C1616 0.930 . S
H1623 C1620 0.930 . S
C1624 C1626 1.348 . S
C1624 C1627 1.356 . S
C1624 O1654 1.325 . S
N1625 C1628 1.314 . S
N1625 C1629 1.279 . S
C1626 C1624 1.348 . S
C1626 C1628 1.353 . S
C1626 H1668 0.929 . S
C1627 C1624 1.356 . S
C1627 C1629 1.358 . S
C1627 H1669 0.930 . S
C1628 N1625 1.314 . S
C1628 C1626 1.353 . S
C1628 H1670 0.930 . S
C1629 N1625 1.279 . S
C1629 C1627 1.358 . S
C1629 H1671 0.930 . S
C1630 C1631 1.348 . S
C1630 C1632 1.356 . S
C1630 O1655 1.325 . S
C1631 C1630 1.348 . S
C1631 C1633 1.353 . S
C1631 H1672 0.929 . S
C1632 C1630 1.356 . S
C1632 C1634 1.358 . S
C1632 H1673 0.930 . S
C1633 C1631 1.353 . S
C1633 N1635 1.314 . S
C1633 H1674 0.930 . S
C1634 C1632 1.358 . S
C1634 N1635 1.279 . S
C1634 H1675 0.930 . S
N1635 C1633 1.314 . S
N1635 C1634 1.279 . S
C1636 C1638 1.353 . S
C1636 N1639 1.314 . S
C1636 H1642 0.930 . S
C1637 N1639 1.279 . S
C1637 C1640 1.358 . S
C1637 H1643 0.930 . S
C1638 C1636 1.353 . S
C1638 C1641 1.348 . S
C1638 H1676 0.929 . S
N1639 Li1594 1.990 . S
N1639 C1636 1.314 . S
N1639 C1637 1.279 . S
C1640 C1637 1.358 . S
C1640 C1641 1.356 . S
C1640 H1677 0.930 . S
C1641 C1638 1.348 . S
C1641 C1640 1.356 . S
H1642 C1636 0.930 . S
H1643 C1637 0.930 . S
C1644 N1645 1.314 . S
C1644 C1646 1.353 . S
C1644 H1650 0.930 . S
N1645 Li1595 1.990 . S
N1645 C1644 1.314 . S
N1645 C1648 1.279 . S
C1646 C1644 1.353 . S
C1646 C1649 1.348 . S
C1646 H1678 0.929 . S
C1647 C1648 1.358 . S
C1647 C1649 1.356 . S
C1647 H1679 0.930 . S
C1648 N1645 1.279 . S
C1648 C1647 1.358 . S
C1648 H1651 0.930 . S
C1649 C1646 1.348 . S
C1649 C1647 1.356 . S
H1650 C1644 0.930 . S
H1651 C1648 0.930 . S
O1652 Li1592 1.956 . S
O1652 Li1593 1.970 . S
O1652 Li1594 1.961 . S
O1652 C1596 1.325 . S
O1653 Li1592 1.970 . S
O1653 Li1593 1.956 . S
O1653 Li1595 1.961 . S
O1653 C1602 1.325 . S
O1654 Li1592 1.961 . S
O1654 Li1594 1.956 . S
O1654 Li1595 1.970 . S
O1654 C1624 1.325 . S
O1655 Li1593 1.961 . S
O1655 Li1594 1.970 . S
O1655 Li1595 1.956 . S
O1655 C1630 1.325 . S
H1656 C1598 0.929 . S
H1657 C1599 0.930 . S
H1658 C1600 0.930 . S
H1659 C1601 0.930 . S
H1660 C1603 0.930 . S
H1661 C1605 0.929 . S
H1662 C1606 0.930 . S
H1663 C1607 0.930 . S
H1664 C1610 0.930 . S
H1665 C1613 0.929 . S
H1666 C1618 0.929 . S
H1667 C1619 0.930 . S
H1668 C1626 0.929 . S
H1669 C1627 0.930 . S
H1670 C1628 0.930 . S
H1671 C1629 0.930 . S
H1672 C1631 0.929 . S
H1673 C1632 0.930 . S
H1674 C1633 0.930 . S
H1675 C1634 0.930 . S
H1676 C1638 0.929 . S
H1677 C1640 0.930 . S
H1678 C1646 0.929 . S
H1679 C1647 0.930 . S
C1680 C1681 1.391 . S
C1680 C1682 1.394 . S
C1680 H1696 0.931 . S
C1681 C1680 1.391 . S
C1681 C1685 1.376 . S
C1682 C1680 1.394 . S
C1682 C1683 1.369 . S
C1682 C1686 1.531 . S
C1683 C1682 1.369 . S
C1683 C1684 1.410 . S
C1683 C1691 1.503 . S
C1684 C1683 1.410 . S
C1684 C1685 1.392 . S
C1684 C1687 1.511 . S
C1685 C1681 1.376 . S
C1685 C1684 1.392 . S
C1685 H1697 0.929 . S
C1686 C1682 1.531 . S
C1686 H1698 0.960 . S
C1686 H1699 0.962 . S
C1686 H1700 0.960 . S
C1687 C1684 1.511 . S
C1687 H1701 0.961 . S
C1687 H1702 0.961 . S
C1687 H1703 0.961 . S
C1688 C1689 1.370 . S
C1688 C1690 1.363 . S
C1688 H1704 0.931 . S
C1689 C1688 1.370 . S
C1689 C1693 1.408 . S
C1690 C1688 1.363 . S
C1690 C1691 1.370 . S
C1690 C1694 1.524 . S
C1691 C1683 1.503 . S
C1691 C1690 1.370 . S
C1691 C1692 1.403 . S
C1692 C1691 1.403 . S
C1692 C1693 1.404 . S
C1692 C1695 1.539 . S
C1693 C1689 1.408 . S
C1693 C1692 1.404 . S
C1693 H1705 0.930 . S
C1694 C1690 1.524 . S
C1694 H1706 0.956 . S
C1694 H1707 0.961 . S
C1694 H1708 0.961 . S
C1695 C1692 1.539 . S
C1695 H1709 0.958 . S
C1695 H1710 0.961 . S
C1695 H1711 0.960 . S
H1696 C1680 0.931 . S
H1697 C1685 0.929 . S
H1698 C1686 0.960 . S
H1699 C1686 0.962 . S
H1700 C1686 0.960 . S
H1701 C1687 0.961 . S
H1702 C1687 0.961 . S
H1703 C1687 0.961 . S
H1704 C1688 0.931 . S
H1705 C1693 0.930 . S
H1706 C1694 0.956 . S
H1707 C1694 0.961 . S
H1708 C1694 0.961 . S
H1709 C1695 0.958 . S
H1710 C1695 0.961 . S
H1711 C1695 0.960 . S
C1712 C1713 1.391 . S
C1712 C1714 1.394 . S
C1712 H1728 0.931 . S
C1713 C1712 1.391 . S
C1713 C1717 1.376 . S
C1714 C1712 1.394 . S
C1714 C1715 1.369 . S
C1714 C1718 1.531 . S
C1715 C1714 1.369 . S
C1715 C1716 1.410 . S
C1715 C1723 1.503 . S
C1716 C1715 1.410 . S
C1716 C1717 1.392 . S
C1716 C1719 1.511 . S
C1717 C1713 1.376 . S
C1717 C1716 1.392 . S
C1717 H1729 0.929 . S
C1718 C1714 1.531 . S
C1718 H1730 0.960 . S
C1718 H1731 0.962 . S
C1718 H1732 0.960 . S
C1719 C1716 1.511 . S
C1719 H1733 0.961 . S
C1719 H1734 0.961 . S
C1719 H1735 0.961 . S
C1720 C1721 1.370 . S
C1720 C1722 1.363 . S
C1720 H1736 0.931 . S
C1721 C1720 1.370 . S
C1721 C1725 1.408 . S
C1722 C1720 1.363 . S
C1722 C1723 1.370 . S
C1722 C1726 1.524 . S
C1723 C1715 1.503 . S
C1723 C1722 1.370 . S
C1723 C1724 1.403 . S
C1724 C1723 1.403 . S
C1724 C1725 1.404 . S
C1724 C1727 1.539 . S
C1725 C1721 1.408 . S
C1725 C1724 1.404 . S
C1725 H1737 0.930 . S
C1726 C1722 1.524 . S
C1726 H1738 0.956 . S
C1726 H1739 0.961 . S
C1726 H1740 0.961 . S
C1727 C1724 1.539 . S
C1727 H1741 0.958 . S
C1727 H1742 0.961 . S
C1727 H1743 0.960 . S
H1728 C1712 0.931 . S
H1729 C1717 0.929 . S
H1730 C1718 0.960 . S
H1731 C1718 0.962 . S
H1732 C1718 0.960 . S
H1733 C1719 0.961 . S
H1734 C1719 0.961 . S
H1735 C1719 0.961 . S
H1736 C1720 0.931 . S
H1737 C1725 0.930 . S
H1738 C1726 0.956 . S
H1739 C1726 0.961 . S
H1740 C1726 0.961 . S
H1741 C1727 0.958 . S
H1742 C1727 0.961 . S
H1743 C1727 0.960 . S
C1744 C1745 1.391 . S
C1744 C1746 1.394 . S
C1744 H1760 0.931 . S
C1745 C1744 1.391 . S
C1745 C1749 1.376 . S
C1746 C1744 1.394 . S
C1746 C1747 1.369 . S
C1746 C1750 1.531 . S
C1747 C1746 1.369 . S
C1747 C1748 1.410 . S
C1747 C1755 1.503 . S
C1748 C1747 1.410 . S
C1748 C1749 1.392 . S
C1748 C1751 1.511 . S
C1749 C1745 1.376 . S
C1749 C1748 1.392 . S
C1749 H1761 0.929 . S
C1750 C1746 1.531 . S
C1750 H1762 0.960 . S
C1750 H1763 0.962 . S
C1750 H1764 0.960 . S
C1751 C1748 1.511 . S
C1751 H1765 0.961 . S
C1751 H1766 0.961 . S
C1751 H1767 0.961 . S
C1752 C1753 1.370 . S
C1752 C1754 1.363 . S
C1752 H1768 0.931 . S
C1753 C1752 1.370 . S
C1753 C1757 1.408 . S
C1754 C1752 1.363 . S
C1754 C1755 1.370 . S
C1754 C1758 1.524 . S
C1755 C1747 1.503 . S
C1755 C1754 1.370 . S
C1755 C1756 1.403 . S
C1756 C1755 1.403 . S
C1756 C1757 1.404 . S
C1756 C1759 1.539 . S
C1757 C1753 1.408 . S
C1757 C1756 1.404 . S
C1757 H1769 0.930 . S
C1758 C1754 1.524 . S
C1758 H1770 0.956 . S
C1758 H1771 0.961 . S
C1758 H1772 0.961 . S
C1759 C1756 1.539 . S
C1759 H1773 0.958 . S
C1759 H1774 0.961 . S
C1759 H1775 0.960 . S
H1760 C1744 0.931 . S
H1761 C1749 0.929 . S
H1762 C1750 0.960 . S
H1763 C1750 0.962 . S
H1764 C1750 0.960 . S
H1765 C1751 0.961 . S
H1766 C1751 0.961 . S
H1767 C1751 0.961 . S
H1768 C1752 0.931 . S
H1769 C1757 0.930 . S
H1770 C1758 0.956 . S
H1771 C1758 0.961 . S
H1772 C1758 0.961 . S
H1773 C1759 0.958 . S
H1774 C1759 0.961 . S
H1775 C1759 0.960 . S
C1776 C1777 1.391 . S
C1776 C1778 1.394 . S
C1776 H1792 0.931 . S
C1777 C1776 1.391 . S
C1777 C1781 1.376 . S
C1778 C1776 1.394 . S
C1778 C1779 1.369 . S
C1778 C1782 1.531 . S
C1779 C1778 1.369 . S
C1779 C1780 1.409 1_565 S
C1779 C1787 1.503 . S
C1780 C1779 1.409 1_545 S
C1780 C1781 1.392 1_545 S
C1780 C1783 1.512 . S
C1781 C1777 1.376 . S
C1781 C1780 1.392 1_565 S
C1781 H1793 0.929 1_565 S
C1782 C1778 1.531 . S
C1782 H1794 0.960 . S
C1782 H1795 0.962 . S
C1782 H1796 0.960 . S
C1783 C1780 1.512 . S
C1783 H1797 0.961 . S
C1783 H1798 0.961 . S
C1783 H1799 0.961 . S
C1784 C1785 1.370 . S
C1784 C1786 1.363 . S
C1784 H1800 0.931 . S
C1785 C1784 1.370 . S
C1785 C1789 1.408 . S
C1786 C1784 1.363 . S
C1786 C1787 1.370 . S
C1786 C1790 1.524 . S
C1787 C1779 1.503 . S
C1787 C1786 1.370 . S
C1787 C1788 1.403 . S
C1788 C1787 1.403 . S
C1788 C1789 1.404 . S
C1788 C1791 1.536 1_565 S
C1789 C1785 1.408 . S
C1789 C1788 1.404 . S
C1789 H1801 0.943 . S
C1790 C1786 1.524 . S
C1790 H1802 0.956 . S
C1790 H1803 0.961 . S
C1790 H1804 0.961 . S
C1791 C1788 1.536 1_545 S
C1791 H1805 0.950 1_545 S
C1791 H1806 0.970 . S
C1791 H1807 0.963 . S
H1792 C1776 0.931 . S
H1793 C1781 0.929 1_545 S
H1794 C1782 0.960 . S
H1795 C1782 0.962 . S
H1796 C1782 0.960 . S
H1797 C1783 0.961 . S
H1798 C1783 0.961 . S
H1799 C1783 0.961 . S
H1800 C1784 0.931 . S
H1801 C1789 0.943 . S
H1802 C1790 0.956 . S
H1803 C1790 0.961 . S
H1804 C1790 0.961 . S
H1805 C1791 0.950 1_565 S
H1806 C1791 0.970 . S
H1807 C1791 0.963 . S
C1808 C1809 1.391 . S
C1808 C1810 1.394 . S
C1808 H1824 0.931 . S
C1809 C1808 1.391 . S
C1809 C1813 1.376 . S
C1810 C1808 1.394 . S
C1810 C1811 1.369 . S
C1810 C1814 1.531 . S
C1811 C1810 1.369 . S
C1811 C1812 1.410 . S
C1811 C1819 1.503 . S
C1812 C1811 1.410 . S
C1812 C1813 1.392 . S
C1812 C1815 1.511 . S
C1813 C1809 1.376 . S
C1813 C1812 1.392 . S
C1813 H1825 0.929 . S
C1814 C1810 1.531 . S
C1814 H1826 0.960 . S
C1814 H1827 0.962 . S
C1814 H1828 0.960 . S
C1815 C1812 1.511 . S
C1815 H1829 0.961 . S
C1815 H1830 0.961 . S
C1815 H1831 0.961 . S
C1816 C1817 1.370 . S
C1816 C1818 1.363 . S
C1816 H1832 0.931 . S
C1817 C1816 1.370 . S
C1817 C1821 1.408 . S
C1818 C1816 1.363 . S
C1818 C1819 1.370 . S
C1818 C1822 1.524 . S
C1819 C1811 1.503 . S
C1819 C1818 1.370 . S
C1819 C1820 1.403 . S
C1820 C1819 1.403 . S
C1820 C1821 1.404 . S
C1820 C1823 1.539 . S
C1821 C1817 1.408 . S
C1821 C1820 1.404 . S
C1821 H1833 0.930 . S
C1822 C1818 1.524 . S
C1822 H1834 0.956 . S
C1822 H1835 0.961 . S
C1822 H1836 0.961 . S
C1823 C1820 1.539 . S
C1823 H1837 0.958 . S
C1823 H1838 0.961 . S
C1823 H1839 0.960 . S
H1824 C1808 0.931 . S
H1825 C1813 0.929 . S
H1826 C1814 0.960 . S
H1827 C1814 0.962 . S
H1828 C1814 0.960 . S
H1829 C1815 0.961 . S
H1830 C1815 0.961 . S
H1831 C1815 0.961 . S
H1832 C1816 0.931 . S
H1833 C1821 0.930 . S
H1834 C1822 0.956 . S
H1835 C1822 0.961 . S
H1836 C1822 0.961 . S
H1837 C1823 0.958 . S
H1838 C1823 0.961 . S
H1839 C1823 0.960 . S
C1840 C1841 1.391 . S
C1840 C1842 1.394 . S
C1840 H1856 0.931 . S
C1841 C1840 1.391 . S
C1841 C1845 1.376 . S
C1842 C1840 1.394 . S
C1842 C1843 1.369 . S
C1842 C1846 1.531 . S
C1843 C1842 1.369 . S
C1843 C1844 1.410 . S
C1843 C1851 1.503 . S
C1844 C1843 1.410 . S
C1844 C1845 1.392 . S
C1844 C1847 1.511 . S
C1845 C1841 1.376 . S
C1845 C1844 1.392 . S
C1845 H1857 0.929 . S
C1846 C1842 1.531 . S
C1846 H1858 0.960 . S
C1846 H1859 0.962 . S
C1846 H1860 0.960 . S
C1847 C1844 1.511 . S
C1847 H1861 0.961 . S
C1847 H1862 0.961 . S
C1847 H1863 0.961 . S
C1848 C1849 1.370 . S
C1848 C1850 1.363 . S
C1848 H1864 0.931 . S
C1849 C1848 1.370 . S
C1849 C1853 1.408 . S
C1850 C1848 1.363 . S
C1850 C1851 1.370 . S
C1850 C1854 1.524 . S
C1851 C1843 1.503 . S
C1851 C1850 1.370 . S
C1851 C1852 1.403 . S
C1852 C1851 1.403 . S
C1852 C1853 1.404 . S
C1852 C1855 1.539 . S
C1853 C1849 1.408 . S
C1853 C1852 1.404 . S
C1853 H1865 0.930 . S
C1854 C1850 1.524 . S
C1854 H1866 0.956 . S
C1854 H1867 0.961 . S
C1854 H1868 0.961 . S
C1855 C1852 1.539 . S
C1855 H1869 0.958 . S
C1855 H1870 0.961 . S
C1855 H1871 0.960 . S
H1856 C1840 0.931 . S
H1857 C1845 0.929 . S
H1858 C1846 0.960 . S
H1859 C1846 0.962 . S
H1860 C1846 0.960 . S
H1861 C1847 0.961 . S
H1862 C1847 0.961 . S
H1863 C1847 0.961 . S
H1864 C1848 0.931 . S
H1865 C1853 0.930 . S
H1866 C1854 0.956 . S
H1867 C1854 0.961 . S
H1868 C1854 0.961 . S
H1869 C1855 0.958 . S
H1870 C1855 0.961 . S
H1871 C1855 0.960 . S
C1872 C1873 1.391 . S
C1872 C1874 1.394 . S
C1872 H1888 0.931 . S
C1873 C1872 1.391 . S
C1873 C1877 1.376 . S
C1874 C1872 1.394 . S
C1874 C1875 1.369 . S
C1874 C1878 1.531 . S
C1875 C1874 1.369 . S
C1875 C1876 1.410 . S
C1875 C1883 1.503 . S
C1876 C1875 1.410 . S
C1876 C1877 1.392 . S
C1876 C1879 1.511 . S
C1877 C1873 1.376 . S
C1877 C1876 1.392 . S
C1877 H1889 0.929 . S
C1878 C1874 1.531 . S
C1878 H1890 0.960 . S
C1878 H1891 0.962 . S
C1878 H1892 0.960 . S
C1879 C1876 1.511 . S
C1879 H1893 0.961 . S
C1879 H1894 0.961 . S
C1879 H1895 0.961 . S
C1880 C1881 1.370 . S
C1880 C1882 1.363 . S
C1880 H1896 0.931 . S
C1881 C1880 1.370 . S
C1881 C1885 1.408 . S
C1882 C1880 1.363 . S
C1882 C1883 1.370 . S
C1882 C1886 1.524 . S
C1883 C1875 1.503 . S
C1883 C1882 1.370 . S
C1883 C1884 1.403 . S
C1884 C1883 1.403 . S
C1884 C1885 1.404 . S
C1884 C1887 1.539 . S
C1885 C1881 1.408 . S
C1885 C1884 1.404 . S
C1885 H1897 0.930 . S
C1886 C1882 1.524 . S
C1886 H1898 0.956 . S
C1886 H1899 0.961 . S
C1886 H1900 0.961 . S
C1887 C1884 1.539 . S
C1887 H1901 0.958 . S
C1887 H1902 0.961 . S
C1887 H1903 0.960 . S
H1888 C1872 0.931 . S
H1889 C1877 0.929 . S
H1890 C1878 0.960 . S
H1891 C1878 0.962 . S
H1892 C1878 0.960 . S
H1893 C1879 0.961 . S
H1894 C1879 0.961 . S
H1895 C1879 0.961 . S
H1896 C1880 0.931 . S
H1897 C1885 0.930 . S
H1898 C1886 0.956 . S
H1899 C1886 0.961 . S
H1900 C1886 0.961 . S
H1901 C1887 0.958 . S
H1902 C1887 0.961 . S
H1903 C1887 0.960 . S
C1904 C1905 1.391 . S
C1904 C1906 1.394 . S
C1904 H1920 0.931 . S
C1905 C1904 1.391 . S
C1905 C1909 1.376 . S
C1906 C1904 1.394 . S
C1906 C1907 1.369 . S
C1906 C1910 1.531 . S
C1907 C1906 1.369 . S
C1907 C1908 1.410 . S
C1907 C1915 1.503 . S
C1908 C1907 1.410 . S
C1908 C1909 1.392 . S
C1908 C1911 1.511 1_565 S
C1909 C1905 1.376 . S
C1909 C1908 1.392 . S
C1909 H1921 0.929 . S
C1910 C1906 1.531 . S
C1910 H1922 0.960 . S
C1910 H1923 0.962 . S
C1910 H1924 0.960 . S
C1911 C1908 1.511 1_545 S
C1911 H1925 0.961 . S
C1911 H1926 0.961 . S
C1911 H1927 0.961 1_545 S
C1912 C1913 1.370 . S
C1912 C1914 1.363 . S
C1912 H1928 0.931 1_565 S
C1913 C1912 1.370 . S
C1913 C1917 1.408 . S
C1914 C1912 1.363 . S
C1914 C1915 1.370 . S
C1914 C1918 1.524 1_565 S
C1915 C1907 1.503 . S
C1915 C1914 1.370 . S
C1915 C1916 1.403 . S
C1916 C1915 1.403 . S
C1916 C1917 1.404 . S
C1916 C1919 1.539 . S
C1917 C1913 1.408 . S
C1917 C1916 1.404 . S
C1917 H1929 0.930 . S
C1918 C1914 1.524 1_545 S
C1918 H1930 0.995 . S
C1918 H1931 0.961 . S
C1918 H1932 0.961 . S
C1919 C1916 1.539 . S
C1919 H1933 0.958 . S
C1919 H1934 0.961 . S
C1919 H1935 0.960 . S
H1920 C1904 0.931 . S
H1921 C1909 0.929 . S
H1922 C1910 0.960 . S
H1923 C1910 0.962 . S
H1924 C1910 0.960 . S
H1925 C1911 0.961 . S
H1926 C1911 0.961 . S
H1927 C1911 0.961 1_565 S
H1928 C1912 0.931 1_545 S
H1929 C1917 0.930 . S
H1930 C1918 0.995 . S
H1931 C1918 0.961 . S
H1932 C1918 0.961 . S
H1933 C1919 0.958 . S
H1934 C1919 0.961 . S
H1935 C1919 0.960 . S
C1936 C1937 1.391 . S
C1936 C1938 1.394 . S
C1936 H1952 0.931 . S
C1937 C1936 1.391 . S
C1937 C1941 1.376 . S
C1938 C1936 1.394 . S
C1938 C1939 1.369 . S
C1938 C1942 1.531 . S
C1939 C1938 1.369 . S
C1939 C1940 1.410 . S
C1939 C1947 1.503 . S
C1940 C1939 1.410 . S
C1940 C1941 1.392 . S
C1940 C1943 1.511 . S
C1941 C1937 1.376 . S
C1941 C1940 1.392 . S
C1941 H1953 0.929 . S
C1942 C1938 1.531 . S
C1942 H1954 0.960 . S
C1942 H1955 0.962 . S
C1942 H1956 0.960 . S
C1943 C1940 1.511 . S
C1943 H1957 0.961 . S
C1943 H1958 0.961 . S
C1943 H1959 0.961 . S
C1944 C1945 1.370 . S
C1944 C1946 1.363 . S
C1944 H1960 0.931 . S
C1945 C1944 1.370 . S
C1945 C1949 1.408 . S
C1946 C1944 1.363 . S
C1946 C1947 1.370 . S
C1946 C1950 1.524 . S
C1947 C1939 1.503 . S
C1947 C1946 1.370 . S
C1947 C1948 1.403 . S
C1948 C1947 1.403 . S
C1948 C1949 1.404 . S
C1948 C1951 1.539 . S
C1949 C1945 1.408 . S
C1949 C1948 1.404 . S
C1949 H1961 0.930 . S
C1950 C1946 1.524 . S
C1950 H1962 0.956 . S
C1950 H1963 0.961 . S
C1950 H1964 0.961 . S
C1951 C1948 1.539 . S
C1951 H1965 0.958 . S
C1951 H1966 0.961 . S
C1951 H1967 0.960 . S
H1952 C1936 0.931 . S
H1953 C1941 0.929 . S
H1954 C1942 0.960 . S
H1955 C1942 0.962 . S
H1956 C1942 0.960 . S
H1957 C1943 0.961 . S
H1958 C1943 0.961 . S
H1959 C1943 0.961 . S
H1960 C1944 0.931 . S
H1961 C1949 0.930 . S
H1962 C1950 0.956 . S
H1963 C1950 0.961 . S
H1964 C1950 0.961 . S
H1965 C1951 0.958 . S
H1966 C1951 0.961 . S
H1967 C1951 0.960 . S
C1968 C1969 1.391 . S
C1968 C1970 1.394 . S
C1968 H1984 0.931 . S
C1969 C1968 1.391 . S
C1969 C1973 1.376 . S
C1970 C1968 1.394 . S
C1970 C1971 1.369 . S
C1970 C1974 1.531 . S
C1971 C1970 1.369 . S
C1971 C1972 1.410 . S
C1971 C1979 1.503 . S
C1972 C1971 1.410 . S
C1972 C1973 1.392 . S
C1972 C1975 1.511 . S
C1973 C1969 1.376 . S
C1973 C1972 1.392 . S
C1973 H1985 0.929 . S
C1974 C1970 1.531 . S
C1974 H1986 0.960 . S
C1974 H1987 0.962 . S
C1974 H1988 0.960 . S
C1975 C1972 1.511 . S
C1975 H1989 0.961 . S
C1975 H1990 0.961 . S
C1975 H1991 0.961 . S
C1976 C1977 1.370 . S
C1976 C1978 1.363 . S
C1976 H1992 0.931 . S
C1977 C1976 1.370 . S
C1977 C1981 1.408 . S
C1978 C1976 1.363 . S
C1978 C1979 1.370 . S
C1978 C1982 1.524 . S
C1979 C1971 1.503 . S
C1979 C1978 1.370 . S
C1979 C1980 1.403 . S
C1980 C1979 1.403 . S
C1980 C1981 1.404 . S
C1980 C1983 1.539 . S
C1981 C1977 1.408 . S
C1981 C1980 1.404 . S
C1981 H1993 0.930 . S
C1982 C1978 1.524 . S
C1982 H1994 0.956 . S
C1982 H1995 0.961 . S
C1982 H1996 0.961 . S
C1983 C1980 1.539 . S
C1983 H1997 0.958 . S
C1983 H1998 0.961 . S
C1983 H1999 0.960 . S
H1984 C1968 0.931 . S
H1985 C1973 0.929 . S
H1986 C1974 0.960 . S
H1987 C1974 0.962 . S
H1988 C1974 0.960 . S
H1989 C1975 0.961 . S
H1990 C1975 0.961 . S
H1991 C1975 0.961 . S
H1992 C1976 0.931 . S
H1993 C1981 0.930 . S
H1994 C1982 0.956 . S
H1995 C1982 0.961 . S
H1996 C1982 0.961 . S
H1997 C1983 0.958 . S
H1998 C1983 0.961 . S
H1999 C1983 0.960 . S
C2000 C2001 1.391 . S
C2000 C2002 1.394 . S
C2000 H2016 0.931 . S
C2001 C2000 1.391 . S
C2001 C2005 1.376 . S
C2002 C2000 1.394 . S
C2002 C2003 1.369 . S
C2002 C2006 1.531 . S
C2003 C2002 1.369 . S
C2003 C2004 1.410 . S
C2003 C2011 1.503 . S
C2004 C2003 1.410 . S
C2004 C2005 1.392 . S
C2004 C2007 1.511 . S
C2005 C2001 1.376 . S
C2005 C2004 1.392 . S
C2005 H2017 0.929 . S
C2006 C2002 1.531 . S
C2006 H2018 0.960 . S
C2006 H2019 0.962 . S
C2006 H2020 0.960 . S
C2007 C2004 1.511 . S
C2007 H2021 0.961 . S
C2007 H2022 0.961 . S
C2007 H2023 0.961 . S
C2008 C2009 1.370 . S
C2008 C2010 1.363 . S
C2008 H2024 0.931 . S
C2009 C2008 1.370 . S
C2009 C2013 1.408 . S
C2010 C2008 1.363 . S
C2010 C2011 1.370 . S
C2010 C2014 1.524 . S
C2011 C2003 1.503 . S
C2011 C2010 1.370 . S
C2011 C2012 1.403 . S
C2012 C2011 1.403 . S
C2012 C2013 1.404 . S
C2012 C2015 1.539 . S
C2013 C2009 1.408 . S
C2013 C2012 1.404 . S
C2013 H2025 0.930 . S
C2014 C2010 1.524 . S
C2014 H2026 0.956 . S
C2014 H2027 0.961 . S
C2014 H2028 0.961 . S
C2015 C2012 1.539 . S
C2015 H2029 0.958 . S
C2015 H2030 0.961 . S
C2015 H2031 0.960 . S
H2016 C2000 0.931 . S
H2017 C2005 0.929 . S
H2018 C2006 0.960 . S
H2019 C2006 0.962 . S
H2020 C2006 0.960 . S
H2021 C2007 0.961 . S
H2022 C2007 0.961 . S
H2023 C2007 0.961 . S
H2024 C2008 0.931 . S
H2025 C2013 0.930 . S
H2026 C2014 0.956 . S
H2027 C2014 0.961 . S
H2028 C2014 0.961 . S
H2029 C2015 0.958 . S
H2030 C2015 0.961 . S
H2031 C2015 0.960 . S
C2032 C2033 1.391 . S
C2032 C2034 1.394 . S
C2032 H2048 0.931 . S
C2033 C2032 1.391 . S
C2033 C2037 1.376 . S
C2034 C2032 1.394 . S
C2034 C2035 1.369 . S
C2034 C2038 1.531 . S
C2035 C2034 1.369 . S
C2035 C2036 1.410 . S
C2035 C2043 1.503 . S
C2036 C2035 1.410 . S
C2036 C2037 1.392 . S
C2036 C2039 1.511 . S
C2037 C2033 1.376 . S
C2037 C2036 1.392 . S
C2037 H2049 0.929 . S
C2038 C2034 1.531 . S
C2038 H2050 0.960 . S
C2038 H2051 0.962 . S
C2038 H2052 0.960 . S
C2039 C2036 1.511 . S
C2039 H2053 0.961 . S
C2039 H2054 0.961 . S
C2039 H2055 0.961 . S
C2040 C2041 1.370 . S
C2040 C2042 1.363 . S
C2040 H2056 0.931 . S
C2041 C2040 1.370 . S
C2041 C2045 1.408 . S
C2042 C2040 1.363 . S
C2042 C2043 1.370 . S
C2042 C2046 1.524 . S
C2043 C2035 1.503 . S
C2043 C2042 1.370 . S
C2043 C2044 1.403 . S
C2044 C2043 1.403 . S
C2044 C2045 1.404 . S
C2044 C2047 1.539 . S
C2045 C2041 1.408 . S
C2045 C2044 1.404 . S
C2045 H2057 0.930 . S
C2046 C2042 1.524 . S
C2046 H2058 0.956 . S
C2046 H2059 0.961 . S
C2046 H2060 0.961 . S
C2047 C2044 1.539 . S
C2047 H2061 0.958 . S
C2047 H2062 0.961 . S
C2047 H2063 0.960 . S
H2048 C2032 0.931 . S
H2049 C2037 0.929 . S
H2050 C2038 0.960 . S
H2051 C2038 0.962 . S
H2052 C2038 0.960 . S
H2053 C2039 0.961 . S
H2054 C2039 0.961 . S
H2055 C2039 0.961 . S
H2056 C2040 0.931 . S
H2057 C2045 0.930 . S
H2058 C2046 0.956 . S
H2059 C2046 0.961 . S
H2060 C2046 0.961 . S
H2061 C2047 0.958 . S
H2062 C2047 0.961 . S
H2063 C2047 0.960 . S
C2064 C2065 1.391 . S
C2064 C2066 1.394 . S
C2064 H2080 0.931 . S
C2065 C2064 1.391 . S
C2065 C2069 1.376 . S
C2066 C2064 1.394 . S
C2066 C2067 1.369 . S
C2066 C2070 1.531 . S
C2067 C2066 1.369 . S
C2067 C2068 1.410 . S
C2067 C2075 1.503 . S
C2068 C2067 1.410 . S
C2068 C2069 1.392 . S
C2068 C2071 1.511 . S
C2069 C2065 1.376 . S
C2069 C2068 1.392 . S
C2069 H2081 0.929 . S
C2070 C2066 1.531 . S
C2070 H2082 0.960 . S
C2070 H2083 0.962 . S
C2070 H2084 0.960 . S
C2071 C2068 1.511 . S
C2071 H2085 0.961 . S
C2071 H2086 0.961 . S
C2071 H2087 0.961 . S
C2072 C2073 1.370 . S
C2072 C2074 1.363 . S
C2072 H2088 0.931 . S
C2073 C2072 1.370 . S
C2073 C2077 1.408 . S
C2074 C2072 1.363 . S
C2074 C2075 1.370 . S
C2074 C2078 1.524 . S
C2075 C2067 1.503 . S
C2075 C2074 1.370 . S
C2075 C2076 1.403 . S
C2076 C2075 1.403 . S
C2076 C2077 1.404 . S
C2076 C2079 1.539 . S
C2077 C2073 1.408 . S
C2077 C2076 1.404 . S
C2077 H2089 0.930 . S
C2078 C2074 1.524 . S
C2078 H2090 0.956 . S
C2078 H2091 0.961 . S
C2078 H2092 0.961 . S
C2079 C2076 1.539 . S
C2079 H2093 0.958 . S
C2079 H2094 0.961 . S
C2079 H2095 0.960 . S
H2080 C2064 0.931 . S
H2081 C2069 0.929 . S
H2082 C2070 0.960 . S
H2083 C2070 0.962 . S
H2084 C2070 0.960 . S
H2085 C2071 0.961 . S
H2086 C2071 0.961 . S
H2087 C2071 0.961 . S
H2088 C2072 0.931 . S
H2089 C2077 0.930 . S
H2090 C2078 0.956 . S
H2091 C2078 0.961 . S
H2092 C2078 0.961 . S
H2093 C2079 0.958 . S
H2094 C2079 0.961 . S
H2095 C2079 0.960 . S
C2096 C2097 1.391 . S
C2096 C2098 1.394 . S
C2096 H2112 0.931 . S
C2097 C2096 1.391 . S
C2097 C2101 1.376 . S
C2098 C2096 1.394 . S
C2098 C2099 1.369 . S
C2098 C2102 1.531 . S
C2099 C2098 1.369 . S
C2099 C2100 1.410 . S
C2099 C2107 1.503 . S
C2100 C2099 1.410 . S
C2100 C2101 1.392 . S
C2100 C2103 1.511 1_455 S
C2101 C2097 1.376 . S
C2101 C2100 1.392 . S
C2101 H2113 0.929 1_455 S
C2102 C2098 1.531 . S
C2102 H2114 0.960 . S
C2102 H2115 0.962 . S
C2102 H2116 0.960 . S
C2103 C2100 1.511 1_655 S
C2103 H2117 0.961 . S
C2103 H2118 0.961 . S
C2103 H2119 0.961 . S
C2104 C2105 1.370 . S
C2104 C2106 1.363 . S
C2104 H2120 0.931 . S
C2105 C2104 1.370 . S
C2105 C2109 1.408 . S
C2106 C2104 1.363 . S
C2106 C2107 1.370 . S
C2106 C2110 1.524 . S
C2107 C2099 1.503 . S
C2107 C2106 1.370 . S
C2107 C2108 1.403 . S
C2108 C2107 1.403 . S
C2108 C2109 1.404 . S
C2108 C2111 1.539 . S
C2109 C2105 1.408 . S
C2109 C2108 1.404 . S
C2109 H2121 0.930 . S
C2110 C2106 1.524 . S
C2110 H2122 0.956 . S
C2110 H2123 0.961 . S
C2110 H2124 0.961 . S
C2111 C2108 1.539 . S
C2111 H2125 0.958 . S
C2111 H2126 0.961 . S
C2111 H2127 0.960 . S
H2112 C2096 0.931 . S
H2113 C2101 0.929 1_655 S
H2114 C2102 0.960 . S
H2115 C2102 0.962 . S
H2116 C2102 0.960 . S
H2117 C2103 0.961 . S
H2118 C2103 0.961 . S
H2119 C2103 0.961 . S
H2120 C2104 0.931 . S
H2121 C2109 0.930 . S
H2122 C2110 0.956 . S
H2123 C2110 0.961 . S
H2124 C2110 0.961 . S
H2125 C2111 0.958 . S
H2126 C2111 0.961 . S
H2127 C2111 0.960 . S
C2128 C2129 1.391 . S
C2128 C2130 1.394 . S
C2128 H2144 0.931 . S
C2129 C2128 1.391 . S
C2129 C2133 1.376 . S
C2130 C2128 1.394 . S
C2130 C2131 1.369 . S
C2130 C2134 1.531 . S
C2131 C2130 1.369 . S
C2131 C2132 1.410 . S
C2131 C2139 1.503 . S
C2132 C2131 1.410 . S
C2132 C2133 1.392 . S
C2132 C2135 1.511 . S
C2133 C2129 1.376 . S
C2133 C2132 1.392 . S
C2133 H2145 0.929 . S
C2134 C2130 1.531 . S
C2134 H2146 0.960 . S
C2134 H2147 0.962 . S
C2134 H2148 0.960 . S
C2135 C2132 1.511 . S
C2135 H2149 0.961 . S
C2135 H2150 0.961 . S
C2135 H2151 0.961 . S
C2136 C2137 1.370 . S
C2136 C2138 1.363 . S
C2136 H2152 0.931 . S
C2137 C2136 1.370 . S
C2137 C2141 1.408 . S
C2138 C2136 1.363 . S
C2138 C2139 1.370 . S
C2138 C2142 1.524 . S
C2139 C2131 1.503 . S
C2139 C2138 1.370 . S
C2139 C2140 1.403 . S
C2140 C2139 1.403 . S
C2140 C2141 1.404 . S
C2140 C2143 1.539 . S
C2141 C2137 1.408 . S
C2141 C2140 1.404 . S
C2141 H2153 0.930 . S
C2142 C2138 1.524 . S
C2142 H2154 0.956 . S
C2142 H2155 0.961 . S
C2142 H2156 0.961 . S
C2143 C2140 1.539 . S
C2143 H2157 0.958 . S
C2143 H2158 0.961 . S
C2143 H2159 0.960 . S
H2144 C2128 0.931 . S
H2145 C2133 0.929 . S
H2146 C2134 0.960 . S
H2147 C2134 0.962 . S
H2148 C2134 0.960 . S
H2149 C2135 0.961 . S
H2150 C2135 0.961 . S
H2151 C2135 0.961 . S
H2152 C2136 0.931 . S
H2153 C2141 0.930 . S
H2154 C2142 0.956 . S
H2155 C2142 0.961 . S
H2156 C2142 0.961 . S
H2157 C2143 0.958 . S
H2158 C2143 0.961 . S
H2159 C2143 0.960 . S
C2160 C2161 1.391 . S
C2160 C2162 1.394 . S
C2160 H2176 0.931 1_655 S
C2161 C2160 1.391 . S
C2161 C2165 1.376 . S
C2162 C2160 1.394 . S
C2162 C2163 1.369 . S
C2162 C2166 1.531 1_655 S
C2163 C2162 1.369 . S
C2163 C2164 1.410 . S
C2163 C2171 1.503 . S
C2164 C2163 1.410 . S
C2164 C2165 1.392 . S
C2164 C2167 1.511 . S
C2165 C2161 1.376 . S
C2165 C2164 1.392 . S
C2165 H2177 0.929 . S
C2166 C2162 1.531 1_455 S
C2166 H2178 0.960 . S
C2166 H2179 0.962 . S
C2166 H2180 0.960 . S
C2167 C2164 1.511 . S
C2167 H2181 0.961 . S
C2167 H2182 0.961 . S
C2167 H2183 0.961 . S
C2168 C2169 1.370 . S
C2168 C2170 1.363 . S
C2168 H2184 0.931 . S
C2169 C2168 1.370 . S
C2169 C2173 1.408 . S
C2170 C2168 1.363 . S
C2170 C2171 1.370 . S
C2170 C2174 1.524 . S
C2171 C2163 1.503 . S
C2171 C2170 1.370 . S
C2171 C2172 1.403 . S
C2172 C2171 1.403 . S
C2172 C2173 1.404 . S
C2172 C2175 1.539 1_655 S
C2173 C2169 1.408 . S
C2173 C2172 1.404 . S
C2173 H2185 0.930 1_655 S
C2174 C2170 1.524 . S
C2174 H2186 0.956 . S
C2174 H2187 0.961 . S
C2174 H2188 0.961 . S
C2175 C2172 1.539 1_455 S
C2175 H2189 0.958 . S
C2175 H2190 0.961 . S
C2175 H2191 0.960 . S
H2176 C2160 0.931 1_455 S
H2177 C2165 0.929 . S
H2178 C2166 0.960 . S
H2179 C2166 0.962 . S
H2180 C2166 0.960 . S
H2181 C2167 0.961 . S
H2182 C2167 0.961 . S
H2183 C2167 0.961 . S
H2184 C2168 0.931 . S
H2185 C2173 0.930 1_455 S
H2186 C2174 0.956 . S
H2187 C2174 0.961 . S
H2188 C2174 0.961 . S
H2189 C2175 0.958 . S
H2190 C2175 0.961 . S
H2191 C2175 0.960 . S
C2192 C2193 1.391 . S
C2192 C2194 1.394 . S
C2192 H2208 0.931 . S
C2193 C2192 1.391 . S
C2193 C2197 1.376 . S
C2194 C2192 1.394 . S
C2194 C2195 1.369 . S
C2194 C2198 1.531 . S
C2195 C2194 1.369 . S
C2195 C2196 1.410 . S
C2195 C2203 1.503 . S
C2196 C2195 1.410 . S
C2196 C2197 1.392 . S
C2196 C2199 1.511 . S
C2197 C2193 1.376 . S
C2197 C2196 1.392 . S
C2197 H2209 0.929 . S
C2198 C2194 1.531 . S
C2198 H2210 0.960 . S
C2198 H2211 0.962 . S
C2198 H2212 0.960 . S
C2199 C2196 1.511 . S
C2199 H2213 0.961 . S
C2199 H2214 0.961 . S
C2199 H2215 0.961 . S
C2200 C2201 1.370 . S
C2200 C2202 1.363 . S
C2200 H2216 0.931 . S
C2201 C2200 1.370 . S
C2201 C2205 1.408 . S
C2202 C2200 1.363 . S
C2202 C2203 1.370 . S
C2202 C2206 1.524 . S
C2203 C2195 1.503 . S
C2203 C2202 1.370 . S
C2203 C2204 1.403 . S
C2204 C2203 1.403 . S
C2204 C2205 1.404 . S
C2204 C2207 1.539 . S
C2205 C2201 1.408 . S
C2205 C2204 1.404 . S
C2205 H2217 0.930 . S
C2206 C2202 1.524 . S
C2206 H2218 0.956 . S
C2206 H2219 0.961 . S
C2206 H2220 0.961 . S
C2207 C2204 1.539 . S
C2207 H2221 0.958 . S
C2207 H2222 0.961 . S
C2207 H2223 0.960 . S
H2208 C2192 0.931 . S
H2209 C2197 0.929 . S
H2210 C2198 0.960 . S
H2211 C2198 0.962 . S
H2212 C2198 0.960 . S
H2213 C2199 0.961 . S
H2214 C2199 0.961 . S
H2215 C2199 0.961 . S
H2216 C2200 0.931 . S
H2217 C2205 0.930 . S
H2218 C2206 0.956 . S
H2219 C2206 0.961 . S
H2220 C2206 0.961 . S
H2221 C2207 0.958 . S
H2222 C2207 0.961 . S
H2223 C2207 0.960 . S
C2224 C2225 1.391 . S
C2224 C2226 1.394 . S
C2224 H2240 0.931 . S
C2225 C2224 1.391 . S
C2225 C2229 1.376 . S
C2226 C2224 1.394 . S
C2226 C2227 1.369 . S
C2226 C2230 1.531 . S
C2227 C2226 1.369 . S
C2227 C2228 1.410 . S
C2227 C2235 1.503 . S
C2228 C2227 1.410 . S
C2228 C2229 1.392 . S
C2228 C2231 1.511 . S
C2229 C2225 1.376 . S
C2229 C2228 1.392 . S
C2229 H2241 0.929 . S
C2230 C2226 1.531 . S
C2230 H2242 0.960 . S
C2230 H2243 0.962 . S
C2230 H2244 0.960 . S
C2231 C2228 1.511 . S
C2231 H2245 0.961 . S
C2231 H2246 0.961 . S
C2231 H2247 0.961 . S
C2232 C2233 1.370 . S
C2232 C2234 1.363 . S
C2232 H2248 0.931 . S
C2233 C2232 1.370 . S
C2233 C2237 1.408 . S
C2234 C2232 1.363 . S
C2234 C2235 1.370 . S
C2234 C2238 1.524 . S
C2235 C2227 1.503 . S
C2235 C2234 1.370 . S
C2235 C2236 1.403 . S
C2236 C2235 1.403 . S
C2236 C2237 1.404 . S
C2236 C2239 1.539 . S
C2237 C2233 1.408 . S
C2237 C2236 1.404 . S
C2237 H2249 0.930 . S
C2238 C2234 1.524 . S
C2238 H2250 0.956 . S
C2238 H2251 0.961 . S
C2238 H2252 0.961 . S
C2239 C2236 1.539 . S
C2239 H2253 0.958 . S
C2239 H2254 0.961 . S
C2239 H2255 0.960 . S
H2240 C2224 0.931 . S
H2241 C2229 0.929 . S
H2242 C2230 0.960 . S
H2243 C2230 0.962 . S
H2244 C2230 0.960 . S
H2245 C2231 0.961 . S
H2246 C2231 0.961 . S
H2247 C2231 0.961 . S
H2248 C2232 0.931 . S
H2249 C2237 0.930 . S
H2250 C2238 0.956 . S
H2251 C2238 0.961 . S
H2252 C2238 0.961 . S
H2253 C2239 0.958 . S
H2254 C2239 0.961 . S
H2255 C2239 0.960 . S
C2256 C2257 1.391 . S
C2256 C2258 1.394 . S
C2256 H2272 0.931 . S
C2257 C2256 1.391 . S
C2257 C2261 1.376 . S
C2258 C2256 1.394 . S
C2258 C2259 1.369 . S
C2258 C2262 1.531 . S
C2259 C2258 1.369 . S
C2259 C2260 1.410 . S
C2259 C2267 1.503 . S
C2260 C2259 1.410 . S
C2260 C2261 1.392 . S
C2260 C2263 1.511 . S
C2261 C2257 1.376 . S
C2261 C2260 1.392 . S
C2261 H2273 0.929 . S
C2262 C2258 1.531 . S
C2262 H2274 0.960 . S
C2262 H2275 0.962 . S
C2262 H2276 0.960 . S
C2263 C2260 1.511 . S
C2263 H2277 0.961 . S
C2263 H2278 0.961 . S
C2263 H2279 0.961 . S
C2264 C2265 1.370 1_554 S
C2264 C2266 1.366 . S
C2264 H2280 0.931 . S
C2265 C2264 1.370 1_556 S
C2265 C2269 1.408 . S
C2266 C2264 1.366 . S
C2266 C2267 1.355 1_554 S
C2266 C2270 1.537 . S
C2267 C2259 1.503 . S
C2267 C2266 1.355 1_556 S
C2267 C2268 1.403 . S
C2268 C2267 1.403 . S
C2268 C2269 1.404 . S
C2268 C2271 1.539 . S
C2269 C2265 1.408 . S
C2269 C2268 1.404 . S
C2269 H2281 0.930 . S
C2270 C2266 1.537 . S
C2270 H2282 0.956 . S
C2270 H2283 0.961 . S
C2270 H2284 0.961 . S
C2271 C2268 1.539 . S
C2271 H2285 0.958 . S
C2271 H2286 0.961 . S
C2271 H2287 0.960 . S
H2272 C2256 0.931 . S
H2273 C2261 0.929 . S
H2274 C2262 0.960 . S
H2275 C2262 0.962 . S
H2276 C2262 0.960 . S
H2277 C2263 0.961 . S
H2278 C2263 0.961 . S
H2279 C2263 0.961 . S
H2280 C2264 0.931 . S
H2281 C2269 0.930 . S
H2282 C2270 0.956 . S
H2283 C2270 0.961 . S
H2284 C2270 0.961 . S
H2285 C2271 0.958 . S
H2286 C2271 0.961 . S
H2287 C2271 0.960 . S
C2288 C2289 1.391 . S
C2288 C2290 1.394 . S
C2288 H2304 0.931 . S
C2289 C2288 1.391 . S
C2289 C2293 1.376 . S
C2290 C2288 1.394 . S
C2290 C2291 1.369 . S
C2290 C2294 1.531 . S
C2291 C2290 1.369 . S
C2291 C2292 1.410 . S
C2291 C2299 1.503 . S
C2292 C2291 1.410 . S
C2292 C2293 1.392 . S
C2292 C2295 1.511 . S
C2293 C2289 1.376 . S
C2293 C2292 1.392 . S
C2293 H2305 0.929 . S
C2294 C2290 1.531 . S
C2294 H2306 0.960 . S
C2294 H2307 0.962 . S
C2294 H2308 0.960 . S
C2295 C2292 1.511 . S
C2295 H2309 0.961 . S
C2295 H2310 0.961 . S
C2295 H2311 0.961 . S
C2296 C2297 1.370 . S
C2296 C2298 1.363 . S
C2296 H2312 0.931 . S
C2297 C2296 1.370 . S
C2297 C2301 1.408 . S
C2298 C2296 1.363 . S
C2298 C2299 1.370 . S
C2298 C2302 1.524 . S
C2299 C2291 1.503 . S
C2299 C2298 1.370 . S
C2299 C2300 1.403 . S
C2300 C2299 1.403 . S
C2300 C2301 1.404 . S
C2300 C2303 1.539 . S
C2301 C2297 1.408 . S
C2301 C2300 1.404 . S
C2301 H2313 0.930 . S
C2302 C2298 1.524 . S
C2302 H2314 0.956 . S
C2302 H2315 0.961 . S
C2302 H2316 0.961 . S
C2303 C2300 1.539 . S
C2303 H2317 0.958 . S
C2303 H2318 0.961 . S
C2303 H2319 0.960 . S
H2304 C2288 0.931 . S
H2305 C2293 0.929 . S
H2306 C2294 0.960 . S
H2307 C2294 0.962 . S
H2308 C2294 0.960 . S
H2309 C2295 0.961 . S
H2310 C2295 0.961 . S
H2311 C2295 0.961 . S
H2312 C2296 0.931 . S
H2313 C2301 0.930 . S
H2314 C2302 0.956 . S
H2315 C2302 0.961 . S
H2316 C2302 0.961 . S
H2317 C2303 0.958 . S
H2318 C2303 0.961 . S
H2319 C2303 0.960 . S
C2320 C2321 1.391 . S
C2320 C2322 1.394 . S
C2320 H2336 0.931 . S
C2321 C2320 1.391 . S
C2321 C2325 1.376 . S
C2322 C2320 1.394 . S
C2322 C2323 1.369 . S
C2322 C2326 1.531 . S
C2323 C2322 1.369 . S
C2323 C2324 1.410 . S
C2323 C2331 1.503 . S
C2324 C2323 1.410 . S
C2324 C2325 1.392 . S
C2324 C2327 1.511 . S
C2325 C2321 1.376 . S
C2325 C2324 1.392 . S
C2325 H2337 0.929 . S
C2326 C2322 1.531 . S
C2326 H2338 0.960 . S
C2326 H2339 0.962 . S
C2326 H2340 0.960 . S
C2327 C2324 1.511 . S
C2327 H2341 0.961 . S
C2327 H2342 0.961 . S
C2327 H2343 0.961 . S
C2328 C2329 1.370 . S
C2328 C2330 1.363 . S
C2328 H2344 0.931 . S
C2329 C2328 1.370 . S
C2329 C2333 1.408 . S
C2330 C2328 1.363 . S
C2330 C2331 1.370 . S
C2330 C2334 1.524 . S
C2331 C2323 1.503 . S
C2331 C2330 1.370 . S
C2331 C2332 1.403 . S
C2332 C2331 1.403 . S
C2332 C2333 1.404 . S
C2332 C2335 1.539 . S
C2333 C2329 1.408 . S
C2333 C2332 1.404 . S
C2333 H2345 0.930 . S
C2334 C2330 1.524 . S
C2334 H2346 0.956 . S
C2334 H2347 0.961 . S
C2334 H2348 0.961 . S
C2335 C2332 1.539 . S
C2335 H2349 0.958 . S
C2335 H2350 0.961 . S
C2335 H2351 0.960 . S
H2336 C2320 0.931 . S
H2337 C2325 0.929 . S
H2338 C2326 0.960 . S
H2339 C2326 0.962 . S
H2340 C2326 0.960 . S
H2341 C2327 0.961 . S
H2342 C2327 0.961 . S
H2343 C2327 0.961 . S
H2344 C2328 0.931 . S
H2345 C2333 0.930 . S
H2346 C2334 0.956 . S
H2347 C2334 0.961 . S
H2348 C2334 0.961 . S
H2349 C2335 0.958 . S
H2350 C2335 0.961 . S
H2351 C2335 0.960 . S
C2352 C2353 1.391 . S
C2352 C2354 1.394 . S
C2352 H2368 0.931 . S
C2353 C2352 1.391 . S
C2353 C2357 1.376 . S
C2354 C2352 1.394 . S
C2354 C2355 1.369 . S
C2354 C2358 1.531 . S
C2355 C2354 1.369 . S
C2355 C2356 1.410 . S
C2355 C2363 1.503 . S
C2356 C2355 1.410 . S
C2356 C2357 1.392 . S
C2356 C2359 1.511 . S
C2357 C2353 1.376 . S
C2357 C2356 1.392 . S
C2357 H2369 0.929 . S
C2358 C2354 1.531 . S
C2358 H2370 0.960 . S
C2358 H2371 0.962 . S
C2358 H2372 0.960 . S
C2359 C2356 1.511 . S
C2359 H2373 0.961 . S
C2359 H2374 0.961 . S
C2359 H2375 0.961 . S
C2360 C2361 1.370 . S
C2360 C2362 1.363 . S
C2360 H2376 0.931 . S
C2361 C2360 1.370 . S
C2361 C2365 1.408 . S
C2362 C2360 1.363 . S
C2362 C2363 1.370 . S
C2362 C2366 1.524 . S
C2363 C2355 1.503 . S
C2363 C2362 1.370 . S
C2363 C2364 1.403 . S
C2364 C2363 1.403 . S
C2364 C2365 1.404 . S
C2364 C2367 1.539 . S
C2365 C2361 1.408 . S
C2365 C2364 1.404 . S
C2365 H2377 0.930 . S
C2366 C2362 1.524 . S
C2366 H2378 0.956 . S
C2366 H2379 0.961 . S
C2366 H2380 0.961 . S
C2367 C2364 1.539 . S
C2367 H2381 0.958 . S
C2367 H2382 0.961 . S
C2367 H2383 0.960 . S
H2368 C2352 0.931 . S
H2369 C2357 0.929 . S
H2370 C2358 0.960 . S
H2371 C2358 0.962 . S
H2372 C2358 0.960 . S
H2373 C2359 0.961 . S
H2374 C2359 0.961 . S
H2375 C2359 0.961 . S
H2376 C2360 0.931 . S
H2377 C2365 0.930 . S
H2378 C2366 0.956 . S
H2379 C2366 0.961 . S
H2380 C2366 0.961 . S
H2381 C2367 0.958 . S
H2382 C2367 0.961 . S
H2383 C2367 0.960 . S
C2384 C2385 1.391 . S
C2384 C2386 1.394 . S
C2384 H2400 0.931 . S
C2385 C2384 1.391 . S
C2385 C2389 1.376 . S
C2386 C2384 1.394 . S
C2386 C2387 1.369 . S
C2386 C2390 1.531 . S
C2387 C2386 1.369 . S
C2387 C2388 1.410 . S
C2387 C2395 1.503 . S
C2388 C2387 1.410 . S
C2388 C2389 1.392 . S
C2388 C2391 1.511 . S
C2389 C2385 1.376 . S
C2389 C2388 1.392 . S
C2389 H2401 0.929 . S
C2390 C2386 1.531 . S
C2390 H2402 0.960 . S
C2390 H2403 0.962 . S
C2390 H2404 0.960 . S
C2391 C2388 1.511 . S
C2391 H2405 0.961 . S
C2391 H2406 0.961 . S
C2391 H2407 0.961 . S
C2392 C2393 1.370 . S
C2392 C2394 1.363 . S
C2392 H2408 0.931 . S
C2393 C2392 1.370 . S
C2393 C2397 1.408 . S
C2394 C2392 1.363 . S
C2394 C2395 1.370 . S
C2394 C2398 1.524 . S
C2395 C2387 1.503 . S
C2395 C2394 1.370 . S
C2395 C2396 1.403 . S
C2396 C2395 1.403 . S
C2396 C2397 1.404 . S
C2396 C2399 1.539 . S
C2397 C2393 1.408 . S
C2397 C2396 1.404 . S
C2397 H2409 0.930 . S
C2398 C2394 1.524 . S
C2398 H2410 0.956 . S
C2398 H2411 0.961 . S
C2398 H2412 0.961 . S
C2399 C2396 1.539 . S
C2399 H2413 0.958 . S
C2399 H2414 0.961 . S
C2399 H2415 0.960 . S
H2400 C2384 0.931 . S
H2401 C2389 0.929 . S
H2402 C2390 0.960 . S
H2403 C2390 0.962 . S
H2404 C2390 0.960 . S
H2405 C2391 0.961 . S
H2406 C2391 0.961 . S
H2407 C2391 0.961 . S
H2408 C2392 0.931 . S
H2409 C2397 0.930 . S
H2410 C2398 0.956 . S
H2411 C2398 0.961 . S
H2412 C2398 0.961 . S
H2413 C2399 0.958 . S
H2414 C2399 0.961 . S
H2415 C2399 0.960 . S
C2416 C2417 1.391 . S
C2416 C2418 1.394 . S
C2416 H2432 0.931 . S
C2417 C2416 1.391 . S
C2417 C2421 1.376 . S
C2418 C2416 1.394 . S
C2418 C2419 1.369 . S
C2418 C2422 1.531 . S
C2419 C2418 1.369 . S
C2419 C2420 1.410 . S
C2419 C2427 1.503 . S
C2420 C2419 1.410 . S
C2420 C2421 1.392 . S
C2420 C2423 1.511 . S
C2421 C2417 1.376 . S
C2421 C2420 1.392 . S
C2421 H2433 0.929 . S
C2422 C2418 1.531 . S
C2422 H2434 0.960 . S
C2422 H2435 0.962 . S
C2422 H2436 0.960 . S
C2423 C2420 1.511 . S
C2423 H2437 0.961 . S
C2423 H2438 0.961 . S
C2423 H2439 0.961 . S
C2424 C2425 1.370 . S
C2424 C2426 1.363 . S
C2424 H2440 0.931 . S
C2425 C2424 1.370 . S
C2425 C2429 1.408 . S
C2426 C2424 1.363 . S
C2426 C2427 1.370 . S
C2426 C2430 1.524 . S
C2427 C2419 1.503 . S
C2427 C2426 1.370 . S
C2427 C2428 1.403 . S
C2428 C2427 1.403 . S
C2428 C2429 1.404 . S
C2428 C2431 1.539 . S
C2429 C2425 1.408 . S
C2429 C2428 1.404 . S
C2429 H2441 0.930 . S
C2430 C2426 1.524 . S
C2430 H2442 0.956 . S
C2430 H2443 0.961 . S
C2430 H2444 0.961 . S
C2431 C2428 1.539 . S
C2431 H2445 0.958 . S
C2431 H2446 0.961 . S
C2431 H2447 0.960 . S
H2432 C2416 0.931 . S
H2433 C2421 0.929 . S
H2434 C2422 0.960 . S
H2435 C2422 0.962 . S
H2436 C2422 0.960 . S
H2437 C2423 0.961 . S
H2438 C2423 0.961 . S
H2439 C2423 0.961 . S
H2440 C2424 0.931 . S
H2441 C2429 0.930 . S
H2442 C2430 0.956 . S
H2443 C2430 0.961 . S
H2444 C2430 0.961 . S
H2445 C2431 0.958 . S
H2446 C2431 0.961 . S
H2447 C2431 0.960 . S
C2448 C2449 1.391 . S
C2448 C2450 1.394 . S
C2448 H2464 0.931 . S
C2449 C2448 1.391 . S
C2449 C2453 1.376 . S
C2450 C2448 1.394 . S
C2450 C2451 1.369 . S
C2450 C2454 1.531 . S
C2451 C2450 1.369 . S
C2451 C2452 1.410 . S
C2451 C2459 1.503 . S
C2452 C2451 1.410 . S
C2452 C2453 1.392 . S
C2452 C2455 1.511 . S
C2453 C2449 1.376 . S
C2453 C2452 1.392 . S
C2453 H2465 0.929 . S
C2454 C2450 1.531 . S
C2454 H2466 0.960 . S
C2454 H2467 0.962 . S
C2454 H2468 0.960 . S
C2455 C2452 1.511 . S
C2455 H2469 0.961 . S
C2455 H2470 0.961 . S
C2455 H2471 0.961 . S
C2456 C2457 1.370 . S
C2456 C2458 1.363 . S
C2456 H2472 0.931 . S
C2457 C2456 1.370 . S
C2457 C2461 1.408 . S
C2458 C2456 1.363 . S
C2458 C2459 1.370 . S
C2458 C2462 1.524 . S
C2459 C2451 1.503 . S
C2459 C2458 1.370 . S
C2459 C2460 1.403 . S
C2460 C2459 1.403 . S
C2460 C2461 1.404 . S
C2460 C2463 1.539 . S
C2461 C2457 1.408 . S
C2461 C2460 1.404 . S
C2461 H2473 0.930 . S
C2462 C2458 1.524 . S
C2462 H2474 0.956 . S
C2462 H2475 0.961 . S
C2462 H2476 0.961 . S
C2463 C2460 1.539 . S
C2463 H2477 0.958 . S
C2463 H2478 0.961 . S
C2463 H2479 0.960 . S
H2464 C2448 0.931 . S
H2465 C2453 0.929 . S
H2466 C2454 0.960 . S
H2467 C2454 0.962 . S
H2468 C2454 0.960 . S
H2469 C2455 0.961 . S
H2470 C2455 0.961 . S
H2471 C2455 0.961 . S
H2472 C2456 0.931 . S
H2473 C2461 0.930 . S
H2474 C2462 0.956 . S
H2475 C2462 0.961 . S
H2476 C2462 0.961 . S
H2477 C2463 0.958 . S
H2478 C2463 0.961 . S
H2479 C2463 0.960 . S
C2480 C2481 1.391 . S
C2480 C2482 1.394 . S
C2480 H2496 0.933 . S
C2481 C2480 1.391 . S
C2481 C2485 1.376 . S
C2482 C2480 1.394 . S
C2482 C2483 1.369 . S
C2482 C2486 1.531 1_545 S
C2483 C2482 1.369 . S
C2483 C2484 1.410 . S
C2483 C2491 1.503 . S
C2484 C2483 1.410 . S
C2484 C2485 1.392 . S
C2484 C2487 1.511 . S
C2485 C2481 1.376 . S
C2485 C2484 1.392 . S
C2485 H2497 0.929 . S
C2486 C2482 1.531 1_565 S
C2486 H2498 0.960 . S
C2486 H2499 0.962 . S
C2486 H2500 0.960 . S
C2487 C2484 1.511 . S
C2487 H2501 0.961 . S
C2487 H2502 0.961 . S
C2487 H2503 0.961 . S
C2488 C2489 1.370 . S
C2488 C2490 1.363 . S
C2488 H2504 0.931 . S
C2489 C2488 1.370 . S
C2489 C2493 1.427 . S
C2490 C2488 1.363 . S
C2490 C2491 1.370 . S
C2490 C2494 1.524 . S
C2491 C2483 1.503 . S
C2491 C2490 1.370 . S
C2491 C2492 1.403 . S
C2492 C2491 1.403 . S
C2492 C2493 1.406 . S
C2492 C2495 1.539 1_545 S
C2493 C2489 1.427 . S
C2493 C2492 1.406 . S
C2493 H2505 0.910 1_545 S
C2494 C2490 1.524 . S
C2494 H2506 0.956 . S
C2494 H2507 0.961 . S
C2494 H2508 0.961 . S
C2495 C2492 1.539 1_565 S
C2495 H2509 0.958 . S
C2495 H2510 0.961 . S
C2495 H2511 0.960 . S
H2496 C2480 0.933 . S
H2497 C2485 0.929 . S
H2498 C2486 0.960 . S
H2499 C2486 0.962 . S
H2500 C2486 0.960 . S
H2501 C2487 0.961 . S
H2502 C2487 0.961 . S
H2503 C2487 0.961 . S
H2504 C2488 0.931 . S
H2505 C2493 0.910 1_565 S
H2506 C2494 0.956 . S
H2507 C2494 0.961 . S
H2508 C2494 0.961 . S
H2509 C2495 0.958 . S
H2510 C2495 0.961 . S
H2511 C2495 0.960 . S
C2512 C2513 1.391 . S
C2512 C2514 1.394 . S
C2512 H2528 0.931 . S
C2513 C2512 1.391 . S
C2513 C2517 1.376 . S
C2514 C2512 1.394 . S
C2514 C2515 1.369 . S
C2514 C2518 1.531 . S
C2515 C2514 1.369 . S
C2515 C2516 1.410 . S
C2515 C2523 1.503 . S
C2516 C2515 1.410 . S
C2516 C2517 1.392 . S
C2516 C2519 1.511 . S
C2517 C2513 1.376 . S
C2517 C2516 1.392 . S
C2517 H2529 0.929 . S
C2518 C2514 1.531 . S
C2518 H2530 0.960 . S
C2518 H2531 0.962 . S
C2518 H2532 0.960 . S
C2519 C2516 1.511 . S
C2519 H2533 0.961 . S
C2519 H2534 0.961 . S
C2519 H2535 0.961 . S
C2520 C2521 1.370 . S
C2520 C2522 1.363 . S
C2520 H2536 0.931 . S
C2521 C2520 1.370 . S
C2521 C2525 1.408 . S
C2522 C2520 1.363 . S
C2522 C2523 1.370 . S
C2522 C2526 1.524 . S
C2523 C2515 1.503 . S
C2523 C2522 1.370 . S
C2523 C2524 1.403 . S
C2524 C2523 1.403 . S
C2524 C2525 1.404 . S
C2524 C2527 1.539 . S
C2525 C2521 1.408 . S
C2525 C2524 1.404 . S
C2525 H2537 0.930 . S
C2526 C2522 1.524 . S
C2526 H2538 0.956 . S
C2526 H2539 0.961 . S
C2526 H2540 0.961 . S
C2527 C2524 1.539 . S
C2527 H2541 0.958 . S
C2527 H2542 0.961 . S
C2527 H2543 0.960 . S
H2528 C2512 0.931 . S
H2529 C2517 0.929 . S
H2530 C2518 0.960 . S
H2531 C2518 0.962 . S
H2532 C2518 0.960 . S
H2533 C2519 0.961 . S
H2534 C2519 0.961 . S
H2535 C2519 0.961 . S
H2536 C2520 0.931 . S
H2537 C2525 0.930 . S
H2538 C2526 0.956 . S
H2539 C2526 0.961 . S
H2540 C2526 0.961 . S
H2541 C2527 0.958 . S
H2542 C2527 0.961 . S
H2543 C2527 0.960 . S
C2544 C2545 1.391 . S
C2544 C2546 1.394 . S
C2544 H2560 0.931 . S
C2545 C2544 1.391 . S
C2545 C2549 1.376 . S
C2546 C2544 1.394 . S
C2546 C2547 1.369 . S
C2546 C2550 1.531 . S
C2547 C2546 1.369 . S
C2547 C2548 1.410 . S
C2547 C2555 1.503 . S
C2548 C2547 1.410 . S
C2548 C2549 1.392 . S
C2548 C2551 1.511 . S
C2549 C2545 1.376 . S
C2549 C2548 1.392 . S
C2549 H2561 0.929 . S
C2550 C2546 1.531 . S
C2550 H2562 0.960 . S
C2550 H2563 0.962 . S
C2550 H2564 0.960 . S
C2551 C2548 1.511 . S
C2551 H2565 0.961 . S
C2551 H2566 0.961 . S
C2551 H2567 0.961 . S
C2552 C2553 1.370 . S
C2552 C2554 1.363 . S
C2552 H2568 0.931 . S
C2553 C2552 1.370 . S
C2553 C2557 1.408 . S
C2554 C2552 1.363 . S
C2554 C2555 1.370 . S
C2554 C2558 1.524 . S
C2555 C2547 1.503 . S
C2555 C2554 1.370 . S
C2555 C2556 1.403 . S
C2556 C2555 1.403 . S
C2556 C2557 1.404 . S
C2556 C2559 1.539 . S
C2557 C2553 1.408 . S
C2557 C2556 1.404 . S
C2557 H2569 0.930 . S
C2558 C2554 1.524 . S
C2558 H2570 0.956 . S
C2558 H2571 0.961 . S
C2558 H2572 0.961 . S
C2559 C2556 1.539 . S
C2559 H2573 0.958 . S
C2559 H2574 0.961 . S
C2559 H2575 0.960 . S
H2560 C2544 0.931 . S
H2561 C2549 0.929 . S
H2562 C2550 0.960 . S
H2563 C2550 0.962 . S
H2564 C2550 0.960 . S
H2565 C2551 0.961 . S
H2566 C2551 0.961 . S
H2567 C2551 0.961 . S
H2568 C2552 0.931 . S
H2569 C2557 0.930 . S
H2570 C2558 0.956 . S
H2571 C2558 0.961 . S
H2572 C2558 0.961 . S
H2573 C2559 0.958 . S
H2574 C2559 0.961 . S
H2575 C2559 0.960 . S
C2576 C2577 1.391 . S
C2576 C2578 1.394 . S
C2576 H2592 0.931 . S
C2577 C2576 1.391 . S
C2577 C2581 1.376 . S
C2578 C2576 1.394 . S
C2578 C2579 1.369 . S
C2578 C2582 1.531 . S
C2579 C2578 1.369 . S
C2579 C2580 1.410 . S
C2579 C2587 1.503 . S
C2580 C2579 1.410 . S
C2580 C2581 1.392 . S
C2580 C2583 1.511 . S
C2581 C2577 1.376 . S
C2581 C2580 1.392 . S
C2581 H2593 0.929 . S
C2582 C2578 1.531 . S
C2582 H2594 0.960 . S
C2582 H2595 0.962 . S
C2582 H2596 0.960 . S
C2583 C2580 1.511 . S
C2583 H2597 0.961 . S
C2583 H2598 0.961 . S
C2583 H2599 0.961 . S
C2584 C2585 1.370 . S
C2584 C2586 1.363 . S
C2584 H2600 0.931 . S
C2585 C2584 1.370 . S
C2585 C2589 1.408 . S
C2586 C2584 1.363 . S
C2586 C2587 1.370 . S
C2586 C2590 1.524 . S
C2587 C2579 1.503 . S
C2587 C2586 1.370 . S
C2587 C2588 1.403 . S
C2588 C2587 1.403 . S
C2588 C2589 1.404 . S
C2588 C2591 1.539 . S
C2589 C2585 1.408 . S
C2589 C2588 1.404 . S
C2589 H2601 0.930 . S
C2590 C2586 1.524 . S
C2590 H2602 0.956 . S
C2590 H2603 0.961 . S
C2590 H2604 0.961 . S
C2591 C2588 1.539 . S
C2591 H2605 0.958 . S
C2591 H2606 0.961 . S
C2591 H2607 0.960 . S
H2592 C2576 0.931 . S
H2593 C2581 0.929 . S
H2594 C2582 0.960 . S
H2595 C2582 0.962 . S
H2596 C2582 0.960 . S
H2597 C2583 0.961 . S
H2598 C2583 0.961 . S
H2599 C2583 0.961 . S
H2600 C2584 0.931 . S
H2601 C2589 0.930 . S
H2602 C2590 0.956 . S
H2603 C2590 0.961 . S
H2604 C2590 0.961 . S
H2605 C2591 0.958 . S
H2606 C2591 0.961 . S
H2607 C2591 0.960 . S
C2608 C2609 1.391 . S
C2608 C2610 1.394 . S
C2608 H2624 0.931 . S
C2609 C2608 1.391 . S
C2609 C2613 1.376 . S
C2610 C2608 1.394 . S
C2610 C2611 1.369 . S
C2610 C2614 1.531 . S
C2611 C2610 1.369 . S
C2611 C2612 1.410 . S
C2611 C2619 1.503 . S
C2612 C2611 1.410 . S
C2612 C2613 1.392 . S
C2612 C2615 1.511 1_545 S
C2613 C2609 1.376 . S
C2613 C2612 1.392 . S
C2613 H2625 0.971 . S
C2614 C2610 1.531 . S
C2614 H2626 0.960 . S
C2614 H2627 0.962 . S
C2614 H2628 0.960 . S
C2615 C2612 1.511 1_565 S
C2615 H2629 0.961 . S
C2615 H2630 0.961 . S
C2615 H2631 0.961 . S
C2616 C2617 1.370 . S
C2616 C2618 1.363 . S
C2616 H2632 0.939 . S
C2617 C2616 1.370 . S
C2617 C2621 1.408 . S
C2618 C2616 1.363 . S
C2618 C2619 1.370 . S
C2618 C2622 1.522 . S
C2619 C2611 1.503 . S
C2619 C2618 1.370 . S
C2619 C2620 1.403 . S
C2620 C2619 1.403 . S
C2620 C2621 1.404 . S
C2620 C2623 1.539 . S
C2621 C2617 1.408 . S
C2621 C2620 1.404 . S
C2621 H2633 0.930 . S
C2622 C2618 1.522 . S
C2622 H2634 0.952 . S
C2622 H2635 0.963 1_545 S
C2622 H2636 0.964 1_545 S
C2623 C2620 1.539 . S
C2623 H2637 0.958 . S
C2623 H2638 0.961 . S
C2623 H2639 0.960 . S
H2624 C2608 0.931 . S
H2625 C2613 0.971 . S
H2626 C2614 0.960 . S
H2627 C2614 0.962 . S
H2628 C2614 0.960 . S
H2629 C2615 0.961 . S
H2630 C2615 0.961 . S
H2631 C2615 0.961 . S
H2632 C2616 0.939 . S
H2633 C2621 0.930 . S
H2634 C2622 0.952 . S
H2635 C2622 0.963 1_565 S
H2636 C2622 0.964 1_565 S
H2637 C2623 0.958 . S
H2638 C2623 0.961 . S
H2639 C2623 0.960 . S
C2640 C2641 1.391 . S
C2640 C2642 1.394 . S
C2640 H2656 0.931 . S
C2641 C2640 1.391 . S
C2641 C2645 1.376 . S
C2642 C2640 1.394 . S
C2642 C2643 1.369 . S
C2642 C2646 1.531 . S
C2643 C2642 1.369 . S
C2643 C2644 1.410 . S
C2643 C2651 1.503 . S
C2644 C2643 1.410 . S
C2644 C2645 1.392 . S
C2644 C2647 1.511 . S
C2645 C2641 1.376 . S
C2645 C2644 1.392 . S
C2645 H2657 0.929 . S
C2646 C2642 1.531 . S
C2646 H2658 0.960 . S
C2646 H2659 0.962 . S
C2646 H2660 0.960 . S
C2647 C2644 1.511 . S
C2647 H2661 0.961 . S
C2647 H2662 0.961 . S
C2647 H2663 0.961 . S
C2648 C2649 1.370 . S
C2648 C2650 1.363 . S
C2648 H2664 0.931 . S
C2649 C2648 1.370 . S
C2649 C2653 1.408 . S
C2650 C2648 1.363 . S
C2650 C2651 1.370 . S
C2650 C2654 1.524 . S
C2651 C2643 1.503 . S
C2651 C2650 1.370 . S
C2651 C2652 1.403 . S
C2652 C2651 1.403 . S
C2652 C2653 1.404 . S
C2652 C2655 1.539 . S
C2653 C2649 1.408 . S
C2653 C2652 1.404 . S
C2653 H2665 0.930 . S
C2654 C2650 1.524 . S
C2654 H2666 0.956 . S
C2654 H2667 0.961 . S
C2654 H2668 0.961 . S
C2655 C2652 1.539 . S
C2655 H2669 0.958 . S
C2655 H2670 0.961 . S
C2655 H2671 0.960 . S
H2656 C2640 0.931 . S
H2657 C2645 0.929 . S
H2658 C2646 0.960 . S
H2659 C2646 0.962 . S
H2660 C2646 0.960 . S
H2661 C2647 0.961 . S
H2662 C2647 0.961 . S
H2663 C2647 0.961 . S
H2664 C2648 0.931 . S
H2665 C2653 0.930 . S
H2666 C2654 0.956 . S
H2667 C2654 0.961 . S
H2668 C2654 0.961 . S
H2669 C2655 0.958 . S
H2670 C2655 0.961 . S
H2671 C2655 0.960 . S
C2672 C2673 1.391 . S
C2672 C2674 1.394 . S
C2672 H2688 0.931 . S
C2673 C2672 1.391 . S
C2673 C2677 1.376 . S
C2674 C2672 1.394 . S
C2674 C2675 1.369 . S
C2674 C2678 1.531 . S
C2675 C2674 1.369 . S
C2675 C2676 1.410 . S
C2675 C2683 1.503 . S
C2676 C2675 1.410 . S
C2676 C2677 1.392 . S
C2676 C2679 1.511 . S
C2677 C2673 1.376 . S
C2677 C2676 1.392 . S
C2677 H2689 0.929 . S
C2678 C2674 1.531 . S
C2678 H2690 0.960 . S
C2678 H2691 0.962 . S
C2678 H2692 0.960 . S
C2679 C2676 1.511 . S
C2679 H2693 0.961 . S
C2679 H2694 0.961 . S
C2679 H2695 0.961 . S
C2680 C2681 1.370 . S
C2680 C2682 1.363 . S
C2680 H2696 0.931 . S
C2681 C2680 1.370 . S
C2681 C2685 1.408 . S
C2682 C2680 1.363 . S
C2682 C2683 1.370 . S
C2682 C2686 1.524 . S
C2683 C2675 1.503 . S
C2683 C2682 1.370 . S
C2683 C2684 1.403 . S
C2684 C2683 1.403 . S
C2684 C2685 1.404 . S
C2684 C2687 1.539 . S
C2685 C2681 1.408 . S
C2685 C2684 1.404 . S
C2685 H2697 0.930 . S
C2686 C2682 1.524 . S
C2686 H2698 0.956 . S
C2686 H2699 0.961 . S
C2686 H2700 0.961 . S
C2687 C2684 1.539 . S
C2687 H2701 0.958 . S
C2687 H2702 0.961 . S
C2687 H2703 0.960 . S
H2688 C2672 0.931 . S
H2689 C2677 0.929 . S
H2690 C2678 0.960 . S
H2691 C2678 0.962 . S
H2692 C2678 0.960 . S
H2693 C2679 0.961 . S
H2694 C2679 0.961 . S
H2695 C2679 0.961 . S
H2696 C2680 0.931 . S
H2697 C2685 0.930 . S
H2698 C2686 0.956 . S
H2699 C2686 0.961 . S
H2700 C2686 0.961 . S
H2701 C2687 0.958 . S
H2702 C2687 0.961 . S
H2703 C2687 0.960 . S
C2704 C2705 1.391 . S
C2704 C2706 1.394 . S
C2704 H2720 0.931 . S
C2705 C2704 1.391 . S
C2705 C2709 1.376 . S
C2706 C2704 1.394 . S
C2706 C2707 1.369 . S
C2706 C2710 1.531 . S
C2707 C2706 1.369 . S
C2707 C2708 1.410 . S
C2707 C2715 1.503 . S
C2708 C2707 1.410 . S
C2708 C2709 1.392 . S
C2708 C2711 1.511 . S
C2709 C2705 1.376 . S
C2709 C2708 1.392 . S
C2709 H2721 0.929 . S
C2710 C2706 1.531 . S
C2710 H2722 0.960 . S
C2710 H2723 0.962 . S
C2710 H2724 0.960 . S
C2711 C2708 1.511 . S
C2711 H2725 0.961 . S
C2711 H2726 0.961 . S
C2711 H2727 0.961 . S
C2712 C2713 1.370 . S
C2712 C2714 1.363 . S
C2712 H2728 0.931 . S
C2713 C2712 1.370 . S
C2713 C2717 1.408 . S
C2714 C2712 1.363 . S
C2714 C2715 1.370 . S
C2714 C2718 1.524 . S
C2715 C2707 1.503 . S
C2715 C2714 1.370 . S
C2715 C2716 1.403 . S
C2716 C2715 1.403 . S
C2716 C2717 1.404 . S
C2716 C2719 1.539 . S
C2717 C2713 1.408 . S
C2717 C2716 1.404 . S
C2717 H2729 0.930 . S
C2718 C2714 1.524 . S
C2718 H2730 0.956 . S
C2718 H2731 0.961 . S
C2718 H2732 0.961 . S
C2719 C2716 1.539 . S
C2719 H2733 0.958 . S
C2719 H2734 0.961 . S
C2719 H2735 0.960 . S
H2720 C2704 0.931 . S
H2721 C2709 0.929 . S
H2722 C2710 0.960 . S
H2723 C2710 0.962 . S
H2724 C2710 0.960 . S
H2725 C2711 0.961 . S
H2726 C2711 0.961 . S
H2727 C2711 0.961 . S
H2728 C2712 0.931 . S
H2729 C2717 0.930 . S
H2730 C2718 0.956 . S
H2731 C2718 0.961 . S
H2732 C2718 0.961 . S
H2733 C2719 0.958 . S
H2734 C2719 0.961 . S
H2735 C2719 0.960 . S
C2736 C2737 1.391 . S
C2736 C2738 1.394 . S
C2736 H2752 0.931 . S
C2737 C2736 1.391 . S
C2737 C2741 1.376 . S
C2738 C2736 1.394 . S
C2738 C2739 1.369 . S
C2738 C2742 1.531 1_655 S
C2739 C2738 1.369 . S
C2739 C2740 1.410 . S
C2739 C2747 1.503 . S
C2740 C2739 1.410 . S
C2740 C2741 1.392 . S
C2740 C2743 1.511 . S
C2741 C2737 1.376 . S
C2741 C2740 1.392 . S
C2741 H2753 0.929 . S
C2742 C2738 1.531 1_455 S
C2742 H2754 0.960 . S
C2742 H2755 0.962 1_455 S
C2742 H2756 0.960 . S
C2743 C2740 1.511 . S
C2743 H2757 0.961 . S
C2743 H2758 0.961 . S
C2743 H2759 0.961 . S
C2744 C2745 1.370 . S
C2744 C2746 1.363 . S
C2744 H2760 0.931 . S
C2745 C2744 1.370 . S
C2745 C2749 1.408 1_655 S
C2746 C2744 1.363 . S
C2746 C2747 1.370 . S
C2746 C2750 1.524 . S
C2747 C2739 1.503 . S
C2747 C2746 1.370 . S
C2747 C2748 1.403 1_655 S
C2748 C2747 1.403 1_455 S
C2748 C2749 1.404 . S
C2748 C2751 1.539 . S
C2749 C2745 1.408 1_455 S
C2749 C2748 1.404 . S
C2749 H2761 0.930 . S
C2750 C2746 1.524 . S
C2750 H2762 0.956 . S
C2750 H2763 0.961 . S
C2750 H2764 0.961 . S
C2751 C2748 1.539 . S
C2751 H2765 0.958 . S
C2751 H2766 0.961 . S
C2751 H2767 0.960 . S
H2752 C2736 0.931 . S
H2753 C2741 0.929 . S
H2754 C2742 0.960 . S
H2755 C2742 0.962 1_655 S
H2756 C2742 0.960 . S
H2757 C2743 0.961 . S
H2758 C2743 0.961 . S
H2759 C2743 0.961 . S
H2760 C2744 0.931 . S
H2761 C2749 0.930 . S
H2762 C2750 0.956 . S
H2763 C2750 0.961 . S
H2764 C2750 0.961 . S
H2765 C2751 0.958 . S
H2766 C2751 0.961 . S
H2767 C2751 0.960 . S
C2768 C2769 1.391 . S
C2768 C2770 1.394 . S
C2768 H2784 0.931 . S
C2769 C2768 1.391 . S
C2769 C2773 1.376 . S
C2770 C2768 1.394 . S
C2770 C2771 1.369 . S
C2770 C2774 1.531 . S
C2771 C2770 1.369 . S
C2771 C2772 1.410 . S
C2771 C2779 1.503 . S
C2772 C2771 1.410 . S
C2772 C2773 1.392 . S
C2772 C2775 1.511 . S
C2773 C2769 1.376 . S
C2773 C2772 1.392 . S
C2773 H2785 0.929 . S
C2774 C2770 1.531 . S
C2774 H2786 0.960 . S
C2774 H2787 0.962 . S
C2774 H2788 0.960 . S
C2775 C2772 1.511 . S
C2775 H2789 0.961 . S
C2775 H2790 0.961 . S
C2775 H2791 0.961 . S
C2776 C2777 1.370 . S
C2776 C2778 1.363 . S
C2776 H2792 0.931 . S
C2777 C2776 1.370 . S
C2777 C2781 1.408 . S
C2778 C2776 1.363 . S
C2778 C2779 1.370 . S
C2778 C2782 1.524 . S
C2779 C2771 1.503 . S
C2779 C2778 1.370 . S
C2779 C2780 1.403 . S
C2780 C2779 1.403 . S
C2780 C2781 1.404 . S
C2780 C2783 1.539 . S
C2781 C2777 1.408 . S
C2781 C2780 1.404 . S
C2781 H2793 0.930 . S
C2782 C2778 1.524 . S
C2782 H2794 0.956 . S
C2782 H2795 0.961 . S
C2782 H2796 0.961 . S
C2783 C2780 1.539 . S
C2783 H2797 0.958 . S
C2783 H2798 0.961 . S
C2783 H2799 0.960 . S
H2784 C2768 0.931 . S
H2785 C2773 0.929 . S
H2786 C2774 0.960 . S
H2787 C2774 0.962 . S
H2788 C2774 0.960 . S
H2789 C2775 0.961 . S
H2790 C2775 0.961 . S
H2791 C2775 0.961 . S
H2792 C2776 0.931 . S
H2793 C2781 0.930 . S
H2794 C2782 0.956 . S
H2795 C2782 0.961 . S
H2796 C2782 0.961 . S
H2797 C2783 0.958 . S
H2798 C2783 0.961 . S
H2799 C2783 0.960 . S
C2800 C2801 1.391 . S
C2800 C2802 1.394 . S
C2800 H2816 0.931 1_455 S
C2801 C2800 1.391 . S
C2801 C2805 1.376 . S
C2802 C2800 1.394 . S
C2802 C2803 1.369 . S
C2802 C2806 1.531 1_455 S
C2803 C2802 1.369 . S
C2803 C2804 1.410 . S
C2803 C2811 1.503 . S
C2804 C2803 1.410 . S
C2804 C2805 1.392 . S
C2804 C2807 1.511 . S
C2805 C2801 1.376 . S
C2805 C2804 1.392 . S
C2805 H2817 0.929 . S
C2806 C2802 1.531 1_655 S
C2806 H2818 0.960 . S
C2806 H2819 0.962 . S
C2806 H2820 0.960 . S
C2807 C2804 1.511 . S
C2807 H2821 0.961 . S
C2807 H2822 0.961 . S
C2807 H2823 0.961 . S
C2808 C2809 1.370 . S
C2808 C2810 1.363 . S
C2808 H2824 0.931 . S
C2809 C2808 1.370 . S
C2809 C2813 1.408 . S
C2810 C2808 1.363 . S
C2810 C2811 1.370 . S
C2810 C2814 1.524 . S
C2811 C2803 1.503 . S
C2811 C2810 1.370 . S
C2811 C2812 1.403 . S
C2812 C2811 1.403 . S
C2812 C2813 1.404 . S
C2812 C2815 1.539 1_455 S
C2813 C2809 1.408 . S
C2813 C2812 1.404 . S
C2813 H2825 0.930 1_455 S
C2814 C2810 1.524 . S
C2814 H2826 0.956 . S
C2814 H2827 0.961 . S
C2814 H2828 0.961 . S
C2815 C2812 1.539 1_655 S
C2815 H2829 0.958 . S
C2815 H2830 0.961 . S
C2815 H2831 0.960 . S
H2816 C2800 0.931 1_655 S
H2817 C2805 0.929 . S
H2818 C2806 0.960 . S
H2819 C2806 0.962 . S
H2820 C2806 0.960 . S
H2821 C2807 0.961 . S
H2822 C2807 0.961 . S
H2823 C2807 0.961 . S
H2824 C2808 0.931 . S
H2825 C2813 0.930 1_655 S
H2826 C2814 0.956 . S
H2827 C2814 0.961 . S
H2828 C2814 0.961 . S
H2829 C2815 0.958 . S
H2830 C2815 0.961 . S
H2831 C2815 0.960 . S
C2832 C2833 1.391 . S
C2832 C2834 1.394 . S
C2832 H2848 0.931 . S
C2833 C2832 1.391 . S
C2833 C2837 1.376 . S
C2834 C2832 1.394 . S
C2834 C2835 1.369 . S
C2834 C2838 1.531 . S
C2835 C2834 1.369 . S
C2835 C2836 1.410 . S
C2835 C2843 1.503 . S
C2836 C2835 1.410 . S
C2836 C2837 1.392 . S
C2836 C2839 1.511 . S
C2837 C2833 1.376 . S
C2837 C2836 1.392 . S
C2837 H2849 0.929 . S
C2838 C2834 1.531 . S
C2838 H2850 0.960 . S
C2838 H2851 0.962 . S
C2838 H2852 0.960 . S
C2839 C2836 1.511 . S
C2839 H2853 0.961 . S
C2839 H2854 0.961 . S
C2839 H2855 0.961 . S
C2840 C2841 1.370 . S
C2840 C2842 1.363 . S
C2840 H2856 0.931 . S
C2841 C2840 1.370 . S
C2841 C2845 1.408 . S
C2842 C2840 1.363 . S
C2842 C2843 1.370 . S
C2842 C2846 1.524 . S
C2843 C2835 1.503 . S
C2843 C2842 1.370 . S
C2843 C2844 1.403 . S
C2844 C2843 1.403 . S
C2844 C2845 1.404 . S
C2844 C2847 1.539 . S
C2845 C2841 1.408 . S
C2845 C2844 1.404 . S
C2845 H2857 0.930 . S
C2846 C2842 1.524 . S
C2846 H2858 0.956 . S
C2846 H2859 0.961 . S
C2846 H2860 0.961 . S
C2847 C2844 1.539 . S
C2847 H2861 0.958 . S
C2847 H2862 0.961 . S
C2847 H2863 0.960 . S
H2848 C2832 0.931 . S
H2849 C2837 0.929 . S
H2850 C2838 0.960 . S
H2851 C2838 0.962 . S
H2852 C2838 0.960 . S
H2853 C2839 0.961 . S
H2854 C2839 0.961 . S
H2855 C2839 0.961 . S
H2856 C2840 0.931 . S
H2857 C2845 0.930 . S
H2858 C2846 0.956 . S
H2859 C2846 0.961 . S
H2860 C2846 0.961 . S
H2861 C2847 0.958 . S
H2862 C2847 0.961 . S
H2863 C2847 0.960 . S
C2864 C2865 1.391 . S
C2864 C2866 1.394 . S
C2864 H2880 0.931 . S
C2865 C2864 1.391 . S
C2865 C2869 1.376 . S
C2866 C2864 1.394 . S
C2866 C2867 1.369 . S
C2866 C2870 1.531 . S
C2867 C2866 1.369 . S
C2867 C2868 1.410 . S
C2867 C2875 1.503 . S
C2868 C2867 1.410 . S
C2868 C2869 1.392 . S
C2868 C2871 1.511 . S
C2869 C2865 1.376 . S
C2869 C2868 1.392 . S
C2869 H2881 0.929 . S
C2870 C2866 1.531 . S
C2870 H2882 0.960 . S
C2870 H2883 0.962 . S
C2870 H2884 0.960 . S
C2871 C2868 1.511 . S
C2871 H2885 0.961 . S
C2871 H2886 0.961 . S
C2871 H2887 0.961 . S
C2872 C2873 1.370 . S
C2872 C2874 1.363 . S
C2872 H2888 0.931 . S
C2873 C2872 1.370 . S
C2873 C2877 1.408 . S
C2874 C2872 1.363 . S
C2874 C2875 1.370 . S
C2874 C2878 1.524 . S
C2875 C2867 1.503 . S
C2875 C2874 1.370 . S
C2875 C2876 1.403 . S
C2876 C2875 1.403 . S
C2876 C2877 1.404 . S
C2876 C2879 1.539 . S
C2877 C2873 1.408 . S
C2877 C2876 1.404 . S
C2877 H2889 0.930 . S
C2878 C2874 1.524 . S
C2878 H2890 0.956 . S
C2878 H2891 0.961 . S
C2878 H2892 0.961 . S
C2879 C2876 1.539 . S
C2879 H2893 0.958 . S
C2879 H2894 0.961 . S
C2879 H2895 0.960 . S
H2880 C2864 0.931 . S
H2881 C2869 0.929 . S
H2882 C2870 0.960 . S
H2883 C2870 0.962 . S
H2884 C2870 0.960 . S
H2885 C2871 0.961 . S
H2886 C2871 0.961 . S
H2887 C2871 0.961 . S
H2888 C2872 0.931 . S
H2889 C2877 0.930 . S
H2890 C2878 0.956 . S
H2891 C2878 0.961 . S
H2892 C2878 0.961 . S
H2893 C2879 0.958 . S
H2894 C2879 0.961 . S
H2895 C2879 0.960 . S
C2896 C2897 1.391 . S
C2896 C2898 1.394 . S
C2896 H2912 0.931 . S
C2897 C2896 1.391 . S
C2897 C2901 1.376 . S
C2898 C2896 1.394 . S
C2898 C2899 1.369 . S
C2898 C2902 1.531 . S
C2899 C2898 1.369 . S
C2899 C2900 1.410 . S
C2899 C2907 1.503 . S
C2900 C2899 1.410 . S
C2900 C2901 1.392 . S
C2900 C2903 1.511 . S
C2901 C2897 1.376 . S
C2901 C2900 1.392 . S
C2901 H2913 0.929 . S
C2902 C2898 1.531 . S
C2902 H2914 0.960 . S
C2902 H2915 0.962 . S
C2902 H2916 0.960 . S
C2903 C2900 1.511 . S
C2903 H2917 0.961 . S
C2903 H2918 0.961 . S
C2903 H2919 0.961 . S
C2904 C2905 1.370 . S
C2904 C2906 1.363 . S
C2904 H2920 0.931 . S
C2905 C2904 1.370 . S
C2905 C2909 1.408 . S
C2906 C2904 1.363 . S
C2906 C2907 1.370 . S
C2906 C2910 1.524 . S
C2907 C2899 1.503 . S
C2907 C2906 1.370 . S
C2907 C2908 1.403 . S
C2908 C2907 1.403 . S
C2908 C2909 1.404 . S
C2908 C2911 1.539 . S
C2909 C2905 1.408 . S
C2909 C2908 1.404 . S
C2909 H2921 0.930 . S
C2910 C2906 1.524 . S
C2910 H2922 0.956 . S
C2910 H2923 0.961 . S
C2910 H2924 0.961 . S
C2911 C2908 1.539 . S
C2911 H2925 0.958 . S
C2911 H2926 0.961 . S
C2911 H2927 0.960 . S
H2912 C2896 0.931 . S
H2913 C2901 0.929 . S
H2914 C2902 0.960 . S
H2915 C2902 0.962 . S
H2916 C2902 0.960 . S
H2917 C2903 0.961 . S
H2918 C2903 0.961 . S
H2919 C2903 0.961 . S
H2920 C2904 0.931 . S
H2921 C2909 0.930 . S
H2922 C2910 0.956 . S
H2923 C2910 0.961 . S
H2924 C2910 0.961 . S
H2925 C2911 0.958 . S
H2926 C2911 0.961 . S
H2927 C2911 0.960 . S
C2928 C2929 1.391 . S
C2928 C2930 1.394 . S
C2928 H2944 0.931 . S
C2929 C2928 1.391 . S
C2929 C2933 1.376 . S
C2930 C2928 1.394 . S
C2930 C2931 1.369 . S
C2930 C2934 1.531 . S
C2931 C2930 1.369 . S
C2931 C2932 1.410 . S
C2931 C2939 1.503 . S
C2932 C2931 1.410 . S
C2932 C2933 1.392 . S
C2932 C2935 1.511 . S
C2933 C2929 1.376 . S
C2933 C2932 1.392 . S
C2933 H2945 0.929 . S
C2934 C2930 1.531 . S
C2934 H2946 0.960 . S
C2934 H2947 0.962 . S
C2934 H2948 0.960 . S
C2935 C2932 1.511 . S
C2935 H2949 0.961 . S
C2935 H2950 0.961 . S
C2935 H2951 0.961 . S
C2936 C2937 1.370 . S
C2936 C2938 1.363 . S
C2936 H2952 0.931 . S
C2937 C2936 1.370 . S
C2937 C2941 1.408 . S
C2938 C2936 1.363 . S
C2938 C2939 1.370 . S
C2938 C2942 1.524 . S
C2939 C2931 1.503 . S
C2939 C2938 1.370 . S
C2939 C2940 1.403 . S
C2940 C2939 1.403 . S
C2940 C2941 1.404 . S
C2940 C2943 1.539 . S
C2941 C2937 1.408 . S
C2941 C2940 1.404 . S
C2941 H2953 0.930 . S
C2942 C2938 1.524 . S
C2942 H2954 0.956 . S
C2942 H2955 0.961 . S
C2942 H2956 0.961 . S
C2943 C2940 1.539 . S
C2943 H2957 0.958 . S
C2943 H2958 0.961 . S
C2943 H2959 0.960 . S
H2944 C2928 0.931 . S
H2945 C2933 0.929 . S
H2946 C2934 0.960 . S
H2947 C2934 0.962 . S
H2948 C2934 0.960 . S
H2949 C2935 0.961 . S
H2950 C2935 0.961 . S
H2951 C2935 0.961 . S
H2952 C2936 0.931 . S
H2953 C2941 0.930 . S
H2954 C2942 0.956 . S
H2955 C2942 0.961 . S
H2956 C2942 0.961 . S
H2957 C2943 0.958 . S
H2958 C2943 0.961 . S
H2959 C2943 0.960 . S
C2960 C2961 1.391 . S
C2960 C2962 1.394 . S
C2960 H2976 0.931 . S
C2961 C2960 1.391 . S
C2961 C2965 1.376 . S
C2962 C2960 1.394 . S
C2962 C2963 1.369 . S
C2962 C2966 1.531 . S
C2963 C2962 1.369 . S
C2963 C2964 1.410 . S
C2963 C2971 1.503 . S
C2964 C2963 1.410 . S
C2964 C2965 1.392 . S
C2964 C2967 1.511 . S
C2965 C2961 1.376 . S
C2965 C2964 1.392 . S
C2965 H2977 0.929 . S
C2966 C2962 1.531 . S
C2966 H2978 0.960 . S
C2966 H2979 0.962 . S
C2966 H2980 0.960 . S
C2967 C2964 1.511 . S
C2967 H2981 0.961 . S
C2967 H2982 0.961 . S
C2967 H2983 0.961 . S
C2968 C2969 1.370 . S
C2968 C2970 1.363 . S
C2968 H2984 0.931 . S
C2969 C2968 1.370 . S
C2969 C2973 1.408 . S
C2970 C2968 1.363 . S
C2970 C2971 1.370 . S
C2970 C2974 1.524 . S
C2971 C2963 1.503 . S
C2971 C2970 1.370 . S
C2971 C2972 1.403 . S
C2972 C2971 1.403 . S
C2972 C2973 1.404 . S
C2972 C2975 1.539 . S
C2973 C2969 1.408 . S
C2973 C2972 1.404 . S
C2973 H2985 0.930 . S
C2974 C2970 1.524 . S
C2974 H2986 0.956 . S
C2974 H2987 0.961 . S
C2974 H2988 0.961 . S
C2975 C2972 1.539 . S
C2975 H2989 0.958 . S
C2975 H2990 0.961 . S
C2975 H2991 0.960 . S
H2976 C2960 0.931 . S
H2977 C2965 0.929 . S
H2978 C2966 0.960 . S
H2979 C2966 0.962 . S
H2980 C2966 0.960 . S
H2981 C2967 0.961 . S
H2982 C2967 0.961 . S
H2983 C2967 0.961 . S
H2984 C2968 0.931 . S
H2985 C2973 0.930 . S
H2986 C2974 0.956 . S
H2987 C2974 0.961 . S
H2988 C2974 0.961 . S
H2989 C2975 0.958 . S
H2990 C2975 0.961 . S
H2991 C2975 0.960 . S
C2992 C2993 1.391 . S
C2992 C2994 1.394 . S
C2992 H3008 0.931 . S
C2993 C2992 1.391 . S
C2993 C2997 1.376 . S
C2994 C2992 1.394 . S
C2994 C2995 1.369 . S
C2994 C2998 1.531 . S
C2995 C2994 1.369 . S
C2995 C2996 1.410 . S
C2995 C3003 1.503 . S
C2996 C2995 1.410 . S
C2996 C2997 1.392 . S
C2996 C2999 1.511 . S
C2997 C2993 1.376 . S
C2997 C2996 1.392 . S
C2997 H3009 0.929 . S
C2998 C2994 1.531 . S
C2998 H3010 0.960 . S
C2998 H3011 0.962 . S
C2998 H3012 0.960 . S
C2999 C2996 1.511 . S
C2999 H3013 0.961 . S
C2999 H3014 0.961 . S
C2999 H3015 0.961 . S
C3000 C3001 1.370 . S
C3000 C3002 1.363 . S
C3000 H3016 0.931 . S
C3001 C3000 1.370 . S
C3001 C3005 1.408 . S
C3002 C3000 1.363 . S
C3002 C3003 1.370 . S
C3002 C3006 1.524 . S
C3003 C2995 1.503 . S
C3003 C3002 1.370 . S
C3003 C3004 1.403 . S
C3004 C3003 1.403 . S
C3004 C3005 1.404 . S
C3004 C3007 1.539 . S
C3005 C3001 1.408 . S
C3005 C3004 1.404 . S
C3005 H3017 0.930 . S
C3006 C3002 1.524 . S
C3006 H3018 0.956 . S
C3006 H3019 0.961 . S
C3006 H3020 0.961 . S
C3007 C3004 1.539 . S
C3007 H3021 0.958 . S
C3007 H3022 0.961 . S
C3007 H3023 0.960 . S
H3008 C2992 0.931 . S
H3009 C2997 0.929 . S
H3010 C2998 0.960 . S
H3011 C2998 0.962 . S
H3012 C2998 0.960 . S
H3013 C2999 0.961 . S
H3014 C2999 0.961 . S
H3015 C2999 0.961 . S
H3016 C3000 0.931 . S
H3017 C3005 0.930 . S
H3018 C3006 0.956 . S
H3019 C3006 0.961 . S
H3020 C3006 0.961 . S
H3021 C3007 0.958 . S
H3022 C3007 0.961 . S
H3023 C3007 0.960 . S
C3024 C3025 1.391 . S
C3024 C3026 1.394 . S
C3024 H3040 0.931 . S
C3025 C3024 1.391 . S
C3025 C3029 1.376 . S
C3026 C3024 1.394 . S
C3026 C3027 1.369 . S
C3026 C3030 1.531 . S
C3027 C3026 1.369 . S
C3027 C3028 1.410 . S
C3027 C3035 1.503 . S
C3028 C3027 1.410 . S
C3028 C3029 1.392 . S
C3028 C3031 1.511 . S
C3029 C3025 1.376 . S
C3029 C3028 1.392 . S
C3029 H3041 0.929 . S
C3030 C3026 1.531 . S
C3030 H3042 0.960 . S
C3030 H3043 0.962 . S
C3030 H3044 0.960 . S
C3031 C3028 1.511 . S
C3031 H3045 0.961 . S
C3031 H3046 0.961 . S
C3031 H3047 0.961 . S
C3032 C3033 1.370 . S
C3032 C3034 1.363 . S
C3032 H3048 0.931 . S
C3033 C3032 1.370 . S
C3033 C3037 1.408 . S
C3034 C3032 1.363 . S
C3034 C3035 1.370 . S
C3034 C3038 1.524 . S
C3035 C3027 1.503 . S
C3035 C3034 1.370 . S
C3035 C3036 1.403 . S
C3036 C3035 1.403 . S
C3036 C3037 1.404 . S
C3036 C3039 1.539 . S
C3037 C3033 1.408 . S
C3037 C3036 1.404 . S
C3037 H3049 0.930 . S
C3038 C3034 1.524 . S
C3038 H3050 0.956 . S
C3038 H3051 0.961 . S
C3038 H3052 0.961 . S
C3039 C3036 1.539 . S
C3039 H3053 0.958 . S
C3039 H3054 0.961 . S
C3039 H3055 0.960 . S
H3040 C3024 0.931 . S
H3041 C3029 0.929 . S
H3042 C3030 0.960 . S
H3043 C3030 0.962 . S
H3044 C3030 0.960 . S
H3045 C3031 0.961 . S
H3046 C3031 0.961 . S
H3047 C3031 0.961 . S
H3048 C3032 0.931 . S
H3049 C3037 0.930 . S
H3050 C3038 0.956 . S
H3051 C3038 0.961 . S
H3052 C3038 0.961 . S
H3053 C3039 0.958 . S
H3054 C3039 0.961 . S
H3055 C3039 0.960 . S
C3056 C3057 1.391 . S
C3056 C3058 1.394 . S
C3056 H3072 0.931 . S
C3057 C3056 1.391 . S
C3057 C3061 1.376 . S
C3058 C3056 1.394 . S
C3058 C3059 1.369 . S
C3058 C3062 1.531 . S
C3059 C3058 1.369 . S
C3059 C3060 1.410 . S
C3059 C3067 1.503 . S
C3060 C3059 1.410 . S
C3060 C3061 1.392 . S
C3060 C3063 1.511 . S
C3061 C3057 1.376 . S
C3061 C3060 1.392 . S
C3061 H3073 0.929 . S
C3062 C3058 1.531 . S
C3062 H3074 0.960 . S
C3062 H3075 0.962 . S
C3062 H3076 0.960 . S
C3063 C3060 1.511 . S
C3063 H3077 0.961 . S
C3063 H3078 0.961 . S
C3063 H3079 0.961 . S
C3064 C3065 1.370 . S
C3064 C3066 1.363 . S
C3064 H3080 0.931 . S
C3065 C3064 1.370 . S
C3065 C3069 1.408 . S
C3066 C3064 1.363 . S
C3066 C3067 1.370 . S
C3066 C3070 1.524 . S
C3067 C3059 1.503 . S
C3067 C3066 1.370 . S
C3067 C3068 1.403 . S
C3068 C3067 1.403 . S
C3068 C3069 1.404 . S
C3068 C3071 1.539 . S
C3069 C3065 1.408 . S
C3069 C3068 1.404 . S
C3069 H3081 0.930 . S
C3070 C3066 1.524 . S
C3070 H3082 0.956 . S
C3070 H3083 0.961 . S
C3070 H3084 0.961 . S
C3071 C3068 1.539 . S
C3071 H3085 0.958 . S
C3071 H3086 0.961 . S
C3071 H3087 0.960 . S
H3072 C3056 0.931 . S
H3073 C3061 0.929 . S
H3074 C3062 0.960 . S
H3075 C3062 0.962 . S
H3076 C3062 0.960 . S
H3077 C3063 0.961 . S
H3078 C3063 0.961 . S
H3079 C3063 0.961 . S
H3080 C3064 0.931 . S
H3081 C3069 0.930 . S
H3082 C3070 0.956 . S
H3083 C3070 0.961 . S
H3084 C3070 0.961 . S
H3085 C3071 0.958 . S
H3086 C3071 0.961 . S
H3087 C3071 0.960 . S
C3088 C3089 1.391 . S
C3088 C3090 1.394 . S
C3088 H3104 0.931 . S
C3089 C3088 1.391 . S
C3089 C3093 1.376 . S
C3090 C3088 1.394 . S
C3090 C3091 1.369 . S
C3090 C3094 1.531 1_556 S
C3091 C3090 1.369 . S
C3091 C3092 1.410 . S
C3091 C3099 1.503 . S
C3092 C3091 1.410 . S
C3092 C3093 1.392 . S
C3092 C3095 1.511 . S
C3093 C3089 1.376 . S
C3093 C3092 1.392 . S
C3093 H3105 0.929 . S
C3094 C3090 1.531 1_554 S
C3094 H3106 0.960 . S
C3094 H3107 0.961 . S
C3094 H3108 0.960 . S
C3095 C3092 1.511 . S
C3095 H3109 0.961 . S
C3095 H3110 0.961 . S
C3095 H3111 0.961 . S
C3096 C3097 1.370 . S
C3096 C3098 1.363 . S
C3096 H3112 0.931 . S
C3097 C3096 1.370 . S
C3097 C3101 1.408 1_556 S
C3098 C3096 1.363 . S
C3098 C3099 1.370 . S
C3098 C3102 1.524 . S
C3099 C3091 1.503 . S
C3099 C3098 1.370 . S
C3099 C3100 1.403 1_556 S
C3100 C3099 1.403 1_554 S
C3100 C3101 1.404 . S
C3100 C3103 1.539 . S
C3101 C3097 1.408 1_554 S
C3101 C3100 1.404 . S
C3101 H3113 0.930 . S
C3102 C3098 1.524 . S
C3102 H3114 0.956 . S
C3102 H3115 0.961 . S
C3102 H3116 0.961 . S
C3103 C3100 1.539 . S
C3103 H3117 0.958 . S
C3103 H3118 0.961 . S
C3103 H3119 0.960 . S
H3104 C3088 0.931 . S
H3105 C3093 0.929 . S
H3106 C3094 0.960 . S
H3107 C3094 0.961 . S
H3108 C3094 0.960 . S
H3109 C3095 0.961 . S
H3110 C3095 0.961 . S
H3111 C3095 0.961 . S
H3112 C3096 0.931 . S
H3113 C3101 0.930 . S
H3114 C3102 0.956 . S
H3115 C3102 0.961 . S
H3116 C3102 0.961 . S
H3117 C3103 0.958 . S
H3118 C3103 0.961 . S
H3119 C3103 0.960 . S
C3120 C3121 1.391 . S
C3120 C3122 1.394 . S
C3120 H3136 0.931 . S
C3121 C3120 1.391 . S
C3121 C3125 1.376 . S
C3122 C3120 1.394 . S
C3122 C3123 1.369 . S
C3122 C3126 1.531 . S
C3123 C3122 1.369 . S
C3123 C3124 1.410 . S
C3123 C3131 1.503 . S
C3124 C3123 1.410 . S
C3124 C3125 1.392 . S
C3124 C3127 1.511 . S
C3125 C3121 1.376 . S
C3125 C3124 1.392 . S
C3125 H3137 0.929 . S
C3126 C3122 1.531 . S
C3126 H3138 0.960 . S
C3126 H3139 0.962 . S
C3126 H3140 0.960 . S
C3127 C3124 1.511 . S
C3127 H3141 0.961 . S
C3127 H3142 0.961 . S
C3127 H3143 0.961 . S
C3128 C3129 1.370 . S
C3128 C3130 1.363 . S
C3128 H3144 0.931 . S
C3129 C3128 1.370 . S
C3129 C3133 1.408 . S
C3130 C3128 1.363 . S
C3130 C3131 1.370 . S
C3130 C3134 1.524 . S
C3131 C3123 1.503 . S
C3131 C3130 1.370 . S
C3131 C3132 1.403 . S
C3132 C3131 1.403 . S
C3132 C3133 1.404 . S
C3132 C3135 1.539 . S
C3133 C3129 1.408 . S
C3133 C3132 1.404 . S
C3133 H3145 0.930 . S
C3134 C3130 1.524 . S
C3134 H3146 0.956 . S
C3134 H3147 0.961 . S
C3134 H3148 0.961 . S
C3135 C3132 1.539 . S
C3135 H3149 0.958 . S
C3135 H3150 0.961 . S
C3135 H3151 0.960 . S
H3136 C3120 0.931 . S
H3137 C3125 0.929 . S
H3138 C3126 0.960 . S
H3139 C3126 0.962 . S
H3140 C3126 0.960 . S
H3141 C3127 0.961 . S
H3142 C3127 0.961 . S
H3143 C3127 0.961 . S
H3144 C3128 0.931 . S
H3145 C3133 0.930 . S
H3146 C3134 0.956 . S
H3147 C3134 0.961 . S
H3148 C3134 0.961 . S
H3149 C3135 0.958 . S
H3150 C3135 0.961 . S
H3151 C3135 0.960 . S
C3152 C3153 1.391 . S
C3152 C3154 1.394 . S
C3152 H3168 0.931 . S
C3153 C3152 1.391 . S
C3153 C3157 1.376 . S
C3154 C3152 1.394 . S
C3154 C3155 1.369 . S
C3154 C3158 1.531 . S
C3155 C3154 1.369 . S
C3155 C3156 1.410 . S
C3155 C3163 1.503 . S
C3156 C3155 1.410 . S
C3156 C3157 1.392 . S
C3156 C3159 1.511 1_554 S
C3157 C3153 1.376 . S
C3157 C3156 1.392 . S
C3157 H3169 0.929 1_554 S
C3158 C3154 1.531 . S
C3158 H3170 0.960 . S
C3158 H3171 0.962 . S
C3158 H3172 0.960 . S
C3159 C3156 1.511 1_556 S
C3159 H3173 0.961 . S
C3159 H3174 0.961 . S
C3159 H3175 0.961 . S
C3160 C3161 1.370 . S
C3160 C3162 1.363 . S
C3160 H3176 0.931 . S
C3161 C3160 1.370 . S
C3161 C3165 1.408 . S
C3162 C3160 1.363 . S
C3162 C3163 1.370 . S
C3162 C3166 1.524 . S
C3163 C3155 1.503 . S
C3163 C3162 1.370 . S
C3163 C3164 1.403 . S
C3164 C3163 1.403 . S
C3164 C3165 1.404 . S
C3164 C3167 1.539 . S
C3165 C3161 1.408 . S
C3165 C3164 1.404 . S
C3165 H3177 0.930 . S
C3166 C3162 1.524 . S
C3166 H3178 0.956 . S
C3166 H3179 0.961 . S
C3166 H3180 0.961 . S
C3167 C3164 1.539 . S
C3167 H3181 0.958 . S
C3167 H3182 0.961 . S
C3167 H3183 0.960 . S
H3168 C3152 0.931 . S
H3169 C3157 0.929 1_556 S
H3170 C3158 0.960 . S
H3171 C3158 0.962 . S
H3172 C3158 0.960 . S
H3173 C3159 0.961 . S
H3174 C3159 0.961 . S
H3175 C3159 0.961 . S
H3176 C3160 0.931 . S
H3177 C3165 0.930 . S
H3178 C3166 0.956 . S
H3179 C3166 0.961 . S
H3180 C3166 0.961 . S
H3181 C3167 0.958 . S
H3182 C3167 0.961 . S
H3183 C3167 0.960 . S
C3184 C3185 1.391 . S
C3184 C3186 1.394 . S
C3184 H3200 0.931 1_554 S
C3185 C3184 1.391 . S
C3185 C3189 1.376 . S
C3186 C3184 1.394 . S
C3186 C3187 1.369 . S
C3186 C3190 1.531 1_554 S
C3187 C3186 1.369 . S
C3187 C3188 1.410 . S
C3187 C3195 1.503 . S
C3188 C3187 1.410 . S
C3188 C3189 1.392 . S
C3188 C3191 1.511 . S
C3189 C3185 1.376 . S
C3189 C3188 1.392 . S
C3189 H3201 0.929 . S
C3190 C3186 1.531 1_556 S
C3190 H3202 0.960 . S
C3190 H3203 0.962 . S
C3190 H3204 0.960 . S
C3191 C3188 1.511 . S
C3191 H3205 0.961 . S
C3191 H3206 0.961 . S
C3191 H3207 0.961 . S
C3192 C3193 1.370 . S
C3192 C3194 1.363 . S
C3192 H3208 0.937 . S
C3193 C3192 1.370 . S
C3193 C3197 1.408 . S
C3194 C3192 1.363 . S
C3194 C3195 1.370 . S
C3194 C3198 1.524 . S
C3195 C3187 1.503 . S
C3195 C3194 1.370 . S
C3195 C3196 1.403 . S
C3196 C3195 1.403 . S
C3196 C3197 1.404 . S
C3196 C3199 1.539 . S
C3197 C3193 1.408 . S
C3197 C3196 1.404 . S
C3197 H3209 0.930 . S
C3198 C3194 1.524 . S
C3198 H3210 0.956 1_554 S
C3198 H3211 0.961 . S
C3198 H3212 0.961 1_554 S
C3199 C3196 1.539 . S
C3199 H3213 0.958 . S
C3199 H3214 0.961 . S
C3199 H3215 0.960 . S
H3200 C3184 0.931 1_556 S
H3201 C3189 0.929 . S
H3202 C3190 0.960 . S
H3203 C3190 0.962 . S
H3204 C3190 0.960 . S
H3205 C3191 0.961 . S
H3206 C3191 0.961 . S
H3207 C3191 0.961 . S
H3208 C3192 0.937 . S
H3209 C3197 0.930 . S
H3210 C3198 0.956 1_556 S
H3211 C3198 0.961 . S
H3212 C3198 0.961 1_556 S
H3213 C3199 0.958 . S
H3214 C3199 0.961 . S
H3215 C3199 0.960 . S
C1689 C673 1.503 . S
C1681 C211 1.503 . S
C1721 C732 1.516 . S
C1713 C255 1.500 . S
C1745 C274 1.503 . S
C1753 C849 1.510 . S
C1785 C917 1.522 . S
C1777 C157 1.523 . S
C1817 C996 1.519 . S
C1809 C391 1.506 . S
C1849 C1121 1.522 . S
C1841 C484 1.510 . S
C1873 C450 1.501 . S
C1881 C1181 1.506 . S
C1913 C1289 1.523 . S
C1905 C352 1.519 . S
C1937 C430 1.501 . S
C1945 C1385 1.506 . S
C1977 C1445 1.530 . S
C1969 C367 1.532 . S
C2001 C411 1.517 . S
C2009 C1348 1.529 . S
C2041 C1465 1.519 . S
C2033 C469 1.508 . S
C2065 C294 1.498 . S
C2073 C1533 1.506 . S
C2097 C177 1.522 . S
C2105 C1524 1.522 . S
C2129 C196 1.510 . S
C2137 C1553 1.507 . S
C2161 C235 1.506 . S
C2169 C1561 1.518 . S
C2193 C133 1.511 . S
C2201 C945 1.508 . S
C2225 C567 1.506 . S
C2233 C908 1.503 . S
C2265 C644 1.516 . S
C2257 C601 1.507 . S
C2297 C741 1.511 . S
C2289 C328 1.507 . S
C2321 C172 1.514 . S
C2329 C1005 1.519 . S
C2361 C1297 1.507 . S
C2353 C445 1.509 . S
C2393 C1025 1.538 . S
C2385 C372 1.524 . S
C2425 C1209 1.509 . S
C2417 C489 1.509 . S
C2457 C1201 1.502 . S
C2449 C562 1.500 . S
C2481 C606 1.504 . S
C2489 C1269 1.516 . S
C2513 C313 1.507 . S
C2521 C1033 1.509 . S
C2553 C1084 1.522 . S
C2545 C508 1.516 . S
C2577 C118 1.515 . S
C2585 C829 1.516 . S
C2617 C937 1.519 . S
C2609 C16 1.518 . S
C2649 C653 1.505 . S
C2641 C60 1.498 . S
C2681 C769 1.525 . S
C2673 C79 1.510 . S
C2705 C40 1.496 . S
C2713 C1473 1.507 . S
C2737 C94 1.527 . S
C2745 C1357 1.532 . S
C2769 C138 1.529 . S
C2777 C1436 1.527 . S
C2801 C1 1.513 . S
C2809 C1377 1.519 . S
C2841 C1621 1.504 . S
C2833 C333 1.506 . S
C2873 C1612 1.523 . S
C2865 C528 1.524 . S
C2905 C1641 1.511 . S
C2897 C547 1.500 . S
C2929 C586 1.502 . S
C2937 C1649 1.518 . S
C2961 C406 1.507 . S
C2969 C1113 1.509 . S
C3001 C1093 1.504 . S
C2993 C216 1.503 . S
C3033 C1172 1.518 . S
C3025 C250 1.509 . S
C3065 C1260 1.509 . S
C3057 C289 1.511 . S
C3089 C523 1.512 . S
C3097 C820 1.520 . S
C3129 C761 1.508 . S
C3121 C55 1.508 . S
C3153 C99 1.538 . S
C3161 C857 1.537 . S
C3193 C681 1.510 . S
C3185 C21 1.500 . S
