# Generated by pormake.
# Topology ptr, (4,4)-cn, num edge types: 1
# Building blocks:
#     Node 0, Type 0, BuildingBlock: AZAVOO_clean_sbu_0, # of connection points: 4
#     Node 1, Type 0, BuildingBlock: AZAVOO_clean_sbu_0, # of connection points: 4
#     Node 2, Type 0, BuildingBlock: AZAVOO_clean_sbu_0, # of connection points: 4
#     Node 3, Type 0, BuildingBlock: AZAVOO_clean_sbu_0, # of connection points: 4
#     Node 4, Type 0, BuildingBlock: AZAVOO_clean_sbu_0, # of connection points: 4
#     Node 5, Type 0, BuildingBlock: AZAVOO_clean_sbu_0, # of connection points: 4
#     Node 6, Type 0, BuildingBlock: AZAVOO_clean_sbu_0, # of connection points: 4
#     Node 7, Type 0, BuildingBlock: AZAVOO_clean_sbu_0, # of connection points: 4
#     Node 8, Type 0, BuildingBlock: AZAVOO_clean_sbu_0, # of connection points: 4
#     Node 9, Type 0, BuildingBlock: AZAVOO_clean_sbu_0, # of connection points: 4
#     Node 10, Type 0, BuildingBlock: AZAVOO_clean_sbu_0, # of connection points: 4
#     Node 11, Type 0, BuildingBlock: AZAVOO_clean_sbu_0, # of connection points: 4
#     Node 12, Type 0, BuildingBlock: AZAVOO_clean_sbu_0, # of connection points: 4
#     Node 13, Type 0, BuildingBlock: AZAVOO_clean_sbu_0, # of connection points: 4
#     Node 14, Type 0, BuildingBlock: AZAVOO_clean_sbu_0, # of connection points: 4
#     Node 15, Type 0, BuildingBlock: AZAVOO_clean_sbu_0, # of connection points: 4
#     Node 16, Type 0, BuildingBlock: AZAVOO_clean_sbu_0, # of connection points: 4
#     Node 17, Type 0, BuildingBlock: AZAVOO_clean_sbu_0, # of connection points: 4
#     Node 18, Type 1, BuildingBlock: GIZVER_clean_linker_0, # of connection points: 4
#     Node 19, Type 1, BuildingBlock: GIZVER_clean_linker_0, # of connection points: 4
#     Node 20, Type 1, BuildingBlock: GIZVER_clean_linker_0, # of connection points: 4
#     Node 21, Type 1, BuildingBlock: GIZVER_clean_linker_0, # of connection points: 4
#     Node 22, Type 1, BuildingBlock: GIZVER_clean_linker_0, # of connection points: 4
#     Node 23, Type 1, BuildingBlock: GIZVER_clean_linker_0, # of connection points: 4
#     Node 24, Type 1, BuildingBlock: GIZVER_clean_linker_0, # of connection points: 4
#     Node 25, Type 1, BuildingBlock: GIZVER_clean_linker_0, # of connection points: 4
#     Node 26, Type 1, BuildingBlock: GIZVER_clean_linker_0, # of connection points: 4
#     Node 27, Type 1, BuildingBlock: GIZVER_clean_linker_0, # of connection points: 4
#     Node 28, Type 1, BuildingBlock: GIZVER_clean_linker_0, # of connection points: 4
#     Node 29, Type 1, BuildingBlock: GIZVER_clean_linker_0, # of connection points: 4
#     Node 30, Type 1, BuildingBlock: GIZVER_clean_linker_0, # of connection points: 4
#     Node 31, Type 1, BuildingBlock: GIZVER_clean_linker_0, # of connection points: 4
#     Node 32, Type 1, BuildingBlock: GIZVER_clean_linker_0, # of connection points: 4
#     Node 33, Type 1, BuildingBlock: GIZVER_clean_linker_0, # of connection points: 4
#     Node 34, Type 1, BuildingBlock: GIZVER_clean_linker_0, # of connection points: 4
#     Node 35, Type 1, BuildingBlock: GIZVER_clean_linker_0, # of connection points: 4
#     Edge 36, Type (0, 1), BuildingBlock: MIFKUJ_clean_linker_0, # of connection points: 2
#     Edge 37, Type (0, 1), BuildingBlock: MIFKUJ_clean_linker_0, # of connection points: 2
#     Edge 38, Type (0, 1), BuildingBlock: MIFKUJ_clean_linker_0, # of connection points: 2
#     Edge 39, Type (0, 1), BuildingBlock: MIFKUJ_clean_linker_0, # of connection points: 2
#     Edge 40, Type (0, 1), BuildingBlock: MIFKUJ_clean_linker_0, # of connection points: 2
#     Edge 41, Type (0, 1), BuildingBlock: MIFKUJ_clean_linker_0, # of connection points: 2
#     Edge 42, Type (0, 1), BuildingBlock: MIFKUJ_clean_linker_0, # of connection points: 2
#     Edge 43, Type (0, 1), BuildingBlock: MIFKUJ_clean_linker_0, # of connection points: 2
#     Edge 44, Type (0, 1), BuildingBlock: MIFKUJ_clean_linker_0, # of connection points: 2
#     Edge 45, Type (0, 1), BuildingBlock: MIFKUJ_clean_linker_0, # of connection points: 2
#     Edge 46, Type (0, 1), BuildingBlock: MIFKUJ_clean_linker_0, # of connection points: 2
#     Edge 47, Type (0, 1), BuildingBlock: MIFKUJ_clean_linker_0, # of connection points: 2
#     Edge 48, Type (0, 1), BuildingBlock: MIFKUJ_clean_linker_0, # of connection points: 2
#     Edge 49, Type (0, 1), BuildingBlock: MIFKUJ_clean_linker_0, # of connection points: 2
#     Edge 50, Type (0, 1), BuildingBlock: MIFKUJ_clean_linker_0, # of connection points: 2
#     Edge 51, Type (0, 1), BuildingBlock: MIFKUJ_clean_linker_0, # of connection points: 2
#     Edge 52, Type (0, 1), BuildingBlock: MIFKUJ_clean_linker_0, # of connection points: 2
#     Edge 53, Type (0, 1), BuildingBlock: MIFKUJ_clean_linker_0, # of connection points: 2
#     Edge 54, Type (0, 1), BuildingBlock: MIFKUJ_clean_linker_0, # of connection points: 2
#     Edge 55, Type (0, 1), BuildingBlock: MIFKUJ_clean_linker_0, # of connection points: 2
#     Edge 56, Type (0, 1), BuildingBlock: MIFKUJ_clean_linker_0, # of connection points: 2
#     Edge 57, Type (0, 1), BuildingBlock: MIFKUJ_clean_linker_0, # of connection points: 2
#     Edge 58, Type (0, 1), BuildingBlock: MIFKUJ_clean_linker_0, # of connection points: 2
#     Edge 59, Type (0, 1), BuildingBlock: MIFKUJ_clean_linker_0, # of connection points: 2
#     Edge 60, Type (0, 1), BuildingBlock: MIFKUJ_clean_linker_0, # of connection points: 2
#     Edge 61, Type (0, 1), BuildingBlock: MIFKUJ_clean_linker_0, # of connection points: 2
#     Edge 62, Type (0, 1), BuildingBlock: MIFKUJ_clean_linker_0, # of connection points: 2
#     Edge 63, Type (0, 1), BuildingBlock: MIFKUJ_clean_linker_0, # of connection points: 2
#     Edge 64, Type (0, 1), BuildingBlock: MIFKUJ_clean_linker_0, # of connection points: 2
#     Edge 65, Type (0, 1), BuildingBlock: MIFKUJ_clean_linker_0, # of connection points: 2
#     Edge 66, Type (0, 1), BuildingBlock: MIFKUJ_clean_linker_0, # of connection points: 2
#     Edge 67, Type (0, 1), BuildingBlock: MIFKUJ_clean_linker_0, # of connection points: 2
#     Edge 68, Type (0, 1), BuildingBlock: MIFKUJ_clean_linker_0, # of connection points: 2
#     Edge 69, Type (0, 1), BuildingBlock: MIFKUJ_clean_linker_0, # of connection points: 2
#     Edge 70, Type (0, 1), BuildingBlock: MIFKUJ_clean_linker_0, # of connection points: 2
#     Edge 71, Type (0, 1), BuildingBlock: MIFKUJ_clean_linker_0, # of connection points: 2
#     Edge 72, Type (0, 1), BuildingBlock: MIFKUJ_clean_linker_0, # of connection points: 2
#     Edge 73, Type (0, 1), BuildingBlock: MIFKUJ_clean_linker_0, # of connection points: 2
#     Edge 74, Type (0, 1), BuildingBlock: MIFKUJ_clean_linker_0, # of connection points: 2
#     Edge 75, Type (0, 1), BuildingBlock: MIFKUJ_clean_linker_0, # of connection points: 2
#     Edge 76, Type (0, 1), BuildingBlock: MIFKUJ_clean_linker_0, # of connection points: 2
#     Edge 77, Type (0, 1), BuildingBlock: MIFKUJ_clean_linker_0, # of connection points: 2
#     Edge 78, Type (0, 1), BuildingBlock: MIFKUJ_clean_linker_0, # of connection points: 2
#     Edge 79, Type (0, 1), BuildingBlock: MIFKUJ_clean_linker_0, # of connection points: 2
#     Edge 80, Type (0, 1), BuildingBlock: MIFKUJ_clean_linker_0, # of connection points: 2
#     Edge 81, Type (0, 1), BuildingBlock: MIFKUJ_clean_linker_0, # of connection points: 2
#     Edge 82, Type (0, 1), BuildingBlock: MIFKUJ_clean_linker_0, # of connection points: 2
#     Edge 83, Type (0, 1), BuildingBlock: MIFKUJ_clean_linker_0, # of connection points: 2
#     Edge 84, Type (0, 1), BuildingBlock: MIFKUJ_clean_linker_0, # of connection points: 2
#     Edge 85, Type (0, 1), BuildingBlock: MIFKUJ_clean_linker_0, # of connection points: 2
#     Edge 86, Type (0, 1), BuildingBlock: MIFKUJ_clean_linker_0, # of connection points: 2
#     Edge 87, Type (0, 1), BuildingBlock: MIFKUJ_clean_linker_0, # of connection points: 2
#     Edge 88, Type (0, 1), BuildingBlock: MIFKUJ_clean_linker_0, # of connection points: 2
#     Edge 89, Type (0, 1), BuildingBlock: MIFKUJ_clean_linker_0, # of connection points: 2
#     Edge 90, Type (0, 1), BuildingBlock: MIFKUJ_clean_linker_0, # of connection points: 2
#     Edge 91, Type (0, 1), BuildingBlock: MIFKUJ_clean_linker_0, # of connection points: 2
#     Edge 92, Type (0, 1), BuildingBlock: MIFKUJ_clean_linker_0, # of connection points: 2
#     Edge 93, Type (0, 1), BuildingBlock: MIFKUJ_clean_linker_0, # of connection points: 2
#     Edge 94, Type (0, 1), BuildingBlock: MIFKUJ_clean_linker_0, # of connection points: 2
#     Edge 95, Type (0, 1), BuildingBlock: MIFKUJ_clean_linker_0, # of connection points: 2
#     Edge 96, Type (0, 1), BuildingBlock: MIFKUJ_clean_linker_0, # of connection points: 2
#     Edge 97, Type (0, 1), BuildingBlock: MIFKUJ_clean_linker_0, # of connection points: 2
#     Edge 98, Type (0, 1), BuildingBlock: MIFKUJ_clean_linker_0, # of connection points: 2
#     Edge 99, Type (0, 1), BuildingBlock: MIFKUJ_clean_linker_0, # of connection points: 2
#     Edge 100, Type (0, 1), BuildingBlock: MIFKUJ_clean_linker_0, # of connection points: 2
#     Edge 101, Type (0, 1), BuildingBlock: MIFKUJ_clean_linker_0, # of connection points: 2
#     Edge 102, Type (0, 1), BuildingBlock: MIFKUJ_clean_linker_0, # of connection points: 2
#     Edge 103, Type (0, 1), BuildingBlock: MIFKUJ_clean_linker_0, # of connection points: 2
#     Edge 104, Type (0, 1), BuildingBlock: MIFKUJ_clean_linker_0, # of connection points: 2
#     Edge 105, Type (0, 1), BuildingBlock: MIFKUJ_clean_linker_0, # of connection points: 2
#     Edge 106, Type (0, 1), BuildingBlock: MIFKUJ_clean_linker_0, # of connection points: 2
#     Edge 107, Type (0, 1), BuildingBlock: MIFKUJ_clean_linker_0, # of connection points: 2
# Relax obj value: 0.078
# Max RMSD: 0.234
# Mean RMSD: 0.123
data_MOF--net-ptr--node1-AZAVOO_clean_sbu_0--node2-GIZVER_clean_linker_0--edge1-MIFKUJ_clean_linker_0
_symmetry_space_group_name_H-M    P1
_symmetry_Int_Tables_number       1
_symmetry_cell_setting            triclinic
loop_
_symmetry_equiv_pos_as_xyz
'x, y, z'
_cell_length_a     104.41272
_cell_length_b     102.98314
_cell_length_c     58.984379
_cell_angle_alpha  91.244275
_cell_angle_beta   91.247708
_cell_angle_gamma 119.99957
loop_
_atom_site_label
_atom_site_type_symbol
_atom_site_fract_x
_atom_site_fract_y
_atom_site_fract_z
_atom_type_partial_charge
Mg0 Mg 0.00822 0.35571 0.97891 0.0
O1 O 0.00307 0.36624 0.00998 0.0
O2 O 0.98322 0.3679 -0.00056 0.0
Mg3 Mg 0.97612 0.35938 0.96282 0.0
C4 C 0.99324 0.36984 0.01415 0.0
C5 C 0.02521 0.33965 0.99323 0.0
O6 O 0.01692 0.33119 0.97586 0.0
O7 O 0.98831 0.33258 0.98521 0.0
O8 O 0.96953 0.33552 0.97321 0.0
O9 O 0.02291 0.37867 0.96645 0.0
O10 O 0.99906 0.36506 0.95743 0.0
C11 C 0.9745 0.32737 0.98106 0.0
C12 C 0.01124 0.37768 0.95659 0.0
O13 O 0.02385 0.35072 -0.00011 0.0
Mg14 Mg 0.64745 0.64923 0.04341 0.0
O15 O 0.62997 0.63793 0.01395 0.0
O16 O 0.60896 0.63567 0.02685 0.0
Mg17 Mg 0.61253 0.64471 0.06341 0.0
C18 C 0.61623 0.63381 0.01122 0.0
C19 C 0.67054 0.6451 0.01654 0.0
O20 O 0.66243 0.63163 0.02436 0.0
O21 O 0.64907 0.67183 0.03748 0.0
O22 O 0.62817 0.66866 0.05195 0.0
O23 O 0.64137 0.62674 0.05609 0.0
O24 O 0.63047 0.63945 0.06649 0.0
C25 C 0.64053 0.67687 0.0428 0.0
C26 C 0.63095 0.62718 0.06692 0.0
O27 O 0.66675 0.65491 0.02028 0.0
Mg28 Mg 0.35638 0.99452 0.97919 0.0
O29 O 0.37466 0.00212 0.00742 0.0
O30 O 0.39572 0.0193 0.9923 0.0
Mg31 Mg 0.39084 0.02403 0.95666 0.0
C32 C 0.38867 0.01113 0.00867 0.0
C33 C 0.33388 0.96846 0.00788 0.0
O34 O 0.34152 0.96253 -0.00016 0.0
O35 O 0.35526 0.01571 0.98524 0.0
O36 O 0.3763 0.03318 0.97083 0.0
O37 O 0.36226 0.9777 0.96706 0.0
O38 O 0.3724 0.00081 0.95486 0.0
C39 C 0.36414 0.02929 0.98055 0.0
C40 C 0.37233 0.98827 0.95551 0.0
O41 O 0.33789 0.982 0.00372 0.0
Mg42 Mg 0.99686 0.64646 0.03151 0.0
O43 O 0.00195 0.63467 0.00201 0.0
O44 O 0.01899 0.62961 0.01642 0.0
Mg45 Mg 0.02599 0.63937 0.05241 0.0
C46 C 0.01029 0.6289 0.00029 0.0
C47 C 0.98043 0.6625 0.01787 0.0
O48 O 0.9858 0.66771 0.03853 0.0
O49 O 0.01818 0.66843 0.02599 0.0
O50 O 0.03511 0.66342 0.04034 0.0
O51 O 0.97999 0.62413 0.04365 0.0
O52 O 0.00354 0.63584 0.05491 0.0
C53 C 0.0316 0.67242 0.03125 0.0
C54 C 0.99066 0.62393 0.0549 0.0
O55 O 0.98352 0.65323 0.00844 0.0
Mg56 Mg 0.35808 0.35745 0.98411 0.0
O57 O 0.37598 0.3693 0.01295 0.0
O58 O 0.39699 0.37196 -0.00073 0.0
Mg59 Mg 0.3928 0.36189 0.96347 0.0
C60 C 0.38983 0.3738 0.01509 0.0
C61 C 0.33798 0.36326 0.01605 0.0
O62 O 0.34847 0.37715 0.01325 0.0
O63 O 0.35654 0.33503 0.99109 0.0
O64 O 0.378 0.33872 0.97796 0.0
O65 O 0.3643 0.37984 0.9711 0.0
O66 O 0.37442 0.36638 0.96041 0.0
C67 C 0.36569 0.33051 0.98726 0.0
C68 C 0.37441 0.37888 0.96012 0.0
O69 O 0.33932 0.35258 0.00753 0.0
Mg70 Mg 0.64557 0.01172 0.04186 0.0
O71 O 0.62808 0.00493 0.0124 0.0
O72 O 0.60654 0.98764 0.02626 0.0
Mg73 Mg 0.61035 0.98169 0.06167 0.0
C74 C 0.61406 0.9961 0.01045 0.0
C75 C 0.66837 0.03836 0.01361 0.0
O76 O 0.6599 0.04383 0.01956 0.0
O77 O 0.64684 0.99051 0.03496 0.0
O78 O 0.62525 0.97301 0.04793 0.0
O79 O 0.63912 0.02813 0.05513 0.0
O80 O 0.62902 0.00462 0.06531 0.0
C81 C 0.63763 0.97685 0.03896 0.0
C82 C 0.62901 0.01711 0.06598 0.0
O83 O 0.6648 0.0251 0.01892 0.0
Mg84 Mg 0.67709 0.69091 0.30758 0.0
O85 O 0.67166 0.70325 0.33576 0.0
O86 O 0.65415 0.7073 0.32064 0.0
Mg87 Mg 0.64753 0.69687 0.28486 0.0
C88 C 0.66302 0.70871 0.33701 0.0
C89 C 0.70437 0.69077 0.32781 0.0
O90 O 0.70961 0.69979 0.3108 0.0
O91 O 0.65589 0.66883 0.31383 0.0
O92 O 0.63874 0.67323 0.29849 0.0
O93 O 0.69339 0.71322 0.29448 0.0
O94 O 0.66993 0.70034 0.28287 0.0
C95 C 0.64241 0.66458 0.30837 0.0
C96 C 0.68249 0.71257 0.28263 0.0
O97 O 0.69076 0.68522 0.33217 0.0
Mg98 Mg 0.3098 0.9834 0.38554 0.0
O99 O 0.29389 0.97193 0.35446 0.0
O100 O 0.27204 0.96943 0.36322 0.0
Mg101 Mg 0.27378 0.97883 0.39915 0.0
C102 C 0.28033 0.96764 0.34942 0.0
C103 C 0.34167 0.99152 0.37592 0.0
O104 O 0.34205 0.99311 0.39813 0.0
O105 O 0.31199 0.00601 0.37755 0.0
O106 O 0.29004 0.00257 0.38758 0.0
O107 O 0.3029 0.96102 0.39894 0.0
O108 O 0.29167 0.97391 0.40653 0.0
C109 C 0.30298 0.01084 0.38017 0.0
C110 C 0.29198 0.96157 0.40795 0.0
O111 O 0.32972 0.98803 0.36486 0.0
Mg112 Mg 0.02123 0.33185 0.29963 0.0
O113 O 0.03705 0.33522 0.32986 0.0
O114 O 0.05899 0.35528 0.3231 0.0
Mg115 Mg 0.05732 0.36415 0.28875 0.0
C116 C 0.05058 0.34448 0.33549 0.0
C117 C 0.98893 0.30893 0.30917 0.0
O118 O 0.98804 0.31056 0.28726 0.0
O119 O 0.01937 0.35191 0.31141 0.0
O120 O 0.04129 0.37127 0.30304 0.0
O121 O 0.0281 0.31692 0.28333 0.0
O122 O 0.03917 0.34145 0.27879 0.0
C123 C 0.02832 0.36599 0.3107 0.0
C124 C 0.03904 0.32895 0.27561 0.0
O125 O 0.0014 0.31636 0.31969 0.0
Mg126 Mg 0.66481 0.98089 0.36841 0.0
O127 O 0.67049 0.97011 0.33815 0.0
O128 O 0.69009 0.96844 0.35036 0.0
Mg129 Mg 0.69658 0.97717 0.38693 0.0
C130 C 0.68041 0.96645 0.33498 0.0
C131 C 0.63682 0.97463 0.34011 0.0
O132 O 0.634 0.96098 0.34419 0.0
O133 O 0.68493 0.00403 0.36224 0.0
O134 O 0.70328 0.00074 0.37543 0.0
O135 O 0.64971 0.95814 0.38132 0.0
O136 O 0.67354 0.97145 0.39057 0.0
C137 C 0.69866 0.009 0.36689 0.0
C138 C 0.66123 0.95897 0.39138 0.0
O139 O 0.64935 0.98567 0.3465 0.0
Mg140 Mg 0.02492 0.69664 0.31815 0.0
O141 O 0.03683 0.70537 0.35328 0.0
O142 O 0.05991 0.70965 0.34914 0.0
Mg143 Mg 0.06318 0.70519 0.31242 0.0
C144 C 0.0498 0.70935 0.36129 0.0
C145 C 0.99988 0.69775 0.34331 0.0
O146 O 0.01074 0.71167 0.34634 0.0
O147 O 0.02377 0.67408 0.32257 0.0
O148 O 0.04721 0.68014 0.31725 0.0
O149 O 0.03165 0.71996 0.30931 0.0
O150 O 0.04509 0.70929 0.30271 0.0
C151 C 0.0338 0.67048 0.32105 0.0
C152 C 0.0439 0.72117 0.30263 0.0
O153 O 0.00235 0.68827 0.33312 0.0
Mg154 Mg 0.31188 0.34158 0.37386 0.0
O155 O 0.29446 0.33552 0.34434 0.0
O156 O 0.27319 0.3171 0.35707 0.0
Mg157 Mg 0.27681 0.31057 0.39203 0.0
C158 C 0.28053 0.32627 0.34184 0.0
C159 C 0.34078 0.36843 0.36094 0.0
O160 O 0.33804 0.37231 0.38083 0.0
O161 O 0.31351 0.32078 0.36555 0.0
O162 O 0.29196 0.30246 0.37735 0.0
O163 O 0.30553 0.35766 0.38776 0.0
O164 O 0.29495 0.33385 0.39681 0.0
C165 C 0.30448 0.30692 0.36849 0.0
C166 C 0.29503 0.34642 0.39774 0.0
O167 O 0.33137 0.35578 0.35181 0.0
Mg168 Mg 0.34348 0.02401 0.64249 0.0
O169 O 0.33801 0.03496 0.67262 0.0
O170 O 0.31783 0.03589 0.66138 0.0
Mg171 Mg 0.31094 0.02659 0.62509 0.0
C172 C 0.32793 0.03831 0.67624 0.0
C173 C 0.37205 0.0245 0.65565 0.0
O174 O 0.37471 0.03133 0.6363 0.0
O175 O 0.32389 0.00095 0.64998 0.0
O176 O 0.30481 0.00327 0.63751 0.0
O177 O 0.35781 0.04674 0.62927 0.0
O178 O 0.33401 0.0326 0.62018 0.0
C179 C 0.31001 0.99551 0.64614 0.0
C180 C 0.34603 0.04535 0.6192 0.0
O181 O 0.35947 0.0199 0.66418 0.0
Mg182 Mg 0.97779 0.3145 0.71701 0.0
O183 O 0.96093 0.30131 0.6876 0.0
O184 O 0.93935 0.29911 0.69743 0.0
Mg185 Mg 0.94204 0.30995 0.73265 0.0
C186 C 0.9472 0.2967 0.68353 0.0
C187 C 0.00175 0.30976 0.69378 0.0
O188 O 0.9943 0.29698 0.70391 0.0
O189 O 0.97896 0.33635 0.70704 0.0
O190 O 0.95751 0.33332 0.71895 0.0
O191 O 0.97164 0.29284 0.73269 0.0
O192 O 0.96052 0.3059 0.73959 0.0
C193 C 0.97005 0.34128 0.71009 0.0
C194 C 0.96097 0.29371 0.74196 0.0
O195 O 0.99737 0.31926 0.69509 0.0
Mg196 Mg 0.69171 0.66423 0.64114 0.0
O197 O 0.70719 0.66927 0.6725 0.0
O198 O 0.7285 0.69005 0.66546 0.0
Mg199 Mg 0.72694 0.6975 0.6299 0.0
C200 C 0.7204 0.67941 0.67834 0.0
C201 C 0.65909 0.64405 0.65085 0.0
O202 O 0.65844 0.64903 0.63077 0.0
O203 O 0.68836 0.68369 0.65078 0.0
O204 O 0.7096 0.70362 0.64156 0.0
O205 O 0.69978 0.64976 0.62698 0.0
O206 O 0.71003 0.67406 0.62104 0.0
C207 C 0.69651 0.6978 0.64894 0.0
C208 C 0.71053 0.66181 0.61898 0.0
O209 O 0.67167 0.64848 0.6605 0.0
Mg210 Mg 0.32762 0.31539 0.699 0.0
O211 O 0.33421 0.3046 0.66979 0.0
O212 O 0.35289 0.30215 0.68421 0.0
Mg213 Mg 0.35841 0.31111 0.72073 0.0
C214 C 0.34391 0.30052 0.6679 0.0
C215 C 0.30422 0.32312 0.68664 0.0
O216 O 0.30505 0.32332 0.70893 0.0
O217 O 0.3481 0.33845 0.69382 0.0
O218 O 0.36594 0.33461 0.70793 0.0
O219 O 0.31217 0.29242 0.71092 0.0
O220 O 0.33555 0.30622 0.7227 0.0
C221 C 0.36172 0.34304 0.69879 0.0
C222 C 0.32337 0.29357 0.72255 0.0
O223 O 0.31293 0.32028 0.67561 0.0
Mg224 Mg 0.69136 0.02002 0.64658 0.0
O225 O 0.70909 0.0318 0.67564 0.0
O226 O 0.72988 0.03336 0.66304 0.0
Mg227 Mg 0.7258 0.0231 0.6273 0.0
C228 C 0.72278 0.03574 0.67837 0.0
C229 C 0.6604 0.0116 0.65839 0.0
O230 O 0.65987 0.00884 0.63643 0.0
O231 O 0.68905 0.99737 0.65456 0.0
O232 O 0.71013 1.00001 0.64154 0.0
O233 O 0.69791 0.04216 0.63256 0.0
O234 O 0.70803 0.02849 0.62309 0.0
C235 C 0.69771 0.99223 0.6508 0.0
C236 C 0.70799 0.04097 0.62187 0.0
O237 O 0.67261 0.01623 0.66939 0.0
Mg238 Mg 0.97765 0.67181 0.69988 0.0
O239 O 0.95836 0.6645 0.67341 0.0
O240 O 0.93788 0.64783 0.69051 0.0
Mg241 Mg 0.94388 0.64348 0.72574 0.0
C242 C 0.94432 0.65573 0.67355 0.0
C243 C 0.0079 0.68525 0.67948 0.0
O244 O 0.00905 0.67901 0.69804 0.0
O245 O 0.9777 0.64992 0.69326 0.0
O246 O 0.95743 0.63364 0.71071 0.0
O247 O 0.97347 0.68968 0.71344 0.0
O248 O 0.96255 0.66655 0.72557 0.0
C249 C 0.96889 0.63667 0.69957 0.0
C250 C 0.9635 0.67953 0.72568 0.0
O251 O 0.99538 0.68374 0.67391 0.0
H252 H 0.15169 0.30607 0.15118 0.0
H253 H 0.14581 0.30848 0.07902 0.0
H254 H 0.12937 0.32849 0.12635 0.0
H255 H 0.15375 0.28837 0.12106 0.0
H256 H 0.15684 0.29424 0.0924 0.0
H257 H 0.17242 0.30337 0.15225 0.0
H258 H 0.21645 0.33429 0.13259 0.0
H259 H 0.18103 0.31435 0.08195 0.0
C260 C 0.14804 0.31005 0.13699 0.0
C261 C 0.14091 0.31823 0.14118 0.0
C262 C 0.15034 0.30692 0.11458 0.0
C263 C 0.14458 0.31132 0.09633 0.0
C264 C 0.13702 0.3192 0.10049 0.0
C265 C 0.13559 0.32286 0.12293 0.0
C266 C 0.15841 0.29839 0.11039 0.0
C267 C 0.17471 0.30817 0.11649 0.0
C268 C 0.17995 0.30973 0.13919 0.0
C269 C 0.19492 0.31948 0.14509 0.0
C270 C 0.20474 0.32734 0.12817 0.0
C271 C 0.19989 0.32531 0.10537 0.0
C272 C 0.18482 0.31589 0.09958 0.0
H273 H 0.70468 0.85083 0.16025 0.0
H274 H 0.6976 0.84262 0.08772 0.0
H275 H 0.67943 0.80576 0.13245 0.0
H276 H 0.71974 0.87074 0.13337 0.0
H277 H 0.71578 0.86756 0.10344 0.0
H278 H 0.70258 0.87424 0.15867 0.0
H279 H 0.67552 0.88966 0.12668 0.0
H280 H 0.69735 0.87225 0.08568 0.0
C281 C 0.6997 0.84313 0.1457 0.0
C282 C 0.69141 0.82766 0.14895 0.0
C283 C 0.70171 0.84865 0.12363 0.0
C284 C 0.69574 0.83849 0.10478 0.0
C285 C 0.6875 0.823 0.10799 0.0
C286 C 0.68524 0.81776 0.13005 0.0
C287 C 0.7106 0.8653 0.12025 0.0
C288 C 0.70081 0.87216 0.12201 0.0
C289 C 0.69769 0.87597 0.14347 0.0
C290 C 0.68845 0.8822 0.14532 0.0
C291 C 0.68223 0.88438 0.12552 0.0
C292 C 0.68549 0.88097 0.10406 0.0
C293 C 0.69474 0.87481 0.10229 0.0
H294 H 0.16679 0.83166 0.17216 0.0
H295 H 0.15787 0.81477 0.10283 0.0
H296 H 0.12214 0.80763 0.14536 0.0
H297 H 0.18451 0.82647 0.1489 0.0
H298 H 0.18231 0.82512 0.11873 0.0
H299 H 0.1913 0.85049 0.17012 0.0
H300 H 0.21595 0.89021 0.13229 0.0
H301 H 0.19085 0.84748 0.09717 0.0
C302 C 0.15911 0.82644 0.15777 0.0
C303 C 0.14394 0.82036 0.16089 0.0
C304 C 0.16429 0.825 0.13659 0.0
C305 C 0.15401 0.81685 0.11865 0.0
C306 C 0.13872 0.81025 0.12185 0.0
C307 C 0.13391 0.81279 0.14266 0.0
C308 C 0.18052 0.83028 0.13423 0.0
C309 C 0.18965 0.84717 0.13371 0.0
C310 C 0.19452 0.85594 0.15409 0.0
C311 C 0.2039 0.87159 0.15384 0.0
C312 C 0.2081 0.87832 0.13282 0.0
C313 C 0.20348 0.86975 0.11241 0.0
C314 C 0.19414 0.85418 0.1129 0.0
H315 H 0.34492 0.18193 0.84956 0.0
H316 H 0.35028 0.18452 0.92241 0.0
H317 H 0.32916 0.20606 0.88915 0.0
H318 H 0.36402 0.17816 0.86864 0.0
H319 H 0.36567 0.17851 0.89884 0.0
H320 H 0.34653 0.15536 0.84736 0.0
H321 H 0.32738 0.11423 0.88305 0.0
H322 H 0.34887 0.15654 0.92037 0.0
C323 C 0.34273 0.18514 0.86602 0.0
C324 C 0.33578 0.19374 0.86731 0.0
C325 C 0.348 0.18179 0.88589 0.0
C326 C 0.34586 0.18675 0.90713 0.0
C327 C 0.33889 0.1954 0.90859 0.0
C328 C 0.33372 0.19864 0.88852 0.0
C329 C 0.3575 0.17464 0.88426 0.0
C330 C 0.34817 0.1578 0.88391 0.0
C331 C 0.34361 0.14954 0.86316 0.0
C332 C 0.336 0.13379 0.86273 0.0
C333 C 0.33252 0.12636 0.88328 0.0
C334 C 0.33722 0.13449 0.9041 0.0
C335 C 0.34487 0.15022 0.90434 0.0
H336 H 0.85336 0.15527 0.866 0.0
H337 H 0.86105 0.16278 0.93857 0.0
H338 H 0.87547 0.20006 0.89497 0.0
H339 H 0.85282 0.13543 0.89346 0.0
H340 H 0.85029 0.13766 0.92288 0.0
H341 H 0.83308 0.12983 0.86464 0.0
H342 H 0.78931 0.11452 0.88826 0.0
H343 H 0.82645 0.13414 0.93572 0.0
C344 C 0.85725 0.16279 0.88085 0.0
C345 C 0.86409 0.17829 0.87811 0.0
C346 C 0.85563 0.15703 0.90272 0.0
C347 C 0.86167 0.16704 0.92175 0.0
C348 C 0.86874 0.1826 0.91899 0.0
C349 C 0.86955 0.18804 0.89722 0.0
C350 C 0.84815 0.14029 0.90549 0.0
C351 C 0.83167 0.13304 0.90066 0.0
C352 C 0.82578 0.12843 0.87831 0.0
C353 C 0.81051 0.12194 0.8736 0.0
C354 C 0.80119 0.12009 0.89148 0.0
C355 C 0.80683 0.12436 0.9138 0.0
C356 C 0.82209 0.1309 0.91841 0.0
H357 H 0.83767 0.66594 0.85614 0.0
H358 H 0.84546 0.66185 0.92699 0.0
H359 H 0.88189 0.68815 0.88459 0.0
H360 H 0.81949 0.64375 0.88043 0.0
H361 H 0.82124 0.64644 0.91054 0.0
H362 H 0.81273 0.65922 0.85632 0.0
H363 H 0.78884 0.67768 0.88901 0.0
H364 H 0.81224 0.66135 0.92934 0.0
C365 C 0.84511 0.66914 0.87089 0.0
C366 C 0.86034 0.67844 0.86832 0.0
C367 C 0.83958 0.66344 0.89219 0.0
C368 C 0.84958 0.66675 0.91079 0.0
C369 C 0.86492 0.67572 0.9082 0.0
C370 C 0.87008 0.68184 0.88708 0.0
C371 C 0.82328 0.65245 0.8944 0.0
C372 C 0.81417 0.66011 0.89302 0.0
C373 C 0.80967 0.66271 0.87175 0.0
C374 C 0.80083 0.66938 0.8703 0.0
C375 C 0.79639 0.67334 0.89023 0.0
C376 C 0.80023 0.67028 0.91156 0.0
C377 C 0.80936 0.66389 0.91291 0.0
H378 H 0.81639 0.63346 0.48478 0.0
H379 H 0.80514 0.63294 0.41369 0.0
H380 H 0.79222 0.65484 0.46334 0.0
H381 H 0.81526 0.61389 0.45379 0.0
H382 H 0.8173 0.61947 0.425 0.0
H383 H 0.83551 0.62751 0.48259 0.0
H384 H 0.87873 0.65787 0.45885 0.0
H385 H 0.84096 0.64012 0.41269 0.0
C386 C 0.8117 0.63686 0.47119 0.0
C387 C 0.80479 0.64513 0.47649 0.0
C388 C 0.81237 0.63284 0.44843 0.0
C389 C 0.80531 0.63655 0.43114 0.0
C390 C 0.79791 0.64435 0.43665 0.0
C391 C 0.79808 0.64894 0.45915 0.0
C392 C 0.81977 0.62382 0.44293 0.0
C393 C 0.8363 0.63314 0.44733 0.0
C394 C 0.84254 0.63402 0.46915 0.0
C395 C 0.85788 0.64285 0.47344 0.0
C396 C 0.86687 0.65099 0.45577 0.0
C397 C 0.86091 0.64989 0.43385 0.0
C398 C 0.8456 0.64101 0.42965 0.0
H399 H 0.36976 0.18278 0.49589 0.0
H400 H 0.36572 0.17838 0.42273 0.0
H401 H 0.34413 0.13928 0.46264 0.0
H402 H 0.38646 0.20378 0.47232 0.0
H403 H 0.38454 0.20206 0.44201 0.0
H404 H 0.36976 0.20908 0.49489 0.0
H405 H 0.34545 0.22642 0.45924 0.0
H406 H 0.36623 0.20632 0.42172 0.0
C407 C 0.36521 0.17586 0.48047 0.0
C408 C 0.35626 0.16026 0.48183 0.0
C409 C 0.36846 0.18253 0.45919 0.0
C410 C 0.36293 0.17341 0.4392 0.0
C411 C 0.35401 0.15783 0.44056 0.0
C412 C 0.35058 0.15141 0.46179 0.0
C413 C 0.37821 0.19928 0.45783 0.0
C414 C 0.36897 0.20678 0.45829 0.0
C415 C 0.36559 0.21109 0.47915 0.0
C416 C 0.35699 0.21809 0.47969 0.0
C417 C 0.35168 0.22057 0.45916 0.0
C418 C 0.355 0.2164 0.43835 0.0
C419 C 0.36358 0.20944 0.43787 0.0
H420 H 0.8332 0.15697 0.49286 0.0
H421 H 0.83104 0.15687 0.41989 0.0
H422 H 0.79121 0.13868 0.45746 0.0
H423 H 0.8538 0.15907 0.46912 0.0
H424 H 0.85378 0.16234 0.43954 0.0
H425 H 0.85668 0.17913 0.49813 0.0
H426 H 0.88265 0.22421 0.47643 0.0
H427 H 0.86492 0.18736 0.42723 0.0
C428 C 0.82688 0.15504 0.4771 0.0
C429 C 0.81145 0.14814 0.47747 0.0
C430 C 0.83409 0.15867 0.45642 0.0
C431 C 0.82562 0.15493 0.43593 0.0
C432 C 0.81007 0.14771 0.43612 0.0
C433 C 0.80319 0.14492 0.45705 0.0
C434 C 0.85058 0.16478 0.45628 0.0
C435 C 0.85904 0.18144 0.46183 0.0
C436 C 0.86116 0.18688 0.48451 0.0
C437 C 0.86951 0.20233 0.48973 0.0
C438 C 0.87587 0.21231 0.47222 0.0
C439 C 0.87472 0.20704 0.44971 0.0
C440 C 0.86581 0.19161 0.4445 0.0
H441 H 0.00977 0.51269 0.1828 0.0
H442 H 0.02102 0.52407 0.25387 0.0
H443 H 0.99367 0.53801 0.2186 0.0
H444 H 0.03236 0.51378 0.20209 0.0
H445 H 0.03396 0.51452 0.23238 0.0
H446 H 0.01744 0.49022 0.18168 0.0
H447 H 0.99483 0.44995 0.21889 0.0
H448 H 0.01504 0.49295 0.25432 0.0
C449 C 0.00861 0.51755 0.19857 0.0
C450 C 1.00026 0.52479 0.19874 0.0
C451 C 0.01597 0.5171 0.21849 0.0
C452 C 0.015 0.52405 0.23865 0.0
C453 C 0.00692 0.53162 0.23894 0.0
C454 C 0.99929 0.53157 0.21899 0.0
C455 C 0.02584 0.51033 0.21771 0.0
C456 C 0.01676 0.49348 0.21789 0.0
C457 C 0.01344 0.48479 0.1976 0.0
C458 C 0.00537 0.46907 0.19791 0.0
C459 C 1.0004 0.46209 0.21854 0.0
C460 C 0.00398 0.47061 0.23898 0.0
C461 C 0.01202 0.48631 0.23854 0.0
H462 H 0.52603 0.49066 0.1993 0.0
H463 H 0.52635 0.50061 0.27084 0.0
H464 H 0.54452 0.53618 0.22365 0.0
H465 H 0.52176 0.47173 0.22885 0.0
H466 H 0.5193 0.47537 0.25772 0.0
H467 H 0.50243 0.47093 0.19828 0.0
H468 H 0.4581 0.44619 0.22101 0.0
H469 H 0.49455 0.46412 0.26976 0.0
C470 C 0.52813 0.49859 0.21321 0.0
C471 C 0.53495 0.51389 0.20895 0.0
C472 C 0.52434 0.4936 0.23541 0.0
C473 C 0.52847 0.50427 0.25355 0.0
C474 C 0.53578 0.51969 0.24938 0.0
C475 C 0.53851 0.5243 0.22698 0.0
C476 C 0.517 0.47704 0.23984 0.0
C477 C 0.50047 0.46915 0.23474 0.0
C478 C 0.49492 0.46686 0.2121 0.0
C479 C 0.47963 0.45894 0.20713 0.0
C480 C 0.46991 0.45286 0.22484 0.0
C481 C 0.47518 0.4544 0.24732 0.0
C482 C 0.49045 0.46295 0.25236 0.0
H483 H 0.49697 0.98831 0.19373 0.0
H484 H 0.50043 0.98215 0.26518 0.0
H485 H 0.53951 0.00548 0.22636 0.0
H486 H 0.47607 0.96741 0.21594 0.0
H487 H 0.47678 0.96907 0.24611 0.0
H488 H 0.4763 0.98902 0.19313 0.0
H489 H 0.44751 0.00291 0.22155 0.0
H490 H 0.46405 0.98027 0.26279 0.0
C491 C 0.50353 0.99083 0.20934 0.0
C492 C 0.51894 0.99847 0.20828 0.0
C493 C 0.49667 0.98541 0.23004 0.0
C494 C 0.50558 0.98714 0.2495 0.0
C495 C 0.52109 0.99441 0.24832 0.0
C496 C 0.52763 0.00046 0.22779 0.0
C497 C 0.47999 0.9757 0.2305 0.0
C498 C 0.47205 0.98458 0.22867 0.0
C499 C 0.47098 0.99039 0.20774 0.0
C500 C 0.46242 0.99732 0.20517 0.0
C501 C 0.45464 0.99814 0.22366 0.0
C502 C 0.45489 0.99176 0.24428 0.0
C503 C 0.464 0.98543 0.247 0.0
H504 H 0.48095 0.97107 0.81649 0.0
H505 H 0.48497 0.98289 0.74626 0.0
H506 H 0.46238 0.9972 0.79145 0.0
H507 H 0.48717 0.9576 0.78764 0.0
H508 H 0.48987 0.96327 0.75895 0.0
H509 H 0.50681 0.97168 0.81762 0.0
H510 H 0.55097 0.99784 0.79403 0.0
H511 H 0.51384 0.98278 0.74716 0.0
C512 C 0.47938 0.97713 0.80291 0.0
C513 C 0.47113 0.98428 0.80654 0.0
C514 C 0.48462 0.97676 0.78125 0.0
C515 C 0.4816 0.98372 0.76323 0.0
C516 C 0.47374 0.99129 0.767 0.0
C517 C 0.4689 0.9918 0.78875 0.0
C518 C 0.49199 0.96759 0.7769 0.0
C519 C 0.50843 0.97674 0.78202 0.0
C520 C 0.51422 0.97751 0.80414 0.0
C521 C 0.52959 0.98493 0.80845 0.0
C522 C 0.53908 0.99226 0.79085 0.0
C523 C 0.5335 0.99151 0.7688 0.0
C524 C 0.51817 0.98376 0.76438 0.0
H525 H 0.03349 0.51241 0.82547 0.0
H526 H 0.02784 0.50598 0.75261 0.0
H527 H 0.008 0.46802 0.79518 0.0
H528 H 0.04901 0.533 0.80043 0.0
H529 H 0.04662 0.53034 0.77021 0.0
H530 H 0.03339 0.53976 0.82236 0.0
H531 H 0.00466 0.55141 0.78619 0.0
H532 H 0.02672 0.53222 0.74976 0.0
C533 C 0.02874 0.50506 0.8105 0.0
C534 C 0.02014 0.4895 0.81288 0.0
C535 C 0.03133 0.51112 0.78878 0.0
C536 C 0.02555 0.50143 0.7694 0.0
C537 C 0.01693 0.48588 0.77169 0.0
C538 C 0.01413 0.48008 0.79343 0.0
C539 C 0.04055 0.52784 0.78627 0.0
C540 C 0.03076 0.53473 0.78619 0.0
C541 C 0.02806 0.54014 0.80661 0.0
C542 C 0.01869 0.54627 0.80669 0.0
C543 C 0.01171 0.54649 0.78631 0.0
C544 C 0.01478 0.54177 0.76571 0.0
C545 C 0.02426 0.53581 0.76568 0.0
H546 H 0.49979 0.49099 0.82947 0.0
H547 H 0.49645 0.48951 0.75646 0.0
H548 H 0.45719 0.4692 0.79559 0.0
H549 H 0.52042 0.49392 0.80576 0.0
H550 H 0.51958 0.4956 0.77582 0.0
H551 H 0.52091 0.51496 0.83202 0.0
H552 H 0.54956 0.5586 0.80663 0.0
H553 H 0.53159 0.51986 0.76138 0.0
C554 C 0.49318 0.48845 0.81386 0.0
C555 C 0.47777 0.4806 0.81471 0.0
C556 C 0.50003 0.49199 0.79291 0.0
C557 C 0.49121 0.48742 0.77268 0.0
C558 C 0.47566 0.47926 0.7734 0.0
C559 C 0.46909 0.47621 0.79461 0.0
C560 C 0.51658 0.4987 0.79225 0.0
C561 C 0.52465 0.51553 0.79599 0.0
C562 C 0.52611 0.52203 0.81788 0.0
C563 C 0.53479 0.53763 0.82172 0.0
C564 C 0.5422 0.54663 0.8036 0.0
C565 C 0.54126 0.5403 0.78197 0.0
C566 C 0.53209 0.52481 0.77803 0.0
H567 H 0.66926 0.84465 0.52584 0.0
H568 H 0.67241 0.84162 0.59785 0.0
H569 H 0.64715 0.86032 0.56984 0.0
H570 H 0.68786 0.84019 0.54278 0.0
H571 H 0.68937 0.83903 0.57276 0.0
H572 H 0.67633 0.81758 0.52007 0.0
H573 H 0.6557 0.7752 0.55231 0.0
H574 H 0.66919 0.81577 0.5919 0.0
C575 C 0.66577 0.84587 0.54251 0.0
C576 C 0.6574 0.85303 0.54536 0.0
C577 C 0.67083 0.84135 0.56134 0.0
C578 C 0.66771 0.84425 0.58332 0.0
C579 C 0.65955 0.85156 0.58661 0.0
C580 C 0.65362 0.8549 0.56745 0.0
C581 C 0.68129 0.83541 0.5581 0.0
C582 C 0.67305 0.81851 0.55602 0.0
C583 C 0.67177 0.81111 0.53502 0.0
C584 C 0.66568 0.79547 0.53368 0.0
C585 C 0.66013 0.78724 0.55323 0.0
C586 C 0.66128 0.79444 0.57426 0.0
C587 C 0.66775 0.8101 0.57556 0.0
H588 H 0.18814 0.8243 0.53804 0.0
H589 H 0.19454 0.83286 0.61055 0.0
H590 H 0.21145 0.86948 0.56518 0.0
H591 H 0.18604 0.8045 0.56713 0.0
H592 H 0.18299 0.80744 0.59602 0.0
H593 H 0.16736 0.79986 0.53645 0.0
H594 H 0.12342 0.78601 0.55634 0.0
H595 H 0.159 0.80388 0.60691 0.0
C596 C 0.19202 0.83203 0.55263 0.0
C597 C 0.19953 0.84747 0.54928 0.0
C598 C 0.1897 0.82662 0.57476 0.0
C599 C 0.19573 0.8369 0.59348 0.0
C600 C 0.20354 0.85241 0.59011 0.0
C601 C 0.20507 0.85755 0.56799 0.0
C602 C 0.18146 0.80993 0.57823 0.0
C603 C 0.16517 0.80327 0.57227 0.0
C604 C 0.15989 0.79893 0.5496 0.0
C605 C 0.14489 0.79311 0.54399 0.0
C606 C 0.13511 0.79131 0.56096 0.0
C607 C 0.13991 0.79478 0.58379 0.0
C608 C 0.15509 0.80109 0.58934 0.0
H609 H 0.15898 0.32144 0.51452 0.0
H610 H 0.17068 0.31828 0.58388 0.0
H611 H 0.20436 0.34414 0.53698 0.0
H612 H 0.14208 0.3 0.54226 0.0
H613 H 0.14533 0.30462 0.5719 0.0
H614 H 0.13525 0.31503 0.51633 0.0
H615 H 0.11279 0.33548 0.54765 0.0
H616 H 0.13616 0.31966 0.58923 0.0
C617 C 0.1671 0.32501 0.52838 0.0
C618 C 0.18205 0.33397 0.52376 0.0
C619 C 0.16279 0.32001 0.55045 0.0
C620 C 0.17383 0.32316 0.56741 0.0
C621 C 0.18893 0.33148 0.56244 0.0
C622 C 0.1928 0.33763 0.54101 0.0
C623 C 0.14661 0.30955 0.55493 0.0
C624 C 0.13752 0.31725 0.55299 0.0
C625 C 0.13268 0.31921 0.53153 0.0
C626 C 0.12422 0.32627 0.52957 0.0
C627 C 0.12008 0.33085 0.54923 0.0
C628 C 0.12401 0.32821 0.57081 0.0
C629 C 0.13305 0.32171 0.57261 0.0
H630 H 0.97101 0.37208 0.03371 0.0
H631 H 0.97298 0.38812 0.06617 0.0
H632 H 0.01918 0.40196 0.07592 0.0
H633 H 0.01721 0.38558 0.04361 0.0
H634 H 0.00639 0.39925 0.11623 0.0
H635 H 0.00887 0.42356 0.0469 0.0
H636 H 0.00071 0.42584 0.00838 0.0
H637 H 0.9602 0.42033 0.03415 0.0
H638 H 0.96803 0.41779 0.07279 0.0
H639 H 0.02729 0.47 0.17291 0.0
H640 H 0.02489 0.45216 0.1425 0.0
H641 H 0.97741 0.42916 0.14682 0.0
H642 H 0.9798 0.44672 0.17778 0.0
H643 H 0.99131 0.4369 0.09974 0.0
H644 H 0.98921 0.41208 0.16936 0.0
H645 H 0.99808 0.41028 0.20762 0.0
H646 H 0.03909 0.41794 0.18074 0.0
H647 H 0.03053 0.42 0.14235 0.0
C648 C 0.98156 0.37836 0.04294 0.0
C649 C 0.99401 0.3777 0.0359 0.0
C650 C 0.98267 0.38758 0.06145 0.0
C651 C 0.99631 0.39654 0.0731 0.0
C652 C 0.00857 0.39522 0.06705 0.0
C653 C 0.00742 0.38584 0.04861 0.0
C654 C 0.9979 0.40788 0.09062 0.0
C655 C 0.00325 0.40758 0.11253 0.0
C656 C 0.99367 0.41869 0.0859 0.0
C657 C 0.98898 0.42035 0.06271 0.0
C658 C 0.99818 0.42273 0.04433 0.0
C659 C 0.99362 0.42408 0.02248 0.0
C660 C 0.97993 0.42319 0.01881 0.0
C661 C 0.9708 0.421 0.03701 0.0
C662 C 0.97529 0.41961 0.05889 0.0
C663 C 0.01635 0.46129 0.16706 0.0
C664 C 0.00371 0.45975 0.17745 0.0
C665 C 0.015 0.45108 0.14987 0.0
C666 C 0.00099 0.43935 0.1426 0.0
C667 C 0.98831 0.43816 0.15229 0.0
C668 C 0.98967 0.44817 0.16984 0.0
C669 C 0.99963 0.42812 0.12524 0.0
C670 C 0.9944 0.42853 0.10336 0.0
C671 C 0.0041 0.41753 0.12995 0.0
C672 C 0.00931 0.41639 0.15303 0.0
C673 C 1.00019 0.41356 0.17165 0.0
C674 C 0.00514 0.41244 0.19335 0.0
C675 C 0.01916 0.41404 0.19662 0.0
C676 C 0.02824 0.41673 0.17819 0.0
C677 C 0.02334 0.41787 0.15645 0.0
H678 H 0.02296 0.41314 0.21343 0.0
H679 H 0.97642 0.42424 0.00188 0.0
H680 H 0.63241 0.60235 0.07769 0.0
H681 H 0.61414 0.58034 0.09702 0.0
H682 H 0.58548 0.59926 0.10005 0.0
H683 H 0.60398 0.62155 0.08173 0.0
H684 H 0.58725 0.58927 0.13926 0.0
H685 H 0.58 0.56873 0.06162 0.0
H686 H 0.58825 0.56232 0.02625 0.0
H687 H 0.60189 0.53564 0.06325 0.0
H688 H 0.594 0.54202 0.09885 0.0
H689 H 0.52643 0.5298 0.18293 0.0
H690 H 0.54035 0.54584 0.1521 0.0
H691 H 0.57003 0.5281 0.1548 0.0
H692 H 0.5558 0.51171 0.18522 0.0
H693 H 0.56744 0.53655 0.1117 0.0
H694 H 0.57801 0.55746 0.18752 0.0
H695 H 0.57165 0.56312 0.22509 0.0
H696 H 0.5546 0.58902 0.19412 0.0
H697 H 0.56066 0.58332 0.15631 0.0
C698 C 0.62218 0.60179 0.08239 0.0
C699 C 0.61966 0.61373 0.07815 0.0
C700 C 0.61168 0.58913 0.09327 0.0
C701 C 0.59829 0.58798 0.09964 0.0
C702 C 0.59571 0.59985 0.09523 0.0
C703 C 0.60632 0.61263 0.08473 0.0
C704 C 0.58732 0.57491 0.11215 0.0
C705 C 0.58272 0.57777 0.13293 0.0
C706 C 0.58189 0.55984 0.10448 0.0
C707 C 0.5865 0.55594 0.08294 0.0
C708 C 0.58484 0.56157 0.06224 0.0
C709 C 0.58943 0.55794 0.04216 0.0
C710 C 0.59558 0.54861 0.04253 0.0
C711 C 0.59713 0.54286 0.06298 0.0
C712 C 0.5926 0.54647 0.0831 0.0
C713 C 0.53553 0.52888 0.1762 0.0
C714 C 0.54014 0.51963 0.18633 0.0
C715 C 0.54351 0.53808 0.15873 0.0
C716 C 0.55641 0.5384 0.1516 0.0
C717 C 0.56013 0.52804 0.16011 0.0
C718 C 0.552 0.51867 0.17742 0.0
C719 C 0.56716 0.55104 0.13827 0.0
C720 C 0.57183 0.5481 0.11767 0.0
C721 C 0.57299 0.56607 0.14629 0.0
C722 C 0.56966 0.56984 0.16906 0.0
C723 C 0.57284 0.5643 0.18871 0.0
C724 C 0.5693 0.56752 0.21005 0.0
C725 C 0.56269 0.57639 0.21198 0.0
C726 C 0.5597 0.58213 0.19259 0.0
C727 C 0.56319 0.57892 0.1712 0.0
H728 H 0.55993 0.57884 0.22851 0.0
H729 H 0.59913 0.54583 0.02697 0.0
H730 H 0.37901 0.00319 0.05175 0.0
H731 H 0.39355 0.00329 0.08501 0.0
H732 H 0.43203 0.01887 0.04425 0.0
H733 H 0.41782 0.01947 0.01145 0.0
H734 H 0.40601 0.98818 0.09426 0.0
H735 H 0.46356 0.03877 0.07467 0.0
H736 H 0.47385 0.0632 0.05658 0.0
H737 H 0.43458 0.06496 0.07086 0.0
H738 H 0.42413 0.04063 0.08927 0.0
H739 H 0.45695 0.98212 0.16422 0.0
H740 H 0.44723 0.98687 0.1293 0.0
H741 H 0.45102 0.02693 0.1607 0.0
H742 H 0.46143 0.02264 0.19532 0.0
H743 H 0.45572 0.03078 0.11688 0.0
H744 H 0.41907 0.99371 0.16271 0.0
H745 H 0.40751 0.9706 0.18438 0.0
H746 H 0.40218 0.94432 0.12367 0.0
H747 H 0.41395 0.96732 0.1017 0.0
C748 C 0.39061 0.00679 0.05001 0.0
C749 C 0.39731 0.01147 0.02908 0.0
C750 C 0.3989 0.00681 0.06898 0.0
C751 C 0.41397 0.01131 0.06727 0.0
C752 C 0.42057 0.01577 0.04624 0.0
C753 C 0.41239 0.01604 0.02744 0.0
C754 C 0.42266 0.01081 0.08719 0.0
C755 C 0.41686 0.99753 0.09917 0.0
C756 C 0.43674 0.02307 0.09393 0.0
C757 C 0.44302 0.03781 0.08317 0.0
C758 C 0.45715 0.0444 0.07404 0.0
C759 C 0.463 0.05822 0.06371 0.0
C760 C 0.45485 0.0656 0.06251 0.0
C761 C 0.44086 0.0592 0.07172 0.0
C762 C 0.43496 0.04539 0.08208 0.0
C763 C 0.45624 0.99224 0.16344 0.0
C764 C 0.45975 0.00189 0.18266 0.0
C765 C 0.45053 0.99485 0.14353 0.0
C766 C 0.44802 0.00703 0.14264 0.0
C767 C 0.45272 0.01739 0.16109 0.0
C768 C 0.45857 0.01486 0.18091 0.0
C769 C 0.43914 0.0081 0.12357 0.0
C770 C 0.44488 0.02146 0.11182 0.0
C771 C 0.42477 0.99612 0.11753 0.0
C772 C 0.41752 0.98225 0.13061 0.0
C773 C 0.41552 0.98301 0.15401 0.0
C774 C 0.40892 0.96993 0.16634 0.0
C775 C 0.40414 0.956 0.15541 0.0
C776 C 0.40591 0.95512 0.13211 0.0
C777 C 0.41254 0.96818 0.11971 0.0
H778 H 0.39903 0.94589 0.16499 0.0
H779 H 0.4594 0.0763 0.05449 0.0
H780 H 0.37901 0.96623 0.96312 0.0
H781 H 0.39908 0.96364 0.94716 0.0
H782 H 0.41243 0.0036 0.90943 0.0
H783 H 0.39264 0.00643 0.92566 0.0
H784 H 0.40346 0.95861 0.9061 0.0
H785 H 0.44844 0.02241 0.90169 0.0
H786 H 0.45731 0.0455 0.92547 0.0
H787 H 0.44043 0.01929 0.98451 0.0
H788 H 0.43171 0.99605 0.9612 0.0
H789 H 0.44216 0.9754 0.80936 0.0
H790 H 0.42853 0.97368 0.84301 0.0
H791 H 0.46752 0.98604 0.88525 0.0
H792 H 0.48155 0.98835 0.85098 0.0
H793 H 0.45427 0.00148 0.89824 0.0
H794 H 0.43858 0.95045 0.88647 0.0
H795 H 0.43016 0.92648 0.86526 0.0
H796 H 0.38995 0.92541 0.84456 0.0
H797 H 0.39822 0.94948 0.86534 0.0
C798 C 0.38627 0.9745 0.95149 0.0
C799 C 0.38428 0.98656 0.94565 0.0
C800 C 0.39776 0.97302 0.94246 0.0
C801 C 0.40743 0.98356 0.92743 0.0
C802 C 0.40538 0.99556 0.9215 0.0
C803 C 0.39398 0.9971 0.93064 0.0
C804 C 0.41898 0.98152 0.91647 0.0
C805 C 0.41463 0.96791 0.90464 0.0
C806 C 0.43376 0.99344 0.9154 0.0
C807 C 0.43936 0.00745 0.92962 0.0
C808 C 0.44674 0.02156 0.91977 0.0
C809 C 0.45172 0.03469 0.93318 0.0
C810 C 0.44942 0.03387 0.95648 0.0
C811 C 0.44218 0.01992 0.96645 0.0
C812 C 0.43722 0.00676 0.95314 0.0
C813 C 0.44788 0.97782 0.82579 0.0
C814 C 0.46296 0.98225 0.82758 0.0
C815 C 0.44002 0.97662 0.84506 0.0
C816 C 0.44693 0.97951 0.86668 0.0
C817 C 0.46196 0.98368 0.86869 0.0
C818 C 0.46993 0.98494 0.84921 0.0
C819 C 0.43836 0.97894 0.88669 0.0
C820 C 0.44325 0.99205 0.90027 0.0
C821 C 0.4242 0.9664 0.88993 0.0
C822 C 0.41905 0.9518 0.87751 0.0
C823 C 0.42797 0.94514 0.87732 0.0
C824 C 0.42322 0.93153 0.86537 0.0
C825 C 0.40953 0.92443 0.85358 0.0
C826 C 0.40055 0.93092 0.85374 0.0
C827 C 0.40525 0.94453 0.86565 0.0
H828 H 0.40587 0.9139 0.84432 0.0
H829 H 0.45325 0.04404 0.96681 0.0
H830 H 0.98837 0.37938 0.93606 0.0
H831 H 0.9894 0.40065 0.91717 0.0
H832 H 0.03638 0.42671 0.93235 0.0
H833 H 0.03533 0.4056 0.95221 0.0
H834 H 0.02426 0.44403 0.9369 0.0
H835 H 0.02271 0.40932 0.87996 0.0
H836 H 0.01308 0.38482 0.8597 0.0
H837 H 0.97193 0.38339 0.84496 0.0
H838 H 0.98125 0.4078 0.8654 0.0
H839 H 0.04198 0.49388 0.8436 0.0
H840 H 0.03977 0.47722 0.87418 0.0
H841 H 0.99242 0.45223 0.86209 0.0
H842 H 0.99463 0.46877 0.83145 0.0
H843 H 0.00463 0.43487 0.85729 0.0
H844 H 0.00776 0.47134 0.91256 0.0
H845 H 0.01867 0.49635 0.9316 0.0
H846 H 0.05837 0.49524 0.94794 0.0
H847 H 0.04779 0.4703 0.92872 0.0
C848 C 0.9989 0.38966 0.93571 0.0
C849 C 0.01177 0.39075 0.94566 0.0
C850 C 0.99949 0.40182 0.92474 0.0
C851 C 0.01301 0.41522 0.92301 0.0
C852 C 0.02582 0.41649 0.93344 0.0
C853 C 0.02521 0.40437 0.94468 0.0
C854 C 0.01386 0.42758 0.90941 0.0
C855 C 0.0201 0.44208 0.91942 0.0
C856 C 0.00827 0.42501 0.88668 0.0
C857 C 0.00263 0.41031 0.87441 0.0
C858 C 0.01157 0.40372 0.87255 0.0
C859 C 0.00617 0.38987 0.86101 0.0
C860 C 0.99189 0.38254 0.85111 0.0
C861 C 0.98298 0.38907 0.85268 0.0
C862 C 0.98832 0.40292 0.86422 0.0
C863 C 0.03107 0.4852 0.84811 0.0
C864 C 0.01848 0.48252 0.83512 0.0
C865 C 0.02981 0.47566 0.86555 0.0
C866 C 0.01593 0.46341 0.87031 0.0
C867 C 0.00324 0.46156 0.85862 0.0
C868 C 0.0045 0.47103 0.84118 0.0
C869 C 0.01482 0.45132 0.88483 0.0
C870 C 0.00865 0.43683 0.87486 0.0
C871 C 0.02064 0.45401 0.90741 0.0
C872 C 0.02703 0.469 0.919 0.0
C873 C 0.01887 0.47648 0.92003 0.0
C874 C 0.02498 0.49064 0.9309 0.0
C875 C 0.03922 0.4974 0.94092 0.0
C876 C 0.04736 0.49 0.94015 0.0
C877 C 0.0413 0.47584 0.92929 0.0
H878 H 0.04393 0.50836 0.94933 0.0
H879 H 0.98773 0.37181 0.84217 0.0
H880 H 0.58838 0.62689 0.99711 0.0
H881 H 0.57334 0.61008 0.96556 0.0
H882 H 0.60989 0.6044 0.94627 0.0
H883 H 0.62517 0.62142 0.97777 0.0
H884 H 0.59457 0.60631 0.90927 0.0
H885 H 0.58356 0.57998 0.979 0.0
H886 H 0.57624 0.57627 0.01883 0.0
H887 H 0.53381 0.57045 -0.00058 0.0
H888 H 0.54108 0.57488 0.95961 0.0
H889 H 0.54296 0.52866 0.86002 0.0
H890 H 0.55476 0.54407 0.89469 0.0
H891 H 0.54647 0.57833 0.86976 0.0
H892 H 0.5345 0.56294 0.83529 0.0
H893 H 0.54814 0.56072 0.92943 0.0
H894 H 0.58047 0.61026 0.87225 0.0
H895 H 0.58676 0.61443 0.83196 0.0
H896 H 0.58625 0.57252 0.82676 0.0
H897 H 0.58026 0.56827 0.8671 0.0
C898 C 0.59333 0.62224 0.98603 0.0
C899 C 0.60795 0.62537 0.99017 0.0
C900 C 0.58468 0.61259 0.96802 0.0
C901 C 0.5904 0.60574 0.95389 0.0
C902 C 0.60524 0.6095 0.9571 0.0
C903 C 0.61396 0.61923 0.97511 0.0
C904 C 0.58064 0.5941 0.93654 0.0
C905 C 0.58445 0.59635 0.91372 0.0
C906 C 0.56746 0.58102 0.94238 0.0
C907 C 0.56293 0.5779 0.96628 0.0
C908 C 0.5727 0.57803 0.98321 0.0
C909 C 0.56857 0.57579 0.0058 0.0
C910 C 0.55456 0.57303 0.01163 0.0
C911 C 0.54466 0.57258 0.99488 0.0
C912 C 0.54881 0.57501 0.9723 0.0
C913 C 0.54311 0.53919 0.86236 0.0
C914 C 0.53799 0.54471 0.84486 0.0
C915 C 0.5499 0.548 0.88213 0.0
C916 C 0.5517 0.56242 0.88452 0.0
C917 C 0.54531 0.56729 0.86807 0.0
C918 C 0.5385 0.5585 0.84841 0.0
C919 C 0.56196 0.57316 0.90232 0.0
C920 C 0.55829 0.5707 0.92512 0.0
C921 C 0.57529 0.58602 0.89655 0.0
C922 C 0.57979 0.5889 0.87264 0.0
C923 C 0.58184 0.60202 0.86256 0.0
C924 C 0.58533 0.60438 0.8397 0.0
C925 C 0.58685 0.59372 0.82678 0.0
C926 C 0.58503 0.58075 0.83675 0.0
C927 C 0.5816 0.57836 0.85962 0.0
H928 H 0.58946 0.59552 0.80905 0.0
H929 H 0.55138 0.57127 0.02913 0.0
H930 H 0.00689 0.60119 0.99816 0.0
H931 H 0.0071 0.58701 0.96463 0.0
H932 H 0.0129 0.62321 0.92248 0.0
H933 H 0.0116 0.63697 0.95611 0.0
H934 H 0.99669 0.59916 0.90019 0.0
H935 H 0.04266 0.61727 0.941 0.0
H936 H 0.05937 0.62162 0.97407 0.0
H937 H 0.04125 0.57412 0.97915 0.0
H938 H 0.02429 0.56947 0.94627 0.0
H939 H 0.04097 0.56778 0.83369 0.0
H940 H 0.03905 0.58273 0.86476 0.0
H941 H 0.99139 0.55717 0.85707 0.0
H942 H 0.99338 0.54267 0.8253 0.0
H943 H 0.02953 0.57726 0.90346 0.0
H944 H 0.97529 0.57203 0.87185 0.0
H945 H 0.9626 0.57447 0.83772 0.0
H946 H 0.00458 0.60571 0.81111 0.0
H947 H 0.01747 0.60301 0.84471 0.0
C948 C 0.00806 0.60603 0.98166 0.0
C949 C 0.00936 0.62018 0.97961 0.0
C950 C 0.00831 0.59798 0.96253 0.0
C951 C 0.0105 0.6042 0.94103 0.0
C952 C 0.01129 0.61818 0.93887 0.0
C953 C 0.01058 0.62606 0.95803 0.0
C954 C 0.01221 0.59622 0.92099 0.0
C955 C 0.0039 0.5944 0.90095 0.0
C956 C 0.02189 0.59029 0.92158 0.0
C957 C 0.03212 0.59302 0.9413 0.0
C958 C 0.04218 0.60775 0.94926 0.0
C959 C 0.0517 0.61027 0.96795 0.0
C960 C 0.05135 0.59815 0.97873 0.0
C961 C 0.0415 0.58349 0.9708 0.0
C962 C 0.03194 0.58091 0.95212 0.0
C963 C 0.03009 0.56527 0.83883 0.0
C964 C 0.01732 0.55398 0.82726 0.0
C965 C 0.02898 0.57389 0.85647 0.0
C966 C 0.01507 0.57133 0.86313 0.0
C967 C 0.00227 0.55976 0.8519 0.0
C968 C 0.0034 0.55129 0.83399 0.0
C969 C 0.01401 0.5802 0.88259 0.0
C970 C 0.02236 0.58207 0.90265 0.0
C971 C 0.00492 0.58679 0.88168 0.0
C972 C 0.9973 0.58713 0.86051 0.0
C973 C 0.98178 0.57922 0.8585 0.0
C974 C 0.97456 0.58065 0.83928 0.0
C975 C 0.98278 0.59022 0.82223 0.0
C976 C 0.99823 0.59827 0.82429 0.0
C977 C 0.0055 0.59663 0.84325 0.0
H978 H 0.97719 0.59139 0.80743 0.0
H979 H 0.05873 0.60013 0.99321 0.0
H980 H 0.38132 0.40817 0.96529 0.0
H981 H 0.40158 0.43005 0.94813 0.0
H982 H 0.41467 0.40125 0.91404 0.0
H983 H 0.39464 0.37944 0.93125 0.0
H984 H 0.43838 0.42635 0.93231 0.0
H985 H 0.39347 0.41385 0.88701 0.0
H986 H 0.36833 0.41018 0.88199 0.0
H987 H 0.38401 0.4553 0.90703 0.0
H988 H 0.40922 0.45917 0.91243 0.0
H989 H 0.47182 0.45408 0.83065 0.0
H990 H 0.4571 0.44154 0.86315 0.0
H991 H 0.45284 0.48033 0.87902 0.0
H992 H 0.4673 0.49271 0.84573 0.0
H993 H 0.42695 0.45596 0.87872 0.0
H994 H 0.47311 0.47017 0.91501 0.0
H995 H 0.49832 0.47399 0.91933 0.0
H996 H 0.48096 0.42646 0.91199 0.0
H997 H 0.45567 0.42235 0.90728 0.0
C998 C 0.38852 0.40652 0.95411 0.0
C999 C 0.3864 0.3921 0.94957 0.0
C1000 C 0.40009 0.41903 0.94438 0.0
C1001 C 0.40958 0.41725 0.92978 0.0
C1002 C 0.40753 0.40287 0.9254 0.0
C1003 C 0.39604 0.39041 0.93519 0.0
C1004 C 0.42139 0.43015 0.91822 0.0
C1005 C 0.43593 0.43286 0.92058 0.0
C1006 C 0.41828 0.43907 0.90373 0.0
C1007 C 0.40316 0.43673 0.90037 0.0
C1008 C 0.39152 0.42295 0.89159 0.0
C1009 C 0.37727 0.42084 0.88865 0.0
C1010 C 0.37457 0.43249 0.89426 0.0
C1011 C 0.38612 0.44628 0.90275 0.0
C1012 C 0.40038 0.44844 0.90574 0.0
C1013 C 0.46796 0.45999 0.84141 0.0
C1014 C 0.47067 0.4743 0.83604 0.0
C1015 C 0.45966 0.4529 0.86004 0.0
C1016 C 0.4541 0.46011 0.87382 0.0
C1017 C 0.45714 0.47464 0.86873 0.0
C1018 C 0.46539 0.4817 0.84987 0.0
C1019 C 0.44387 0.45168 0.8919 0.0
C1020 C 0.4296 0.44982 0.89089 0.0
C1021 C 0.44726 0.44359 0.9077 0.0
C1022 C 0.46247 0.44597 0.91075 0.0
C1023 C 0.47467 0.46053 0.9142 0.0
C1024 C 0.48898 0.46275 0.91673 0.0
C1025 C 0.49124 0.45048 0.91593 0.0
C1026 C 0.47919 0.43596 0.91264 0.0
C1027 C 0.46486 0.43368 0.91009 0.0
H1028 H 0.50233 0.45222 0.91787 0.0
H1029 H 0.36353 0.43083 0.89198 0.0
H1030 H 0.58832 0.99629 0.00826 0.0
H1031 H 0.57366 0.99473 0.97447 0.0
H1032 H 0.60618 0.99319 0.9322 0.0
H1033 H 0.62141 0.99584 0.96623 0.0
H1034 H 0.59677 0.00839 0.91223 0.0
H1035 H 0.57164 0.96064 0.94589 0.0
H1036 H 0.55999 0.94277 0.9763 0.0
H1037 H 0.52784 0.95685 0.98331 0.0
H1038 H 0.53942 0.97494 0.95312 0.0
H1039 H 0.55014 0.97657 0.81501 0.0
H1040 H 0.56368 0.97817 0.85018 0.0
H1041 H 0.53726 0.99238 0.88693 0.0
H1042 H 0.52371 0.99098 0.85138 0.0
H1043 H 0.54311 0.97079 0.90933 0.0
H1044 H 0.56955 0.01841 0.87253 0.0
H1045 H 0.58092 0.03358 0.83925 0.0
H1046 H 0.61072 0.01632 0.83541 0.0
H1047 H 0.59938 0.00087 0.86847 0.0
C1048 C 0.59237 0.99571 0.99171 0.0
C1049 C 0.60589 0.99602 0.98975 0.0
C1050 C 0.58393 0.9947 0.97241 0.0
C1051 C 0.58853 0.99333 0.95072 0.0
C1052 C 0.60231 0.99411 0.94872 0.0
C1053 C 0.611 0.9956 0.9681 0.0
C1054 C 0.57888 0.99099 0.93027 0.0
C1055 C 0.58509 1.00004 0.91159 0.0
C1056 C 0.56354 0.98018 0.92932 0.0
C1057 C 0.55649 0.96924 0.94739 0.0
C1058 C 0.56214 0.95999 0.95401 0.0
C1059 C 0.55554 0.94981 0.9712 0.0
C1060 C 0.54321 0.94871 0.98177 0.0
C1061 C 0.53741 0.95774 0.97512 0.0
C1062 C 0.54398 0.96794 0.95796 0.0
C1063 C 0.54719 0.98001 0.8306 0.0
C1064 C 0.53612 0.98398 0.83046 0.0
C1065 C 0.55489 0.98086 0.85066 0.0
C1066 C 0.55164 0.98566 0.87102 0.0
C1067 C 0.53996 0.98874 0.87129 0.0
C1068 C 0.53223 0.98792 0.85107 0.0
C1069 C 0.56104 0.98819 0.89164 0.0
C1070 C 0.55479 0.97916 0.91021 0.0
C1071 C 0.57639 0.99872 0.89227 0.0
C1072 C 0.58357 0.00844 0.87291 0.0
C1073 C 0.57851 0.01782 0.86455 0.0
C1074 C 0.58494 0.02647 0.84572 0.0
C1075 C 0.59654 0.02592 0.83523 0.0
C1076 C 0.60176 0.01676 0.84359 0.0
C1077 C 0.59534 0.00807 0.86238 0.0
H1078 H 0.60147 0.03258 0.8206 0.0
H1079 H 0.53812 0.94083 0.99507 0.0
H1080 H 0.6221 0.03953 0.06293 0.0
H1081 H 0.60088 0.04002 0.07934 0.0
H1082 H 0.58735 0.99738 0.10913 0.0
H1083 H 0.60845 0.99694 0.09338 0.0
H1084 H 0.56415 0.99876 0.08581 0.0
H1085 H 0.60558 0.02886 0.14073 0.0
H1086 H 0.62994 0.0508 0.15133 0.0
H1087 H 0.61425 0.08037 0.13109 0.0
H1088 H 0.58984 0.05857 0.12012 0.0
H1089 H 0.52595 0.98069 0.18424 0.0
H1090 H 0.54168 0.98728 0.15165 0.0
H1091 H 0.54418 0.03042 0.15062 0.0
H1092 H 0.52863 0.02384 0.18404 0.0
H1093 H 0.57062 0.03414 0.14931 0.0
H1094 H 0.52702 0.00381 0.10535 0.0
H1095 H 0.50254 0.98207 0.09491 0.0
H1096 H 0.52141 0.9534 0.09261 0.0
H1097 H 0.54597 0.9749 0.10338 0.0
C1098 C 0.61462 0.03031 0.07309 0.0
C1099 C 0.61684 0.0181 0.07664 0.0
C1100 C 0.6025 0.03059 0.08234 0.0
C1101 C 0.59248 0.01864 0.09519 0.0
C1102 C 0.59483 0.00659 0.09895 0.0
C1103 C 0.60692 0.00636 0.08991 0.0
C1104 C 0.57964 0.01852 0.10547 0.0
C1105 C 0.56547 0.00651 0.09962 0.0
C1106 C 0.58135 0.02908 0.12268 0.0
C1107 C 0.59598 0.04212 0.12934 0.0
C1108 C 0.60738 0.04005 0.13837 0.0
C1109 C 0.62118 0.05245 0.14448 0.0
C1110 C 0.62366 0.06697 0.14181 0.0
C1111 C 0.61233 0.06912 0.13309 0.0
C1112 C 0.59851 0.05675 0.12694 0.0
C1113 C 0.52955 0.9914 0.17661 0.0
C1114 C 0.52606 0.00173 0.18629 0.0
C1115 C 0.53846 0.99515 0.15791 0.0
C1116 C 0.54392 0.00926 0.14834 0.0
C1117 C 0.53998 0.01943 0.15758 0.0
C1118 C 0.53109 0.01568 0.17651 0.0
C1119 C 0.55513 0.01376 0.13065 0.0
C1120 C 0.56903 0.02663 0.13498 0.0
C1121 C 0.55313 0.00404 0.11186 0.0
C1122 C 0.53838 0.99102 0.1052 0.0
C1123 C 0.52595 0.99286 0.10273 0.0
C1124 C 0.51205 0.98057 0.09674 0.0
C1125 C 0.51042 0.96637 0.09309 0.0
C1126 C 0.5227 0.96442 0.0954 0.0
C1127 C 0.53662 0.97667 0.10139 0.0
H1128 H 0.49965 0.95686 0.08847 0.0
H1129 H 0.63435 0.07656 0.14655 0.0
H1130 H 0.96436 0.5985 0.0622 0.0
H1131 H 0.96062 0.5759 0.08108 0.0
H1132 H 0.00782 0.59551 0.09078 0.0
H1133 H 0.01164 0.61816 0.07296 0.0
H1134 H 0.99031 0.56319 0.07278 0.0
H1135 H 0.99279 0.59861 0.13274 0.0
H1136 H 0.98388 0.61436 0.15062 0.0
H1137 H 0.94041 0.57589 0.15422 0.0
H1138 H 0.94904 0.55995 0.13605 0.0
H1139 H 0.01587 0.53789 0.16174 0.0
H1140 H 0.00859 0.54855 0.13106 0.0
H1141 H 0.96461 0.52908 0.1569 0.0
H1142 H 0.97224 0.51904 0.18845 0.0
H1143 H 0.97374 0.55627 0.152 0.0
H1144 H 0.9723 0.5195 0.10161 0.0
H1145 H 0.98006 0.50294 0.08329 0.0
H1146 H 0.01884 0.5413 0.05966 0.0
H1147 H 0.01145 0.55813 0.07813 0.0
C1148 C 0.97394 0.59797 0.06828 0.0
C1149 C 0.98833 0.61016 0.06591 0.0
C1150 C 0.97177 0.58505 0.07896 0.0
C1151 C 0.98397 0.58404 0.08704 0.0
C1152 C 0.99829 0.59604 0.08435 0.0
C1153 C 1.00045 0.60904 0.07417 0.0
C1154 C 0.982 0.571 0.0997 0.0
C1155 C 0.98665 0.56155 0.09009 0.0
C1156 C 0.97664 0.56857 0.12186 0.0
C1157 C 0.97149 0.57815 0.13276 0.0
C1158 C 0.9813 0.59355 0.13713 0.0
C1159 C 0.97631 0.6025 0.14736 0.0
C1160 C 0.96157 0.59614 0.15347 0.0
C1161 C 0.95181 0.58081 0.14942 0.0
C1162 C 0.95674 0.57181 0.13916 0.0
C1163 C 0.00451 0.53545 0.1604 0.0
C1164 C 0.9946 0.52765 0.17737 0.0
C1165 C 1.0003 0.5415 0.14276 0.0
C1166 C 0.98597 0.53956 0.14143 0.0
C1167 C 0.97573 0.53078 0.15753 0.0
C1168 C 0.98004 0.52498 0.17546 0.0
C1169 C 0.98257 0.54853 0.1255 0.0
C1170 C 0.97695 0.55736 0.13447 0.0
C1171 C 0.98679 0.55015 0.10258 0.0
C1172 C 0.99132 0.54009 0.09136 0.0
C1173 C 0.98253 0.52442 0.09264 0.0
C1174 C 0.98686 0.51498 0.0822 0.0
C1175 C 0.99994 0.52106 0.07033 0.0
C1176 C 0.0087 0.53661 0.06885 0.0
C1177 C 0.00443 0.5461 0.07927 0.0
H1178 H 0.00327 0.51373 0.06227 0.0
H1179 H 0.95773 0.60309 0.16141 0.0
H1180 H 0.383 0.38958 0.04591 0.0
H1181 H 0.39881 0.40582 0.07783 0.0
H1182 H 0.43157 0.39336 0.06288 0.0
H1183 H 0.41598 0.37723 0.03112 0.0
H1184 H 0.42677 0.39366 0.10885 0.0
H1185 H 0.43625 0.42533 0.04491 0.0
H1186 H 0.42912 0.43628 0.01373 0.0
H1187 H 0.41214 0.45534 0.06163 0.0
H1188 H 0.41896 0.44429 0.09309 0.0
H1189 H 0.488 0.44722 0.17241 0.0
H1190 H 0.47365 0.43508 0.13722 0.0
H1191 H 0.44252 0.44943 0.154 0.0
H1192 H 0.45697 0.4618 0.189 0.0
H1193 H 0.44599 0.44853 0.10733 0.0
H1194 H 0.436 0.41701 0.17102 0.0
H1195 H 0.44282 0.40618 0.20274 0.0
H1196 H 0.45984 0.38654 0.15592 0.0
H1197 H 0.45338 0.39752 0.12393 0.0
C1198 C 0.39348 0.39015 0.04966 0.0
C1199 C 0.39829 0.3822 0.03595 0.0
C1200 C 0.40252 0.39949 0.06777 0.0
C1201 C 0.41642 0.4009 0.07249 0.0
C1202 C 0.42092 0.39246 0.05945 0.0
C1203 C 0.412 0.38329 0.04127 0.0
C1204 C 0.42656 0.41144 0.09059 0.0
C1205 C 0.43108 0.40566 0.1084 0.0
C1206 C 0.43194 0.42707 0.09019 0.0
C1207 C 0.42797 0.43384 0.07133 0.0
C1208 C 0.43089 0.43175 0.04878 0.0
C1209 C 0.42692 0.43799 0.03106 0.0
C1210 C 0.42014 0.44647 0.03569 0.0
C1211 C 0.41736 0.44875 0.05806 0.0
C1212 C 0.42128 0.44251 0.07585 0.0
C1213 C 0.47843 0.44829 0.16815 0.0
C1214 C 0.47347 0.45528 0.18351 0.0
C1215 C 0.47018 0.44126 0.14815 0.0
C1216 C 0.45687 0.4411 0.14331 0.0
C1217 C 0.45271 0.44935 0.1575 0.0
C1218 C 0.46094 0.45635 0.1775 0.0
C1219 C 0.44633 0.43075 0.12538 0.0
C1220 C 0.44168 0.43653 0.10773 0.0
C1221 C 0.44072 0.41508 0.12596 0.0
C1222 C 0.44435 0.40821 0.14511 0.0
C1223 C 0.44129 0.41047 0.1675 0.0
C1224 C 0.44509 0.4043 0.18553 0.0
C1225 C 0.45179 0.3957 0.18135 0.0
C1226 C 0.45467 0.39322 0.15913 0.0
C1227 C 0.45095 0.39942 0.14104 0.0
H1228 H 0.45472 0.39093 0.19533 0.0
H1229 H 0.41708 0.45129 0.02194 0.0
H1230 H 0.67616 0.71068 0.37888 0.0
H1231 H 0.67744 0.72605 0.41216 0.0
H1232 H 0.65306 0.74262 0.3745 0.0
H1233 H 0.6517 0.7274 0.34135 0.0
H1234 H 0.67726 0.76521 0.39835 0.0
H1235 H 0.63576 0.71633 0.41187 0.0
H1236 H 0.62322 0.68897 0.41632 0.0
H1237 H 0.65315 0.69524 0.47209 0.0
H1238 H 0.666 0.72264 0.46775 0.0
H1239 H 0.65709 0.79726 0.49005 0.0
H1240 H 0.65747 0.7832 0.45614 0.0
H1241 H 0.677 0.76259 0.4964 0.0
H1242 H 0.67634 0.77632 0.53014 0.0
H1243 H 0.6556 0.7421 0.47095 0.0
H1244 H 0.69702 0.79069 0.45853 0.0
H1245 H 0.71019 0.81809 0.45427 0.0
H1246 H 0.68164 0.81267 0.39696 0.0
H1247 H 0.66815 0.78524 0.40109 0.0
C1248 C 0.67105 0.71757 0.37772 0.0
C1249 C 0.66372 0.71769 0.3575 0.0
C1250 C 0.67177 0.72633 0.39674 0.0
C1251 C 0.66527 0.73541 0.39581 0.0
C1252 C 0.65814 0.7357 0.37559 0.0
C1253 C 0.65729 0.72688 0.35669 0.0
C1254 C 0.66572 0.74456 0.41592 0.0
C1255 C 0.67241 0.76017 0.41419 0.0
C1256 C 0.65967 0.73799 0.43668 0.0
C1257 C 0.65194 0.72152 0.43931 0.0
C1258 C 0.63975 0.71187 0.42495 0.0
C1259 C 0.63257 0.69635 0.42748 0.0
C1260 C 0.63741 0.69036 0.44443 0.0
C1261 C 0.64942 0.69989 0.45893 0.0
C1262 C 0.65665 0.71541 0.45645 0.0
C1263 C 0.66154 0.7898 0.49153 0.0
C1264 C 0.66653 0.78774 0.51272 0.0
C1265 C 0.6618 0.7818 0.47218 0.0
C1266 C 0.66732 0.77185 0.47368 0.0
C1267 C 0.67259 0.77008 0.4948 0.0
C1268 C 0.67219 0.77793 0.51409 0.0
C1269 C 0.66722 0.76285 0.45353 0.0
C1270 C 0.66054 0.74721 0.4552 0.0
C1271 C 0.6734 0.76943 0.43279 0.0
C1272 C 0.68147 0.78592 0.43028 0.0
C1273 C 0.69347 0.79535 0.44514 0.0
C1274 C 0.701 0.81088 0.44273 0.0
C1275 C 0.69672 0.81712 0.4254 0.0
C1276 C 0.68492 0.80782 0.41041 0.0
C1277 C 0.67733 0.79228 0.41277 0.0
H1278 H 0.70257 0.82914 0.42355 0.0
H1279 H 0.63184 0.67835 0.44637 0.0
H1280 H 0.2915 0.93553 0.41725 0.0
H1281 H 0.27207 0.91358 0.43509 0.0
H1282 H 0.24559 0.93494 0.43897 0.0
H1283 H 0.2653 0.95722 0.42221 0.0
H1284 H 0.24565 0.92362 0.47716 0.0
H1285 H 0.23811 0.90462 0.39999 0.0
H1286 H 0.24549 0.89868 0.36347 0.0
H1287 H 0.25771 0.86956 0.39654 0.0
H1288 H 0.25078 0.87556 0.43335 0.0
H1289 H 0.18833 0.86242 0.52654 0.0
H1290 H 0.19957 0.87862 0.49448 0.0
H1291 H 0.23135 0.86357 0.49049 0.0
H1292 H 0.21969 0.84693 0.5219 0.0
H1293 H 0.22591 0.87102 0.4491 0.0
H1294 H 0.23695 0.89242 0.52576 0.0
H1295 H 0.22996 0.89784 0.56293 0.0
H1296 H 0.21234 0.92292 0.53104 0.0
H1297 H 0.21867 0.91716 0.4935 0.0
C1298 C 0.2815 0.93554 0.42179 0.0
C1299 C 0.27994 0.94814 0.41819 0.0
C1300 C 0.27033 0.92289 0.43179 0.0
C1301 C 0.2572 0.92244 0.43795 0.0
C1302 C 0.25557 0.93497 0.43422 0.0
C1303 C 0.26686 0.94772 0.42457 0.0
C1304 C 0.24566 0.90938 0.44982 0.0
C1305 C 0.2411 0.91215 0.4707 0.0
C1306 C 0.23998 0.89435 0.44175 0.0
C1307 C 0.244 0.89062 0.4195 0.0
C1308 C 0.24246 0.89702 0.39953 0.0
C1309 C 0.24655 0.89364 0.37876 0.0
C1310 C 0.25203 0.88375 0.3777 0.0
C1311 C 0.25345 0.87722 0.39739 0.0
C1312 C 0.24945 0.8806 0.41821 0.0
C1313 C 0.19729 0.86212 0.51807 0.0
C1314 C 0.2032 0.85351 0.52648 0.0
C1315 C 0.20376 0.87141 0.4999 0.0
C1316 C 0.21653 0.87257 0.4905 0.0
C1317 C 0.22154 0.86288 0.49753 0.0
C1318 C 0.21489 0.85338 0.51543 0.0
C1319 C 0.226 0.88536 0.47625 0.0
C1320 C 0.23025 0.88254 0.45515 0.0
C1321 C 0.23153 0.90039 0.48414 0.0
C1322 C 0.22813 0.90421 0.50679 0.0
C1323 C 0.23151 0.89902 0.52665 0.0
C1324 C 0.22766 0.90215 0.54778 0.0
C1325 C 0.22076 0.91075 0.54937 0.0
C1326 C 0.21767 0.91624 0.52979 0.0
C1327 C 0.22133 0.913 0.50856 0.0
H1328 H 0.21781 0.91316 0.56577 0.0
H1329 H 0.25518 0.88115 0.3616 0.0
H1330 H 0.04412 0.31779 0.35331 0.0
H1331 H 0.05712 0.31372 0.38488 0.0
H1332 H 0.08472 0.36165 0.39607 0.0
H1333 H 0.07234 0.36568 0.36361 0.0
H1334 H 0.10123 0.35034 0.39866 0.0
H1335 H 0.05474 0.33733 0.43165 0.0
H1336 H 0.02757 0.32385 0.43402 0.0
H1337 H 0.02684 0.2818 0.43479 0.0
H1338 H 0.05401 0.29503 0.43216 0.0
H1339 H 0.12616 0.35155 0.51273 0.0
H1340 H 0.11424 0.35363 0.47784 0.0
H1341 H 0.09714 0.30664 0.46163 0.0
H1342 H 0.10916 0.30453 0.49651 0.0
H1343 H 0.07557 0.31589 0.4606 0.0
H1344 H 0.12317 0.33046 0.43083 0.0
H1345 H 0.15041 0.34507 0.43033 0.0
H1346 H 0.14891 0.38585 0.42588 0.0
H1347 H 0.12167 0.37151 0.42669 0.0
C1348 C 0.05284 0.32743 0.36274 0.0
C1349 C 0.05718 0.34205 0.35616 0.0
C1350 C 0.06025 0.32511 0.38083 0.0
C1351 C 0.07181 0.33738 0.39315 0.0
C1352 C 0.0759 0.35199 0.38683 0.0
C1353 C 0.06876 0.3543 0.36838 0.0
C1354 C 0.08001 0.33507 0.41212 0.0
C1355 C 0.09557 0.34295 0.41233 0.0
C1356 C 0.07271 0.32512 0.42973 0.0
C1357 C 0.05639 0.31716 0.43148 0.0
C1358 C 0.04878 0.3252 0.43218 0.0
C1359 C 0.03338 0.31761 0.4336 0.0
C1360 C 0.02548 0.30197 0.43449 0.0
C1361 C 0.03297 0.29391 0.43406 0.0
C1362 C 0.04837 0.30145 0.43264 0.0
C1363 C 0.12003 0.34173 0.50152 0.0
C1364 C 0.11858 0.32789 0.5072 0.0
C1365 C 0.11327 0.34293 0.48163 0.0
C1366 C 0.10484 0.33029 0.46719 0.0
C1367 C 0.10363 0.31652 0.47257 0.0
C1368 C 0.11057 0.31535 0.49235 0.0
C1369 C 0.09665 0.33135 0.44719 0.0
C1370 C 0.08114 0.32322 0.44681 0.0
C1371 C 0.10398 0.34126 0.42967 0.0
C1372 C 0.12037 0.34991 0.42901 0.0
C1373 C 0.12865 0.34255 0.42992 0.0
C1374 C 0.14409 0.35078 0.42955 0.0
C1375 C 0.15139 0.36638 0.42812 0.0
C1376 C 0.14325 0.37377 0.427 0.0
C1377 C 0.1278 0.36559 0.42739 0.0
H1378 H 0.16334 0.37273 0.42784 0.0
H1379 H 0.01356 0.29611 0.43556 0.0
H1380 H 0.0446 0.30572 0.27469 0.0
H1381 H 0.06554 0.30514 0.25796 0.0
H1382 H 0.0829 0.35067 0.23723 0.0
H1383 H 0.06193 0.3513 0.25369 0.0
H1384 H 0.08172 0.33191 0.20301 0.0
H1385 H 0.0991 0.34345 0.28077 0.0
H1386 H 0.09739 0.3397 0.32197 0.0
H1387 H 0.09402 0.29669 0.31153 0.0
H1388 H 0.09545 0.30006 0.2702 0.0
H1389 H 0.14708 0.34471 0.16146 0.0
H1390 H 0.13355 0.34762 0.19261 0.0
H1391 H 0.11228 0.30013 0.20339 0.0
H1392 H 0.12584 0.29717 0.17216 0.0
H1393 H 0.11643 0.32019 0.24445 0.0
H1394 H 0.09553 0.30701 0.16746 0.0
H1395 H 0.0964 0.30985 0.126 0.0
H1396 H 0.10558 0.35521 0.13534 0.0
H1397 H 0.10499 0.3527 0.17691 0.0
C1398 C 0.05289 0.31562 0.26659 0.0
C1399 C 0.05164 0.32857 0.2655 0.0
C1400 C 0.06489 0.3153 0.25723 0.0
C1401 C 0.07583 0.32793 0.24663 0.0
C1402 C 0.0746 0.34085 0.24548 0.0
C1403 C 0.06263 0.3412 0.25492 0.0
C1404 C 0.08811 0.32737 0.23555 0.0
C1405 C 0.08944 0.3296 0.21218 0.0
C1406 C 0.0979 0.32392 0.24745 0.0
C1407 C 0.09725 0.32195 0.27234 0.0
C1408 C 0.09788 0.33314 0.28723 0.0
C1409 C 0.09698 0.33109 0.31062 0.0
C1410 C 0.09556 0.31795 0.31936 0.0
C1411 C 0.0951 0.30686 0.30473 0.0
C1412 C 0.09597 0.30883 0.28132 0.0
C1413 C 0.14004 0.33503 0.17119 0.0
C1414 C 0.13728 0.3207 0.16432 0.0
C1415 C 0.13235 0.3367 0.18896 0.0
C1416 C 0.12177 0.32404 0.19993 0.0
C1417 C 0.12043 0.31001 0.19509 0.0
C1418 C 0.12817 0.30833 0.17727 0.0
C1419 C 0.11004 0.32493 0.21211 0.0
C1420 C 0.10875 0.32265 0.23548 0.0
C1421 C 0.10013 0.32821 0.20026 0.0
C1422 C 0.10037 0.32972 0.17528 0.0
C1423 C 0.09785 0.31763 0.16067 0.0
C1424 C 0.09825 0.31916 0.13716 0.0
C1425 C 0.10105 0.3327 0.12805 0.0
C1426 C 0.10343 0.34473 0.14243 0.0
C1427 C 0.10305 0.34326 0.16596 0.0
H1428 H 0.10131 0.33385 0.10985 0.0
H1429 H 0.09486 0.31639 0.33747 0.0
H1430 H 0.70601 0.74126 0.28521 0.0
H1431 H 0.70805 0.76327 0.26681 0.0
H1432 H 0.66439 0.73591 0.23591 0.0
H1433 H 0.66243 0.71386 0.25371 0.0
H1434 H 0.68282 0.75383 0.20595 0.0
H1435 H 0.67048 0.75921 0.28188 0.0
H1436 H 0.67326 0.76078 0.32363 0.0
H1437 H 0.71601 0.8003 0.32023 0.0
H1438 H 0.71361 0.79881 0.27841 0.0
H1439 H 0.66658 0.80678 0.16879 0.0
H1440 H 0.66574 0.78996 0.19804 0.0
H1441 H 0.71308 0.8166 0.20861 0.0
H1442 H 0.71402 0.83342 0.17904 0.0
H1443 H 0.69384 0.80023 0.24978 0.0
H1444 H 0.70553 0.7933 0.1723 0.0
H1445 H 0.70093 0.79172 0.13086 0.0
H1446 H 0.65722 0.75428 0.13801 0.0
H1447 H 0.66144 0.75588 0.17958 0.0
C1448 C 0.69686 0.73993 0.27444 0.0
C1449 C 0.68399 0.72584 0.27109 0.0
C1450 C 0.69801 0.75254 0.26406 0.0
C1451 C 0.68629 0.75127 0.25024 0.0
C1452 C 0.67355 0.73716 0.24659 0.0
C1453 C 0.6724 0.72457 0.2569 0.0
C1454 C 0.68731 0.76457 0.23926 0.0
C1455 C 0.68512 0.7639 0.21561 0.0
C1456 C 0.69049 0.77781 0.25182 0.0
C1457 C 0.69193 0.77881 0.27698 0.0
C1458 C 0.68053 0.76817 0.29002 0.0
C1459 C 0.68203 0.76905 0.3137 0.0
C1460 C 0.69482 0.78062 0.32457 0.0
C1461 C 0.70612 0.79134 0.31178 0.0
C1462 C 0.7047 0.79048 0.28808 0.0
C1463 C 0.67673 0.8094 0.17802 0.0
C1464 C 0.69039 0.82123 0.17148 0.0
C1465 C 0.67623 0.79981 0.19472 0.0
C1466 C 0.68937 0.80196 0.20515 0.0
C1467 C 0.70283 0.81483 0.20072 0.0
C1468 C 0.70335 0.82443 0.18388 0.0
C1469 C 0.68929 0.78933 0.21669 0.0
C1470 C 0.69165 0.79015 0.24028 0.0
C1471 C 0.68612 0.77612 0.20416 0.0
C1472 C 0.68375 0.77481 0.17909 0.0
C1473 C 0.6949 0.7848 0.16506 0.0
C1474 C 0.69236 0.7839 0.14154 0.0
C1475 C 0.67878 0.77293 0.13181 0.0
C1476 C 0.66773 0.7628 0.14557 0.0
C1477 C 0.67019 0.76369 0.16912 0.0
H1478 H 0.67682 0.77227 0.11361 0.0
H1479 H 0.69595 0.78129 0.34291 0.0
H1480 H 0.25478 0.96289 0.3282 0.0
H1481 H 0.2421 0.9468 0.29468 0.0
H1482 H 0.27742 0.93683 0.28843 0.0
H1483 H 0.29041 0.95331 0.3216 0.0
H1484 H 0.26841 0.94008 0.24799 0.0
H1485 H 0.24441 0.91333 0.31461 0.0
H1486 H 0.23147 0.90988 0.35044 0.0
H1487 H 0.19603 0.91156 0.31507 0.0
H1488 H 0.2089 0.91548 0.27914 0.0
H1489 H 0.21244 0.86376 0.19338 0.0
H1490 H 0.22544 0.87988 0.22679 0.0
H1491 H 0.22464 0.91693 0.19564 0.0
H1492 H 0.21075 0.90075 0.16282 0.0
H1493 H 0.21676 0.89868 0.25531 0.0
H1494 H 0.26311 0.94653 0.20633 0.0
H1495 H 0.27736 0.95033 0.17183 0.0
H1496 H 0.26866 0.90497 0.17323 0.0
H1497 H 0.2546 0.90098 0.20792 0.0
C1498 C 0.25993 0.9574 0.31956 0.0
C1499 C 0.27355 0.95928 0.32768 0.0
C1500 C 0.25263 0.94814 0.30047 0.0
C1501 C 0.25862 0.94031 0.28938 0.0
C1502 C 0.27253 0.94268 0.29682 0.0
C1503 C 0.27996 0.95212 0.31577 0.0
C1504 C 0.25024 0.92937 0.2704 0.0
C1505 C 0.25711 0.93105 0.24962 0.0
C1506 C 0.23554 0.91745 0.27258 0.0
C1507 C 0.22769 0.91482 0.29419 0.0
C1508 C 0.2339 0.91306 0.31448 0.0
C1509 C 0.22658 0.91101 0.33481 0.0
C1510 C 0.21295 0.91047 0.33501 0.0
C1511 C 0.20659 0.91198 0.31489 0.0
C1512 C 0.2139 0.91414 0.29454 0.0
C1513 C 0.21461 0.87519 0.1938 0.0
C1514 C 0.21053 0.88089 0.1752 0.0
C1515 C 0.22219 0.88443 0.21285 0.0
C1516 C 0.22614 0.8996 0.21345 0.0
C1517 C 0.22184 0.90528 0.1953 0.0
C1518 C 0.21396 0.89599 0.1765 0.0
C1519 C 0.23488 0.9096 0.23299 0.0
C1520 C 0.22805 0.90774 0.25379 0.0
C1521 C 0.24963 0.9213 0.23089 0.0
C1522 C 0.25764 0.92341 0.20958 0.0
C1523 C 0.26424 0.93737 0.19927 0.0
C1524 C 0.27234 0.93958 0.17974 0.0
C1525 C 0.27396 0.92792 0.1704 0.0
C1526 C 0.26741 0.914 0.1805 0.0
C1527 C 0.25932 0.91174 0.20004 0.0
H1528 H 0.2802 0.92964 0.15525 0.0
H1529 H 0.2073 0.90887 0.35077 0.0
H1530 H 0.70344 0.96468 0.31775 0.0
H1531 H 0.70315 0.94998 0.28467 0.0
H1532 H 0.65728 0.93599 0.27027 0.0
H1533 H 0.65746 0.95079 0.30368 0.0
H1534 H 0.66299 0.91218 0.26991 0.0
H1535 H 0.68219 0.95975 0.23623 0.0
H1536 H 0.69852 0.98703 0.23313 0.0
H1537 H 0.73646 0.98122 0.23183 0.0
H1538 H 0.72038 0.95392 0.23526 0.0
H1539 H 0.66273 0.87891 0.1617 0.0
H1540 H 0.66013 0.89245 0.19416 0.0
H1541 H 0.70674 0.91226 0.21109 0.0
H1542 H 0.70947 0.89902 0.17827 0.0
H1543 H 0.69896 0.93322 0.20874 0.0
H1544 H 0.68002 0.8859 0.24436 0.0
H1545 H 0.66382 0.85863 0.24787 0.0
H1546 H 0.62555 0.86391 0.24574 0.0
H1547 H 0.64151 0.8912 0.2419 0.0
C1548 C 0.6933 0.95862 0.30745 0.0
C1549 C 0.68045 0.95889 0.31337 0.0
C1550 C 0.69318 0.95026 0.28848 0.0
C1551 C 0.68022 0.94194 0.27497 0.0
C1552 C 0.6674 0.94236 0.2805 0.0
C1553 C 0.66755 0.95089 0.29947 0.0
C1554 C 0.68009 0.93236 0.25573 0.0
C1555 C 0.67064 0.91678 0.25626 0.0
C1556 C 0.69035 0.93836 0.23829 0.0
C1557 C 0.70007 0.95479 0.23618 0.0
C1558 C 0.69402 0.9643 0.23547 0.0
C1559 C 0.70324 0.97976 0.23362 0.0
C1560 C 0.71852 0.98586 0.23233 0.0
C1561 C 0.72462 0.97649 0.23284 0.0
C1562 C 0.71546 0.96101 0.23471 0.0
C1563 C 0.67238 0.88596 0.17258 0.0
C1564 C 0.68632 0.88795 0.16739 0.0
C1565 C 0.67086 0.89364 0.19119 0.0
C1566 C 0.68325 0.9034 0.20505 0.0
C1567 C 0.69704 0.90482 0.20057 0.0
C1568 C 0.69856 0.89712 0.18196 0.0
C1569 C 0.68205 0.91298 0.22311 0.0
C1570 C 0.69124 0.92859 0.2223 0.0
C1571 C 0.67157 0.90698 0.24028 0.0
C1572 C 0.66195 0.89058 0.2426 0.0
C1573 C 0.66814 0.88123 0.24444 0.0
C1574 C 0.659 0.86577 0.24653 0.0
C1575 C 0.64366 0.85954 0.24697 0.0
C1576 C 0.63743 0.86876 0.24537 0.0
C1577 C 0.64652 0.88422 0.24326 0.0
H1578 H 0.63661 0.84757 0.24859 0.0
H1579 H 0.72563 0.99784 0.23089 0.0
H1580 H 0.04341 0.7472 0.29791 0.0
H1581 H 0.06255 0.77056 0.28246 0.0
H1582 H 0.09102 0.75164 0.27605 0.0
H1583 H 0.07189 0.72816 0.29109 0.0
H1584 H 0.1059 0.78348 0.29117 0.0
H1585 H 0.07129 0.7483 0.23241 0.0
H1586 H 0.04628 0.73211 0.21524 0.0
H1587 H 0.03953 0.76992 0.21277 0.0
H1588 H 0.06446 0.78629 0.23023 0.0
H1589 H 0.15039 0.80879 0.19724 0.0
H1590 H 0.13552 0.79908 0.23041 0.0
H1591 H 0.10913 0.81863 0.20961 0.0
H1592 H 0.12372 0.8278 0.17566 0.0
H1593 H 0.09217 0.79101 0.21353 0.0
H1594 H 0.12919 0.82756 0.26319 0.0
H1595 H 0.15411 0.84411 0.28032 0.0
H1596 H 0.15665 0.8057 0.30092 0.0
H1597 H 0.13183 0.78889 0.28361 0.0
C1598 C 0.05382 0.74806 0.29353 0.0
C1599 C 0.05607 0.73575 0.29554 0.0
C1600 C 0.06475 0.76145 0.28482 0.0
C1601 C 0.07815 0.76278 0.27814 0.0
C1602 C 0.08077 0.75084 0.2813 0.0
C1603 C 0.06978 0.73738 0.28977 0.0
C1604 C 0.08862 0.77575 0.26521 0.0
C1605 C 0.10301 0.78524 0.27419 0.0
C1606 C 0.08457 0.77828 0.24345 0.0
C1607 C 0.06963 0.76846 0.23289 0.0
C1608 C 0.06442 0.75312 0.22839 0.0
C1609 C 0.05027 0.74392 0.21857 0.0
C1610 C 0.0413 0.74997 0.21299 0.0
C1611 C 0.04648 0.76524 0.21716 0.0
C1612 C 0.06061 0.77449 0.22701 0.0
C1613 C 0.14183 0.81157 0.20025 0.0
C1614 C 0.13814 0.81897 0.18389 0.0
C1615 C 0.13331 0.80604 0.21933 0.0
C1616 C 0.12114 0.80809 0.22263 0.0
C1617 C 0.1184 0.81683 0.20741 0.0
C1618 C 0.12676 0.82212 0.18808 0.0
C1619 C 0.10984 0.79879 0.2391 0.0
C1620 C 0.09517 0.7898 0.23076 0.0
C1621 C 0.11367 0.79689 0.2615 0.0
C1622 C 0.12863 0.80694 0.27199 0.0
C1623 C 0.13509 0.82262 0.27123 0.0
C1624 C 0.1492 0.83206 0.281 0.0
C1625 C 0.15696 0.82596 0.29168 0.0
C1626 C 0.15062 0.81041 0.29265 0.0
C1627 C 0.13651 0.80092 0.28289 0.0
H1628 H 0.16789 0.83329 0.29924 0.0
H1629 H 0.03035 0.74283 0.20538 0.0
H1630 H 0.29134 0.34228 0.30317 0.0
H1631 H 0.27689 0.34323 0.27048 0.0
H1632 H 0.23645 0.31229 0.30205 0.0
H1633 H 0.25061 0.31111 0.33436 0.0
H1634 H 0.25687 0.32028 0.24095 0.0
H1635 H 0.21078 0.32303 0.29098 0.0
H1636 H 0.20793 0.33423 0.32655 0.0
H1637 H 0.25402 0.36768 0.32782 0.0
H1638 H 0.25712 0.3568 0.29214 0.0
H1639 H 0.19329 0.29693 0.17025 0.0
H1640 H 0.20777 0.29963 0.20519 0.0
H1641 H 0.22505 0.34745 0.20677 0.0
H1642 H 0.21076 0.3448 0.17167 0.0
H1643 H 0.21811 0.33426 0.25044 0.0
H1644 H 0.24545 0.3371 0.18479 0.0
H1645 H 0.24918 0.32853 0.14745 0.0
H1646 H 0.24319 0.28795 0.17607 0.0
H1647 H 0.23915 0.29617 0.21353 0.0
C1648 C 0.27938 0.33564 0.30309 0.0
C1649 C 0.27217 0.32662 0.32142 0.0
C1650 C 0.27115 0.33621 0.28444 0.0
C1651 C 0.25561 0.32798 0.28402 0.0
C1652 C 0.24842 0.3189 0.30217 0.0
C1653 C 0.25659 0.31818 0.3206 0.0
C1654 C 0.24674 0.32842 0.26442 0.0
C1655 C 0.24844 0.32339 0.24302 0.0
C1656 C 0.23585 0.33266 0.2671 0.0
C1657 C 0.23419 0.33902 0.28893 0.0
C1658 C 0.2203 0.33279 0.29882 0.0
C1659 C 0.21863 0.33911 0.31898 0.0
C1660 C 0.23076 0.35171 0.32935 0.0
C1661 C 0.24462 0.35795 0.31972 0.0
C1662 C 0.24635 0.35167 0.29957 0.0
C1663 C 0.19985 0.30793 0.17846 0.0
C1664 C 0.20094 0.32066 0.16842 0.0
C1665 C 0.20817 0.30949 0.19826 0.0
C1666 C 0.21756 0.32376 0.20836 0.0
C1667 C 0.21786 0.33636 0.1992 0.0
C1668 C 0.20972 0.33484 0.17923 0.0
C1669 C 0.22798 0.32569 0.22727 0.0
C1670 C 0.22655 0.33116 0.24846 0.0
C1671 C 0.23928 0.32211 0.22435 0.0
C1672 C 0.24185 0.31718 0.20191 0.0
C1673 C 0.2448 0.32629 0.18308 0.0
C1674 C 0.24699 0.32151 0.1619 0.0
C1675 C 0.24639 0.30769 0.15938 0.0
C1676 C 0.24363 0.29865 0.17805 0.0
C1677 C 0.24139 0.30336 0.19926 0.0
H1678 H 0.24809 0.30401 0.14297 0.0
H1679 H 0.22945 0.35658 0.34496 0.0
H1680 H 0.27107 0.32474 0.41898 0.0
H1681 H 0.24959 0.32591 0.43167 0.0
H1682 H 0.26945 0.37181 0.41165 0.0
H1683 H 0.29088 0.37062 0.39813 0.0
H1684 H 0.25764 0.36545 0.45698 0.0
H1685 H 0.24405 0.3481 0.37978 0.0
H1686 H 0.24101 0.33167 0.34671 0.0
H1687 H 0.20814 0.29352 0.38073 0.0
H1688 H 0.21148 0.30955 0.41453 0.0
H1689 H 0.19545 0.36068 0.50268 0.0
H1690 H 0.21176 0.36629 0.47062 0.0
H1691 H 0.19804 0.31928 0.46264 0.0
H1692 H 0.18106 0.31366 0.49341 0.0
H1693 H 0.20713 0.33114 0.42429 0.0
H1694 H 0.22792 0.3447 0.50252 0.0
H1695 H 0.23218 0.35822 0.53952 0.0
H1696 H 0.25112 0.40017 0.50619 0.0
H1697 H 0.24714 0.3869 0.46904 0.0
C1698 C 0.27085 0.33504 0.41699 0.0
C1699 C 0.28258 0.34749 0.40716 0.0
C1700 C 0.25857 0.33569 0.4243 0.0
C1701 C 0.25788 0.34886 0.42219 0.0
C1702 C 0.26977 0.36151 0.41317 0.0
C1703 C 0.28199 0.3608 0.40553 0.0
C1704 C 0.24482 0.34937 0.43009 0.0
C1705 C 0.24662 0.35826 0.4495 0.0
C1706 C 0.23047 0.3397 0.42049 0.0
C1707 C 0.22809 0.33007 0.39984 0.0
C1708 C 0.23627 0.33619 0.38037 0.0
C1709 C 0.23451 0.32693 0.36147 0.0
C1710 C 0.22434 0.31158 0.36156 0.0
C1711 C 0.21599 0.30543 0.38065 0.0
C1712 C 0.21785 0.31459 0.39973 0.0
C1713 C 0.19535 0.35152 0.49314 0.0
C1714 C 0.18708 0.33677 0.50034 0.0
C1715 C 0.2048 0.35472 0.47507 0.0
C1716 C 0.20658 0.34328 0.46482 0.0
C1717 C 0.19699 0.32833 0.47034 0.0
C1718 C 0.18723 0.3251 0.4879 0.0
C1719 C 0.21988 0.34685 0.4517 0.0
C1720 C 0.21818 0.33871 0.43133 0.0
C1721 C 0.23435 0.35684 0.46076 0.0
C1722 C 0.23708 0.36483 0.48306 0.0
C1723 C 0.23299 0.35681 0.50313 0.0
C1724 C 0.23534 0.36441 0.52409 0.0
C1725 C 0.24173 0.38002 0.52514 0.0
C1726 C 0.24607 0.38808 0.50531 0.0
C1727 C 0.24383 0.38054 0.48432 0.0
H1728 H 0.2434 0.38588 0.54135 0.0
H1729 H 0.22295 0.30446 0.34686 0.0
H1730 H 0.68317 0.95206 0.39769 0.0
H1731 H 0.6818 0.93096 0.41759 0.0
H1732 H 0.63583 0.91506 0.43035 0.0
H1733 H 0.63708 0.93598 0.40972 0.0
H1734 H 0.67795 0.9256 0.45907 0.0
H1735 H 0.61706 0.87796 0.4387 0.0
H1736 H 0.59899 0.86866 0.4063 0.0
H1737 H 0.63441 0.88839 0.35998 0.0
H1738 H 0.65269 0.89762 0.39205 0.0
H1739 H 0.65575 0.87897 0.54721 0.0
H1740 H 0.65471 0.89324 0.51636 0.0
H1741 H 0.65373 0.86069 0.46812 0.0
H1742 H 0.65333 0.84519 0.49929 0.0
H1743 H 0.63763 0.87247 0.45203 0.0
H1744 H 0.68647 0.89207 0.48336 0.0
H1745 H 0.70603 0.90088 0.51354 0.0
H1746 H 0.69777 0.93639 0.53284 0.0
H1747 H 0.67799 0.92766 0.50302 0.0
C1748 C 0.67278 0.9441 0.40468 0.0
C1749 C 0.6603 0.94582 0.40245 0.0
C1750 C 0.67197 0.93195 0.41594 0.0
C1751 C 0.6587 0.92134 0.42541 0.0
C1752 C 0.64612 0.92289 0.4228 0.0
C1753 C 0.64688 0.93492 0.41118 0.0
C1754 C 0.6584 0.90951 0.43975 0.0
C1755 C 0.66919 0.91397 0.45733 0.0
C1756 C 0.64718 0.89423 0.43725 0.0
C1757 C 0.63624 0.88858 0.41783 0.0
C1758 C 0.621 0.88025 0.4216 0.0
C1759 C 0.61072 0.875 0.40329 0.0
C1760 C 0.61555 0.87797 0.3811 0.0
C1761 C 0.63068 0.88614 0.37717 0.0
C1762 C 0.641 0.8914 0.39542 0.0
C1763 C 0.65474 0.8743 0.53025 0.0
C1764 C 0.65479 0.86077 0.52609 0.0
C1765 C 0.65441 0.88276 0.51246 0.0
C1766 C 0.65467 0.87831 0.48997 0.0
C1767 C 0.65378 0.86444 0.48544 0.0
C1768 C 0.65374 0.8557 0.50334 0.0
C1769 C 0.65686 0.88878 0.47164 0.0
C1770 C 0.64647 0.88407 0.45342 0.0
C1771 C 0.66871 0.90379 0.47309 0.0
C1772 C 0.68072 0.90918 0.49095 0.0
C1773 C 0.68878 0.90172 0.4941 0.0
C1774 C 0.69991 0.9067 0.51114 0.0
C1775 C 0.70317 0.91921 0.52504 0.0
C1776 C 0.69526 0.92673 0.522 0.0
C1777 C 0.6841 0.92178 0.50502 0.0
H1778 H 0.71183 0.9231 0.53816 0.0
H1779 H 0.60757 0.8739 0.36695 0.0
H1780 H 0.04524 0.73022 0.38288 0.0
H1781 H 0.05847 0.74482 0.41765 0.0
H1782 H 0.07733 0.71634 0.42707 0.0
H1783 H 0.06461 0.70212 0.39201 0.0
H1784 H 0.06981 0.72872 0.46977 0.0
H1785 H 0.09622 0.7423 0.39737 0.0
H1786 H 0.09716 0.74918 0.35737 0.0
H1787 H 0.09192 0.78655 0.37735 0.0
H1788 H 0.09068 0.7797 0.41746 0.0
H1789 H 0.13954 0.76671 0.52485 0.0
H1790 H 0.12092 0.75251 0.4945 0.0
H1791 H 0.11594 0.79102 0.48297 0.0
H1792 H 0.13452 0.80515 0.51336 0.0
H1793 H 0.11297 0.77534 0.444 0.0
H1794 H 0.09967 0.7696 0.52166 0.0
H1795 H 0.10072 0.7641 0.568 0.0
H1796 H 0.07563 0.70255 0.53429 0.0
H1797 H 0.07893 0.71646 0.49321 0.0
C1798 C 0.05175 0.72675 0.3929 0.0
C1799 C 0.05402 0.71515 0.38487 0.0
C1800 C 0.05928 0.73507 0.4127 0.0
C1801 C 0.06886 0.73162 0.42483 0.0
C1802 C 0.06989 0.71907 0.41802 0.0
C1803 C 0.06269 0.71102 0.39798 0.0
C1804 C 0.07998 0.74256 0.44153 0.0
C1805 C 0.07934 0.7389 0.46439 0.0
C1806 C 0.09202 0.75604 0.43429 0.0
C1807 C 0.0932 0.7604 0.41031 0.0
C1808 C 0.09517 0.75192 0.39319 0.0
C1809 C 0.09576 0.75582 0.37052 0.0
C1810 C 0.09456 0.76827 0.36481 0.0
C1811 C 0.09282 0.77689 0.38179 0.0
C1812 C 0.09217 0.77301 0.40449 0.0
C1813 C 0.13496 0.77231 0.51506 0.0
C1814 C 0.13847 0.787 0.52115 0.0
C1815 C 0.12417 0.76415 0.49802 0.0
C1816 C 0.11673 0.77059 0.48706 0.0
C1817 C 0.12143 0.78581 0.49144 0.0
C1818 C 0.13212 0.79391 0.50861 0.0
C1819 C 0.10335 0.76122 0.47242 0.0
C1820 C 0.10349 0.76527 0.44983 0.0
C1821 C 0.09081 0.74814 0.48017 0.0
C1822 C 0.08951 0.74356 0.50422 0.0
C1823 C 0.09608 0.75821 0.52618 0.0
C1824 C 0.09653 0.75462 0.55594 0.0
C1825 C 0.08557 0.72471 0.56175 0.0
C1826 C 0.08016 0.71456 0.53466 0.0
C1827 C 0.08218 0.7237 0.5083 0.0
H1828 H 0.08395 0.71831 0.57703 0.0
H1829 H 0.095 0.77126 0.34725 0.0
H1830 H 0.30456 0.03607 0.69884 0.0
H1831 H 0.3052 0.05166 0.73114 0.0
H1832 H 0.35296 0.07496 0.73302 0.0
H1833 H 0.35232 0.05879 0.70139 0.0
H1834 H 0.34422 0.07209 0.77403 0.0
H1835 H 0.33139 0.08876 0.70611 0.0
H1836 H 0.3168 0.08607 0.67103 0.0
H1837 H 0.278 0.07239 0.70962 0.0
H1838 H 0.29225 0.07473 0.74488 0.0
H1839 H 0.3565 0.13862 0.83148 0.0
H1840 H 0.35418 0.12196 0.79947 0.0
H1841 H 0.30841 0.09232 0.81397 0.0
H1842 H 0.31073 0.1089 0.84633 0.0
H1843 H 0.3157 0.09853 0.76513 0.0
H1844 H 0.32914 0.08197 0.83295 0.0
H1845 H 0.34429 0.08574 0.86776 0.0
H1846 H 0.38295 0.10069 0.82828 0.0
H1847 H 0.36806 0.09725 0.79324 0.0
C1848 C 0.31519 0.04437 0.7064 0.0
C1849 C 0.3284 0.0463 0.69758 0.0
C1850 C 0.31555 0.05337 0.72472 0.0
C1851 C 0.32913 0.06482 0.73409 0.0
C1852 C 0.34234 0.06628 0.72598 0.0
C1853 C 0.34198 0.05702 0.70796 0.0
C1854 C 0.32956 0.07552 0.75186 0.0
C1855 C 0.33811 0.07798 0.77189 0.0
C1856 C 0.32141 0.08309 0.74934 0.0
C1857 C 0.31287 0.08179 0.72812 0.0
C1858 C 0.31973 0.08509 0.7071 0.0
C1859 C 0.31152 0.08364 0.68719 0.0
C1860 C 0.2965 0.07905 0.6881 0.0
C1861 C 0.28964 0.07593 0.70893 0.0
C1862 C 0.29777 0.07731 0.72888 0.0
C1863 C 0.34585 0.12875 0.8275 0.0
C1864 C 0.33377 0.12505 0.84129 0.0
C1865 C 0.34457 0.11921 0.80934 0.0
C1866 C 0.33116 0.1059 0.80454 0.0
C1867 C 0.31884 0.10257 0.81747 0.0
C1868 C 0.32017 0.112 0.83589 0.0
C1869 C 0.33035 0.09502 0.78699 0.0
C1870 C 0.32177 0.09257 0.7671 0.0
C1871 C 0.33857 0.08759 0.7895 0.0
C1872 C 0.34751 0.0895 0.81051 0.0
C1873 C 0.3409 0.08619 0.83171 0.0
C1874 C 0.34943 0.08825 0.85148 0.0
C1875 C 0.36458 0.09349 0.85024 0.0
C1876 C 0.37122 0.09665 0.82921 0.0
C1877 C 0.36273 0.09464 0.80939 0.0
H1878 H 0.37118 0.09507 0.86556 0.0
H1879 H 0.29018 0.07795 0.67267 0.0
H1880 H 0.95708 0.26552 0.7439 0.0
H1881 H 0.93738 0.24389 0.7621 0.0
H1882 H 0.91816 0.2706 0.78312 0.0
H1883 H 0.938 0.2924 0.7653 0.0
H1884 H 0.92016 0.25464 0.81738 0.0
H1885 H 0.90251 0.24473 0.73948 0.0
H1886 H 0.90448 0.24149 0.6984 0.0
H1887 H 0.91134 0.2044 0.71042 0.0
H1888 H 0.90965 0.20757 0.75163 0.0
H1889 H 0.85701 0.19823 0.86097 0.0
H1890 H 0.86998 0.21556 0.83096 0.0
H1891 H 0.8927 0.19135 0.81541 0.0
H1892 H 0.87963 0.17388 0.84538 0.0
H1893 H 0.88786 0.20561 0.77691 0.0
H1894 H 0.90827 0.2168 0.85367 0.0
H1895 H 0.90717 0.21973 0.89509 0.0
H1896 H 0.89622 0.25429 0.88531 0.0
H1897 H 0.89703 0.25139 0.84378 0.0
C1898 C 0.94866 0.26681 0.75237 0.0
C1899 C 0.94906 0.28066 0.75307 0.0
C1900 C 0.93735 0.2544 0.76262 0.0
C1901 C 0.92619 0.25559 0.77366 0.0
C1902 C 0.92662 0.26943 0.77455 0.0
C1903 C 0.93794 0.28186 0.76429 0.0
C1904 C 0.9144 0.24254 0.78508 0.0
C1905 C 0.91293 0.24402 0.80842 0.0
C1906 C 0.90527 0.22854 0.77349 0.0
C1907 C 0.90607 0.22646 0.74868 0.0
C1908 C 0.90453 0.23594 0.73339 0.0
C1909 C 0.90559 0.23411 0.71007 0.0
C1910 C 0.90806 0.22276 0.70181 0.0
C1911 C 0.90943 0.21319 0.71685 0.0
C1912 C 0.90841 0.21499 0.74018 0.0
C1913 C 0.86427 0.19622 0.85043 0.0
C1914 C 0.86748 0.18487 0.85554 0.0
C1915 C 0.87169 0.20613 0.83337 0.0
C1916 C 0.8825 0.20489 0.82137 0.0
C1917 C 0.8844 0.19248 0.82455 0.0
C1918 C 0.87691 0.18249 0.84161 0.0
C1919 C 0.89357 0.21786 0.80903 0.0
C1920 C 0.89499 0.21632 0.78569 0.0
C1921 C 0.90281 0.23181 0.82061 0.0
C1922 C 0.90256 0.23377 0.8456 0.0
C1923 C 0.90553 0.22495 0.86034 0.0
C1924 C 0.90498 0.22662 0.88383 0.0
C1925 C 0.9016 0.23716 0.89282 0.0
C1926 C 0.89882 0.2461 0.87832 0.0
C1927 C 0.89933 0.24446 0.8548 0.0
H1928 H 0.90117 0.23843 0.91101 0.0
H1929 H 0.90888 0.22137 0.68376 0.0
H1930 H 0.71477 0.65392 0.69956 0.0
H1931 H 0.72854 0.6519 0.73201 0.0
H1932 H 0.75489 0.70022 0.73826 0.0
H1933 H 0.74166 0.70221 0.70505 0.0
H1934 H 0.77226 0.68989 0.74101 0.0
H1935 H 0.72702 0.67729 0.77705 0.0
H1936 H 0.70008 0.66364 0.78226 0.0
H1937 H 0.70044 0.62227 0.78683 0.0
H1938 H 0.72735 0.63565 0.78136 0.0
H1939 H 0.80144 0.69421 0.85401 0.0
H1940 H 0.78804 0.6955 0.82027 0.0
H1941 H 0.7722 0.64874 0.80406 0.0
H1942 H 0.78575 0.64745 0.83768 0.0
H1943 H 0.74974 0.65755 0.80635 0.0
H1944 H 0.7961 0.6718 0.77164 0.0
H1945 H 0.82317 0.68677 0.76847 0.0
H1946 H 0.82054 0.72694 0.76396 0.0
H1947 H 0.79346 0.71223 0.76744 0.0
C1948 C 0.72333 0.6641 0.70813 0.0
C1949 C 0.72715 0.67822 0.69985 0.0
C1950 C 0.73119 0.66294 0.72673 0.0
C1951 C 0.74271 0.67591 0.73779 0.0
C1952 C 0.74612 0.69004 0.72998 0.0
C1953 C 0.73851 0.69118 0.71108 0.0
C1954 C 0.75178 0.67481 0.75664 0.0
C1955 C 0.76728 0.68297 0.75543 0.0
C1956 C 0.74537 0.66553 0.77528 0.0
C1957 C 0.72918 0.65745 0.77856 0.0
C1958 C 0.72133 0.66527 0.77899 0.0
C1959 C 0.70607 0.65758 0.78202 0.0
C1960 C 0.69855 0.64209 0.78481 0.0
C1961 C 0.70628 0.63426 0.78463 0.0
C1962 C 0.72154 0.64189 0.78159 0.0
C1963 C 0.79533 0.68431 0.84296 0.0
C1964 C 0.79469 0.67076 0.84826 0.0
C1965 C 0.78769 0.68504 0.82378 0.0
C1966 C 0.77915 0.6722 0.80977 0.0
C1967 C 0.77876 0.65875 0.81472 0.0
C1968 C 0.78659 0.65807 0.83373 0.0
C1969 C 0.77005 0.67269 0.79063 0.0
C1970 C 0.7546 0.66442 0.79183 0.0
C1971 C 0.77649 0.68208 0.77223 0.0
C1972 C 0.79277 0.69093 0.77002 0.0
C1973 C 0.80131 0.68385 0.77017 0.0
C1974 C 0.81665 0.69228 0.76828 0.0
C1975 C 0.82358 0.7078 0.76607 0.0
C1976 C 0.81517 0.71492 0.76569 0.0
C1977 C 0.79982 0.70654 0.76761 0.0
H1978 H 0.83546 0.71431 0.7646 0.0
H1979 H 0.68673 0.63616 0.78715 0.0
H1980 H 0.71537 0.63818 0.61578 0.0
H1981 H 0.73601 0.63748 0.59834 0.0
H1982 H 0.75536 0.68423 0.58299 0.0
H1983 H 0.73454 0.68492 0.59989 0.0
H1984 H 0.75378 0.6676 0.54677 0.0
H1985 H 0.77074 0.67249 0.62443 0.0
H1986 H 0.76844 0.66582 0.66462 0.0
H1987 H 0.76099 0.62204 0.64554 0.0
H1988 H 0.76302 0.62835 0.60519 0.0
H1989 H 0.81417 0.67248 0.49651 0.0
H1990 H 0.80303 0.6774 0.52925 0.0
H1991 H 0.77842 0.63 0.54113 0.0
H1992 H 0.78979 0.62509 0.50857 0.0
H1993 H 0.78473 0.64864 0.58155 0.0
H1994 H 0.76238 0.64117 0.50604 0.0
H1995 H 0.7626 0.64572 0.46512 0.0
H1996 H 0.7786 0.69245 0.48005 0.0
H1997 H 0.77841 0.68814 0.52111 0.0
C1998 C 0.72406 0.64835 0.60883 0.0
C1999 C 0.72333 0.66162 0.60922 0.0
C2000 C 0.73593 0.64796 0.59907 0.0
C2001 C 0.74733 0.66087 0.58969 0.0
C2002 C 0.74671 0.67418 0.5903 0.0
C2003 C 0.73482 0.67456 0.59999 0.0
C2004 C 0.75918 0.66011 0.57748 0.0
C2005 C 0.76077 0.66381 0.55459 0.0
C2006 C 0.76794 0.65462 0.58745 0.0
C2007 C 0.76694 0.65087 0.61175 0.0
C2008 C 0.76852 0.6614 0.62878 0.0
C2009 C 0.76728 0.65769 0.6516 0.0
C2010 C 0.76455 0.64351 0.65763 0.0
C2011 C 0.76311 0.63302 0.64085 0.0
C2012 C 0.76432 0.63667 0.618 0.0
C2013 C 0.80696 0.66323 0.50684 0.0
C2014 C 0.80271 0.64843 0.50008 0.0
C2015 C 0.80057 0.66602 0.52545 0.0
C2016 C 0.78969 0.65402 0.53723 0.0
C2017 C 0.7868 0.63939 0.53221 0.0
C2018 C 0.7933 0.6366 0.51367 0.0
C2019 C 0.77936 0.65635 0.55111 0.0
C2020 C 0.77793 0.65277 0.57406 0.0
C2021 C 0.77053 0.66174 0.54121 0.0
C2022 C 0.77054 0.66437 0.51658 0.0
C2023 C 0.766 0.65242 0.50057 0.0
C2024 C 0.76607 0.65495 0.47737 0.0
C2025 C 0.77069 0.66938 0.46998 0.0
C2026 C 0.77507 0.68128 0.4858 0.0
C2027 C 0.77494 0.6788 0.50904 0.0
H2028 H 0.77087 0.67133 0.452 0.0
H2029 H 0.76358 0.64065 0.6753 0.0
H2030 H 0.36929 0.07397 0.61748 0.0
H2031 H 0.36981 0.0952 0.59896 0.0
H2032 H 0.32379 0.06736 0.57825 0.0
H2033 H 0.32332 0.04597 0.59608 0.0
H2034 H 0.33945 0.08266 0.54401 0.0
H2035 H 0.33571 0.09449 0.62186 0.0
H2036 H 0.34312 0.09906 0.66254 0.0
H2037 H 0.38515 0.13657 0.64688 0.0
H2038 H 0.37819 0.13201 0.60606 0.0
H2039 H 0.3302 0.13885 0.49823 0.0
H2040 H 0.32725 0.12121 0.52752 0.0
H2041 H 0.37423 0.14622 0.54308 0.0
H2042 H 0.37722 0.16394 0.51376 0.0
H2043 H 0.35726 0.13272 0.58142 0.0
H2044 H 0.36248 0.11973 0.50477 0.0
H2045 H 0.35645 0.11503 0.46369 0.0
H2046 H 0.31268 0.07962 0.4771 0.0
H2047 H 0.31833 0.08432 0.51832 0.0
C2048 C 0.35926 0.07236 0.60905 0.0
C2049 C 0.34623 0.05828 0.60837 0.0
C2050 C 0.35954 0.08456 0.59863 0.0
C2051 C 0.34677 0.08294 0.58752 0.0
C2052 C 0.33375 0.06889 0.58685 0.0
C2053 C 0.33348 0.05667 0.59715 0.0
C2054 C 0.34718 0.09566 0.57551 0.0
C2055 C 0.34305 0.0935 0.55235 0.0
C2056 C 0.35234 0.10996 0.58622 0.0
C2057 C 0.35646 0.11283 0.61083 0.0
C2058 C 0.34657 0.10365 0.62705 0.0
C2059 C 0.35069 0.10624 0.65015 0.0
C2060 C 0.36457 0.1181 0.65728 0.0
C2061 C 0.37439 0.12739 0.64133 0.0
C2062 C 0.37037 0.1248 0.61821 0.0
C2063 C 0.33981 0.14086 0.50844 0.0
C2064 C 0.35396 0.15262 0.50359 0.0
C2065 C 0.33813 0.13078 0.52512 0.0
C2066 C 0.35057 0.13225 0.53708 0.0
C2067 C 0.3645 0.14488 0.53395 0.0
C2068 C 0.36619 0.15502 0.51726 0.0
C2069 C 0.34936 0.11958 0.55012 0.0
C2070 C 0.35344 0.12178 0.5733 0.0
C2071 C 0.34425 0.10529 0.53945 0.0
C2072 C 0.34078 0.1025 0.51465 0.0
C2073 C 0.35151 0.11105 0.49898 0.0
C2074 C 0.34817 0.10837 0.47567 0.0
C2075 C 0.3342 0.09703 0.46781 0.0
C2076 C 0.3235 0.08839 0.48323 0.0
C2077 C 0.32676 0.09107 0.50657 0.0
H2078 H 0.3317 0.09489 0.44979 0.0
H2079 H 0.36772 0.12008 0.67517 0.0
H2080 H 0.95421 0.27788 0.66064 0.0
H2081 H 0.93992 0.25996 0.62954 0.0
H2082 H 0.90904 0.27628 0.62875 0.0
H2083 H 0.92288 0.29365 0.66059 0.0
H2084 H 0.89417 0.2478 0.62569 0.0
H2085 H 0.93622 0.28458 0.58695 0.0
H2086 H 0.96271 0.30087 0.57982 0.0
H2087 H 0.96767 0.26213 0.57113 0.0
H2088 H 0.94123 0.24561 0.57849 0.0
H2089 H 0.86492 0.2233 0.51103 0.0
H2090 H 0.87676 0.23708 0.54692 0.0
H2091 H 0.8965 0.20939 0.55653 0.0
H2092 H 0.88439 0.19536 0.5209 0.0
H2093 H 0.91674 0.24187 0.55596 0.0
H2094 H 0.8731 0.20532 0.59198 0.0
H2095 H 0.84625 0.19014 0.59727 0.0
H2096 H 0.84399 0.23026 0.60861 0.0
H2097 H 0.8708 0.2457 0.60305 0.0
C2098 C 0.94449 0.27778 0.65359 0.0
C2099 C 0.93969 0.28721 0.66295 0.0
C2100 C 0.93632 0.26753 0.63579 0.0
C2101 C 0.92344 0.26683 0.62656 0.0
C2102 C 0.91887 0.27652 0.6356 0.0
C2103 C 0.92684 0.28652 0.6537 0.0
C2104 C 0.91447 0.25575 0.60793 0.0
C2105 C 0.89912 0.24666 0.61035 0.0
C2106 C 0.9209 0.25396 0.58805 0.0
C2107 C 0.93678 0.26387 0.58352 0.0
C2108 C 0.94298 0.27954 0.58368 0.0
C2109 C 0.95798 0.28882 0.57957 0.0
C2110 C 0.96688 0.28254 0.5751 0.0
C2111 C 0.96077 0.26698 0.57464 0.0
C2112 C 0.94578 0.25765 0.57876 0.0
C2113 C 0.87139 0.21987 0.52123 0.0
C2114 C 0.87367 0.20823 0.51341 0.0
C2115 C 0.87817 0.22775 0.54163 0.0
C2116 C 0.88752 0.22426 0.55427 0.0
C2117 C 0.88929 0.2122 0.54699 0.0
C2118 C 0.88228 0.20414 0.5268 0.0
C2119 C 0.89655 0.23415 0.57375 0.0
C2120 C 0.91188 0.24301 0.57143 0.0
C2121 C 0.89008 0.23594 0.59347 0.0
C2122 C 0.87395 0.22668 0.59688 0.0
C2123 C 0.86686 0.21092 0.59539 0.0
C2124 C 0.85165 0.20226 0.59848 0.0
C2125 C 0.84341 0.20923 0.60322 0.0
C2126 C 0.85038 0.22488 0.60492 0.0
C2127 C 0.86559 0.23359 0.60182 0.0
H2128 H 0.83164 0.20251 0.60561 0.0
H2129 H 0.97849 0.28974 0.57194 0.0
H2130 H 0.36721 0.29814 0.65346 0.0
H2131 H 0.36798 0.28384 0.62064 0.0
H2132 H 0.32307 0.27128 0.60135 0.0
H2133 H 0.32218 0.2857 0.63447 0.0
H2134 H 0.32814 0.24694 0.60158 0.0
H2135 H 0.34971 0.29545 0.57033 0.0
H2136 H 0.36664 0.32275 0.56911 0.0
H2137 H 0.40403 0.316 0.57151 0.0
H2138 H 0.38732 0.28866 0.57307 0.0
H2139 H 0.33116 0.21592 0.49334 0.0
H2140 H 0.32789 0.22927 0.52543 0.0
H2141 H 0.3736 0.24704 0.54681 0.0
H2142 H 0.37703 0.23402 0.51432 0.0
H2143 H 0.36677 0.26887 0.54426 0.0
H2144 H 0.3454 0.22056 0.57709 0.0
H2145 H 0.32862 0.19326 0.57874 0.0
H2146 H 0.291 0.19954 0.57367 0.0
H2147 H 0.30757 0.22689 0.57166 0.0
C2148 C 0.35751 0.29247 0.64217 0.0
C2149 C 0.34462 0.29305 0.6466 0.0
C2150 C 0.358 0.28433 0.62335 0.0
C2151 C 0.34561 0.27655 0.60852 0.0
C2152 C 0.33275 0.27724 0.61262 0.0
C2153 C 0.3323 0.28555 0.63142 0.0
C2154 C 0.34612 0.2673 0.5893 0.0
C2155 C 0.33639 0.25174 0.58876 0.0
C2156 C 0.35715 0.27356 0.57298 0.0
C2157 C 0.36725 0.29 0.57201 0.0
C2158 C 0.36154 0.29979 0.57079 0.0
C2159 C 0.3711 0.31527 0.57 0.0
C2160 C 0.3864 0.32111 0.57028 0.0
C2161 C 0.39217 0.31146 0.57131 0.0
C2162 C 0.38266 0.29597 0.57212 0.0
C2163 C 0.34047 0.22253 0.50505 0.0
C2164 C 0.35437 0.22398 0.50125 0.0
C2165 C 0.33856 0.23009 0.52346 0.0
C2166 C 0.3505 0.23916 0.53854 0.0
C2167 C 0.36424 0.24012 0.53534 0.0
C2168 C 0.36615 0.23255 0.51692 0.0
C2169 C 0.34892 0.24844 0.55668 0.0
C2170 C 0.35845 0.26404 0.55699 0.0
C2171 C 0.33772 0.2422 0.57278 0.0
C2172 C 0.32773 0.22576 0.57398 0.0
C2173 C 0.33355 0.21611 0.57612 0.0
C2174 C 0.32408 0.20063 0.57716 0.0
C2175 C 0.30876 0.19467 0.57624 0.0
C2176 C 0.30287 0.20418 0.57434 0.0
C2177 C 0.3123 0.21967 0.57327 0.0
H2178 H 0.30144 0.18268 0.57706 0.0
H2179 H 0.39379 0.3331 0.56967 0.0
H2180 H 0.70995 0.06809 0.61586 0.0
H2181 H 0.7288 0.08937 0.59579 0.0
H2182 H 0.75103 0.06455 0.58122 0.0
H2183 H 0.7321 0.0431 0.60081 0.0
H2184 H 0.77015 0.09557 0.59742 0.0
H2185 H 0.73056 0.06563 0.54141 0.0
H2186 H 0.70463 0.05287 0.5269 0.0
H2187 H 0.70478 0.09464 0.53061 0.0
H2188 H 0.73066 0.1076 0.54545 0.0
H2189 H 0.81452 0.1288 0.50422 0.0
H2190 H 0.79817 0.11394 0.53384 0.0
H2191 H 0.77402 0.13768 0.52719 0.0
H2192 H 0.79007 0.15213 0.49668 0.0
H2193 H 0.75565 0.10972 0.52549 0.0
H2194 H 0.79562 0.14077 0.57666 0.0
H2195 H 0.82136 0.15436 0.59202 0.0
H2196 H 0.82064 0.11262 0.59954 0.0
H2197 H 0.79497 0.09878 0.58392 0.0
C2198 C 0.71887 0.06715 0.60845 0.0
C2199 C 0.71954 0.05388 0.61001 0.0
C2200 C 0.72963 0.07933 0.59704 0.0
C2201 C 0.74128 0.0785 0.58713 0.0
C2202 C 0.74215 0.06541 0.58895 0.0
C2203 C 0.7313 0.05315 0.60012 0.0
C2204 C 0.75222 0.091 0.57392 0.0
C2205 C 0.76708 0.09867 0.58161 0.0
C2206 C 0.748 0.09533 0.55381 0.0
C2207 C 0.73247 0.08754 0.54479 0.0
C2208 C 0.72501 0.07206 0.53932 0.0
C2209 C 0.71034 0.0648 0.531 0.0
C2210 C 0.70304 0.07293 0.5279 0.0
C2211 C 0.71043 0.08835 0.53306 0.0
C2212 C 0.7251 0.09566 0.54141 0.0
C2213 C 0.80601 0.13116 0.50962 0.0
C2214 C 0.8036 0.14168 0.49843 0.0
C2215 C 0.79667 0.12268 0.52658 0.0
C2216 C 0.78494 0.12479 0.53301 0.0
C2217 C 0.78299 0.13585 0.52256 0.0
C2218 C 0.79219 0.14416 0.50527 0.0
C2219 C 0.77382 0.11434 0.54871 0.0
C2220 C 0.75884 0.10694 0.54148 0.0
C2221 C 0.77794 0.11047 0.56944 0.0
C2222 C 0.79338 0.11873 0.57897 0.0
C2223 C 0.80098 0.13449 0.58144 0.0
C2224 C 0.81556 0.14224 0.59022 0.0
C2225 C 0.82264 0.13436 0.59672 0.0
C2226 C 0.81514 0.11871 0.5945 0.0
C2227 C 0.80056 0.1109 0.58572 0.0
H2228 H 0.83392 0.14038 0.6035 0.0
H2229 H 0.69168 0.06729 0.52146 0.0
H2230 H 0.91573 0.64936 0.6741 0.0
H2231 H 0.89988 0.64804 0.64213 0.0
H2232 H 0.93556 0.65912 0.59683 0.0
H2233 H 0.95173 0.66108 0.62908 0.0
H2234 H 0.92189 0.67339 0.58552 0.0
H2235 H 0.90579 0.62206 0.6025 0.0
H2236 H 0.8968 0.60027 0.62692 0.0
H2237 H 0.85798 0.60307 0.64034 0.0
H2238 H 0.86683 0.625 0.61621 0.0
H2239 H 0.88284 0.64144 0.48151 0.0
H2240 H 0.89618 0.64495 0.51761 0.0
H2241 H 0.86164 0.64746 0.55266 0.0
H2242 H 0.84854 0.64481 0.51611 0.0
H2243 H 0.87298 0.62751 0.57106 0.0
H2244 H 0.88868 0.67754 0.54899 0.0
H2245 H 0.89822 0.69868 0.52329 0.0
H2246 H 0.9387 0.69773 0.51818 0.0
H2247 H 0.92923 0.67626 0.54329 0.0
C2248 C 0.9202 0.65146 0.6573 0.0
C2249 C 0.93492 0.65511 0.654 0.0
C2250 C 0.9111 0.65068 0.63903 0.0
C2251 C 0.9164 0.65314 0.61696 0.0
C2252 C 0.9312 0.6571 0.61369 0.0
C2253 C 0.94042 0.65818 0.63208 0.0
C2254 C 0.9065 0.6515 0.59729 0.0
C2255 C 0.91127 0.66329 0.58227 0.0
C2256 C 0.89242 0.63849 0.59335 0.0
C2257 C 0.88704 0.62526 0.60774 0.0
C2258 C 0.89538 0.61809 0.61078 0.0
C2259 C 0.89031 0.6057 0.62455 0.0
C2260 C 0.87685 0.60031 0.63522 0.0
C2261 C 0.86841 0.60727 0.63209 0.0
C2262 C 0.87344 0.61967 0.61836 0.0
C2263 C 0.87819 0.643 0.49682 0.0
C2264 C 0.86486 0.64327 0.49588 0.0
C2265 C 0.88575 0.64485 0.51745 0.0
C2266 C 0.87998 0.64668 0.53768 0.0
C2267 C 0.86628 0.64616 0.53711 0.0
C2268 C 0.8588 0.64457 0.51629 0.0
C2269 C 0.88854 0.64927 0.55922 0.0
C2270 C 0.88354 0.63765 0.57453 0.0
C2271 C 0.90249 0.66234 0.56325 0.0
C2272 C 0.90816 0.67515 0.54786 0.0
C2273 C 0.89953 0.68167 0.54213 0.0
C2274 C 0.90494 0.69375 0.52769 0.0
C2275 C 0.91905 0.69953 0.51908 0.0
C2276 C 0.92777 0.69324 0.52488 0.0
C2277 C 0.92237 0.68109 0.53916 0.0
H2278 H 0.92323 0.70889 0.50794 0.0
H2279 H 0.87294 0.59073 0.64588 0.0
H2280 H 0.93528 0.65906 0.73676 0.0
H2281 H 0.91741 0.66372 0.75541 0.0
H2282 H 0.94897 0.71114 0.75954 0.0
H2283 H 0.96713 0.7065 0.74057 0.0
H2284 H 0.93409 0.69756 0.80137 0.0
H2285 H 0.92256 0.70101 0.72325 0.0
H2286 H 0.91761 0.69217 0.68313 0.0
H2287 H 0.87898 0.65152 0.70127 0.0
H2288 H 0.88383 0.66001 0.74157 0.0
H2289 H 0.88058 0.70619 0.85457 0.0
H2290 H 0.89715 0.71121 0.82311 0.0
H2291 H 0.87176 0.66469 0.8006 0.0
H2292 H 0.85506 0.65971 0.83176 0.0
H2293 H 0.88505 0.68262 0.76505 0.0
H2294 H 0.89837 0.67454 0.8399 0.0
H2295 H 0.90298 0.6793 0.88127 0.0
H2296 H 0.93753 0.72437 0.87057 0.0
H2297 H 0.93296 0.71993 0.82911 0.0
C2298 C 0.93858 0.67045 0.74175 0.0
C2299 C 0.95272 0.68237 0.73738 0.0
C2300 C 0.92824 0.67312 0.75222 0.0
C2301 C 0.93185 0.68777 0.75864 0.0
C2302 C 0.94599 0.69975 0.75456 0.0
C2303 C 0.95631 0.69709 0.74375 0.0
C2304 C 0.92083 0.69025 0.77029 0.0
C2305 C 0.92354 0.69477 0.79329 0.0
C2306 C 0.9069 0.68602 0.75983 0.0
C2307 C 0.9036 0.68113 0.73548 0.0
C2308 C 0.91304 0.69016 0.71871 0.0
C2309 C 0.91025 0.68521 0.69592 0.0
C2310 C 0.898 0.67128 0.68966 0.0
C2311 C 0.88847 0.66231 0.70615 0.0
C2312 C 0.89121 0.6672 0.72896 0.0
C2313 C 0.87818 0.69721 0.84227 0.0
C2314 C 0.8667 0.68253 0.84568 0.0
C2315 C 0.88766 0.70007 0.82438 0.0
C2316 C 0.8859 0.68823 0.80993 0.0
C2317 C 0.87335 0.67397 0.81163 0.0
C2318 C 0.86378 0.67113 0.82942 0.0
C2319 C 0.89831 0.68993 0.79618 0.0
C2320 C 0.8958 0.68599 0.77292 0.0
C2321 C 0.91234 0.69428 0.80652 0.0
C2322 C 0.9152 0.69697 0.83143 0.0
C2323 C 0.90688 0.6855 0.84638 0.0
C2324 C 0.9095 0.68812 0.86984 0.0
C2325 C 0.92051 0.70214 0.87855 0.0
C2326 C 0.92897 0.71353 0.8638 0.0
C2327 C 0.92638 0.71097 0.84032 0.0
H2328 H 0.92251 0.70415 0.89671 0.0
H2329 H 0.89589 0.66744 0.67202 0.0
H2330 H 0.30156 0.26399 0.71807 0.0
H2331 H 0.30113 0.24253 0.73609 0.0
H2332 H 0.34313 0.2724 0.7703 0.0
H2333 H 0.34368 0.29372 0.75238 0.0
H2334 H 0.34286 0.24811 0.75222 0.0
H2335 H 0.30998 0.25841 0.79715 0.0
H2336 H 0.28794 0.26094 0.80243 0.0
H2337 H 0.25986 0.21547 0.7777 0.0
H2338 H 0.28176 0.21274 0.77203 0.0
H2339 H 0.35241 0.22213 0.85481 0.0
H2340 H 0.3478 0.2343 0.82312 0.0
H2341 H 0.30884 0.19244 0.80246 0.0
H2342 H 0.31356 0.18016 0.83453 0.0
H2343 H 0.30389 0.21672 0.80522 0.0
H2344 H 0.33728 0.20524 0.76908 0.0
H2345 H 0.35962 0.20306 0.76556 0.0
H2346 H 0.38705 0.25086 0.77441 0.0
H2347 H 0.3649 0.25333 0.77833 0.0
C2348 C 0.31068 0.26595 0.72948 0.0
C2349 C 0.3227 0.28054 0.73371 0.0
C2350 C 0.31042 0.25369 0.73974 0.0
C2351 C 0.32211 0.25587 0.75453 0.0
C2352 C 0.33406 0.27043 0.75878 0.0
C2353 C 0.33435 0.28263 0.74853 0.0
C2354 C 0.32205 0.24318 0.76605 0.0
C2355 C 0.33434 0.24122 0.76379 0.0
C2356 C 0.31063 0.23379 0.78043 0.0
C2357 C 0.2975 0.23544 0.78389 0.0
C2358 C 0.2991 0.249 0.79267 0.0
C2359 C 0.28664 0.25046 0.79577 0.0
C2360 C 0.27251 0.23839 0.79033 0.0
C2361 C 0.27081 0.22482 0.78185 0.0
C2362 C 0.28324 0.2233 0.7787 0.0
C2363 C 0.343 0.2155 0.84327 0.0
C2364 C 0.33337 0.20027 0.84684 0.0
C2365 C 0.34039 0.22241 0.82517 0.0
C2366 C 0.32808 0.21422 0.81029 0.0
C2367 C 0.31846 0.1989 0.81369 0.0
C2368 C 0.32116 0.19191 0.83184 0.0
C2369 C 0.32507 0.2222 0.7922 0.0
C2370 C 0.31221 0.22327 0.79315 0.0
C2371 C 0.33599 0.23083 0.77665 0.0
C2372 C 0.3494 0.22946 0.77405 0.0
C2373 C 0.34808 0.21529 0.7704 0.0
C2374 C 0.36071 0.214 0.76832 0.0
C2375 C 0.37475 0.22682 0.76977 0.0
C2376 C 0.37617 0.24095 0.77326 0.0
C2377 C 0.36357 0.2423 0.77536 0.0
H2378 H 0.38452 0.2258 0.76818 0.0
H2379 H 0.26287 0.23955 0.79274 0.0
H2380 H 0.74875 0.03891 0.69499 0.0
H2381 H 0.76376 0.0542 0.72777 0.0
H2382 H 0.73107 0.06688 0.74209 0.0
H2383 H 0.71584 0.05146 0.70914 0.0
H2384 H 0.7606 0.09135 0.74171 0.0
H2385 H 0.73344 0.04339 0.77543 0.0
H2386 H 0.72366 0.0162 0.77831 0.0
H2387 H 0.76793 0.02354 0.78205 0.0
H2388 H 0.77798 0.05077 0.77886 0.0
H2389 H 0.78857 0.12441 0.8516 0.0
H2390 H 0.77449 0.11069 0.8172 0.0
H2391 H 0.80333 0.0923 0.80874 0.0
H2392 H 0.81708 0.10552 0.84382 0.0
H2393 H 0.77563 0.07077 0.80569 0.0
H2394 H 0.80316 0.11836 0.77224 0.0
H2395 H 0.81352 0.14558 0.76848 0.0
H2396 H 0.76966 0.13924 0.7631 0.0
H2397 H 0.75902 0.112 0.76714 0.0
C2398 C 0.74466 0.04484 0.70518 0.0
C2399 C 0.7311 0.04398 0.69945 0.0
C2400 C 0.75325 0.05355 0.72394 0.0
C2401 C 0.74851 0.06163 0.73734 0.0
C2402 C 0.7349 0.0607 0.7319 0.0
C2403 C 0.72619 0.05182 0.7132 0.0
C2404 C 0.75804 0.07134 0.75664 0.0
C2405 C 0.76373 0.08687 0.75592 0.0
C2406 C 0.76247 0.06548 0.77469 0.0
C2407 C 0.75646 0.04911 0.77669 0.0
C2408 C 0.74109 0.03919 0.77667 0.0
C2409 C 0.7355 0.02378 0.7784 0.0
C2410 C 0.74517 0.01814 0.7803 0.0
C2411 C 0.76045 0.02792 0.78055 0.0
C2412 C 0.7661 0.04335 0.7788 0.0
C2413 C 0.79202 0.11757 0.84228 0.0
C2414 C 0.80386 0.11595 0.85054 0.0
C2415 C 0.78403 0.10983 0.82249 0.0
C2416 C 0.78786 0.10048 0.81031 0.0
C2417 C 0.80016 0.09944 0.81788 0.0
C2418 C 0.80811 0.10712 0.8378 0.0
C2419 C 0.7783 0.09089 0.79085 0.0
C2420 C 0.77257 0.07533 0.79151 0.0
C2421 C 0.77394 0.09676 0.77265 0.0
C2422 C 0.78029 0.11314 0.7702 0.0
C2423 C 0.79572 0.12278 0.77044 0.0
C2424 C 0.80164 0.13821 0.76822 0.0
C2425 C 0.79226 0.14414 0.76561 0.0
C2426 C 0.77692 0.13463 0.76515 0.0
C2427 C 0.77094 0.11919 0.76737 0.0
H2428 H 0.79687 0.15609 0.76389 0.0
H2429 H 0.74082 0.00621 0.78164 0.0
H2430 H 0.02922 0.31571 0.98533 0.0
H2431 H 0.04927 0.31214 3e-05 0.0
H2432 H 0.06765 0.3541 0.0385 0.0
H2433 H 0.04761 0.35779 0.02384 0.0
H2434 H 0.08876 0.35117 0.01449 0.0
H2435 H 0.04967 0.32198 0.06512 0.0
H2436 H 0.02452 0.30255 0.07474 0.0
H2437 H 0.03076 0.26875 0.04138 0.0
H2438 H 0.05589 0.28802 0.0313 0.0
H2439 H 0.13706 0.34535 0.09404 0.0
H2440 H 0.1192 0.34857 0.07121 0.0
H2441 H 0.10089 0.30351 0.04292 0.0
H2442 H 0.11847 0.30005 0.06659 0.0
H2443 H 0.07975 0.30709 0.05856 0.0
H2444 H 0.11941 0.33559 0.01008 0.0
H2445 H 0.14456 0.35478 7e-05 0.0
H2446 H 0.13748 0.38945 0.02793 0.0
H2447 H 0.11235 0.37046 0.03841 0.0
C2448 C 0.03746 0.32415 0.99704 0.0
C2449 C 0.0368 0.33704 0.00343 0.0
C2450 C 0.04891 0.32207 0.00544 0.0
C2451 C 0.05994 0.33284 0.02039 0.0
C2452 C 0.05927 0.34567 0.02693 0.0
C2453 C 0.04776 0.34772 0.01865 0.0
C2454 C 0.07226 0.33079 0.02901 0.0
C2455 C 0.08684 0.34162 0.02432 0.0
C2456 C 0.06969 0.31806 0.04114 0.0
C2457 C 0.0546 0.30646 0.04724 0.0
C2458 C 0.04563 0.31042 0.05967 0.0
C2459 C 0.03139 0.29944 0.06524 0.0
C2460 C 0.02603 0.28443 0.05861 0.0
C2461 C 0.03492 0.28038 0.04646 0.0
C2462 C 0.04916 0.29133 0.04084 0.0
C2463 C 0.12948 0.33626 0.08251 0.0
C2464 C 0.12912 0.32242 0.08218 0.0
C2465 C 0.1193 0.33813 0.06933 0.0
C2466 C 0.10867 0.3263 0.05524 0.0
C2467 C 0.10896 0.3128 0.0537 0.0
C2468 C 0.11913 0.31088 0.06701 0.0
C2469 C 0.09638 0.32753 0.04419 0.0
C2470 C 0.08176 0.31657 0.04848 0.0
C2471 C 0.09892 0.34009 0.03154 0.0
C2472 C 0.11401 0.35157 0.02517 0.0
C2473 C 0.12324 0.3473 0.01422 0.0
C2474 C 0.13749 0.35814 0.00844 0.0
C2475 C 0.14262 0.37332 0.0134 0.0
C2476 C 0.13349 0.37769 0.02411 0.0
C2477 C 0.11923 0.36689 0.02994 0.0
H2478 H 0.15366 0.3817 0.00891 0.0
H2479 H 0.015 0.27594 0.06294 0.0
H2480 H 0.66679 0.69876 0.02636 0.0
H2481 H 0.67582 0.72573 0.02594 0.0
H2482 H 0.6347 0.71843 0.0527 0.0
H2483 H 0.62549 0.69155 0.05275 0.0
H2484 H 0.64434 0.74003 0.02257 0.0
H2485 H 0.66523 0.72816 0.08787 0.0
H2486 H 0.67942 0.71802 0.10701 0.0
H2487 H 0.71793 0.74758 0.0707 0.0
H2488 H 0.7039 0.75778 0.05117 0.0
H2489 H 0.65963 0.79996 0.09881 0.0
H2490 H 0.65277 0.77748 0.07531 0.0
H2491 H 0.69731 0.79771 0.05174 0.0
H2492 H 0.70423 0.82027 0.07552 0.0
H2493 H 0.68907 0.77162 0.0717 0.0
H2494 H 0.66837 0.78764 0.01386 0.0
H2495 H 0.65351 0.79795 0.99764 0.0
H2496 H 0.61396 0.76092 0.02211 0.0
H2497 H 0.62859 0.75048 0.03878 0.0
C2498 C 0.65958 0.70286 0.03183 0.0
C2499 C 0.64547 0.69297 0.03987 0.0
C2500 C 0.66477 0.7183 0.03163 0.0
C2501 C 0.65602 0.72413 0.03962 0.0
C2502 C 0.64166 0.7142 0.04647 0.0
C2503 C 0.63644 0.6988 0.0466 0.0
C2504 C 0.66207 0.74056 0.04269 0.0
C2505 C 0.65414 0.74697 0.03327 0.0
C2506 C 0.67506 0.74972 0.05619 0.0
C2507 C 0.68347 0.74357 0.06784 0.0
C2508 C 0.67669 0.7324 0.08384 0.0
C2509 C 0.68471 0.72666 0.09479 0.0
C2510 C 0.69955 0.73211 0.09001 0.0
C2511 C 0.70642 0.74334 0.07433 0.0
C2512 C 0.69845 0.74911 0.06333 0.0
C2513 C 0.66778 0.79983 0.0879 0.0
C2514 C 0.68243 0.81182 0.08888 0.0
C2515 C 0.66386 0.78699 0.07443 0.0
C2516 C 0.67451 0.78591 0.0617 0.0
C2517 C 0.6889 0.79834 0.06135 0.0
C2518 C 0.69281 0.81126 0.07477 0.0
C2519 C 0.67116 0.77107 0.05202 0.0
C2520 C 0.67956 0.76488 0.06035 0.0
C2521 C 0.65851 0.76212 0.03777 0.0
C2522 C 0.64961 0.7683 0.02766 0.0
C2523 C 0.65652 0.78174 0.01592 0.0
C2524 C 0.64813 0.7876 0.00662 0.0
C2525 C 0.63281 0.7801 0.00886 0.0
C2526 C 0.62583 0.76671 0.02038 0.0
C2527 C 0.63417 0.7608 0.02972 0.0
H2528 H 0.62633 0.78466 0.00166 0.0
H2529 H 0.70574 0.72766 0.09851 0.0
H2530 H 0.32105 0.93856 0.0156 0.0
H2531 H 0.29623 0.92203 0.02877 0.0
H2532 H 0.2893 0.95977 0.03691 0.0
H2533 H 0.31423 0.97649 0.02381 0.0
H2534 H 0.2788 0.94059 0.07242 0.0
H2535 H 0.27444 0.93709 0.99136 0.0
H2536 H 0.28096 0.93354 0.9527 0.0
H2537 H 0.27097 0.88888 0.96762 0.0
H2538 H 0.2646 0.89224 0.0065 0.0
H2539 H 0.20514 0.8947 0.0945 0.0
H2540 H 0.22436 0.91164 0.06947 0.0
H2541 H 0.23822 0.87894 0.05952 0.0
H2542 H 0.2189 0.86191 0.08424 0.0
H2543 H 0.24382 0.8972 0.02231 0.0
H2544 H 0.25163 0.90198 0.10425 0.0
H2545 H 0.24405 0.90455 0.14262 0.0
H2546 H 0.24764 0.94661 0.12603 0.0
H2547 H 0.25493 0.94411 0.08732 0.0
C2548 C 0.31433 0.94341 0.0204 0.0
C2549 C 0.31958 0.95883 0.01848 0.0
C2550 C 0.30011 0.93392 0.02779 0.0
C2551 C 0.29084 0.93964 0.03335 0.0
C2552 C 0.29626 0.95513 0.0325 0.0
C2553 C 0.3105 0.96465 0.02504 0.0
C2554 C 0.27543 0.92935 0.03976 0.0
C2555 C 0.27107 0.93129 0.06129 0.0
C2556 C 0.26541 0.91708 0.02533 0.0
C2557 C 0.26915 0.91497 0.00191 0.0
C2558 C 0.27374 0.92655 0.98646 0.0
C2559 C 0.27739 0.92457 0.96449 0.0
C2560 C 0.27641 0.911 0.95772 0.0
C2561 C 0.27174 0.89938 0.97289 0.0
C2562 C 0.26808 0.90132 0.99489 0.0
C2563 C 0.21186 0.89089 0.08609 0.0
C2564 C 0.21072 0.87713 0.09147 0.0
C2565 C 0.22285 0.90057 0.07189 0.0
C2566 C 0.23294 0.89668 0.06321 0.0
C2567 C 0.23058 0.88217 0.06618 0.0
C2568 C 0.21951 0.87242 0.08025 0.0
C2569 C 0.2473 0.9084 0.05496 0.0
C2570 C 0.25149 0.90668 0.03321 0.0
C2571 C 0.25721 0.92085 0.06921 0.0
C2572 C 0.25365 0.92278 0.09283 0.0
C2573 C 0.25076 0.91176 0.10876 0.0
C2574 C 0.24648 0.91318 0.13054 0.0
C2575 C 0.24527 0.92568 0.13671 0.0
C2576 C 0.24851 0.93688 0.12118 0.0
C2577 C 0.25271 0.93547 0.09931 0.0
H2578 H 0.2419 0.92673 0.15356 0.0
H2579 H 0.27924 0.90949 0.94071 0.0
H2580 H 0.33736 0.02485 0.99434 0.0
H2581 H 0.32903 0.04322 0.99537 0.0
H2582 H 0.37243 0.07785 0.97738 0.0
H2583 H 0.3809 0.05966 0.97639 0.0
H2584 H 0.35842 0.08821 0.00787 0.0
H2585 H 0.34749 0.0584 0.93609 0.0
H2586 H 0.3358 0.03435 0.91399 0.0
H2587 H 0.29329 0.02375 0.9383 0.0
H2588 H 0.3048 0.04769 0.96075 0.0
H2589 H 0.36042 0.13892 0.93095 0.0
H2590 H 0.36081 0.12158 0.9578 0.0
H2591 H 0.31318 0.09441 0.95092 0.0
H2592 H 0.31297 0.11145 0.92272 0.0
H2593 H 0.32334 0.07783 0.94277 0.0
H2594 H 0.3334 0.11148 0.00462 0.0
H2595 H 0.3447 0.13553 0.02655 0.0
H2596 H 0.38738 0.13911 0.02326 0.0
H2597 H 0.3764 0.1152 0.00101 0.0
C2598 C 0.34524 0.03643 0.99108 0.0
C2599 C 0.35973 0.04072 0.98484 0.0
C2600 C 0.34045 0.04692 0.99175 0.0
C2601 C 0.35008 0.06184 0.98623 0.0
C2602 C 0.36484 0.06638 0.98173 0.0
C2603 C 0.36962 0.05592 0.98097 0.0
C2604 C 0.34443 0.07218 0.98169 0.0
C2605 C 0.35069 0.08602 0.99376 0.0
C2606 C 0.33389 0.069 0.96387 0.0
C2607 C 0.32701 0.0547 0.95027 0.0
C2608 C 0.33567 0.05088 0.93682 0.0
C2609 C 0.32908 0.03729 0.92422 0.0
C2610 C 0.31382 0.02751 0.9248 0.0
C2611 C 0.30511 0.03132 0.93792 0.0
C2612 C 0.31166 0.04489 0.95057 0.0
C2613 C 0.34999 0.12956 0.93584 0.0
C2614 C 0.33667 0.12647 0.92482 0.0
C2615 C 0.35019 0.11964 0.95137 0.0
C2616 C 0.33701 0.10664 0.95666 0.0
C2617 C 0.32351 0.10431 0.94713 0.0
C2618 C 0.32336 0.11406 0.93111 0.0
C2619 C 0.33774 0.09436 0.96837 0.0
C2620 C 0.33061 0.08005 0.95755 0.0
C2621 C 0.34733 0.09712 0.98753 0.0
C2622 C 0.35405 0.11151 0.00107 0.0
C2623 C 0.34521 0.11742 0.00845 0.0
C2624 C 0.35156 0.13104 0.02096 0.0
C2625 C 0.36675 0.13884 0.02629 0.0
C2626 C 0.37561 0.13303 0.01915 0.0
C2627 C 0.36932 0.11942 0.00663 0.0
H2628 H 0.37164 0.14939 0.03596 0.0
H2629 H 0.30873 0.01699 0.91504 0.0
H2630 H 0.98034 0.30505 0.99295 0.0
H2631 H 0.96266 0.27807 0.99364 0.0
H2632 H 0.92702 0.28618 0.97592 0.0
H2633 H 0.94441 0.31297 0.9757 0.0
H2634 H 0.91796 0.26454 0.00555 0.0
H2635 H 0.94458 0.27632 0.93523 0.0
H2636 H 0.96702 0.28607 0.91278 0.0
H2637 H 0.97793 0.2552 0.94337 0.0
H2638 H 0.95562 0.24539 0.96617 0.0
H2639 H 0.86595 0.20645 0.93231 0.0
H2640 H 0.88415 0.2285 0.95465 0.0
H2641 H 0.90901 0.20632 0.96925 0.0
H2642 H 0.89076 0.18418 0.94658 0.0
H2643 H 0.92556 0.23263 0.94953 0.0
H2644 H 0.89449 0.21679 0.0126 0.0
H2645 H 0.87115 0.20696 0.03269 0.0
H2646 H 0.86766 0.24521 0.01432 0.0
H2647 H 0.89086 0.25518 0.99383 0.0
C2648 C 0.96871 0.3011 0.98954 0.0
C2649 C 0.96385 0.31121 0.98401 0.0
C2650 C 0.95862 0.28566 0.98987 0.0
C2651 C 0.94352 0.28006 0.98452 0.0
C2652 C 0.93859 0.2902 0.98011 0.0
C2653 C 0.94861 0.30557 0.97985 0.0
C2654 C 0.93289 0.26368 0.98175 0.0
C2655 C 0.91962 0.25753 0.99336 0.0
C2656 C 0.9352 0.2544 0.9663 0.0
C2657 C 0.94858 0.26028 0.9526 0.0
C2658 C 0.95184 0.2717 0.93727 0.0
C2659 C 0.96451 0.27722 0.92447 0.0
C2660 C 0.97392 0.2713 0.92671 0.0
C2661 C 0.97065 0.25981 0.9417 0.0
C2662 C 0.958 0.25426 0.95456 0.0
C2663 C 0.87498 0.20607 0.94105 0.0
C2664 C 0.87694 0.19362 0.93784 0.0
C2665 C 0.88539 0.21867 0.95384 0.0
C2666 C 0.89795 0.21906 0.96371 0.0
C2667 C 0.89938 0.20622 0.96186 0.0
C2668 C 0.88889 0.19354 0.94912 0.0
C2669 C 0.91041 0.23357 0.97286 0.0
C2670 C 0.92404 0.23943 0.96232 0.0
C2671 C 0.90833 0.24258 0.98912 0.0
C2672 C 0.89442 0.23671 0.0016 0.0
C2673 C 0.88871 0.22307 0.01272 0.0
C2674 C 0.8755 0.21747 0.0242 0.0
C2675 C 0.86792 0.22545 0.02477 0.0
C2676 C 0.87355 0.23905 0.01389 0.0
C2677 C 0.88674 0.24469 0.00238 0.0
H2678 H 0.8577 0.22109 0.03366 0.0
H2679 H 0.98373 0.27558 0.91678 0.0
H2680 H 0.68288 0.62743 0.01048 0.0
H2681 H 0.70733 0.63471 0.99669 0.0
H2682 H 0.71514 0.67928 0.98537 0.0
H2683 H 0.69057 0.67209 -0.00078 0.0
H2684 H 0.72414 0.66757 0.94985 0.0
H2685 H 0.73076 0.67418 0.0308 0.0
H2686 H 0.7251 0.66666 0.07037 0.0
H2687 H 0.73375 0.63054 0.05829 0.0
H2688 H 0.73926 0.63771 0.01853 0.0
H2689 H 0.79766 0.69428 0.92559 0.0
H2690 H 0.77823 0.69316 0.94935 0.0
H2691 H 0.76507 0.64754 0.96498 0.0
H2692 H 0.78455 0.64865 0.94141 0.0
H2693 H 0.75999 0.66248 0.00027 0.0
H2694 H 0.75047 0.65354 0.91943 0.0
H2695 H 0.7563 0.66023 0.87958 0.0
H2696 H 0.7525 0.69948 0.89089 0.0
H2697 H 0.74696 0.69318 0.93098 0.0
C2698 C 0.68972 0.63876 0.00491 0.0
C2699 C 0.68479 0.64921 0.00609 0.0
C2700 C 0.70374 0.64292 0.99715 0.0
C2701 C 0.71314 0.6576 0.99039 0.0
C2702 C 0.70808 0.66792 0.99067 0.0
C2703 C 0.69404 0.66379 0.99858 0.0
C2704 C 0.72828 0.6621 0.98324 0.0
C2705 C 0.73209 0.66676 0.96101 0.0
C2706 C 0.73852 0.6607 0.99768 0.0
C2707 C 0.73532 0.65642 0.02163 0.0
C2708 C 0.73135 0.66457 0.03653 0.0
C2709 C 0.72819 0.66038 0.05901 0.0
C2710 C 0.72904 0.64811 0.06683 0.0
C2711 C 0.73309 0.64003 0.05221 0.0
C2712 C 0.73625 0.64417 0.02971 0.0
C2713 C 0.79099 0.68424 0.93485 0.0
C2714 C 0.79246 0.67149 0.93147 0.0
C2715 C 0.77987 0.68358 0.94832 0.0
C2716 C 0.76999 0.67013 0.9584 0.0
C2717 C 0.77255 0.65799 0.95723 0.0
C2718 C 0.78373 0.65867 0.94384 0.0
C2719 C 0.7558 0.6679 0.96691 0.0
C2720 C 0.75213 0.66356 0.98928 0.0
C2721 C 0.74561 0.66943 0.95253 0.0
C2722 C 0.74846 0.67298 0.92826 0.0
C2723 C 0.75095 0.66364 0.91345 0.0
C2724 C 0.75421 0.66736 0.89082 0.0
C2725 C 0.75481 0.68029 0.88272 0.0
C2726 C 0.75207 0.68948 0.89721 0.0
C2727 C 0.74887 0.68585 0.91988 0.0
H2728 H 0.75736 0.68316 0.86521 0.0
H2729 H 0.72658 0.64488 0.08424 0.0
H2730 H 0.96545 0.65218 0.97666 0.0
H2731 H 0.94658 0.65715 0.96049 0.0
H2732 H 0.95266 0.68635 0.01824 0.0
H2733 H 0.97139 0.68139 0.03457 0.0
H2734 H 0.92396 0.66722 0.00943 0.0
H2735 H 0.96564 0.70061 0.96715 0.0
H2736 H 0.98688 0.70808 0.94267 0.0
H2737 H 0.95792 0.67789 0.88942 0.0
H2738 H 0.93651 0.67007 0.91371 0.0
H2739 H 0.89133 0.70054 0.92131 0.0
H2740 H 0.91166 0.70098 0.94333 0.0
H2741 H 0.88387 0.65409 0.95662 0.0
H2742 H 0.86359 0.65349 0.93431 0.0
H2743 H 0.92467 0.68501 0.93174 0.0
H2744 H 0.89565 0.64674 0.00678 0.0
H2745 H 0.87507 0.64103 0.03198 0.0
H2746 H 0.88017 0.68446 0.02135 0.0
H2747 H 0.90091 0.69051 0.99636 0.0
C2748 C 0.96288 0.65978 0.9858 0.0
C2749 C 0.96991 0.66635 0.00694 0.0
C2750 C 0.95211 0.66263 0.97652 0.0
C2751 C 0.94823 0.67215 0.98814 0.0
C2752 C 0.95543 0.67893 0.00902 0.0
C2753 C 0.96619 0.67611 0.01829 0.0
C2754 C 0.9363 0.67464 0.97898 0.0
C2755 C 0.92413 0.67114 0.99245 0.0
C2756 C 0.93663 0.67999 0.95698 0.0
C2757 C 0.94949 0.68464 0.94236 0.0
C2758 C 0.96381 0.69546 0.9503 0.0
C2759 C 0.97588 0.69978 0.93644 0.0
C2760 C 0.97376 0.69343 0.91453 0.0
C2761 C 0.95955 0.68278 0.90641 0.0
C2762 C 0.94745 0.6784 0.92022 0.0
C2763 C 0.88946 0.69039 0.92931 0.0
C2764 C 0.87585 0.67696 0.92595 0.0
C2765 C 0.9011 0.69066 0.94183 0.0
C2766 C 0.89931 0.67757 0.95153 0.0
C2767 C 0.88546 0.66438 0.94947 0.0
C2768 C 0.87382 0.66407 0.93683 0.0
C2769 C 0.91223 0.67733 0.96204 0.0
C2770 C 0.92455 0.68118 0.94877 0.0
C2771 C 0.91212 0.67249 0.98432 0.0
C2772 C 0.89975 0.66901 -0.00048 0.0
C2773 C 0.89242 0.65509 0.00989 0.0
C2774 C 0.88072 0.65179 0.02413 0.0
C2775 C 0.87629 0.66235 0.02821 0.0
C2776 C 0.88358 0.67626 0.01811 0.0
C2777 C 0.89529 0.67962 0.00388 0.0
H2778 H 0.86722 0.65977 0.03923 0.0
H2779 H 0.98312 0.6968 0.90383 0.0
H2780 H 0.38422 0.32053 0.00052 0.0
H2781 H 0.37865 0.29451 0.00073 0.0
H2782 H 0.3328 0.27935 0.98368 0.0
H2783 H 0.33823 0.30545 0.98445 0.0
H2784 H 0.33547 0.25866 0.00868 0.0
H2785 H 0.3567 0.28681 0.942 0.0
H2786 H 0.3752 0.30816 0.92095 0.0
H2787 H 0.40911 0.29901 0.94392 0.0
H2788 H 0.39082 0.27772 0.96539 0.0
H2789 H 0.31717 0.19989 0.92577 0.0
H2790 H 0.32102 0.2198 0.95304 0.0
H2791 H 0.36567 0.22935 0.96714 0.0
H2792 H 0.36208 0.20986 0.93935 0.0
H2793 H 0.36496 0.25237 0.94912 0.0
H2794 H 0.34099 0.22014 0.00977 0.0
H2795 H 0.3212 0.19835 0.02835 0.0
H2796 H 0.29087 0.21405 0.01393 0.0
H2797 H 0.31041 0.23583 0.99495 0.0
C2798 C 0.37287 0.31163 0.99745 0.0
C2799 C 0.36169 0.31496 0.99205 0.0
C2800 C 0.3697 0.29677 0.99761 0.0
C2801 C 0.35539 0.28502 0.99163 0.0
C2802 C 0.34393 0.28825 0.98825 0.0
C2803 C 0.34705 0.30316 0.9886 0.0
C2804 C 0.35298 0.26992 0.98537 0.0
C2805 C 0.34187 0.25721 0.99566 0.0
C2806 C 0.36145 0.26807 0.96852 0.0
C2807 C 0.37244 0.2808 0.95551 0.0
C2808 C 0.36812 0.28942 0.94269 0.0
C2809 C 0.37856 0.3015 0.93067 0.0
C2810 C 0.39333 0.30497 0.93116 0.0
C2811 C 0.39767 0.29633 0.94361 0.0
C2812 C 0.38728 0.28426 0.9557 0.0
C2813 C 0.32765 0.20591 0.93523 0.0
C2814 C 0.33941 0.20351 0.93004 0.0
C2815 C 0.32979 0.21721 0.951 0.0
C2816 C 0.34368 0.22616 0.962 0.0
C2817 C 0.35487 0.22259 0.9588 0.0
C2818 C 0.35276 0.21135 0.94296 0.0
C2819 C 0.34747 0.24094 0.97247 0.0
C2820 C 0.35877 0.2537 0.96265 0.0
C2821 C 0.33898 0.24268 0.98939 0.0
C2822 C 0.32717 0.22959 0.00079 0.0
C2823 C 0.33007 0.21889 0.01038 0.0
C2824 C 0.3189 0.20655 0.02103 0.0
C2825 C 0.30478 0.2048 0.02229 0.0
C2826 C 0.30181 0.21542 0.01294 0.0
C2827 C 0.31294 0.22778 0.00227 0.0
H2828 H 0.29615 0.19524 0.03054 0.0
H2829 H 0.4014 0.31432 0.92183 0.0
H2830 H 0.67876 0.06654 0.99779 0.0
H2831 H 0.70347 0.08348 0.98422 0.0
H2832 H 0.71556 0.04954 0.99375 0.0
H2833 H 0.6909 0.0325 0.00727 0.0
H2834 H 0.73679 0.0779 0.01192 0.0
H2835 H 0.70835 0.05579 0.94201 0.0
H2836 H 0.68765 0.04879 0.91441 0.0
H2837 H 0.70048 0.0952 0.90869 0.0
H2838 H 0.72115 0.10246 0.93652 0.0
H2839 H 0.80026 0.10325 0.945 0.0
H2840 H 0.77774 0.09127 0.96664 0.0
H2841 H 0.76649 0.12411 0.94427 0.0
H2842 H 0.78873 0.13563 0.92183 0.0
H2843 H 0.74475 0.09789 0.93461 0.0
H2844 H 0.77443 0.12059 0.00204 0.0
H2845 H 0.79519 0.12791 0.02964 0.0
H2846 H 0.78039 0.08152 0.04073 0.0
H2847 H 0.75965 0.07391 0.01295 0.0
C2848 C 0.68663 0.06262 0.99682 0.0
C2849 C 0.68284 0.04816 0.00357 0.0
C2850 C 0.70074 0.07233 0.98909 0.0
C2851 C 0.71133 0.06776 0.98804 0.0
C2852 C 0.70756 0.05329 0.99455 0.0
C2853 C 0.69342 0.04354 0.0021 0.0
C2854 C 0.72636 0.07806 0.98012 0.0
C2855 C 0.7386 0.08221 0.99496 0.0
C2856 C 0.72862 0.084 0.95826 0.0
C2857 C 0.71619 0.07965 0.94154 0.0
C2858 C 0.70668 0.06449 0.93503 0.0
C2859 C 0.69497 0.06048 0.91931 0.0
C2860 C 0.69272 0.07154 0.90985 0.0
C2861 C 0.70221 0.08664 0.91606 0.0
C2862 C 0.71393 0.09071 0.93179 0.0
C2863 C 0.79325 0.10822 0.9455 0.0
C2864 C 0.7962 0.12039 0.93201 0.0
C2865 C 0.78036 0.10138 0.95784 0.0
C2866 C 0.77037 0.10678 0.95715 0.0
C2867 C 0.77398 0.1197 0.94502 0.0
C2868 C 0.78673 0.12637 0.9324 0.0
C2869 C 0.75537 0.09785 0.96638 0.0
C2870 C 0.74306 0.09384 0.95172 0.0
C2871 C 0.75309 0.09215 0.98847 0.0
C2872 C 0.76553 0.09668 0.00526 0.0
C2873 C 0.77566 0.11195 0.01023 0.0
C2874 C 0.78741 0.11615 0.02594 0.0
C2875 C 0.78912 0.10519 0.0369 0.0
C2876 C 0.77905 0.09 0.03222 0.0
C2877 C 0.76728 0.08573 0.01651 0.0
H2878 H 0.79823 0.10846 0.04905 0.0
H2879 H 0.68366 0.06842 0.89768 0.0
H2880 H 0.66439 0.9805 0.02603 0.0
H2881 H 0.6721 0.96158 0.02642 0.0
H2882 H 0.62813 0.92802 0.04394 0.0
H2883 H 0.62031 0.94666 0.04355 0.0
H2884 H 0.65037 0.93229 0.07527 0.0
H2885 H 0.64023 0.92481 0.99457 0.0
H2886 H 0.64261 0.93264 0.95497 0.0
H2887 H 0.6892 0.94817 0.95936 0.0
H2888 H 0.68714 0.94062 -0.00087 0.0
H2889 H 0.6571 0.87082 0.08988 0.0
H2890 H 0.6486 0.88492 0.0674 0.0
H2891 H 0.69375 0.91681 0.05261 0.0
H2892 H 0.70227 0.90253 0.07489 0.0
H2893 H 0.67192 0.91369 0.01765 0.0
H2894 H 0.68341 0.92465 0.09772 0.0
H2895 H 0.68264 0.91886 0.13821 0.0
H2896 H 0.63536 0.899 0.13557 0.0
H2897 H 0.63585 0.9046 0.095 0.0
C2898 C 0.65627 0.96902 0.02945 0.0
C2899 C 0.64179 0.96517 0.03515 0.0
C2900 C 0.66068 0.95822 0.02956 0.0
C2901 C 0.65068 0.94344 0.0353 0.0
C2902 C 0.63601 0.93938 0.03952 0.0
C2903 C 0.63159 0.9501 0.03935 0.0
C2904 C 0.65587 0.93275 0.0402 0.0
C2905 C 0.65484 0.92804 0.06254 0.0
C2906 C 0.66229 0.92773 0.02381 0.0
C2907 C 0.66356 0.9323 -8e-05 0.0
C2908 C 0.65101 0.93003 0.98718 0.0
C2909 C 0.6523 0.93439 0.96468 0.0
C2910 C 0.66606 0.94094 0.95467 0.0
C2911 C 0.67856 0.94311 0.96714 0.0
C2912 C 0.67733 0.93879 0.98966 0.0
C2913 C 0.66512 0.88038 0.08082 0.0
C2914 C 0.68031 0.88566 0.08408 0.0
C2915 C 0.66028 0.88847 0.06808 0.0
C2916 C 0.67059 0.90204 0.05874 0.0
C2917 C 0.68564 0.90635 0.05967 0.0
C2918 C 0.69049 0.89818 0.07233 0.0
C2919 C 0.66596 0.91298 0.05251 0.0
C2920 C 0.66729 0.91787 0.0302 0.0
C2921 C 0.66002 0.91846 0.06898 0.0
C2922 C 0.65965 0.91491 0.09329 0.0
C2923 C 0.67284 0.91894 0.10573 0.0
C2924 C 0.67246 0.91576 0.12871 0.0
C2925 C 0.65896 0.90855 0.13943 0.0
C2926 C 0.64581 0.90456 0.12722 0.0
C2927 C 0.64613 0.90776 0.10425 0.0
H2928 H 0.65868 0.90612 0.15722 0.0
H2929 H 0.66703 0.9443 0.93724 0.0
H2930 H 0.06092 0.68518 0.04342 0.0
H2931 H 0.07911 0.71173 0.04695 0.0
H2932 H 0.04757 0.72249 0.01727 0.0
H2933 H 0.02898 0.69576 0.01438 0.0
H2934 H 0.09338 0.73579 0.02313 0.0
H2935 H 0.05121 0.75318 0.04567 0.0
H2936 H 0.02544 0.74215 0.05775 0.0
H2937 H 0.02923 0.70764 0.09157 0.0
H2938 H 0.05505 0.71857 0.07986 0.0
H2939 H 0.13735 0.81082 0.07497 0.0
H2940 H 0.11913 0.79085 0.04866 0.0
H2941 H 0.09754 0.76368 0.10558 0.0
H2942 H 0.11548 0.78318 0.13151 0.0
H2943 H 0.07751 0.76282 0.07579 0.0
H2944 H 0.12232 0.7588 0.07456 0.0
H2945 H 0.14862 0.76832 0.06684 0.0
H2946 H 0.14042 0.77389 0.99705 0.0
H2947 H 0.11409 0.76455 0.00447 0.0
C2948 C 0.05784 0.69312 0.03727 0.0
C2949 C 0.04334 0.6883 0.02909 0.0
C2950 C 0.06835 0.70836 0.03914 0.0
C2951 C 0.06466 0.71916 0.03277 0.0
C2952 C 0.0506 0.71437 0.02269 0.0
C2953 C 0.03998 0.69907 0.02102 0.0
C2954 C 0.07488 0.73516 0.03969 0.0
C2955 C 0.08986 0.74184 0.03429 0.0
C2956 C 0.07036 0.74311 0.05427 0.0
C2957 C 0.05494 0.73656 0.06164 0.0
C2958 C 0.04653 0.74325 0.05571 0.0
C2959 C 0.03192 0.73702 0.06249 0.0
C2960 C 0.02568 0.72417 0.07534 0.0
C2961 C 0.03406 0.71756 0.08154 0.0
C2962 C 0.04867 0.72376 0.07484 0.0
C2963 C 0.12865 0.80059 0.08176 0.0
C2964 C 0.12771 0.79872 0.10536 0.0
C2965 C 0.11825 0.78923 0.06676 0.0
C2966 C 0.10688 0.77582 0.07518 0.0
C2967 C 0.10602 0.77402 0.09867 0.0
C2968 C 0.1163 0.78525 0.11353 0.0
C2969 C 0.09609 0.76312 0.06008 0.0
C2970 C 0.08096 0.75709 0.06387 0.0
C2971 C 0.10055 0.75561 0.04455 0.0
C2972 C 0.11632 0.76118 0.04012 0.0
C2973 C 0.12617 0.76216 0.05762 0.0
C2974 C 0.14106 0.76751 0.05329 0.0
C2975 C 0.1462 0.77176 0.03149 0.0
C2976 C 0.13643 0.77063 0.01395 0.0
C2977 C 0.12153 0.76532 0.0182 0.0
H2978 H 0.15773 0.77589 0.02817 0.0
H2979 H 0.01437 0.71935 0.08054 0.0
H2980 H 0.33133 0.38329 0.03598 0.0
H2981 H 0.30713 0.37845 0.04816 0.0
H2982 H 0.28834 0.33149 0.0298 0.0
H2983 H 0.31246 0.33619 0.01758 0.0
H2984 H 0.27168 0.34345 0.01274 0.0
H2985 H 0.29441 0.34233 0.08407 0.0
H2986 H 0.31378 0.35215 0.11464 0.0
H2987 H 0.30795 0.39021 0.12547 0.0
H2988 H 0.28867 0.38071 0.09474 0.0
H2989 H 0.20476 0.30983 0.07228 0.0
H2990 H 0.22779 0.31855 0.05246 0.0
H2991 H 0.24391 0.36339 0.08038 0.0
H2992 H 0.22102 0.35449 0.10083 0.0
H2993 H 0.26236 0.35448 0.09093 0.0
H2994 H 0.23793 0.35451 0.02168 0.0
H2995 H 0.21831 0.34444 0.9915 0.0
H2996 H 0.22699 0.30862 0.97659 0.0
H2997 H 0.24653 0.31835 0.0069 0.0
C2998 C 0.32209 0.3719 0.03478 0.0
C2999 C 0.32382 0.36013 0.0258 0.0
C3000 C 0.30827 0.36916 0.04172 0.0
C3001 C 0.29596 0.35462 0.0398 0.0
C3002 C 0.29771 0.3428 0.03128 0.0
C3003 C 0.31153 0.34551 0.02447 0.0
C3004 C 0.28118 0.35173 0.04636 0.0
C3005 C 0.26956 0.34573 0.02987 0.0
C3006 C 0.27859 0.35514 0.06852 0.0
C3007 C 0.29023 0.3609 0.08692 0.0
C3008 C 0.29736 0.35287 0.09282 0.0
C3009 C 0.3083 0.35836 0.11021 0.0
C3010 C 0.31213 0.37182 0.12194 0.0
C3011 C 0.30499 0.3798 0.11634 0.0
C3012 C 0.29405 0.37436 0.09895 0.0
C3013 C 0.21297 0.32166 0.07336 0.0
C3014 C 0.21118 0.33152 0.088 0.0
C3015 C 0.22616 0.32666 0.06207 0.0
C3016 C 0.23764 0.34164 0.06497 0.0
C3017 C 0.23526 0.35177 0.07798 0.0
C3018 C 0.22215 0.34673 0.0895 0.0
C3019 C 0.2527 0.34614 0.05732 0.0
C3020 C 0.26443 0.35239 0.07366 0.0
C3021 C 0.25536 0.34298 0.03501 0.0
C3022 C 0.24364 0.33711 0.01669 0.0
C3023 C 0.23559 0.34442 0.01208 0.0
C3024 C 0.22449 0.33878 0.99493 0.0
C3025 C 0.22138 0.32588 0.98217 0.0
C3026 C 0.2294 0.31861 0.9865 0.0
C3027 C 0.24051 0.3242 0.00364 0.0
H3028 H 0.21278 0.32154 0.9689 0.0
H3029 H 0.32059 0.37605 0.13541 0.0
H3030 H 0.69627 0.66802 0.35759 0.0
H3031 H 0.71212 0.65944 0.37496 0.0
H3032 H 0.75003 0.69486 0.34338 0.0
H3033 H 0.73425 0.70323 0.3256 0.0
H3034 H 0.75012 0.66974 0.33757 0.0
H3035 H 0.74412 0.69569 0.40111 0.0
H3036 H 0.7307 0.70199 0.42911 0.0
H3037 H 0.70991 0.65702 0.45264 0.0
H3038 H 0.72305 0.65039 0.42453 0.0
H3039 H 0.80639 0.66589 0.40514 0.0
H3040 H 0.79012 0.6729 0.38458 0.0
H3041 H 0.75195 0.63531 0.4121 0.0
H3042 H 0.7682 0.62843 0.43261 0.0
H3043 H 0.75184 0.66108 0.41964 0.0
H3044 H 0.75871 0.63567 0.35595 0.0
H3045 H 0.77313 0.6302 0.32871 0.0
H3046 H 0.79354 0.67544 0.3064 0.0
H3047 H 0.77939 0.68124 0.33374 0.0
C3048 C 0.70801 0.67407 0.35455 0.0
C3049 C 0.71398 0.68629 0.34018 0.0
C3050 C 0.71708 0.66918 0.36453 0.0
C3051 C 0.73232 0.67654 0.36057 0.0
C3052 C 0.73831 0.68894 0.34661 0.0
C3053 C 0.72926 0.69375 0.33652 0.0
C3054 C 0.74198 0.6711 0.37031 0.0
C3055 C 0.75065 0.66805 0.35558 0.0
C3056 C 0.74246 0.66857 0.39373 0.0
C3057 C 0.73443 0.67249 0.41051 0.0
C3058 C 0.73657 0.6871 0.41209 0.0
C3059 C 0.72904 0.69074 0.42802 0.0
C3060 C 0.71941 0.6799 0.44259 0.0
C3061 C 0.71734 0.6654 0.4413 0.0
C3062 C 0.72483 0.6617 0.42538 0.0
C3063 C 0.7945 0.65888 0.40605 0.0
C3064 C 0.78846 0.6465 0.42001 0.0
C3065 C 0.78522 0.6629 0.39446 0.0
C3066 C 0.7698 0.6546 0.39679 0.0
C3067 C 0.76379 0.64186 0.41004 0.0
C3068 C 0.77304 0.63785 0.42153 0.0
C3069 C 0.76 0.6598 0.38693 0.0
C3070 C 0.75131 0.66279 0.40164 0.0
C3071 C 0.75961 0.66241 0.36356 0.0
C3072 C 0.76809 0.65893 0.34705 0.0
C3073 C 0.76636 0.64449 0.34537 0.0
C3074 C 0.77447 0.64132 0.32988 0.0
C3075 C 0.78428 0.65248 0.31587 0.0
C3076 C 0.78596 0.66681 0.31728 0.0
C3077 C 0.77788 0.67004 0.33275 0.0
H3078 H 0.79054 0.65 0.3039 0.0
H3079 H 0.7136 0.68274 0.45493 0.0
H3080 H 0.33131 0.03418 0.3757 0.0
H3081 H 0.33938 0.06097 0.37564 0.0
H3082 H 0.29386 0.05041 0.37553 0.0
H3083 H 0.28573 0.02373 0.37602 0.0
H3084 H 0.33515 0.08067 0.35027 0.0
H3085 H 0.29064 0.07318 0.41404 0.0
H3086 H 0.27627 0.05627 0.44423 0.0
H3087 H 0.30991 0.04442 0.45474 0.0
H3088 H 0.32455 0.06139 0.42484 0.0
H3089 H 0.32643 0.14241 0.42115 0.0
H3090 H 0.31667 0.11914 0.39804 0.0
H3091 H 0.36078 0.12578 0.39426 0.0
H3092 H 0.37051 0.14926 0.41673 0.0
H3093 H 0.31846 0.09754 0.41702 0.0
H3094 H 0.36228 0.10281 0.35304 0.0
H3095 H 0.37877 0.12077 0.32556 0.0
H3096 H 0.34981 0.13894 0.31898 0.0
H3097 H 0.33303 0.12096 0.34615 0.0
C3098 C 0.32301 0.03755 0.37525 0.0
C3099 C 0.30788 0.02682 0.37629 0.0
C3100 C 0.32764 0.05287 0.37514 0.0
C3101 C 0.31723 0.05769 0.376 0.0
C3102 C 0.3021 0.04695 0.37527 0.0
C3103 C 0.29747 0.03169 0.37557 0.0
C3104 C 0.32212 0.07381 0.38006 0.0
C3105 C 0.33163 0.08444 0.36494 0.0
C3106 C 0.31734 0.07867 0.39904 0.0
C3107 C 0.30855 0.06836 0.41694 0.0
C3108 C 0.29495 0.06695 0.42279 0.0
C3109 C 0.28677 0.05737 0.43986 0.0
C3110 C 0.29213 0.04921 0.4513 0.0
C3111 C 0.30572 0.05067 0.44576 0.0
C3112 C 0.31395 0.06024 0.42873 0.0
C3113 C 0.33408 0.13929 0.41424 0.0
C3114 C 0.34919 0.14761 0.42039 0.0
C3115 C 0.32851 0.12595 0.40121 0.0
C3116 C 0.33796 0.12065 0.39446 0.0
C3117 C 0.35328 0.12972 0.39888 0.0
C3118 C 0.35886 0.14315 0.4117 0.0
C3119 C 0.33165 0.1046 0.38737 0.0
C3120 C 0.32186 0.09389 0.40209 0.0
C3121 C 0.3365 0.09982 0.36837 0.0
C3122 C 0.34645 0.11059 0.3518 0.0
C3123 C 0.35939 0.11058 0.34565 0.0
C3124 C 0.3688 0.12078 0.33014 0.0
C3125 C 0.36536 0.13102 0.32057 0.0
C3126 C 0.35249 0.13105 0.32646 0.0
C3127 C 0.34304 0.12087 0.34196 0.0
H3128 H 0.37267 0.13891 0.30858 0.0
H3129 H 0.28578 0.04181 0.46452 0.0
H3130 H 0.98685 0.30401 0.35454 0.0
H3131 H 0.96537 0.28562 0.37436 0.0
H3132 H 0.93967 0.27111 0.31124 0.0
H3133 H 0.96111 0.28972 0.29122 0.0
H3134 H 0.9238 0.2732 0.3464 0.0
H3135 H 0.9531 0.25023 0.33214 0.0
H3136 H 0.97605 0.24895 0.33176 0.0
H3137 H 0.98048 0.25461 0.40438 0.0
H3138 H 0.95764 0.25611 0.40517 0.0
H3139 H 0.86854 0.20841 0.40433 0.0
H3140 H 0.88596 0.22449 0.37621 0.0
H3141 H 0.92045 0.245 0.42863 0.0
H3142 H 0.90355 0.22871 0.45627 0.0
H3143 H 0.92989 0.2369 0.39279 0.0
H3144 H 0.90252 0.26281 0.40682 0.0
H3145 H 0.87999 0.26485 0.40771 0.0
H3146 H 0.87211 0.25399 0.33621 0.0
H3147 H 0.89452 0.25169 0.33496 0.0
C3148 C 0.97663 0.29696 0.34484 0.0
C3149 C 0.97572 0.29823 0.32127 0.0
C3150 C 0.96437 0.28643 0.35619 0.0
C3151 C 0.95102 0.27684 0.34418 0.0
C3152 C 0.94991 0.27837 0.32077 0.0
C3153 C 0.96218 0.28897 0.30938 0.0
C3154 C 0.93843 0.26503 0.35618 0.0
C3155 C 0.92501 0.26507 0.35624 0.0
C3156 C 0.94007 0.25449 0.36907 0.0
C3157 C 0.95369 0.25336 0.36869 0.0
C3158 C 0.959 0.25128 0.34801 0.0
C3159 C 0.97199 0.2505 0.34773 0.0
C3160 C 0.97973 0.25172 0.36803 0.0
C3161 C 0.97447 0.25366 0.38867 0.0
C3162 C 0.96149 0.25445 0.38905 0.0
C3163 C 0.87984 0.21637 0.40979 0.0
C3164 C 0.88459 0.21738 0.43261 0.0
C3165 C 0.88974 0.22561 0.39376 0.0
C3166 C 0.90448 0.23598 0.40038 0.0
C3167 C 0.90913 0.23708 0.42315 0.0
C3168 C 0.89936 0.22787 0.43902 0.0
C3169 C 0.91545 0.24546 0.3838 0.0
C3170 C 0.92857 0.24488 0.38272 0.0
C3171 C 0.91352 0.2555 0.3701 0.0
C3172 C 0.90008 0.25689 0.37086 0.0
C3173 C 0.89591 0.26072 0.39133 0.0
C3174 C 0.88318 0.26196 0.39189 0.0
C3175 C 0.8746 0.2595 0.37204 0.0
C3176 C 0.87875 0.25586 0.35158 0.0
C3177 C 0.89147 0.25459 0.35093 0.0
H3178 H 0.86475 0.26047 0.37251 0.0
H3179 H 0.98979 0.25113 0.36777 0.0
H3180 H 1.00001 0.35929 0.31934 0.0
H3181 H 0.99078 0.37687 0.3217 0.0
H3182 H 0.03529 0.41401 0.31777 0.0
H3183 H 0.04466 0.39658 0.31546 0.0
H3184 H 0.01709 0.4207 0.34535 0.0
H3185 H 0.01682 0.39998 0.26958 0.0
H3186 H 0.00991 0.37928 0.24138 0.0
H3187 H 0.96392 0.36226 0.25373 0.0
H3188 H 0.97061 0.38285 0.28213 0.0
H3189 H 0.0248 0.47553 0.27141 0.0
H3190 H 0.02317 0.45758 0.29889 0.0
H3191 H 0.97642 0.42986 0.28255 0.0
H3192 H 0.97825 0.44763 0.25414 0.0
H3193 H 0.98917 0.4152 0.27329 0.0
H3194 H 0.99097 0.44272 0.33939 0.0
H3195 H 0.9991 0.46472 0.36537 0.0
H3196 H 0.04263 0.47025 0.37091 0.0
H3197 H 0.03486 0.44842 0.3447 0.0
C3198 C 0.0079 0.37121 0.31958 0.0
C3199 C 0.02306 0.37652 0.31672 0.0
C3200 C 0.00259 0.38123 0.321 0.0
C3201 C 0.01234 0.3967 0.31966 0.0
C3202 C 0.02759 0.4021 0.31888 0.0
C3203 C 0.03291 0.3921 0.31734 0.0
C3204 C 0.00666 0.40702 0.31511 0.0
C3205 C 0.01089 0.41955 0.32972 0.0
C3206 C 0.99824 0.40522 0.29501 0.0
C3207 C 0.99421 0.39278 0.27816 0.0
C3208 C 0.00525 0.39174 0.2664 0.0
C3209 C 0.00137 0.38006 0.25036 0.0
C3210 C 0.98649 0.36942 0.24584 0.0
C3211 C 0.97545 0.37048 0.2573 0.0
C3212 C 0.97927 0.38215 0.27336 0.0
C3213 C 0.01404 0.46597 0.27446 0.0
C3214 C 0.00168 0.46284 0.26055 0.0
C3215 C 0.01308 0.45569 0.29032 0.0
C3216 C 0.99967 0.44226 0.29281 0.0
C3217 C 0.9869 0.44009 0.28086 0.0
C3218 C 0.98793 0.45023 0.26467 0.0
C3219 C 0.99989 0.42936 0.30322 0.0
C3220 C 0.99476 0.41625 0.28952 0.0
C3221 C 0.00754 0.43077 0.32409 0.0
C3222 C 0.01231 0.4439 0.34 0.0
C3223 C 0.00231 0.44867 0.34603 0.0
C3224 C 0.00685 0.46111 0.36082 0.0
C3225 C 0.02137 0.46888 0.36978 0.0
C3226 C 0.03137 0.46421 0.36398 0.0
C3227 C 0.02689 0.45177 0.34919 0.0
H3228 H 0.02486 0.47852 0.38122 0.0
H3229 H 0.9835 0.36039 0.2334 0.0
H3230 H 0.64523 0.64183 0.3272 0.0
H3231 H 0.62609 0.61538 0.32898 0.0
H3232 H 0.59406 0.62529 0.29889 0.0
H3233 H 0.61287 0.65162 0.2976 0.0
H3234 H 0.58127 0.60489 0.32966 0.0
H3235 H 0.61326 0.6122 0.26673 0.0
H3236 H 0.63718 0.61981 0.2494 0.0
H3237 H 0.64286 0.58885 0.29012 0.0
H3238 H 0.61903 0.58119 0.30786 0.0
H3239 H 0.53332 0.54463 0.25531 0.0
H3240 H 0.5503 0.56727 0.27771 0.0
H3241 H 0.57142 0.54426 0.30657 0.0
H3242 H 0.55447 0.52155 0.28387 0.0
H3243 H 0.59069 0.56917 0.28551 0.0
H3244 H 0.55472 0.55781 0.34106 0.0
H3245 H 0.53006 0.55008 0.35562 0.0
H3246 H 0.53097 0.58839 0.32659 0.0
H3247 H 0.55555 0.59625 0.31156 0.0
C3248 C 0.63406 0.63842 0.32127 0.0
C3249 C 0.63067 0.64887 0.31198 0.0
C3250 C 0.62313 0.62328 0.32225 0.0
C3251 C 0.60867 0.61828 0.31373 0.0
C3252 C 0.60512 0.62883 0.30557 0.0
C3253 C 0.61596 0.64393 0.30472 0.0
C3254 C 0.59743 0.60204 0.31151 0.0
C3255 C 0.58332 0.59705 0.32004 0.0
C3256 C 0.60018 0.59169 0.29947 0.0
C3257 C 0.61449 0.59628 0.28883 0.0
C3258 C 0.61967 0.60711 0.2721 0.0
C3259 C 0.6332 0.61141 0.26219 0.0
C3260 C 0.64156 0.60486 0.26872 0.0
C3261 C 0.63639 0.59395 0.28512 0.0
C3262 C 0.62288 0.58962 0.29511 0.0
C3263 C 0.54121 0.54423 0.26711 0.0
C3264 C 0.54259 0.53136 0.26788 0.0
C3265 C 0.55091 0.55718 0.27995 0.0
C3266 C 0.56214 0.55748 0.29386 0.0
C3267 C 0.5628 0.54426 0.296 0.0
C3268 C 0.55303 0.53125 0.2832 0.0
C3269 C 0.57439 0.57209 0.30311 0.0
C3270 C 0.58871 0.57682 0.29577 0.0
C3271 C 0.57175 0.58222 0.31599 0.0
C3272 C 0.55698 0.57759 0.3251 0.0
C3273 C 0.54963 0.56454 0.33765 0.0
C3274 C 0.53567 0.56014 0.34601 0.0
C3275 C 0.52895 0.56873 0.34202 0.0
C3276 C 0.53619 0.58176 0.32969 0.0
C3277 C 0.55016 0.58621 0.32128 0.0
H3278 H 0.51814 0.5653 0.34849 0.0
H3279 H 0.65203 0.6082 0.26102 0.0
H3280 H 0.36894 0.9995 0.39457 0.0
H3281 H 0.3895 0.99917 0.37601 0.0
H3282 H 0.36405 0.98517 0.31266 0.0
H3283 H 0.34341 0.98539 0.33108 0.0
H3284 H 0.37648 0.9679 0.32276 0.0
H3285 H 0.39208 0.02072 0.32138 0.0
H3286 H 0.39854 0.04543 0.33842 0.0
H3287 H 0.43307 0.04554 0.37945 0.0
H3288 H 0.42668 0.02072 0.36285 0.0
H3289 H 0.42567 0.9817 0.23701 0.0
H3290 H 0.40806 0.98106 0.26381 0.0
H3291 H 0.44168 0.99708 0.31765 0.0
H3292 H 0.45973 0.99824 0.29032 0.0
H3293 H 0.42673 0.01226 0.31816 0.0
H3294 H 0.41317 0.96083 0.3161 0.0
H3295 H 0.40698 0.93632 0.29861 0.0
H3296 H 0.36879 0.93334 0.26455 0.0
H3297 H 0.37486 0.95793 0.28156 0.0
C3298 C 0.36775 0.99646 0.37664 0.0
C3299 C 0.35452 0.99245 0.36431 0.0
C3300 C 0.37953 0.99631 0.36606 0.0
C3301 C 0.37831 0.99216 0.34296 0.0
C3302 C 0.3652 0.98836 0.33054 0.0
C3303 C 0.35344 0.98856 0.34107 0.0
C3304 C 0.39049 0.99136 0.33177 0.0
C3305 C 0.38744 0.97762 0.3216 0.0
C3306 C 0.40495 0.00389 0.3311 0.0
C3307 C 0.40878 0.01879 0.34108 0.0
C3308 C 0.40096 0.02595 0.33419 0.0
C3309 C 0.40463 0.03999 0.34373 0.0
C3310 C 0.41618 0.04702 0.36007 0.0
C3311 C 0.42411 0.04006 0.36684 0.0
C3312 C 0.42048 0.02602 0.35736 0.0
C3313 C 0.42937 0.98511 0.25456 0.0
C3314 C 0.44413 0.99021 0.26154 0.0
C3315 C 0.41922 0.98457 0.26993 0.0
C3316 C 0.42348 0.98885 0.29281 0.0
C3317 C 0.43816 0.99368 0.30006 0.0
C3318 C 0.44841 0.99425 0.28453 0.0
C3319 C 0.4126 0.98889 0.30855 0.0
C3320 C 0.41586 0.00246 0.31963 0.0
C3321 C 0.39832 0.97617 0.31016 0.0
C3322 C 0.39452 0.96127 0.30006 0.0
C3323 C 0.4035 0.95499 0.30478 0.0
C3324 C 0.40001 0.94107 0.29496 0.0
C3325 C 0.38751 0.93328 0.28046 0.0
C3326 C 0.37846 0.93938 0.27579 0.0
C3327 C 0.38191 0.9533 0.28556 0.0
H3328 H 0.38483 0.92252 0.27286 0.0
H3329 H 0.419 0.05789 0.36743 0.0
H3330 H 0.60827 0.95339 0.32892 0.0
H3331 H 0.58798 0.95725 0.31695 0.0
H3332 H 0.61778 0.00511 0.31841 0.0
H3333 H 0.63818 0.00134 0.33099 0.0
H3334 H 0.59256 0.99875 0.33795 0.0
H3335 H 0.60534 0.98452 0.26801 0.0
H3336 H 0.61071 0.96892 0.242 0.0
H3337 H 0.567 0.9316 0.24974 0.0
H3338 H 0.56143 0.94693 0.27604 0.0
H3339 H 0.54733 0.01684 0.26685 0.0
H3340 H 0.56604 0.01358 0.28753 0.0
H3341 H 0.53523 0.96611 0.29034 0.0
H3342 H 0.51653 0.96932 0.2695 0.0
H3343 H 0.56065 0.97218 0.26973 0.0
H3344 H 0.54771 0.98749 0.33858 0.0
H3345 H 0.5427 0.00381 0.36356 0.0
H3346 H 0.5871 0.04004 0.35654 0.0
H3347 H 0.59232 0.02399 0.33124 0.0
C3348 C 0.61059 0.96475 0.32652 0.0
C3349 C 0.62489 0.97706 0.33085 0.0
C3350 C 0.59895 0.96694 0.31962 0.0
C3351 C 0.60136 0.98146 0.31658 0.0
C3352 C 0.61565 0.99379 0.32067 0.0
C3353 C 0.62732 0.99162 0.32771 0.0
C3354 C 0.58888 0.98371 0.3094 0.0
C3355 C 0.58569 0.9931 0.32286 0.0
C3356 C 0.57971 0.97608 0.29 0.0
C3357 C 0.58302 0.96683 0.27418 0.0
C3358 C 0.59691 0.97295 0.26431 0.0
C3359 C 0.59999 0.96416 0.24949 0.0
C3360 C 0.58922 0.94927 0.24427 0.0
C3361 C 0.57534 0.94314 0.25382 0.0
C3362 C 0.57221 0.95187 0.26867 0.0
C3363 C 0.5444 0.00581 0.27262 0.0
C3364 C 0.53049 0.99333 0.26655 0.0
C3365 C 0.55509 0.00395 0.28442 0.0
C3366 C 0.55206 0.98958 0.29035 0.0
C3367 C 0.5378 0.97729 0.28588 0.0
C3368 C 0.52707 0.97916 0.2742 0.0
C3369 C 0.56425 0.98713 0.29834 0.0
C3370 C 0.56744 0.97776 0.28492 0.0
C3371 C 0.57347 0.99488 0.31762 0.0
C3372 C 0.57037 0.00457 0.33284 0.0
C3373 C 0.55637 0.99897 0.34219 0.0
C3374 C 0.5535 0.00817 0.35645 0.0
C3375 C 0.56456 0.02296 0.36159 0.0
C3376 C 0.57853 0.02858 0.35252 0.0
C3377 C 0.58146 0.01943 0.33824 0.0
H3378 H 0.56232 0.03006 0.37264 0.0
H3379 H 0.59162 0.94248 0.23279 0.0
H3380 H 0.05235 0.65959 0.32962 0.0
H3381 H 0.04676 0.63366 0.32545 0.0
H3382 H 0.00087 0.6193 0.31046 0.0
H3383 H 0.00633 0.64533 0.31505 0.0
H3384 H 0.00457 0.59809 0.33483 0.0
H3385 H 0.02284 0.62682 0.26778 0.0
H3386 H 0.04031 0.64847 0.24617 0.0
H3387 H 0.07527 0.6396 0.26374 0.0
H3388 H 0.05803 0.61802 0.28575 0.0
H3389 H 0.98538 0.5362 0.25689 0.0
H3390 H 0.98941 0.55761 0.28096 0.0
H3391 H 0.03566 0.57132 0.28936 0.0
H3392 H 0.03186 0.55038 0.26456 0.0
H3393 H 0.03225 0.5926 0.27155 0.0
H3394 H 0.01262 0.56144 0.33495 0.0
H3395 H 0.99461 0.53958 0.35561 0.0
H3396 H 0.96163 0.55221 0.34402 0.0
H3397 H 0.97938 0.57404 0.32299 0.0
C3398 C 0.041 0.65091 0.32583 0.0
C3399 C 0.02983 0.65455 0.32223 0.0
C3400 C 0.03782 0.63608 0.32353 0.0
C3401 C 0.02346 0.62461 0.31722 0.0
C3402 C 0.01204 0.62801 0.31528 0.0
C3403 C 0.01519 0.64289 0.31782 0.0
C3404 C 0.02088 0.6096 0.30989 0.0
C3405 C 0.01052 0.59681 0.32092 0.0
C3406 C 0.02883 0.60801 0.29196 0.0
C3407 C 0.03919 0.62092 0.27861 0.0
C3408 C 0.03428 0.62956 0.26718 0.0
C3409 C 0.04413 0.64181 0.25484 0.0
C3410 C 0.0589 0.64544 0.25364 0.0
C3411 C 0.06383 0.6368 0.26472 0.0
C3412 C 0.05403 0.62455 0.27712 0.0
C3413 C 0.99634 0.54358 0.2643 0.0
C3414 C 0.00834 0.54171 0.25847 0.0
C3415 C 0.99861 0.55575 0.27826 0.0
C3416 C 0.01287 0.56614 0.28688 0.0
C3417 C 0.02457 0.56347 0.28284 0.0
C3418 C 0.02234 0.55138 0.26877 0.0
C3419 C 0.01603 0.58091 0.29661 0.0
C3420 C 0.02643 0.59376 0.28577 0.0
C3421 C 0.00803 0.58244 0.31456 0.0
C3422 C 0.99732 0.56932 0.32722 0.0
C3423 C 0.00149 0.55949 0.33663 0.0
C3424 C 0.99134 0.54712 0.34845 0.0
C3425 C 0.97698 0.54449 0.35109 0.0
C3426 C 0.97275 0.55425 0.34195 0.0
C3427 C 0.98287 0.56664 0.3301 0.0
H3428 H 0.96913 0.5349 0.36025 0.0
H3429 H 0.06652 0.65492 0.24407 0.0
H3430 H 0.35239 0.36187 0.3241 0.0
H3431 H 0.37697 0.37743 0.30899 0.0
H3432 H 0.38623 0.41234 0.35929 0.0
H3433 H 0.36172 0.39693 0.37445 0.0
H3434 H 0.39504 0.42339 0.3169 0.0
H3435 H 0.40068 0.39035 0.36707 0.0
H3436 H 0.39446 0.36586 0.38231 0.0
H3437 H 0.40273 0.35175 0.31792 0.0
H3438 H 0.4088 0.37609 0.30218 0.0
H3439 H 0.47033 0.46501 0.28742 0.0
H3440 H 0.44938 0.45119 0.31219 0.0
H3441 H 0.43473 0.41104 0.2702 0.0
H3442 H 0.45566 0.42464 0.24599 0.0
H3443 H 0.42997 0.40402 0.31322 0.0
H3444 H 0.42111 0.43477 0.2616 0.0
H3445 H 0.42658 0.45858 0.24454 0.0
H3446 H 0.42358 0.4762 0.30962 0.0
H3447 H 0.41829 0.45254 0.32712 0.0
C3448 C 0.35962 0.3729 0.33183 0.0
C3449 C 0.35513 0.37814 0.35054 0.0
C3450 C 0.37368 0.38174 0.32328 0.0
C3451 C 0.38349 0.39595 0.33325 0.0
C3452 C 0.37886 0.40139 0.35143 0.0
C3453 C 0.36485 0.39254 0.36008 0.0
C3454 C 0.39861 0.4051 0.3248 0.0
C3455 C 0.40278 0.41928 0.31646 0.0
C3456 C 0.40862 0.39962 0.32393 0.0
C3457 C 0.40508 0.38501 0.3334 0.0
C3458 C 0.40107 0.38199 0.35611 0.0
C3459 C 0.39759 0.36814 0.36484 0.0
C3460 C 0.39817 0.35724 0.35108 0.0
C3461 C 0.40227 0.36019 0.32856 0.0
C3462 C 0.40575 0.37402 0.31973 0.0
C3463 C 0.46282 0.45315 0.28395 0.0
C3464 C 0.46444 0.4459 0.26473 0.0
C3465 C 0.45082 0.4453 0.29793 0.0
C3466 C 0.44034 0.43015 0.29278 0.0
C3467 C 0.44262 0.42271 0.27449 0.0
C3468 C 0.45454 0.4305 0.26061 0.0
C3469 C 0.42632 0.42221 0.30497 0.0
C3470 C 0.42232 0.40824 0.314 0.0
C3471 C 0.4164 0.4278 0.30622 0.0
C3472 C 0.41949 0.44197 0.29571 0.0
C3473 C 0.42172 0.44377 0.2723 0.0
C3474 C 0.42478 0.45723 0.26254 0.0
C3475 C 0.42548 0.46891 0.276 0.0
C3476 C 0.42307 0.46715 0.29923 0.0
C3477 C 0.42004 0.45372 0.30907 0.0
H3478 H 0.42784 0.47933 0.26842 0.0
H3479 H 0.39547 0.34652 0.35787 0.0
H3480 H 0.28665 0.27676 0.36071 0.0
H3481 H 0.29415 0.25779 0.35952 0.0
H3482 H 0.34003 0.29261 0.36474 0.0
H3483 H 0.33261 0.31169 0.36517 0.0
H3484 H 0.33664 0.26836 0.33978 0.0
H3485 H 0.32121 0.27772 0.41223 0.0
H3486 H 0.30391 0.27967 0.438 0.0
H3487 H 0.27158 0.23351 0.42268 0.0
H3488 H 0.28864 0.23136 0.39657 0.0
H3489 H 0.37119 0.24106 0.41434 0.0
H3490 H 0.36124 0.2526 0.38901 0.0
H3491 H 0.31788 0.21323 0.39127 0.0
H3492 H 0.32785 0.20196 0.4173 0.0
H3493 H 0.31733 0.23659 0.40658 0.0
H3494 H 0.33609 0.22638 0.33999 0.0
H3495 H 0.35453 0.2252 0.31599 0.0
H3496 H 0.38181 0.27315 0.3216 0.0
H3497 H 0.36365 0.27463 0.34592 0.0
C3498 C 0.29835 0.28039 0.36108 0.0
C3499 C 0.30904 0.29571 0.36349 0.0
C3500 C 0.30262 0.26954 0.36036 0.0
C3501 C 0.31764 0.27378 0.36258 0.0
C3502 C 0.32837 0.28908 0.36308 0.0
C3503 C 0.32411 0.29998 0.36343 0.0
C3504 C 0.32202 0.26246 0.36769 0.0
C3505 C 0.33246 0.26138 0.35436 0.0
C3506 C 0.31635 0.25318 0.38649 0.0
C3507 C 0.30612 0.25444 0.40225 0.0
C3508 C 0.31037 0.26802 0.41424 0.0
C3509 C 0.30061 0.26916 0.42892 0.0
C3510 C 0.28663 0.25674 0.43192 0.0
C3511 C 0.2824 0.24314 0.4203 0.0
C3512 C 0.2921 0.24195 0.40556 0.0
C3513 C 0.3597 0.23463 0.4085 0.0
C3514 C 0.35026 0.22064 0.4175 0.0
C3515 C 0.35399 0.24121 0.39399 0.0
C3516 C 0.33878 0.2338 0.38818 0.0
C3517 C 0.32965 0.21916 0.39549 0.0
C3518 C 0.33533 0.21267 0.41021 0.0
C3519 C 0.33207 0.24239 0.37876 0.0
C3520 C 0.32125 0.24315 0.39152 0.0
C3521 C 0.33755 0.25141 0.35962 0.0
C3522 C 0.34851 0.2506 0.34491 0.0
C3523 C 0.34607 0.23667 0.33626 0.0
C3524 C 0.35647 0.23595 0.32256 0.0
C3525 C 0.36934 0.24909 0.31729 0.0
C3526 C 0.37183 0.26298 0.32568 0.0
C3527 C 0.36147 0.26377 0.3394 0.0
H3528 H 0.37739 0.2485 0.30669 0.0
H3529 H 0.2791 0.25764 0.4433 0.0
H3530 H 0.69393 0.0329 0.36263 0.0
H3531 H 0.71284 0.05965 0.36476 0.0
H3532 H 0.74712 0.04791 0.36696 0.0
H3533 H 0.72848 0.02141 0.36497 0.0
H3534 H 0.74904 0.06575 0.40309 0.0
H3535 H 0.74234 0.06445 0.32153 0.0
H3536 H 0.72794 0.06003 0.28565 0.0
H3537 H 0.71572 0.09231 0.30729 0.0
H3538 H 0.72988 0.09678 0.34346 0.0
H3539 H 0.81416 0.13038 0.40502 0.0
H3540 H 0.79458 0.10998 0.38181 0.0
H3541 H 0.76465 0.12584 0.39841 0.0
H3542 H 0.78434 0.14652 0.42155 0.0
H3543 H 0.75925 0.1073 0.35199 0.0
H3544 H 0.76227 0.10586 0.43467 0.0
H3545 H 0.77655 0.11107 0.47093 0.0
H3546 H 0.79482 0.08422 0.44739 0.0
H3547 H 0.78068 0.07892 0.41094 0.0
C3548 C 0.7055 0.03605 0.36303 0.0
C3549 C 0.70969 0.02502 0.36398 0.0
C3550 C 0.71629 0.05133 0.36423 0.0
C3551 C 0.73139 0.05576 0.36619 0.0
C3552 C 0.73554 0.04475 0.36564 0.0
C3553 C 0.72484 0.02958 0.36452 0.0
C3554 C 0.74286 0.07161 0.37141 0.0
C3555 C 0.75129 0.07475 0.39175 0.0
C3556 C 0.74553 0.08349 0.35705 0.0
C3557 C 0.73703 0.08082 0.33531 0.0
C3558 C 0.73647 0.0705 0.31874 0.0
C3559 C 0.72838 0.06801 0.29832 0.0
C3560 C 0.72089 0.07585 0.29422 0.0
C3561 C 0.72151 0.08623 0.3105 0.0
C3562 C 0.72958 0.08875 0.33095 0.0
C3563 C 0.80372 0.13011 0.4027 0.0
C3564 C 0.8007 0.13989 0.41547 0.0
C3565 C 0.79249 0.11838 0.38943 0.0
C3566 C 0.77814 0.11631 0.38873 0.0
C3567 C 0.77566 0.12729 0.39874 0.0
C3568 C 0.78691 0.13904 0.41205 0.0
C3569 C 0.76548 0.10113 0.38322 0.0
C3570 C 0.75685 0.09819 0.36318 0.0
C3571 C 0.76238 0.08935 0.39795 0.0
C3572 C 0.77053 0.0921 0.42007 0.0
C3573 C 0.76938 0.10112 0.43722 0.0
C3574 C 0.77744 0.10409 0.45779 0.0
C3575 C 0.78664 0.09804 0.46141 0.0
C3576 C 0.78771 0.08892 0.44454 0.0
C3577 C 0.77965 0.0859 0.42395 0.0
H3578 H 0.79291 0.1004 0.47732 0.0
H3579 H 0.71463 0.0739 0.27841 0.0
H3580 H 0.97409 0.67149 0.33318 0.0
H3581 H 0.94902 0.66511 0.34315 0.0
H3582 H 0.96638 0.70813 0.37821 0.0
H3583 H 0.99146 0.71462 0.36835 0.0
H3584 H 0.94706 0.68466 0.40338 0.0
H3585 H 0.94858 0.70198 0.3279 0.0
H3586 H 0.9524 0.7026 0.28675 0.0
H3587 H 0.91815 0.65645 0.27865 0.0
H3588 H 0.91427 0.65548 0.31983 0.0
H3589 H 0.88117 0.67939 0.43045 0.0
H3590 H 0.90348 0.68943 0.40829 0.0
H3591 H 0.8871 0.64598 0.3751 0.0
H3592 H 0.86462 0.63596 0.39705 0.0
H3593 H 0.90561 0.67044 0.34724 0.0
H3594 H 0.90799 0.65101 0.42027 0.0
H3595 H 0.90414 0.64788 0.46129 0.0
H3596 H 0.93019 0.69562 0.47315 0.0
H3597 H 0.93451 0.69895 0.43215 0.0
C3598 C 0.97258 0.67959 0.34305 0.0
C3599 C 0.98477 0.69356 0.35002 0.0
C3600 C 0.95824 0.67597 0.34855 0.0
C3601 C 0.95585 0.68624 0.36114 0.0
C3602 C 0.968 0.7001 0.36834 0.0
C3603 C 0.98232 0.70377 0.36273 0.0
C3604 C 0.94077 0.68224 0.36784 0.0
C3605 C 0.9381 0.68185 0.39106 0.0
C3606 C 0.92894 0.67805 0.35176 0.0
C3607 C 0.93123 0.67862 0.32699 0.0
C3608 C 0.94195 0.69192 0.31738 0.0
C3609 C 0.94411 0.69234 0.29404 0.0
C3610 C 0.93555 0.67956 0.2801 0.0
C3611 C 0.92478 0.66634 0.28947 0.0
C3612 C 0.92259 0.66585 0.31281 0.0
C3613 C 0.88206 0.67219 0.41767 0.0
C3614 C 0.87128 0.65692 0.41545 0.0
C3615 C 0.8948 0.67789 0.40512 0.0
C3616 C 0.89703 0.66835 0.39043 0.0
C3617 C 0.88557 0.6535 0.38636 0.0
C3618 C 0.87272 0.64781 0.39883 0.0
C3619 C 0.91208 0.67311 0.38268 0.0
C3620 C 0.91469 0.67349 0.35942 0.0
C3621 C 0.92389 0.67708 0.39862 0.0
C3622 C 0.92144 0.67523 0.42324 0.0
C3623 C 0.91284 0.66083 0.43166 0.0
C3624 C 0.91058 0.65902 0.4549 0.0
C3625 C 0.91673 0.67155 0.46985 0.0
C3626 C 0.92536 0.68591 0.46158 0.0
C3627 C 0.92781 0.68777 0.43836 0.0
H3628 H 0.91486 0.67009 0.48781 0.0
H3629 H 0.93724 0.67991 0.26204 0.0
H3630 H 0.40068 0.03578 0.64384 0.0
H3631 H 0.41916 0.03051 0.66019 0.0
H3632 H 0.38761 0.0014 0.70779 0.0
H3633 H 0.36908 0.00694 0.6918 0.0
H3634 H 0.41341 0.01748 0.72857 0.0
H3635 H 0.39618 0.98721 0.66049 0.0
H3636 H 0.38973 0.98138 0.61965 0.0
H3637 H 0.43498 0.01125 0.60384 0.0
H3638 H 0.44167 0.01742 0.6446 0.0
H3639 H 0.45566 0.9747 0.73132 0.0
H3640 H 0.43978 0.9811 0.70868 0.0
H3641 H 0.4628 0.02601 0.73853 0.0
H3642 H 0.47836 0.01946 0.76166 0.0
H3643 H 0.44032 0.00044 0.67883 0.0
H3644 H 0.438 0.03565 0.75486 0.0
H3645 H 0.44218 0.03788 0.79647 0.0
H3646 H 0.43151 0.99187 0.79754 0.0
H3647 H 0.42713 0.98932 0.75601 0.0
C3648 C 0.39765 0.02828 0.65783 0.0
C3649 C 0.38336 0.02171 0.66644 0.0
C3650 C 0.40823 0.02521 0.66709 0.0
C3651 C 0.40472 0.01534 0.68495 0.0
C3652 C 0.39057 0.00901 0.69395 0.0
C3653 C 0.37998 0.01218 0.68479 0.0
C3654 C 0.41587 0.0117 0.69424 0.0
C3655 C 0.41929 0.01378 0.71765 0.0
C3656 C 0.42336 0.00654 0.68013 0.0
C3657 C 0.41939 0.00288 0.65559 0.0
C3658 C 0.40473 0.99263 0.6483 0.0
C3659 C 0.40104 0.98925 0.62516 0.0
C3660 C 0.41193 0.99597 0.60915 0.0
C3661 C 0.42655 0.00607 0.61626 0.0
C3662 C 0.4303 0.0095 0.63937 0.0
C3663 C 0.45771 0.9861 0.7323 0.0
C3664 C 0.46817 0.9966 0.74819 0.0
C3665 C 0.44858 0.98973 0.71948 0.0
C3666 C 0.44985 0.00391 0.72237 0.0
C3667 C 0.46142 0.0149 0.7364 0.0
C3668 C 0.4704 0.01122 0.74941 0.0
C3669 C 0.43808 0.0066 0.71299 0.0
C3670 C 0.43451 0.00426 0.68964 0.0
C3671 C 0.43008 0.01104 0.72725 0.0
C3672 C 0.43238 0.01236 0.75231 0.0
C3673 C 0.43649 0.026 0.764 0.0
C3674 C 0.43891 0.02732 0.78756 0.0
C3675 C 0.43718 0.01504 0.79962 0.0
C3676 C 0.43293 0.00139 0.78817 0.0
C3677 C 0.43048 1.00001 0.76462 0.0
H3678 H 0.43909 0.01609 0.81785 0.0
H3679 H 0.40905 0.99334 0.59125 0.0
H3680 H 0.99593 0.36223 0.69145 0.0
H3681 H 0.00497 0.38907 0.68838 0.0
H3682 H 0.96424 0.38304 0.71489 0.0
H3683 H 0.95499 0.35627 0.71747 0.0
H3684 H 0.974 0.40411 0.68396 0.0
H3685 H 0.995 0.39279 0.74994 0.0
H3686 H 0.00907 0.38258 0.76928 0.0
H3687 H 0.04735 0.41109 0.73168 0.0
H3688 H 0.03343 0.42135 0.71195 0.0
H3689 H 0.98904 0.46325 0.76102 0.0
H3690 H 0.98229 0.44134 0.73621 0.0
H3691 H 0.02713 0.46192 0.71383 0.0
H3692 H 0.03393 0.4839 0.73894 0.0
H3693 H 0.01891 0.43576 0.73269 0.0
H3694 H 0.99835 0.4519 0.67518 0.0
H3695 H 0.98362 0.4623 0.65876 0.0
H3696 H 0.94387 0.42517 0.68255 0.0
H3697 H 0.95836 0.41465 0.69943 0.0
C3698 C 0.98878 0.36656 0.69625 0.0
C3699 C 0.97481 0.35709 0.70507 0.0
C3700 C 0.99398 0.38193 0.6945 0.0
C3701 C 0.98539 0.38813 0.70179 0.0
C3702 C 0.97109 0.37854 0.70918 0.0
C3703 C 0.96584 0.3632 0.71078 0.0
C3704 C 0.9917 0.40464 0.70414 0.0
C3705 C 0.98385 0.41108 0.69455 0.0
C3706 C 0.00477 0.41383 0.71745 0.0
C3707 C 0.01313 0.40767 0.72927 0.0
C3708 C 0.00639 0.39679 0.74569 0.0
C3709 C 0.01434 0.39101 0.75673 0.0
C3710 C 0.02908 0.39614 0.75165 0.0
C3711 C 0.03592 0.4071 0.73555 0.0
C3712 C 0.02801 0.41289 0.72444 0.0
C3713 C 0.9973 0.46333 0.75012 0.0
C3714 C 0.012 0.47519 0.75191 0.0
C3715 C 0.99343 0.45083 0.73586 0.0
C3716 C 0.00421 0.44996 0.72312 0.0
C3717 C 0.01864 0.46238 0.72345 0.0
C3718 C 0.02249 0.47496 0.73766 0.0
C3719 C 0.00097 0.43522 0.71311 0.0
C3720 C 0.00936 0.42902 0.7214 0.0
C3721 C 0.9883 0.42628 0.69886 0.0
C3722 C 0.97948 0.4325 0.68865 0.0
C3723 C 0.98648 0.44599 0.67705 0.0
C3724 C 0.97816 0.4519 0.66764 0.0
C3725 C 0.96282 0.44441 0.66962 0.0
C3726 C 0.95575 0.43096 0.681 0.0
C3727 C 0.96401 0.425 0.69046 0.0
H3728 H 0.95641 0.449 0.66233 0.0
H3729 H 0.03522 0.39166 0.76022 0.0
H3730 H 0.65668 0.63185 0.69222 0.0
H3731 H 0.63429 0.6126 0.70913 0.0
H3732 H 0.60821 0.61156 0.65064 0.0
H3733 H 0.63061 0.63105 0.63364 0.0
H3734 H 0.59479 0.6108 0.69014 0.0
H3735 H 0.6158 0.58386 0.65596 0.0
H3736 H 0.63548 0.57829 0.64655 0.0
H3737 H 0.64163 0.57227 0.71695 0.0
H3738 H 0.62213 0.57803 0.72684 0.0
H3739 H 0.53497 0.54347 0.73766 0.0
H3740 H 0.55275 0.55958 0.70972 0.0
H3741 H 0.5884 0.5738 0.75984 0.0
H3742 H 0.57086 0.55796 0.78753 0.0
H3743 H 0.59393 0.56501 0.71689 0.0
H3744 H 0.57572 0.59604 0.75076 0.0
H3745 H 0.5561 0.60171 0.7602 0.0
H3746 H 0.54436 0.59945 0.68941 0.0
H3747 H 0.56381 0.59355 0.67957 0.0
C3748 C 0.64619 0.62758 0.68295 0.0
C3749 C 0.64543 0.63289 0.66151 0.0
C3750 C 0.63341 0.61653 0.69259 0.0
C3751 C 0.61965 0.61047 0.68093 0.0
C3752 C 0.61875 0.61603 0.65982 0.0
C3753 C 0.63156 0.62714 0.65015 0.0
C3754 C 0.60629 0.59829 0.69096 0.0
C3755 C 0.59443 0.60062 0.69554 0.0
C3756 C 0.60586 0.58504 0.69801 0.0
C3757 C 0.61754 0.58146 0.69215 0.0
C3758 C 0.62141 0.58145 0.66946 0.0
C3759 C 0.63253 0.57824 0.66403 0.0
C3760 C 0.63982 0.57495 0.68114 0.0
C3761 C 0.63598 0.57482 0.70371 0.0
C3762 C 0.62487 0.57803 0.70924 0.0
C3763 C 0.54661 0.55005 0.74255 0.0
C3764 C 0.55158 0.54965 0.76471 0.0
C3765 C 0.5567 0.55921 0.72669 0.0
C3766 C 0.57183 0.56784 0.73283 0.0
C3767 C 0.57677 0.5672 0.75482 0.0
C3768 C 0.56674 0.55825 0.77064 0.0
C3769 C 0.58276 0.5778 0.71673 0.0
C3770 C 0.59414 0.57502 0.71097 0.0
C3771 C 0.5827 0.59057 0.70854 0.0
C3772 C 0.57107 0.59416 0.71445 0.0
C3773 C 0.56886 0.59661 0.73722 0.0
C3774 C 0.55779 0.59989 0.74264 0.0
C3775 C 0.54895 0.60088 0.72542 0.0
C3776 C 0.5512 0.59864 0.70273 0.0
C3777 C 0.56224 0.59533 0.69723 0.0
H3778 H 0.54039 0.60343 0.72965 0.0
H3779 H 0.64843 0.57247 0.67691 0.0
H3780 H 0.6695 0.68998 0.66628 0.0
H3781 H 0.65742 0.70515 0.66705 0.0
H3782 H 0.69671 0.74262 0.64213 0.0
H3783 H 0.70898 0.72776 0.64154 0.0
H3784 H 0.67234 0.74382 0.68214 0.0
H3785 H 0.67854 0.73861 0.58939 0.0
H3786 H 0.67922 0.72112 0.56076 0.0
H3787 H 0.64707 0.68361 0.59694 0.0
H3788 H 0.64607 0.70091 0.62555 0.0
H3789 H 0.67939 0.80048 0.61153 0.0
H3790 H 0.67797 0.78215 0.63823 0.0
H3791 H 0.63474 0.74984 0.61005 0.0
H3792 H 0.63627 0.76817 0.58296 0.0
H3793 H 0.65354 0.7408 0.60309 0.0
H3794 H 0.64043 0.7583 0.66804 0.0
H3795 H 0.64084 0.77651 0.69627 0.0
H3796 H 0.68565 0.78987 0.71628 0.0
H3797 H 0.68562 0.77192 0.68793 0.0
C3798 C 0.67573 0.70158 0.66152 0.0
C3799 C 0.69014 0.70758 0.65347 0.0
C3800 C 0.66883 0.71023 0.66216 0.0
C3801 C 0.67621 0.72493 0.65463 0.0
C3802 C 0.69092 0.7313 0.64817 0.0
C3803 C 0.69786 0.72273 0.6477 0.0
C3804 C 0.66801 0.73275 0.64923 0.0
C3805 C 0.66796 0.74309 0.66503 0.0
C3806 C 0.66211 0.73149 0.62704 0.0
C3807 C 0.66233 0.72102 0.60964 0.0
C3808 C 0.67158 0.72663 0.59114 0.0
C3809 C 0.67202 0.71676 0.57494 0.0
C3810 C 0.66322 0.70127 0.57707 0.0
C3811 C 0.65391 0.69561 0.59535 0.0
C3812 C 0.65341 0.70544 0.61156 0.0
C3813 C 0.66927 0.78973 0.61178 0.0
C3814 C 0.65805 0.78562 0.59497 0.0
C3815 C 0.66844 0.77923 0.62714 0.0
C3816 C 0.6563 0.76454 0.62603 0.0
C3817 C 0.64424 0.76108 0.61114 0.0
C3818 C 0.64513 0.77153 0.59566 0.0
C3819 C 0.65794 0.75229 0.63587 0.0
C3820 C 0.65713 0.74122 0.62063 0.0
C3821 C 0.66287 0.75288 0.65864 0.0
C3822 C 0.66302 0.76376 0.67576 0.0
C3823 C 0.65041 0.76519 0.67833 0.0
C3824 C 0.65057 0.77546 0.69439 0.0
C3825 C 0.66326 0.78435 0.70805 0.0
C3826 C 0.67582 0.78297 0.7057 0.0
C3827 C 0.67572 0.77272 0.68966 0.0
H3828 H 0.66336 0.79229 0.72047 0.0
H3829 H 0.6636 0.69364 0.56453 0.0
H3830 H 0.27987 0.98111 0.64307 0.0
H3831 H 0.26252 0.95459 0.64675 0.0
H3832 H 0.29857 0.94698 0.66375 0.0
H3833 H 0.31623 0.97373 0.65963 0.0
H3834 H 0.28129 0.92783 0.63144 0.0
H3835 H 0.27247 0.94187 0.70348 0.0
H3836 H 0.26797 0.95675 0.73214 0.0
H3837 H 0.22676 0.94528 0.69783 0.0
H3838 H 0.23111 0.9305 0.66875 0.0
H3839 H 0.22364 0.85267 0.62067 0.0
H3840 H 0.24198 0.87442 0.6439 0.0
H3841 H 0.22064 0.89925 0.6239 0.0
H3842 H 0.20235 0.87759 0.60082 0.0
H3843 H 0.233 0.90695 0.66838 0.0
H3844 H 0.24669 0.90061 0.59197 0.0
H3845 H 0.2508 0.88619 0.56185 0.0
H3846 H 0.28314 0.88382 0.60514 0.0
H3847 H 0.27896 0.89803 0.63555 0.0
C3848 C 0.28418 0.9739 0.64789 0.0
C3849 C 0.2995 0.97959 0.65088 0.0
C3850 C 0.27418 0.95869 0.65023 0.0
C3851 C 0.27918 0.94877 0.65587 0.0
C3852 C 0.29444 0.95444 0.65955 0.0
C3853 C 0.30452 0.96973 0.65719 0.0
C3854 C 0.2685 0.93236 0.65525 0.0
C3855 C 0.27095 0.92316 0.64018 0.0
C3856 C 0.25489 0.92625 0.66637 0.0
C3857 C 0.25215 0.93509 0.68387 0.0
C3858 C 0.26249 0.94258 0.70195 0.0
C3859 C 0.25996 0.951 0.71829 0.0
C3860 C 0.24709 0.95197 0.7168 0.0
C3861 C 0.23672 0.9445 0.69898 0.0
C3862 C 0.2392 0.93608 0.68258 0.0
C3863 C 0.22253 0.86256 0.62204 0.0
C3864 C 0.21165 0.86352 0.60892 0.0
C3865 C 0.23304 0.875 0.63518 0.0
C3866 C 0.23276 0.8885 0.63539 0.0
C3867 C 0.22105 0.88894 0.62403 0.0
C3868 C 0.21062 0.87659 0.61081 0.0
C3869 C 0.2457 0.90277 0.64408 0.0
C3870 C 0.24362 0.91154 0.6605 0.0
C3871 C 0.25968 0.90853 0.63426 0.0
C3872 C 0.26235 0.90016 0.61603 0.0
C3873 C 0.25457 0.89689 0.59503 0.0
C3874 C 0.25692 0.88878 0.57794 0.0
C3875 C 0.2672 0.88404 0.58161 0.0
C3876 C 0.27516 0.88746 0.60235 0.0
C3877 C 0.27279 0.89553 0.61951 0.0
H3878 H 0.26902 0.87777 0.56837 0.0
H3879 H 0.24515 0.95849 0.72947 0.0
H3880 H 0.02119 0.33601 0.67411 0.0
H3881 H 0.0447 0.34224 0.65722 0.0
H3882 H 0.03727 0.29809 0.6712 0.0
H3883 H 0.01391 0.29185 0.68834 0.0
H3884 H 0.06537 0.31934 0.68255 0.0
H3885 H 0.03145 0.30685 0.61803 0.0
H3886 H 0.01318 0.30909 0.5937 0.0
H3887 H 0.0449 0.35527 0.58319 0.0
H3888 H 0.0633 0.35335 0.60772 0.0
H3889 H 0.10946 0.30809 0.60324 0.0
H3890 H 0.09181 0.30856 0.62923 0.0
H3891 H 0.10375 0.35307 0.60872 0.0
H3892 H 0.12136 0.35257 0.5825 0.0
H3893 H 0.07505 0.33481 0.60283 0.0
H3894 H 0.11008 0.34629 0.66389 0.0
H3895 H 0.12829 0.34366 0.68772 0.0
H3896 H 0.09481 0.29932 0.70449 0.0
H3897 H 0.07643 0.30159 0.6805 0.0
C3898 C 0.02453 0.3276 0.67349 0.0
C3899 C 0.01564 0.31341 0.68251 0.0
C3900 C 0.03797 0.33118 0.66384 0.0
C3901 C 0.04272 0.32061 0.66288 0.0
C3902 C 0.03386 0.30645 0.67186 0.0
C3903 C 0.02045 0.30287 0.68153 0.0
C3904 C 0.05682 0.32414 0.65228 0.0
C3905 C 0.06748 0.32263 0.66506 0.0
C3906 C 0.05973 0.32885 0.6297 0.0
C3907 C 0.04868 0.33001 0.61492 0.0
C3908 C 0.03448 0.31751 0.61068 0.0
C3909 C 0.02412 0.31872 0.59683 0.0
C3910 C 0.02787 0.33233 0.58696 0.0
C3911 C 0.042 0.34475 0.59088 0.0
C3912 C 0.05241 0.34361 0.60475 0.0
C3913 C 0.10875 0.31821 0.60494 0.0
C3914 C 0.11672 0.33027 0.59077 0.0
C3915 C 0.09861 0.31846 0.61977 0.0
C3916 C 0.09639 0.33084 0.62088 0.0
C3917 C 0.10521 0.34337 0.60806 0.0
C3918 C 0.1153 0.3431 0.59315 0.0
C3919 C 0.08362 0.32985 0.63298 0.0
C3920 C 0.07313 0.33178 0.62044 0.0
C3921 C 0.08088 0.32549 0.65576 0.0
C3922 C 0.09189 0.32408 0.67025 0.0
C3923 C 0.10662 0.33593 0.67252 0.0
C3924 C 0.11697 0.33452 0.68608 0.0
C3925 C 0.11271 0.32132 0.69758 0.0
C3926 C 0.09809 0.30953 0.69557 0.0
C3927 C 0.08769 0.31089 0.68202 0.0
H3928 H 0.12074 0.32025 0.70807 0.0
H3929 H 0.01983 0.33323 0.57623 0.0
H3930 H 0.28449 0.32952 0.7062 0.0
H3931 H 0.26517 0.33262 0.68751 0.0
H3932 H 0.27868 0.32513 0.62224 0.0
H3933 H 0.29825 0.32218 0.64085 0.0
H3934 H 0.27336 0.34824 0.62183 0.0
H3935 H 0.24817 0.29747 0.64686 0.0
H3936 H 0.24048 0.27766 0.67476 0.0
H3937 H 0.21972 0.29748 0.71317 0.0
H3938 H 0.22746 0.31754 0.68564 0.0
H3939 H 0.21148 0.32708 0.55039 0.0
H3940 H 0.23123 0.32819 0.57422 0.0
H3941 H 0.21276 0.3371 0.63324 0.0
H3942 H 0.19278 0.33625 0.60908 0.0
H3943 H 0.22071 0.31563 0.64021 0.0
H3944 H 0.24411 0.36523 0.61283 0.0
H3945 H 0.25228 0.38518 0.5851 0.0
H3946 H 0.27639 0.36746 0.55073 0.0
H3947 H 0.26825 0.3473 0.57812 0.0
C3948 C 0.28341 0.32856 0.68785 0.0
C3949 C 0.29289 0.32553 0.67501 0.0
C3950 C 0.27229 0.33028 0.6772 0.0
C3951 C 0.27033 0.3289 0.6535 0.0
C3952 C 0.27997 0.32619 0.64057 0.0
C3953 C 0.29113 0.32449 0.65122 0.0
C3954 C 0.2582 0.33023 0.64218 0.0
C3955 C 0.26183 0.34101 0.62568 0.0
C3956 C 0.2432 0.32115 0.64778 0.0
C3957 C 0.23854 0.3091 0.66434 0.0
C3958 C 0.24207 0.29768 0.66136 0.0
C3959 C 0.23769 0.28639 0.67709 0.0
C3960 C 0.22966 0.28634 0.69576 0.0
C3961 C 0.22596 0.29755 0.69872 0.0
C3962 C 0.23034 0.30887 0.68306 0.0
C3963 C 0.21169 0.32958 0.56838 0.0
C3964 C 0.2007 0.33195 0.57775 0.0
C3965 C 0.22302 0.33016 0.58201 0.0
C3966 C 0.22369 0.33306 0.60544 0.0
C3967 C 0.21253 0.33501 0.61511 0.0
C3968 C 0.20112 0.33448 0.60135 0.0
C3969 C 0.23585 0.33346 0.61954 0.0
C3970 C 0.23224 0.323 0.63655 0.0
C3971 C 0.25088 0.34281 0.61437 0.0
C3972 C 0.25551 0.35471 0.5975 0.0
C3973 C 0.25105 0.3655 0.59925 0.0
C3974 C 0.25572 0.37688 0.58363 0.0
C3975 C 0.2649 0.37761 0.56623 0.0
C3976 C 0.26933 0.36691 0.56428 0.0
C3977 C 0.26471 0.35552 0.57987 0.0
H3978 H 0.26858 0.38648 0.55423 0.0
H3979 H 0.22627 0.27758 0.70792 0.0
H3980 H 0.66946 0.96854 0.65335 0.0
H3981 H 0.66199 0.94196 0.6549 0.0
H3982 H 0.70787 0.95386 0.66158 0.0
H3983 H 0.71537 0.98032 0.65922 0.0
H3984 H 0.69528 0.93505 0.62794 0.0
H3985 H 0.68239 0.93679 0.7048 0.0
H3986 H 0.67028 0.9421 0.73621 0.0
H3987 H 0.62761 0.91179 0.70518 0.0
H3988 H 0.63946 0.90646 0.6734 0.0
H3989 H 0.68278 0.86473 0.61786 0.0
H3990 H 0.68785 0.88554 0.64361 0.0
H3991 H 0.6438 0.87787 0.63041 0.0
H3992 H 0.63812 0.8561 0.60595 0.0
H3993 H 0.65622 0.89414 0.6712 0.0
H3994 H 0.66962 0.89615 0.59189 0.0
H3995 H 0.68159 0.89048 0.56054 0.0
H3996 H 0.72353 0.91438 0.59683 0.0
H3997 H 0.71182 0.92003 0.62854 0.0
C3998 C 0.67792 0.96549 0.65566 0.0
C3999 C 0.693 0.97649 0.65584 0.0
C4000 C 0.67364 0.95028 0.65667 0.0
C4001 C 0.68437 0.94586 0.65837 0.0
C4002 C 0.69939 0.95696 0.66014 0.0
C4003 C 0.70367 0.97209 0.65875 0.0
C4004 C 0.68018 0.92984 0.65515 0.0
C4005 C 0.68698 0.9262 0.63785 0.0
C4006 C 0.66901 0.91816 0.66751 0.0
C4007 C 0.66183 0.92132 0.68661 0.0
C4008 C 0.67043 0.93135 0.70457 0.0
C4009 C 0.66361 0.93434 0.72247 0.0
C4010 C 0.64819 0.92731 0.72267 0.0
C4011 C 0.63955 0.91724 0.70499 0.0
C4012 C 0.64632 0.91421 0.68705 0.0
C4013 C 0.67379 0.86675 0.6214 0.0
C4014 C 0.66023 0.85912 0.60887 0.0
C4015 C 0.67679 0.87883 0.6361 0.0
C4016 C 0.66645 0.88368 0.63798 0.0
C4017 C 0.65208 0.87453 0.62875 0.0
C4018 C 0.64891 0.86217 0.61452 0.0
C4019 C 0.67156 0.89959 0.64438 0.0
C4020 C 0.66476 0.90314 0.66183 0.0
C4021 C 0.68273 0.91131 0.63214 0.0
C4022 C 0.68983 0.90837 0.61267 0.0
C4023 C 0.68139 0.90016 0.5932 0.0
C4024 C 0.68811 0.89693 0.5754 0.0
C4025 C 0.70326 0.90198 0.57677 0.0
C4026 C 0.71178 0.91042 0.59584 0.0
C4027 C 0.70511 0.91364 0.61373 0.0
H4028 H 0.70842 0.89943 0.563 0.0
H4029 H 0.64293 0.92964 0.73654 0.0
H4030 H 0.03625 0.6922 0.68972 0.0
H4031 H 0.05885 0.71161 0.67351 0.0
H4032 H 0.03301 0.72105 0.62572 0.0
H4033 H 0.01016 0.70159 0.64198 0.0
H4034 H 0.0595 0.72168 0.60769 0.0
H4035 H 0.0447 0.74243 0.6693 0.0
H4036 H 0.0368 0.74319 0.70816 0.0
H4037 H 0.07695 0.74678 0.7355 0.0
H4038 H 0.08499 0.74581 0.69677 0.0
H4039 H 0.11448 0.79638 0.5846 0.0
H4040 H 0.09179 0.77797 0.60214 0.0
H4041 H 0.11657 0.76244 0.641 0.0
H4042 H 0.13913 0.77993 0.62217 0.0
H4043 H 0.09028 0.76443 0.66178 0.0
H4044 H 0.1082 0.7458 0.60381 0.0
H4045 H 0.1118 0.74194 0.54687 0.0
H4046 H 0.06815 0.73301 0.52719 0.0
H4047 H 0.0617 0.73624 0.57011 0.0
C4048 C 0.0353 0.69822 0.67554 0.0
C4049 C 0.02138 0.69547 0.66734 0.0
C4050 C 0.04826 0.7093 0.66629 0.0
C4051 C 0.04758 0.71785 0.64861 0.0
C4052 C 0.03373 0.71455 0.63939 0.0
C4053 C 0.02071 0.70348 0.64875 0.0
C4054 C 0.06134 0.73107 0.64138 0.0
C4055 C 0.06614 0.73117 0.61929 0.0
C4056 C 0.07013 0.7432 0.65685 0.0
C4057 C 0.06537 0.7439 0.68015 0.0
C4058 C 0.05179 0.74325 0.6836 0.0
C4059 C 0.04729 0.74374 0.7056 0.0
C4060 C 0.05635 0.74499 0.72429 0.0
C4061 C 0.06994 0.74579 0.72101 0.0
C4062 C 0.07447 0.74529 0.69904 0.0
C4063 C 0.11519 0.78929 0.59729 0.0
C4064 C 0.12847 0.78914 0.60125 0.0
C4065 C 0.10219 0.77875 0.60721 0.0
C4066 C 0.10248 0.76836 0.62179 0.0
C4067 C 0.11614 0.77007 0.62906 0.0
C4068 C 0.12908 0.78023 0.61851 0.0
C4069 C 0.08849 0.75513 0.62809 0.0
C4070 C 0.08362 0.75504 0.65003 0.0
C4071 C 0.07975 0.74296 0.61245 0.0
C4072 C 0.08478 0.74178 0.58944 0.0
C4073 C 0.10221 0.74423 0.58793 0.0
C4074 C 0.11113 0.74335 0.56468 0.0
C4075 C 0.10229 0.73936 0.53787 0.0
C4076 C 0.07697 0.7356 0.53994 0.0
C4077 C 0.07249 0.73761 0.56716 0.0
H4078 H 0.0937 0.73775 0.53515 0.0
H4079 H 0.05285 0.74537 0.74131 0.0
H4080 H 0.99272 0.63827 0.67783 0.0
H4081 H 1.00048 0.61934 0.67727 0.0
H4082 H 0.96158 0.58931 0.71288 0.0
H4083 H 0.9536 0.60783 0.71327 0.0
H4084 H 0.99212 0.5996 0.73422 0.0
H4085 H 0.96083 0.5781 0.66562 0.0
H4086 H 0.95326 0.57902 0.62607 0.0
H4087 H 0.99629 0.58968 0.60416 0.0
H4088 H 0.00418 0.58904 0.64367 0.0
H4089 H 0.98642 0.5322 0.75155 0.0
H4090 H 0.97878 0.54573 0.72612 0.0
H4091 H 0.0241 0.57419 0.70833 0.0
H4092 H 0.03177 0.56051 0.73355 0.0
H4093 H 0.99284 0.5657 0.67364 0.0
H4094 H 0.02584 0.59648 0.74224 0.0
H4095 H 0.03483 0.59592 0.78112 0.0
H4096 H 0.99008 0.5677 0.80087 0.0
H4097 H 0.98086 0.56833 0.76217 0.0
C4098 C 0.98565 0.62751 0.68508 0.0
C4099 C 0.97262 0.62467 0.69585 0.0
C4100 C 0.99008 0.61671 0.68467 0.0
C4101 C 0.98158 0.60299 0.69505 0.0
C4102 C 0.96824 0.59984 0.70473 0.0
C4103 C 0.96374 0.6105 0.70496 0.0
C4104 C 0.98739 0.59273 0.69879 0.0
C4105 C 0.99229 0.59225 0.72089 0.0
C4106 C 0.98793 0.58338 0.68134 0.0
C4107 C 0.98316 0.58372 0.65763 0.0
C4108 C 0.96873 0.58081 0.65241 0.0
C4109 C 0.96437 0.58123 0.62999 0.0
C4110 C 0.9743 0.58446 0.61262 0.0
C4111 C 0.98861 0.58721 0.61764 0.0
C4112 C 0.99303 0.58681 0.64004 0.0
C4113 C 0.9946 0.54074 0.74116 0.0
C4114 C 0.00966 0.54539 0.74449 0.0
C4115 C 0.99024 0.54843 0.72658 0.0
C4116 C 0.00089 0.56093 0.71539 0.0
C4117 C 0.01571 0.56441 0.71655 0.0
C4118 C 0.02008 0.55661 0.73099 0.0
C4119 C 0.99729 0.57256 0.70902 0.0
C4120 C 0.99285 0.57328 0.6867 0.0
C4121 C 0.99736 0.58241 0.72608 0.0
C4122 C 0.00271 0.58253 0.74952 0.0
C4123 C 0.01795 0.59029 0.75499 0.0
C4124 C 0.02307 0.58996 0.77694 0.0
C4125 C 0.01303 0.58188 0.79347 0.0
C4126 C 0.99783 0.57408 0.78808 0.0
C4127 C 0.99265 0.57447 0.7662 0.0
H4128 H 0.01702 0.58163 0.81044 0.0
H4129 H 0.9709 0.58477 0.59527 0.0
H4130 H 0.35874 0.36809 0.69978 0.0
H4131 H 0.3789 0.39431 0.70185 0.0
H4132 H 0.41059 0.37963 0.69201 0.0
H4133 H 0.39065 0.35358 0.69055 0.0
H4134 H 0.41714 0.39623 0.72938 0.0
H4135 H 0.40406 0.40047 0.65237 0.0
H4136 H 0.38733 0.39866 0.62076 0.0
H4137 H 0.37841 0.43002 0.65606 0.0
H4138 H 0.39493 0.43187 0.68804 0.0
H4139 H 0.48067 0.46348 0.7405 0.0
H4140 H 0.46179 0.44354 0.71567 0.0
H4141 H 0.42992 0.45603 0.73612 0.0
H4142 H 0.4489 0.47633 0.76064 0.0
H4143 H 0.42378 0.44146 0.69087 0.0
H4144 H 0.43317 0.43436 0.769 0.0
H4145 H 0.44957 0.43684 0.80154 0.0
H4146 H 0.46432 0.41057 0.76482 0.0
H4147 H 0.44816 0.40815 0.73187 0.0
C4148 C 0.36998 0.37052 0.69747 0.0
C4149 C 0.37315 0.3588 0.69533 0.0
C4150 C 0.38149 0.3855 0.6986 0.0
C4151 C 0.3963 0.38896 0.69719 0.0
C4152 C 0.39929 0.37726 0.69332 0.0
C4153 C 0.38787 0.36237 0.6925 0.0
C4154 C 0.40876 0.40435 0.70278 0.0
C4155 C 0.4187 0.40602 0.72055 0.0
C4156 C 0.41055 0.41727 0.69192 0.0
C4157 C 0.40063 0.4162 0.6727 0.0
C4158 C 0.39843 0.40688 0.65348 0.0
C4159 C 0.38901 0.40587 0.63548 0.0
C4160 C 0.38178 0.41419 0.63642 0.0
C4161 C 0.384 0.42357 0.65536 0.0
C4162 C 0.39341 0.42462 0.67342 0.0
C4163 C 0.46989 0.46255 0.73883 0.0
C4164 C 0.46619 0.47128 0.7529 0.0
C4165 C 0.45907 0.45108 0.72466 0.0
C4166 C 0.4444 0.44812 0.72448 0.0
C4167 C 0.44116 0.45809 0.7361 0.0
C4168 C 0.452 0.46961 0.75023 0.0
C4169 C 0.43218 0.43307 0.7169 0.0
C4170 C 0.42225 0.43152 0.69922 0.0
C4171 C 0.4302 0.42016 0.72793 0.0
C4172 C 0.43959 0.42121 0.74792 0.0
C4173 C 0.43998 0.42918 0.76783 0.0
C4174 C 0.44923 0.43059 0.78634 0.0
C4175 C 0.45802 0.42391 0.78523 0.0
C4176 C 0.45753 0.41576 0.76563 0.0
C4177 C 0.44832 0.41436 0.74704 0.0
H4178 H 0.46519 0.42502 0.79957 0.0
H4179 H 0.37449 0.4134 0.62246 0.0
H4180 H 0.63275 0.00091 0.63945 0.0
H4181 H 0.6114 1.00014 0.65672 0.0
H4182 H 0.63689 0.01903 0.71938 0.0
H4183 H 0.65835 0.01962 0.70227 0.0
H4184 H 0.60994 0.99688 0.7276 0.0
H4185 H 0.62987 0.04072 0.68395 0.0
H4186 H 0.63949 0.05577 0.65004 0.0
H4187 H 0.59764 0.02855 0.61452 0.0
H4188 H 0.58783 0.0132 0.64813 0.0
H4189 H 0.55614 0.01982 0.76254 0.0
H4190 H 0.57802 0.02629 0.7403 0.0
H4191 H 0.55729 0.98069 0.71357 0.0
H4192 H 0.53528 0.97432 0.73522 0.0
H4193 H 0.58336 0.01965 0.68965 0.0
H4194 H 0.58327 0.97142 0.73637 0.0
H4195 H 0.57435 0.95806 0.77197 0.0
H4196 H 0.57878 0.9979 0.80441 0.0
H4197 H 0.58805 0.01157 0.76921 0.0
C4198 C 0.63384 0.00487 0.65694 0.0
C4199 C 0.64728 0.01039 0.66947 0.0
C4200 C 0.62163 0.0045 0.66674 0.0
C4201 C 0.62263 0.00979 0.68919 0.0
C4202 C 0.63591 0.01497 0.70196 0.0
C4203 C 0.64815 0.0153 0.69218 0.0
C4204 C 0.60969 0.00969 0.69932 0.0
C4205 C 0.60423 0.00196 0.71933 0.0
C4206 C 0.60231 0.0165 0.68876 0.0
C4207 C 0.60815 0.02573 0.66852 0.0
C4208 C 0.62275 0.03787 0.66886 0.0
C4209 C 0.62824 0.04647 0.64969 0.0
C4210 C 0.61919 0.0431 0.63012 0.0
C4211 C 0.60464 0.03114 0.62969 0.0
C4212 C 0.5991 0.0225 0.6488 0.0
C4213 C 0.55601 0.01142 0.75101 0.0
C4214 C 0.54407 0.99662 0.75037 0.0
C4215 C 0.56849 0.01509 0.73842 0.0
C4216 C 0.56924 0.00391 0.72555 0.0
C4217 C 0.55683 0.98945 0.72342 0.0
C4218 C 0.54426 0.98585 0.73564 0.0
C4219 C 0.58357 0.00656 0.71739 0.0
C4220 C 0.58922 0.01471 0.69785 0.0
C4221 C 0.59135 0.00046 0.72863 0.0
C4222 C 0.58616 0.99244 0.75006 0.0
C4223 C 0.5824 0.97733 0.75114 0.0
C4224 C 0.57731 0.96972 0.77126 0.0
C4225 C 0.57598 0.97712 0.79042 0.0
C4226 C 0.5798 0.99218 0.78955 0.0
C4227 C 0.58495 0.99985 0.76951 0.0
H4228 H 0.57202 0.9712 0.80597 0.0
H4229 H 0.62346 0.04977 0.6153 0.0
loop_
_geom_bond_atom_site_label_1
_geom_bond_atom_site_label_2
_geom_bond_distance
_geom_bond_site_symmetry_2
_ccdc_geom_bond_type
Mg0 O1 2.028 1_556 S
Mg0 O7 1.991 1_455 S
Mg0 O9 2.114 . S
Mg0 O10 2.251 1_455 S
Mg0 O13 2.010 1_556 S
O1 Mg0 2.028 1_554 S
O1 C4 1.250 1_455 S
O2 Mg3 2.028 1_554 S
O2 C4 1.248 . S
Mg3 O2 2.028 1_556 S
Mg3 O8 2.032 . S
Mg3 O10 2.079 . S
C4 O1 1.250 1_655 S
C4 O2 1.248 . S
C5 O6 1.244 1_554 S
C5 O13 1.249 . S
O6 C5 1.244 1_556 S
O7 Mg0 1.991 1_655 S
O7 C11 1.252 . S
O8 Mg3 2.032 . S
O8 C11 1.259 . S
O9 Mg0 2.114 . S
O9 C12 1.252 . S
O10 Mg0 2.251 1_655 S
O10 Mg3 2.079 . S
O10 C12 1.273 1_655 S
C11 O7 1.252 . S
C11 O8 1.259 . S
C12 O9 1.252 . S
C12 O10 1.273 1_455 S
O13 Mg0 2.010 1_554 S
O13 C5 1.249 . S
Mg14 O15 2.028 1_554 S
Mg14 O21 1.986 . S
Mg14 O23 2.114 . S
Mg14 O24 2.251 . S
Mg14 O27 2.010 . S
O15 Mg14 2.028 1_556 S
O15 C18 1.250 . S
O16 Mg17 2.028 1_556 S
O16 C18 1.248 . S
Mg17 O16 2.028 1_554 S
Mg17 O22 2.032 . S
Mg17 O24 2.079 . S
C18 O15 1.250 . S
C18 O16 1.248 . S
C19 O20 1.264 . S
C19 O27 1.249 . S
O20 C19 1.264 . S
O21 Mg14 1.986 . S
O21 C25 1.246 . S
O22 Mg17 2.032 . S
O22 C25 1.259 . S
O23 Mg14 2.114 . S
O23 C26 1.252 . S
O24 Mg14 2.251 . S
O24 Mg17 2.079 . S
O24 C26 1.273 . S
C25 O21 1.246 . S
C25 O22 1.259 . S
C26 O23 1.252 . S
C26 O24 1.273 . S
O27 Mg14 2.010 . S
O27 C19 1.249 . S
Mg28 O29 2.021 1_556 S
Mg28 O35 1.983 1_566 S
Mg28 O37 2.114 . S
Mg28 O38 2.251 1_565 S
Mg28 O41 2.010 1_556 S
O29 Mg28 2.021 1_554 S
O29 C32 1.243 1_565 S
O30 Mg31 2.028 1_554 S
O30 C32 1.248 . S
Mg31 O30 2.028 1_556 S
Mg31 O36 2.032 . S
Mg31 O38 2.079 . S
C32 O29 1.243 1_545 S
C32 O30 1.248 . S
C33 O34 1.264 1_554 S
C33 O41 1.249 . S
O34 C33 1.264 1_556 S
O35 Mg28 1.983 1_544 S
O35 C39 1.241 1_554 S
O36 Mg31 2.032 . S
O36 C39 1.259 . S
O37 Mg28 2.114 . S
O37 C40 1.252 . S
O38 Mg28 2.251 1_545 S
O38 Mg31 2.079 . S
O38 C40 1.273 1_545 S
C39 O35 1.241 1_556 S
C39 O36 1.259 . S
C40 O37 1.252 . S
C40 O38 1.273 1_565 S
O41 Mg28 2.010 1_554 S
O41 C33 1.249 . S
Mg42 O43 2.028 1_554 S
Mg42 O49 1.986 1_655 S
Mg42 O51 2.114 . S
Mg42 O52 2.251 1_655 S
Mg42 O55 2.010 . S
O43 Mg42 2.028 1_556 S
O43 C46 1.250 1_655 S
O44 Mg45 2.028 1_556 S
O44 C46 1.248 . S
Mg45 O44 2.028 1_554 S
Mg45 O50 2.032 . S
Mg45 O52 2.079 . S
C46 O43 1.250 1_455 S
C46 O44 1.248 . S
C47 O48 1.264 . S
C47 O55 1.249 . S
O48 C47 1.264 . S
O49 Mg42 1.986 1_455 S
O49 C53 1.246 . S
O50 Mg45 2.032 . S
O50 C53 1.259 . S
O51 Mg42 2.114 . S
O51 C54 1.252 . S
O52 Mg42 2.251 1_455 S
O52 Mg45 2.079 . S
O52 C54 1.273 1_455 S
C53 O49 1.246 . S
C53 O50 1.259 . S
C54 O51 1.252 . S
C54 O52 1.273 1_655 S
O55 Mg42 2.010 . S
O55 C47 1.249 . S
Mg56 O57 2.028 1_556 S
Mg56 O63 1.986 . S
Mg56 O65 2.114 . S
Mg56 O66 2.251 . S
Mg56 O69 2.010 1_556 S
O57 Mg56 2.028 1_554 S
O57 C60 1.250 . S
O58 Mg59 2.028 1_554 S
O58 C60 1.248 . S
Mg59 O58 2.028 1_556 S
Mg59 O64 2.032 . S
Mg59 O66 2.079 . S
C60 O57 1.250 . S
C60 O58 1.248 . S
C61 O62 1.264 . S
C61 O69 1.249 . S
O62 C61 1.264 . S
O63 Mg56 1.986 . S
O63 C67 1.246 . S
O64 Mg59 2.032 . S
O64 C67 1.259 . S
O65 Mg56 2.114 . S
O65 C68 1.252 . S
O66 Mg56 2.251 . S
O66 Mg59 2.079 . S
O66 C68 1.273 . S
C67 O63 1.246 . S
C67 O64 1.259 . S
C68 O65 1.252 . S
C68 O66 1.273 . S
O69 Mg56 2.010 1_554 S
O69 C61 1.249 . S
Mg70 O71 2.028 1_554 S
Mg70 O77 1.986 1_545 S
Mg70 O79 2.114 . S
Mg70 O80 2.251 1_545 S
Mg70 O83 2.010 . S
O71 Mg70 2.028 1_556 S
O71 C74 1.250 1_545 S
O72 Mg73 2.028 1_556 S
O72 C74 1.248 . S
Mg73 O72 2.028 1_554 S
Mg73 O78 2.032 . S
Mg73 O80 2.079 . S
C74 O71 1.250 1_565 S
C74 O72 1.248 . S
C75 O76 1.264 . S
C75 O83 1.249 . S
O76 C75 1.264 . S
O77 Mg70 1.986 1_565 S
O77 C81 1.246 . S
O78 Mg73 2.032 . S
O78 C81 1.259 . S
O79 Mg70 2.114 . S
O79 C82 1.252 . S
O80 Mg70 2.251 1_565 S
O80 Mg73 2.079 . S
O80 C82 1.273 1_565 S
C81 O77 1.246 . S
C81 O78 1.259 . S
C82 O79 1.252 . S
C82 O80 1.273 1_545 S
O83 Mg70 2.010 . S
O83 C75 1.249 . S
Mg84 O85 2.028 . S
Mg84 O91 1.986 . S
Mg84 O93 2.114 . S
Mg84 O94 2.251 . S
Mg84 O97 2.010 . S
O85 Mg84 2.028 . S
O85 C88 1.250 . S
O86 Mg87 2.028 . S
O86 C88 1.248 . S
Mg87 O86 2.028 . S
Mg87 O92 2.032 . S
Mg87 O94 2.079 . S
C88 O85 1.250 . S
C88 O86 1.248 . S
C89 O90 1.264 . S
C89 O97 1.249 . S
O90 C89 1.264 . S
O91 Mg84 1.986 . S
O91 C95 1.246 . S
O92 Mg87 2.032 . S
O92 C95 1.259 . S
O93 Mg84 2.114 . S
O93 C96 1.252 . S
O94 Mg84 2.251 . S
O94 Mg87 2.079 . S
O94 C96 1.273 . S
C95 O91 1.246 . S
C95 O92 1.259 . S
C96 O93 1.252 . S
C96 O94 1.273 . S
O97 Mg84 2.010 . S
O97 C89 1.249 . S
Mg98 O99 2.028 . S
Mg98 O105 1.986 1_565 S
Mg98 O107 2.114 . S
Mg98 O108 2.251 . S
Mg98 O111 2.010 . S
O99 Mg98 2.028 . S
O99 C102 1.250 . S
O100 Mg101 2.028 . S
O100 C102 1.248 . S
Mg101 O100 2.028 . S
Mg101 O106 2.032 1_565 S
Mg101 O108 2.079 . S
C102 O99 1.250 . S
C102 O100 1.248 . S
C103 O104 1.264 . S
C103 O111 1.249 . S
O104 C103 1.264 . S
O105 Mg98 1.986 1_545 S
O105 C109 1.246 . S
O106 Mg101 2.032 1_545 S
O106 C109 1.259 . S
O107 Mg98 2.114 . S
O107 C110 1.252 . S
O108 Mg98 2.251 . S
O108 Mg101 2.079 . S
O108 C110 1.273 . S
C109 O105 1.246 . S
C109 O106 1.259 . S
C110 O107 1.252 . S
C110 O108 1.273 . S
O111 Mg98 2.010 . S
O111 C103 1.249 . S
Mg112 O113 2.028 . S
Mg112 O119 1.986 . S
Mg112 O121 2.114 . S
Mg112 O122 2.251 . S
Mg112 O125 2.010 1_455 S
O113 Mg112 2.028 . S
O113 C116 1.250 . S
O114 Mg115 2.028 . S
O114 C116 1.248 . S
Mg115 O114 2.028 . S
Mg115 O120 2.032 . S
Mg115 O122 2.079 . S
C116 O113 1.250 . S
C116 O114 1.248 . S
C117 O118 1.264 . S
C117 O125 1.249 . S
O118 C117 1.264 . S
O119 Mg112 1.986 . S
O119 C123 1.246 . S
O120 Mg115 2.032 . S
O120 C123 1.259 . S
O121 Mg112 2.114 . S
O121 C124 1.252 . S
O122 Mg112 2.251 . S
O122 Mg115 2.079 . S
O122 C124 1.273 . S
C123 O119 1.246 . S
C123 O120 1.259 . S
C124 O121 1.252 . S
C124 O122 1.273 . S
O125 Mg112 2.010 1_655 S
O125 C117 1.249 . S
Mg126 O127 2.028 . S
Mg126 O133 1.986 1_565 S
Mg126 O135 2.114 . S
Mg126 O136 2.251 . S
Mg126 O139 2.010 . S
O127 Mg126 2.028 . S
O127 C130 1.250 . S
O128 Mg129 2.028 . S
O128 C130 1.248 . S
Mg129 O128 2.028 . S
Mg129 O134 2.027 1_565 S
Mg129 O136 2.079 . S
C130 O127 1.250 . S
C130 O128 1.248 . S
C131 O132 1.264 . S
C131 O139 1.249 . S
O132 C131 1.264 . S
O133 Mg126 1.986 1_545 S
O133 C137 1.246 . S
O134 Mg129 2.027 1_545 S
O134 C137 1.264 . S
O135 Mg126 2.114 . S
O135 C138 1.252 . S
O136 Mg126 2.251 . S
O136 Mg129 2.079 . S
O136 C138 1.273 . S
C137 O133 1.246 . S
C137 O134 1.264 . S
C138 O135 1.252 . S
C138 O136 1.273 . S
O139 Mg126 2.010 . S
O139 C131 1.249 . S
Mg140 O141 2.028 . S
Mg140 O147 1.986 . S
Mg140 O149 2.114 . S
Mg140 O150 2.251 . S
Mg140 O153 2.010 1_455 S
O141 Mg140 2.028 . S
O141 C144 1.250 . S
O142 Mg143 2.028 . S
O142 C144 1.248 . S
Mg143 O142 2.028 . S
Mg143 O148 2.032 . S
Mg143 O150 2.079 . S
C144 O141 1.250 . S
C144 O142 1.248 . S
C145 O146 1.264 . S
C145 O153 1.249 . S
O146 C145 1.264 . S
O147 Mg140 1.986 . S
O147 C151 1.246 . S
O148 Mg143 2.032 . S
O148 C151 1.259 . S
O149 Mg140 2.114 . S
O149 C152 1.252 . S
O150 Mg140 2.251 . S
O150 Mg143 2.079 . S
O150 C152 1.273 . S
C151 O147 1.246 . S
C151 O148 1.259 . S
C152 O149 1.252 . S
C152 O150 1.273 . S
O153 Mg140 2.010 1_655 S
O153 C145 1.249 . S
Mg154 O155 2.028 . S
Mg154 O161 1.986 . S
Mg154 O163 2.114 . S
Mg154 O164 2.251 . S
Mg154 O167 2.010 . S
O155 Mg154 2.028 . S
O155 C158 1.250 . S
O156 Mg157 2.028 . S
O156 C158 1.248 . S
Mg157 O156 2.028 . S
Mg157 O162 2.032 . S
Mg157 O164 2.079 . S
C158 O155 1.250 . S
C158 O156 1.248 . S
C159 O160 1.264 . S
C159 O167 1.249 . S
O160 C159 1.264 . S
O161 Mg154 1.986 . S
O161 C165 1.246 . S
O162 Mg157 2.032 . S
O162 C165 1.259 . S
O163 Mg154 2.114 . S
O163 C166 1.252 . S
O164 Mg154 2.251 . S
O164 Mg157 2.079 . S
O164 C166 1.273 . S
C165 O161 1.246 . S
C165 O162 1.259 . S
C166 O163 1.252 . S
C166 O164 1.273 . S
O167 Mg154 2.010 . S
O167 C159 1.249 . S
Mg168 O169 2.028 . S
Mg168 O175 1.973 1_545 S
Mg168 O177 2.114 . S
Mg168 O178 2.251 . S
Mg168 O181 2.010 . S
O169 Mg168 2.028 . S
O169 C172 1.250 . S
O170 Mg171 2.028 . S
O170 C172 1.248 . S
Mg171 O170 2.028 . S
Mg171 O176 2.032 . S
Mg171 O178 2.079 . S
C172 O169 1.250 . S
C172 O170 1.248 . S
C173 O174 1.264 . S
C173 O181 1.249 . S
O174 C173 1.264 . S
O175 Mg168 1.973 1_565 S
O175 C179 1.243 . S
O176 Mg171 2.032 . S
O176 C179 1.259 1_545 S
O177 Mg168 2.114 . S
O177 C180 1.252 . S
O178 Mg168 2.251 . S
O178 Mg171 2.079 . S
O178 C180 1.273 . S
C179 O175 1.243 . S
C179 O176 1.259 1_565 S
C180 O177 1.252 . S
C180 O178 1.273 . S
O181 Mg168 2.010 . S
O181 C173 1.249 . S
Mg182 O183 2.028 . S
Mg182 O189 1.986 . S
Mg182 O191 2.114 . S
Mg182 O192 2.251 . S
Mg182 O195 2.010 1_655 S
O183 Mg182 2.028 . S
O183 C186 1.250 . S
O184 Mg185 2.028 . S
O184 C186 1.248 . S
Mg185 O184 2.028 . S
Mg185 O190 2.032 . S
Mg185 O192 2.079 . S
C186 O183 1.250 . S
C186 O184 1.248 . S
C187 O188 1.264 . S
C187 O195 1.249 . S
O188 C187 1.264 . S
O189 Mg182 1.986 . S
O189 C193 1.246 . S
O190 Mg185 2.032 . S
O190 C193 1.259 . S
O191 Mg182 2.114 . S
O191 C194 1.252 . S
O192 Mg182 2.251 . S
O192 Mg185 2.079 . S
O192 C194 1.273 . S
C193 O189 1.246 . S
C193 O190 1.259 . S
C194 O191 1.252 . S
C194 O192 1.273 . S
O195 Mg182 2.010 1_455 S
O195 C187 1.249 . S
Mg196 O197 2.028 . S
Mg196 O203 1.986 . S
Mg196 O205 2.114 . S
Mg196 O206 2.251 . S
Mg196 O209 2.010 . S
O197 Mg196 2.028 . S
O197 C200 1.250 . S
O198 Mg199 2.028 . S
O198 C200 1.248 . S
Mg199 O198 2.028 . S
Mg199 O204 2.032 . S
Mg199 O206 2.079 . S
C200 O197 1.250 . S
C200 O198 1.248 . S
C201 O202 1.264 . S
C201 O209 1.249 . S
O202 C201 1.264 . S
O203 Mg196 1.986 . S
O203 C207 1.246 . S
O204 Mg199 2.032 . S
O204 C207 1.259 . S
O205 Mg196 2.114 . S
O205 C208 1.252 . S
O206 Mg196 2.251 . S
O206 Mg199 2.079 . S
O206 C208 1.273 . S
C207 O203 1.246 . S
C207 O204 1.259 . S
C208 O205 1.252 . S
C208 O206 1.273 . S
O209 Mg196 2.010 . S
O209 C201 1.249 . S
Mg210 O211 2.028 . S
Mg210 O217 1.986 . S
Mg210 O219 2.114 . S
Mg210 O220 2.251 . S
Mg210 O223 2.010 . S
O211 Mg210 2.028 . S
O211 C214 1.250 . S
O212 Mg213 2.028 . S
O212 C214 1.248 . S
Mg213 O212 2.028 . S
Mg213 O218 2.032 . S
Mg213 O220 2.079 . S
C214 O211 1.250 . S
C214 O212 1.248 . S
C215 O216 1.264 . S
C215 O223 1.249 . S
O216 C215 1.264 . S
O217 Mg210 1.986 . S
O217 C221 1.246 . S
O218 Mg213 2.032 . S
O218 C221 1.259 . S
O219 Mg210 2.114 . S
O219 C222 1.252 . S
O220 Mg210 2.251 . S
O220 Mg213 2.079 . S
O220 C222 1.273 . S
C221 O217 1.246 . S
C221 O218 1.259 . S
C222 O219 1.252 . S
C222 O220 1.273 . S
O223 Mg210 2.010 . S
O223 C215 1.249 . S
Mg224 O225 2.028 . S
Mg224 O231 1.986 1_545 S
Mg224 O233 2.114 . S
Mg224 O234 2.251 . S
Mg224 O237 2.010 . S
O225 Mg224 2.028 . S
O225 C228 1.250 . S
O226 Mg227 2.028 . S
O226 C228 1.248 . S
Mg227 O226 2.028 . S
Mg227 O232 2.034 . S
Mg227 O234 2.079 . S
C228 O225 1.250 . S
C228 O226 1.248 . S
C229 O230 1.264 . S
C229 O237 1.249 . S
O230 C229 1.264 . S
O231 Mg224 1.986 1_565 S
O231 C235 1.246 . S
O232 Mg227 2.034 . S
O232 C235 1.259 1_545 S
O233 Mg224 2.114 . S
O233 C236 1.252 . S
O234 Mg224 2.251 . S
O234 Mg227 2.079 . S
O234 C236 1.273 . S
C235 O231 1.246 . S
C235 O232 1.259 1_565 S
C236 O233 1.252 . S
C236 O234 1.273 . S
O237 Mg224 2.010 . S
O237 C229 1.249 . S
Mg238 O239 2.028 . S
Mg238 O245 1.986 . S
Mg238 O247 2.114 . S
Mg238 O248 2.251 . S
Mg238 O251 2.010 1_655 S
O239 Mg238 2.028 . S
O239 C242 1.250 . S
O240 Mg241 2.028 . S
O240 C242 1.248 . S
Mg241 O240 2.028 . S
Mg241 O246 2.032 . S
Mg241 O248 2.079 . S
C242 O239 1.250 . S
C242 O240 1.248 . S
C243 O244 1.264 . S
C243 O251 1.249 . S
O244 C243 1.264 . S
O245 Mg238 1.986 . S
O245 C249 1.246 . S
O246 Mg241 2.032 . S
O246 C249 1.259 . S
O247 Mg238 2.114 . S
O247 C250 1.252 . S
O248 Mg238 2.251 . S
O248 Mg241 2.079 . S
O248 C250 1.273 . S
C249 O245 1.246 . S
C249 O246 1.259 . S
C250 O247 1.252 . S
C250 O248 1.273 . S
O251 Mg238 2.010 1_455 S
O251 C243 1.249 . S
H252 C260 0.930 . S
H253 C263 0.930 . S
H254 C265 0.930 . S
H255 C266 0.970 . S
H256 C266 0.970 . S
H257 C268 0.930 . S
H258 C270 0.930 . S
H259 C272 0.930 . S
C260 H252 0.930 . S
C260 C261 1.382 . S
C260 C262 1.426 . S
C261 C260 1.382 . S
C261 C265 1.389 . S
C262 C260 1.426 . S
C262 C263 1.375 . S
C262 C266 1.532 . S
C263 H253 0.930 . S
C263 C262 1.375 . S
C263 C264 1.416 . S
C264 C263 1.416 . S
C264 C265 1.371 . S
C265 H254 0.930 . S
C265 C261 1.389 . S
C265 C264 1.371 . S
C266 H255 0.970 . S
C266 H256 0.970 . S
C266 C262 1.532 . S
C266 C267 1.499 . S
C267 C266 1.499 . S
C267 C268 1.370 . S
C267 C272 1.415 . S
C268 H257 0.930 . S
C268 C267 1.370 . S
C268 C269 1.407 . S
C269 C268 1.407 . S
C269 C270 1.365 . S
C270 H258 0.930 . S
C270 C269 1.365 . S
C270 C271 1.393 . S
C271 C270 1.393 . S
C271 C272 1.387 . S
C272 H259 0.930 . S
C272 C267 1.415 . S
C272 C271 1.387 . S
H273 C281 0.930 . S
H274 C284 0.930 . S
H275 C286 0.930 . S
H276 C287 0.970 . S
H277 C287 0.970 . S
H278 C289 0.930 . S
H279 C291 0.930 . S
H280 C293 0.930 . S
C281 H273 0.930 . S
C281 C282 1.382 . S
C281 C283 1.426 . S
C282 C281 1.382 . S
C282 C286 1.389 . S
C283 C281 1.426 . S
C283 C284 1.375 . S
C283 C287 1.532 . S
C284 H274 0.930 . S
C284 C283 1.375 . S
C284 C285 1.416 . S
C285 C284 1.416 . S
C285 C286 1.371 . S
C286 H275 0.930 . S
C286 C282 1.389 . S
C286 C285 1.371 . S
C287 H276 0.970 . S
C287 H277 0.970 . S
C287 C283 1.532 . S
C287 C288 1.499 . S
C288 C287 1.499 . S
C288 C289 1.370 . S
C288 C293 1.415 . S
C289 H278 0.930 . S
C289 C288 1.370 . S
C289 C290 1.407 . S
C290 C289 1.407 . S
C290 C291 1.365 . S
C291 H279 0.930 . S
C291 C290 1.365 . S
C291 C292 1.393 . S
C292 C291 1.393 . S
C292 C293 1.387 . S
C293 H280 0.930 . S
C293 C288 1.415 . S
C293 C292 1.387 . S
H294 C302 0.930 . S
H295 C305 0.930 . S
H296 C307 0.930 . S
H297 C308 0.970 . S
H298 C308 0.970 . S
H299 C310 0.930 . S
H300 C312 0.930 . S
H301 C314 0.930 . S
C302 H294 0.930 . S
C302 C303 1.382 . S
C302 C304 1.426 . S
C303 C302 1.382 . S
C303 C307 1.389 . S
C304 C302 1.426 . S
C304 C305 1.375 . S
C304 C308 1.532 . S
C305 H295 0.930 . S
C305 C304 1.375 . S
C305 C306 1.416 . S
C306 C305 1.416 . S
C306 C307 1.371 . S
C307 H296 0.930 . S
C307 C303 1.389 . S
C307 C306 1.371 . S
C308 H297 0.970 . S
C308 H298 0.970 . S
C308 C304 1.532 . S
C308 C309 1.499 . S
C309 C308 1.499 . S
C309 C310 1.370 . S
C309 C314 1.415 . S
C310 H299 0.930 . S
C310 C309 1.370 . S
C310 C311 1.407 . S
C311 C310 1.407 . S
C311 C312 1.365 . S
C312 H300 0.930 . S
C312 C311 1.365 . S
C312 C313 1.393 . S
C313 C312 1.393 . S
C313 C314 1.387 . S
C314 H301 0.930 . S
C314 C309 1.415 . S
C314 C313 1.387 . S
H315 C323 0.930 . S
H316 C326 0.930 . S
H317 C328 0.930 . S
H318 C329 0.970 . S
H319 C329 0.970 . S
H320 C331 0.930 . S
H321 C333 0.930 . S
H322 C335 0.930 . S
C323 H315 0.930 . S
C323 C324 1.382 . S
C323 C325 1.426 . S
C324 C323 1.382 . S
C324 C328 1.389 . S
C325 C323 1.426 . S
C325 C326 1.375 . S
C325 C329 1.532 . S
C326 H316 0.930 . S
C326 C325 1.375 . S
C326 C327 1.416 . S
C327 C326 1.416 . S
C327 C328 1.371 . S
C328 H317 0.930 . S
C328 C324 1.389 . S
C328 C327 1.371 . S
C329 H318 0.970 . S
C329 H319 0.970 . S
C329 C325 1.532 . S
C329 C330 1.499 . S
C330 C329 1.499 . S
C330 C331 1.370 . S
C330 C335 1.415 . S
C331 H320 0.930 . S
C331 C330 1.370 . S
C331 C332 1.407 . S
C332 C331 1.407 . S
C332 C333 1.365 . S
C333 H321 0.930 . S
C333 C332 1.365 . S
C333 C334 1.393 . S
C334 C333 1.393 . S
C334 C335 1.387 . S
C335 H322 0.930 . S
C335 C330 1.415 . S
C335 C334 1.387 . S
H336 C344 0.930 . S
H337 C347 0.930 . S
H338 C349 0.930 . S
H339 C350 0.970 . S
H340 C350 0.970 . S
H341 C352 0.930 . S
H342 C354 0.930 . S
H343 C356 0.930 . S
C344 H336 0.930 . S
C344 C345 1.382 . S
C344 C346 1.426 . S
C345 C344 1.382 . S
C345 C349 1.389 . S
C346 C344 1.426 . S
C346 C347 1.375 . S
C346 C350 1.532 . S
C347 H337 0.930 . S
C347 C346 1.375 . S
C347 C348 1.416 . S
C348 C347 1.416 . S
C348 C349 1.371 . S
C349 H338 0.930 . S
C349 C345 1.389 . S
C349 C348 1.371 . S
C350 H339 0.970 . S
C350 H340 0.970 . S
C350 C346 1.532 . S
C350 C351 1.499 . S
C351 C350 1.499 . S
C351 C352 1.370 . S
C351 C356 1.415 . S
C352 H341 0.930 . S
C352 C351 1.370 . S
C352 C353 1.407 . S
C353 C352 1.407 . S
C353 C354 1.365 . S
C354 H342 0.930 . S
C354 C353 1.365 . S
C354 C355 1.393 . S
C355 C354 1.393 . S
C355 C356 1.387 . S
C356 H343 0.930 . S
C356 C351 1.415 . S
C356 C355 1.387 . S
H357 C365 0.930 . S
H358 C368 0.930 . S
H359 C370 0.930 . S
H360 C371 0.970 . S
H361 C371 0.970 . S
H362 C373 0.930 . S
H363 C375 0.930 . S
H364 C377 0.930 . S
C365 H357 0.930 . S
C365 C366 1.382 . S
C365 C367 1.426 . S
C366 C365 1.382 . S
C366 C370 1.389 . S
C367 C365 1.426 . S
C367 C368 1.375 . S
C367 C371 1.532 . S
C368 H358 0.930 . S
C368 C367 1.375 . S
C368 C369 1.416 . S
C369 C368 1.416 . S
C369 C370 1.371 . S
C370 H359 0.930 . S
C370 C366 1.389 . S
C370 C369 1.371 . S
C371 H360 0.970 . S
C371 H361 0.970 . S
C371 C367 1.532 . S
C371 C372 1.499 . S
C372 C371 1.499 . S
C372 C373 1.370 . S
C372 C377 1.415 . S
C373 H362 0.930 . S
C373 C372 1.370 . S
C373 C374 1.407 . S
C374 C373 1.407 . S
C374 C375 1.365 . S
C375 H363 0.930 . S
C375 C374 1.365 . S
C375 C376 1.393 . S
C376 C375 1.393 . S
C376 C377 1.387 . S
C377 H364 0.930 . S
C377 C372 1.415 . S
C377 C376 1.387 . S
H378 C386 0.930 . S
H379 C389 0.930 . S
H380 C391 0.930 . S
H381 C392 0.970 . S
H382 C392 0.970 . S
H383 C394 0.930 . S
H384 C396 0.930 . S
H385 C398 0.930 . S
C386 H378 0.930 . S
C386 C387 1.382 . S
C386 C388 1.426 . S
C387 C386 1.382 . S
C387 C391 1.389 . S
C388 C386 1.426 . S
C388 C389 1.375 . S
C388 C392 1.532 . S
C389 H379 0.930 . S
C389 C388 1.375 . S
C389 C390 1.416 . S
C390 C389 1.416 . S
C390 C391 1.371 . S
C391 H380 0.930 . S
C391 C387 1.389 . S
C391 C390 1.371 . S
C392 H381 0.970 . S
C392 H382 0.970 . S
C392 C388 1.532 . S
C392 C393 1.499 . S
C393 C392 1.499 . S
C393 C394 1.370 . S
C393 C398 1.415 . S
C394 H383 0.930 . S
C394 C393 1.370 . S
C394 C395 1.407 . S
C395 C394 1.407 . S
C395 C396 1.365 . S
C396 H384 0.930 . S
C396 C395 1.365 . S
C396 C397 1.393 . S
C397 C396 1.393 . S
C397 C398 1.387 . S
C398 H385 0.930 . S
C398 C393 1.415 . S
C398 C397 1.387 . S
H399 C407 0.930 . S
H400 C410 0.930 . S
H401 C412 0.930 . S
H402 C413 0.970 . S
H403 C413 0.970 . S
H404 C415 0.930 . S
H405 C417 0.930 . S
H406 C419 0.930 . S
C407 H399 0.930 . S
C407 C408 1.382 . S
C407 C409 1.426 . S
C408 C407 1.382 . S
C408 C412 1.389 . S
C409 C407 1.426 . S
C409 C410 1.375 . S
C409 C413 1.532 . S
C410 H400 0.930 . S
C410 C409 1.375 . S
C410 C411 1.416 . S
C411 C410 1.416 . S
C411 C412 1.371 . S
C412 H401 0.930 . S
C412 C408 1.389 . S
C412 C411 1.371 . S
C413 H402 0.970 . S
C413 H403 0.970 . S
C413 C409 1.532 . S
C413 C414 1.499 . S
C414 C413 1.499 . S
C414 C415 1.370 . S
C414 C419 1.415 . S
C415 H404 0.930 . S
C415 C414 1.370 . S
C415 C416 1.407 . S
C416 C415 1.407 . S
C416 C417 1.365 . S
C417 H405 0.930 . S
C417 C416 1.365 . S
C417 C418 1.393 . S
C418 C417 1.393 . S
C418 C419 1.387 . S
C419 H406 0.930 . S
C419 C414 1.415 . S
C419 C418 1.387 . S
H420 C428 0.930 . S
H421 C431 0.930 . S
H422 C433 0.930 . S
H423 C434 0.970 . S
H424 C434 0.970 . S
H425 C436 0.930 . S
H426 C438 0.930 . S
H427 C440 0.930 . S
C428 H420 0.930 . S
C428 C429 1.382 . S
C428 C430 1.426 . S
C429 C428 1.382 . S
C429 C433 1.389 . S
C430 C428 1.426 . S
C430 C431 1.375 . S
C430 C434 1.532 . S
C431 H421 0.930 . S
C431 C430 1.375 . S
C431 C432 1.416 . S
C432 C431 1.416 . S
C432 C433 1.371 . S
C433 H422 0.930 . S
C433 C429 1.389 . S
C433 C432 1.371 . S
C434 H423 0.970 . S
C434 H424 0.970 . S
C434 C430 1.532 . S
C434 C435 1.499 . S
C435 C434 1.499 . S
C435 C436 1.370 . S
C435 C440 1.415 . S
C436 H425 0.930 . S
C436 C435 1.370 . S
C436 C437 1.407 . S
C437 C436 1.407 . S
C437 C438 1.365 . S
C438 H426 0.930 . S
C438 C437 1.365 . S
C438 C439 1.393 . S
C439 C438 1.393 . S
C439 C440 1.387 . S
C440 H427 0.930 . S
C440 C435 1.415 . S
C440 C439 1.387 . S
H441 C449 0.930 . S
H442 C452 0.930 . S
H443 C454 0.930 . S
H444 C455 0.970 . S
H445 C455 0.970 . S
H446 C457 0.930 . S
H447 C459 0.930 . S
H448 C461 0.930 . S
C449 H441 0.930 . S
C449 C450 1.382 . S
C449 C451 1.426 . S
C450 C449 1.382 . S
C450 C454 1.389 1_455 S
C451 C449 1.426 . S
C451 C452 1.375 . S
C451 C455 1.532 . S
C452 H442 0.930 . S
C452 C451 1.375 . S
C452 C453 1.416 . S
C453 C452 1.416 . S
C453 C454 1.371 1_455 S
C454 H443 0.930 . S
C454 C450 1.389 1_655 S
C454 C453 1.371 1_655 S
C455 H444 0.970 . S
C455 H445 0.970 . S
C455 C451 1.532 . S
C455 C456 1.499 . S
C456 C455 1.499 . S
C456 C457 1.370 . S
C456 C461 1.415 . S
C457 H446 0.930 . S
C457 C456 1.370 . S
C457 C458 1.411 . S
C458 C457 1.411 . S
C458 C459 1.369 1_455 S
C459 H447 0.930 . S
C459 C458 1.369 1_655 S
C459 C460 1.393 1_655 S
C460 C459 1.393 1_455 S
C460 C461 1.387 . S
C461 H448 0.930 . S
C461 C456 1.415 . S
C461 C460 1.387 . S
H462 C470 0.930 . S
H463 C473 0.930 . S
H464 C475 0.930 . S
H465 C476 0.970 . S
H466 C476 0.970 . S
H467 C478 0.930 . S
H468 C480 0.930 . S
H469 C482 0.930 . S
C470 H462 0.930 . S
C470 C471 1.382 . S
C470 C472 1.426 . S
C471 C470 1.382 . S
C471 C475 1.389 . S
C472 C470 1.426 . S
C472 C473 1.375 . S
C472 C476 1.532 . S
C473 H463 0.930 . S
C473 C472 1.375 . S
C473 C474 1.416 . S
C474 C473 1.416 . S
C474 C475 1.371 . S
C475 H464 0.930 . S
C475 C471 1.389 . S
C475 C474 1.371 . S
C476 H465 0.970 . S
C476 H466 0.970 . S
C476 C472 1.532 . S
C476 C477 1.499 . S
C477 C476 1.499 . S
C477 C478 1.370 . S
C477 C482 1.415 . S
C478 H467 0.930 . S
C478 C477 1.370 . S
C478 C479 1.407 . S
C479 C478 1.407 . S
C479 C480 1.365 . S
C480 H468 0.930 . S
C480 C479 1.365 . S
C480 C481 1.393 . S
C481 C480 1.393 . S
C481 C482 1.387 . S
C482 H469 0.930 . S
C482 C477 1.415 . S
C482 C481 1.387 . S
H483 C491 0.930 . S
H484 C494 0.930 . S
H485 C496 0.930 . S
H486 C497 0.970 . S
H487 C497 0.970 . S
H488 C499 0.930 . S
H489 C501 0.930 . S
H490 C503 0.930 . S
C491 H483 0.930 . S
C491 C492 1.382 . S
C491 C493 1.426 . S
C492 C491 1.382 . S
C492 C496 1.389 1_565 S
C493 C491 1.426 . S
C493 C494 1.375 . S
C493 C497 1.532 . S
C494 H484 0.930 . S
C494 C493 1.375 . S
C494 C495 1.416 . S
C495 C494 1.416 . S
C495 C496 1.371 1_565 S
C496 H485 0.930 . S
C496 C492 1.389 1_545 S
C496 C495 1.371 1_545 S
C497 H486 0.970 . S
C497 H487 0.970 . S
C497 C493 1.532 . S
C497 C498 1.499 . S
C498 C497 1.499 . S
C498 C499 1.370 . S
C498 C503 1.415 . S
C499 H488 0.930 . S
C499 C498 1.370 . S
C499 C500 1.441 . S
C500 C499 1.441 . S
C500 C501 1.352 1_565 S
C501 H489 0.930 . S
C501 C500 1.352 1_545 S
C501 C502 1.393 1_545 S
C502 C501 1.393 1_565 S
C502 C503 1.387 . S
C503 H490 0.930 . S
C503 C498 1.415 . S
C503 C502 1.387 . S
H504 C512 0.930 . S
H505 C515 0.930 . S
H506 C517 0.930 . S
H507 C518 0.970 . S
H508 C518 0.970 . S
H509 C520 0.930 . S
H510 C522 0.930 . S
H511 C524 0.930 . S
C512 H504 0.930 . S
C512 C513 1.382 . S
C512 C514 1.426 . S
C513 C512 1.382 . S
C513 C517 1.389 1_565 S
C514 C512 1.426 . S
C514 C515 1.375 . S
C514 C518 1.532 . S
C515 H505 0.930 . S
C515 C514 1.375 . S
C515 C516 1.494 . S
C516 C515 1.494 . S
C516 C517 1.345 1_565 S
C517 H506 0.930 . S
C517 C513 1.389 1_545 S
C517 C516 1.345 1_545 S
C518 H507 0.970 . S
C518 H508 0.970 . S
C518 C514 1.532 . S
C518 C519 1.499 . S
C519 C518 1.499 . S
C519 C520 1.370 . S
C519 C524 1.415 . S
C520 H509 0.930 . S
C520 C519 1.370 . S
C520 C521 1.407 . S
C521 C520 1.407 . S
C521 C522 1.365 1_565 S
C522 H510 0.930 . S
C522 C521 1.365 1_545 S
C522 C523 1.393 1_545 S
C523 C522 1.393 1_565 S
C523 C524 1.387 . S
C524 H511 0.930 . S
C524 C519 1.415 . S
C524 C523 1.387 . S
H525 C533 0.930 . S
H526 C536 0.930 . S
H527 C538 0.930 . S
H528 C539 0.970 . S
H529 C539 0.970 . S
H530 C541 0.930 . S
H531 C543 0.930 . S
H532 C545 0.930 . S
C533 H525 0.930 . S
C533 C534 1.382 . S
C533 C535 1.426 . S
C534 C533 1.382 . S
C534 C538 1.389 1_455 S
C535 C533 1.426 . S
C535 C536 1.375 . S
C535 C539 1.532 . S
C536 H526 0.930 . S
C536 C535 1.375 . S
C536 C537 1.421 . S
C537 C536 1.421 . S
C537 C538 1.380 1_455 S
C538 H527 0.930 . S
C538 C534 1.389 1_655 S
C538 C537 1.380 1_655 S
C539 H528 0.970 . S
C539 H529 0.970 . S
C539 C535 1.532 . S
C539 C540 1.499 . S
C540 C539 1.499 . S
C540 C541 1.370 . S
C540 C545 1.415 . S
C541 H530 0.930 . S
C541 C540 1.370 . S
C541 C542 1.407 . S
C542 C541 1.407 . S
C542 C543 1.365 1_455 S
C543 H531 0.930 . S
C543 C542 1.365 1_655 S
C543 C544 1.393 1_655 S
C544 C543 1.393 1_455 S
C544 C545 1.387 . S
C545 H532 0.930 . S
C545 C540 1.415 . S
C545 C544 1.387 . S
H546 C554 0.930 . S
H547 C557 0.930 . S
H548 C559 0.930 . S
H549 C560 0.970 . S
H550 C560 0.970 . S
H551 C562 0.930 . S
H552 C564 0.930 . S
H553 C566 0.930 . S
C554 H546 0.930 . S
C554 C555 1.382 . S
C554 C556 1.426 . S
C555 C554 1.382 . S
C555 C559 1.389 . S
C556 C554 1.426 . S
C556 C557 1.375 . S
C556 C560 1.532 . S
C557 H547 0.930 . S
C557 C556 1.375 . S
C557 C558 1.416 . S
C558 C557 1.416 . S
C558 C559 1.371 . S
C559 H548 0.930 . S
C559 C555 1.389 . S
C559 C558 1.371 . S
C560 H549 0.970 . S
C560 H550 0.970 . S
C560 C556 1.532 . S
C560 C561 1.499 . S
C561 C560 1.499 . S
C561 C562 1.370 . S
C561 C566 1.415 . S
C562 H551 0.930 . S
C562 C561 1.370 . S
C562 C563 1.407 . S
C563 C562 1.407 . S
C563 C564 1.365 . S
C564 H552 0.930 . S
C564 C563 1.365 . S
C564 C565 1.393 . S
C565 C564 1.393 . S
C565 C566 1.387 . S
C566 H553 0.930 . S
C566 C561 1.415 . S
C566 C565 1.387 . S
H567 C575 0.930 . S
H568 C578 0.930 . S
H569 C580 0.930 . S
H570 C581 0.970 . S
H571 C581 0.970 . S
H572 C583 0.930 . S
H573 C585 0.930 . S
H574 C587 0.930 . S
C575 H567 0.930 . S
C575 C576 1.382 . S
C575 C577 1.426 . S
C576 C575 1.382 . S
C576 C580 1.389 . S
C577 C575 1.426 . S
C577 C578 1.375 . S
C577 C581 1.532 . S
C578 H568 0.930 . S
C578 C577 1.375 . S
C578 C579 1.416 . S
C579 C578 1.416 . S
C579 C580 1.371 . S
C580 H569 0.930 . S
C580 C576 1.389 . S
C580 C579 1.371 . S
C581 H570 0.970 . S
C581 H571 0.970 . S
C581 C577 1.532 . S
C581 C582 1.499 . S
C582 C581 1.499 . S
C582 C583 1.370 . S
C582 C587 1.415 . S
C583 H572 0.930 . S
C583 C582 1.370 . S
C583 C584 1.407 . S
C584 C583 1.407 . S
C584 C585 1.365 . S
C585 H573 0.930 . S
C585 C584 1.365 . S
C585 C586 1.393 . S
C586 C585 1.393 . S
C586 C587 1.387 . S
C587 H574 0.930 . S
C587 C582 1.415 . S
C587 C586 1.387 . S
H588 C596 0.930 . S
H589 C599 0.930 . S
H590 C601 0.930 . S
H591 C602 0.970 . S
H592 C602 0.970 . S
H593 C604 0.930 . S
H594 C606 0.930 . S
H595 C608 0.930 . S
C596 H588 0.930 . S
C596 C597 1.382 . S
C596 C598 1.426 . S
C597 C596 1.382 . S
C597 C601 1.389 . S
C598 C596 1.426 . S
C598 C599 1.375 . S
C598 C602 1.532 . S
C599 H589 0.930 . S
C599 C598 1.375 . S
C599 C600 1.416 . S
C600 C599 1.416 . S
C600 C601 1.371 . S
C601 H590 0.930 . S
C601 C597 1.389 . S
C601 C600 1.371 . S
C602 H591 0.970 . S
C602 H592 0.970 . S
C602 C598 1.532 . S
C602 C603 1.499 . S
C603 C602 1.499 . S
C603 C604 1.370 . S
C603 C608 1.415 . S
C604 H593 0.930 . S
C604 C603 1.370 . S
C604 C605 1.407 . S
C605 C604 1.407 . S
C605 C606 1.365 . S
C606 H594 0.930 . S
C606 C605 1.365 . S
C606 C607 1.393 . S
C607 C606 1.393 . S
C607 C608 1.387 . S
C608 H595 0.930 . S
C608 C603 1.415 . S
C608 C607 1.387 . S
H609 C617 0.930 . S
H610 C620 0.930 . S
H611 C622 0.930 . S
H612 C623 0.970 . S
H613 C623 0.970 . S
H614 C625 0.930 . S
H615 C627 0.930 . S
H616 C629 0.930 . S
C617 H609 0.930 . S
C617 C618 1.382 . S
C617 C619 1.426 . S
C618 C617 1.382 . S
C618 C622 1.389 . S
C619 C617 1.426 . S
C619 C620 1.375 . S
C619 C623 1.532 . S
C620 H610 0.930 . S
C620 C619 1.375 . S
C620 C621 1.416 . S
C621 C620 1.416 . S
C621 C622 1.371 . S
C622 H611 0.930 . S
C622 C618 1.389 . S
C622 C621 1.371 . S
C623 H612 0.970 . S
C623 H613 0.970 . S
C623 C619 1.532 . S
C623 C624 1.499 . S
C624 C623 1.499 . S
C624 C625 1.370 . S
C624 C629 1.415 . S
C625 H614 0.930 . S
C625 C624 1.370 . S
C625 C626 1.407 . S
C626 C625 1.407 . S
C626 C627 1.365 . S
C627 H615 0.930 . S
C627 C626 1.365 . S
C627 C628 1.393 . S
C628 C627 1.393 . S
C628 C629 1.387 . S
C629 H616 0.930 . S
C629 C624 1.415 . S
C629 C628 1.387 . S
H630 C648 0.951 . S
H631 C650 0.951 . S
H632 C652 0.950 . S
H633 C653 0.950 . S
H634 C655 0.950 . S
H635 C658 0.950 1_455 S
H636 C659 0.955 1_455 S
H637 C661 0.950 . S
H638 C662 0.950 . S
H639 C663 0.951 . S
H640 C665 0.951 . S
H641 C667 0.950 . S
H642 C668 0.950 . S
H643 C670 0.950 . S
H644 C673 0.950 . S
H645 C674 0.950 1_655 S
H646 C676 0.950 . S
H647 C677 0.950 . S
C648 H630 0.951 . S
C648 C649 1.366 . S
C648 C650 1.388 . S
C649 C648 1.366 . S
C649 C653 1.385 1_655 S
C650 H631 0.951 . S
C650 C648 1.388 . S
C650 C651 1.366 . S
C651 C650 1.366 . S
C651 C652 1.414 1_655 S
C651 C654 1.499 . S
C652 H632 0.950 . S
C652 C651 1.414 1_455 S
C652 C653 1.374 . S
C653 H633 0.950 . S
C653 C649 1.385 1_455 S
C653 C652 1.374 . S
C654 C651 1.499 . S
C654 C655 1.373 1_655 S
C654 C656 1.389 . S
C655 H634 0.950 . S
C655 C654 1.373 1_455 S
C655 C671 1.377 . S
C656 C654 1.389 . S
C656 C657 1.524 . S
C656 C670 1.377 . S
C657 C656 1.524 . S
C657 C658 1.397 . S
C657 C662 1.363 . S
C658 H635 0.950 1_655 S
C658 C657 1.397 . S
C658 C659 1.334 . S
C659 H636 0.955 1_655 S
C659 C658 1.334 . S
C659 C660 1.287 . S
C660 C659 1.287 . S
C660 C661 1.524 . S
C660 H679 0.913 . S
C661 H637 0.950 . S
C661 C660 1.524 . S
C661 C662 1.415 . S
C662 H638 0.950 . S
C662 C657 1.363 . S
C662 C661 1.415 . S
C663 H639 0.951 . S
C663 C664 1.366 1_455 S
C663 C665 1.388 . S
C664 C663 1.366 1_655 S
C664 C668 1.385 . S
C665 H640 0.951 . S
C665 C663 1.388 . S
C665 C666 1.366 1_455 S
C666 C665 1.366 1_655 S
C666 C667 1.414 . S
C666 C669 1.499 . S
C667 H641 0.950 . S
C667 C666 1.414 . S
C667 C668 1.374 . S
C668 H642 0.950 . S
C668 C664 1.385 . S
C668 C667 1.374 . S
C669 C666 1.499 . S
C669 C670 1.373 . S
C669 C671 1.389 1_655 S
C670 H643 0.950 . S
C670 C656 1.377 . S
C670 C669 1.373 . S
C671 C655 1.377 . S
C671 C669 1.389 1_455 S
C671 C672 1.524 . S
C672 C671 1.524 . S
C672 C673 1.397 1_455 S
C672 C677 1.363 . S
C673 H644 0.950 . S
C673 C672 1.397 1_655 S
C673 C674 1.334 1_655 S
C674 H645 0.950 1_455 S
C674 C673 1.334 1_455 S
C674 C675 1.287 . S
C675 C674 1.287 . S
C675 C676 1.524 . S
C675 H678 0.999 . S
C676 H646 0.950 . S
C676 C675 1.524 . S
C676 C677 1.415 . S
C677 H647 0.950 . S
C677 C672 1.363 . S
C677 C676 1.415 . S
H678 C675 0.999 . S
H679 C660 0.913 . S
H680 C698 0.951 . S
H681 C700 0.951 . S
H682 C702 0.950 . S
H683 C703 0.950 . S
H684 C705 0.950 . S
H685 C708 0.950 . S
H686 C709 0.950 . S
H687 C711 0.950 . S
H688 C712 0.950 . S
H689 C713 0.951 . S
H690 C715 0.951 . S
H691 C717 0.950 . S
H692 C718 0.950 . S
H693 C720 0.950 . S
H694 C723 0.950 . S
H695 C724 0.950 . S
H696 C726 0.950 . S
H697 C727 0.950 . S
C698 H680 0.951 . S
C698 C699 1.366 . S
C698 C700 1.388 . S
C699 C698 1.366 . S
C699 C703 1.385 . S
C700 H681 0.951 . S
C700 C698 1.388 . S
C700 C701 1.366 . S
C701 C700 1.366 . S
C701 C702 1.414 . S
C701 C704 1.499 . S
C702 H682 0.950 . S
C702 C701 1.414 . S
C702 C703 1.374 . S
C703 H683 0.950 . S
C703 C699 1.385 . S
C703 C702 1.374 . S
C704 C701 1.499 . S
C704 C705 1.373 . S
C704 C706 1.389 . S
C705 H684 0.950 . S
C705 C704 1.373 . S
C705 C721 1.377 . S
C706 C704 1.389 . S
C706 C707 1.524 . S
C706 C720 1.377 . S
C707 C706 1.524 . S
C707 C708 1.397 . S
C707 C712 1.363 . S
C708 H685 0.950 . S
C708 C707 1.397 . S
C708 C709 1.334 . S
C709 H686 0.950 . S
C709 C708 1.334 . S
C709 C710 1.287 . S
C710 C709 1.287 . S
C710 C711 1.524 . S
C710 H729 0.913 . S
C711 H687 0.950 . S
C711 C710 1.524 . S
C711 C712 1.415 . S
C712 H688 0.950 . S
C712 C707 1.363 . S
C712 C711 1.415 . S
C713 H689 0.951 . S
C713 C714 1.366 . S
C713 C715 1.388 . S
C714 C713 1.366 . S
C714 C718 1.385 . S
C715 H690 0.951 . S
C715 C713 1.388 . S
C715 C716 1.366 . S
C716 C715 1.366 . S
C716 C717 1.414 . S
C716 C719 1.499 . S
C717 H691 0.950 . S
C717 C716 1.414 . S
C717 C718 1.374 . S
C718 H692 0.950 . S
C718 C714 1.385 . S
C718 C717 1.374 . S
C719 C716 1.499 . S
C719 C720 1.373 . S
C719 C721 1.389 . S
C720 H693 0.950 . S
C720 C706 1.377 . S
C720 C719 1.373 . S
C721 C705 1.377 . S
C721 C719 1.389 . S
C721 C722 1.524 . S
C722 C721 1.524 . S
C722 C723 1.397 . S
C722 C727 1.363 . S
C723 H694 0.950 . S
C723 C722 1.397 . S
C723 C724 1.334 . S
C724 H695 0.950 . S
C724 C723 1.334 . S
C724 C725 1.287 . S
C725 C724 1.287 . S
C725 C726 1.524 . S
C725 H728 0.999 . S
C726 H696 0.950 . S
C726 C725 1.524 . S
C726 C727 1.415 . S
C727 H697 0.950 . S
C727 C722 1.363 . S
C727 C726 1.415 . S
H728 C725 0.999 . S
H729 C710 0.913 . S
H730 C748 0.951 . S
H731 C750 0.951 . S
H732 C752 1.024 . S
H733 C753 0.974 . S
H734 C755 0.950 . S
H735 C758 0.950 . S
H736 C759 0.950 . S
H737 C761 0.950 . S
H738 C762 0.950 . S
H739 C763 0.951 . S
H740 C765 0.951 . S
H741 C767 0.950 . S
H742 C768 0.950 . S
H743 C770 0.950 . S
H744 C773 0.950 . S
H745 C774 0.950 . S
H746 C776 0.950 . S
H747 C777 0.950 . S
C748 H730 0.951 . S
C748 C749 1.366 . S
C748 C750 1.388 . S
C749 C748 1.366 . S
C749 C753 1.338 1_545 S
C750 H731 0.951 . S
C750 C748 1.388 . S
C750 C751 1.366 . S
C751 C750 1.366 . S
C751 C752 1.382 1_545 S
C751 C754 1.499 . S
C752 H732 1.024 . S
C752 C751 1.382 1_565 S
C752 C753 1.361 . S
C753 H733 0.974 . S
C753 C749 1.338 1_565 S
C753 C752 1.361 . S
C754 C751 1.499 . S
C754 C755 1.373 1_545 S
C754 C756 1.389 . S
C755 H734 0.950 . S
C755 C754 1.373 1_565 S
C755 C771 1.377 . S
C756 C754 1.389 . S
C756 C757 1.524 . S
C756 C770 1.377 . S
C757 C756 1.524 . S
C757 C758 1.397 . S
C757 C762 1.363 . S
C758 H735 0.950 . S
C758 C757 1.397 . S
C758 C759 1.334 . S
C759 H736 0.950 . S
C759 C758 1.334 . S
C759 C760 1.287 . S
C760 C759 1.287 . S
C760 C761 1.524 . S
C760 H779 0.913 . S
C761 H737 0.950 . S
C761 C760 1.524 . S
C761 C762 1.415 . S
C762 H738 0.950 . S
C762 C757 1.363 . S
C762 C761 1.415 . S
C763 H739 0.951 . S
C763 C764 1.366 1_565 S
C763 C765 1.388 . S
C764 C763 1.366 1_545 S
C764 C768 1.385 . S
C765 H740 0.951 . S
C765 C763 1.388 . S
C765 C766 1.366 1_565 S
C766 C765 1.366 1_545 S
C766 C767 1.414 . S
C766 C769 1.499 . S
C767 H741 0.950 . S
C767 C766 1.414 . S
C767 C768 1.374 . S
C768 H742 0.950 . S
C768 C764 1.385 . S
C768 C767 1.374 . S
C769 C766 1.499 . S
C769 C770 1.373 . S
C769 C771 1.389 1_545 S
C770 H743 0.950 . S
C770 C756 1.377 . S
C770 C769 1.373 . S
C771 C755 1.377 . S
C771 C769 1.389 1_565 S
C771 C772 1.524 . S
C772 C771 1.524 . S
C772 C773 1.397 . S
C772 C777 1.363 . S
C773 H744 0.950 . S
C773 C772 1.397 . S
C773 C774 1.334 . S
C774 H745 0.950 . S
C774 C773 1.334 . S
C774 C775 1.287 . S
C775 C774 1.287 . S
C775 C776 1.524 . S
C775 H778 0.999 . S
C776 H746 0.950 . S
C776 C775 1.524 . S
C776 C777 1.415 . S
C777 H747 0.950 . S
C777 C772 1.363 . S
C777 C776 1.415 . S
H778 C775 0.999 . S
H779 C760 0.913 . S
H780 C798 0.951 . S
H781 C800 0.951 . S
H782 C802 0.950 1_545 S
H783 C803 0.912 1_545 S
H784 C805 0.950 . S
H785 C808 0.950 . S
H786 C809 0.950 . S
H787 C811 0.950 . S
H788 C812 0.950 . S
H789 C813 0.970 . S
H790 C815 0.947 1_545 S
H791 C817 0.950 . S
H792 C818 0.950 . S
H793 C820 0.950 . S
H794 C823 0.950 . S
H795 C824 0.950 . S
H796 C826 0.950 . S
H797 C827 0.950 . S
C798 H780 0.951 . S
C798 C799 1.366 . S
C798 C800 1.388 . S
C799 C798 1.366 . S
C799 C803 1.385 . S
C800 H781 0.951 . S
C800 C798 1.388 . S
C800 C801 1.366 . S
C801 C800 1.366 . S
C801 C802 1.414 . S
C801 C804 1.499 . S
C802 H782 0.950 1_565 S
C802 C801 1.414 . S
C802 C803 1.374 . S
C803 H783 0.912 1_565 S
C803 C799 1.385 . S
C803 C802 1.374 . S
C804 C801 1.499 . S
C804 C805 1.373 . S
C804 C806 1.389 1_565 S
C805 H784 0.950 . S
C805 C804 1.373 . S
C805 C821 1.377 . S
C806 C804 1.389 1_545 S
C806 C807 1.524 . S
C806 C820 1.377 . S
C807 C806 1.524 . S
C807 C808 1.397 . S
C807 C812 1.363 . S
C808 H785 0.950 . S
C808 C807 1.397 . S
C808 C809 1.334 . S
C809 H786 0.950 . S
C809 C808 1.334 . S
C809 C810 1.287 . S
C810 C809 1.287 . S
C810 C811 1.524 . S
C810 H829 0.913 . S
C811 H787 0.950 . S
C811 C810 1.524 . S
C811 C812 1.415 . S
C812 H788 0.950 . S
C812 C807 1.363 . S
C812 C811 1.415 . S
C813 H789 0.970 . S
C813 C814 1.330 1_545 S
C813 C815 1.410 1_545 S
C814 C813 1.330 1_565 S
C814 C818 1.385 . S
C815 H790 0.947 1_565 S
C815 C813 1.410 1_565 S
C815 C816 1.367 . S
C816 C815 1.367 . S
C816 C817 1.414 . S
C816 C819 1.499 . S
C817 H791 0.950 . S
C817 C816 1.414 . S
C817 C818 1.374 . S
C818 H792 0.950 . S
C818 C814 1.385 . S
C818 C817 1.374 . S
C819 C816 1.499 . S
C819 C820 1.373 1_565 S
C819 C821 1.389 . S
C820 H793 0.950 . S
C820 C806 1.377 . S
C820 C819 1.373 1_545 S
C821 C805 1.377 . S
C821 C819 1.389 . S
C821 C822 1.524 . S
C822 C821 1.524 . S
C822 C823 1.397 . S
C822 C827 1.363 . S
C823 H794 0.950 . S
C823 C822 1.397 . S
C823 C824 1.334 . S
C824 H795 0.950 . S
C824 C823 1.334 . S
C824 C825 1.287 . S
C825 C824 1.287 . S
C825 C826 1.524 . S
C825 H828 0.999 . S
C826 H796 0.950 . S
C826 C825 1.524 . S
C826 C827 1.415 . S
C827 H797 0.950 . S
C827 C822 1.363 . S
C827 C826 1.415 . S
H828 C825 0.999 . S
H829 C810 0.913 . S
H830 C848 0.951 . S
H831 C850 0.951 . S
H832 C852 0.950 . S
H833 C853 0.950 . S
H834 C855 0.950 . S
H835 C858 0.950 . S
H836 C859 0.950 . S
H837 C861 0.950 . S
H838 C862 0.950 . S
H839 C863 0.951 . S
H840 C865 0.951 . S
H841 C867 0.950 . S
H842 C868 0.950 . S
H843 C870 0.950 . S
H844 C873 0.950 . S
H845 C874 0.950 . S
H846 C876 0.950 . S
H847 C877 0.950 . S
C848 H830 0.951 . S
C848 C849 1.366 1_655 S
C848 C850 1.388 . S
C849 C848 1.366 1_455 S
C849 C853 1.385 . S
C850 H831 0.951 . S
C850 C848 1.388 . S
C850 C851 1.366 1_655 S
C851 C850 1.366 1_455 S
C851 C852 1.414 . S
C851 C854 1.499 . S
C852 H832 0.950 . S
C852 C851 1.414 . S
C852 C853 1.374 . S
C853 H833 0.950 . S
C853 C849 1.385 . S
C853 C852 1.374 . S
C854 C851 1.499 . S
C854 C855 1.373 . S
C854 C856 1.389 1_455 S
C855 H834 0.950 . S
C855 C854 1.373 . S
C855 C871 1.377 . S
C856 C854 1.389 1_655 S
C856 C857 1.524 . S
C856 C870 1.377 . S
C857 C856 1.524 . S
C857 C858 1.397 . S
C857 C862 1.363 . S
C858 H835 0.950 . S
C858 C857 1.397 . S
C858 C859 1.334 . S
C859 H836 0.950 . S
C859 C858 1.334 . S
C859 C860 1.287 . S
C860 C859 1.287 . S
C860 C861 1.524 . S
C860 H879 0.913 . S
C861 H837 0.950 . S
C861 C860 1.524 . S
C861 C862 1.415 . S
C862 H838 0.950 . S
C862 C857 1.363 . S
C862 C861 1.415 . S
C863 H839 0.951 . S
C863 C864 1.366 . S
C863 C865 1.388 . S
C864 C863 1.366 . S
C864 C868 1.385 1_455 S
C865 H840 0.951 . S
C865 C863 1.388 . S
C865 C866 1.366 . S
C866 C865 1.366 . S
C866 C867 1.414 1_455 S
C866 C869 1.499 . S
C867 H841 0.950 . S
C867 C866 1.414 1_655 S
C867 C868 1.374 . S
C868 H842 0.950 . S
C868 C864 1.385 1_655 S
C868 C867 1.374 . S
C869 C866 1.499 . S
C869 C870 1.373 1_455 S
C869 C871 1.389 . S
C870 H843 0.950 . S
C870 C856 1.377 . S
C870 C869 1.373 1_655 S
C871 C855 1.377 . S
C871 C869 1.389 . S
C871 C872 1.524 . S
C872 C871 1.524 . S
C872 C873 1.397 . S
C872 C877 1.363 . S
C873 H844 0.950 . S
C873 C872 1.397 . S
C873 C874 1.334 . S
C874 H845 0.950 . S
C874 C873 1.334 . S
C874 C875 1.287 . S
C875 C874 1.287 . S
C875 C876 1.524 . S
C875 H878 0.999 . S
C876 H846 0.950 . S
C876 C875 1.524 . S
C876 C877 1.415 . S
C877 H847 0.950 . S
C877 C872 1.363 . S
C877 C876 1.415 . S
H878 C875 0.999 . S
H879 C860 0.913 . S
H880 C898 0.951 . S
H881 C900 0.951 . S
H882 C902 0.950 . S
H883 C903 0.950 . S
H884 C905 0.950 . S
H885 C908 0.950 . S
H886 C909 0.950 . S
H887 C911 0.950 . S
H888 C912 0.950 . S
H889 C913 0.951 . S
H890 C915 0.951 . S
H891 C917 0.950 . S
H892 C918 0.950 . S
H893 C920 0.950 . S
H894 C923 0.950 . S
H895 C924 0.950 . S
H896 C926 0.950 . S
H897 C927 0.950 . S
C898 H880 0.951 . S
C898 C899 1.366 . S
C898 C900 1.388 . S
C899 C898 1.366 . S
C899 C903 1.385 . S
C900 H881 0.951 . S
C900 C898 1.388 . S
C900 C901 1.366 . S
C901 C900 1.366 . S
C901 C902 1.414 . S
C901 C904 1.499 . S
C902 H882 0.950 . S
C902 C901 1.414 . S
C902 C903 1.374 . S
C903 H883 0.950 . S
C903 C899 1.385 . S
C903 C902 1.374 . S
C904 C901 1.499 . S
C904 C905 1.373 . S
C904 C906 1.389 . S
C905 H884 0.950 . S
C905 C904 1.373 . S
C905 C921 1.377 . S
C906 C904 1.389 . S
C906 C907 1.524 . S
C906 C920 1.377 . S
C907 C906 1.524 . S
C907 C908 1.397 . S
C907 C912 1.363 . S
C908 H885 0.950 . S
C908 C907 1.397 . S
C908 C909 1.334 . S
C909 H886 0.950 . S
C909 C908 1.334 . S
C909 C910 1.287 . S
C910 C909 1.287 . S
C910 C911 1.524 . S
C910 H929 0.913 1_556 S
C911 H887 0.950 . S
C911 C910 1.524 . S
C911 C912 1.415 . S
C912 H888 0.950 . S
C912 C907 1.363 . S
C912 C911 1.415 . S
C913 H889 0.951 . S
C913 C914 1.366 . S
C913 C915 1.388 . S
C914 C913 1.366 . S
C914 C918 1.385 . S
C915 H890 0.951 . S
C915 C913 1.388 . S
C915 C916 1.366 . S
C916 C915 1.366 . S
C916 C917 1.414 . S
C916 C919 1.499 . S
C917 H891 0.950 . S
C917 C916 1.414 . S
C917 C918 1.374 . S
C918 H892 0.950 . S
C918 C914 1.385 . S
C918 C917 1.374 . S
C919 C916 1.499 . S
C919 C920 1.373 . S
C919 C921 1.389 . S
C920 H893 0.950 . S
C920 C906 1.377 . S
C920 C919 1.373 . S
C921 C905 1.377 . S
C921 C919 1.389 . S
C921 C922 1.524 . S
C922 C921 1.524 . S
C922 C923 1.397 . S
C922 C927 1.363 . S
C923 H894 0.950 . S
C923 C922 1.397 . S
C923 C924 1.334 . S
C924 H895 0.950 . S
C924 C923 1.334 . S
C924 C925 1.287 . S
C925 C924 1.287 . S
C925 C926 1.524 . S
C925 H928 0.999 . S
C926 H896 0.950 . S
C926 C925 1.524 . S
C926 C927 1.415 . S
C927 H897 0.950 . S
C927 C922 1.363 . S
C927 C926 1.415 . S
H928 C925 0.999 . S
H929 C910 0.913 1_554 S
H930 C948 0.941 1_655 S
H931 C950 0.954 1_655 S
H932 C952 0.950 . S
H933 C953 0.950 . S
H934 C955 0.950 . S
H935 C958 0.950 . S
H936 C959 0.950 . S
H937 C961 0.950 . S
H938 C962 0.950 . S
H939 C963 0.951 . S
H940 C965 0.951 . S
H941 C967 0.950 . S
H942 C968 0.950 . S
H943 C970 0.950 . S
H944 C973 0.950 . S
H945 C974 0.950 . S
H946 C976 0.950 . S
H947 C977 0.982 . S
C948 H930 0.941 1_455 S
C948 C949 1.360 . S
C948 C950 1.397 . S
C949 C948 1.360 . S
C949 C953 1.385 . S
C950 H931 0.954 1_455 S
C950 C948 1.397 . S
C950 C951 1.371 . S
C951 C950 1.371 . S
C951 C952 1.414 . S
C951 C954 1.499 . S
C952 H932 0.950 . S
C952 C951 1.414 . S
C952 C953 1.374 . S
C953 H933 0.950 . S
C953 C949 1.385 . S
C953 C952 1.374 . S
C954 C951 1.499 . S
C954 C955 1.373 1_455 S
C954 C956 1.389 . S
C955 H934 0.950 . S
C955 C954 1.373 1_655 S
C955 C971 1.377 . S
C956 C954 1.389 . S
C956 C957 1.524 . S
C956 C970 1.377 . S
C957 C956 1.524 . S
C957 C958 1.397 . S
C957 C962 1.363 . S
C958 H935 0.950 . S
C958 C957 1.397 . S
C958 C959 1.334 . S
C959 H936 0.950 . S
C959 C958 1.334 . S
C959 C960 1.287 . S
C960 C959 1.287 . S
C960 C961 1.524 . S
C960 H979 0.913 . S
C961 H937 0.950 . S
C961 C960 1.524 . S
C961 C962 1.415 . S
C962 H938 0.950 . S
C962 C957 1.363 . S
C962 C961 1.415 . S
C963 H939 0.951 . S
C963 C964 1.355 . S
C963 C965 1.388 . S
C964 C963 1.355 . S
C964 C968 1.366 1_455 S
C965 H940 0.951 . S
C965 C963 1.388 . S
C965 C966 1.366 . S
C966 C965 1.366 . S
C966 C967 1.414 1_455 S
C966 C969 1.499 . S
C967 H941 0.950 . S
C967 C966 1.414 1_655 S
C967 C968 1.374 . S
C968 H942 0.950 . S
C968 C964 1.366 1_655 S
C968 C967 1.374 . S
C969 C966 1.499 . S
C969 C970 1.373 . S
C969 C971 1.389 1_455 S
C970 H943 0.950 . S
C970 C956 1.377 . S
C970 C969 1.373 . S
C971 C955 1.377 . S
C971 C969 1.389 1_655 S
C971 C972 1.524 . S
C972 C971 1.524 . S
C972 C973 1.397 . S
C972 C977 1.363 . S
C973 H944 0.950 . S
C973 C972 1.397 . S
C973 C974 1.334 . S
C974 H945 0.950 . S
C974 C973 1.334 . S
C974 C975 1.287 . S
C975 C974 1.287 . S
C975 C976 1.524 . S
C975 H978 0.999 . S
C976 H946 0.950 . S
C976 C975 1.524 . S
C976 C977 1.415 . S
C977 H947 0.982 . S
C977 C972 1.363 . S
C977 C976 1.415 . S
H978 C975 0.999 . S
H979 C960 0.913 . S
H980 C998 0.951 . S
H981 C1000 0.951 . S
H982 C1002 0.950 . S
H983 C1003 0.950 . S
H984 C1005 0.950 . S
H985 C1008 0.950 . S
H986 C1009 0.950 . S
H987 C1011 0.950 . S
H988 C1012 0.950 . S
H989 C1013 0.951 . S
H990 C1015 0.951 . S
H991 C1017 0.950 . S
H992 C1018 0.950 . S
H993 C1020 0.950 . S
H994 C1023 0.950 . S
H995 C1024 0.950 . S
H996 C1026 0.950 . S
H997 C1027 0.950 . S
C998 H980 0.951 . S
C998 C999 1.366 . S
C998 C1000 1.388 . S
C999 C998 1.366 . S
C999 C1003 1.385 . S
C1000 H981 0.951 . S
C1000 C998 1.388 . S
C1000 C1001 1.366 . S
C1001 C1000 1.366 . S
C1001 C1002 1.414 . S
C1001 C1004 1.499 . S
C1002 H982 0.950 . S
C1002 C1001 1.414 . S
C1002 C1003 1.374 . S
C1003 H983 0.950 . S
C1003 C999 1.385 . S
C1003 C1002 1.374 . S
C1004 C1001 1.499 . S
C1004 C1005 1.373 . S
C1004 C1006 1.389 . S
C1005 H984 0.950 . S
C1005 C1004 1.373 . S
C1005 C1021 1.377 . S
C1006 C1004 1.389 . S
C1006 C1007 1.524 . S
C1006 C1020 1.377 . S
C1007 C1006 1.524 . S
C1007 C1008 1.397 . S
C1007 C1012 1.363 . S
C1008 H985 0.950 . S
C1008 C1007 1.397 . S
C1008 C1009 1.334 . S
C1009 H986 0.950 . S
C1009 C1008 1.334 . S
C1009 C1010 1.287 . S
C1010 C1009 1.287 . S
C1010 C1011 1.524 . S
C1010 H1029 0.913 . S
C1011 H987 0.950 . S
C1011 C1010 1.524 . S
C1011 C1012 1.415 . S
C1012 H988 0.950 . S
C1012 C1007 1.363 . S
C1012 C1011 1.415 . S
C1013 H989 0.951 . S
C1013 C1014 1.366 . S
C1013 C1015 1.388 . S
C1014 C1013 1.366 . S
C1014 C1018 1.385 . S
C1015 H990 0.951 . S
C1015 C1013 1.388 . S
C1015 C1016 1.366 . S
C1016 C1015 1.366 . S
C1016 C1017 1.414 . S
C1016 C1019 1.499 . S
C1017 H991 0.950 . S
C1017 C1016 1.414 . S
C1017 C1018 1.374 . S
C1018 H992 0.950 . S
C1018 C1014 1.385 . S
C1018 C1017 1.374 . S
C1019 C1016 1.499 . S
C1019 C1020 1.373 . S
C1019 C1021 1.389 . S
C1020 H993 0.950 . S
C1020 C1006 1.377 . S
C1020 C1019 1.373 . S
C1021 C1005 1.377 . S
C1021 C1019 1.389 . S
C1021 C1022 1.524 . S
C1022 C1021 1.524 . S
C1022 C1023 1.397 . S
C1022 C1027 1.363 . S
C1023 H994 0.950 . S
C1023 C1022 1.397 . S
C1023 C1024 1.334 . S
C1024 H995 0.950 . S
C1024 C1023 1.334 . S
C1024 C1025 1.287 . S
C1025 C1024 1.287 . S
C1025 C1026 1.524 . S
C1025 H1028 0.999 . S
C1026 H996 0.950 . S
C1026 C1025 1.524 . S
C1026 C1027 1.415 . S
C1027 H997 0.950 . S
C1027 C1022 1.363 . S
C1027 C1026 1.415 . S
H1028 C1025 0.999 . S
H1029 C1010 0.913 . S
H1030 C1048 0.951 . S
H1031 C1050 0.951 . S
H1032 C1052 0.950 . S
H1033 C1053 0.950 . S
H1034 C1055 0.950 . S
H1035 C1058 0.950 . S
H1036 C1059 0.950 . S
H1037 C1061 0.950 . S
H1038 C1062 0.950 1_545 S
H1039 C1063 0.951 . S
H1040 C1065 0.951 . S
H1041 C1067 0.950 . S
H1042 C1068 0.950 . S
H1043 C1070 0.950 . S
H1044 C1073 0.950 . S
H1045 C1074 0.950 . S
H1046 C1076 0.950 . S
H1047 C1077 0.950 1_565 S
C1048 H1030 0.951 . S
C1048 C1049 1.366 1_545 S
C1048 C1050 1.388 . S
C1049 C1048 1.366 1_565 S
C1049 C1053 1.385 . S
C1050 H1031 0.951 . S
C1050 C1048 1.388 . S
C1050 C1051 1.366 1_545 S
C1051 C1050 1.366 1_565 S
C1051 C1052 1.414 . S
C1051 C1054 1.499 . S
C1052 H1032 0.950 . S
C1052 C1051 1.414 . S
C1052 C1053 1.374 . S
C1053 H1033 0.950 . S
C1053 C1049 1.385 . S
C1053 C1052 1.374 . S
C1054 C1051 1.499 . S
C1054 C1055 1.373 1_565 S
C1054 C1056 1.389 . S
C1055 H1034 0.950 . S
C1055 C1054 1.373 1_545 S
C1055 C1071 1.377 . S
C1056 C1054 1.389 . S
C1056 C1057 1.524 . S
C1056 C1070 1.377 . S
C1057 C1056 1.524 . S
C1057 C1058 1.397 . S
C1057 C1062 1.363 . S
C1058 H1035 0.950 . S
C1058 C1057 1.397 . S
C1058 C1059 1.334 . S
C1059 H1036 0.950 . S
C1059 C1058 1.334 . S
C1059 C1060 1.287 . S
C1060 C1059 1.287 . S
C1060 C1061 1.524 . S
C1060 H1079 0.913 1_556 S
C1061 H1037 0.950 . S
C1061 C1060 1.524 . S
C1061 C1062 1.415 . S
C1062 H1038 0.950 1_565 S
C1062 C1057 1.363 . S
C1062 C1061 1.415 . S
C1063 H1039 0.951 . S
C1063 C1064 1.396 . S
C1063 C1065 1.388 . S
C1064 C1063 1.396 . S
C1064 C1068 1.370 1_565 S
C1065 H1040 0.951 . S
C1065 C1063 1.388 . S
C1065 C1066 1.372 . S
C1066 C1065 1.372 . S
C1066 C1067 1.402 1_565 S
C1066 C1069 1.500 . S
C1067 H1041 0.950 . S
C1067 C1066 1.402 1_545 S
C1067 C1068 1.374 . S
C1068 H1042 0.950 . S
C1068 C1064 1.370 1_545 S
C1068 C1067 1.374 . S
C1069 C1066 1.500 . S
C1069 C1070 1.375 . S
C1069 C1071 1.392 1_565 S
C1070 H1043 0.950 . S
C1070 C1056 1.377 . S
C1070 C1069 1.375 . S
C1071 C1055 1.377 . S
C1071 C1069 1.392 1_545 S
C1071 C1072 1.524 . S
C1072 C1071 1.524 . S
C1072 C1073 1.397 . S
C1072 C1077 1.363 . S
C1073 H1044 0.950 . S
C1073 C1072 1.397 . S
C1073 C1074 1.334 . S
C1074 H1045 0.950 . S
C1074 C1073 1.334 . S
C1074 C1075 1.287 . S
C1075 C1074 1.287 . S
C1075 C1076 1.524 . S
C1075 H1078 0.999 . S
C1076 H1046 0.950 . S
C1076 C1075 1.524 . S
C1076 C1077 1.415 . S
C1077 H1047 0.950 1_545 S
C1077 C1072 1.363 . S
C1077 C1076 1.415 . S
H1078 C1075 0.999 . S
H1079 C1060 0.913 1_554 S
H1080 C1098 0.951 . S
H1081 C1100 0.951 . S
H1082 C1102 0.950 . S
H1083 C1103 0.950 . S
H1084 C1105 0.950 . S
H1085 C1108 0.950 . S
H1086 C1109 0.950 . S
H1087 C1111 0.950 . S
H1088 C1112 0.950 . S
H1089 C1113 0.951 . S
H1090 C1115 1.001 . S
H1091 C1117 0.950 . S
H1092 C1118 0.950 . S
H1093 C1120 0.950 . S
H1094 C1123 0.950 . S
H1095 C1124 0.950 . S
H1096 C1126 0.950 . S
H1097 C1127 0.950 . S
C1098 H1080 0.951 . S
C1098 C1099 1.366 . S
C1098 C1100 1.388 . S
C1099 C1098 1.366 . S
C1099 C1103 1.385 . S
C1100 H1081 0.951 . S
C1100 C1098 1.388 . S
C1100 C1101 1.366 . S
C1101 C1100 1.366 . S
C1101 C1102 1.414 . S
C1101 C1104 1.499 . S
C1102 H1082 0.950 . S
C1102 C1101 1.414 . S
C1102 C1103 1.374 . S
C1103 H1083 0.950 . S
C1103 C1099 1.385 . S
C1103 C1102 1.374 . S
C1104 C1101 1.499 . S
C1104 C1105 1.373 1_545 S
C1104 C1106 1.389 . S
C1105 H1084 0.950 . S
C1105 C1104 1.373 1_565 S
C1105 C1121 1.377 . S
C1106 C1104 1.389 . S
C1106 C1107 1.524 . S
C1106 C1120 1.377 . S
C1107 C1106 1.524 . S
C1107 C1108 1.397 . S
C1107 C1112 1.363 . S
C1108 H1085 0.950 . S
C1108 C1107 1.397 . S
C1108 C1109 1.334 . S
C1109 H1086 0.950 . S
C1109 C1108 1.334 . S
C1109 C1110 1.287 . S
C1110 C1109 1.287 . S
C1110 C1111 1.524 . S
C1110 H1129 0.913 . S
C1111 H1087 0.950 . S
C1111 C1110 1.524 . S
C1111 C1112 1.415 . S
C1112 H1088 0.950 . S
C1112 C1107 1.363 . S
C1112 C1111 1.415 . S
C1113 H1089 0.951 . S
C1113 C1114 1.366 1_565 S
C1113 C1115 1.363 . S
C1114 C1113 1.366 1_545 S
C1114 C1118 1.385 . S
C1115 H1090 1.001 . S
C1115 C1113 1.363 . S
C1115 C1116 1.346 1_565 S
C1116 C1115 1.346 1_545 S
C1116 C1117 1.414 . S
C1116 C1119 1.499 . S
C1117 H1091 0.950 . S
C1117 C1116 1.414 . S
C1117 C1118 1.374 . S
C1118 H1092 0.950 . S
C1118 C1114 1.385 . S
C1118 C1117 1.374 . S
C1119 C1116 1.499 . S
C1119 C1120 1.373 . S
C1119 C1121 1.389 1_545 S
C1120 H1093 0.950 . S
C1120 C1106 1.377 . S
C1120 C1119 1.373 . S
C1121 C1105 1.377 . S
C1121 C1119 1.389 1_565 S
C1121 C1122 1.524 . S
C1122 C1121 1.524 . S
C1122 C1123 1.397 . S
C1122 C1127 1.363 . S
C1123 H1094 0.950 . S
C1123 C1122 1.397 . S
C1123 C1124 1.334 . S
C1124 H1095 0.950 . S
C1124 C1123 1.334 . S
C1124 C1125 1.287 . S
C1125 C1124 1.287 . S
C1125 C1126 1.524 . S
C1125 H1128 0.999 . S
C1126 H1096 0.950 . S
C1126 C1125 1.524 . S
C1126 C1127 1.415 . S
C1127 H1097 0.950 . S
C1127 C1122 1.363 . S
C1127 C1126 1.415 . S
H1128 C1125 0.999 . S
H1129 C1110 0.913 . S
H1130 C1148 0.951 . S
H1131 C1150 0.951 . S
H1132 C1152 0.950 . S
H1133 C1153 0.950 . S
H1134 C1155 0.950 . S
H1135 C1158 0.885 1_455 S
H1136 C1159 0.950 1_455 S
H1137 C1161 0.950 . S
H1138 C1162 0.950 . S
H1139 C1163 0.951 . S
H1140 C1165 0.951 . S
H1141 C1167 0.950 . S
H1142 C1168 0.950 . S
H1143 C1170 0.950 . S
H1144 C1173 0.950 . S
H1145 C1174 0.950 . S
H1146 C1176 0.950 . S
H1147 C1177 0.950 . S
C1148 H1130 0.951 . S
C1148 C1149 1.366 . S
C1148 C1150 1.388 . S
C1149 C1148 1.366 . S
C1149 C1153 1.385 1_655 S
C1150 H1131 0.951 . S
C1150 C1148 1.388 . S
C1150 C1151 1.366 . S
C1151 C1150 1.366 . S
C1151 C1152 1.414 1_655 S
C1151 C1154 1.499 . S
C1152 H1132 0.950 . S
C1152 C1151 1.414 1_455 S
C1152 C1153 1.374 . S
C1153 H1133 0.950 . S
C1153 C1149 1.385 1_455 S
C1153 C1152 1.374 . S
C1154 C1151 1.499 . S
C1154 C1155 1.373 1_655 S
C1154 C1156 1.389 . S
C1155 H1134 0.950 . S
C1155 C1154 1.373 1_455 S
C1155 C1171 1.377 . S
C1156 C1154 1.389 . S
C1156 C1157 1.524 . S
C1156 C1170 1.377 . S
C1157 C1156 1.524 . S
C1157 C1158 1.417 . S
C1157 C1162 1.363 . S
C1158 H1135 0.885 1_655 S
C1158 C1157 1.417 . S
C1158 C1159 1.382 . S
C1159 H1136 0.950 1_655 S
C1159 C1158 1.382 . S
C1159 C1160 1.287 . S
C1160 C1159 1.287 . S
C1160 C1161 1.524 . S
C1160 H1179 0.913 . S
C1161 H1137 0.950 . S
C1161 C1160 1.524 . S
C1161 C1162 1.415 . S
C1162 H1138 0.950 . S
C1162 C1157 1.363 . S
C1162 C1161 1.415 . S
C1163 H1139 0.951 . S
C1163 C1164 1.323 1_455 S
C1163 C1165 1.388 . S
C1164 C1163 1.323 1_655 S
C1164 C1168 1.462 . S
C1165 H1140 0.951 . S
C1165 C1163 1.388 . S
C1165 C1166 1.366 1_455 S
C1166 C1165 1.366 1_655 S
C1166 C1167 1.414 . S
C1166 C1169 1.499 . S
C1167 H1141 0.950 . S
C1167 C1166 1.414 . S
C1167 C1168 1.374 . S
C1168 H1142 0.950 . S
C1168 C1164 1.462 . S
C1168 C1167 1.374 . S
C1169 C1166 1.499 . S
C1169 C1170 1.373 . S
C1169 C1171 1.389 1_655 S
C1170 H1143 0.950 . S
C1170 C1156 1.377 . S
C1170 C1169 1.373 . S
C1171 C1155 1.377 . S
C1171 C1169 1.389 1_455 S
C1171 C1172 1.524 . S
C1172 C1171 1.524 . S
C1172 C1173 1.397 1_455 S
C1172 C1177 1.363 . S
C1173 H1144 0.950 . S
C1173 C1172 1.397 1_655 S
C1173 C1174 1.334 . S
C1174 H1145 0.950 . S
C1174 C1173 1.334 . S
C1174 C1175 1.287 1_655 S
C1175 C1174 1.287 1_455 S
C1175 C1176 1.524 . S
C1175 H1178 0.999 . S
C1176 H1146 0.950 . S
C1176 C1175 1.524 . S
C1176 C1177 1.415 . S
C1177 H1147 0.950 . S
C1177 C1172 1.363 . S
C1177 C1176 1.415 . S
H1178 C1175 0.999 . S
H1179 C1160 0.913 . S
H1180 C1198 0.951 . S
H1181 C1200 0.951 . S
H1182 C1202 0.950 . S
H1183 C1203 0.950 . S
H1184 C1205 0.950 . S
H1185 C1208 0.950 . S
H1186 C1209 0.950 . S
H1187 C1211 0.950 . S
H1188 C1212 0.950 . S
H1189 C1213 0.951 . S
H1190 C1215 0.951 . S
H1191 C1217 0.950 . S
H1192 C1218 0.950 . S
H1193 C1220 0.950 . S
H1194 C1223 0.950 . S
H1195 C1224 0.950 . S
H1196 C1226 0.950 . S
H1197 C1227 0.950 . S
C1198 H1180 0.951 . S
C1198 C1199 1.366 . S
C1198 C1200 1.388 . S
C1199 C1198 1.366 . S
C1199 C1203 1.385 . S
C1200 H1181 0.951 . S
C1200 C1198 1.388 . S
C1200 C1201 1.366 . S
C1201 C1200 1.366 . S
C1201 C1202 1.414 . S
C1201 C1204 1.499 . S
C1202 H1182 0.950 . S
C1202 C1201 1.414 . S
C1202 C1203 1.374 . S
C1203 H1183 0.950 . S
C1203 C1199 1.385 . S
C1203 C1202 1.374 . S
C1204 C1201 1.499 . S
C1204 C1205 1.373 . S
C1204 C1206 1.389 . S
C1205 H1184 0.950 . S
C1205 C1204 1.373 . S
C1205 C1221 1.377 . S
C1206 C1204 1.389 . S
C1206 C1207 1.524 . S
C1206 C1220 1.377 . S
C1207 C1206 1.524 . S
C1207 C1208 1.397 . S
C1207 C1212 1.363 . S
C1208 H1185 0.950 . S
C1208 C1207 1.397 . S
C1208 C1209 1.334 . S
C1209 H1186 0.950 . S
C1209 C1208 1.334 . S
C1209 C1210 1.287 . S
C1210 C1209 1.287 . S
C1210 C1211 1.524 . S
C1210 H1229 0.913 . S
C1211 H1187 0.950 . S
C1211 C1210 1.524 . S
C1211 C1212 1.415 . S
C1212 H1188 0.950 . S
C1212 C1207 1.363 . S
C1212 C1211 1.415 . S
C1213 H1189 0.951 . S
C1213 C1214 1.366 . S
C1213 C1215 1.388 . S
C1214 C1213 1.366 . S
C1214 C1218 1.385 . S
C1215 H1190 0.951 . S
C1215 C1213 1.388 . S
C1215 C1216 1.366 . S
C1216 C1215 1.366 . S
C1216 C1217 1.414 . S
C1216 C1219 1.499 . S
C1217 H1191 0.950 . S
C1217 C1216 1.414 . S
C1217 C1218 1.374 . S
C1218 H1192 0.950 . S
C1218 C1214 1.385 . S
C1218 C1217 1.374 . S
C1219 C1216 1.499 . S
C1219 C1220 1.373 . S
C1219 C1221 1.389 . S
C1220 H1193 0.950 . S
C1220 C1206 1.377 . S
C1220 C1219 1.373 . S
C1221 C1205 1.377 . S
C1221 C1219 1.389 . S
C1221 C1222 1.524 . S
C1222 C1221 1.524 . S
C1222 C1223 1.397 . S
C1222 C1227 1.363 . S
C1223 H1194 0.950 . S
C1223 C1222 1.397 . S
C1223 C1224 1.334 . S
C1224 H1195 0.950 . S
C1224 C1223 1.334 . S
C1224 C1225 1.287 . S
C1225 C1224 1.287 . S
C1225 C1226 1.524 . S
C1225 H1228 0.999 . S
C1226 H1196 0.950 . S
C1226 C1225 1.524 . S
C1226 C1227 1.415 . S
C1227 H1197 0.950 . S
C1227 C1222 1.363 . S
C1227 C1226 1.415 . S
H1228 C1225 0.999 . S
H1229 C1210 0.913 . S
H1230 C1248 0.951 . S
H1231 C1250 0.951 . S
H1232 C1252 0.950 . S
H1233 C1253 0.950 . S
H1234 C1255 0.950 . S
H1235 C1258 0.950 . S
H1236 C1259 0.950 . S
H1237 C1261 0.950 . S
H1238 C1262 0.950 . S
H1239 C1263 0.951 . S
H1240 C1265 0.951 . S
H1241 C1267 0.950 . S
H1242 C1268 0.950 . S
H1243 C1270 0.950 . S
H1244 C1273 0.950 . S
H1245 C1274 0.950 . S
H1246 C1276 0.950 . S
H1247 C1277 0.950 . S
C1248 H1230 0.951 . S
C1248 C1249 1.366 . S
C1248 C1250 1.388 . S
C1249 C1248 1.366 . S
C1249 C1253 1.385 . S
C1250 H1231 0.951 . S
C1250 C1248 1.388 . S
C1250 C1251 1.366 . S
C1251 C1250 1.366 . S
C1251 C1252 1.414 . S
C1251 C1254 1.499 . S
C1252 H1232 0.950 . S
C1252 C1251 1.414 . S
C1252 C1253 1.374 . S
C1253 H1233 0.950 . S
C1253 C1249 1.385 . S
C1253 C1252 1.374 . S
C1254 C1251 1.499 . S
C1254 C1255 1.373 . S
C1254 C1256 1.389 . S
C1255 H1234 0.950 . S
C1255 C1254 1.373 . S
C1255 C1271 1.377 . S
C1256 C1254 1.389 . S
C1256 C1257 1.524 . S
C1256 C1270 1.377 . S
C1257 C1256 1.524 . S
C1257 C1258 1.397 . S
C1257 C1262 1.363 . S
C1258 H1235 0.950 . S
C1258 C1257 1.397 . S
C1258 C1259 1.334 . S
C1259 H1236 0.950 . S
C1259 C1258 1.334 . S
C1259 C1260 1.287 . S
C1260 C1259 1.287 . S
C1260 C1261 1.524 . S
C1260 H1279 0.913 . S
C1261 H1237 0.950 . S
C1261 C1260 1.524 . S
C1261 C1262 1.415 . S
C1262 H1238 0.950 . S
C1262 C1257 1.363 . S
C1262 C1261 1.415 . S
C1263 H1239 0.951 . S
C1263 C1264 1.366 . S
C1263 C1265 1.388 . S
C1264 C1263 1.366 . S
C1264 C1268 1.385 . S
C1265 H1240 0.951 . S
C1265 C1263 1.388 . S
C1265 C1266 1.366 . S
C1266 C1265 1.366 . S
C1266 C1267 1.414 . S
C1266 C1269 1.499 . S
C1267 H1241 0.950 . S
C1267 C1266 1.414 . S
C1267 C1268 1.374 . S
C1268 H1242 0.950 . S
C1268 C1264 1.385 . S
C1268 C1267 1.374 . S
C1269 C1266 1.499 . S
C1269 C1270 1.373 . S
C1269 C1271 1.389 . S
C1270 H1243 0.950 . S
C1270 C1256 1.377 . S
C1270 C1269 1.373 . S
C1271 C1255 1.377 . S
C1271 C1269 1.389 . S
C1271 C1272 1.524 . S
C1272 C1271 1.524 . S
C1272 C1273 1.397 . S
C1272 C1277 1.363 . S
C1273 H1244 0.950 . S
C1273 C1272 1.397 . S
C1273 C1274 1.334 . S
C1274 H1245 0.950 . S
C1274 C1273 1.334 . S
C1274 C1275 1.287 . S
C1275 C1274 1.287 . S
C1275 C1276 1.524 . S
C1275 H1278 0.999 . S
C1276 H1246 0.950 . S
C1276 C1275 1.524 . S
C1276 C1277 1.415 . S
C1277 H1247 0.950 . S
C1277 C1272 1.363 . S
C1277 C1276 1.415 . S
H1278 C1275 0.999 . S
H1279 C1260 0.913 . S
H1280 C1298 0.951 . S
H1281 C1300 0.951 . S
H1282 C1302 0.950 . S
H1283 C1303 0.950 . S
H1284 C1305 0.950 . S
H1285 C1308 0.950 . S
H1286 C1309 0.950 . S
H1287 C1311 0.950 . S
H1288 C1312 0.950 . S
H1289 C1313 0.951 . S
H1290 C1315 0.951 . S
H1291 C1317 0.950 . S
H1292 C1318 0.950 . S
H1293 C1320 0.950 . S
H1294 C1323 0.950 . S
H1295 C1324 0.950 . S
H1296 C1326 0.950 . S
H1297 C1327 0.950 . S
C1298 H1280 0.951 . S
C1298 C1299 1.366 . S
C1298 C1300 1.388 . S
C1299 C1298 1.366 . S
C1299 C1303 1.385 . S
C1300 H1281 0.951 . S
C1300 C1298 1.388 . S
C1300 C1301 1.366 . S
C1301 C1300 1.366 . S
C1301 C1302 1.414 . S
C1301 C1304 1.499 . S
C1302 H1282 0.950 . S
C1302 C1301 1.414 . S
C1302 C1303 1.374 . S
C1303 H1283 0.950 . S
C1303 C1299 1.385 . S
C1303 C1302 1.374 . S
C1304 C1301 1.499 . S
C1304 C1305 1.373 . S
C1304 C1306 1.389 . S
C1305 H1284 0.950 . S
C1305 C1304 1.373 . S
C1305 C1321 1.377 . S
C1306 C1304 1.389 . S
C1306 C1307 1.524 . S
C1306 C1320 1.377 . S
C1307 C1306 1.524 . S
C1307 C1308 1.397 . S
C1307 C1312 1.363 . S
C1308 H1285 0.950 . S
C1308 C1307 1.397 . S
C1308 C1309 1.334 . S
C1309 H1286 0.950 . S
C1309 C1308 1.334 . S
C1309 C1310 1.287 . S
C1310 C1309 1.287 . S
C1310 C1311 1.524 . S
C1310 H1329 0.913 . S
C1311 H1287 0.950 . S
C1311 C1310 1.524 . S
C1311 C1312 1.415 . S
C1312 H1288 0.950 . S
C1312 C1307 1.363 . S
C1312 C1311 1.415 . S
C1313 H1289 0.951 . S
C1313 C1314 1.366 . S
C1313 C1315 1.388 . S
C1314 C1313 1.366 . S
C1314 C1318 1.385 . S
C1315 H1290 0.951 . S
C1315 C1313 1.388 . S
C1315 C1316 1.366 . S
C1316 C1315 1.366 . S
C1316 C1317 1.414 . S
C1316 C1319 1.499 . S
C1317 H1291 0.950 . S
C1317 C1316 1.414 . S
C1317 C1318 1.374 . S
C1318 H1292 0.950 . S
C1318 C1314 1.385 . S
C1318 C1317 1.374 . S
C1319 C1316 1.499 . S
C1319 C1320 1.373 . S
C1319 C1321 1.389 . S
C1320 H1293 0.950 . S
C1320 C1306 1.377 . S
C1320 C1319 1.373 . S
C1321 C1305 1.377 . S
C1321 C1319 1.389 . S
C1321 C1322 1.524 . S
C1322 C1321 1.524 . S
C1322 C1323 1.397 . S
C1322 C1327 1.363 . S
C1323 H1294 0.950 . S
C1323 C1322 1.397 . S
C1323 C1324 1.334 . S
C1324 H1295 0.950 . S
C1324 C1323 1.334 . S
C1324 C1325 1.287 . S
C1325 C1324 1.287 . S
C1325 C1326 1.524 . S
C1325 H1328 0.999 . S
C1326 H1296 0.950 . S
C1326 C1325 1.524 . S
C1326 C1327 1.415 . S
C1327 H1297 0.950 . S
C1327 C1322 1.363 . S
C1327 C1326 1.415 . S
H1328 C1325 0.999 . S
H1329 C1310 0.913 . S
H1330 C1348 0.951 . S
H1331 C1350 0.951 . S
H1332 C1352 0.950 . S
H1333 C1353 0.950 . S
H1334 C1355 0.950 . S
H1335 C1358 0.950 . S
H1336 C1359 0.950 . S
H1337 C1361 0.950 . S
H1338 C1362 0.950 . S
H1339 C1363 0.951 . S
H1340 C1365 0.951 . S
H1341 C1367 0.950 . S
H1342 C1368 0.950 . S
H1343 C1370 0.950 . S
H1344 C1373 0.950 . S
H1345 C1374 0.950 . S
H1346 C1376 0.950 . S
H1347 C1377 0.950 . S
C1348 H1330 0.951 . S
C1348 C1349 1.366 . S
C1348 C1350 1.388 . S
C1349 C1348 1.366 . S
C1349 C1353 1.385 . S
C1350 H1331 0.951 . S
C1350 C1348 1.388 . S
C1350 C1351 1.366 . S
C1351 C1350 1.366 . S
C1351 C1352 1.414 . S
C1351 C1354 1.499 . S
C1352 H1332 0.950 . S
C1352 C1351 1.414 . S
C1352 C1353 1.374 . S
C1353 H1333 0.950 . S
C1353 C1349 1.385 . S
C1353 C1352 1.374 . S
C1354 C1351 1.499 . S
C1354 C1355 1.373 . S
C1354 C1356 1.389 . S
C1355 H1334 0.950 . S
C1355 C1354 1.373 . S
C1355 C1371 1.377 . S
C1356 C1354 1.389 . S
C1356 C1357 1.524 . S
C1356 C1370 1.377 . S
C1357 C1356 1.524 . S
C1357 C1358 1.397 . S
C1357 C1362 1.363 . S
C1358 H1335 0.950 . S
C1358 C1357 1.397 . S
C1358 C1359 1.334 . S
C1359 H1336 0.950 . S
C1359 C1358 1.334 . S
C1359 C1360 1.287 . S
C1360 C1359 1.287 . S
C1360 C1361 1.524 . S
C1360 H1379 0.913 . S
C1361 H1337 0.950 . S
C1361 C1360 1.524 . S
C1361 C1362 1.415 . S
C1362 H1338 0.950 . S
C1362 C1357 1.363 . S
C1362 C1361 1.415 . S
C1363 H1339 0.951 . S
C1363 C1364 1.366 . S
C1363 C1365 1.388 . S
C1364 C1363 1.366 . S
C1364 C1368 1.385 . S
C1365 H1340 0.951 . S
C1365 C1363 1.388 . S
C1365 C1366 1.366 . S
C1366 C1365 1.366 . S
C1366 C1367 1.414 . S
C1366 C1369 1.499 . S
C1367 H1341 0.950 . S
C1367 C1366 1.414 . S
C1367 C1368 1.374 . S
C1368 H1342 0.950 . S
C1368 C1364 1.385 . S
C1368 C1367 1.374 . S
C1369 C1366 1.499 . S
C1369 C1370 1.373 . S
C1369 C1371 1.389 . S
C1370 H1343 0.950 . S
C1370 C1356 1.377 . S
C1370 C1369 1.373 . S
C1371 C1355 1.377 . S
C1371 C1369 1.389 . S
C1371 C1372 1.524 . S
C1372 C1371 1.524 . S
C1372 C1373 1.397 . S
C1372 C1377 1.363 . S
C1373 H1344 0.950 . S
C1373 C1372 1.397 . S
C1373 C1374 1.334 . S
C1374 H1345 0.950 . S
C1374 C1373 1.334 . S
C1374 C1375 1.287 . S
C1375 C1374 1.287 . S
C1375 C1376 1.524 . S
C1375 H1378 0.999 . S
C1376 H1346 0.950 . S
C1376 C1375 1.524 . S
C1376 C1377 1.415 . S
C1377 H1347 0.950 . S
C1377 C1372 1.363 . S
C1377 C1376 1.415 . S
H1378 C1375 0.999 . S
H1379 C1360 0.913 . S
H1380 C1398 0.951 . S
H1381 C1400 0.951 . S
H1382 C1402 0.950 . S
H1383 C1403 0.950 . S
H1384 C1405 0.950 . S
H1385 C1408 0.950 . S
H1386 C1409 0.950 . S
H1387 C1411 0.950 . S
H1388 C1412 0.950 . S
H1389 C1413 0.951 . S
H1390 C1415 0.951 . S
H1391 C1417 0.950 . S
H1392 C1418 0.950 . S
H1393 C1420 0.950 . S
H1394 C1423 0.950 . S
H1395 C1424 0.950 . S
H1396 C1426 0.950 . S
H1397 C1427 0.950 . S
C1398 H1380 0.951 . S
C1398 C1399 1.366 . S
C1398 C1400 1.388 . S
C1399 C1398 1.366 . S
C1399 C1403 1.385 . S
C1400 H1381 0.951 . S
C1400 C1398 1.388 . S
C1400 C1401 1.366 . S
C1401 C1400 1.366 . S
C1401 C1402 1.414 . S
C1401 C1404 1.499 . S
C1402 H1382 0.950 . S
C1402 C1401 1.414 . S
C1402 C1403 1.374 . S
C1403 H1383 0.950 . S
C1403 C1399 1.385 . S
C1403 C1402 1.374 . S
C1404 C1401 1.499 . S
C1404 C1405 1.373 . S
C1404 C1406 1.389 . S
C1405 H1384 0.950 . S
C1405 C1404 1.373 . S
C1405 C1421 1.377 . S
C1406 C1404 1.389 . S
C1406 C1407 1.524 . S
C1406 C1420 1.377 . S
C1407 C1406 1.524 . S
C1407 C1408 1.397 . S
C1407 C1412 1.363 . S
C1408 H1385 0.950 . S
C1408 C1407 1.397 . S
C1408 C1409 1.334 . S
C1409 H1386 0.950 . S
C1409 C1408 1.334 . S
C1409 C1410 1.287 . S
C1410 C1409 1.287 . S
C1410 C1411 1.524 . S
C1410 H1429 0.913 . S
C1411 H1387 0.950 . S
C1411 C1410 1.524 . S
C1411 C1412 1.415 . S
C1412 H1388 0.950 . S
C1412 C1407 1.363 . S
C1412 C1411 1.415 . S
C1413 H1389 0.951 . S
C1413 C1414 1.366 . S
C1413 C1415 1.388 . S
C1414 C1413 1.366 . S
C1414 C1418 1.385 . S
C1415 H1390 0.951 . S
C1415 C1413 1.388 . S
C1415 C1416 1.366 . S
C1416 C1415 1.366 . S
C1416 C1417 1.414 . S
C1416 C1419 1.499 . S
C1417 H1391 0.950 . S
C1417 C1416 1.414 . S
C1417 C1418 1.374 . S
C1418 H1392 0.950 . S
C1418 C1414 1.385 . S
C1418 C1417 1.374 . S
C1419 C1416 1.499 . S
C1419 C1420 1.373 . S
C1419 C1421 1.389 . S
C1420 H1393 0.950 . S
C1420 C1406 1.377 . S
C1420 C1419 1.373 . S
C1421 C1405 1.377 . S
C1421 C1419 1.389 . S
C1421 C1422 1.524 . S
C1422 C1421 1.524 . S
C1422 C1423 1.397 . S
C1422 C1427 1.363 . S
C1423 H1394 0.950 . S
C1423 C1422 1.397 . S
C1423 C1424 1.334 . S
C1424 H1395 0.950 . S
C1424 C1423 1.334 . S
C1424 C1425 1.287 . S
C1425 C1424 1.287 . S
C1425 C1426 1.524 . S
C1425 H1428 0.999 . S
C1426 H1396 0.950 . S
C1426 C1425 1.524 . S
C1426 C1427 1.415 . S
C1427 H1397 0.950 . S
C1427 C1422 1.363 . S
C1427 C1426 1.415 . S
H1428 C1425 0.999 . S
H1429 C1410 0.913 . S
H1430 C1448 0.951 . S
H1431 C1450 0.951 . S
H1432 C1452 0.950 . S
H1433 C1453 0.950 . S
H1434 C1455 0.950 . S
H1435 C1458 0.950 . S
H1436 C1459 0.950 . S
H1437 C1461 0.950 . S
H1438 C1462 0.950 . S
H1439 C1463 0.951 . S
H1440 C1465 0.951 . S
H1441 C1467 0.950 . S
H1442 C1468 0.950 . S
H1443 C1470 0.950 . S
H1444 C1473 0.950 . S
H1445 C1474 0.950 . S
H1446 C1476 0.950 . S
H1447 C1477 0.950 . S
C1448 H1430 0.951 . S
C1448 C1449 1.366 . S
C1448 C1450 1.388 . S
C1449 C1448 1.366 . S
C1449 C1453 1.385 . S
C1450 H1431 0.951 . S
C1450 C1448 1.388 . S
C1450 C1451 1.366 . S
C1451 C1450 1.366 . S
C1451 C1452 1.414 . S
C1451 C1454 1.499 . S
C1452 H1432 0.950 . S
C1452 C1451 1.414 . S
C1452 C1453 1.374 . S
C1453 H1433 0.950 . S
C1453 C1449 1.385 . S
C1453 C1452 1.374 . S
C1454 C1451 1.499 . S
C1454 C1455 1.373 . S
C1454 C1456 1.389 . S
C1455 H1434 0.950 . S
C1455 C1454 1.373 . S
C1455 C1471 1.377 . S
C1456 C1454 1.389 . S
C1456 C1457 1.524 . S
C1456 C1470 1.377 . S
C1457 C1456 1.524 . S
C1457 C1458 1.397 . S
C1457 C1462 1.363 . S
C1458 H1435 0.950 . S
C1458 C1457 1.397 . S
C1458 C1459 1.334 . S
C1459 H1436 0.950 . S
C1459 C1458 1.334 . S
C1459 C1460 1.287 . S
C1460 C1459 1.287 . S
C1460 C1461 1.524 . S
C1460 H1479 0.913 . S
C1461 H1437 0.950 . S
C1461 C1460 1.524 . S
C1461 C1462 1.415 . S
C1462 H1438 0.950 . S
C1462 C1457 1.363 . S
C1462 C1461 1.415 . S
C1463 H1439 0.951 . S
C1463 C1464 1.366 . S
C1463 C1465 1.388 . S
C1464 C1463 1.366 . S
C1464 C1468 1.385 . S
C1465 H1440 0.951 . S
C1465 C1463 1.388 . S
C1465 C1466 1.366 . S
C1466 C1465 1.366 . S
C1466 C1467 1.414 . S
C1466 C1469 1.499 . S
C1467 H1441 0.950 . S
C1467 C1466 1.414 . S
C1467 C1468 1.374 . S
C1468 H1442 0.950 . S
C1468 C1464 1.385 . S
C1468 C1467 1.374 . S
C1469 C1466 1.499 . S
C1469 C1470 1.373 . S
C1469 C1471 1.389 . S
C1470 H1443 0.950 . S
C1470 C1456 1.377 . S
C1470 C1469 1.373 . S
C1471 C1455 1.377 . S
C1471 C1469 1.389 . S
C1471 C1472 1.524 . S
C1472 C1471 1.524 . S
C1472 C1473 1.397 . S
C1472 C1477 1.363 . S
C1473 H1444 0.950 . S
C1473 C1472 1.397 . S
C1473 C1474 1.334 . S
C1474 H1445 0.950 . S
C1474 C1473 1.334 . S
C1474 C1475 1.287 . S
C1475 C1474 1.287 . S
C1475 C1476 1.524 . S
C1475 H1478 0.999 . S
C1476 H1446 0.950 . S
C1476 C1475 1.524 . S
C1476 C1477 1.415 . S
C1477 H1447 0.950 . S
C1477 C1472 1.363 . S
C1477 C1476 1.415 . S
H1478 C1475 0.999 . S
H1479 C1460 0.913 . S
H1480 C1498 0.951 . S
H1481 C1500 0.951 . S
H1482 C1502 0.950 . S
H1483 C1503 0.950 . S
H1484 C1505 0.950 . S
H1485 C1508 0.950 . S
H1486 C1509 0.950 . S
H1487 C1511 0.950 . S
H1488 C1512 0.950 . S
H1489 C1513 0.951 . S
H1490 C1515 0.951 . S
H1491 C1517 0.950 . S
H1492 C1518 0.950 . S
H1493 C1520 0.950 . S
H1494 C1523 0.950 . S
H1495 C1524 0.950 . S
H1496 C1526 0.950 . S
H1497 C1527 0.950 . S
C1498 H1480 0.951 . S
C1498 C1499 1.366 . S
C1498 C1500 1.388 . S
C1499 C1498 1.366 . S
C1499 C1503 1.385 . S
C1500 H1481 0.951 . S
C1500 C1498 1.388 . S
C1500 C1501 1.366 . S
C1501 C1500 1.366 . S
C1501 C1502 1.414 . S
C1501 C1504 1.499 . S
C1502 H1482 0.950 . S
C1502 C1501 1.414 . S
C1502 C1503 1.374 . S
C1503 H1483 0.950 . S
C1503 C1499 1.385 . S
C1503 C1502 1.374 . S
C1504 C1501 1.499 . S
C1504 C1505 1.373 . S
C1504 C1506 1.389 . S
C1505 H1484 0.950 . S
C1505 C1504 1.373 . S
C1505 C1521 1.377 . S
C1506 C1504 1.389 . S
C1506 C1507 1.524 . S
C1506 C1520 1.377 . S
C1507 C1506 1.524 . S
C1507 C1508 1.397 . S
C1507 C1512 1.363 . S
C1508 H1485 0.950 . S
C1508 C1507 1.397 . S
C1508 C1509 1.334 . S
C1509 H1486 0.950 . S
C1509 C1508 1.334 . S
C1509 C1510 1.287 . S
C1510 C1509 1.287 . S
C1510 C1511 1.524 . S
C1510 H1529 0.913 . S
C1511 H1487 0.950 . S
C1511 C1510 1.524 . S
C1511 C1512 1.415 . S
C1512 H1488 0.950 . S
C1512 C1507 1.363 . S
C1512 C1511 1.415 . S
C1513 H1489 0.951 . S
C1513 C1514 1.366 . S
C1513 C1515 1.388 . S
C1514 C1513 1.366 . S
C1514 C1518 1.385 . S
C1515 H1490 0.951 . S
C1515 C1513 1.388 . S
C1515 C1516 1.366 . S
C1516 C1515 1.366 . S
C1516 C1517 1.414 . S
C1516 C1519 1.499 . S
C1517 H1491 0.950 . S
C1517 C1516 1.414 . S
C1517 C1518 1.374 . S
C1518 H1492 0.950 . S
C1518 C1514 1.385 . S
C1518 C1517 1.374 . S
C1519 C1516 1.499 . S
C1519 C1520 1.373 . S
C1519 C1521 1.389 . S
C1520 H1493 0.950 . S
C1520 C1506 1.377 . S
C1520 C1519 1.373 . S
C1521 C1505 1.377 . S
C1521 C1519 1.389 . S
C1521 C1522 1.524 . S
C1522 C1521 1.524 . S
C1522 C1523 1.397 . S
C1522 C1527 1.363 . S
C1523 H1494 0.950 . S
C1523 C1522 1.397 . S
C1523 C1524 1.334 . S
C1524 H1495 0.950 . S
C1524 C1523 1.334 . S
C1524 C1525 1.287 . S
C1525 C1524 1.287 . S
C1525 C1526 1.524 . S
C1525 H1528 0.999 . S
C1526 H1496 0.950 . S
C1526 C1525 1.524 . S
C1526 C1527 1.415 . S
C1527 H1497 0.950 . S
C1527 C1522 1.363 . S
C1527 C1526 1.415 . S
H1528 C1525 0.999 . S
H1529 C1510 0.913 . S
H1530 C1548 0.951 . S
H1531 C1550 0.951 . S
H1532 C1552 0.950 . S
H1533 C1553 0.950 . S
H1534 C1555 0.950 . S
H1535 C1558 0.950 . S
H1536 C1559 0.950 . S
H1537 C1561 0.950 . S
H1538 C1562 0.950 . S
H1539 C1563 0.951 . S
H1540 C1565 0.951 . S
H1541 C1567 0.950 . S
H1542 C1568 0.950 . S
H1543 C1570 0.950 . S
H1544 C1573 0.950 . S
H1545 C1574 0.950 . S
H1546 C1576 0.950 . S
H1547 C1577 0.950 . S
C1548 H1530 0.951 . S
C1548 C1549 1.366 . S
C1548 C1550 1.388 . S
C1549 C1548 1.366 . S
C1549 C1553 1.385 . S
C1550 H1531 0.951 . S
C1550 C1548 1.388 . S
C1550 C1551 1.366 . S
C1551 C1550 1.366 . S
C1551 C1552 1.414 . S
C1551 C1554 1.499 . S
C1552 H1532 0.950 . S
C1552 C1551 1.414 . S
C1552 C1553 1.374 . S
C1553 H1533 0.950 . S
C1553 C1549 1.385 . S
C1553 C1552 1.374 . S
C1554 C1551 1.499 . S
C1554 C1555 1.373 . S
C1554 C1556 1.389 . S
C1555 H1534 0.950 . S
C1555 C1554 1.373 . S
C1555 C1571 1.377 . S
C1556 C1554 1.389 . S
C1556 C1557 1.524 . S
C1556 C1570 1.377 . S
C1557 C1556 1.524 . S
C1557 C1558 1.397 . S
C1557 C1562 1.363 . S
C1558 H1535 0.950 . S
C1558 C1557 1.397 . S
C1558 C1559 1.334 . S
C1559 H1536 0.950 . S
C1559 C1558 1.334 . S
C1559 C1560 1.287 . S
C1560 C1559 1.287 . S
C1560 C1561 1.524 . S
C1560 H1579 0.913 . S
C1561 H1537 0.950 . S
C1561 C1560 1.524 . S
C1561 C1562 1.415 . S
C1562 H1538 0.950 . S
C1562 C1557 1.363 . S
C1562 C1561 1.415 . S
C1563 H1539 0.951 . S
C1563 C1564 1.366 . S
C1563 C1565 1.388 . S
C1564 C1563 1.366 . S
C1564 C1568 1.385 . S
C1565 H1540 0.951 . S
C1565 C1563 1.388 . S
C1565 C1566 1.366 . S
C1566 C1565 1.366 . S
C1566 C1567 1.414 . S
C1566 C1569 1.499 . S
C1567 H1541 0.950 . S
C1567 C1566 1.414 . S
C1567 C1568 1.374 . S
C1568 H1542 0.950 . S
C1568 C1564 1.385 . S
C1568 C1567 1.374 . S
C1569 C1566 1.499 . S
C1569 C1570 1.373 . S
C1569 C1571 1.389 . S
C1570 H1543 0.950 . S
C1570 C1556 1.377 . S
C1570 C1569 1.373 . S
C1571 C1555 1.377 . S
C1571 C1569 1.389 . S
C1571 C1572 1.524 . S
C1572 C1571 1.524 . S
C1572 C1573 1.397 . S
C1572 C1577 1.363 . S
C1573 H1544 0.950 . S
C1573 C1572 1.397 . S
C1573 C1574 1.334 . S
C1574 H1545 0.950 . S
C1574 C1573 1.334 . S
C1574 C1575 1.287 . S
C1575 C1574 1.287 . S
C1575 C1576 1.524 . S
C1575 H1578 0.999 . S
C1576 H1546 0.950 . S
C1576 C1575 1.524 . S
C1576 C1577 1.415 . S
C1577 H1547 0.950 . S
C1577 C1572 1.363 . S
C1577 C1576 1.415 . S
H1578 C1575 0.999 . S
H1579 C1560 0.913 . S
H1580 C1598 0.951 . S
H1581 C1600 0.951 . S
H1582 C1602 0.950 . S
H1583 C1603 0.950 . S
H1584 C1605 0.950 . S
H1585 C1608 0.950 . S
H1586 C1609 0.950 . S
H1587 C1611 0.950 . S
H1588 C1612 0.950 . S
H1589 C1613 0.951 . S
H1590 C1615 0.951 . S
H1591 C1617 0.950 . S
H1592 C1618 0.950 . S
H1593 C1620 0.950 . S
H1594 C1623 0.950 . S
H1595 C1624 0.950 . S
H1596 C1626 0.950 . S
H1597 C1627 0.950 . S
C1598 H1580 0.951 . S
C1598 C1599 1.366 . S
C1598 C1600 1.388 . S
C1599 C1598 1.366 . S
C1599 C1603 1.385 . S
C1600 H1581 0.951 . S
C1600 C1598 1.388 . S
C1600 C1601 1.366 . S
C1601 C1600 1.366 . S
C1601 C1602 1.414 . S
C1601 C1604 1.499 . S
C1602 H1582 0.950 . S
C1602 C1601 1.414 . S
C1602 C1603 1.374 . S
C1603 H1583 0.950 . S
C1603 C1599 1.385 . S
C1603 C1602 1.374 . S
C1604 C1601 1.499 . S
C1604 C1605 1.373 . S
C1604 C1606 1.389 . S
C1605 H1584 0.950 . S
C1605 C1604 1.373 . S
C1605 C1621 1.377 . S
C1606 C1604 1.389 . S
C1606 C1607 1.524 . S
C1606 C1620 1.377 . S
C1607 C1606 1.524 . S
C1607 C1608 1.397 . S
C1607 C1612 1.363 . S
C1608 H1585 0.950 . S
C1608 C1607 1.397 . S
C1608 C1609 1.334 . S
C1609 H1586 0.950 . S
C1609 C1608 1.334 . S
C1609 C1610 1.287 . S
C1610 C1609 1.287 . S
C1610 C1611 1.524 . S
C1610 H1629 0.913 . S
C1611 H1587 0.950 . S
C1611 C1610 1.524 . S
C1611 C1612 1.415 . S
C1612 H1588 0.950 . S
C1612 C1607 1.363 . S
C1612 C1611 1.415 . S
C1613 H1589 0.951 . S
C1613 C1614 1.366 . S
C1613 C1615 1.388 . S
C1614 C1613 1.366 . S
C1614 C1618 1.385 . S
C1615 H1590 0.951 . S
C1615 C1613 1.388 . S
C1615 C1616 1.366 . S
C1616 C1615 1.366 . S
C1616 C1617 1.414 . S
C1616 C1619 1.499 . S
C1617 H1591 0.950 . S
C1617 C1616 1.414 . S
C1617 C1618 1.374 . S
C1618 H1592 0.950 . S
C1618 C1614 1.385 . S
C1618 C1617 1.374 . S
C1619 C1616 1.499 . S
C1619 C1620 1.373 . S
C1619 C1621 1.389 . S
C1620 H1593 0.950 . S
C1620 C1606 1.377 . S
C1620 C1619 1.373 . S
C1621 C1605 1.377 . S
C1621 C1619 1.389 . S
C1621 C1622 1.524 . S
C1622 C1621 1.524 . S
C1622 C1623 1.397 . S
C1622 C1627 1.363 . S
C1623 H1594 0.950 . S
C1623 C1622 1.397 . S
C1623 C1624 1.334 . S
C1624 H1595 0.950 . S
C1624 C1623 1.334 . S
C1624 C1625 1.287 . S
C1625 C1624 1.287 . S
C1625 C1626 1.524 . S
C1625 H1628 0.999 . S
C1626 H1596 0.950 . S
C1626 C1625 1.524 . S
C1626 C1627 1.415 . S
C1627 H1597 0.950 . S
C1627 C1622 1.363 . S
C1627 C1626 1.415 . S
H1628 C1625 0.999 . S
H1629 C1610 0.913 . S
H1630 C1648 0.951 . S
H1631 C1650 0.951 . S
H1632 C1652 0.950 . S
H1633 C1653 0.950 . S
H1634 C1655 0.950 . S
H1635 C1658 0.950 . S
H1636 C1659 0.950 . S
H1637 C1661 0.950 . S
H1638 C1662 0.950 . S
H1639 C1663 0.951 . S
H1640 C1665 0.951 . S
H1641 C1667 0.950 . S
H1642 C1668 0.950 . S
H1643 C1670 0.950 . S
H1644 C1673 0.950 . S
H1645 C1674 0.950 . S
H1646 C1676 0.950 . S
H1647 C1677 0.950 . S
C1648 H1630 0.951 . S
C1648 C1649 1.366 . S
C1648 C1650 1.388 . S
C1649 C1648 1.366 . S
C1649 C1653 1.385 . S
C1650 H1631 0.951 . S
C1650 C1648 1.388 . S
C1650 C1651 1.366 . S
C1651 C1650 1.366 . S
C1651 C1652 1.414 . S
C1651 C1654 1.499 . S
C1652 H1632 0.950 . S
C1652 C1651 1.414 . S
C1652 C1653 1.374 . S
C1653 H1633 0.950 . S
C1653 C1649 1.385 . S
C1653 C1652 1.374 . S
C1654 C1651 1.499 . S
C1654 C1655 1.373 . S
C1654 C1656 1.389 . S
C1655 H1634 0.950 . S
C1655 C1654 1.373 . S
C1655 C1671 1.377 . S
C1656 C1654 1.389 . S
C1656 C1657 1.524 . S
C1656 C1670 1.377 . S
C1657 C1656 1.524 . S
C1657 C1658 1.397 . S
C1657 C1662 1.363 . S
C1658 H1635 0.950 . S
C1658 C1657 1.397 . S
C1658 C1659 1.334 . S
C1659 H1636 0.950 . S
C1659 C1658 1.334 . S
C1659 C1660 1.287 . S
C1660 C1659 1.287 . S
C1660 C1661 1.524 . S
C1660 H1679 0.913 . S
C1661 H1637 0.950 . S
C1661 C1660 1.524 . S
C1661 C1662 1.415 . S
C1662 H1638 0.950 . S
C1662 C1657 1.363 . S
C1662 C1661 1.415 . S
C1663 H1639 0.951 . S
C1663 C1664 1.366 . S
C1663 C1665 1.388 . S
C1664 C1663 1.366 . S
C1664 C1668 1.385 . S
C1665 H1640 0.951 . S
C1665 C1663 1.388 . S
C1665 C1666 1.366 . S
C1666 C1665 1.366 . S
C1666 C1667 1.414 . S
C1666 C1669 1.499 . S
C1667 H1641 0.950 . S
C1667 C1666 1.414 . S
C1667 C1668 1.374 . S
C1668 H1642 0.950 . S
C1668 C1664 1.385 . S
C1668 C1667 1.374 . S
C1669 C1666 1.499 . S
C1669 C1670 1.373 . S
C1669 C1671 1.389 . S
C1670 H1643 0.950 . S
C1670 C1656 1.377 . S
C1670 C1669 1.373 . S
C1671 C1655 1.377 . S
C1671 C1669 1.389 . S
C1671 C1672 1.524 . S
C1672 C1671 1.524 . S
C1672 C1673 1.397 . S
C1672 C1677 1.363 . S
C1673 H1644 0.950 . S
C1673 C1672 1.397 . S
C1673 C1674 1.334 . S
C1674 H1645 0.950 . S
C1674 C1673 1.334 . S
C1674 C1675 1.287 . S
C1675 C1674 1.287 . S
C1675 C1676 1.524 . S
C1675 H1678 0.999 . S
C1676 H1646 0.950 . S
C1676 C1675 1.524 . S
C1676 C1677 1.415 . S
C1677 H1647 0.950 . S
C1677 C1672 1.363 . S
C1677 C1676 1.415 . S
H1678 C1675 0.999 . S
H1679 C1660 0.913 . S
H1680 C1698 0.951 . S
H1681 C1700 0.951 . S
H1682 C1702 0.950 . S
H1683 C1703 0.950 . S
H1684 C1705 0.950 . S
H1685 C1708 0.950 . S
H1686 C1709 0.950 . S
H1687 C1711 0.950 . S
H1688 C1712 0.950 . S
H1689 C1713 0.951 . S
H1690 C1715 0.951 . S
H1691 C1717 0.950 . S
H1692 C1718 0.950 . S
H1693 C1720 0.950 . S
H1694 C1723 0.950 . S
H1695 C1724 0.950 . S
H1696 C1726 0.950 . S
H1697 C1727 0.950 . S
C1698 H1680 0.951 . S
C1698 C1699 1.366 . S
C1698 C1700 1.388 . S
C1699 C1698 1.366 . S
C1699 C1703 1.385 . S
C1700 H1681 0.951 . S
C1700 C1698 1.388 . S
C1700 C1701 1.366 . S
C1701 C1700 1.366 . S
C1701 C1702 1.414 . S
C1701 C1704 1.499 . S
C1702 H1682 0.950 . S
C1702 C1701 1.414 . S
C1702 C1703 1.374 . S
C1703 H1683 0.950 . S
C1703 C1699 1.385 . S
C1703 C1702 1.374 . S
C1704 C1701 1.499 . S
C1704 C1705 1.373 . S
C1704 C1706 1.389 . S
C1705 H1684 0.950 . S
C1705 C1704 1.373 . S
C1705 C1721 1.377 . S
C1706 C1704 1.389 . S
C1706 C1707 1.524 . S
C1706 C1720 1.377 . S
C1707 C1706 1.524 . S
C1707 C1708 1.397 . S
C1707 C1712 1.363 . S
C1708 H1685 0.950 . S
C1708 C1707 1.397 . S
C1708 C1709 1.334 . S
C1709 H1686 0.950 . S
C1709 C1708 1.334 . S
C1709 C1710 1.287 . S
C1710 C1709 1.287 . S
C1710 C1711 1.524 . S
C1710 H1729 0.913 . S
C1711 H1687 0.950 . S
C1711 C1710 1.524 . S
C1711 C1712 1.415 . S
C1712 H1688 0.950 . S
C1712 C1707 1.363 . S
C1712 C1711 1.415 . S
C1713 H1689 0.951 . S
C1713 C1714 1.366 . S
C1713 C1715 1.388 . S
C1714 C1713 1.366 . S
C1714 C1718 1.385 . S
C1715 H1690 0.951 . S
C1715 C1713 1.388 . S
C1715 C1716 1.366 . S
C1716 C1715 1.366 . S
C1716 C1717 1.414 . S
C1716 C1719 1.499 . S
C1717 H1691 0.950 . S
C1717 C1716 1.414 . S
C1717 C1718 1.374 . S
C1718 H1692 0.950 . S
C1718 C1714 1.385 . S
C1718 C1717 1.374 . S
C1719 C1716 1.499 . S
C1719 C1720 1.373 . S
C1719 C1721 1.389 . S
C1720 H1693 0.950 . S
C1720 C1706 1.377 . S
C1720 C1719 1.373 . S
C1721 C1705 1.377 . S
C1721 C1719 1.389 . S
C1721 C1722 1.524 . S
C1722 C1721 1.524 . S
C1722 C1723 1.397 . S
C1722 C1727 1.363 . S
C1723 H1694 0.950 . S
C1723 C1722 1.397 . S
C1723 C1724 1.334 . S
C1724 H1695 0.950 . S
C1724 C1723 1.334 . S
C1724 C1725 1.287 . S
C1725 C1724 1.287 . S
C1725 C1726 1.524 . S
C1725 H1728 0.999 . S
C1726 H1696 0.950 . S
C1726 C1725 1.524 . S
C1726 C1727 1.415 . S
C1727 H1697 0.950 . S
C1727 C1722 1.363 . S
C1727 C1726 1.415 . S
H1728 C1725 0.999 . S
H1729 C1710 0.913 . S
H1730 C1748 0.951 . S
H1731 C1750 0.951 . S
H1732 C1752 0.950 . S
H1733 C1753 0.950 . S
H1734 C1755 0.950 . S
H1735 C1758 0.950 . S
H1736 C1759 0.950 . S
H1737 C1761 0.950 . S
H1738 C1762 0.950 . S
H1739 C1763 0.951 . S
H1740 C1765 0.951 . S
H1741 C1767 0.950 . S
H1742 C1768 0.950 . S
H1743 C1770 0.950 . S
H1744 C1773 0.950 . S
H1745 C1774 0.950 . S
H1746 C1776 0.950 . S
H1747 C1777 0.950 . S
C1748 H1730 0.951 . S
C1748 C1749 1.366 . S
C1748 C1750 1.388 . S
C1749 C1748 1.366 . S
C1749 C1753 1.385 . S
C1750 H1731 0.951 . S
C1750 C1748 1.388 . S
C1750 C1751 1.366 . S
C1751 C1750 1.366 . S
C1751 C1752 1.414 . S
C1751 C1754 1.499 . S
C1752 H1732 0.950 . S
C1752 C1751 1.414 . S
C1752 C1753 1.374 . S
C1753 H1733 0.950 . S
C1753 C1749 1.385 . S
C1753 C1752 1.374 . S
C1754 C1751 1.499 . S
C1754 C1755 1.373 . S
C1754 C1756 1.389 . S
C1755 H1734 0.950 . S
C1755 C1754 1.373 . S
C1755 C1771 1.377 . S
C1756 C1754 1.389 . S
C1756 C1757 1.524 . S
C1756 C1770 1.377 . S
C1757 C1756 1.524 . S
C1757 C1758 1.397 . S
C1757 C1762 1.363 . S
C1758 H1735 0.950 . S
C1758 C1757 1.397 . S
C1758 C1759 1.334 . S
C1759 H1736 0.950 . S
C1759 C1758 1.334 . S
C1759 C1760 1.287 . S
C1760 C1759 1.287 . S
C1760 C1761 1.524 . S
C1760 H1779 0.913 . S
C1761 H1737 0.950 . S
C1761 C1760 1.524 . S
C1761 C1762 1.415 . S
C1762 H1738 0.950 . S
C1762 C1757 1.363 . S
C1762 C1761 1.415 . S
C1763 H1739 0.951 . S
C1763 C1764 1.366 . S
C1763 C1765 1.388 . S
C1764 C1763 1.366 . S
C1764 C1768 1.385 . S
C1765 H1740 0.951 . S
C1765 C1763 1.388 . S
C1765 C1766 1.366 . S
C1766 C1765 1.366 . S
C1766 C1767 1.414 . S
C1766 C1769 1.499 . S
C1767 H1741 0.950 . S
C1767 C1766 1.414 . S
C1767 C1768 1.374 . S
C1768 H1742 0.950 . S
C1768 C1764 1.385 . S
C1768 C1767 1.374 . S
C1769 C1766 1.499 . S
C1769 C1770 1.373 . S
C1769 C1771 1.389 . S
C1770 H1743 0.950 . S
C1770 C1756 1.377 . S
C1770 C1769 1.373 . S
C1771 C1755 1.377 . S
C1771 C1769 1.389 . S
C1771 C1772 1.524 . S
C1772 C1771 1.524 . S
C1772 C1773 1.397 . S
C1772 C1777 1.363 . S
C1773 H1744 0.950 . S
C1773 C1772 1.397 . S
C1773 C1774 1.334 . S
C1774 H1745 0.950 . S
C1774 C1773 1.334 . S
C1774 C1775 1.287 . S
C1775 C1774 1.287 . S
C1775 C1776 1.524 . S
C1775 H1778 0.999 . S
C1776 H1746 0.950 . S
C1776 C1775 1.524 . S
C1776 C1777 1.415 . S
C1777 H1747 0.950 . S
C1777 C1772 1.363 . S
C1777 C1776 1.415 . S
H1778 C1775 0.999 . S
H1779 C1760 0.913 . S
H1780 C1798 0.951 . S
H1781 C1800 0.951 . S
H1782 C1802 0.950 . S
H1783 C1803 0.950 . S
H1784 C1805 0.950 . S
H1785 C1808 0.950 . S
H1786 C1809 0.950 . S
H1787 C1811 0.950 . S
H1788 C1812 0.950 . S
H1789 C1813 0.951 . S
H1790 C1815 0.951 . S
H1791 C1817 0.950 . S
H1792 C1818 0.950 . S
H1793 C1820 0.950 . S
H1794 C1823 0.950 . S
H1795 C1824 0.950 . S
H1796 C1826 0.950 . S
H1797 C1827 0.950 . S
C1798 H1780 0.951 . S
C1798 C1799 1.366 . S
C1798 C1800 1.388 . S
C1799 C1798 1.366 . S
C1799 C1803 1.385 . S
C1800 H1781 0.951 . S
C1800 C1798 1.388 . S
C1800 C1801 1.366 . S
C1801 C1800 1.366 . S
C1801 C1802 1.414 . S
C1801 C1804 1.499 . S
C1802 H1782 0.950 . S
C1802 C1801 1.414 . S
C1802 C1803 1.374 . S
C1803 H1783 0.950 . S
C1803 C1799 1.385 . S
C1803 C1802 1.374 . S
C1804 C1801 1.499 . S
C1804 C1805 1.373 . S
C1804 C1806 1.389 . S
C1805 H1784 0.950 . S
C1805 C1804 1.373 . S
C1805 C1821 1.377 . S
C1806 C1804 1.389 . S
C1806 C1807 1.524 . S
C1806 C1820 1.377 . S
C1807 C1806 1.524 . S
C1807 C1808 1.397 . S
C1807 C1812 1.363 . S
C1808 H1785 0.950 . S
C1808 C1807 1.397 . S
C1808 C1809 1.334 . S
C1809 H1786 0.950 . S
C1809 C1808 1.334 . S
C1809 C1810 1.287 . S
C1810 C1809 1.287 . S
C1810 C1811 1.524 . S
C1810 H1829 0.913 . S
C1811 H1787 0.950 . S
C1811 C1810 1.524 . S
C1811 C1812 1.415 . S
C1812 H1788 0.950 . S
C1812 C1807 1.363 . S
C1812 C1811 1.415 . S
C1813 H1789 0.951 . S
C1813 C1814 1.366 . S
C1813 C1815 1.388 . S
C1814 C1813 1.366 . S
C1814 C1818 1.385 . S
C1815 H1790 0.951 . S
C1815 C1813 1.388 . S
C1815 C1816 1.366 . S
C1816 C1815 1.366 . S
C1816 C1817 1.414 . S
C1816 C1819 1.499 . S
C1817 H1791 0.950 . S
C1817 C1816 1.414 . S
C1817 C1818 1.374 . S
C1818 H1792 0.950 . S
C1818 C1814 1.385 . S
C1818 C1817 1.374 . S
C1819 C1816 1.499 . S
C1819 C1820 1.373 . S
C1819 C1821 1.389 . S
C1820 H1793 0.950 . S
C1820 C1806 1.377 . S
C1820 C1819 1.373 . S
C1821 C1805 1.377 . S
C1821 C1819 1.389 . S
C1821 C1822 1.524 . S
C1822 C1821 1.524 . S
C1822 C1823 1.397 . S
C1822 C1827 1.363 . S
C1823 H1794 0.950 . S
C1823 C1822 1.397 . S
C1823 C1824 1.334 . S
C1824 H1795 0.950 . S
C1824 C1823 1.334 . S
C1824 C1825 1.287 . S
C1825 C1824 1.287 . S
C1825 C1826 1.524 . S
C1825 H1828 0.999 . S
C1826 H1796 0.950 . S
C1826 C1825 1.524 . S
C1826 C1827 1.415 . S
C1827 H1797 0.950 . S
C1827 C1822 1.363 . S
C1827 C1826 1.415 . S
H1828 C1825 0.999 . S
H1829 C1810 0.913 . S
H1830 C1848 0.951 . S
H1831 C1850 0.951 . S
H1832 C1852 0.950 . S
H1833 C1853 0.950 . S
H1834 C1855 0.950 . S
H1835 C1858 0.950 . S
H1836 C1859 0.950 . S
H1837 C1861 0.950 . S
H1838 C1862 0.950 . S
H1839 C1863 0.951 . S
H1840 C1865 0.951 . S
H1841 C1867 0.950 . S
H1842 C1868 0.950 . S
H1843 C1870 0.950 . S
H1844 C1873 0.950 . S
H1845 C1874 0.950 . S
H1846 C1876 0.950 . S
H1847 C1877 0.950 . S
C1848 H1830 0.951 . S
C1848 C1849 1.366 . S
C1848 C1850 1.388 . S
C1849 C1848 1.366 . S
C1849 C1853 1.385 . S
C1850 H1831 0.951 . S
C1850 C1848 1.388 . S
C1850 C1851 1.366 . S
C1851 C1850 1.366 . S
C1851 C1852 1.414 . S
C1851 C1854 1.499 . S
C1852 H1832 0.950 . S
C1852 C1851 1.414 . S
C1852 C1853 1.374 . S
C1853 H1833 0.950 . S
C1853 C1849 1.385 . S
C1853 C1852 1.374 . S
C1854 C1851 1.499 . S
C1854 C1855 1.373 . S
C1854 C1856 1.389 . S
C1855 H1834 0.950 . S
C1855 C1854 1.373 . S
C1855 C1871 1.377 . S
C1856 C1854 1.389 . S
C1856 C1857 1.524 . S
C1856 C1870 1.377 . S
C1857 C1856 1.524 . S
C1857 C1858 1.397 . S
C1857 C1862 1.363 . S
C1858 H1835 0.950 . S
C1858 C1857 1.397 . S
C1858 C1859 1.334 . S
C1859 H1836 0.950 . S
C1859 C1858 1.334 . S
C1859 C1860 1.287 . S
C1860 C1859 1.287 . S
C1860 C1861 1.524 . S
C1860 H1879 0.913 . S
C1861 H1837 0.950 . S
C1861 C1860 1.524 . S
C1861 C1862 1.415 . S
C1862 H1838 0.950 . S
C1862 C1857 1.363 . S
C1862 C1861 1.415 . S
C1863 H1839 0.951 . S
C1863 C1864 1.366 . S
C1863 C1865 1.388 . S
C1864 C1863 1.366 . S
C1864 C1868 1.385 . S
C1865 H1840 0.951 . S
C1865 C1863 1.388 . S
C1865 C1866 1.366 . S
C1866 C1865 1.366 . S
C1866 C1867 1.414 . S
C1866 C1869 1.499 . S
C1867 H1841 0.950 . S
C1867 C1866 1.414 . S
C1867 C1868 1.374 . S
C1868 H1842 0.950 . S
C1868 C1864 1.385 . S
C1868 C1867 1.374 . S
C1869 C1866 1.499 . S
C1869 C1870 1.373 . S
C1869 C1871 1.389 . S
C1870 H1843 0.950 . S
C1870 C1856 1.377 . S
C1870 C1869 1.373 . S
C1871 C1855 1.377 . S
C1871 C1869 1.389 . S
C1871 C1872 1.524 . S
C1872 C1871 1.524 . S
C1872 C1873 1.397 . S
C1872 C1877 1.363 . S
C1873 H1844 0.950 . S
C1873 C1872 1.397 . S
C1873 C1874 1.334 . S
C1874 H1845 0.950 . S
C1874 C1873 1.334 . S
C1874 C1875 1.287 . S
C1875 C1874 1.287 . S
C1875 C1876 1.524 . S
C1875 H1878 0.999 . S
C1876 H1846 0.950 . S
C1876 C1875 1.524 . S
C1876 C1877 1.415 . S
C1877 H1847 0.950 . S
C1877 C1872 1.363 . S
C1877 C1876 1.415 . S
H1878 C1875 0.999 . S
H1879 C1860 0.913 . S
H1880 C1898 0.951 . S
H1881 C1900 0.951 . S
H1882 C1902 0.950 . S
H1883 C1903 0.950 . S
H1884 C1905 0.950 . S
H1885 C1908 0.950 . S
H1886 C1909 0.950 . S
H1887 C1911 0.950 . S
H1888 C1912 0.950 . S
H1889 C1913 0.951 . S
H1890 C1915 0.951 . S
H1891 C1917 0.950 . S
H1892 C1918 0.950 . S
H1893 C1920 0.950 . S
H1894 C1923 0.950 . S
H1895 C1924 0.950 . S
H1896 C1926 0.950 . S
H1897 C1927 0.950 . S
C1898 H1880 0.951 . S
C1898 C1899 1.366 . S
C1898 C1900 1.388 . S
C1899 C1898 1.366 . S
C1899 C1903 1.385 . S
C1900 H1881 0.951 . S
C1900 C1898 1.388 . S
C1900 C1901 1.366 . S
C1901 C1900 1.366 . S
C1901 C1902 1.414 . S
C1901 C1904 1.499 . S
C1902 H1882 0.950 . S
C1902 C1901 1.414 . S
C1902 C1903 1.374 . S
C1903 H1883 0.950 . S
C1903 C1899 1.385 . S
C1903 C1902 1.374 . S
C1904 C1901 1.499 . S
C1904 C1905 1.373 . S
C1904 C1906 1.389 . S
C1905 H1884 0.950 . S
C1905 C1904 1.373 . S
C1905 C1921 1.377 . S
C1906 C1904 1.389 . S
C1906 C1907 1.524 . S
C1906 C1920 1.377 . S
C1907 C1906 1.524 . S
C1907 C1908 1.397 . S
C1907 C1912 1.363 . S
C1908 H1885 0.950 . S
C1908 C1907 1.397 . S
C1908 C1909 1.334 . S
C1909 H1886 0.950 . S
C1909 C1908 1.334 . S
C1909 C1910 1.287 . S
C1910 C1909 1.287 . S
C1910 C1911 1.524 . S
C1910 H1929 0.913 . S
C1911 H1887 0.950 . S
C1911 C1910 1.524 . S
C1911 C1912 1.415 . S
C1912 H1888 0.950 . S
C1912 C1907 1.363 . S
C1912 C1911 1.415 . S
C1913 H1889 0.951 . S
C1913 C1914 1.366 . S
C1913 C1915 1.388 . S
C1914 C1913 1.366 . S
C1914 C1918 1.385 . S
C1915 H1890 0.951 . S
C1915 C1913 1.388 . S
C1915 C1916 1.366 . S
C1916 C1915 1.366 . S
C1916 C1917 1.414 . S
C1916 C1919 1.499 . S
C1917 H1891 0.950 . S
C1917 C1916 1.414 . S
C1917 C1918 1.374 . S
C1918 H1892 0.950 . S
C1918 C1914 1.385 . S
C1918 C1917 1.374 . S
C1919 C1916 1.499 . S
C1919 C1920 1.373 . S
C1919 C1921 1.389 . S
C1920 H1893 0.950 . S
C1920 C1906 1.377 . S
C1920 C1919 1.373 . S
C1921 C1905 1.377 . S
C1921 C1919 1.389 . S
C1921 C1922 1.524 . S
C1922 C1921 1.524 . S
C1922 C1923 1.397 . S
C1922 C1927 1.363 . S
C1923 H1894 0.950 . S
C1923 C1922 1.397 . S
C1923 C1924 1.334 . S
C1924 H1895 0.950 . S
C1924 C1923 1.334 . S
C1924 C1925 1.287 . S
C1925 C1924 1.287 . S
C1925 C1926 1.524 . S
C1925 H1928 0.999 . S
C1926 H1896 0.950 . S
C1926 C1925 1.524 . S
C1926 C1927 1.415 . S
C1927 H1897 0.950 . S
C1927 C1922 1.363 . S
C1927 C1926 1.415 . S
H1928 C1925 0.999 . S
H1929 C1910 0.913 . S
H1930 C1948 0.951 . S
H1931 C1950 0.951 . S
H1932 C1952 0.950 . S
H1933 C1953 0.950 . S
H1934 C1955 0.950 . S
H1935 C1958 0.950 . S
H1936 C1959 0.950 . S
H1937 C1961 0.950 . S
H1938 C1962 0.950 . S
H1939 C1963 0.951 . S
H1940 C1965 0.951 . S
H1941 C1967 0.950 . S
H1942 C1968 0.950 . S
H1943 C1970 0.950 . S
H1944 C1973 0.950 . S
H1945 C1974 0.950 . S
H1946 C1976 0.950 . S
H1947 C1977 0.950 . S
C1948 H1930 0.951 . S
C1948 C1949 1.366 . S
C1948 C1950 1.388 . S
C1949 C1948 1.366 . S
C1949 C1953 1.385 . S
C1950 H1931 0.951 . S
C1950 C1948 1.388 . S
C1950 C1951 1.366 . S
C1951 C1950 1.366 . S
C1951 C1952 1.414 . S
C1951 C1954 1.499 . S
C1952 H1932 0.950 . S
C1952 C1951 1.414 . S
C1952 C1953 1.374 . S
C1953 H1933 0.950 . S
C1953 C1949 1.385 . S
C1953 C1952 1.374 . S
C1954 C1951 1.499 . S
C1954 C1955 1.373 . S
C1954 C1956 1.389 . S
C1955 H1934 0.950 . S
C1955 C1954 1.373 . S
C1955 C1971 1.377 . S
C1956 C1954 1.389 . S
C1956 C1957 1.524 . S
C1956 C1970 1.377 . S
C1957 C1956 1.524 . S
C1957 C1958 1.397 . S
C1957 C1962 1.363 . S
C1958 H1935 0.950 . S
C1958 C1957 1.397 . S
C1958 C1959 1.334 . S
C1959 H1936 0.950 . S
C1959 C1958 1.334 . S
C1959 C1960 1.287 . S
C1960 C1959 1.287 . S
C1960 C1961 1.524 . S
C1960 H1979 0.913 . S
C1961 H1937 0.950 . S
C1961 C1960 1.524 . S
C1961 C1962 1.415 . S
C1962 H1938 0.950 . S
C1962 C1957 1.363 . S
C1962 C1961 1.415 . S
C1963 H1939 0.951 . S
C1963 C1964 1.366 . S
C1963 C1965 1.388 . S
C1964 C1963 1.366 . S
C1964 C1968 1.385 . S
C1965 H1940 0.951 . S
C1965 C1963 1.388 . S
C1965 C1966 1.366 . S
C1966 C1965 1.366 . S
C1966 C1967 1.414 . S
C1966 C1969 1.499 . S
C1967 H1941 0.950 . S
C1967 C1966 1.414 . S
C1967 C1968 1.374 . S
C1968 H1942 0.950 . S
C1968 C1964 1.385 . S
C1968 C1967 1.374 . S
C1969 C1966 1.499 . S
C1969 C1970 1.373 . S
C1969 C1971 1.389 . S
C1970 H1943 0.950 . S
C1970 C1956 1.377 . S
C1970 C1969 1.373 . S
C1971 C1955 1.377 . S
C1971 C1969 1.389 . S
C1971 C1972 1.524 . S
C1972 C1971 1.524 . S
C1972 C1973 1.397 . S
C1972 C1977 1.363 . S
C1973 H1944 0.950 . S
C1973 C1972 1.397 . S
C1973 C1974 1.334 . S
C1974 H1945 0.950 . S
C1974 C1973 1.334 . S
C1974 C1975 1.287 . S
C1975 C1974 1.287 . S
C1975 C1976 1.524 . S
C1975 H1978 0.999 . S
C1976 H1946 0.950 . S
C1976 C1975 1.524 . S
C1976 C1977 1.415 . S
C1977 H1947 0.950 . S
C1977 C1972 1.363 . S
C1977 C1976 1.415 . S
H1978 C1975 0.999 . S
H1979 C1960 0.913 . S
H1980 C1998 0.951 . S
H1981 C2000 0.951 . S
H1982 C2002 0.950 . S
H1983 C2003 0.950 . S
H1984 C2005 0.950 . S
H1985 C2008 0.950 . S
H1986 C2009 0.950 . S
H1987 C2011 0.950 . S
H1988 C2012 0.950 . S
H1989 C2013 0.951 . S
H1990 C2015 0.951 . S
H1991 C2017 0.950 . S
H1992 C2018 0.950 . S
H1993 C2020 0.950 . S
H1994 C2023 0.950 . S
H1995 C2024 0.950 . S
H1996 C2026 0.950 . S
H1997 C2027 0.950 . S
C1998 H1980 0.951 . S
C1998 C1999 1.366 . S
C1998 C2000 1.388 . S
C1999 C1998 1.366 . S
C1999 C2003 1.385 . S
C2000 H1981 0.951 . S
C2000 C1998 1.388 . S
C2000 C2001 1.366 . S
C2001 C2000 1.366 . S
C2001 C2002 1.414 . S
C2001 C2004 1.499 . S
C2002 H1982 0.950 . S
C2002 C2001 1.414 . S
C2002 C2003 1.374 . S
C2003 H1983 0.950 . S
C2003 C1999 1.385 . S
C2003 C2002 1.374 . S
C2004 C2001 1.499 . S
C2004 C2005 1.373 . S
C2004 C2006 1.389 . S
C2005 H1984 0.950 . S
C2005 C2004 1.373 . S
C2005 C2021 1.377 . S
C2006 C2004 1.389 . S
C2006 C2007 1.524 . S
C2006 C2020 1.377 . S
C2007 C2006 1.524 . S
C2007 C2008 1.397 . S
C2007 C2012 1.363 . S
C2008 H1985 0.950 . S
C2008 C2007 1.397 . S
C2008 C2009 1.334 . S
C2009 H1986 0.950 . S
C2009 C2008 1.334 . S
C2009 C2010 1.287 . S
C2010 C2009 1.287 . S
C2010 C2011 1.524 . S
C2010 H2029 0.913 . S
C2011 H1987 0.950 . S
C2011 C2010 1.524 . S
C2011 C2012 1.415 . S
C2012 H1988 0.950 . S
C2012 C2007 1.363 . S
C2012 C2011 1.415 . S
C2013 H1989 0.951 . S
C2013 C2014 1.366 . S
C2013 C2015 1.388 . S
C2014 C2013 1.366 . S
C2014 C2018 1.385 . S
C2015 H1990 0.951 . S
C2015 C2013 1.388 . S
C2015 C2016 1.366 . S
C2016 C2015 1.366 . S
C2016 C2017 1.414 . S
C2016 C2019 1.499 . S
C2017 H1991 0.950 . S
C2017 C2016 1.414 . S
C2017 C2018 1.374 . S
C2018 H1992 0.950 . S
C2018 C2014 1.385 . S
C2018 C2017 1.374 . S
C2019 C2016 1.499 . S
C2019 C2020 1.373 . S
C2019 C2021 1.389 . S
C2020 H1993 0.950 . S
C2020 C2006 1.377 . S
C2020 C2019 1.373 . S
C2021 C2005 1.377 . S
C2021 C2019 1.389 . S
C2021 C2022 1.524 . S
C2022 C2021 1.524 . S
C2022 C2023 1.397 . S
C2022 C2027 1.363 . S
C2023 H1994 0.950 . S
C2023 C2022 1.397 . S
C2023 C2024 1.334 . S
C2024 H1995 0.950 . S
C2024 C2023 1.334 . S
C2024 C2025 1.287 . S
C2025 C2024 1.287 . S
C2025 C2026 1.524 . S
C2025 H2028 0.999 . S
C2026 H1996 0.950 . S
C2026 C2025 1.524 . S
C2026 C2027 1.415 . S
C2027 H1997 0.950 . S
C2027 C2022 1.363 . S
C2027 C2026 1.415 . S
H2028 C2025 0.999 . S
H2029 C2010 0.913 . S
H2030 C2048 0.951 . S
H2031 C2050 0.951 . S
H2032 C2052 0.950 . S
H2033 C2053 0.950 . S
H2034 C2055 0.950 . S
H2035 C2058 0.950 . S
H2036 C2059 0.950 . S
H2037 C2061 0.950 . S
H2038 C2062 0.950 . S
H2039 C2063 0.951 . S
H2040 C2065 0.951 . S
H2041 C2067 0.950 . S
H2042 C2068 0.950 . S
H2043 C2070 0.950 . S
H2044 C2073 0.950 . S
H2045 C2074 0.950 . S
H2046 C2076 0.950 . S
H2047 C2077 0.950 . S
C2048 H2030 0.951 . S
C2048 C2049 1.366 . S
C2048 C2050 1.388 . S
C2049 C2048 1.366 . S
C2049 C2053 1.385 . S
C2050 H2031 0.951 . S
C2050 C2048 1.388 . S
C2050 C2051 1.366 . S
C2051 C2050 1.366 . S
C2051 C2052 1.414 . S
C2051 C2054 1.499 . S
C2052 H2032 0.950 . S
C2052 C2051 1.414 . S
C2052 C2053 1.374 . S
C2053 H2033 0.950 . S
C2053 C2049 1.385 . S
C2053 C2052 1.374 . S
C2054 C2051 1.499 . S
C2054 C2055 1.373 . S
C2054 C2056 1.389 . S
C2055 H2034 0.950 . S
C2055 C2054 1.373 . S
C2055 C2071 1.377 . S
C2056 C2054 1.389 . S
C2056 C2057 1.524 . S
C2056 C2070 1.377 . S
C2057 C2056 1.524 . S
C2057 C2058 1.397 . S
C2057 C2062 1.363 . S
C2058 H2035 0.950 . S
C2058 C2057 1.397 . S
C2058 C2059 1.334 . S
C2059 H2036 0.950 . S
C2059 C2058 1.334 . S
C2059 C2060 1.287 . S
C2060 C2059 1.287 . S
C2060 C2061 1.524 . S
C2060 H2079 0.913 . S
C2061 H2037 0.950 . S
C2061 C2060 1.524 . S
C2061 C2062 1.415 . S
C2062 H2038 0.950 . S
C2062 C2057 1.363 . S
C2062 C2061 1.415 . S
C2063 H2039 0.951 . S
C2063 C2064 1.366 . S
C2063 C2065 1.388 . S
C2064 C2063 1.366 . S
C2064 C2068 1.385 . S
C2065 H2040 0.951 . S
C2065 C2063 1.388 . S
C2065 C2066 1.366 . S
C2066 C2065 1.366 . S
C2066 C2067 1.414 . S
C2066 C2069 1.499 . S
C2067 H2041 0.950 . S
C2067 C2066 1.414 . S
C2067 C2068 1.374 . S
C2068 H2042 0.950 . S
C2068 C2064 1.385 . S
C2068 C2067 1.374 . S
C2069 C2066 1.499 . S
C2069 C2070 1.373 . S
C2069 C2071 1.389 . S
C2070 H2043 0.950 . S
C2070 C2056 1.377 . S
C2070 C2069 1.373 . S
C2071 C2055 1.377 . S
C2071 C2069 1.389 . S
C2071 C2072 1.524 . S
C2072 C2071 1.524 . S
C2072 C2073 1.397 . S
C2072 C2077 1.363 . S
C2073 H2044 0.950 . S
C2073 C2072 1.397 . S
C2073 C2074 1.334 . S
C2074 H2045 0.950 . S
C2074 C2073 1.334 . S
C2074 C2075 1.287 . S
C2075 C2074 1.287 . S
C2075 C2076 1.524 . S
C2075 H2078 0.999 . S
C2076 H2046 0.950 . S
C2076 C2075 1.524 . S
C2076 C2077 1.415 . S
C2077 H2047 0.950 . S
C2077 C2072 1.363 . S
C2077 C2076 1.415 . S
H2078 C2075 0.999 . S
H2079 C2060 0.913 . S
H2080 C2098 0.951 . S
H2081 C2100 0.951 . S
H2082 C2102 0.950 . S
H2083 C2103 0.950 . S
H2084 C2105 0.950 . S
H2085 C2108 0.950 . S
H2086 C2109 0.950 . S
H2087 C2111 0.950 . S
H2088 C2112 0.950 . S
H2089 C2113 0.951 . S
H2090 C2115 0.951 . S
H2091 C2117 0.950 . S
H2092 C2118 0.950 . S
H2093 C2120 0.950 . S
H2094 C2123 0.950 . S
H2095 C2124 0.950 . S
H2096 C2126 0.950 . S
H2097 C2127 0.950 . S
C2098 H2080 0.951 . S
C2098 C2099 1.366 . S
C2098 C2100 1.388 . S
C2099 C2098 1.366 . S
C2099 C2103 1.385 . S
C2100 H2081 0.951 . S
C2100 C2098 1.388 . S
C2100 C2101 1.366 . S
C2101 C2100 1.366 . S
C2101 C2102 1.414 . S
C2101 C2104 1.499 . S
C2102 H2082 0.950 . S
C2102 C2101 1.414 . S
C2102 C2103 1.374 . S
C2103 H2083 0.950 . S
C2103 C2099 1.385 . S
C2103 C2102 1.374 . S
C2104 C2101 1.499 . S
C2104 C2105 1.373 . S
C2104 C2106 1.389 . S
C2105 H2084 0.950 . S
C2105 C2104 1.373 . S
C2105 C2121 1.377 . S
C2106 C2104 1.389 . S
C2106 C2107 1.524 . S
C2106 C2120 1.377 . S
C2107 C2106 1.524 . S
C2107 C2108 1.397 . S
C2107 C2112 1.363 . S
C2108 H2085 0.950 . S
C2108 C2107 1.397 . S
C2108 C2109 1.334 . S
C2109 H2086 0.950 . S
C2109 C2108 1.334 . S
C2109 C2110 1.287 . S
C2110 C2109 1.287 . S
C2110 C2111 1.524 . S
C2110 H2129 0.913 . S
C2111 H2087 0.950 . S
C2111 C2110 1.524 . S
C2111 C2112 1.415 . S
C2112 H2088 0.950 . S
C2112 C2107 1.363 . S
C2112 C2111 1.415 . S
C2113 H2089 0.951 . S
C2113 C2114 1.366 . S
C2113 C2115 1.388 . S
C2114 C2113 1.366 . S
C2114 C2118 1.385 . S
C2115 H2090 0.951 . S
C2115 C2113 1.388 . S
C2115 C2116 1.366 . S
C2116 C2115 1.366 . S
C2116 C2117 1.414 . S
C2116 C2119 1.499 . S
C2117 H2091 0.950 . S
C2117 C2116 1.414 . S
C2117 C2118 1.374 . S
C2118 H2092 0.950 . S
C2118 C2114 1.385 . S
C2118 C2117 1.374 . S
C2119 C2116 1.499 . S
C2119 C2120 1.373 . S
C2119 C2121 1.389 . S
C2120 H2093 0.950 . S
C2120 C2106 1.377 . S
C2120 C2119 1.373 . S
C2121 C2105 1.377 . S
C2121 C2119 1.389 . S
C2121 C2122 1.524 . S
C2122 C2121 1.524 . S
C2122 C2123 1.397 . S
C2122 C2127 1.363 . S
C2123 H2094 0.950 . S
C2123 C2122 1.397 . S
C2123 C2124 1.334 . S
C2124 H2095 0.950 . S
C2124 C2123 1.334 . S
C2124 C2125 1.287 . S
C2125 C2124 1.287 . S
C2125 C2126 1.524 . S
C2125 H2128 0.999 . S
C2126 H2096 0.950 . S
C2126 C2125 1.524 . S
C2126 C2127 1.415 . S
C2127 H2097 0.950 . S
C2127 C2122 1.363 . S
C2127 C2126 1.415 . S
H2128 C2125 0.999 . S
H2129 C2110 0.913 . S
H2130 C2148 0.951 . S
H2131 C2150 0.951 . S
H2132 C2152 0.950 . S
H2133 C2153 0.950 . S
H2134 C2155 0.950 . S
H2135 C2158 0.950 . S
H2136 C2159 0.950 . S
H2137 C2161 0.950 . S
H2138 C2162 0.950 . S
H2139 C2163 0.951 . S
H2140 C2165 0.951 . S
H2141 C2167 0.950 . S
H2142 C2168 0.950 . S
H2143 C2170 0.950 . S
H2144 C2173 0.950 . S
H2145 C2174 0.950 . S
H2146 C2176 0.950 . S
H2147 C2177 0.950 . S
C2148 H2130 0.951 . S
C2148 C2149 1.366 . S
C2148 C2150 1.388 . S
C2149 C2148 1.366 . S
C2149 C2153 1.385 . S
C2150 H2131 0.951 . S
C2150 C2148 1.388 . S
C2150 C2151 1.366 . S
C2151 C2150 1.366 . S
C2151 C2152 1.414 . S
C2151 C2154 1.499 . S
C2152 H2132 0.950 . S
C2152 C2151 1.414 . S
C2152 C2153 1.374 . S
C2153 H2133 0.950 . S
C2153 C2149 1.385 . S
C2153 C2152 1.374 . S
C2154 C2151 1.499 . S
C2154 C2155 1.373 . S
C2154 C2156 1.389 . S
C2155 H2134 0.950 . S
C2155 C2154 1.373 . S
C2155 C2171 1.377 . S
C2156 C2154 1.389 . S
C2156 C2157 1.524 . S
C2156 C2170 1.377 . S
C2157 C2156 1.524 . S
C2157 C2158 1.397 . S
C2157 C2162 1.363 . S
C2158 H2135 0.950 . S
C2158 C2157 1.397 . S
C2158 C2159 1.334 . S
C2159 H2136 0.950 . S
C2159 C2158 1.334 . S
C2159 C2160 1.287 . S
C2160 C2159 1.287 . S
C2160 C2161 1.524 . S
C2160 H2179 0.913 . S
C2161 H2137 0.950 . S
C2161 C2160 1.524 . S
C2161 C2162 1.415 . S
C2162 H2138 0.950 . S
C2162 C2157 1.363 . S
C2162 C2161 1.415 . S
C2163 H2139 0.951 . S
C2163 C2164 1.366 . S
C2163 C2165 1.388 . S
C2164 C2163 1.366 . S
C2164 C2168 1.385 . S
C2165 H2140 0.951 . S
C2165 C2163 1.388 . S
C2165 C2166 1.366 . S
C2166 C2165 1.366 . S
C2166 C2167 1.414 . S
C2166 C2169 1.499 . S
C2167 H2141 0.950 . S
C2167 C2166 1.414 . S
C2167 C2168 1.374 . S
C2168 H2142 0.950 . S
C2168 C2164 1.385 . S
C2168 C2167 1.374 . S
C2169 C2166 1.499 . S
C2169 C2170 1.373 . S
C2169 C2171 1.389 . S
C2170 H2143 0.950 . S
C2170 C2156 1.377 . S
C2170 C2169 1.373 . S
C2171 C2155 1.377 . S
C2171 C2169 1.389 . S
C2171 C2172 1.524 . S
C2172 C2171 1.524 . S
C2172 C2173 1.397 . S
C2172 C2177 1.363 . S
C2173 H2144 0.950 . S
C2173 C2172 1.397 . S
C2173 C2174 1.334 . S
C2174 H2145 0.950 . S
C2174 C2173 1.334 . S
C2174 C2175 1.287 . S
C2175 C2174 1.287 . S
C2175 C2176 1.524 . S
C2175 H2178 0.999 . S
C2176 H2146 0.950 . S
C2176 C2175 1.524 . S
C2176 C2177 1.415 . S
C2177 H2147 0.950 . S
C2177 C2172 1.363 . S
C2177 C2176 1.415 . S
H2178 C2175 0.999 . S
H2179 C2160 0.913 . S
H2180 C2198 0.951 . S
H2181 C2200 0.951 . S
H2182 C2202 0.950 . S
H2183 C2203 0.950 . S
H2184 C2205 0.950 . S
H2185 C2208 0.950 . S
H2186 C2209 0.950 . S
H2187 C2211 0.950 . S
H2188 C2212 0.950 . S
H2189 C2213 0.951 . S
H2190 C2215 0.951 . S
H2191 C2217 0.950 . S
H2192 C2218 0.950 . S
H2193 C2220 0.950 . S
H2194 C2223 0.950 . S
H2195 C2224 0.950 . S
H2196 C2226 0.950 . S
H2197 C2227 0.950 . S
C2198 H2180 0.951 . S
C2198 C2199 1.366 . S
C2198 C2200 1.388 . S
C2199 C2198 1.366 . S
C2199 C2203 1.385 . S
C2200 H2181 0.951 . S
C2200 C2198 1.388 . S
C2200 C2201 1.366 . S
C2201 C2200 1.366 . S
C2201 C2202 1.414 . S
C2201 C2204 1.499 . S
C2202 H2182 0.950 . S
C2202 C2201 1.414 . S
C2202 C2203 1.374 . S
C2203 H2183 0.950 . S
C2203 C2199 1.385 . S
C2203 C2202 1.374 . S
C2204 C2201 1.499 . S
C2204 C2205 1.373 . S
C2204 C2206 1.389 . S
C2205 H2184 0.950 . S
C2205 C2204 1.373 . S
C2205 C2221 1.377 . S
C2206 C2204 1.389 . S
C2206 C2207 1.524 . S
C2206 C2220 1.377 . S
C2207 C2206 1.524 . S
C2207 C2208 1.397 . S
C2207 C2212 1.363 . S
C2208 H2185 0.950 . S
C2208 C2207 1.397 . S
C2208 C2209 1.334 . S
C2209 H2186 0.950 . S
C2209 C2208 1.334 . S
C2209 C2210 1.287 . S
C2210 C2209 1.287 . S
C2210 C2211 1.524 . S
C2210 H2229 0.913 . S
C2211 H2187 0.950 . S
C2211 C2210 1.524 . S
C2211 C2212 1.415 . S
C2212 H2188 0.950 . S
C2212 C2207 1.363 . S
C2212 C2211 1.415 . S
C2213 H2189 0.951 . S
C2213 C2214 1.366 . S
C2213 C2215 1.388 . S
C2214 C2213 1.366 . S
C2214 C2218 1.385 . S
C2215 H2190 0.951 . S
C2215 C2213 1.388 . S
C2215 C2216 1.366 . S
C2216 C2215 1.366 . S
C2216 C2217 1.414 . S
C2216 C2219 1.499 . S
C2217 H2191 0.950 . S
C2217 C2216 1.414 . S
C2217 C2218 1.374 . S
C2218 H2192 0.950 . S
C2218 C2214 1.385 . S
C2218 C2217 1.374 . S
C2219 C2216 1.499 . S
C2219 C2220 1.373 . S
C2219 C2221 1.389 . S
C2220 H2193 0.950 . S
C2220 C2206 1.377 . S
C2220 C2219 1.373 . S
C2221 C2205 1.377 . S
C2221 C2219 1.389 . S
C2221 C2222 1.524 . S
C2222 C2221 1.524 . S
C2222 C2223 1.397 . S
C2222 C2227 1.363 . S
C2223 H2194 0.950 . S
C2223 C2222 1.397 . S
C2223 C2224 1.334 . S
C2224 H2195 0.950 . S
C2224 C2223 1.334 . S
C2224 C2225 1.287 . S
C2225 C2224 1.287 . S
C2225 C2226 1.524 . S
C2225 H2228 0.999 . S
C2226 H2196 0.950 . S
C2226 C2225 1.524 . S
C2226 C2227 1.415 . S
C2227 H2197 0.950 . S
C2227 C2222 1.363 . S
C2227 C2226 1.415 . S
H2228 C2225 0.999 . S
H2229 C2210 0.913 . S
H2230 C2248 0.951 . S
H2231 C2250 0.951 . S
H2232 C2252 0.950 . S
H2233 C2253 0.950 . S
H2234 C2255 0.950 . S
H2235 C2258 0.950 . S
H2236 C2259 0.950 . S
H2237 C2261 0.950 . S
H2238 C2262 0.950 . S
H2239 C2263 0.951 . S
H2240 C2265 0.951 . S
H2241 C2267 0.950 . S
H2242 C2268 0.950 . S
H2243 C2270 0.950 . S
H2244 C2273 0.950 . S
H2245 C2274 0.950 . S
H2246 C2276 0.950 . S
H2247 C2277 0.950 . S
C2248 H2230 0.951 . S
C2248 C2249 1.366 . S
C2248 C2250 1.388 . S
C2249 C2248 1.366 . S
C2249 C2253 1.385 . S
C2250 H2231 0.951 . S
C2250 C2248 1.388 . S
C2250 C2251 1.366 . S
C2251 C2250 1.366 . S
C2251 C2252 1.414 . S
C2251 C2254 1.499 . S
C2252 H2232 0.950 . S
C2252 C2251 1.414 . S
C2252 C2253 1.374 . S
C2253 H2233 0.950 . S
C2253 C2249 1.385 . S
C2253 C2252 1.374 . S
C2254 C2251 1.499 . S
C2254 C2255 1.373 . S
C2254 C2256 1.389 . S
C2255 H2234 0.950 . S
C2255 C2254 1.373 . S
C2255 C2271 1.377 . S
C2256 C2254 1.389 . S
C2256 C2257 1.524 . S
C2256 C2270 1.377 . S
C2257 C2256 1.524 . S
C2257 C2258 1.397 . S
C2257 C2262 1.363 . S
C2258 H2235 0.950 . S
C2258 C2257 1.397 . S
C2258 C2259 1.334 . S
C2259 H2236 0.950 . S
C2259 C2258 1.334 . S
C2259 C2260 1.287 . S
C2260 C2259 1.287 . S
C2260 C2261 1.524 . S
C2260 H2279 0.913 . S
C2261 H2237 0.950 . S
C2261 C2260 1.524 . S
C2261 C2262 1.415 . S
C2262 H2238 0.950 . S
C2262 C2257 1.363 . S
C2262 C2261 1.415 . S
C2263 H2239 0.951 . S
C2263 C2264 1.366 . S
C2263 C2265 1.388 . S
C2264 C2263 1.366 . S
C2264 C2268 1.385 . S
C2265 H2240 0.951 . S
C2265 C2263 1.388 . S
C2265 C2266 1.366 . S
C2266 C2265 1.366 . S
C2266 C2267 1.414 . S
C2266 C2269 1.499 . S
C2267 H2241 0.950 . S
C2267 C2266 1.414 . S
C2267 C2268 1.374 . S
C2268 H2242 0.950 . S
C2268 C2264 1.385 . S
C2268 C2267 1.374 . S
C2269 C2266 1.499 . S
C2269 C2270 1.373 . S
C2269 C2271 1.389 . S
C2270 H2243 0.950 . S
C2270 C2256 1.377 . S
C2270 C2269 1.373 . S
C2271 C2255 1.377 . S
C2271 C2269 1.389 . S
C2271 C2272 1.524 . S
C2272 C2271 1.524 . S
C2272 C2273 1.397 . S
C2272 C2277 1.363 . S
C2273 H2244 0.950 . S
C2273 C2272 1.397 . S
C2273 C2274 1.334 . S
C2274 H2245 0.950 . S
C2274 C2273 1.334 . S
C2274 C2275 1.287 . S
C2275 C2274 1.287 . S
C2275 C2276 1.524 . S
C2275 H2278 0.999 . S
C2276 H2246 0.950 . S
C2276 C2275 1.524 . S
C2276 C2277 1.415 . S
C2277 H2247 0.950 . S
C2277 C2272 1.363 . S
C2277 C2276 1.415 . S
H2278 C2275 0.999 . S
H2279 C2260 0.913 . S
H2280 C2298 0.951 . S
H2281 C2300 0.951 . S
H2282 C2302 0.950 . S
H2283 C2303 0.950 . S
H2284 C2305 0.950 . S
H2285 C2308 0.950 . S
H2286 C2309 0.950 . S
H2287 C2311 0.950 . S
H2288 C2312 0.950 . S
H2289 C2313 0.951 . S
H2290 C2315 0.951 . S
H2291 C2317 0.950 . S
H2292 C2318 0.950 . S
H2293 C2320 0.950 . S
H2294 C2323 0.950 . S
H2295 C2324 0.950 . S
H2296 C2326 0.950 . S
H2297 C2327 0.950 . S
C2298 H2280 0.951 . S
C2298 C2299 1.366 . S
C2298 C2300 1.388 . S
C2299 C2298 1.366 . S
C2299 C2303 1.385 . S
C2300 H2281 0.951 . S
C2300 C2298 1.388 . S
C2300 C2301 1.366 . S
C2301 C2300 1.366 . S
C2301 C2302 1.414 . S
C2301 C2304 1.499 . S
C2302 H2282 0.950 . S
C2302 C2301 1.414 . S
C2302 C2303 1.374 . S
C2303 H2283 0.950 . S
C2303 C2299 1.385 . S
C2303 C2302 1.374 . S
C2304 C2301 1.499 . S
C2304 C2305 1.373 . S
C2304 C2306 1.389 . S
C2305 H2284 0.950 . S
C2305 C2304 1.373 . S
C2305 C2321 1.377 . S
C2306 C2304 1.389 . S
C2306 C2307 1.524 . S
C2306 C2320 1.377 . S
C2307 C2306 1.524 . S
C2307 C2308 1.397 . S
C2307 C2312 1.363 . S
C2308 H2285 0.950 . S
C2308 C2307 1.397 . S
C2308 C2309 1.334 . S
C2309 H2286 0.950 . S
C2309 C2308 1.334 . S
C2309 C2310 1.287 . S
C2310 C2309 1.287 . S
C2310 C2311 1.524 . S
C2310 H2329 0.913 . S
C2311 H2287 0.950 . S
C2311 C2310 1.524 . S
C2311 C2312 1.415 . S
C2312 H2288 0.950 . S
C2312 C2307 1.363 . S
C2312 C2311 1.415 . S
C2313 H2289 0.951 . S
C2313 C2314 1.366 . S
C2313 C2315 1.388 . S
C2314 C2313 1.366 . S
C2314 C2318 1.385 . S
C2315 H2290 0.951 . S
C2315 C2313 1.388 . S
C2315 C2316 1.366 . S
C2316 C2315 1.366 . S
C2316 C2317 1.414 . S
C2316 C2319 1.499 . S
C2317 H2291 0.950 . S
C2317 C2316 1.414 . S
C2317 C2318 1.374 . S
C2318 H2292 0.950 . S
C2318 C2314 1.385 . S
C2318 C2317 1.374 . S
C2319 C2316 1.499 . S
C2319 C2320 1.373 . S
C2319 C2321 1.389 . S
C2320 H2293 0.950 . S
C2320 C2306 1.377 . S
C2320 C2319 1.373 . S
C2321 C2305 1.377 . S
C2321 C2319 1.389 . S
C2321 C2322 1.524 . S
C2322 C2321 1.524 . S
C2322 C2323 1.397 . S
C2322 C2327 1.363 . S
C2323 H2294 0.950 . S
C2323 C2322 1.397 . S
C2323 C2324 1.334 . S
C2324 H2295 0.950 . S
C2324 C2323 1.334 . S
C2324 C2325 1.287 . S
C2325 C2324 1.287 . S
C2325 C2326 1.524 . S
C2325 H2328 0.999 . S
C2326 H2296 0.950 . S
C2326 C2325 1.524 . S
C2326 C2327 1.415 . S
C2327 H2297 0.950 . S
C2327 C2322 1.363 . S
C2327 C2326 1.415 . S
H2328 C2325 0.999 . S
H2329 C2310 0.913 . S
H2330 C2348 0.951 . S
H2331 C2350 0.951 . S
H2332 C2352 0.950 . S
H2333 C2353 0.950 . S
H2334 C2355 0.950 . S
H2335 C2358 0.950 . S
H2336 C2359 0.950 . S
H2337 C2361 0.950 . S
H2338 C2362 0.950 . S
H2339 C2363 0.951 . S
H2340 C2365 0.951 . S
H2341 C2367 0.950 . S
H2342 C2368 0.950 . S
H2343 C2370 0.950 . S
H2344 C2373 0.950 . S
H2345 C2374 0.950 . S
H2346 C2376 0.950 . S
H2347 C2377 0.950 . S
C2348 H2330 0.951 . S
C2348 C2349 1.366 . S
C2348 C2350 1.388 . S
C2349 C2348 1.366 . S
C2349 C2353 1.385 . S
C2350 H2331 0.951 . S
C2350 C2348 1.388 . S
C2350 C2351 1.366 . S
C2351 C2350 1.366 . S
C2351 C2352 1.414 . S
C2351 C2354 1.499 . S
C2352 H2332 0.950 . S
C2352 C2351 1.414 . S
C2352 C2353 1.374 . S
C2353 H2333 0.950 . S
C2353 C2349 1.385 . S
C2353 C2352 1.374 . S
C2354 C2351 1.499 . S
C2354 C2355 1.373 . S
C2354 C2356 1.389 . S
C2355 H2334 0.950 . S
C2355 C2354 1.373 . S
C2355 C2371 1.377 . S
C2356 C2354 1.389 . S
C2356 C2357 1.524 . S
C2356 C2370 1.377 . S
C2357 C2356 1.524 . S
C2357 C2358 1.397 . S
C2357 C2362 1.363 . S
C2358 H2335 0.950 . S
C2358 C2357 1.397 . S
C2358 C2359 1.334 . S
C2359 H2336 0.950 . S
C2359 C2358 1.334 . S
C2359 C2360 1.287 . S
C2360 C2359 1.287 . S
C2360 C2361 1.524 . S
C2360 H2379 0.913 . S
C2361 H2337 0.950 . S
C2361 C2360 1.524 . S
C2361 C2362 1.415 . S
C2362 H2338 0.950 . S
C2362 C2357 1.363 . S
C2362 C2361 1.415 . S
C2363 H2339 0.951 . S
C2363 C2364 1.366 . S
C2363 C2365 1.388 . S
C2364 C2363 1.366 . S
C2364 C2368 1.385 . S
C2365 H2340 0.951 . S
C2365 C2363 1.388 . S
C2365 C2366 1.366 . S
C2366 C2365 1.366 . S
C2366 C2367 1.414 . S
C2366 C2369 1.499 . S
C2367 H2341 0.950 . S
C2367 C2366 1.414 . S
C2367 C2368 1.374 . S
C2368 H2342 0.950 . S
C2368 C2364 1.385 . S
C2368 C2367 1.374 . S
C2369 C2366 1.499 . S
C2369 C2370 1.373 . S
C2369 C2371 1.389 . S
C2370 H2343 0.950 . S
C2370 C2356 1.377 . S
C2370 C2369 1.373 . S
C2371 C2355 1.377 . S
C2371 C2369 1.389 . S
C2371 C2372 1.524 . S
C2372 C2371 1.524 . S
C2372 C2373 1.397 . S
C2372 C2377 1.363 . S
C2373 H2344 0.950 . S
C2373 C2372 1.397 . S
C2373 C2374 1.334 . S
C2374 H2345 0.950 . S
C2374 C2373 1.334 . S
C2374 C2375 1.287 . S
C2375 C2374 1.287 . S
C2375 C2376 1.524 . S
C2375 H2378 0.999 . S
C2376 H2346 0.950 . S
C2376 C2375 1.524 . S
C2376 C2377 1.415 . S
C2377 H2347 0.950 . S
C2377 C2372 1.363 . S
C2377 C2376 1.415 . S
H2378 C2375 0.999 . S
H2379 C2360 0.913 . S
H2380 C2398 0.951 . S
H2381 C2400 0.951 . S
H2382 C2402 0.950 . S
H2383 C2403 0.950 . S
H2384 C2405 0.950 . S
H2385 C2408 0.950 . S
H2386 C2409 0.950 . S
H2387 C2411 0.950 . S
H2388 C2412 0.950 . S
H2389 C2413 0.951 . S
H2390 C2415 0.951 . S
H2391 C2417 0.950 . S
H2392 C2418 0.950 . S
H2393 C2420 0.950 . S
H2394 C2423 0.950 . S
H2395 C2424 0.950 . S
H2396 C2426 0.950 . S
H2397 C2427 0.950 . S
C2398 H2380 0.951 . S
C2398 C2399 1.366 . S
C2398 C2400 1.388 . S
C2399 C2398 1.366 . S
C2399 C2403 1.385 . S
C2400 H2381 0.951 . S
C2400 C2398 1.388 . S
C2400 C2401 1.366 . S
C2401 C2400 1.366 . S
C2401 C2402 1.414 . S
C2401 C2404 1.499 . S
C2402 H2382 0.950 . S
C2402 C2401 1.414 . S
C2402 C2403 1.374 . S
C2403 H2383 0.950 . S
C2403 C2399 1.385 . S
C2403 C2402 1.374 . S
C2404 C2401 1.499 . S
C2404 C2405 1.373 . S
C2404 C2406 1.389 . S
C2405 H2384 0.950 . S
C2405 C2404 1.373 . S
C2405 C2421 1.377 . S
C2406 C2404 1.389 . S
C2406 C2407 1.524 . S
C2406 C2420 1.377 . S
C2407 C2406 1.524 . S
C2407 C2408 1.397 . S
C2407 C2412 1.363 . S
C2408 H2385 0.950 . S
C2408 C2407 1.397 . S
C2408 C2409 1.334 . S
C2409 H2386 0.950 . S
C2409 C2408 1.334 . S
C2409 C2410 1.287 . S
C2410 C2409 1.287 . S
C2410 C2411 1.524 . S
C2410 H2429 0.913 . S
C2411 H2387 0.950 . S
C2411 C2410 1.524 . S
C2411 C2412 1.415 . S
C2412 H2388 0.950 . S
C2412 C2407 1.363 . S
C2412 C2411 1.415 . S
C2413 H2389 0.951 . S
C2413 C2414 1.366 . S
C2413 C2415 1.388 . S
C2414 C2413 1.366 . S
C2414 C2418 1.385 . S
C2415 H2390 0.951 . S
C2415 C2413 1.388 . S
C2415 C2416 1.366 . S
C2416 C2415 1.366 . S
C2416 C2417 1.414 . S
C2416 C2419 1.499 . S
C2417 H2391 0.950 . S
C2417 C2416 1.414 . S
C2417 C2418 1.374 . S
C2418 H2392 0.950 . S
C2418 C2414 1.385 . S
C2418 C2417 1.374 . S
C2419 C2416 1.499 . S
C2419 C2420 1.373 . S
C2419 C2421 1.389 . S
C2420 H2393 0.950 . S
C2420 C2406 1.377 . S
C2420 C2419 1.373 . S
C2421 C2405 1.377 . S
C2421 C2419 1.389 . S
C2421 C2422 1.524 . S
C2422 C2421 1.524 . S
C2422 C2423 1.397 . S
C2422 C2427 1.363 . S
C2423 H2394 0.950 . S
C2423 C2422 1.397 . S
C2423 C2424 1.334 . S
C2424 H2395 0.950 . S
C2424 C2423 1.334 . S
C2424 C2425 1.287 . S
C2425 C2424 1.287 . S
C2425 C2426 1.524 . S
C2425 H2428 0.999 . S
C2426 H2396 0.950 . S
C2426 C2425 1.524 . S
C2426 C2427 1.415 . S
C2427 H2397 0.950 . S
C2427 C2422 1.363 . S
C2427 C2426 1.415 . S
H2428 C2425 0.999 . S
H2429 C2410 0.913 . S
H2430 C2448 0.951 . S
H2431 C2450 0.951 . S
H2432 C2452 0.950 . S
H2433 C2453 0.950 . S
H2434 C2455 0.950 . S
H2435 C2458 0.950 . S
H2436 C2459 0.950 . S
H2437 C2461 0.950 . S
H2438 C2462 0.950 . S
H2439 C2463 0.951 . S
H2440 C2465 0.951 . S
H2441 C2467 0.950 . S
H2442 C2468 0.950 . S
H2443 C2470 0.950 . S
H2444 C2473 0.950 . S
H2445 C2474 0.950 . S
H2446 C2476 0.950 . S
H2447 C2477 0.950 . S
C2448 H2430 0.951 . S
C2448 C2449 1.366 . S
C2448 C2450 1.388 . S
C2449 C2448 1.366 . S
C2449 C2453 1.385 . S
C2450 H2431 0.951 . S
C2450 C2448 1.388 . S
C2450 C2451 1.366 . S
C2451 C2450 1.366 . S
C2451 C2452 1.414 . S
C2451 C2454 1.499 . S
C2452 H2432 0.950 . S
C2452 C2451 1.414 . S
C2452 C2453 1.374 . S
C2453 H2433 0.950 . S
C2453 C2449 1.385 . S
C2453 C2452 1.374 . S
C2454 C2451 1.499 . S
C2454 C2455 1.373 . S
C2454 C2456 1.389 . S
C2455 H2434 0.950 . S
C2455 C2454 1.373 . S
C2455 C2471 1.377 . S
C2456 C2454 1.389 . S
C2456 C2457 1.524 . S
C2456 C2470 1.377 . S
C2457 C2456 1.524 . S
C2457 C2458 1.397 . S
C2457 C2462 1.363 . S
C2458 H2435 0.950 . S
C2458 C2457 1.397 . S
C2458 C2459 1.334 . S
C2459 H2436 0.950 . S
C2459 C2458 1.334 . S
C2459 C2460 1.287 . S
C2460 C2459 1.287 . S
C2460 C2461 1.524 . S
C2460 H2479 0.913 . S
C2461 H2437 0.950 . S
C2461 C2460 1.524 . S
C2461 C2462 1.415 . S
C2462 H2438 0.950 . S
C2462 C2457 1.363 . S
C2462 C2461 1.415 . S
C2463 H2439 0.951 . S
C2463 C2464 1.366 . S
C2463 C2465 1.388 . S
C2464 C2463 1.366 . S
C2464 C2468 1.385 . S
C2465 H2440 0.951 . S
C2465 C2463 1.388 . S
C2465 C2466 1.366 . S
C2466 C2465 1.366 . S
C2466 C2467 1.414 . S
C2466 C2469 1.499 . S
C2467 H2441 0.950 . S
C2467 C2466 1.414 . S
C2467 C2468 1.374 . S
C2468 H2442 0.950 . S
C2468 C2464 1.385 . S
C2468 C2467 1.374 . S
C2469 C2466 1.499 . S
C2469 C2470 1.373 . S
C2469 C2471 1.389 . S
C2470 H2443 0.950 . S
C2470 C2456 1.377 . S
C2470 C2469 1.373 . S
C2471 C2455 1.377 . S
C2471 C2469 1.389 . S
C2471 C2472 1.524 . S
C2472 C2471 1.524 . S
C2472 C2473 1.397 . S
C2472 C2477 1.363 . S
C2473 H2444 0.950 . S
C2473 C2472 1.397 . S
C2473 C2474 1.334 . S
C2474 H2445 0.950 . S
C2474 C2473 1.334 . S
C2474 C2475 1.287 . S
C2475 C2474 1.287 . S
C2475 C2476 1.524 . S
C2475 H2478 0.999 . S
C2476 H2446 0.950 . S
C2476 C2475 1.524 . S
C2476 C2477 1.415 . S
C2477 H2447 0.950 . S
C2477 C2472 1.363 . S
C2477 C2476 1.415 . S
H2478 C2475 0.999 . S
H2479 C2460 0.913 . S
H2480 C2498 0.951 . S
H2481 C2500 0.951 . S
H2482 C2502 0.950 . S
H2483 C2503 0.950 . S
H2484 C2505 0.950 . S
H2485 C2508 0.950 . S
H2486 C2509 0.950 . S
H2487 C2511 0.950 . S
H2488 C2512 0.950 . S
H2489 C2513 0.951 . S
H2490 C2515 0.951 . S
H2491 C2517 0.950 . S
H2492 C2518 0.950 . S
H2493 C2520 0.950 . S
H2494 C2523 0.950 . S
H2495 C2524 0.950 . S
H2496 C2526 0.950 . S
H2497 C2527 0.950 . S
C2498 H2480 0.951 . S
C2498 C2499 1.366 . S
C2498 C2500 1.388 . S
C2499 C2498 1.366 . S
C2499 C2503 1.385 . S
C2500 H2481 0.951 . S
C2500 C2498 1.388 . S
C2500 C2501 1.366 . S
C2501 C2500 1.366 . S
C2501 C2502 1.414 . S
C2501 C2504 1.499 . S
C2502 H2482 0.950 . S
C2502 C2501 1.414 . S
C2502 C2503 1.374 . S
C2503 H2483 0.950 . S
C2503 C2499 1.385 . S
C2503 C2502 1.374 . S
C2504 C2501 1.499 . S
C2504 C2505 1.373 . S
C2504 C2506 1.389 . S
C2505 H2484 0.950 . S
C2505 C2504 1.373 . S
C2505 C2521 1.377 . S
C2506 C2504 1.389 . S
C2506 C2507 1.524 . S
C2506 C2520 1.377 . S
C2507 C2506 1.524 . S
C2507 C2508 1.397 . S
C2507 C2512 1.363 . S
C2508 H2485 0.950 . S
C2508 C2507 1.397 . S
C2508 C2509 1.334 . S
C2509 H2486 0.950 . S
C2509 C2508 1.334 . S
C2509 C2510 1.287 . S
C2510 C2509 1.287 . S
C2510 C2511 1.524 . S
C2510 H2529 0.913 . S
C2511 H2487 0.950 . S
C2511 C2510 1.524 . S
C2511 C2512 1.415 . S
C2512 H2488 0.950 . S
C2512 C2507 1.363 . S
C2512 C2511 1.415 . S
C2513 H2489 0.951 . S
C2513 C2514 1.366 . S
C2513 C2515 1.388 . S
C2514 C2513 1.366 . S
C2514 C2518 1.385 . S
C2515 H2490 0.951 . S
C2515 C2513 1.388 . S
C2515 C2516 1.366 . S
C2516 C2515 1.366 . S
C2516 C2517 1.414 . S
C2516 C2519 1.499 . S
C2517 H2491 0.950 . S
C2517 C2516 1.414 . S
C2517 C2518 1.374 . S
C2518 H2492 0.950 . S
C2518 C2514 1.385 . S
C2518 C2517 1.374 . S
C2519 C2516 1.499 . S
C2519 C2520 1.373 . S
C2519 C2521 1.389 . S
C2520 H2493 0.950 . S
C2520 C2506 1.377 . S
C2520 C2519 1.373 . S
C2521 C2505 1.377 . S
C2521 C2519 1.389 . S
C2521 C2522 1.524 . S
C2522 C2521 1.524 . S
C2522 C2523 1.397 . S
C2522 C2527 1.363 . S
C2523 H2494 0.950 . S
C2523 C2522 1.397 . S
C2523 C2524 1.334 . S
C2524 H2495 0.950 . S
C2524 C2523 1.334 . S
C2524 C2525 1.287 . S
C2525 C2524 1.287 . S
C2525 C2526 1.524 . S
C2525 H2528 0.999 . S
C2526 H2496 0.950 . S
C2526 C2525 1.524 . S
C2526 C2527 1.415 . S
C2527 H2497 0.950 . S
C2527 C2522 1.363 . S
C2527 C2526 1.415 . S
H2528 C2525 0.999 . S
H2529 C2510 0.913 . S
H2530 C2548 0.951 . S
H2531 C2550 0.951 . S
H2532 C2552 0.950 . S
H2533 C2553 0.950 . S
H2534 C2555 0.950 . S
H2535 C2558 0.956 . S
H2536 C2559 0.950 . S
H2537 C2561 0.950 . S
H2538 C2562 0.950 . S
H2539 C2563 0.951 . S
H2540 C2565 0.951 . S
H2541 C2567 0.950 . S
H2542 C2568 0.950 . S
H2543 C2570 0.950 . S
H2544 C2573 0.950 . S
H2545 C2574 0.950 . S
H2546 C2576 0.950 . S
H2547 C2577 0.950 . S
C2548 H2530 0.951 . S
C2548 C2549 1.366 . S
C2548 C2550 1.388 . S
C2549 C2548 1.366 . S
C2549 C2553 1.385 . S
C2550 H2531 0.951 . S
C2550 C2548 1.388 . S
C2550 C2551 1.366 . S
C2551 C2550 1.366 . S
C2551 C2552 1.414 . S
C2551 C2554 1.499 . S
C2552 H2532 0.950 . S
C2552 C2551 1.414 . S
C2552 C2553 1.374 . S
C2553 H2533 0.950 . S
C2553 C2549 1.385 . S
C2553 C2552 1.374 . S
C2554 C2551 1.499 . S
C2554 C2555 1.373 . S
C2554 C2556 1.389 . S
C2555 H2534 0.950 . S
C2555 C2554 1.373 . S
C2555 C2571 1.377 . S
C2556 C2554 1.389 . S
C2556 C2557 1.524 . S
C2556 C2570 1.377 . S
C2557 C2556 1.524 . S
C2557 C2558 1.424 . S
C2557 C2562 1.363 . S
C2558 H2535 0.956 . S
C2558 C2557 1.424 . S
C2558 C2559 1.301 1_554 S
C2559 H2536 0.950 . S
C2559 C2558 1.301 1_556 S
C2559 C2560 1.287 . S
C2560 C2559 1.287 . S
C2560 C2561 1.524 . S
C2560 H2579 0.913 . S
C2561 H2537 0.950 . S
C2561 C2560 1.524 . S
C2561 C2562 1.415 1_556 S
C2562 H2538 0.950 . S
C2562 C2557 1.363 . S
C2562 C2561 1.415 1_554 S
C2563 H2539 0.951 . S
C2563 C2564 1.366 . S
C2563 C2565 1.388 . S
C2564 C2563 1.366 . S
C2564 C2568 1.385 . S
C2565 H2540 0.951 . S
C2565 C2563 1.388 . S
C2565 C2566 1.366 . S
C2566 C2565 1.366 . S
C2566 C2567 1.414 . S
C2566 C2569 1.499 . S
C2567 H2541 0.950 . S
C2567 C2566 1.414 . S
C2567 C2568 1.374 . S
C2568 H2542 0.950 . S
C2568 C2564 1.385 . S
C2568 C2567 1.374 . S
C2569 C2566 1.499 . S
C2569 C2570 1.373 . S
C2569 C2571 1.389 . S
C2570 H2543 0.950 . S
C2570 C2556 1.377 . S
C2570 C2569 1.373 . S
C2571 C2555 1.377 . S
C2571 C2569 1.389 . S
C2571 C2572 1.524 . S
C2572 C2571 1.524 . S
C2572 C2573 1.397 . S
C2572 C2577 1.363 . S
C2573 H2544 0.950 . S
C2573 C2572 1.397 . S
C2573 C2574 1.334 . S
C2574 H2545 0.950 . S
C2574 C2573 1.334 . S
C2574 C2575 1.287 . S
C2575 C2574 1.287 . S
C2575 C2576 1.524 . S
C2575 H2578 0.999 . S
C2576 H2546 0.950 . S
C2576 C2575 1.524 . S
C2576 C2577 1.415 . S
C2577 H2547 0.950 . S
C2577 C2572 1.363 . S
C2577 C2576 1.415 . S
H2578 C2575 0.999 . S
H2579 C2560 0.913 . S
H2580 C2598 0.951 . S
H2581 C2600 0.951 1_554 S
H2582 C2602 0.950 . S
H2583 C2603 0.950 . S
H2584 C2605 0.950 . S
H2585 C2608 0.950 . S
H2586 C2609 0.950 . S
H2587 C2611 0.950 . S
H2588 C2612 0.950 . S
H2589 C2613 0.951 . S
H2590 C2615 0.951 . S
H2591 C2617 0.950 . S
H2592 C2618 0.950 . S
H2593 C2620 0.950 . S
H2594 C2623 0.950 . S
H2595 C2624 0.950 . S
H2596 C2626 0.950 . S
H2597 C2627 0.950 . S
C2598 H2580 0.951 . S
C2598 C2599 1.366 1_554 S
C2598 C2600 1.388 1_554 S
C2599 C2598 1.366 1_556 S
C2599 C2603 1.385 . S
C2600 H2581 0.951 1_556 S
C2600 C2598 1.388 1_556 S
C2600 C2601 1.366 . S
C2601 C2600 1.366 . S
C2601 C2602 1.414 . S
C2601 C2604 1.499 . S
C2602 H2582 0.950 . S
C2602 C2601 1.414 . S
C2602 C2603 1.374 . S
C2603 H2583 0.950 . S
C2603 C2599 1.385 . S
C2603 C2602 1.374 . S
C2604 C2601 1.499 . S
C2604 C2605 1.373 . S
C2604 C2606 1.389 . S
C2605 H2584 0.950 . S
C2605 C2604 1.373 . S
C2605 C2621 1.377 . S
C2606 C2604 1.389 . S
C2606 C2607 1.524 . S
C2606 C2620 1.377 . S
C2607 C2606 1.524 . S
C2607 C2608 1.397 . S
C2607 C2612 1.363 . S
C2608 H2585 0.950 . S
C2608 C2607 1.397 . S
C2608 C2609 1.334 . S
C2609 H2586 0.950 . S
C2609 C2608 1.334 . S
C2609 C2610 1.287 . S
C2610 C2609 1.287 . S
C2610 C2611 1.524 . S
C2610 H2629 0.913 . S
C2611 H2587 0.950 . S
C2611 C2610 1.524 . S
C2611 C2612 1.415 . S
C2612 H2588 0.950 . S
C2612 C2607 1.363 . S
C2612 C2611 1.415 . S
C2613 H2589 0.951 . S
C2613 C2614 1.366 . S
C2613 C2615 1.388 . S
C2614 C2613 1.366 . S
C2614 C2618 1.385 . S
C2615 H2590 0.951 . S
C2615 C2613 1.388 . S
C2615 C2616 1.366 . S
C2616 C2615 1.366 . S
C2616 C2617 1.414 . S
C2616 C2619 1.499 . S
C2617 H2591 0.950 . S
C2617 C2616 1.414 . S
C2617 C2618 1.374 . S
C2618 H2592 0.950 . S
C2618 C2614 1.385 . S
C2618 C2617 1.374 . S
C2619 C2616 1.499 . S
C2619 C2620 1.373 . S
C2619 C2621 1.389 . S
C2620 H2593 0.950 . S
C2620 C2606 1.377 . S
C2620 C2619 1.373 . S
C2621 C2605 1.377 . S
C2621 C2619 1.389 . S
C2621 C2622 1.524 . S
C2622 C2621 1.524 . S
C2622 C2623 1.397 . S
C2622 C2627 1.363 . S
C2623 H2594 0.950 . S
C2623 C2622 1.397 . S
C2623 C2624 1.334 . S
C2624 H2595 0.950 . S
C2624 C2623 1.334 . S
C2624 C2625 1.287 . S
C2625 C2624 1.287 . S
C2625 C2626 1.524 . S
C2625 H2628 0.999 . S
C2626 H2596 0.950 . S
C2626 C2625 1.524 . S
C2626 C2627 1.415 . S
C2627 H2597 0.950 . S
C2627 C2622 1.363 . S
C2627 C2626 1.415 . S
H2628 C2625 0.999 . S
H2629 C2610 0.913 . S
H2630 C2648 0.951 . S
H2631 C2650 0.951 . S
H2632 C2652 0.950 . S
H2633 C2653 0.950 . S
H2634 C2655 0.950 . S
H2635 C2658 0.950 . S
H2636 C2659 0.950 . S
H2637 C2661 0.950 . S
H2638 C2662 0.950 . S
H2639 C2663 0.951 . S
H2640 C2665 0.951 . S
H2641 C2667 0.950 . S
H2642 C2668 0.950 . S
H2643 C2670 0.950 . S
H2644 C2673 0.950 . S
H2645 C2674 0.950 . S
H2646 C2676 0.950 . S
H2647 C2677 0.950 . S
C2648 H2630 0.951 . S
C2648 C2649 1.366 . S
C2648 C2650 1.388 . S
C2649 C2648 1.366 . S
C2649 C2653 1.385 . S
C2650 H2631 0.951 . S
C2650 C2648 1.388 . S
C2650 C2651 1.366 . S
C2651 C2650 1.366 . S
C2651 C2652 1.414 . S
C2651 C2654 1.499 . S
C2652 H2632 0.950 . S
C2652 C2651 1.414 . S
C2652 C2653 1.374 . S
C2653 H2633 0.950 . S
C2653 C2649 1.385 . S
C2653 C2652 1.374 . S
C2654 C2651 1.499 . S
C2654 C2655 1.373 . S
C2654 C2656 1.389 . S
C2655 H2634 0.950 . S
C2655 C2654 1.373 . S
C2655 C2671 1.377 . S
C2656 C2654 1.389 . S
C2656 C2657 1.524 . S
C2656 C2670 1.377 . S
C2657 C2656 1.524 . S
C2657 C2658 1.397 . S
C2657 C2662 1.363 . S
C2658 H2635 0.950 . S
C2658 C2657 1.397 . S
C2658 C2659 1.334 . S
C2659 H2636 0.950 . S
C2659 C2658 1.334 . S
C2659 C2660 1.287 . S
C2660 C2659 1.287 . S
C2660 C2661 1.524 . S
C2660 H2679 0.913 . S
C2661 H2637 0.950 . S
C2661 C2660 1.524 . S
C2661 C2662 1.415 . S
C2662 H2638 0.950 . S
C2662 C2657 1.363 . S
C2662 C2661 1.415 . S
C2663 H2639 0.951 . S
C2663 C2664 1.366 . S
C2663 C2665 1.388 . S
C2664 C2663 1.366 . S
C2664 C2668 1.385 . S
C2665 H2640 0.951 . S
C2665 C2663 1.388 . S
C2665 C2666 1.366 . S
C2666 C2665 1.366 . S
C2666 C2667 1.414 . S
C2666 C2669 1.499 . S
C2667 H2641 0.950 . S
C2667 C2666 1.414 . S
C2667 C2668 1.374 . S
C2668 H2642 0.950 . S
C2668 C2664 1.385 . S
C2668 C2667 1.374 . S
C2669 C2666 1.499 . S
C2669 C2670 1.373 . S
C2669 C2671 1.389 . S
C2670 H2643 0.950 . S
C2670 C2656 1.377 . S
C2670 C2669 1.373 . S
C2671 C2655 1.377 . S
C2671 C2669 1.389 . S
C2671 C2672 1.524 . S
C2672 C2671 1.524 . S
C2672 C2673 1.397 . S
C2672 C2677 1.363 . S
C2673 H2644 0.950 . S
C2673 C2672 1.397 . S
C2673 C2674 1.334 1_556 S
C2674 H2645 0.950 . S
C2674 C2673 1.334 1_554 S
C2674 C2675 1.287 . S
C2675 C2674 1.287 . S
C2675 C2676 1.524 . S
C2675 H2678 0.999 . S
C2676 H2646 0.950 . S
C2676 C2675 1.524 . S
C2676 C2677 1.415 1_554 S
C2677 H2647 0.950 . S
C2677 C2672 1.363 . S
C2677 C2676 1.415 1_556 S
H2678 C2675 0.999 . S
H2679 C2660 0.913 . S
H2680 C2698 0.951 . S
H2681 C2700 0.951 . S
H2682 C2702 0.950 . S
H2683 C2703 0.950 . S
H2684 C2705 0.950 . S
H2685 C2708 0.950 . S
H2686 C2709 0.950 . S
H2687 C2711 0.950 . S
H2688 C2712 0.950 1_556 S
H2689 C2713 0.951 . S
H2690 C2715 0.951 . S
H2691 C2717 0.950 . S
H2692 C2718 0.950 . S
H2693 C2720 0.950 . S
H2694 C2723 0.950 . S
H2695 C2724 0.950 . S
H2696 C2726 0.950 . S
H2697 C2727 0.950 . S
C2698 H2680 0.951 . S
C2698 C2699 1.366 . S
C2698 C2700 1.388 . S
C2699 C2698 1.366 . S
C2699 C2703 1.385 . S
C2700 H2681 0.951 . S
C2700 C2698 1.388 . S
C2700 C2701 1.366 . S
C2701 C2700 1.366 . S
C2701 C2702 1.414 . S
C2701 C2704 1.499 . S
C2702 H2682 0.950 . S
C2702 C2701 1.414 . S
C2702 C2703 1.374 . S
C2703 H2683 0.950 . S
C2703 C2699 1.385 . S
C2703 C2702 1.374 . S
C2704 C2701 1.499 . S
C2704 C2705 1.373 . S
C2704 C2706 1.389 . S
C2705 H2684 0.950 . S
C2705 C2704 1.373 . S
C2705 C2721 1.377 . S
C2706 C2704 1.389 . S
C2706 C2707 1.524 1_556 S
C2706 C2720 1.377 . S
C2707 C2706 1.524 1_554 S
C2707 C2708 1.397 . S
C2707 C2712 1.363 . S
C2708 H2685 0.950 . S
C2708 C2707 1.397 . S
C2708 C2709 1.334 . S
C2709 H2686 0.950 . S
C2709 C2708 1.334 . S
C2709 C2710 1.287 . S
C2710 C2709 1.287 . S
C2710 C2711 1.524 . S
C2710 H2729 0.913 . S
C2711 H2687 0.950 . S
C2711 C2710 1.524 . S
C2711 C2712 1.415 . S
C2712 H2688 0.950 1_554 S
C2712 C2707 1.363 . S
C2712 C2711 1.415 . S
C2713 H2689 0.951 . S
C2713 C2714 1.366 . S
C2713 C2715 1.388 . S
C2714 C2713 1.366 . S
C2714 C2718 1.385 . S
C2715 H2690 0.951 . S
C2715 C2713 1.388 . S
C2715 C2716 1.366 . S
C2716 C2715 1.366 . S
C2716 C2717 1.414 . S
C2716 C2719 1.499 . S
C2717 H2691 0.950 . S
C2717 C2716 1.414 . S
C2717 C2718 1.374 . S
C2718 H2692 0.950 . S
C2718 C2714 1.385 . S
C2718 C2717 1.374 . S
C2719 C2716 1.499 . S
C2719 C2720 1.373 . S
C2719 C2721 1.389 . S
C2720 H2693 0.950 . S
C2720 C2706 1.377 . S
C2720 C2719 1.373 . S
C2721 C2705 1.377 . S
C2721 C2719 1.389 . S
C2721 C2722 1.524 . S
C2722 C2721 1.524 . S
C2722 C2723 1.397 . S
C2722 C2727 1.363 . S
C2723 H2694 0.950 . S
C2723 C2722 1.397 . S
C2723 C2724 1.334 . S
C2724 H2695 0.950 . S
C2724 C2723 1.334 . S
C2724 C2725 1.287 . S
C2725 C2724 1.287 . S
C2725 C2726 1.524 . S
C2725 H2728 0.999 . S
C2726 H2696 0.950 . S
C2726 C2725 1.524 . S
C2726 C2727 1.415 . S
C2727 H2697 0.950 . S
C2727 C2722 1.363 . S
C2727 C2726 1.415 . S
H2728 C2725 0.999 . S
H2729 C2710 0.913 . S
H2730 C2748 0.951 . S
H2731 C2750 0.951 . S
H2732 C2752 0.950 1_554 S
H2733 C2753 0.950 . S
H2734 C2755 0.950 . S
H2735 C2758 0.950 . S
H2736 C2759 0.950 . S
H2737 C2761 0.950 . S
H2738 C2762 0.950 . S
H2739 C2763 0.951 . S
H2740 C2765 0.951 . S
H2741 C2767 0.950 . S
H2742 C2768 0.950 . S
H2743 C2770 0.950 . S
H2744 C2773 0.950 . S
H2745 C2774 0.950 . S
H2746 C2776 0.950 . S
H2747 C2777 0.950 . S
C2748 H2730 0.951 . S
C2748 C2749 1.366 . S
C2748 C2750 1.388 . S
C2749 C2748 1.366 . S
C2749 C2753 1.385 1_556 S
C2750 H2731 0.951 . S
C2750 C2748 1.388 . S
C2750 C2751 1.366 . S
C2751 C2750 1.366 . S
C2751 C2752 1.414 . S
C2751 C2754 1.499 . S
C2752 H2732 0.950 1_556 S
C2752 C2751 1.414 . S
C2752 C2753 1.374 1_556 S
C2753 H2733 0.950 . S
C2753 C2749 1.385 1_554 S
C2753 C2752 1.374 1_554 S
C2754 C2751 1.499 . S
C2754 C2755 1.373 . S
C2754 C2756 1.389 . S
C2755 H2734 0.950 . S
C2755 C2754 1.373 . S
C2755 C2771 1.377 . S
C2756 C2754 1.389 . S
C2756 C2757 1.524 . S
C2756 C2770 1.377 . S
C2757 C2756 1.524 . S
C2757 C2758 1.397 . S
C2757 C2762 1.363 . S
C2758 H2735 0.950 . S
C2758 C2757 1.397 . S
C2758 C2759 1.334 . S
C2759 H2736 0.950 . S
C2759 C2758 1.334 . S
C2759 C2760 1.287 . S
C2760 C2759 1.287 . S
C2760 C2761 1.524 . S
C2760 H2779 0.913 . S
C2761 H2737 0.950 . S
C2761 C2760 1.524 . S
C2761 C2762 1.415 . S
C2762 H2738 0.950 . S
C2762 C2757 1.363 . S
C2762 C2761 1.415 . S
C2763 H2739 0.951 . S
C2763 C2764 1.366 . S
C2763 C2765 1.388 . S
C2764 C2763 1.366 . S
C2764 C2768 1.385 . S
C2765 H2740 0.951 . S
C2765 C2763 1.388 . S
C2765 C2766 1.366 . S
C2766 C2765 1.366 . S
C2766 C2767 1.414 . S
C2766 C2769 1.499 . S
C2767 H2741 0.950 . S
C2767 C2766 1.414 . S
C2767 C2768 1.374 . S
C2768 H2742 0.950 . S
C2768 C2764 1.385 . S
C2768 C2767 1.374 . S
C2769 C2766 1.499 . S
C2769 C2770 1.373 . S
C2769 C2771 1.389 . S
C2770 H2743 0.950 . S
C2770 C2756 1.377 . S
C2770 C2769 1.373 . S
C2771 C2755 1.377 . S
C2771 C2769 1.389 . S
C2771 C2772 1.524 . S
C2772 C2771 1.524 . S
C2772 C2773 1.397 . S
C2772 C2777 1.363 1_556 S
C2773 H2744 0.950 . S
C2773 C2772 1.397 . S
C2773 C2774 1.334 . S
C2774 H2745 0.950 . S
C2774 C2773 1.334 . S
C2774 C2775 1.287 1_556 S
C2775 C2774 1.287 1_554 S
C2775 C2776 1.524 . S
C2775 H2778 0.999 . S
C2776 H2746 0.950 . S
C2776 C2775 1.524 . S
C2776 C2777 1.415 . S
C2777 H2747 0.950 . S
C2777 C2772 1.363 1_554 S
C2777 C2776 1.415 . S
H2778 C2775 0.999 . S
H2779 C2760 0.913 . S
H2780 C2798 0.951 . S
H2781 C2800 0.951 . S
H2782 C2802 0.950 . S
H2783 C2803 0.950 . S
H2784 C2805 0.950 . S
H2785 C2808 0.950 . S
H2786 C2809 0.950 . S
H2787 C2811 0.950 . S
H2788 C2812 0.950 . S
H2789 C2813 0.951 . S
H2790 C2815 0.951 . S
H2791 C2817 0.950 . S
H2792 C2818 0.950 . S
H2793 C2820 0.950 . S
H2794 C2823 0.950 . S
H2795 C2824 0.950 . S
H2796 C2826 0.950 . S
H2797 C2827 0.950 . S
C2798 H2780 0.951 . S
C2798 C2799 1.366 . S
C2798 C2800 1.388 . S
C2799 C2798 1.366 . S
C2799 C2803 1.385 . S
C2800 H2781 0.951 . S
C2800 C2798 1.388 . S
C2800 C2801 1.366 . S
C2801 C2800 1.366 . S
C2801 C2802 1.414 . S
C2801 C2804 1.499 . S
C2802 H2782 0.950 . S
C2802 C2801 1.414 . S
C2802 C2803 1.374 . S
C2803 H2783 0.950 . S
C2803 C2799 1.385 . S
C2803 C2802 1.374 . S
C2804 C2801 1.499 . S
C2804 C2805 1.373 . S
C2804 C2806 1.389 . S
C2805 H2784 0.950 . S
C2805 C2804 1.373 . S
C2805 C2821 1.377 . S
C2806 C2804 1.389 . S
C2806 C2807 1.524 . S
C2806 C2820 1.377 . S
C2807 C2806 1.524 . S
C2807 C2808 1.397 . S
C2807 C2812 1.363 . S
C2808 H2785 0.950 . S
C2808 C2807 1.397 . S
C2808 C2809 1.334 . S
C2809 H2786 0.950 . S
C2809 C2808 1.334 . S
C2809 C2810 1.287 . S
C2810 C2809 1.287 . S
C2810 C2811 1.524 . S
C2810 H2829 0.913 . S
C2811 H2787 0.950 . S
C2811 C2810 1.524 . S
C2811 C2812 1.415 . S
C2812 H2788 0.950 . S
C2812 C2807 1.363 . S
C2812 C2811 1.415 . S
C2813 H2789 0.951 . S
C2813 C2814 1.366 . S
C2813 C2815 1.388 . S
C2814 C2813 1.366 . S
C2814 C2818 1.385 . S
C2815 H2790 0.951 . S
C2815 C2813 1.388 . S
C2815 C2816 1.366 . S
C2816 C2815 1.366 . S
C2816 C2817 1.414 . S
C2816 C2819 1.499 . S
C2817 H2791 0.950 . S
C2817 C2816 1.414 . S
C2817 C2818 1.374 . S
C2818 H2792 0.950 . S
C2818 C2814 1.385 . S
C2818 C2817 1.374 . S
C2819 C2816 1.499 . S
C2819 C2820 1.373 . S
C2819 C2821 1.389 . S
C2820 H2793 0.950 . S
C2820 C2806 1.377 . S
C2820 C2819 1.373 . S
C2821 C2805 1.377 . S
C2821 C2819 1.389 . S
C2821 C2822 1.524 . S
C2822 C2821 1.524 . S
C2822 C2823 1.397 . S
C2822 C2827 1.363 . S
C2823 H2794 0.950 . S
C2823 C2822 1.397 . S
C2823 C2824 1.334 1_556 S
C2824 H2795 0.950 . S
C2824 C2823 1.334 1_554 S
C2824 C2825 1.287 . S
C2825 C2824 1.287 . S
C2825 C2826 1.524 . S
C2825 H2828 0.999 . S
C2826 H2796 0.950 . S
C2826 C2825 1.524 . S
C2826 C2827 1.415 1_554 S
C2827 H2797 0.950 . S
C2827 C2822 1.363 . S
C2827 C2826 1.415 1_556 S
H2828 C2825 0.999 . S
H2829 C2810 0.913 . S
H2830 C2848 0.951 . S
H2831 C2850 0.951 . S
H2832 C2852 0.950 . S
H2833 C2853 0.950 . S
H2834 C2855 0.950 . S
H2835 C2858 0.950 . S
H2836 C2859 0.950 . S
H2837 C2861 0.950 . S
H2838 C2862 0.950 . S
H2839 C2863 0.951 . S
H2840 C2865 0.951 . S
H2841 C2867 0.950 . S
H2842 C2868 0.950 . S
H2843 C2870 0.950 . S
H2844 C2873 0.950 . S
H2845 C2874 0.950 . S
H2846 C2876 0.950 . S
H2847 C2877 0.950 . S
C2848 H2830 0.951 . S
C2848 C2849 1.366 . S
C2848 C2850 1.388 . S
C2849 C2848 1.366 . S
C2849 C2853 1.385 . S
C2850 H2831 0.951 . S
C2850 C2848 1.388 . S
C2850 C2851 1.366 . S
C2851 C2850 1.366 . S
C2851 C2852 1.414 . S
C2851 C2854 1.499 . S
C2852 H2832 0.950 . S
C2852 C2851 1.414 . S
C2852 C2853 1.374 . S
C2853 H2833 0.950 . S
C2853 C2849 1.385 . S
C2853 C2852 1.374 . S
C2854 C2851 1.499 . S
C2854 C2855 1.373 . S
C2854 C2856 1.389 . S
C2855 H2834 0.950 . S
C2855 C2854 1.373 . S
C2855 C2871 1.377 . S
C2856 C2854 1.389 . S
C2856 C2857 1.524 . S
C2856 C2870 1.377 . S
C2857 C2856 1.524 . S
C2857 C2858 1.397 . S
C2857 C2862 1.363 . S
C2858 H2835 0.950 . S
C2858 C2857 1.397 . S
C2858 C2859 1.334 . S
C2859 H2836 0.950 . S
C2859 C2858 1.334 . S
C2859 C2860 1.287 . S
C2860 C2859 1.287 . S
C2860 C2861 1.524 . S
C2860 H2879 0.913 . S
C2861 H2837 0.950 . S
C2861 C2860 1.524 . S
C2861 C2862 1.415 . S
C2862 H2838 0.950 . S
C2862 C2857 1.363 . S
C2862 C2861 1.415 . S
C2863 H2839 0.951 . S
C2863 C2864 1.366 . S
C2863 C2865 1.388 . S
C2864 C2863 1.366 . S
C2864 C2868 1.385 . S
C2865 H2840 0.951 . S
C2865 C2863 1.388 . S
C2865 C2866 1.366 . S
C2866 C2865 1.366 . S
C2866 C2867 1.414 . S
C2866 C2869 1.499 . S
C2867 H2841 0.950 . S
C2867 C2866 1.414 . S
C2867 C2868 1.374 . S
C2868 H2842 0.950 . S
C2868 C2864 1.385 . S
C2868 C2867 1.374 . S
C2869 C2866 1.499 . S
C2869 C2870 1.373 . S
C2869 C2871 1.389 . S
C2870 H2843 0.950 . S
C2870 C2856 1.377 . S
C2870 C2869 1.373 . S
C2871 C2855 1.377 . S
C2871 C2869 1.389 . S
C2871 C2872 1.524 . S
C2872 C2871 1.524 . S
C2872 C2873 1.397 . S
C2872 C2877 1.363 . S
C2873 H2844 0.950 . S
C2873 C2872 1.397 . S
C2873 C2874 1.334 1_556 S
C2874 H2845 0.950 . S
C2874 C2873 1.334 1_554 S
C2874 C2875 1.287 . S
C2875 C2874 1.287 . S
C2875 C2876 1.524 . S
C2875 H2878 0.999 . S
C2876 H2846 0.950 . S
C2876 C2875 1.524 . S
C2876 C2877 1.415 1_554 S
C2877 H2847 0.950 . S
C2877 C2872 1.363 . S
C2877 C2876 1.415 1_556 S
H2878 C2875 0.999 . S
H2879 C2860 0.913 . S
H2880 C2898 0.951 . S
H2881 C2900 0.951 . S
H2882 C2902 0.950 . S
H2883 C2903 0.950 . S
H2884 C2905 0.950 . S
H2885 C2908 0.950 . S
H2886 C2909 0.950 . S
H2887 C2911 0.950 . S
H2888 C2912 0.961 . S
H2889 C2913 0.951 . S
H2890 C2915 0.951 . S
H2891 C2917 0.950 . S
H2892 C2918 0.950 . S
H2893 C2920 0.950 . S
H2894 C2923 0.950 . S
H2895 C2924 0.950 . S
H2896 C2926 0.950 . S
H2897 C2927 0.950 . S
C2898 H2880 0.951 . S
C2898 C2899 1.366 . S
C2898 C2900 1.388 . S
C2899 C2898 1.366 . S
C2899 C2903 1.385 . S
C2900 H2881 0.951 . S
C2900 C2898 1.388 . S
C2900 C2901 1.366 . S
C2901 C2900 1.366 . S
C2901 C2902 1.414 . S
C2901 C2904 1.499 . S
C2902 H2882 0.950 . S
C2902 C2901 1.414 . S
C2902 C2903 1.374 . S
C2903 H2883 0.950 . S
C2903 C2899 1.385 . S
C2903 C2902 1.374 . S
C2904 C2901 1.499 . S
C2904 C2905 1.373 . S
C2904 C2906 1.389 . S
C2905 H2884 0.950 . S
C2905 C2904 1.373 . S
C2905 C2921 1.377 . S
C2906 C2904 1.389 . S
C2906 C2907 1.524 . S
C2906 C2920 1.377 . S
C2907 C2906 1.524 . S
C2907 C2908 1.397 . S
C2907 C2912 1.381 . S
C2908 H2885 0.950 . S
C2908 C2907 1.397 . S
C2908 C2909 1.334 1_554 S
C2909 H2886 0.950 . S
C2909 C2908 1.334 1_556 S
C2909 C2910 1.287 . S
C2910 C2909 1.287 . S
C2910 C2911 1.524 . S
C2910 H2929 0.913 . S
C2911 H2887 0.950 . S
C2911 C2910 1.524 . S
C2911 C2912 1.386 1_556 S
C2912 H2888 0.961 . S
C2912 C2907 1.381 . S
C2912 C2911 1.386 1_554 S
C2913 H2889 0.951 . S
C2913 C2914 1.366 . S
C2913 C2915 1.388 . S
C2914 C2913 1.366 . S
C2914 C2918 1.385 . S
C2915 H2890 0.951 . S
C2915 C2913 1.388 . S
C2915 C2916 1.366 . S
C2916 C2915 1.366 . S
C2916 C2917 1.414 . S
C2916 C2919 1.499 . S
C2917 H2891 0.950 . S
C2917 C2916 1.414 . S
C2917 C2918 1.374 . S
C2918 H2892 0.950 . S
C2918 C2914 1.385 . S
C2918 C2917 1.374 . S
C2919 C2916 1.499 . S
C2919 C2920 1.373 . S
C2919 C2921 1.389 . S
C2920 H2893 0.950 . S
C2920 C2906 1.377 . S
C2920 C2919 1.373 . S
C2921 C2905 1.377 . S
C2921 C2919 1.389 . S
C2921 C2922 1.524 . S
C2922 C2921 1.524 . S
C2922 C2923 1.397 . S
C2922 C2927 1.363 . S
C2923 H2894 0.950 . S
C2923 C2922 1.397 . S
C2923 C2924 1.334 . S
C2924 H2895 0.950 . S
C2924 C2923 1.334 . S
C2924 C2925 1.287 . S
C2925 C2924 1.287 . S
C2925 C2926 1.524 . S
C2925 H2928 0.999 . S
C2926 H2896 0.950 . S
C2926 C2925 1.524 . S
C2926 C2927 1.415 . S
C2927 H2897 0.950 . S
C2927 C2922 1.363 . S
C2927 C2926 1.415 . S
H2928 C2925 0.999 . S
H2929 C2910 0.913 . S
H2930 C2948 0.951 . S
H2931 C2950 0.951 . S
H2932 C2952 0.950 . S
H2933 C2953 0.950 1_556 S
H2934 C2955 0.950 . S
H2935 C2958 0.950 . S
H2936 C2959 0.950 . S
H2937 C2961 0.950 . S
H2938 C2962 0.950 . S
H2939 C2963 0.951 . S
H2940 C2965 0.951 . S
H2941 C2967 0.950 . S
H2942 C2968 0.950 . S
H2943 C2970 0.950 . S
H2944 C2973 0.950 . S
H2945 C2974 0.950 . S
H2946 C2976 0.950 . S
H2947 C2977 0.950 . S
C2948 H2930 0.951 . S
C2948 C2949 1.366 . S
C2948 C2950 1.388 . S
C2949 C2948 1.366 . S
C2949 C2953 1.385 . S
C2950 H2931 0.951 . S
C2950 C2948 1.388 . S
C2950 C2951 1.366 . S
C2951 C2950 1.366 . S
C2951 C2952 1.414 . S
C2951 C2954 1.499 . S
C2952 H2932 0.950 . S
C2952 C2951 1.414 . S
C2952 C2953 1.374 . S
C2953 H2933 0.950 1_554 S
C2953 C2949 1.385 . S
C2953 C2952 1.374 . S
C2954 C2951 1.499 . S
C2954 C2955 1.373 . S
C2954 C2956 1.389 . S
C2955 H2934 0.950 . S
C2955 C2954 1.373 . S
C2955 C2971 1.377 . S
C2956 C2954 1.389 . S
C2956 C2957 1.524 . S
C2956 C2970 1.377 . S
C2957 C2956 1.524 . S
C2957 C2958 1.397 . S
C2957 C2962 1.363 . S
C2958 H2935 0.950 . S
C2958 C2957 1.397 . S
C2958 C2959 1.334 . S
C2959 H2936 0.950 . S
C2959 C2958 1.334 . S
C2959 C2960 1.287 . S
C2960 C2959 1.287 . S
C2960 C2961 1.524 . S
C2960 H2979 0.913 . S
C2961 H2937 0.950 . S
C2961 C2960 1.524 . S
C2961 C2962 1.415 . S
C2962 H2938 0.950 . S
C2962 C2957 1.363 . S
C2962 C2961 1.415 . S
C2963 H2939 0.951 . S
C2963 C2964 1.366 . S
C2963 C2965 1.388 . S
C2964 C2963 1.366 . S
C2964 C2968 1.385 . S
C2965 H2940 0.951 . S
C2965 C2963 1.388 . S
C2965 C2966 1.366 . S
C2966 C2965 1.366 . S
C2966 C2967 1.414 . S
C2966 C2969 1.499 . S
C2967 H2941 0.950 . S
C2967 C2966 1.414 . S
C2967 C2968 1.374 . S
C2968 H2942 0.950 . S
C2968 C2964 1.385 . S
C2968 C2967 1.374 . S
C2969 C2966 1.499 . S
C2969 C2970 1.373 . S
C2969 C2971 1.389 . S
C2970 H2943 0.950 . S
C2970 C2956 1.377 . S
C2970 C2969 1.373 . S
C2971 C2955 1.377 . S
C2971 C2969 1.389 . S
C2971 C2972 1.524 . S
C2972 C2971 1.524 . S
C2972 C2973 1.397 . S
C2972 C2977 1.363 . S
C2973 H2944 0.950 . S
C2973 C2972 1.397 . S
C2973 C2974 1.334 . S
C2974 H2945 0.950 . S
C2974 C2973 1.334 . S
C2974 C2975 1.287 . S
C2975 C2974 1.287 . S
C2975 C2976 1.524 . S
C2975 H2978 0.999 . S
C2976 H2946 0.950 . S
C2976 C2975 1.524 . S
C2976 C2977 1.415 . S
C2977 H2947 0.950 . S
C2977 C2972 1.363 . S
C2977 C2976 1.415 . S
H2978 C2975 0.999 . S
H2979 C2960 0.913 . S
H2980 C2998 0.951 . S
H2981 C3000 0.951 . S
H2982 C3002 0.950 . S
H2983 C3003 0.950 . S
H2984 C3005 0.950 . S
H2985 C3008 0.950 . S
H2986 C3009 0.950 . S
H2987 C3011 0.950 . S
H2988 C3012 0.950 . S
H2989 C3013 0.951 . S
H2990 C3015 0.951 . S
H2991 C3017 0.950 . S
H2992 C3018 0.950 . S
H2993 C3020 0.950 . S
H2994 C3023 0.950 . S
H2995 C3024 0.950 . S
H2996 C3026 0.950 . S
H2997 C3027 0.950 . S
C2998 H2980 0.951 . S
C2998 C2999 1.366 . S
C2998 C3000 1.388 . S
C2999 C2998 1.366 . S
C2999 C3003 1.385 . S
C3000 H2981 0.951 . S
C3000 C2998 1.388 . S
C3000 C3001 1.366 . S
C3001 C3000 1.366 . S
C3001 C3002 1.414 . S
C3001 C3004 1.499 . S
C3002 H2982 0.950 . S
C3002 C3001 1.414 . S
C3002 C3003 1.374 . S
C3003 H2983 0.950 . S
C3003 C2999 1.385 . S
C3003 C3002 1.374 . S
C3004 C3001 1.499 . S
C3004 C3005 1.373 . S
C3004 C3006 1.389 . S
C3005 H2984 0.950 . S
C3005 C3004 1.373 . S
C3005 C3021 1.377 . S
C3006 C3004 1.389 . S
C3006 C3007 1.524 . S
C3006 C3020 1.377 . S
C3007 C3006 1.524 . S
C3007 C3008 1.397 . S
C3007 C3012 1.363 . S
C3008 H2985 0.950 . S
C3008 C3007 1.397 . S
C3008 C3009 1.334 . S
C3009 H2986 0.950 . S
C3009 C3008 1.334 . S
C3009 C3010 1.287 . S
C3010 C3009 1.287 . S
C3010 C3011 1.524 . S
C3010 H3029 0.913 . S
C3011 H2987 0.950 . S
C3011 C3010 1.524 . S
C3011 C3012 1.415 . S
C3012 H2988 0.950 . S
C3012 C3007 1.363 . S
C3012 C3011 1.415 . S
C3013 H2989 0.951 . S
C3013 C3014 1.366 . S
C3013 C3015 1.388 . S
C3014 C3013 1.366 . S
C3014 C3018 1.385 . S
C3015 H2990 0.951 . S
C3015 C3013 1.388 . S
C3015 C3016 1.366 . S
C3016 C3015 1.366 . S
C3016 C3017 1.414 . S
C3016 C3019 1.499 . S
C3017 H2991 0.950 . S
C3017 C3016 1.414 . S
C3017 C3018 1.374 . S
C3018 H2992 0.950 . S
C3018 C3014 1.385 . S
C3018 C3017 1.374 . S
C3019 C3016 1.499 . S
C3019 C3020 1.373 . S
C3019 C3021 1.389 . S
C3020 H2993 0.950 . S
C3020 C3006 1.377 . S
C3020 C3019 1.373 . S
C3021 C3005 1.377 . S
C3021 C3019 1.389 . S
C3021 C3022 1.524 . S
C3022 C3021 1.524 . S
C3022 C3023 1.397 . S
C3022 C3027 1.363 . S
C3023 H2994 0.950 . S
C3023 C3022 1.397 . S
C3023 C3024 1.334 . S
C3024 H2995 0.950 . S
C3024 C3023 1.334 . S
C3024 C3025 1.287 . S
C3025 C3024 1.287 . S
C3025 C3026 1.524 . S
C3025 H3028 0.999 . S
C3026 H2996 0.950 . S
C3026 C3025 1.524 . S
C3026 C3027 1.415 . S
C3027 H2997 0.950 . S
C3027 C3022 1.363 . S
C3027 C3026 1.415 . S
H3028 C3025 0.999 . S
H3029 C3010 0.913 . S
H3030 C3048 0.951 . S
H3031 C3050 0.951 . S
H3032 C3052 0.950 . S
H3033 C3053 0.950 . S
H3034 C3055 0.950 . S
H3035 C3058 0.950 . S
H3036 C3059 0.950 . S
H3037 C3061 0.950 . S
H3038 C3062 0.950 . S
H3039 C3063 0.951 . S
H3040 C3065 0.951 . S
H3041 C3067 0.950 . S
H3042 C3068 0.950 . S
H3043 C3070 0.950 . S
H3044 C3073 0.950 . S
H3045 C3074 0.950 . S
H3046 C3076 0.950 . S
H3047 C3077 0.950 . S
C3048 H3030 0.951 . S
C3048 C3049 1.366 . S
C3048 C3050 1.388 . S
C3049 C3048 1.366 . S
C3049 C3053 1.385 . S
C3050 H3031 0.951 . S
C3050 C3048 1.388 . S
C3050 C3051 1.366 . S
C3051 C3050 1.366 . S
C3051 C3052 1.414 . S
C3051 C3054 1.499 . S
C3052 H3032 0.950 . S
C3052 C3051 1.414 . S
C3052 C3053 1.374 . S
C3053 H3033 0.950 . S
C3053 C3049 1.385 . S
C3053 C3052 1.374 . S
C3054 C3051 1.499 . S
C3054 C3055 1.373 . S
C3054 C3056 1.389 . S
C3055 H3034 0.950 . S
C3055 C3054 1.373 . S
C3055 C3071 1.377 . S
C3056 C3054 1.389 . S
C3056 C3057 1.524 . S
C3056 C3070 1.377 . S
C3057 C3056 1.524 . S
C3057 C3058 1.397 . S
C3057 C3062 1.363 . S
C3058 H3035 0.950 . S
C3058 C3057 1.397 . S
C3058 C3059 1.334 . S
C3059 H3036 0.950 . S
C3059 C3058 1.334 . S
C3059 C3060 1.287 . S
C3060 C3059 1.287 . S
C3060 C3061 1.524 . S
C3060 H3079 0.913 . S
C3061 H3037 0.950 . S
C3061 C3060 1.524 . S
C3061 C3062 1.415 . S
C3062 H3038 0.950 . S
C3062 C3057 1.363 . S
C3062 C3061 1.415 . S
C3063 H3039 0.951 . S
C3063 C3064 1.366 . S
C3063 C3065 1.388 . S
C3064 C3063 1.366 . S
C3064 C3068 1.385 . S
C3065 H3040 0.951 . S
C3065 C3063 1.388 . S
C3065 C3066 1.366 . S
C3066 C3065 1.366 . S
C3066 C3067 1.414 . S
C3066 C3069 1.499 . S
C3067 H3041 0.950 . S
C3067 C3066 1.414 . S
C3067 C3068 1.374 . S
C3068 H3042 0.950 . S
C3068 C3064 1.385 . S
C3068 C3067 1.374 . S
C3069 C3066 1.499 . S
C3069 C3070 1.373 . S
C3069 C3071 1.389 . S
C3070 H3043 0.950 . S
C3070 C3056 1.377 . S
C3070 C3069 1.373 . S
C3071 C3055 1.377 . S
C3071 C3069 1.389 . S
C3071 C3072 1.524 . S
C3072 C3071 1.524 . S
C3072 C3073 1.397 . S
C3072 C3077 1.363 . S
C3073 H3044 0.950 . S
C3073 C3072 1.397 . S
C3073 C3074 1.334 . S
C3074 H3045 0.950 . S
C3074 C3073 1.334 . S
C3074 C3075 1.287 . S
C3075 C3074 1.287 . S
C3075 C3076 1.524 . S
C3075 H3078 0.999 . S
C3076 H3046 0.950 . S
C3076 C3075 1.524 . S
C3076 C3077 1.415 . S
C3077 H3047 0.950 . S
C3077 C3072 1.363 . S
C3077 C3076 1.415 . S
H3078 C3075 0.999 . S
H3079 C3060 0.913 . S
H3080 C3098 0.951 . S
H3081 C3100 0.951 . S
H3082 C3102 0.950 . S
H3083 C3103 0.950 . S
H3084 C3105 0.950 . S
H3085 C3108 0.950 . S
H3086 C3109 0.950 . S
H3087 C3111 0.950 . S
H3088 C3112 0.950 . S
H3089 C3113 0.951 . S
H3090 C3115 0.951 . S
H3091 C3117 0.950 . S
H3092 C3118 0.950 . S
H3093 C3120 0.950 . S
H3094 C3123 0.950 . S
H3095 C3124 0.950 . S
H3096 C3126 0.950 . S
H3097 C3127 0.950 . S
C3098 H3080 0.951 . S
C3098 C3099 1.366 . S
C3098 C3100 1.388 . S
C3099 C3098 1.366 . S
C3099 C3103 1.385 . S
C3100 H3081 0.951 . S
C3100 C3098 1.388 . S
C3100 C3101 1.366 . S
C3101 C3100 1.366 . S
C3101 C3102 1.414 . S
C3101 C3104 1.499 . S
C3102 H3082 0.950 . S
C3102 C3101 1.414 . S
C3102 C3103 1.374 . S
C3103 H3083 0.950 . S
C3103 C3099 1.385 . S
C3103 C3102 1.374 . S
C3104 C3101 1.499 . S
C3104 C3105 1.373 . S
C3104 C3106 1.389 . S
C3105 H3084 0.950 . S
C3105 C3104 1.373 . S
C3105 C3121 1.377 . S
C3106 C3104 1.389 . S
C3106 C3107 1.524 . S
C3106 C3120 1.377 . S
C3107 C3106 1.524 . S
C3107 C3108 1.397 . S
C3107 C3112 1.363 . S
C3108 H3085 0.950 . S
C3108 C3107 1.397 . S
C3108 C3109 1.334 . S
C3109 H3086 0.950 . S
C3109 C3108 1.334 . S
C3109 C3110 1.287 . S
C3110 C3109 1.287 . S
C3110 C3111 1.524 . S
C3110 H3129 0.913 . S
C3111 H3087 0.950 . S
C3111 C3110 1.524 . S
C3111 C3112 1.415 . S
C3112 H3088 0.950 . S
C3112 C3107 1.363 . S
C3112 C3111 1.415 . S
C3113 H3089 0.951 . S
C3113 C3114 1.366 . S
C3113 C3115 1.388 . S
C3114 C3113 1.366 . S
C3114 C3118 1.385 . S
C3115 H3090 0.951 . S
C3115 C3113 1.388 . S
C3115 C3116 1.366 . S
C3116 C3115 1.366 . S
C3116 C3117 1.414 . S
C3116 C3119 1.499 . S
C3117 H3091 0.950 . S
C3117 C3116 1.414 . S
C3117 C3118 1.374 . S
C3118 H3092 0.950 . S
C3118 C3114 1.385 . S
C3118 C3117 1.374 . S
C3119 C3116 1.499 . S
C3119 C3120 1.373 . S
C3119 C3121 1.389 . S
C3120 H3093 0.950 . S
C3120 C3106 1.377 . S
C3120 C3119 1.373 . S
C3121 C3105 1.377 . S
C3121 C3119 1.389 . S
C3121 C3122 1.524 . S
C3122 C3121 1.524 . S
C3122 C3123 1.397 . S
C3122 C3127 1.363 . S
C3123 H3094 0.950 . S
C3123 C3122 1.397 . S
C3123 C3124 1.334 . S
C3124 H3095 0.950 . S
C3124 C3123 1.334 . S
C3124 C3125 1.287 . S
C3125 C3124 1.287 . S
C3125 C3126 1.524 . S
C3125 H3128 0.999 . S
C3126 H3096 0.950 . S
C3126 C3125 1.524 . S
C3126 C3127 1.415 . S
C3127 H3097 0.950 . S
C3127 C3122 1.363 . S
C3127 C3126 1.415 . S
H3128 C3125 0.999 . S
H3129 C3110 0.913 . S
H3130 C3148 0.951 . S
H3131 C3150 0.951 . S
H3132 C3152 0.950 . S
H3133 C3153 0.950 . S
H3134 C3155 0.950 . S
H3135 C3158 0.950 . S
H3136 C3159 0.950 . S
H3137 C3161 0.950 . S
H3138 C3162 0.950 . S
H3139 C3163 0.951 . S
H3140 C3165 0.951 . S
H3141 C3167 0.950 . S
H3142 C3168 0.950 . S
H3143 C3170 0.950 . S
H3144 C3173 0.950 . S
H3145 C3174 0.950 . S
H3146 C3176 0.950 . S
H3147 C3177 0.950 . S
C3148 H3130 0.951 . S
C3148 C3149 1.366 . S
C3148 C3150 1.388 . S
C3149 C3148 1.366 . S
C3149 C3153 1.385 . S
C3150 H3131 0.951 . S
C3150 C3148 1.388 . S
C3150 C3151 1.366 . S
C3151 C3150 1.366 . S
C3151 C3152 1.414 . S
C3151 C3154 1.499 . S
C3152 H3132 0.950 . S
C3152 C3151 1.414 . S
C3152 C3153 1.374 . S
C3153 H3133 0.950 . S
C3153 C3149 1.385 . S
C3153 C3152 1.374 . S
C3154 C3151 1.499 . S
C3154 C3155 1.373 . S
C3154 C3156 1.389 . S
C3155 H3134 0.950 . S
C3155 C3154 1.373 . S
C3155 C3171 1.377 . S
C3156 C3154 1.389 . S
C3156 C3157 1.524 . S
C3156 C3170 1.377 . S
C3157 C3156 1.524 . S
C3157 C3158 1.397 . S
C3157 C3162 1.363 . S
C3158 H3135 0.950 . S
C3158 C3157 1.397 . S
C3158 C3159 1.334 . S
C3159 H3136 0.950 . S
C3159 C3158 1.334 . S
C3159 C3160 1.287 . S
C3160 C3159 1.287 . S
C3160 C3161 1.524 . S
C3160 H3179 0.913 . S
C3161 H3137 0.950 . S
C3161 C3160 1.524 . S
C3161 C3162 1.415 . S
C3162 H3138 0.950 . S
C3162 C3157 1.363 . S
C3162 C3161 1.415 . S
C3163 H3139 0.951 . S
C3163 C3164 1.366 . S
C3163 C3165 1.388 . S
C3164 C3163 1.366 . S
C3164 C3168 1.385 . S
C3165 H3140 0.951 . S
C3165 C3163 1.388 . S
C3165 C3166 1.366 . S
C3166 C3165 1.366 . S
C3166 C3167 1.414 . S
C3166 C3169 1.499 . S
C3167 H3141 0.950 . S
C3167 C3166 1.414 . S
C3167 C3168 1.374 . S
C3168 H3142 0.950 . S
C3168 C3164 1.385 . S
C3168 C3167 1.374 . S
C3169 C3166 1.499 . S
C3169 C3170 1.373 . S
C3169 C3171 1.389 . S
C3170 H3143 0.950 . S
C3170 C3156 1.377 . S
C3170 C3169 1.373 . S
C3171 C3155 1.377 . S
C3171 C3169 1.389 . S
C3171 C3172 1.524 . S
C3172 C3171 1.524 . S
C3172 C3173 1.397 . S
C3172 C3177 1.363 . S
C3173 H3144 0.950 . S
C3173 C3172 1.397 . S
C3173 C3174 1.334 . S
C3174 H3145 0.950 . S
C3174 C3173 1.334 . S
C3174 C3175 1.287 . S
C3175 C3174 1.287 . S
C3175 C3176 1.524 . S
C3175 H3178 0.999 . S
C3176 H3146 0.950 . S
C3176 C3175 1.524 . S
C3176 C3177 1.415 . S
C3177 H3147 0.950 . S
C3177 C3172 1.363 . S
C3177 C3176 1.415 . S
H3178 C3175 0.999 . S
H3179 C3160 0.913 . S
H3180 C3198 0.963 . S
H3181 C3200 0.951 1_655 S
H3182 C3202 0.950 . S
H3183 C3203 0.950 . S
H3184 C3205 0.950 . S
H3185 C3208 0.950 . S
H3186 C3209 0.950 . S
H3187 C3211 0.950 . S
H3188 C3212 0.950 . S
H3189 C3213 0.951 . S
H3190 C3215 0.951 . S
H3191 C3217 0.950 . S
H3192 C3218 0.950 . S
H3193 C3220 0.950 . S
H3194 C3223 0.950 . S
H3195 C3224 0.950 . S
H3196 C3226 0.950 . S
H3197 C3227 0.950 . S
C3198 H3180 0.963 . S
C3198 C3199 1.366 . S
C3198 C3200 1.388 . S
C3199 C3198 1.366 . S
C3199 C3203 1.385 . S
C3200 H3181 0.951 1_455 S
C3200 C3198 1.388 . S
C3200 C3201 1.366 . S
C3201 C3200 1.366 . S
C3201 C3202 1.414 . S
C3201 C3204 1.499 . S
C3202 H3182 0.950 . S
C3202 C3201 1.414 . S
C3202 C3203 1.374 . S
C3203 H3183 0.950 . S
C3203 C3199 1.385 . S
C3203 C3202 1.374 . S
C3204 C3201 1.499 . S
C3204 C3205 1.373 . S
C3204 C3206 1.389 1_455 S
C3205 H3184 0.950 . S
C3205 C3204 1.373 . S
C3205 C3221 1.377 . S
C3206 C3204 1.389 1_655 S
C3206 C3207 1.524 . S
C3206 C3220 1.377 . S
C3207 C3206 1.524 . S
C3207 C3208 1.397 . S
C3207 C3212 1.363 . S
C3208 H3185 0.950 . S
C3208 C3207 1.397 . S
C3208 C3209 1.334 . S
C3209 H3186 0.950 . S
C3209 C3208 1.334 . S
C3209 C3210 1.287 . S
C3210 C3209 1.287 . S
C3210 C3211 1.524 . S
C3210 H3229 0.913 . S
C3211 H3187 0.950 . S
C3211 C3210 1.524 . S
C3211 C3212 1.415 . S
C3212 H3188 0.950 . S
C3212 C3207 1.363 . S
C3212 C3211 1.415 . S
C3213 H3189 0.951 . S
C3213 C3214 1.366 . S
C3213 C3215 1.388 . S
C3214 C3213 1.366 . S
C3214 C3218 1.385 1_455 S
C3215 H3190 0.951 . S
C3215 C3213 1.388 . S
C3215 C3216 1.366 . S
C3216 C3215 1.366 . S
C3216 C3217 1.414 1_455 S
C3216 C3219 1.499 . S
C3217 H3191 0.950 . S
C3217 C3216 1.414 1_655 S
C3217 C3218 1.374 . S
C3218 H3192 0.950 . S
C3218 C3214 1.385 1_655 S
C3218 C3217 1.374 . S
C3219 C3216 1.499 . S
C3219 C3220 1.373 1_455 S
C3219 C3221 1.389 . S
C3220 H3193 0.950 . S
C3220 C3206 1.377 . S
C3220 C3219 1.373 1_655 S
C3221 C3205 1.377 . S
C3221 C3219 1.389 . S
C3221 C3222 1.524 . S
C3222 C3221 1.524 . S
C3222 C3223 1.397 . S
C3222 C3227 1.363 . S
C3223 H3194 0.950 . S
C3223 C3222 1.397 . S
C3223 C3224 1.334 . S
C3224 H3195 0.950 . S
C3224 C3223 1.334 . S
C3224 C3225 1.287 . S
C3225 C3224 1.287 . S
C3225 C3226 1.524 . S
C3225 H3228 0.999 . S
C3226 H3196 0.950 . S
C3226 C3225 1.524 . S
C3226 C3227 1.415 . S
C3227 H3197 0.950 . S
C3227 C3222 1.363 . S
C3227 C3226 1.415 . S
H3228 C3225 0.999 . S
H3229 C3210 0.913 . S
H3230 C3248 0.951 . S
H3231 C3250 0.951 . S
H3232 C3252 0.950 . S
H3233 C3253 0.950 . S
H3234 C3255 0.950 . S
H3235 C3258 0.950 . S
H3236 C3259 0.950 . S
H3237 C3261 0.950 . S
H3238 C3262 0.950 . S
H3239 C3263 0.951 . S
H3240 C3265 0.951 . S
H3241 C3267 0.950 . S
H3242 C3268 0.950 . S
H3243 C3270 0.950 . S
H3244 C3273 0.950 . S
H3245 C3274 0.950 . S
H3246 C3276 0.950 . S
H3247 C3277 0.950 . S
C3248 H3230 0.951 . S
C3248 C3249 1.366 . S
C3248 C3250 1.388 . S
C3249 C3248 1.366 . S
C3249 C3253 1.385 . S
C3250 H3231 0.951 . S
C3250 C3248 1.388 . S
C3250 C3251 1.366 . S
C3251 C3250 1.366 . S
C3251 C3252 1.414 . S
C3251 C3254 1.499 . S
C3252 H3232 0.950 . S
C3252 C3251 1.414 . S
C3252 C3253 1.374 . S
C3253 H3233 0.950 . S
C3253 C3249 1.385 . S
C3253 C3252 1.374 . S
C3254 C3251 1.499 . S
C3254 C3255 1.373 . S
C3254 C3256 1.389 . S
C3255 H3234 0.950 . S
C3255 C3254 1.373 . S
C3255 C3271 1.377 . S
C3256 C3254 1.389 . S
C3256 C3257 1.524 . S
C3256 C3270 1.377 . S
C3257 C3256 1.524 . S
C3257 C3258 1.397 . S
C3257 C3262 1.363 . S
C3258 H3235 0.950 . S
C3258 C3257 1.397 . S
C3258 C3259 1.334 . S
C3259 H3236 0.950 . S
C3259 C3258 1.334 . S
C3259 C3260 1.287 . S
C3260 C3259 1.287 . S
C3260 C3261 1.524 . S
C3260 H3279 0.913 . S
C3261 H3237 0.950 . S
C3261 C3260 1.524 . S
C3261 C3262 1.415 . S
C3262 H3238 0.950 . S
C3262 C3257 1.363 . S
C3262 C3261 1.415 . S
C3263 H3239 0.951 . S
C3263 C3264 1.366 . S
C3263 C3265 1.388 . S
C3264 C3263 1.366 . S
C3264 C3268 1.385 . S
C3265 H3240 0.951 . S
C3265 C3263 1.388 . S
C3265 C3266 1.366 . S
C3266 C3265 1.366 . S
C3266 C3267 1.414 . S
C3266 C3269 1.499 . S
C3267 H3241 0.950 . S
C3267 C3266 1.414 . S
C3267 C3268 1.374 . S
C3268 H3242 0.950 . S
C3268 C3264 1.385 . S
C3268 C3267 1.374 . S
C3269 C3266 1.499 . S
C3269 C3270 1.373 . S
C3269 C3271 1.389 . S
C3270 H3243 0.950 . S
C3270 C3256 1.377 . S
C3270 C3269 1.373 . S
C3271 C3255 1.377 . S
C3271 C3269 1.389 . S
C3271 C3272 1.524 . S
C3272 C3271 1.524 . S
C3272 C3273 1.397 . S
C3272 C3277 1.363 . S
C3273 H3244 0.950 . S
C3273 C3272 1.397 . S
C3273 C3274 1.334 . S
C3274 H3245 0.950 . S
C3274 C3273 1.334 . S
C3274 C3275 1.287 . S
C3275 C3274 1.287 . S
C3275 C3276 1.524 . S
C3275 H3278 0.999 . S
C3276 H3246 0.950 . S
C3276 C3275 1.524 . S
C3276 C3277 1.415 . S
C3277 H3247 0.950 . S
C3277 C3272 1.363 . S
C3277 C3276 1.415 . S
H3278 C3275 0.999 . S
H3279 C3260 0.913 . S
H3280 C3298 0.951 . S
H3281 C3300 0.951 . S
H3282 C3302 0.950 . S
H3283 C3303 0.950 . S
H3284 C3305 0.950 . S
H3285 C3308 0.950 . S
H3286 C3309 0.950 . S
H3287 C3311 0.950 . S
H3288 C3312 0.950 . S
H3289 C3313 0.951 . S
H3290 C3315 0.951 . S
H3291 C3317 0.950 . S
H3292 C3318 0.950 . S
H3293 C3320 0.950 . S
H3294 C3323 0.950 . S
H3295 C3324 0.950 . S
H3296 C3326 0.950 . S
H3297 C3327 0.950 . S
C3298 H3280 0.951 . S
C3298 C3299 1.366 . S
C3298 C3300 1.388 . S
C3299 C3298 1.366 . S
C3299 C3303 1.385 . S
C3300 H3281 0.951 . S
C3300 C3298 1.388 . S
C3300 C3301 1.366 . S
C3301 C3300 1.366 . S
C3301 C3302 1.414 . S
C3301 C3304 1.499 . S
C3302 H3282 0.950 . S
C3302 C3301 1.414 . S
C3302 C3303 1.374 . S
C3303 H3283 0.950 . S
C3303 C3299 1.385 . S
C3303 C3302 1.374 . S
C3304 C3301 1.499 . S
C3304 C3305 1.373 . S
C3304 C3306 1.372 1_565 S
C3305 H3284 0.950 . S
C3305 C3304 1.373 . S
C3305 C3321 1.377 . S
C3306 C3304 1.372 1_545 S
C3306 C3307 1.586 . S
C3306 C3320 1.342 . S
C3307 C3306 1.586 . S
C3307 C3308 1.397 . S
C3307 C3312 1.363 . S
C3308 H3285 0.950 . S
C3308 C3307 1.397 . S
C3308 C3309 1.334 . S
C3309 H3286 0.950 . S
C3309 C3308 1.334 . S
C3309 C3310 1.287 . S
C3310 C3309 1.287 . S
C3310 C3311 1.524 . S
C3310 H3329 0.913 . S
C3311 H3287 0.950 . S
C3311 C3310 1.524 . S
C3311 C3312 1.415 . S
C3312 H3288 0.950 . S
C3312 C3307 1.363 . S
C3312 C3311 1.415 . S
C3313 H3289 0.951 . S
C3313 C3314 1.366 . S
C3313 C3315 1.388 . S
C3314 C3313 1.366 . S
C3314 C3318 1.385 . S
C3315 H3290 0.951 . S
C3315 C3313 1.388 . S
C3315 C3316 1.366 . S
C3316 C3315 1.366 . S
C3316 C3317 1.414 . S
C3316 C3319 1.499 . S
C3317 H3291 0.950 . S
C3317 C3316 1.414 . S
C3317 C3318 1.374 . S
C3318 H3292 0.950 . S
C3318 C3314 1.385 . S
C3318 C3317 1.374 . S
C3319 C3316 1.499 . S
C3319 C3320 1.373 1_565 S
C3319 C3321 1.389 . S
C3320 H3293 0.950 . S
C3320 C3306 1.342 . S
C3320 C3319 1.373 1_545 S
C3321 C3305 1.377 . S
C3321 C3319 1.389 . S
C3321 C3322 1.524 . S
C3322 C3321 1.524 . S
C3322 C3323 1.397 . S
C3322 C3327 1.363 . S
C3323 H3294 0.950 . S
C3323 C3322 1.397 . S
C3323 C3324 1.334 . S
C3324 H3295 0.950 . S
C3324 C3323 1.334 . S
C3324 C3325 1.287 . S
C3325 C3324 1.287 . S
C3325 C3326 1.524 . S
C3325 H3328 0.999 . S
C3326 H3296 0.950 . S
C3326 C3325 1.524 . S
C3326 C3327 1.415 . S
C3327 H3297 0.950 . S
C3327 C3322 1.363 . S
C3327 C3326 1.415 . S
H3328 C3325 0.999 . S
H3329 C3310 0.913 . S
H3330 C3348 0.951 . S
H3331 C3350 0.951 . S
H3332 C3352 0.906 1_545 S
H3333 C3353 0.950 1_545 S
H3334 C3355 0.950 1_545 S
H3335 C3358 0.950 . S
H3336 C3359 0.950 . S
H3337 C3361 0.950 . S
H3338 C3362 0.950 . S
H3339 C3363 0.951 . S
H3340 C3365 0.951 . S
H3341 C3367 0.950 . S
H3342 C3368 0.950 . S
H3343 C3370 0.950 . S
H3344 C3373 0.950 . S
H3345 C3374 0.950 1_565 S
H3346 C3376 0.950 . S
H3347 C3377 0.950 . S
C3348 H3330 0.951 . S
C3348 C3349 1.366 . S
C3348 C3350 1.388 . S
C3349 C3348 1.366 . S
C3349 C3353 1.385 . S
C3350 H3331 0.951 . S
C3350 C3348 1.388 . S
C3350 C3351 1.366 . S
C3351 C3350 1.366 . S
C3351 C3352 1.433 . S
C3351 C3354 1.499 . S
C3352 H3332 0.906 1_565 S
C3352 C3351 1.433 . S
C3352 C3353 1.400 . S
C3353 H3333 0.950 1_565 S
C3353 C3349 1.385 . S
C3353 C3352 1.400 . S
C3354 C3351 1.499 . S
C3354 C3355 1.373 . S
C3354 C3356 1.389 . S
C3355 H3334 0.950 1_565 S
C3355 C3354 1.373 . S
C3355 C3371 1.377 . S
C3356 C3354 1.389 . S
C3356 C3357 1.524 . S
C3356 C3370 1.377 . S
C3357 C3356 1.524 . S
C3357 C3358 1.397 . S
C3357 C3362 1.363 . S
C3358 H3335 0.950 . S
C3358 C3357 1.397 . S
C3358 C3359 1.334 . S
C3359 H3336 0.950 . S
C3359 C3358 1.334 . S
C3359 C3360 1.287 . S
C3360 C3359 1.287 . S
C3360 C3361 1.524 . S
C3360 H3379 0.913 . S
C3361 H3337 0.950 . S
C3361 C3360 1.524 . S
C3361 C3362 1.415 . S
C3362 H3338 0.950 . S
C3362 C3357 1.363 . S
C3362 C3361 1.415 . S
C3363 H3339 0.951 . S
C3363 C3364 1.366 1_545 S
C3363 C3365 1.388 . S
C3364 C3363 1.366 1_565 S
C3364 C3368 1.385 . S
C3365 H3340 0.951 . S
C3365 C3363 1.388 . S
C3365 C3366 1.366 1_545 S
C3366 C3365 1.366 1_565 S
C3366 C3367 1.414 . S
C3366 C3369 1.499 . S
C3367 H3341 0.950 . S
C3367 C3366 1.414 . S
C3367 C3368 1.374 . S
C3368 H3342 0.950 . S
C3368 C3364 1.385 . S
C3368 C3367 1.374 . S
C3369 C3366 1.499 . S
C3369 C3370 1.373 . S
C3369 C3371 1.389 . S
C3370 H3343 0.950 . S
C3370 C3356 1.377 . S
C3370 C3369 1.373 . S
C3371 C3355 1.377 . S
C3371 C3369 1.389 . S
C3371 C3372 1.524 1_565 S
C3372 C3371 1.524 1_545 S
C3372 C3373 1.397 1_545 S
C3372 C3377 1.363 . S
C3373 H3344 0.950 . S
C3373 C3372 1.397 1_565 S
C3373 C3374 1.334 1_565 S
C3374 H3345 0.950 1_545 S
C3374 C3373 1.334 1_545 S
C3374 C3375 1.287 . S
C3375 C3374 1.287 . S
C3375 C3376 1.524 . S
C3375 H3378 0.999 . S
C3376 H3346 0.950 . S
C3376 C3375 1.524 . S
C3376 C3377 1.415 . S
C3377 H3347 0.950 . S
C3377 C3372 1.363 . S
C3377 C3376 1.415 . S
H3378 C3375 0.999 . S
H3379 C3360 0.913 . S
H3380 C3398 0.951 . S
H3381 C3400 0.951 . S
H3382 C3402 0.950 1_655 S
H3383 C3403 0.950 1_655 S
H3384 C3405 0.950 . S
H3385 C3408 0.950 . S
H3386 C3409 0.950 . S
H3387 C3411 0.950 . S
H3388 C3412 0.950 . S
H3389 C3413 0.951 . S
H3390 C3415 0.951 . S
H3391 C3417 0.950 . S
H3392 C3418 0.950 . S
H3393 C3420 0.950 . S
H3394 C3423 0.950 . S
H3395 C3424 0.950 . S
H3396 C3426 0.950 . S
H3397 C3427 0.950 . S
C3398 H3380 0.951 . S
C3398 C3399 1.366 . S
C3398 C3400 1.388 . S
C3399 C3398 1.366 . S
C3399 C3403 1.385 . S
C3400 H3381 0.951 . S
C3400 C3398 1.388 . S
C3400 C3401 1.366 . S
C3401 C3400 1.366 . S
C3401 C3402 1.414 . S
C3401 C3404 1.499 . S
C3402 H3382 0.950 1_455 S
C3402 C3401 1.414 . S
C3402 C3403 1.374 . S
C3403 H3383 0.950 1_455 S
C3403 C3399 1.385 . S
C3403 C3402 1.374 . S
C3404 C3401 1.499 . S
C3404 C3405 1.373 . S
C3404 C3406 1.389 . S
C3405 H3384 0.950 . S
C3405 C3404 1.373 . S
C3405 C3421 1.377 . S
C3406 C3404 1.389 . S
C3406 C3407 1.524 . S
C3406 C3420 1.377 . S
C3407 C3406 1.524 . S
C3407 C3408 1.397 . S
C3407 C3412 1.363 . S
C3408 H3385 0.950 . S
C3408 C3407 1.397 . S
C3408 C3409 1.334 . S
C3409 H3386 0.950 . S
C3409 C3408 1.334 . S
C3409 C3410 1.287 . S
C3410 C3409 1.287 . S
C3410 C3411 1.524 . S
C3410 H3429 0.913 . S
C3411 H3387 0.950 . S
C3411 C3410 1.524 . S
C3411 C3412 1.415 . S
C3412 H3388 0.950 . S
C3412 C3407 1.363 . S
C3412 C3411 1.415 . S
C3413 H3389 0.951 . S
C3413 C3414 1.366 1_655 S
C3413 C3415 1.388 . S
C3414 C3413 1.366 1_455 S
C3414 C3418 1.385 . S
C3415 H3390 0.951 . S
C3415 C3413 1.388 . S
C3415 C3416 1.366 1_655 S
C3416 C3415 1.366 1_455 S
C3416 C3417 1.414 . S
C3416 C3419 1.499 . S
C3417 H3391 0.950 . S
C3417 C3416 1.414 . S
C3417 C3418 1.374 . S
C3418 H3392 0.950 . S
C3418 C3414 1.385 . S
C3418 C3417 1.374 . S
C3419 C3416 1.499 . S
C3419 C3420 1.373 . S
C3419 C3421 1.389 . S
C3420 H3393 0.950 . S
C3420 C3406 1.377 . S
C3420 C3419 1.373 . S
C3421 C3405 1.377 . S
C3421 C3419 1.389 . S
C3421 C3422 1.528 1_455 S
C3422 C3421 1.528 1_655 S
C3422 C3423 1.350 1_655 S
C3422 C3427 1.405 . S
C3423 H3394 0.950 . S
C3423 C3422 1.350 1_455 S
C3423 C3424 1.334 . S
C3424 H3395 0.950 . S
C3424 C3423 1.334 . S
C3424 C3425 1.287 1_455 S
C3425 C3424 1.287 1_655 S
C3425 C3426 1.524 . S
C3425 H3428 0.999 . S
C3426 H3396 0.950 . S
C3426 C3425 1.524 . S
C3426 C3427 1.415 . S
C3427 H3397 0.950 . S
C3427 C3422 1.405 . S
C3427 C3426 1.415 . S
H3428 C3425 0.999 . S
H3429 C3410 0.913 . S
H3430 C3448 0.951 . S
H3431 C3450 0.951 . S
H3432 C3452 0.950 . S
H3433 C3453 0.950 . S
H3434 C3455 0.950 . S
H3435 C3458 0.950 . S
H3436 C3459 0.950 . S
H3437 C3461 0.950 . S
H3438 C3462 0.950 . S
H3439 C3463 0.951 . S
H3440 C3465 0.951 . S
H3441 C3467 0.950 . S
H3442 C3468 0.950 . S
H3443 C3470 0.950 . S
H3444 C3473 0.950 . S
H3445 C3474 0.950 . S
H3446 C3476 0.950 . S
H3447 C3477 0.950 . S
C3448 H3430 0.951 . S
C3448 C3449 1.366 . S
C3448 C3450 1.388 . S
C3449 C3448 1.366 . S
C3449 C3453 1.385 . S
C3450 H3431 0.951 . S
C3450 C3448 1.388 . S
C3450 C3451 1.366 . S
C3451 C3450 1.366 . S
C3451 C3452 1.414 . S
C3451 C3454 1.499 . S
C3452 H3432 0.950 . S
C3452 C3451 1.414 . S
C3452 C3453 1.374 . S
C3453 H3433 0.950 . S
C3453 C3449 1.385 . S
C3453 C3452 1.374 . S
C3454 C3451 1.499 . S
C3454 C3455 1.373 . S
C3454 C3456 1.389 . S
C3455 H3434 0.950 . S
C3455 C3454 1.373 . S
C3455 C3471 1.377 . S
C3456 C3454 1.389 . S
C3456 C3457 1.524 . S
C3456 C3470 1.377 . S
C3457 C3456 1.524 . S
C3457 C3458 1.397 . S
C3457 C3462 1.363 . S
C3458 H3435 0.950 . S
C3458 C3457 1.397 . S
C3458 C3459 1.334 . S
C3459 H3436 0.950 . S
C3459 C3458 1.334 . S
C3459 C3460 1.287 . S
C3460 C3459 1.287 . S
C3460 C3461 1.524 . S
C3460 H3479 0.913 . S
C3461 H3437 0.950 . S
C3461 C3460 1.524 . S
C3461 C3462 1.415 . S
C3462 H3438 0.950 . S
C3462 C3457 1.363 . S
C3462 C3461 1.415 . S
C3463 H3439 0.951 . S
C3463 C3464 1.366 . S
C3463 C3465 1.388 . S
C3464 C3463 1.366 . S
C3464 C3468 1.385 . S
C3465 H3440 0.951 . S
C3465 C3463 1.388 . S
C3465 C3466 1.366 . S
C3466 C3465 1.366 . S
C3466 C3467 1.414 . S
C3466 C3469 1.499 . S
C3467 H3441 0.950 . S
C3467 C3466 1.414 . S
C3467 C3468 1.374 . S
C3468 H3442 0.950 . S
C3468 C3464 1.385 . S
C3468 C3467 1.374 . S
C3469 C3466 1.499 . S
C3469 C3470 1.373 . S
C3469 C3471 1.389 . S
C3470 H3443 0.950 . S
C3470 C3456 1.377 . S
C3470 C3469 1.373 . S
C3471 C3455 1.377 . S
C3471 C3469 1.389 . S
C3471 C3472 1.524 . S
C3472 C3471 1.524 . S
C3472 C3473 1.397 . S
C3472 C3477 1.363 . S
C3473 H3444 0.950 . S
C3473 C3472 1.397 . S
C3473 C3474 1.334 . S
C3474 H3445 0.950 . S
C3474 C3473 1.334 . S
C3474 C3475 1.287 . S
C3475 C3474 1.287 . S
C3475 C3476 1.524 . S
C3475 H3478 0.999 . S
C3476 H3446 0.950 . S
C3476 C3475 1.524 . S
C3476 C3477 1.415 . S
C3477 H3447 0.950 . S
C3477 C3472 1.363 . S
C3477 C3476 1.415 . S
H3478 C3475 0.999 . S
H3479 C3460 0.913 . S
H3480 C3498 0.951 . S
H3481 C3500 0.951 . S
H3482 C3502 0.950 . S
H3483 C3503 0.950 . S
H3484 C3505 0.950 . S
H3485 C3508 0.950 . S
H3486 C3509 0.950 . S
H3487 C3511 0.950 . S
H3488 C3512 0.950 . S
H3489 C3513 0.951 . S
H3490 C3515 0.951 . S
H3491 C3517 0.950 . S
H3492 C3518 0.950 . S
H3493 C3520 0.950 . S
H3494 C3523 0.950 . S
H3495 C3524 0.950 . S
H3496 C3526 0.950 . S
H3497 C3527 0.950 . S
C3498 H3480 0.951 . S
C3498 C3499 1.366 . S
C3498 C3500 1.388 . S
C3499 C3498 1.366 . S
C3499 C3503 1.385 . S
C3500 H3481 0.951 . S
C3500 C3498 1.388 . S
C3500 C3501 1.366 . S
C3501 C3500 1.366 . S
C3501 C3502 1.414 . S
C3501 C3504 1.499 . S
C3502 H3482 0.950 . S
C3502 C3501 1.414 . S
C3502 C3503 1.374 . S
C3503 H3483 0.950 . S
C3503 C3499 1.385 . S
C3503 C3502 1.374 . S
C3504 C3501 1.499 . S
C3504 C3505 1.373 . S
C3504 C3506 1.389 . S
C3505 H3484 0.950 . S
C3505 C3504 1.373 . S
C3505 C3521 1.377 . S
C3506 C3504 1.389 . S
C3506 C3507 1.524 . S
C3506 C3520 1.377 . S
C3507 C3506 1.524 . S
C3507 C3508 1.397 . S
C3507 C3512 1.363 . S
C3508 H3485 0.950 . S
C3508 C3507 1.397 . S
C3508 C3509 1.334 . S
C3509 H3486 0.950 . S
C3509 C3508 1.334 . S
C3509 C3510 1.287 . S
C3510 C3509 1.287 . S
C3510 C3511 1.524 . S
C3510 H3529 0.913 . S
C3511 H3487 0.950 . S
C3511 C3510 1.524 . S
C3511 C3512 1.415 . S
C3512 H3488 0.950 . S
C3512 C3507 1.363 . S
C3512 C3511 1.415 . S
C3513 H3489 0.951 . S
C3513 C3514 1.366 . S
C3513 C3515 1.388 . S
C3514 C3513 1.366 . S
C3514 C3518 1.385 . S
C3515 H3490 0.951 . S
C3515 C3513 1.388 . S
C3515 C3516 1.366 . S
C3516 C3515 1.366 . S
C3516 C3517 1.414 . S
C3516 C3519 1.499 . S
C3517 H3491 0.950 . S
C3517 C3516 1.414 . S
C3517 C3518 1.374 . S
C3518 H3492 0.950 . S
C3518 C3514 1.385 . S
C3518 C3517 1.374 . S
C3519 C3516 1.499 . S
C3519 C3520 1.373 . S
C3519 C3521 1.389 . S
C3520 H3493 0.950 . S
C3520 C3506 1.377 . S
C3520 C3519 1.373 . S
C3521 C3505 1.377 . S
C3521 C3519 1.389 . S
C3521 C3522 1.524 . S
C3522 C3521 1.524 . S
C3522 C3523 1.397 . S
C3522 C3527 1.363 . S
C3523 H3494 0.950 . S
C3523 C3522 1.397 . S
C3523 C3524 1.334 . S
C3524 H3495 0.950 . S
C3524 C3523 1.334 . S
C3524 C3525 1.287 . S
C3525 C3524 1.287 . S
C3525 C3526 1.524 . S
C3525 H3528 0.999 . S
C3526 H3496 0.950 . S
C3526 C3525 1.524 . S
C3526 C3527 1.415 . S
C3527 H3497 0.950 . S
C3527 C3522 1.363 . S
C3527 C3526 1.415 . S
H3528 C3525 0.999 . S
H3529 C3510 0.913 . S
H3530 C3548 0.951 . S
H3531 C3550 0.951 . S
H3532 C3552 0.950 . S
H3533 C3553 0.950 . S
H3534 C3555 0.950 . S
H3535 C3558 0.950 . S
H3536 C3559 0.950 . S
H3537 C3561 0.950 . S
H3538 C3562 0.950 . S
H3539 C3563 0.951 . S
H3540 C3565 0.951 . S
H3541 C3567 0.950 . S
H3542 C3568 0.950 . S
H3543 C3570 0.950 . S
H3544 C3573 0.950 . S
H3545 C3574 0.950 . S
H3546 C3576 0.950 . S
H3547 C3577 0.950 . S
C3548 H3530 0.951 . S
C3548 C3549 1.366 . S
C3548 C3550 1.388 . S
C3549 C3548 1.366 . S
C3549 C3553 1.385 . S
C3550 H3531 0.951 . S
C3550 C3548 1.388 . S
C3550 C3551 1.366 . S
C3551 C3550 1.366 . S
C3551 C3552 1.414 . S
C3551 C3554 1.499 . S
C3552 H3532 0.950 . S
C3552 C3551 1.414 . S
C3552 C3553 1.374 . S
C3553 H3533 0.950 . S
C3553 C3549 1.385 . S
C3553 C3552 1.374 . S
C3554 C3551 1.499 . S
C3554 C3555 1.373 . S
C3554 C3556 1.389 . S
C3555 H3534 0.950 . S
C3555 C3554 1.373 . S
C3555 C3571 1.377 . S
C3556 C3554 1.389 . S
C3556 C3557 1.524 . S
C3556 C3570 1.377 . S
C3557 C3556 1.524 . S
C3557 C3558 1.397 . S
C3557 C3562 1.363 . S
C3558 H3535 0.950 . S
C3558 C3557 1.397 . S
C3558 C3559 1.334 . S
C3559 H3536 0.950 . S
C3559 C3558 1.334 . S
C3559 C3560 1.287 . S
C3560 C3559 1.287 . S
C3560 C3561 1.524 . S
C3560 H3579 0.913 . S
C3561 H3537 0.950 . S
C3561 C3560 1.524 . S
C3561 C3562 1.415 . S
C3562 H3538 0.950 . S
C3562 C3557 1.363 . S
C3562 C3561 1.415 . S
C3563 H3539 0.951 . S
C3563 C3564 1.366 . S
C3563 C3565 1.388 . S
C3564 C3563 1.366 . S
C3564 C3568 1.385 . S
C3565 H3540 0.951 . S
C3565 C3563 1.388 . S
C3565 C3566 1.366 . S
C3566 C3565 1.366 . S
C3566 C3567 1.414 . S
C3566 C3569 1.499 . S
C3567 H3541 0.950 . S
C3567 C3566 1.414 . S
C3567 C3568 1.374 . S
C3568 H3542 0.950 . S
C3568 C3564 1.385 . S
C3568 C3567 1.374 . S
C3569 C3566 1.499 . S
C3569 C3570 1.373 . S
C3569 C3571 1.389 . S
C3570 H3543 0.950 . S
C3570 C3556 1.377 . S
C3570 C3569 1.373 . S
C3571 C3555 1.377 . S
C3571 C3569 1.389 . S
C3571 C3572 1.524 . S
C3572 C3571 1.524 . S
C3572 C3573 1.397 . S
C3572 C3577 1.363 . S
C3573 H3544 0.950 . S
C3573 C3572 1.397 . S
C3573 C3574 1.334 . S
C3574 H3545 0.950 . S
C3574 C3573 1.334 . S
C3574 C3575 1.287 . S
C3575 C3574 1.287 . S
C3575 C3576 1.524 . S
C3575 H3578 0.999 . S
C3576 H3546 0.950 . S
C3576 C3575 1.524 . S
C3576 C3577 1.415 . S
C3577 H3547 0.950 . S
C3577 C3572 1.363 . S
C3577 C3576 1.415 . S
H3578 C3575 0.999 . S
H3579 C3560 0.913 . S
H3580 C3598 0.951 . S
H3581 C3600 0.951 . S
H3582 C3602 0.950 . S
H3583 C3603 0.950 . S
H3584 C3605 0.950 . S
H3585 C3608 0.950 . S
H3586 C3609 0.950 . S
H3587 C3611 0.950 . S
H3588 C3612 0.950 . S
H3589 C3613 0.951 . S
H3590 C3615 0.951 . S
H3591 C3617 0.950 . S
H3592 C3618 0.950 . S
H3593 C3620 0.950 . S
H3594 C3623 0.950 . S
H3595 C3624 0.950 . S
H3596 C3626 0.950 . S
H3597 C3627 0.950 . S
C3598 H3580 0.951 . S
C3598 C3599 1.366 . S
C3598 C3600 1.388 . S
C3599 C3598 1.366 . S
C3599 C3603 1.385 . S
C3600 H3581 0.951 . S
C3600 C3598 1.388 . S
C3600 C3601 1.366 . S
C3601 C3600 1.366 . S
C3601 C3602 1.414 . S
C3601 C3604 1.499 . S
C3602 H3582 0.950 . S
C3602 C3601 1.414 . S
C3602 C3603 1.374 . S
C3603 H3583 0.950 . S
C3603 C3599 1.385 . S
C3603 C3602 1.374 . S
C3604 C3601 1.499 . S
C3604 C3605 1.373 . S
C3604 C3606 1.389 . S
C3605 H3584 0.950 . S
C3605 C3604 1.373 . S
C3605 C3621 1.377 . S
C3606 C3604 1.389 . S
C3606 C3607 1.524 . S
C3606 C3620 1.377 . S
C3607 C3606 1.524 . S
C3607 C3608 1.397 . S
C3607 C3612 1.363 . S
C3608 H3585 0.950 . S
C3608 C3607 1.397 . S
C3608 C3609 1.334 . S
C3609 H3586 0.950 . S
C3609 C3608 1.334 . S
C3609 C3610 1.287 . S
C3610 C3609 1.287 . S
C3610 C3611 1.524 . S
C3610 H3629 0.913 . S
C3611 H3587 0.950 . S
C3611 C3610 1.524 . S
C3611 C3612 1.415 . S
C3612 H3588 0.950 . S
C3612 C3607 1.363 . S
C3612 C3611 1.415 . S
C3613 H3589 0.951 . S
C3613 C3614 1.366 . S
C3613 C3615 1.388 . S
C3614 C3613 1.366 . S
C3614 C3618 1.385 . S
C3615 H3590 0.951 . S
C3615 C3613 1.388 . S
C3615 C3616 1.366 . S
C3616 C3615 1.366 . S
C3616 C3617 1.414 . S
C3616 C3619 1.499 . S
C3617 H3591 0.950 . S
C3617 C3616 1.414 . S
C3617 C3618 1.374 . S
C3618 H3592 0.950 . S
C3618 C3614 1.385 . S
C3618 C3617 1.374 . S
C3619 C3616 1.499 . S
C3619 C3620 1.373 . S
C3619 C3621 1.389 . S
C3620 H3593 0.950 . S
C3620 C3606 1.377 . S
C3620 C3619 1.373 . S
C3621 C3605 1.377 . S
C3621 C3619 1.389 . S
C3621 C3622 1.524 . S
C3622 C3621 1.524 . S
C3622 C3623 1.397 . S
C3622 C3627 1.363 . S
C3623 H3594 0.950 . S
C3623 C3622 1.397 . S
C3623 C3624 1.334 . S
C3624 H3595 0.950 . S
C3624 C3623 1.334 . S
C3624 C3625 1.287 . S
C3625 C3624 1.287 . S
C3625 C3626 1.524 . S
C3625 H3628 0.999 . S
C3626 H3596 0.950 . S
C3626 C3625 1.524 . S
C3626 C3627 1.415 . S
C3627 H3597 0.950 . S
C3627 C3622 1.363 . S
C3627 C3626 1.415 . S
H3628 C3625 0.999 . S
H3629 C3610 0.913 . S
H3630 C3648 0.951 . S
H3631 C3650 0.951 . S
H3632 C3652 0.950 . S
H3633 C3653 0.950 . S
H3634 C3655 0.950 . S
H3635 C3658 0.950 . S
H3636 C3659 0.950 . S
H3637 C3661 0.950 . S
H3638 C3662 0.950 . S
H3639 C3663 0.951 . S
H3640 C3665 0.951 . S
H3641 C3667 0.950 . S
H3642 C3668 0.950 . S
H3643 C3670 0.950 1_565 S
H3644 C3673 0.950 . S
H3645 C3674 0.950 . S
H3646 C3676 0.950 . S
H3647 C3677 0.950 . S
C3648 H3630 0.951 . S
C3648 C3649 1.366 . S
C3648 C3650 1.388 . S
C3649 C3648 1.366 . S
C3649 C3653 1.385 . S
C3650 H3631 0.951 . S
C3650 C3648 1.388 . S
C3650 C3651 1.366 . S
C3651 C3650 1.366 . S
C3651 C3652 1.414 . S
C3651 C3654 1.499 . S
C3652 H3632 0.950 . S
C3652 C3651 1.414 . S
C3652 C3653 1.374 . S
C3653 H3633 0.950 . S
C3653 C3649 1.385 . S
C3653 C3652 1.374 . S
C3654 C3651 1.499 . S
C3654 C3655 1.373 . S
C3654 C3656 1.389 . S
C3655 H3634 0.950 . S
C3655 C3654 1.373 . S
C3655 C3671 1.377 . S
C3656 C3654 1.389 . S
C3656 C3657 1.524 1_545 S
C3656 C3670 1.377 . S
C3657 C3656 1.524 1_565 S
C3657 C3658 1.397 . S
C3657 C3662 1.363 . S
C3658 H3635 0.950 . S
C3658 C3657 1.397 . S
C3658 C3659 1.334 . S
C3659 H3636 0.950 . S
C3659 C3658 1.334 . S
C3659 C3660 1.287 . S
C3660 C3659 1.287 . S
C3660 C3661 1.524 . S
C3660 H3679 0.913 . S
C3661 H3637 0.950 . S
C3661 C3660 1.524 . S
C3661 C3662 1.415 . S
C3662 H3638 0.950 . S
C3662 C3657 1.363 . S
C3662 C3661 1.415 . S
C3663 H3639 0.951 . S
C3663 C3664 1.366 . S
C3663 C3665 1.388 . S
C3664 C3663 1.366 . S
C3664 C3668 1.385 . S
C3665 H3640 0.951 . S
C3665 C3663 1.388 . S
C3665 C3666 1.366 . S
C3666 C3665 1.366 . S
C3666 C3667 1.414 . S
C3666 C3669 1.499 . S
C3667 H3641 0.950 . S
C3667 C3666 1.414 . S
C3667 C3668 1.374 . S
C3668 H3642 0.950 . S
C3668 C3664 1.385 . S
C3668 C3667 1.374 . S
C3669 C3666 1.499 . S
C3669 C3670 1.373 . S
C3669 C3671 1.389 . S
C3670 H3643 0.950 1_545 S
C3670 C3656 1.377 . S
C3670 C3669 1.373 . S
C3671 C3655 1.377 . S
C3671 C3669 1.389 . S
C3671 C3672 1.524 . S
C3672 C3671 1.524 . S
C3672 C3673 1.397 . S
C3672 C3677 1.363 . S
C3673 H3644 0.950 . S
C3673 C3672 1.397 . S
C3673 C3674 1.334 . S
C3674 H3645 0.950 . S
C3674 C3673 1.334 . S
C3674 C3675 1.287 . S
C3675 C3674 1.287 . S
C3675 C3676 1.524 . S
C3675 H3678 0.999 . S
C3676 H3646 0.950 . S
C3676 C3675 1.524 . S
C3676 C3677 1.415 . S
C3677 H3647 0.950 . S
C3677 C3672 1.363 . S
C3677 C3676 1.415 . S
H3678 C3675 0.999 . S
H3679 C3660 0.913 . S
H3680 C3698 0.951 1_455 S
H3681 C3700 0.951 1_455 S
H3682 C3702 0.950 . S
H3683 C3703 0.950 . S
H3684 C3705 0.950 . S
H3685 C3708 0.950 . S
H3686 C3709 0.950 . S
H3687 C3711 0.950 . S
H3688 C3712 0.950 . S
H3689 C3713 0.951 . S
H3690 C3715 0.951 . S
H3691 C3717 0.950 . S
H3692 C3718 0.950 . S
H3693 C3720 0.960 . S
H3694 C3723 0.950 1_455 S
H3695 C3724 0.950 1_455 S
H3696 C3726 0.950 . S
H3697 C3727 0.950 . S
C3698 H3680 0.951 1_655 S
C3698 C3699 1.366 . S
C3698 C3700 1.388 . S
C3699 C3698 1.366 . S
C3699 C3703 1.385 . S
C3700 H3681 0.951 1_655 S
C3700 C3698 1.388 . S
C3700 C3701 1.366 . S
C3701 C3700 1.366 . S
C3701 C3702 1.414 . S
C3701 C3704 1.499 . S
C3702 H3682 0.950 . S
C3702 C3701 1.414 . S
C3702 C3703 1.374 . S
C3703 H3683 0.950 . S
C3703 C3699 1.385 . S
C3703 C3702 1.374 . S
C3704 C3701 1.499 . S
C3704 C3705 1.373 . S
C3704 C3706 1.389 . S
C3705 H3684 0.950 . S
C3705 C3704 1.373 . S
C3705 C3721 1.377 . S
C3706 C3704 1.389 . S
C3706 C3707 1.524 . S
C3706 C3720 1.377 . S
C3707 C3706 1.524 . S
C3707 C3708 1.397 . S
C3707 C3712 1.363 1_655 S
C3708 H3685 0.950 . S
C3708 C3707 1.397 . S
C3708 C3709 1.334 . S
C3709 H3686 0.950 . S
C3709 C3708 1.334 . S
C3709 C3710 1.287 . S
C3710 C3709 1.287 . S
C3710 C3711 1.524 1_655 S
C3710 H3729 0.913 . S
C3711 H3687 0.950 . S
C3711 C3710 1.524 1_455 S
C3711 C3712 1.415 . S
C3712 H3688 0.950 . S
C3712 C3707 1.363 1_455 S
C3712 C3711 1.415 . S
C3713 H3689 0.951 . S
C3713 C3714 1.366 . S
C3713 C3715 1.388 . S
C3714 C3713 1.366 . S
C3714 C3718 1.385 1_655 S
C3715 H3690 0.951 . S
C3715 C3713 1.388 . S
C3715 C3716 1.366 . S
C3716 C3715 1.366 . S
C3716 C3717 1.414 1_655 S
C3716 C3719 1.499 . S
C3717 H3691 0.950 . S
C3717 C3716 1.414 1_455 S
C3717 C3718 1.374 . S
C3718 H3692 0.950 . S
C3718 C3714 1.385 1_455 S
C3718 C3717 1.374 . S
C3719 C3716 1.499 . S
C3719 C3720 1.373 . S
C3719 C3721 1.389 . S
C3720 H3693 0.960 . S
C3720 C3706 1.377 . S
C3720 C3719 1.373 . S
C3721 C3705 1.377 . S
C3721 C3719 1.389 . S
C3721 C3722 1.524 . S
C3722 C3721 1.524 . S
C3722 C3723 1.397 . S
C3722 C3727 1.363 . S
C3723 H3694 0.950 1_655 S
C3723 C3722 1.397 . S
C3723 C3724 1.334 . S
C3724 H3695 0.950 1_655 S
C3724 C3723 1.334 . S
C3724 C3725 1.287 . S
C3725 C3724 1.287 . S
C3725 C3726 1.524 . S
C3725 H3728 0.999 . S
C3726 H3696 0.950 . S
C3726 C3725 1.524 . S
C3726 C3727 1.415 . S
C3727 H3697 0.950 . S
C3727 C3722 1.363 . S
C3727 C3726 1.415 . S
H3728 C3725 0.999 . S
H3729 C3710 0.913 . S
H3730 C3748 0.951 . S
H3731 C3750 0.951 . S
H3732 C3752 0.950 . S
H3733 C3753 0.950 . S
H3734 C3755 0.950 . S
H3735 C3758 0.950 . S
H3736 C3759 0.950 . S
H3737 C3761 0.950 . S
H3738 C3762 0.950 . S
H3739 C3763 0.951 . S
H3740 C3765 0.951 . S
H3741 C3767 0.950 . S
H3742 C3768 0.950 . S
H3743 C3770 0.950 . S
H3744 C3773 0.950 . S
H3745 C3774 0.950 . S
H3746 C3776 0.950 . S
H3747 C3777 0.950 . S
C3748 H3730 0.951 . S
C3748 C3749 1.366 . S
C3748 C3750 1.388 . S
C3749 C3748 1.366 . S
C3749 C3753 1.385 . S
C3750 H3731 0.951 . S
C3750 C3748 1.388 . S
C3750 C3751 1.366 . S
C3751 C3750 1.366 . S
C3751 C3752 1.414 . S
C3751 C3754 1.499 . S
C3752 H3732 0.950 . S
C3752 C3751 1.414 . S
C3752 C3753 1.374 . S
C3753 H3733 0.950 . S
C3753 C3749 1.385 . S
C3753 C3752 1.374 . S
C3754 C3751 1.499 . S
C3754 C3755 1.373 . S
C3754 C3756 1.389 . S
C3755 H3734 0.950 . S
C3755 C3754 1.373 . S
C3755 C3771 1.377 . S
C3756 C3754 1.389 . S
C3756 C3757 1.524 . S
C3756 C3770 1.377 . S
C3757 C3756 1.524 . S
C3757 C3758 1.397 . S
C3757 C3762 1.363 . S
C3758 H3735 0.950 . S
C3758 C3757 1.397 . S
C3758 C3759 1.334 . S
C3759 H3736 0.950 . S
C3759 C3758 1.334 . S
C3759 C3760 1.287 . S
C3760 C3759 1.287 . S
C3760 C3761 1.524 . S
C3760 H3779 0.913 . S
C3761 H3737 0.950 . S
C3761 C3760 1.524 . S
C3761 C3762 1.415 . S
C3762 H3738 0.950 . S
C3762 C3757 1.363 . S
C3762 C3761 1.415 . S
C3763 H3739 0.951 . S
C3763 C3764 1.366 . S
C3763 C3765 1.388 . S
C3764 C3763 1.366 . S
C3764 C3768 1.385 . S
C3765 H3740 0.951 . S
C3765 C3763 1.388 . S
C3765 C3766 1.366 . S
C3766 C3765 1.366 . S
C3766 C3767 1.414 . S
C3766 C3769 1.499 . S
C3767 H3741 0.950 . S
C3767 C3766 1.414 . S
C3767 C3768 1.374 . S
C3768 H3742 0.950 . S
C3768 C3764 1.385 . S
C3768 C3767 1.374 . S
C3769 C3766 1.499 . S
C3769 C3770 1.373 . S
C3769 C3771 1.389 . S
C3770 H3743 0.950 . S
C3770 C3756 1.377 . S
C3770 C3769 1.373 . S
C3771 C3755 1.377 . S
C3771 C3769 1.389 . S
C3771 C3772 1.524 . S
C3772 C3771 1.524 . S
C3772 C3773 1.397 . S
C3772 C3777 1.363 . S
C3773 H3744 0.950 . S
C3773 C3772 1.397 . S
C3773 C3774 1.334 . S
C3774 H3745 0.950 . S
C3774 C3773 1.334 . S
C3774 C3775 1.287 . S
C3775 C3774 1.287 . S
C3775 C3776 1.524 . S
C3775 H3778 0.999 . S
C3776 H3746 0.950 . S
C3776 C3775 1.524 . S
C3776 C3777 1.415 . S
C3777 H3747 0.950 . S
C3777 C3772 1.363 . S
C3777 C3776 1.415 . S
H3778 C3775 0.999 . S
H3779 C3760 0.913 . S
H3780 C3798 0.951 . S
H3781 C3800 0.951 . S
H3782 C3802 0.950 . S
H3783 C3803 0.950 . S
H3784 C3805 0.950 . S
H3785 C3808 0.950 . S
H3786 C3809 0.950 . S
H3787 C3811 0.950 . S
H3788 C3812 0.950 . S
H3789 C3813 0.951 . S
H3790 C3815 0.951 . S
H3791 C3817 0.950 . S
H3792 C3818 0.950 . S
H3793 C3820 0.950 . S
H3794 C3823 0.950 . S
H3795 C3824 0.950 . S
H3796 C3826 0.950 . S
H3797 C3827 0.950 . S
C3798 H3780 0.951 . S
C3798 C3799 1.366 . S
C3798 C3800 1.388 . S
C3799 C3798 1.366 . S
C3799 C3803 1.385 . S
C3800 H3781 0.951 . S
C3800 C3798 1.388 . S
C3800 C3801 1.366 . S
C3801 C3800 1.366 . S
C3801 C3802 1.414 . S
C3801 C3804 1.499 . S
C3802 H3782 0.950 . S
C3802 C3801 1.414 . S
C3802 C3803 1.374 . S
C3803 H3783 0.950 . S
C3803 C3799 1.385 . S
C3803 C3802 1.374 . S
C3804 C3801 1.499 . S
C3804 C3805 1.373 . S
C3804 C3806 1.389 . S
C3805 H3784 0.950 . S
C3805 C3804 1.373 . S
C3805 C3821 1.377 . S
C3806 C3804 1.389 . S
C3806 C3807 1.524 . S
C3806 C3820 1.377 . S
C3807 C3806 1.524 . S
C3807 C3808 1.397 . S
C3807 C3812 1.363 . S
C3808 H3785 0.950 . S
C3808 C3807 1.397 . S
C3808 C3809 1.334 . S
C3809 H3786 0.950 . S
C3809 C3808 1.334 . S
C3809 C3810 1.287 . S
C3810 C3809 1.287 . S
C3810 C3811 1.524 . S
C3810 H3829 0.913 . S
C3811 H3787 0.950 . S
C3811 C3810 1.524 . S
C3811 C3812 1.415 . S
C3812 H3788 0.950 . S
C3812 C3807 1.363 . S
C3812 C3811 1.415 . S
C3813 H3789 0.951 . S
C3813 C3814 1.366 . S
C3813 C3815 1.388 . S
C3814 C3813 1.366 . S
C3814 C3818 1.385 . S
C3815 H3790 0.951 . S
C3815 C3813 1.388 . S
C3815 C3816 1.366 . S
C3816 C3815 1.366 . S
C3816 C3817 1.414 . S
C3816 C3819 1.499 . S
C3817 H3791 0.950 . S
C3817 C3816 1.414 . S
C3817 C3818 1.374 . S
C3818 H3792 0.950 . S
C3818 C3814 1.385 . S
C3818 C3817 1.374 . S
C3819 C3816 1.499 . S
C3819 C3820 1.373 . S
C3819 C3821 1.389 . S
C3820 H3793 0.950 . S
C3820 C3806 1.377 . S
C3820 C3819 1.373 . S
C3821 C3805 1.377 . S
C3821 C3819 1.389 . S
C3821 C3822 1.524 . S
C3822 C3821 1.524 . S
C3822 C3823 1.397 . S
C3822 C3827 1.363 . S
C3823 H3794 0.950 . S
C3823 C3822 1.397 . S
C3823 C3824 1.334 . S
C3824 H3795 0.950 . S
C3824 C3823 1.334 . S
C3824 C3825 1.287 . S
C3825 C3824 1.287 . S
C3825 C3826 1.524 . S
C3825 H3828 0.999 . S
C3826 H3796 0.950 . S
C3826 C3825 1.524 . S
C3826 C3827 1.415 . S
C3827 H3797 0.950 . S
C3827 C3822 1.363 . S
C3827 C3826 1.415 . S
H3828 C3825 0.999 . S
H3829 C3810 0.913 . S
H3830 C3848 0.951 . S
H3831 C3850 0.951 . S
H3832 C3852 0.950 . S
H3833 C3853 0.950 . S
H3834 C3855 0.950 . S
H3835 C3858 0.950 . S
H3836 C3859 0.950 . S
H3837 C3861 0.950 . S
H3838 C3862 0.950 . S
H3839 C3863 0.951 . S
H3840 C3865 0.951 . S
H3841 C3867 0.950 . S
H3842 C3868 0.950 . S
H3843 C3870 0.950 . S
H3844 C3873 0.950 . S
H3845 C3874 0.950 . S
H3846 C3876 0.950 . S
H3847 C3877 0.950 . S
C3848 H3830 0.951 . S
C3848 C3849 1.366 . S
C3848 C3850 1.388 . S
C3849 C3848 1.366 . S
C3849 C3853 1.385 . S
C3850 H3831 0.951 . S
C3850 C3848 1.388 . S
C3850 C3851 1.366 . S
C3851 C3850 1.366 . S
C3851 C3852 1.414 . S
C3851 C3854 1.499 . S
C3852 H3832 0.950 . S
C3852 C3851 1.414 . S
C3852 C3853 1.374 . S
C3853 H3833 0.950 . S
C3853 C3849 1.385 . S
C3853 C3852 1.374 . S
C3854 C3851 1.499 . S
C3854 C3855 1.373 . S
C3854 C3856 1.389 . S
C3855 H3834 0.950 . S
C3855 C3854 1.373 . S
C3855 C3871 1.377 . S
C3856 C3854 1.389 . S
C3856 C3857 1.524 . S
C3856 C3870 1.377 . S
C3857 C3856 1.524 . S
C3857 C3858 1.397 . S
C3857 C3862 1.363 . S
C3858 H3835 0.950 . S
C3858 C3857 1.397 . S
C3858 C3859 1.334 . S
C3859 H3836 0.950 . S
C3859 C3858 1.334 . S
C3859 C3860 1.287 . S
C3860 C3859 1.287 . S
C3860 C3861 1.524 . S
C3860 H3879 0.913 . S
C3861 H3837 0.950 . S
C3861 C3860 1.524 . S
C3861 C3862 1.415 . S
C3862 H3838 0.950 . S
C3862 C3857 1.363 . S
C3862 C3861 1.415 . S
C3863 H3839 0.951 . S
C3863 C3864 1.366 . S
C3863 C3865 1.388 . S
C3864 C3863 1.366 . S
C3864 C3868 1.385 . S
C3865 H3840 0.951 . S
C3865 C3863 1.388 . S
C3865 C3866 1.366 . S
C3866 C3865 1.366 . S
C3866 C3867 1.414 . S
C3866 C3869 1.499 . S
C3867 H3841 0.950 . S
C3867 C3866 1.414 . S
C3867 C3868 1.374 . S
C3868 H3842 0.950 . S
C3868 C3864 1.385 . S
C3868 C3867 1.374 . S
C3869 C3866 1.499 . S
C3869 C3870 1.373 . S
C3869 C3871 1.389 . S
C3870 H3843 0.950 . S
C3870 C3856 1.377 . S
C3870 C3869 1.373 . S
C3871 C3855 1.377 . S
C3871 C3869 1.389 . S
C3871 C3872 1.524 . S
C3872 C3871 1.524 . S
C3872 C3873 1.397 . S
C3872 C3877 1.363 . S
C3873 H3844 0.950 . S
C3873 C3872 1.397 . S
C3873 C3874 1.334 . S
C3874 H3845 0.950 . S
C3874 C3873 1.334 . S
C3874 C3875 1.287 . S
C3875 C3874 1.287 . S
C3875 C3876 1.524 . S
C3875 H3878 0.999 . S
C3876 H3846 0.950 . S
C3876 C3875 1.524 . S
C3876 C3877 1.415 . S
C3877 H3847 0.950 . S
C3877 C3872 1.363 . S
C3877 C3876 1.415 . S
H3878 C3875 0.999 . S
H3879 C3860 0.913 . S
H3880 C3898 0.951 . S
H3881 C3900 0.951 . S
H3882 C3902 0.950 . S
H3883 C3903 0.950 . S
H3884 C3905 0.950 . S
H3885 C3908 0.950 . S
H3886 C3909 0.950 . S
H3887 C3911 0.950 . S
H3888 C3912 0.950 . S
H3889 C3913 0.951 . S
H3890 C3915 0.951 . S
H3891 C3917 0.950 . S
H3892 C3918 0.950 . S
H3893 C3920 0.950 . S
H3894 C3923 0.950 . S
H3895 C3924 0.950 . S
H3896 C3926 0.950 . S
H3897 C3927 0.950 . S
C3898 H3880 0.951 . S
C3898 C3899 1.366 . S
C3898 C3900 1.388 . S
C3899 C3898 1.366 . S
C3899 C3903 1.385 . S
C3900 H3881 0.951 . S
C3900 C3898 1.388 . S
C3900 C3901 1.366 . S
C3901 C3900 1.366 . S
C3901 C3902 1.414 . S
C3901 C3904 1.499 . S
C3902 H3882 0.950 . S
C3902 C3901 1.414 . S
C3902 C3903 1.374 . S
C3903 H3883 0.950 . S
C3903 C3899 1.385 . S
C3903 C3902 1.374 . S
C3904 C3901 1.499 . S
C3904 C3905 1.373 . S
C3904 C3906 1.389 . S
C3905 H3884 0.950 . S
C3905 C3904 1.373 . S
C3905 C3921 1.377 . S
C3906 C3904 1.389 . S
C3906 C3907 1.524 . S
C3906 C3920 1.377 . S
C3907 C3906 1.524 . S
C3907 C3908 1.397 . S
C3907 C3912 1.363 . S
C3908 H3885 0.950 . S
C3908 C3907 1.397 . S
C3908 C3909 1.334 . S
C3909 H3886 0.950 . S
C3909 C3908 1.334 . S
C3909 C3910 1.287 . S
C3910 C3909 1.287 . S
C3910 C3911 1.524 . S
C3910 H3929 0.913 . S
C3911 H3887 0.950 . S
C3911 C3910 1.524 . S
C3911 C3912 1.415 . S
C3912 H3888 0.950 . S
C3912 C3907 1.363 . S
C3912 C3911 1.415 . S
C3913 H3889 0.951 . S
C3913 C3914 1.366 . S
C3913 C3915 1.388 . S
C3914 C3913 1.366 . S
C3914 C3918 1.385 . S
C3915 H3890 0.951 . S
C3915 C3913 1.388 . S
C3915 C3916 1.366 . S
C3916 C3915 1.366 . S
C3916 C3917 1.414 . S
C3916 C3919 1.499 . S
C3917 H3891 0.950 . S
C3917 C3916 1.414 . S
C3917 C3918 1.374 . S
C3918 H3892 0.950 . S
C3918 C3914 1.385 . S
C3918 C3917 1.374 . S
C3919 C3916 1.499 . S
C3919 C3920 1.373 . S
C3919 C3921 1.389 . S
C3920 H3893 0.950 . S
C3920 C3906 1.377 . S
C3920 C3919 1.373 . S
C3921 C3905 1.377 . S
C3921 C3919 1.389 . S
C3921 C3922 1.524 . S
C3922 C3921 1.524 . S
C3922 C3923 1.397 . S
C3922 C3927 1.363 . S
C3923 H3894 0.950 . S
C3923 C3922 1.397 . S
C3923 C3924 1.334 . S
C3924 H3895 0.950 . S
C3924 C3923 1.334 . S
C3924 C3925 1.287 . S
C3925 C3924 1.287 . S
C3925 C3926 1.524 . S
C3925 H3928 0.999 . S
C3926 H3896 0.950 . S
C3926 C3925 1.524 . S
C3926 C3927 1.415 . S
C3927 H3897 0.950 . S
C3927 C3922 1.363 . S
C3927 C3926 1.415 . S
H3928 C3925 0.999 . S
H3929 C3910 0.913 . S
H3930 C3948 0.951 . S
H3931 C3950 0.951 . S
H3932 C3952 0.950 . S
H3933 C3953 0.950 . S
H3934 C3955 0.950 . S
H3935 C3958 0.950 . S
H3936 C3959 0.950 . S
H3937 C3961 0.950 . S
H3938 C3962 0.950 . S
H3939 C3963 0.951 . S
H3940 C3965 0.951 . S
H3941 C3967 0.950 . S
H3942 C3968 0.950 . S
H3943 C3970 0.950 . S
H3944 C3973 0.950 . S
H3945 C3974 0.950 . S
H3946 C3976 0.950 . S
H3947 C3977 0.950 . S
C3948 H3930 0.951 . S
C3948 C3949 1.366 . S
C3948 C3950 1.388 . S
C3949 C3948 1.366 . S
C3949 C3953 1.385 . S
C3950 H3931 0.951 . S
C3950 C3948 1.388 . S
C3950 C3951 1.366 . S
C3951 C3950 1.366 . S
C3951 C3952 1.414 . S
C3951 C3954 1.499 . S
C3952 H3932 0.950 . S
C3952 C3951 1.414 . S
C3952 C3953 1.374 . S
C3953 H3933 0.950 . S
C3953 C3949 1.385 . S
C3953 C3952 1.374 . S
C3954 C3951 1.499 . S
C3954 C3955 1.373 . S
C3954 C3956 1.389 . S
C3955 H3934 0.950 . S
C3955 C3954 1.373 . S
C3955 C3971 1.377 . S
C3956 C3954 1.389 . S
C3956 C3957 1.524 . S
C3956 C3970 1.377 . S
C3957 C3956 1.524 . S
C3957 C3958 1.397 . S
C3957 C3962 1.363 . S
C3958 H3935 0.950 . S
C3958 C3957 1.397 . S
C3958 C3959 1.334 . S
C3959 H3936 0.950 . S
C3959 C3958 1.334 . S
C3959 C3960 1.287 . S
C3960 C3959 1.287 . S
C3960 C3961 1.524 . S
C3960 H3979 0.913 . S
C3961 H3937 0.950 . S
C3961 C3960 1.524 . S
C3961 C3962 1.415 . S
C3962 H3938 0.950 . S
C3962 C3957 1.363 . S
C3962 C3961 1.415 . S
C3963 H3939 0.951 . S
C3963 C3964 1.366 . S
C3963 C3965 1.388 . S
C3964 C3963 1.366 . S
C3964 C3968 1.385 . S
C3965 H3940 0.951 . S
C3965 C3963 1.388 . S
C3965 C3966 1.366 . S
C3966 C3965 1.366 . S
C3966 C3967 1.414 . S
C3966 C3969 1.499 . S
C3967 H3941 0.950 . S
C3967 C3966 1.414 . S
C3967 C3968 1.374 . S
C3968 H3942 0.950 . S
C3968 C3964 1.385 . S
C3968 C3967 1.374 . S
C3969 C3966 1.499 . S
C3969 C3970 1.373 . S
C3969 C3971 1.389 . S
C3970 H3943 0.950 . S
C3970 C3956 1.377 . S
C3970 C3969 1.373 . S
C3971 C3955 1.377 . S
C3971 C3969 1.389 . S
C3971 C3972 1.524 . S
C3972 C3971 1.524 . S
C3972 C3973 1.397 . S
C3972 C3977 1.363 . S
C3973 H3944 0.950 . S
C3973 C3972 1.397 . S
C3973 C3974 1.334 . S
C3974 H3945 0.950 . S
C3974 C3973 1.334 . S
C3974 C3975 1.287 . S
C3975 C3974 1.287 . S
C3975 C3976 1.524 . S
C3975 H3978 0.999 . S
C3976 H3946 0.950 . S
C3976 C3975 1.524 . S
C3976 C3977 1.415 . S
C3977 H3947 0.950 . S
C3977 C3972 1.363 . S
C3977 C3976 1.415 . S
H3978 C3975 0.999 . S
H3979 C3960 0.913 . S
H3980 C3998 0.951 . S
H3981 C4000 0.951 . S
H3982 C4002 0.950 . S
H3983 C4003 0.950 . S
H3984 C4005 0.950 . S
H3985 C4008 0.950 . S
H3986 C4009 0.950 . S
H3987 C4011 0.950 . S
H3988 C4012 0.950 . S
H3989 C4013 0.951 . S
H3990 C4015 0.951 . S
H3991 C4017 0.950 . S
H3992 C4018 0.950 . S
H3993 C4020 0.950 . S
H3994 C4023 0.950 . S
H3995 C4024 0.950 . S
H3996 C4026 0.950 . S
H3997 C4027 0.950 . S
C3998 H3980 0.951 . S
C3998 C3999 1.366 . S
C3998 C4000 1.388 . S
C3999 C3998 1.366 . S
C3999 C4003 1.385 . S
C4000 H3981 0.951 . S
C4000 C3998 1.388 . S
C4000 C4001 1.366 . S
C4001 C4000 1.366 . S
C4001 C4002 1.414 . S
C4001 C4004 1.499 . S
C4002 H3982 0.950 . S
C4002 C4001 1.414 . S
C4002 C4003 1.374 . S
C4003 H3983 0.950 . S
C4003 C3999 1.385 . S
C4003 C4002 1.374 . S
C4004 C4001 1.499 . S
C4004 C4005 1.373 . S
C4004 C4006 1.389 . S
C4005 H3984 0.950 . S
C4005 C4004 1.373 . S
C4005 C4021 1.377 . S
C4006 C4004 1.389 . S
C4006 C4007 1.524 . S
C4006 C4020 1.377 . S
C4007 C4006 1.524 . S
C4007 C4008 1.397 . S
C4007 C4012 1.363 . S
C4008 H3985 0.950 . S
C4008 C4007 1.397 . S
C4008 C4009 1.334 . S
C4009 H3986 0.950 . S
C4009 C4008 1.334 . S
C4009 C4010 1.287 . S
C4010 C4009 1.287 . S
C4010 C4011 1.524 . S
C4010 H4029 0.913 . S
C4011 H3987 0.950 . S
C4011 C4010 1.524 . S
C4011 C4012 1.415 . S
C4012 H3988 0.950 . S
C4012 C4007 1.363 . S
C4012 C4011 1.415 . S
C4013 H3989 0.951 . S
C4013 C4014 1.366 . S
C4013 C4015 1.388 . S
C4014 C4013 1.366 . S
C4014 C4018 1.385 . S
C4015 H3990 0.951 . S
C4015 C4013 1.388 . S
C4015 C4016 1.366 . S
C4016 C4015 1.366 . S
C4016 C4017 1.414 . S
C4016 C4019 1.499 . S
C4017 H3991 0.950 . S
C4017 C4016 1.414 . S
C4017 C4018 1.374 . S
C4018 H3992 0.950 . S
C4018 C4014 1.385 . S
C4018 C4017 1.374 . S
C4019 C4016 1.499 . S
C4019 C4020 1.373 . S
C4019 C4021 1.389 . S
C4020 H3993 0.950 . S
C4020 C4006 1.377 . S
C4020 C4019 1.373 . S
C4021 C4005 1.377 . S
C4021 C4019 1.389 . S
C4021 C4022 1.524 . S
C4022 C4021 1.524 . S
C4022 C4023 1.397 . S
C4022 C4027 1.363 . S
C4023 H3994 0.950 . S
C4023 C4022 1.397 . S
C4023 C4024 1.334 . S
C4024 H3995 0.950 . S
C4024 C4023 1.334 . S
C4024 C4025 1.287 . S
C4025 C4024 1.287 . S
C4025 C4026 1.524 . S
C4025 H4028 0.999 . S
C4026 H3996 0.950 . S
C4026 C4025 1.524 . S
C4026 C4027 1.415 . S
C4027 H3997 0.950 . S
C4027 C4022 1.363 . S
C4027 C4026 1.415 . S
H4028 C4025 0.999 . S
H4029 C4010 0.913 . S
H4030 C4048 0.951 . S
H4031 C4050 0.951 . S
H4032 C4052 0.950 . S
H4033 C4053 0.950 . S
H4034 C4055 0.950 . S
H4035 C4058 0.950 . S
H4036 C4059 0.950 . S
H4037 C4061 0.950 . S
H4038 C4062 0.950 . S
H4039 C4063 0.951 . S
H4040 C4065 0.951 . S
H4041 C4067 0.950 . S
H4042 C4068 0.950 . S
H4043 C4070 0.950 . S
H4044 C4073 0.950 . S
H4045 C4074 0.950 . S
H4046 C4076 0.950 . S
H4047 C4077 0.950 . S
C4048 H4030 0.951 . S
C4048 C4049 1.366 . S
C4048 C4050 1.388 . S
C4049 C4048 1.366 . S
C4049 C4053 1.385 . S
C4050 H4031 0.951 . S
C4050 C4048 1.388 . S
C4050 C4051 1.366 . S
C4051 C4050 1.366 . S
C4051 C4052 1.414 . S
C4051 C4054 1.499 . S
C4052 H4032 0.950 . S
C4052 C4051 1.414 . S
C4052 C4053 1.374 . S
C4053 H4033 0.950 . S
C4053 C4049 1.385 . S
C4053 C4052 1.374 . S
C4054 C4051 1.499 . S
C4054 C4055 1.373 . S
C4054 C4056 1.389 . S
C4055 H4034 0.950 . S
C4055 C4054 1.373 . S
C4055 C4071 1.377 . S
C4056 C4054 1.389 . S
C4056 C4057 1.524 . S
C4056 C4070 1.377 . S
C4057 C4056 1.524 . S
C4057 C4058 1.397 . S
C4057 C4062 1.363 . S
C4058 H4035 0.950 . S
C4058 C4057 1.397 . S
C4058 C4059 1.334 . S
C4059 H4036 0.950 . S
C4059 C4058 1.334 . S
C4059 C4060 1.287 . S
C4060 C4059 1.287 . S
C4060 C4061 1.524 . S
C4060 H4079 0.913 . S
C4061 H4037 0.950 . S
C4061 C4060 1.524 . S
C4061 C4062 1.415 . S
C4062 H4038 0.950 . S
C4062 C4057 1.363 . S
C4062 C4061 1.415 . S
C4063 H4039 0.951 . S
C4063 C4064 1.366 . S
C4063 C4065 1.388 . S
C4064 C4063 1.366 . S
C4064 C4068 1.385 . S
C4065 H4040 0.951 . S
C4065 C4063 1.388 . S
C4065 C4066 1.366 . S
C4066 C4065 1.366 . S
C4066 C4067 1.414 . S
C4066 C4069 1.499 . S
C4067 H4041 0.950 . S
C4067 C4066 1.414 . S
C4067 C4068 1.374 . S
C4068 H4042 0.950 . S
C4068 C4064 1.385 . S
C4068 C4067 1.374 . S
C4069 C4066 1.499 . S
C4069 C4070 1.373 . S
C4069 C4071 1.389 . S
C4070 H4043 0.950 . S
C4070 C4056 1.377 . S
C4070 C4069 1.373 . S
C4071 C4055 1.377 . S
C4071 C4069 1.389 . S
C4071 C4072 1.524 . S
C4072 C4071 1.524 . S
C4072 C4073 1.397 . S
C4072 C4077 1.363 . S
C4073 H4044 0.950 . S
C4073 C4072 1.397 . S
C4073 C4074 1.334 . S
C4074 H4045 0.950 . S
C4074 C4073 1.334 . S
C4074 C4075 1.287 . S
C4075 C4074 1.287 . S
C4075 C4076 1.524 . S
C4075 H4078 0.999 . S
C4076 H4046 0.950 . S
C4076 C4075 1.524 . S
C4076 C4077 1.415 . S
C4077 H4047 0.950 . S
C4077 C4072 1.363 . S
C4077 C4076 1.415 . S
H4078 C4075 0.999 . S
H4079 C4060 0.913 . S
H4080 C4098 0.951 1_455 S
H4081 C4100 0.951 1_455 S
H4082 C4102 0.950 . S
H4083 C4103 0.950 . S
H4084 C4105 0.950 . S
H4085 C4108 0.950 . S
H4086 C4109 0.950 . S
H4087 C4111 1.009 . S
H4088 C4112 0.950 . S
H4089 C4113 0.951 . S
H4090 C4115 0.951 . S
H4091 C4117 0.950 . S
H4092 C4118 0.950 . S
H4093 C4120 0.950 . S
H4094 C4123 0.950 . S
H4095 C4124 0.950 . S
H4096 C4126 0.950 . S
H4097 C4127 0.950 . S
C4098 H4080 0.951 1_655 S
C4098 C4099 1.366 . S
C4098 C4100 1.388 . S
C4099 C4098 1.366 . S
C4099 C4103 1.385 . S
C4100 H4081 0.951 1_655 S
C4100 C4098 1.388 . S
C4100 C4101 1.366 . S
C4101 C4100 1.366 . S
C4101 C4102 1.414 . S
C4101 C4104 1.499 . S
C4102 H4082 0.950 . S
C4102 C4101 1.414 . S
C4102 C4103 1.374 . S
C4103 H4083 0.950 . S
C4103 C4099 1.385 . S
C4103 C4102 1.374 . S
C4104 C4101 1.499 . S
C4104 C4105 1.373 . S
C4104 C4106 1.389 . S
C4105 H4084 0.950 . S
C4105 C4104 1.373 . S
C4105 C4121 1.377 . S
C4106 C4104 1.389 . S
C4106 C4107 1.524 . S
C4106 C4120 1.377 . S
C4107 C4106 1.524 . S
C4107 C4108 1.397 . S
C4107 C4112 1.363 1_655 S
C4108 H4085 0.950 . S
C4108 C4107 1.397 . S
C4108 C4109 1.334 . S
C4109 H4086 0.950 . S
C4109 C4108 1.334 . S
C4109 C4110 1.287 . S
C4110 C4109 1.287 . S
C4110 C4111 1.454 1_655 S
C4110 H4129 0.913 . S
C4111 H4087 1.009 . S
C4111 C4110 1.454 1_455 S
C4111 C4112 1.420 . S
C4112 H4088 0.950 . S
C4112 C4107 1.363 1_455 S
C4112 C4111 1.420 . S
C4113 H4089 0.951 . S
C4113 C4114 1.366 . S
C4113 C4115 1.388 . S
C4114 C4113 1.366 . S
C4114 C4118 1.385 1_655 S
C4115 H4090 0.951 . S
C4115 C4113 1.388 . S
C4115 C4116 1.366 . S
C4116 C4115 1.366 . S
C4116 C4117 1.414 1_655 S
C4116 C4119 1.499 . S
C4117 H4091 0.950 . S
C4117 C4116 1.414 1_455 S
C4117 C4118 1.374 . S
C4118 H4092 0.950 . S
C4118 C4114 1.385 1_455 S
C4118 C4117 1.374 . S
C4119 C4116 1.499 . S
C4119 C4120 1.373 . S
C4119 C4121 1.389 . S
C4120 H4093 0.950 . S
C4120 C4106 1.377 . S
C4120 C4119 1.373 . S
C4121 C4105 1.377 . S
C4121 C4119 1.389 . S
C4121 C4122 1.524 . S
C4122 C4121 1.524 . S
C4122 C4123 1.397 1_655 S
C4122 C4127 1.363 . S
C4123 H4094 0.950 . S
C4123 C4122 1.397 1_455 S
C4123 C4124 1.334 . S
C4124 H4095 0.950 . S
C4124 C4123 1.334 . S
C4124 C4125 1.287 1_455 S
C4125 C4124 1.287 1_655 S
C4125 C4126 1.524 . S
C4125 H4128 0.999 . S
C4126 H4096 0.950 . S
C4126 C4125 1.524 . S
C4126 C4127 1.415 . S
C4127 H4097 0.950 . S
C4127 C4122 1.363 . S
C4127 C4126 1.415 . S
H4128 C4125 0.999 . S
H4129 C4110 0.913 . S
H4130 C4148 0.951 . S
H4131 C4150 0.951 . S
H4132 C4152 0.950 . S
H4133 C4153 0.950 . S
H4134 C4155 0.950 . S
H4135 C4158 0.950 . S
H4136 C4159 0.950 . S
H4137 C4161 0.950 . S
H4138 C4162 0.950 . S
H4139 C4163 0.951 . S
H4140 C4165 0.951 . S
H4141 C4167 0.950 . S
H4142 C4168 0.950 . S
H4143 C4170 0.950 . S
H4144 C4173 0.950 . S
H4145 C4174 0.950 . S
H4146 C4176 0.950 . S
H4147 C4177 0.950 . S
C4148 H4130 0.951 . S
C4148 C4149 1.366 . S
C4148 C4150 1.388 . S
C4149 C4148 1.366 . S
C4149 C4153 1.385 . S
C4150 H4131 0.951 . S
C4150 C4148 1.388 . S
C4150 C4151 1.366 . S
C4151 C4150 1.366 . S
C4151 C4152 1.414 . S
C4151 C4154 1.499 . S
C4152 H4132 0.950 . S
C4152 C4151 1.414 . S
C4152 C4153 1.374 . S
C4153 H4133 0.950 . S
C4153 C4149 1.385 . S
C4153 C4152 1.374 . S
C4154 C4151 1.499 . S
C4154 C4155 1.373 . S
C4154 C4156 1.389 . S
C4155 H4134 0.950 . S
C4155 C4154 1.373 . S
C4155 C4171 1.377 . S
C4156 C4154 1.389 . S
C4156 C4157 1.524 . S
C4156 C4170 1.377 . S
C4157 C4156 1.524 . S
C4157 C4158 1.397 . S
C4157 C4162 1.363 . S
C4158 H4135 0.950 . S
C4158 C4157 1.397 . S
C4158 C4159 1.334 . S
C4159 H4136 0.950 . S
C4159 C4158 1.334 . S
C4159 C4160 1.287 . S
C4160 C4159 1.287 . S
C4160 C4161 1.524 . S
C4160 H4179 0.913 . S
C4161 H4137 0.950 . S
C4161 C4160 1.524 . S
C4161 C4162 1.415 . S
C4162 H4138 0.950 . S
C4162 C4157 1.363 . S
C4162 C4161 1.415 . S
C4163 H4139 0.951 . S
C4163 C4164 1.366 . S
C4163 C4165 1.388 . S
C4164 C4163 1.366 . S
C4164 C4168 1.385 . S
C4165 H4140 0.951 . S
C4165 C4163 1.388 . S
C4165 C4166 1.366 . S
C4166 C4165 1.366 . S
C4166 C4167 1.414 . S
C4166 C4169 1.499 . S
C4167 H4141 0.950 . S
C4167 C4166 1.414 . S
C4167 C4168 1.374 . S
C4168 H4142 0.950 . S
C4168 C4164 1.385 . S
C4168 C4167 1.374 . S
C4169 C4166 1.499 . S
C4169 C4170 1.373 . S
C4169 C4171 1.389 . S
C4170 H4143 0.950 . S
C4170 C4156 1.377 . S
C4170 C4169 1.373 . S
C4171 C4155 1.377 . S
C4171 C4169 1.389 . S
C4171 C4172 1.524 . S
C4172 C4171 1.524 . S
C4172 C4173 1.397 . S
C4172 C4177 1.363 . S
C4173 H4144 0.950 . S
C4173 C4172 1.397 . S
C4173 C4174 1.334 . S
C4174 H4145 0.950 . S
C4174 C4173 1.334 . S
C4174 C4175 1.287 . S
C4175 C4174 1.287 . S
C4175 C4176 1.524 . S
C4175 H4178 0.999 . S
C4176 H4146 0.950 . S
C4176 C4175 1.524 . S
C4176 C4177 1.415 . S
C4177 H4147 0.950 . S
C4177 C4172 1.363 . S
C4177 C4176 1.415 . S
H4178 C4175 0.999 . S
H4179 C4160 0.913 . S
H4180 C4198 0.951 . S
H4181 C4200 0.944 1_565 S
H4182 C4202 0.950 . S
H4183 C4203 0.950 . S
H4184 C4205 0.950 . S
H4185 C4208 0.950 . S
H4186 C4209 0.950 . S
H4187 C4211 0.950 . S
H4188 C4212 0.950 . S
H4189 C4213 0.951 . S
H4190 C4215 0.951 . S
H4191 C4217 0.950 . S
H4192 C4218 0.950 . S
H4193 C4220 0.950 . S
H4194 C4223 0.950 . S
H4195 C4224 0.950 . S
H4196 C4226 0.950 . S
H4197 C4227 0.950 . S
C4198 H4180 0.951 . S
C4198 C4199 1.366 . S
C4198 C4200 1.388 . S
C4199 C4198 1.366 . S
C4199 C4203 1.385 . S
C4200 H4181 0.944 1_545 S
C4200 C4198 1.388 . S
C4200 C4201 1.366 . S
C4201 C4200 1.366 . S
C4201 C4202 1.414 . S
C4201 C4204 1.499 . S
C4202 H4182 0.950 . S
C4202 C4201 1.414 . S
C4202 C4203 1.374 . S
C4203 H4183 0.950 . S
C4203 C4199 1.385 . S
C4203 C4202 1.374 . S
C4204 C4201 1.499 . S
C4204 C4205 1.373 . S
C4204 C4206 1.389 . S
C4205 H4184 0.950 . S
C4205 C4204 1.373 . S
C4205 C4221 1.377 . S
C4206 C4204 1.389 . S
C4206 C4207 1.524 . S
C4206 C4220 1.377 . S
C4207 C4206 1.524 . S
C4207 C4208 1.397 . S
C4207 C4212 1.363 . S
C4208 H4185 0.950 . S
C4208 C4207 1.397 . S
C4208 C4209 1.334 . S
C4209 H4186 0.950 . S
C4209 C4208 1.334 . S
C4209 C4210 1.287 . S
C4210 C4209 1.287 . S
C4210 C4211 1.524 . S
C4210 H4229 0.913 . S
C4211 H4187 0.950 . S
C4211 C4210 1.524 . S
C4211 C4212 1.415 . S
C4212 H4188 0.950 . S
C4212 C4207 1.363 . S
C4212 C4211 1.415 . S
C4213 H4189 0.951 . S
C4213 C4214 1.366 . S
C4213 C4215 1.388 . S
C4214 C4213 1.366 . S
C4214 C4218 1.385 1_545 S
C4215 H4190 0.951 . S
C4215 C4213 1.388 . S
C4215 C4216 1.366 . S
C4216 C4215 1.366 . S
C4216 C4217 1.414 1_545 S
C4216 C4219 1.499 . S
C4217 H4191 0.950 . S
C4217 C4216 1.414 1_565 S
C4217 C4218 1.374 . S
C4218 H4192 0.950 . S
C4218 C4214 1.385 1_565 S
C4218 C4217 1.374 . S
C4219 C4216 1.499 . S
C4219 C4220 1.373 . S
C4219 C4221 1.389 . S
C4220 H4193 0.950 . S
C4220 C4206 1.377 . S
C4220 C4219 1.373 . S
C4221 C4205 1.377 . S
C4221 C4219 1.389 . S
C4221 C4222 1.522 . S
C4222 C4221 1.522 . S
C4222 C4223 1.401 1_545 S
C4222 C4227 1.361 . S
C4223 H4194 0.950 . S
C4223 C4222 1.401 1_565 S
C4223 C4224 1.334 . S
C4224 H4195 0.950 . S
C4224 C4223 1.334 . S
C4224 C4225 1.287 . S
C4225 C4224 1.287 . S
C4225 C4226 1.524 1_565 S
C4225 H4228 0.999 . S
C4226 H4196 0.950 . S
C4226 C4225 1.524 1_545 S
C4226 C4227 1.415 . S
C4227 H4197 0.950 . S
C4227 C4222 1.361 . S
C4227 C4226 1.415 . S
H4228 C4225 0.999 . S
H4229 C4210 0.913 . S
C649 C4 1.552 . S
C664 C458 1.546 1_655 S
C699 C26 1.573 . S
C714 C471 1.532 . S
C764 C500 1.448 1_545 S
C749 C32 1.486 . S
C799 C40 1.497 . S
C814 C513 1.455 . S
C849 C12 1.552 . S
C864 C534 1.510 . S
C899 C18 1.514 . S
C914 C563 1.496 . S
C949 C46 1.539 . S
C964 C542 1.563 . S
C1014 C555 1.496 . S
C999 C68 1.558 . S
C1064 C521 1.480 . S
C1049 C74 1.494 . S
C1099 C82 1.485 . S
C1114 C492 1.444 1_545 S
C1164 C450 1.477 1_655 S
C1149 C54 1.561 . S
C1199 C60 1.502 . S
C1214 C479 1.509 . S
C1249 C88 1.593 . S
C1264 C584 1.572 . S
C1299 C110 1.598 . S
C1314 C597 1.558 . S
C1364 C626 1.519 . S
C1349 C116 1.545 . S
C1399 C124 1.518 . S
C1414 C261 1.480 . S
C1449 C96 1.572 . S
C1464 C282 1.533 . S
C1499 C102 1.525 . S
C1514 C311 1.501 . S
C1549 C130 1.557 . S
C1564 C290 1.563 . S
C1599 C152 1.596 . S
C1614 C303 1.529 . S
C1664 C269 1.544 . S
C1649 C158 1.536 . S
C1714 C618 1.468 . S
C1699 C166 1.529 . S
C1764 C576 1.497 . S
C1749 C138 1.553 . S
C1814 C605 1.543 . S
C1799 C144 1.534 . S
C1849 C172 1.577 . S
C1864 C332 1.554 . S
C1899 C194 1.603 . S
C1914 C345 1.563 . S
C1949 C200 1.547 . S
C1964 C374 1.520 . S
C1999 C208 1.533 . S
C2014 C387 1.494 . S
C2064 C408 1.533 . S
C2049 C180 1.573 . S
C2114 C437 1.519 . S
C2099 C186 1.538 . S
C2164 C416 1.598 . S
C2149 C214 1.589 . S
C2214 C429 1.520 . S
C2199 C236 1.587 . S
C2249 C242 1.522 . S
C2264 C395 1.532 . S
C2314 C366 1.440 . S
C2299 C250 1.498 . S
C2349 C222 1.565 . S
C2364 C324 1.509 . S
C2414 C353 1.526 . S
C2399 C228 1.521 . S
C2464 C264 1.255 . S
C2449 C5 1.158 . S
C2499 C25 1.252 . S
C2514 C285 1.163 . S
C2564 C313 1.240 . S
C2549 C33 1.165 . S
C2614 C334 1.136 . S
C2599 C39 1.203 . S
C2664 C348 1.185 . S
C2649 C11 1.272 . S
C2714 C376 1.197 . S
C2699 C19 1.107 1_556 S
C2749 C47 1.188 1_556 S
C2764 C369 1.242 . S
C2799 C67 1.271 . S
C2814 C327 1.133 . S
C2849 C75 1.160 1_556 S
C2864 C355 1.275 . S
C2899 C81 1.248 . S
C2914 C292 1.188 . S
C2964 C306 1.136 . S
C2949 C53 1.267 . S
C2999 C61 1.115 . S
C3014 C271 1.237 . S
C3064 C390 1.238 . S
C3049 C89 1.136 . S
C3099 C109 1.314 . S
C3114 C411 1.221 . S
C3149 C117 1.149 . S
C3164 C439 1.237 . S
C3214 C460 1.130 . S
C3199 C123 1.194 . S
C3249 C95 1.263 . S
C3264 C474 1.175 . S
C3299 C103 1.082 . S
C3314 C502 1.171 . S
C3349 C131 1.095 . S
C3364 C495 1.147 . S
C3399 C151 1.241 . S
C3414 C453 1.126 . S
C3464 C481 1.247 . S
C3449 C159 1.129 . S
C3499 C165 1.257 . S
C3514 C418 1.191 . S
C3549 C137 1.330 . S
C3564 C432 1.192 . S
C3614 C397 1.278 . S
C3599 C145 1.153 . S
C3664 C516 1.127 1_545 S
C3649 C173 1.103 . S
C3699 C193 1.215 . S
C3714 C537 1.132 1_655 S
C3749 C201 1.111 . S
C3764 C565 1.198 . S
C3814 C586 1.142 . S
C3799 C207 1.226 . S
C3864 C600 1.233 . S
C3849 C179 1.325 . S
C3899 C187 1.144 . S
C3914 C628 1.239 . S
C3949 C215 1.163 . S
C3964 C621 1.215 . S
C3999 C235 1.326 . S
C4014 C579 1.185 . S
C4064 C607 1.277 . S
C4049 C243 1.156 . S
C4114 C544 1.132 1_655 S
C4099 C249 1.184 . S
C4164 C558 1.156 . S
C4149 C221 1.286 . S
C4199 C229 1.091 . S
C4214 C523 1.194 1_545 S
