# Generated by pormake.
# Topology anh, (6,3)-cn, num edge types: 1
# Building blocks:
#     Node 0, Type 0, BuildingBlock: MIFKUJ_clean_sbu_0, # of connection points: 6
#     Node 1, Type 0, BuildingBlock: MIFKUJ_clean_sbu_0, # of connection points: 6
#     Node 2, Type 0, BuildingBlock: MIFKUJ_clean_sbu_0, # of connection points: 6
#     Node 3, Type 1, BuildingBlock: BETDAH_clean_linker_0, # of connection points: 3
#     Node 4, Type 1, BuildingBlock: BETDAH_clean_linker_0, # of connection points: 3
#     Node 5, Type 1, BuildingBlock: BETDAH_clean_linker_0, # of connection points: 3
#     Node 6, Type 1, BuildingBlock: BETDAH_clean_linker_0, # of connection points: 3
#     Node 7, Type 1, BuildingBlock: BETDAH_clean_linker_0, # of connection points: 3
#     Node 8, Type 1, BuildingBlock: BETDAH_clean_linker_0, # of connection points: 3
#     Edge 9, Type (0, 1), BuildingBlock: FUNLAD_clean_linker_1, # of connection points: 2
#     Edge 10, Type (0, 1), BuildingBlock: FUNLAD_clean_linker_1, # of connection points: 2
#     Edge 11, Type (0, 1), BuildingBlock: FUNLAD_clean_linker_1, # of connection points: 2
#     Edge 12, Type (0, 1), BuildingBlock: FUNLAD_clean_linker_1, # of connection points: 2
#     Edge 13, Type (0, 1), BuildingBlock: FUNLAD_clean_linker_1, # of connection points: 2
#     Edge 14, Type (0, 1), BuildingBlock: FUNLAD_clean_linker_1, # of connection points: 2
#     Edge 15, Type (0, 1), BuildingBlock: FUNLAD_clean_linker_1, # of connection points: 2
#     Edge 16, Type (0, 1), BuildingBlock: FUNLAD_clean_linker_1, # of connection points: 2
#     Edge 17, Type (0, 1), BuildingBlock: FUNLAD_clean_linker_1, # of connection points: 2
#     Edge 18, Type (0, 1), BuildingBlock: FUNLAD_clean_linker_1, # of connection points: 2
#     Edge 19, Type (0, 1), BuildingBlock: FUNLAD_clean_linker_1, # of connection points: 2
#     Edge 20, Type (0, 1), BuildingBlock: FUNLAD_clean_linker_1, # of connection points: 2
#     Edge 21, Type (0, 1), BuildingBlock: FUNLAD_clean_linker_1, # of connection points: 2
#     Edge 22, Type (0, 1), BuildingBlock: FUNLAD_clean_linker_1, # of connection points: 2
#     Edge 23, Type (0, 1), BuildingBlock: FUNLAD_clean_linker_1, # of connection points: 2
#     Edge 24, Type (0, 1), BuildingBlock: FUNLAD_clean_linker_1, # of connection points: 2
#     Edge 25, Type (0, 1), BuildingBlock: FUNLAD_clean_linker_1, # of connection points: 2
#     Edge 26, Type (0, 1), BuildingBlock: FUNLAD_clean_linker_1, # of connection points: 2
# Relax obj value: 0.069
# Max RMSD: 0.135
# Mean RMSD: 0.096
data_MOF--net-anh--node1-MIFKUJ_clean_sbu_0--node2-BETDAH_clean_linker_0--edge1-FUNLAD_clean_linker_1
_symmetry_space_group_name_H-M    P1
_symmetry_Int_Tables_number       1
_symmetry_cell_setting            triclinic
loop_
_symmetry_equiv_pos_as_xyz
'x, y, z'
_cell_length_a     33.182392
_cell_length_b     33.112921
_cell_length_c     48.820932
_cell_angle_alpha  96.56469
_cell_angle_beta   93.420938
_cell_angle_gamma 120.05536
loop_
_atom_site_label
_atom_site_type_symbol
_atom_site_fract_x
_atom_site_fract_y
_atom_site_fract_z
_atom_type_partial_charge
Zn0 Zn 0.07998 0.58315 0.16793 0.0
Zn1 Zn 0.93392 0.50269 0.16444 0.0
C2 C 0.16457 0.58454 0.17055 0.0
O3 O 0.17534 0.62131 0.18943 0.0
C4 C 0.912 0.57248 0.14964 0.0
O5 O 0.94308 0.58053 0.13241 0.0
O6 O 0.1098 0.65183 0.16483 0.0
O7 O 0.01764 0.5428 0.14699 0.0
O8 O 0.94918 0.4945 0.12459 0.0
C9 C 0.13463 0.66766 0.14559 0.0
O10 O 0.13518 0.63777 0.12565 0.0
O11 O 0.12321 0.56013 0.15758 0.0
C12 C 0.86131 0.43745 0.19204 0.0
O13 O 0.866 0.47661 0.20537 0.0
O14 O 0.88681 0.43954 0.17318 0.0
O15 O 0.99077 0.53302 0.19534 0.0
O16 O 0.06797 0.57548 0.2073 0.0
O17 O 0.90375 0.54211 0.16551 0.0
C18 C 0.99296 0.51952 0.12406 0.0
C19 C 0.02673 0.55224 0.21394 0.0
Zn20 Zn 0.53177 0.06054 0.4983 0.0
Zn21 Zn 0.49903 0.93188 0.49365 0.0
C22 C 0.62689 0.13207 0.50194 0.0
O23 O 0.61276 0.15013 0.5219 0.0
C24 C 0.41072 0.8609 0.46258 0.0
O25 O 0.43791 0.86475 0.44337 0.0
O26 O 0.51441 0.11059 0.49831 0.0
O27 O 0.48682 0.0058 0.46902 0.0
O28 O 0.521 0.96462 0.46044 0.0
C29 C 0.52455 0.13436 0.47849 0.0
O30 O 0.5433 0.12373 0.45802 0.0
O31 O 0.59821 0.09088 0.48851 0.0
C32 C 0.50806 0.86076 0.51402 0.0
O33 O 0.47688 0.86226 0.52875 0.0
O34 O 0.52475 0.88886 0.4966 0.0
O35 O 0.51551 0.97109 0.53195 0.0
O36 O 0.53217 0.04572 0.53702 0.0
O37 O 0.42856 0.88791 0.48604 0.0
C38 C 0.50639 0.99086 0.45263 0.0
C39 C 0.5264 0.00981 0.54722 0.0
Zn40 Zn 0.6185 0.58303 0.83905 0.0
Zn41 Zn 0.5234 0.61764 0.83707 0.0
C42 C 0.58761 0.48819 0.84267 0.0
O43 O 0.6189 0.51049 0.86503 0.0
C44 C 0.52122 0.68975 0.8118 0.0
O45 O 0.4881 0.65211 0.79496 0.0
O46 O 0.68482 0.59513 0.84201 0.0
O47 O 0.6101 0.61693 0.80953 0.0
O48 O 0.53315 0.5864 0.80185 0.0
C49 C 0.69563 0.57127 0.82495 0.0
O50 O 0.66483 0.54224 0.80345 0.0
O51 O 0.57763 0.51201 0.82786 0.0
C52 C 0.44373 0.60406 0.86131 0.0
O53 O 0.47768 0.63982 0.87886 0.0
O54 O 0.45397 0.58641 0.84022 0.0
O55 O 0.55363 0.61956 0.87476 0.0
O56 O 0.61005 0.60211 0.87754 0.0
O57 O 0.54336 0.68459 0.832 0.0
C58 C 0.57196 0.59686 0.79296 0.0
C59 C 0.58379 0.61461 0.88893 0.0
H60 H 0.44635 0.94686 0.23895 0.0
H61 H 0.58962 0.05392 0.23612 0.0
H62 H 0.49646 0.97475 0.16023 0.0
C63 C 0.47371 0.96829 0.22718 0.0
C64 C 0.46523 0.95838 0.19793 0.0
C65 C 0.51852 0.00301 0.24119 0.0
C66 C 0.55482 0.02785 0.22553 0.0
C67 C 0.54666 0.01775 0.19627 0.0
C68 C 0.50218 0.98285 0.18278 0.0
N69 N 0.58272 0.04064 0.17971 0.0
C70 C 0.62283 0.0845 0.18872 0.0
H71 H 0.5247 0.44633 0.58605 0.0
H72 H 0.57908 0.58501 0.5644 0.0
H73 H 0.56666 0.47169 0.50511 0.0
C74 C 0.53929 0.47039 0.57129 0.0
C75 C 0.54485 0.45326 0.54506 0.0
C76 C 0.55243 0.5181 0.57861 0.0
C77 C 0.56932 0.54833 0.55885 0.0
C78 C 0.57502 0.5315 0.53238 0.0
C79 C 0.56294 0.48422 0.52573 0.0
N80 N 0.59316 0.56109 0.512 0.0
C81 C 0.59836 0.60562 0.51388 0.0
H82 H 0.95808 0.52728 0.91448 0.0
H83 H 0.05845 0.48163 0.90794 0.0
H84 H 0.97352 0.47057 0.83461 0.0
C85 C 0.97434 0.512 0.90184 0.0
C86 C 0.96107 0.49956 0.87283 0.0
C87 C 0.0084 0.50465 0.91505 0.0
C88 C 0.03164 0.48717 0.89857 0.0
C89 C 0.01897 0.47511 0.86953 0.0
C90 C 0.98343 0.48069 0.85698 0.0
N91 N 0.03944 0.45467 0.85255 0.0
C92 C 0.0876 0.47312 0.85428 0.0
H93 H 0.07033 0.58349 0.41428 0.0
H94 H 0.95364 0.45426 0.43027 0.0
H95 H 0.06833 0.54507 0.49547 0.0
C96 C 0.05407 0.55821 0.42815 0.0
C97 C 0.07565 0.56853 0.45567 0.0
C98 C 0.01059 0.51656 0.41864 0.0
C99 C 0.9874 0.48605 0.43744 0.0
C100 C 0.00834 0.49627 0.46524 0.0
C101 C 0.0523 0.53739 0.47408 0.0
N102 N 0.9867 0.46598 0.48487 0.0
C103 C 0.94117 0.42711 0.48025 0.0
H104 H 0.56121 0.16875 0.75715 0.0
H105 H 0.57867 0.05232 0.77122 0.0
H106 H 0.59959 0.15678 0.84031 0.0
C107 C 0.56832 0.14974 0.77151 0.0
C108 C 0.57911 0.16732 0.80021 0.0
C109 C 0.56878 0.10882 0.76077 0.0
C110 C 0.57935 0.08455 0.77916 0.0
C111 C 0.59042 0.10191 0.80796 0.0
C112 C 0.59067 0.14337 0.81815 0.0
N113 N 0.60167 0.07898 0.82737 0.0
C114 C 0.60123 0.03677 0.82068 0.0
H115 H 0.64522 0.63796 0.09491 0.0
H116 H 0.51263 0.61915 0.11384 0.0
H117 H 0.60633 0.61432 0.17643 0.0
C118 C 0.61958 0.63024 0.10919 0.0
C119 C 0.63014 0.62475 0.13631 0.0
C120 C 0.57673 0.62724 0.10073 0.0
C121 C 0.54546 0.62105 0.12021 0.0
C122 C 0.55631 0.61652 0.14762 0.0
C123 C 0.59849 0.61842 0.15539 0.0
N124 N 0.52553 0.60933 0.16789 0.0
C125 C 0.48363 0.60883 0.16341 0.0
H126 H 0.18994 0.54152 0.14825 0.0
C127 C 0.20011 0.57222 0.16395 0.0
H128 H 0.25477 0.62825 0.19295 0.0
H129 H 0.37976 0.53776 0.20579 0.0
H130 H 0.34351 0.52257 0.24801 0.0
H131 H 0.2776 0.53552 0.25521 0.0
H132 H 0.24768 0.5639 0.22022 0.0
C133 C 0.24451 0.59834 0.17664 0.0
C134 C 0.28034 0.5856 0.17058 0.0
C135 C 0.29689 0.56833 0.19104 0.0
C136 C 0.33449 0.56042 0.18675 0.0
C137 C 0.35102 0.54408 0.20782 0.0
C138 C 0.33053 0.53521 0.23219 0.0
C139 C 0.29346 0.54254 0.23626 0.0
C140 C 0.27671 0.55894 0.21602 0.0
H141 H 0.44182 0.64245 0.1615 0.0
C142 C 0.44029 0.60878 0.1607 0.0
H143 H 0.39816 0.53535 0.1601 0.0
H144 H 0.25632 0.61815 0.12683 0.0
H145 H 0.28988 0.62945 0.08363 0.0
H146 H 0.35267 0.61201 0.07532 0.0
H147 H 0.38266 0.58378 0.11045 0.0
C148 C 0.39917 0.56861 0.15964 0.0
C149 C 0.35551 0.57005 0.16205 0.0
C150 C 0.33707 0.58458 0.14085 0.0
C151 C 0.29981 0.59303 0.14526 0.0
C152 C 0.28366 0.60986 0.12432 0.0
C153 C 0.30277 0.61671 0.09944 0.0
C154 C 0.33822 0.60704 0.09479 0.0
C155 C 0.3553 0.59114 0.11518 0.0
H156 H 0.68551 0.14459 0.47781 0.0
C157 C 0.67408 0.16076 0.49378 0.0
H158 H 0.69099 0.2229 0.52114 0.0
H159 H 0.90903 0.33221 0.52898 0.0
H160 H 0.89928 0.30297 0.57281 0.0
H161 H 0.82117 0.24286 0.58234 0.0
H162 H 0.75224 0.21179 0.54806 0.0
C163 C 0.70194 0.20679 0.50484 0.0
C164 C 0.74943 0.23723 0.49694 0.0
C165 C 0.7896 0.25431 0.51689 0.0
C166 C 0.83475 0.28841 0.51118 0.0
C167 C 0.87396 0.30579 0.53193 0.0
C168 C 0.86888 0.28938 0.55727 0.0
C169 C 0.82491 0.25559 0.56265 0.0
C170 C 0.78562 0.23818 0.54281 0.0
H171 H 0.86516 0.39402 0.47852 0.0
C172 C 0.89407 0.38737 0.47877 0.0
H173 H 0.91622 0.33852 0.48229 0.0
H174 H 0.67975 0.21235 0.45404 0.0
H175 H 0.69003 0.2384 0.40923 0.0
H176 H 0.76896 0.29355 0.39824 0.0
H177 H 0.83808 0.32382 0.4323 0.0
C178 C 0.8866 0.34412 0.48076 0.0
C179 C 0.83975 0.30527 0.48541 0.0
C180 C 0.79992 0.28623 0.46485 0.0
C181 C 0.75457 0.25283 0.47079 0.0
C182 C 0.71516 0.23658 0.45042 0.0
C183 C 0.72052 0.25136 0.4246 0.0
C184 C 0.76495 0.28256 0.41844 0.0
C185 C 0.8043 0.2999 0.43824 0.0
H186 H 0.50647 0.73819 0.79183 0.0
C187 C 0.52933 0.73676 0.80811 0.0
H188 H 0.5839 0.77588 0.84166 0.0
H189 H 0.58335 0.93555 0.76821 0.0
H190 H 0.60673 0.89979 0.73113 0.0
H191 H 0.61288 0.82967 0.73603 0.0
H192 H 0.59478 0.79434 0.77784 0.0
C193 C 0.56186 0.77697 0.82472 0.0
C194 C 0.56412 0.82272 0.82285 0.0
C195 C 0.57685 0.8442 0.79878 0.0
C196 C 0.57548 0.88603 0.7965 0.0
C197 C 0.58564 0.905 0.77154 0.0
C198 C 0.59883 0.88463 0.75 0.0
C199 C 0.60212 0.84504 0.75271 0.0
C200 C 0.59132 0.82493 0.77676 0.0
H201 H 0.63519 0.99492 0.81608 0.0
C202 C 0.60171 0.99314 0.81689 0.0
H203 H 0.52956 0.9509 0.81931 0.0
H204 H 0.53812 0.79105 0.87199 0.0
H205 H 0.51832 0.8288 0.90994 0.0
H206 H 0.51976 0.90336 0.907 0.0
H207 H 0.54056 0.94037 0.86599 0.0
C208 C 0.56237 0.95169 0.81711 0.0
C209 C 0.56346 0.90753 0.81885 0.0
C210 C 0.55195 0.88668 0.84321 0.0
C211 C 0.55206 0.84419 0.84516 0.0
C212 C 0.53936 0.82368 0.86951 0.0
C213 C 0.52781 0.84493 0.89148 0.0
C214 C 0.52854 0.88686 0.8898 0.0
C215 C 0.54045 0.90765 0.86605 0.0
H216 H 0.88242 0.60978 0.12934 0.0
C217 C 0.8814 0.59248 0.14714 0.0
H218 H 0.84739 0.56707 0.18182 0.0
H219 H 0.76288 0.69751 0.13561 0.0
H220 H 0.8417 0.7653 0.14941 0.0
H221 H 0.90647 0.75515 0.16768 0.0
H222 H 0.8929 0.67708 0.17195 0.0
C223 C 0.84918 0.58525 0.16434 0.0
C224 C 0.80979 0.59291 0.15685 0.0
C225 C 0.81816 0.63896 0.15535 0.0
C226 C 0.78059 0.64497 0.14562 0.0
C227 C 0.79004 0.69109 0.14338 0.0
C228 C 0.83511 0.73027 0.15118 0.0
C229 C 0.8716 0.72454 0.1614 0.0
C230 C 0.86342 0.67951 0.16357 0.0
H231 H 0.68643 0.63353 0.16747 0.0
C232 C 0.6737 0.62498 0.14532 0.0
H233 H 0.6814 0.59804 0.10574 0.0
H234 H 0.78125 0.49963 0.1582 0.0
H235 H 0.70194 0.43269 0.1463 0.0
H236 H 0.63647 0.44364 0.13072 0.0
H237 H 0.65014 0.52176 0.12679 0.0
C238 C 0.69535 0.61078 0.12765 0.0
C239 C 0.73468 0.60508 0.13817 0.0
C240 C 0.72598 0.55927 0.14059 0.0
C241 C 0.76359 0.55311 0.14993 0.0
C242 C 0.75401 0.5067 0.15162 0.0
C243 C 0.70857 0.46781 0.14478 0.0
C244 C 0.67173 0.47397 0.13598 0.0
C245 C 0.68011 0.51903 0.13381 0.0
H246 H 0.34771 0.80123 0.43669 0.0
C247 C 0.36105 0.82244 0.45738 0.0
H248 H 0.34678 0.82972 0.49867 0.0
H249 H 0.13594 0.68537 0.42244 0.0
H250 H 0.14879 0.75451 0.40312 0.0
H251 H 0.22394 0.83026 0.41577 0.0
H252 H 0.28681 0.8372 0.44772 0.0
C253 C 0.33327 0.81041 0.47754 0.0
C254 C 0.28593 0.76656 0.47229 0.0
C255 C 0.24925 0.7633 0.45396 0.0
C256 C 0.20574 0.71975 0.44694 0.0
C257 C 0.16983 0.71745 0.4284 0.0
C258 C 0.17665 0.75694 0.41722 0.0
C259 C 0.21897 0.79957 0.42433 0.0
C260 C 0.25489 0.80298 0.44255 0.0
H261 H 0.12926 0.6278 0.48775 0.0
C262 C 0.12167 0.61254 0.46581 0.0
H263 H 0.14815 0.61832 0.42718 0.0
H264 H 0.34774 0.76177 0.50964 0.0
H265 H 0.33484 0.69287 0.52924 0.0
H266 H 0.26005 0.61688 0.51631 0.0
H267 H 0.19764 0.6094 0.48387 0.0
C268 C 0.15441 0.63345 0.44902 0.0
C269 C 0.19867 0.67967 0.45853 0.0
C270 C 0.23484 0.68333 0.47756 0.0
C271 C 0.27832 0.727 0.48468 0.0
C272 C 0.31403 0.72956 0.5035 0.0
C273 C 0.30715 0.69024 0.51489 0.0
C274 C 0.26502 0.64747 0.50763 0.0
C275 C 0.2293 0.64377 0.48909 0.0
H276 H 0.54449 0.42024 0.81384 0.0
C277 C 0.57052 0.43789 0.83231 0.0
H278 H 0.61624 0.43276 0.86189 0.0
H279 H 0.51602 0.21084 0.84383 0.0
H280 H 0.49172 0.22567 0.88789 0.0
H281 H 0.50693 0.30523 0.9065 0.0
H282 H 0.54617 0.37035 0.88102 0.0
C283 C 0.59025 0.41546 0.8434 0.0
C284 C 0.57855 0.36698 0.83108 0.0
C285 C 0.55617 0.32942 0.84639 0.0
C286 C 0.54806 0.28371 0.83587 0.0
C287 C 0.52421 0.24654 0.85118 0.0
C288 C 0.50979 0.25449 0.87644 0.0
C289 C 0.51831 0.29927 0.8869 0.0
C290 C 0.54104 0.33638 0.8721 0.0
H291 H 0.60348 0.23172 0.83148 0.0
C292 C 0.58112 0.21194 0.81184 0.0
H293 H 0.53317 0.2096 0.78011 0.0
H294 H 0.62507 0.43176 0.79696 0.0
H295 H 0.65025 0.41707 0.75342 0.0
H296 H 0.63566 0.33767 0.73509 0.0
H297 H 0.59602 0.27258 0.76043 0.0
C298 C 0.55652 0.22872 0.79944 0.0
C299 C 0.56328 0.2759 0.81032 0.0
C300 C 0.58525 0.31331 0.79485 0.0
C301 C 0.59314 0.35898 0.80527 0.0
C302 C 0.61701 0.39607 0.78987 0.0
C303 C 0.632 0.38822 0.76483 0.0
C304 C 0.62384 0.34356 0.75453 0.0
C305 C 0.6009 0.30646 0.76929 0.0
H306 H 0.50274 0.79971 0.53078 0.0
C307 C 0.52094 0.8248 0.51699 0.0
H308 H 0.57013 0.8448 0.48832 0.0
H309 H 0.59434 0.69592 0.5616 0.0
H310 H 0.6235 0.75924 0.60111 0.0
H311 H 0.62606 0.8339 0.59653 0.0
H312 H 0.59855 0.84522 0.55247 0.0
C313 C 0.55263 0.82094 0.50283 0.0
C314 C 0.56011 0.7805 0.50433 0.0
C315 C 0.57853 0.77542 0.52985 0.0
C316 C 0.5791 0.73328 0.53213 0.0
C317 C 0.59478 0.72788 0.55835 0.0
C318 C 0.61138 0.76388 0.58127 0.0
C319 C 0.61266 0.80584 0.57873 0.0
C320 C 0.59647 0.81174 0.55337 0.0
H321 H 0.63561 0.68255 0.51716 0.0
C322 C 0.60128 0.65054 0.51445 0.0
H323 H 0.52786 0.61967 0.50689 0.0
H324 H 0.52577 0.78055 0.45185 0.0
H325 H 0.50098 0.71932 0.4116 0.0
H326 H 0.50508 0.64768 0.41503 0.0
H327 H 0.53367 0.6367 0.45881 0.0
C328 C 0.56192 0.65226 0.5107 0.0
C329 C 0.56326 0.6973 0.5085 0.0
C330 C 0.54723 0.70353 0.48263 0.0
C331 C 0.54555 0.74514 0.48055 0.0
C332 C 0.52829 0.7499 0.45459 0.0
C333 C 0.5139 0.71499 0.43129 0.0
C334 C 0.51616 0.67464 0.43323 0.0
C335 C 0.53256 0.66875 0.45852 0.0
H336 H 0.7627 0.59411 0.85065 0.0
C337 C 0.73897 0.57045 0.83218 0.0
H338 H 0.72219 0.51242 0.80116 0.0
H339 H 0.94428 0.59505 0.85833 0.0
H340 H 0.96449 0.66528 0.83817 0.0
H341 H 0.90308 0.67389 0.8132 0.0
H342 H 0.82089 0.61258 0.80876 0.0
C343 C 0.74702 0.53794 0.81874 0.0
C344 C 0.78486 0.53048 0.8304 0.0
C345 C 0.83288 0.56563 0.83169 0.0
C346 C 0.86846 0.55966 0.845 0.0
C347 C 0.9159 0.59674 0.84754 0.0
C348 C 0.92801 0.63745 0.83619 0.0
C349 C 0.89343 0.64237 0.82221 0.0
C350 C 0.84636 0.60703 0.81994 0.0
H351 H 0.92353 0.50613 0.83601 0.0
C352 C 0.92462 0.50638 0.85835 0.0
H353 H 0.88975 0.50846 0.89298 0.0
H354 H 0.69625 0.45625 0.83167 0.0
H355 H 0.67611 0.3837 0.84919 0.0
H356 H 0.73798 0.37113 0.86948 0.0
H357 H 0.82035 0.43125 0.87266 0.0
C358 C 0.89244 0.51177 0.87123 0.0
C359 C 0.85599 0.51752 0.85586 0.0
C360 C 0.80807 0.48154 0.85351 0.0
C361 C 0.77246 0.48822 0.84106 0.0
C362 C 0.72479 0.45245 0.84009 0.0
C363 C 0.7127 0.41073 0.85023 0.0
C364 C 0.74754 0.4037 0.86173 0.0
C365 C 0.79469 0.43859 0.86348 0.0
H366 H 0.17166 0.74036 0.16866 0.0
C367 C 0.17118 0.71812 0.15027 0.0
H368 H 0.20948 0.71204 0.11872 0.0
H369 H 0.33141 0.94078 0.1789 0.0
H370 H 0.26681 0.94674 0.15782 0.0
H371 H 0.19555 0.87595 0.13203 0.0
H372 H 0.18842 0.79869 0.12718 0.0
C373 C 0.20835 0.73471 0.13623 0.0
C374 C 0.25294 0.77849 0.14883 0.0
C375 C 0.25668 0.82335 0.15123 0.0
C376 C 0.29793 0.86421 0.16589 0.0
C377 C 0.30081 0.9086 0.16803 0.0
C378 C 0.26403 0.91252 0.15599 0.0
C379 C 0.22388 0.87264 0.14149 0.0
C380 C 0.22011 0.8285 0.139 0.0
H381 H 0.41975 0.90321 0.16196 0.0
C382 C 0.41962 0.91959 0.18257 0.0
H383 H 0.37617 0.91999 0.21259 0.0
H384 H 0.25773 0.69775 0.14746 0.0
H385 H 0.32214 0.69212 0.16886 0.0
H386 H 0.39227 0.7624 0.19551 0.0
H387 H 0.39905 0.83915 0.20069 0.0
C388 C 0.37868 0.90282 0.193 0.0
C389 C 0.33544 0.86012 0.17784 0.0
C390 C 0.33174 0.81524 0.1754 0.0
C391 C 0.29074 0.77448 0.16052 0.0
C392 C 0.28802 0.73006 0.15843 0.0
C393 C 0.32462 0.72615 0.17071 0.0
C394 C 0.36423 0.76579 0.18568 0.0
C395 C 0.36782 0.8098 0.18824 0.0
H396 H 0.54205 0.20285 0.4667 0.0
C397 C 0.52297 0.17819 0.48053 0.0
H398 H 0.48397 0.16591 0.51431 0.0
H399 H 0.58719 0.38195 0.56713 0.0
H400 H 0.60695 0.34758 0.60297 0.0
H401 H 0.58341 0.26331 0.59494 0.0
H402 H 0.54016 0.21307 0.55105 0.0
C403 C 0.50241 0.19015 0.50016 0.0
C404 C 0.51095 0.23914 0.50591 0.0
C405 C 0.5355 0.2678 0.53203 0.0
C406 C 0.54855 0.31624 0.53681 0.0
C407 C 0.57498 0.34459 0.56261 0.0
C408 C 0.58698 0.32541 0.58334 0.0
C409 C 0.57378 0.278 0.57881 0.0
C410 C 0.54872 0.24948 0.55346 0.0
H411 H 0.50566 0.37824 0.55057 0.0
C412 C 0.53081 0.4027 0.53859 0.0
H413 H 0.57608 0.40956 0.50829 0.0
H414 H 0.45743 0.19222 0.45527 0.0
H415 H 0.43717 0.22659 0.41946 0.0
H416 H 0.46218 0.31129 0.42718 0.0
H417 H 0.50717 0.36198 0.47087 0.0
C418 C 0.55012 0.38636 0.5203 0.0
C419 C 0.53624 0.33566 0.51563 0.0
C420 C 0.51085 0.3068 0.48978 0.0
C421 C 0.49748 0.25827 0.48506 0.0
C422 C 0.47015 0.22973 0.45954 0.0
C423 C 0.45787 0.24891 0.4389 0.0
C424 C 0.47187 0.29657 0.44327 0.0
C425 C 0.4978 0.32529 0.46842 0.0
H426 H 0.38906 0.60213 0.88538 0.0
C427 C 0.39474 0.58634 0.86632 0.0
H428 H 0.36227 0.53633 0.82933 0.0
H429 H 0.16743 0.41526 0.8728 0.0
H430 H 0.19615 0.3607 0.86929 0.0
H431 H 0.27674 0.38663 0.85923 0.0
H432 H 0.32899 0.46722 0.85232 0.0
C433 C 0.35744 0.55338 0.84818 0.0
C434 C 0.30865 0.53793 0.85408 0.0
C435 C 0.27869 0.49085 0.8584 0.0
C436 C 0.23244 0.47612 0.86467 0.0
C437 C 0.20305 0.42859 0.86833 0.0
C438 C 0.21907 0.39684 0.86635 0.0
C439 C 0.26443 0.41143 0.86065 0.0
C440 C 0.29405 0.45781 0.85671 0.0
H441 H 0.14869 0.50546 0.83264 0.0
C442 C 0.13661 0.49196 0.85164 0.0
H443 H 0.15406 0.47677 0.8898 0.0
H444 H 0.35431 0.62901 0.84341 0.0
H445 H 0.32744 0.68489 0.84962 0.0
H446 H 0.25065 0.66173 0.86539 0.0
H447 H 0.1998 0.58215 0.8743 0.0
C448 C 0.16659 0.49194 0.87128 0.0
C449 C 0.21629 0.5086 0.86686 0.0
C450 C 0.24682 0.55614 0.8634 0.0
C451 C 0.29236 0.57035 0.85605 0.0
C452 C 0.32047 0.61695 0.8505 0.0
C453 C 0.30531 0.64933 0.85375 0.0
C454 C 0.26199 0.63623 0.86249 0.0
C455 C 0.23297 0.59027 0.8673 0.0
H456 H 0.80072 0.39127 0.2123 0.0
C457 C 0.82469 0.39155 0.19798 0.0
H458 H 0.84195 0.35031 0.17042 0.0
H459 H 0.69975 0.19361 0.24508 0.0
H460 H 0.76178 0.23891 0.28406 0.0
H461 H 0.8323 0.31415 0.27951 0.0
H462 H 0.84119 0.34478 0.236 0.0
C463 C 0.8191 0.35053 0.18541 0.0
C464 C 0.77775 0.30458 0.18835 0.0
C465 C 0.77389 0.28673 0.21373 0.0
C466 C 0.73387 0.24267 0.21613 0.0
C467 C 0.73002 0.22626 0.24193 0.0
C468 C 0.76526 0.25202 0.2645 0.0
C469 C 0.80495 0.29444 0.26194 0.0
C470 C 0.80948 0.31173 0.23689 0.0
H471 H 0.69808 0.13573 0.1963 0.0
C472 C 0.66332 0.13146 0.1947 0.0
H473 H 0.62276 0.16367 0.19131 0.0
H474 H 0.7737 0.32981 0.13713 0.0
H475 H 0.7121 0.28421 0.09812 0.0
H476 H 0.64375 0.20675 0.10184 0.0
H477 H 0.63648 0.17461 0.14464 0.0
C478 C 0.65788 0.16884 0.19446 0.0
C479 C 0.69852 0.2162 0.19295 0.0
C480 C 0.70223 0.23431 0.16767 0.0
C481 C 0.7419 0.27857 0.16538 0.0
C482 C 0.74459 0.29606 0.13995 0.0
C483 C 0.70942 0.2703 0.11737 0.0
C484 C 0.67093 0.22673 0.11949 0.0
C485 C 0.66719 0.20874 0.14424 0.0
H486 H 0.0526 0.5394 0.09994 0.0
C487 C 0.01449 0.52074 0.09837 0.0
H488 H 0.95019 0.48187 0.07168 0.0
H489 H 0.09086 0.59105 0.98091 0.0
H490 H 0.11025 0.66508 0.00958 0.0
H491 H 0.08193 0.66552 0.05514 0.0
H492 H 0.03505 0.59247 0.07255 0.0
C493 C 0.98831 0.50137 0.07327 0.0
C494 C 0.00929 0.50286 0.04697 0.0
C495 C 0.03548 0.54612 0.03684 0.0
C496 C 0.04988 0.54578 0.00996 0.0
C497 C 0.07756 0.58939 0.00071 0.0
C498 C 0.08916 0.63206 0.01701 0.0
C499 C 0.07335 0.63231 0.04271 0.0
C500 C 0.04665 0.58998 0.05255 0.0
H501 H 0.99709 0.52868 0.95636 0.0
C502 C 0.01599 0.51365 0.94608 0.0
H503 H 0.05799 0.48336 0.95336 0.0
H504 H 0.96612 0.41497 0.06181 0.0
H505 H 0.94782 0.34142 0.03324 0.0
H506 H 0.9693 0.34049 0.98576 0.0
H507 H 0.00953 0.41299 0.96666 0.0
C508 C 0.04011 0.50044 0.96231 0.0
C509 C 0.03595 0.50222 0.99269 0.0
C510 C 0.01272 0.45943 0.00357 0.0
C511 C -0.00043 0.45983 0.03077 0.0
C512 C 0.97621 0.41657 0.04111 0.0
C513 C 0.96563 0.37412 0.02497 0.0
C514 C 0.97777 0.37361 0.99826 0.0
C515 C 0.0009 0.41559 0.98754 0.0
H516 H 0.49186 0.02061 0.41782 0.0
C517 C 0.5081 0.00092 0.42396 0.0
H518 H 0.5416 0.96368 0.41061 0.0
H519 H 0.44646 0.91164 0.28593 0.0
H520 H 0.40714 0.83532 0.301 0.0
H521 H 0.41911 0.82848 0.35022 0.0
H522 H 0.47073 0.89791 0.38462 0.0
C523 C 0.52669 0.9848 0.40507 0.0
C524 C 0.52119 0.98944 0.37532 0.0
C525 C 0.49081 0.94845 0.35548 0.0
C526 C 0.48334 0.9525 0.3272 0.0
C527 C 0.453 0.91084 0.30778 0.0
C528 C 0.43024 0.86671 0.31613 0.0
C529 C 0.43702 0.86285 0.34382 0.0
C530 C 0.46686 0.90307 0.36336 0.0
H531 H 0.56519 0.02142 0.28065 0.0
C532 C 0.52948 0.01009 0.27195 0.0
H533 H 0.46113 0.99019 0.28118 0.0
H534 H 0.58518 0.07441 0.40753 0.0
H535 H 0.62304 0.15113 0.39276 0.0
H536 H 0.60708 0.15869 0.34416 0.0
H537 H 0.55349 0.08941 0.30997 0.0
C538 C 0.49689 0.00088 0.2892 0.0
C539 C 0.50617 0.99755 0.3188 0.0
C540 C 0.53679 0.03857 0.3386 0.0
C541 C 0.54482 0.03442 0.36684 0.0
C542 C 0.57673 0.0757 0.38602 0.0
C543 C 0.59891 0.11995 0.37778 0.0
C544 C 0.59 0.12417 0.3504 0.0
C545 C 0.55932 0.08409 0.33095 0.0
H546 H 0.6066 0.59244 0.75657 0.0
C547 C 0.57371 0.58727 0.76296 0.0
H548 H 0.50344 0.56693 0.74953 0.0
H549 H 0.6202 0.61218 0.63831 0.0
H550 H 0.66384 0.69367 0.66166 0.0
H551 H 0.64947 0.71613 0.70841 0.0
H552 H 0.59208 0.65687 0.73232 0.0
C553 C 0.5368 0.57304 0.7435 0.0
C554 C 0.53945 0.5614 0.71352 0.0
C555 C 0.5712 0.59688 0.69919 0.0
C556 C 0.57757 0.58431 0.6716 0.0
C557 C 0.6122 0.61991 0.65869 0.0
C558 C 0.63781 0.66688 0.67196 0.0
C559 C 0.62987 0.6795 0.69832 0.0
C560 C 0.59705 0.64507 0.71189 0.0
H561 H 0.53861 0.56351 0.60897 0.0
C562 C 0.54833 0.53656 0.6068 0.0
H563 H 0.56862 0.49581 0.62767 0.0
H564 H 0.47358 0.48525 0.73443 0.0
H565 H 0.42595 0.4046 0.70999 0.0
H566 H 0.43365 0.38354 0.66126 0.0
H567 H 0.48934 0.44291 0.63676 0.0
C568 C 0.55784 0.52192 0.62962 0.0
C569 C 0.55013 0.53667 0.65784 0.0
C570 C 0.51651 0.50173 0.67166 0.0
C571 C 0.51138 0.51404 0.69957 0.0
C572 C 0.47853 0.47808 0.71311 0.0
C573 C 0.45095 0.43157 0.69933 0.0
C574 C 0.45534 0.4197 0.67192 0.0
C575 C 0.48762 0.45416 0.65814 0.0
H576 H 0.52664 0.98068 0.58565 0.0
C577 C 0.5322 0.01219 0.57768 0.0
H578 H 0.55162 0.08389 0.58816 0.0
H579 H 0.48628 0.00225 0.70596 0.0
H580 H 0.40773 0.95427 0.6803 0.0
H581 H 0.39392 0.95227 0.62981 0.0
H582 H 0.45853 0.99757 0.60462 0.0
C583 C 0.54423 0.05152 0.59567 0.0
C584 C 0.55173 0.05328 0.62625 0.0
C585 C 0.51322 0.02749 0.64074 0.0
C586 C 0.52086 0.03009 0.67003 0.0
C587 C 0.48214 0.00273 0.68386 0.0
C588 C 0.43694 0.97485 0.66937 0.0
C589 C 0.4292 0.9736 0.64093 0.0
C590 C 0.46671 0.9996 0.62668 0.0
H591 H 0.53863 0.10553 0.71844 0.0
C592 C 0.5579 0.093 0.73017 0.0
H593 H 0.59633 0.05779 0.72645 0.0
H594 H 0.63337 0.1054 0.60469 0.0
H595 H 0.71158 0.15425 0.63056 0.0
H596 H 0.7244 0.1606 0.68155 0.0
H597 H 0.65915 0.11794 0.70697 0.0
C598 C 0.57386 0.06793 0.71591 0.0
C599 C 0.56663 0.0598 0.68492 0.0
C600 C 0.60522 0.08476 0.67038 0.0
C601 C 0.59775 0.08153 0.64102 0.0
C602 C 0.63694 0.10693 0.62702 0.0
C603 C 0.68206 0.13505 0.64161 0.0
C604 C 0.68928 0.1386 0.67031 0.0
C605 C 0.65147 0.1139 0.68465 0.0
H606 H 0.61406 0.61712 0.93088 0.0
C607 C 0.5877 0.62157 0.91954 0.0
H608 H 0.5311 0.63352 0.92276 0.0
H609 H 0.49439 0.55066 0.03601 0.0
H610 H 0.42261 0.49357 0.00543 0.0
H611 H 0.41332 0.49943 0.95577 0.0
H612 H 0.47571 0.56229 0.93636 0.0
C613 C 0.55889 0.63078 0.93369 0.0
C614 C 0.56128 0.63213 0.96433 0.0
C615 C 0.52388 0.59586 0.97542 0.0
C616 C 0.52916 0.59252 0.00407 0.0
C617 C 0.49205 0.55499 0.01445 0.0
C618 C 0.4507 0.52196 0.99712 0.0
C619 C 0.44547 0.52526 0.96916 0.0
C620 C 0.48157 0.56157 0.95829 0.0
H621 H 0.5408 0.64448 0.06814 0.0
C622 C 0.56448 0.63134 0.0718 0.0
H623 H 0.60304 0.60333 0.0528 0.0
H624 H 0.6353 0.71151 0.95089 0.0
H625 H 0.70613 0.76993 0.9818 0.0
H626 H 0.7162 0.76288 0.03119 0.0
H627 H 0.65532 0.69764 0.05002 0.0
C628 C 0.58075 0.61822 0.05002 0.0
C629 C 0.57162 0.62568 0.02147 0.0
C630 C 0.60762 0.6638 0.0108 0.0
C631 C 0.60223 0.66736 0.98225 0.0
C632 C 0.63827 0.70639 0.97225 0.0
C633 C 0.67892 0.74034 0.98981 0.0
C634 C 0.68456 0.7364 0.01762 0.0
C635 C 0.64942 0.69871 0.02814 0.0
H636 H 0.05369 0.56636 0.25826 0.0
C637 C 0.02169 0.54809 0.24341 0.0
H638 H 0.94786 0.50274 0.2381 0.0
H639 H 0.96949 0.42792 0.35004 0.0
H640 H 0.93535 0.35618 0.31564 0.0
H641 H 0.92033 0.35829 0.26586 0.0
H642 H 0.93888 0.43195 0.25013 0.0
C643 C 0.98014 0.52275 0.25258 0.0
C644 C 0.9786 0.51919 0.28268 0.0
C645 C 0.96582 0.47551 0.29154 0.0
C646 C 0.97448 0.47428 0.32026 0.0
C647 C 0.9634 0.43068 0.3285 0.0
C648 C 0.94384 0.38932 0.30898 0.0
C649 C 0.93534 0.39049 0.28094 0.0
C650 C 0.94622 0.433 0.27218 0.0
H651 H 0.95057 0.48778 0.38473 0.0
C652 C 0.98863 0.5058 0.38929 0.0
H653 H 0.05289 0.53539 0.37264 0.0
H654 H 0.99514 0.60573 0.27326 0.0
H655 H 0.02607 0.6768 0.30785 0.0
H656 H 0.04327 0.67526 0.35749 0.0
H657 H 0.02904 0.60257 0.37286 0.0
C658 C 0.01493 0.51859 0.36847 0.0
C659 C 0.99541 0.51665 0.33988 0.0
C660 C 0.00378 0.55934 0.33131 0.0
C661 C 0.9948 0.56048 0.3027 0.0
C662 C 0.00275 0.60339 0.29469 0.0
C663 C 0.02014 0.64428 0.31435 0.0
C664 C 0.02976 0.6434 0.34229 0.0
C665 C 0.02165 0.60151 0.35081 0.0
loop_
_geom_bond_atom_site_label_1
_geom_bond_atom_site_label_2
_geom_bond_distance
_geom_bond_site_symmetry_2
_ccdc_geom_bond_type
Zn0 O6 1.969 . S
Zn0 O7 1.965 . S
Zn0 O11 2.024 . S
Zn0 O16 1.969 . S
Zn1 O8 1.969 . S
Zn1 O14 1.969 . S
Zn1 O15 1.965 . S
Zn1 O17 2.024 . S
C2 O3 1.229 . S
C2 O11 1.058 . S
O3 C2 1.229 . S
C4 O5 1.229 . S
C4 O17 1.058 . S
O5 C4 1.229 . S
O6 Zn0 1.969 . S
O6 C9 1.267 . S
O7 Zn0 1.965 . S
O7 C18 1.260 . S
O8 Zn1 1.969 . S
O8 C18 1.258 1_655 S
C9 O6 1.267 . S
C9 O10 1.228 . S
O10 C9 1.228 . S
O11 Zn0 2.024 . S
O11 C2 1.058 . S
C12 O13 1.228 . S
C12 O14 1.267 . S
O13 C12 1.228 . S
O14 Zn1 1.969 . S
O14 C12 1.267 . S
O15 Zn1 1.965 . S
O15 C19 1.260 1_655 S
O16 Zn0 1.969 . S
O16 C19 1.258 . S
O17 Zn1 2.024 . S
O17 C4 1.058 . S
C18 O7 1.260 . S
C18 O8 1.258 1_455 S
C19 O15 1.260 1_455 S
C19 O16 1.258 . S
Zn20 O26 1.969 . S
Zn20 O27 1.965 . S
Zn20 O31 2.024 . S
Zn20 O36 1.969 . S
Zn21 O28 1.969 . S
Zn21 O34 1.969 . S
Zn21 O35 1.965 1_565 S
Zn21 O37 2.024 . S
C22 O23 1.229 . S
C22 O31 1.058 . S
O23 C22 1.229 . S
C24 O25 1.229 . S
C24 O37 1.058 . S
O25 C24 1.229 . S
O26 Zn20 1.969 . S
O26 C29 1.267 . S
O27 Zn20 1.965 . S
O27 C38 1.260 . S
O28 Zn21 1.969 . S
O28 C38 1.258 1_565 S
C29 O26 1.267 . S
C29 O30 1.228 . S
O30 C29 1.228 . S
O31 Zn20 2.024 . S
O31 C22 1.058 . S
C32 O33 1.228 . S
C32 O34 1.267 . S
O33 C32 1.228 . S
O34 Zn21 1.969 . S
O34 C32 1.267 . S
O35 Zn21 1.965 1_545 S
O35 C39 1.260 . S
O36 Zn20 1.969 . S
O36 C39 1.258 . S
O37 Zn21 2.024 . S
O37 C24 1.058 . S
C38 O27 1.260 . S
C38 O28 1.258 1_545 S
C39 O35 1.260 . S
C39 O36 1.258 . S
Zn40 O46 1.969 . S
Zn40 O47 1.965 . S
Zn40 O51 2.024 . S
Zn40 O56 1.969 . S
Zn41 O48 1.969 . S
Zn41 O54 1.969 . S
Zn41 O55 1.965 . S
Zn41 O57 2.024 . S
C42 O43 1.229 . S
C42 O51 1.058 . S
O43 C42 1.229 . S
C44 O45 1.229 . S
C44 O57 1.058 . S
O45 C44 1.229 . S
O46 Zn40 1.969 . S
O46 C49 1.267 . S
O47 Zn40 1.965 . S
O47 C58 1.260 . S
O48 Zn41 1.969 . S
O48 C58 1.258 . S
C49 O46 1.267 . S
C49 O50 1.228 . S
O50 C49 1.228 . S
O51 Zn40 2.024 . S
O51 C42 1.058 . S
C52 O53 1.228 . S
C52 O54 1.267 . S
O53 C52 1.228 . S
O54 Zn41 1.969 . S
O54 C52 1.267 . S
O55 Zn41 1.965 . S
O55 C59 1.260 . S
O56 Zn40 1.969 . S
O56 C59 1.258 . S
O57 Zn41 2.024 . S
O57 C44 1.058 . S
C58 O47 1.260 . S
C58 O48 1.258 . S
C59 O55 1.260 . S
C59 O56 1.258 . S
H60 C63 0.929 1_565 S
H61 C66 0.929 . S
H62 C68 0.930 . S
C63 H60 0.929 1_545 S
C63 C64 1.398 1_545 S
C63 C65 1.396 . S
C64 C63 1.398 1_565 S
C64 C68 1.407 1_565 S
C65 C63 1.396 . S
C65 C66 1.394 . S
C66 H61 0.929 . S
C66 C65 1.394 . S
C66 C67 1.382 . S
C67 C66 1.382 . S
C67 C68 1.392 . S
C67 N69 1.420 . S
C68 H62 0.930 . S
C68 C64 1.407 1_545 S
C68 C67 1.392 . S
N69 C67 1.420 . S
N69 C70 1.244 . S
C70 N69 1.244 . S
H71 C74 0.929 . S
H72 C77 0.929 . S
H73 C79 0.930 . S
C74 H71 0.929 . S
C74 C75 1.398 . S
C74 C76 1.396 . S
C75 C74 1.398 . S
C75 C79 1.407 . S
C76 C74 1.396 . S
C76 C77 1.394 . S
C77 H72 0.929 . S
C77 C76 1.394 . S
C77 C78 1.382 . S
C78 C77 1.382 . S
C78 C79 1.392 . S
C78 N80 1.420 . S
C79 H73 0.930 . S
C79 C75 1.407 . S
C79 C78 1.392 . S
N80 C78 1.420 . S
N80 C81 1.244 . S
C81 N80 1.244 . S
H82 C85 0.929 1_655 S
H83 C88 0.929 . S
H84 C90 0.930 . S
C85 H82 0.929 1_455 S
C85 C86 1.398 1_455 S
C85 C87 1.396 . S
C86 C85 1.398 1_655 S
C86 C90 1.407 1_655 S
C87 C85 1.396 . S
C87 C88 1.394 . S
C88 H83 0.929 . S
C88 C87 1.394 . S
C88 C89 1.382 . S
C89 C88 1.382 . S
C89 C90 1.392 . S
C89 N91 1.420 . S
C90 H84 0.930 . S
C90 C86 1.407 1_455 S
C90 C89 1.392 . S
N91 C89 1.420 . S
N91 C92 1.244 . S
C92 N91 1.244 . S
H93 C96 0.929 . S
H94 C99 0.929 1_655 S
H95 C101 0.930 . S
C96 H93 0.929 . S
C96 C97 1.398 . S
C96 C98 1.396 . S
C97 C96 1.398 . S
C97 C101 1.407 . S
C98 C96 1.396 . S
C98 C99 1.394 . S
C99 H94 0.929 1_455 S
C99 C98 1.394 . S
C99 C100 1.382 . S
C100 C99 1.382 . S
C100 C101 1.392 . S
C100 N102 1.420 1_455 S
C101 H95 0.930 . S
C101 C97 1.407 . S
C101 C100 1.392 . S
N102 C100 1.420 1_655 S
N102 C103 1.244 . S
C103 N102 1.244 . S
H104 C107 0.929 . S
H105 C110 0.929 1_565 S
H106 C112 0.930 . S
C107 H104 0.929 . S
C107 C108 1.398 . S
C107 C109 1.396 . S
C108 C107 1.398 . S
C108 C112 1.407 . S
C109 C107 1.396 . S
C109 C110 1.394 . S
C110 H105 0.929 1_545 S
C110 C109 1.394 . S
C110 C111 1.382 . S
C111 C110 1.382 . S
C111 C112 1.392 . S
C111 N113 1.404 1_545 S
C112 H106 0.930 . S
C112 C108 1.407 . S
C112 C111 1.392 . S
N113 C111 1.404 1_565 S
N113 C114 1.261 . S
C114 N113 1.261 . S
H115 C118 0.929 . S
H116 C121 0.929 . S
H117 C123 0.930 . S
C118 H115 0.929 . S
C118 C119 1.398 . S
C118 C120 1.396 . S
C119 C118 1.398 . S
C119 C123 1.407 . S
C120 C118 1.396 . S
C120 C121 1.394 . S
C121 H116 0.929 . S
C121 C120 1.394 . S
C121 C122 1.382 . S
C122 C121 1.382 . S
C122 C123 1.392 . S
C122 N124 1.420 . S
C123 H117 0.930 . S
C123 C119 1.407 . S
C123 C122 1.392 . S
N124 C122 1.420 . S
N124 C125 1.244 . S
C125 N124 1.244 . S
H126 C127 0.951 . S
C127 H126 0.951 . S
C127 C133 1.265 . S
H128 C133 0.950 . S
H129 C137 0.949 . S
H130 C138 0.950 . S
H131 C139 0.951 . S
H132 C140 0.951 . S
C133 C127 1.265 . S
C133 H128 0.950 . S
C133 C134 1.478 . S
C134 C133 1.478 . S
C134 C135 1.397 . S
C134 C151 1.394 . S
C135 C134 1.397 . S
C135 C136 1.438 . S
C135 C140 1.429 . S
C136 C135 1.438 . S
C136 C137 1.428 . S
C136 C149 1.394 . S
C137 H129 0.949 . S
C137 C136 1.428 . S
C137 C138 1.345 . S
C138 H130 0.950 . S
C138 C137 1.345 . S
C138 C139 1.424 . S
C139 H131 0.951 . S
C139 C138 1.424 . S
C139 C140 1.347 . S
C140 H132 0.951 . S
C140 C135 1.429 . S
C140 C139 1.347 . S
H141 C142 0.951 . S
C142 H141 0.951 . S
C142 C148 1.265 . S
H143 C148 0.950 . S
H144 C152 0.949 . S
H145 C153 0.950 . S
H146 C154 0.951 . S
H147 C155 0.951 . S
C148 C142 1.265 . S
C148 H143 0.950 . S
C148 C149 1.478 . S
C149 C136 1.394 . S
C149 C148 1.478 . S
C149 C150 1.397 . S
C150 C149 1.397 . S
C150 C151 1.438 . S
C150 C155 1.429 . S
C151 C134 1.394 . S
C151 C150 1.438 . S
C151 C152 1.428 . S
C152 H144 0.949 . S
C152 C151 1.428 . S
C152 C153 1.345 . S
C153 H145 0.950 . S
C153 C152 1.345 . S
C153 C154 1.424 . S
C154 H146 0.951 . S
C154 C153 1.424 . S
C154 C155 1.347 . S
C155 H147 0.951 . S
C155 C150 1.429 . S
C155 C154 1.347 . S
H156 C157 0.951 . S
C157 H156 0.951 . S
C157 C163 1.265 . S
H158 C163 0.950 . S
H159 C167 0.949 . S
H160 C168 0.950 . S
H161 C169 0.951 . S
H162 C170 0.951 . S
C163 C157 1.265 . S
C163 H158 0.950 . S
C163 C164 1.478 . S
C164 C163 1.478 . S
C164 C165 1.397 . S
C164 C181 1.394 . S
C165 C164 1.397 . S
C165 C166 1.438 . S
C165 C170 1.429 . S
C166 C165 1.438 . S
C166 C167 1.428 . S
C166 C179 1.394 . S
C167 H159 0.949 . S
C167 C166 1.428 . S
C167 C168 1.345 . S
C168 H160 0.950 . S
C168 C167 1.345 . S
C168 C169 1.424 . S
C169 H161 0.951 . S
C169 C168 1.424 . S
C169 C170 1.347 . S
C170 H162 0.951 . S
C170 C165 1.429 . S
C170 C169 1.347 . S
H171 C172 0.951 . S
C172 H171 0.951 . S
C172 C178 1.265 . S
H173 C178 0.950 . S
H174 C182 0.949 . S
H175 C183 0.950 . S
H176 C184 0.951 . S
H177 C185 0.951 . S
C178 C172 1.265 . S
C178 H173 0.950 . S
C178 C179 1.478 . S
C179 C166 1.394 . S
C179 C178 1.478 . S
C179 C180 1.397 . S
C180 C179 1.397 . S
C180 C181 1.438 . S
C180 C185 1.429 . S
C181 C164 1.394 . S
C181 C180 1.438 . S
C181 C182 1.428 . S
C182 H174 0.949 . S
C182 C181 1.428 . S
C182 C183 1.345 . S
C183 H175 0.950 . S
C183 C182 1.345 . S
C183 C184 1.424 . S
C184 H176 0.951 . S
C184 C183 1.424 . S
C184 C185 1.347 . S
C185 H177 0.951 . S
C185 C180 1.429 . S
C185 C184 1.347 . S
H186 C187 0.951 . S
C187 H186 0.951 . S
C187 C193 1.265 . S
H188 C193 0.950 . S
H189 C197 0.949 . S
H190 C198 0.950 . S
H191 C199 0.951 . S
H192 C200 0.951 . S
C193 C187 1.265 . S
C193 H188 0.950 . S
C193 C194 1.478 . S
C194 C193 1.478 . S
C194 C195 1.397 . S
C194 C211 1.394 . S
C195 C194 1.397 . S
C195 C196 1.438 . S
C195 C200 1.429 . S
C196 C195 1.438 . S
C196 C197 1.428 . S
C196 C209 1.394 . S
C197 H189 0.949 . S
C197 C196 1.428 . S
C197 C198 1.345 . S
C198 H190 0.950 . S
C198 C197 1.345 . S
C198 C199 1.424 . S
C199 H191 0.951 . S
C199 C198 1.424 . S
C199 C200 1.347 . S
C200 H192 0.951 . S
C200 C195 1.429 . S
C200 C199 1.347 . S
H201 C202 0.951 . S
C202 H201 0.951 . S
C202 C208 1.265 . S
H203 C208 0.950 . S
H204 C212 0.949 . S
H205 C213 0.950 . S
H206 C214 0.951 . S
H207 C215 0.951 . S
C208 C202 1.265 . S
C208 H203 0.950 . S
C208 C209 1.478 . S
C209 C196 1.394 . S
C209 C208 1.478 . S
C209 C210 1.397 . S
C210 C209 1.397 . S
C210 C211 1.438 . S
C210 C215 1.429 . S
C211 C194 1.394 . S
C211 C210 1.438 . S
C211 C212 1.428 . S
C212 H204 0.949 . S
C212 C211 1.428 . S
C212 C213 1.345 . S
C213 H205 0.950 . S
C213 C212 1.345 . S
C213 C214 1.424 . S
C214 H206 0.951 . S
C214 C213 1.424 . S
C214 C215 1.347 . S
C215 H207 0.951 . S
C215 C210 1.429 . S
C215 C214 1.347 . S
H216 C217 0.951 . S
C217 H216 0.951 . S
C217 C223 1.265 . S
H218 C223 0.950 . S
H219 C227 0.949 . S
H220 C228 0.950 . S
H221 C229 0.951 . S
H222 C230 0.951 . S
C223 C217 1.265 . S
C223 H218 0.950 . S
C223 C224 1.478 . S
C224 C223 1.478 . S
C224 C225 1.397 . S
C224 C241 1.394 . S
C225 C224 1.397 . S
C225 C226 1.438 . S
C225 C230 1.429 . S
C226 C225 1.438 . S
C226 C227 1.428 . S
C226 C239 1.394 . S
C227 H219 0.949 . S
C227 C226 1.428 . S
C227 C228 1.345 . S
C228 H220 0.950 . S
C228 C227 1.345 . S
C228 C229 1.424 . S
C229 H221 0.951 . S
C229 C228 1.424 . S
C229 C230 1.347 . S
C230 H222 0.951 . S
C230 C225 1.429 . S
C230 C229 1.347 . S
H231 C232 0.951 . S
C232 H231 0.951 . S
C232 C238 1.265 . S
H233 C238 0.950 . S
H234 C242 0.949 . S
H235 C243 0.950 . S
H236 C244 0.951 . S
H237 C245 0.951 . S
C238 C232 1.265 . S
C238 H233 0.950 . S
C238 C239 1.478 . S
C239 C226 1.394 . S
C239 C238 1.478 . S
C239 C240 1.397 . S
C240 C239 1.397 . S
C240 C241 1.438 . S
C240 C245 1.429 . S
C241 C224 1.394 . S
C241 C240 1.438 . S
C241 C242 1.428 . S
C242 H234 0.949 . S
C242 C241 1.428 . S
C242 C243 1.345 . S
C243 H235 0.950 . S
C243 C242 1.345 . S
C243 C244 1.424 . S
C244 H236 0.951 . S
C244 C243 1.424 . S
C244 C245 1.347 . S
C245 H237 0.951 . S
C245 C240 1.429 . S
C245 C244 1.347 . S
H246 C247 0.951 . S
C247 H246 0.951 . S
C247 C253 1.265 . S
H248 C253 0.950 . S
H249 C257 0.949 . S
H250 C258 0.950 . S
H251 C259 0.951 . S
H252 C260 0.951 . S
C253 C247 1.265 . S
C253 H248 0.950 . S
C253 C254 1.478 . S
C254 C253 1.478 . S
C254 C255 1.397 . S
C254 C271 1.394 . S
C255 C254 1.397 . S
C255 C256 1.438 . S
C255 C260 1.429 . S
C256 C255 1.438 . S
C256 C257 1.428 . S
C256 C269 1.394 . S
C257 H249 0.949 . S
C257 C256 1.428 . S
C257 C258 1.345 . S
C258 H250 0.950 . S
C258 C257 1.345 . S
C258 C259 1.424 . S
C259 H251 0.951 . S
C259 C258 1.424 . S
C259 C260 1.347 . S
C260 H252 0.951 . S
C260 C255 1.429 . S
C260 C259 1.347 . S
H261 C262 0.951 . S
C262 H261 0.951 . S
C262 C268 1.265 . S
H263 C268 0.950 . S
H264 C272 0.949 . S
H265 C273 0.950 . S
H266 C274 0.951 . S
H267 C275 0.951 . S
C268 C262 1.265 . S
C268 H263 0.950 . S
C268 C269 1.478 . S
C269 C256 1.394 . S
C269 C268 1.478 . S
C269 C270 1.397 . S
C270 C269 1.397 . S
C270 C271 1.438 . S
C270 C275 1.429 . S
C271 C254 1.394 . S
C271 C270 1.438 . S
C271 C272 1.428 . S
C272 H264 0.949 . S
C272 C271 1.428 . S
C272 C273 1.345 . S
C273 H265 0.950 . S
C273 C272 1.345 . S
C273 C274 1.424 . S
C274 H266 0.951 . S
C274 C273 1.424 . S
C274 C275 1.347 . S
C275 H267 0.951 . S
C275 C270 1.429 . S
C275 C274 1.347 . S
H276 C277 0.951 . S
C277 H276 0.951 . S
C277 C283 1.265 . S
H278 C283 0.950 . S
H279 C287 0.949 . S
H280 C288 0.950 . S
H281 C289 0.951 . S
H282 C290 0.951 . S
C283 C277 1.265 . S
C283 H278 0.950 . S
C283 C284 1.478 . S
C284 C283 1.478 . S
C284 C285 1.397 . S
C284 C301 1.394 . S
C285 C284 1.397 . S
C285 C286 1.438 . S
C285 C290 1.429 . S
C286 C285 1.438 . S
C286 C287 1.428 . S
C286 C299 1.394 . S
C287 H279 0.949 . S
C287 C286 1.428 . S
C287 C288 1.345 . S
C288 H280 0.950 . S
C288 C287 1.345 . S
C288 C289 1.424 . S
C289 H281 0.951 . S
C289 C288 1.424 . S
C289 C290 1.347 . S
C290 H282 0.951 . S
C290 C285 1.429 . S
C290 C289 1.347 . S
H291 C292 0.951 . S
C292 H291 0.951 . S
C292 C298 1.265 . S
H293 C298 0.950 . S
H294 C302 0.949 . S
H295 C303 0.950 . S
H296 C304 0.951 . S
H297 C305 0.951 . S
C298 C292 1.265 . S
C298 H293 0.950 . S
C298 C299 1.478 . S
C299 C286 1.394 . S
C299 C298 1.478 . S
C299 C300 1.397 . S
C300 C299 1.397 . S
C300 C301 1.438 . S
C300 C305 1.429 . S
C301 C284 1.394 . S
C301 C300 1.438 . S
C301 C302 1.428 . S
C302 H294 0.949 . S
C302 C301 1.428 . S
C302 C303 1.345 . S
C303 H295 0.950 . S
C303 C302 1.345 . S
C303 C304 1.424 . S
C304 H296 0.951 . S
C304 C303 1.424 . S
C304 C305 1.347 . S
C305 H297 0.951 . S
C305 C300 1.429 . S
C305 C304 1.347 . S
H306 C307 0.951 . S
C307 H306 0.951 . S
C307 C313 1.265 . S
H308 C313 0.950 . S
H309 C317 0.949 . S
H310 C318 0.950 . S
H311 C319 0.951 . S
H312 C320 0.951 . S
C313 C307 1.265 . S
C313 H308 0.950 . S
C313 C314 1.478 . S
C314 C313 1.478 . S
C314 C315 1.397 . S
C314 C331 1.394 . S
C315 C314 1.397 . S
C315 C316 1.438 . S
C315 C320 1.429 . S
C316 C315 1.438 . S
C316 C317 1.428 . S
C316 C329 1.394 . S
C317 H309 0.949 . S
C317 C316 1.428 . S
C317 C318 1.345 . S
C318 H310 0.950 . S
C318 C317 1.345 . S
C318 C319 1.424 . S
C319 H311 0.951 . S
C319 C318 1.424 . S
C319 C320 1.347 . S
C320 H312 0.951 . S
C320 C315 1.429 . S
C320 C319 1.347 . S
H321 C322 0.951 . S
C322 H321 0.951 . S
C322 C328 1.265 . S
H323 C328 0.950 . S
H324 C332 0.949 . S
H325 C333 0.950 . S
H326 C334 0.951 . S
H327 C335 0.951 . S
C328 C322 1.265 . S
C328 H323 0.950 . S
C328 C329 1.478 . S
C329 C316 1.394 . S
C329 C328 1.478 . S
C329 C330 1.397 . S
C330 C329 1.397 . S
C330 C331 1.438 . S
C330 C335 1.429 . S
C331 C314 1.394 . S
C331 C330 1.438 . S
C331 C332 1.428 . S
C332 H324 0.949 . S
C332 C331 1.428 . S
C332 C333 1.345 . S
C333 H325 0.950 . S
C333 C332 1.345 . S
C333 C334 1.424 . S
C334 H326 0.951 . S
C334 C333 1.424 . S
C334 C335 1.347 . S
C335 H327 0.951 . S
C335 C330 1.429 . S
C335 C334 1.347 . S
H336 C337 0.951 . S
C337 H336 0.951 . S
C337 C343 1.265 . S
H338 C343 0.950 . S
H339 C347 0.949 . S
H340 C348 0.950 . S
H341 C349 0.951 . S
H342 C350 0.951 . S
C343 C337 1.265 . S
C343 H338 0.950 . S
C343 C344 1.478 . S
C344 C343 1.478 . S
C344 C345 1.397 . S
C344 C361 1.394 . S
C345 C344 1.397 . S
C345 C346 1.438 . S
C345 C350 1.429 . S
C346 C345 1.438 . S
C346 C347 1.428 . S
C346 C359 1.394 . S
C347 H339 0.949 . S
C347 C346 1.428 . S
C347 C348 1.345 . S
C348 H340 0.950 . S
C348 C347 1.345 . S
C348 C349 1.424 . S
C349 H341 0.951 . S
C349 C348 1.424 . S
C349 C350 1.347 . S
C350 H342 0.951 . S
C350 C345 1.429 . S
C350 C349 1.347 . S
H351 C352 0.951 . S
C352 H351 0.951 . S
C352 C358 1.265 . S
H353 C358 0.950 . S
H354 C362 0.949 . S
H355 C363 0.950 . S
H356 C364 0.951 . S
H357 C365 0.951 . S
C358 C352 1.265 . S
C358 H353 0.950 . S
C358 C359 1.478 . S
C359 C346 1.394 . S
C359 C358 1.478 . S
C359 C360 1.397 . S
C360 C359 1.397 . S
C360 C361 1.438 . S
C360 C365 1.429 . S
C361 C344 1.394 . S
C361 C360 1.438 . S
C361 C362 1.428 . S
C362 H354 0.949 . S
C362 C361 1.428 . S
C362 C363 1.345 . S
C363 H355 0.950 . S
C363 C362 1.345 . S
C363 C364 1.424 . S
C364 H356 0.951 . S
C364 C363 1.424 . S
C364 C365 1.347 . S
C365 H357 0.951 . S
C365 C360 1.429 . S
C365 C364 1.347 . S
H366 C367 0.951 . S
C367 H366 0.951 . S
C367 C373 1.265 . S
H368 C373 0.950 . S
H369 C377 0.949 . S
H370 C378 0.950 . S
H371 C379 0.951 . S
H372 C380 0.951 . S
C373 C367 1.265 . S
C373 H368 0.950 . S
C373 C374 1.478 . S
C374 C373 1.478 . S
C374 C375 1.397 . S
C374 C391 1.394 . S
C375 C374 1.397 . S
C375 C376 1.438 . S
C375 C380 1.429 . S
C376 C375 1.438 . S
C376 C377 1.428 . S
C376 C389 1.394 . S
C377 H369 0.949 . S
C377 C376 1.428 . S
C377 C378 1.345 . S
C378 H370 0.950 . S
C378 C377 1.345 . S
C378 C379 1.424 . S
C379 H371 0.951 . S
C379 C378 1.424 . S
C379 C380 1.347 . S
C380 H372 0.951 . S
C380 C375 1.429 . S
C380 C379 1.347 . S
H381 C382 0.951 . S
C382 H381 0.951 . S
C382 C388 1.265 . S
H383 C388 0.950 . S
H384 C392 0.949 . S
H385 C393 0.950 . S
H386 C394 0.951 . S
H387 C395 0.951 . S
C388 C382 1.265 . S
C388 H383 0.950 . S
C388 C389 1.478 . S
C389 C376 1.394 . S
C389 C388 1.478 . S
C389 C390 1.397 . S
C390 C389 1.397 . S
C390 C391 1.438 . S
C390 C395 1.429 . S
C391 C374 1.394 . S
C391 C390 1.438 . S
C391 C392 1.428 . S
C392 H384 0.949 . S
C392 C391 1.428 . S
C392 C393 1.345 . S
C393 H385 0.950 . S
C393 C392 1.345 . S
C393 C394 1.424 . S
C394 H386 0.951 . S
C394 C393 1.424 . S
C394 C395 1.347 . S
C395 H387 0.951 . S
C395 C390 1.429 . S
C395 C394 1.347 . S
H396 C397 0.951 . S
C397 H396 0.951 . S
C397 C403 1.265 . S
H398 C403 0.950 . S
H399 C407 0.949 . S
H400 C408 0.950 . S
H401 C409 0.951 . S
H402 C410 0.951 . S
C403 C397 1.265 . S
C403 H398 0.950 . S
C403 C404 1.478 . S
C404 C403 1.478 . S
C404 C405 1.397 . S
C404 C421 1.394 . S
C405 C404 1.397 . S
C405 C406 1.438 . S
C405 C410 1.429 . S
C406 C405 1.438 . S
C406 C407 1.428 . S
C406 C419 1.394 . S
C407 H399 0.949 . S
C407 C406 1.428 . S
C407 C408 1.345 . S
C408 H400 0.950 . S
C408 C407 1.345 . S
C408 C409 1.424 . S
C409 H401 0.951 . S
C409 C408 1.424 . S
C409 C410 1.347 . S
C410 H402 0.951 . S
C410 C405 1.429 . S
C410 C409 1.347 . S
H411 C412 0.951 . S
C412 H411 0.951 . S
C412 C418 1.265 . S
H413 C418 0.950 . S
H414 C422 0.949 . S
H415 C423 0.950 . S
H416 C424 0.951 . S
H417 C425 0.951 . S
C418 C412 1.265 . S
C418 H413 0.950 . S
C418 C419 1.478 . S
C419 C406 1.394 . S
C419 C418 1.478 . S
C419 C420 1.397 . S
C420 C419 1.397 . S
C420 C421 1.438 . S
C420 C425 1.429 . S
C421 C404 1.394 . S
C421 C420 1.438 . S
C421 C422 1.428 . S
C422 H414 0.949 . S
C422 C421 1.428 . S
C422 C423 1.345 . S
C423 H415 0.950 . S
C423 C422 1.345 . S
C423 C424 1.424 . S
C424 H416 0.951 . S
C424 C423 1.424 . S
C424 C425 1.347 . S
C425 H417 0.951 . S
C425 C420 1.429 . S
C425 C424 1.347 . S
H426 C427 0.951 . S
C427 H426 0.951 . S
C427 C433 1.265 . S
H428 C433 0.950 . S
H429 C437 0.949 . S
H430 C438 0.950 . S
H431 C439 0.951 . S
H432 C440 0.951 . S
C433 C427 1.265 . S
C433 H428 0.950 . S
C433 C434 1.478 . S
C434 C433 1.478 . S
C434 C435 1.397 . S
C434 C451 1.394 . S
C435 C434 1.397 . S
C435 C436 1.438 . S
C435 C440 1.429 . S
C436 C435 1.438 . S
C436 C437 1.428 . S
C436 C449 1.394 . S
C437 H429 0.949 . S
C437 C436 1.428 . S
C437 C438 1.345 . S
C438 H430 0.950 . S
C438 C437 1.345 . S
C438 C439 1.424 . S
C439 H431 0.951 . S
C439 C438 1.424 . S
C439 C440 1.347 . S
C440 H432 0.951 . S
C440 C435 1.429 . S
C440 C439 1.347 . S
H441 C442 0.951 . S
C442 H441 0.951 . S
C442 C448 1.265 . S
H443 C448 0.950 . S
H444 C452 0.949 . S
H445 C453 0.950 . S
H446 C454 0.951 . S
H447 C455 0.951 . S
C448 C442 1.265 . S
C448 H443 0.950 . S
C448 C449 1.478 . S
C449 C436 1.394 . S
C449 C448 1.478 . S
C449 C450 1.397 . S
C450 C449 1.397 . S
C450 C451 1.438 . S
C450 C455 1.429 . S
C451 C434 1.394 . S
C451 C450 1.438 . S
C451 C452 1.428 . S
C452 H444 0.949 . S
C452 C451 1.428 . S
C452 C453 1.345 . S
C453 H445 0.950 . S
C453 C452 1.345 . S
C453 C454 1.424 . S
C454 H446 0.951 . S
C454 C453 1.424 . S
C454 C455 1.347 . S
C455 H447 0.951 . S
C455 C450 1.429 . S
C455 C454 1.347 . S
H456 C457 0.951 . S
C457 H456 0.951 . S
C457 C463 1.265 . S
H458 C463 0.950 . S
H459 C467 0.949 . S
H460 C468 0.950 . S
H461 C469 0.951 . S
H462 C470 0.951 . S
C463 C457 1.265 . S
C463 H458 0.950 . S
C463 C464 1.478 . S
C464 C463 1.478 . S
C464 C465 1.397 . S
C464 C481 1.394 . S
C465 C464 1.397 . S
C465 C466 1.438 . S
C465 C470 1.429 . S
C466 C465 1.438 . S
C466 C467 1.428 . S
C466 C479 1.394 . S
C467 H459 0.949 . S
C467 C466 1.428 . S
C467 C468 1.345 . S
C468 H460 0.950 . S
C468 C467 1.345 . S
C468 C469 1.424 . S
C469 H461 0.951 . S
C469 C468 1.424 . S
C469 C470 1.347 . S
C470 H462 0.951 . S
C470 C465 1.429 . S
C470 C469 1.347 . S
H471 C472 0.951 . S
C472 H471 0.951 . S
C472 C478 1.265 . S
H473 C478 0.950 . S
H474 C482 0.949 . S
H475 C483 0.950 . S
H476 C484 0.951 . S
H477 C485 0.951 . S
C478 C472 1.265 . S
C478 H473 0.950 . S
C478 C479 1.478 . S
C479 C466 1.394 . S
C479 C478 1.478 . S
C479 C480 1.397 . S
C480 C479 1.397 . S
C480 C481 1.438 . S
C480 C485 1.429 . S
C481 C464 1.394 . S
C481 C480 1.438 . S
C481 C482 1.428 . S
C482 H474 0.949 . S
C482 C481 1.428 . S
C482 C483 1.345 . S
C483 H475 0.950 . S
C483 C482 1.345 . S
C483 C484 1.424 . S
C484 H476 0.951 . S
C484 C483 1.424 . S
C484 C485 1.347 . S
C485 H477 0.951 . S
C485 C480 1.429 . S
C485 C484 1.347 . S
H486 C487 0.951 . S
C487 H486 0.951 . S
C487 C493 1.265 . S
H488 C493 0.950 1_655 S
H489 C497 0.949 . S
H490 C498 0.978 . S
H491 C499 0.951 . S
H492 C500 0.951 . S
C493 C487 1.265 . S
C493 H488 0.950 1_455 S
C493 C494 1.478 . S
C494 C493 1.478 . S
C494 C495 1.397 . S
C494 C511 1.394 . S
C495 C494 1.397 . S
C495 C496 1.438 . S
C495 C500 1.429 . S
C496 C495 1.438 . S
C496 C497 1.428 1_554 S
C496 C509 1.394 1_554 S
C497 H489 0.949 . S
C497 C496 1.428 1_556 S
C497 C498 1.357 . S
C498 H490 0.978 . S
C498 C497 1.357 . S
C498 C499 1.385 1_556 S
C499 H491 0.951 . S
C499 C498 1.385 1_554 S
C499 C500 1.347 . S
C500 H492 0.951 . S
C500 C495 1.429 . S
C500 C499 1.347 . S
H501 C502 0.951 . S
C502 H501 0.951 . S
C502 C508 1.265 . S
H503 C508 0.950 . S
H504 C512 0.949 . S
H505 C513 0.950 . S
H506 C514 0.951 . S
H507 C515 0.951 . S
C508 C502 1.265 . S
C508 H503 0.950 . S
C508 C509 1.478 . S
C509 C496 1.394 1_556 S
C509 C508 1.478 . S
C509 C510 1.397 1_556 S
C510 C509 1.397 1_554 S
C510 C511 1.438 . S
C510 C515 1.429 1_554 S
C511 C494 1.394 . S
C511 C510 1.438 . S
C511 C512 1.428 1_455 S
C512 H504 0.949 . S
C512 C511 1.428 1_655 S
C512 C513 1.345 . S
C513 H505 0.950 . S
C513 C512 1.345 . S
C513 C514 1.424 1_655 S
C514 H506 0.951 . S
C514 C513 1.424 1_455 S
C514 C515 1.347 1_554 S
C515 H507 0.951 . S
C515 C510 1.429 1_556 S
C515 C514 1.347 1_556 S
H516 C517 0.951 . S
C517 H516 0.951 . S
C517 C523 1.265 . S
H518 C523 0.950 . S
H519 C527 0.949 . S
H520 C528 0.950 . S
H521 C529 0.951 . S
H522 C530 0.951 . S
C523 C517 1.265 . S
C523 H518 0.950 . S
C523 C524 1.478 . S
C524 C523 1.478 . S
C524 C525 1.379 1_545 S
C524 C541 1.394 . S
C525 C524 1.379 1_565 S
C525 C526 1.430 1_565 S
C525 C530 1.455 . S
C526 C525 1.430 1_545 S
C526 C527 1.428 1_545 S
C526 C539 1.394 . S
C527 H519 0.949 . S
C527 C526 1.428 1_565 S
C527 C528 1.345 . S
C528 H520 0.950 . S
C528 C527 1.345 . S
C528 C529 1.424 . S
C529 H521 0.951 . S
C529 C528 1.424 . S
C529 C530 1.347 . S
C530 H522 0.951 . S
C530 C525 1.455 . S
C530 C529 1.347 . S
H531 C532 0.951 . S
C532 H531 0.951 . S
C532 C538 1.265 . S
H533 C538 0.950 . S
H534 C542 0.949 . S
H535 C543 0.950 . S
H536 C544 0.951 . S
H537 C545 0.951 . S
C538 C532 1.265 . S
C538 H533 0.950 . S
C538 C539 1.478 . S
C539 C526 1.394 . S
C539 C538 1.478 . S
C539 C540 1.397 . S
C540 C539 1.397 . S
C540 C541 1.438 . S
C540 C545 1.429 . S
C541 C524 1.394 . S
C541 C540 1.438 . S
C541 C542 1.428 . S
C542 H534 0.949 . S
C542 C541 1.428 . S
C542 C543 1.345 . S
C543 H535 0.950 . S
C543 C542 1.345 . S
C543 C544 1.424 . S
C544 H536 0.951 . S
C544 C543 1.424 . S
C544 C545 1.347 . S
C545 H537 0.951 . S
C545 C540 1.429 . S
C545 C544 1.347 . S
H546 C547 0.951 . S
C547 H546 0.951 . S
C547 C553 1.265 . S
H548 C553 0.950 . S
H549 C557 0.949 . S
H550 C558 0.950 . S
H551 C559 0.951 . S
H552 C560 0.951 . S
C553 C547 1.265 . S
C553 H548 0.950 . S
C553 C554 1.478 . S
C554 C553 1.478 . S
C554 C555 1.397 . S
C554 C571 1.394 . S
C555 C554 1.397 . S
C555 C556 1.438 . S
C555 C560 1.429 . S
C556 C555 1.438 . S
C556 C557 1.428 . S
C556 C569 1.394 . S
C557 H549 0.949 . S
C557 C556 1.428 . S
C557 C558 1.345 . S
C558 H550 0.950 . S
C558 C557 1.345 . S
C558 C559 1.424 . S
C559 H551 0.951 . S
C559 C558 1.424 . S
C559 C560 1.347 . S
C560 H552 0.951 . S
C560 C555 1.429 . S
C560 C559 1.347 . S
H561 C562 0.951 . S
C562 H561 0.951 . S
C562 C568 1.265 . S
H563 C568 0.950 . S
H564 C572 0.949 . S
H565 C573 0.950 . S
H566 C574 0.951 . S
H567 C575 0.951 . S
C568 C562 1.265 . S
C568 H563 0.950 . S
C568 C569 1.478 . S
C569 C556 1.394 . S
C569 C568 1.478 . S
C569 C570 1.397 . S
C570 C569 1.397 . S
C570 C571 1.438 . S
C570 C575 1.429 . S
C571 C554 1.394 . S
C571 C570 1.438 . S
C571 C572 1.428 . S
C572 H564 0.949 . S
C572 C571 1.428 . S
C572 C573 1.345 . S
C573 H565 0.950 . S
C573 C572 1.345 . S
C573 C574 1.424 . S
C574 H566 0.951 . S
C574 C573 1.424 . S
C574 C575 1.347 . S
C575 H567 0.951 . S
C575 C570 1.429 . S
C575 C574 1.347 . S
H576 C577 0.951 . S
C577 H576 0.951 . S
C577 C583 1.265 . S
H578 C583 0.950 . S
H579 C587 0.949 . S
H580 C588 0.950 . S
H581 C589 0.951 . S
H582 C590 0.951 . S
C583 C577 1.265 . S
C583 H578 0.950 . S
C583 C584 1.478 . S
C584 C583 1.478 . S
C584 C585 1.408 . S
C584 C601 1.394 . S
C585 C584 1.408 . S
C585 C586 1.434 . S
C585 C590 1.422 1_545 S
C586 C585 1.434 . S
C586 C587 1.428 1_545 S
C586 C599 1.394 . S
C587 H579 0.949 . S
C587 C586 1.428 1_565 S
C587 C588 1.345 . S
C588 H580 0.950 . S
C588 C587 1.345 . S
C588 C589 1.424 . S
C589 H581 0.951 . S
C589 C588 1.424 . S
C589 C590 1.347 . S
C590 H582 0.951 . S
C590 C585 1.422 1_565 S
C590 C589 1.347 . S
H591 C592 0.951 . S
C592 H591 0.951 . S
C592 C598 1.265 . S
H593 C598 0.950 . S
H594 C602 0.949 . S
H595 C603 0.950 . S
H596 C604 0.951 . S
H597 C605 0.951 . S
C598 C592 1.265 . S
C598 H593 0.950 . S
C598 C599 1.478 . S
C599 C586 1.394 . S
C599 C598 1.478 . S
C599 C600 1.397 . S
C600 C599 1.397 . S
C600 C601 1.438 . S
C600 C605 1.429 . S
C601 C584 1.394 . S
C601 C600 1.438 . S
C601 C602 1.428 . S
C602 H594 0.949 . S
C602 C601 1.428 . S
C602 C603 1.345 . S
C603 H595 0.950 . S
C603 C602 1.345 . S
C603 C604 1.424 . S
C604 H596 0.951 . S
C604 C603 1.424 . S
C604 C605 1.347 . S
C605 H597 0.951 . S
C605 C600 1.429 . S
C605 C604 1.347 . S
H606 C607 0.951 . S
C607 H606 0.951 . S
C607 C613 1.265 . S
H608 C613 0.950 . S
H609 C617 0.949 . S
H610 C618 0.969 . S
H611 C619 0.951 . S
H612 C620 0.951 . S
C613 C607 1.265 . S
C613 H608 0.950 . S
C613 C614 1.478 . S
C614 C613 1.478 . S
C614 C615 1.397 . S
C614 C631 1.394 . S
C615 C614 1.397 . S
C615 C616 1.438 . S
C615 C620 1.429 . S
C616 C615 1.438 . S
C616 C617 1.428 1_556 S
C616 C629 1.394 1_556 S
C617 H609 0.949 . S
C617 C616 1.428 1_554 S
C617 C618 1.345 1_554 S
C618 H610 0.969 . S
C618 C617 1.345 1_556 S
C618 C619 1.424 . S
C619 H611 0.951 . S
C619 C618 1.424 . S
C619 C620 1.347 . S
C620 H612 0.951 . S
C620 C615 1.429 . S
C620 C619 1.347 . S
H621 C622 0.951 . S
C622 H621 0.951 . S
C622 C628 1.265 . S
H623 C628 0.950 . S
H624 C632 0.949 . S
H625 C633 0.950 . S
H626 C634 0.963 . S
H627 C635 0.951 . S
C628 C622 1.265 . S
C628 H623 0.950 . S
C628 C629 1.478 . S
C629 C616 1.394 1_554 S
C629 C628 1.478 . S
C629 C630 1.397 1_554 S
C630 C629 1.397 1_556 S
C630 C631 1.438 . S
C630 C635 1.429 1_556 S
C631 C614 1.394 . S
C631 C630 1.438 . S
C631 C632 1.428 . S
C632 H624 0.949 . S
C632 C631 1.428 . S
C632 C633 1.345 . S
C633 H625 0.950 . S
C633 C632 1.345 . S
C633 C634 1.395 1_556 S
C634 H626 0.963 . S
C634 C633 1.395 1_554 S
C634 C635 1.365 . S
C635 H627 0.951 . S
C635 C630 1.429 1_554 S
C635 C634 1.365 . S
H636 C637 0.951 . S
C637 H636 0.951 . S
C637 C643 1.265 1_455 S
H638 C643 0.950 . S
H639 C647 0.949 . S
H640 C648 0.950 . S
H641 C649 0.951 . S
H642 C650 0.951 . S
C643 C637 1.265 1_655 S
C643 H638 0.950 . S
C643 C644 1.478 1_655 S
C644 C643 1.478 1_455 S
C644 C645 1.397 1_455 S
C644 C661 1.394 . S
C645 C644 1.397 1_655 S
C645 C646 1.443 . S
C645 C650 1.429 . S
C646 C645 1.443 . S
C646 C647 1.429 . S
C646 C659 1.387 1_655 S
C647 H639 0.949 . S
C647 C646 1.429 . S
C647 C648 1.345 . S
C648 H640 0.950 . S
C648 C647 1.345 . S
C648 C649 1.424 . S
C649 H641 0.951 . S
C649 C648 1.424 . S
C649 C650 1.347 . S
C650 H642 0.951 . S
C650 C645 1.429 . S
C650 C649 1.347 . S
H651 C652 0.951 1_655 S
C652 H651 0.951 1_455 S
C652 C658 1.265 . S
H653 C658 0.950 . S
H654 C662 0.949 . S
H655 C663 0.950 . S
H656 C664 0.951 . S
H657 C665 0.951 . S
C658 C652 1.265 . S
C658 H653 0.950 . S
C658 C659 1.478 . S
C659 C646 1.387 1_455 S
C659 C658 1.478 . S
C659 C660 1.397 . S
C660 C659 1.397 . S
C660 C661 1.438 . S
C660 C665 1.429 . S
C661 C644 1.394 . S
C661 C660 1.438 . S
C661 C662 1.428 . S
C662 H654 0.949 . S
C662 C661 1.428 . S
C662 C663 1.345 . S
C663 H655 0.950 . S
C663 C662 1.345 . S
C663 C664 1.424 . S
C664 H656 0.951 . S
C664 C663 1.424 . S
C664 C665 1.347 . S
C665 H657 0.951 . S
C665 C660 1.429 . S
C665 C664 1.347 . S
C127 C2 1.472 . S
C142 C125 1.518 . S
C157 C22 1.489 . S
C172 C103 1.486 . S
C187 C44 1.383 . S
C202 C114 1.503 . S
C217 C4 1.341 . S
C232 C119 1.511 . S
C262 C97 1.496 . S
C247 C24 1.360 . S
C292 C108 1.478 . S
C277 C42 1.456 . S
C307 C32 1.363 . S
C322 C81 1.397 . S
C337 C49 1.154 . S
C352 C86 1.204 . S
C367 C9 1.079 . S
C382 C64 1.175 . S
C412 C75 1.161 . S
C397 C29 1.062 . S
C442 C92 1.356 . S
C427 C52 1.246 . S
C457 C12 1.259 . S
C472 C70 1.318 . S
C502 C87 1.463 . S
C487 C18 1.504 . S
C517 C38 1.455 . S
C532 C65 1.468 . S
C547 C58 1.469 . S
C562 C76 1.486 . S
C592 C109 1.496 . S
C577 C39 1.481 . S
C622 C120 1.534 . S
C607 C59 1.502 . S
C637 C19 1.468 . S
C652 C98 1.537 . S
