# Generated by pormake.
# Topology anh, (6,3)-cn, num edge types: 1
# Building blocks:
#     Node 0, Type 0, BuildingBlock: BETDEL_clean_sbu_0, # of connection points: 6
#     Node 1, Type 0, BuildingBlock: BETDEL_clean_sbu_0, # of connection points: 6
#     Node 2, Type 0, BuildingBlock: BETDEL_clean_sbu_0, # of connection points: 6
#     Node 3, Type 1, BuildingBlock: CUQRIR_clean_linker_1, # of connection points: 3
#     Node 4, Type 1, BuildingBlock: CUQRIR_clean_linker_1, # of connection points: 3
#     Node 5, Type 1, BuildingBlock: CUQRIR_clean_linker_1, # of connection points: 3
#     Node 6, Type 1, BuildingBlock: CUQRIR_clean_linker_1, # of connection points: 3
#     Node 7, Type 1, BuildingBlock: CUQRIR_clean_linker_1, # of connection points: 3
#     Node 8, Type 1, BuildingBlock: CUQRIR_clean_linker_1, # of connection points: 3
#     Edge 9, Type (0, 1), BuildingBlock: CIFDUS_clean_linker_0, # of connection points: 2
#     Edge 10, Type (0, 1), BuildingBlock: CIFDUS_clean_linker_0, # of connection points: 2
#     Edge 11, Type (0, 1), BuildingBlock: CIFDUS_clean_linker_0, # of connection points: 2
#     Edge 12, Type (0, 1), BuildingBlock: CIFDUS_clean_linker_0, # of connection points: 2
#     Edge 13, Type (0, 1), BuildingBlock: CIFDUS_clean_linker_0, # of connection points: 2
#     Edge 14, Type (0, 1), BuildingBlock: CIFDUS_clean_linker_0, # of connection points: 2
#     Edge 15, Type (0, 1), BuildingBlock: CIFDUS_clean_linker_0, # of connection points: 2
#     Edge 16, Type (0, 1), BuildingBlock: CIFDUS_clean_linker_0, # of connection points: 2
#     Edge 17, Type (0, 1), BuildingBlock: CIFDUS_clean_linker_0, # of connection points: 2
#     Edge 18, Type (0, 1), BuildingBlock: CIFDUS_clean_linker_0, # of connection points: 2
#     Edge 19, Type (0, 1), BuildingBlock: CIFDUS_clean_linker_0, # of connection points: 2
#     Edge 20, Type (0, 1), BuildingBlock: CIFDUS_clean_linker_0, # of connection points: 2
#     Edge 21, Type (0, 1), BuildingBlock: CIFDUS_clean_linker_0, # of connection points: 2
#     Edge 22, Type (0, 1), BuildingBlock: CIFDUS_clean_linker_0, # of connection points: 2
#     Edge 23, Type (0, 1), BuildingBlock: CIFDUS_clean_linker_0, # of connection points: 2
#     Edge 24, Type (0, 1), BuildingBlock: CIFDUS_clean_linker_0, # of connection points: 2
#     Edge 25, Type (0, 1), BuildingBlock: CIFDUS_clean_linker_0, # of connection points: 2
#     Edge 26, Type (0, 1), BuildingBlock: CIFDUS_clean_linker_0, # of connection points: 2
# Relax obj value: 0.134
# Max RMSD: 0.201
# Mean RMSD: 0.139
data_MOF--net-anh--node1-BETDEL_clean_sbu_0--node2-CUQRIR_clean_linker_1--edge1-CIFDUS_clean_linker_0
_symmetry_space_group_name_H-M    P1
_symmetry_Int_Tables_number       1
_symmetry_cell_setting            triclinic
loop_
_symmetry_equiv_pos_as_xyz
'x, y, z'
_cell_length_a     24.217015
_cell_length_b     24.128913
_cell_length_c     38.689047
_cell_angle_alpha  85.692254
_cell_angle_beta   89.67618
_cell_angle_gamma 120.11351
loop_
_atom_site_label
_atom_site_type_symbol
_atom_site_fract_x
_atom_site_fract_y
_atom_site_fract_z
_atom_type_partial_charge
Dy0 Dy 0.05789 0.47663 0.1697 0.0
C1 C 0.88531 0.56062 0.18052 0.0
C2 C 0.14665 0.44837 0.152 0.0
Dy3 Dy 0.97982 0.53823 0.16561 0.0
O4 O 0.10345 0.41707 0.17695 0.0
O5 O 0.13506 0.48882 0.13416 0.0
O6 O 0.07247 0.4711 0.22712 0.0
O7 O 1.02069 0.512 0.20677 0.0
C8 C 0.04089 0.49951 0.2341 0.0
C9 C 0.02829 0.53554 0.10369 0.0
O10 O 0.07053 0.62293 0.18221 0.0
O11 O 0.1351 0.58404 0.16568 0.0
O12 O 0.92978 0.59325 0.15628 0.0
O13 O 0.89437 0.51776 0.19722 0.0
O14 O 1.02121 0.58269 0.11217 0.0
O15 O 1.00469 0.48998 0.12762 0.0
O16 O 0.96214 0.3842 0.17212 0.0
O17 O 0.90013 0.43236 0.16895 0.0
C18 C 0.12869 0.6323 0.17562 0.0
C19 C 0.905 0.37962 0.17257 0.0
Dy20 Dy 0.51373 0.03925 0.50109 0.0
C21 C 0.7599 0.18936 0.52578 0.0
C22 C 0.39395 0.95151 0.48967 0.0
Dy23 Dy 0.64809 0.10212 0.50165 0.0
O24 O 0.41472 0.96837 0.51998 0.0
O25 O 0.43729 0.98625 0.46542 0.0
O26 O 0.50861 0.0736 0.55175 0.0
O27 O 0.57616 0.04459 0.54303 0.0
C28 C 0.5544 0.0668 0.56458 0.0
C29 C 0.62492 0.10031 0.43329 0.0
O30 O 0.63735 1.00306 0.51137 0.0
O31 O 0.52993 0.9534 0.5017 0.0
O32 O 0.75444 0.15116 0.50229 0.0
O33 O 0.7038 0.17378 0.53822 0.0
O34 O 0.68127 0.12248 0.44532 0.0
O35 O 0.58384 0.07775 0.45839 0.0
O36 O 0.52243 0.1371 0.49138 0.0
O37 O 0.62684 0.18388 0.50586 0.0
C38 C 0.58221 0.94972 0.50765 0.0
C39 C 0.57549 0.18865 0.49921 0.0
Dy40 Dy 0.624 0.6953 0.82962 0.0
C41 C 0.52738 0.44802 0.86104 0.0
C42 C 0.66198 0.81864 0.80919 0.0
Dy43 Dy 0.55417 0.56726 0.83713 0.0
O44 O 0.68216 0.8003 0.83605 0.0
O45 O 0.62326 0.76994 0.79288 0.0
O46 O 0.66835 0.703 0.88018 0.0
O47 O 0.57136 0.63304 0.87652 0.0
C48 C 0.61808 0.65509 0.89605 0.0
C49 C 0.5632 0.61092 0.77004 0.0
O50 O 0.46642 0.57343 0.8509 0.0
O51 O 0.52137 0.67995 0.83167 0.0
O52 O 0.50232 0.46084 0.83418 0.0
O53 O 0.56307 0.4999 0.87573 0.0
O54 O 0.51104 0.56528 0.78592 0.0
O55 O 0.60908 0.63015 0.79014 0.0
O56 O 0.71263 0.68682 0.82134 0.0
O57 O 0.65393 0.57879 0.83595 0.0
C58 C 0.46617 0.62756 0.84274 0.0
C59 C 0.71042 0.63119 0.82859 0.0
C60 C 0.51745 1.00887 0.18403 0.0
N61 N 0.55903 0.05136 0.20588 0.0
N62 N 0.46598 0.95734 0.20196 0.0
C63 C 0.52596 0.01932 0.14521 0.0
C64 C 0.47853 0.97035 0.2355 0.0
N65 N 0.53429 0.02651 0.23794 0.0
C66 C 0.43451 0.92873 0.26596 0.0
H67 H 0.50905 0.05259 0.13585 0.0
H68 H 0.49807 0.97361 0.13304 0.0
H69 H 0.57733 0.04209 0.13707 0.0
H70 H 0.41199 0.87714 0.26142 0.0
H71 H 0.39598 0.94042 0.26893 0.0
H72 H 0.45952 0.93665 0.29053 0.0
C73 C 0.57221 0.56912 0.51574 0.0
N74 N 0.58145 0.61183 0.53983 0.0
N75 N 0.56461 0.51225 0.53109 0.0
C76 C 0.57509 0.58446 0.47727 0.0
C77 C 0.56795 0.52194 0.56526 0.0
N78 N 0.58002 0.58185 0.57051 0.0
C79 C 0.55394 0.47058 0.59425 0.0
H80 H 0.5262 0.56987 0.469 0.0
H81 H 0.59291 0.55752 0.46333 0.0
H82 H 0.60621 0.63686 0.47015 0.0
H83 H 0.59925 0.4735 0.60205 0.0
H84 H 0.52155 0.42193 0.58596 0.0
H85 H 0.53135 0.47763 0.61727 0.0
C86 C 0.08627 0.61927 0.84958 0.0
N87 N 0.11831 0.60301 0.874 0.0
N88 N 0.02941 0.61039 0.86311 0.0
C89 C 0.10944 0.64287 0.81253 0.0
C90 C 0.02826 0.58826 0.89639 0.0
N91 N 0.08101 0.58388 0.90311 0.0
C92 C 0.97822 0.57721 0.92372 0.0
H93 H 0.14566 0.69485 0.81103 0.0
H94 H 0.06944 0.63646 0.79622 0.0
H95 H 0.13216 0.61684 0.80241 0.0
H96 H 0.93375 0.57049 0.91212 0.0
H97 H 0.99751 0.61942 0.9392 0.0
H98 H 0.96622 0.53416 0.9416 0.0
C99 C 0.05289 0.5726 0.48443 0.0
N100 N 0.02523 0.53363 0.45919 0.0
N101 N 0.08895 0.63339 0.47049 0.0
C102 C 0.05099 0.55089 0.52221 0.0
C103 C 0.08103 0.63012 0.43588 0.0
N104 N 0.0415 0.56896 0.42902 0.0
C105 C 0.11865 0.68491 0.40849 0.0
H106 H 0.02923 0.57227 0.53794 0.0
H107 H 0.10039 0.56876 0.53065 0.0
H108 H 0.02327 0.49782 0.5275 0.0
H109 H 0.15657 0.67859 0.39636 0.0
H110 H 0.14089 0.73206 0.41961 0.0
H111 H 0.08711 0.68461 0.38776 0.0
C112 C 0.58159 0.13002 0.81341 0.0
N113 N 0.59293 0.10074 0.78849 0.0
N114 N 0.58286 0.18315 0.79923 0.0
C115 C 0.56511 0.10487 0.851 0.0
C116 C 0.59551 0.18539 0.76498 0.0
N117 N 0.60277 0.13532 0.75849 0.0
C118 C 0.59652 0.23408 0.73799 0.0
H119 H 0.51236 0.07559 0.85502 0.0
H120 H 0.58266 0.14534 0.86769 0.0
H121 H 0.5857 0.07411 0.85885 0.0
H122 H 0.64069 0.28092 0.74015 0.0
H123 H 0.55522 0.24093 0.7428 0.0
H124 H 0.59549 0.21971 0.71133 0.0
C125 C 0.53965 0.53299 0.1516 0.0
N126 N 0.58097 0.55579 0.12379 0.0
N127 N 0.48205 0.51967 0.1415 0.0
C128 C 0.5541 0.52149 0.18835 0.0
C129 C 0.48919 0.5353 0.10689 0.0
N130 N 0.54994 0.55691 0.096 0.0
C131 C 0.43721 0.53089 0.08415 0.0
H132 H 0.53084 0.46886 0.19536 0.0
H133 H 0.5332 0.54072 0.20627 0.0
H134 H 0.60613 0.54396 0.19194 0.0
H135 H 0.43078 0.5726 0.08759 0.0
H136 H 0.39127 0.48648 0.09206 0.0
H137 H 0.44925 0.53192 0.05633 0.0
H138 H 0.19773 0.37285 0.16367 0.0
H139 H 0.23779 0.56872 0.16003 0.0
H140 H 0.34915 0.60689 0.17081 0.0
H141 H 0.43729 0.587 0.16642 0.0
H142 H 0.40166 0.39536 0.15987 0.0
H143 H 0.28645 0.35136 0.16982 0.0
C144 C 0.23131 0.42358 0.16537 0.0
C145 C 0.21188 0.46853 0.15908 0.0
C146 C 0.29557 0.44533 0.17042 0.0
C147 C 0.2537 0.53403 0.16282 0.0
C148 C 0.31684 0.55576 0.1696 0.0
C149 C 0.40385 0.53553 0.16918 0.0
C150 C 0.42527 0.49383 0.16223 0.0
C151 C 0.33878 0.51225 0.17146 0.0
C152 C 0.38401 0.42725 0.16531 0.0
C153 C 0.3187 0.40263 0.17026 0.0
H154 H 0.88124 0.2398 0.50043 0.0
H155 H 0.74697 0.28975 0.54045 0.0
H156 H 0.81117 0.39917 0.51451 0.0
H157 H 0.90632 0.48097 0.48075 0.0
H158 H 0.05451 0.44032 0.45571 0.0
H159 H 0.9845 0.32658 0.47428 0.0
C160 C 0.86738 0.2753 0.50436 0.0
C161 C 0.8092 0.25684 0.52164 0.0
C162 C 0.90612 0.33899 0.49086 0.0
C163 C 0.7913 0.3029 0.52677 0.0
C164 C 0.82762 0.36532 0.51171 0.0
C165 C 0.92183 0.44618 0.47864 0.0
C166 C 0.98258 0.46656 0.46455 0.0
C167 C 0.88456 0.38344 0.49327 0.0
C168 C 1.00551 0.4237 0.46364 0.0
C169 C 0.96636 0.35937 0.47542 0.0
H170 H 0.56222 0.83046 0.79316 0.0
H171 H 0.7578 0.93651 0.82242 0.0
H172 H 0.7523 0.03562 0.82006 0.0
H173 H 0.69216 0.0913 0.8068 0.0
H174 H 0.4952 0.98325 0.78163 0.0
H175 H 0.49957 0.88344 0.7857 0.0
C176 C 0.60391 0.87563 0.7984 0.0
C177 C 0.66131 0.87817 0.80633 0.0
C178 C 0.59954 0.93075 0.79804 0.0
C179 C 0.71409 0.93522 0.81511 0.0
C180 C 0.71072 0.9912 0.81402 0.0
C181 C 0.65073 0.04544 0.80237 0.0
C182 C 0.59415 0.04285 0.79308 0.0
C183 C 0.65394 0.98946 0.80505 0.0
C184 C 0.53933 0.98462 0.788 0.0
C185 C 0.54194 0.92834 0.79038 0.0
H186 H 0.85333 0.65057 0.1691 0.0
H187 H 0.77974 0.4458 0.17848 0.0
H188 H 0.681 0.42724 0.1528 0.0
H189 H 0.61608 0.4699 0.12826 0.0
H190 H 0.68295 0.67206 0.12467 0.0
H191 H 0.786 0.69268 0.14654 0.0
C192 C 0.81459 0.60207 0.16638 0.0
C193 C 0.8221 0.54966 0.17595 0.0
C194 C 0.75863 0.59193 0.15154 0.0
C195 C 0.77319 0.48657 0.17206 0.0
C196 C 0.71765 0.47602 0.15673 0.0
C197 C 0.65478 0.51839 0.13106 0.0
C198 C 0.64473 0.5699 0.12428 0.0
C199 C 0.71051 0.52849 0.14594 0.0
C200 C 0.69237 0.63274 0.12888 0.0
C201 C 0.7499 0.64401 0.1421 0.0
H202 H 0.28489 0.88478 0.52773 0.0
H203 H 0.39865 0.87393 0.44513 0.0
H204 H 0.31809 0.76205 0.43995 0.0
H205 H 0.2091 0.67537 0.45235 0.0
H206 H 0.08622 0.69465 0.52502 0.0
H207 H 0.17754 0.79327 0.54325 0.0
C208 C 0.29117 0.85761 0.50849 0.0
C209 C 0.34463 0.88701 0.48554 0.0
C210 C 0.24385 0.79485 0.50472 0.0
C211 C 0.35526 0.85208 0.46162 0.0
C212 C 0.31018 0.78822 0.45913 0.0
C213 C 0.20302 0.70167 0.47216 0.0
C214 C 0.14219 0.68167 0.48621 0.0
C215 C 0.25327 0.76039 0.47946 0.0
C216 C 0.13342 0.71202 0.51333 0.0
C217 C 0.18506 0.76804 0.52338 0.0
H218 H 0.44886 0.32668 0.84706 0.0
H219 H 0.64119 0.45857 0.87419 0.0
H220 H 0.67611 0.3849 0.85831 0.0
H221 H 0.65372 0.28816 0.83028 0.0
H222 H 0.46222 0.15591 0.80376 0.0
H223 H 0.42379 0.22343 0.82658 0.0
C224 C 0.49763 0.33771 0.85073 0.0
C225 C 0.54211 0.39673 0.86201 0.0
C226 C 0.51739 0.29555 0.84135 0.0
C227 C 0.6058 0.41219 0.86622 0.0
C228 C 0.62608 0.37067 0.85672 0.0
C229 C 0.60367 0.27451 0.83018 0.0
C230 C 0.56037 0.21913 0.81534 0.0
C231 C 0.58262 0.31319 0.84329 0.0
C232 C 0.49546 0.19966 0.81503 0.0
C233 C 0.47386 0.23787 0.828 0.0
H234 H 0.66402 0.90885 0.53613 0.0
H235 H 0.48663 0.83924 0.48459 0.0
H236 H 0.47203 0.73144 0.48821 0.0
H237 H 0.50706 0.65341 0.50732 0.0
H238 H 0.68198 0.72065 0.56041 0.0
H239 H 0.69939 0.83028 0.55515 0.0
C240 C 0.62228 0.87029 0.52551 0.0
C241 C 0.57663 0.88366 0.50997 0.0
C242 C 0.61327 0.80668 0.52814 0.0
C243 C 0.52278 0.83174 0.4968 0.0
C244 C 0.51425 0.76939 0.49882 0.0
C245 C 0.54933 0.69218 0.51741 0.0
C246 C 0.59312 0.67795 0.53431 0.0
C247 C 0.55882 0.75581 0.51456 0.0
C248 C 0.64712 0.72937 0.54756 0.0
C249 C 0.6572 0.7925 0.54444 0.0
H250 H 0.83668 0.71638 0.84656 0.0
H251 H 0.71896 0.52895 0.8105 0.0
H252 H 0.80793 0.50867 0.81367 0.0
H253 H 0.91781 0.5392 0.83138 0.0
H254 H 0.0353 0.72383 0.86953 0.0
H255 H 0.94977 0.74951 0.86126 0.0
C256 C 0.83068 0.67149 0.83885 0.0
C257 C 0.76991 0.62443 0.82807 0.0
C258 C 0.88286 0.65921 0.84135 0.0
C259 C 0.76411 0.56628 0.81894 0.0
C260 C 0.81546 0.55447 0.82076 0.0
C261 C 0.9256 0.58603 0.83661 0.0
C262 C 0.9848 0.63057 0.84975 0.0
C263 C 0.87497 0.59995 0.8324 0.0
C264 C 0.99194 0.68969 0.858 0.0
C265 C 0.94226 0.70397 0.85373 0.0
H266 H 0.25901 0.68112 0.15778 0.0
H267 H 0.13168 0.73399 0.2044 0.0
H268 H 0.22223 0.83864 0.21439 0.0
H269 H 0.33912 0.916 0.21234 0.0
H270 H 0.46784 0.86554 0.16603 0.0
H271 H 0.37678 0.76151 0.15322 0.0
C272 C 0.25079 0.71534 0.17012 0.0
C273 C 0.1871 0.69788 0.18044 0.0
C274 C 0.30412 0.7771 0.17576 0.0
C275 C 0.17898 0.74449 0.19608 0.0
C276 C 0.23125 0.80504 0.20189 0.0
C277 C 0.34727 0.88259 0.19905 0.0
C278 C 0.41106 0.89971 0.18988 0.0
C279 C 0.2942 0.82203 0.19212 0.0
C280 C 0.41988 0.85492 0.17283 0.0
C281 C 0.36747 0.79481 0.16583 0.0
H282 H 0.50473 0.2469 0.47213 0.0
H283 H 0.64842 0.27139 0.54441 0.0
H284 H 0.6645 0.37543 0.55594 0.0
H285 H 0.63806 0.46036 0.54744 0.0
H286 H 0.48547 0.43602 0.48248 0.0
H287 H 0.47376 0.33396 0.46563 0.0
C288 C 0.53968 0.27509 0.49029 0.0
C289 C 0.57797 0.25139 0.50597 0.0
C290 C 0.54735 0.33593 0.4981 0.0
C291 C 0.62142 0.289 0.53009 0.0
C292 C 0.62992 0.34866 0.53726 0.0
C293 C 0.60193 0.43282 0.52965 0.0
C294 C 0.56264 0.45659 0.51655 0.0
C295 C 0.59364 0.37293 0.52142 0.0
C296 C 0.51703 0.42002 0.49289 0.0
C297 C 0.50987 0.36091 0.48357 0.0
H298 H 0.34688 0.54093 0.87706 0.0
H299 H 0.44362 0.72129 0.81347 0.0
H300 H 0.34727 0.72972 0.81611 0.0
H301 H 0.23437 0.68824 0.83787 0.0
H302 H 0.13775 0.50785 0.90132 0.0
H303 H 0.23352 0.49863 0.89805 0.0
C304 C 0.34722 0.58224 0.86371 0.0
C305 C 0.40429 0.6306 0.84513 0.0
C306 C 0.2907 0.58744 0.86565 0.0
C307 C 0.40193 0.68332 0.82825 0.0
C308 C 0.34615 0.68822 0.82971 0.0
C309 C 0.23357 0.64636 0.85065 0.0
C310 C 0.17714 0.59883 0.87007 0.0
C311 C 0.28996 0.6409 0.84847 0.0
C312 C 0.17952 0.54595 0.88671 0.0
C313 C 0.23475 0.54032 0.88462 0.0
H314 H 0.77685 0.34092 0.16121 0.0
H315 H 0.89648 0.267 0.19944 0.0
H316 H 0.80225 0.16113 0.21358 0.0
H317 H 0.68372 0.08736 0.21644 0.0
H318 H 0.56437 0.15828 0.17484 0.0
H319 H 0.65879 0.26547 0.16099 0.0
C320 C 0.78257 0.30173 0.17249 0.0
C321 C 0.84507 0.31337 0.17911 0.0
C322 C 0.7273 0.2394 0.18019 0.0
C323 C 0.85008 0.26073 0.19368 0.0
C324 C 0.79569 0.1996 0.20199 0.0
C325 C 0.67852 0.12628 0.2042 0.0
C326 C 0.61642 0.11433 0.19675 0.0
C327 C 0.73382 0.18805 0.19556 0.0
C328 C 0.61111 0.16568 0.18076 0.0
C329 C 0.66539 0.22723 0.17289 0.0
H330 H 0.10591 0.63409 0.05703 0.0
H331 H 0.99161 0.42729 0.0698 0.0
H332 H 1.00867 0.42262 0.00772 0.0
H333 H 0.04241 0.47947 0.9484 0.0
H334 H 0.15803 0.6856 0.93662 0.0
H335 H 0.156 0.68886 0.99968 0.0
C336 C 0.08568 0.58793 0.0463 0.0
C337 C 0.04659 0.53118 0.06776 0.0
C338 C 0.09632 0.5857 0.01076 0.0
C339 C 1.02147 0.47165 0.05373 0.0
C340 C 0.03116 0.46902 0.01822 0.0
C341 C 0.0698 0.52459 0.95992 0.0
C342 C 0.10099 0.58231 0.93806 0.0
C343 C 0.06689 0.5259 0.99627 0.0
C344 C 0.13503 0.64076 0.95305 0.0
C345 C 0.13268 0.64258 0.98904 0.0
H346 H 0.58043 0.14866 0.38064 0.0
H347 H 0.6408 1.01061 0.40512 0.0
H348 H 0.62429 0.97967 0.34563 0.0
H349 H 0.58958 0.98929 0.28675 0.0
H350 H 0.52918 0.12635 0.26117 0.0
H351 H 0.55016 0.16176 0.32014 0.0
C352 C 0.58962 0.11168 0.37283 0.0
C353 C 0.61117 0.08135 0.3973 0.0
C354 C 0.58103 0.09484 0.33814 0.0
C355 C 0.62378 0.03419 0.38679 0.0
C356 C 0.61465 0.01672 0.35273 0.0
C357 C 0.58262 0.02796 0.29406 0.0
C358 C 0.55872 0.05589 0.26978 0.0
C359 C 0.59336 0.04665 0.32816 0.0
C360 C 0.54855 0.1051 0.27942 0.0
C361 C 0.55978 0.12461 0.31323 0.0
H362 H 0.65292 0.61653 0.72449 0.0
H363 H 0.48585 0.63587 0.72994 0.0
H364 H 0.48281 0.64144 0.66653 0.0
H365 H 0.51701 0.62209 0.61021 0.0
H366 H 0.68113 0.59821 0.60541 0.0
H367 H 0.69594 0.6124 0.66725 0.0
C368 C 0.61678 0.62337 0.71166 0.0
C369 C 0.5693 0.62522 0.73178 0.0
C370 C 0.61411 0.62439 0.67516 0.0
C371 C 0.52241 0.63356 0.71491 0.0
C372 C 0.52061 0.63665 0.67866 0.0
C373 C 0.55725 0.62253 0.62259 0.0
C374 C 0.59797 0.60917 0.60345 0.0
C375 C 0.56462 0.62949 0.65853 0.0
C376 C 0.64955 0.60884 0.61978 0.0
C377 C 0.65763 0.61634 0.65519 0.0
H378 H 0.65936 0.12517 0.60283 0.0
H379 H 0.45639 0.992 0.61042 0.0
H380 H 0.45532 0.99367 0.67344 0.0
H381 H 0.50892 0.04655 0.72483 0.0
H382 H 0.70955 0.18554 0.71757 0.0
H383 H 0.71572 0.16864 0.65608 0.0
C384 C 0.61546 0.09546 0.61848 0.0
C385 C 0.55801 0.05882 0.60232 0.0
C386 C 0.61485 0.09858 0.65462 0.0
C387 C 0.50104 0.0208 0.62259 0.0
C388 C 0.50036 0.02188 0.65852 0.0
C389 C 0.5541 0.07124 0.70984 0.0
C390 C 0.60882 0.11666 0.72507 0.0
C391 C 0.55643 0.0625 0.67461 0.0
C392 C 0.66723 0.15011 0.70582 0.0
C393 C 0.6705 0.14063 0.67083 0.0
H394 H 0.57789 0.5452 0.93758 0.0
H395 H 0.6455 0.7477 0.93864 0.0
H396 H 0.63768 0.73681 0.00211 0.0
H397 H 0.60554 0.66803 0.05718 0.0
H398 H 0.54104 0.46677 0.0567 0.0
H399 H 0.55545 0.47828 0.99311 0.0
C400 C 0.5906 0.5866 0.95185 0.0
C401 C 0.61111 0.64684 0.93392 0.0
C402 C 0.58765 0.58025 0.98826 0.0
C403 C 0.62896 0.70079 0.95231 0.0
C404 C 0.62483 0.69468 0.98845 0.0
C405 C 0.59662 0.62756 0.0429 0.0
C406 C 0.57298 0.56701 0.06077 0.0
C407 C 0.6039 0.63463 0.00666 0.0
C408 C 0.56018 0.51387 0.04279 0.0
C409 C 0.56759 0.52038 0.00666 0.0
H410 H 0.07863 0.46819 0.29305 0.0
H411 H 0.97798 0.56171 0.25204 0.0
H412 H 0.96301 0.58651 0.31056 0.0
H413 H 0.98362 0.58498 0.37348 0.0
H414 H 0.10094 0.50809 0.41 0.0
H415 H 0.1019 0.47 0.35373 0.0
C416 C 0.05303 0.4936 0.29698 0.0
C417 C 0.0292 0.51292 0.26872 0.0
C418 C 0.04626 0.50892 0.33011 0.0
C419 C 0.99636 0.54612 0.2738 0.0
C420 C 0.98791 0.56032 0.30712 0.0
C421 C 1.00829 0.55894 0.36884 0.0
C422 C 0.03842 0.54483 0.39608 0.0
C423 C 1.01319 0.54233 0.33547 0.0
C424 C 0.07291 0.51395 0.39003 0.0
C425 C 0.07503 0.49408 0.35763 0.0
loop_
_geom_bond_atom_site_label_1
_geom_bond_atom_site_label_2
_geom_bond_distance
_geom_bond_site_symmetry_2
_ccdc_geom_bond_type
Dy0 O4 2.398 . S
Dy0 O5 2.491 . S
Dy0 O6 2.403 . S
Dy0 O7 2.664 1_455 S
Dy0 O11 2.326 . S
Dy0 O15 2.310 . S
Dy0 O16 2.351 1_455 S
C1 O12 1.185 . S
C1 O13 1.355 . S
C2 O4 1.185 . S
C2 O5 1.355 . S
Dy3 O7 2.310 . S
Dy3 O10 2.351 1_655 S
Dy3 O12 2.398 . S
Dy3 O13 2.491 . S
Dy3 O14 2.403 . S
Dy3 O15 2.664 1_655 S
Dy3 O17 2.326 . S
O4 Dy0 2.398 . S
O4 C2 1.185 . S
O5 Dy0 2.491 . S
O5 C2 1.355 . S
O6 Dy0 2.403 . S
O6 C8 1.266 . S
O7 Dy0 2.664 1_655 S
O7 Dy3 2.310 . S
O7 C8 1.262 1_655 S
C8 O6 1.266 . S
C8 O7 1.262 1_455 S
C9 O14 1.254 1_455 S
C9 O15 1.268 . S
O10 Dy3 2.351 1_455 S
O10 C18 1.249 . S
O11 Dy0 2.326 . S
O11 C18 1.267 . S
O12 C1 1.185 . S
O12 Dy3 2.398 . S
O13 C1 1.355 . S
O13 Dy3 2.491 . S
O14 Dy3 2.403 . S
O14 C9 1.254 1_655 S
O15 Dy0 2.310 . S
O15 Dy3 2.664 1_455 S
O15 C9 1.268 . S
O16 Dy0 2.351 1_655 S
O16 C19 1.249 . S
O17 Dy3 2.326 . S
O17 C19 1.267 . S
C18 O10 1.249 . S
C18 O11 1.267 . S
C19 O16 1.249 . S
C19 O17 1.267 . S
Dy20 O24 2.398 1_545 S
Dy20 O25 2.491 1_545 S
Dy20 O26 2.403 . S
Dy20 O27 2.664 . S
Dy20 O31 2.326 1_545 S
Dy20 O35 2.310 . S
Dy20 O36 2.351 . S
C21 O32 1.185 . S
C21 O33 1.355 . S
C22 O24 1.185 . S
C22 O25 1.355 . S
Dy23 O27 2.310 . S
Dy23 O30 2.351 1_545 S
Dy23 O32 2.398 . S
Dy23 O33 2.491 . S
Dy23 O34 2.403 . S
Dy23 O35 2.664 . S
Dy23 O37 2.326 . S
O24 Dy20 2.398 1_565 S
O24 C22 1.185 . S
O25 Dy20 2.491 1_565 S
O25 C22 1.355 . S
O26 Dy20 2.403 . S
O26 C28 1.254 . S
O27 Dy20 2.664 . S
O27 Dy23 2.310 . S
O27 C28 1.268 . S
C28 O26 1.254 . S
C28 O27 1.268 . S
C29 O34 1.254 . S
C29 O35 1.268 . S
O30 Dy23 2.351 1_565 S
O30 C38 1.249 . S
O31 Dy20 2.326 1_565 S
O31 C38 1.267 . S
O32 C21 1.185 . S
O32 Dy23 2.398 . S
O33 C21 1.355 . S
O33 Dy23 2.491 . S
O34 Dy23 2.403 . S
O34 C29 1.254 . S
O35 Dy20 2.310 . S
O35 Dy23 2.664 . S
O35 C29 1.268 . S
O36 Dy20 2.351 . S
O36 C39 1.249 . S
O37 Dy23 2.326 . S
O37 C39 1.267 . S
C38 O30 1.249 . S
C38 O31 1.267 . S
C39 O36 1.249 . S
C39 O37 1.267 . S
Dy40 O44 2.398 . S
Dy40 O45 2.491 . S
Dy40 O46 2.403 . S
Dy40 O47 2.664 . S
Dy40 O51 2.326 . S
Dy40 O55 2.310 . S
Dy40 O56 2.351 . S
C41 O52 1.185 . S
C41 O53 1.355 . S
C42 O44 1.185 . S
C42 O45 1.355 . S
Dy43 O47 2.310 . S
Dy43 O50 2.351 . S
Dy43 O52 2.398 . S
Dy43 O53 2.491 . S
Dy43 O54 2.403 . S
Dy43 O55 2.664 . S
Dy43 O57 2.326 . S
O44 Dy40 2.398 . S
O44 C42 1.185 . S
O45 Dy40 2.491 . S
O45 C42 1.355 . S
O46 Dy40 2.403 . S
O46 C48 1.254 . S
O47 Dy40 2.664 . S
O47 Dy43 2.310 . S
O47 C48 1.268 . S
C48 O46 1.254 . S
C48 O47 1.268 . S
C49 O54 1.254 . S
C49 O55 1.268 . S
O50 Dy43 2.351 . S
O50 C58 1.249 . S
O51 Dy40 2.326 . S
O51 C58 1.267 . S
O52 C41 1.185 . S
O52 Dy43 2.398 . S
O53 C41 1.355 . S
O53 Dy43 2.491 . S
O54 Dy43 2.403 . S
O54 C49 1.254 . S
O55 Dy40 2.310 . S
O55 Dy43 2.664 . S
O55 C49 1.268 . S
O56 Dy40 2.351 . S
O56 C59 1.249 . S
O57 Dy43 2.326 . S
O57 C59 1.267 . S
C58 O50 1.249 . S
C58 O51 1.267 . S
C59 O56 1.249 . S
C59 O57 1.267 . S
C60 N61 1.317 . S
C60 N62 1.348 1_545 S
C60 C63 1.485 . S
N61 C60 1.317 . S
N61 N65 1.370 . S
N62 C60 1.348 1_565 S
N62 C64 1.346 . S
C63 C60 1.485 . S
C63 H67 0.960 . S
C63 H68 0.961 1_545 S
C63 H69 0.960 . S
C64 N62 1.346 . S
C64 N65 1.307 1_565 S
C64 C66 1.486 . S
N65 N61 1.370 . S
N65 C64 1.307 1_545 S
C66 C64 1.486 . S
C66 H70 0.960 . S
C66 H71 0.960 . S
C66 H72 0.959 . S
H67 C63 0.960 . S
H68 C63 0.961 1_565 S
H69 C63 0.960 . S
H70 C66 0.960 . S
H71 C66 0.960 . S
H72 C66 0.959 . S
C73 N74 1.317 . S
C73 N75 1.348 . S
C73 C76 1.485 . S
N74 C73 1.317 . S
N74 N78 1.370 . S
N75 C73 1.348 . S
N75 C77 1.346 . S
C76 C73 1.485 . S
C76 H80 0.960 . S
C76 H81 0.961 . S
C76 H82 0.960 . S
C77 N75 1.346 . S
C77 N78 1.307 . S
C77 C79 1.486 . S
N78 N74 1.370 . S
N78 C77 1.307 . S
C79 C77 1.486 . S
C79 H83 0.960 . S
C79 H84 0.960 . S
C79 H85 0.959 . S
H80 C76 0.960 . S
H81 C76 0.961 . S
H82 C76 0.960 . S
H83 C79 0.960 . S
H84 C79 0.960 . S
H85 C79 0.959 . S
C86 N87 1.317 . S
C86 N88 1.348 . S
C86 C89 1.485 . S
N87 C86 1.317 . S
N87 N91 1.370 . S
N88 C86 1.348 . S
N88 C90 1.346 . S
C89 C86 1.485 . S
C89 H93 0.960 . S
C89 H94 0.961 . S
C89 H95 0.960 . S
C90 N88 1.346 . S
C90 N91 1.307 . S
C90 C92 1.486 1_455 S
N91 N87 1.370 . S
N91 C90 1.307 . S
C92 C90 1.486 1_655 S
C92 H96 0.960 . S
C92 H97 0.960 . S
C92 H98 0.959 . S
H93 C89 0.960 . S
H94 C89 0.961 . S
H95 C89 0.960 . S
H96 C92 0.960 . S
H97 C92 0.960 . S
H98 C92 0.959 . S
C99 N100 1.310 1_455 S
C99 N101 1.348 . S
C99 C102 1.485 . S
N100 C99 1.310 1_655 S
N100 N104 1.366 1_655 S
N101 C99 1.348 . S
N101 C103 1.346 . S
C102 C99 1.485 . S
C102 H106 0.960 . S
C102 H107 0.961 . S
C102 H108 0.960 1_455 S
C103 N101 1.346 . S
C103 N104 1.307 . S
C103 C105 1.486 . S
N104 N100 1.366 1_455 S
N104 C103 1.307 . S
C105 C103 1.486 . S
C105 H109 0.960 . S
C105 H110 0.960 . S
C105 H111 0.959 . S
H106 C102 0.960 . S
H107 C102 0.961 . S
H108 C102 0.960 1_655 S
H109 C105 0.960 . S
H110 C105 0.960 . S
H111 C105 0.959 . S
C112 N113 1.317 . S
C112 N114 1.348 . S
C112 C115 1.485 . S
N113 C112 1.317 . S
N113 N117 1.370 . S
N114 C112 1.348 . S
N114 C116 1.346 . S
C115 C112 1.485 . S
C115 H119 0.960 . S
C115 H120 0.961 . S
C115 H121 0.960 . S
C116 N114 1.346 . S
C116 N117 1.307 . S
C116 C118 1.486 . S
N117 N113 1.370 . S
N117 C116 1.307 . S
C118 C116 1.486 . S
C118 H122 0.960 . S
C118 H123 0.960 . S
C118 H124 0.959 . S
H119 C115 0.960 . S
H120 C115 0.961 . S
H121 C115 0.960 . S
H122 C118 0.960 . S
H123 C118 0.960 . S
H124 C118 0.959 . S
C125 N126 1.317 . S
C125 N127 1.348 . S
C125 C128 1.485 . S
N126 C125 1.317 . S
N126 N130 1.370 . S
N127 C125 1.348 . S
N127 C129 1.346 . S
C128 C125 1.485 . S
C128 H132 0.960 . S
C128 H133 0.961 . S
C128 H134 0.960 . S
C129 N127 1.346 . S
C129 N130 1.307 . S
C129 C131 1.486 . S
N130 N126 1.370 . S
N130 C129 1.307 . S
C131 C129 1.486 . S
C131 H135 0.960 . S
C131 H136 0.960 . S
C131 H137 0.959 . S
H132 C128 0.960 . S
H133 C128 0.961 . S
H134 C128 0.960 . S
H135 C131 0.960 . S
H136 C131 0.960 . S
H137 C131 0.959 . S
H138 C144 0.930 . S
H139 C147 0.930 . S
H140 C148 0.930 . S
H141 C149 0.930 . S
H142 C152 0.930 . S
H143 C153 0.930 . S
C144 H138 0.930 . S
C144 C145 1.355 . S
C144 C146 1.415 . S
C145 C144 1.355 . S
C145 C147 1.419 . S
C146 C144 1.415 . S
C146 C151 1.425 . S
C146 C153 1.409 . S
C147 H139 0.930 . S
C147 C145 1.419 . S
C147 C148 1.362 . S
C148 H140 0.930 . S
C148 C147 1.362 . S
C148 C151 1.409 . S
C149 H141 0.930 . S
C149 C150 1.355 . S
C149 C151 1.415 . S
C150 C149 1.355 . S
C150 C152 1.419 . S
C151 C146 1.425 . S
C151 C148 1.409 . S
C151 C149 1.415 . S
C152 H142 0.930 . S
C152 C150 1.419 . S
C152 C153 1.362 . S
C153 H143 0.930 . S
C153 C146 1.409 . S
C153 C152 1.362 . S
H154 C160 0.930 . S
H155 C163 0.930 . S
H156 C164 0.930 . S
H157 C165 0.930 . S
H158 C168 0.930 1_455 S
H159 C169 0.930 . S
C160 H154 0.930 . S
C160 C161 1.355 . S
C160 C162 1.415 . S
C161 C160 1.355 . S
C161 C163 1.419 . S
C162 C160 1.415 . S
C162 C167 1.425 . S
C162 C169 1.409 . S
C163 H155 0.930 . S
C163 C161 1.419 . S
C163 C164 1.362 . S
C164 H156 0.930 . S
C164 C163 1.362 . S
C164 C167 1.409 . S
C165 H157 0.930 . S
C165 C166 1.355 . S
C165 C167 1.415 . S
C166 C165 1.355 . S
C166 C168 1.419 . S
C167 C162 1.425 . S
C167 C164 1.409 . S
C167 C165 1.415 . S
C168 H158 0.930 1_655 S
C168 C166 1.419 . S
C168 C169 1.362 . S
C169 H159 0.930 . S
C169 C162 1.409 . S
C169 C168 1.362 . S
H170 C176 0.930 . S
H171 C179 0.930 . S
H172 C180 0.930 . S
H173 C181 0.930 . S
H174 C184 0.930 . S
H175 C185 0.930 . S
C176 H170 0.930 . S
C176 C177 1.355 . S
C176 C178 1.415 . S
C177 C176 1.355 . S
C177 C179 1.419 . S
C178 C176 1.415 . S
C178 C183 1.425 . S
C178 C185 1.409 . S
C179 H171 0.930 . S
C179 C177 1.419 . S
C179 C180 1.362 . S
C180 H172 0.930 . S
C180 C179 1.362 . S
C180 C183 1.409 . S
C181 H173 0.930 . S
C181 C182 1.355 . S
C181 C183 1.415 1_545 S
C182 C181 1.355 . S
C182 C184 1.419 1_545 S
C183 C178 1.425 . S
C183 C180 1.409 . S
C183 C181 1.415 1_565 S
C184 H174 0.930 . S
C184 C182 1.419 1_565 S
C184 C185 1.362 . S
C185 H175 0.930 . S
C185 C178 1.409 . S
C185 C184 1.362 . S
H186 C192 0.930 . S
H187 C195 0.930 . S
H188 C196 0.930 . S
H189 C197 0.930 . S
H190 C200 0.930 . S
H191 C201 0.930 . S
C192 H186 0.930 . S
C192 C193 1.355 . S
C192 C194 1.415 . S
C193 C192 1.355 . S
C193 C195 1.419 . S
C194 C192 1.415 . S
C194 C199 1.425 . S
C194 C201 1.409 . S
C195 H187 0.930 . S
C195 C193 1.419 . S
C195 C196 1.362 . S
C196 H188 0.930 . S
C196 C195 1.362 . S
C196 C199 1.409 . S
C197 H189 0.930 . S
C197 C198 1.355 . S
C197 C199 1.415 . S
C198 C197 1.355 . S
C198 C200 1.419 . S
C199 C194 1.425 . S
C199 C196 1.409 . S
C199 C197 1.415 . S
C200 H190 0.930 . S
C200 C198 1.419 . S
C200 C201 1.362 . S
C201 H191 0.930 . S
C201 C194 1.409 . S
C201 C200 1.362 . S
H202 C208 0.930 . S
H203 C211 0.930 . S
H204 C212 0.930 . S
H205 C213 0.930 . S
H206 C216 0.930 . S
H207 C217 0.930 . S
C208 H202 0.930 . S
C208 C209 1.355 . S
C208 C210 1.415 . S
C209 C208 1.355 . S
C209 C211 1.419 . S
C210 C208 1.415 . S
C210 C215 1.425 . S
C210 C217 1.409 . S
C211 H203 0.930 . S
C211 C209 1.419 . S
C211 C212 1.362 . S
C212 H204 0.930 . S
C212 C211 1.362 . S
C212 C215 1.409 . S
C213 H205 0.930 . S
C213 C214 1.355 . S
C213 C215 1.415 . S
C214 C213 1.355 . S
C214 C216 1.419 . S
C215 C210 1.425 . S
C215 C212 1.409 . S
C215 C213 1.415 . S
C216 H206 0.930 . S
C216 C214 1.419 . S
C216 C217 1.362 . S
C217 H207 0.930 . S
C217 C210 1.409 . S
C217 C216 1.362 . S
H218 C224 0.930 . S
H219 C227 0.930 . S
H220 C228 0.930 . S
H221 C229 0.930 . S
H222 C232 0.930 . S
H223 C233 0.930 . S
C224 H218 0.930 . S
C224 C225 1.355 . S
C224 C226 1.415 . S
C225 C224 1.355 . S
C225 C227 1.419 . S
C226 C224 1.415 . S
C226 C231 1.425 . S
C226 C233 1.409 . S
C227 H219 0.930 . S
C227 C225 1.419 . S
C227 C228 1.362 . S
C228 H220 0.930 . S
C228 C227 1.362 . S
C228 C231 1.409 . S
C229 H221 0.930 . S
C229 C230 1.355 . S
C229 C231 1.415 . S
C230 C229 1.355 . S
C230 C232 1.419 . S
C231 C226 1.425 . S
C231 C228 1.409 . S
C231 C229 1.415 . S
C232 H222 0.930 . S
C232 C230 1.419 . S
C232 C233 1.362 . S
C233 H223 0.930 . S
C233 C226 1.409 . S
C233 C232 1.362 . S
H234 C240 0.930 . S
H235 C243 0.930 . S
H236 C244 0.930 . S
H237 C245 0.930 . S
H238 C248 0.930 . S
H239 C249 0.930 . S
C240 H234 0.930 . S
C240 C241 1.355 . S
C240 C242 1.415 . S
C241 C240 1.355 . S
C241 C243 1.419 . S
C242 C240 1.415 . S
C242 C247 1.425 . S
C242 C249 1.409 . S
C243 H235 0.930 . S
C243 C241 1.419 . S
C243 C244 1.362 . S
C244 H236 0.930 . S
C244 C243 1.362 . S
C244 C247 1.409 . S
C245 H237 0.930 . S
C245 C246 1.355 . S
C245 C247 1.415 . S
C246 C245 1.355 . S
C246 C248 1.419 . S
C247 C242 1.425 . S
C247 C244 1.409 . S
C247 C245 1.415 . S
C248 H238 0.930 . S
C248 C246 1.419 . S
C248 C249 1.362 . S
C249 H239 0.930 . S
C249 C242 1.409 . S
C249 C248 1.362 . S
H250 C256 0.930 . S
H251 C259 0.930 . S
H252 C260 0.930 . S
H253 C261 0.930 . S
H254 C264 0.930 . S
H255 C265 0.930 . S
C256 H250 0.930 . S
C256 C257 1.355 . S
C256 C258 1.415 . S
C257 C256 1.355 . S
C257 C259 1.419 . S
C258 C256 1.415 . S
C258 C263 1.425 . S
C258 C265 1.409 . S
C259 H251 0.930 . S
C259 C257 1.419 . S
C259 C260 1.362 . S
C260 H252 0.930 . S
C260 C259 1.362 . S
C260 C263 1.409 . S
C261 H253 0.930 . S
C261 C262 1.355 . S
C261 C263 1.415 . S
C262 C261 1.355 . S
C262 C264 1.419 . S
C263 C258 1.425 . S
C263 C260 1.409 . S
C263 C261 1.415 . S
C264 H254 0.930 . S
C264 C262 1.419 . S
C264 C265 1.362 . S
C265 H255 0.930 . S
C265 C258 1.409 . S
C265 C264 1.362 . S
H266 C272 0.930 . S
H267 C275 0.930 . S
H268 C276 0.930 . S
H269 C277 0.930 . S
H270 C280 0.930 . S
H271 C281 0.930 . S
C272 H266 0.930 . S
C272 C273 1.355 . S
C272 C274 1.415 . S
C273 C272 1.355 . S
C273 C275 1.419 . S
C274 C272 1.415 . S
C274 C279 1.425 . S
C274 C281 1.409 . S
C275 H267 0.930 . S
C275 C273 1.419 . S
C275 C276 1.362 . S
C276 H268 0.930 . S
C276 C275 1.362 . S
C276 C279 1.409 . S
C277 H269 0.930 . S
C277 C278 1.355 . S
C277 C279 1.415 . S
C278 C277 1.355 . S
C278 C280 1.419 . S
C279 C274 1.425 . S
C279 C276 1.409 . S
C279 C277 1.415 . S
C280 H270 0.930 . S
C280 C278 1.419 . S
C280 C281 1.362 . S
C281 H271 0.930 . S
C281 C274 1.409 . S
C281 C280 1.362 . S
H282 C288 0.930 . S
H283 C291 0.930 . S
H284 C292 0.930 . S
H285 C293 0.930 . S
H286 C296 0.930 . S
H287 C297 0.930 . S
C288 H282 0.930 . S
C288 C289 1.355 . S
C288 C290 1.415 . S
C289 C288 1.355 . S
C289 C291 1.419 . S
C290 C288 1.415 . S
C290 C295 1.425 . S
C290 C297 1.409 . S
C291 H283 0.930 . S
C291 C289 1.419 . S
C291 C292 1.362 . S
C292 H284 0.930 . S
C292 C291 1.362 . S
C292 C295 1.409 . S
C293 H285 0.930 . S
C293 C294 1.355 . S
C293 C295 1.415 . S
C294 C293 1.355 . S
C294 C296 1.419 . S
C295 C290 1.425 . S
C295 C292 1.409 . S
C295 C293 1.415 . S
C296 H286 0.930 . S
C296 C294 1.419 . S
C296 C297 1.362 . S
C297 H287 0.930 . S
C297 C290 1.409 . S
C297 C296 1.362 . S
H298 C304 0.930 . S
H299 C307 0.930 . S
H300 C308 0.930 . S
H301 C309 0.930 . S
H302 C312 0.930 . S
H303 C313 0.930 . S
C304 H298 0.930 . S
C304 C305 1.355 . S
C304 C306 1.415 . S
C305 C304 1.355 . S
C305 C307 1.419 . S
C306 C304 1.415 . S
C306 C311 1.425 . S
C306 C313 1.409 . S
C307 H299 0.930 . S
C307 C305 1.419 . S
C307 C308 1.362 . S
C308 H300 0.930 . S
C308 C307 1.362 . S
C308 C311 1.409 . S
C309 H301 0.930 . S
C309 C310 1.355 . S
C309 C311 1.415 . S
C310 C309 1.355 . S
C310 C312 1.419 . S
C311 C306 1.425 . S
C311 C308 1.409 . S
C311 C309 1.415 . S
C312 H302 0.930 . S
C312 C310 1.419 . S
C312 C313 1.362 . S
C313 H303 0.930 . S
C313 C306 1.409 . S
C313 C312 1.362 . S
H314 C320 0.930 . S
H315 C323 0.930 . S
H316 C324 0.930 . S
H317 C325 0.930 . S
H318 C328 0.930 . S
H319 C329 0.930 . S
C320 H314 0.930 . S
C320 C321 1.355 . S
C320 C322 1.415 . S
C321 C320 1.355 . S
C321 C323 1.419 . S
C322 C320 1.415 . S
C322 C327 1.425 . S
C322 C329 1.409 . S
C323 H315 0.930 . S
C323 C321 1.419 . S
C323 C324 1.362 . S
C324 H316 0.930 . S
C324 C323 1.362 . S
C324 C327 1.409 . S
C325 H317 0.930 . S
C325 C326 1.355 . S
C325 C327 1.415 . S
C326 C325 1.355 . S
C326 C328 1.419 . S
C327 C322 1.425 . S
C327 C324 1.409 . S
C327 C325 1.415 . S
C328 H318 0.930 . S
C328 C326 1.419 . S
C328 C329 1.362 . S
C329 H319 0.930 . S
C329 C322 1.409 . S
C329 C328 1.362 . S
H330 C336 0.930 . S
H331 C339 0.930 . S
H332 C340 0.930 . S
H333 C341 0.930 . S
H334 C344 0.930 . S
H335 C345 0.936 . S
C336 H330 0.930 . S
C336 C337 1.355 . S
C336 C338 1.415 . S
C337 C336 1.355 . S
C337 C339 1.419 1_455 S
C338 C336 1.415 . S
C338 C343 1.425 1_554 S
C338 C345 1.409 1_554 S
C339 H331 0.930 . S
C339 C337 1.419 1_655 S
C339 C340 1.362 . S
C340 H332 0.930 . S
C340 C339 1.362 . S
C340 C343 1.409 1_654 S
C341 H333 0.930 . S
C341 C342 1.355 . S
C341 C343 1.415 . S
C342 C341 1.355 . S
C342 C344 1.419 . S
C343 C338 1.425 1_556 S
C343 C340 1.409 1_456 S
C343 C341 1.415 . S
C344 H334 0.930 . S
C344 C342 1.419 . S
C344 C345 1.362 . S
C345 H335 0.936 . S
C345 C338 1.409 1_556 S
C345 C344 1.362 . S
H346 C352 0.930 . S
H347 C355 0.933 . S
H348 C356 0.930 . S
H349 C357 0.930 1_565 S
H350 C360 0.930 . S
H351 C361 0.930 . S
C352 H346 0.930 . S
C352 C353 1.355 . S
C352 C354 1.415 . S
C353 C352 1.355 . S
C353 C355 1.415 1_545 S
C354 C352 1.415 . S
C354 C359 1.425 . S
C354 C361 1.409 . S
C355 H347 0.933 . S
C355 C353 1.415 1_565 S
C355 C356 1.363 . S
C356 H348 0.930 . S
C356 C355 1.363 . S
C356 C359 1.409 1_565 S
C357 H349 0.930 1_545 S
C357 C358 1.355 . S
C357 C359 1.415 . S
C358 C357 1.355 . S
C358 C360 1.419 . S
C359 C354 1.425 . S
C359 C356 1.409 1_545 S
C359 C357 1.415 . S
C360 H350 0.930 . S
C360 C358 1.419 . S
C360 C361 1.362 . S
C361 H351 0.930 . S
C361 C354 1.409 . S
C361 C360 1.362 . S
H362 C368 0.930 . S
H363 C371 0.930 . S
H364 C372 0.930 . S
H365 C373 0.930 . S
H366 C376 0.930 . S
H367 C377 0.930 . S
C368 H362 0.930 . S
C368 C369 1.355 . S
C368 C370 1.415 . S
C369 C368 1.355 . S
C369 C371 1.419 . S
C370 C368 1.415 . S
C370 C375 1.425 . S
C370 C377 1.409 . S
C371 H363 0.930 . S
C371 C369 1.419 . S
C371 C372 1.362 . S
C372 H364 0.930 . S
C372 C371 1.362 . S
C372 C375 1.409 . S
C373 H365 0.930 . S
C373 C374 1.355 . S
C373 C375 1.415 . S
C374 C373 1.355 . S
C374 C376 1.419 . S
C375 C370 1.425 . S
C375 C372 1.409 . S
C375 C373 1.415 . S
C376 H366 0.930 . S
C376 C374 1.419 . S
C376 C377 1.362 . S
C377 H367 0.930 . S
C377 C370 1.409 . S
C377 C376 1.362 . S
H378 C384 0.930 . S
H379 C387 0.929 1_565 S
H380 C388 0.930 1_565 S
H381 C389 0.930 . S
H382 C392 0.930 . S
H383 C393 0.930 . S
C384 H378 0.930 . S
C384 C385 1.355 . S
C384 C386 1.415 . S
C385 C384 1.355 . S
C385 C387 1.419 . S
C386 C384 1.415 . S
C386 C391 1.425 . S
C386 C393 1.409 . S
C387 H379 0.929 1_545 S
C387 C385 1.419 . S
C387 C388 1.362 . S
C388 H380 0.930 1_545 S
C388 C387 1.362 . S
C388 C391 1.409 . S
C389 H381 0.930 . S
C389 C390 1.355 . S
C389 C391 1.415 . S
C390 C389 1.355 . S
C390 C392 1.419 . S
C391 C386 1.425 . S
C391 C388 1.409 . S
C391 C389 1.415 . S
C392 H382 0.930 . S
C392 C390 1.419 . S
C392 C393 1.362 . S
C393 H383 0.930 . S
C393 C386 1.409 . S
C393 C392 1.362 . S
H394 C400 0.930 . S
H395 C403 0.930 . S
H396 C404 0.930 . S
H397 C405 0.930 . S
H398 C408 0.930 . S
H399 C409 0.930 . S
C400 H394 0.930 . S
C400 C401 1.355 . S
C400 C402 1.415 . S
C401 C400 1.355 . S
C401 C403 1.419 . S
C402 C400 1.415 . S
C402 C407 1.425 1_556 S
C402 C409 1.409 1_556 S
C403 H395 0.930 . S
C403 C401 1.419 . S
C403 C404 1.362 . S
C404 H396 0.930 . S
C404 C403 1.362 . S
C404 C407 1.409 1_556 S
C405 H397 0.930 . S
C405 C406 1.355 . S
C405 C407 1.415 . S
C406 C405 1.355 . S
C406 C408 1.419 . S
C407 C402 1.425 1_554 S
C407 C404 1.409 1_554 S
C407 C405 1.415 . S
C408 H398 0.930 . S
C408 C406 1.419 . S
C408 C409 1.362 . S
C409 H399 0.930 . S
C409 C402 1.409 1_554 S
C409 C408 1.362 . S
H410 C416 0.930 . S
H411 C419 0.930 . S
H412 C420 0.930 . S
H413 C421 0.936 . S
H414 C424 0.930 . S
H415 C425 0.930 . S
C416 H410 0.930 . S
C416 C417 1.355 1_455 S
C416 C418 1.415 . S
C417 C416 1.355 1_655 S
C417 C419 1.419 . S
C418 C416 1.415 . S
C418 C423 1.425 1_455 S
C418 C425 1.409 . S
C419 H411 0.930 . S
C419 C417 1.419 . S
C419 C420 1.362 . S
C420 H412 0.930 . S
C420 C419 1.362 . S
C420 C423 1.409 . S
C421 H413 0.936 . S
C421 C422 1.350 1_655 S
C421 C423 1.414 . S
C422 C421 1.350 1_455 S
C422 C424 1.419 . S
C423 C418 1.425 1_655 S
C423 C420 1.409 . S
C423 C421 1.414 . S
C424 H414 0.930 . S
C424 C422 1.419 . S
C424 C425 1.362 . S
C425 H415 0.930 . S
C425 C418 1.409 . S
C425 C424 1.362 . S
C145 C2 0.888 . S
C150 N127 0.845 . S
C161 C21 0.977 . S
C166 N100 0.940 . S
C177 C42 0.966 . S
C182 N113 1.008 . S
C193 C1 1.241 . S
C198 N126 1.250 . S
C214 N101 1.178 . S
C209 C22 1.151 . S
C230 N114 1.080 . S
C225 C41 1.103 . S
C241 C38 1.794 . S
C246 N74 1.785 . S
C257 C59 1.710 . S
C262 N88 1.664 1_655 S
C273 C18 1.888 . S
C278 N62 1.922 . S
C294 N75 1.974 . S
C289 C39 1.995 . S
C310 N87 2.117 . S
C305 C58 2.094 . S
C321 C19 1.848 . S
C326 N61 1.853 . S
C342 N91 1.588 . S
C337 C9 1.574 . S
C353 C29 1.546 . S
C358 N65 1.572 . S
C369 C49 1.555 . S
C374 N78 1.588 . S
C390 N117 1.417 . S
C385 C28 1.363 . S
C406 N130 1.462 . S
C401 C48 1.437 . S
C417 C8 1.481 1_655 S
C422 N104 1.466 . S
