# Generated by pormake.
# Topology ctn, (3,4)-cn, num edge types: 1
# Building blocks:
#     Node 0, Type 0, BuildingBlock: VETTIZ_charged_linker_0, # of connection points: 3
#     Node 1, Type 0, BuildingBlock: VETTIZ_charged_linker_0, # of connection points: 3
#     Node 2, Type 0, BuildingBlock: VETTIZ_charged_linker_0, # of connection points: 3
#     Node 3, Type 0, BuildingBlock: VETTIZ_charged_linker_0, # of connection points: 3
#     Node 4, Type 0, BuildingBlock: VETTIZ_charged_linker_0, # of connection points: 3
#     Node 5, Type 0, BuildingBlock: VETTIZ_charged_linker_0, # of connection points: 3
#     Node 6, Type 0, BuildingBlock: VETTIZ_charged_linker_0, # of connection points: 3
#     Node 7, Type 0, BuildingBlock: VETTIZ_charged_linker_0, # of connection points: 3
#     Node 8, Type 0, BuildingBlock: VETTIZ_charged_linker_0, # of connection points: 3
#     Node 9, Type 0, BuildingBlock: VETTIZ_charged_linker_0, # of connection points: 3
#     Node 10, Type 0, BuildingBlock: VETTIZ_charged_linker_0, # of connection points: 3
#     Node 11, Type 0, BuildingBlock: VETTIZ_charged_linker_0, # of connection points: 3
#     Node 12, Type 0, BuildingBlock: VETTIZ_charged_linker_0, # of connection points: 3
#     Node 13, Type 0, BuildingBlock: VETTIZ_charged_linker_0, # of connection points: 3
#     Node 14, Type 0, BuildingBlock: VETTIZ_charged_linker_0, # of connection points: 3
#     Node 15, Type 0, BuildingBlock: VETTIZ_charged_linker_0, # of connection points: 3
#     Node 16, Type 1, BuildingBlock: KUFVIS_clean_sbu_0, # of connection points: 4
#     Node 17, Type 1, BuildingBlock: KUFVIS_clean_sbu_0, # of connection points: 4
#     Node 18, Type 1, BuildingBlock: KUFVIS_clean_sbu_0, # of connection points: 4
#     Node 19, Type 1, BuildingBlock: KUFVIS_clean_sbu_0, # of connection points: 4
#     Node 20, Type 1, BuildingBlock: KUFVIS_clean_sbu_0, # of connection points: 4
#     Node 21, Type 1, BuildingBlock: KUFVIS_clean_sbu_0, # of connection points: 4
#     Node 22, Type 1, BuildingBlock: KUFVIS_clean_sbu_0, # of connection points: 4
#     Node 23, Type 1, BuildingBlock: KUFVIS_clean_sbu_0, # of connection points: 4
#     Node 24, Type 1, BuildingBlock: KUFVIS_clean_sbu_0, # of connection points: 4
#     Node 25, Type 1, BuildingBlock: KUFVIS_clean_sbu_0, # of connection points: 4
#     Node 26, Type 1, BuildingBlock: KUFVIS_clean_sbu_0, # of connection points: 4
#     Node 27, Type 1, BuildingBlock: KUFVIS_clean_sbu_0, # of connection points: 4
#     Edge 28, Type (0, 1), BuildingBlock: UVAHIK_clean_linker_0, # of connection points: 2
#     Edge 29, Type (0, 1), BuildingBlock: UVAHIK_clean_linker_0, # of connection points: 2
#     Edge 30, Type (0, 1), BuildingBlock: UVAHIK_clean_linker_0, # of connection points: 2
#     Edge 31, Type (0, 1), BuildingBlock: UVAHIK_clean_linker_0, # of connection points: 2
#     Edge 32, Type (0, 1), BuildingBlock: UVAHIK_clean_linker_0, # of connection points: 2
#     Edge 33, Type (0, 1), BuildingBlock: UVAHIK_clean_linker_0, # of connection points: 2
#     Edge 34, Type (0, 1), BuildingBlock: UVAHIK_clean_linker_0, # of connection points: 2
#     Edge 35, Type (0, 1), BuildingBlock: UVAHIK_clean_linker_0, # of connection points: 2
#     Edge 36, Type (0, 1), BuildingBlock: UVAHIK_clean_linker_0, # of connection points: 2
#     Edge 37, Type (0, 1), BuildingBlock: UVAHIK_clean_linker_0, # of connection points: 2
#     Edge 38, Type (0, 1), BuildingBlock: UVAHIK_clean_linker_0, # of connection points: 2
#     Edge 39, Type (0, 1), BuildingBlock: UVAHIK_clean_linker_0, # of connection points: 2
#     Edge 40, Type (0, 1), BuildingBlock: UVAHIK_clean_linker_0, # of connection points: 2
#     Edge 41, Type (0, 1), BuildingBlock: UVAHIK_clean_linker_0, # of connection points: 2
#     Edge 42, Type (0, 1), BuildingBlock: UVAHIK_clean_linker_0, # of connection points: 2
#     Edge 43, Type (0, 1), BuildingBlock: UVAHIK_clean_linker_0, # of connection points: 2
#     Edge 44, Type (0, 1), BuildingBlock: UVAHIK_clean_linker_0, # of connection points: 2
#     Edge 45, Type (0, 1), BuildingBlock: UVAHIK_clean_linker_0, # of connection points: 2
#     Edge 46, Type (0, 1), BuildingBlock: UVAHIK_clean_linker_0, # of connection points: 2
#     Edge 47, Type (0, 1), BuildingBlock: UVAHIK_clean_linker_0, # of connection points: 2
#     Edge 48, Type (0, 1), BuildingBlock: UVAHIK_clean_linker_0, # of connection points: 2
#     Edge 49, Type (0, 1), BuildingBlock: UVAHIK_clean_linker_0, # of connection points: 2
#     Edge 50, Type (0, 1), BuildingBlock: UVAHIK_clean_linker_0, # of connection points: 2
#     Edge 51, Type (0, 1), BuildingBlock: UVAHIK_clean_linker_0, # of connection points: 2
#     Edge 52, Type (0, 1), BuildingBlock: UVAHIK_clean_linker_0, # of connection points: 2
#     Edge 53, Type (0, 1), BuildingBlock: UVAHIK_clean_linker_0, # of connection points: 2
#     Edge 54, Type (0, 1), BuildingBlock: UVAHIK_clean_linker_0, # of connection points: 2
#     Edge 55, Type (0, 1), BuildingBlock: UVAHIK_clean_linker_0, # of connection points: 2
#     Edge 56, Type (0, 1), BuildingBlock: UVAHIK_clean_linker_0, # of connection points: 2
#     Edge 57, Type (0, 1), BuildingBlock: UVAHIK_clean_linker_0, # of connection points: 2
#     Edge 58, Type (0, 1), BuildingBlock: UVAHIK_clean_linker_0, # of connection points: 2
#     Edge 59, Type (0, 1), BuildingBlock: UVAHIK_clean_linker_0, # of connection points: 2
#     Edge 60, Type (0, 1), BuildingBlock: UVAHIK_clean_linker_0, # of connection points: 2
#     Edge 61, Type (0, 1), BuildingBlock: UVAHIK_clean_linker_0, # of connection points: 2
#     Edge 62, Type (0, 1), BuildingBlock: UVAHIK_clean_linker_0, # of connection points: 2
#     Edge 63, Type (0, 1), BuildingBlock: UVAHIK_clean_linker_0, # of connection points: 2
#     Edge 64, Type (0, 1), BuildingBlock: UVAHIK_clean_linker_0, # of connection points: 2
#     Edge 65, Type (0, 1), BuildingBlock: UVAHIK_clean_linker_0, # of connection points: 2
#     Edge 66, Type (0, 1), BuildingBlock: UVAHIK_clean_linker_0, # of connection points: 2
#     Edge 67, Type (0, 1), BuildingBlock: UVAHIK_clean_linker_0, # of connection points: 2
#     Edge 68, Type (0, 1), BuildingBlock: UVAHIK_clean_linker_0, # of connection points: 2
#     Edge 69, Type (0, 1), BuildingBlock: UVAHIK_clean_linker_0, # of connection points: 2
#     Edge 70, Type (0, 1), BuildingBlock: UVAHIK_clean_linker_0, # of connection points: 2
#     Edge 71, Type (0, 1), BuildingBlock: UVAHIK_clean_linker_0, # of connection points: 2
#     Edge 72, Type (0, 1), BuildingBlock: UVAHIK_clean_linker_0, # of connection points: 2
#     Edge 73, Type (0, 1), BuildingBlock: UVAHIK_clean_linker_0, # of connection points: 2
#     Edge 74, Type (0, 1), BuildingBlock: UVAHIK_clean_linker_0, # of connection points: 2
#     Edge 75, Type (0, 1), BuildingBlock: UVAHIK_clean_linker_0, # of connection points: 2
# Relax obj value: 0.012
# Max RMSD: 0.064
# Mean RMSD: 0.029
data_MOF--net-ctn--node1-KUFVIS_clean_sbu_0--node2-VETTIZ_charged_linker_0--edge1-UVAHIK_clean_linker_0
_symmetry_space_group_name_H-M    P1
_symmetry_Int_Tables_number       1
_symmetry_cell_setting            triclinic
loop_
_symmetry_equiv_pos_as_xyz
'x, y, z'
_cell_length_a     82.686935
_cell_length_b     82.550708
_cell_length_c     82.933127
_cell_angle_alpha  90.895057
_cell_angle_beta   90.215715
_cell_angle_gamma 91.391748
loop_
_atom_site_label
_atom_site_type_symbol
_atom_site_fract_x
_atom_site_fract_y
_atom_site_fract_z
_atom_type_partial_charge
C0 C 0.03563 0.08501 0.00581 0.0
C1 C 0.02205 0.09491 0.00723 0.0
C2 C 0.0107 0.09153 0.01951 0.0
C3 C 0.02679 0.06935 0.02886 0.0
C4 C 0.03766 0.0723 0.01658 0.0
C5 C 0.05114 0.06037 0.01634 0.0
H6 H 0.08853 0.9974 0.0507 0.0
C7 C 0.03265 0.05554 0.03821 0.0
C8 C 0.04686 0.05015 0.03086 0.0
H9 H 0.10077 0.02136 0.00628 0.0
H10 H 0.07826 0.0392 0.00971 0.0
H11 H 0.07947 0.02962 0.07121 0.0
H12 H 0.05077 0.99502 0.04344 0.0
H13 H 0.03969 0.99968 0.06085 0.0
H14 H 0.05911 0.99039 0.06279 0.0
H15 H 0.07506 0.00949 0.07808 0.0
H16 H 0.06156 0.02593 0.08201 0.0
C17 C 0.06734 0.0699 0.01883 0.0
C18 C 0.05 0.05042 1.00033 0.0
C19 C 0.00267 0.03757 0.08863 0.0
C20 C 0.00565 0.02561 0.10013 0.0
C21 C 0.01947 0.01606 0.09834 0.0
C22 C 0.03003 0.01825 0.08535 0.0
C23 C 0.02683 0.03017 0.07394 0.0
C24 C 0.01339 0.03964 0.07572 0.0
C25 C 0.01207 0.05186 0.06252 0.0
C26 C 0.02689 0.04807 0.05249 0.0
C27 C 0.03546 0.03533 0.05923 0.0
C28 C 0.0133 0.069 0.07036 0.0
C29 C 0.99615 0.04827 0.05307 0.0
C30 C 0.08639 0.0066 0.04182 0.0
C31 C 0.09642 0.00809 0.02825 0.0
C32 C 0.09313 0.01999 0.01678 0.0
C33 C 0.08007 0.03032 0.01881 0.0
C34 C 0.07006 0.02865 0.03237 0.0
C35 C 0.07322 0.01685 0.04353 0.0
C36 C 0.06084 0.01634 0.05676 0.0
C37 C 0.04974 0.02977 0.05171 0.0
C38 C 0.05531 0.03704 0.03752 0.0
C39 C 0.06958 0.02043 0.07294 0.0
C40 C 0.05215 0.99949 0.05611 0.0
H41 H 0.00398 0.07703 0.03938 0.0
H42 H 0.04468 0.08716 0.99664 0.0
H43 H 0.03742 0.04987 0.99551 0.0
H44 H 0.05317 0.03759 0.00187 0.0
H45 H 0.05785 0.05585 0.9909 0.0
H46 H 0.06616 0.0793 0.02848 0.0
H47 H 0.07106 0.07612 0.0076 0.0
H48 H 0.0773 0.0622 0.02274 0.0
H49 H 0.99211 0.04503 0.08951 0.0
H50 H 0.02226 0.00697 0.10714 0.0
H51 H 0.0403 0.01059 0.08473 0.0
H52 H 0.02249 0.06941 0.0802 0.0
H53 H 0.00155 0.07247 0.07568 0.0
H54 H 0.01729 0.07844 0.0619 0.0
H55 H 0.99322 0.03503 0.05264 0.0
H56 H 0.99691 0.0518 0.04029 0.0
H57 H 0.98579 0.0544 0.05881 0.0
H58 H 0.99987 0.09855 0.02071 0.0
C59 C 0.01303 0.07889 0.03032 0.0
C60 C 0.28243 0.64586 0.19973 0.0
C61 C 0.26841 0.64352 0.19023 0.0
C62 C 0.26575 0.65405 0.17729 0.0
C63 C 0.29027 0.66941 0.18414 0.0
C64 C 0.29309 0.65883 0.19653 0.0
C65 C 0.30812 0.66338 0.20598 0.0
H66 H 0.371 0.71576 0.2197 0.0
C67 C 0.30324 0.68208 0.18461 0.0
C68 C 0.31374 0.67858 0.19738 0.0
H69 H 0.35813 0.67248 0.24603 0.0
H70 H 0.33591 0.66694 0.22778 0.0
H71 H 0.33621 0.72826 0.21738 0.0
H72 H 0.36381 0.70054 0.18339 0.0
H73 H 0.35411 0.71585 0.17275 0.0
H74 H 0.36838 0.72137 0.18849 0.0
H75 H 0.35136 0.73759 0.20492 0.0
H76 H 0.33064 0.73492 0.19822 0.0
C77 C 0.30314 0.66702 0.22366 0.0
C78 C 0.32027 0.6495 0.20399 0.0
C79 C 0.30204 0.72884 0.14541 0.0
C80 C 0.31164 0.74302 0.14393 0.0
C81 C 0.325 0.7456 0.15432 0.0
C82 C 0.32876 0.73423 0.16604 0.0
C83 C 0.31894 0.72019 0.16754 0.0
C84 C 0.30581 0.7177 0.15736 0.0
C85 C 0.29631 0.70248 0.16124 0.0
C86 C 0.30602 0.69617 0.1753 0.0
C87 C 0.31929 0.70656 0.17887 0.0
C88 C 0.27905 0.70734 0.16635 0.0
C89 C 0.29684 0.69091 0.14638 0.0
C90 C 0.36338 0.7051 0.22161 0.0
C91 C 0.36641 0.69457 0.23441 0.0
C92 C 0.35628 0.68071 0.23619 0.0
C93 C 0.34325 0.67758 0.22564 0.0
C94 C 0.34016 0.68847 0.21321 0.0
C95 C 0.35022 0.70189 0.21129 0.0
C96 C 0.34489 0.71235 0.19767 0.0
C97 C 0.32999 0.70295 0.19168 0.0
C98 C 0.32727 0.68899 0.20083 0.0
C99 C 0.34063 0.72922 0.20477 0.0
C100 C 0.35848 0.71272 0.18487 0.0
H101 H 0.27379 0.67464 0.16432 0.0
H102 H 0.285 0.63787 0.2096 0.0
H103 H 0.31949 0.64403 0.19166 0.0
H104 H 0.333 0.65369 0.20532 0.0
H105 H 0.31775 0.6397 0.21273 0.0
H106 H 0.29117 0.67288 0.22412 0.0
H107 H 0.30218 0.65571 0.23071 0.0
H108 H 0.31149 0.67566 0.22993 0.0
H109 H 0.29156 0.72668 0.13772 0.0
H110 H 0.33259 0.75642 0.15331 0.0
H111 H 0.3391 0.73688 0.17356 0.0
H112 H 0.27931 0.71922 0.17288 0.0
H113 H 0.27101 0.70845 0.15568 0.0
H114 H 0.27339 0.69881 0.17489 0.0
H115 H 0.30897 0.69146 0.14063 0.0
H116 H 0.29486 0.67807 0.1495 0.0
H117 H 0.28778 0.69426 0.13716 0.0
H118 H 0.255 0.65263 0.16985 0.0
C119 C 0.27661 0.66693 0.17418 0.0
C120 C 0.98313 0.4226 0.00753 0.0
C121 C 0.97606 0.42006 0.99225 0.0
C122 C 0.96548 0.43168 0.98624 0.0
C123 C 0.96866 0.44768 0.0109 0.0
C124 C 0.9794 0.43649 0.01653 0.0
C125 C 0.98627 0.44117 0.03278 0.0
H126 H 0.99264 0.49543 0.09443 0.0
C127 C 0.96723 0.46057 0.0234 0.0
C128 C 0.97768 0.45688 0.03616 0.0
H129 H 0.0169 0.44979 0.08871 0.0
H130 H 0.00277 0.4446 0.06376 0.0
H131 H 0.9585 0.48073 0.08558 0.0
H132 H 0.9935 0.50654 0.05694 0.0
H133 H 0.97427 0.51462 0.05338 0.0
H134 H 0.98264 0.51543 0.07344 0.0
H135 H 0.9598 0.50244 0.08583 0.0
H136 H 0.94727 0.4913 0.07137 0.0
C137 C 0.98134 0.42782 0.04489 0.0
C138 C 0.00479 0.44391 0.0309 0.0
C139 C 0.92671 0.50549 0.01655 0.0
C140 C 0.92213 0.51853 0.02658 0.0
C141 C 0.93034 0.52108 0.0414 0.0
C142 C 0.94274 0.51091 0.04616 0.0
C143 C 0.94699 0.49786 0.03612 0.0
C144 C 0.93904 0.4953 0.02159 0.0
C145 C 0.94499 0.48057 0.01268 0.0
C146 C 0.95755 0.47455 0.02445 0.0
C147 C 0.95873 0.48482 0.0381 0.0
C148 C 0.93058 0.46838 0.01055 0.0
C149 C 0.95274 0.48615 0.99665 0.0
C150 C 0.99486 0.48424 0.08792 0.0
C151 C 0.00624 0.47319 0.09356 0.0
C152 C 0.00863 0.4588 0.08453 0.0
C153 C 1.00029 0.45572 0.07004 0.0
C154 C 0.98925 0.46703 0.06445 0.0
C155 C 0.98646 0.48086 0.07349 0.0
C156 C 0.97363 0.49105 0.06607 0.0
C157 C 0.96969 0.48136 0.05076 0.0
C158 C 0.97897 0.46737 0.04985 0.0
C159 C 0.95904 0.49157 0.07777 0.0
C160 C 0.98127 0.50787 0.0623 0.0
H161 H 0.95342 0.45376 0.99036 0.0
H162 H 0.99151 0.414 0.01234 0.0
H163 H 0.00768 0.44946 0.01908 0.0
H164 H 0.01004 0.45246 0.03996 0.0
H165 H 0.01122 0.43228 0.03149 0.0
H166 H 0.96917 0.42252 0.04189 0.0
H167 H 0.99005 0.41779 0.04469 0.0
H168 H 0.9802 0.4325 0.05738 0.0
H169 H 0.92085 0.50321 0.00501 0.0
H170 H 0.92695 0.53077 0.04956 0.0
H171 H 0.94843 0.51352 0.05757 0.0
H172 H 0.92331 0.46776 0.02179 0.0
H173 H 0.92244 0.47209 1.00065 0.0
H174 H 0.93437 0.45587 0.00811 0.0
H175 H 0.95848 0.49842 0.99803 0.0
H176 H 0.96264 0.4783 0.99266 0.0
H177 H 0.94354 0.4867 0.9869 0.0
H178 H 0.95988 0.42992 0.97449 0.0
C179 C 0.9617 0.44544 0.9955 0.0
C180 C 0.65056 0.81236 0.23777 0.0
C181 C 0.64191 0.79758 0.23904 0.0
C182 C 0.64489 0.78498 0.22786 0.0
C183 C 0.665 0.80187 0.21453 0.0
C184 C 0.66211 0.81417 0.22557 0.0
C185 C 0.67318 0.82867 0.22325 0.0
H186 H 0.73797 0.86232 0.18594 0.0
C187 C 0.67803 0.80753 0.20365 0.0
C188 C 0.68292 0.8232 0.20875 0.0
H189 H 0.71094 0.8816 0.22615 0.0
H190 H 0.69198 0.85904 0.22415 0.0
H191 H 0.70687 0.85256 0.16467 0.0
H192 H 0.73664 0.82502 0.19621 0.0
H193 H 0.73365 0.81404 0.17798 0.0
H194 H 0.74349 0.83365 0.17761 0.0
H195 H 0.7254 0.84403 0.15781 0.0
H196 H 0.70642 0.83271 0.15675 0.0
C197 C 0.66267 0.84337 0.21929 0.0
C198 C 0.6838 0.83091 0.23863 0.0
C199 C 0.69712 0.77094 0.15793 0.0
C200 C 0.70844 0.77316 0.14544 0.0
C201 C 0.71692 0.78819 0.14456 0.0
C202 C 0.71444 0.80054 0.156 0.0
C203 C 0.70327 0.79802 0.16846 0.0
C204 C 0.69461 0.78353 0.16912 0.0
C205 C 0.68264 0.78335 0.18275 0.0
C206 C 0.68561 0.80011 0.19016 0.0
C207 C 0.69789 0.80853 0.18189 0.0
C208 C 0.66543 0.78139 0.17542 0.0
C209 C 0.68729 0.76976 0.19446 0.0
C210 C 0.72783 0.86182 0.19416 0.0
C211 C 0.72615 0.87365 0.20641 0.0
C212 C 0.71276 0.87248 0.21685 0.0
C213 C 0.70173 0.85936 0.21567 0.0
C214 C 0.70408 0.8472 0.20393 0.0
C215 C 0.71671 0.84875 0.19316 0.0
C216 C 0.71714 0.83475 0.18134 0.0
C217 C 0.70317 0.82419 0.18733 0.0
C218 C 0.69561 0.83153 0.20058 0.0
C219 C 0.71391 0.84125 0.16421 0.0
C220 C 0.7336 0.82639 0.18323 0.0
H221 H 0.65804 0.77703 0.20744 0.0
H222 H 0.64873 0.82213 0.2464 0.0
H223 H 0.68614 0.81906 0.2443 0.0
H224 H 0.69596 0.83606 0.23613 0.0
H225 H 0.6778 0.83866 0.24777 0.0
H226 H 0.65234 0.83963 0.21132 0.0
H227 H 0.65759 0.84885 0.23044 0.0
H228 H 0.66933 0.85285 0.21258 0.0
H229 H 0.69041 0.75961 0.15914 0.0
H230 H 0.72537 0.79054 0.1349 0.0
H231 H 0.72134 0.8116 0.15468 0.0
H232 H 0.66446 0.78832 0.16407 0.0
H233 H 0.66247 0.76848 0.1725 0.0
H234 H 0.65595 0.78625 0.18334 0.0
H235 H 0.70065 0.76856 0.1951 0.0
H236 H 0.68358 0.77224 0.20702 0.0
H237 H 0.68202 0.75785 0.19045 0.0
H238 H 0.63831 0.77351 0.22862 0.0
C239 C 0.65631 0.78708 0.21557 0.0
C240 C 0.03001 0.92705 0.51193 0.0
C241 C 0.01584 0.91729 0.51071 0.0
C242 C 0.00445 0.9207 0.49856 0.0
C243 C 0.02152 0.94287 0.48909 0.0
C244 C 0.03252 0.93975 0.50115 0.0
C245 C 0.04675 0.95144 0.50115 0.0
H246 H 0.08608 0.01551 0.46804 0.0
C247 C 0.02787 0.95682 0.47984 0.0
C248 C 0.04258 0.96197 0.48695 0.0
H249 H 0.09973 0.98824 0.50986 0.0
H250 H 0.07585 0.9712 0.50677 0.0
H251 H 0.04846 0.01741 0.47663 0.0
H252 H 0.07433 0.98411 0.44631 0.0
H253 H 0.05637 0.98891 0.43625 0.0
H254 H 0.07118 0.00474 0.4408 0.0
H255 H 0.05653 0.02312 0.45742 0.0
H256 H 0.03674 0.01365 0.4592 0.0
C257 C 0.04683 0.96112 0.51734 0.0
C258 C 0.06222 0.94166 0.498 0.0
C259 C 0.99759 0.97543 0.43028 0.0
C260 C 1.00064 0.98767 0.41899 0.0
C261 C 0.01441 0.99792 0.42113 0.0
C262 C 0.02508 0.99581 0.43409 0.0
C263 C 0.02198 0.98334 0.4451 0.0
C264 C 0.00835 0.97348 0.44314 0.0
C265 C 0.00689 0.96093 0.45605 0.0
C266 C 0.02201 0.96473 0.46597 0.0
C267 C 0.03083 0.97785 0.45949 0.0
C268 C 0.99125 0.96405 0.46575 0.0
C269 C 0.00742 0.94398 0.44783 0.0
C270 C 0.08396 0.00578 0.47644 0.0
C271 C 0.0948 0.00327 0.48925 0.0
C272 C 0.09148 0.99059 0.50004 0.0
C273 C 0.07762 0.98064 0.49817 0.0
C274 C 0.06687 0.98335 0.4854 0.0
C275 C 0.0701 0.99575 0.47479 0.0
C276 C 0.05719 0.99687 0.46202 0.0
C277 C 0.04565 0.98318 0.4668 0.0
C278 C 0.05145 0.97528 0.48046 0.0
C279 C 0.04931 0.01365 0.46373 0.0
C280 C 0.06507 0.99361 0.44541 0.0
H281 H 0.99812 0.93528 0.47879 0.0
H282 H 0.03914 0.92478 0.52096 0.0
H283 H 0.0598 0.93179 0.48895 0.0
H284 H 0.07219 0.94903 0.49286 0.0
H285 H 0.06653 0.93598 0.50923 0.0
H286 H 0.03433 0.96252 0.52202 0.0
H287 H 0.0539 0.95491 0.52671 0.0
H288 H 0.05158 0.97367 0.51613 0.0
H289 H 0.98699 0.96751 0.42917 0.0
H290 H 0.01713 0.00736 0.41256 0.0
H291 H 0.0354 0.00391 0.43496 0.0
H292 H 0.9885 0.97718 0.46618 0.0
H293 H 0.98066 0.95752 0.46023 0.0
H294 H 0.9923 0.96062 0.47854 0.0
H295 H 0.0166 0.94388 0.43804 0.0
H296 H 0.01102 0.93437 0.4561 0.0
H297 H 0.99553 0.94052 0.44235 0.0
H298 H 0.99326 0.91368 0.49747 0.0
C299 C 0.00723 0.93337 0.48776 0.0
C300 C 0.2374 0.6564 0.8139 0.0
C301 C 0.23694 0.64464 0.80148 0.0
C302 C 0.22402 0.64444 0.79034 0.0
C303 C 0.21281 0.66804 0.80357 0.0
C304 C 0.2252 0.66784 0.8148 0.0
C305 C 0.22374 0.68096 0.82745 0.0
H306 H 0.18624 0.74784 0.85485 0.0
C307 C 0.20245 0.6819 0.80758 0.0
C308 C 0.20873 0.6894 0.82167 0.0
H309 H 0.22667 0.72376 0.87634 0.0
H310 H 0.22534 0.70313 0.85539 0.0
H311 H 0.16532 0.71519 0.84692 0.0
H312 H 0.19792 0.74465 0.81894 0.0
H313 H 0.18216 0.73844 0.80588 0.0
H314 H 0.17772 0.75067 0.82346 0.0
H315 H 0.16005 0.73471 0.83955 0.0
H316 H 0.15676 0.71647 0.82758 0.0
C317 C 0.22108 0.67286 0.84401 0.0
C318 C 0.23903 0.69213 0.8266 0.0
C319 C 0.15636 0.69675 0.77005 0.0
C320 C 0.14564 0.70974 0.77011 0.0
C321 C 0.14635 0.72111 0.78296 0.0
C322 C 0.15763 0.71971 0.79545 0.0
C323 C 0.16845 0.70685 0.79511 0.0
C324 C 0.16769 0.6956 0.78259 0.0
C325 C 0.18043 0.68297 0.78414 0.0
C326 C 0.18891 0.68852 0.79964 0.0
C327 C 0.18179 0.7025 0.80598 0.0
C328 C 0.17184 0.66622 0.78595 0.0
C329 C 0.19172 0.68423 0.76933 0.0
C330 C 0.19483 0.73814 0.85501 0.0
C331 C 0.20662 0.73746 0.86721 0.0
C332 C 0.2174 0.72448 0.86713 0.0
C333 C 0.21666 0.71257 0.8549 0.0
C334 C 0.205 0.71359 0.8426 0.0
C335 C 0.1942 0.7261 0.84293 0.0
C336 C 0.18246 0.72512 0.82905 0.0
C337 C 0.18801 0.70996 0.82031 0.0
C338 C 0.20129 0.70335 0.82821 0.0
C339 C 0.16519 0.72287 0.83601 0.0
C340 C 0.18501 0.74051 0.81878 0.0
H341 H 0.20256 0.65545 0.78236 0.0
H342 H 0.24703 0.65662 0.82281 0.0
H343 H 0.24232 0.69449 0.81384 0.0
H344 H 0.23734 0.70419 0.83216 0.0
H345 H 0.24953 0.68645 0.83247 0.0
H346 H 0.21486 0.66081 0.84261 0.0
H347 H 0.23277 0.67096 0.85027 0.0
H348 H 0.21309 0.67987 0.85202 0.0
H349 H 0.15617 0.68789 0.76028 0.0
H350 H 0.13808 0.73109 0.7834 0.0
H351 H 0.15754 0.72879 0.80484 0.0
H352 H 0.16035 0.66734 0.79278 0.0
H353 H 0.16882 0.66068 0.77399 0.0
H354 H 0.17904 0.65767 0.79295 0.0
H355 H 0.19418 0.69714 0.7663 0.0
H356 H 0.20372 0.6791 0.77138 0.0
H357 H 0.1861 0.67817 0.75857 0.0
H358 H 0.22344 0.63547 0.78067 0.0
C359 C 0.21197 0.6561 0.79129 0.0
C360 C 0.92674 0.50504 0.48806 0.0
C361 C 0.92331 0.49014 0.48024 0.0
C362 C 0.93422 0.48422 0.46869 0.0
C363 C 0.95136 0.50828 0.47242 0.0
C364 C 0.94086 0.51377 0.48413 0.0
C365 C 0.94662 0.5295 0.4918 0.0
H366 H 0.00173 0.59137 0.49561 0.0
C367 C 0.96475 0.52039 0.47106 0.0
C368 C 0.96214 0.53272 0.48257 0.0
H369 H 0.95935 0.58402 0.52527 0.0
H370 H 0.95289 0.55907 0.51091 0.0
H371 H 0.98475 0.58091 0.46264 0.0
H372 H 0.01336 0.5547 0.49631 0.0
H373 H 0.01929 0.54837 0.47695 0.0
H374 H 0.02202 0.56938 0.48293 0.0
H375 H 0.00629 0.58366 0.46416 0.0
H376 H 0.99714 0.56831 0.45111 0.0
C377 C 0.93381 0.54243 0.48844 0.0
C378 C 0.94986 0.52654 0.50994 0.0
C379 C 0.00661 0.51503 0.42643 0.0
C380 C 0.01979 0.52502 0.42181 0.0
C381 C 0.02394 0.53876 0.43142 0.0
C382 C 0.01483 0.54286 0.44498 0.0
C383 C 1.00134 0.53316 0.44909 0.0
C384 C 0.99755 0.51935 0.44007 0.0
C385 C 0.98284 0.51048 0.44647 0.0
C386 C 0.97821 0.52154 0.46047 0.0
C387 C 0.9891 0.5348 0.46188 0.0
C388 C 0.96975 0.50986 0.43307 0.0
C389 C 0.98804 0.49362 0.45228 0.0
C390 C 0.99115 0.5843 0.49913 0.0
C391 C 0.98105 0.58971 0.51161 0.0
C392 C 0.96724 0.58025 0.51558 0.0
C393 C 0.96356 0.56569 0.50729 0.0
C394 C 0.97376 0.56048 0.49483 0.0
C395 C 0.98729 0.56974 0.49095 0.0
C396 C 0.99664 0.56243 0.47725 0.0
C397 C 0.98663 0.54712 0.47371 0.0
C398 C 0.97323 0.54607 0.48399 0.0
C399 C 0.99637 0.5744 0.46302 0.0
C400 C 0.01379 0.55858 0.48353 0.0
H401 H 0.95596 0.48823 0.45566 0.0
H402 H 0.91867 0.5097 0.49719 0.0
H403 H 0.95386 0.51395 0.51194 0.0
H404 H 0.9598 0.53432 0.51491 0.0
H405 H 0.93879 0.52835 0.51722 0.0
H406 H 0.92891 0.54099 0.47598 0.0
H407 H 0.92349 0.5413 0.49692 0.0
H408 H 0.93879 0.55495 0.48914 0.0
H409 H 0.00313 0.50438 0.41933 0.0
H410 H 0.03424 0.54645 0.42837 0.0
H411 H 0.01855 0.55356 0.45162 0.0
H412 H 0.96895 0.52184 0.4272 0.0
H413 H 0.97268 0.50074 0.4236 0.0
H414 H 0.95751 0.50707 0.43763 0.0
H415 H 1.00084 0.49395 0.45648 0.0
H416 H 0.98102 0.48943 0.46281 0.0
H417 H 0.98695 0.48439 0.44242 0.0
H418 H 0.93176 0.47274 0.46255 0.0
C419 C 0.9482 0.49325 0.46468 0.0
C420 C 0.8139 0.7759 0.85634 0.0
C421 C 0.79983 0.77535 0.86577 0.0
C422 C 0.78782 0.78688 0.86328 0.0
C423 C 0.8037 0.79896 0.8419 0.0
C424 C 0.8155 0.78768 0.84441 0.0
C425 C 0.82915 0.7893 0.83256 0.0
H426 H 0.85953 0.82329 0.76512 0.0
C427 C 0.8088 0.80915 0.82825 0.0
C428 C 0.82369 0.80354 0.82268 0.0
H429 H 0.87917 0.78458 0.79318 0.0
H430 H 0.858 0.78753 0.81271 0.0
H431 H 0.85254 0.84631 0.79591 0.0
H432 H 0.82169 0.81312 0.76864 0.0
H433 H 0.81173 0.83161 0.77139 0.0
H434 H 0.83049 0.83136 0.76056 0.0
H435 H 0.84375 0.85188 0.77705 0.0
H436 H 0.83316 0.85455 0.79589 0.0
C437 C 0.8449 0.79342 0.8421 0.0
C438 C 0.8296 0.77338 0.82239 0.0
C439 C 0.77276 0.85425 0.80966 0.0
C440 C 0.77439 0.866 0.79766 0.0
C441 C 0.78843 0.86633 0.78807 0.0
C442 C 0.80054 0.85493 0.79021 0.0
C443 C 0.79866 0.84313 0.80216 0.0
C444 C 0.78505 0.8431 0.81179 0.0
C445 C 0.78537 0.83012 0.82428 0.0
C446 C 0.8014 0.82235 0.82057 0.0
C447 C 0.80904 0.82986 0.80745 0.0
C448 C 0.78543 0.83844 0.84116 0.0
C449 C 0.77082 0.81828 0.82108 0.0
C450 C 0.85936 0.81557 0.77556 0.0
C451 C 0.87088 0.80344 0.77738 0.0
C452 C 0.87022 0.79372 0.79122 0.0
C453 C 0.85792 0.79547 0.8026 0.0
C454 C 0.84605 0.80707 0.8002 0.0
C455 C 0.84709 0.81717 0.78709 0.0
C456 C 0.83358 0.82908 0.78683 0.0
C457 C 0.82392 0.82394 0.80155 0.0
C458 C 0.83127 0.81098 0.80925 0.0
C459 C 0.84103 0.8464 0.78891 0.0
C460 C 0.82383 0.8263 0.77102 0.0
H461 H 0.7801 0.80709 0.85015 0.0
H462 H 0.82322 0.76704 0.85786 0.0
H463 H 0.81718 0.76827 0.8203 0.0
H464 H 0.83455 0.77512 0.81018 0.0
H465 H 0.83667 0.76404 0.8286 0.0
H466 H 0.8424 0.80135 0.85273 0.0
H467 H 0.85055 0.78227 0.84659 0.0
H468 H 0.85387 0.80035 0.83496 0.0
H469 H 0.76222 0.85387 0.81738 0.0
H470 H 0.7899 0.87525 0.77872 0.0
H471 H 0.81085 0.85567 0.78243 0.0
H472 H 0.79272 0.84995 0.84109 0.0
H473 H 0.77297 0.84142 0.84498 0.0
H474 H 0.79108 0.8311 0.85056 0.0
H475 H 0.7682 0.81705 0.80794 0.0
H476 H 0.7731 0.80581 0.82498 0.0
H477 H 0.7597 0.82264 0.82704 0.0
H478 H 0.77692 0.78672 0.8705 0.0
C479 C 0.78971 0.79871 0.85147 0.0
C480 C 0.31271 0.27779 0.35714 0.0
C481 C 0.29952 0.27864 0.36778 0.0
C482 C 0.28878 0.29158 0.36637 0.0
C483 C 0.30376 0.30186 0.34352 0.0
C484 C 0.31458 0.28949 0.34516 0.0
C485 C 0.32766 0.29014 0.33261 0.0
H486 H 0.35787 0.3231 0.26452 0.0
C487 C 0.30875 0.31159 0.3295 0.0
C488 C 0.32283 0.30489 0.32313 0.0
H489 H 0.37628 0.28319 0.29175 0.0
H490 H 0.35559 0.28679 0.31168 0.0
H491 H 0.35225 0.34624 0.29552 0.0
H492 H 0.31971 0.3141 0.26891 0.0
H493 H 0.31026 0.33277 0.2721 0.0
H494 H 0.32862 0.33218 0.2606 0.0
H495 H 0.34385 0.35177 0.27645 0.0
H496 H 0.33333 0.35544 0.29517 0.0
C497 C 0.34414 0.29289 0.34132 0.0
C498 C 0.32633 0.27434 0.32229 0.0
C499 C 0.27361 0.35753 0.31127 0.0
C500 C 0.27505 0.36881 0.29882 0.0
C501 C 0.28871 0.36848 0.28872 0.0
C502 C 0.3006 0.35682 0.29077 0.0
C503 C 0.29887 0.34544 0.30313 0.0
C504 C 0.28567 0.34611 0.31329 0.0
C505 C 0.28615 0.33355 0.32619 0.0
C506 C 0.30167 0.32505 0.32197 0.0
C507 C 0.30898 0.33191 0.30833 0.0
C508 C 0.28729 0.34239 0.34282 0.0
C509 C 0.27107 0.3222 0.32401 0.0
C510 C 0.35754 0.31525 0.27486 0.0
C511 C 0.3686 0.30265 0.27637 0.0
C512 C 0.36769 0.29272 0.29005 0.0
C513 C 0.35569 0.29487 0.30168 0.0
C514 C 0.34436 0.30708 0.2997 0.0
C515 C 0.34556 0.31723 0.28663 0.0
C516 C 0.33258 0.32972 0.28675 0.0
C517 C 0.32323 0.32513 0.30183 0.0
C518 C 0.33016 0.31178 0.30927 0.0
C519 C 0.34082 0.34673 0.28844 0.0
C520 C 0.32223 0.32723 0.27127 0.0
H521 H 0.28214 0.31256 0.35386 0.0
H522 H 0.32114 0.26799 0.35781 0.0
H523 H 0.31343 0.27077 0.32012 0.0
H524 H 0.3316 0.27556 0.31017 0.0
H525 H 0.33216 0.26416 0.32849 0.0
H526 H 0.34275 0.30018 0.35261 0.0
H527 H 0.34953 0.2812 0.34464 0.0
H528 H 0.35293 0.29996 0.33409 0.0
H529 H 0.26339 0.35771 0.3194 0.0
H530 H 0.29004 0.37707 0.27905 0.0
H531 H 0.31062 0.35706 0.2826 0.0
H532 H 0.2936 0.35439 0.34185 0.0
H533 H 0.27509 0.3445 0.34788 0.0
H534 H 0.29455 0.33577 0.35167 0.0
H535 H 0.26872 0.31956 0.311 0.0
H536 H 0.27248 0.31024 0.32952 0.0
H537 H 0.26011 0.32787 0.32908 0.0
H538 H 0.27872 0.29274 0.3746 0.0
C539 C 0.29083 0.30315 0.35435 0.0
C540 C 0.48263 0.92448 0.5049 0.0
C541 C 0.47386 0.92124 0.49061 0.0
C542 C 0.46175 0.93201 0.486 0.0
C543 C 0.46702 0.94861 0.50991 0.0
C544 C 0.479 0.93815 0.51433 0.0
C545 C 0.48687 0.94307 0.53009 0.0
H546 H 0.49398 0.99641 0.59257 0.0
C547 C 0.46605 0.96143 0.52251 0.0
C548 C 0.47767 0.95824 0.53437 0.0
H549 H 0.51978 0.95193 0.58485 0.0
H550 H 0.50504 0.94686 0.56021 0.0
H551 H 0.45998 0.98071 0.58443 0.0
H552 H 0.49329 0.00819 0.55527 0.0
H553 H 0.47373 0.01553 0.55205 0.0
H554 H 0.48246 0.0167 0.57198 0.0
H555 H 0.46144 0.00239 0.58584 0.0
H556 H 0.44811 0.99213 0.57148 0.0
C557 C 0.48372 0.92936 0.54235 0.0
C558 C 0.50498 0.9469 0.52682 0.0
C559 C 0.42431 0.00549 0.51793 0.0
C560 C 0.42013 0.01848 0.52815 0.0
C561 C 0.42909 0.02134 0.54245 0.0
C562 C 0.4419 0.01139 0.5466 0.0
C563 C 0.44577 0.99829 0.53641 0.0
C564 C 0.43705 0.99552 0.52234 0.0
C565 C 0.4426 0.98075 0.51326 0.0
C566 C 0.45602 0.97509 0.52424 0.0
C567 C 0.45786 0.98547 0.53774 0.0
C568 C 0.42826 0.96833 0.51223 0.0
C569 C 0.44917 0.98624 0.4967 0.0
C570 C 0.49642 0.98549 0.5857 0.0
C571 C 0.50832 0.9747 0.59073 0.0
C572 C 0.51104 0.96072 0.58118 0.0
C573 C 0.50234 0.95769 0.56688 0.0
C574 C 0.4906 0.96864 0.56202 0.0
C575 C 0.48767 0.98216 0.57148 0.0
C576 C 0.47417 0.99202 0.56482 0.0
C577 C 0.46975 0.98235 0.54963 0.0
C578 C 0.4795 0.96875 0.54801 0.0
C579 C 0.46019 0.99198 0.57724 0.0
C580 C 0.48113 0.00908 0.56087 0.0
H581 H 0.44892 0.95333 0.49138 0.0
H582 H 0.49186 0.91635 0.5089 0.0
H583 H 0.50648 0.95353 0.51532 0.0
H584 H 0.51069 0.95489 0.53611 0.0
H585 H 0.51195 0.93559 0.52581 0.0
H586 H 0.47204 0.92282 0.53979 0.0
H587 H 0.49343 0.9203 0.54188 0.0
H588 H 0.48253 0.93396 0.55486 0.0
H589 H 0.41753 0.00287 0.50695 0.0
H590 H 0.42621 0.03137 0.55043 0.0
H591 H 0.44823 0.01423 0.55763 0.0
H592 H 0.42091 0.96871 0.52344 0.0
H593 H 0.42012 0.97095 0.50196 0.0
H594 H 0.43217 0.95567 0.51117 0.0
H595 H 0.45566 0.99817 0.49784 0.0
H596 H 0.45818 0.97795 0.49161 0.0
H597 H 0.43918 0.98755 0.48786 0.0
H598 H 0.45494 0.92989 0.47495 0.0
C599 C 0.45831 0.94566 0.49554 0.0
C600 C 0.14968 0.31302 0.73385 0.0
C601 C 0.13985 0.2989 0.73392 0.0
C602 C 0.14185 0.28702 0.72176 0.0
C603 C 0.16362 0.30308 0.71005 0.0
C604 C 0.16156 0.31477 0.72195 0.0
C605 C 0.17389 0.32841 0.72087 0.0
H606 H 0.2418 0.35945 0.68672 0.0
C607 C 0.17751 0.30822 0.70001 0.0
C608 C 0.18364 0.32301 0.70635 0.0
H609 H 0.21486 0.37895 0.72688 0.0
H610 H 0.19492 0.35732 0.72392 0.0
H611 H 0.20995 0.35101 0.6644 0.0
H612 H 0.23885 0.32291 0.69633 0.0
H613 H 0.23449 0.31074 0.67923 0.0
H614 H 0.24594 0.32943 0.677 0.0
H615 H 0.22972 0.34432 0.659 0.0
H616 H 0.21183 0.33181 0.65531 0.0
C617 C 0.16483 0.34424 0.7176 0.0
C618 C 0.18409 0.32876 0.73661 0.0
C619 C 0.19493 0.27284 0.65268 0.0
C620 C 0.20779 0.2741 0.64167 0.0
C621 C 0.2185 0.28763 0.64277 0.0
C622 C 0.21649 0.29966 0.65465 0.0
C623 C 0.20369 0.29816 0.66566 0.0
C624 C 0.19315 0.28494 0.66455 0.0
C625 C 0.18049 0.28519 0.67754 0.0
C626 C 0.185 0.3009 0.68642 0.0
C627 C 0.19861 0.30841 0.67943 0.0
C628 C 0.16369 0.28599 0.66932 0.0
C629 C 0.1827 0.27016 0.68826 0.0
C630 C 0.23149 0.35921 0.69473 0.0
C631 C 0.23003 0.37087 0.70716 0.0
C632 C 0.21646 0.36997 0.7174 0.0
C633 C 0.20485 0.35741 0.71563 0.0
C634 C 0.20681 0.34552 0.70354 0.0
C635 C 0.2198 0.34671 0.69315 0.0
C636 C 0.21986 0.33302 0.68096 0.0
C637 C 0.20497 0.32325 0.68597 0.0
C638 C 0.19742 0.33059 0.69925 0.0
C639 C 0.21786 0.3403 0.66397 0.0
C640 C 0.23561 0.32351 0.68332 0.0
H641 H 0.15456 0.27958 0.70088 0.0
H642 H 0.14856 0.32222 0.74321 0.0
H643 H 0.18578 0.31628 0.74112 0.0
H644 H 0.19649 0.33368 0.73495 0.0
H645 H 0.17808 0.33582 0.74629 0.0
H646 H 0.15429 0.34185 0.70946 0.0
H647 H 0.16022 0.34966 0.72898 0.0
H648 H 0.17238 0.35337 0.71133 0.0
H649 H 0.18662 0.26249 0.65229 0.0
H650 H 0.22839 0.28896 0.63433 0.0
H651 H 0.22507 0.30962 0.65484 0.0
H652 H 0.16411 0.29452 0.65907 0.0
H653 H 0.15973 0.2739 0.6645 0.0
H654 H 0.15425 0.29059 0.67744 0.0
H655 H 0.19555 0.26646 0.68853 0.0
H656 H 0.17969 0.27253 0.70105 0.0
H657 H 0.17532 0.25962 0.68371 0.0
H658 H 0.13433 0.27609 0.72157 0.0
C659 C 0.1536 0.28908 0.70977 0.0
C660 C 0.77849 0.14832 0.70409 0.0
C661 C 0.76462 0.14603 0.69437 0.0
C662 C 0.76224 0.15654 0.68136 0.0
C663 C 0.78676 0.17176 0.68854 0.0
C664 C 0.7893 0.16121 0.70102 0.0
C665 C 0.8042 0.16568 0.71069 0.0
H666 H 0.86705 0.21781 0.72547 0.0
C667 C 0.7998 0.18435 0.68918 0.0
C668 C 0.81006 0.18082 0.70213 0.0
H669 H 0.85375 0.17439 0.75135 0.0
H670 H 0.83174 0.16901 0.7328 0.0
H671 H 0.8322 0.23042 0.72237 0.0
H672 H 0.86055 0.20259 0.68908 0.0
H673 H 0.85107 0.21784 0.67816 0.0
H674 H 0.86502 0.22345 0.69415 0.0
H675 H 0.84779 0.23965 0.71038 0.0
H676 H 0.82727 0.23715 0.70306 0.0
C677 C 0.79897 0.16939 0.72827 0.0
C678 C 0.81629 0.15171 0.70892 0.0
C679 C 0.79965 0.2309 0.64971 0.0
C680 C 0.80935 0.24502 0.64832 0.0
C681 C 0.8225 0.24761 0.65897 0.0
C682 C 0.82596 0.23629 0.67084 0.0
C683 C 0.81604 0.22231 0.67223 0.0
C684 C 0.80311 0.21982 0.6618 0.0
C685 C 0.79345 0.20467 0.66558 0.0
C686 C 0.80284 0.19839 0.67986 0.0
C687 C 0.81609 0.20873 0.68364 0.0
C688 C 0.77612 0.20965 0.67032 0.0
C689 C 0.7942 0.19301 0.65081 0.0
C690 C 0.85937 0.20717 0.7272 0.0
C691 C 0.8622 0.19654 0.73996 0.0
C692 C 0.85202 0.18269 0.74154 0.0
C693 C 0.83913 0.17965 0.73082 0.0
C694 C 0.83624 0.19061 0.71839 0.0
C695 C 0.84637 0.20401 0.71666 0.0
C696 C 0.84134 0.21447 0.70292 0.0
C697 C 0.82653 0.20511 0.69666 0.0
C698 C 0.82359 0.19117 0.70578 0.0
C699 C 0.83701 0.23136 0.7099 0.0
C700 C 0.85519 0.21478 0.69039 0.0
H701 H 0.77063 0.17704 0.66844 0.0
H702 H 0.78086 0.14033 0.71402 0.0
H703 H 0.81555 0.14609 0.69665 0.0
H704 H 0.82903 0.15585 0.71026 0.0
H705 H 0.81368 0.14203 0.71776 0.0
H706 H 0.7871 0.17546 0.72852 0.0
H707 H 0.79769 0.15809 0.7353 0.0
H708 H 0.80735 0.17788 0.7347 0.0
H709 H 0.78931 0.22874 0.64183 0.0
H710 H 0.83017 0.25838 0.65804 0.0
H711 H 0.83615 0.23894 0.67856 0.0
H712 H 0.7763 0.22163 0.67667 0.0
H713 H 0.76826 0.2106 0.6595 0.0
H714 H 0.7703 0.20127 0.67891 0.0
H715 H 0.80648 0.19339 0.64536 0.0
H716 H 0.79198 0.18021 0.65394 0.0
H717 H 0.78543 0.19643 0.64135 0.0
H718 H 0.75162 0.15516 0.67374 0.0
C719 C 0.77324 0.16935 0.67838 0.0
C720 C 0.53402 0.58449 0.5046 0.0
C721 C 0.52128 0.59526 0.50706 0.0
C722 C 0.51143 0.59339 0.52081 0.0
C723 C 0.52707 0.57055 0.52931 0.0
C724 C 0.53671 0.57234 0.51585 0.0
C725 C 0.5499 0.56009 0.51518 0.0
H726 H 0.58946 0.49925 0.55076 0.0
C727 C 0.53328 0.55697 0.53876 0.0
C728 C 0.54671 0.55083 0.53058 0.0
H729 H 0.59885 0.52054 0.50422 0.0
H730 H 0.57653 0.53832 0.50797 0.0
H731 H 0.58092 0.53184 0.57006 0.0
H732 H 0.55133 0.49597 0.54493 0.0
H733 H 0.54066 0.50164 0.56228 0.0
H734 H 0.56005 0.4923 0.56433 0.0
H735 H 0.57739 0.51179 0.57756 0.0
H736 H 0.56374 0.52797 0.58197 0.0
C737 C 0.56639 0.56939 0.51573 0.0
C738 C 0.5472 0.54925 0.49992 0.0
C739 C 0.50511 0.54035 0.59059 0.0
C740 C 0.50825 0.52842 0.60207 0.0
C741 C 0.52198 0.51878 0.60005 0.0
C742 C 0.53222 0.52077 0.58676 0.0
C743 C 0.52878 0.53256 0.5753 0.0
C744 C 0.5155 0.54221 0.57739 0.0
C745 C 0.51391 0.55431 0.56412 0.0
C746 C 0.52822 0.55008 0.55355 0.0
C747 C 0.53687 0.53732 0.56016 0.0
C748 C 0.51577 0.57156 0.57168 0.0
C749 C 0.49758 0.5509 0.55535 0.0
C750 C 0.58669 0.50761 0.54127 0.0
C751 C 0.59622 0.5085 0.52724 0.0
C752 C 0.59209 0.51977 0.51534 0.0
C753 C 0.57898 0.53004 0.51747 0.0
C754 C 0.56971 0.52903 0.53158 0.0
C755 C 0.5735 0.51781 0.54309 0.0
C756 C 0.56182 0.51789 0.55696 0.0
C757 C 0.55056 0.53121 0.55199 0.0
C758 C 0.55534 0.53781 0.5372 0.0
C759 C 0.57136 0.52249 0.57254 0.0
C760 C 0.55302 0.50109 0.55733 0.0
H761 H 0.50634 0.5804 0.54209 0.0
H762 H 0.5417 0.58541 0.49409 0.0
H763 H 0.53411 0.54792 0.49689 0.0
H764 H 0.55122 0.53671 0.50158 0.0
H765 H 0.55342 0.55451 0.4893 0.0
H766 H 0.56605 0.5797 0.52452 0.0
H767 H 0.56945 0.57442 0.50374 0.0
H768 H 0.57644 0.56191 0.51978 0.0
H769 H 0.49465 0.54792 0.59167 0.0
H770 H 0.52492 0.50973 0.60883 0.0
H771 H 0.54243 0.51303 0.58595 0.0
H772 H 0.5239 0.57163 0.58241 0.0
H773 H 0.50391 0.57619 0.57565 0.0
H774 H 0.52151 0.58035 0.56343 0.0
H775 H 0.4952 0.53762 0.55394 0.0
H776 H 0.49733 0.55563 0.54299 0.0
H777 H 0.48739 0.55604 0.56227 0.0
H778 H 0.50169 0.60162 0.52318 0.0
C779 C 0.51424 0.58111 0.53189 0.0
C780 C 0.52983 0.42829 0.01306 0.0
C781 C 0.5153 0.41905 0.01231 0.0
C782 C 0.50372 0.4228 1.00046 0.0
C783 C 0.52142 0.44405 0.99013 0.0
C784 C 0.53258 0.4407 0.00199 0.0
C785 C 0.54729 0.45174 0.00135 0.0
H786 H 0.58878 0.51234 0.96465 0.0
C787 C 0.52824 0.45729 0.98023 0.0
C788 C 0.54337 0.4619 0.9868 0.0
H789 H 0.60108 0.48798 0.00872 0.0
H790 H 0.57709 0.47102 0.00613 0.0
H791 H 0.5506 0.51583 0.97331 0.0
H792 H 0.57704 0.4814 0.94497 0.0
H793 H 0.55838 0.48357 0.93519 0.0
H794 H 0.57207 0.50087 0.93731 0.0
H795 H 0.56035 0.52072 0.95464 0.0
H796 H 0.54008 0.51231 0.95505 0.0
C797 C 0.54806 0.46203 0.01716 0.0
C798 C 0.56227 0.44122 0.99837 0.0
C799 C 0.49746 0.47647 0.93107 0.0
C800 C 0.50137 0.48745 0.91873 0.0
C801 C 0.51653 0.49571 0.9194 0.0
C802 C 0.5274 0.49327 0.93208 0.0
C803 C 0.52327 0.48231 0.94426 0.0
C804 C 0.5086 0.47397 0.94352 0.0
C805 C 0.50669 0.46209 0.95702 0.0
C806 C 0.52252 0.46489 0.96611 0.0
C807 C 0.5321 0.47687 0.95866 0.0
C808 C 0.49194 0.46699 0.96729 0.0
C809 C 0.50531 0.44481 0.94946 0.0
C810 C 0.58627 0.50347 0.97385 0.0
C811 C 0.59695 0.50157 0.98692 0.0
C812 C 0.59326 0.48961 0.9984 0.0
C813 C 0.5792 0.47984 0.99697 0.0
C814 C 0.56858 0.48206 0.98397 0.0
C815 C 0.57219 0.49373 0.97269 0.0
C816 C 0.55935 0.49459 0.95984 0.0
C817 C 0.5473 0.48171 0.96545 0.0
C818 C 0.55284 0.47433 0.97951 0.0
C819 C 0.5522 0.51175 0.96057 0.0
C820 C 0.56701 0.49 0.94341 0.0
H821 H 0.49743 0.43737 0.98067 0.0
H822 H 0.53909 0.42577 0.02188 0.0
H823 H 0.55949 0.43153 0.98923 0.0
H824 H 0.57269 0.44813 0.99351 0.0
H825 H 0.5661 0.43526 0.00963 0.0
H826 H 0.53579 0.46372 0.02231 0.0
H827 H 0.55549 0.45615 0.02649 0.0
H828 H 0.55282 0.47449 0.01527 0.0
H829 H 0.48595 0.46993 0.93114 0.0
H830 H 0.5202 0.50389 0.90995 0.0
H831 H 0.5387 0.49993 0.93183 0.0
H832 H 0.49119 0.48041 0.96827 0.0
H833 H 0.48045 0.46228 0.9618 0.0
H834 H 0.49269 0.46285 0.97986 0.0
H835 H 0.51316 0.44376 0.93864 0.0
H836 H 0.50947 0.43532 0.95761 0.0
H837 H 0.49268 0.44185 0.9456 0.0
H838 H 0.49225 0.41621 0.99976 0.0
C839 C 0.50671 0.43519 0.98939 0.0
C840 C 0.73928 0.158 0.31211 0.0
C841 C 0.73879 0.14633 0.2996 0.0
C842 C 0.72587 0.14625 0.28847 0.0
C843 C 0.71463 0.16969 0.30197 0.0
C844 C 0.72706 0.16941 0.31315 0.0
C845 C 0.72558 0.18234 0.32598 0.0
H846 H 0.68677 0.24747 0.35565 0.0
C847 C 0.70418 0.1834 0.30625 0.0
C848 C 0.71048 0.19074 0.32041 0.0
H849 H 0.72818 0.22383 0.37579 0.0
H850 H 0.72735 0.20412 0.35404 0.0
H851 H 0.66675 0.21459 0.34633 0.0
H852 H 0.69846 0.24611 0.31955 0.0
H853 H 0.68307 0.23969 0.30614 0.0
H854 H 0.67798 0.25125 0.32399 0.0
H855 H 0.66115 0.23443 0.34014 0.0
H856 H 0.65796 0.21687 0.3272 0.0
C857 C 0.72308 0.17396 0.34243 0.0
C858 C 0.74078 0.19364 0.3252 0.0
C859 C 0.65745 0.1982 0.2695 0.0
C860 C 0.64654 0.21103 0.26988 0.0
C861 C 0.64726 0.22222 0.28289 0.0
C862 C 0.65871 0.22079 0.29522 0.0
C863 C 0.66968 0.20808 0.29457 0.0
C864 C 0.66895 0.19702 0.28188 0.0
C865 C 0.68188 0.18454 0.28309 0.0
C866 C 0.69047 0.18998 0.29856 0.0
C867 C 0.6832 0.20374 0.30522 0.0
C868 C 0.67352 0.16765 0.28476 0.0
C869 C 0.69298 0.18616 0.26818 0.0
C870 C 0.6957 0.23809 0.35533 0.0
C871 C 0.70755 0.23722 0.36747 0.0
C872 C 0.71881 0.22467 0.3667 0.0
C873 C 0.71836 0.21327 0.354 0.0
C874 C 0.70652 0.21437 0.34189 0.0
C875 C 0.69538 0.22656 0.34275 0.0
C876 C 0.68358 0.22575 0.32892 0.0
C877 C 0.68942 0.211 0.31966 0.0
C878 C 0.70291 0.20446 0.32726 0.0
C879 C 0.6664 0.22287 0.33588 0.0
C880 C 0.6857 0.24151 0.31912 0.0
H881 H 0.70438 0.15731 0.28063 0.0
H882 H 0.74891 0.15813 0.32102 0.0
H883 H 0.74413 0.19601 0.31245 0.0
H884 H 0.73894 0.2057 0.3307 0.0
H885 H 0.7513 0.18806 0.33113 0.0
H886 H 0.71688 0.16191 0.34089 0.0
H887 H 0.73481 0.17201 0.34857 0.0
H888 H 0.71511 0.1808 0.35061 0.0
H889 H 0.65727 0.18948 0.2596 0.0
H890 H 0.63886 0.23207 0.28357 0.0
H891 H 0.6586 0.22972 0.30475 0.0
H892 H 0.66211 0.16852 0.29176 0.0
H893 H 0.6704 0.16227 0.27275 0.0
H894 H 0.68093 0.15909 0.29151 0.0
H895 H 0.69525 0.19914 0.26532 0.0
H896 H 0.70506 0.18113 0.27002 0.0
H897 H 0.68731 0.18019 0.25739 0.0
H898 H 0.72527 0.13734 0.27874 0.0
C899 C 0.71381 0.15789 0.28955 0.0
C900 C 0.42707 0.00795 0.98777 0.0
C901 C 0.42331 0.99311 0.97998 0.0
C902 C 0.43384 0.98715 0.96809 0.0
C903 C 0.45144 0.01088 0.97171 0.0
C904 C 0.44124 0.0165 0.98361 0.0
C905 C 0.44744 0.03208 0.99127 0.0
H906 H 0.50428 0.09241 0.99516 0.0
C907 C 0.46518 0.02258 0.97039 0.0
C908 C 0.46302 0.0349 0.982 0.0
H909 H 0.46119 0.08662 0.02413 0.0
H910 H 0.45434 0.06164 0.01005 0.0
H911 H 0.4872 0.08066 0.96105 0.0
H912 H 0.51508 0.05636 0.99686 0.0
H913 H 0.52023 0.04767 0.97819 0.0
H914 H 0.52455 0.06895 0.98201 0.0
H915 H 0.50825 0.08504 0.9649 0.0
H916 H 0.50185 0.0691 0.95112 0.0
C917 C 0.43496 0.04534 0.98795 0.0
C918 C 0.45064 0.02902 0.00939 0.0
C919 C 0.50699 0.01565 0.92608 0.0
C920 C 0.52132 0.02431 0.92217 0.0
C921 C 0.52639 0.03737 0.93235 0.0
C922 C 0.51712 0.04213 0.94561 0.0
C923 C 0.50262 0.03369 0.94899 0.0
C924 C 0.49799 0.02042 0.93957 0.0
C925 C 0.4828 0.01223 0.94573 0.0
C926 C 0.47873 0.02325 0.95992 0.0
C927 C 0.4903 0.0359 0.96163 0.0
C928 C 0.46975 0.01263 0.93232 0.0
C929 C 0.48701 0.99493 0.95117 0.0
C930 C 0.49344 0.08569 0.99856 0.0
C931 C 0.48324 0.09157 0.01075 0.0
C932 C 0.46914 0.08251 0.01464 0.0
C933 C 0.46522 0.06793 0.0065 0.0
C934 C 0.47547 0.06229 0.99427 0.0
C935 C 0.48932 0.07111 0.9905 0.0
C936 C 0.49871 0.06328 0.9771 0.0
C937 C 0.48821 0.04829 0.97348 0.0
C938 C 0.47462 0.04781 0.98356 0.0
C939 C 0.49919 0.07508 0.96275 0.0
C940 C 0.51558 0.05889 0.98373 0.0
H941 H 0.45529 0.99095 0.95458 0.0
H942 H 0.41928 0.01267 0.99712 0.0
H943 H 0.45469 0.01643 0.0113 0.0
H944 H 0.46052 0.03681 0.01446 0.0
H945 H 0.43954 0.03073 0.01665 0.0
H946 H 0.42969 0.04381 0.97564 0.0
H947 H 0.42484 0.04473 0.9967 0.0
H948 H 0.44034 0.05771 0.98822 0.0
H949 H 0.50263 0.00553 0.9187 0.0
H950 H 0.53762 0.04396 0.93014 0.0
H951 H 0.52159 0.05225 0.95272 0.0
H952 H 0.46944 0.02487 0.92692 0.0
H953 H 0.47235 0.00375 0.92252 0.0
H954 H 0.45742 0.01009 0.9368 0.0
H955 H 0.50002 0.99412 0.95448 0.0
H956 H 0.48043 0.99131 0.9622 0.0
H957 H 0.48449 0.9858 0.94145 0.0
H958 H 0.4311 0.97574 0.96194 0.0
C959 C 0.44784 0.996 0.96385 0.0
Mn960 Mn 0.25252 0.87564 0.0074 0.0
Mn961 Mn 0.25105 0.89147 0.97015 0.0
C962 C 0.23924 0.86166 0.98676 0.0
C963 C 0.26518 0.86009 0.02673 0.0
C964 C 0.23043 0.90317 0.99789 0.0
O965 O 0.27065 0.89282 0.00803 0.0
O966 O 0.26933 0.90178 0.98248 0.0
C967 C 0.28169 0.87891 0.95718 0.0
N968 N 0.26532 0.88013 0.95613 0.0
C969 C 0.26442 0.86414 0.93162 0.0
C970 C 0.28128 0.86279 0.93238 0.0
C971 C 0.28994 0.87017 0.94524 0.0
C972 C 0.25687 0.87303 0.94384 0.0
H973 H 0.28838 0.88454 0.96706 0.0
C974 C 0.2757 0.90179 0.9966 0.0
O975 O 0.25517 0.87131 0.03081 0.0
O976 O 0.26819 0.85826 0.01147 0.0
N977 N 0.23399 0.8824 0.95694 0.0
C978 C 0.21771 0.88396 0.95856 0.0
C979 C 0.20725 0.87676 0.94699 0.0
C980 C 0.21364 0.86815 0.93383 0.0
C981 C 0.23045 0.86682 0.93236 0.0
C982 C 0.24027 0.87429 0.94423 0.0
H983 H 0.21274 0.89056 0.96865 0.0
O984 O 0.23568 0.85871 0.00167 0.0
O985 O 0.25036 0.87275 0.98442 0.0
O986 O 0.23532 0.89311 0.00823 0.0
O987 O 0.23574 0.90377 0.98347 0.0
C988 C 0.23782 0.85816 0.91972 0.0
C989 C 0.25479 0.85677 0.91938 0.0
H990 H 0.28768 0.856 0.92323 0.0
H991 H 0.30294 0.86912 0.94595 0.0
H992 H 0.1943 0.87781 0.94823 0.0
H993 H 0.20553 0.86252 0.925 0.0
H994 H 0.23053 0.85229 0.91035 0.0
H995 H 0.26029 0.84983 0.90975 0.0
Mn996 Mn 0.13643 0.50312 0.25238 0.0
Mn997 Mn 0.12143 0.54068 0.25011 0.0
C998 C 0.15006 0.52295 0.23797 0.0
C999 C 0.15236 0.4842 0.26514 0.0
C1000 C 0.10791 0.51183 0.23091 0.0
O1001 O 0.1201 0.5036 0.27082 0.0
O1002 O 0.11239 0.52953 0.26923 0.0
C1003 C 0.13647 0.55536 0.27949 0.0
N1004 N 0.13406 0.55545 0.26324 0.0
C1005 C 0.15025 0.57988 0.26068 0.0
C1006 C 0.15284 0.5801 0.2774 0.0
C1007 C 0.14596 0.56776 0.28684 0.0
C1008 C 0.14069 0.56722 0.25404 0.0
H1009 H 0.13121 0.54589 0.28678 0.0
C1010 C 0.11212 0.51567 0.276 0.0
O1011 O 0.1405 0.4797 0.25565 0.0
O1012 O 0.15454 0.49964 0.26769 0.0
N1013 N 0.12942 0.55283 0.23223 0.0
C1014 C 0.1265 0.55035 0.21619 0.0
C1015 C 0.13297 0.56135 0.20504 0.0
C1016 C 0.14223 0.57485 0.2105 0.0
C1017 C 0.14494 0.57723 0.22707 0.0
C1018 C 0.13816 0.56588 0.23762 0.0
H1019 H 0.11936 0.54002 0.21192 0.0
O1020 O 0.15257 0.50774 0.23499 0.0
O1021 O 0.13971 0.52605 0.24928 0.0
O1022 O 0.11814 0.50164 0.23571 0.0
O1023 O 0.10777 0.52654 0.23589 0.0
C1024 C 0.15428 0.59029 0.23353 0.0
C1025 C 0.15698 0.59158 0.25031 0.0
H1026 H 0.16019 0.58962 0.28311 0.0
H1027 H 0.14796 0.56781 0.29974 0.0
H1028 H 0.13083 0.55942 0.19226 0.0
H1029 H 0.14728 0.58325 0.20185 0.0
H1030 H 0.15965 0.59927 0.22567 0.0
H1031 H 0.16441 0.60154 0.2551 0.0
Mn1032 Mn 0.75665 0.62823 0.00546 0.0
Mn1033 Mn 0.72229 0.64126 0.98819 0.0
C1034 C 0.73334 0.61216 0.00578 0.0
C1035 C 0.78142 0.61528 0.00432 0.0
C1036 C 0.73444 0.65353 0.02066 0.0
O1037 O 0.76491 0.64647 0.99109 0.0
O1038 O 0.74124 0.65385 0.98009 0.0
C1039 C 0.72879 0.6302 0.95477 0.0
N1040 N 0.71906 0.63023 0.96798 0.0
C1041 C 0.6989 0.61357 0.95429 0.0
C1042 C 0.70866 0.61343 0.94049 0.0
C1043 C 0.7237 0.62172 0.94077 0.0
C1044 C 0.70466 0.62213 0.96791 0.0
H1045 H 0.74033 0.63663 0.95492 0.0
C1046 C 0.7566 0.65527 0.98183 0.0
O1047 O 0.77844 0.62615 0.01532 0.0
O1048 O 0.7701 0.61213 0.99375 0.0
N1049 N 0.70285 0.6303 0.99481 0.0
C1050 C 0.69517 0.63117 0.0093 0.0
C1051 C 0.6801 0.62322 0.01117 0.0
C1052 C 0.67297 0.61471 0.99807 0.0
C1053 C 0.68097 0.61423 0.98321 0.0
C1054 C 0.69599 0.62231 0.98208 0.0
H1055 H 0.70054 0.63784 0.01935 0.0
O1056 O 0.74475 0.61008 0.01629 0.0
O1057 O 0.73592 0.62352 0.99533 0.0
O1058 O 0.74694 0.64479 0.02115 0.0
O1059 O 0.72439 0.65315 0.00893 0.0
C1060 C 0.67469 0.60596 0.96949 0.0
C1061 C 0.68371 0.6055 0.95508 0.0
H1062 H 0.70475 0.60694 0.92966 0.0
H1063 H 0.73133 0.62162 0.93019 0.0
H1064 H 0.67398 0.62368 0.02267 0.0
H1065 H 0.66136 0.60855 0.99957 0.0
H1066 H 0.66303 0.59973 0.96995 0.0
H1067 H 0.67887 0.59887 0.9447 0.0
Mn1068 Mn 0.87236 0.00624 0.25685 0.0
Mn1069 Mn 0.884 0.96743 0.25368 0.0
C1070 C 0.85644 0.98719 0.24296 0.0
C1071 C 0.85851 0.02674 0.27014 0.0
C1072 C 0.89875 0.99461 0.23392 0.0
O1073 O 0.88936 0.00485 0.27468 0.0
O1074 O 0.89525 0.9784 0.27221 0.0
C1075 C 0.86991 0.95499 0.28397 0.0
N1076 N 0.87115 0.95418 0.26761 0.0
C1077 C 0.8528 0.93112 0.26614 0.0
C1078 C 0.8514 0.93165 0.28298 0.0
C1079 C 0.85996 0.94367 0.29193 0.0
C1080 C 0.86291 0.94272 0.25888 0.0
H1081 H 0.87646 0.96421 0.2909 0.0
C1082 C 0.89685 0.99232 0.27921 0.0
O1083 O 0.87031 0.03005 0.26034 0.0
O1084 O 0.85528 0.01155 0.27275 0.0
N1085 N 0.87379 0.95539 0.23638 0.0
C1086 C 0.87577 0.95709 0.22018 0.0
C1087 C 0.86763 0.94631 0.20949 0.0
C1088 C 0.85766 0.93383 0.21556 0.0
C1089 C 0.85593 0.93223 0.23228 0.0
C1090 C 0.86437 0.94331 0.24234 0.0
H1091 H 0.88343 0.96665 0.21544 0.0
O1092 O 0.85515 0.00249 0.24002 0.0
O1093 O 0.86703 0.98354 0.25382 0.0
O1094 O 0.89002 0.00585 0.23961 0.0
O1095 O 0.89764 0.97995 0.23856 0.0
C1096 C 0.84599 0.92022 0.23934 0.0
C1097 C 0.84439 0.91969 0.25626 0.0
H1098 H 0.8437 0.92297 0.28916 0.0
H1099 H 0.85888 0.9442 0.30493 0.0
H1100 H 0.86902 0.94763 0.19661 0.0
H1101 H 0.85132 0.9256 0.20728 0.0
H1102 H 0.83933 0.91147 0.23186 0.0
H1103 H 0.8365 0.91056 0.26153 0.0
Mn1104 Mn 0.25557 0.12793 0.50267 0.0
Mn1105 Mn 0.21948 0.13779 0.48669 0.0
C1106 C 0.23326 0.11071 0.50544 0.0
C1107 C 0.28086 0.11607 0.50095 0.0
C1108 C 0.23297 0.153 0.51752 0.0
O1109 O 0.26187 0.14557 0.48675 0.0
O1110 O 0.23728 0.15036 0.47634 0.0
C1111 C 0.22432 0.12433 0.45381 0.0
N1112 N 0.21546 0.12505 0.4676 0.0
C1113 C 0.19541 0.10627 0.45667 0.0
C1114 C 0.20428 0.10539 0.44231 0.0
C1115 C 0.21882 0.11442 0.4409 0.0
C1116 C 0.20151 0.11633 0.46913 0.0
H1117 H 0.23549 0.13126 0.45268 0.0
C1118 C 0.25262 0.15292 0.47707 0.0
O1119 O 0.27802 0.12757 0.51133 0.0
O1120 O 0.26914 0.11176 0.49122 0.0
N1121 N 0.20105 0.12659 0.49541 0.0
C1122 C 0.19427 0.12834 0.51026 0.0
C1123 C 0.1797 0.12003 0.51371 0.0
C1124 C 0.17218 0.11014 0.5018 0.0
C1125 C 0.17932 0.10862 0.48657 0.0
C1126 C 0.19378 0.1173 0.48379 0.0
H1127 H 0.19993 0.13601 0.51942 0.0
O1128 O 0.24537 0.10998 0.51537 0.0
O1129 O 0.23454 0.12143 0.49418 0.0
O1130 O 0.24597 0.14499 0.51777 0.0
O1131 O 0.22229 0.15129 0.50643 0.0
C1132 C 0.1728 0.09864 0.4741 0.0
C1133 C 0.18087 0.09741 0.45919 0.0
H1134 H 0.20009 0.09774 0.43234 0.0
H1135 H 0.22575 0.11375 0.42988 0.0
H1136 H 0.17426 0.12125 0.5255 0.0
H1137 H 0.16095 0.10374 0.5045 0.0
H1138 H 0.1617 0.09168 0.47594 0.0
H1139 H 0.17586 0.08953 0.44978 0.0
Mn1140 Mn 0.37311 0.50681 0.75725 0.0
Mn1141 Mn 0.38681 0.46866 0.75498 0.0
C1142 C 0.3583 0.48675 0.74368 0.0
C1143 C 0.35822 0.52695 0.76992 0.0
C1144 C 0.40007 0.49588 0.73447 0.0
O1145 O 0.38983 0.50668 0.77534 0.0
O1146 O 0.39807 0.48089 0.7728 0.0
C1147 C 0.37396 0.45689 0.78607 0.0
N1148 N 0.37491 0.45544 0.76972 0.0
C1149 C 0.35741 0.43171 0.76954 0.0
C1150 C 0.35632 0.43289 0.78639 0.0
C1151 C 0.3646 0.44556 0.79468 0.0
C1152 C 0.36693 0.44333 0.76162 0.0
H1153 H 0.38027 0.46663 0.79248 0.0
C1154 C 0.39857 0.49494 0.77964 0.0
O1155 O 0.36995 0.53054 0.76014 0.0
O1156 O 0.35557 0.51172 0.7728 0.0
N1157 N 0.37685 0.45544 0.73839 0.0
C1158 C 0.3785 0.45649 0.7221 0.0
C1159 C 0.37062 0.44496 0.71201 0.0
C1160 C 0.36124 0.43241 0.71878 0.0
C1161 C 0.35986 0.43148 0.73559 0.0
C1162 C 0.36805 0.44327 0.74503 0.0
H1163 H 0.38569 0.46612 0.71683 0.0
O1164 O 0.35634 0.50187 0.74031 0.0
O1165 O 0.36895 0.48385 0.75477 0.0
O1166 O 0.39107 0.50688 0.74024 0.0
O1167 O 0.39944 0.48122 0.73914 0.0
C1168 C 0.3505 0.41945 0.74333 0.0
C1169 C 0.34922 0.4196 0.76029 0.0
H1170 H 0.34908 0.42421 0.79307 0.0
H1171 H 0.36377 0.4466 0.80767 0.0
H1172 H 0.37173 0.44577 0.69905 0.0
H1173 H 0.35507 0.42361 0.71096 0.0
H1174 H 0.34405 0.41016 0.73633 0.0
H1175 H 0.34177 0.41043 0.76608 0.0
Mn1176 Mn 0.75115 0.37477 0.50886 0.0
Mn1177 Mn 0.74953 0.38863 0.47082 0.0
C1178 C 0.73761 0.35988 0.48903 0.0
C1179 C 0.76388 0.36003 0.52877 0.0
C1180 C 0.72916 0.40192 0.49806 0.0
O1181 O 0.76939 0.39178 0.50851 0.0
O1182 O 0.76798 0.39944 0.48252 0.0
C1183 C 0.77999 0.37506 0.45848 0.0
N1184 N 0.76363 0.37633 0.45743 0.0
C1185 C 0.7624 0.35834 0.43431 0.0
C1186 C 0.77925 0.35693 0.43508 0.0
C1187 C 0.78807 0.36531 0.44724 0.0
C1188 C 0.75502 0.36833 0.44578 0.0
H1189 H 0.7868 0.38139 0.46786 0.0
C1190 C 0.77445 0.4001 0.4966 0.0
O1191 O 0.75401 0.3715 0.53246 0.0
O1192 O 0.76672 0.35752 0.51358 0.0
N1193 N 0.73233 0.37895 0.45819 0.0
C1194 C 0.71608 0.38088 0.45967 0.0
C1195 C 0.70549 0.37292 0.44871 0.0
C1196 C 0.7117 0.36312 0.43632 0.0
C1197 C 0.72847 0.36141 0.43496 0.0
C1198 C 0.73845 0.36977 0.44614 0.0
H1199 H 0.71123 0.38835 0.46921 0.0
O1200 O 0.73414 0.3577 0.5041 0.0
O1201 O 0.74877 0.37077 0.4861 0.0
O1202 O 0.73409 0.39239 0.50889 0.0
O1203 O 0.73437 0.40175 0.48357 0.0
C1204 C 0.73566 0.3515 0.42316 0.0
C1205 C 0.75262 0.34995 0.42284 0.0
H1206 H 0.78553 0.34933 0.42651 0.0
H1207 H 0.80107 0.3642 0.44797 0.0
H1208 H 0.69255 0.37427 0.44986 0.0
H1209 H 0.70348 0.35685 0.42801 0.0
H1210 H 0.72825 0.34481 0.41442 0.0
H1211 H 0.75798 0.34211 0.41385 0.0
Mn1212 Mn 0.63567 0.00115 0.75246 0.0
Mn1213 Mn 0.61899 0.03811 0.75243 0.0
C1214 C 0.64845 0.02232 0.73938 0.0
C1215 C 0.65208 0.98185 0.76397 0.0
C1216 C 0.60708 0.01026 0.73104 0.0
O1217 O 0.61946 0.99978 0.77085 0.0
O1218 O 0.60961 0.02502 0.77021 0.0
C1219 C 0.63256 0.05068 0.78339 0.0
N1220 N 0.63062 0.05214 0.76716 0.0
C1221 C 0.64609 0.07721 0.76721 0.0
C1222 C 0.64817 0.07604 0.78394 0.0
C1223 C 0.64141 0.06269 0.79205 0.0
C1224 C 0.63713 0.06489 0.75923 0.0
H1225 H 0.62741 0.04043 0.78966 0.0
C1226 C 0.61027 0.01083 0.7762 0.0
O1227 O 0.64038 0.97772 0.75415 0.0
O1228 O 0.65395 0.99717 0.76748 0.0
N1229 N 0.62702 0.05212 0.73597 0.0
C1230 C 0.62457 0.05103 0.71972 0.0
C1231 C 0.63093 0.06322 0.70979 0.0
C1232 C 0.6396 0.07647 0.71666 0.0
C1233 C 0.64178 0.07742 0.73342 0.0
C1234 C 0.63512 0.06494 0.74272 0.0
H1235 H 0.6179 0.04088 0.71438 0.0
O1236 O 0.65153 0.00743 0.73544 0.0
O1237 O 0.63802 0.02437 0.75089 0.0
O1238 O 0.61739 1.00008 0.73572 0.0
O1239 O 0.60644 0.02471 0.73666 0.0
C1240 C 0.65051 0.09015 0.74125 0.0
C1241 C 0.65273 0.09001 0.75812 0.0
H1242 H 0.65502 0.08525 0.79066 0.0
H1243 H 0.64303 0.06166 0.80494 0.0
H1244 H 0.62919 0.06239 0.69686 0.0
H1245 H 0.64459 0.08579 0.70894 0.0
H1246 H 0.65576 0.09999 0.73437 0.0
H1247 H 0.65969 0.09973 0.76396 0.0
Mn1248 Mn 0.0044 0.25073 0.87382 0.0
Mn1249 Mn 0.96653 0.24886 0.88896 0.0
C1250 C 0.9838 0.23767 0.85946 0.0
C1251 C 0.02477 0.26325 0.85877 0.0
C1252 C 0.99352 0.22788 0.90071 0.0
O1253 O 0.00498 0.26863 0.89111 0.0
O1254 O 0.9791 0.2668 0.89968 0.0
C1255 C 0.95472 0.27997 0.87676 0.0
N1256 N 0.95317 0.26355 0.87772 0.0
C1257 C 0.92887 0.26323 0.86165 0.0
C1258 C 0.93015 0.28015 0.86056 0.0
C1259 C 0.94316 0.28854 0.86811 0.0
C1260 C 0.94075 0.25535 0.87044 0.0
H1261 H 0.9647 0.28646 0.88255 0.0
C1262 C 0.99334 0.2733 0.9 0.0
O1263 O 0.02804 0.253 0.86996 0.0
O1264 O 0.00968 0.26674 0.85676 0.0
N1265 N 0.95302 0.2321 0.87952 0.0
C1266 C 0.95404 0.21573 0.88098 0.0
C1267 C 0.94221 0.20553 0.87368 0.0
C1268 C 0.92938 0.21225 0.86512 0.0
C1269 C 0.92849 0.22912 0.86394 0.0
C1270 C 0.94062 0.23869 0.87147 0.0
H1271 H 0.96386 0.21051 0.88758 0.0
O1272 O 0.99877 0.23417 0.85674 0.0
O1273 O 0.98134 0.24866 0.87051 0.0
O1274 O 0.00428 0.23315 0.89101 0.0
O1275 O 0.97913 0.2331 0.90113 0.0
C1276 C 0.91617 0.23683 0.85539 0.0
C1277 C 0.9164 0.25386 0.85418 0.0
H1278 H 0.92128 0.2868 0.85387 0.0
H1279 H 0.94427 0.30159 0.86727 0.0
H1280 H 0.94299 0.19251 0.87464 0.0
H1281 H 0.92033 0.20433 0.85943 0.0
H1282 H 0.9066 0.22975 0.84949 0.0
H1283 H 0.90702 0.25962 0.84733 0.0
Mn1284 Mn 0.50226 0.75059 0.37429 0.0
Mn1285 Mn 0.46322 0.74744 0.38587 0.0
C1286 C 0.48334 0.73692 0.35812 0.0
C1287 C 0.52346 0.76372 0.36093 0.0
C1288 C 0.48981 0.7274 0.40015 0.0
O1289 O 0.50077 0.76844 0.39156 0.0
O1290 O 0.47419 0.76599 0.39726 0.0
C1291 C 0.45131 0.77797 0.37238 0.0
N1292 N 0.45031 0.76152 0.37338 0.0
C1293 C 0.42722 0.76017 0.35563 0.0
C1294 C 0.42794 0.7771 0.35448 0.0
C1295 C 0.44008 0.78603 0.36284 0.0
C1296 C 0.43876 0.75281 0.36529 0.0
H1297 H 0.46059 0.78488 0.37882 0.0
C1298 C 0.48809 0.77304 0.39896 0.0
O1299 O 0.5261 0.75364 0.37244 0.0
O1300 O 0.50847 0.76675 0.35767 0.0
N1301 N 0.45118 0.73012 0.3755 0.0
C1302 C 0.45272 0.71383 0.37716 0.0
C1303 C 0.44182 0.70315 0.36912 0.0
C1304 C 0.42937 0.70932 0.35961 0.0
C1305 C 0.42795 0.72613 0.35821 0.0
C1306 C 0.43917 0.73618 0.36647 0.0
H1307 H 0.46222 0.70901 0.3845 0.0
O1308 O 0.49859 0.73387 0.35677 0.0
O1309 O 0.47963 0.74776 0.3689 0.0
O1310 O 0.50123 0.7331 0.39149 0.0
O1311 O 0.47527 0.73215 0.39921 0.0
C1312 C 0.41594 0.7333 0.34879 0.0
C1313 C 0.41561 0.7503 0.34745 0.0
H1314 H 0.41931 0.78337 0.34712 0.0
H1315 H 0.44075 0.79909 0.36196 0.0
H1316 H 0.44302 0.69019 0.37025 0.0
H1317 H 0.42103 0.70104 0.35337 0.0
H1318 H 0.40705 0.72583 0.34231 0.0
H1319 H 0.40649 0.75566 0.33994 0.0
Mn1320 Mn 0.00437 0.75438 0.62715 0.0
Mn1321 Mn 0.98846 0.71849 0.63925 0.0
C1322 C 0.00646 0.73151 0.61089 0.0
C1323 C 0.00197 0.77909 0.61419 0.0
C1324 C 0.02006 0.73281 0.65228 0.0
O1325 O 0.98915 0.76111 0.64519 0.0
O1326 O 0.97863 0.73661 0.65151 0.0
C1327 C 0.95509 0.72252 0.62715 0.0
N1328 N 0.96888 0.71384 0.62759 0.0
C1329 C 0.95724 0.69318 0.61001 0.0
C1330 C 0.94288 0.70186 0.60944 0.0
C1331 C 0.94183 0.71661 0.61801 0.0
C1332 C 0.97006 0.69969 0.61931 0.0
H1333 H 0.95424 0.73387 0.63372 0.0
C1334 C 0.97962 0.75205 0.65336 0.0
O1335 O 0.01295 0.77703 0.62516 0.0
O1336 O 0.99212 0.76695 0.61111 0.0
N1337 N 0.9967 0.69979 0.62846 0.0
C1338 C 0.0116 0.69322 0.62982 0.0
C1339 C 0.0147 0.67847 0.62188 0.0
C1340 C 0.00243 0.67057 0.61277 0.0
C1341 C 0.98717 0.67751 0.61163 0.0
C1342 C 0.98474 0.69215 0.61993 0.0
H1343 H 0.02105 0.69918 0.63688 0.0
O1344 O 0.01639 0.74375 0.60912 0.0
O1345 O 0.99557 0.73303 0.62203 0.0
O1346 O 0.02017 0.74557 0.64378 0.0
O1347 O 0.00874 0.72201 0.65161 0.0
C1348 C 0.97435 0.67059 0.60242 0.0
C1349 C 0.95941 0.67846 0.60156 0.0
H1350 H 0.93263 0.69736 0.60238 0.0
H1351 H 0.93081 0.72341 0.61757 0.0
H1352 H 0.02652 0.6732 0.6228 0.0
H1353 H 0.00488 0.65921 0.60666 0.0
H1354 H 0.97591 0.65934 0.59578 0.0
H1355 H 0.94971 0.67313 0.59426 0.0
Mn1356 Mn 0.50451 0.2553 0.12757 0.0
Mn1357 Mn 0.48896 0.21906 0.13909 0.0
C1358 C 0.50714 0.23264 0.1111 0.0
C1359 C 0.50191 0.28013 0.11486 0.0
C1360 C 0.5202 0.2337 0.15268 0.0
O1361 O 0.48896 0.2616 0.14549 0.0
O1362 O 0.47867 0.23689 0.15138 0.0
C1363 C 0.45569 0.2227 0.12657 0.0
N1364 N 0.46961 0.21423 0.12711 0.0
C1365 C 0.45855 0.19361 0.10914 0.0
C1366 C 0.44406 0.20206 0.10846 0.0
C1367 C 0.44265 0.21669 0.11717 0.0
C1368 C 0.47114 0.2002 0.11869 0.0
H1369 H 0.45457 0.23395 0.13324 0.0
C1370 C 0.47941 0.25232 0.1534 0.0
O1371 O 0.51279 0.27809 0.12593 0.0
O1372 O 0.49227 0.26789 0.11152 0.0
N1373 N 0.49765 0.20061 0.12823 0.0
C1374 C 0.51262 0.19425 0.12974 0.0
C1375 C 0.51607 0.17965 0.1217 0.0
C1376 C 0.50405 0.17167 0.11232 0.0
C1377 C 0.4887 0.17838 0.11103 0.0
C1378 C 0.48593 0.19289 0.11944 0.0
H1379 H 0.52188 0.20027 0.13701 0.0
O1380 O 0.51691 0.24505 0.10957 0.0
O1381 O 0.49608 0.23388 0.12212 0.0
O1382 O 0.52024 0.24654 0.14429 0.0
O1383 O 0.50902 0.22276 0.15177 0.0
C1384 C 0.47612 0.17138 0.10156 0.0
C1385 C 0.46107 0.17902 0.10056 0.0
H1386 H 0.43398 0.19748 0.10121 0.0
H1387 H 0.43153 0.22331 0.11665 0.0
H1388 H 0.52795 0.17454 0.12275 0.0
H1389 H 0.50676 0.16041 0.10613 0.0
H1390 H 0.47795 0.16023 0.09482 0.0
H1391 H 0.45156 0.17363 0.09307 0.0
C1392 C 0.20739 0.76684 0.8752 0.0
C1393 C 0.20802 0.75052 0.87966 0.0
C1394 C 0.20939 0.77922 0.88675 0.0
C1395 C 0.20738 0.78845 0.93022 0.0
H1396 H 0.23795 0.82315 0.92018 0.0
C1397 C 0.24645 0.84258 0.96475 0.0
C1398 C 0.23446 0.84984 0.97409 0.0
C1399 C 0.24231 0.83082 0.95311 0.0
C1400 C 0.22933 0.8136 0.92316 0.0
H1401 H 0.21078 0.73434 0.89977 0.0
H1402 H 0.21431 0.75604 0.92001 0.0
H1403 H 0.23207 0.80192 0.90017 0.0
H1404 H 0.2089 0.84994 0.9795 0.0
H1405 H 0.20147 0.82936 0.95889 0.0
H1406 H 0.20485 0.80006 0.95334 0.0
C1407 C 0.21223 0.75922 0.90756 0.0
C1408 C 0.22589 0.80149 0.91165 0.0
C1409 C 0.21037 0.74682 0.89597 0.0
C1410 C 0.21828 0.84469 0.97213 0.0
C1411 C 0.21409 0.83289 0.96045 0.0
C1412 C 0.2107 0.8007 0.9417 0.0
C1413 C 0.21195 0.77555 0.90303 0.0
C1414 C 0.21499 0.78871 0.9151 0.0
C1415 C 0.22607 0.82589 0.95075 0.0
C1416 C 0.22183 0.81333 0.93834 0.0
H1417 H 0.20572 0.77006 0.8627 0.0
H1418 H 0.209 0.7917 0.88293 0.0
H1419 H 0.19886 0.77878 0.93317 0.0
H1420 H 0.25909 0.84593 0.96653 0.0
H1421 H 0.25187 0.82542 0.94611 0.0
C1422 C 0.03336 0.53459 0.3967 0.0
C1423 C 0.02894 0.52171 0.40677 0.0
C1424 C 0.04268 0.53193 0.383 0.0
C1425 C 0.05574 0.50111 0.35364 0.0
H1426 H 0.08962 0.53329 0.34568 0.0
C1427 C 0.10069 0.49925 0.29901 0.0
C1428 C 0.10248 0.51411 0.29101 0.0
C1429 C 0.09211 0.49834 0.31356 0.0
C1430 C 0.08019 0.52422 0.34771 0.0
H1431 H 0.03042 0.49578 0.41003 0.0
H1432 H 0.04682 0.49109 0.38587 0.0
H1433 H 0.07385 0.535 0.37032 0.0
H1434 H 0.0963 0.53957 0.29201 0.0
H1435 H 0.08156 0.53791 0.31709 0.0
H1436 H 0.06211 0.4905 0.33077 0.0
C1437 C 0.043 0.50326 0.38868 0.0
C1438 C 0.07113 0.52521 0.36181 0.0
C1439 C 0.03362 0.50595 0.40249 0.0
C1440 C 0.09528 0.5279 0.29777 0.0
C1441 C 0.08688 0.527 0.31225 0.0
C1442 C 0.0649 0.5001 0.33946 0.0
C1443 C 0.04786 0.5163 0.37896 0.0
C1444 C 0.0585 0.51395 0.36475 0.0
C1445 C 0.08536 0.51229 0.32043 0.0
C1446 C 0.07691 0.51192 0.33619 0.0
H1447 H 0.02959 0.54681 0.39941 0.0
H1448 H 0.04583 0.54217 0.37553 0.0
H1449 H 0.04609 0.49226 0.35557 0.0
H1450 H 0.10604 0.48838 0.29414 0.0
H1451 H 0.09111 0.48683 0.31963 0.0
C1452 C 0.80919 0.75931 0.88938 0.0
C1453 C 0.79729 0.76248 0.8778 0.0
C1454 C 0.80633 0.74762 0.90117 0.0
C1455 C 0.7722 0.72537 0.9206 0.0
H1456 H 0.80601 0.6987 0.93766 0.0
C1457 C 0.75835 0.6838 0.9732 0.0
C1458 C 0.76472 0.66823 0.9727 0.0
C1459 C 0.7642 0.69575 0.96291 0.0
C1460 C 0.7964 0.70597 0.93294 0.0
H1461 H 0.77349 0.7554 0.86886 0.0
H1462 H 0.76866 0.73469 0.88893 0.0
H1463 H 0.81232 0.71785 0.9163 0.0
H1464 H 0.78251 0.65291 0.96159 0.0
H1465 H 0.79238 0.67364 0.94293 0.0
H1466 H 0.75609 0.71308 0.93648 0.0
C1467 C 0.77996 0.74159 0.88943 0.0
C1468 C 0.80006 0.7171 0.92082 0.0
C1469 C 0.78273 0.7534 0.87785 0.0
C1470 C 0.77753 0.66492 0.96221 0.0
C1471 C 0.78317 0.67682 0.95158 0.0
C1472 C 0.76852 0.71416 0.9325 0.0
C1473 C 0.79158 0.73873 0.90145 0.0
C1474 C 0.78797 0.72692 0.91445 0.0
C1475 C 0.77623 0.69226 0.9515 0.0
C1476 C 0.78055 0.70434 0.93892 0.0
H1477 H 0.82052 0.76619 0.8896 0.0
H1478 H 0.81549 0.74589 0.91029 0.0
H1479 H 0.76261 0.73289 0.91627 0.0
H1480 H 0.74855 0.68663 0.98134 0.0
H1481 H 0.75894 0.70762 0.96363 0.0
C1482 C 0.98364 0.9757 0.39649 0.0
C1483 C 0.98968 0.98948 0.40489 0.0
C1484 C 0.97325 0.97725 0.38333 0.0
C1485 C 0.9597 0.00615 0.35268 0.0
H1486 H 0.92436 0.97474 0.34745 0.0
C1487 C 0.91111 0.00844 0.30144 0.0
C1488 C 0.90754 0.9935 0.29365 0.0
C1489 C 0.92083 0.00914 0.31535 0.0
C1490 C 0.93422 0.98356 0.34869 0.0
H1491 H 0.98951 0.01574 0.40601 0.0
H1492 H 0.97124 0.01845 0.38301 0.0
H1493 H 0.94176 0.97377 0.37112 0.0
H1494 H 0.9116 0.96759 0.29444 0.0
H1495 H 0.92838 0.96888 0.31846 0.0
H1496 H 0.95206 0.01587 0.33011 0.0
C1497 C 0.97472 0.00644 0.38652 0.0
C1498 C 0.94423 0.98298 0.36224 0.0
C1499 C 0.98518 0.00488 0.3997 0.0
C1500 C 0.91402 0.97934 0.30005 0.0
C1501 C 0.92358 0.98004 0.31393 0.0
C1502 C 0.9496 0.00677 0.3391 0.0
C1503 C 0.96856 0.99262 0.37822 0.0
C1504 C 0.95729 0.99407 0.36428 0.0
C1505 C 0.92701 0.9949 0.32183 0.0
C1506 C 0.93694 0.99528 0.33682 0.0
H1507 H 0.98712 0.96368 0.39995 0.0
H1508 H 0.96904 0.96635 0.37701 0.0
H1509 H 0.9697 0.01481 0.35381 0.0
H1510 H 0.90634 0.01958 0.29686 0.0
H1511 H 0.92324 0.02077 0.32122 0.0
C1512 C 0.19701 0.25494 0.62017 0.0
C1513 C 0.21017 0.26131 0.62919 0.0
C1514 C 0.19935 0.24306 0.60825 0.0
C1515 C 0.23137 0.22522 0.58267 0.0
H1516 H 0.1995 0.19048 0.57612 0.0
C1517 C 0.24276 0.16972 0.54133 0.0
C1518 C 0.23018 0.16498 0.53068 0.0
C1519 C 0.24023 0.1813 0.55348 0.0
C1520 C 0.20844 0.20018 0.57773 0.0
H1521 H 0.23603 0.25993 0.63308 0.0
H1522 H 0.24009 0.23902 0.61254 0.0
H1523 H 0.19529 0.21091 0.59716 0.0
H1524 H 0.20495 0.16859 0.52467 0.0
H1525 H 0.20055 0.18872 0.54595 0.0
H1526 H 0.2446 0.21432 0.56338 0.0
C1527 C 0.22801 0.24347 0.61434 0.0
C1528 C 0.20602 0.21193 0.58976 0.0
C1529 C 0.22569 0.25543 0.62615 0.0
C1530 C 0.21493 0.17197 0.53262 0.0
C1531 C 0.21237 0.18344 0.54487 0.0
C1532 C 0.23384 0.21341 0.57075 0.0
C1533 C 0.21489 0.23718 0.60516 0.0
C1534 C 0.21744 0.22462 0.59238 0.0
C1535 C 0.22501 0.1883 0.55537 0.0
C1536 C 0.2224 0.20077 0.56813 0.0
H1537 H 0.18494 0.25937 0.62212 0.0
H1538 H 0.18899 0.23871 0.60127 0.0
H1539 H 0.24028 0.23497 0.58411 0.0
H1540 H 0.25466 0.16462 0.5402 0.0
H1541 H 0.25016 0.1847 0.56149 0.0
C1542 C 0.49026 0.53909 0.62409 0.0
C1543 C 0.49722 0.52587 0.61601 0.0
C1544 C 0.47998 0.53661 0.63723 0.0
C1545 C 0.46976 0.50677 0.66844 0.0
H1546 H 0.42955 0.52977 0.67197 0.0
C1547 C 0.42033 0.48796 0.71353 0.0
C1548 C 0.41163 0.50015 0.72144 0.0
C1549 C 0.43102 0.49179 0.70108 0.0
C1550 C 0.44084 0.52342 0.6713 0.0
H1551 H 0.49841 0.49964 0.61524 0.0
H1552 H 0.48069 0.49536 0.63823 0.0
H1553 H 0.44774 0.53525 0.64946 0.0
H1554 H 0.40749 0.52601 0.72244 0.0
H1555 H 0.42636 0.5327 0.70086 0.0
H1556 H 0.46297 0.49497 0.69024 0.0
C1557 C 0.48337 0.50766 0.63453 0.0
C1558 C 0.45125 0.52654 0.65838 0.0
C1559 C 0.49357 0.51013 0.62136 0.0
C1560 C 0.41395 0.51629 0.7166 0.0
C1561 C 0.42471 0.52013 0.70416 0.0
C1562 C 0.45942 0.50371 0.68138 0.0
C1563 C 0.47649 0.52086 0.64265 0.0
C1564 C 0.46573 0.51812 0.65672 0.0
C1565 C 0.43338 0.50792 0.69624 0.0
C1566 C 0.44473 0.51184 0.68288 0.0
H1567 H 0.49297 0.5514 0.62043 0.0
H1568 H 0.47499 0.54704 0.64334 0.0
H1569 H 0.48097 0.5003 0.66766 0.0
H1570 H 0.41879 0.47537 0.7168 0.0
H1571 H 0.43725 0.48202 0.69508 0.0
C1572 C 0.80433 0.2736 0.64042 0.0
C1573 C 0.8056 0.25719 0.63603 0.0
C1574 C 0.80046 0.28507 0.62889 0.0
C1575 C 0.78321 0.28838 0.58749 0.0
H1576 H 0.80089 0.33227 0.59089 0.0
C1577 C 0.77737 0.33458 0.53659 0.0
C1578 C 0.77065 0.34942 0.54117 0.0
C1579 C 0.7824 0.32374 0.54825 0.0
C1580 C 0.79583 0.32007 0.58986 0.0
H1581 H 0.80425 0.23991 0.61615 0.0
H1582 H 0.79815 0.25993 0.59585 0.0
H1583 H 0.80841 0.31232 0.61084 0.0
H1584 H 0.76448 0.36484 0.56153 0.0
H1585 H 0.7737 0.34597 0.58197 0.0
H1586 H 0.77104 0.29611 0.56621 0.0
C1587 C 0.79957 0.26397 0.60827 0.0
C1588 C 0.80004 0.30863 0.60133 0.0
C1589 C 0.80316 0.25247 0.61986 0.0
C1590 C 0.7696 0.35348 0.55765 0.0
C1591 C 0.7749 0.34273 0.56933 0.0
C1592 C 0.77924 0.29973 0.5759 0.0
C1593 C 0.79803 0.28043 0.61263 0.0
C1594 C 0.79375 0.29263 0.60033 0.0
C1595 C 0.78106 0.32764 0.56472 0.0
C1596 C 0.78548 0.31568 0.577 0.0
H1597 H 0.80599 0.2775 0.65286 0.0
H1598 H 0.79908 0.29752 0.63283 0.0
H1599 H 0.77779 0.27634 0.58647 0.0
H1600 H 0.77831 0.33108 0.52399 0.0
H1601 H 0.78723 0.31223 0.5444 0.0
C1602 C 0.51075 0.98556 0.61929 0.0
C1603 C 0.51782 0.97793 0.60583 0.0
C1604 C 0.51975 0.98869 0.63336 0.0
C1605 C 0.55398 0.97489 0.65662 0.0
H1606 H 0.55679 0.01865 0.6742 0.0
C1607 C 0.59975 0.9931 0.70681 0.0
C1608 C 0.59575 0.00539 0.71788 0.0
C1609 C 0.58961 0.9893 0.69369 0.0
C1610 C 0.55592 0.00628 0.6697 0.0
H1611 H 0.54013 0.96783 0.59677 0.0
H1612 H 0.5555 0.97271 0.62156 0.0
H1613 H 0.54005 0.01281 0.65047 0.0
H1614 H 0.57766 0.02292 0.72425 0.0
H1615 H 0.5596 0.01582 0.70186 0.0
H1616 H 0.56941 0.96814 0.67598 0.0
C1617 C 0.54298 0.97626 0.62111 0.0
C1618 C 0.54638 0.00299 0.65603 0.0
C1619 C 0.5341 0.97339 0.60693 0.0
C1620 C 0.58115 0.01348 0.71583 0.0
C1621 C 0.57085 0.00948 0.70289 0.0
C1622 C 0.56328 0.97809 0.67047 0.0
C1623 C 0.53591 0.98399 0.63441 0.0
C1624 C 0.54547 0.98731 0.64927 0.0
C1625 C 0.57505 0.9975 0.69148 0.0
C1626 C 0.56453 0.99388 0.67713 0.0
H1627 H 0.49819 0.98895 0.61908 0.0
H1628 H 0.51399 0.99456 0.64353 0.0
H1629 H 0.55332 0.96265 0.65171 0.0
H1630 H 0.611 0.98675 0.70796 0.0
H1631 H 0.59346 0.98022 0.68506 0.0
C1632 C 0.88454 0.18775 0.75837 0.0
C1633 C 0.87528 0.2002 0.75193 0.0
C1634 C 0.89644 0.19123 0.77003 0.0
C1635 C 0.90873 0.22275 0.80022 0.0
H1636 H 0.94975 0.20098 0.7997 0.0
C1637 C 0.96209 0.24444 0.8402 0.0
C1638 C 0.97124 0.23264 0.84772 0.0
C1639 C 0.95049 0.23999 0.82861 0.0
C1640 C 0.93828 0.20702 0.80013 0.0
H1641 H 0.87134 0.2261 0.75277 0.0
H1642 H 0.89239 0.23221 0.7726 0.0
H1643 H 0.92939 0.19417 0.77916 0.0
H1644 H 0.97637 0.2071 0.84846 0.0
H1645 H 0.95574 0.19911 0.82835 0.0
H1646 H 0.91768 0.23587 0.82089 0.0
C1647 C 0.89029 0.21971 0.76887 0.0
C1648 C 0.9266 0.20312 0.78835 0.0
C1649 C 0.87836 0.21622 0.7573 0.0
C1650 C 0.96916 0.21634 0.843 0.0
C1651 C 0.95745 0.21183 0.83144 0.0
C1652 C 0.92042 0.22672 0.81189 0.0
C1653 C 0.89938 0.20725 0.7755 0.0
C1654 C 0.91172 0.21102 0.7882 0.0
C1655 C 0.94791 0.22361 0.82417 0.0
C1656 C 0.93536 0.21896 0.81197 0.0
H1657 H 0.88262 0.1753 0.75438 0.0
H1658 H 0.90314 0.18133 0.77496 0.0
H1659 H 0.89728 0.22885 0.80069 0.0
H1660 H 0.96397 0.25716 0.84325 0.0
H1661 H 0.94365 0.24942 0.823 0.0
C1662 C 0.46398 0.89701 0.47451 0.0
C1663 C 0.47697 0.90645 0.48076 0.0
C1664 C 0.46677 0.88303 0.46536 0.0
C1665 C 0.49764 0.85245 0.45625 0.0
H1666 H 0.46877 0.84224 0.42037 0.0
C1667 C 0.50351 0.79671 0.41194 0.0
C1668 C 0.4889 0.78795 0.40925 0.0
C1669 C 0.50364 0.81146 0.42061 0.0
C1670 C 0.47692 0.84492 0.43037 0.0
H1671 H 0.50312 0.90864 0.48222 0.0
H1672 H 0.50802 0.88426 0.46602 0.0
H1673 H 0.46606 0.86768 0.43519 0.0
H1674 H 0.46304 0.78774 0.41407 0.0
H1675 H 0.46336 0.81322 0.42891 0.0
H1676 H 0.50848 0.82952 0.45123 0.0
C1677 C 0.49565 0.88756 0.46842 0.0
C1678 C 0.47532 0.85946 0.43893 0.0
C1679 C 0.49285 0.90154 0.47768 0.0
C1680 C 0.47455 0.79409 0.41578 0.0
C1681 C 0.47468 0.80879 0.42424 0.0
C1682 C 0.49932 0.83789 0.44756 0.0
C1683 C 0.48263 0.87816 0.4621 0.0
C1684 C 0.4854 0.86327 0.45221 0.0
C1685 C 0.48914 0.81777 0.42654 0.0
C1686 C 0.48871 0.83383 0.43478 0.0
H1687 H 0.45161 0.90028 0.47694 0.0
H1688 H 0.45643 0.8759 0.46103 0.0
H1689 H 0.50555 0.85494 0.46647 0.0
H1690 H 0.51478 0.79235 0.40711 0.0
H1691 H 0.51497 0.81816 0.42225 0.0
C1692 C 0.11681 0.30802 0.75117 0.0
C1693 C 0.12804 0.29618 0.74705 0.0
C1694 C 0.10567 0.30531 0.76356 0.0
C1695 C 0.08783 0.27197 0.78834 0.0
H1696 H 0.07365 0.30751 0.81553 0.0
C1697 C 0.05245 0.2617 0.84698 0.0
C1698 C 0.03748 0.26937 0.84777 0.0
C1699 C 0.06375 0.26599 0.83523 0.0
C1700 C 0.0775 0.29751 0.80797 0.0
H1701 H 0.13686 0.27251 0.75292 0.0
H1702 H 0.118 0.268 0.77493 0.0
H1703 H 0.093 0.31281 0.79392 0.0
H1704 H 0.02294 0.2881 0.83739 0.0
H1705 H 0.043 0.29591 0.81706 0.0
H1706 H 0.0727 0.25665 0.80281 0.0
C1707 C 0.11723 0.27913 0.76826 0.0
C1708 C 0.0885 0.30052 0.79551 0.0
C1709 C 0.12813 0.28172 0.7557 0.0
C1710 C 0.03437 0.28197 0.83705 0.0
C1711 C 0.04583 0.28646 0.82546 0.0
C1712 C 0.0771 0.26895 0.80096 0.0
C1713 C 0.10572 0.29081 0.77231 0.0
C1714 C 0.09385 0.28777 0.78552 0.0
C1715 C 0.06045 0.27823 0.82421 0.0
C1716 C 0.07185 0.28166 0.8109 0.0
H1717 H 0.11648 0.31925 0.7446 0.0
H1718 H 0.09688 0.31451 0.7661 0.0
H1719 H 0.09125 0.26188 0.7807 0.0
H1720 H 0.05521 0.25193 0.85504 0.0
H1721 H 0.07501 0.25955 0.83457 0.0
C1722 C 0.50249 0.6128 0.49149 0.0
C1723 C 0.51835 0.60853 0.49552 0.0
C1724 C 0.49972 0.62552 0.48099 0.0
C1725 C 0.51946 0.6622 0.46396 0.0
H1726 H 0.48403 0.65892 0.43323 0.0
C1727 C 0.50946 0.70946 0.41414 0.0
C1728 C 0.49344 0.7142 0.41149 0.0
C1729 C 0.51276 0.69665 0.42439 0.0
C1730 C 0.49388 0.66008 0.44185 0.0
H1731 H 0.54374 0.61436 0.49156 0.0
H1732 H 0.5389 0.63622 0.47288 0.0
H1733 H 0.48939 0.63621 0.45074 0.0
H1734 H 0.46835 0.70913 0.41771 0.0
H1735 H 0.47415 0.68685 0.43557 0.0
H1736 H 0.52399 0.68605 0.45493 0.0
C1737 C 0.52859 0.62989 0.47805 0.0
C1738 C 0.49695 0.64707 0.45191 0.0
C1739 C 0.53136 0.6172 0.48861 0.0
C1740 C 0.48083 0.70586 0.41945 0.0
C1741 C 0.48414 0.69299 0.42961 0.0
C1742 C 0.51644 0.67518 0.45383 0.0
C1743 C 0.51273 0.63427 0.47416 0.0
C1744 C 0.50973 0.64798 0.46316 0.0
C1745 C 0.50012 0.68819 0.43214 0.0
C1746 C 0.50355 0.6743 0.44273 0.0
H1747 H 0.49217 0.60627 0.49641 0.0
H1748 H 0.48734 0.62865 0.47842 0.0
H1749 H 0.52925 0.66344 0.47264 0.0
H1750 H 0.51947 0.71559 0.40822 0.0
H1751 H 0.5252 0.69315 0.426 0.0
C1752 C 0.88672 0.78419 0.76043 0.0
C1753 C 0.88307 0.80024 0.76465 0.0
C1754 C 0.89825 0.78091 0.74869 0.0
C1755 C 0.91934 0.79775 0.71363 0.0
H1756 H 0.94834 0.76248 0.72154 0.0
C1757 C 0.96887 0.77641 0.6683 0.0
C1758 C 0.96927 0.75949 0.66592 0.0
C1759 C 0.95931 0.7831 0.68053 0.0
C1760 C 0.9403 0.77233 0.71913 0.0
H1761 H 0.88857 0.82548 0.75959 0.0
H1762 H 0.90879 0.81969 0.73887 0.0
H1763 H 0.92996 0.77115 0.74266 0.0
H1764 H 0.95965 0.73644 0.67444 0.0
H1765 H 0.94318 0.74807 0.69553 0.0
H1766 H 0.92962 0.79867 0.6899 0.0
C1767 C 0.90263 0.80967 0.74473 0.0
C1768 C 0.92976 0.77729 0.73122 0.0
C1769 C 0.89105 0.81297 0.75657 0.0
C1770 C 0.95977 0.7495 0.67591 0.0
C1771 C 0.95037 0.75616 0.68811 0.0
C1772 C 0.92996 0.79278 0.70148 0.0
C1773 C 0.90645 0.79358 0.74079 0.0
C1774 C 0.91886 0.78975 0.72848 0.0
C1775 C 0.95012 0.773 0.69067 0.0
C1776 C 0.94023 0.77972 0.70399 0.0
H1777 H 0.88049 0.77408 0.76607 0.0
H1778 H 0.9006 0.76838 0.74566 0.0
H1779 H 0.91105 0.80737 0.71114 0.0
H1780 H 0.97599 0.78447 0.6608 0.0
H1781 H 0.95934 0.79614 0.68224 0.0
C1782 C 0.00539 0.88906 0.51651 0.0
C1783 C 0.01302 0.90356 0.52194 0.0
C1784 C 0.00308 0.87605 0.52692 0.0
C1785 C 0.00354 0.86524 0.57049 0.0
H1786 H 0.00793 0.8217 0.55309 0.0
C1787 C 0.01073 0.80793 0.60949 0.0
C1788 C 0.00138 0.79418 0.60484 0.0
C1789 C 0.01107 0.82174 0.59992 0.0
C1790 C 0.00652 0.83379 0.55809 0.0
H1791 H 0.02388 0.91575 0.54285 0.0
H1792 H 0.02062 0.89287 0.5607 0.0
H1793 H 0.0109 0.84476 0.53532 0.0
H1794 H 0.98482 0.78424 0.58668 0.0
H1795 H 0.98562 0.80828 0.56989 0.0
H1796 H 0.99971 0.85409 0.59341 0.0
C1797 C 0.01607 0.89163 0.54847 0.0
C1798 C 0.00815 0.84704 0.54789 0.0
C1799 C 0.01819 0.90471 0.53811 0.0
C1800 C 0.99213 0.79465 0.59061 0.0
C1801 C 0.99266 0.80836 0.58094 0.0
C1802 C 0.00213 0.85197 0.58073 0.0
C1803 C 0.00854 0.87709 0.54301 0.0
C1804 C 0.00665 0.86296 0.55393 0.0
C1805 C 0.00226 0.82198 0.5854 0.0
C1806 C 0.00356 0.83611 0.57461 0.0
H1807 H 0.0014 0.88759 0.50411 0.0
H1808 H 0.99698 0.86518 0.52231 0.0
H1809 H 0.00202 0.87727 0.57556 0.0
H1810 H 0.01797 0.80793 0.6204 0.0
H1811 H 0.01864 0.83205 0.6036 0.0
C1812 C 0.12433 0.69846 0.75111 0.0
C1813 C 0.13382 0.71169 0.75682 0.0
C1814 C 0.11261 0.70059 0.73916 0.0
C1815 C 0.08826 0.73265 0.72066 0.0
H1816 H 0.0794 0.69974 0.68773 0.0
C1817 C 0.045 0.74292 0.66708 0.0
C1818 C 0.03373 0.73031 0.66355 0.0
C1819 C 0.05766 0.74059 0.67797 0.0
C1820 C 0.08168 0.70899 0.69692 0.0
H1821 H 0.13902 0.73734 0.75402 0.0
H1822 H 0.11887 0.74102 0.73299 0.0
H1823 H 0.10085 0.69572 0.70746 0.0
H1824 H 0.02716 0.70525 0.66855 0.0
H1825 H 0.04926 0.70124 0.68746 0.0
H1826 H 0.06916 0.74596 0.71002 0.0
C1827 C 0.12008 0.72909 0.73803 0.0
C1828 C 0.09394 0.70667 0.70826 0.0
C1829 C 0.13167 0.72698 0.75005 0.0
C1830 C 0.03557 0.71526 0.67101 0.0
C1831 C 0.0483 0.71291 0.68177 0.0
C1832 C 0.0761 0.73501 0.70926 0.0
C1833 C 0.11024 0.71597 0.73257 0.0
C1834 C 0.09736 0.71846 0.72031 0.0
C1835 C 0.05943 0.72557 0.68545 0.0
C1836 C 0.07263 0.72319 0.6973 0.0
H1837 H 0.12564 0.68656 0.75621 0.0
H1838 H 0.10513 0.69025 0.73539 0.0
H1839 H 0.09031 0.74185 0.72994 0.0
H1840 H 0.04397 0.75466 0.66157 0.0
H1841 H 0.06614 0.75053 0.68047 0.0
C1842 C 0.97249 0.61594 0.52429 0.0
C1843 C 0.98484 0.60517 0.5204 0.0
C1844 C 0.97603 0.63044 0.53262 0.0
C1845 C 0.00638 0.64987 0.55966 0.0
H1846 H 0.9849 0.6893 0.54809 0.0
C1847 C 0.01933 0.70994 0.59427 0.0
C1848 C 0.00556 0.71854 0.59858 0.0
C1849 C 0.01811 0.69715 0.58301 0.0
C1850 C 0.99093 0.67838 0.55155 0.0
H1851 H 0.0106 0.60117 0.52226 0.0
H1852 H 0.01681 0.62661 0.53663 0.0
H1853 H 0.98003 0.66462 0.53212 0.0
H1854 H 0.98025 0.72203 0.59338 0.0
H1855 H 0.97793 0.69959 0.574 0.0
H1856 H 0.01712 0.66352 0.5792 0.0
C1857 C 0.00437 0.62377 0.53333 0.0
C1858 C 0.98812 0.66423 0.5424 0.0
C1859 C 1.00083 0.60927 0.52496 0.0
C1860 C 0.99089 0.71513 0.59058 0.0
C1861 C 0.98966 0.70244 0.5793 0.0
C1862 C 0.00918 0.66402 0.56882 0.0
C1863 C 0.992 0.63451 0.53727 0.0
C1864 C 0.99566 0.64976 0.54647 0.0
C1865 C 0.00315 0.69301 0.57567 0.0
C1866 C 1.00131 0.6784 0.56503 0.0
H1867 H 0.96007 0.61321 0.5208 0.0
H1868 H 0.9662 0.63837 0.53562 0.0
H1869 H 0.01224 0.63889 0.56323 0.0
H1870 H 0.03088 0.71273 0.60001 0.0
H1871 H 0.02883 0.69039 0.58022 0.0
C1872 C 0.74658 0.89411 0.19602 0.0
C1873 C 0.73889 0.88646 0.20907 0.0
C1874 C 0.75927 0.90539 0.19871 0.0
C1875 C 0.79012 0.91683 0.22931 0.0
H1876 H 0.79412 0.95708 0.20602 0.0
C1877 C 0.83493 0.96708 0.24973 0.0
C1878 C 0.84345 0.97571 0.23793 0.0
C1879 C 0.8223 0.95639 0.24537 0.0
C1880 C 0.79331 0.94579 0.21247 0.0
H1881 H 0.73849 0.88479 0.23515 0.0
H1882 H 0.76023 0.90463 0.2398 0.0
H1883 H 0.77168 0.93813 0.19986 0.0
H1884 H 0.84495 0.98089 0.21251 0.0
H1885 H 0.82303 0.96173 0.20466 0.0
H1886 H 0.81148 0.92441 0.24207 0.0
C1887 C 0.75662 0.9018 0.22749 0.0
C1888 C 0.78044 0.93495 0.20895 0.0
C1889 C 0.74398 0.89058 0.22483 0.0
C1890 C 0.8387 0.97406 0.22174 0.0
C1891 C 0.8261 0.9632 0.21731 0.0
C1892 C 0.80292 0.92763 0.23283 0.0
C1893 C 0.76457 0.90918 0.21448 0.0
C1894 C 0.77859 0.92045 0.2175 0.0
C1895 C 0.81784 0.95413 0.22909 0.0
C1896 C 0.80461 0.94234 0.2246 0.0
H1897 H 0.74286 0.89132 0.18374 0.0
H1898 H 0.76519 0.91083 0.18842 0.0
H1899 H 0.78928 0.9056 0.23587 0.0
H1900 H 0.83804 0.96864 0.26237 0.0
H1901 H 0.81596 0.94998 0.25483 0.0
C1902 C 0.76813 0.13965 0.29838 0.0
C1903 C 0.75183 0.13442 0.29809 0.0
C1904 C 0.78048 0.12848 0.29676 0.0
C1905 C 0.79019 0.08618 0.30286 0.0
H1906 H 0.82245 0.09269 0.26963 0.0
C1907 C 0.83274 0.03545 0.28283 0.0
C1908 C 0.84807 0.03955 0.27666 0.0
C1909 C 0.82191 0.04751 0.28706 0.0
C1910 C 0.81379 0.09081 0.27922 0.0
H1911 H 0.73564 0.11346 0.29619 0.0
H1912 H 0.7573 0.09383 0.2937 0.0
H1913 H 0.80179 0.11284 0.2739 0.0
H1914 H 0.86442 0.05951 0.2709 0.0
H1915 H 0.84582 0.08062 0.27897 0.0
H1916 H 0.80227 0.06438 0.3085 0.0
C1917 C 0.76047 0.10659 0.29505 0.0
C1918 C 0.80188 0.10233 0.28157 0.0
C1919 C 0.74811 0.11779 0.29636 0.0
C1920 C 0.85264 0.05598 0.27552 0.0
C1921 C 0.84189 0.06808 0.28001 0.0
C1922 C 0.80227 0.07479 0.30072 0.0
C1923 C 0.77677 0.11184 0.29514 0.0
C1924 C 0.78984 0.10001 0.29324 0.0
C1925 C 0.82622 0.06401 0.28548 0.0
C1926 C 0.81411 0.0768 0.2887 0.0
H1927 H 0.77131 0.15242 0.29961 0.0
H1928 H 0.79295 0.13282 0.29692 0.0
H1929 H 0.78115 0.08423 0.31209 0.0
H1930 H 0.8288 0.02289 0.28374 0.0
H1931 H 0.80992 0.04381 0.29096 0.0
C1932 C 0.40915 0.96766 0.98886 0.0
C1933 C 0.40841 0.98389 0.98421 0.0
C1934 C 0.39504 0.95897 0.99287 0.0
C1935 C 0.35107 0.96441 0.00213 0.0
H1936 H 0.34804 0.91873 0.99062 0.0
C1937 C 0.29177 0.92708 0.99127 0.0
C1938 C 0.29022 0.91225 0.99927 0.0
C1939 C 0.30618 0.93621 0.99222 0.0
C1940 C 0.34882 0.93143 0.99408 0.0
H1941 H 0.39248 0.00378 0.97989 0.0
H1942 H 0.36776 0.9885 0.98601 0.0
H1943 H 0.37329 0.93377 0.98621 0.0
H1944 H 0.30238 0.89544 0.01475 0.0
H1945 H 0.32792 0.91126 0.01594 0.0
H1946 H 0.32612 0.96208 0.00899 0.0
C1947 C 0.37919 0.98253 0.98724 0.0
C1948 C 0.36331 0.94009 0.99163 0.0
C1949 C 0.39334 0.99129 0.98358 0.0
C1950 C 0.30323 0.9069 0.00858 0.0
C1951 C 0.31782 0.91587 0.0092 0.0
C1952 C 0.33648 0.95581 0.00424 0.0
C1953 C 0.37981 0.96623 0.99197 0.0
C1954 C 0.36462 0.95677 0.99547 0.0
C1955 C 0.31944 0.9305 1.00087 0.0
C1956 C 0.33521 0.93928 1.00012 0.0
H1957 H 0.42069 0.96176 0.9896 0.0
H1958 H 0.39613 0.9466 0.99676 0.0
H1959 H 0.35164 0.9771 0.00563 0.0
H1960 H 0.28192 0.93147 0.98403 0.0
H1961 H 0.30721 0.94741 0.98562 0.0
C1962 C 0.24594 0.37578 0.29562 0.0
C1963 C 0.26227 0.38081 0.29635 0.0
C1964 C 0.23383 0.38704 0.29321 0.0
C1965 C 0.22773 0.4292 0.27929 0.0
H1966 H 0.18555 0.42287 0.29885 0.0
C1967 C 0.17891 0.47779 0.2777 0.0
C1968 C 0.16384 0.4724 0.27151 0.0
C1969 C 0.19061 0.46667 0.28195 0.0
C1970 C 0.19727 0.42474 0.29329 0.0
H1971 H 0.27878 0.40152 0.29551 0.0
H1972 H 0.25769 0.42131 0.29191 0.0
H1973 H 0.20682 0.40357 0.30398 0.0
H1974 H 0.14894 0.45114 0.26559 0.0
H1975 H 0.16933 0.43168 0.2734 0.0
H1976 H 0.2182 0.4506 0.26895 0.0
C1977 C 0.25416 0.40863 0.29266 0.0
C1978 C 0.20946 0.41364 0.29613 0.0
C1979 C 0.26628 0.39732 0.2948 0.0
C1980 C 0.16045 0.45565 0.27032 0.0
C1981 C 0.17208 0.44452 0.27481 0.0
C1982 C 0.21564 0.44041 0.27669 0.0
C1983 C 0.23776 0.40364 0.29174 0.0
C1984 C 0.22484 0.41566 0.28908 0.0
C1985 C 0.1874 0.44995 0.28033 0.0
C1986 C 0.20028 0.43824 0.28359 0.0
H1987 H 0.24254 0.36308 0.29662 0.0
H1988 H 0.22142 0.38264 0.29225 0.0
H1989 H 0.23925 0.43103 0.27335 0.0
H1990 H 0.18191 0.49061 0.27874 0.0
H1991 H 0.20228 0.47116 0.2863 0.0
C1992 C 0.11417 0.01935 0.50695 0.0
C1993 C 0.10952 0.01377 0.49147 0.0
C1994 C 0.12817 0.02897 0.50913 0.0
C1995 C 0.16711 0.03962 0.49008 0.0
H1996 H 0.16618 0.07728 0.51852 0.0
C1997 C 0.21749 0.08914 0.49077 0.0
C1998 C 0.22066 0.09784 0.50512 0.0
C1999 C 0.205 0.07747 0.49002 0.0
C2000 C 0.16677 0.06668 0.51072 0.0
H2001 H 0.11593 0.01391 0.46615 0.0
H2002 H 0.14032 0.03087 0.46995 0.0
H2003 H 0.14194 0.06027 0.51504 0.0
H2004 H 0.21472 0.10009 0.5304 0.0
H2005 H 0.19281 0.07956 0.52924 0.0
H2006 H 0.19192 0.046 0.48572 0.0
C2007 C 0.13319 0.02768 0.48041 0.0
C2008 C 0.15283 0.05694 0.5087 0.0
C2009 C 0.11914 0.01811 0.47821 0.0
C2010 C 0.2121 0.0938 0.51909 0.0
C2011 C 0.19954 0.08213 0.51837 0.0
C2012 C 0.18108 0.04933 0.49213 0.0
C2013 C 0.13788 0.0332 0.4959 0.0
C2014 C 0.1528 0.04337 0.49827 0.0
C2015 C 0.19554 0.07413 0.5037 0.0
C2016 C 0.18105 0.06309 0.50237 0.0
H2017 H 0.10693 0.01635 0.51739 0.0
H2018 H 0.1315 0.03293 0.52123 0.0
H2019 H 0.16756 0.02907 0.48216 0.0
H2020 H 0.22438 0.09171 0.47998 0.0
H2021 H 0.2023 0.07166 0.4785 0.0
C2022 C 0.74463 0.12399 0.68588 0.0
C2023 C 0.75239 0.13318 0.6982 0.0
C2024 C 0.73292 0.11212 0.68961 0.0
C2025 C 0.70501 0.09969 0.72222 0.0
H2026 H 0.70414 0.05809 0.69984 0.0
C2027 C 0.66746 0.04537 0.7453 0.0
C2028 C 0.65928 0.03547 0.7339 0.0
C2029 C 0.67837 0.05744 0.74033 0.0
C2030 C 0.70407 0.06972 0.70606 0.0
H2031 H 0.75378 0.13717 0.72409 0.0
H2032 H 0.73376 0.11627 0.7306 0.0
H2033 H 0.72402 0.07889 0.69224 0.0
H2034 H 0.65667 0.02955 0.70852 0.0
H2035 H 0.67555 0.05095 0.69967 0.0
H2036 H 0.68532 0.0905 0.73622 0.0
C2037 C 0.73655 0.11834 0.71803 0.0
C2038 C 0.71547 0.08165 0.7017 0.0
C2039 C 0.74821 0.13018 0.71431 0.0
C2040 C 0.66264 0.03733 0.71747 0.0
C2041 C 0.6735 0.04948 0.71246 0.0
C2042 C 0.69367 0.08778 0.7266 0.0
C2043 C 0.7287 0.1092 0.70574 0.0
C2044 C 0.71617 0.09672 0.70984 0.0
C2045 C 0.68146 0.05972 0.72385 0.0
C2046 C 0.69312 0.0726 0.71866 0.0
H2047 H 0.74767 0.12589 0.67335 0.0
H2048 H 0.72703 0.10537 0.67985 0.0
H2049 H 0.705 0.11128 0.72853 0.0
H2050 H 0.66549 0.0437 0.75808 0.0
H2051 H 0.68455 0.06482 0.74945 0.0
C2052 C 0.40432 0.03499 0.50865 0.0
C2053 C 0.40625 0.02881 0.52421 0.0
C2054 C 0.39139 0.04501 0.50513 0.0
C2055 C 0.3607 0.07067 0.52527 0.0
H2056 H 0.33955 0.06813 0.48349 0.0
C2057 C 0.3097 0.11401 0.50975 0.0
C2058 C 0.29637 0.10751 0.50109 0.0
C2059 C 0.32387 0.10524 0.51122 0.0
C2060 C 0.34522 0.06892 0.49528 0.0
H2061 H 0.39586 0.0278 0.54812 0.0
H2062 H 0.37312 0.04483 0.54195 0.0
H2063 H 0.36217 0.05069 0.48904 0.0
H2064 H 0.28756 0.08689 0.48684 0.0
H2065 H 0.31204 0.07134 0.48982 0.0
H2066 H 0.34333 0.08827 0.53183 0.0
C2067 C 0.38183 0.04245 0.53254 0.0
C2068 C 0.35838 0.05905 0.49839 0.0
C2069 C 0.39484 0.03261 0.53609 0.0
C2070 C 0.29767 0.09225 0.49353 0.0
C2071 C 0.31177 0.08337 0.49519 0.0
C2072 C 0.34748 0.08039 0.52222 0.0
C2073 C 0.37998 0.04892 0.51706 0.0
C2074 C 0.36624 0.05972 0.51348 0.0
C2075 C 0.32498 0.08962 0.50429 0.0
C2076 C 0.33949 0.07964 0.5072 0.0
H2077 H 0.41301 0.03234 0.49928 0.0
H2078 H 0.39051 0.04991 0.49313 0.0
H2079 H 0.36659 0.07178 0.53693 0.0
H2080 H 0.30912 0.12581 0.51559 0.0
H2081 H 0.3339 0.11066 0.51798 0.0
C2082 C 0.62421 0.50321 0.51672 0.0
C2083 C 0.61029 0.49771 0.52494 0.0
C2084 C 0.63726 0.49302 0.51426 0.0
C2085 C 0.65766 0.45813 0.53023 0.0
H2086 H 0.67374 0.45213 0.48675 0.0
C2087 C 0.7054 0.41021 0.51472 0.0
C2088 C 0.71636 0.41349 0.50222 0.0
C2089 C 0.69268 0.42065 0.51792 0.0
C2090 C 0.66966 0.45387 0.49903 0.0
H2091 H 0.59938 0.47697 0.53696 0.0
H2092 H 0.62247 0.45949 0.53319 0.0
H2093 H 0.65141 0.47023 0.49166 0.0
H2094 H 0.72297 0.4306 0.48368 0.0
H2095 H 0.70136 0.44917 0.48969 0.0
H2096 H 0.67616 0.44224 0.53778 0.0
C2097 C 0.62314 0.47171 0.52863 0.0
C2098 C 0.65677 0.46417 0.50179 0.0
C2099 C 0.60995 0.4818 0.53085 0.0
C2100 C 0.71461 0.42765 0.49329 0.0
C2101 C 0.7021 0.43824 0.49667 0.0
C2102 C 0.67076 0.44804 0.52753 0.0
C2103 C 0.63685 0.47719 0.52021 0.0
C2104 C 0.65062 0.46636 0.51739 0.0
C2105 C 0.69078 0.43479 0.50886 0.0
C2106 C 0.67694 0.44571 0.51187 0.0
H2107 H 0.62515 0.51546 0.51229 0.0
H2108 H 0.64778 0.49758 0.50787 0.0
H2109 H 0.6532 0.45974 0.5424 0.0
H2110 H 0.70635 0.3993 0.52173 0.0
H2111 H 0.68412 0.41739 0.52723 0.0
C2112 C 0.7067 0.26601 0.37753 0.0
C2113 C 0.7084 0.24947 0.38075 0.0
C2114 C 0.70829 0.27763 0.38991 0.0
C2115 C 0.72688 0.28349 0.43007 0.0
H2116 H 0.70096 0.32202 0.43178 0.0
C2117 C 0.74514 0.33926 0.46866 0.0
C2118 C 0.73298 0.34734 0.47705 0.0
C2119 C 0.74116 0.32698 0.45753 0.0
C2120 C 0.70817 0.31123 0.43155 0.0
H2121 H 0.7124 0.23209 0.39958 0.0
H2122 H 0.71507 0.25232 0.42122 0.0
H2123 H 0.69515 0.30104 0.41129 0.0
H2124 H 0.70725 0.34841 0.48134 0.0
H2125 H 0.70011 0.32685 0.46161 0.0
H2126 H 0.73983 0.29358 0.45036 0.0
C2127 C 0.71285 0.25636 0.40907 0.0
C2128 C 0.70497 0.29931 0.41971 0.0
C2129 C 0.71132 0.24476 0.39668 0.0
C2130 C 0.71676 0.34253 0.47467 0.0
C2131 C 0.71272 0.33028 0.46339 0.0
C2132 C 0.73007 0.29538 0.44187 0.0
C2133 C 0.71157 0.27295 0.4058 0.0
C2134 C 0.71437 0.28535 0.41877 0.0
C2135 C 0.72491 0.32241 0.45469 0.0
C2136 C 0.72085 0.30944 0.44266 0.0
H2137 H 0.70462 0.27003 0.36534 0.0
H2138 H 0.70746 0.29031 0.38693 0.0
H2139 H 0.7345 0.27301 0.42958 0.0
H2140 H 0.75778 0.3425 0.47069 0.0
H2141 H 0.75082 0.32126 0.45094 0.0
C2142 C 0.53143 0.00394 0.90163 0.0
C2143 C 0.53081 0.02006 0.90745 0.0
C2144 C 0.54007 1.00018 0.88763 0.0
C2145 C 0.57424 0.01258 0.8636 0.0
H2146 H 0.5513 0.99596 0.82569 0.0
C2147 C 0.60607 0.99795 0.80308 0.0
C2148 C 0.60029 0.00757 0.79058 0.0
C2149 C 0.59746 0.99664 0.81753 0.0
C2150 C 0.55786 1.0004 0.83626 0.0
H2151 H 0.53875 0.04483 0.90263 0.0
H2152 H 0.55445 0.03803 0.87885 0.0
H2153 H 0.53679 0.99917 0.85131 0.0
H2154 H 0.58062 0.02262 0.783 0.0
H2155 H 0.56533 0.01985 0.80802 0.0
H2156 H 0.59526 0.01398 0.84858 0.0
C2157 C 0.54815 0.02839 0.88518 0.0
C2158 C 0.5496 0.00219 0.85086 0.0
C2159 C 0.53923 0.03223 0.89891 0.0
C2160 C 0.58537 0.01517 0.79246 0.0
C2161 C 0.5766 0.01352 0.80672 0.0
C2162 C 0.58257 0.01045 0.84912 0.0
C2163 C 0.54858 0.01237 0.87938 0.0
C2164 C 0.55766 0.00863 0.86453 0.0
C2165 C 0.58274 0.00456 0.81951 0.0
C2166 C 0.57437 0.00468 0.83525 0.0
H2167 H 0.52539 0.99416 0.90794 0.0
H2168 H 0.5403 0.98772 0.88335 0.0
H2169 H 0.58066 0.01759 0.87402 0.0
H2170 H 0.61759 0.99206 0.80198 0.0
H2171 H 0.60242 0.98968 0.82727 0.0
C2172 C 0.30933 0.25926 0.3887 0.0
C2173 C 0.29653 0.26586 0.37992 0.0
C2174 C 0.30628 0.24732 0.4002 0.0
C2175 C 0.27333 0.23091 0.42559 0.0
H2176 H 0.29896 0.19225 0.42768 0.0
C2177 C 0.24937 0.17376 0.45583 0.0
C2178 C 0.2596 0.16547 0.4663 0.0
C2179 C 0.25543 0.18618 0.44623 0.0
C2180 C 0.29185 0.20309 0.42739 0.0
H2181 H 0.27058 0.26459 0.37593 0.0
H2182 H 0.2653 0.24396 0.39592 0.0
H2183 H 0.30673 0.21388 0.40912 0.0
H2184 H 0.28444 0.16352 0.47446 0.0
H2185 H 0.29508 0.18535 0.45746 0.0
H2186 H 0.25827 0.22009 0.44354 0.0
C2187 C 0.27765 0.24823 0.39421 0.0
C2188 C 0.29629 0.21547 0.41678 0.0
C2189 C 0.28068 0.26009 0.38275 0.0
C2190 C 0.27621 0.16968 0.46658 0.0
C2191 C 0.28231 0.18214 0.45684 0.0
C2192 C 0.26891 0.21859 0.43612 0.0
C2193 C 0.29038 0.24179 0.40317 0.0
C2194 C 0.28683 0.22933 0.4155 0.0
C2195 C 0.2719 0.19067 0.44676 0.0
C2196 C 0.27787 0.20438 0.43686 0.0
H2197 H 0.32167 0.26352 0.38688 0.0
H2198 H 0.31633 0.24265 0.40697 0.0
H2199 H 0.26602 0.24161 0.42519 0.0
H2200 H 0.23655 0.17082 0.4551 0.0
H2201 H 0.24716 0.19229 0.43834 0.0
C2202 C 0.47985 0.47728 0.8991 0.0
C2203 C 0.48994 0.49004 0.90505 0.0
C2204 C 0.46944 0.47962 0.88606 0.0
C2205 C 0.46548 0.50225 0.84959 0.0
H2206 H 0.41967 0.49112 0.85155 0.0
C2207 C 0.42403 0.48871 0.79433 0.0
C2208 C 0.40957 0.49727 0.79362 0.0
C2209 C 0.43394 0.48985 0.80799 0.0
C2210 C 0.43242 0.49438 0.8509 0.0
H2211 H 0.49645 0.51548 0.90196 0.0
H2212 H 0.47888 0.51921 0.87869 0.0
H2213 H 0.43659 0.48882 0.87575 0.0
H2214 H 0.39415 0.51382 0.80661 0.0
H2215 H 0.41132 0.51537 0.83085 0.0
H2216 H 0.46145 0.5071 0.82456 0.0
C2217 C 0.47905 0.50745 0.88431 0.0
C2218 C 0.44207 0.49298 0.86467 0.0
C2219 C 0.48922 0.50522 0.89757 0.0
C2220 C 0.4053 0.50718 0.80679 0.0
C2221 C 0.41503 0.50801 0.82065 0.0
C2222 C 0.4559 0.50329 0.83573 0.0
C2223 C 0.46909 0.49467 0.87845 0.0
C2224 C 0.4587 0.49684 0.86411 0.0
C2225 C 0.42939 0.49928 0.82137 0.0
C2226 C 0.4393 0.49931 0.83626 0.0
H2227 H 0.48023 0.46532 0.90424 0.0
H2228 H 0.46198 0.46953 0.88163 0.0
H2229 H 0.47829 0.5052 0.84886 0.0
H2230 H 0.42763 0.48101 0.78434 0.0
H2231 H 0.44491 0.48295 0.80832 0.0
C2232 C 0.72682 0.75803 0.1266 0.0
C2233 C 0.71134 0.76001 0.13329 0.0
C2234 C 0.72946 0.74608 0.11485 0.0
C2235 C 0.71512 0.70691 0.09939 0.0
H2236 H 0.73402 0.72001 0.05872 0.0
C2237 C 0.738 0.6625 0.04957 0.0
C2238 C 0.73159 0.66509 0.03411 0.0
C2239 C 0.73542 0.67364 0.06214 0.0
C2240 C 0.72876 0.71621 0.07003 0.0
H2241 H 0.68653 0.75068 0.13273 0.0
H2242 H 0.69141 0.72941 0.11271 0.0
H2243 H 0.72989 0.74029 0.0801 0.0
H2244 H 0.71758 0.68146 0.01971 0.0
H2245 H 0.7135 0.70109 0.04157 0.0
H2246 H 0.71423 0.68276 0.08936 0.0
C2247 C 0.70141 0.73726 0.11659 0.0
C2248 C 0.72648 0.72776 0.08225 0.0
C2249 C 0.69868 0.74941 0.12813 0.0
C2250 C 0.72261 0.67906 0.03149 0.0
C2251 C 0.72034 0.69035 0.04395 0.0
C2252 C 0.71772 0.69528 0.08727 0.0
C2253 C 0.71678 0.73561 0.10973 0.0
C2254 C 0.71953 0.72324 0.09699 0.0
C2255 C 0.72671 0.68774 0.05938 0.0
C2256 C 0.72443 0.69987 0.07244 0.0
H2257 H 0.73699 0.76563 0.1305 0.0
H2258 H 0.74147 0.74492 0.10984 0.0
H2259 H 0.7098 0.70314 0.11068 0.0
H2260 H 0.74492 0.65182 0.05196 0.0
H2261 H 0.7405 0.67142 0.07394 0.0
C2262 C 0.99081 0.00731 0.1193 0.0
C2263 C 0.99448 0.02305 0.11395 0.0
C2264 C 0.9807 0.00486 0.13254 0.0
C2265 C 0.94901 0.02394 0.1569 0.0
H2266 H 0.96113 0.99239 0.18864 0.0
C2267 C 0.91295 0.01465 0.21593 0.0
C2268 C 0.91041 0.99857 0.2209 0.0
C2269 C 0.92357 0.01821 0.20329 0.0
C2270 C 0.95747 0.00112 0.17981 0.0
H2271 H 0.99031 0.04858 0.11839 0.0
H2272 H 0.97249 0.04426 0.14142 0.0
H2273 H 0.97869 0.99745 0.16565 0.0
H2274 H 0.91713 0.97364 0.21638 0.0
H2275 H 0.93537 0.97983 0.19431 0.0
H2276 H 0.92768 0.02745 0.17095 0.0
C2277 C 0.97739 0.03382 0.13527 0.0
C2278 C 0.96755 0.00403 0.16664 0.0
C2279 C 0.98758 0.03628 0.12205 0.0
C2280 C 0.91884 0.98618 0.21299 0.0
C2281 C 0.92939 0.98974 0.20035 0.0
C2282 C 0.93888 0.02098 0.17006 0.0
C2283 C 0.97393 0.01808 0.14073 0.0
C2284 C 0.96339 0.01538 0.15497 0.0
C2285 C 0.93188 0.00579 0.1953 0.0
C2286 C 0.94293 0.00944 0.18162 0.0
H2287 H 0.99563 0.99682 0.11316 0.0
H2288 H 0.97803 0.99256 0.13626 0.0
H2289 H 0.94539 0.03265 0.14803 0.0
H2290 H 0.90672 0.02452 0.22176 0.0
H2291 H 0.92535 0.03073 0.19986 0.0
C2292 C 0.30493 0.7507 0.11564 0.0
C2293 C 0.30759 0.75528 0.13181 0.0
C2294 C 0.30119 0.76231 0.1042 0.0
C2295 C 0.30179 0.80706 0.09775 0.0
H2296 H 0.27251 0.79511 0.06268 0.0
C2297 C 0.27104 0.85274 0.05534 0.0
C2298 C 0.27195 0.84909 0.03876 0.0
C2299 C 0.2764 0.84169 0.0667 0.0
C2300 C 0.28079 0.79857 0.07236 0.0
H2301 H 0.30815 0.77543 0.14884 0.0
H2302 H 0.30099 0.79563 0.12909 0.0
H2303 H 0.27936 0.77502 0.08261 0.0
H2304 H 0.27937 0.83114 0.02107 0.0
H2305 H 0.2884 0.81175 0.04094 0.0
H2306 H 0.3026 0.83085 0.08766 0.0
C2307 C 0.30232 0.78321 0.12502 0.0
C2308 C 0.28481 0.78704 0.08376 0.0
C2309 C 0.30633 0.77164 0.13638 0.0
C2310 C 0.27856 0.83432 0.03376 0.0
C2311 C 0.28364 0.82318 0.04511 0.0
C2312 C 0.29752 0.81866 0.08649 0.0
C2313 C 0.29974 0.77873 0.10874 0.0
C2314 C 0.29543 0.79108 0.09659 0.0
C2315 C 0.28248 0.8267 0.06167 0.0
C2316 C 0.28705 0.81449 0.07365 0.0
H2317 H 0.30599 0.73817 0.1118 0.0
H2318 H 0.29964 0.75839 0.09176 0.0
H2319 H 0.31023 0.8106 0.10724 0.0
H2320 H 0.26601 0.86403 0.05954 0.0
H2321 H 0.27533 0.84465 0.07941 0.0
C2322 C 0.00888 0.48507 0.12174 0.0
C2323 C 0.01572 0.47663 0.10864 0.0
C2324 C 0.01792 0.48846 0.13573 0.0
C2325 C 0.05179 0.47456 0.1596 0.0
H2326 H 0.0563 0.51899 0.17508 0.0
C2327 C 0.09932 0.49368 0.20778 0.0
C2328 C 0.09602 0.50664 0.21834 0.0
C2329 C 0.08868 0.48955 0.19515 0.0
C2330 C 0.05494 0.50645 0.17118 0.0
H2331 H 0.03769 0.46542 0.10012 0.0
H2332 H 0.05311 0.47077 0.12477 0.0
H2333 H 0.039 0.5126 0.15188 0.0
H2334 H 0.07867 0.52504 0.22433 0.0
H2335 H 0.05976 0.51741 0.20282 0.0
H2336 H 0.06733 0.46822 0.17902 0.0
C2337 C 0.04072 0.47472 0.12412 0.0
C2338 C 0.04508 0.50284 0.15781 0.0
C2339 C 0.03181 0.47158 0.11003 0.0
C2340 C 0.08162 0.51507 0.2163 0.0
C2341 C 0.07083 0.51076 0.20385 0.0
C2342 C 0.06141 0.4781 0.17315 0.0
C2343 C 0.0339 0.48325 0.13706 0.0
C2344 C 0.04359 0.48691 0.15178 0.0
C2345 C 0.07432 0.4981 0.19293 0.0
C2346 C 0.06331 0.49414 0.17902 0.0
H2347 H 0.99646 0.48891 0.12131 0.0
H2348 H 0.01236 0.49497 0.14562 0.0
H2349 H 0.05068 0.46213 0.15526 0.0
H2350 H 0.11039 0.48705 0.20893 0.0
H2351 H 0.09199 0.47994 0.18687 0.0
C2352 C 0.38873 0.68609 0.25305 0.0
C2353 C 0.37955 0.69843 0.24628 0.0
C2354 C 0.40053 0.68976 0.26477 0.0
C2355 C 0.41222 0.72192 0.29451 0.0
H2356 H 0.45289 0.69959 0.29616 0.0
C2357 C 0.46335 0.74361 0.33709 0.0
C2358 C 0.47198 0.73183 0.34524 0.0
C2359 C 0.45262 0.73914 0.3247 0.0
C2360 C 0.44152 0.70581 0.29597 0.0
H2361 H 0.37576 0.72437 0.24654 0.0
H2362 H 0.39668 0.7308 0.26636 0.0
H2363 H 0.43323 0.69255 0.27499 0.0
H2364 H 0.47714 0.70632 0.34633 0.0
H2365 H 0.45793 0.69828 0.32486 0.0
H2366 H 0.42054 0.73545 0.31512 0.0
C2367 C 0.39455 0.71822 0.26289 0.0
C2368 C 0.43024 0.70177 0.28383 0.0
C2369 C 0.3827 0.71455 0.2513 0.0
C2370 C 0.47033 0.71555 0.34034 0.0
C2371 C 0.45944 0.71101 0.328 0.0
C2372 C 0.42351 0.72604 0.3065 0.0
C2373 C 0.40348 0.70587 0.26994 0.0
C2374 C 0.41548 0.70985 0.28292 0.0
C2375 C 0.45033 0.72276 0.32015 0.0
C2376 C 0.43831 0.71807 0.3074 0.0
H2377 H 0.38678 0.67356 0.24932 0.0
H2378 H 0.40709 0.67993 0.27001 0.0
H2379 H 0.40085 0.72816 0.29443 0.0
H2380 H 0.46491 0.75633 0.34032 0.0
H2381 H 0.44616 0.74857 0.31867 0.0
C2382 C 0.97798 0.38993 0.99021 0.0
C2383 C 0.97943 0.40511 0.98287 0.0
C2384 C 0.9809 0.37574 0.98143 0.0
C2385 C 0.00237 0.359 0.94702 0.0
H2386 H 0.96878 0.32543 0.94725 0.0
C2387 C 0.00358 0.30167 0.90535 0.0
C2388 C 0.99577 0.28751 0.91079 0.0
C2389 C 0.00312 0.31602 0.91458 0.0
C2390 C 0.97849 0.33448 0.94728 0.0
H2391 H 0.9854 0.41742 0.96071 0.0
H2392 H 0.99082 0.39246 0.94535 0.0
H2393 H 0.96503 0.35045 0.96242 0.0
H2394 H 0.98246 0.2768 0.93053 0.0
H2395 H 0.98251 0.30139 0.94705 0.0
H2396 H 0.01606 0.34288 0.93223 0.0
C2397 C 0.98731 0.39163 0.95789 0.0
C2398 C 0.97623 0.34889 0.95589 0.0
C2399 C 0.9841 0.40584 0.96661 0.0
C2400 C 0.98844 0.28763 0.92601 0.0
C2401 C 0.98831 0.3018 0.93537 0.0
C2402 C 0.00478 0.34442 0.93859 0.0
C2403 C 0.98558 0.37645 0.96519 0.0
C2404 C 0.98813 0.36128 0.95586 0.0
C2405 C 0.99508 0.31638 0.92954 0.0
C2406 C 0.99286 0.33192 0.93864 0.0
H2407 H 0.97432 0.38903 0.0027 0.0
H2408 H 0.97954 0.36418 0.98735 0.0
H2409 H 0.01176 0.36837 0.94689 0.0
H2410 H 0.00917 0.30189 0.89356 0.0
H2411 H 0.00839 0.32697 0.90959 0.0
C2412 C 0.61811 0.8064 0.25532 0.0
C2413 C 0.63018 0.7951 0.25228 0.0
C2414 C 0.60697 0.80393 0.26775 0.0
C2415 C 0.59068 0.77154 0.29456 0.0
H2416 H 0.57333 0.80792 0.31845 0.0
C2417 C 0.55207 0.7629 0.35142 0.0
C2418 C 0.53681 0.77002 0.35079 0.0
C2419 C 0.56403 0.76709 0.34028 0.0
C2420 C 0.57808 0.79767 0.31183 0.0
H2421 H 0.64046 0.77267 0.2601 0.0
H2422 H 0.62153 0.76861 0.28217 0.0
H2423 H 0.59325 0.81281 0.29727 0.0
H2424 H 0.52244 0.78776 0.3386 0.0
H2425 H 0.54358 0.79537 0.31934 0.0
H2426 H 0.57578 0.75644 0.30946 0.0
C2427 C 0.62016 0.77909 0.27465 0.0
C2428 C 0.58941 0.80044 0.29962 0.0
C2429 C 0.6311 0.78143 0.26205 0.0
C2430 C 0.53407 0.78205 0.33936 0.0
C2431 C 0.54616 0.78644 0.32837 0.0
C2432 C 0.5796 0.76878 0.30693 0.0
C2433 C 0.60783 0.79023 0.27761 0.0
C2434 C 0.59585 0.7874 0.29076 0.0
C2435 C 0.56109 0.77868 0.32847 0.0
C2436 C 0.57316 0.78181 0.31566 0.0
H2437 H 0.61711 0.817 0.24788 0.0
H2438 H 0.59752 0.81264 0.26943 0.0
H2439 H 0.59498 0.76118 0.28781 0.0
H2440 H 0.55456 0.75358 0.36006 0.0
H2441 H 0.5755 0.76104 0.34069 0.0
C2442 C 0.02485 0.10781 0.97994 0.0
C2443 C 0.01974 0.10872 0.9961 0.0
C2444 C 0.02293 0.12087 0.96963 0.0
C2445 C 0.01412 0.16515 0.96995 0.0
H2446 H 0.00505 0.15697 0.9246 0.0
C2447 C 0.98924 0.2128 0.92636 0.0
C2448 C 0.99774 0.21478 0.91184 0.0
C2449 C 0.99287 0.20018 0.9367 0.0
C2450 C 0.0077 0.1594 0.93722 0.0
H2451 H 0.00866 0.1244 0.01396 0.0
H2452 H 0.00437 0.14661 0.99582 0.0
H2453 H 0.00905 0.13422 0.94246 0.0
H2454 H 0.01665 0.20503 0.89675 0.0
H2455 H 0.02267 0.18264 0.9147 0.0
H2456 H 0.01199 0.19036 0.96466 0.0
C2457 C 0.01034 0.13599 0.99118 0.0
C2458 C 0.01009 0.14638 0.94748 0.0
C2459 C 0.01252 0.12305 0.00157 0.0
C2460 C 0.00996 0.20386 0.90789 0.0
C2461 C 0.01335 0.19102 0.91809 0.0
C2462 C 0.01141 0.17813 0.95974 0.0
C2463 C 0.01558 0.13515 0.97507 0.0
C2464 C 0.0133 0.14905 0.96402 0.0
C2465 C 0.00484 0.18909 0.93259 0.0
C2466 C 0.00817 0.17537 0.9433 0.0
H2467 H 0.03024 0.09694 0.97514 0.0
H2468 H 0.02735 0.11978 0.9574 0.0
H2469 H 0.01694 0.16779 0.98249 0.0
H2470 H 0.97979 0.22104 0.92975 0.0
H2471 H 0.98608 0.19887 0.94778 0.0
C2472 C 0.38915 0.31202 0.25587 0.0
C2473 C 0.38069 0.29935 0.26357 0.0
C2474 C 0.40075 0.30864 0.24408 0.0
C2475 C 0.42714 0.27577 0.23028 0.0
H2476 H 0.42881 0.29851 0.18972 0.0
C2477 C 0.4588 0.24927 0.17522 0.0
C2478 C 0.4687 0.25948 0.16583 0.0
C2479 C 0.44902 0.25564 0.18728 0.0
C2480 C 0.42864 0.29222 0.20109 0.0
H2481 H 0.37728 0.27323 0.26435 0.0
H2482 H 0.39744 0.26738 0.244 0.0
H2483 H 0.40983 0.30699 0.21067 0.0
H2484 H 0.47576 0.28456 0.16164 0.0
H2485 H 0.4585 0.29573 0.18284 0.0
H2486 H 0.44566 0.26083 0.2207 0.0
C2487 C 0.39542 0.27992 0.2473 0.0
C2488 C 0.41779 0.29707 0.21307 0.0
C2489 C 0.38386 0.28328 0.25899 0.0
C2490 C 0.46833 0.27633 0.16867 0.0
C2491 C 0.45842 0.28274 0.18075 0.0
C2492 C 0.43793 0.27094 0.21835 0.0
C2493 C 0.40413 0.29252 0.23981 0.0
C2494 C 0.41667 0.28862 0.22765 0.0
C2495 C 0.44881 0.27242 0.1903 0.0
C2496 C 0.43854 0.27884 0.20348 0.0
H2497 H 0.38704 0.32454 0.25918 0.0
H2498 H 0.40731 0.31861 0.23857 0.0
H2499 H 0.42686 0.26927 0.24153 0.0
H2500 H 0.45862 0.23625 0.17337 0.0
H2501 H 0.44152 0.24739 0.1942 0.0
C2502 C 0.51802 0.40631 0.03961 0.0
C2503 C 0.51237 0.40538 0.02358 0.0
C2504 C 0.51589 0.3932 0.04994 0.0
C2505 C 0.50723 0.34876 0.04917 0.0
H2506 H 0.49998 0.35545 0.09494 0.0
C2507 C 0.49182 0.29596 0.09156 0.0
C2508 C 0.50122 0.29533 0.10568 0.0
C2509 C 0.49224 0.30979 0.08204 0.0
C2510 C 0.50207 0.35343 0.08219 0.0
H2511 H 0.49989 0.38979 0.006 0.0
H2512 H 0.4955 0.36735 0.02415 0.0
H2513 H 0.50222 0.3788 0.07729 0.0
H2514 H 0.51798 0.30891 0.12121 0.0
H2515 H 0.51851 0.3332 0.10467 0.0
H2516 H 0.50681 0.32337 0.05409 0.0
C2517 C 0.50195 0.37806 0.02866 0.0
C2518 C 0.50343 0.36679 0.07206 0.0
C2519 C 0.50424 0.39109 0.01829 0.0
C2520 C 0.51062 0.30903 0.11038 0.0
C2521 C 0.51088 0.32295 0.10096 0.0
C2522 C 0.50567 0.33542 0.05925 0.0
C2523 C 0.5079 0.37885 0.04458 0.0
C2524 C 0.50609 0.36465 0.0554 0.0
C2525 C 0.50191 0.32336 0.08654 0.0
C2526 C 0.50314 0.3376 0.07587 0.0
H2527 H 0.52411 0.41718 0.04423 0.0
H2528 H 0.5208 0.39424 0.06204 0.0
H2529 H 0.50963 0.34658 0.0365 0.0
H2530 H 0.48446 0.28561 0.0876 0.0
H2531 H 0.48508 0.30983 0.07108 0.0
C2532 C 0.63204 0.22832 0.25024 0.0
C2533 C 0.63452 0.21297 0.25677 0.0
C2534 C 0.62029 0.23039 0.23837 0.0
C2535 C 0.5943 0.20792 0.2085 0.0
H2536 H 0.56896 0.24682 0.21082 0.0
C2537 C 0.53578 0.21617 0.17136 0.0
C2538 C 0.5338 0.23127 0.16404 0.0
C2539 C 0.5485 0.21386 0.18216 0.0
C2540 C 0.57605 0.23598 0.20991 0.0
H2541 H 0.62674 0.18773 0.2559 0.0
H2542 H 0.60596 0.19136 0.23534 0.0
H2543 H 0.59025 0.24278 0.23061 0.0
H2544 H 0.54375 0.25576 0.16237 0.0
H2545 H 0.56589 0.25171 0.18132 0.0
H2546 H 0.57978 0.20103 0.18795 0.0
C2547 C 0.6133 0.20177 0.23918 0.0
C2548 C 0.58829 0.23366 0.22123 0.0
C2549 C 0.62517 0.19967 0.25098 0.0
C2550 C 0.54489 0.24398 0.16777 0.0
C2551 C 0.55753 0.24169 0.17869 0.0
C2552 C 0.58195 0.21019 0.19724 0.0
C2553 C 0.61062 0.21719 0.23281 0.0
C2554 C 0.59761 0.21962 0.22067 0.0
C2555 C 0.55946 0.22661 0.18601 0.0
C2556 C 0.57271 0.22425 0.19782 0.0
H2557 H 0.63926 0.23874 0.25428 0.0
H2558 H 0.61883 0.24237 0.23351 0.0
H2559 H 0.60137 0.19708 0.20754 0.0
H2560 H 0.52751 0.20609 0.16876 0.0
H2561 H 0.54959 0.20215 0.18772 0.0
C2562 C 0.50313 0.11104 0.02416 0.0
C2563 C 0.48717 0.10712 0.01934 0.0
C2564 C 0.50671 0.12554 0.03251 0.0
C2565 C 0.49064 0.1662 0.04142 0.0
H2566 H 0.51887 0.16508 0.07878 0.0
C2567 C 0.49207 0.21632 0.09038 0.0
C2568 C 0.50658 0.2198 0.09864 0.0
C2569 C 0.49116 0.20377 0.07892 0.0
C2570 C 0.51114 0.16569 0.06825 0.0
H2571 H 0.46253 0.11556 0.01919 0.0
H2572 H 0.46872 0.14067 0.03399 0.0
H2573 H 0.51431 0.14062 0.06246 0.0
H2574 H 0.53193 0.21424 0.10041 0.0
H2575 H 0.53045 0.19212 0.08033 0.0
H2576 H 0.48726 0.1912 0.04735 0.0
C2577 C 0.47851 0.13262 0.03121 0.0
C2578 C 0.50854 0.15165 0.05888 0.0
C2579 C 0.47492 0.11812 0.0229 0.0
C2580 C 0.52051 0.2114 0.09445 0.0
C2581 C 0.51961 0.19874 0.08302 0.0
C2582 C 0.49324 0.18024 0.05079 0.0
C2583 C 0.49443 0.13648 0.03617 0.0
C2584 C 0.49806 0.15167 0.04549 0.0
C2585 C 0.50482 0.19455 0.07538 0.0
C2586 C 0.50331 0.1801 0.06449 0.0
H2587 H 0.51282 0.10276 0.02171 0.0
H2588 H 0.51913 0.12821 0.03605 0.0
H2589 H 0.48275 0.16671 0.03099 0.0
H2590 H 0.4813 0.22306 0.0931 0.0
H2591 H 0.47955 0.20087 0.07338 0.0
C2592 C 0.25065 0.39119 0.69701 0.0
C2593 C 0.24298 0.3834 0.70999 0.0
C2594 C 0.26332 0.40245 0.69978 0.0
C2595 C 0.29413 0.4142 0.73037 0.0
H2596 H 0.29709 0.45462 0.70726 0.0
C2597 C 0.33771 0.46574 0.75062 0.0
C2598 C 0.34588 0.47461 0.73877 0.0
C2599 C 0.32547 0.45456 0.74634 0.0
C2600 C 0.29658 0.44329 0.71365 0.0
H2601 H 0.24267 0.38137 0.73603 0.0
H2602 H 0.26446 0.40118 0.74086 0.0
H2603 H 0.27502 0.43526 0.70116 0.0
H2604 H 0.34717 0.47966 0.7133 0.0
H2605 H 0.32593 0.45971 0.7056 0.0
H2606 H 0.31547 0.42219 0.74299 0.0
C2607 C 0.26081 0.39848 0.72853 0.0
C2608 C 0.28391 0.4322 0.71017 0.0
C2609 C 0.24816 0.38727 0.72577 0.0
C2610 C 0.3412 0.47266 0.72258 0.0
C2611 C 0.32899 0.46134 0.71823 0.0
C2612 C 0.30675 0.42525 0.73384 0.0
C2613 C 0.26864 0.4061 0.71557 0.0
C2614 C 0.28245 0.41762 0.71864 0.0
C2615 C 0.32104 0.45209 0.73008 0.0
C2616 C 0.30805 0.44001 0.72566 0.0
H2617 H 0.24685 0.38858 0.68471 0.0
H2618 H 0.26916 0.40806 0.68954 0.0
H2619 H 0.29355 0.40293 0.73688 0.0
H2620 H 0.34074 0.46752 0.76326 0.0
H2621 H 0.31935 0.44799 0.75583 0.0
C2622 C 0.26633 0.63818 0.80015 0.0
C2623 C 0.25007 0.63282 0.79995 0.0
C2624 C 0.27875 0.62713 0.79829 0.0
C2625 C 0.28892 0.5848 0.80354 0.0
H2626 H 0.32068 0.59226 0.77003 0.0
C2627 C 0.33214 0.53502 0.78243 0.0
C2628 C 0.34738 0.53949 0.77631 0.0
C2629 C 0.32106 0.54681 0.78679 0.0
C2630 C 0.31216 0.5901 0.77969 0.0
H2631 H 0.23402 0.61174 0.798 0.0
H2632 H 0.25583 0.59232 0.79507 0.0
H2633 H 0.29986 0.61209 0.77492 0.0
H2634 H 0.36333 0.55981 0.77071 0.0
H2635 H 0.34433 0.58046 0.779 0.0
H2636 H 0.30131 0.56303 0.80863 0.0
C2637 C 0.25891 0.60509 0.79655 0.0
C2638 C 0.30016 0.60145 0.78239 0.0
C2639 C 0.24646 0.61618 0.79811 0.0
C2640 C 0.35161 0.55601 0.77528 0.0
C2641 C 0.34063 0.56784 0.7799 0.0
C2642 C 0.30109 0.57357 0.80103 0.0
C2643 C 0.27516 0.61048 0.7965 0.0
C2644 C 0.28831 0.5988 0.7942 0.0
C2645 C 0.32506 0.56341 0.7854 0.0
C2646 C 0.31277 0.57594 0.78891 0.0
H2647 H 0.26941 0.65097 0.80146 0.0
H2648 H 0.29119 0.63158 0.79835 0.0
H2649 H 0.28002 0.58259 0.81285 0.0
H2650 H 0.32847 0.52237 0.78325 0.0
H2651 H 0.30916 0.54284 0.79069 0.0
C2652 C 0.90877 0.4648 0.4889 0.0
C2653 C 0.90825 0.48096 0.48397 0.0
C2654 C 0.89448 0.45624 0.49259 0.0
C2655 C 0.85032 0.4622 0.50052 0.0
H2656 H 0.84723 0.41624 0.49026 0.0
C2657 C 0.79097 0.42475 0.48982 0.0
C2658 C 0.78913 0.41046 0.4987 0.0
C2659 C 0.80547 0.43377 0.49046 0.0
C2660 C 0.84802 0.42904 0.49335 0.0
H2661 H 0.89257 0.50081 0.47874 0.0
H2662 H 0.86759 0.48575 0.48428 0.0
H2663 H 0.87269 0.431 0.486 0.0
H2664 H 0.8009 0.3945 0.51534 0.0
H2665 H 0.82659 0.41007 0.51598 0.0
H2666 H 0.82521 0.46022 0.50687 0.0
C2667 C 0.87894 0.47975 0.486 0.0
C2668 C 0.86263 0.43753 0.49099 0.0
C2669 C 0.89325 0.48839 0.48266 0.0
C2670 C 0.80196 0.40554 0.50849 0.0
C2671 C 0.81664 0.41436 0.5088 0.0
C2672 C 0.83562 0.45376 0.50252 0.0
C2673 C 0.87933 0.46355 0.49108 0.0
C2674 C 0.86397 0.45429 0.4944 0.0
C2675 C 0.81853 0.42846 0.49967 0.0
C2676 C 0.83434 0.43714 0.49885 0.0
H2677 H 0.92025 0.45889 0.49014 0.0
H2678 H 0.89538 0.44394 0.49675 0.0
H2679 H 0.8509 0.47497 0.5037 0.0
H2680 H 0.78126 0.42881 0.48219 0.0
H2681 H 0.8067 0.44456 0.48326 0.0
C2682 C 0.76517 0.89443 0.794 0.0
C2683 C 0.76143 0.8778 0.79513 0.0
C2684 C 0.75287 0.90554 0.7918 0.0
C2685 C 0.71221 0.90908 0.77534 0.0
H2686 H 0.70993 0.94772 0.80234 0.0
C2687 C 0.65977 0.95314 0.76847 0.0
C2688 C 0.66348 0.96978 0.76995 0.0
C2689 C 0.67112 0.9417 0.77286 0.0
C2690 C 0.71049 0.93712 0.79454 0.0
H2691 H 0.74201 0.8597 0.79464 0.0
H2692 H 0.72053 0.87911 0.79048 0.0
H2693 H 0.73126 0.92838 0.80696 0.0
H2694 H 0.68186 0.98753 0.77742 0.0
H2695 H 0.70185 0.96768 0.78452 0.0
H2696 H 0.69192 0.91794 0.76249 0.0
C2697 C 0.73295 0.88354 0.79143 0.0
C2698 C 0.72268 0.92602 0.79725 0.0
C2699 C 0.7452 0.87247 0.7939 0.0
C2700 C 0.67861 0.97477 0.77624 0.0
C2701 C 0.69006 0.96335 0.7804 0.0
C2702 C 0.70017 0.92028 0.77247 0.0
C2703 C 0.73666 0.90019 0.79041 0.0
C2704 C 0.72366 0.9119 0.78767 0.0
C2705 C 0.68655 0.94664 0.77857 0.0
C2706 C 0.69913 0.93448 0.78202 0.0
H2707 H 0.77757 0.89886 0.79502 0.0
H2708 H 0.75606 0.91831 0.79094 0.0
H2709 H 0.71281 0.89838 0.76767 0.0
H2710 H 0.64815 0.94893 0.76377 0.0
H2711 H 0.6678 0.92897 0.77164 0.0
C2712 C 0.62623 0.50609 0.99473 0.0
C2713 C 0.61168 0.51222 0.98876 0.0
C2714 C 0.63997 0.51619 0.99663 0.0
C2715 C 0.65854 0.55402 0.98201 0.0
H2716 H 0.68382 0.55337 0.02146 0.0
C2717 C 0.71752 0.59211 0.98909 0.0
C2718 C 0.72013 0.60001 0.00399 0.0
C2719 C 0.70511 0.58043 0.98727 0.0
C2720 C 0.67685 0.55378 0.0104 0.0
H2721 H 0.6002 0.53394 0.98038 0.0
H2722 H 0.62422 0.55139 0.98337 0.0
H2723 H 0.66029 0.53514 0.0182 0.0
H2724 H 0.71276 0.60129 0.02894 0.0
H2725 H 0.6906 0.58129 0.02574 0.0
H2726 H 0.67498 0.5725 0.97411 0.0
C2727 C 0.62501 0.53873 0.98646 0.0
C2728 C 0.66347 0.54321 0.00848 0.0
C2729 C 0.61125 0.52869 0.98469 0.0
C2730 C 0.71071 0.59551 0.01726 0.0
C2731 C 0.69814 0.58396 0.01542 0.0
C2732 C 0.67199 0.56444 0.98385 0.0
C2733 C 0.63951 0.5326 0.99246 0.0
C2734 C 0.65407 0.54336 0.99433 0.0
C2735 C 0.69507 0.57638 1.00034 0.0
C2736 C 0.68121 0.56465 0.99815 0.0
H2737 H 0.62711 0.49343 0.99774 0.0
H2738 H 0.65103 0.51109 0.00111 0.0
H2739 H 0.65166 0.55425 0.97088 0.0
H2740 H 0.72507 0.59501 0.97883 0.0
H2741 H 0.7034 0.5746 0.97558 0.0
C2742 C 0.25237 0.62768 0.21046 0.0
C2743 C 0.25627 0.63064 0.19427 0.0
C2744 C 0.24069 0.61593 0.21439 0.0
C2745 C 0.21868 0.57954 0.19857 0.0
H2746 H 0.18922 0.5894 0.23339 0.0
C2747 C 0.16496 0.53662 0.2156 0.0
C2748 C 0.16154 0.53534 0.23208 0.0
C2749 C 0.17621 0.54828 0.21027 0.0
C2750 C 0.19736 0.58638 0.22369 0.0
H2751 H 0.25108 0.62335 0.16951 0.0
H2752 H 0.23039 0.60299 0.17639 0.0
H2753 H 0.2092 0.60965 0.22526 0.0
H2754 H 0.16801 0.54403 0.25604 0.0
H2755 H 0.18779 0.56418 0.24689 0.0
H2756 H 0.20682 0.5562 0.19707 0.0
C2757 C 0.23652 0.60969 0.18604 0.0
C2758 C 0.20889 0.598 0.21906 0.0
C2759 C 0.24825 0.62147 0.1821 0.0
C2760 C 0.17006 0.54525 0.24321 0.0
C2761 C 0.18137 0.55678 0.23795 0.0
C2762 C 0.20708 0.5679 0.20318 0.0
C2763 C 0.23253 0.60687 0.20224 0.0
C2764 C 0.21982 0.59467 0.20657 0.0
C2765 C 0.18448 0.55858 0.2214 0.0
C2766 C 0.19637 0.57113 0.21591 0.0
H2767 H 0.25814 0.63465 0.22014 0.0
H2768 H 0.23808 0.61392 0.227 0.0
H2769 H 0.22703 0.57652 0.18902 0.0
H2770 H 0.1587 0.52883 0.20686 0.0
H2771 H 0.17825 0.54938 0.19744 0.0
C2772 C 0.90908 0.54578 0.0261 0.0
C2773 C 0.90857 0.52916 0.02198 0.0
C2774 C 0.8959 0.55553 0.0229 0.0
C2775 C 0.85942 0.55911 0.99798 0.0
H2776 H 0.84394 0.58514 0.03376 0.0
C2777 C 0.79811 0.5917 0.99582 0.0
C2778 C 0.79675 0.60641 0.00438 0.0
C2779 C 0.81219 0.58269 0.99699 0.0
C2780 C 0.84823 0.57822 0.02351 0.0
H2781 H 0.89376 0.50996 0.01084 0.0
H2782 H 0.87096 0.52715 0.00488 0.0
H2783 H 0.86781 0.56891 0.03724 0.0
H2784 H 0.80932 0.62361 0.02029 0.0
H2785 H 0.83406 0.60834 0.02182 0.0
H2786 H 0.84003 0.56861 0.98412 0.0
C2787 C 0.88161 0.53254 0.01064 0.0
C2788 C 0.86189 0.56885 0.02556 0.0
C2789 C 0.89472 0.52272 0.01402 0.0
C2790 C 0.80995 0.61222 0.01367 0.0
C2791 C 0.8241 0.60337 0.01465 0.0
C2792 C 0.84585 0.56868 0.99584 0.0
C2793 C 0.88196 0.54898 0.0153 0.0
C2794 C 0.86761 0.55915 0.01285 0.0
C2795 C 0.82533 0.58832 0.00657 0.0
C2796 C 0.84002 0.57835 0.0086 0.0
H2797 H 0.91965 0.55129 0.03188 0.0
H2798 H 0.8966 0.56822 0.0264 0.0
H2799 H 0.86365 0.55184 0.98793 0.0
H2800 H 0.7881 0.58686 0.98863 0.0
H2801 H 0.81255 0.57109 0.99074 0.0
C2802 C 0.11188 0.98865 0.01121 0.0
C2803 C 0.11013 0.9971 0.02588 0.0
C2804 C 0.12485 0.97836 0.00885 0.0
C2805 C 0.15747 0.95708 0.03085 0.0
H2806 H 0.17553 0.95377 0.98792 0.0
C2807 C 0.20622 0.91038 0.01442 0.0
C2808 C 0.21758 0.91449 0.00252 0.0
C2809 C 0.19337 0.9206 0.01785 0.0
C2810 C 0.17085 0.95469 1.00007 0.0
H2811 H 0.1205 0.00153 0.04958 0.0
H2812 H 0.14358 0.98411 0.0453 0.0
H2813 H 0.15313 0.97148 0.9928 0.0
H2814 H 0.22483 0.93284 0.98541 0.0
H2815 H 0.203 0.95098 0.99188 0.0
H2816 H 0.1758 0.9409 0.03826 0.0
C2817 C 0.13472 0.98497 0.03574 0.0
C2818 C 0.15772 0.96467 0.00281 0.0
C2819 C 0.12156 0.99505 0.03819 0.0
C2820 C 0.21614 0.92925 0.99452 0.0
C2821 C 0.20351 0.9396 0.99815 0.0
C2822 C 0.17081 0.94729 0.02816 0.0
C2823 C 0.13658 0.9765 0.02101 0.0
C2824 C 0.15075 0.96594 0.01822 0.0
C2825 C 0.19174 0.9353 0.00965 0.0
C2826 C 0.17767 0.94591 0.0127 0.0
H2827 H 0.10309 0.98986 0.00161 0.0
H2828 H 0.12558 0.97176 0.9975 0.0
H2829 H 0.15236 0.95754 0.04284 0.0
H2830 H 0.20694 0.89902 0.0207 0.0
H2831 H 0.18447 0.91672 0.02661 0.0
loop_
_geom_bond_atom_site_label_1
_geom_bond_atom_site_label_2
_geom_bond_distance
_geom_bond_site_symmetry_2
_ccdc_geom_bond_type
C0 C1 1.391 . S
C0 C4 1.391 1_556 S
C0 H42 0.948 . S
C1 C0 1.391 . S
C1 C2 1.391 1_556 S
C2 C1 1.391 1_554 S
C2 H58 0.947 . S
C2 C59 1.392 . S
C3 C4 1.391 . S
C3 C7 1.397 . S
C3 C59 1.419 . S
C4 C0 1.391 1_554 S
C4 C3 1.391 . S
C4 C5 1.399 . S
C5 C4 1.399 . S
C5 C8 1.396 . S
C5 C17 1.453 . S
C5 C18 1.684 1_554 S
H6 C30 0.948 . S
C7 C3 1.397 . S
C7 C8 1.394 . S
C7 C26 1.723 . S
C8 C5 1.396 . S
C8 C7 1.394 . S
C8 C38 1.723 . S
H9 C32 0.947 . S
H10 C33 0.948 . S
H11 C39 0.982 . S
H12 C40 0.979 . S
H13 C40 0.980 . S
H14 C40 0.983 . S
H15 C39 0.979 1_565 S
H16 C39 0.977 . S
C17 C5 1.453 . S
C17 H46 0.982 . S
C17 H47 0.979 1_554 S
C17 H48 0.977 . S
C18 C5 1.684 1_556 S
C18 H43 0.979 . S
C18 H44 0.980 . S
C18 H45 0.983 . S
C19 C20 1.391 . S
C19 C24 1.391 1_655 S
C19 H49 0.948 . S
C20 C19 1.391 . S
C20 C21 1.391 1_655 S
C21 C20 1.391 1_455 S
C21 C22 1.392 . S
C21 H50 0.947 . S
C22 C21 1.392 . S
C22 C23 1.419 . S
C22 H51 0.948 . S
C23 C22 1.419 . S
C23 C24 1.391 . S
C23 C27 1.397 . S
C24 C19 1.391 1_455 S
C24 C23 1.391 . S
C24 C25 1.399 . S
C25 C24 1.399 . S
C25 C26 1.396 . S
C25 C28 1.453 . S
C25 C29 1.684 1_455 S
C26 C7 1.723 . S
C26 C25 1.396 . S
C26 C27 1.394 . S
C27 C23 1.397 . S
C27 C26 1.394 . S
C27 C37 1.723 . S
C28 C25 1.453 . S
C28 H52 0.982 . S
C28 H53 0.979 1_455 S
C28 H54 0.977 . S
C29 C25 1.684 1_655 S
C29 H55 0.979 . S
C29 H56 0.980 . S
C29 H57 0.983 . S
C30 H6 0.948 . S
C30 C31 1.391 . S
C30 C35 1.391 1_565 S
C31 C30 1.391 . S
C31 C32 1.391 1_565 S
C32 H9 0.947 . S
C32 C31 1.391 1_545 S
C32 C33 1.392 . S
C33 H10 0.948 . S
C33 C32 1.392 . S
C33 C34 1.419 . S
C34 C33 1.419 . S
C34 C35 1.391 . S
C34 C38 1.397 . S
C35 C30 1.391 1_545 S
C35 C34 1.391 . S
C35 C36 1.399 . S
C36 C35 1.399 . S
C36 C37 1.396 . S
C36 C39 1.453 . S
C36 C40 1.684 1_545 S
C37 C27 1.723 . S
C37 C36 1.396 . S
C37 C38 1.394 . S
C38 C8 1.723 . S
C38 C34 1.397 . S
C38 C37 1.394 . S
C39 H11 0.982 . S
C39 H15 0.979 1_545 S
C39 H16 0.977 . S
C39 C36 1.453 . S
C40 H12 0.979 . S
C40 H13 0.980 . S
C40 H14 0.983 . S
C40 C36 1.684 1_565 S
H41 C59 0.948 . S
H42 C0 0.948 . S
H43 C18 0.979 . S
H44 C18 0.980 . S
H45 C18 0.983 . S
H46 C17 0.982 . S
H47 C17 0.979 1_556 S
H48 C17 0.977 . S
H49 C19 0.948 . S
H50 C21 0.947 . S
H51 C22 0.948 . S
H52 C28 0.982 . S
H53 C28 0.979 1_655 S
H54 C28 0.977 . S
H55 C29 0.979 . S
H56 C29 0.980 . S
H57 C29 0.983 . S
H58 C2 0.947 . S
C59 C2 1.392 . S
C59 C3 1.419 . S
C59 H41 0.948 . S
C60 C61 1.391 . S
C60 C64 1.391 . S
C60 H102 0.948 . S
C61 C60 1.391 . S
C61 C62 1.391 . S
C62 C61 1.391 . S
C62 H118 0.947 . S
C62 C119 1.392 . S
C63 C64 1.391 . S
C63 C67 1.397 . S
C63 C119 1.419 . S
C64 C60 1.391 . S
C64 C63 1.391 . S
C64 C65 1.399 . S
C65 C64 1.399 . S
C65 C68 1.396 . S
C65 C77 1.453 . S
C65 C78 1.684 . S
H66 C90 0.948 . S
C67 C63 1.397 . S
C67 C68 1.394 . S
C67 C86 1.723 . S
C68 C65 1.396 . S
C68 C67 1.394 . S
C68 C98 1.723 . S
H69 C92 0.947 . S
H70 C93 0.948 . S
H71 C99 0.982 . S
H72 C100 0.979 . S
H73 C100 0.980 . S
H74 C100 0.983 . S
H75 C99 0.979 . S
H76 C99 0.977 . S
C77 C65 1.453 . S
C77 H106 0.982 . S
C77 H107 0.979 . S
C77 H108 0.977 . S
C78 C65 1.684 . S
C78 H103 0.979 . S
C78 H104 0.980 . S
C78 H105 0.983 . S
C79 C80 1.391 . S
C79 C84 1.391 . S
C79 H109 0.948 . S
C80 C79 1.391 . S
C80 C81 1.391 . S
C81 C80 1.391 . S
C81 C82 1.392 . S
C81 H110 0.947 . S
C82 C81 1.392 . S
C82 C83 1.419 . S
C82 H111 0.948 . S
C83 C82 1.419 . S
C83 C84 1.391 . S
C83 C87 1.397 . S
C84 C79 1.391 . S
C84 C83 1.391 . S
C84 C85 1.399 . S
C85 C84 1.399 . S
C85 C86 1.396 . S
C85 C88 1.453 . S
C85 C89 1.684 . S
C86 C67 1.723 . S
C86 C85 1.396 . S
C86 C87 1.394 . S
C87 C83 1.397 . S
C87 C86 1.394 . S
C87 C97 1.723 . S
C88 C85 1.453 . S
C88 H112 0.982 . S
C88 H113 0.979 . S
C88 H114 0.977 . S
C89 C85 1.684 . S
C89 H115 0.979 . S
C89 H116 0.980 . S
C89 H117 0.983 . S
C90 H66 0.948 . S
C90 C91 1.391 . S
C90 C95 1.391 . S
C91 C90 1.391 . S
C91 C92 1.391 . S
C92 H69 0.947 . S
C92 C91 1.391 . S
C92 C93 1.392 . S
C93 H70 0.948 . S
C93 C92 1.392 . S
C93 C94 1.419 . S
C94 C93 1.419 . S
C94 C95 1.391 . S
C94 C98 1.397 . S
C95 C90 1.391 . S
C95 C94 1.391 . S
C95 C96 1.399 . S
C96 C95 1.399 . S
C96 C97 1.396 . S
C96 C99 1.453 . S
C96 C100 1.684 . S
C97 C87 1.723 . S
C97 C96 1.396 . S
C97 C98 1.394 . S
C98 C68 1.723 . S
C98 C94 1.397 . S
C98 C97 1.394 . S
C99 H71 0.982 . S
C99 H75 0.979 . S
C99 H76 0.977 . S
C99 C96 1.453 . S
C100 H72 0.979 . S
C100 H73 0.980 . S
C100 H74 0.983 . S
C100 C96 1.684 . S
H101 C119 0.948 . S
H102 C60 0.948 . S
H103 C78 0.979 . S
H104 C78 0.980 . S
H105 C78 0.983 . S
H106 C77 0.982 . S
H107 C77 0.979 . S
H108 C77 0.977 . S
H109 C79 0.948 . S
H110 C81 0.947 . S
H111 C82 0.948 . S
H112 C88 0.982 . S
H113 C88 0.979 . S
H114 C88 0.977 . S
H115 C89 0.979 . S
H116 C89 0.980 . S
H117 C89 0.983 . S
H118 C62 0.947 . S
C119 C62 1.392 . S
C119 C63 1.419 . S
C119 H101 0.948 . S
C120 C121 1.391 1_554 S
C120 C124 1.391 . S
C120 H162 0.948 . S
C121 C120 1.391 1_556 S
C121 C122 1.391 . S
C122 C121 1.391 . S
C122 H178 0.947 . S
C122 C179 1.392 . S
C123 C124 1.391 . S
C123 C127 1.397 . S
C123 C179 1.419 1_554 S
C124 C120 1.391 . S
C124 C123 1.391 . S
C124 C125 1.399 . S
C125 C124 1.399 . S
C125 C128 1.396 . S
C125 C137 1.453 . S
C125 C138 1.684 1_655 S
H126 C150 0.960 . S
C127 C123 1.397 . S
C127 C128 1.394 . S
C127 C146 1.723 . S
C128 C125 1.396 . S
C128 C127 1.394 . S
C128 C158 1.723 . S
H129 C152 0.947 . S
H130 C153 0.948 . S
H131 C159 0.982 . S
H132 C160 0.979 . S
H133 C160 0.980 . S
H134 C160 0.983 . S
H135 C159 0.979 . S
H136 C159 0.977 . S
C137 C125 1.453 . S
C137 H166 0.982 . S
C137 H167 0.979 . S
C137 H168 0.977 . S
C138 C125 1.684 1_455 S
C138 H163 0.979 . S
C138 H164 0.980 . S
C138 H165 0.983 . S
C139 C140 1.391 . S
C139 C144 1.391 . S
C139 H169 0.948 . S
C140 C139 1.391 . S
C140 C141 1.391 . S
C141 C140 1.391 . S
C141 C142 1.392 . S
C141 H170 0.947 . S
C142 C141 1.392 . S
C142 C143 1.419 . S
C142 H171 0.948 . S
C143 C142 1.419 . S
C143 C144 1.391 . S
C143 C147 1.397 . S
C144 C139 1.391 . S
C144 C143 1.391 . S
C144 C145 1.399 . S
C145 C144 1.399 . S
C145 C146 1.396 . S
C145 C148 1.453 . S
C145 C149 1.684 1_554 S
C146 C127 1.723 . S
C146 C145 1.396 . S
C146 C147 1.394 . S
C147 C143 1.397 . S
C147 C146 1.394 . S
C147 C157 1.723 . S
C148 C145 1.453 . S
C148 H172 0.982 . S
C148 H173 0.979 . S
C148 H174 0.977 . S
C149 C145 1.684 1_556 S
C149 H175 0.979 . S
C149 H176 0.980 . S
C149 H177 0.983 . S
C150 H126 0.960 . S
C150 C151 1.356 1_655 S
C150 C155 1.417 . S
C151 C150 1.356 1_455 S
C151 C152 1.391 . S
C152 H129 0.947 . S
C152 C151 1.391 . S
C152 C153 1.392 . S
C153 H130 0.948 . S
C153 C152 1.392 . S
C153 C154 1.419 1_455 S
C154 C153 1.419 1_655 S
C154 C155 1.391 . S
C154 C158 1.397 . S
C155 C150 1.417 . S
C155 C154 1.391 . S
C155 C156 1.399 . S
C156 C155 1.399 . S
C156 C157 1.396 . S
C156 C159 1.453 . S
C156 C160 1.684 . S
C157 C147 1.723 . S
C157 C156 1.396 . S
C157 C158 1.394 . S
C158 C128 1.723 . S
C158 C154 1.397 . S
C158 C157 1.394 . S
C159 H131 0.982 . S
C159 H135 0.979 . S
C159 H136 0.977 . S
C159 C156 1.453 . S
C160 H132 0.979 . S
C160 H133 0.980 . S
C160 H134 0.983 . S
C160 C156 1.684 . S
H161 C179 0.948 . S
H162 C120 0.948 . S
H163 C138 0.979 . S
H164 C138 0.980 . S
H165 C138 0.983 . S
H166 C137 0.982 . S
H167 C137 0.979 . S
H168 C137 0.977 . S
H169 C139 0.948 . S
H170 C141 0.947 . S
H171 C142 0.948 . S
H172 C148 0.982 . S
H173 C148 0.979 . S
H174 C148 0.977 . S
H175 C149 0.979 . S
H176 C149 0.980 . S
H177 C149 0.983 . S
H178 C122 0.947 . S
C179 C122 1.392 . S
C179 C123 1.419 1_556 S
C179 H161 0.948 . S
C180 C181 1.391 . S
C180 C184 1.391 . S
C180 H222 0.948 . S
C181 C180 1.391 . S
C181 C182 1.391 . S
C182 C181 1.391 . S
C182 H238 0.947 . S
C182 C239 1.392 . S
C183 C184 1.391 . S
C183 C187 1.397 . S
C183 C239 1.419 . S
C184 C180 1.391 . S
C184 C183 1.391 . S
C184 C185 1.399 . S
C185 C184 1.399 . S
C185 C188 1.396 . S
C185 C197 1.453 . S
C185 C198 1.684 . S
H186 C210 0.948 . S
C187 C183 1.397 . S
C187 C188 1.394 . S
C187 C206 1.723 . S
C188 C185 1.396 . S
C188 C187 1.394 . S
C188 C218 1.723 . S
H189 C212 0.947 . S
H190 C213 0.948 . S
H191 C219 0.982 . S
H192 C220 0.979 . S
H193 C220 0.980 . S
H194 C220 0.983 . S
H195 C219 0.979 . S
H196 C219 0.977 . S
C197 C185 1.453 . S
C197 H226 0.982 . S
C197 H227 0.979 . S
C197 H228 0.977 . S
C198 C185 1.684 . S
C198 H223 0.979 . S
C198 H224 0.980 . S
C198 H225 0.983 . S
C199 C200 1.391 . S
C199 C204 1.391 . S
C199 H229 0.948 . S
C200 C199 1.391 . S
C200 C201 1.391 . S
C201 C200 1.391 . S
C201 C202 1.392 . S
C201 H230 0.947 . S
C202 C201 1.392 . S
C202 C203 1.419 . S
C202 H231 0.948 . S
C203 C202 1.419 . S
C203 C204 1.391 . S
C203 C207 1.397 . S
C204 C199 1.391 . S
C204 C203 1.391 . S
C204 C205 1.399 . S
C205 C204 1.399 . S
C205 C206 1.396 . S
C205 C208 1.453 . S
C205 C209 1.684 . S
C206 C187 1.723 . S
C206 C205 1.396 . S
C206 C207 1.394 . S
C207 C203 1.397 . S
C207 C206 1.394 . S
C207 C217 1.723 . S
C208 C205 1.453 . S
C208 H232 0.982 . S
C208 H233 0.979 . S
C208 H234 0.977 . S
C209 C205 1.684 . S
C209 H235 0.979 . S
C209 H236 0.980 . S
C209 H237 0.983 . S
C210 H186 0.948 . S
C210 C211 1.391 . S
C210 C215 1.391 . S
C211 C210 1.391 . S
C211 C212 1.391 . S
C212 H189 0.947 . S
C212 C211 1.391 . S
C212 C213 1.392 . S
C213 H190 0.948 . S
C213 C212 1.392 . S
C213 C214 1.419 . S
C214 C213 1.419 . S
C214 C215 1.391 . S
C214 C218 1.397 . S
C215 C210 1.391 . S
C215 C214 1.391 . S
C215 C216 1.399 . S
C216 C215 1.399 . S
C216 C217 1.396 . S
C216 C219 1.453 . S
C216 C220 1.684 . S
C217 C207 1.723 . S
C217 C216 1.396 . S
C217 C218 1.394 . S
C218 C188 1.723 . S
C218 C214 1.397 . S
C218 C217 1.394 . S
C219 H191 0.982 . S
C219 H195 0.979 . S
C219 H196 0.977 . S
C219 C216 1.453 . S
C220 H192 0.979 . S
C220 H193 0.980 . S
C220 H194 0.983 . S
C220 C216 1.684 . S
H221 C239 0.948 . S
H222 C180 0.948 . S
H223 C198 0.979 . S
H224 C198 0.980 . S
H225 C198 0.983 . S
H226 C197 0.982 . S
H227 C197 0.979 . S
H228 C197 0.977 . S
H229 C199 0.948 . S
H230 C201 0.947 . S
H231 C202 0.948 . S
H232 C208 0.982 . S
H233 C208 0.979 . S
H234 C208 0.977 . S
H235 C209 0.979 . S
H236 C209 0.980 . S
H237 C209 0.983 . S
H238 C182 0.947 . S
C239 C182 1.392 . S
C239 C183 1.419 . S
C239 H221 0.948 . S
C240 C241 1.391 . S
C240 C244 1.391 . S
C240 H282 0.948 . S
C241 C240 1.391 . S
C241 C242 1.391 . S
C242 C241 1.391 . S
C242 H298 0.947 . S
C242 C299 1.392 . S
C243 C244 1.391 . S
C243 C247 1.397 . S
C243 C299 1.419 . S
C244 C240 1.391 . S
C244 C243 1.391 . S
C244 C245 1.399 . S
C245 C244 1.399 . S
C245 C248 1.396 . S
C245 C257 1.453 . S
C245 C258 1.684 . S
H246 C270 0.948 . S
C247 C243 1.397 . S
C247 C248 1.394 . S
C247 C266 1.723 . S
C248 C245 1.396 . S
C248 C247 1.394 . S
C248 C278 1.723 . S
H249 C272 0.944 . S
H250 C273 0.948 . S
H251 C279 0.982 . S
H252 C280 0.979 1_565 S
H253 C280 0.980 . S
H254 C280 0.983 . S
H255 C279 0.979 . S
H256 C279 0.977 . S
C257 C245 1.453 . S
C257 H286 0.982 . S
C257 H287 0.979 . S
C257 H288 0.977 . S
C258 C245 1.684 . S
C258 H283 0.979 . S
C258 H284 0.980 . S
C258 H285 0.983 . S
C259 C260 1.391 . S
C259 C264 1.391 1_655 S
C259 H289 0.948 . S
C260 C259 1.391 . S
C260 C261 1.391 1_655 S
C261 C260 1.391 1_455 S
C261 C262 1.392 . S
C261 H290 0.947 1_565 S
C262 C261 1.392 . S
C262 C263 1.419 . S
C262 H291 0.976 . S
C263 C262 1.419 . S
C263 C264 1.391 . S
C263 C267 1.397 . S
C264 C259 1.391 1_455 S
C264 C263 1.391 . S
C264 C265 1.399 . S
C265 C264 1.399 . S
C265 C266 1.396 . S
C265 C268 1.453 1_455 S
C265 C269 1.684 . S
C266 C247 1.723 . S
C266 C265 1.396 . S
C266 C267 1.394 . S
C267 C263 1.397 . S
C267 C266 1.394 . S
C267 C277 1.723 . S
C268 C265 1.453 1_655 S
C268 H292 0.982 . S
C268 H293 0.979 . S
C268 H294 0.977 . S
C269 C265 1.684 . S
C269 H295 0.979 . S
C269 H296 0.980 . S
C269 H297 0.983 1_455 S
C270 H246 0.948 . S
C270 C271 1.391 . S
C270 C275 1.391 . S
C271 C270 1.391 . S
C271 C272 1.390 1_545 S
C272 H249 0.944 . S
C272 C271 1.390 1_565 S
C272 C273 1.392 . S
C273 H250 0.948 . S
C273 C272 1.392 . S
C273 C274 1.419 . S
C274 C273 1.419 . S
C274 C275 1.391 1_565 S
C274 C278 1.397 . S
C275 C270 1.391 . S
C275 C274 1.391 1_545 S
C275 C276 1.401 . S
C276 C275 1.401 . S
C276 C277 1.376 1_545 S
C276 C279 1.478 . S
C276 C280 1.688 . S
C277 C267 1.723 . S
C277 C276 1.376 1_565 S
C277 C278 1.394 . S
C278 C248 1.723 . S
C278 C274 1.397 . S
C278 C277 1.394 . S
C279 H251 0.982 . S
C279 H255 0.979 . S
C279 H256 0.977 . S
C279 C276 1.478 . S
C280 H252 0.979 1_545 S
C280 H253 0.980 . S
C280 H254 0.983 . S
C280 C276 1.688 . S
H281 C299 0.948 . S
H282 C240 0.948 . S
H283 C258 0.979 . S
H284 C258 0.980 . S
H285 C258 0.983 . S
H286 C257 0.982 . S
H287 C257 0.979 . S
H288 C257 0.977 . S
H289 C259 0.948 . S
H290 C261 0.947 1_545 S
H291 C262 0.976 . S
H292 C268 0.982 . S
H293 C268 0.979 . S
H294 C268 0.977 . S
H295 C269 0.979 . S
H296 C269 0.980 . S
H297 C269 0.983 1_655 S
H298 C242 0.947 . S
C299 C242 1.392 . S
C299 C243 1.419 . S
C299 H281 0.948 . S
C300 C301 1.391 . S
C300 C304 1.391 . S
C300 H342 0.948 . S
C301 C300 1.391 . S
C301 C302 1.391 . S
C302 C301 1.391 . S
C302 H358 0.947 . S
C302 C359 1.392 . S
C303 C304 1.391 . S
C303 C307 1.397 . S
C303 C359 1.419 . S
C304 C300 1.391 . S
C304 C303 1.391 . S
C304 C305 1.399 . S
C305 C304 1.399 . S
C305 C308 1.396 . S
C305 C317 1.453 . S
C305 C318 1.684 . S
H306 C330 0.948 . S
C307 C303 1.397 . S
C307 C308 1.394 . S
C307 C326 1.723 . S
C308 C305 1.396 . S
C308 C307 1.394 . S
C308 C338 1.723 . S
H309 C332 0.947 . S
H310 C333 0.948 . S
H311 C339 0.982 . S
H312 C340 0.979 . S
H313 C340 0.980 . S
H314 C340 0.983 . S
H315 C339 0.979 . S
H316 C339 0.977 . S
C317 C305 1.453 . S
C317 H346 0.982 . S
C317 H347 0.979 . S
C317 H348 0.977 . S
C318 C305 1.684 . S
C318 H343 0.979 . S
C318 H344 0.980 . S
C318 H345 0.983 . S
C319 C320 1.391 . S
C319 C324 1.391 . S
C319 H349 0.948 . S
C320 C319 1.391 . S
C320 C321 1.391 . S
C321 C320 1.391 . S
C321 C322 1.392 . S
C321 H350 0.947 . S
C322 C321 1.392 . S
C322 C323 1.419 . S
C322 H351 0.948 . S
C323 C322 1.419 . S
C323 C324 1.391 . S
C323 C327 1.397 . S
C324 C319 1.391 . S
C324 C323 1.391 . S
C324 C325 1.399 . S
C325 C324 1.399 . S
C325 C326 1.396 . S
C325 C328 1.453 . S
C325 C329 1.684 . S
C326 C307 1.723 . S
C326 C325 1.396 . S
C326 C327 1.394 . S
C327 C323 1.397 . S
C327 C326 1.394 . S
C327 C337 1.723 . S
C328 C325 1.453 . S
C328 H352 0.982 . S
C328 H353 0.979 . S
C328 H354 0.977 . S
C329 C325 1.684 . S
C329 H355 0.979 . S
C329 H356 0.980 . S
C329 H357 0.983 . S
C330 H306 0.948 . S
C330 C331 1.391 . S
C330 C335 1.391 . S
C331 C330 1.391 . S
C331 C332 1.391 . S
C332 H309 0.947 . S
C332 C331 1.391 . S
C332 C333 1.392 . S
C333 H310 0.948 . S
C333 C332 1.392 . S
C333 C334 1.419 . S
C334 C333 1.419 . S
C334 C335 1.391 . S
C334 C338 1.397 . S
C335 C330 1.391 . S
C335 C334 1.391 . S
C335 C336 1.399 . S
C336 C335 1.399 . S
C336 C337 1.396 . S
C336 C339 1.453 . S
C336 C340 1.684 . S
C337 C327 1.723 . S
C337 C336 1.396 . S
C337 C338 1.394 . S
C338 C308 1.723 . S
C338 C334 1.397 . S
C338 C337 1.394 . S
C339 H311 0.982 . S
C339 H315 0.979 . S
C339 H316 0.977 . S
C339 C336 1.453 . S
C340 H312 0.979 . S
C340 H313 0.980 . S
C340 H314 0.983 . S
C340 C336 1.684 . S
H341 C359 0.948 . S
H342 C300 0.948 . S
H343 C318 0.979 . S
H344 C318 0.980 . S
H345 C318 0.983 . S
H346 C317 0.982 . S
H347 C317 0.979 . S
H348 C317 0.977 . S
H349 C319 0.948 . S
H350 C321 0.947 . S
H351 C322 0.948 . S
H352 C328 0.982 . S
H353 C328 0.979 . S
H354 C328 0.977 . S
H355 C329 0.979 . S
H356 C329 0.980 . S
H357 C329 0.983 . S
H358 C302 0.947 . S
C359 C302 1.392 . S
C359 C303 1.419 . S
C359 H341 0.948 . S
C360 C361 1.391 . S
C360 C364 1.391 . S
C360 H402 0.948 . S
C361 C360 1.391 . S
C361 C362 1.391 . S
C362 C361 1.391 . S
C362 H418 0.947 . S
C362 C419 1.392 . S
C363 C364 1.391 . S
C363 C367 1.397 . S
C363 C419 1.419 . S
C364 C360 1.391 . S
C364 C363 1.391 . S
C364 C365 1.399 . S
C365 C364 1.399 . S
C365 C368 1.396 . S
C365 C377 1.453 . S
C365 C378 1.684 . S
H366 C390 0.995 . S
C367 C363 1.397 . S
C367 C368 1.394 . S
C367 C386 1.723 . S
C368 C365 1.396 . S
C368 C367 1.394 . S
C368 C398 1.723 . S
H369 C392 0.947 . S
H370 C393 0.948 . S
H371 C399 0.982 . S
H372 C400 0.979 . S
H373 C400 0.980 . S
H374 C400 0.983 . S
H375 C399 0.979 1_455 S
H376 C399 0.951 1_455 S
C377 C365 1.453 . S
C377 H406 0.982 . S
C377 H407 0.979 . S
C377 H408 0.977 . S
C378 C365 1.684 . S
C378 H403 0.979 . S
C378 H404 0.980 . S
C378 H405 0.983 . S
C379 C380 1.391 . S
C379 C384 1.391 1_455 S
C379 H409 0.939 1_455 S
C380 C379 1.391 . S
C380 C381 1.391 . S
C381 C380 1.391 . S
C381 C382 1.392 . S
C381 H410 0.947 . S
C382 C381 1.392 . S
C382 C383 1.419 1_455 S
C382 H411 0.948 . S
C383 C382 1.419 1_655 S
C383 C384 1.391 . S
C383 C387 1.397 . S
C384 C379 1.391 1_655 S
C384 C383 1.391 . S
C384 C385 1.399 . S
C385 C384 1.399 . S
C385 C386 1.396 . S
C385 C388 1.453 . S
C385 C389 1.684 . S
C386 C367 1.723 . S
C386 C385 1.396 . S
C386 C387 1.394 . S
C387 C383 1.397 . S
C387 C386 1.394 . S
C387 C397 1.723 . S
C388 C385 1.453 . S
C388 H412 0.982 . S
C388 H413 0.979 . S
C388 H414 0.977 . S
C389 C385 1.684 . S
C389 H415 0.979 . S
C389 H416 0.980 . S
C389 H417 0.983 . S
C390 H366 0.995 . S
C390 C391 1.391 . S
C390 C395 1.391 . S
C391 C390 1.391 . S
C391 C392 1.391 . S
C392 H369 0.947 . S
C392 C391 1.391 . S
C392 C393 1.392 . S
C393 H370 0.948 . S
C393 C392 1.392 . S
C393 C394 1.419 . S
C394 C393 1.419 . S
C394 C395 1.391 . S
C394 C398 1.397 . S
C395 C390 1.391 . S
C395 C394 1.391 . S
C395 C396 1.399 . S
C396 C395 1.399 . S
C396 C397 1.396 . S
C396 C399 1.453 . S
C396 C400 1.684 1_655 S
C397 C387 1.723 . S
C397 C396 1.396 . S
C397 C398 1.394 . S
C398 C368 1.723 . S
C398 C394 1.397 . S
C398 C397 1.394 . S
C399 H371 0.982 . S
C399 H375 0.979 1_655 S
C399 H376 0.951 1_655 S
C399 C396 1.453 . S
C400 H372 0.979 . S
C400 H373 0.980 . S
C400 H374 0.983 . S
C400 C396 1.684 1_455 S
H401 C419 0.948 . S
H402 C360 0.948 . S
H403 C378 0.979 . S
H404 C378 0.980 . S
H405 C378 0.983 . S
H406 C377 0.982 . S
H407 C377 0.979 . S
H408 C377 0.977 . S
H409 C379 0.939 1_655 S
H410 C381 0.947 . S
H411 C382 0.948 . S
H412 C388 0.982 . S
H413 C388 0.979 . S
H414 C388 0.977 . S
H415 C389 0.979 . S
H416 C389 0.980 . S
H417 C389 0.983 . S
H418 C362 0.947 . S
C419 C362 1.392 . S
C419 C363 1.419 . S
C419 H401 0.948 . S
C420 C421 1.391 . S
C420 C424 1.391 . S
C420 H462 0.948 . S
C421 C420 1.391 . S
C421 C422 1.391 . S
C422 C421 1.391 . S
C422 H478 0.947 . S
C422 C479 1.392 . S
C423 C424 1.391 . S
C423 C427 1.397 . S
C423 C479 1.419 . S
C424 C420 1.391 . S
C424 C423 1.391 . S
C424 C425 1.399 . S
C425 C424 1.399 . S
C425 C428 1.396 . S
C425 C437 1.453 . S
C425 C438 1.684 . S
H426 C450 0.948 . S
C427 C423 1.397 . S
C427 C428 1.394 . S
C427 C446 1.723 . S
C428 C425 1.396 . S
C428 C427 1.394 . S
C428 C458 1.723 . S
H429 C452 0.947 . S
H430 C453 0.948 . S
H431 C459 0.982 . S
H432 C460 0.979 . S
H433 C460 0.980 . S
H434 C460 0.983 . S
H435 C459 0.979 . S
H436 C459 0.977 . S
C437 C425 1.453 . S
C437 H466 0.982 . S
C437 H467 0.979 . S
C437 H468 0.977 . S
C438 C425 1.684 . S
C438 H463 0.979 . S
C438 H464 0.980 . S
C438 H465 0.983 . S
C439 C440 1.391 . S
C439 C444 1.391 . S
C439 H469 0.948 . S
C440 C439 1.391 . S
C440 C441 1.391 . S
C441 C440 1.391 . S
C441 C442 1.392 . S
C441 H470 0.947 . S
C442 C441 1.392 . S
C442 C443 1.419 . S
C442 H471 0.948 . S
C443 C442 1.419 . S
C443 C444 1.391 . S
C443 C447 1.397 . S
C444 C439 1.391 . S
C444 C443 1.391 . S
C444 C445 1.399 . S
C445 C444 1.399 . S
C445 C446 1.396 . S
C445 C448 1.453 . S
C445 C449 1.684 . S
C446 C427 1.723 . S
C446 C445 1.396 . S
C446 C447 1.394 . S
C447 C443 1.397 . S
C447 C446 1.394 . S
C447 C457 1.723 . S
C448 C445 1.453 . S
C448 H472 0.982 . S
C448 H473 0.979 . S
C448 H474 0.977 . S
C449 C445 1.684 . S
C449 H475 0.979 . S
C449 H476 0.980 . S
C449 H477 0.983 . S
C450 H426 0.948 . S
C450 C451 1.391 . S
C450 C455 1.391 . S
C451 C450 1.391 . S
C451 C452 1.391 . S
C452 H429 0.947 . S
C452 C451 1.391 . S
C452 C453 1.392 . S
C453 H430 0.948 . S
C453 C452 1.392 . S
C453 C454 1.419 . S
C454 C453 1.419 . S
C454 C455 1.391 . S
C454 C458 1.397 . S
C455 C450 1.391 . S
C455 C454 1.391 . S
C455 C456 1.399 . S
C456 C455 1.399 . S
C456 C457 1.396 . S
C456 C459 1.453 . S
C456 C460 1.684 . S
C457 C447 1.723 . S
C457 C456 1.396 . S
C457 C458 1.394 . S
C458 C428 1.723 . S
C458 C454 1.397 . S
C458 C457 1.394 . S
C459 H431 0.982 . S
C459 H435 0.979 . S
C459 H436 0.977 . S
C459 C456 1.453 . S
C460 H432 0.979 . S
C460 H433 0.980 . S
C460 H434 0.983 . S
C460 C456 1.684 . S
H461 C479 0.948 . S
H462 C420 0.948 . S
H463 C438 0.979 . S
H464 C438 0.980 . S
H465 C438 0.983 . S
H466 C437 0.982 . S
H467 C437 0.979 . S
H468 C437 0.977 . S
H469 C439 0.948 . S
H470 C441 0.947 . S
H471 C442 0.948 . S
H472 C448 0.982 . S
H473 C448 0.979 . S
H474 C448 0.977 . S
H475 C449 0.979 . S
H476 C449 0.980 . S
H477 C449 0.983 . S
H478 C422 0.947 . S
C479 C422 1.392 . S
C479 C423 1.419 . S
C479 H461 0.948 . S
C480 C481 1.391 . S
C480 C484 1.391 . S
C480 H522 0.948 . S
C481 C480 1.391 . S
C481 C482 1.391 . S
C482 C481 1.391 . S
C482 H538 0.947 . S
C482 C539 1.392 . S
C483 C484 1.391 . S
C483 C487 1.397 . S
C483 C539 1.419 . S
C484 C480 1.391 . S
C484 C483 1.391 . S
C484 C485 1.399 . S
C485 C484 1.399 . S
C485 C488 1.396 . S
C485 C497 1.453 . S
C485 C498 1.684 . S
H486 C510 0.948 . S
C487 C483 1.397 . S
C487 C488 1.394 . S
C487 C506 1.723 . S
C488 C485 1.396 . S
C488 C487 1.394 . S
C488 C518 1.723 . S
H489 C512 0.947 . S
H490 C513 0.948 . S
H491 C519 0.982 . S
H492 C520 0.979 . S
H493 C520 0.980 . S
H494 C520 0.983 . S
H495 C519 0.979 . S
H496 C519 0.977 . S
C497 C485 1.453 . S
C497 H526 0.982 . S
C497 H527 0.979 . S
C497 H528 0.977 . S
C498 C485 1.684 . S
C498 H523 0.979 . S
C498 H524 0.980 . S
C498 H525 0.983 . S
C499 C500 1.391 . S
C499 C504 1.391 . S
C499 H529 0.948 . S
C500 C499 1.391 . S
C500 C501 1.391 . S
C501 C500 1.391 . S
C501 C502 1.392 . S
C501 H530 0.947 . S
C502 C501 1.392 . S
C502 C503 1.419 . S
C502 H531 0.948 . S
C503 C502 1.419 . S
C503 C504 1.391 . S
C503 C507 1.397 . S
C504 C499 1.391 . S
C504 C503 1.391 . S
C504 C505 1.399 . S
C505 C504 1.399 . S
C505 C506 1.396 . S
C505 C508 1.453 . S
C505 C509 1.684 . S
C506 C487 1.723 . S
C506 C505 1.396 . S
C506 C507 1.394 . S
C507 C503 1.397 . S
C507 C506 1.394 . S
C507 C517 1.723 . S
C508 C505 1.453 . S
C508 H532 0.982 . S
C508 H533 0.979 . S
C508 H534 0.977 . S
C509 C505 1.684 . S
C509 H535 0.979 . S
C509 H536 0.980 . S
C509 H537 0.983 . S
C510 H486 0.948 . S
C510 C511 1.391 . S
C510 C515 1.391 . S
C511 C510 1.391 . S
C511 C512 1.391 . S
C512 H489 0.947 . S
C512 C511 1.391 . S
C512 C513 1.392 . S
C513 H490 0.948 . S
C513 C512 1.392 . S
C513 C514 1.419 . S
C514 C513 1.419 . S
C514 C515 1.391 . S
C514 C518 1.397 . S
C515 C510 1.391 . S
C515 C514 1.391 . S
C515 C516 1.399 . S
C516 C515 1.399 . S
C516 C517 1.396 . S
C516 C519 1.453 . S
C516 C520 1.684 . S
C517 C507 1.723 . S
C517 C516 1.396 . S
C517 C518 1.394 . S
C518 C488 1.723 . S
C518 C514 1.397 . S
C518 C517 1.394 . S
C519 H491 0.982 . S
C519 H495 0.979 . S
C519 H496 0.977 . S
C519 C516 1.453 . S
C520 H492 0.979 . S
C520 H493 0.980 . S
C520 H494 0.983 . S
C520 C516 1.684 . S
H521 C539 0.948 . S
H522 C480 0.948 . S
H523 C498 0.979 . S
H524 C498 0.980 . S
H525 C498 0.983 . S
H526 C497 0.982 . S
H527 C497 0.979 . S
H528 C497 0.977 . S
H529 C499 0.948 . S
H530 C501 0.947 . S
H531 C502 0.948 . S
H532 C508 0.982 . S
H533 C508 0.979 . S
H534 C508 0.977 . S
H535 C509 0.979 . S
H536 C509 0.980 . S
H537 C509 0.983 . S
H538 C482 0.947 . S
C539 C482 1.392 . S
C539 C483 1.419 . S
C539 H521 0.948 . S
C540 C541 1.391 . S
C540 C544 1.391 . S
C540 H582 0.948 . S
C541 C540 1.391 . S
C541 C542 1.391 . S
C542 C541 1.391 . S
C542 H598 0.947 . S
C542 C599 1.392 . S
C543 C544 1.391 . S
C543 C547 1.397 . S
C543 C599 1.419 . S
C544 C540 1.391 . S
C544 C543 1.391 . S
C544 C545 1.399 . S
C545 C544 1.399 . S
C545 C548 1.396 . S
C545 C557 1.453 . S
C545 C558 1.684 . S
H546 C570 0.948 . S
C547 C543 1.397 . S
C547 C548 1.394 . S
C547 C566 1.723 . S
C548 C545 1.396 . S
C548 C547 1.394 . S
C548 C578 1.723 . S
H549 C572 0.947 . S
H550 C573 0.948 . S
H551 C579 0.982 . S
H552 C580 0.979 . S
H553 C580 0.980 . S
H554 C580 0.983 . S
H555 C579 0.978 . S
H556 C579 0.977 . S
C557 C545 1.453 . S
C557 H586 0.982 . S
C557 H587 0.979 . S
C557 H588 0.977 . S
C558 C545 1.684 . S
C558 H583 0.979 . S
C558 H584 0.980 . S
C558 H585 0.983 . S
C559 C560 1.422 . S
C559 C564 1.368 1_545 S
C559 H589 0.942 1_545 S
C560 C559 1.422 . S
C560 C561 1.391 . S
C561 C560 1.391 . S
C561 C562 1.392 . S
C561 H590 0.947 . S
C562 C561 1.392 . S
C562 C563 1.419 1_545 S
C562 H591 0.948 . S
C563 C562 1.419 1_565 S
C563 C564 1.391 . S
C563 C567 1.397 . S
C564 C559 1.368 1_565 S
C564 C563 1.391 . S
C564 C565 1.399 . S
C565 C564 1.399 . S
C565 C566 1.396 . S
C565 C568 1.453 . S
C565 C569 1.684 . S
C566 C547 1.723 . S
C566 C565 1.396 . S
C566 C567 1.394 . S
C567 C563 1.397 . S
C567 C566 1.394 . S
C567 C577 1.723 . S
C568 C565 1.453 . S
C568 H592 0.982 . S
C568 H593 0.979 . S
C568 H594 0.977 . S
C569 C565 1.684 . S
C569 H595 0.979 . S
C569 H596 0.980 . S
C569 H597 0.983 . S
C570 H546 0.948 . S
C570 C571 1.391 . S
C570 C575 1.391 . S
C571 C570 1.391 . S
C571 C572 1.391 . S
C572 H549 0.947 . S
C572 C571 1.391 . S
C572 C573 1.392 . S
C573 H550 0.948 . S
C573 C572 1.392 . S
C573 C574 1.419 . S
C574 C573 1.419 . S
C574 C575 1.391 . S
C574 C578 1.397 . S
C575 C570 1.391 . S
C575 C574 1.391 . S
C575 C576 1.399 . S
C576 C575 1.399 . S
C576 C577 1.396 . S
C576 C579 1.453 . S
C576 C580 1.684 1_565 S
C577 C567 1.723 . S
C577 C576 1.396 . S
C577 C578 1.394 . S
C578 C548 1.723 . S
C578 C574 1.397 . S
C578 C577 1.394 . S
C579 H551 0.982 . S
C579 H555 0.978 . S
C579 H556 0.977 . S
C579 C576 1.453 . S
C580 H552 0.979 . S
C580 H553 0.980 . S
C580 H554 0.983 . S
C580 C576 1.684 1_545 S
H581 C599 0.948 . S
H582 C540 0.948 . S
H583 C558 0.979 . S
H584 C558 0.980 . S
H585 C558 0.983 . S
H586 C557 0.982 . S
H587 C557 0.979 . S
H588 C557 0.977 . S
H589 C559 0.942 1_565 S
H590 C561 0.947 . S
H591 C562 0.948 . S
H592 C568 0.982 . S
H593 C568 0.979 . S
H594 C568 0.977 . S
H595 C569 0.979 . S
H596 C569 0.980 . S
H597 C569 0.983 . S
H598 C542 0.947 . S
C599 C542 1.392 . S
C599 C543 1.419 . S
C599 H581 0.948 . S
C600 C601 1.391 . S
C600 C604 1.391 . S
C600 H642 0.948 . S
C601 C600 1.391 . S
C601 C602 1.391 . S
C602 C601 1.391 . S
C602 H658 0.947 . S
C602 C659 1.392 . S
C603 C604 1.391 . S
C603 C607 1.397 . S
C603 C659 1.419 . S
C604 C600 1.391 . S
C604 C603 1.391 . S
C604 C605 1.399 . S
C605 C604 1.399 . S
C605 C608 1.396 . S
C605 C617 1.453 . S
C605 C618 1.684 . S
H606 C630 0.948 . S
C607 C603 1.397 . S
C607 C608 1.394 . S
C607 C626 1.723 . S
C608 C605 1.396 . S
C608 C607 1.394 . S
C608 C638 1.723 . S
H609 C632 0.947 . S
H610 C633 0.948 . S
H611 C639 0.982 . S
H612 C640 0.979 . S
H613 C640 0.980 . S
H614 C640 0.983 . S
H615 C639 0.979 . S
H616 C639 0.977 . S
C617 C605 1.453 . S
C617 H646 0.982 . S
C617 H647 0.979 . S
C617 H648 0.977 . S
C618 C605 1.684 . S
C618 H643 0.979 . S
C618 H644 0.980 . S
C618 H645 0.983 . S
C619 C620 1.391 . S
C619 C624 1.391 . S
C619 H649 0.948 . S
C620 C619 1.391 . S
C620 C621 1.391 . S
C621 C620 1.391 . S
C621 C622 1.392 . S
C621 H650 0.947 . S
C622 C621 1.392 . S
C622 C623 1.419 . S
C622 H651 0.948 . S
C623 C622 1.419 . S
C623 C624 1.391 . S
C623 C627 1.397 . S
C624 C619 1.391 . S
C624 C623 1.391 . S
C624 C625 1.399 . S
C625 C624 1.399 . S
C625 C626 1.396 . S
C625 C628 1.453 . S
C625 C629 1.684 . S
C626 C607 1.723 . S
C626 C625 1.396 . S
C626 C627 1.394 . S
C627 C623 1.397 . S
C627 C626 1.394 . S
C627 C637 1.723 . S
C628 C625 1.453 . S
C628 H652 0.982 . S
C628 H653 0.979 . S
C628 H654 0.977 . S
C629 C625 1.684 . S
C629 H655 0.979 . S
C629 H656 0.980 . S
C629 H657 0.983 . S
C630 H606 0.948 . S
C630 C631 1.391 . S
C630 C635 1.391 . S
C631 C630 1.391 . S
C631 C632 1.391 . S
C632 H609 0.947 . S
C632 C631 1.391 . S
C632 C633 1.392 . S
C633 H610 0.948 . S
C633 C632 1.392 . S
C633 C634 1.419 . S
C634 C633 1.419 . S
C634 C635 1.391 . S
C634 C638 1.397 . S
C635 C630 1.391 . S
C635 C634 1.391 . S
C635 C636 1.399 . S
C636 C635 1.399 . S
C636 C637 1.396 . S
C636 C639 1.453 . S
C636 C640 1.684 . S
C637 C627 1.723 . S
C637 C636 1.396 . S
C637 C638 1.394 . S
C638 C608 1.723 . S
C638 C634 1.397 . S
C638 C637 1.394 . S
C639 H611 0.982 . S
C639 H615 0.979 . S
C639 H616 0.977 . S
C639 C636 1.453 . S
C640 H612 0.979 . S
C640 H613 0.980 . S
C640 H614 0.983 . S
C640 C636 1.684 . S
H641 C659 0.948 . S
H642 C600 0.948 . S
H643 C618 0.979 . S
H644 C618 0.980 . S
H645 C618 0.983 . S
H646 C617 0.982 . S
H647 C617 0.979 . S
H648 C617 0.977 . S
H649 C619 0.948 . S
H650 C621 0.947 . S
H651 C622 0.948 . S
H652 C628 0.982 . S
H653 C628 0.979 . S
H654 C628 0.977 . S
H655 C629 0.979 . S
H656 C629 0.980 . S
H657 C629 0.983 . S
H658 C602 0.947 . S
C659 C602 1.392 . S
C659 C603 1.419 . S
C659 H641 0.948 . S
C660 C661 1.391 . S
C660 C664 1.391 . S
C660 H702 0.948 . S
C661 C660 1.391 . S
C661 C662 1.391 . S
C662 C661 1.391 . S
C662 H718 0.947 . S
C662 C719 1.392 . S
C663 C664 1.391 . S
C663 C667 1.397 . S
C663 C719 1.419 . S
C664 C660 1.391 . S
C664 C663 1.391 . S
C664 C665 1.399 . S
C665 C664 1.399 . S
C665 C668 1.396 . S
C665 C677 1.453 . S
C665 C678 1.684 . S
H666 C690 0.948 . S
C667 C663 1.397 . S
C667 C668 1.394 . S
C667 C686 1.723 . S
C668 C665 1.396 . S
C668 C667 1.394 . S
C668 C698 1.723 . S
H669 C692 0.947 . S
H670 C693 0.948 . S
H671 C699 0.982 . S
H672 C700 0.979 . S
H673 C700 0.980 . S
H674 C700 0.983 . S
H675 C699 0.979 . S
H676 C699 0.977 . S
C677 C665 1.453 . S
C677 H706 0.982 . S
C677 H707 0.979 . S
C677 H708 0.977 . S
C678 C665 1.684 . S
C678 H703 0.979 . S
C678 H704 0.980 . S
C678 H705 0.983 . S
C679 C680 1.391 . S
C679 C684 1.391 . S
C679 H709 0.948 . S
C680 C679 1.391 . S
C680 C681 1.391 . S
C681 C680 1.391 . S
C681 C682 1.392 . S
C681 H710 0.947 . S
C682 C681 1.392 . S
C682 C683 1.419 . S
C682 H711 0.948 . S
C683 C682 1.419 . S
C683 C684 1.391 . S
C683 C687 1.397 . S
C684 C679 1.391 . S
C684 C683 1.391 . S
C684 C685 1.399 . S
C685 C684 1.399 . S
C685 C686 1.396 . S
C685 C688 1.453 . S
C685 C689 1.684 . S
C686 C667 1.723 . S
C686 C685 1.396 . S
C686 C687 1.394 . S
C687 C683 1.397 . S
C687 C686 1.394 . S
C687 C697 1.723 . S
C688 C685 1.453 . S
C688 H712 0.982 . S
C688 H713 0.979 . S
C688 H714 0.977 . S
C689 C685 1.684 . S
C689 H715 0.979 . S
C689 H716 0.980 . S
C689 H717 0.983 . S
C690 H666 0.948 . S
C690 C691 1.391 . S
C690 C695 1.391 . S
C691 C690 1.391 . S
C691 C692 1.391 . S
C692 H669 0.947 . S
C692 C691 1.391 . S
C692 C693 1.392 . S
C693 H670 0.948 . S
C693 C692 1.392 . S
C693 C694 1.419 . S
C694 C693 1.419 . S
C694 C695 1.391 . S
C694 C698 1.397 . S
C695 C690 1.391 . S
C695 C694 1.391 . S
C695 C696 1.399 . S
C696 C695 1.399 . S
C696 C697 1.396 . S
C696 C699 1.453 . S
C696 C700 1.684 . S
C697 C687 1.723 . S
C697 C696 1.396 . S
C697 C698 1.394 . S
C698 C668 1.723 . S
C698 C694 1.397 . S
C698 C697 1.394 . S
C699 H671 0.982 . S
C699 H675 0.979 . S
C699 H676 0.977 . S
C699 C696 1.453 . S
C700 H672 0.979 . S
C700 H673 0.980 . S
C700 H674 0.983 . S
C700 C696 1.684 . S
H701 C719 0.948 . S
H702 C660 0.948 . S
H703 C678 0.979 . S
H704 C678 0.980 . S
H705 C678 0.983 . S
H706 C677 0.982 . S
H707 C677 0.979 . S
H708 C677 0.977 . S
H709 C679 0.948 . S
H710 C681 0.947 . S
H711 C682 0.948 . S
H712 C688 0.982 . S
H713 C688 0.979 . S
H714 C688 0.977 . S
H715 C689 0.979 . S
H716 C689 0.980 . S
H717 C689 0.983 . S
H718 C662 0.947 . S
C719 C662 1.392 . S
C719 C663 1.419 . S
C719 H701 0.948 . S
C720 C721 1.391 . S
C720 C724 1.391 . S
C720 H762 0.948 . S
C721 C720 1.391 . S
C721 C722 1.391 . S
C722 C721 1.391 . S
C722 H778 0.947 . S
C722 C779 1.392 . S
C723 C724 1.391 . S
C723 C727 1.397 . S
C723 C779 1.419 . S
C724 C720 1.391 . S
C724 C723 1.391 . S
C724 C725 1.399 . S
C725 C724 1.399 . S
C725 C728 1.396 . S
C725 C737 1.453 . S
C725 C738 1.684 . S
H726 C750 0.948 . S
C727 C723 1.397 . S
C727 C728 1.394 . S
C727 C746 1.723 . S
C728 C725 1.396 . S
C728 C727 1.394 . S
C728 C758 1.723 . S
H729 C752 0.947 . S
H730 C753 0.948 . S
H731 C759 0.982 . S
H732 C760 0.979 . S
H733 C760 0.980 . S
H734 C760 0.983 . S
H735 C759 0.979 . S
H736 C759 0.977 . S
C737 C725 1.453 . S
C737 H766 0.982 . S
C737 H767 0.979 . S
C737 H768 0.977 . S
C738 C725 1.684 . S
C738 H763 0.979 . S
C738 H764 0.980 . S
C738 H765 0.983 . S
C739 C740 1.391 . S
C739 C744 1.391 . S
C739 H769 0.948 . S
C740 C739 1.391 . S
C740 C741 1.391 . S
C741 C740 1.391 . S
C741 C742 1.392 . S
C741 H770 0.947 . S
C742 C741 1.392 . S
C742 C743 1.419 . S
C742 H771 0.948 . S
C743 C742 1.419 . S
C743 C744 1.391 . S
C743 C747 1.397 . S
C744 C739 1.391 . S
C744 C743 1.391 . S
C744 C745 1.399 . S
C745 C744 1.399 . S
C745 C746 1.396 . S
C745 C748 1.453 . S
C745 C749 1.684 . S
C746 C727 1.723 . S
C746 C745 1.396 . S
C746 C747 1.394 . S
C747 C743 1.397 . S
C747 C746 1.394 . S
C747 C757 1.723 . S
C748 C745 1.453 . S
C748 H772 0.982 . S
C748 H773 0.979 . S
C748 H774 0.977 . S
C749 C745 1.684 . S
C749 H775 0.979 . S
C749 H776 0.980 . S
C749 H777 0.983 . S
C750 H726 0.948 . S
C750 C751 1.391 . S
C750 C755 1.391 . S
C751 C750 1.391 . S
C751 C752 1.391 . S
C752 H729 0.947 . S
C752 C751 1.391 . S
C752 C753 1.392 . S
C753 H730 0.948 . S
C753 C752 1.392 . S
C753 C754 1.419 . S
C754 C753 1.419 . S
C754 C755 1.391 . S
C754 C758 1.397 . S
C755 C750 1.391 . S
C755 C754 1.391 . S
C755 C756 1.399 . S
C756 C755 1.399 . S
C756 C757 1.396 . S
C756 C759 1.453 . S
C756 C760 1.684 . S
C757 C747 1.723 . S
C757 C756 1.396 . S
C757 C758 1.394 . S
C758 C728 1.723 . S
C758 C754 1.397 . S
C758 C757 1.394 . S
C759 H731 0.982 . S
C759 H735 0.979 . S
C759 H736 0.977 . S
C759 C756 1.453 . S
C760 H732 0.979 . S
C760 H733 0.980 . S
C760 H734 0.983 . S
C760 C756 1.684 . S
H761 C779 0.948 . S
H762 C720 0.948 . S
H763 C738 0.979 . S
H764 C738 0.980 . S
H765 C738 0.983 . S
H766 C737 0.982 . S
H767 C737 0.979 . S
H768 C737 0.977 . S
H769 C739 0.948 . S
H770 C741 0.947 . S
H771 C742 0.948 . S
H772 C748 0.982 . S
H773 C748 0.979 . S
H774 C748 0.977 . S
H775 C749 0.979 . S
H776 C749 0.980 . S
H777 C749 0.983 . S
H778 C722 0.947 . S
C779 C722 1.392 . S
C779 C723 1.419 . S
C779 H761 0.948 . S
C780 C781 1.391 . S
C780 C784 1.391 1_554 S
C780 H822 0.948 . S
C781 C780 1.391 . S
C781 C782 1.391 1_554 S
C782 C781 1.391 1_556 S
C782 H838 0.947 . S
C782 C839 1.392 . S
C783 C784 1.391 . S
C783 C787 1.397 . S
C783 C839 1.419 . S
C784 C780 1.391 1_556 S
C784 C783 1.391 . S
C784 C785 1.399 . S
C785 C784 1.399 . S
C785 C788 1.396 . S
C785 C797 1.453 1_556 S
C785 C798 1.684 . S
H786 C810 0.948 . S
C787 C783 1.397 . S
C787 C788 1.394 . S
C787 C806 1.723 . S
C788 C785 1.396 . S
C788 C787 1.394 . S
C788 C818 1.723 . S
H789 C812 0.947 . S
H790 C813 0.948 . S
H791 C819 0.982 . S
H792 C820 0.979 . S
H793 C820 0.980 . S
H794 C820 0.983 . S
H795 C819 0.979 . S
H796 C819 0.977 . S
C797 C785 1.453 1_554 S
C797 H826 0.982 . S
C797 H827 0.979 . S
C797 H828 0.977 . S
C798 C785 1.684 . S
C798 H823 0.979 . S
C798 H824 0.980 . S
C798 H825 0.983 1_556 S
C799 C800 1.391 . S
C799 C804 1.391 . S
C799 H829 0.948 . S
C800 C799 1.391 . S
C800 C801 1.391 . S
C801 C800 1.391 . S
C801 C802 1.392 . S
C801 H830 0.947 . S
C802 C801 1.392 . S
C802 C803 1.419 . S
C802 H831 0.948 . S
C803 C802 1.419 . S
C803 C804 1.391 . S
C803 C807 1.397 . S
C804 C799 1.391 . S
C804 C803 1.391 . S
C804 C805 1.399 . S
C805 C804 1.399 . S
C805 C806 1.396 . S
C805 C808 1.453 . S
C805 C809 1.684 . S
C806 C787 1.723 . S
C806 C805 1.396 . S
C806 C807 1.394 . S
C807 C803 1.397 . S
C807 C806 1.394 . S
C807 C817 1.723 . S
C808 C805 1.453 . S
C808 H832 0.982 . S
C808 H833 0.979 . S
C808 H834 0.977 . S
C809 C805 1.684 . S
C809 H835 0.979 . S
C809 H836 0.980 . S
C809 H837 0.983 . S
C810 H786 0.948 . S
C810 C811 1.391 . S
C810 C815 1.391 . S
C811 C810 1.391 . S
C811 C812 1.391 . S
C812 H789 0.947 . S
C812 C811 1.391 . S
C812 C813 1.392 . S
C813 H790 0.948 . S
C813 C812 1.392 . S
C813 C814 1.419 . S
C814 C813 1.419 . S
C814 C815 1.391 . S
C814 C818 1.397 . S
C815 C810 1.391 . S
C815 C814 1.391 . S
C815 C816 1.399 . S
C816 C815 1.399 . S
C816 C817 1.396 . S
C816 C819 1.453 . S
C816 C820 1.684 . S
C817 C807 1.723 . S
C817 C816 1.396 . S
C817 C818 1.394 . S
C818 C788 1.723 . S
C818 C814 1.397 . S
C818 C817 1.394 . S
C819 H791 0.982 . S
C819 H795 0.979 . S
C819 H796 0.977 . S
C819 C816 1.453 . S
C820 H792 0.979 . S
C820 H793 0.980 . S
C820 H794 0.983 . S
C820 C816 1.684 . S
H821 C839 0.948 . S
H822 C780 0.948 . S
H823 C798 0.979 . S
H824 C798 0.980 . S
H825 C798 0.983 1_554 S
H826 C797 0.982 . S
H827 C797 0.979 . S
H828 C797 0.977 . S
H829 C799 0.948 . S
H830 C801 0.947 . S
H831 C802 0.948 . S
H832 C808 0.982 . S
H833 C808 0.979 . S
H834 C808 0.977 . S
H835 C809 0.979 . S
H836 C809 0.980 . S
H837 C809 0.983 . S
H838 C782 0.947 . S
C839 C782 1.392 . S
C839 C783 1.419 . S
C839 H821 0.948 . S
C840 C841 1.391 . S
C840 C844 1.391 . S
C840 H882 0.948 . S
C841 C840 1.391 . S
C841 C842 1.391 . S
C842 C841 1.391 . S
C842 H898 0.947 . S
C842 C899 1.392 . S
C843 C844 1.391 . S
C843 C847 1.397 . S
C843 C899 1.419 . S
C844 C840 1.391 . S
C844 C843 1.391 . S
C844 C845 1.399 . S
C845 C844 1.399 . S
C845 C848 1.396 . S
C845 C857 1.453 . S
C845 C858 1.684 . S
H846 C870 0.948 . S
C847 C843 1.397 . S
C847 C848 1.394 . S
C847 C866 1.723 . S
C848 C845 1.396 . S
C848 C847 1.394 . S
C848 C878 1.723 . S
H849 C872 0.947 . S
H850 C873 0.948 . S
H851 C879 0.982 . S
H852 C880 0.979 . S
H853 C880 0.980 . S
H854 C880 0.983 . S
H855 C879 0.979 . S
H856 C879 0.977 . S
C857 C845 1.453 . S
C857 H886 0.982 . S
C857 H887 0.979 . S
C857 H888 0.977 . S
C858 C845 1.684 . S
C858 H883 0.979 . S
C858 H884 0.980 . S
C858 H885 0.983 . S
C859 C860 1.391 . S
C859 C864 1.391 . S
C859 H889 0.948 . S
C860 C859 1.391 . S
C860 C861 1.391 . S
C861 C860 1.391 . S
C861 C862 1.392 . S
C861 H890 0.947 . S
C862 C861 1.392 . S
C862 C863 1.419 . S
C862 H891 0.948 . S
C863 C862 1.419 . S
C863 C864 1.391 . S
C863 C867 1.397 . S
C864 C859 1.391 . S
C864 C863 1.391 . S
C864 C865 1.399 . S
C865 C864 1.399 . S
C865 C866 1.396 . S
C865 C868 1.453 . S
C865 C869 1.684 . S
C866 C847 1.723 . S
C866 C865 1.396 . S
C866 C867 1.394 . S
C867 C863 1.397 . S
C867 C866 1.394 . S
C867 C877 1.723 . S
C868 C865 1.453 . S
C868 H892 0.982 . S
C868 H893 0.979 . S
C868 H894 0.977 . S
C869 C865 1.684 . S
C869 H895 0.979 . S
C869 H896 0.980 . S
C869 H897 0.983 . S
C870 H846 0.948 . S
C870 C871 1.391 . S
C870 C875 1.391 . S
C871 C870 1.391 . S
C871 C872 1.391 . S
C872 H849 0.947 . S
C872 C871 1.391 . S
C872 C873 1.392 . S
C873 H850 0.948 . S
C873 C872 1.392 . S
C873 C874 1.419 . S
C874 C873 1.419 . S
C874 C875 1.391 . S
C874 C878 1.397 . S
C875 C870 1.391 . S
C875 C874 1.391 . S
C875 C876 1.399 . S
C876 C875 1.399 . S
C876 C877 1.396 . S
C876 C879 1.453 . S
C876 C880 1.684 . S
C877 C867 1.723 . S
C877 C876 1.396 . S
C877 C878 1.394 . S
C878 C848 1.723 . S
C878 C874 1.397 . S
C878 C877 1.394 . S
C879 H851 0.982 . S
C879 H855 0.979 . S
C879 H856 0.977 . S
C879 C876 1.453 . S
C880 H852 0.979 . S
C880 H853 0.980 . S
C880 H854 0.983 . S
C880 C876 1.684 . S
H881 C899 0.948 . S
H882 C840 0.948 . S
H883 C858 0.979 . S
H884 C858 0.980 . S
H885 C858 0.983 . S
H886 C857 0.982 . S
H887 C857 0.979 . S
H888 C857 0.977 . S
H889 C859 0.948 . S
H890 C861 0.947 . S
H891 C862 0.948 . S
H892 C868 0.982 . S
H893 C868 0.979 . S
H894 C868 0.977 . S
H895 C869 0.979 . S
H896 C869 0.980 . S
H897 C869 0.983 . S
H898 C842 0.947 . S
C899 C842 1.392 . S
C899 C843 1.419 . S
C899 H881 0.948 . S
C900 C901 1.391 1_545 S
C900 C904 1.391 . S
C900 H942 0.946 . S
C901 C900 1.391 1_565 S
C901 C902 1.391 . S
C902 C901 1.391 . S
C902 H958 0.947 . S
C902 C959 1.392 . S
C903 C904 1.391 . S
C903 C907 1.397 . S
C903 C959 1.419 1_545 S
C904 C900 1.391 . S
C904 C903 1.391 . S
C904 C905 1.399 . S
C905 C904 1.399 . S
C905 C908 1.396 . S
C905 C917 1.453 . S
C905 C918 1.684 1_556 S
H906 C930 0.962 . S
C907 C903 1.397 . S
C907 C908 1.394 . S
C907 C926 1.723 . S
C908 C905 1.396 . S
C908 C907 1.394 . S
C908 C938 1.723 . S
H909 C932 0.947 . S
H910 C933 0.948 . S
H911 C939 0.982 . S
H912 C940 0.979 . S
H913 C940 0.980 . S
H914 C940 0.983 . S
H915 C939 0.979 . S
H916 C939 0.977 . S
C917 C905 1.453 . S
C917 H946 0.982 . S
C917 H947 0.979 1_556 S
C917 H948 0.977 1_556 S
C918 C905 1.684 1_554 S
C918 H943 0.979 . S
C918 H944 0.980 . S
C918 H945 0.983 . S
C919 C920 1.391 . S
C919 C924 1.391 . S
C919 H949 0.948 . S
C920 C919 1.391 . S
C920 C921 1.391 . S
C921 C920 1.391 . S
C921 C922 1.392 . S
C921 H950 0.947 . S
C922 C921 1.392 . S
C922 C923 1.419 . S
C922 H951 0.948 . S
C923 C922 1.419 . S
C923 C924 1.391 . S
C923 C927 1.397 . S
C924 C919 1.391 . S
C924 C923 1.391 . S
C924 C925 1.399 . S
C925 C924 1.399 . S
C925 C926 1.396 . S
C925 C928 1.453 . S
C925 C929 1.684 1_545 S
C926 C907 1.723 . S
C926 C925 1.396 . S
C926 C927 1.394 . S
C927 C923 1.397 . S
C927 C926 1.394 . S
C927 C937 1.723 . S
C928 C925 1.453 . S
C928 H952 0.982 . S
C928 H953 0.979 . S
C928 H954 0.977 . S
C929 C925 1.684 1_565 S
C929 H955 0.979 . S
C929 H956 0.980 . S
C929 H957 0.983 . S
C930 H906 0.962 . S
C930 C931 1.391 . S
C930 C935 1.391 1_554 S
C931 C930 1.391 . S
C931 C932 1.391 . S
C932 H909 0.947 . S
C932 C931 1.391 . S
C932 C933 1.392 . S
C933 H910 0.948 . S
C933 C932 1.392 . S
C933 C934 1.419 1_554 S
C934 C933 1.419 1_556 S
C934 C935 1.391 . S
C934 C938 1.397 . S
C935 C930 1.391 1_556 S
C935 C934 1.391 . S
C935 C936 1.399 . S
C936 C935 1.399 . S
C936 C937 1.396 . S
C936 C939 1.453 . S
C936 C940 1.684 . S
C937 C927 1.723 . S
C937 C936 1.396 . S
C937 C938 1.394 . S
C938 C908 1.723 . S
C938 C934 1.397 . S
C938 C937 1.394 . S
C939 H911 0.982 . S
C939 H915 0.979 . S
C939 H916 0.977 . S
C939 C936 1.453 . S
C940 H912 0.979 . S
C940 H913 0.980 . S
C940 H914 0.983 . S
C940 C936 1.684 . S
H941 C959 0.948 . S
H942 C900 0.946 . S
H943 C918 0.979 . S
H944 C918 0.980 . S
H945 C918 0.983 . S
H946 C917 0.982 . S
H947 C917 0.979 1_554 S
H948 C917 0.977 1_554 S
H949 C919 0.948 . S
H950 C921 0.947 . S
H951 C922 0.948 . S
H952 C928 0.982 . S
H953 C928 0.979 . S
H954 C928 0.977 . S
H955 C929 0.979 . S
H956 C929 0.980 . S
H957 C929 0.983 . S
H958 C902 0.947 . S
C959 C902 1.392 . S
C959 C903 1.419 1_565 S
C959 H941 0.948 . S
Mn960 O965 2.095 . S
Mn960 O975 2.162 . S
Mn960 O976 2.297 . S
Mn960 O984 2.385 . S
Mn960 O985 2.209 1_554 S
Mn960 O986 2.094 . S
Mn961 O966 2.121 . S
Mn961 N968 2.257 . S
Mn961 N977 2.282 . S
Mn961 O985 2.215 . S
Mn961 O987 2.117 . S
C962 O984 1.234 1_556 S
C962 O985 1.283 . S
C963 O975 1.281 . S
C963 O976 1.236 . S
C964 O986 1.240 . S
C964 O987 1.264 1_554 S
O965 Mn960 2.095 . S
O965 C974 1.250 . S
O966 Mn961 2.121 . S
O966 C974 1.258 1_556 S
C967 N968 1.326 . S
C967 C971 1.460 . S
C967 H973 0.929 . S
N968 Mn961 2.257 . S
N968 C967 1.326 . S
N968 C972 1.362 . S
C969 C970 1.258 . S
C969 C972 1.431 . S
C969 C989 1.449 . S
C970 C969 1.258 . S
C970 C971 1.477 . S
C970 H990 0.931 . S
C971 C967 1.460 . S
C971 C970 1.477 . S
C971 H991 0.930 . S
C972 N968 1.362 . S
C972 C969 1.431 . S
C972 C982 1.476 . S
H973 C967 0.929 . S
C974 O965 1.250 . S
C974 O966 1.258 1_554 S
O975 Mn960 2.162 . S
O975 C963 1.281 . S
O976 Mn960 2.297 . S
O976 C963 1.236 . S
N977 Mn961 2.282 . S
N977 C978 1.328 . S
N977 C982 1.318 . S
C978 N977 1.328 . S
C978 C979 1.457 . S
C978 H983 0.929 . S
C979 C978 1.457 . S
C979 C980 1.291 . S
C979 H992 0.931 . S
C980 C979 1.291 . S
C980 C981 1.373 . S
C980 H993 0.929 . S
C981 C980 1.373 . S
C981 C982 1.396 . S
C981 C988 1.403 . S
C982 C972 1.476 . S
C982 N977 1.318 . S
C982 C981 1.396 . S
H983 C978 0.929 . S
O984 Mn960 2.385 . S
O984 C962 1.234 1_554 S
O985 Mn960 2.209 1_556 S
O985 Mn961 2.215 . S
O985 C962 1.283 . S
O986 Mn960 2.094 . S
O986 C964 1.240 . S
O987 Mn961 2.117 . S
O987 C964 1.264 1_556 S
C988 C981 1.403 . S
C988 C989 1.399 . S
C988 H994 0.929 . S
C989 C969 1.449 . S
C989 C988 1.399 . S
C989 H995 0.930 . S
H990 C970 0.931 . S
H991 C971 0.930 . S
H992 C979 0.931 . S
H993 C980 0.929 . S
H994 C988 0.929 . S
H995 C989 0.930 . S
Mn996 O1001 2.095 . S
Mn996 O1011 2.162 . S
Mn996 O1012 2.297 . S
Mn996 O1020 2.385 . S
Mn996 O1021 2.209 . S
Mn996 O1022 2.094 . S
Mn997 O1002 2.121 . S
Mn997 N1004 2.257 . S
Mn997 N1013 2.282 . S
Mn997 O1021 2.215 . S
Mn997 O1023 2.117 . S
C998 O1020 1.234 . S
C998 O1021 1.283 . S
C999 O1011 1.281 . S
C999 O1012 1.236 . S
C1000 O1022 1.240 . S
C1000 O1023 1.264 . S
O1001 Mn996 2.095 . S
O1001 C1010 1.250 . S
O1002 Mn997 2.121 . S
O1002 C1010 1.258 . S
C1003 N1004 1.326 . S
C1003 C1007 1.460 . S
C1003 H1009 0.929 . S
N1004 Mn997 2.257 . S
N1004 C1003 1.326 . S
N1004 C1008 1.362 . S
C1005 C1006 1.258 . S
C1005 C1008 1.431 . S
C1005 C1025 1.449 . S
C1006 C1005 1.258 . S
C1006 C1007 1.477 . S
C1006 H1026 0.931 . S
C1007 C1003 1.460 . S
C1007 C1006 1.477 . S
C1007 H1027 0.930 . S
C1008 N1004 1.362 . S
C1008 C1005 1.431 . S
C1008 C1018 1.476 . S
H1009 C1003 0.929 . S
C1010 O1001 1.250 . S
C1010 O1002 1.258 . S
O1011 Mn996 2.162 . S
O1011 C999 1.281 . S
O1012 Mn996 2.297 . S
O1012 C999 1.236 . S
N1013 Mn997 2.282 . S
N1013 C1014 1.328 . S
N1013 C1018 1.318 . S
C1014 N1013 1.328 . S
C1014 C1015 1.457 . S
C1014 H1019 0.929 . S
C1015 C1014 1.457 . S
C1015 C1016 1.291 . S
C1015 H1028 0.931 . S
C1016 C1015 1.291 . S
C1016 C1017 1.373 . S
C1016 H1029 0.929 . S
C1017 C1016 1.373 . S
C1017 C1018 1.396 . S
C1017 C1024 1.403 . S
C1018 C1008 1.476 . S
C1018 N1013 1.318 . S
C1018 C1017 1.396 . S
H1019 C1014 0.929 . S
O1020 Mn996 2.385 . S
O1020 C998 1.234 . S
O1021 Mn996 2.209 . S
O1021 Mn997 2.215 . S
O1021 C998 1.283 . S
O1022 Mn996 2.094 . S
O1022 C1000 1.240 . S
O1023 Mn997 2.117 . S
O1023 C1000 1.264 . S
C1024 C1017 1.403 . S
C1024 C1025 1.399 . S
C1024 H1030 0.929 . S
C1025 C1005 1.449 . S
C1025 C1024 1.399 . S
C1025 H1031 0.930 . S
H1026 C1006 0.931 . S
H1027 C1007 0.930 . S
H1028 C1015 0.931 . S
H1029 C1016 0.929 . S
H1030 C1024 0.929 . S
H1031 C1025 0.930 . S
Mn1032 O1037 2.095 1_554 S
Mn1032 O1047 2.162 . S
Mn1032 O1048 2.297 1_554 S
Mn1032 O1056 2.385 . S
Mn1032 O1057 2.209 1_554 S
Mn1032 O1058 2.094 . S
Mn1033 O1038 2.121 . S
Mn1033 N1040 2.257 . S
Mn1033 N1049 2.291 . S
Mn1033 O1057 2.215 . S
Mn1033 O1059 2.117 1_556 S
C1034 O1056 1.234 . S
C1034 O1057 1.283 1_554 S
C1035 O1047 1.281 . S
C1035 O1048 1.236 1_554 S
C1036 O1058 1.240 . S
C1036 O1059 1.264 . S
O1037 Mn1032 2.095 1_556 S
O1037 C1046 1.250 . S
O1038 Mn1033 2.121 . S
O1038 C1046 1.258 . S
C1039 N1040 1.326 . S
C1039 C1043 1.460 . S
C1039 H1045 0.929 . S
N1040 Mn1033 2.257 . S
N1040 C1039 1.326 . S
N1040 C1044 1.362 . S
C1041 C1042 1.258 . S
C1041 C1044 1.431 . S
C1041 C1061 1.449 . S
C1042 C1041 1.258 . S
C1042 C1043 1.477 . S
C1042 H1062 0.931 . S
C1043 C1039 1.460 . S
C1043 C1042 1.477 . S
C1043 H1063 0.930 . S
C1044 N1040 1.362 . S
C1044 C1041 1.431 . S
C1044 C1054 1.476 . S
H1045 C1039 0.929 . S
C1046 O1037 1.250 . S
C1046 O1038 1.258 . S
O1047 Mn1032 2.162 . S
O1047 C1035 1.281 . S
O1048 Mn1032 2.297 1_556 S
O1048 C1035 1.236 1_556 S
N1049 Mn1033 2.291 . S
N1049 C1050 1.304 1_556 S
N1049 C1054 1.334 . S
C1050 N1049 1.304 1_554 S
C1050 C1051 1.457 . S
C1050 H1055 0.929 . S
C1051 C1050 1.457 . S
C1051 C1052 1.291 . S
C1051 H1064 0.931 . S
C1052 C1051 1.291 . S
C1052 C1053 1.373 1_554 S
C1052 H1065 0.929 . S
C1053 C1052 1.373 1_556 S
C1053 C1054 1.396 . S
C1053 C1060 1.403 . S
C1054 C1044 1.476 . S
C1054 N1049 1.334 . S
C1054 C1053 1.396 . S
H1055 C1050 0.929 . S
O1056 Mn1032 2.385 . S
O1056 C1034 1.234 . S
O1057 Mn1032 2.209 1_556 S
O1057 Mn1033 2.215 . S
O1057 C1034 1.283 1_556 S
O1058 Mn1032 2.094 . S
O1058 C1036 1.240 . S
O1059 Mn1033 2.117 1_554 S
O1059 C1036 1.264 . S
C1060 C1053 1.403 . S
C1060 C1061 1.399 . S
C1060 H1066 0.929 . S
C1061 C1041 1.449 . S
C1061 C1060 1.399 . S
C1061 H1067 0.930 . S
H1062 C1042 0.931 . S
H1063 C1043 0.930 . S
H1064 C1051 0.931 . S
H1065 C1052 0.929 . S
H1066 C1060 0.929 . S
H1067 C1061 0.930 . S
Mn1068 O1073 2.095 . S
Mn1068 O1083 2.162 . S
Mn1068 O1084 2.297 . S
Mn1068 O1092 2.409 . S
Mn1068 O1093 2.209 1_545 S
Mn1068 O1094 2.094 . S
Mn1069 O1074 2.121 . S
Mn1069 N1076 2.257 . S
Mn1069 N1085 2.282 . S
Mn1069 O1093 2.215 . S
Mn1069 O1095 2.117 . S
C1070 O1092 1.188 1_565 S
C1070 O1093 1.283 . S
C1071 O1083 1.281 . S
C1071 O1084 1.236 . S
C1072 O1094 1.240 . S
C1072 O1095 1.264 1_545 S
O1073 Mn1068 2.095 . S
O1073 C1082 1.250 . S
O1074 Mn1069 2.121 . S
O1074 C1082 1.258 1_565 S
C1075 N1076 1.326 . S
C1075 C1079 1.460 . S
C1075 H1081 0.929 . S
N1076 Mn1069 2.257 . S
N1076 C1075 1.326 . S
N1076 C1080 1.362 . S
C1077 C1078 1.258 . S
C1077 C1080 1.431 . S
C1077 C1097 1.449 . S
C1078 C1077 1.258 . S
C1078 C1079 1.477 . S
C1078 H1098 0.931 . S
C1079 C1075 1.460 . S
C1079 C1078 1.477 . S
C1079 H1099 0.930 . S
C1080 N1076 1.362 . S
C1080 C1077 1.431 . S
C1080 C1090 1.476 . S
H1081 C1075 0.929 . S
C1082 O1073 1.250 . S
C1082 O1074 1.258 1_545 S
O1083 Mn1068 2.162 . S
O1083 C1071 1.281 . S
O1084 Mn1068 2.297 . S
O1084 C1071 1.236 . S
N1085 Mn1069 2.282 . S
N1085 C1086 1.328 . S
N1085 C1090 1.318 . S
C1086 N1085 1.328 . S
C1086 C1087 1.457 . S
C1086 H1091 0.929 . S
C1087 C1086 1.457 . S
C1087 C1088 1.291 . S
C1087 H1100 0.931 . S
C1088 C1087 1.291 . S
C1088 C1089 1.373 . S
C1088 H1101 0.929 . S
C1089 C1088 1.373 . S
C1089 C1090 1.396 . S
C1089 C1096 1.403 . S
C1090 C1080 1.476 . S
C1090 N1085 1.318 . S
C1090 C1089 1.396 . S
H1091 C1086 0.929 . S
O1092 Mn1068 2.409 . S
O1092 C1070 1.188 1_545 S
O1093 Mn1068 2.209 1_565 S
O1093 Mn1069 2.215 . S
O1093 C1070 1.283 . S
O1094 Mn1068 2.094 . S
O1094 C1072 1.240 . S
O1095 Mn1069 2.117 . S
O1095 C1072 1.264 1_565 S
C1096 C1089 1.403 . S
C1096 C1097 1.399 . S
C1096 H1102 0.929 . S
C1097 C1077 1.449 . S
C1097 C1096 1.399 . S
C1097 H1103 0.930 . S
H1098 C1078 0.931 . S
H1099 C1079 0.930 . S
H1100 C1087 0.931 . S
H1101 C1088 0.929 . S
H1102 C1096 0.929 . S
H1103 C1097 0.930 . S
Mn1104 O1109 2.095 . S
Mn1104 O1119 2.162 . S
Mn1104 O1120 2.297 . S
Mn1104 O1128 2.385 . S
Mn1104 O1129 2.209 . S
Mn1104 O1130 2.094 . S
Mn1105 O1110 2.121 . S
Mn1105 N1112 2.257 . S
Mn1105 N1121 2.282 . S
Mn1105 O1129 2.215 . S
Mn1105 O1131 2.117 . S
C1106 O1128 1.234 . S
C1106 O1129 1.283 . S
C1107 O1119 1.281 . S
C1107 O1120 1.236 . S
C1108 O1130 1.240 . S
C1108 O1131 1.264 . S
O1109 Mn1104 2.095 . S
O1109 C1118 1.250 . S
O1110 Mn1105 2.121 . S
O1110 C1118 1.258 . S
C1111 N1112 1.326 . S
C1111 C1115 1.460 . S
C1111 H1117 0.929 . S
N1112 Mn1105 2.257 . S
N1112 C1111 1.326 . S
N1112 C1116 1.362 . S
C1113 C1114 1.258 . S
C1113 C1116 1.431 . S
C1113 C1133 1.449 . S
C1114 C1113 1.258 . S
C1114 C1115 1.477 . S
C1114 H1134 0.931 . S
C1115 C1111 1.460 . S
C1115 C1114 1.477 . S
C1115 H1135 0.930 . S
C1116 N1112 1.362 . S
C1116 C1113 1.431 . S
C1116 C1126 1.476 . S
H1117 C1111 0.929 . S
C1118 O1109 1.250 . S
C1118 O1110 1.258 . S
O1119 Mn1104 2.162 . S
O1119 C1107 1.281 . S
O1120 Mn1104 2.297 . S
O1120 C1107 1.236 . S
N1121 Mn1105 2.282 . S
N1121 C1122 1.328 . S
N1121 C1126 1.318 . S
C1122 N1121 1.328 . S
C1122 C1123 1.457 . S
C1122 H1127 0.929 . S
C1123 C1122 1.457 . S
C1123 C1124 1.291 . S
C1123 H1136 0.931 . S
C1124 C1123 1.291 . S
C1124 C1125 1.373 . S
C1124 H1137 0.929 . S
C1125 C1124 1.373 . S
C1125 C1126 1.396 . S
C1125 C1132 1.403 . S
C1126 C1116 1.476 . S
C1126 N1121 1.318 . S
C1126 C1125 1.396 . S
H1127 C1122 0.929 . S
O1128 Mn1104 2.385 . S
O1128 C1106 1.234 . S
O1129 Mn1104 2.209 . S
O1129 Mn1105 2.215 . S
O1129 C1106 1.283 . S
O1130 Mn1104 2.094 . S
O1130 C1108 1.240 . S
O1131 Mn1105 2.117 . S
O1131 C1108 1.264 . S
C1132 C1125 1.403 . S
C1132 C1133 1.399 . S
C1132 H1138 0.929 . S
C1133 C1113 1.449 . S
C1133 C1132 1.399 . S
C1133 H1139 0.930 . S
H1134 C1114 0.931 . S
H1135 C1115 0.930 . S
H1136 C1123 0.931 . S
H1137 C1124 0.929 . S
H1138 C1132 0.929 . S
H1139 C1133 0.930 . S
Mn1140 O1145 2.095 . S
Mn1140 O1155 2.162 . S
Mn1140 O1156 2.297 . S
Mn1140 O1164 2.385 . S
Mn1140 O1165 2.209 . S
Mn1140 O1166 2.094 . S
Mn1141 O1146 2.121 . S
Mn1141 N1148 2.257 . S
Mn1141 N1157 2.282 . S
Mn1141 O1165 2.215 . S
Mn1141 O1167 2.117 . S
C1142 O1164 1.234 . S
C1142 O1165 1.283 . S
C1143 O1155 1.281 . S
C1143 O1156 1.236 . S
C1144 O1166 1.240 . S
C1144 O1167 1.264 . S
O1145 Mn1140 2.095 . S
O1145 C1154 1.250 . S
O1146 Mn1141 2.121 . S
O1146 C1154 1.258 . S
C1147 N1148 1.326 . S
C1147 C1151 1.460 . S
C1147 H1153 0.929 . S
N1148 Mn1141 2.257 . S
N1148 C1147 1.326 . S
N1148 C1152 1.362 . S
C1149 C1150 1.258 . S
C1149 C1152 1.431 . S
C1149 C1169 1.449 . S
C1150 C1149 1.258 . S
C1150 C1151 1.477 . S
C1150 H1170 0.931 . S
C1151 C1147 1.460 . S
C1151 C1150 1.477 . S
C1151 H1171 0.930 . S
C1152 N1148 1.362 . S
C1152 C1149 1.431 . S
C1152 C1162 1.476 . S
H1153 C1147 0.929 . S
C1154 O1145 1.250 . S
C1154 O1146 1.258 . S
O1155 Mn1140 2.162 . S
O1155 C1143 1.281 . S
O1156 Mn1140 2.297 . S
O1156 C1143 1.236 . S
N1157 Mn1141 2.282 . S
N1157 C1158 1.328 . S
N1157 C1162 1.318 . S
C1158 N1157 1.328 . S
C1158 C1159 1.457 . S
C1158 H1163 0.929 . S
C1159 C1158 1.457 . S
C1159 C1160 1.291 . S
C1159 H1172 0.931 . S
C1160 C1159 1.291 . S
C1160 C1161 1.373 . S
C1160 H1173 0.929 . S
C1161 C1160 1.373 . S
C1161 C1162 1.396 . S
C1161 C1168 1.403 . S
C1162 C1152 1.476 . S
C1162 N1157 1.318 . S
C1162 C1161 1.396 . S
H1163 C1158 0.929 . S
O1164 Mn1140 2.385 . S
O1164 C1142 1.234 . S
O1165 Mn1140 2.209 . S
O1165 Mn1141 2.215 . S
O1165 C1142 1.283 . S
O1166 Mn1140 2.094 . S
O1166 C1144 1.240 . S
O1167 Mn1141 2.117 . S
O1167 C1144 1.264 . S
C1168 C1161 1.403 . S
C1168 C1169 1.399 . S
C1168 H1174 0.929 . S
C1169 C1149 1.449 . S
C1169 C1168 1.399 . S
C1169 H1175 0.930 . S
H1170 C1150 0.931 . S
H1171 C1151 0.930 . S
H1172 C1159 0.931 . S
H1173 C1160 0.929 . S
H1174 C1168 0.929 . S
H1175 C1169 0.930 . S
Mn1176 O1181 2.095 . S
Mn1176 O1191 2.162 . S
Mn1176 O1192 2.297 . S
Mn1176 O1200 2.385 . S
Mn1176 O1201 2.209 . S
Mn1176 O1202 2.094 . S
Mn1177 O1182 2.121 . S
Mn1177 N1184 2.257 . S
Mn1177 N1193 2.282 . S
Mn1177 O1201 2.215 . S
Mn1177 O1203 2.117 . S
C1178 O1200 1.234 . S
C1178 O1201 1.283 . S
C1179 O1191 1.281 . S
C1179 O1192 1.236 . S
C1180 O1202 1.240 . S
C1180 O1203 1.264 . S
O1181 Mn1176 2.095 . S
O1181 C1190 1.250 . S
O1182 Mn1177 2.121 . S
O1182 C1190 1.258 . S
C1183 N1184 1.326 . S
C1183 C1187 1.460 . S
C1183 H1189 0.929 . S
N1184 Mn1177 2.257 . S
N1184 C1183 1.326 . S
N1184 C1188 1.362 . S
C1185 C1186 1.258 . S
C1185 C1188 1.431 . S
C1185 C1205 1.449 . S
C1186 C1185 1.258 . S
C1186 C1187 1.477 . S
C1186 H1206 0.931 . S
C1187 C1183 1.460 . S
C1187 C1186 1.477 . S
C1187 H1207 0.930 . S
C1188 N1184 1.362 . S
C1188 C1185 1.431 . S
C1188 C1198 1.476 . S
H1189 C1183 0.929 . S
C1190 O1181 1.250 . S
C1190 O1182 1.258 . S
O1191 Mn1176 2.162 . S
O1191 C1179 1.281 . S
O1192 Mn1176 2.297 . S
O1192 C1179 1.236 . S
N1193 Mn1177 2.282 . S
N1193 C1194 1.328 . S
N1193 C1198 1.318 . S
C1194 N1193 1.328 . S
C1194 C1195 1.457 . S
C1194 H1199 0.929 . S
C1195 C1194 1.457 . S
C1195 C1196 1.291 . S
C1195 H1208 0.931 . S
C1196 C1195 1.291 . S
C1196 C1197 1.373 . S
C1196 H1209 0.929 . S
C1197 C1196 1.373 . S
C1197 C1198 1.396 . S
C1197 C1204 1.403 . S
C1198 C1188 1.476 . S
C1198 N1193 1.318 . S
C1198 C1197 1.396 . S
H1199 C1194 0.929 . S
O1200 Mn1176 2.385 . S
O1200 C1178 1.234 . S
O1201 Mn1176 2.209 . S
O1201 Mn1177 2.215 . S
O1201 C1178 1.283 . S
O1202 Mn1176 2.094 . S
O1202 C1180 1.240 . S
O1203 Mn1177 2.117 . S
O1203 C1180 1.264 . S
C1204 C1197 1.403 . S
C1204 C1205 1.399 . S
C1204 H1210 0.929 . S
C1205 C1185 1.449 . S
C1205 C1204 1.399 . S
C1205 H1211 0.930 . S
H1206 C1186 0.931 . S
H1207 C1187 0.930 . S
H1208 C1195 0.931 . S
H1209 C1196 0.929 . S
H1210 C1204 0.929 . S
H1211 C1205 0.930 . S
Mn1212 O1217 2.095 . S
Mn1212 O1227 2.162 . S
Mn1212 O1228 2.297 . S
Mn1212 O1236 2.385 1_565 S
Mn1212 O1237 2.209 1_565 S
Mn1212 O1238 2.094 . S
Mn1213 O1218 2.121 . S
Mn1213 N1220 2.257 . S
Mn1213 N1229 2.282 . S
Mn1213 O1237 2.215 . S
Mn1213 O1239 2.117 . S
C1214 O1236 1.234 . S
C1214 O1237 1.283 . S
C1215 O1227 1.281 . S
C1215 O1228 1.236 . S
C1216 O1238 1.218 1_545 S
C1216 O1239 1.293 . S
O1217 Mn1212 2.095 . S
O1217 C1226 1.250 1_565 S
O1218 Mn1213 2.121 . S
O1218 C1226 1.258 . S
C1219 N1220 1.326 . S
C1219 C1223 1.460 . S
C1219 H1225 0.929 . S
N1220 Mn1213 2.257 . S
N1220 C1219 1.326 . S
N1220 C1224 1.362 . S
C1221 C1222 1.258 . S
C1221 C1224 1.431 . S
C1221 C1241 1.449 . S
C1222 C1221 1.258 . S
C1222 C1223 1.477 . S
C1222 H1242 0.931 . S
C1223 C1219 1.460 . S
C1223 C1222 1.477 . S
C1223 H1243 0.930 . S
C1224 N1220 1.362 . S
C1224 C1221 1.431 . S
C1224 C1234 1.476 . S
H1225 C1219 0.929 . S
C1226 O1217 1.250 1_545 S
C1226 O1218 1.258 . S
O1227 Mn1212 2.162 . S
O1227 C1215 1.281 . S
O1228 Mn1212 2.297 . S
O1228 C1215 1.236 . S
N1229 Mn1213 2.282 . S
N1229 C1230 1.328 . S
N1229 C1234 1.318 . S
C1230 N1229 1.328 . S
C1230 C1231 1.457 . S
C1230 H1235 0.929 . S
C1231 C1230 1.457 . S
C1231 C1232 1.291 . S
C1231 H1244 0.931 . S
C1232 C1231 1.291 . S
C1232 C1233 1.373 . S
C1232 H1245 0.929 . S
C1233 C1232 1.373 . S
C1233 C1234 1.396 . S
C1233 C1240 1.403 . S
C1234 C1224 1.476 . S
C1234 N1229 1.318 . S
C1234 C1233 1.396 . S
H1235 C1230 0.929 . S
O1236 Mn1212 2.385 1_545 S
O1236 C1214 1.234 . S
O1237 Mn1212 2.209 1_545 S
O1237 Mn1213 2.215 . S
O1237 C1214 1.283 . S
O1238 Mn1212 2.094 . S
O1238 C1216 1.218 1_565 S
O1239 Mn1213 2.117 . S
O1239 C1216 1.293 . S
C1240 C1233 1.403 . S
C1240 C1241 1.399 . S
C1240 H1246 0.929 . S
C1241 C1221 1.449 . S
C1241 C1240 1.399 . S
C1241 H1247 0.930 . S
H1242 C1222 0.931 . S
H1243 C1223 0.930 . S
H1244 C1231 0.931 . S
H1245 C1232 0.929 . S
H1246 C1240 0.929 . S
H1247 C1241 0.930 . S
Mn1248 O1253 2.095 . S
Mn1248 O1263 2.162 . S
Mn1248 O1264 2.297 . S
Mn1248 O1272 2.385 1_455 S
Mn1248 O1273 2.209 1_455 S
Mn1248 O1274 2.094 . S
Mn1249 O1254 2.121 . S
Mn1249 N1256 2.257 . S
Mn1249 N1265 2.282 . S
Mn1249 O1273 2.215 . S
Mn1249 O1275 2.117 . S
C1250 O1272 1.234 . S
C1250 O1273 1.283 . S
C1251 O1263 1.281 . S
C1251 O1264 1.236 . S
C1252 O1274 1.240 . S
C1252 O1275 1.264 1_455 S
O1253 Mn1248 2.095 . S
O1253 C1262 1.250 1_455 S
O1254 Mn1249 2.121 . S
O1254 C1262 1.258 . S
C1255 N1256 1.326 . S
C1255 C1259 1.460 . S
C1255 H1261 0.929 . S
N1256 Mn1249 2.257 . S
N1256 C1255 1.326 . S
N1256 C1260 1.362 . S
C1257 C1258 1.258 . S
C1257 C1260 1.431 . S
C1257 C1277 1.449 . S
C1258 C1257 1.258 . S
C1258 C1259 1.477 . S
C1258 H1278 0.931 . S
C1259 C1255 1.460 . S
C1259 C1258 1.477 . S
C1259 H1279 0.930 . S
C1260 N1256 1.362 . S
C1260 C1257 1.431 . S
C1260 C1270 1.476 . S
H1261 C1255 0.929 . S
C1262 O1253 1.250 1_655 S
C1262 O1254 1.258 . S
O1263 Mn1248 2.162 . S
O1263 C1251 1.281 . S
O1264 Mn1248 2.297 . S
O1264 C1251 1.236 . S
N1265 Mn1249 2.282 . S
N1265 C1266 1.328 . S
N1265 C1270 1.318 . S
C1266 N1265 1.328 . S
C1266 C1267 1.457 . S
C1266 H1271 0.929 . S
C1267 C1266 1.457 . S
C1267 C1268 1.291 . S
C1267 H1280 0.931 . S
C1268 C1267 1.291 . S
C1268 C1269 1.373 . S
C1268 H1281 0.929 . S
C1269 C1268 1.373 . S
C1269 C1270 1.396 . S
C1269 C1276 1.403 . S
C1270 C1260 1.476 . S
C1270 N1265 1.318 . S
C1270 C1269 1.396 . S
H1271 C1266 0.929 . S
O1272 Mn1248 2.385 1_655 S
O1272 C1250 1.234 . S
O1273 Mn1248 2.209 1_655 S
O1273 Mn1249 2.215 . S
O1273 C1250 1.283 . S
O1274 Mn1248 2.094 . S
O1274 C1252 1.240 . S
O1275 Mn1249 2.117 . S
O1275 C1252 1.264 1_655 S
C1276 C1269 1.403 . S
C1276 C1277 1.399 . S
C1276 H1282 0.929 . S
C1277 C1257 1.449 . S
C1277 C1276 1.399 . S
C1277 H1283 0.930 . S
H1278 C1258 0.931 . S
H1279 C1259 0.930 . S
H1280 C1267 0.931 . S
H1281 C1268 0.929 . S
H1282 C1276 0.929 . S
H1283 C1277 0.930 . S
Mn1284 O1289 2.095 . S
Mn1284 O1299 2.162 . S
Mn1284 O1300 2.297 . S
Mn1284 O1308 2.385 . S
Mn1284 O1309 2.209 . S
Mn1284 O1310 2.094 . S
Mn1285 O1290 2.121 . S
Mn1285 N1292 2.257 . S
Mn1285 N1301 2.282 . S
Mn1285 O1309 2.215 . S
Mn1285 O1311 2.117 . S
C1286 O1308 1.234 . S
C1286 O1309 1.283 . S
C1287 O1299 1.281 . S
C1287 O1300 1.236 . S
C1288 O1310 1.240 . S
C1288 O1311 1.264 . S
O1289 Mn1284 2.095 . S
O1289 C1298 1.250 . S
O1290 Mn1285 2.121 . S
O1290 C1298 1.258 . S
C1291 N1292 1.326 . S
C1291 C1295 1.460 . S
C1291 H1297 0.929 . S
N1292 Mn1285 2.257 . S
N1292 C1291 1.326 . S
N1292 C1296 1.362 . S
C1293 C1294 1.258 . S
C1293 C1296 1.431 . S
C1293 C1313 1.449 . S
C1294 C1293 1.258 . S
C1294 C1295 1.477 . S
C1294 H1314 0.931 . S
C1295 C1291 1.460 . S
C1295 C1294 1.477 . S
C1295 H1315 0.930 . S
C1296 N1292 1.362 . S
C1296 C1293 1.431 . S
C1296 C1306 1.476 . S
H1297 C1291 0.929 . S
C1298 O1289 1.250 . S
C1298 O1290 1.258 . S
O1299 Mn1284 2.162 . S
O1299 C1287 1.281 . S
O1300 Mn1284 2.297 . S
O1300 C1287 1.236 . S
N1301 Mn1285 2.282 . S
N1301 C1302 1.328 . S
N1301 C1306 1.318 . S
C1302 N1301 1.328 . S
C1302 C1303 1.457 . S
C1302 H1307 0.929 . S
C1303 C1302 1.457 . S
C1303 C1304 1.291 . S
C1303 H1316 0.931 . S
C1304 C1303 1.291 . S
C1304 C1305 1.373 . S
C1304 H1317 0.929 . S
C1305 C1304 1.373 . S
C1305 C1306 1.396 . S
C1305 C1312 1.403 . S
C1306 C1296 1.476 . S
C1306 N1301 1.318 . S
C1306 C1305 1.396 . S
H1307 C1302 0.929 . S
O1308 Mn1284 2.385 . S
O1308 C1286 1.234 . S
O1309 Mn1284 2.209 . S
O1309 Mn1285 2.215 . S
O1309 C1286 1.283 . S
O1310 Mn1284 2.094 . S
O1310 C1288 1.240 . S
O1311 Mn1285 2.117 . S
O1311 C1288 1.264 . S
C1312 C1305 1.403 . S
C1312 C1313 1.399 . S
C1312 H1318 0.929 . S
C1313 C1293 1.449 . S
C1313 C1312 1.399 . S
C1313 H1319 0.930 . S
H1314 C1294 0.931 . S
H1315 C1295 0.930 . S
H1316 C1303 0.931 . S
H1317 C1304 0.929 . S
H1318 C1312 0.929 . S
H1319 C1313 0.930 . S
Mn1320 O1325 2.095 1_455 S
Mn1320 O1335 2.162 . S
Mn1320 O1336 2.297 1_455 S
Mn1320 O1344 2.385 . S
Mn1320 O1345 2.209 1_455 S
Mn1320 O1346 2.094 . S
Mn1321 O1326 2.121 . S
Mn1321 N1328 2.257 . S
Mn1321 N1337 2.282 1_655 S
Mn1321 O1345 2.215 . S
Mn1321 O1347 2.117 1_655 S
C1322 O1344 1.234 . S
C1322 O1345 1.283 1_455 S
C1323 O1335 1.281 . S
C1323 O1336 1.236 1_455 S
C1324 O1346 1.240 . S
C1324 O1347 1.264 . S
O1325 Mn1320 2.095 1_655 S
O1325 C1334 1.250 . S
O1326 Mn1321 2.121 . S
O1326 C1334 1.258 . S
C1327 N1328 1.326 . S
C1327 C1331 1.460 . S
C1327 H1333 0.929 . S
N1328 Mn1321 2.257 . S
N1328 C1327 1.326 . S
N1328 C1332 1.362 . S
C1329 C1330 1.258 . S
C1329 C1332 1.431 . S
C1329 C1349 1.449 . S
C1330 C1329 1.258 . S
C1330 C1331 1.477 . S
C1330 H1350 0.931 . S
C1331 C1327 1.460 . S
C1331 C1330 1.477 . S
C1331 H1351 0.930 . S
C1332 N1328 1.362 . S
C1332 C1329 1.431 . S
C1332 C1342 1.476 . S
H1333 C1327 0.929 . S
C1334 O1325 1.250 . S
C1334 O1326 1.258 . S
O1335 Mn1320 2.162 . S
O1335 C1323 1.281 . S
O1336 Mn1320 2.297 1_655 S
O1336 C1323 1.236 1_655 S
N1337 Mn1321 2.282 1_455 S
N1337 C1338 1.328 . S
N1337 C1342 1.318 1_455 S
C1338 N1337 1.328 . S
C1338 C1339 1.457 . S
C1338 H1343 0.929 . S
C1339 C1338 1.457 . S
C1339 C1340 1.291 . S
C1339 H1352 0.931 . S
C1340 C1339 1.291 . S
C1340 C1341 1.373 1_455 S
C1340 H1353 0.929 . S
C1341 C1340 1.373 1_655 S
C1341 C1342 1.396 . S
C1341 C1348 1.403 . S
C1342 C1332 1.476 . S
C1342 N1337 1.318 1_655 S
C1342 C1341 1.396 . S
H1343 C1338 0.929 . S
O1344 Mn1320 2.385 . S
O1344 C1322 1.234 . S
O1345 Mn1320 2.209 1_655 S
O1345 Mn1321 2.215 . S
O1345 C1322 1.283 1_655 S
O1346 Mn1320 2.094 . S
O1346 C1324 1.240 . S
O1347 Mn1321 2.117 1_455 S
O1347 C1324 1.264 . S
C1348 C1341 1.403 . S
C1348 C1349 1.399 . S
C1348 H1354 0.929 . S
C1349 C1329 1.449 . S
C1349 C1348 1.399 . S
C1349 H1355 0.930 . S
H1350 C1330 0.931 . S
H1351 C1331 0.930 . S
H1352 C1339 0.931 . S
H1353 C1340 0.929 . S
H1354 C1348 0.929 . S
H1355 C1349 0.930 . S
Mn1356 O1361 2.095 . S
Mn1356 O1371 2.162 . S
Mn1356 O1372 2.297 . S
Mn1356 O1380 2.385 . S
Mn1356 O1381 2.209 . S
Mn1356 O1382 2.094 . S
Mn1357 O1362 2.121 . S
Mn1357 N1364 2.257 . S
Mn1357 N1373 2.282 . S
Mn1357 O1381 2.215 . S
Mn1357 O1383 2.117 . S
C1358 O1380 1.234 . S
C1358 O1381 1.283 . S
C1359 O1371 1.281 . S
C1359 O1372 1.236 . S
C1360 O1382 1.240 . S
C1360 O1383 1.264 . S
O1361 Mn1356 2.095 . S
O1361 C1370 1.250 . S
O1362 Mn1357 2.121 . S
O1362 C1370 1.258 . S
C1363 N1364 1.326 . S
C1363 C1367 1.460 . S
C1363 H1369 0.929 . S
N1364 Mn1357 2.257 . S
N1364 C1363 1.326 . S
N1364 C1368 1.362 . S
C1365 C1366 1.258 . S
C1365 C1368 1.431 . S
C1365 C1385 1.449 . S
C1366 C1365 1.258 . S
C1366 C1367 1.477 . S
C1366 H1386 0.931 . S
C1367 C1363 1.460 . S
C1367 C1366 1.477 . S
C1367 H1387 0.930 . S
C1368 N1364 1.362 . S
C1368 C1365 1.431 . S
C1368 C1378 1.476 . S
H1369 C1363 0.929 . S
C1370 O1361 1.250 . S
C1370 O1362 1.258 . S
O1371 Mn1356 2.162 . S
O1371 C1359 1.281 . S
O1372 Mn1356 2.297 . S
O1372 C1359 1.236 . S
N1373 Mn1357 2.282 . S
N1373 C1374 1.328 . S
N1373 C1378 1.318 . S
C1374 N1373 1.328 . S
C1374 C1375 1.457 . S
C1374 H1379 0.929 . S
C1375 C1374 1.457 . S
C1375 C1376 1.291 . S
C1375 H1388 0.931 . S
C1376 C1375 1.291 . S
C1376 C1377 1.373 . S
C1376 H1389 0.929 . S
C1377 C1376 1.373 . S
C1377 C1378 1.396 . S
C1377 C1384 1.403 . S
C1378 C1368 1.476 . S
C1378 N1373 1.318 . S
C1378 C1377 1.396 . S
H1379 C1374 0.929 . S
O1380 Mn1356 2.385 . S
O1380 C1358 1.234 . S
O1381 Mn1356 2.209 . S
O1381 Mn1357 2.215 . S
O1381 C1358 1.283 . S
O1382 Mn1356 2.094 . S
O1382 C1360 1.240 . S
O1383 Mn1357 2.117 . S
O1383 C1360 1.264 . S
C1384 C1377 1.403 . S
C1384 C1385 1.399 . S
C1384 H1390 0.929 . S
C1385 C1365 1.449 . S
C1385 C1384 1.399 . S
C1385 H1391 0.930 . S
H1386 C1366 0.931 . S
H1387 C1367 0.930 . S
H1388 C1375 0.931 . S
H1389 C1376 0.929 . S
H1390 C1384 0.929 . S
H1391 C1385 0.930 . S
C1392 C1393 1.349 . S
C1392 C1394 1.327 . S
C1392 H1417 0.950 . S
C1393 C1392 1.349 . S
C1393 C1409 1.349 . S
C1394 C1392 1.327 . S
C1394 C1413 1.429 . S
C1394 H1418 0.950 . S
C1395 C1412 1.574 . S
C1395 C1414 1.368 . S
C1395 H1419 0.949 . S
H1396 C1400 0.949 . S
C1397 C1398 1.349 . S
C1397 C1399 1.327 . S
C1397 H1420 0.950 . S
C1398 C1397 1.349 . S
C1398 C1410 1.349 . S
C1399 C1397 1.327 . S
C1399 C1415 1.429 . S
C1399 H1421 0.950 . S
C1400 H1396 0.949 . S
C1400 C1408 1.574 . S
C1400 C1416 1.368 . S
H1401 C1409 0.950 . S
H1402 C1407 0.950 . S
H1403 C1408 0.949 . S
H1404 C1410 0.950 . S
H1405 C1411 0.950 . S
H1406 C1412 0.949 . S
C1407 H1402 0.950 . S
C1407 C1409 1.327 . S
C1407 C1413 1.429 . S
C1408 C1400 1.574 . S
C1408 H1403 0.949 . S
C1408 C1414 1.368 . S
C1409 C1393 1.349 . S
C1409 H1401 0.950 . S
C1409 C1407 1.327 . S
C1410 C1398 1.349 . S
C1410 H1404 0.950 . S
C1410 C1411 1.327 . S
C1411 H1405 0.950 . S
C1411 C1410 1.327 . S
C1411 C1415 1.429 . S
C1412 C1395 1.574 . S
C1412 H1406 0.949 . S
C1412 C1416 1.368 . S
C1413 C1394 1.429 . S
C1413 C1407 1.429 . S
C1413 C1414 1.523 . S
C1414 C1395 1.368 . S
C1414 C1408 1.368 . S
C1414 C1413 1.523 . S
C1415 C1399 1.429 . S
C1415 C1411 1.429 . S
C1415 C1416 1.523 . S
C1416 C1400 1.368 . S
C1416 C1412 1.368 . S
C1416 C1415 1.523 . S
H1417 C1392 0.950 . S
H1418 C1394 0.950 . S
H1419 C1395 0.949 . S
H1420 C1397 0.950 . S
H1421 C1399 0.950 . S
C1422 C1423 1.349 . S
C1422 C1424 1.327 . S
C1422 H1447 0.950 . S
C1423 C1422 1.349 . S
C1423 C1439 1.349 . S
C1424 C1422 1.327 . S
C1424 C1443 1.429 . S
C1424 H1448 0.950 . S
C1425 C1442 1.574 . S
C1425 C1444 1.368 . S
C1425 H1449 0.949 . S
H1426 C1430 0.949 . S
C1427 C1428 1.349 . S
C1427 C1429 1.327 . S
C1427 H1450 0.950 . S
C1428 C1427 1.349 . S
C1428 C1440 1.349 . S
C1429 C1427 1.327 . S
C1429 C1445 1.429 . S
C1429 H1451 0.950 . S
C1430 H1426 0.949 . S
C1430 C1438 1.574 . S
C1430 C1446 1.368 . S
H1431 C1439 0.950 . S
H1432 C1437 0.950 . S
H1433 C1438 0.949 . S
H1434 C1440 0.950 . S
H1435 C1441 0.950 . S
H1436 C1442 0.949 . S
C1437 H1432 0.950 . S
C1437 C1439 1.327 . S
C1437 C1443 1.429 . S
C1438 C1430 1.574 . S
C1438 H1433 0.949 . S
C1438 C1444 1.368 . S
C1439 C1423 1.349 . S
C1439 H1431 0.950 . S
C1439 C1437 1.327 . S
C1440 C1428 1.349 . S
C1440 H1434 0.950 . S
C1440 C1441 1.327 . S
C1441 H1435 0.950 . S
C1441 C1440 1.327 . S
C1441 C1445 1.429 . S
C1442 C1425 1.574 . S
C1442 H1436 0.949 . S
C1442 C1446 1.368 . S
C1443 C1424 1.429 . S
C1443 C1437 1.429 . S
C1443 C1444 1.523 . S
C1444 C1425 1.368 . S
C1444 C1438 1.368 . S
C1444 C1443 1.523 . S
C1445 C1429 1.429 . S
C1445 C1441 1.429 . S
C1445 C1446 1.523 . S
C1446 C1430 1.368 . S
C1446 C1442 1.368 . S
C1446 C1445 1.523 . S
H1447 C1422 0.950 . S
H1448 C1424 0.950 . S
H1449 C1425 0.949 . S
H1450 C1427 0.950 . S
H1451 C1429 0.950 . S
C1452 C1453 1.349 . S
C1452 C1454 1.327 . S
C1452 H1477 0.950 . S
C1453 C1452 1.349 . S
C1453 C1469 1.349 . S
C1454 C1452 1.327 . S
C1454 C1473 1.429 . S
C1454 H1478 0.950 . S
C1455 C1472 1.574 . S
C1455 C1474 1.368 . S
C1455 H1479 0.949 . S
H1456 C1460 0.949 . S
C1457 C1458 1.349 . S
C1457 C1459 1.327 . S
C1457 H1480 0.950 . S
C1458 C1457 1.349 . S
C1458 C1470 1.349 . S
C1459 C1457 1.327 . S
C1459 C1475 1.429 . S
C1459 H1481 0.950 . S
C1460 H1456 0.949 . S
C1460 C1468 1.574 . S
C1460 C1476 1.368 . S
H1461 C1469 0.950 . S
H1462 C1467 0.950 . S
H1463 C1468 0.949 . S
H1464 C1470 0.950 . S
H1465 C1471 0.950 . S
H1466 C1472 0.949 . S
C1467 H1462 0.950 . S
C1467 C1469 1.327 . S
C1467 C1473 1.429 . S
C1468 C1460 1.574 . S
C1468 H1463 0.949 . S
C1468 C1474 1.368 . S
C1469 C1453 1.349 . S
C1469 H1461 0.950 . S
C1469 C1467 1.327 . S
C1470 C1458 1.349 . S
C1470 H1464 0.950 . S
C1470 C1471 1.327 . S
C1471 H1465 0.950 . S
C1471 C1470 1.327 . S
C1471 C1475 1.429 . S
C1472 C1455 1.574 . S
C1472 H1466 0.949 . S
C1472 C1476 1.368 . S
C1473 C1454 1.429 . S
C1473 C1467 1.429 . S
C1473 C1474 1.523 . S
C1474 C1455 1.368 . S
C1474 C1468 1.368 . S
C1474 C1473 1.523 . S
C1475 C1459 1.429 . S
C1475 C1471 1.429 . S
C1475 C1476 1.523 . S
C1476 C1460 1.368 . S
C1476 C1472 1.368 . S
C1476 C1475 1.523 . S
H1477 C1452 0.950 . S
H1478 C1454 0.950 . S
H1479 C1455 0.949 . S
H1480 C1457 0.950 . S
H1481 C1459 0.950 . S
C1482 C1483 1.349 . S
C1482 C1484 1.327 . S
C1482 H1507 0.950 . S
C1483 C1482 1.349 . S
C1483 C1499 1.404 . S
C1484 C1482 1.327 . S
C1484 C1503 1.429 . S
C1484 H1508 0.950 . S
C1485 C1502 1.574 . S
C1485 C1504 1.368 1_545 S
C1485 H1509 0.949 . S
H1486 C1490 0.949 . S
C1487 C1488 1.349 . S
C1487 C1489 1.327 . S
C1487 H1510 0.950 . S
C1488 C1487 1.349 . S
C1488 C1500 1.349 1_545 S
C1489 C1487 1.327 . S
C1489 C1505 1.429 1_545 S
C1489 H1511 0.950 . S
C1490 H1486 0.949 . S
C1490 C1498 1.574 . S
C1490 C1506 1.368 . S
H1491 C1499 0.906 1_545 S
H1492 C1497 0.950 . S
H1493 C1498 0.949 . S
H1494 C1500 0.950 . S
H1495 C1501 0.950 . S
H1496 C1502 0.949 . S
C1497 H1492 0.950 . S
C1497 C1499 1.317 1_545 S
C1497 C1503 1.429 1_545 S
C1498 C1490 1.574 . S
C1498 H1493 0.949 . S
C1498 C1504 1.368 . S
C1499 C1483 1.404 . S
C1499 H1491 0.906 1_565 S
C1499 C1497 1.317 1_565 S
C1500 C1488 1.349 1_565 S
C1500 H1494 0.950 . S
C1500 C1501 1.327 . S
C1501 H1495 0.950 . S
C1501 C1500 1.327 . S
C1501 C1505 1.429 . S
C1502 C1485 1.574 . S
C1502 H1496 0.949 . S
C1502 C1506 1.368 1_545 S
C1503 C1484 1.429 . S
C1503 C1497 1.429 1_565 S
C1503 C1504 1.523 . S
C1504 C1485 1.368 1_565 S
C1504 C1498 1.368 . S
C1504 C1503 1.523 . S
C1505 C1489 1.429 1_565 S
C1505 C1501 1.429 . S
C1505 C1506 1.523 . S
C1506 C1490 1.368 . S
C1506 C1502 1.368 1_565 S
C1506 C1505 1.523 . S
H1507 C1482 0.950 . S
H1508 C1484 0.950 . S
H1509 C1485 0.949 . S
H1510 C1487 0.950 . S
H1511 C1489 0.950 . S
C1512 C1513 1.349 . S
C1512 C1514 1.327 . S
C1512 H1537 0.950 . S
C1513 C1512 1.349 . S
C1513 C1529 1.349 . S
C1514 C1512 1.327 . S
C1514 C1533 1.429 . S
C1514 H1538 0.950 . S
C1515 C1532 1.574 . S
C1515 C1534 1.368 . S
C1515 H1539 0.949 . S
H1516 C1520 0.949 . S
C1517 C1518 1.349 . S
C1517 C1519 1.327 . S
C1517 H1540 0.950 . S
C1518 C1517 1.349 . S
C1518 C1530 1.349 . S
C1519 C1517 1.327 . S
C1519 C1535 1.429 . S
C1519 H1541 0.950 . S
C1520 H1516 0.949 . S
C1520 C1528 1.574 . S
C1520 C1536 1.368 . S
H1521 C1529 0.950 . S
H1522 C1527 0.950 . S
H1523 C1528 0.949 . S
H1524 C1530 0.950 . S
H1525 C1531 0.950 . S
H1526 C1532 0.949 . S
C1527 H1522 0.950 . S
C1527 C1529 1.327 . S
C1527 C1533 1.429 . S
C1528 C1520 1.574 . S
C1528 H1523 0.949 . S
C1528 C1534 1.368 . S
C1529 C1513 1.349 . S
C1529 H1521 0.950 . S
C1529 C1527 1.327 . S
C1530 C1518 1.349 . S
C1530 H1524 0.950 . S
C1530 C1531 1.327 . S
C1531 H1525 0.950 . S
C1531 C1530 1.327 . S
C1531 C1535 1.429 . S
C1532 C1515 1.574 . S
C1532 H1526 0.949 . S
C1532 C1536 1.368 . S
C1533 C1514 1.429 . S
C1533 C1527 1.429 . S
C1533 C1534 1.523 . S
C1534 C1515 1.368 . S
C1534 C1528 1.368 . S
C1534 C1533 1.523 . S
C1535 C1519 1.429 . S
C1535 C1531 1.429 . S
C1535 C1536 1.523 . S
C1536 C1520 1.368 . S
C1536 C1532 1.368 . S
C1536 C1535 1.523 . S
H1537 C1512 0.950 . S
H1538 C1514 0.950 . S
H1539 C1515 0.949 . S
H1540 C1517 0.950 . S
H1541 C1519 0.950 . S
C1542 C1543 1.349 . S
C1542 C1544 1.327 . S
C1542 H1567 0.950 . S
C1543 C1542 1.349 . S
C1543 C1559 1.349 . S
C1544 C1542 1.327 . S
C1544 C1563 1.429 . S
C1544 H1568 0.950 . S
C1545 C1562 1.574 . S
C1545 C1564 1.368 . S
C1545 H1569 0.949 . S
H1546 C1550 0.949 . S
C1547 C1548 1.349 . S
C1547 C1549 1.327 . S
C1547 H1570 0.950 . S
C1548 C1547 1.349 . S
C1548 C1560 1.349 . S
C1549 C1547 1.327 . S
C1549 C1565 1.429 . S
C1549 H1571 0.950 . S
C1550 H1546 0.949 . S
C1550 C1558 1.574 . S
C1550 C1566 1.368 . S
H1551 C1559 0.950 . S
H1552 C1557 0.950 . S
H1553 C1558 0.949 . S
H1554 C1560 0.950 . S
H1555 C1561 0.950 . S
H1556 C1562 0.949 . S
C1557 H1552 0.950 . S
C1557 C1559 1.327 . S
C1557 C1563 1.429 . S
C1558 C1550 1.574 . S
C1558 H1553 0.949 . S
C1558 C1564 1.368 . S
C1559 C1543 1.349 . S
C1559 H1551 0.950 . S
C1559 C1557 1.327 . S
C1560 C1548 1.349 . S
C1560 H1554 0.950 . S
C1560 C1561 1.327 . S
C1561 H1555 0.950 . S
C1561 C1560 1.327 . S
C1561 C1565 1.429 . S
C1562 C1545 1.574 . S
C1562 H1556 0.949 . S
C1562 C1566 1.368 . S
C1563 C1544 1.429 . S
C1563 C1557 1.429 . S
C1563 C1564 1.523 . S
C1564 C1545 1.368 . S
C1564 C1558 1.368 . S
C1564 C1563 1.523 . S
C1565 C1549 1.429 . S
C1565 C1561 1.429 . S
C1565 C1566 1.523 . S
C1566 C1550 1.368 . S
C1566 C1562 1.368 . S
C1566 C1565 1.523 . S
H1567 C1542 0.950 . S
H1568 C1544 0.950 . S
H1569 C1545 0.949 . S
H1570 C1547 0.950 . S
H1571 C1549 0.950 . S
C1572 C1573 1.349 . S
C1572 C1574 1.327 . S
C1572 H1597 0.950 . S
C1573 C1572 1.349 . S
C1573 C1589 1.349 . S
C1574 C1572 1.327 . S
C1574 C1593 1.429 . S
C1574 H1598 0.950 . S
C1575 C1592 1.574 . S
C1575 C1594 1.368 . S
C1575 H1599 0.949 . S
H1576 C1580 0.949 . S
C1577 C1578 1.349 . S
C1577 C1579 1.327 . S
C1577 H1600 0.950 . S
C1578 C1577 1.349 . S
C1578 C1590 1.349 . S
C1579 C1577 1.327 . S
C1579 C1595 1.429 . S
C1579 H1601 0.950 . S
C1580 H1576 0.949 . S
C1580 C1588 1.574 . S
C1580 C1596 1.368 . S
H1581 C1589 0.950 . S
H1582 C1587 0.950 . S
H1583 C1588 0.949 . S
H1584 C1590 0.950 . S
H1585 C1591 0.950 . S
H1586 C1592 0.949 . S
C1587 H1582 0.950 . S
C1587 C1589 1.327 . S
C1587 C1593 1.429 . S
C1588 C1580 1.574 . S
C1588 H1583 0.949 . S
C1588 C1594 1.368 . S
C1589 C1573 1.349 . S
C1589 H1581 0.950 . S
C1589 C1587 1.327 . S
C1590 C1578 1.349 . S
C1590 H1584 0.950 . S
C1590 C1591 1.327 . S
C1591 H1585 0.950 . S
C1591 C1590 1.327 . S
C1591 C1595 1.429 . S
C1592 C1575 1.574 . S
C1592 H1586 0.949 . S
C1592 C1596 1.368 . S
C1593 C1574 1.429 . S
C1593 C1587 1.429 . S
C1593 C1594 1.523 . S
C1594 C1575 1.368 . S
C1594 C1588 1.368 . S
C1594 C1593 1.523 . S
C1595 C1579 1.429 . S
C1595 C1591 1.429 . S
C1595 C1596 1.523 . S
C1596 C1580 1.368 . S
C1596 C1592 1.368 . S
C1596 C1595 1.523 . S
H1597 C1572 0.950 . S
H1598 C1574 0.950 . S
H1599 C1575 0.949 . S
H1600 C1577 0.950 . S
H1601 C1579 0.950 . S
C1602 C1603 1.349 . S
C1602 C1604 1.327 . S
C1602 H1627 0.948 . S
C1603 C1602 1.349 . S
C1603 C1619 1.349 . S
C1604 C1602 1.327 . S
C1604 C1623 1.429 . S
C1604 H1628 0.950 1_565 S
C1605 C1622 1.574 . S
C1605 C1624 1.368 . S
C1605 H1629 0.949 . S
H1606 C1610 0.949 . S
C1607 C1608 1.349 . S
C1607 C1609 1.327 . S
C1607 H1630 0.950 . S
C1608 C1607 1.349 . S
C1608 C1620 1.349 1_565 S
C1609 C1607 1.327 . S
C1609 C1625 1.429 . S
C1609 H1631 0.950 . S
C1610 H1606 0.949 . S
C1610 C1618 1.573 1_545 S
C1610 C1626 1.368 1_545 S
H1611 C1619 0.950 . S
H1612 C1617 0.950 . S
H1613 C1618 0.943 1_545 S
H1614 C1620 0.950 . S
H1615 C1621 0.950 . S
H1616 C1622 0.949 . S
C1617 H1612 0.950 . S
C1617 C1619 1.327 . S
C1617 C1623 1.429 . S
C1618 C1610 1.573 1_565 S
C1618 H1613 0.943 1_565 S
C1618 C1624 1.376 . S
C1619 C1603 1.349 . S
C1619 H1611 0.950 . S
C1619 C1617 1.327 . S
C1620 C1608 1.349 1_545 S
C1620 H1614 0.950 . S
C1620 C1621 1.327 . S
C1621 H1615 0.950 . S
C1621 C1620 1.327 . S
C1621 C1625 1.429 1_545 S
C1622 C1605 1.574 . S
C1622 H1616 0.949 . S
C1622 C1626 1.368 . S
C1623 C1604 1.429 . S
C1623 C1617 1.429 . S
C1623 C1624 1.523 . S
C1624 C1605 1.368 . S
C1624 C1618 1.376 . S
C1624 C1623 1.523 . S
C1625 C1609 1.429 . S
C1625 C1621 1.429 1_565 S
C1625 C1626 1.523 . S
C1626 C1610 1.368 1_565 S
C1626 C1622 1.368 . S
C1626 C1625 1.523 . S
H1627 C1602 0.948 . S
H1628 C1604 0.950 1_545 S
H1629 C1605 0.949 . S
H1630 C1607 0.950 . S
H1631 C1609 0.950 . S
C1632 C1633 1.349 . S
C1632 C1634 1.327 . S
C1632 H1657 0.950 . S
C1633 C1632 1.349 . S
C1633 C1649 1.349 . S
C1634 C1632 1.327 . S
C1634 C1653 1.429 . S
C1634 H1658 0.950 . S
C1635 C1652 1.574 . S
C1635 C1654 1.368 . S
C1635 H1659 0.949 . S
H1636 C1640 0.949 . S
C1637 C1638 1.349 . S
C1637 C1639 1.327 . S
C1637 H1660 0.950 . S
C1638 C1637 1.349 . S
C1638 C1650 1.349 . S
C1639 C1637 1.327 . S
C1639 C1655 1.429 . S
C1639 H1661 0.950 . S
C1640 H1636 0.949 . S
C1640 C1648 1.574 . S
C1640 C1656 1.368 . S
H1641 C1649 0.950 . S
H1642 C1647 0.950 . S
H1643 C1648 0.949 . S
H1644 C1650 0.950 . S
H1645 C1651 0.950 . S
H1646 C1652 0.949 . S
C1647 H1642 0.950 . S
C1647 C1649 1.327 . S
C1647 C1653 1.429 . S
C1648 C1640 1.574 . S
C1648 H1643 0.949 . S
C1648 C1654 1.368 . S
C1649 C1633 1.349 . S
C1649 H1641 0.950 . S
C1649 C1647 1.327 . S
C1650 C1638 1.349 . S
C1650 H1644 0.950 . S
C1650 C1651 1.327 . S
C1651 H1645 0.950 . S
C1651 C1650 1.327 . S
C1651 C1655 1.429 . S
C1652 C1635 1.574 . S
C1652 H1646 0.949 . S
C1652 C1656 1.368 . S
C1653 C1634 1.429 . S
C1653 C1647 1.429 . S
C1653 C1654 1.523 . S
C1654 C1635 1.368 . S
C1654 C1648 1.368 . S
C1654 C1653 1.523 . S
C1655 C1639 1.429 . S
C1655 C1651 1.429 . S
C1655 C1656 1.523 . S
C1656 C1640 1.368 . S
C1656 C1652 1.368 . S
C1656 C1655 1.523 . S
H1657 C1632 0.950 . S
H1658 C1634 0.950 . S
H1659 C1635 0.949 . S
H1660 C1637 0.950 . S
H1661 C1639 0.950 . S
C1662 C1663 1.349 . S
C1662 C1664 1.327 . S
C1662 H1687 0.950 . S
C1663 C1662 1.349 . S
C1663 C1679 1.349 . S
C1664 C1662 1.327 . S
C1664 C1683 1.429 . S
C1664 H1688 0.950 . S
C1665 C1682 1.574 . S
C1665 C1684 1.368 . S
C1665 H1689 0.949 . S
H1666 C1670 0.949 . S
C1667 C1668 1.349 . S
C1667 C1669 1.327 . S
C1667 H1690 0.950 . S
C1668 C1667 1.349 . S
C1668 C1680 1.349 . S
C1669 C1667 1.327 . S
C1669 C1685 1.429 . S
C1669 H1691 0.950 . S
C1670 H1666 0.949 . S
C1670 C1678 1.574 . S
C1670 C1686 1.368 . S
H1671 C1679 0.950 . S
H1672 C1677 0.950 . S
H1673 C1678 0.949 . S
H1674 C1680 0.950 . S
H1675 C1681 0.950 . S
H1676 C1682 0.949 . S
C1677 H1672 0.950 . S
C1677 C1679 1.327 . S
C1677 C1683 1.429 . S
C1678 C1670 1.574 . S
C1678 H1673 0.949 . S
C1678 C1684 1.368 . S
C1679 C1663 1.349 . S
C1679 H1671 0.950 . S
C1679 C1677 1.327 . S
C1680 C1668 1.349 . S
C1680 H1674 0.950 . S
C1680 C1681 1.327 . S
C1681 H1675 0.950 . S
C1681 C1680 1.327 . S
C1681 C1685 1.429 . S
C1682 C1665 1.574 . S
C1682 H1676 0.949 . S
C1682 C1686 1.368 . S
C1683 C1664 1.429 . S
C1683 C1677 1.429 . S
C1683 C1684 1.523 . S
C1684 C1665 1.368 . S
C1684 C1678 1.368 . S
C1684 C1683 1.523 . S
C1685 C1669 1.429 . S
C1685 C1681 1.429 . S
C1685 C1686 1.523 . S
C1686 C1670 1.368 . S
C1686 C1682 1.368 . S
C1686 C1685 1.523 . S
H1687 C1662 0.950 . S
H1688 C1664 0.950 . S
H1689 C1665 0.949 . S
H1690 C1667 0.950 . S
H1691 C1669 0.950 . S
C1692 C1693 1.349 . S
C1692 C1694 1.327 . S
C1692 H1717 0.950 . S
C1693 C1692 1.349 . S
C1693 C1709 1.349 . S
C1694 C1692 1.327 . S
C1694 C1713 1.429 . S
C1694 H1718 0.950 . S
C1695 C1712 1.574 . S
C1695 C1714 1.368 . S
C1695 H1719 0.949 . S
H1696 C1700 0.949 . S
C1697 C1698 1.349 . S
C1697 C1699 1.327 . S
C1697 H1720 0.950 . S
C1698 C1697 1.349 . S
C1698 C1710 1.349 . S
C1699 C1697 1.327 . S
C1699 C1715 1.429 . S
C1699 H1721 0.950 . S
C1700 H1696 0.949 . S
C1700 C1708 1.574 . S
C1700 C1716 1.368 . S
H1701 C1709 0.950 . S
H1702 C1707 0.950 . S
H1703 C1708 0.949 . S
H1704 C1710 0.950 . S
H1705 C1711 0.950 . S
H1706 C1712 0.949 . S
C1707 H1702 0.950 . S
C1707 C1709 1.327 . S
C1707 C1713 1.429 . S
C1708 C1700 1.574 . S
C1708 H1703 0.949 . S
C1708 C1714 1.368 . S
C1709 C1693 1.349 . S
C1709 H1701 0.950 . S
C1709 C1707 1.327 . S
C1710 C1698 1.349 . S
C1710 H1704 0.950 . S
C1710 C1711 1.327 . S
C1711 H1705 0.950 . S
C1711 C1710 1.327 . S
C1711 C1715 1.429 . S
C1712 C1695 1.574 . S
C1712 H1706 0.949 . S
C1712 C1716 1.368 . S
C1713 C1694 1.429 . S
C1713 C1707 1.429 . S
C1713 C1714 1.523 . S
C1714 C1695 1.368 . S
C1714 C1708 1.368 . S
C1714 C1713 1.523 . S
C1715 C1699 1.429 . S
C1715 C1711 1.429 . S
C1715 C1716 1.523 . S
C1716 C1700 1.368 . S
C1716 C1712 1.368 . S
C1716 C1715 1.523 . S
H1717 C1692 0.950 . S
H1718 C1694 0.950 . S
H1719 C1695 0.949 . S
H1720 C1697 0.950 . S
H1721 C1699 0.950 . S
C1722 C1723 1.349 . S
C1722 C1724 1.327 . S
C1722 H1747 0.950 . S
C1723 C1722 1.349 . S
C1723 C1739 1.349 . S
C1724 C1722 1.327 . S
C1724 C1743 1.429 . S
C1724 H1748 0.950 . S
C1725 C1742 1.574 . S
C1725 C1744 1.368 . S
C1725 H1749 0.949 . S
H1726 C1730 0.949 . S
C1727 C1728 1.349 . S
C1727 C1729 1.327 . S
C1727 H1750 0.950 . S
C1728 C1727 1.349 . S
C1728 C1740 1.349 . S
C1729 C1727 1.327 . S
C1729 C1745 1.429 . S
C1729 H1751 0.950 . S
C1730 H1726 0.949 . S
C1730 C1738 1.574 . S
C1730 C1746 1.368 . S
H1731 C1739 0.950 . S
H1732 C1737 0.950 . S
H1733 C1738 0.949 . S
H1734 C1740 0.950 . S
H1735 C1741 0.950 . S
H1736 C1742 0.949 . S
C1737 H1732 0.950 . S
C1737 C1739 1.327 . S
C1737 C1743 1.429 . S
C1738 C1730 1.574 . S
C1738 H1733 0.949 . S
C1738 C1744 1.368 . S
C1739 C1723 1.349 . S
C1739 H1731 0.950 . S
C1739 C1737 1.327 . S
C1740 C1728 1.349 . S
C1740 H1734 0.950 . S
C1740 C1741 1.327 . S
C1741 H1735 0.950 . S
C1741 C1740 1.327 . S
C1741 C1745 1.429 . S
C1742 C1725 1.574 . S
C1742 H1736 0.949 . S
C1742 C1746 1.368 . S
C1743 C1724 1.429 . S
C1743 C1737 1.429 . S
C1743 C1744 1.523 . S
C1744 C1725 1.368 . S
C1744 C1738 1.368 . S
C1744 C1743 1.523 . S
C1745 C1729 1.429 . S
C1745 C1741 1.429 . S
C1745 C1746 1.523 . S
C1746 C1730 1.368 . S
C1746 C1742 1.368 . S
C1746 C1745 1.523 . S
H1747 C1722 0.950 . S
H1748 C1724 0.950 . S
H1749 C1725 0.949 . S
H1750 C1727 0.950 . S
H1751 C1729 0.950 . S
C1752 C1753 1.349 . S
C1752 C1754 1.327 . S
C1752 H1777 0.950 . S
C1753 C1752 1.349 . S
C1753 C1769 1.349 . S
C1754 C1752 1.327 . S
C1754 C1773 1.429 . S
C1754 H1778 0.950 . S
C1755 C1772 1.574 . S
C1755 C1774 1.368 . S
C1755 H1779 0.949 . S
H1756 C1760 0.949 . S
C1757 C1758 1.349 . S
C1757 C1759 1.327 . S
C1757 H1780 0.950 . S
C1758 C1757 1.349 . S
C1758 C1770 1.349 . S
C1759 C1757 1.327 . S
C1759 C1775 1.429 . S
C1759 H1781 0.950 . S
C1760 H1756 0.949 . S
C1760 C1768 1.574 . S
C1760 C1776 1.368 . S
H1761 C1769 0.950 . S
H1762 C1767 0.950 . S
H1763 C1768 0.949 . S
H1764 C1770 0.950 . S
H1765 C1771 0.950 . S
H1766 C1772 0.949 . S
C1767 H1762 0.950 . S
C1767 C1769 1.327 . S
C1767 C1773 1.429 . S
C1768 C1760 1.574 . S
C1768 H1763 0.949 . S
C1768 C1774 1.368 . S
C1769 C1753 1.349 . S
C1769 H1761 0.950 . S
C1769 C1767 1.327 . S
C1770 C1758 1.349 . S
C1770 H1764 0.950 . S
C1770 C1771 1.327 . S
C1771 H1765 0.950 . S
C1771 C1770 1.327 . S
C1771 C1775 1.429 . S
C1772 C1755 1.574 . S
C1772 H1766 0.949 . S
C1772 C1776 1.368 . S
C1773 C1754 1.429 . S
C1773 C1767 1.429 . S
C1773 C1774 1.523 . S
C1774 C1755 1.368 . S
C1774 C1768 1.368 . S
C1774 C1773 1.523 . S
C1775 C1759 1.429 . S
C1775 C1771 1.429 . S
C1775 C1776 1.523 . S
C1776 C1760 1.368 . S
C1776 C1772 1.368 . S
C1776 C1775 1.523 . S
H1777 C1752 0.950 . S
H1778 C1754 0.950 . S
H1779 C1755 0.949 . S
H1780 C1757 0.950 . S
H1781 C1759 0.950 . S
C1782 C1783 1.349 . S
C1782 C1784 1.327 . S
C1782 H1807 0.950 . S
C1783 C1782 1.349 . S
C1783 C1799 1.349 . S
C1784 C1782 1.327 . S
C1784 C1803 1.429 . S
C1784 H1808 0.950 . S
C1785 C1802 1.574 . S
C1785 C1804 1.368 . S
C1785 H1809 0.949 . S
H1786 C1790 0.949 . S
C1787 C1788 1.349 . S
C1787 C1789 1.327 . S
C1787 H1810 0.950 . S
C1788 C1787 1.349 . S
C1788 C1800 1.349 . S
C1789 C1787 1.327 . S
C1789 C1805 1.429 . S
C1789 H1811 0.950 . S
C1790 H1786 0.949 . S
C1790 C1798 1.574 . S
C1790 C1806 1.368 . S
H1791 C1799 0.950 . S
H1792 C1797 0.950 . S
H1793 C1798 0.949 . S
H1794 C1800 0.950 . S
H1795 C1801 0.950 . S
H1796 C1802 0.949 . S
C1797 H1792 0.950 . S
C1797 C1799 1.327 . S
C1797 C1803 1.429 . S
C1798 C1790 1.574 . S
C1798 H1793 0.949 . S
C1798 C1804 1.368 . S
C1799 C1783 1.349 . S
C1799 H1791 0.950 . S
C1799 C1797 1.327 . S
C1800 C1788 1.349 . S
C1800 H1794 0.950 . S
C1800 C1801 1.327 . S
C1801 H1795 0.950 . S
C1801 C1800 1.327 . S
C1801 C1805 1.429 . S
C1802 C1785 1.574 . S
C1802 H1796 0.949 . S
C1802 C1806 1.368 . S
C1803 C1784 1.429 . S
C1803 C1797 1.429 . S
C1803 C1804 1.523 . S
C1804 C1785 1.368 . S
C1804 C1798 1.368 . S
C1804 C1803 1.523 . S
C1805 C1789 1.429 . S
C1805 C1801 1.429 . S
C1805 C1806 1.523 . S
C1806 C1790 1.368 . S
C1806 C1802 1.368 . S
C1806 C1805 1.523 . S
H1807 C1782 0.950 . S
H1808 C1784 0.950 . S
H1809 C1785 0.949 . S
H1810 C1787 0.950 . S
H1811 C1789 0.950 . S
C1812 C1813 1.349 . S
C1812 C1814 1.327 . S
C1812 H1837 0.950 . S
C1813 C1812 1.349 . S
C1813 C1829 1.349 . S
C1814 C1812 1.327 . S
C1814 C1833 1.429 . S
C1814 H1838 0.950 . S
C1815 C1832 1.574 . S
C1815 C1834 1.368 . S
C1815 H1839 0.949 . S
H1816 C1820 0.949 . S
C1817 C1818 1.349 . S
C1817 C1819 1.327 . S
C1817 H1840 0.950 . S
C1818 C1817 1.349 . S
C1818 C1830 1.349 . S
C1819 C1817 1.327 . S
C1819 C1835 1.429 . S
C1819 H1841 0.950 . S
C1820 H1816 0.949 . S
C1820 C1828 1.574 . S
C1820 C1836 1.368 . S
H1821 C1829 0.950 . S
H1822 C1827 0.950 . S
H1823 C1828 0.949 . S
H1824 C1830 0.950 . S
H1825 C1831 0.950 . S
H1826 C1832 0.949 . S
C1827 H1822 0.950 . S
C1827 C1829 1.327 . S
C1827 C1833 1.429 . S
C1828 C1820 1.574 . S
C1828 H1823 0.949 . S
C1828 C1834 1.368 . S
C1829 C1813 1.349 . S
C1829 H1821 0.950 . S
C1829 C1827 1.327 . S
C1830 C1818 1.349 . S
C1830 H1824 0.950 . S
C1830 C1831 1.327 . S
C1831 H1825 0.950 . S
C1831 C1830 1.327 . S
C1831 C1835 1.429 . S
C1832 C1815 1.574 . S
C1832 H1826 0.949 . S
C1832 C1836 1.368 . S
C1833 C1814 1.429 . S
C1833 C1827 1.429 . S
C1833 C1834 1.523 . S
C1834 C1815 1.368 . S
C1834 C1828 1.368 . S
C1834 C1833 1.523 . S
C1835 C1819 1.429 . S
C1835 C1831 1.429 . S
C1835 C1836 1.523 . S
C1836 C1820 1.368 . S
C1836 C1832 1.368 . S
C1836 C1835 1.523 . S
H1837 C1812 0.950 . S
H1838 C1814 0.950 . S
H1839 C1815 0.949 . S
H1840 C1817 0.950 . S
H1841 C1819 0.950 . S
C1842 C1843 1.349 . S
C1842 C1844 1.327 . S
C1842 H1867 0.950 . S
C1843 C1842 1.349 . S
C1843 C1859 1.349 . S
C1844 C1842 1.327 . S
C1844 C1863 1.429 . S
C1844 H1868 0.950 . S
C1845 C1862 1.582 . S
C1845 C1864 1.368 . S
C1845 H1869 0.958 . S
H1846 C1850 0.949 . S
C1847 C1848 1.359 . S
C1847 C1849 1.327 . S
C1847 H1870 0.950 . S
C1848 C1847 1.359 . S
C1848 C1860 1.337 1_455 S
C1849 C1847 1.327 . S
C1849 C1865 1.429 1_455 S
C1849 H1871 0.950 . S
C1850 H1846 0.949 . S
C1850 C1858 1.574 . S
C1850 C1866 1.368 . S
H1851 C1859 0.950 . S
H1852 C1857 0.950 . S
H1853 C1858 0.949 . S
H1854 C1860 0.950 . S
H1855 C1861 0.950 . S
H1856 C1862 0.926 1_455 S
C1857 H1852 0.950 . S
C1857 C1859 1.327 . S
C1857 C1863 1.429 . S
C1858 C1850 1.574 . S
C1858 H1853 0.949 . S
C1858 C1864 1.368 . S
C1859 C1843 1.349 . S
C1859 H1851 0.950 . S
C1859 C1857 1.327 . S
C1860 C1848 1.337 1_655 S
C1860 H1854 0.950 . S
C1860 C1861 1.327 . S
C1861 H1855 0.950 . S
C1861 C1860 1.327 . S
C1861 C1865 1.429 . S
C1862 C1845 1.582 . S
C1862 H1856 0.926 1_655 S
C1862 C1866 1.391 . S
C1863 C1844 1.429 . S
C1863 C1857 1.429 . S
C1863 C1864 1.523 . S
C1864 C1845 1.368 . S
C1864 C1858 1.368 . S
C1864 C1863 1.523 . S
C1865 C1849 1.429 1_655 S
C1865 C1861 1.429 . S
C1865 C1866 1.523 . S
C1866 C1850 1.368 . S
C1866 C1862 1.391 . S
C1866 C1865 1.523 . S
H1867 C1842 0.950 . S
H1868 C1844 0.950 . S
H1869 C1845 0.958 . S
H1870 C1847 0.950 . S
H1871 C1849 0.950 . S
C1872 C1873 1.349 . S
C1872 C1874 1.327 . S
C1872 H1897 0.950 . S
C1873 C1872 1.349 . S
C1873 C1889 1.349 . S
C1874 C1872 1.327 . S
C1874 C1893 1.429 . S
C1874 H1898 0.950 . S
C1875 C1892 1.574 . S
C1875 C1894 1.368 . S
C1875 H1899 0.949 . S
H1876 C1880 0.949 . S
C1877 C1878 1.349 . S
C1877 C1879 1.327 . S
C1877 H1900 0.950 . S
C1878 C1877 1.349 . S
C1878 C1890 1.349 . S
C1879 C1877 1.327 . S
C1879 C1895 1.429 . S
C1879 H1901 0.950 . S
C1880 H1876 0.949 . S
C1880 C1888 1.574 . S
C1880 C1896 1.368 . S
H1881 C1889 0.950 . S
H1882 C1887 0.950 . S
H1883 C1888 0.949 . S
H1884 C1890 0.950 . S
H1885 C1891 0.950 . S
H1886 C1892 0.949 . S
C1887 H1882 0.950 . S
C1887 C1889 1.327 . S
C1887 C1893 1.429 . S
C1888 C1880 1.574 . S
C1888 H1883 0.949 . S
C1888 C1894 1.368 . S
C1889 C1873 1.349 . S
C1889 H1881 0.950 . S
C1889 C1887 1.327 . S
C1890 C1878 1.349 . S
C1890 H1884 0.950 . S
C1890 C1891 1.327 . S
C1891 H1885 0.950 . S
C1891 C1890 1.327 . S
C1891 C1895 1.429 . S
C1892 C1875 1.574 . S
C1892 H1886 0.949 . S
C1892 C1896 1.368 . S
C1893 C1874 1.429 . S
C1893 C1887 1.429 . S
C1893 C1894 1.523 . S
C1894 C1875 1.368 . S
C1894 C1888 1.368 . S
C1894 C1893 1.523 . S
C1895 C1879 1.429 . S
C1895 C1891 1.429 . S
C1895 C1896 1.523 . S
C1896 C1880 1.368 . S
C1896 C1892 1.368 . S
C1896 C1895 1.523 . S
H1897 C1872 0.950 . S
H1898 C1874 0.950 . S
H1899 C1875 0.949 . S
H1900 C1877 0.950 . S
H1901 C1879 0.950 . S
C1902 C1903 1.349 . S
C1902 C1904 1.327 . S
C1902 H1927 0.950 . S
C1903 C1902 1.349 . S
C1903 C1919 1.349 . S
C1904 C1902 1.327 . S
C1904 C1923 1.429 . S
C1904 H1928 0.950 . S
C1905 C1922 1.574 . S
C1905 C1924 1.368 . S
C1905 H1929 0.949 . S
H1906 C1910 0.949 . S
C1907 C1908 1.349 . S
C1907 C1909 1.327 . S
C1907 H1930 0.950 . S
C1908 C1907 1.349 . S
C1908 C1920 1.349 . S
C1909 C1907 1.327 . S
C1909 C1925 1.429 . S
C1909 H1931 0.950 . S
C1910 H1906 0.949 . S
C1910 C1918 1.574 . S
C1910 C1926 1.368 . S
H1911 C1919 0.950 . S
H1912 C1917 0.950 . S
H1913 C1918 0.949 . S
H1914 C1920 0.950 . S
H1915 C1921 0.950 . S
H1916 C1922 0.949 . S
C1917 H1912 0.950 . S
C1917 C1919 1.327 . S
C1917 C1923 1.429 . S
C1918 C1910 1.574 . S
C1918 H1913 0.949 . S
C1918 C1924 1.368 . S
C1919 C1903 1.349 . S
C1919 H1911 0.950 . S
C1919 C1917 1.327 . S
C1920 C1908 1.349 . S
C1920 H1914 0.950 . S
C1920 C1921 1.327 . S
C1921 H1915 0.950 . S
C1921 C1920 1.327 . S
C1921 C1925 1.429 . S
C1922 C1905 1.574 . S
C1922 H1916 0.949 . S
C1922 C1926 1.368 . S
C1923 C1904 1.429 . S
C1923 C1917 1.429 . S
C1923 C1924 1.523 . S
C1924 C1905 1.368 . S
C1924 C1918 1.368 . S
C1924 C1923 1.523 . S
C1925 C1909 1.429 . S
C1925 C1921 1.429 . S
C1925 C1926 1.523 . S
C1926 C1910 1.368 . S
C1926 C1922 1.368 . S
C1926 C1925 1.523 . S
H1927 C1902 0.950 . S
H1928 C1904 0.950 . S
H1929 C1905 0.949 . S
H1930 C1907 0.950 . S
H1931 C1909 0.950 . S
C1932 C1933 1.349 . S
C1932 C1934 1.327 . S
C1932 H1957 0.950 . S
C1933 C1932 1.349 . S
C1933 C1949 1.349 . S
C1934 C1932 1.327 . S
C1934 C1953 1.429 . S
C1934 H1958 0.950 . S
C1935 C1952 1.574 . S
C1935 C1954 1.368 1_554 S
C1935 H1959 0.949 . S
H1936 C1940 0.949 . S
C1937 C1938 1.349 . S
C1937 C1939 1.327 . S
C1937 H1960 0.950 . S
C1938 C1937 1.349 . S
C1938 C1950 1.349 1_554 S
C1939 C1937 1.327 . S
C1939 C1955 1.424 1_554 S
C1939 H1961 0.950 . S
C1940 H1936 0.949 . S
C1940 C1948 1.574 . S
C1940 C1956 1.368 . S
H1941 C1949 0.950 1_554 S
H1942 C1947 0.919 1_554 S
H1943 C1948 0.949 . S
H1944 C1950 0.950 . S
H1945 C1951 0.950 . S
H1946 C1952 0.949 . S
C1947 H1942 0.919 1_556 S
C1947 C1949 1.335 . S
C1947 C1953 1.452 . S
C1948 C1940 1.574 . S
C1948 H1943 0.949 . S
C1948 C1954 1.368 . S
C1949 C1933 1.349 . S
C1949 H1941 0.950 1_556 S
C1949 C1947 1.335 . S
C1950 C1938 1.349 1_556 S
C1950 H1944 0.950 . S
C1950 C1951 1.327 . S
C1951 H1945 0.950 . S
C1951 C1950 1.327 . S
C1951 C1955 1.432 . S
C1952 C1935 1.574 . S
C1952 H1946 0.949 . S
C1952 C1956 1.368 1_554 S
C1953 C1934 1.429 . S
C1953 C1947 1.452 . S
C1953 C1954 1.523 . S
C1954 C1935 1.368 1_556 S
C1954 C1948 1.368 . S
C1954 C1953 1.523 . S
C1955 C1939 1.424 1_556 S
C1955 C1951 1.432 . S
C1955 C1956 1.524 . S
C1956 C1940 1.368 . S
C1956 C1952 1.368 1_556 S
C1956 C1955 1.524 . S
H1957 C1932 0.950 . S
H1958 C1934 0.950 . S
H1959 C1935 0.949 . S
H1960 C1937 0.950 . S
H1961 C1939 0.950 . S
C1962 C1963 1.349 . S
C1962 C1964 1.327 . S
C1962 H1987 0.950 . S
C1963 C1962 1.349 . S
C1963 C1979 1.349 . S
C1964 C1962 1.327 . S
C1964 C1983 1.429 . S
C1964 H1988 0.950 . S
C1965 C1982 1.574 . S
C1965 C1984 1.368 . S
C1965 H1989 0.949 . S
H1966 C1970 0.949 . S
C1967 C1968 1.349 . S
C1967 C1969 1.327 . S
C1967 H1990 0.950 . S
C1968 C1967 1.349 . S
C1968 C1980 1.349 . S
C1969 C1967 1.327 . S
C1969 C1985 1.429 . S
C1969 H1991 0.950 . S
C1970 H1966 0.949 . S
C1970 C1978 1.574 . S
C1970 C1986 1.368 . S
H1971 C1979 0.950 . S
H1972 C1977 0.950 . S
H1973 C1978 0.949 . S
H1974 C1980 0.950 . S
H1975 C1981 0.950 . S
H1976 C1982 0.949 . S
C1977 H1972 0.950 . S
C1977 C1979 1.327 . S
C1977 C1983 1.429 . S
C1978 C1970 1.574 . S
C1978 H1973 0.949 . S
C1978 C1984 1.368 . S
C1979 C1963 1.349 . S
C1979 H1971 0.950 . S
C1979 C1977 1.327 . S
C1980 C1968 1.349 . S
C1980 H1974 0.950 . S
C1980 C1981 1.327 . S
C1981 H1975 0.950 . S
C1981 C1980 1.327 . S
C1981 C1985 1.429 . S
C1982 C1965 1.574 . S
C1982 H1976 0.949 . S
C1982 C1986 1.368 . S
C1983 C1964 1.429 . S
C1983 C1977 1.429 . S
C1983 C1984 1.523 . S
C1984 C1965 1.368 . S
C1984 C1978 1.368 . S
C1984 C1983 1.523 . S
C1985 C1969 1.429 . S
C1985 C1981 1.429 . S
C1985 C1986 1.523 . S
C1986 C1970 1.368 . S
C1986 C1982 1.368 . S
C1986 C1985 1.523 . S
H1987 C1962 0.950 . S
H1988 C1964 0.950 . S
H1989 C1965 0.949 . S
H1990 C1967 0.950 . S
H1991 C1969 0.950 . S
C1992 C1993 1.349 . S
C1992 C1994 1.327 . S
C1992 H2017 0.950 . S
C1993 C1992 1.349 . S
C1993 C2009 1.349 . S
C1994 C1992 1.327 . S
C1994 C2013 1.429 . S
C1994 H2018 0.950 . S
C1995 C2012 1.574 . S
C1995 C2014 1.368 . S
C1995 H2019 0.949 . S
H1996 C2000 0.949 . S
C1997 C1998 1.349 . S
C1997 C1999 1.327 . S
C1997 H2020 0.950 . S
C1998 C1997 1.349 . S
C1998 C2010 1.349 . S
C1999 C1997 1.327 . S
C1999 C2015 1.429 . S
C1999 H2021 0.950 . S
C2000 H1996 0.949 . S
C2000 C2008 1.574 . S
C2000 C2016 1.368 . S
H2001 C2009 0.950 . S
H2002 C2007 0.950 . S
H2003 C2008 0.949 . S
H2004 C2010 0.950 . S
H2005 C2011 0.950 . S
H2006 C2012 0.949 . S
C2007 H2002 0.950 . S
C2007 C2009 1.327 . S
C2007 C2013 1.429 . S
C2008 C2000 1.574 . S
C2008 H2003 0.949 . S
C2008 C2014 1.368 . S
C2009 C1993 1.349 . S
C2009 H2001 0.950 . S
C2009 C2007 1.327 . S
C2010 C1998 1.349 . S
C2010 H2004 0.950 . S
C2010 C2011 1.327 . S
C2011 H2005 0.950 . S
C2011 C2010 1.327 . S
C2011 C2015 1.429 . S
C2012 C1995 1.574 . S
C2012 H2006 0.949 . S
C2012 C2016 1.368 . S
C2013 C1994 1.429 . S
C2013 C2007 1.429 . S
C2013 C2014 1.523 . S
C2014 C1995 1.368 . S
C2014 C2008 1.368 . S
C2014 C2013 1.523 . S
C2015 C1999 1.429 . S
C2015 C2011 1.429 . S
C2015 C2016 1.523 . S
C2016 C2000 1.368 . S
C2016 C2012 1.368 . S
C2016 C2015 1.523 . S
H2017 C1992 0.950 . S
H2018 C1994 0.950 . S
H2019 C1995 0.949 . S
H2020 C1997 0.950 . S
H2021 C1999 0.950 . S
C2022 C2023 1.349 . S
C2022 C2024 1.327 . S
C2022 H2047 0.950 . S
C2023 C2022 1.349 . S
C2023 C2039 1.349 . S
C2024 C2022 1.327 . S
C2024 C2043 1.429 . S
C2024 H2048 0.950 . S
C2025 C2042 1.574 . S
C2025 C2044 1.368 . S
C2025 H2049 0.949 . S
H2026 C2030 0.949 . S
C2027 C2028 1.349 . S
C2027 C2029 1.327 . S
C2027 H2050 0.950 . S
C2028 C2027 1.349 . S
C2028 C2040 1.349 . S
C2029 C2027 1.327 . S
C2029 C2045 1.429 . S
C2029 H2051 0.950 . S
C2030 H2026 0.949 . S
C2030 C2038 1.574 . S
C2030 C2046 1.368 . S
H2031 C2039 0.950 . S
H2032 C2037 0.950 . S
H2033 C2038 0.949 . S
H2034 C2040 0.950 . S
H2035 C2041 0.950 . S
H2036 C2042 0.949 . S
C2037 H2032 0.950 . S
C2037 C2039 1.327 . S
C2037 C2043 1.429 . S
C2038 C2030 1.574 . S
C2038 H2033 0.949 . S
C2038 C2044 1.368 . S
C2039 C2023 1.349 . S
C2039 H2031 0.950 . S
C2039 C2037 1.327 . S
C2040 C2028 1.349 . S
C2040 H2034 0.950 . S
C2040 C2041 1.327 . S
C2041 H2035 0.950 . S
C2041 C2040 1.327 . S
C2041 C2045 1.429 . S
C2042 C2025 1.574 . S
C2042 H2036 0.949 . S
C2042 C2046 1.368 . S
C2043 C2024 1.429 . S
C2043 C2037 1.429 . S
C2043 C2044 1.523 . S
C2044 C2025 1.368 . S
C2044 C2038 1.368 . S
C2044 C2043 1.523 . S
C2045 C2029 1.429 . S
C2045 C2041 1.429 . S
C2045 C2046 1.523 . S
C2046 C2030 1.368 . S
C2046 C2042 1.368 . S
C2046 C2045 1.523 . S
H2047 C2022 0.950 . S
H2048 C2024 0.950 . S
H2049 C2025 0.949 . S
H2050 C2027 0.950 . S
H2051 C2029 0.950 . S
C2052 C2053 1.349 . S
C2052 C2054 1.327 . S
C2052 H2077 0.950 . S
C2053 C2052 1.349 . S
C2053 C2069 1.349 . S
C2054 C2052 1.327 . S
C2054 C2073 1.429 . S
C2054 H2078 0.950 . S
C2055 C2072 1.574 . S
C2055 C2074 1.368 . S
C2055 H2079 0.949 . S
H2056 C2060 0.949 . S
C2057 C2058 1.349 . S
C2057 C2059 1.327 . S
C2057 H2080 0.950 . S
C2058 C2057 1.349 . S
C2058 C2070 1.349 . S
C2059 C2057 1.327 . S
C2059 C2075 1.429 . S
C2059 H2081 0.950 . S
C2060 H2056 0.949 . S
C2060 C2068 1.574 . S
C2060 C2076 1.368 . S
H2061 C2069 0.950 . S
H2062 C2067 0.950 . S
H2063 C2068 0.949 . S
H2064 C2070 0.950 . S
H2065 C2071 0.950 . S
H2066 C2072 0.949 . S
C2067 H2062 0.950 . S
C2067 C2069 1.327 . S
C2067 C2073 1.429 . S
C2068 C2060 1.574 . S
C2068 H2063 0.949 . S
C2068 C2074 1.368 . S
C2069 C2053 1.349 . S
C2069 H2061 0.950 . S
C2069 C2067 1.327 . S
C2070 C2058 1.349 . S
C2070 H2064 0.950 . S
C2070 C2071 1.327 . S
C2071 H2065 0.950 . S
C2071 C2070 1.327 . S
C2071 C2075 1.429 . S
C2072 C2055 1.574 . S
C2072 H2066 0.949 . S
C2072 C2076 1.368 . S
C2073 C2054 1.429 . S
C2073 C2067 1.429 . S
C2073 C2074 1.523 . S
C2074 C2055 1.368 . S
C2074 C2068 1.368 . S
C2074 C2073 1.523 . S
C2075 C2059 1.429 . S
C2075 C2071 1.429 . S
C2075 C2076 1.523 . S
C2076 C2060 1.368 . S
C2076 C2072 1.368 . S
C2076 C2075 1.523 . S
H2077 C2052 0.950 . S
H2078 C2054 0.950 . S
H2079 C2055 0.949 . S
H2080 C2057 0.950 . S
H2081 C2059 0.950 . S
C2082 C2083 1.349 . S
C2082 C2084 1.327 . S
C2082 H2107 0.950 . S
C2083 C2082 1.349 . S
C2083 C2099 1.349 . S
C2084 C2082 1.327 . S
C2084 C2103 1.429 . S
C2084 H2108 0.950 . S
C2085 C2102 1.574 . S
C2085 C2104 1.368 . S
C2085 H2109 0.949 . S
H2086 C2090 0.949 . S
C2087 C2088 1.349 . S
C2087 C2089 1.327 . S
C2087 H2110 0.950 . S
C2088 C2087 1.349 . S
C2088 C2100 1.349 . S
C2089 C2087 1.327 . S
C2089 C2105 1.429 . S
C2089 H2111 0.950 . S
C2090 H2086 0.949 . S
C2090 C2098 1.574 . S
C2090 C2106 1.368 . S
H2091 C2099 0.950 . S
H2092 C2097 0.950 . S
H2093 C2098 0.949 . S
H2094 C2100 0.950 . S
H2095 C2101 0.950 . S
H2096 C2102 0.949 . S
C2097 H2092 0.950 . S
C2097 C2099 1.327 . S
C2097 C2103 1.429 . S
C2098 C2090 1.574 . S
C2098 H2093 0.949 . S
C2098 C2104 1.368 . S
C2099 C2083 1.349 . S
C2099 H2091 0.950 . S
C2099 C2097 1.327 . S
C2100 C2088 1.349 . S
C2100 H2094 0.950 . S
C2100 C2101 1.327 . S
C2101 H2095 0.950 . S
C2101 C2100 1.327 . S
C2101 C2105 1.429 . S
C2102 C2085 1.574 . S
C2102 H2096 0.949 . S
C2102 C2106 1.368 . S
C2103 C2084 1.429 . S
C2103 C2097 1.429 . S
C2103 C2104 1.523 . S
C2104 C2085 1.368 . S
C2104 C2098 1.368 . S
C2104 C2103 1.523 . S
C2105 C2089 1.429 . S
C2105 C2101 1.429 . S
C2105 C2106 1.523 . S
C2106 C2090 1.368 . S
C2106 C2102 1.368 . S
C2106 C2105 1.523 . S
H2107 C2082 0.950 . S
H2108 C2084 0.950 . S
H2109 C2085 0.949 . S
H2110 C2087 0.950 . S
H2111 C2089 0.950 . S
C2112 C2113 1.349 . S
C2112 C2114 1.327 . S
C2112 H2137 0.950 . S
C2113 C2112 1.349 . S
C2113 C2129 1.349 . S
C2114 C2112 1.327 . S
C2114 C2133 1.429 . S
C2114 H2138 0.950 . S
C2115 C2132 1.574 . S
C2115 C2134 1.368 . S
C2115 H2139 0.949 . S
H2116 C2120 0.949 . S
C2117 C2118 1.349 . S
C2117 C2119 1.327 . S
C2117 H2140 0.950 . S
C2118 C2117 1.349 . S
C2118 C2130 1.349 . S
C2119 C2117 1.327 . S
C2119 C2135 1.429 . S
C2119 H2141 0.950 . S
C2120 H2116 0.949 . S
C2120 C2128 1.574 . S
C2120 C2136 1.368 . S
H2121 C2129 0.950 . S
H2122 C2127 0.950 . S
H2123 C2128 0.949 . S
H2124 C2130 0.950 . S
H2125 C2131 0.950 . S
H2126 C2132 0.949 . S
C2127 H2122 0.950 . S
C2127 C2129 1.327 . S
C2127 C2133 1.429 . S
C2128 C2120 1.574 . S
C2128 H2123 0.949 . S
C2128 C2134 1.368 . S
C2129 C2113 1.349 . S
C2129 H2121 0.950 . S
C2129 C2127 1.327 . S
C2130 C2118 1.349 . S
C2130 H2124 0.950 . S
C2130 C2131 1.327 . S
C2131 H2125 0.950 . S
C2131 C2130 1.327 . S
C2131 C2135 1.429 . S
C2132 C2115 1.574 . S
C2132 H2126 0.949 . S
C2132 C2136 1.368 . S
C2133 C2114 1.429 . S
C2133 C2127 1.429 . S
C2133 C2134 1.523 . S
C2134 C2115 1.368 . S
C2134 C2128 1.368 . S
C2134 C2133 1.523 . S
C2135 C2119 1.429 . S
C2135 C2131 1.429 . S
C2135 C2136 1.523 . S
C2136 C2120 1.368 . S
C2136 C2132 1.368 . S
C2136 C2135 1.523 . S
H2137 C2112 0.950 . S
H2138 C2114 0.950 . S
H2139 C2115 0.949 . S
H2140 C2117 0.950 . S
H2141 C2119 0.950 . S
C2142 C2143 1.349 . S
C2142 C2144 1.327 . S
C2142 H2167 0.950 . S
C2143 C2142 1.349 . S
C2143 C2159 1.349 . S
C2144 C2142 1.327 . S
C2144 C2163 1.429 . S
C2144 H2168 0.950 1_545 S
C2145 C2162 1.574 . S
C2145 C2164 1.368 . S
C2145 H2169 0.949 . S
H2146 C2150 0.940 1_565 S
C2147 C2148 1.349 . S
C2147 C2149 1.327 . S
C2147 H2170 0.950 . S
C2148 C2147 1.349 . S
C2148 C2160 1.349 1_545 S
C2149 C2147 1.327 . S
C2149 C2165 1.429 . S
C2149 H2171 0.950 . S
C2150 H2146 0.940 1_545 S
C2150 C2158 1.575 . S
C2150 C2166 1.377 . S
H2151 C2159 0.950 . S
H2152 C2157 0.950 . S
H2153 C2158 0.949 1_565 S
H2154 C2160 0.950 . S
H2155 C2161 0.950 . S
H2156 C2162 0.949 . S
C2157 H2152 0.950 . S
C2157 C2159 1.327 . S
C2157 C2163 1.429 . S
C2158 C2150 1.575 . S
C2158 H2153 0.949 1_545 S
C2158 C2164 1.368 . S
C2159 C2143 1.349 . S
C2159 H2151 0.950 . S
C2159 C2157 1.327 . S
C2160 C2148 1.349 1_565 S
C2160 H2154 0.950 . S
C2160 C2161 1.327 . S
C2161 H2155 0.950 . S
C2161 C2160 1.327 . S
C2161 C2165 1.429 1_565 S
C2162 C2145 1.574 . S
C2162 H2156 0.949 . S
C2162 C2166 1.368 . S
C2163 C2144 1.429 . S
C2163 C2157 1.429 . S
C2163 C2164 1.523 . S
C2164 C2145 1.368 . S
C2164 C2158 1.368 . S
C2164 C2163 1.523 . S
C2165 C2149 1.429 . S
C2165 C2161 1.429 1_545 S
C2165 C2166 1.523 . S
C2166 C2150 1.377 . S
C2166 C2162 1.368 . S
C2166 C2165 1.523 . S
H2167 C2142 0.950 . S
H2168 C2144 0.950 1_565 S
H2169 C2145 0.949 . S
H2170 C2147 0.950 . S
H2171 C2149 0.950 . S
C2172 C2173 1.349 . S
C2172 C2174 1.327 . S
C2172 H2197 0.950 . S
C2173 C2172 1.349 . S
C2173 C2189 1.349 . S
C2174 C2172 1.327 . S
C2174 C2193 1.429 . S
C2174 H2198 0.950 . S
C2175 C2192 1.574 . S
C2175 C2194 1.368 . S
C2175 H2199 0.949 . S
H2176 C2180 0.949 . S
C2177 C2178 1.349 . S
C2177 C2179 1.327 . S
C2177 H2200 0.950 . S
C2178 C2177 1.349 . S
C2178 C2190 1.349 . S
C2179 C2177 1.327 . S
C2179 C2195 1.429 . S
C2179 H2201 0.950 . S
C2180 H2176 0.949 . S
C2180 C2188 1.574 . S
C2180 C2196 1.368 . S
H2181 C2189 0.950 . S
H2182 C2187 0.950 . S
H2183 C2188 0.949 . S
H2184 C2190 0.950 . S
H2185 C2191 0.950 . S
H2186 C2192 0.949 . S
C2187 H2182 0.950 . S
C2187 C2189 1.327 . S
C2187 C2193 1.429 . S
C2188 C2180 1.574 . S
C2188 H2183 0.949 . S
C2188 C2194 1.368 . S
C2189 C2173 1.349 . S
C2189 H2181 0.950 . S
C2189 C2187 1.327 . S
C2190 C2178 1.349 . S
C2190 H2184 0.950 . S
C2190 C2191 1.327 . S
C2191 H2185 0.950 . S
C2191 C2190 1.327 . S
C2191 C2195 1.429 . S
C2192 C2175 1.574 . S
C2192 H2186 0.949 . S
C2192 C2196 1.368 . S
C2193 C2174 1.429 . S
C2193 C2187 1.429 . S
C2193 C2194 1.523 . S
C2194 C2175 1.368 . S
C2194 C2188 1.368 . S
C2194 C2193 1.523 . S
C2195 C2179 1.429 . S
C2195 C2191 1.429 . S
C2195 C2196 1.523 . S
C2196 C2180 1.368 . S
C2196 C2192 1.368 . S
C2196 C2195 1.523 . S
H2197 C2172 0.950 . S
H2198 C2174 0.950 . S
H2199 C2175 0.949 . S
H2200 C2177 0.950 . S
H2201 C2179 0.950 . S
C2202 C2203 1.349 . S
C2202 C2204 1.327 . S
C2202 H2227 0.950 . S
C2203 C2202 1.349 . S
C2203 C2219 1.349 . S
C2204 C2202 1.327 . S
C2204 C2223 1.429 . S
C2204 H2228 0.950 . S
C2205 C2222 1.574 . S
C2205 C2224 1.368 . S
C2205 H2229 0.949 . S
H2206 C2210 0.949 . S
C2207 C2208 1.349 . S
C2207 C2209 1.327 . S
C2207 H2230 0.950 . S
C2208 C2207 1.349 . S
C2208 C2220 1.349 . S
C2209 C2207 1.327 . S
C2209 C2225 1.429 . S
C2209 H2231 0.950 . S
C2210 H2206 0.949 . S
C2210 C2218 1.574 . S
C2210 C2226 1.368 . S
H2211 C2219 0.950 . S
H2212 C2217 0.950 . S
H2213 C2218 0.949 . S
H2214 C2220 0.950 . S
H2215 C2221 0.950 . S
H2216 C2222 0.949 . S
C2217 H2212 0.950 . S
C2217 C2219 1.327 . S
C2217 C2223 1.429 . S
C2218 C2210 1.574 . S
C2218 H2213 0.949 . S
C2218 C2224 1.368 . S
C2219 C2203 1.349 . S
C2219 H2211 0.950 . S
C2219 C2217 1.327 . S
C2220 C2208 1.349 . S
C2220 H2214 0.950 . S
C2220 C2221 1.327 . S
C2221 H2215 0.950 . S
C2221 C2220 1.327 . S
C2221 C2225 1.429 . S
C2222 C2205 1.574 . S
C2222 H2216 0.949 . S
C2222 C2226 1.368 . S
C2223 C2204 1.429 . S
C2223 C2217 1.429 . S
C2223 C2224 1.523 . S
C2224 C2205 1.368 . S
C2224 C2218 1.368 . S
C2224 C2223 1.523 . S
C2225 C2209 1.429 . S
C2225 C2221 1.429 . S
C2225 C2226 1.523 . S
C2226 C2210 1.368 . S
C2226 C2222 1.368 . S
C2226 C2225 1.523 . S
H2227 C2202 0.950 . S
H2228 C2204 0.950 . S
H2229 C2205 0.949 . S
H2230 C2207 0.950 . S
H2231 C2209 0.950 . S
C2232 C2233 1.349 . S
C2232 C2234 1.327 . S
C2232 H2257 0.950 . S
C2233 C2232 1.349 . S
C2233 C2249 1.349 . S
C2234 C2232 1.327 . S
C2234 C2253 1.429 . S
C2234 H2258 0.950 . S
C2235 C2252 1.574 . S
C2235 C2254 1.368 . S
C2235 H2259 0.949 . S
H2236 C2240 0.949 . S
C2237 C2238 1.349 . S
C2237 C2239 1.327 . S
C2237 H2260 0.950 . S
C2238 C2237 1.349 . S
C2238 C2250 1.349 . S
C2239 C2237 1.327 . S
C2239 C2255 1.429 . S
C2239 H2261 0.950 . S
C2240 H2236 0.949 . S
C2240 C2248 1.574 . S
C2240 C2256 1.368 . S
H2241 C2249 0.950 . S
H2242 C2247 0.950 . S
H2243 C2248 0.949 . S
H2244 C2250 0.950 . S
H2245 C2251 0.950 . S
H2246 C2252 0.949 . S
C2247 H2242 0.950 . S
C2247 C2249 1.327 . S
C2247 C2253 1.429 . S
C2248 C2240 1.574 . S
C2248 H2243 0.949 . S
C2248 C2254 1.368 . S
C2249 C2233 1.349 . S
C2249 H2241 0.950 . S
C2249 C2247 1.327 . S
C2250 C2238 1.349 . S
C2250 H2244 0.950 . S
C2250 C2251 1.327 . S
C2251 H2245 0.950 . S
C2251 C2250 1.327 . S
C2251 C2255 1.429 . S
C2252 C2235 1.574 . S
C2252 H2246 0.949 . S
C2252 C2256 1.368 . S
C2253 C2234 1.429 . S
C2253 C2247 1.429 . S
C2253 C2254 1.523 . S
C2254 C2235 1.368 . S
C2254 C2248 1.368 . S
C2254 C2253 1.523 . S
C2255 C2239 1.429 . S
C2255 C2251 1.429 . S
C2255 C2256 1.523 . S
C2256 C2240 1.368 . S
C2256 C2252 1.368 . S
C2256 C2255 1.523 . S
H2257 C2232 0.950 . S
H2258 C2234 0.950 . S
H2259 C2235 0.949 . S
H2260 C2237 0.950 . S
H2261 C2239 0.950 . S
C2262 C2263 1.349 . S
C2262 C2264 1.327 . S
C2262 H2287 0.914 1_545 S
C2263 C2262 1.349 . S
C2263 C2279 1.349 . S
C2264 C2262 1.327 . S
C2264 C2283 1.429 . S
C2264 H2288 0.950 1_545 S
C2265 C2282 1.574 . S
C2265 C2284 1.368 . S
C2265 H2289 0.949 . S
H2266 C2270 0.949 1_565 S
C2267 C2268 1.349 . S
C2267 C2269 1.327 . S
C2267 H2290 0.950 . S
C2268 C2267 1.349 . S
C2268 C2280 1.349 1_545 S
C2269 C2267 1.327 . S
C2269 C2285 1.429 . S
C2269 H2291 0.950 . S
C2270 H2266 0.949 1_545 S
C2270 C2278 1.574 . S
C2270 C2286 1.368 . S
H2271 C2279 0.950 . S
H2272 C2277 0.950 . S
H2273 C2278 0.949 1_565 S
H2274 C2280 0.950 . S
H2275 C2281 0.950 . S
H2276 C2282 0.949 . S
C2277 H2272 0.950 . S
C2277 C2279 1.327 . S
C2277 C2283 1.429 . S
C2278 C2270 1.574 . S
C2278 H2273 0.949 1_545 S
C2278 C2284 1.368 . S
C2279 C2263 1.349 . S
C2279 H2271 0.950 . S
C2279 C2277 1.327 . S
C2280 C2268 1.349 1_565 S
C2280 H2274 0.950 . S
C2280 C2281 1.327 . S
C2281 H2275 0.950 . S
C2281 C2280 1.327 . S
C2281 C2285 1.429 1_565 S
C2282 C2265 1.574 . S
C2282 H2276 0.949 . S
C2282 C2286 1.368 . S
C2283 C2264 1.429 . S
C2283 C2277 1.429 . S
C2283 C2284 1.523 . S
C2284 C2265 1.368 . S
C2284 C2278 1.368 . S
C2284 C2283 1.523 . S
C2285 C2269 1.429 . S
C2285 C2281 1.429 1_545 S
C2285 C2286 1.523 . S
C2286 C2270 1.368 . S
C2286 C2282 1.368 . S
C2286 C2285 1.523 . S
H2287 C2262 0.914 1_565 S
H2288 C2264 0.950 1_565 S
H2289 C2265 0.949 . S
H2290 C2267 0.950 . S
H2291 C2269 0.950 . S
C2292 C2293 1.349 . S
C2292 C2294 1.327 . S
C2292 H2317 0.950 . S
C2293 C2292 1.349 . S
C2293 C2309 1.349 . S
C2294 C2292 1.327 . S
C2294 C2313 1.429 . S
C2294 H2318 0.950 . S
C2295 C2312 1.574 . S
C2295 C2314 1.368 . S
C2295 H2319 0.949 . S
H2296 C2300 0.949 . S
C2297 C2298 1.349 . S
C2297 C2299 1.327 . S
C2297 H2320 0.950 . S
C2298 C2297 1.349 . S
C2298 C2310 1.349 . S
C2299 C2297 1.327 . S
C2299 C2315 1.429 . S
C2299 H2321 0.950 . S
C2300 H2296 0.949 . S
C2300 C2308 1.574 . S
C2300 C2316 1.368 . S
H2301 C2309 0.950 . S
H2302 C2307 0.950 . S
H2303 C2308 0.949 . S
H2304 C2310 0.950 . S
H2305 C2311 0.950 . S
H2306 C2312 0.949 . S
C2307 H2302 0.950 . S
C2307 C2309 1.327 . S
C2307 C2313 1.429 . S
C2308 C2300 1.574 . S
C2308 H2303 0.949 . S
C2308 C2314 1.368 . S
C2309 C2293 1.349 . S
C2309 H2301 0.950 . S
C2309 C2307 1.327 . S
C2310 C2298 1.349 . S
C2310 H2304 0.950 . S
C2310 C2311 1.327 . S
C2311 H2305 0.950 . S
C2311 C2310 1.327 . S
C2311 C2315 1.429 . S
C2312 C2295 1.574 . S
C2312 H2306 0.949 . S
C2312 C2316 1.368 . S
C2313 C2294 1.429 . S
C2313 C2307 1.429 . S
C2313 C2314 1.523 . S
C2314 C2295 1.368 . S
C2314 C2308 1.368 . S
C2314 C2313 1.523 . S
C2315 C2299 1.429 . S
C2315 C2311 1.429 . S
C2315 C2316 1.523 . S
C2316 C2300 1.368 . S
C2316 C2312 1.368 . S
C2316 C2315 1.523 . S
H2317 C2292 0.950 . S
H2318 C2294 0.950 . S
H2319 C2295 0.949 . S
H2320 C2297 0.950 . S
H2321 C2299 0.950 . S
C2322 C2323 1.349 . S
C2322 C2324 1.327 . S
C2322 H2347 0.950 . S
C2323 C2322 1.349 . S
C2323 C2339 1.349 . S
C2324 C2322 1.327 . S
C2324 C2343 1.429 . S
C2324 H2348 0.950 . S
C2325 C2342 1.574 . S
C2325 C2344 1.368 . S
C2325 H2349 0.949 . S
H2326 C2330 0.949 . S
C2327 C2328 1.349 . S
C2327 C2329 1.327 . S
C2327 H2350 0.950 . S
C2328 C2327 1.349 . S
C2328 C2340 1.349 . S
C2329 C2327 1.327 . S
C2329 C2345 1.429 . S
C2329 H2351 0.950 . S
C2330 H2326 0.949 . S
C2330 C2338 1.574 . S
C2330 C2346 1.368 . S
H2331 C2339 0.950 . S
H2332 C2337 0.950 . S
H2333 C2338 0.949 . S
H2334 C2340 0.950 . S
H2335 C2341 0.950 . S
H2336 C2342 0.949 . S
C2337 H2332 0.950 . S
C2337 C2339 1.327 . S
C2337 C2343 1.429 . S
C2338 C2330 1.574 . S
C2338 H2333 0.949 . S
C2338 C2344 1.368 . S
C2339 C2323 1.349 . S
C2339 H2331 0.950 . S
C2339 C2337 1.327 . S
C2340 C2328 1.349 . S
C2340 H2334 0.950 . S
C2340 C2341 1.327 . S
C2341 H2335 0.950 . S
C2341 C2340 1.327 . S
C2341 C2345 1.429 . S
C2342 C2325 1.574 . S
C2342 H2336 0.949 . S
C2342 C2346 1.368 . S
C2343 C2324 1.429 . S
C2343 C2337 1.429 . S
C2343 C2344 1.523 . S
C2344 C2325 1.368 . S
C2344 C2338 1.368 . S
C2344 C2343 1.523 . S
C2345 C2329 1.429 . S
C2345 C2341 1.429 . S
C2345 C2346 1.523 . S
C2346 C2330 1.368 . S
C2346 C2342 1.368 . S
C2346 C2345 1.523 . S
H2347 C2322 0.950 . S
H2348 C2324 0.950 . S
H2349 C2325 0.949 . S
H2350 C2327 0.950 . S
H2351 C2329 0.950 . S
C2352 C2353 1.349 . S
C2352 C2354 1.327 . S
C2352 H2377 0.950 . S
C2353 C2352 1.349 . S
C2353 C2369 1.349 . S
C2354 C2352 1.327 . S
C2354 C2373 1.429 . S
C2354 H2378 0.950 . S
C2355 C2372 1.574 . S
C2355 C2374 1.368 . S
C2355 H2379 0.949 . S
H2356 C2360 0.949 . S
C2357 C2358 1.349 . S
C2357 C2359 1.327 . S
C2357 H2380 0.950 . S
C2358 C2357 1.349 . S
C2358 C2370 1.349 . S
C2359 C2357 1.327 . S
C2359 C2375 1.429 . S
C2359 H2381 0.950 . S
C2360 H2356 0.949 . S
C2360 C2368 1.574 . S
C2360 C2376 1.368 . S
H2361 C2369 0.950 . S
H2362 C2367 0.950 . S
H2363 C2368 0.949 . S
H2364 C2370 0.950 . S
H2365 C2371 0.950 . S
H2366 C2372 0.949 . S
C2367 H2362 0.950 . S
C2367 C2369 1.327 . S
C2367 C2373 1.429 . S
C2368 C2360 1.574 . S
C2368 H2363 0.949 . S
C2368 C2374 1.368 . S
C2369 C2353 1.349 . S
C2369 H2361 0.950 . S
C2369 C2367 1.327 . S
C2370 C2358 1.349 . S
C2370 H2364 0.950 . S
C2370 C2371 1.327 . S
C2371 H2365 0.950 . S
C2371 C2370 1.327 . S
C2371 C2375 1.429 . S
C2372 C2355 1.574 . S
C2372 H2366 0.949 . S
C2372 C2376 1.368 . S
C2373 C2354 1.429 . S
C2373 C2367 1.429 . S
C2373 C2374 1.523 . S
C2374 C2355 1.368 . S
C2374 C2368 1.368 . S
C2374 C2373 1.523 . S
C2375 C2359 1.429 . S
C2375 C2371 1.429 . S
C2375 C2376 1.523 . S
C2376 C2360 1.368 . S
C2376 C2372 1.368 . S
C2376 C2375 1.523 . S
H2377 C2352 0.950 . S
H2378 C2354 0.950 . S
H2379 C2355 0.949 . S
H2380 C2357 0.950 . S
H2381 C2359 0.950 . S
C2382 C2383 1.349 . S
C2382 C2384 1.327 . S
C2382 H2407 0.950 . S
C2383 C2382 1.349 . S
C2383 C2399 1.349 . S
C2384 C2382 1.327 . S
C2384 C2403 1.429 . S
C2384 H2408 0.950 . S
C2385 C2402 1.569 1_655 S
C2385 C2404 1.368 . S
C2385 H2409 0.949 1_655 S
H2386 C2390 0.949 . S
C2387 C2388 1.323 1_455 S
C2387 C2389 1.327 . S
C2387 H2410 0.950 . S
C2388 C2387 1.323 1_655 S
C2388 C2400 1.387 . S
C2389 C2387 1.327 . S
C2389 C2405 1.429 1_455 S
C2389 H2411 0.950 . S
C2390 H2386 0.949 . S
C2390 C2398 1.574 . S
C2390 C2406 1.368 . S
H2391 C2399 0.950 . S
H2392 C2397 0.965 . S
H2393 C2398 0.949 . S
H2394 C2400 0.950 . S
H2395 C2401 0.950 . S
H2396 C2402 0.968 . S
C2397 H2392 0.965 . S
C2397 C2399 1.327 . S
C2397 C2403 1.429 . S
C2398 C2390 1.574 . S
C2398 H2393 0.949 . S
C2398 C2404 1.368 . S
C2399 C2383 1.349 . S
C2399 H2391 0.950 . S
C2399 C2397 1.327 . S
C2400 C2388 1.387 . S
C2400 H2394 0.950 . S
C2400 C2401 1.327 . S
C2401 H2395 0.950 . S
C2401 C2400 1.327 . S
C2401 C2405 1.429 . S
C2402 C2385 1.569 1_455 S
C2402 H2396 0.968 . S
C2402 C2406 1.353 1_455 S
C2403 C2384 1.429 . S
C2403 C2397 1.429 . S
C2403 C2404 1.523 . S
C2404 C2385 1.368 . S
C2404 C2398 1.368 . S
C2404 C2403 1.523 . S
C2405 C2389 1.429 1_655 S
C2405 C2401 1.429 . S
C2405 C2406 1.523 . S
C2406 C2390 1.368 . S
C2406 C2402 1.353 1_655 S
C2406 C2405 1.523 . S
H2407 C2382 0.950 . S
H2408 C2384 0.950 . S
H2409 C2385 0.949 1_455 S
H2410 C2387 0.950 . S
H2411 C2389 0.950 . S
C2412 C2413 1.349 . S
C2412 C2414 1.327 . S
C2412 H2437 0.950 . S
C2413 C2412 1.349 . S
C2413 C2429 1.349 . S
C2414 C2412 1.327 . S
C2414 C2433 1.429 . S
C2414 H2438 0.950 . S
C2415 C2432 1.574 . S
C2415 C2434 1.368 . S
C2415 H2439 0.949 . S
H2416 C2420 0.949 . S
C2417 C2418 1.349 . S
C2417 C2419 1.327 . S
C2417 H2440 0.950 . S
C2418 C2417 1.349 . S
C2418 C2430 1.349 . S
C2419 C2417 1.327 . S
C2419 C2435 1.429 . S
C2419 H2441 0.950 . S
C2420 H2416 0.949 . S
C2420 C2428 1.574 . S
C2420 C2436 1.368 . S
H2421 C2429 0.950 . S
H2422 C2427 0.950 . S
H2423 C2428 0.949 . S
H2424 C2430 0.950 . S
H2425 C2431 0.950 . S
H2426 C2432 0.949 . S
C2427 H2422 0.950 . S
C2427 C2429 1.327 . S
C2427 C2433 1.429 . S
C2428 C2420 1.574 . S
C2428 H2423 0.949 . S
C2428 C2434 1.368 . S
C2429 C2413 1.349 . S
C2429 H2421 0.950 . S
C2429 C2427 1.327 . S
C2430 C2418 1.349 . S
C2430 H2424 0.950 . S
C2430 C2431 1.327 . S
C2431 H2425 0.950 . S
C2431 C2430 1.327 . S
C2431 C2435 1.429 . S
C2432 C2415 1.574 . S
C2432 H2426 0.949 . S
C2432 C2436 1.368 . S
C2433 C2414 1.429 . S
C2433 C2427 1.429 . S
C2433 C2434 1.523 . S
C2434 C2415 1.368 . S
C2434 C2428 1.368 . S
C2434 C2433 1.523 . S
C2435 C2419 1.429 . S
C2435 C2431 1.429 . S
C2435 C2436 1.523 . S
C2436 C2420 1.368 . S
C2436 C2432 1.368 . S
C2436 C2435 1.523 . S
H2437 C2412 0.950 . S
H2438 C2414 0.950 . S
H2439 C2415 0.949 . S
H2440 C2417 0.950 . S
H2441 C2419 0.950 . S
C2442 C2443 1.349 . S
C2442 C2444 1.327 . S
C2442 H2467 0.950 . S
C2443 C2442 1.349 . S
C2443 C2459 1.349 . S
C2444 C2442 1.327 . S
C2444 C2463 1.429 . S
C2444 H2468 0.950 . S
C2445 C2462 1.574 . S
C2445 C2464 1.368 . S
C2445 H2469 0.949 . S
H2446 C2450 0.976 . S
C2447 C2448 1.349 . S
C2447 C2449 1.327 . S
C2447 H2470 0.950 . S
C2448 C2447 1.349 . S
C2448 C2460 1.349 . S
C2449 C2447 1.327 . S
C2449 C2465 1.429 . S
C2449 H2471 0.950 . S
C2450 H2446 0.976 . S
C2450 C2458 1.574 . S
C2450 C2466 1.368 . S
H2451 C2459 0.950 . S
H2452 C2457 0.950 . S
H2453 C2458 0.949 . S
H2454 C2460 0.950 1_655 S
H2455 C2461 0.950 1_655 S
H2456 C2462 0.949 . S
C2457 H2452 0.950 . S
C2457 C2459 1.327 . S
C2457 C2463 1.429 . S
C2458 C2450 1.574 . S
C2458 H2453 0.949 . S
C2458 C2464 1.368 . S
C2459 C2443 1.349 . S
C2459 H2451 0.950 . S
C2459 C2457 1.327 . S
C2460 C2448 1.349 . S
C2460 H2454 0.950 1_455 S
C2460 C2461 1.327 . S
C2461 H2455 0.950 1_455 S
C2461 C2460 1.327 . S
C2461 C2465 1.429 . S
C2462 C2445 1.574 . S
C2462 H2456 0.949 . S
C2462 C2466 1.368 . S
C2463 C2444 1.429 . S
C2463 C2457 1.429 . S
C2463 C2464 1.523 . S
C2464 C2445 1.368 . S
C2464 C2458 1.368 . S
C2464 C2463 1.523 . S
C2465 C2449 1.429 . S
C2465 C2461 1.429 . S
C2465 C2466 1.523 . S
C2466 C2450 1.368 . S
C2466 C2462 1.368 . S
C2466 C2465 1.523 . S
H2467 C2442 0.950 . S
H2468 C2444 0.950 . S
H2469 C2445 0.949 . S
H2470 C2447 0.950 . S
H2471 C2449 0.950 . S
C2472 C2473 1.349 . S
C2472 C2474 1.327 . S
C2472 H2497 0.950 . S
C2473 C2472 1.349 . S
C2473 C2489 1.349 . S
C2474 C2472 1.327 . S
C2474 C2493 1.429 . S
C2474 H2498 0.950 . S
C2475 C2492 1.574 . S
C2475 C2494 1.368 . S
C2475 H2499 0.949 . S
H2476 C2480 0.949 . S
C2477 C2478 1.349 . S
C2477 C2479 1.327 . S
C2477 H2500 0.950 . S
C2478 C2477 1.349 . S
C2478 C2490 1.349 . S
C2479 C2477 1.327 . S
C2479 C2495 1.429 . S
C2479 H2501 0.950 . S
C2480 H2476 0.949 . S
C2480 C2488 1.574 . S
C2480 C2496 1.368 . S
H2481 C2489 0.950 . S
H2482 C2487 0.950 . S
H2483 C2488 0.949 . S
H2484 C2490 0.950 . S
H2485 C2491 0.950 . S
H2486 C2492 0.949 . S
C2487 H2482 0.950 . S
C2487 C2489 1.327 . S
C2487 C2493 1.429 . S
C2488 C2480 1.574 . S
C2488 H2483 0.949 . S
C2488 C2494 1.368 . S
C2489 C2473 1.349 . S
C2489 H2481 0.950 . S
C2489 C2487 1.327 . S
C2490 C2478 1.349 . S
C2490 H2484 0.950 . S
C2490 C2491 1.327 . S
C2491 H2485 0.950 . S
C2491 C2490 1.327 . S
C2491 C2495 1.429 . S
C2492 C2475 1.574 . S
C2492 H2486 0.949 . S
C2492 C2496 1.368 . S
C2493 C2474 1.429 . S
C2493 C2487 1.429 . S
C2493 C2494 1.523 . S
C2494 C2475 1.368 . S
C2494 C2488 1.368 . S
C2494 C2493 1.523 . S
C2495 C2479 1.429 . S
C2495 C2491 1.429 . S
C2495 C2496 1.523 . S
C2496 C2480 1.368 . S
C2496 C2492 1.368 . S
C2496 C2495 1.523 . S
H2497 C2472 0.950 . S
H2498 C2474 0.950 . S
H2499 C2475 0.949 . S
H2500 C2477 0.950 . S
H2501 C2479 0.950 . S
C2502 C2503 1.349 . S
C2502 C2504 1.327 . S
C2502 H2527 0.950 . S
C2503 C2502 1.349 . S
C2503 C2519 1.349 . S
C2504 C2502 1.327 . S
C2504 C2523 1.429 . S
C2504 H2528 0.950 . S
C2505 C2522 1.574 . S
C2505 C2524 1.368 . S
C2505 H2529 0.949 . S
H2506 C2510 0.949 . S
C2507 C2508 1.349 . S
C2507 C2509 1.327 . S
C2507 H2530 0.950 . S
C2508 C2507 1.349 . S
C2508 C2520 1.349 . S
C2509 C2507 1.327 . S
C2509 C2525 1.429 . S
C2509 H2531 0.950 . S
C2510 H2506 0.949 . S
C2510 C2518 1.574 . S
C2510 C2526 1.368 . S
H2511 C2519 0.950 . S
H2512 C2517 0.950 . S
H2513 C2518 0.949 . S
H2514 C2520 0.950 . S
H2515 C2521 0.950 . S
H2516 C2522 0.949 . S
C2517 H2512 0.950 . S
C2517 C2519 1.327 . S
C2517 C2523 1.429 . S
C2518 C2510 1.574 . S
C2518 H2513 0.949 . S
C2518 C2524 1.368 . S
C2519 C2503 1.349 . S
C2519 H2511 0.950 . S
C2519 C2517 1.327 . S
C2520 C2508 1.349 . S
C2520 H2514 0.950 . S
C2520 C2521 1.327 . S
C2521 H2515 0.950 . S
C2521 C2520 1.327 . S
C2521 C2525 1.429 . S
C2522 C2505 1.574 . S
C2522 H2516 0.949 . S
C2522 C2526 1.368 . S
C2523 C2504 1.429 . S
C2523 C2517 1.429 . S
C2523 C2524 1.523 . S
C2524 C2505 1.368 . S
C2524 C2518 1.368 . S
C2524 C2523 1.523 . S
C2525 C2509 1.429 . S
C2525 C2521 1.429 . S
C2525 C2526 1.523 . S
C2526 C2510 1.368 . S
C2526 C2522 1.368 . S
C2526 C2525 1.523 . S
H2527 C2502 0.950 . S
H2528 C2504 0.950 . S
H2529 C2505 0.949 . S
H2530 C2507 0.950 . S
H2531 C2509 0.950 . S
C2532 C2533 1.349 . S
C2532 C2534 1.327 . S
C2532 H2557 0.950 . S
C2533 C2532 1.349 . S
C2533 C2549 1.349 . S
C2534 C2532 1.327 . S
C2534 C2553 1.429 . S
C2534 H2558 0.950 . S
C2535 C2552 1.574 . S
C2535 C2554 1.368 . S
C2535 H2559 0.949 . S
H2536 C2540 0.949 . S
C2537 C2538 1.349 . S
C2537 C2539 1.327 . S
C2537 H2560 0.950 . S
C2538 C2537 1.349 . S
C2538 C2550 1.349 . S
C2539 C2537 1.327 . S
C2539 C2555 1.429 . S
C2539 H2561 0.950 . S
C2540 H2536 0.949 . S
C2540 C2548 1.574 . S
C2540 C2556 1.368 . S
H2541 C2549 0.950 . S
H2542 C2547 0.950 . S
H2543 C2548 0.949 . S
H2544 C2550 0.950 . S
H2545 C2551 0.950 . S
H2546 C2552 0.949 . S
C2547 H2542 0.950 . S
C2547 C2549 1.327 . S
C2547 C2553 1.429 . S
C2548 C2540 1.574 . S
C2548 H2543 0.949 . S
C2548 C2554 1.368 . S
C2549 C2533 1.349 . S
C2549 H2541 0.950 . S
C2549 C2547 1.327 . S
C2550 C2538 1.349 . S
C2550 H2544 0.950 . S
C2550 C2551 1.327 . S
C2551 H2545 0.950 . S
C2551 C2550 1.327 . S
C2551 C2555 1.429 . S
C2552 C2535 1.574 . S
C2552 H2546 0.949 . S
C2552 C2556 1.368 . S
C2553 C2534 1.429 . S
C2553 C2547 1.429 . S
C2553 C2554 1.523 . S
C2554 C2535 1.368 . S
C2554 C2548 1.368 . S
C2554 C2553 1.523 . S
C2555 C2539 1.429 . S
C2555 C2551 1.429 . S
C2555 C2556 1.523 . S
C2556 C2540 1.368 . S
C2556 C2552 1.368 . S
C2556 C2555 1.523 . S
H2557 C2532 0.950 . S
H2558 C2534 0.950 . S
H2559 C2535 0.949 . S
H2560 C2537 0.950 . S
H2561 C2539 0.950 . S
C2562 C2563 1.349 . S
C2562 C2564 1.327 . S
C2562 H2587 0.950 . S
C2563 C2562 1.349 . S
C2563 C2579 1.349 . S
C2564 C2562 1.327 . S
C2564 C2583 1.429 . S
C2564 H2588 0.950 . S
C2565 C2582 1.574 . S
C2565 C2584 1.368 . S
C2565 H2589 0.949 . S
H2566 C2570 0.949 . S
C2567 C2568 1.349 . S
C2567 C2569 1.327 . S
C2567 H2590 0.950 . S
C2568 C2567 1.349 . S
C2568 C2580 1.349 . S
C2569 C2567 1.327 . S
C2569 C2585 1.429 . S
C2569 H2591 0.950 . S
C2570 H2566 0.949 . S
C2570 C2578 1.574 . S
C2570 C2586 1.368 . S
H2571 C2579 0.950 . S
H2572 C2577 0.950 . S
H2573 C2578 0.949 . S
H2574 C2580 0.950 . S
H2575 C2581 0.950 . S
H2576 C2582 0.949 . S
C2577 H2572 0.950 . S
C2577 C2579 1.327 . S
C2577 C2583 1.429 . S
C2578 C2570 1.574 . S
C2578 H2573 0.949 . S
C2578 C2584 1.368 . S
C2579 C2563 1.349 . S
C2579 H2571 0.950 . S
C2579 C2577 1.327 . S
C2580 C2568 1.349 . S
C2580 H2574 0.950 . S
C2580 C2581 1.327 . S
C2581 H2575 0.950 . S
C2581 C2580 1.327 . S
C2581 C2585 1.429 . S
C2582 C2565 1.574 . S
C2582 H2576 0.949 . S
C2582 C2586 1.368 . S
C2583 C2564 1.429 . S
C2583 C2577 1.429 . S
C2583 C2584 1.523 . S
C2584 C2565 1.368 . S
C2584 C2578 1.368 . S
C2584 C2583 1.523 . S
C2585 C2569 1.429 . S
C2585 C2581 1.429 . S
C2585 C2586 1.523 . S
C2586 C2570 1.368 . S
C2586 C2582 1.368 . S
C2586 C2585 1.523 . S
H2587 C2562 0.950 . S
H2588 C2564 0.950 . S
H2589 C2565 0.949 . S
H2590 C2567 0.950 . S
H2591 C2569 0.950 . S
C2592 C2593 1.349 . S
C2592 C2594 1.327 . S
C2592 H2617 0.950 . S
C2593 C2592 1.349 . S
C2593 C2609 1.349 . S
C2594 C2592 1.327 . S
C2594 C2613 1.429 . S
C2594 H2618 0.950 . S
C2595 C2612 1.574 . S
C2595 C2614 1.368 . S
C2595 H2619 0.949 . S
H2596 C2600 0.949 . S
C2597 C2598 1.349 . S
C2597 C2599 1.327 . S
C2597 H2620 0.950 . S
C2598 C2597 1.349 . S
C2598 C2610 1.349 . S
C2599 C2597 1.327 . S
C2599 C2615 1.429 . S
C2599 H2621 0.950 . S
C2600 H2596 0.949 . S
C2600 C2608 1.574 . S
C2600 C2616 1.368 . S
H2601 C2609 0.950 . S
H2602 C2607 0.950 . S
H2603 C2608 0.949 . S
H2604 C2610 0.950 . S
H2605 C2611 0.950 . S
H2606 C2612 0.949 . S
C2607 H2602 0.950 . S
C2607 C2609 1.327 . S
C2607 C2613 1.429 . S
C2608 C2600 1.574 . S
C2608 H2603 0.949 . S
C2608 C2614 1.368 . S
C2609 C2593 1.349 . S
C2609 H2601 0.950 . S
C2609 C2607 1.327 . S
C2610 C2598 1.349 . S
C2610 H2604 0.950 . S
C2610 C2611 1.327 . S
C2611 H2605 0.950 . S
C2611 C2610 1.327 . S
C2611 C2615 1.429 . S
C2612 C2595 1.574 . S
C2612 H2606 0.949 . S
C2612 C2616 1.368 . S
C2613 C2594 1.429 . S
C2613 C2607 1.429 . S
C2613 C2614 1.523 . S
C2614 C2595 1.368 . S
C2614 C2608 1.368 . S
C2614 C2613 1.523 . S
C2615 C2599 1.429 . S
C2615 C2611 1.429 . S
C2615 C2616 1.523 . S
C2616 C2600 1.368 . S
C2616 C2612 1.368 . S
C2616 C2615 1.523 . S
H2617 C2592 0.950 . S
H2618 C2594 0.950 . S
H2619 C2595 0.949 . S
H2620 C2597 0.950 . S
H2621 C2599 0.950 . S
C2622 C2623 1.349 . S
C2622 C2624 1.327 . S
C2622 H2647 0.950 . S
C2623 C2622 1.349 . S
C2623 C2639 1.349 . S
C2624 C2622 1.327 . S
C2624 C2643 1.429 . S
C2624 H2648 0.950 . S
C2625 C2642 1.574 . S
C2625 C2644 1.368 . S
C2625 H2649 0.949 . S
H2626 C2630 0.949 . S
C2627 C2628 1.349 . S
C2627 C2629 1.327 . S
C2627 H2650 0.950 . S
C2628 C2627 1.349 . S
C2628 C2640 1.349 . S
C2629 C2627 1.327 . S
C2629 C2645 1.429 . S
C2629 H2651 0.950 . S
C2630 H2626 0.949 . S
C2630 C2638 1.574 . S
C2630 C2646 1.368 . S
H2631 C2639 0.950 . S
H2632 C2637 0.950 . S
H2633 C2638 0.949 . S
H2634 C2640 0.950 . S
H2635 C2641 0.950 . S
H2636 C2642 0.949 . S
C2637 H2632 0.950 . S
C2637 C2639 1.327 . S
C2637 C2643 1.429 . S
C2638 C2630 1.574 . S
C2638 H2633 0.949 . S
C2638 C2644 1.368 . S
C2639 C2623 1.349 . S
C2639 H2631 0.950 . S
C2639 C2637 1.327 . S
C2640 C2628 1.349 . S
C2640 H2634 0.950 . S
C2640 C2641 1.327 . S
C2641 H2635 0.950 . S
C2641 C2640 1.327 . S
C2641 C2645 1.429 . S
C2642 C2625 1.574 . S
C2642 H2636 0.949 . S
C2642 C2646 1.368 . S
C2643 C2624 1.429 . S
C2643 C2637 1.429 . S
C2643 C2644 1.523 . S
C2644 C2625 1.368 . S
C2644 C2638 1.368 . S
C2644 C2643 1.523 . S
C2645 C2629 1.429 . S
C2645 C2641 1.429 . S
C2645 C2646 1.523 . S
C2646 C2630 1.368 . S
C2646 C2642 1.368 . S
C2646 C2645 1.523 . S
H2647 C2622 0.950 . S
H2648 C2624 0.950 . S
H2649 C2625 0.949 . S
H2650 C2627 0.950 . S
H2651 C2629 0.950 . S
C2652 C2653 1.349 . S
C2652 C2654 1.327 . S
C2652 H2677 0.950 . S
C2653 C2652 1.349 . S
C2653 C2669 1.349 . S
C2654 C2652 1.327 . S
C2654 C2673 1.429 . S
C2654 H2678 0.950 . S
C2655 C2672 1.574 . S
C2655 C2674 1.368 . S
C2655 H2679 0.949 . S
H2656 C2660 0.949 . S
C2657 C2658 1.349 . S
C2657 C2659 1.327 . S
C2657 H2680 0.950 . S
C2658 C2657 1.349 . S
C2658 C2670 1.349 . S
C2659 C2657 1.327 . S
C2659 C2675 1.429 . S
C2659 H2681 0.950 . S
C2660 H2656 0.949 . S
C2660 C2668 1.574 . S
C2660 C2676 1.368 . S
H2661 C2669 0.950 . S
H2662 C2667 0.950 . S
H2663 C2668 0.949 . S
H2664 C2670 0.950 . S
H2665 C2671 0.950 . S
H2666 C2672 0.949 . S
C2667 H2662 0.950 . S
C2667 C2669 1.327 . S
C2667 C2673 1.429 . S
C2668 C2660 1.574 . S
C2668 H2663 0.949 . S
C2668 C2674 1.368 . S
C2669 C2653 1.349 . S
C2669 H2661 0.950 . S
C2669 C2667 1.327 . S
C2670 C2658 1.349 . S
C2670 H2664 0.950 . S
C2670 C2671 1.327 . S
C2671 H2665 0.950 . S
C2671 C2670 1.327 . S
C2671 C2675 1.429 . S
C2672 C2655 1.574 . S
C2672 H2666 0.949 . S
C2672 C2676 1.368 . S
C2673 C2654 1.429 . S
C2673 C2667 1.429 . S
C2673 C2674 1.523 . S
C2674 C2655 1.368 . S
C2674 C2668 1.368 . S
C2674 C2673 1.523 . S
C2675 C2659 1.429 . S
C2675 C2671 1.429 . S
C2675 C2676 1.523 . S
C2676 C2660 1.368 . S
C2676 C2672 1.368 . S
C2676 C2675 1.523 . S
H2677 C2652 0.950 . S
H2678 C2654 0.950 . S
H2679 C2655 0.949 . S
H2680 C2657 0.950 . S
H2681 C2659 0.950 . S
C2682 C2683 1.349 . S
C2682 C2684 1.327 . S
C2682 H2707 0.950 . S
C2683 C2682 1.349 . S
C2683 C2699 1.349 . S
C2684 C2682 1.327 . S
C2684 C2703 1.429 . S
C2684 H2708 0.950 . S
C2685 C2702 1.574 . S
C2685 C2704 1.368 . S
C2685 H2709 0.949 . S
H2686 C2690 0.949 . S
C2687 C2688 1.349 . S
C2687 C2689 1.327 . S
C2687 H2710 0.950 . S
C2688 C2687 1.349 . S
C2688 C2700 1.349 . S
C2689 C2687 1.327 . S
C2689 C2705 1.429 . S
C2689 H2711 0.950 . S
C2690 H2686 0.949 . S
C2690 C2698 1.574 . S
C2690 C2706 1.368 . S
H2691 C2699 0.950 . S
H2692 C2697 0.950 . S
H2693 C2698 0.949 . S
H2694 C2700 0.950 . S
H2695 C2701 0.950 . S
H2696 C2702 0.949 . S
C2697 H2692 0.950 . S
C2697 C2699 1.327 . S
C2697 C2703 1.429 . S
C2698 C2690 1.574 . S
C2698 H2693 0.949 . S
C2698 C2704 1.368 . S
C2699 C2683 1.349 . S
C2699 H2691 0.950 . S
C2699 C2697 1.327 . S
C2700 C2688 1.349 . S
C2700 H2694 0.950 . S
C2700 C2701 1.327 . S
C2701 H2695 0.950 . S
C2701 C2700 1.327 . S
C2701 C2705 1.429 . S
C2702 C2685 1.574 . S
C2702 H2696 0.949 . S
C2702 C2706 1.368 . S
C2703 C2684 1.429 . S
C2703 C2697 1.429 . S
C2703 C2704 1.523 . S
C2704 C2685 1.368 . S
C2704 C2698 1.368 . S
C2704 C2703 1.523 . S
C2705 C2689 1.429 . S
C2705 C2701 1.429 . S
C2705 C2706 1.523 . S
C2706 C2690 1.368 . S
C2706 C2702 1.368 . S
C2706 C2705 1.523 . S
H2707 C2682 0.950 . S
H2708 C2684 0.950 . S
H2709 C2685 0.949 . S
H2710 C2687 0.950 . S
H2711 C2689 0.950 . S
C2712 C2713 1.349 . S
C2712 C2714 1.327 . S
C2712 H2737 0.950 . S
C2713 C2712 1.349 . S
C2713 C2729 1.349 . S
C2714 C2712 1.327 . S
C2714 C2733 1.429 . S
C2714 H2738 0.950 1_556 S
C2715 C2732 1.574 . S
C2715 C2734 1.368 . S
C2715 H2739 0.949 . S
H2716 C2720 0.985 . S
C2717 C2718 1.349 . S
C2717 C2719 1.327 . S
C2717 H2740 0.950 . S
C2718 C2717 1.349 . S
C2718 C2730 1.349 1_556 S
C2719 C2717 1.327 . S
C2719 C2735 1.429 . S
C2719 H2741 0.950 . S
C2720 H2716 0.985 . S
C2720 C2728 1.569 1_554 S
C2720 C2736 1.336 1_554 S
H2721 C2729 0.950 . S
H2722 C2727 0.950 . S
H2723 C2728 0.949 1_554 S
H2724 C2730 0.950 . S
H2725 C2731 0.950 . S
H2726 C2732 0.949 . S
C2727 H2722 0.950 . S
C2727 C2729 1.327 . S
C2727 C2733 1.429 . S
C2728 C2720 1.569 1_556 S
C2728 H2723 0.949 1_556 S
C2728 C2734 1.368 . S
C2729 C2713 1.349 . S
C2729 H2721 0.950 . S
C2729 C2727 1.327 . S
C2730 C2718 1.349 1_554 S
C2730 H2724 0.950 . S
C2730 C2731 1.327 . S
C2731 H2725 0.950 . S
C2731 C2730 1.327 . S
C2731 C2735 1.429 1_554 S
C2732 C2715 1.574 . S
C2732 H2726 0.949 . S
C2732 C2736 1.368 . S
C2733 C2714 1.429 . S
C2733 C2727 1.429 . S
C2733 C2734 1.523 . S
C2734 C2715 1.368 . S
C2734 C2728 1.368 . S
C2734 C2733 1.523 . S
C2735 C2719 1.429 . S
C2735 C2731 1.429 1_556 S
C2735 C2736 1.523 . S
C2736 C2720 1.336 1_556 S
C2736 C2732 1.368 . S
C2736 C2735 1.523 . S
H2737 C2712 0.950 . S
H2738 C2714 0.950 1_554 S
H2739 C2715 0.949 . S
H2740 C2717 0.950 . S
H2741 C2719 0.950 . S
C2742 C2743 1.349 . S
C2742 C2744 1.327 . S
C2742 H2767 0.950 . S
C2743 C2742 1.349 . S
C2743 C2759 1.349 . S
C2744 C2742 1.327 . S
C2744 C2763 1.429 . S
C2744 H2768 0.950 . S
C2745 C2762 1.574 . S
C2745 C2764 1.368 . S
C2745 H2769 0.949 . S
H2746 C2750 0.949 . S
C2747 C2748 1.349 . S
C2747 C2749 1.327 . S
C2747 H2770 0.950 . S
C2748 C2747 1.349 . S
C2748 C2760 1.349 . S
C2749 C2747 1.327 . S
C2749 C2765 1.429 . S
C2749 H2771 0.950 . S
C2750 H2746 0.949 . S
C2750 C2758 1.574 . S
C2750 C2766 1.368 . S
H2751 C2759 0.950 . S
H2752 C2757 0.950 . S
H2753 C2758 0.949 . S
H2754 C2760 0.950 . S
H2755 C2761 0.950 . S
H2756 C2762 0.949 . S
C2757 H2752 0.950 . S
C2757 C2759 1.327 . S
C2757 C2763 1.429 . S
C2758 C2750 1.574 . S
C2758 H2753 0.949 . S
C2758 C2764 1.368 . S
C2759 C2743 1.349 . S
C2759 H2751 0.950 . S
C2759 C2757 1.327 . S
C2760 C2748 1.349 . S
C2760 H2754 0.950 . S
C2760 C2761 1.327 . S
C2761 H2755 0.950 . S
C2761 C2760 1.327 . S
C2761 C2765 1.429 . S
C2762 C2745 1.574 . S
C2762 H2756 0.949 . S
C2762 C2766 1.368 . S
C2763 C2744 1.429 . S
C2763 C2757 1.429 . S
C2763 C2764 1.523 . S
C2764 C2745 1.368 . S
C2764 C2758 1.368 . S
C2764 C2763 1.523 . S
C2765 C2749 1.429 . S
C2765 C2761 1.429 . S
C2765 C2766 1.523 . S
C2766 C2750 1.368 . S
C2766 C2762 1.368 . S
C2766 C2765 1.523 . S
H2767 C2742 0.950 . S
H2768 C2744 0.950 . S
H2769 C2745 0.949 . S
H2770 C2747 0.950 . S
H2771 C2749 0.950 . S
C2772 C2773 1.349 . S
C2772 C2774 1.327 . S
C2772 H2797 0.950 . S
C2773 C2772 1.349 . S
C2773 C2789 1.349 . S
C2774 C2772 1.327 . S
C2774 C2793 1.429 . S
C2774 H2798 0.950 . S
C2775 C2792 1.574 . S
C2775 C2794 1.368 . S
C2775 H2799 0.949 1_554 S
H2776 C2780 0.949 . S
C2777 C2778 1.349 1_556 S
C2777 C2779 1.327 . S
C2777 H2800 0.950 . S
C2778 C2777 1.349 1_554 S
C2778 C2790 1.349 . S
C2779 C2777 1.327 . S
C2779 C2795 1.429 1_556 S
C2779 H2801 0.950 . S
C2780 H2776 0.949 . S
C2780 C2788 1.574 . S
C2780 C2796 1.368 . S
H2781 C2789 0.950 . S
H2782 C2787 0.958 . S
H2783 C2788 0.949 . S
H2784 C2790 0.950 . S
H2785 C2791 0.950 . S
H2786 C2792 0.949 1_556 S
C2787 H2782 0.958 . S
C2787 C2789 1.327 . S
C2787 C2793 1.429 . S
C2788 C2780 1.574 . S
C2788 H2783 0.949 . S
C2788 C2794 1.368 . S
C2789 C2773 1.349 . S
C2789 H2781 0.950 . S
C2789 C2787 1.327 . S
C2790 C2778 1.349 . S
C2790 H2784 0.950 . S
C2790 C2791 1.327 . S
C2791 H2785 0.950 . S
C2791 C2790 1.327 . S
C2791 C2795 1.429 . S
C2792 C2775 1.574 . S
C2792 H2786 0.949 1_554 S
C2792 C2796 1.368 . S
C2793 C2774 1.429 . S
C2793 C2787 1.429 . S
C2793 C2794 1.523 . S
C2794 C2775 1.368 . S
C2794 C2788 1.368 . S
C2794 C2793 1.523 . S
C2795 C2779 1.429 1_554 S
C2795 C2791 1.429 . S
C2795 C2796 1.523 . S
C2796 C2780 1.368 . S
C2796 C2792 1.368 . S
C2796 C2795 1.523 . S
H2797 C2772 0.950 . S
H2798 C2774 0.950 . S
H2799 C2775 0.949 1_556 S
H2800 C2777 0.950 . S
H2801 C2779 0.950 . S
C2802 C2803 1.349 . S
C2802 C2804 1.327 . S
C2802 H2827 0.933 1_554 S
C2803 C2802 1.349 . S
C2803 C2819 1.349 . S
C2804 C2802 1.327 . S
C2804 C2823 1.429 . S
C2804 H2828 0.950 1_554 S
C2805 C2822 1.574 . S
C2805 C2824 1.368 . S
C2805 H2829 0.949 . S
H2806 C2810 0.949 1_556 S
C2807 C2808 1.349 . S
C2807 C2809 1.327 . S
C2807 H2830 0.950 . S
C2808 C2807 1.349 . S
C2808 C2820 1.293 1_554 S
C2809 C2807 1.327 . S
C2809 C2825 1.429 . S
C2809 H2831 0.950 . S
C2810 H2806 0.949 1_554 S
C2810 C2818 1.574 . S
C2810 C2826 1.368 . S
H2811 C2819 0.950 . S
H2812 C2817 0.950 . S
H2813 C2818 0.949 1_556 S
H2814 C2820 1.012 . S
H2815 C2821 0.954 1_556 S
H2816 C2822 0.949 . S
C2817 H2812 0.950 . S
C2817 C2819 1.327 . S
C2817 C2823 1.429 . S
C2818 C2810 1.574 . S
C2818 H2813 0.949 1_554 S
C2818 C2824 1.368 . S
C2819 C2803 1.349 . S
C2819 H2811 0.950 . S
C2819 C2817 1.327 . S
C2820 C2808 1.293 1_556 S
C2820 H2814 1.012 . S
C2820 C2821 1.325 1_556 S
C2821 H2815 0.954 1_554 S
C2821 C2820 1.325 1_554 S
C2821 C2825 1.424 . S
C2822 C2805 1.574 . S
C2822 H2816 0.949 . S
C2822 C2826 1.368 . S
C2823 C2804 1.429 . S
C2823 C2817 1.429 . S
C2823 C2824 1.523 . S
C2824 C2805 1.368 . S
C2824 C2818 1.368 . S
C2824 C2823 1.523 . S
C2825 C2809 1.429 . S
C2825 C2821 1.424 . S
C2825 C2826 1.523 . S
C2826 C2810 1.368 . S
C2826 C2822 1.368 . S
C2826 C2825 1.523 . S
H2827 C2802 0.933 1_556 S
H2828 C2804 0.950 1_556 S
H2829 C2805 0.949 . S
H2830 C2807 0.950 . S
H2831 C2809 0.950 . S
C1398 C962 1.423 . S
C1393 C331 1.394 . S
C1428 C1010 1.662 . S
C1423 C380 1.694 . S
C1453 C421 1.369 . S
C1458 C1046 1.345 . S
C1488 C1082 1.605 . S
C1483 C260 1.623 . S
C1518 C1108 1.447 . S
C1513 C620 1.410 . S
C1548 C1144 1.609 . S
C1543 C740 1.591 . S
C1573 C680 1.463 . S
C1578 C1179 1.482 . S
C1608 C1216 1.628 1_565 S
C1603 C571 1.616 . S
C1633 C691 1.409 . S
C1638 C1250 1.412 . S
C1668 C1298 1.579 . S
C1663 C541 1.613 . S
C1693 C601 1.383 . S
C1698 C1251 1.428 . S
C1728 C1288 1.640 . S
C1723 C721 1.618 . S
C1753 C451 1.408 . S
C1758 C1334 1.382 . S
C1783 C241 1.631 . S
C1788 C1323 1.655 . S
C1813 C320 1.441 . S
C1818 C1324 1.476 . S
C1843 C391 1.662 . S
C1848 C1322 1.685 . S
C1873 C211 1.396 . S
C1878 C1070 1.425 . S
C1903 C841 1.377 . S
C1908 C1071 1.420 . S
C1938 C974 1.630 . S
C1933 C901 1.665 . S
C1968 C999 1.449 . S
C1963 C500 1.414 . S
C1993 C271 1.628 . S
C1998 C1106 1.656 . S
C2028 C1214 1.452 . S
C2023 C661 1.445 . S
C2058 C1107 1.619 . S
C2053 C560 1.604 . S
C2088 C1180 1.643 . S
C2083 C751 1.627 . S
C2118 C1178 1.423 . S
C2113 C871 1.394 . S
C2143 C920 1.694 . S
C2148 C1226 1.662 . S
C2173 C481 1.369 . S
C2178 C1118 1.345 . S
C2208 C1154 1.605 . S
C2203 C800 1.623 . S
C2233 C200 1.410 . S
C2238 C1036 1.446 . S
C2268 C1072 1.609 . S
C2263 C20 1.591 . S
C2298 C963 1.482 . S
C2293 C80 1.463 . S
C2328 C1000 1.632 . S
C2323 C151 1.614 . S
C2353 C91 1.409 . S
C2358 C1286 1.412 . S
C2383 C121 1.613 . S
C2388 C1262 1.581 . S
C2413 C181 1.382 . S
C2418 C1287 1.428 . S
C2443 C1 1.618 . S
C2448 C1252 1.640 . S
C2478 C1370 1.382 . S
C2473 C511 1.408 . S
C2508 C1359 1.655 . S
C2503 C781 1.631 . S
C2538 C1360 1.476 . S
C2533 C860 1.442 . S
C2563 C931 1.662 . S
C2568 C1358 1.679 . S
C2593 C631 1.396 . S
C2598 C1142 1.425 . S
C2628 C1143 1.420 . S
C2623 C301 1.377 . S
C2658 C1190 1.631 . S
C2653 C361 1.665 . S
C2688 C1215 1.449 . S
C2683 C440 1.420 . S
C2713 C811 1.628 . S
C2718 C1034 1.655 1_556 S
C2748 C998 1.453 . S
C2743 C61 1.451 . S
C2773 C140 1.604 . S
C2778 C1035 1.619 . S
C2808 C964 1.642 . S
C2803 C31 1.627 . S
