# Generated by pormake.
# Topology ssa, (4,4)-cn, num edge types: 1
# Building blocks:
#     Node 0, Type 0, BuildingBlock: ESEHIV_clean_sbu_0, # of connection points: 4
#     Node 1, Type 0, BuildingBlock: ESEHIV_clean_sbu_0, # of connection points: 4
#     Node 2, Type 0, BuildingBlock: ESEHIV_clean_sbu_0, # of connection points: 4
#     Node 3, Type 0, BuildingBlock: ESEHIV_clean_sbu_0, # of connection points: 4
#     Node 4, Type 0, BuildingBlock: ESEHIV_clean_sbu_0, # of connection points: 4
#     Node 5, Type 0, BuildingBlock: ESEHIV_clean_sbu_0, # of connection points: 4
#     Node 6, Type 1, BuildingBlock: NAWXER_clean_linker_0, # of connection points: 4
#     Node 7, Type 1, BuildingBlock: NAWXER_clean_linker_0, # of connection points: 4
#     Node 8, Type 1, BuildingBlock: NAWXER_clean_linker_0, # of connection points: 4
#     Node 9, Type 1, BuildingBlock: NAWXER_clean_linker_0, # of connection points: 4
#     Node 10, Type 1, BuildingBlock: NAWXER_clean_linker_0, # of connection points: 4
#     Node 11, Type 1, BuildingBlock: NAWXER_clean_linker_0, # of connection points: 4
#     Edge 12, Type (0, 1), BuildingBlock: ZUJKAS_clean_linker_0, # of connection points: 2
#     Edge 13, Type (0, 1), BuildingBlock: ZUJKAS_clean_linker_0, # of connection points: 2
#     Edge 14, Type (0, 1), BuildingBlock: ZUJKAS_clean_linker_0, # of connection points: 2
#     Edge 15, Type (0, 1), BuildingBlock: ZUJKAS_clean_linker_0, # of connection points: 2
#     Edge 16, Type (0, 1), BuildingBlock: ZUJKAS_clean_linker_0, # of connection points: 2
#     Edge 17, Type (0, 1), BuildingBlock: ZUJKAS_clean_linker_0, # of connection points: 2
#     Edge 18, Type (0, 1), BuildingBlock: ZUJKAS_clean_linker_0, # of connection points: 2
#     Edge 19, Type (0, 1), BuildingBlock: ZUJKAS_clean_linker_0, # of connection points: 2
#     Edge 20, Type (0, 1), BuildingBlock: ZUJKAS_clean_linker_0, # of connection points: 2
#     Edge 21, Type (0, 1), BuildingBlock: ZUJKAS_clean_linker_0, # of connection points: 2
#     Edge 22, Type (0, 1), BuildingBlock: ZUJKAS_clean_linker_0, # of connection points: 2
#     Edge 23, Type (0, 1), BuildingBlock: ZUJKAS_clean_linker_0, # of connection points: 2
#     Edge 24, Type (0, 1), BuildingBlock: ZUJKAS_clean_linker_0, # of connection points: 2
#     Edge 25, Type (0, 1), BuildingBlock: ZUJKAS_clean_linker_0, # of connection points: 2
#     Edge 26, Type (0, 1), BuildingBlock: ZUJKAS_clean_linker_0, # of connection points: 2
#     Edge 27, Type (0, 1), BuildingBlock: ZUJKAS_clean_linker_0, # of connection points: 2
#     Edge 28, Type (0, 1), BuildingBlock: ZUJKAS_clean_linker_0, # of connection points: 2
#     Edge 29, Type (0, 1), BuildingBlock: ZUJKAS_clean_linker_0, # of connection points: 2
#     Edge 30, Type (0, 1), BuildingBlock: ZUJKAS_clean_linker_0, # of connection points: 2
#     Edge 31, Type (0, 1), BuildingBlock: ZUJKAS_clean_linker_0, # of connection points: 2
#     Edge 32, Type (0, 1), BuildingBlock: ZUJKAS_clean_linker_0, # of connection points: 2
#     Edge 33, Type (0, 1), BuildingBlock: ZUJKAS_clean_linker_0, # of connection points: 2
#     Edge 34, Type (0, 1), BuildingBlock: ZUJKAS_clean_linker_0, # of connection points: 2
#     Edge 35, Type (0, 1), BuildingBlock: ZUJKAS_clean_linker_0, # of connection points: 2
# Relax obj value: 0.008
# Max RMSD: 0.106
# Mean RMSD: 0.056
data_MOF--net-ssa--node1-ESEHIV_clean_sbu_0--node2-NAWXER_clean_linker_0--edge1-ZUJKAS_clean_linker_0
_symmetry_space_group_name_H-M    P1
_symmetry_Int_Tables_number       1
_symmetry_cell_setting            triclinic
loop_
_symmetry_equiv_pos_as_xyz
'x, y, z'
_cell_length_a     72.741139
_cell_length_b     76.402332
_cell_length_c     52.270806
_cell_angle_alpha  88.640846
_cell_angle_beta   90.645165
_cell_angle_gamma 121.76656
loop_
_atom_site_label
_atom_site_type_symbol
_atom_site_fract_x
_atom_site_fract_y
_atom_site_fract_z
_atom_type_partial_charge
Cu0 Cu 0.01712 0.51782 0.98068 0.0
N1 N 0.01923 0.50515 0.95183 0.0
N2 N 0.00881 0.48018 0.92362 0.0
C3 C 1.00392 0.48596 0.94539 0.0
C4 C 0.02804 0.49648 0.91595 0.0
C5 C 0.03451 0.5119 0.93354 0.0
O6 O 0.98945 0.51625 0.97791 0.0
C7 C 0.0393 0.50547 0.01035 0.0
O8 O 0.052 0.51435 0.99042 0.0
H9 H 0.98917 0.47663 0.95626 0.0
H10 H 0.04926 0.52688 0.933 0.0
N11 N 0.03936 0.54538 0.98263 0.0
N12 N 0.06445 0.5741 1.00168 0.0
C13 C 0.04804 0.55444 0.00497 0.0
C14 C 0.05056 0.55985 0.96439 0.0
C15 C 0.06604 0.57768 0.97615 0.0
C16 C 0.98769 0.52504 0.95779 0.0
O17 O 0.00422 0.53433 0.94202 0.0
H18 H 0.04234 0.54665 0.02334 0.0
H19 H 0.04789 0.55758 0.94404 0.0
O20 O 0.02111 0.50425 0.01054 0.0
H21 H 0.03683 0.49718 0.899 0.0
H22 H 0.07785 0.59195 0.96664 0.0
Cu23 Cu 0.51373 0.0138 0.51105 0.0
N24 N 0.53135 0.01462 0.48479 0.0
N25 N 0.54458 0.00262 0.45637 0.0
C26 C 0.5285 0.99788 0.47305 0.0
C27 C 0.55805 0.02325 0.45763 0.0
C28 C 0.54981 0.03062 0.47519 0.0
O29 O 0.48552 0.98939 0.50591 0.0
C30 C 0.54175 0.01111 0.54762 0.0
O31 O 0.54891 0.00549 0.52848 0.0
H32 H 0.51535 0.9824 0.47763 0.0
H33 H 0.55705 0.0464 0.48105 0.0
N34 N 0.5119 0.03727 0.51079 0.0
N35 N 0.50819 0.06226 0.5264 0.0
C36 C 0.50728 0.04441 0.53149 0.0
C37 C 0.51592 0.05104 0.49182 0.0
C38 C 0.51354 0.06645 0.50136 0.0
C39 C 0.47427 0.98968 0.4873 0.0
O40 O 0.4814 0.0069 0.47406 0.0
H41 H 0.50341 0.03659 0.54997 0.0
H42 H 0.52058 0.05011 0.47256 0.0
O43 O 0.52587 0.01351 0.54411 0.0
H44 H 0.57292 0.03237 0.4469 0.0
H45 H 0.51616 0.07995 0.49085 0.0
Cu46 Cu 0.5079 0.50398 0.03628 0.0
N47 N 0.5051 0.47824 0.03589 0.0
N48 N 0.50181 0.44991 0.01952 0.0
C49 C 0.50539 0.4689 0.01453 0.0
C50 C 0.4992 0.44728 0.04518 0.0
C51 C 0.50123 0.46479 0.05522 0.0
O52 O 0.52486 0.51903 0.0064 0.0
C53 C 0.46186 0.48422 0.03549 0.0
O54 O 0.46161 0.46732 0.03061 0.0
H55 H 0.50746 0.47571 0.99558 0.0
H56 H 0.4996 0.46737 0.0751 0.0
N57 N 0.52206 0.51873 0.06548 0.0
N58 N 0.53441 0.54378 0.09412 0.0
C59 C 0.52318 0.53614 0.07224 0.0
C60 C 0.53292 0.51508 0.08369 0.0
C61 C 0.54055 0.53051 0.10142 0.0
C62 C 0.54491 0.52543 0.00734 0.0
O63 O 0.55288 0.52264 0.02864 0.0
H64 H 0.51558 0.54287 0.06136 0.0
H65 H 0.5353 0.50225 0.08394 0.0
O66 O 0.47986 0.50126 0.03653 0.0
H67 H 0.49597 0.43369 0.05598 0.0
H68 H 0.55014 0.53198 0.11813 0.0
Cu69 Cu 0.98728 0.49607 0.49605 0.0
N70 N 0.98251 0.4837 0.46456 0.0
N71 N 0.99129 0.47497 0.42836 0.0
C72 C 0.99808 0.48877 0.4472 0.0
C73 C 0.97052 0.46066 0.43403 0.0
C74 C 0.9651 0.46615 0.45642 0.0
O75 O 0.01736 0.51898 0.49475 0.0
C76 C 0.98253 0.4767 0.54581 0.0
O77 O 0.99238 0.49527 0.55526 0.0
H78 H 0.01462 0.50136 0.44952 0.0
H79 H 0.95005 0.45732 0.46688 0.0
N80 N 0.96823 0.50517 0.49977 0.0
N81 N 0.94454 0.51147 0.51747 0.0
C82 C 0.95731 0.5037 0.5211 0.0
C83 C 0.96216 0.51408 0.4819 0.0
C84 C 0.94758 0.51807 0.49279 0.0
C85 C 0.02316 0.53781 0.49664 0.0
O86 O 0.00917 0.54231 0.50493 0.0
H87 H 0.95884 0.49721 0.53899 0.0
H88 H 0.96789 0.51736 0.46234 0.0
O89 O 0.98039 0.47458 0.52169 0.0
H90 H 0.96036 0.44673 0.4235 0.0
H91 H 0.93958 0.52494 0.48315 0.0
Cu92 Cu 0.51924 0.01755 0.03739 0.0
N93 N 0.51352 0.03855 0.03862 0.0
N94 N 0.50402 0.06072 0.02556 0.0
C95 C 0.50347 0.04323 0.02047 0.0
C96 C 0.51465 0.06718 0.048 0.0
C97 C 0.52045 0.05341 0.05605 0.0
O98 O 0.53673 0.02222 0.00708 0.0
C99 C 0.49092 0.97406 0.04291 0.0
O100 O 0.5085 0.97353 0.03954 0.0
H101 H 0.49686 0.03455 0.00323 0.0
H102 H 0.52974 0.05456 0.07291 0.0
N103 N 0.53641 0.01979 0.06526 0.0
N104 N 0.54873 0.00995 0.09842 0.0
C105 C 0.53133 0.00573 0.08415 0.0
C106 C 0.55761 0.03373 0.06795 0.0
C107 C 0.56528 0.02773 0.08843 0.0
C108 C 0.53125 0.02231 0.9839 0.0
O109 O 0.51105 0.01602 0.97849 0.0
H110 H 0.51539 0.99216 0.08656 0.0
H111 H 0.56709 0.04657 0.05489 0.0
O112 O 0.49201 0.99119 0.04033 0.0
H113 H 0.51848 0.08111 0.05757 0.0
H114 H 0.58204 0.03507 0.09417 0.0
Cu115 Cu 0.50422 0.49574 0.48784 0.0
N116 N 0.52275 0.51017 0.4608 0.0
N117 N 0.53921 0.53467 0.43065 0.0
C118 C 0.52193 0.52446 0.44627 0.0
C119 C 0.5514 0.52643 0.43552 0.0
C120 C 0.54111 0.5112 0.45414 0.0
O121 O 0.47845 0.49712 0.48194 0.0
C122 C 0.51344 0.50275 0.54156 0.0
O123 O 0.49305 0.48833 0.54528 0.0
H124 H 0.50964 0.52825 0.44842 0.0
H125 H 0.54709 0.50224 0.4631 0.0
N126 N 0.4978 0.46869 0.48805 0.0
N127 N 0.49395 0.43929 0.50289 0.0
C128 C 0.50132 0.45918 0.50771 0.0
C129 C 0.48816 0.45444 0.46985 0.0
C130 C 0.4856 0.43619 0.47905 0.0
C131 C 0.45913 0.48167 0.48299 0.0
O132 O 0.45556 0.46398 0.49214 0.0
H133 H 0.50853 0.46651 0.52557 0.0
H134 H 0.48289 0.45704 0.45149 0.0
O135 O 0.52026 0.50877 0.51882 0.0
H136 H 0.56694 0.53153 0.4269 0.0
H137 H 0.47802 0.42176 0.46909 0.0
C138 C 0.3023 0.48806 0.21129 0.0
C139 C 0.29622 0.47345 0.19201 0.0
C140 C 0.2867 0.48756 0.22723 0.0
C141 C 0.26476 0.47228 0.22439 0.0
C142 C 0.27423 0.45818 0.18929 0.0
C143 C 0.2587 0.45766 0.20525 0.0
C144 C 0.24774 0.47234 0.23955 0.0
C145 C 0.28839 0.46238 0.29761 0.0
C146 C 0.29819 0.47783 0.31606 0.0
C147 C 0.27244 0.46127 0.28121 0.0
C148 C 0.26601 0.47563 0.28285 0.0
C149 C 0.29163 0.4921 0.31768 0.0
C150 C 0.27563 0.49092 0.3014 0.0
C151 C 0.24847 0.47425 0.2665 0.0
C152 C 0.15815 0.4548 0.28721 0.0
C153 C 0.16197 0.47011 0.30462 0.0
C154 C 0.17537 0.45528 0.27502 0.0
C155 C 0.19674 0.47123 0.2797 0.0
C156 C 0.18345 0.48554 0.31015 0.0
C157 C 0.2007 0.48603 0.29787 0.0
C158 C 0.21482 0.47272 0.26516 0.0
C159 C 0.17646 0.48727 0.21107 0.0
C160 C 0.1651 0.47229 0.19244 0.0
C161 C 0.19266 0.48721 0.22566 0.0
C162 C 0.19777 0.47206 0.22217 0.0
C163 C 0.17061 0.45742 0.18857 0.0
C164 C 0.18686 0.45739 0.20319 0.0
C165 C 0.21453 0.47163 0.23823 0.0
H166 H 0.31911 0.49995 0.21399 0.0
H167 H 0.29176 0.49939 0.24136 0.0
H168 H 0.26892 0.44692 0.17438 0.0
H169 H 0.24184 0.44591 0.20245 0.0
H170 H 0.29311 0.45119 0.29576 0.0
H171 H 0.26493 0.44901 0.26751 0.0
H172 H 0.29856 0.50398 0.33191 0.0
H173 H 0.27077 0.50202 0.30328 0.0
H174 H 0.14183 0.44276 0.28242 0.0
H175 H 0.17196 0.4434 0.26151 0.0
H176 H 0.18693 0.49732 0.32383 0.0
H177 H 0.21709 0.49831 0.30198 0.0
H178 H 0.17308 0.49926 0.21417 0.0
H179 H 0.20125 0.49908 0.23966 0.0
H180 H 0.16214 0.44559 0.1745 0.0
H181 H 0.19061 0.44563 0.20004 0.0
N182 N 0.23083 0.47117 0.22651 0.0
N183 N 0.2319 0.47432 0.27823 0.0
C184 C 0.84847 0.2845 0.7879 0.0
C185 C 0.84536 0.295 0.80745 0.0
C186 C 0.83077 0.26785 0.77619 0.0
C187 C 0.8096 0.26158 0.78349 0.0
C188 C 0.82418 0.28812 0.81551 0.0
C189 C 0.80645 0.27149 0.80368 0.0
C190 C 0.79081 0.24492 0.76984 0.0
C191 C 0.82481 0.29922 0.71688 0.0
C192 C 0.83602 0.29673 0.69693 0.0
C193 C 0.80936 0.28225 0.73133 0.0
C194 C 0.80482 0.26236 0.72637 0.0
C195 C 0.83088 0.27668 0.6914 0.0
C196 C 0.81535 0.25966 0.7059 0.0
C197 C 0.78936 0.24456 0.74284 0.0
C198 C 0.70017 0.17078 0.72481 0.0
C199 C 0.70466 0.16042 0.7064 0.0
C200 C 0.71699 0.18777 0.7372 0.0
C201 C 0.73861 0.19445 0.73176 0.0
C202 C 0.72633 0.16757 0.70038 0.0
C203 C 0.74315 0.18448 0.71291 0.0
C204 C 0.75658 0.21174 0.74564 0.0
C205 C 0.71769 0.15982 0.80198 0.0
C206 C 0.70731 0.16478 0.82047 0.0
C207 C 0.73434 0.17528 0.7868 0.0
C208 C 0.7408 0.19601 0.78956 0.0
C209 C 0.7143 0.18563 0.82366 0.0
C210 C 0.73093 0.20106 0.80848 0.0
C211 C 0.75757 0.21251 0.77269 0.0
H212 H 0.8646 0.28917 0.78166 0.0
H213 H 0.83361 0.26001 0.76118 0.0
H214 H 0.82127 0.29597 0.83045 0.0
H215 H 0.79026 0.26679 0.80974 0.0
H216 H 0.82788 0.31431 0.72129 0.0
H217 H 0.80103 0.2847 0.74656 0.0
H218 H 0.83923 0.27416 0.67626 0.0
H219 H 0.81202 0.24445 0.70161 0.0
H220 H 0.68364 0.1659 0.72944 0.0
H221 H 0.71311 0.19561 0.75113 0.0
H222 H 0.73028 0.15986 0.68633 0.0
H223 H 0.75972 0.18949 0.70829 0.0
H224 H 0.71306 0.144 0.79933 0.0
H225 H 0.74206 0.17101 0.77277 0.0
H226 H 0.70658 0.19005 0.83749 0.0
H227 H 0.73569 0.21694 0.81104 0.0
N228 N 0.7747 0.2291 0.78375 0.0
N229 N 0.77249 0.2278 0.73172 0.0
C230 C 0.58349 0.73517 0.23485 0.0
C231 C 0.56694 0.72449 0.21684 0.0
C232 C 0.58512 0.75165 0.24799 0.0
C233 C 0.57003 0.75759 0.24372 0.0
C234 C 0.55254 0.73116 0.21164 0.0
C235 C 0.55412 0.7476 0.22492 0.0
C236 C 0.57003 0.77336 0.25973 0.0
C237 C 0.55086 0.71738 0.30685 0.0
C238 C 0.56805 0.72026 0.32252 0.0
C239 C 0.55087 0.73425 0.29609 0.0
C240 C 0.56808 0.75432 0.30072 0.0
C241 C 0.58479 0.74045 0.32804 0.0
C242 C 0.58473 0.75736 0.31731 0.0
C243 C 0.56947 0.77197 0.28677 0.0
C244 C 0.54855 0.83584 0.31255 0.0
C245 C 0.56348 0.84705 0.33195 0.0
C246 C 0.55007 0.8211 0.29905 0.0
C247 C 0.56668 0.81736 0.30442 0.0
C248 C 0.57967 0.84276 0.3379 0.0
C249 C 0.58116 0.82794 0.32436 0.0
C250 C 0.56927 0.80294 0.2886 0.0
C251 C 0.58754 0.85932 0.24335 0.0
C252 C 0.57224 0.85617 0.22449 0.0
C253 C 0.58757 0.84261 0.25463 0.0
C254 C 0.57207 0.82243 0.24757 0.0
C255 C 0.55751 0.83603 0.21642 0.0
C256 C 0.55748 0.81928 0.22785 0.0
C257 C 0.57045 0.80465 0.26158 0.0
H258 H 0.59512 0.73071 0.2389 0.0
H259 H 0.59791 0.75949 0.26192 0.0
H260 H 0.53956 0.72322 0.19797 0.0
H261 H 0.54237 0.75198 0.22123 0.0
H262 H 0.53745 0.70206 0.30273 0.0
H263 H 0.5377 0.73164 0.2836 0.0
H264 H 0.59831 0.7432 0.33994 0.0
H265 H 0.59814 0.77277 0.32107 0.0
H266 H 0.53599 0.83882 0.3073 0.0
H267 H 0.53847 0.81286 0.28404 0.0
H268 H 0.59122 0.85089 0.35299 0.0
H269 H 0.59398 0.82517 0.32895 0.0
H270 H 0.59937 0.8747 0.24954 0.0
H271 H 0.59938 0.84542 0.26933 0.0
H272 H 0.54551 0.83315 0.20196 0.0
H273 H 0.54549 0.80383 0.22202 0.0
N274 N 0.57045 0.78965 0.24808 0.0
N275 N 0.56912 0.78678 0.30028 0.0
C276 C 0.81468 0.53322 0.72501 0.0
C277 C 0.80668 0.51828 0.70593 0.0
C278 C 0.8005 0.53428 0.74184 0.0
C279 C 0.7781 0.52021 0.74013 0.0
C280 C 0.78431 0.50398 0.70464 0.0
C281 C 0.77018 0.50501 0.72148 0.0
C282 C 0.76264 0.5225 0.75566 0.0
C283 C 0.79961 0.50719 0.81204 0.0
C284 C 0.81113 0.522 0.83081 0.0
C285 C 0.7847 0.50848 0.79619 0.0
C286 C 0.78117 0.5248 0.79844 0.0
C287 C 0.80733 0.53814 0.83328 0.0
C288 C 0.79247 0.53946 0.81736 0.0
C289 C 0.76485 0.526 0.78232 0.0
C290 C 0.68212 0.52156 0.80837 0.0
C291 C 0.68978 0.53926 0.82308 0.0
C292 C 0.69652 0.51822 0.79513 0.0
C293 C 0.71885 0.53262 0.79611 0.0
C294 C 0.71221 0.55342 0.8245 0.0
C295 C 0.72662 0.55006 0.81122 0.0
C296 C 0.73411 0.52958 0.78135 0.0
C297 C 0.69403 0.54107 0.72521 0.0
C298 C 0.68112 0.52438 0.7092 0.0
C299 C 0.71061 0.54171 0.73985 0.0
C300 C 0.71445 0.52552 0.73909 0.0
C301 C 0.68537 0.50844 0.70806 0.0
C302 C 0.70191 0.50907 0.72274 0.0
C303 C 0.73169 0.52571 0.75486 0.0
H304 H 0.8318 0.54462 0.72626 0.0
H305 H 0.80699 0.54654 0.75556 0.0
H306 H 0.77768 0.49212 0.69038 0.0
H307 H 0.75296 0.49408 0.71969 0.0
H308 H 0.80178 0.49432 0.80992 0.0
H309 H 0.77567 0.49649 0.78247 0.0
H310 H 0.81603 0.54992 0.84735 0.0
H311 H 0.78992 0.55208 0.81971 0.0
H312 H 0.665 0.5101 0.80739 0.0
H313 H 0.69022 0.50438 0.7841 0.0
H314 H 0.71862 0.56725 0.83557 0.0
H315 H 0.74381 0.56129 0.81231 0.0
H316 H 0.69152 0.55381 0.72619 0.0
H317 H 0.72047 0.55491 0.75169 0.0
H318 H 0.67566 0.49525 0.69615 0.0
H319 H 0.70464 0.49647 0.72168 0.0
N320 N 0.74604 0.52229 0.74312 0.0
N321 N 0.75059 0.52963 0.79404 0.0
C322 C 0.19976 0.69569 0.227 0.0
C323 C 0.19096 0.70263 0.20815 0.0
C324 C 0.21482 0.70939 0.2446 0.0
C325 C 0.22119 0.73023 0.24374 0.0
C326 C 0.19705 0.72341 0.20777 0.0
C327 C 0.21208 0.73706 0.2253 0.0
C328 C 0.239 0.74554 0.25985 0.0
C329 C 0.18554 0.70318 0.31523 0.0
C330 C 0.19164 0.69434 0.33491 0.0
C331 C 0.20116 0.71892 0.2993 0.0
C332 C 0.22321 0.7259 0.30235 0.0
C333 C 0.2137 0.70147 0.33803 0.0
C334 C 0.22927 0.71706 0.32199 0.0
C335 C 0.24029 0.74333 0.28664 0.0
C336 C 0.31308 0.82712 0.31606 0.0
C337 C 0.32162 0.82145 0.33664 0.0
C338 C 0.29807 0.81226 0.29949 0.0
C339 C 0.29157 0.79148 0.30291 0.0
C340 C 0.31511 0.80066 0.34002 0.0
C341 C 0.30019 0.78582 0.32337 0.0
C342 C 0.27436 0.77533 0.28687 0.0
C343 C 0.32886 0.81435 0.23117 0.0
C344 C 0.32376 0.82344 0.21077 0.0
C345 C 0.31267 0.79969 0.24755 0.0
C346 C 0.291 0.79392 0.2441 0.0
C347 C 0.30206 0.81765 0.20743 0.0
C348 C 0.28589 0.803 0.2238 0.0
C349 C 0.27333 0.77721 0.25999 0.0
H350 H 0.19529 0.67974 0.22788 0.0
H351 H 0.222 0.70385 0.25828 0.0
H352 H 0.19087 0.72934 0.19327 0.0
H353 H 0.21696 0.75312 0.22409 0.0
H354 H 0.16873 0.69832 0.3126 0.0
H355 H 0.19599 0.72593 0.28503 0.0
H356 H 0.21896 0.6949 0.35283 0.0
H357 H 0.24614 0.72224 0.32497 0.0
H358 H 0.31747 0.84295 0.31325 0.0
H359 H 0.2911 0.81697 0.28448 0.0
H360 H 0.32154 0.79585 0.35558 0.0
H361 H 0.29525 0.76987 0.32656 0.0
H362 H 0.3454 0.81851 0.23444 0.0
H363 H 0.31707 0.79255 0.26254 0.0
H364 H 0.29743 0.82404 0.19173 0.0
H365 H 0.26929 0.79864 0.22046 0.0
N366 N 0.25556 0.76232 0.2477 0.0
N367 N 0.25794 0.75839 0.299 0.0
C368 C 0.46327 0.17593 0.81444 0.0
C369 C 0.47952 0.18222 0.8331 0.0
C370 C 0.46289 0.19043 0.79796 0.0
C371 C 0.47879 0.21144 0.79983 0.0
C372 C 0.49549 0.20324 0.83473 0.0
C373 C 0.49505 0.21769 0.81836 0.0
C374 C 0.47769 0.22721 0.78415 0.0
C375 C 0.49179 0.19233 0.72714 0.0
C376 C 0.47653 0.18305 0.7074 0.0
C377 C 0.49071 0.20578 0.74389 0.0
C378 C 0.47419 0.21006 0.74149 0.0
C379 C 0.45991 0.18724 0.70518 0.0
C380 C 0.45883 0.20067 0.72195 0.0
C381 C 0.4741 0.22583 0.75747 0.0
C382 C 0.49168 0.30816 0.7247 0.0
C383 C 0.47547 0.30223 0.70605 0.0
C384 C 0.49079 0.2937 0.74236 0.0
C385 C 0.4736 0.2731 0.74175 0.0
C386 C 0.45799 0.28172 0.70598 0.0
C387 C 0.45716 0.26727 0.72356 0.0
C388 C 0.47401 0.25708 0.75765 0.0
C389 C 0.46727 0.29735 0.81435 0.0
C390 C 0.48361 0.30602 0.83307 0.0
C391 C 0.46556 0.28225 0.79806 0.0
C392 C 0.48028 0.27564 0.79998 0.0
C393 C 0.49829 0.29935 0.83487 0.0
C394 C 0.49659 0.28432 0.81861 0.0
C395 C 0.47802 0.25866 0.78427 0.0
H396 H 0.45079 0.15984 0.81269 0.0
H397 H 0.44986 0.18527 0.78423 0.0
H398 H 0.50801 0.20861 0.84918 0.0
H399 H 0.50734 0.23383 0.82034 0.0
H400 H 0.50505 0.18979 0.72911 0.0
H401 H 0.50326 0.21336 0.75815 0.0
H402 H 0.44776 0.1802 0.69038 0.0
H403 H 0.44606 0.20387 0.71953 0.0
H404 H 0.50529 0.32388 0.72529 0.0
H405 H 0.50396 0.29847 0.75579 0.0
H406 H 0.44541 0.27662 0.69165 0.0
H407 H 0.44391 0.25139 0.72254 0.0
H408 H 0.45573 0.30217 0.81234 0.0
H409 H 0.45243 0.27545 0.78439 0.0
H410 H 0.51082 0.30535 0.84933 0.0
H411 H 0.50799 0.27933 0.82073 0.0
N412 N 0.47966 0.24361 0.79639 0.0
N413 N 0.4722 0.24074 0.74537 0.0
H414 H 0.01921 0.48754 0.05668 0.0
H415 H 0.03466 0.47849 0.09321 0.0
H416 H 0.09315 0.49971 0.05021 0.0
H417 H 0.07811 0.50856 0.01403 0.0
H418 H 0.06055 0.45222 0.0864 0.0
H419 H 0.10377 0.53104 0.12619 0.0
H420 H 0.07833 0.52048 0.10939 0.0
H421 H 0.10274 0.52883 0.09187 0.0
C422 C 0.03528 0.49012 0.055 0.0
C423 C 0.04739 0.49879 0.0324 0.0
C424 C 0.04407 0.48496 0.07584 0.0
C425 C 0.06506 0.48852 0.07432 0.0
C426 C 0.07695 0.49688 0.05173 0.0
H427 H 0.15661 0.46472 0.14124 0.0
H428 H 0.12931 0.46642 0.11554 0.0
C429 C 0.06824 0.50192 0.03104 0.0
C430 C 0.07524 0.48406 0.09612 0.0
H431 H 0.11499 0.50848 0.14074 0.0
C432 C 0.07213 0.46436 0.0987 0.0
C433 C 0.09033 0.49995 0.11204 0.0
C434 C 0.09403 0.5213 0.10998 0.0
C435 C 0.08445 0.46038 0.1161 0.0
C436 C 0.10053 0.47663 0.13093 0.0
C437 C 0.10278 0.49605 0.12927 0.0
C438 C 0.11608 0.47423 0.14706 0.0
C439 C 0.08041 0.43891 0.11813 0.0
C440 C 0.11799 0.47835 0.17329 0.0
C441 C 0.13361 0.47737 0.18809 0.0
C442 C 0.14782 0.47245 0.17691 0.0
C443 C 0.14574 0.4682 0.15063 0.0
C444 C 0.13009 0.46914 0.13587 0.0
H445 H 0.06377 0.42724 0.11189 0.0
H446 H 0.09195 0.43786 0.10551 0.0
H447 H 0.08279 0.43508 0.13804 0.0
H448 H 0.10743 0.4824 0.18232 0.0
H449 H 0.13453 0.48047 0.20833 0.0
H450 H 0.58125 0.01619 0.55787 0.0
H451 H 0.60632 0.03705 0.59151 0.0
H452 H 0.55756 0.0459 0.6238 0.0
H453 H 0.53245 0.0253 0.59006 0.0
H454 H 0.59474 0.08203 0.61074 0.0
H455 H 0.61447 0.03219 0.66827 0.0
H456 H 0.61672 0.03036 0.63439 0.0
H457 H 0.59074 0.02193 0.64821 0.0
C458 C 0.57561 0.02204 0.57255 0.0
C459 C 0.55493 0.01929 0.57108 0.0
C460 C 0.58996 0.03389 0.59188 0.0
C461 C 0.58378 0.04298 0.6102 0.0
C462 C 0.56263 0.039 0.60985 0.0
H463 H 0.66796 0.12804 0.72783 0.0
H464 H 0.63788 0.09879 0.70584 0.0
C465 C 0.54829 0.0272 0.59054 0.0
C466 C 0.60021 0.05899 0.62709 0.0
H467 H 0.63913 0.06871 0.67147 0.0
C468 C 0.60424 0.07904 0.62426 0.0
C469 C 0.61255 0.05506 0.64474 0.0
C470 C 0.6083 0.03368 0.64931 0.0
C471 C 0.62074 0.0954 0.63798 0.0
C472 C 0.63371 0.09165 0.65476 0.0
C473 C 0.62925 0.07151 0.65833 0.0
C474 C 0.65226 0.10867 0.66823 0.0
C475 C 0.62433 0.11663 0.6343 0.0
C476 C 0.67034 0.12367 0.65431 0.0
C477 C 0.68747 0.14036 0.66675 0.0
C478 C 0.68678 0.14234 0.69333 0.0
C479 C 0.66879 0.12705 0.70728 0.0
C480 C 0.6517 0.11029 0.69482 0.0
H481 H 0.61014 0.11611 0.6253 0.0
H482 H 0.62771 0.12453 0.65287 0.0
H483 H 0.63853 0.12599 0.62164 0.0
H484 H 0.67108 0.12256 0.63377 0.0
H485 H 0.70103 0.15194 0.65547 0.0
H486 H 0.53534 0.57698 0.07266 0.0
H487 H 0.54157 0.60759 0.0943 0.0
H488 H 0.54988 0.58349 0.16595 0.0
H489 H 0.54337 0.55259 0.14452 0.0
H490 H 0.51756 0.60919 0.13546 0.0
H491 H 0.60386 0.64221 0.16125 0.0
H492 H 0.5903 0.62256 0.13755 0.0
H493 H 0.58585 0.61581 0.17103 0.0
C494 C 0.53836 0.57805 0.09304 0.0
C495 C 0.53878 0.5622 0.10682 0.0
C496 C 0.54204 0.59566 0.10536 0.0
C497 C 0.54642 0.59792 0.13167 0.0
C498 C 0.54694 0.58223 0.14553 0.0
H499 H 0.57007 0.69321 0.23857 0.0
H500 H 0.56491 0.6625 0.21797 0.0
C501 C 0.54322 0.56456 0.13322 0.0
C502 C 0.54972 0.61644 0.14463 0.0
H503 H 0.58679 0.6588 0.17752 0.0
C504 C 0.53271 0.62007 0.1446 0.0
C505 C 0.56947 0.63056 0.15663 0.0
C506 C 0.58852 0.62777 0.15651 0.0
C507 C 0.53481 0.63733 0.1565 0.0
C508 C 0.55464 0.65158 0.16828 0.0
C509 C 0.57162 0.64788 0.16845 0.0
C510 C 0.55809 0.67043 0.18054 0.0
C511 C 0.51561 0.63988 0.15682 0.0
C512 C 0.55631 0.68527 0.16625 0.0
C513 C 0.55928 0.70286 0.17795 0.0
C514 C 0.56431 0.70607 0.20415 0.0
C515 C 0.56645 0.69133 0.2183 0.0
C516 C 0.56342 0.67372 0.20659 0.0
H517 H 0.50022 0.6251 0.1534 0.0
H518 H 0.51438 0.64599 0.17537 0.0
H519 H 0.51751 0.65096 0.1414 0.0
H520 H 0.55273 0.6833 0.14598 0.0
H521 H 0.55784 0.71406 0.16644 0.0
H522 H 0.92667 0.48667 0.55945 0.0
H523 H 0.90373 0.48859 0.59147 0.0
H524 H 0.90698 0.53953 0.5498 0.0
H525 H 0.93067 0.53823 0.51803 0.0
H526 H 0.91344 0.5458 0.60244 0.0
H527 H 0.84013 0.46988 0.58225 0.0
H528 H 0.86375 0.46875 0.58896 0.0
H529 H 0.86303 0.48237 0.56082 0.0
C530 C 0.9227 0.49841 0.55712 0.0
C531 C 0.93055 0.5123 0.53609 0.0
C532 C 0.90936 0.49932 0.57533 0.0
C533 C 0.9034 0.514 0.57279 0.0
C534 C 0.91129 0.52799 0.55199 0.0
H535 H 0.80029 0.51333 0.65444 0.0
H536 H 0.82434 0.51301 0.62248 0.0
C537 C 0.92468 0.52712 0.53375 0.0
C538 C 0.88918 0.51489 0.59207 0.0
H539 H 0.83918 0.48663 0.61948 0.0
C540 C 0.89717 0.53291 0.60613 0.0
C541 C 0.8679 0.49811 0.59662 0.0
C542 C 0.85807 0.47875 0.58122 0.0
C543 C 0.88452 0.5345 0.62494 0.0
C544 C 0.86348 0.51748 0.63003 0.0
C545 C 0.85541 0.49957 0.61571 0.0
C546 C 0.84927 0.51807 0.64961 0.0
C547 C 0.89363 0.55449 0.63885 0.0
C548 C 0.85526 0.52086 0.67552 0.0
C549 C 0.8415 0.52101 0.69388 0.0
C550 C 0.82142 0.51814 0.68665 0.0
C551 C 0.81549 0.51527 0.66068 0.0
C552 C 0.82926 0.51519 0.64238 0.0
H553 H 0.90748 0.56748 0.62836 0.0
H554 H 0.88106 0.55834 0.64167 0.0
H555 H 0.89948 0.55294 0.65797 0.0
H556 H 0.87044 0.52266 0.68158 0.0
H557 H 0.84639 0.52302 0.71377 0.0
H558 H 0.48533 0.93703 0.05845 0.0
H559 H 0.45568 0.90984 0.08412 0.0
H560 H 0.4235 0.94378 0.08202 0.0
H561 H 0.45287 0.97087 0.05605 0.0
H562 H 0.44403 0.91487 0.1319 0.0
H563 H 0.37405 0.88605 0.06619 0.0
H564 H 0.40166 0.90173 0.05519 0.0
H565 H 0.38861 0.91344 0.0699 0.0
C566 C 0.47172 0.93852 0.06293 0.0
C567 C 0.47151 0.95617 0.05508 0.0
C568 C 0.45481 0.92298 0.07773 0.0
C569 C 0.43723 0.92463 0.08486 0.0
C570 C 0.43664 0.94191 0.07638 0.0
H571 H 0.32843 0.85876 0.18931 0.0
H572 H 0.356 0.88287 0.15886 0.0
C573 C 0.45353 0.95746 0.06157 0.0
C574 C 0.42044 0.90916 0.10277 0.0
H575 H 0.36601 0.87564 0.11006 0.0
C576 C 0.42699 0.90615 0.12702 0.0
C577 C 0.39818 0.89787 0.09651 0.0
C578 C 0.39018 0.89976 0.07045 0.0
C579 C 0.41189 0.89255 0.14534 0.0
C580 C 0.38962 0.88134 0.13913 0.0
C581 C 0.38307 0.88426 0.11484 0.0
C582 C 0.37288 0.86657 0.15762 0.0
C583 C 0.41989 0.89074 0.17145 0.0
C584 C 0.37304 0.84925 0.16689 0.0
C585 C 0.35726 0.83539 0.18426 0.0
C586 C 0.34085 0.83846 0.19264 0.0
C587 C 0.34067 0.85578 0.18314 0.0
C588 C 0.35647 0.86963 0.16577 0.0
H589 H 0.4364 0.90404 0.17532 0.0
H590 H 0.40884 0.88967 0.18672 0.0
H591 H 0.42054 0.87655 0.17249 0.0
H592 H 0.38525 0.8463 0.16046 0.0
H593 H 0.35768 0.82204 0.19073 0.0
H594 H 0.52182 0.44674 0.54183 0.0
H595 H 0.51854 0.42241 0.57526 0.0
H596 H 0.46183 0.37371 0.53833 0.0
H597 H 0.46476 0.39809 0.5049 0.0
H598 H 0.48096 0.39944 0.60737 0.0
H599 H 0.50071 0.34945 0.55347 0.0
H600 H 0.50822 0.37491 0.54219 0.0
H601 H 0.48078 0.35384 0.53932 0.0
C602 C 0.50866 0.43086 0.54073 0.0
C603 C 0.49343 0.4244 0.52079 0.0
C604 C 0.50689 0.41697 0.55979 0.0
C605 C 0.48999 0.39631 0.55918 0.0
C606 C 0.47514 0.38958 0.53892 0.0
H607 H 0.44385 0.3081 0.68698 0.0
H608 H 0.4469 0.33092 0.65133 0.0
C609 C 0.47688 0.40351 0.51981 0.0
C610 C 0.48729 0.3822 0.58065 0.0
H611 H 0.48927 0.33963 0.59641 0.0
C612 C 0.48274 0.38633 0.60502 0.0
C613 C 0.48977 0.36525 0.57743 0.0
C614 C 0.4953 0.36058 0.55176 0.0
C615 C 0.48054 0.37388 0.62633 0.0
C616 C 0.4828 0.3568 0.62308 0.0
C617 C 0.48743 0.3527 0.59873 0.0
C618 C 0.48095 0.34329 0.64487 0.0
C619 C 0.47624 0.37928 0.65226 0.0
C620 C 0.49906 0.34267 0.65284 0.0
C621 C 0.49737 0.32968 0.67313 0.0
C622 C 0.47748 0.31695 0.68565 0.0
C623 C 0.45936 0.31768 0.67764 0.0
C624 C 0.4611 0.33076 0.65741 0.0
H625 H 0.4792 0.39511 0.65237 0.0
H626 H 0.4591 0.36831 0.65761 0.0
H627 H 0.48657 0.37802 0.66707 0.0
H628 H 0.51449 0.35219 0.64329 0.0
H629 H 0.51152 0.32921 0.67857 0.0
H630 H 0.51317 0.96499 0.44021 0.0
H631 H 0.51802 0.9397 0.41856 0.0
H632 H 0.58701 0.98234 0.4174 0.0
H633 H 0.58236 0.00755 0.43975 0.0
H634 H 0.53728 0.94242 0.37123 0.0
H635 H 0.58072 0.9304 0.45124 0.0
H636 H 0.56611 0.94328 0.45529 0.0
H637 H 0.59238 0.95669 0.44057 0.0
C638 C 0.5294 0.96897 0.43555 0.0
C639 C 0.54739 0.98827 0.44201 0.0
C640 C 0.53213 0.95453 0.42302 0.0
C641 C 0.55289 0.959 0.41677 0.0
C642 C 0.57086 0.97843 0.42248 0.0
H643 H 0.59703 0.88525 0.34537 0.0
H644 H 0.59492 0.91275 0.36556 0.0
C645 C 0.56815 0.99292 0.43501 0.0
C646 C 0.55561 0.94324 0.40428 0.0
H647 H 0.57716 0.91313 0.41285 0.0
C648 C 0.54599 0.93601 0.38032 0.0
C649 C 0.56703 0.93493 0.41617 0.0
C650 C 0.57702 0.94155 0.44233 0.0
C651 C 0.54758 0.92077 0.36784 0.0
C652 C 0.55874 0.91225 0.37987 0.0
C653 C 0.5686 0.91967 0.40369 0.0
C654 C 0.56002 0.89538 0.36825 0.0
C655 C 0.53753 0.91412 0.3417 0.0
C656 C 0.54113 0.87632 0.36362 0.0
C657 C 0.54228 0.86055 0.35223 0.0
C658 C 0.56237 0.86346 0.34536 0.0
C659 C 0.58131 0.88241 0.35063 0.0
C660 C 0.58014 0.89819 0.36203 0.0
H661 H 0.53486 0.9258 0.33232 0.0
H662 H 0.54786 0.91133 0.32906 0.0
H663 H 0.5216 0.89955 0.34369 0.0
H664 H 0.52546 0.87362 0.36886 0.0
H665 H 0.52741 0.84603 0.34889 0.0
H666 H 0.53231 0.52455 0.95737 0.0
H667 H 0.5548 0.53246 0.91907 0.0
H668 H 0.61061 0.551 0.96681 0.0
H669 H 0.58852 0.54351 0.00492 0.0
H670 H 0.61942 0.57623 0.92247 0.0
H671 H 0.57438 0.49254 0.90089 0.0
H672 H 0.55879 0.50448 0.90311 0.0
H673 H 0.57173 0.50189 0.93113 0.0
C674 C 0.54946 0.53071 0.95965 0.0
C675 C 0.5586 0.53315 0.98416 0.0
C676 C 0.56224 0.5351 0.93778 0.0
C677 C 0.58426 0.54196 0.94018 0.0
C678 C 0.59363 0.54564 0.96456 0.0
H679 H 0.69395 0.55323 0.87175 0.0
H680 H 0.66762 0.55657 0.89624 0.0
C681 C 0.58093 0.54126 0.98634 0.0
C682 C 0.59742 0.54366 0.91779 0.0
H683 H 0.6053 0.51424 0.87655 0.0
C684 C 0.61617 0.56276 0.91209 0.0
C685 C 0.59311 0.52604 0.90432 0.0
C686 C 0.57351 0.50502 0.91017 0.0
C687 C 0.63117 0.56454 0.89395 0.0
C688 C 0.62743 0.54672 0.88153 0.0
C689 C 0.60811 0.52786 0.88617 0.0
C690 C 0.64415 0.54676 0.86562 0.0
C691 C 0.65109 0.58541 0.88863 0.0
C692 C 0.6396 0.5399 0.84036 0.0
C693 C 0.65462 0.53794 0.82631 0.0
C694 C 0.67441 0.54262 0.83736 0.0
C695 C 0.67904 0.54982 0.86253 0.0
C696 C 0.66403 0.5518 0.87654 0.0
H697 H 0.64828 0.59799 0.89292 0.0
H698 H 0.66447 0.5873 0.90106 0.0
H699 H 0.6563 0.58706 0.86837 0.0
H700 H 0.62428 0.5358 0.83166 0.0
H701 H 0.65069 0.53261 0.80685 0.0
H702 H 0.04164 0.57955 0.49907 0.0
H703 H 0.07187 0.60622 0.47362 0.0
H704 H 0.08069 0.56007 0.44021 0.0
H705 H 0.05085 0.53336 0.46612 0.0
H706 H 0.11926 0.595 0.44966 0.0
H707 H 0.06531 0.61476 0.39822 0.0
H708 H 0.06527 0.61744 0.43222 0.0
H709 H 0.0551 0.59241 0.41908 0.0
C710 C 0.0502 0.57508 0.48661 0.0
C711 C 0.04364 0.55425 0.48451 0.0
C712 C 0.06738 0.59035 0.47187 0.0
C713 C 0.07818 0.58512 0.45441 0.0
C714 C 0.07249 0.56449 0.45334 0.0
H715 H 0.152 0.66094 0.32258 0.0
H716 H 0.12509 0.63419 0.35149 0.0
C717 C 0.05542 0.54922 0.46825 0.0
C718 C 0.09485 0.60097 0.43666 0.0
H719 H 0.10291 0.6366 0.39019 0.0
C720 C 0.11568 0.60408 0.43664 0.0
C721 C 0.0901 0.61255 0.41923 0.0
C722 C 0.06768 0.60901 0.41693 0.0
C723 C 0.13194 0.61867 0.42005 0.0
C724 C 0.12742 0.63083 0.40337 0.0
C725 C 0.10649 0.62747 0.40312 0.0
C726 C 0.14404 0.64699 0.38583 0.0
C727 C 0.15365 0.62052 0.42017 0.0
C728 C 0.16357 0.6633 0.39545 0.0
C729 C 0.17901 0.67856 0.37894 0.0
C730 C 0.17515 0.67804 0.35243 0.0
C731 C 0.15543 0.66188 0.34288 0.0
C732 C 0.14007 0.64654 0.3594 0.0
H733 H 0.15247 0.60631 0.42798 0.0
H734 H 0.16062 0.62364 0.4006 0.0
H735 H 0.16495 0.63346 0.43249 0.0
H736 H 0.16679 0.66439 0.41581 0.0
H737 H 0.19383 0.69099 0.387 0.0
H738 H 0.47188 0.04401 0.99046 0.0
H739 H 0.4639 0.06255 0.9578 0.0
H740 H 0.51323 0.12038 0.98909 0.0
H741 H 0.52143 0.102 0.02167 0.0
H742 H 0.47403 0.11844 0.97503 0.0
H743 H 0.50634 0.09323 0.89762 0.0
H744 H 0.48555 0.07295 0.91723 0.0
H745 H 0.5113 0.09092 0.93108 0.0
C746 C 0.48099 0.06067 0.99043 0.0
C747 C 0.49748 0.07153 0.00847 0.0
C748 C 0.47639 0.07122 0.9718 0.0
C749 C 0.48825 0.0928 0.97082 0.0
C750 C 0.50395 0.1037 0.98953 0.0
H751 H 0.51401 0.17987 0.84926 0.0
H752 H 0.51441 0.15697 0.88245 0.0
C753 C 0.50855 0.09316 0.00821 0.0
C754 C 0.48506 0.10409 0.94962 0.0
H755 H 0.49188 0.11345 0.88518 0.0
C756 C 0.47779 0.11729 0.95535 0.0
C757 C 0.49024 0.10266 0.92406 0.0
C758 C 0.49897 0.08933 0.91702 0.0
C759 C 0.47565 0.12924 0.93613 0.0
C760 C 0.48071 0.12771 0.91054 0.0
C761 C 0.48785 0.11441 0.90481 0.0
C762 C 0.47999 0.14075 0.88969 0.0
C763 C 0.46869 0.14389 0.94344 0.0
C764 C 0.46041 0.13886 0.88243 0.0
C765 C 0.46014 0.15198 0.86353 0.0
C766 C 0.47946 0.16716 0.85159 0.0
C767 C 0.49892 0.16853 0.85838 0.0
C768 C 0.49916 0.1554 0.87722 0.0
H769 H 0.46968 0.14626 0.96442 0.0
H770 H 0.47884 0.15907 0.9336 0.0
H771 H 0.45168 0.13751 0.93744 0.0
H772 H 0.44539 0.12741 0.89159 0.0
H773 H 0.44491 0.15064 0.85882 0.0
H774 H 0.46108 0.51525 0.4599 0.0
H775 H 0.43311 0.51586 0.43417 0.0
H776 H 0.38957 0.45101 0.44983 0.0
H777 H 0.4172 0.45035 0.47602 0.0
H778 H 0.41525 0.49495 0.39084 0.0
H779 H 0.35036 0.47239 0.46211 0.0
H780 H 0.37765 0.48037 0.47123 0.0
H781 H 0.35914 0.45444 0.46115 0.0
C782 C 0.4454 0.5012 0.45833 0.0
C783 C 0.4414 0.48276 0.47014 0.0
C784 C 0.42944 0.50156 0.4435 0.0
C785 C 0.4091 0.48353 0.44023 0.0
C786 C 0.40491 0.46523 0.4525 0.0
H787 H 0.29823 0.44597 0.34138 0.0
H788 H 0.32548 0.44791 0.37115 0.0
C789 C 0.42081 0.46487 0.46742 0.0
C790 C 0.3929 0.48351 0.42249 0.0
H791 H 0.34029 0.47067 0.4181 0.0
C792 C 0.39893 0.48984 0.39689 0.0
C793 C 0.37155 0.47678 0.43031 0.0
C794 C 0.36433 0.4708 0.45775 0.0
C795 C 0.38411 0.48915 0.37882 0.0
C796 C 0.36271 0.48213 0.38657 0.0
C797 C 0.35668 0.47595 0.41217 0.0
C798 C 0.34632 0.48105 0.36833 0.0
C799 C 0.3913 0.49542 0.35141 0.0
C800 C 0.34892 0.49905 0.35696 0.0
C801 C 0.3334 0.498 0.3399 0.0
C802 C 0.31493 0.4789 0.33385 0.0
C803 C 0.31238 0.4609 0.34532 0.0
C804 C 0.32786 0.46198 0.36249 0.0
H805 H 0.4066 0.49603 0.3474 0.0
H806 H 0.37866 0.48457 0.33801 0.0
H807 H 0.39407 0.51097 0.34751 0.0
H808 H 0.3629 0.51396 0.36141 0.0
H809 H 0.33595 0.51215 0.3313 0.0
H810 H 0.00657 0.47315 0.87265 0.0
H811 H 0.98083 0.44098 0.85129 0.0
H812 H 0.95506 0.41155 0.92464 0.0
H813 H 0.98078 0.44338 0.94604 0.0
H814 H 0.9715 0.39795 0.85944 0.0
H815 H 0.90327 0.40791 0.88314 0.0
H816 H 0.93116 0.42888 0.88386 0.0
H817 H 0.92034 0.41012 0.90958 0.0
C818 C 0.99567 0.45973 0.8842 0.0
C819 C 0.99545 0.46089 0.91101 0.0
C820 C 0.98097 0.44141 0.872 0.0
C821 C 0.96588 0.42409 0.88644 0.0
C822 C 0.96636 0.42491 0.91319 0.0
H823 H 0.85268 0.30496 0.85801 0.0
H824 H 0.88301 0.33609 0.87649 0.0
C825 C 0.98099 0.44313 0.92536 0.0
C826 C 0.94885 0.40539 0.87373 0.0
H827 H 0.8942 0.37608 0.8656 0.0
C828 C 0.9546 0.39317 0.86058 0.0
C829 C 0.92688 0.3993 0.87536 0.0
C830 C 0.91996 0.41228 0.88855 0.0
C831 C 0.93876 0.37459 0.84959 0.0
C832 C 0.91674 0.3684 0.85146 0.0
C833 C 0.91109 0.38081 0.86433 0.0
C834 C 0.89916 0.3491 0.84027 0.0
C835 C 0.94566 0.36149 0.83672 0.0
C836 C 0.89817 0.34618 0.81379 0.0
C837 C 0.88086 0.32845 0.80319 0.0
C838 C 0.86414 0.31341 0.81888 0.0
C839 C 0.86522 0.31636 0.84542 0.0
C840 C 0.88257 0.33406 0.856 0.0
H841 H 0.96217 0.36563 0.84266 0.0
H842 H 0.93422 0.34489 0.84114 0.0
H843 H 0.94582 0.36387 0.81568 0.0
H844 H 0.91051 0.35783 0.80124 0.0
H845 H 0.88028 0.32677 0.78262 0.0
H846 H 0.98298 0.54805 0.9211 0.0
H847 H 0.95 0.5458 0.90647 0.0
H848 H 0.91327 0.49838 0.96338 0.0
H849 H 0.94663 0.50043 0.97822 0.0
H850 H 0.89526 0.48873 0.91366 0.0
H851 H 0.91449 0.56628 0.93989 0.0
H852 H 0.93601 0.56722 0.92224 0.0
H853 H 0.92873 0.55472 0.9533 0.0
C854 C 0.96798 0.53724 0.93079 0.0
C855 C 0.96749 0.52442 0.9509 0.0
C856 C 0.9491 0.53609 0.92245 0.0
C857 C 0.92919 0.52216 0.93404 0.0
C858 C 0.92852 0.50938 0.9543 0.0
H859 H 0.81775 0.52926 0.88232 0.0
H860 H 0.84423 0.52749 0.9098 0.0
C861 C 0.94757 0.51061 0.96282 0.0
C862 C 0.90917 0.52045 0.92367 0.0
H863 H 0.8878 0.54959 0.90684 0.0
C864 C 0.89341 0.50192 0.91255 0.0
C865 C 0.90659 0.53756 0.92247 0.0
C866 C 0.92225 0.5575 0.93535 0.0
C867 C 0.8758 0.50042 0.89905 0.0
C868 C 0.87411 0.51801 0.89624 0.0
C869 C 0.88921 0.53617 0.90862 0.0
C870 C 0.85736 0.51821 0.87975 0.0
C871 C 0.85927 0.48003 0.88779 0.0
C872 C 0.85605 0.51384 0.8536 0.0
C873 C 0.84097 0.5149 0.83782 0.0
C874 C 0.82698 0.52057 0.84775 0.0
C875 C 0.8284 0.52505 0.87395 0.0
C876 C 0.84346 0.52392 0.88974 0.0
H877 H 0.85885 0.467 0.89828 0.0
H878 H 0.84284 0.47763 0.88814 0.0
H879 H 0.86364 0.47971 0.8676 0.0
H880 H 0.867 0.50999 0.84524 0.0
H881 H 0.84062 0.51172 0.81768 0.0
H882 H 0.4613 0.94992 0.50099 0.0
H883 H 0.43318 0.91846 0.4804 0.0
H884 H 0.41681 0.95455 0.43158 0.0
H885 H 0.44469 0.98597 0.45201 0.0
H886 H 0.38031 0.91632 0.45203 0.0
H887 H 0.44314 0.90718 0.40529 0.0
H888 H 0.44458 0.90948 0.43953 0.0
H889 H 0.44937 0.93096 0.41965 0.0
C890 C 0.45143 0.95111 0.4862 0.0
C891 C 0.45533 0.97044 0.47795 0.0
C892 C 0.43549 0.93315 0.47438 0.0
C893 C 0.42319 0.93429 0.45426 0.0
C894 C 0.42622 0.95341 0.44702 0.0
H895 H 0.35597 0.86011 0.32579 0.0
H896 H 0.38008 0.88634 0.35614 0.0
C897 C 0.44219 0.97134 0.45869 0.0
C898 C 0.40813 0.91588 0.43948 0.0
H899 H 0.40685 0.88311 0.39521 0.0
C900 C 0.38601 0.90886 0.43982 0.0
C901 C 0.41578 0.90646 0.42335 0.0
C902 C 0.43952 0.91391 0.42166 0.0
C903 C 0.37132 0.89276 0.42415 0.0
C904 C 0.379 0.88343 0.4079 0.0
C905 C 0.40106 0.89027 0.40783 0.0
C906 C 0.36456 0.86731 0.38981 0.0
C907 C 0.34783 0.88632 0.42436 0.0
C908 C 0.34807 0.84788 0.39875 0.0
C909 C 0.33427 0.83289 0.38147 0.0
C910 C 0.33675 0.8371 0.35496 0.0
C911 C 0.3535 0.85651 0.34609 0.0
C912 C 0.36734 0.87144 0.36338 0.0
H913 H 0.34524 0.89746 0.43453 0.0
H914 H 0.34161 0.88478 0.40452 0.0
H915 H 0.33818 0.87108 0.43419 0.0
H916 H 0.34584 0.84435 0.41909 0.0
H917 H 0.3214 0.81814 0.38889 0.0
H918 H 0.51948 0.45835 0.9719 0.0
H919 H 0.51539 0.43366 0.9401 0.0
H920 H 0.4766 0.3836 0.99311 0.0
H921 H 0.48034 0.40818 0.02501 0.0
H922 H 0.50896 0.38044 0.96809 0.0
H923 H 0.46013 0.39559 0.89904 0.0
H924 H 0.48497 0.41817 0.90858 0.0
H925 H 0.464 0.40372 0.93185 0.0
C926 C 0.50987 0.44211 0.97679 0.0
C927 C 0.50008 0.43532 1.00105 0.0
C928 C 0.50756 0.42799 0.95853 0.0
C929 C 0.49539 0.40677 0.96407 0.0
C930 C 0.48599 0.39992 0.9884 0.0
H931 H 0.45038 0.30655 0.85676 0.0
H932 H 0.453 0.33092 0.88835 0.0
C933 C 0.48825 0.41403 0.00668 0.0
C934 C 0.49277 0.39177 0.94461 0.0
H935 H 0.473 0.37462 0.88475 0.0
C936 C 0.50104 0.37911 0.9499 0.0
C937 C 0.48219 0.38989 0.92102 0.0
C938 C 0.47212 0.40241 0.91478 0.0
C939 C 0.49944 0.36494 0.93199 0.0
C940 C 0.48951 0.36355 0.90806 0.0
C941 C 0.4808 0.37587 0.903 0.0
C942 C 0.48796 0.34932 0.88811 0.0
C943 C 0.50819 0.3514 0.93894 0.0
C944 C 0.50672 0.35188 0.87704 0.0
C945 C 0.50529 0.33809 0.85883 0.0
C946 C 0.48503 0.32145 0.85125 0.0
C947 C 0.46623 0.31927 0.86192 0.0
C948 C 0.46769 0.33312 0.8801 0.0
H949 H 0.51049 0.3508 0.95992 0.0
H950 H 0.49719 0.33548 0.93221 0.0
H951 H 0.52412 0.35766 0.92953 0.0
H952 H 0.52251 0.36454 0.88253 0.0
H953 H 0.52009 0.34049 0.85066 0.0
H954 H 0.98914 0.44063 0.41168 0.0
H955 H 0.01694 0.43953 0.38697 0.0
H956 H 0.05276 0.50575 0.37898 0.0
H957 H 0.02513 0.50692 0.40386 0.0
H958 H 0.03637 0.45457 0.33816 0.0
H959 H 0.09449 0.49362 0.41744 0.0
H960 H 0.06584 0.48302 0.42085 0.0
H961 H 0.08262 0.50751 0.40486 0.0
C962 C 1.00266 0.45489 0.40409 0.0
C963 C 0.00515 0.47389 0.40991 0.0
C964 C 0.01857 0.45425 0.39011 0.0
C965 C 0.03711 0.4726 0.38173 0.0
C966 C 0.0388 0.49146 0.38584 0.0
H967 H 0.1582 0.50337 0.31227 0.0
H968 H 0.12743 0.50354 0.33033 0.0
C969 C 0.02301 0.49211 0.39993 0.0
C970 C 0.05535 0.47215 0.37029 0.0
H971 H 0.10845 0.48828 0.37974 0.0
C972 C 0.05212 0.46188 0.34723 0.0
C973 C 0.07583 0.48159 0.38235 0.0
C974 C 0.07993 0.4919 0.40786 0.0
C975 C 0.06903 0.46121 0.33557 0.0
C976 C 0.08953 0.47084 0.34753 0.0
C977 C 0.09271 0.48101 0.37061 0.0
C978 C 0.10796 0.47054 0.33646 0.0
C979 C 0.065 0.45056 0.31036 0.0
C980 C 0.10728 0.45194 0.33442 0.0
C981 C 0.12492 0.4518 0.32437 0.0
C982 C 0.14355 0.47028 0.31626 0.0
C983 C 0.14422 0.48891 0.31865 0.0
C984 C 0.12661 0.48903 0.32875 0.0
H985 H 0.05003 0.44803 0.30098 0.0
H986 H 0.07884 0.45968 0.2971 0.0
H987 H 0.06319 0.43533 0.3137 0.0
H988 H 0.09319 0.43757 0.34081 0.0
H989 H 0.12403 0.43724 0.32316 0.0
H990 H 0.57437 0.03637 0.98846 0.0
H991 H 0.60323 0.05811 0.95802 0.0
H992 H 0.55607 0.0542 0.90399 0.0
H993 H 0.52702 0.03251 0.93439 0.0
H994 H 0.61129 0.05275 0.90607 0.0
H995 H 0.59665 0.11672 0.91629 0.0
H996 H 0.58546 0.09488 0.93819 0.0
H997 H 0.57355 0.09245 0.90719 0.0
C998 C 0.57005 0.03987 0.96998 0.0
C999 C 0.54834 0.0328 0.96399 0.0
C1000 C 0.58661 0.05231 0.95259 0.0
C1001 C 0.58185 0.05807 0.92892 0.0
C1002 C 0.56014 0.05021 0.92232 0.0
H1003 H 0.67435 0.12678 0.80516 0.0
H1004 H 0.64404 0.10023 0.83074 0.0
C1005 C 0.54353 0.03769 0.93968 0.0
C1006 C 0.5997 0.07311 0.91184 0.0
H1007 H 0.62379 0.12215 0.88717 0.0
C1008 C 0.61398 0.06789 0.9018 0.0
C1009 C 0.60336 0.09297 0.90662 0.0
C1010 C 0.5891 0.09975 0.91776 0.0
C1011 C 0.63177 0.08197 0.88658 0.0
C1012 C 0.63527 0.10174 0.88113 0.0
C1013 C 0.62101 0.10696 0.89123 0.0
C1014 C 0.654 0.11751 0.86567 0.0
C1015 C 0.64699 0.07579 0.87699 0.0
C1016 C 0.66955 0.13617 0.87669 0.0
C1017 C 0.68695 0.15135 0.86216 0.0
C1018 C 0.68911 0.1483 0.83617 0.0
C1019 C 0.67346 0.12954 0.8252 0.0
C1020 C 0.65608 0.11434 0.83979 0.0
H1021 H 0.64482 0.06197 0.8874 0.0
H1022 H 0.64385 0.07214 0.85639 0.0
H1023 H 0.66408 0.08858 0.879 0.0
H1024 H 0.66827 0.13896 0.89662 0.0
H1025 H 0.6988 0.16545 0.87137 0.0
H1026 H 0.57922 0.56819 0.42223 0.0
H1027 H 0.58763 0.60089 0.402 0.0
H1028 H 0.52008 0.57468 0.38465 0.0
H1029 H 0.5116 0.54209 0.40499 0.0
H1030 H 0.5801 0.61258 0.35319 0.0
H1031 H 0.53519 0.62388 0.42949 0.0
H1032 H 0.54233 0.60458 0.43193 0.0
H1033 H 0.51924 0.59991 0.41339 0.0
C1034 C 0.56626 0.5693 0.41363 0.0
C1035 C 0.54472 0.55272 0.41545 0.0
C1036 C 0.57106 0.58799 0.4022 0.0
C1037 C 0.5544 0.59029 0.39241 0.0
C1038 C 0.53309 0.57334 0.39269 0.0
H1039 H 0.55701 0.68498 0.29753 0.0
H1040 H 0.55597 0.65452 0.31478 0.0
C1041 C 0.52828 0.55475 0.40424 0.0
C1042 C 0.55899 0.61064 0.38313 0.0
H1043 H 0.54563 0.64654 0.39323 0.0
C1044 C 0.57271 0.62012 0.362 0.0
C1045 C 0.5497 0.62062 0.39507 0.0
C1046 C 0.53597 0.61185 0.41889 0.0
C1047 C 0.57676 0.63902 0.35186 0.0
C1048 C 0.56647 0.6484 0.36294 0.0
C1049 C 0.55335 0.63924 0.38461 0.0
C1050 C 0.56842 0.66737 0.35201 0.0
C1051 C 0.5921 0.64879 0.32953 0.0
C1052 C 0.5753 0.68456 0.36739 0.0
C1053 C 0.57544 0.70185 0.35777 0.0
C1054 C 0.56862 0.70223 0.3326 0.0
C1055 C 0.56205 0.68508 0.31713 0.0
C1056 C 0.5618 0.66778 0.32681 0.0
H1057 H 0.60361 0.64342 0.32872 0.0
H1058 H 0.58269 0.64437 0.31146 0.0
H1059 H 0.60145 0.66584 0.33057 0.0
H1060 H 0.58029 0.68448 0.38698 0.0
H1061 H 0.58037 0.7147 0.37027 0.0
H1062 H 0.49562 0.08941 0.51556 0.0
H1063 H 0.49029 0.11025 0.546 0.0
H1064 H 0.50726 0.08337 0.60824 0.0
H1065 H 0.51328 0.06306 0.57802 0.0
H1066 H 0.46168 0.09709 0.58764 0.0
H1067 H 0.54679 0.14505 0.61996 0.0
H1068 H 0.53925 0.12981 0.59151 0.0
H1069 H 0.53596 0.11785 0.62256 0.0
C1070 C 0.49848 0.08811 0.53568 0.0
C1071 C 0.50493 0.07455 0.54426 0.0
C1072 C 0.49529 0.09994 0.55307 0.0
C1073 C 0.49867 0.09858 0.57935 0.0
C1074 C 0.50492 0.08495 0.58801 0.0
H1075 H 0.4874 0.15409 0.71663 0.0
H1076 H 0.49198 0.1333 0.68539 0.0
C1077 C 0.5081 0.07313 0.57067 0.0
C1078 C 0.49523 0.11107 0.59784 0.0
H1079 H 0.5205 0.14726 0.64384 0.0
C1080 C 0.47456 0.10816 0.59982 0.0
C1081 C 0.51205 0.12546 0.61376 0.0
C1082 C 0.53481 0.12992 0.61175 0.0
C1083 C 0.47014 0.11894 0.61769 0.0
C1084 C 0.48694 0.13325 0.63371 0.0
C1085 C 0.50762 0.13622 0.63163 0.0
C1086 C 0.48348 0.14545 0.65264 0.0
C1087 C 0.4474 0.11454 0.61971 0.0
C1088 C 0.47733 0.1593 0.64459 0.0
C1089 C 0.47478 0.17126 0.66238 0.0
C1090 C 0.47847 0.16972 0.68861 0.0
C1091 C 0.48463 0.15581 0.69659 0.0
C1092 C 0.48717 0.14385 0.67877 0.0
H1093 H 0.43543 0.09959 0.61108 0.0
H1094 H 0.44287 0.1143 0.63998 0.0
H1095 H 0.4464 0.12684 0.60932 0.0
H1096 H 0.4749 0.16115 0.62447 0.0
H1097 H 0.47045 0.18209 0.65548 0.0
H1098 H 0.45719 0.51589 0.04985 0.0
H1099 H 0.42661 0.51314 0.0727 0.0
H1100 H 0.39124 0.44717 0.06556 0.0
H1101 H 0.42176 0.44967 0.04279 0.0
H1102 H 0.38027 0.49347 0.06114 0.0
H1103 H 0.39839 0.45805 0.1442 0.0
H1104 H 0.4174 0.47148 0.11845 0.0
H1105 H 0.39468 0.44586 0.11397 0.0
C1106 C 0.44276 0.50081 0.05269 0.0
C1107 C 0.44204 0.48296 0.04479 0.0
C1108 C 0.42531 0.49929 0.06575 0.0
C1109 C 0.4069 0.47994 0.07119 0.0
C1110 C 0.4055 0.46222 0.06185 0.0
H1111 H 0.29857 0.44133 0.17393 0.0
H1112 H 0.3245 0.44281 0.14326 0.0
C1113 C 0.42292 0.4637 0.04874 0.0
C1114 C 0.38995 0.47824 0.08831 0.0
H1115 H 0.36832 0.46164 0.14802 0.0
C1116 C 0.37757 0.48648 0.08012 0.0
C1117 C 0.38661 0.46917 0.11306 0.0
C1118 C 0.40004 0.46076 0.12314 0.0
C1119 C 0.36166 0.48565 0.09599 0.0
C1120 C 0.35847 0.47676 0.12086 0.0
C1121 C 0.3708 0.46842 0.12894 0.0
C1122 C 0.34252 0.47601 0.13897 0.0
C1123 C 0.34819 0.49398 0.08582 0.0
C1124 C 0.34426 0.49421 0.14703 0.0
C1125 C 0.32937 0.49342 0.16441 0.0
C1126 C 0.31254 0.47439 0.17424 0.0
C1127 C 0.31111 0.45621 0.16644 0.0
C1128 C 0.32597 0.45703 0.14901 0.0
H1129 H 0.34839 0.49484 0.06457 0.0
H1130 H 0.33116 0.48429 0.09241 0.0
H1131 H 0.35489 0.50978 0.09295 0.0
H1132 H 0.35722 0.50906 0.13998 0.0
H1133 H 0.33084 0.5077 0.16984 0.0
H1134 H 0.95846 0.43633 0.53201 0.0
H1135 H 0.93599 0.40624 0.55948 0.0
H1136 H 0.95792 0.44463 0.62577 0.0
H1137 H 0.98019 0.47499 0.59833 0.0
H1138 H 0.94477 0.3882 0.60009 0.0
H1139 H 0.8926 0.41678 0.63115 0.0
H1140 H 0.91159 0.42865 0.60507 0.0
H1141 H 0.92085 0.43387 0.63763 0.0
C1142 C 0.95869 0.43842 0.55246 0.0
C1143 C 0.97103 0.45817 0.56291 0.0
C1144 C 0.94579 0.42115 0.56815 0.0
C1145 C 0.94488 0.42319 0.59464 0.0
C1146 C 0.95794 0.44273 0.60531 0.0
H1147 H 0.86629 0.33473 0.71509 0.0
H1148 H 0.89332 0.36509 0.69077 0.0
C1149 C 0.97082 0.46006 0.58961 0.0
C1150 C 0.92984 0.40492 0.61082 0.0
H1151 H 0.88585 0.38558 0.65023 0.0
C1152 C 0.9319 0.38763 0.61106 0.0
C1153 C 0.91296 0.40413 0.62507 0.0
C1154 C 0.90916 0.42175 0.62461 0.0
C1155 C 0.9177 0.36969 0.62532 0.0
C1156 C 0.90078 0.36889 0.63946 0.0
C1157 C 0.89884 0.38623 0.63942 0.0
C1158 C 0.88473 0.35015 0.65418 0.0
C1159 C 0.92107 0.35183 0.62541 0.0
C1160 C 0.87077 0.33165 0.64169 0.0
C1161 C 0.85512 0.31427 0.65552 0.0
C1162 C 0.85303 0.31504 0.68215 0.0
C1163 C 0.86716 0.33362 0.69458 0.0
C1164 C 0.88274 0.35098 0.68073 0.0
H1165 H 0.93767 0.35667 0.61913 0.0
H1166 H 0.91821 0.34455 0.64478 0.0
H1167 H 0.90943 0.34005 0.61202 0.0
H1168 H 0.87169 0.33076 0.62114 0.0
H1169 H 0.84434 0.30037 0.64524 0.0
H1170 H 0.52173 0.96839 0.10314 0.0
H1171 H 0.52661 0.94505 0.13051 0.0
H1172 H 0.58452 0.99642 0.16191 0.0
H1173 H 0.57957 0.0202 0.13479 0.0
H1174 H 0.58972 0.96513 0.14236 0.0
H1175 H 0.51942 0.93279 0.20805 0.0
H1176 H 0.51234 0.93224 0.17493 0.0
H1177 H 0.52916 0.95657 0.19008 0.0
C1178 C 0.53519 0.97494 0.11631 0.0
C1179 C 0.55028 0.99631 0.11667 0.0
C1180 C 0.53796 0.96148 0.13198 0.0
C1181 C 0.55579 0.96904 0.14839 0.0
C1182 C 0.57059 0.99033 0.14939 0.0
H1183 H 0.57428 0.88751 0.25091 0.0
H1184 H 0.57198 0.9164 0.23374 0.0
C1185 C 0.56779 0.00386 0.13379 0.0
C1186 C 0.5599 0.95448 0.1626 0.0
H1187 H 0.53693 0.91369 0.20478 0.0
C1188 C 0.57836 0.95406 0.15629 0.0
C1189 C 0.54508 0.94017 0.18083 0.0
C1190 C 0.52549 0.94054 0.18909 0.0
C1191 C 0.58194 0.93911 0.16697 0.0
C1192 C 0.56654 0.92414 0.18417 0.0
C1193 C 0.54856 0.92509 0.19134 0.0
C1194 C 0.5685 0.90701 0.19439 0.0
C1195 C 0.60204 0.93931 0.15959 0.0
C1196 C 0.56712 0.89213 0.1779 0.0
C1197 C 0.56845 0.87564 0.18761 0.0
C1198 C 0.57119 0.8738 0.21398 0.0
C1199 C 0.57251 0.88872 0.23045 0.0
C1200 C 0.57108 0.90514 0.22073 0.0
H1201 H 0.61465 0.95452 0.1515 0.0
H1202 H 0.60888 0.93546 0.17636 0.0
H1203 H 0.59785 0.92757 0.14484 0.0
H1204 H 0.5648 0.89318 0.15754 0.0
H1205 H 0.56745 0.86441 0.17449 0.0
H1206 H 0.50621 0.48748 0.59091 0.0
H1207 H 0.53338 0.49341 0.6233 0.0
H1208 H 0.58393 0.53646 0.57204 0.0
H1209 H 0.55698 0.53091 0.5398 0.0
H1210 H 0.56474 0.48455 0.61749 0.0
H1211 H 0.60286 0.56722 0.63869 0.0
H1212 H 0.57723 0.55281 0.62238 0.0
H1213 H 0.60216 0.5627 0.60506 0.0
C1214 C 0.52307 0.49859 0.58674 0.0
C1215 C 0.52937 0.50871 0.5627 0.0
C1216 C 0.5386 0.5019 0.60526 0.0
C1217 C 0.56072 0.51552 0.60024 0.0
C1218 C 0.56698 0.52621 0.57662 0.0
H1219 H 0.66965 0.51174 0.65979 0.0
H1220 H 0.63985 0.50946 0.63488 0.0
C1221 C 0.55149 0.52291 0.55811 0.0
C1222 C 0.57733 0.51712 0.61856 0.0
H1223 H 0.62279 0.55146 0.65125 0.0
C1224 C 0.57729 0.49916 0.62509 0.0
C1225 C 0.59361 0.53613 0.6287 0.0
C1226 C 0.59389 0.55578 0.62357 0.0
C1227 C 0.59345 0.49979 0.64073 0.0
C1228 C 0.61036 0.51895 0.64978 0.0
C1229 C 0.60999 0.53681 0.64403 0.0
C1230 C 0.62872 0.52074 0.66487 0.0
C1231 C 0.59223 0.47988 0.64747 0.0
C1232 C 0.63279 0.52839 0.68978 0.0
C1233 C 0.64986 0.52972 0.70412 0.0
C1234 C 0.66329 0.52351 0.69376 0.0
C1235 C 0.65939 0.51625 0.66858 0.0
C1236 C 0.64235 0.51494 0.65429 0.0
H1237 H 0.57556 0.46637 0.64524 0.0
H1238 H 0.60299 0.47799 0.63447 0.0
H1239 H 0.59761 0.47993 0.66745 0.0
H1240 H 0.62254 0.53303 0.6983 0.0
H1241 H 0.65225 0.53522 0.7235 0.0
H1242 H 0.0741 0.56366 0.04745 0.0
H1243 H 0.09487 0.58665 0.08209 0.0
H1244 H 0.10597 0.63887 0.03589 0.0
H1245 H 0.08497 0.6158 1.00096 0.0
H1246 H 0.14307 0.64464 0.06103 0.0
H1247 H 0.0741 0.61556 0.12824 0.0
H1248 H 0.0773 0.59561 0.1158 0.0
H1249 H 0.07051 0.6102 0.09448 0.0
C1250 C 0.08073 0.58 0.0447 0.0
C1251 C 0.07761 0.58789 0.02157 0.0
C1252 C 0.09261 0.59312 0.06453 0.0
C1253 C 0.10152 0.61438 0.06174 0.0
C1254 C 0.09903 0.62245 0.03846 0.0
H1255 H 0.15447 0.69969 0.18816 0.0
H1256 H 0.13283 0.67902 0.15205 0.0
C1257 C 0.08714 0.60929 0.01851 0.0
C1258 C 0.11372 0.62812 0.08312 0.0
H1259 H 0.10935 0.63662 0.14596 0.0
C1260 C 0.13569 0.64303 0.07955 0.0
C1261 C 0.10394 0.62613 0.10714 0.0
C1262 C 0.08011 0.61115 0.11164 0.0
C1263 C 0.14835 0.65559 0.09966 0.0
C1264 C 0.13882 0.65289 0.12403 0.0
C1265 C 0.11668 0.63845 0.12735 0.0
C1266 C 0.15156 0.6649 0.14633 0.0
C1267 C 0.17179 0.67171 0.09461 0.0
C1268 C 0.1689 0.66339 0.15545 0.0
C1269 C 0.18134 0.67523 0.17598 0.0
C1270 C 0.17658 0.68872 0.18787 0.0
C1271 C 0.15873 0.68967 0.17919 0.0
C1272 C 0.14631 0.67782 0.15864 0.0
H1273 H 0.175 0.67555 0.07386 0.0
H1274 H 0.17673 0.68604 0.10501 0.0
H1275 H 0.18204 0.66575 0.10136 0.0
H1276 H 0.17293 0.65318 0.14653 0.0
H1277 H 0.19506 0.67426 0.18204 0.0
loop_
_geom_bond_atom_site_label_1
_geom_bond_atom_site_label_2
_geom_bond_distance
_geom_bond_site_symmetry_2
_ccdc_geom_bond_type
Cu0 N1 1.999 1_454 S
Cu0 O6 1.974 1_454 S
Cu0 N11 1.985 . S
Cu0 O20 1.959 . S
N1 Cu0 1.999 1_656 S
N1 C3 1.263 . S
N1 C5 1.389 1_556 S
N2 C3 1.358 . S
N2 C4 1.400 . S
C3 N1 1.263 . S
C3 N2 1.358 . S
C3 H9 0.930 . S
C4 N2 1.400 . S
C4 C5 1.351 1_556 S
C4 H21 0.930 . S
C5 N1 1.389 1_554 S
C5 C4 1.351 1_554 S
C5 H10 0.930 . S
O6 Cu0 1.974 1_656 S
O6 C16 1.282 . S
C7 O8 1.261 1_554 S
C7 O20 1.251 . S
O8 C7 1.261 1_556 S
H9 C3 0.930 . S
H10 C5 0.930 . S
N11 Cu0 1.985 . S
N11 C13 1.335 . S
N11 C14 1.390 . S
N12 C13 1.345 . S
N12 C15 1.336 . S
C13 N11 1.335 . S
C13 N12 1.345 . S
C13 H18 0.930 . S
C14 N11 1.390 . S
C14 C15 1.346 . S
C14 H19 0.930 1_554 S
C15 N12 1.336 . S
C15 C14 1.346 . S
C15 H22 0.929 . S
C16 O6 1.282 . S
C16 O17 1.216 1_655 S
O17 C16 1.216 1_455 S
H18 C13 0.930 . S
H19 C14 0.930 1_556 S
O20 Cu0 1.959 . S
O20 C7 1.251 . S
H21 C4 0.930 . S
H22 C15 0.929 . S
Cu23 N24 1.999 . S
Cu23 O29 1.974 . S
Cu23 N34 1.985 1_565 S
Cu23 O43 1.959 1_565 S
N24 Cu23 1.999 . S
N24 C26 1.263 . S
N24 C28 1.389 . S
N25 C26 1.358 . S
N25 C27 1.400 . S
C26 N24 1.263 . S
C26 N25 1.358 . S
C26 H32 0.930 . S
C27 N25 1.400 . S
C27 C28 1.351 . S
C27 H44 0.930 . S
C28 N24 1.389 . S
C28 C27 1.351 . S
C28 H33 0.930 . S
O29 Cu23 1.974 . S
O29 C39 1.282 . S
C30 O31 1.261 . S
C30 O43 1.251 . S
O31 C30 1.261 . S
H32 C26 0.930 . S
H33 C28 0.930 . S
N34 Cu23 1.985 1_545 S
N34 C36 1.335 . S
N34 C37 1.390 . S
N35 C36 1.345 . S
N35 C38 1.336 . S
C36 N34 1.335 . S
C36 N35 1.345 . S
C36 H41 0.930 . S
C37 N34 1.390 . S
C37 C38 1.346 . S
C37 H42 0.930 . S
C38 N35 1.336 . S
C38 C37 1.346 . S
C38 H45 0.929 . S
C39 O29 1.282 . S
C39 O40 1.216 . S
O40 C39 1.216 . S
H41 C36 0.930 . S
H42 C37 0.930 . S
O43 Cu23 1.959 1_545 S
O43 C30 1.251 . S
H44 C27 0.930 . S
H45 C38 0.929 . S
Cu46 N47 1.999 1_554 S
Cu46 O52 1.974 1_554 S
Cu46 N57 1.985 . S
Cu46 O66 1.959 . S
N47 Cu46 1.999 1_556 S
N47 C49 1.263 . S
N47 C51 1.389 . S
N48 C49 1.358 . S
N48 C50 1.400 . S
C49 N47 1.263 . S
C49 N48 1.358 . S
C49 H55 0.930 . S
C50 N48 1.400 . S
C50 C51 1.351 . S
C50 H67 0.930 . S
C51 N47 1.389 . S
C51 C50 1.351 . S
C51 H56 0.930 . S
O52 Cu46 1.974 1_556 S
O52 C62 1.282 . S
C53 O54 1.261 . S
C53 O66 1.251 . S
O54 C53 1.261 . S
H55 C49 0.930 . S
H56 C51 0.930 . S
N57 Cu46 1.985 . S
N57 C59 1.335 . S
N57 C60 1.390 . S
N58 C59 1.345 . S
N58 C61 1.336 . S
C59 N57 1.335 . S
C59 N58 1.345 . S
C59 H64 0.930 . S
C60 N57 1.390 . S
C60 C61 1.346 . S
C60 H65 0.930 . S
C61 N58 1.336 . S
C61 C60 1.346 . S
C61 H68 0.929 . S
C62 O52 1.282 . S
C62 O63 1.216 1_556 S
O63 C62 1.216 1_554 S
H64 C59 0.930 . S
H65 C60 0.930 . S
O66 Cu46 1.959 . S
O66 C53 1.251 . S
H67 C50 0.930 . S
H68 C61 0.929 . S
Cu69 N70 1.999 1_655 S
Cu69 O75 1.974 1_655 S
Cu69 N80 1.985 . S
Cu69 O89 1.959 . S
N70 Cu69 1.999 1_455 S
N70 C72 1.263 . S
N70 C74 1.389 1_455 S
N71 C72 1.358 . S
N71 C73 1.400 . S
C72 N70 1.263 . S
C72 N71 1.358 . S
C72 H78 0.930 . S
C73 N71 1.400 . S
C73 C74 1.351 1_455 S
C73 H90 0.930 . S
C74 N70 1.389 1_655 S
C74 C73 1.351 1_655 S
C74 H79 0.930 . S
O75 Cu69 1.974 1_455 S
O75 C85 1.282 . S
C76 O77 1.252 1_655 S
C76 O89 1.251 . S
O77 C76 1.252 1_455 S
H78 C72 0.930 . S
H79 C74 0.930 . S
N80 Cu69 1.985 . S
N80 C82 1.335 . S
N80 C83 1.390 . S
N81 C82 1.345 . S
N81 C84 1.336 . S
C82 N80 1.335 . S
C82 N81 1.345 . S
C82 H87 0.930 . S
C83 N80 1.390 . S
C83 C84 1.346 . S
C83 H88 0.930 1_655 S
C84 N81 1.336 . S
C84 C83 1.346 . S
C84 H91 0.929 . S
C85 O75 1.282 . S
C85 O86 1.216 . S
O86 C85 1.216 . S
H87 C82 0.930 . S
H88 C83 0.930 1_455 S
O89 Cu69 1.959 . S
O89 C76 1.251 . S
H90 C73 0.930 . S
H91 C84 0.929 . S
Cu92 N93 1.999 . S
Cu92 O98 1.971 . S
Cu92 N103 1.985 1_545 S
Cu92 O112 1.959 1_545 S
N93 Cu92 1.999 . S
N93 C95 1.263 1_554 S
N93 C97 1.389 . S
N94 C95 1.358 . S
N94 C96 1.400 1_556 S
C95 N93 1.263 1_556 S
C95 N94 1.358 . S
C95 H101 0.930 . S
C96 N94 1.400 1_554 S
C96 C97 1.351 . S
C96 H113 0.930 . S
C97 N93 1.389 . S
C97 C96 1.351 . S
C97 H102 0.930 . S
O98 Cu92 1.971 . S
O98 C108 1.286 1_554 S
C99 O100 1.261 . S
C99 O112 1.251 . S
O100 C99 1.261 . S
H101 C95 0.930 . S
H102 C97 0.930 . S
N103 Cu92 1.985 1_565 S
N103 C105 1.335 . S
N103 C106 1.390 . S
N104 C105 1.345 . S
N104 C107 1.336 . S
C105 N103 1.335 . S
C105 N104 1.345 . S
C105 H110 0.930 . S
C106 N103 1.390 . S
C106 C107 1.346 . S
C106 H111 0.919 1_565 S
C107 N104 1.336 . S
C107 C106 1.346 . S
C107 H114 0.929 . S
C108 O98 1.286 1_556 S
C108 O109 1.216 . S
O109 C108 1.216 . S
H110 C105 0.930 . S
H111 C106 0.919 1_545 S
O112 Cu92 1.959 1_565 S
O112 C99 1.251 . S
H113 C96 0.930 . S
H114 C107 0.929 . S
Cu115 N116 1.999 . S
Cu115 O121 1.974 . S
Cu115 N126 1.985 . S
Cu115 O135 1.959 . S
N116 Cu115 1.999 . S
N116 C118 1.263 . S
N116 C120 1.389 . S
N117 C118 1.358 . S
N117 C119 1.400 . S
C118 N116 1.263 . S
C118 N117 1.358 . S
C118 H124 0.930 . S
C119 N117 1.400 . S
C119 C120 1.351 . S
C119 H136 0.930 . S
C120 N116 1.389 . S
C120 C119 1.351 . S
C120 H125 0.930 . S
O121 Cu115 1.974 . S
O121 C131 1.282 . S
C122 O123 1.261 . S
C122 O135 1.251 . S
O123 C122 1.261 . S
H124 C118 0.930 . S
H125 C120 0.930 . S
N126 Cu115 1.985 . S
N126 C128 1.335 . S
N126 C129 1.390 . S
N127 C128 1.345 . S
N127 C130 1.336 . S
C128 N126 1.335 . S
C128 N127 1.345 . S
C128 H133 0.930 . S
C129 N126 1.390 . S
C129 C130 1.346 . S
C129 H134 0.930 . S
C130 N127 1.336 . S
C130 C129 1.346 . S
C130 H137 0.929 . S
C131 O121 1.282 . S
C131 O132 1.216 . S
O132 C131 1.216 . S
H133 C128 0.930 . S
H134 C129 0.930 . S
O135 Cu115 1.959 . S
O135 C122 1.251 . S
H136 C119 0.930 . S
H137 C130 0.929 . S
C138 C139 1.384 . S
C138 C140 1.384 . S
C138 H166 0.931 . S
C139 C138 1.384 . S
C139 C142 1.382 . S
C140 C138 1.384 . S
C140 C141 1.381 . S
C140 H167 0.930 . S
C141 C140 1.381 . S
C141 C143 1.381 . S
C141 C144 1.487 . S
C142 C139 1.382 . S
C142 C143 1.387 . S
C142 H168 0.930 . S
C143 C141 1.381 . S
C143 C142 1.387 . S
C143 H169 0.931 . S
C144 C141 1.487 . S
C144 C151 1.399 . S
C144 N182 1.343 . S
C145 C146 1.384 . S
C145 C147 1.384 . S
C145 H170 0.931 . S
C146 C145 1.384 . S
C146 C149 1.382 . S
C147 C145 1.384 . S
C147 C148 1.381 . S
C147 H171 0.930 . S
C148 C147 1.381 . S
C148 C150 1.381 . S
C148 C151 1.487 . S
C149 C146 1.382 . S
C149 C150 1.387 . S
C149 H172 0.930 . S
C150 C148 1.381 . S
C150 C149 1.387 . S
C150 H173 0.931 . S
C151 C144 1.399 . S
C151 C148 1.487 . S
C151 N183 1.343 . S
C152 C153 1.384 . S
C152 C154 1.384 . S
C152 H174 0.931 . S
C153 C152 1.384 . S
C153 C156 1.382 . S
C154 C152 1.384 . S
C154 C155 1.381 . S
C154 H175 0.930 . S
C155 C154 1.381 . S
C155 C157 1.381 . S
C155 C158 1.487 . S
C156 C153 1.382 . S
C156 C157 1.387 . S
C156 H176 0.930 . S
C157 C155 1.381 . S
C157 C156 1.387 . S
C157 H177 0.931 . S
C158 C155 1.487 . S
C158 C165 1.399 . S
C158 N183 1.343 . S
C159 C160 1.384 . S
C159 C161 1.384 . S
C159 H178 0.931 . S
C160 C159 1.384 . S
C160 C163 1.382 . S
C161 C159 1.384 . S
C161 C162 1.381 . S
C161 H179 0.930 . S
C162 C161 1.381 . S
C162 C164 1.381 . S
C162 C165 1.487 . S
C163 C160 1.382 . S
C163 C164 1.387 . S
C163 H180 0.930 . S
C164 C162 1.381 . S
C164 C163 1.387 . S
C164 H181 0.931 . S
C165 C158 1.399 . S
C165 C162 1.487 . S
C165 N182 1.343 . S
H166 C138 0.931 . S
H167 C140 0.930 . S
H168 C142 0.930 . S
H169 C143 0.931 . S
H170 C145 0.931 . S
H171 C147 0.930 . S
H172 C149 0.930 . S
H173 C150 0.931 . S
H174 C152 0.931 . S
H175 C154 0.930 . S
H176 C156 0.930 . S
H177 C157 0.931 . S
H178 C159 0.931 . S
H179 C161 0.930 . S
H180 C163 0.930 . S
H181 C164 0.931 . S
N182 C144 1.343 . S
N182 C165 1.343 . S
N183 C151 1.343 . S
N183 C158 1.343 . S
C184 C185 1.384 . S
C184 C186 1.384 . S
C184 H212 0.931 . S
C185 C184 1.384 . S
C185 C188 1.382 . S
C186 C184 1.384 . S
C186 C187 1.381 . S
C186 H213 0.930 . S
C187 C186 1.381 . S
C187 C189 1.381 . S
C187 C190 1.487 . S
C188 C185 1.382 . S
C188 C189 1.387 . S
C188 H214 0.930 . S
C189 C187 1.381 . S
C189 C188 1.387 . S
C189 H215 0.931 . S
C190 C187 1.487 . S
C190 C197 1.399 . S
C190 N228 1.343 . S
C191 C192 1.384 . S
C191 C193 1.384 . S
C191 H216 0.931 . S
C192 C191 1.384 . S
C192 C195 1.382 . S
C193 C191 1.384 . S
C193 C194 1.381 . S
C193 H217 0.930 . S
C194 C193 1.381 . S
C194 C196 1.381 . S
C194 C197 1.487 . S
C195 C192 1.382 . S
C195 C196 1.387 . S
C195 H218 0.930 . S
C196 C194 1.381 . S
C196 C195 1.387 . S
C196 H219 0.931 . S
C197 C190 1.399 . S
C197 C194 1.487 . S
C197 N229 1.343 . S
C198 C199 1.384 . S
C198 C200 1.384 . S
C198 H220 0.931 . S
C199 C198 1.384 . S
C199 C202 1.382 . S
C200 C198 1.384 . S
C200 C201 1.381 . S
C200 H221 0.930 . S
C201 C200 1.381 . S
C201 C203 1.381 . S
C201 C204 1.487 . S
C202 C199 1.382 . S
C202 C203 1.387 . S
C202 H222 0.930 . S
C203 C201 1.381 . S
C203 C202 1.387 . S
C203 H223 0.931 . S
C204 C201 1.487 . S
C204 C211 1.399 . S
C204 N229 1.343 . S
C205 C206 1.384 . S
C205 C207 1.384 . S
C205 H224 0.931 . S
C206 C205 1.384 . S
C206 C209 1.382 . S
C207 C205 1.384 . S
C207 C208 1.381 . S
C207 H225 0.930 . S
C208 C207 1.381 . S
C208 C210 1.381 . S
C208 C211 1.487 . S
C209 C206 1.382 . S
C209 C210 1.387 . S
C209 H226 0.930 . S
C210 C208 1.381 . S
C210 C209 1.387 . S
C210 H227 0.931 . S
C211 C204 1.399 . S
C211 C208 1.487 . S
C211 N228 1.343 . S
H212 C184 0.931 . S
H213 C186 0.930 . S
H214 C188 0.930 . S
H215 C189 0.931 . S
H216 C191 0.931 . S
H217 C193 0.930 . S
H218 C195 0.930 . S
H219 C196 0.931 . S
H220 C198 0.931 . S
H221 C200 0.930 . S
H222 C202 0.930 . S
H223 C203 0.931 . S
H224 C205 0.931 . S
H225 C207 0.930 . S
H226 C209 0.930 . S
H227 C210 0.931 . S
N228 C190 1.343 . S
N228 C211 1.343 . S
N229 C197 1.343 . S
N229 C204 1.343 . S
C230 C231 1.384 . S
C230 C232 1.384 . S
C230 H258 0.931 . S
C231 C230 1.384 . S
C231 C234 1.382 . S
C232 C230 1.384 . S
C232 C233 1.381 . S
C232 H259 0.930 . S
C233 C232 1.381 . S
C233 C235 1.381 . S
C233 C236 1.487 . S
C234 C231 1.382 . S
C234 C235 1.387 . S
C234 H260 0.930 . S
C235 C233 1.381 . S
C235 C234 1.387 . S
C235 H261 0.931 . S
C236 C233 1.487 . S
C236 C243 1.399 . S
C236 N274 1.343 . S
C237 C238 1.384 . S
C237 C239 1.384 . S
C237 H262 0.931 . S
C238 C237 1.384 . S
C238 C241 1.382 . S
C239 C237 1.384 . S
C239 C240 1.381 . S
C239 H263 0.930 . S
C240 C239 1.381 . S
C240 C242 1.381 . S
C240 C243 1.487 . S
C241 C238 1.382 . S
C241 C242 1.387 . S
C241 H264 0.930 . S
C242 C240 1.381 . S
C242 C241 1.387 . S
C242 H265 0.931 . S
C243 C236 1.399 . S
C243 C240 1.487 . S
C243 N275 1.343 . S
C244 C245 1.384 . S
C244 C246 1.384 . S
C244 H266 0.931 . S
C245 C244 1.384 . S
C245 C248 1.382 . S
C246 C244 1.384 . S
C246 C247 1.381 . S
C246 H267 0.930 . S
C247 C246 1.381 . S
C247 C249 1.381 . S
C247 C250 1.487 . S
C248 C245 1.382 . S
C248 C249 1.387 . S
C248 H268 0.930 . S
C249 C247 1.381 . S
C249 C248 1.387 . S
C249 H269 0.931 . S
C250 C247 1.487 . S
C250 C257 1.399 . S
C250 N275 1.343 . S
C251 C252 1.384 . S
C251 C253 1.384 . S
C251 H270 0.931 . S
C252 C251 1.384 . S
C252 C255 1.382 . S
C253 C251 1.384 . S
C253 C254 1.381 . S
C253 H271 0.930 . S
C254 C253 1.381 . S
C254 C256 1.381 . S
C254 C257 1.487 . S
C255 C252 1.382 . S
C255 C256 1.387 . S
C255 H272 0.930 . S
C256 C254 1.381 . S
C256 C255 1.387 . S
C256 H273 0.931 . S
C257 C250 1.399 . S
C257 C254 1.487 . S
C257 N274 1.343 . S
H258 C230 0.931 . S
H259 C232 0.930 . S
H260 C234 0.930 . S
H261 C235 0.931 . S
H262 C237 0.931 . S
H263 C239 0.930 . S
H264 C241 0.930 . S
H265 C242 0.931 . S
H266 C244 0.931 . S
H267 C246 0.930 . S
H268 C248 0.930 . S
H269 C249 0.931 . S
H270 C251 0.931 . S
H271 C253 0.930 . S
H272 C255 0.930 . S
H273 C256 0.931 . S
N274 C236 1.343 . S
N274 C257 1.343 . S
N275 C243 1.343 . S
N275 C250 1.343 . S
C276 C277 1.384 . S
C276 C278 1.384 . S
C276 H304 0.931 . S
C277 C276 1.384 . S
C277 C280 1.382 . S
C278 C276 1.384 . S
C278 C279 1.381 . S
C278 H305 0.930 . S
C279 C278 1.381 . S
C279 C281 1.381 . S
C279 C282 1.487 . S
C280 C277 1.382 . S
C280 C281 1.387 . S
C280 H306 0.930 . S
C281 C279 1.381 . S
C281 C280 1.387 . S
C281 H307 0.931 . S
C282 C279 1.487 . S
C282 C289 1.399 . S
C282 N320 1.343 . S
C283 C284 1.384 . S
C283 C285 1.384 . S
C283 H308 0.931 . S
C284 C283 1.384 . S
C284 C287 1.382 . S
C285 C283 1.384 . S
C285 C286 1.381 . S
C285 H309 0.930 . S
C286 C285 1.381 . S
C286 C288 1.381 . S
C286 C289 1.487 . S
C287 C284 1.382 . S
C287 C288 1.387 . S
C287 H310 0.930 . S
C288 C286 1.381 . S
C288 C287 1.387 . S
C288 H311 0.931 . S
C289 C282 1.399 . S
C289 C286 1.487 . S
C289 N321 1.343 . S
C290 C291 1.384 . S
C290 C292 1.384 . S
C290 H312 0.931 . S
C291 C290 1.384 . S
C291 C294 1.382 . S
C292 C290 1.384 . S
C292 C293 1.381 . S
C292 H313 0.930 . S
C293 C292 1.381 . S
C293 C295 1.381 . S
C293 C296 1.487 . S
C294 C291 1.382 . S
C294 C295 1.387 . S
C294 H314 0.930 . S
C295 C293 1.381 . S
C295 C294 1.387 . S
C295 H315 0.931 . S
C296 C293 1.487 . S
C296 C303 1.399 . S
C296 N321 1.343 . S
C297 C298 1.384 . S
C297 C299 1.384 . S
C297 H316 0.931 . S
C298 C297 1.384 . S
C298 C301 1.382 . S
C299 C297 1.384 . S
C299 C300 1.381 . S
C299 H317 0.930 . S
C300 C299 1.381 . S
C300 C302 1.381 . S
C300 C303 1.487 . S
C301 C298 1.382 . S
C301 C302 1.387 . S
C301 H318 0.930 . S
C302 C300 1.381 . S
C302 C301 1.387 . S
C302 H319 0.931 . S
C303 C296 1.399 . S
C303 C300 1.487 . S
C303 N320 1.343 . S
H304 C276 0.931 . S
H305 C278 0.930 . S
H306 C280 0.930 . S
H307 C281 0.931 . S
H308 C283 0.931 . S
H309 C285 0.930 . S
H310 C287 0.930 . S
H311 C288 0.931 . S
H312 C290 0.931 . S
H313 C292 0.930 . S
H314 C294 0.930 . S
H315 C295 0.931 . S
H316 C297 0.931 . S
H317 C299 0.930 . S
H318 C301 0.930 . S
H319 C302 0.931 . S
N320 C282 1.343 . S
N320 C303 1.343 . S
N321 C289 1.343 . S
N321 C296 1.343 . S
C322 C323 1.384 . S
C322 C324 1.384 . S
C322 H350 0.931 . S
C323 C322 1.384 . S
C323 C326 1.382 . S
C324 C322 1.384 . S
C324 C325 1.381 . S
C324 H351 0.930 . S
C325 C324 1.381 . S
C325 C327 1.381 . S
C325 C328 1.487 . S
C326 C323 1.382 . S
C326 C327 1.387 . S
C326 H352 0.930 . S
C327 C325 1.381 . S
C327 C326 1.387 . S
C327 H353 0.931 . S
C328 C325 1.487 . S
C328 C335 1.399 . S
C328 N366 1.343 . S
C329 C330 1.384 . S
C329 C331 1.384 . S
C329 H354 0.931 . S
C330 C329 1.384 . S
C330 C333 1.382 . S
C331 C329 1.384 . S
C331 C332 1.381 . S
C331 H355 0.930 . S
C332 C331 1.381 . S
C332 C334 1.381 . S
C332 C335 1.487 . S
C333 C330 1.382 . S
C333 C334 1.387 . S
C333 H356 0.930 . S
C334 C332 1.381 . S
C334 C333 1.387 . S
C334 H357 0.931 . S
C335 C328 1.399 . S
C335 C332 1.487 . S
C335 N367 1.343 . S
C336 C337 1.384 . S
C336 C338 1.384 . S
C336 H358 0.931 . S
C337 C336 1.384 . S
C337 C340 1.382 . S
C338 C336 1.384 . S
C338 C339 1.381 . S
C338 H359 0.930 . S
C339 C338 1.381 . S
C339 C341 1.381 . S
C339 C342 1.487 . S
C340 C337 1.382 . S
C340 C341 1.387 . S
C340 H360 0.930 . S
C341 C339 1.381 . S
C341 C340 1.387 . S
C341 H361 0.931 . S
C342 C339 1.487 . S
C342 C349 1.399 . S
C342 N367 1.343 . S
C343 C344 1.384 . S
C343 C345 1.384 . S
C343 H362 0.931 . S
C344 C343 1.384 . S
C344 C347 1.382 . S
C345 C343 1.384 . S
C345 C346 1.381 . S
C345 H363 0.930 . S
C346 C345 1.381 . S
C346 C348 1.381 . S
C346 C349 1.487 . S
C347 C344 1.382 . S
C347 C348 1.387 . S
C347 H364 0.930 . S
C348 C346 1.381 . S
C348 C347 1.387 . S
C348 H365 0.931 . S
C349 C342 1.399 . S
C349 C346 1.487 . S
C349 N366 1.343 . S
H350 C322 0.931 . S
H351 C324 0.930 . S
H352 C326 0.930 . S
H353 C327 0.931 . S
H354 C329 0.931 . S
H355 C331 0.930 . S
H356 C333 0.930 . S
H357 C334 0.931 . S
H358 C336 0.931 . S
H359 C338 0.930 . S
H360 C340 0.930 . S
H361 C341 0.931 . S
H362 C343 0.931 . S
H363 C345 0.930 . S
H364 C347 0.930 . S
H365 C348 0.931 . S
N366 C328 1.343 . S
N366 C349 1.343 . S
N367 C335 1.343 . S
N367 C342 1.343 . S
C368 C369 1.384 . S
C368 C370 1.384 . S
C368 H396 0.931 . S
C369 C368 1.384 . S
C369 C372 1.382 . S
C370 C368 1.384 . S
C370 C371 1.381 . S
C370 H397 0.930 . S
C371 C370 1.381 . S
C371 C373 1.381 . S
C371 C374 1.487 . S
C372 C369 1.382 . S
C372 C373 1.387 . S
C372 H398 0.930 . S
C373 C371 1.381 . S
C373 C372 1.387 . S
C373 H399 0.931 . S
C374 C371 1.487 . S
C374 C381 1.399 . S
C374 N412 1.343 . S
C375 C376 1.384 . S
C375 C377 1.384 . S
C375 H400 0.931 . S
C376 C375 1.384 . S
C376 C379 1.382 . S
C377 C375 1.384 . S
C377 C378 1.381 . S
C377 H401 0.930 . S
C378 C377 1.381 . S
C378 C380 1.381 . S
C378 C381 1.487 . S
C379 C376 1.382 . S
C379 C380 1.387 . S
C379 H402 0.930 . S
C380 C378 1.381 . S
C380 C379 1.387 . S
C380 H403 0.931 . S
C381 C374 1.399 . S
C381 C378 1.487 . S
C381 N413 1.343 . S
C382 C383 1.384 . S
C382 C384 1.384 . S
C382 H404 0.931 . S
C383 C382 1.384 . S
C383 C386 1.382 . S
C384 C382 1.384 . S
C384 C385 1.381 . S
C384 H405 0.930 . S
C385 C384 1.381 . S
C385 C387 1.381 . S
C385 C388 1.487 . S
C386 C383 1.382 . S
C386 C387 1.387 . S
C386 H406 0.930 . S
C387 C385 1.381 . S
C387 C386 1.387 . S
C387 H407 0.931 . S
C388 C385 1.487 . S
C388 C395 1.399 . S
C388 N413 1.343 . S
C389 C390 1.384 . S
C389 C391 1.384 . S
C389 H408 0.931 . S
C390 C389 1.384 . S
C390 C393 1.382 . S
C391 C389 1.384 . S
C391 C392 1.381 . S
C391 H409 0.930 . S
C392 C391 1.381 . S
C392 C394 1.381 . S
C392 C395 1.487 . S
C393 C390 1.382 . S
C393 C394 1.387 . S
C393 H410 0.930 . S
C394 C392 1.381 . S
C394 C393 1.387 . S
C394 H411 0.931 . S
C395 C388 1.399 . S
C395 C392 1.487 . S
C395 N412 1.343 . S
H396 C368 0.931 . S
H397 C370 0.930 . S
H398 C372 0.930 . S
H399 C373 0.931 . S
H400 C375 0.931 . S
H401 C377 0.930 . S
H402 C379 0.930 . S
H403 C380 0.931 . S
H404 C382 0.931 . S
H405 C384 0.930 . S
H406 C386 0.930 . S
H407 C387 0.931 . S
H408 C389 0.931 . S
H409 C391 0.930 . S
H410 C393 0.930 . S
H411 C394 0.931 . S
N412 C374 1.343 . S
N412 C395 1.343 . S
N413 C381 1.343 . S
N413 C388 1.343 . S
H414 C422 0.929 . S
H415 C424 0.930 . S
H416 C426 0.930 . S
H417 C429 0.929 . S
H418 C432 0.930 . S
H419 C434 0.960 . S
H420 C434 0.960 . S
H421 C434 0.960 . S
C422 H414 0.929 . S
C422 C423 1.377 . S
C422 C424 1.384 . S
C423 C422 1.377 . S
C423 C429 1.390 . S
C424 H415 0.930 . S
C424 C422 1.384 . S
C424 C425 1.372 . S
C425 C424 1.372 . S
C425 C426 1.400 . S
C425 C430 1.490 . S
C426 H416 0.930 . S
C426 C425 1.400 . S
C426 C429 1.386 . S
H427 C443 0.930 . S
H428 C444 0.931 . S
C429 H417 0.929 . S
C429 C423 1.390 . S
C429 C426 1.386 . S
C430 C425 1.490 . S
C430 C432 1.395 . S
C430 C433 1.403 . S
H431 C437 0.930 . S
C432 H418 0.930 . S
C432 C430 1.395 . S
C432 C435 1.403 . S
C433 C430 1.403 . S
C433 C434 1.524 . S
C433 C437 1.400 . S
C434 H419 0.960 . S
C434 H420 0.960 . S
C434 H421 0.960 . S
C434 C433 1.524 . S
C435 C432 1.403 . S
C435 C436 1.392 . S
C435 C439 1.495 . S
C436 C435 1.392 . S
C436 C437 1.385 . S
C436 C438 1.478 . S
C437 H431 0.930 . S
C437 C433 1.400 . S
C437 C436 1.385 . S
C438 C436 1.478 . S
C438 C440 1.381 . S
C438 C444 1.383 . S
C439 C435 1.495 . S
C439 H445 0.959 . S
C439 H446 0.961 . S
C439 H447 0.960 . S
C440 C438 1.381 . S
C440 C441 1.394 . S
C440 H448 0.930 . S
C441 C440 1.394 . S
C441 C442 1.383 . S
C441 H449 0.929 . S
C442 C441 1.383 . S
C442 C443 1.377 . S
C443 H427 0.930 . S
C443 C442 1.377 . S
C443 C444 1.379 . S
C444 H428 0.931 . S
C444 C438 1.383 . S
C444 C443 1.379 . S
H445 C439 0.959 . S
H446 C439 0.961 . S
H447 C439 0.960 . S
H448 C440 0.930 . S
H449 C441 0.929 . S
H450 C458 0.929 . S
H451 C460 0.930 . S
H452 C462 0.930 . S
H453 C465 0.929 . S
H454 C468 0.930 . S
H455 C470 0.960 . S
H456 C470 0.960 . S
H457 C470 0.960 . S
C458 H450 0.929 . S
C458 C459 1.377 . S
C458 C460 1.384 . S
C459 C458 1.377 . S
C459 C465 1.390 . S
C460 H451 0.930 . S
C460 C458 1.384 . S
C460 C461 1.372 . S
C461 C460 1.372 . S
C461 C462 1.400 . S
C461 C466 1.490 . S
C462 H452 0.930 . S
C462 C461 1.400 . S
C462 C465 1.386 . S
H463 C479 0.930 . S
H464 C480 0.931 . S
C465 H453 0.929 . S
C465 C459 1.390 . S
C465 C462 1.386 . S
C466 C461 1.490 . S
C466 C468 1.395 . S
C466 C469 1.403 . S
H467 C473 0.930 . S
C468 H454 0.930 . S
C468 C466 1.395 . S
C468 C471 1.403 . S
C469 C466 1.403 . S
C469 C470 1.524 . S
C469 C473 1.400 . S
C470 H455 0.960 . S
C470 H456 0.960 . S
C470 H457 0.960 . S
C470 C469 1.524 . S
C471 C468 1.403 . S
C471 C472 1.392 . S
C471 C475 1.495 . S
C472 C471 1.392 . S
C472 C473 1.385 . S
C472 C474 1.478 . S
C473 H467 0.930 . S
C473 C469 1.400 . S
C473 C472 1.385 . S
C474 C472 1.478 . S
C474 C476 1.381 . S
C474 C480 1.383 . S
C475 C471 1.495 . S
C475 H481 0.959 . S
C475 H482 0.961 . S
C475 H483 0.960 . S
C476 C474 1.381 . S
C476 C477 1.394 . S
C476 H484 0.930 . S
C477 C476 1.394 . S
C477 C478 1.383 . S
C477 H485 0.929 . S
C478 C477 1.383 . S
C478 C479 1.377 . S
C479 H463 0.930 . S
C479 C478 1.377 . S
C479 C480 1.379 . S
C480 H464 0.931 . S
C480 C474 1.383 . S
C480 C479 1.379 . S
H481 C475 0.959 . S
H482 C475 0.961 . S
H483 C475 0.960 . S
H484 C476 0.930 . S
H485 C477 0.929 . S
H486 C494 0.929 . S
H487 C496 0.930 . S
H488 C498 0.930 . S
H489 C501 0.929 . S
H490 C504 0.930 . S
H491 C506 0.960 . S
H492 C506 0.960 . S
H493 C506 0.960 . S
C494 H486 0.929 . S
C494 C495 1.377 . S
C494 C496 1.384 . S
C495 C494 1.377 . S
C495 C501 1.390 . S
C496 H487 0.930 . S
C496 C494 1.384 . S
C496 C497 1.372 . S
C497 C496 1.372 . S
C497 C498 1.400 . S
C497 C502 1.490 . S
C498 H488 0.930 . S
C498 C497 1.400 . S
C498 C501 1.386 . S
H499 C515 0.930 . S
H500 C516 0.931 . S
C501 H489 0.929 . S
C501 C495 1.390 . S
C501 C498 1.386 . S
C502 C497 1.490 . S
C502 C504 1.395 . S
C502 C505 1.403 . S
H503 C509 0.930 . S
C504 H490 0.930 . S
C504 C502 1.395 . S
C504 C507 1.403 . S
C505 C502 1.403 . S
C505 C506 1.524 . S
C505 C509 1.400 . S
C506 H491 0.960 . S
C506 H492 0.960 . S
C506 H493 0.960 . S
C506 C505 1.524 . S
C507 C504 1.403 . S
C507 C508 1.392 . S
C507 C511 1.495 . S
C508 C507 1.392 . S
C508 C509 1.385 . S
C508 C510 1.478 . S
C509 H503 0.930 . S
C509 C505 1.400 . S
C509 C508 1.385 . S
C510 C508 1.478 . S
C510 C512 1.381 . S
C510 C516 1.383 . S
C511 C507 1.495 . S
C511 H517 0.959 . S
C511 H518 0.961 . S
C511 H519 0.960 . S
C512 C510 1.381 . S
C512 C513 1.394 . S
C512 H520 0.930 . S
C513 C512 1.394 . S
C513 C514 1.383 . S
C513 H521 0.929 . S
C514 C513 1.383 . S
C514 C515 1.377 . S
C515 H499 0.930 . S
C515 C514 1.377 . S
C515 C516 1.379 . S
C516 H500 0.931 . S
C516 C510 1.383 . S
C516 C515 1.379 . S
H517 C511 0.959 . S
H518 C511 0.961 . S
H519 C511 0.960 . S
H520 C512 0.930 . S
H521 C513 0.929 . S
H522 C530 0.929 . S
H523 C532 0.930 . S
H524 C534 0.930 . S
H525 C537 0.929 . S
H526 C540 0.930 . S
H527 C542 0.960 . S
H528 C542 0.960 . S
H529 C542 0.960 . S
C530 H522 0.929 . S
C530 C531 1.377 . S
C530 C532 1.384 . S
C531 C530 1.377 . S
C531 C537 1.390 . S
C532 H523 0.930 . S
C532 C530 1.384 . S
C532 C533 1.372 . S
C533 C532 1.372 . S
C533 C534 1.400 . S
C533 C538 1.490 . S
C534 H524 0.930 . S
C534 C533 1.400 . S
C534 C537 1.386 . S
H535 C551 0.930 . S
H536 C552 0.931 . S
C537 H525 0.929 . S
C537 C531 1.390 . S
C537 C534 1.386 . S
C538 C533 1.490 . S
C538 C540 1.395 . S
C538 C541 1.403 . S
H539 C545 0.930 . S
C540 H526 0.930 . S
C540 C538 1.395 . S
C540 C543 1.403 . S
C541 C538 1.403 . S
C541 C542 1.524 . S
C541 C545 1.400 . S
C542 H527 0.960 . S
C542 H528 0.960 . S
C542 H529 0.960 . S
C542 C541 1.524 . S
C543 C540 1.403 . S
C543 C544 1.392 . S
C543 C547 1.495 . S
C544 C543 1.392 . S
C544 C545 1.385 . S
C544 C546 1.478 . S
C545 H539 0.930 . S
C545 C541 1.400 . S
C545 C544 1.385 . S
C546 C544 1.478 . S
C546 C548 1.381 . S
C546 C552 1.383 . S
C547 C543 1.495 . S
C547 H553 0.959 . S
C547 H554 0.961 . S
C547 H555 0.960 . S
C548 C546 1.381 . S
C548 C549 1.394 . S
C548 H556 0.930 . S
C549 C548 1.394 . S
C549 C550 1.383 . S
C549 H557 0.929 . S
C550 C549 1.383 . S
C550 C551 1.377 . S
C551 H535 0.930 . S
C551 C550 1.377 . S
C551 C552 1.379 . S
C552 H536 0.931 . S
C552 C546 1.383 . S
C552 C551 1.379 . S
H553 C547 0.959 . S
H554 C547 0.961 . S
H555 C547 0.960 . S
H556 C548 0.930 . S
H557 C549 0.929 . S
H558 C566 0.929 . S
H559 C568 0.930 . S
H560 C570 0.930 . S
H561 C573 0.929 . S
H562 C576 0.930 . S
H563 C578 0.960 . S
H564 C578 0.960 . S
H565 C578 0.960 . S
C566 H558 0.929 . S
C566 C567 1.377 . S
C566 C568 1.384 . S
C567 C566 1.377 . S
C567 C573 1.390 . S
C568 H559 0.930 . S
C568 C566 1.384 . S
C568 C569 1.372 . S
C569 C568 1.372 . S
C569 C570 1.400 . S
C569 C574 1.490 . S
C570 H560 0.930 . S
C570 C569 1.400 . S
C570 C573 1.386 . S
H571 C587 0.930 . S
H572 C588 0.931 . S
C573 H561 0.929 . S
C573 C567 1.390 . S
C573 C570 1.386 . S
C574 C569 1.490 . S
C574 C576 1.395 . S
C574 C577 1.403 . S
H575 C581 0.930 . S
C576 H562 0.930 . S
C576 C574 1.395 . S
C576 C579 1.403 . S
C577 C574 1.403 . S
C577 C578 1.524 . S
C577 C581 1.400 . S
C578 H563 0.960 . S
C578 H564 0.960 . S
C578 H565 0.960 . S
C578 C577 1.524 . S
C579 C576 1.403 . S
C579 C580 1.392 . S
C579 C583 1.495 . S
C580 C579 1.392 . S
C580 C581 1.385 . S
C580 C582 1.478 . S
C581 H575 0.930 . S
C581 C577 1.400 . S
C581 C580 1.385 . S
C582 C580 1.478 . S
C582 C584 1.381 . S
C582 C588 1.383 . S
C583 C579 1.495 . S
C583 H589 0.959 . S
C583 H590 0.961 . S
C583 H591 0.960 . S
C584 C582 1.381 . S
C584 C585 1.394 . S
C584 H592 0.930 . S
C585 C584 1.394 . S
C585 C586 1.383 . S
C585 H593 0.929 . S
C586 C585 1.383 . S
C586 C587 1.377 . S
C587 H571 0.930 . S
C587 C586 1.377 . S
C587 C588 1.379 . S
C588 H572 0.931 . S
C588 C582 1.383 . S
C588 C587 1.379 . S
H589 C583 0.959 . S
H590 C583 0.961 . S
H591 C583 0.960 . S
H592 C584 0.930 . S
H593 C585 0.929 . S
H594 C602 0.929 . S
H595 C604 0.930 . S
H596 C606 0.930 . S
H597 C609 0.929 . S
H598 C612 0.930 . S
H599 C614 0.960 . S
H600 C614 0.960 . S
H601 C614 0.960 . S
C602 H594 0.929 . S
C602 C603 1.377 . S
C602 C604 1.384 . S
C603 C602 1.377 . S
C603 C609 1.390 . S
C604 H595 0.930 . S
C604 C602 1.384 . S
C604 C605 1.372 . S
C605 C604 1.372 . S
C605 C606 1.400 . S
C605 C610 1.490 . S
C606 H596 0.930 . S
C606 C605 1.400 . S
C606 C609 1.386 . S
H607 C623 0.930 . S
H608 C624 0.931 . S
C609 H597 0.929 . S
C609 C603 1.390 . S
C609 C606 1.386 . S
C610 C605 1.490 . S
C610 C612 1.395 . S
C610 C613 1.403 . S
H611 C617 0.930 . S
C612 H598 0.930 . S
C612 C610 1.395 . S
C612 C615 1.403 . S
C613 C610 1.403 . S
C613 C614 1.524 . S
C613 C617 1.400 . S
C614 H599 0.960 . S
C614 H600 0.960 . S
C614 H601 0.960 . S
C614 C613 1.524 . S
C615 C612 1.403 . S
C615 C616 1.392 . S
C615 C619 1.495 . S
C616 C615 1.392 . S
C616 C617 1.385 . S
C616 C618 1.478 . S
C617 H611 0.930 . S
C617 C613 1.400 . S
C617 C616 1.385 . S
C618 C616 1.478 . S
C618 C620 1.381 . S
C618 C624 1.383 . S
C619 C615 1.495 . S
C619 H625 0.959 . S
C619 H626 0.961 . S
C619 H627 0.960 . S
C620 C618 1.381 . S
C620 C621 1.394 . S
C620 H628 0.930 . S
C621 C620 1.394 . S
C621 C622 1.383 . S
C621 H629 0.929 . S
C622 C621 1.383 . S
C622 C623 1.377 . S
C623 H607 0.930 . S
C623 C622 1.377 . S
C623 C624 1.379 . S
C624 H608 0.931 . S
C624 C618 1.383 . S
C624 C623 1.379 . S
H625 C619 0.959 . S
H626 C619 0.961 . S
H627 C619 0.960 . S
H628 C620 0.930 . S
H629 C621 0.929 . S
H630 C638 0.929 . S
H631 C640 0.930 . S
H632 C642 0.930 . S
H633 C645 0.929 . S
H634 C648 0.930 . S
H635 C650 0.960 . S
H636 C650 0.960 . S
H637 C650 0.960 . S
C638 H630 0.929 . S
C638 C639 1.377 . S
C638 C640 1.384 . S
C639 C638 1.377 . S
C639 C645 1.390 . S
C640 H631 0.930 . S
C640 C638 1.384 . S
C640 C641 1.372 . S
C641 C640 1.372 . S
C641 C642 1.400 . S
C641 C646 1.490 . S
C642 H632 0.930 . S
C642 C641 1.400 . S
C642 C645 1.386 . S
H643 C659 0.930 . S
H644 C660 0.931 . S
C645 H633 0.929 . S
C645 C639 1.390 . S
C645 C642 1.386 . S
C646 C641 1.490 . S
C646 C648 1.395 . S
C646 C649 1.403 . S
H647 C653 0.930 . S
C648 H634 0.930 . S
C648 C646 1.395 . S
C648 C651 1.403 . S
C649 C646 1.403 . S
C649 C650 1.524 . S
C649 C653 1.400 . S
C650 H635 0.960 . S
C650 H636 0.960 . S
C650 H637 0.960 . S
C650 C649 1.524 . S
C651 C648 1.403 . S
C651 C652 1.392 . S
C651 C655 1.495 . S
C652 C651 1.392 . S
C652 C653 1.385 . S
C652 C654 1.478 . S
C653 H647 0.930 . S
C653 C649 1.400 . S
C653 C652 1.385 . S
C654 C652 1.478 . S
C654 C656 1.381 . S
C654 C660 1.383 . S
C655 C651 1.495 . S
C655 H661 0.959 . S
C655 H662 0.961 . S
C655 H663 0.960 . S
C656 C654 1.381 . S
C656 C657 1.394 . S
C656 H664 0.930 . S
C657 C656 1.394 . S
C657 C658 1.383 . S
C657 H665 0.929 . S
C658 C657 1.383 . S
C658 C659 1.377 . S
C659 H643 0.930 . S
C659 C658 1.377 . S
C659 C660 1.379 . S
C660 H644 0.931 . S
C660 C654 1.383 . S
C660 C659 1.379 . S
H661 C655 0.959 . S
H662 C655 0.961 . S
H663 C655 0.960 . S
H664 C656 0.930 . S
H665 C657 0.929 . S
H666 C674 0.929 . S
H667 C676 0.930 . S
H668 C678 0.930 . S
H669 C681 0.929 . S
H670 C684 0.930 . S
H671 C686 0.960 . S
H672 C686 0.960 . S
H673 C686 0.960 . S
C674 H666 0.929 . S
C674 C675 1.377 . S
C674 C676 1.384 . S
C675 C674 1.377 . S
C675 C681 1.390 . S
C676 H667 0.930 . S
C676 C674 1.384 . S
C676 C677 1.372 . S
C677 C676 1.372 . S
C677 C678 1.400 . S
C677 C682 1.490 . S
C678 H668 0.930 . S
C678 C677 1.400 . S
C678 C681 1.386 . S
H679 C695 0.930 . S
H680 C696 0.931 . S
C681 H669 0.929 . S
C681 C675 1.390 . S
C681 C678 1.386 . S
C682 C677 1.490 . S
C682 C684 1.395 . S
C682 C685 1.403 . S
H683 C689 0.930 . S
C684 H670 0.930 . S
C684 C682 1.395 . S
C684 C687 1.403 . S
C685 C682 1.403 . S
C685 C686 1.524 . S
C685 C689 1.400 . S
C686 H671 0.960 . S
C686 H672 0.960 . S
C686 H673 0.960 . S
C686 C685 1.524 . S
C687 C684 1.403 . S
C687 C688 1.392 . S
C687 C691 1.495 . S
C688 C687 1.392 . S
C688 C689 1.385 . S
C688 C690 1.478 . S
C689 H683 0.930 . S
C689 C685 1.400 . S
C689 C688 1.385 . S
C690 C688 1.478 . S
C690 C692 1.381 . S
C690 C696 1.383 . S
C691 C687 1.495 . S
C691 H697 0.959 . S
C691 H698 0.961 . S
C691 H699 0.960 . S
C692 C690 1.381 . S
C692 C693 1.394 . S
C692 H700 0.930 . S
C693 C692 1.394 . S
C693 C694 1.383 . S
C693 H701 0.929 . S
C694 C693 1.383 . S
C694 C695 1.377 . S
C695 H679 0.930 . S
C695 C694 1.377 . S
C695 C696 1.379 . S
C696 H680 0.931 . S
C696 C690 1.383 . S
C696 C695 1.379 . S
H697 C691 0.959 . S
H698 C691 0.961 . S
H699 C691 0.960 . S
H700 C692 0.930 . S
H701 C693 0.929 . S
H702 C710 0.929 . S
H703 C712 0.930 . S
H704 C714 0.930 . S
H705 C717 0.929 . S
H706 C720 0.930 . S
H707 C722 0.960 . S
H708 C722 0.960 . S
H709 C722 0.960 . S
C710 H702 0.929 . S
C710 C711 1.377 . S
C710 C712 1.384 . S
C711 C710 1.377 . S
C711 C717 1.390 . S
C712 H703 0.930 . S
C712 C710 1.384 . S
C712 C713 1.372 . S
C713 C712 1.372 . S
C713 C714 1.400 . S
C713 C718 1.490 . S
C714 H704 0.930 . S
C714 C713 1.400 . S
C714 C717 1.386 . S
H715 C731 0.930 . S
H716 C732 0.931 . S
C717 H705 0.929 . S
C717 C711 1.390 . S
C717 C714 1.386 . S
C718 C713 1.490 . S
C718 C720 1.395 . S
C718 C721 1.403 . S
H719 C725 0.930 . S
C720 H706 0.930 . S
C720 C718 1.395 . S
C720 C723 1.403 . S
C721 C718 1.403 . S
C721 C722 1.524 . S
C721 C725 1.400 . S
C722 H707 0.960 . S
C722 H708 0.960 . S
C722 H709 0.960 . S
C722 C721 1.524 . S
C723 C720 1.403 . S
C723 C724 1.392 . S
C723 C727 1.495 . S
C724 C723 1.392 . S
C724 C725 1.385 . S
C724 C726 1.478 . S
C725 H719 0.930 . S
C725 C721 1.400 . S
C725 C724 1.385 . S
C726 C724 1.478 . S
C726 C728 1.381 . S
C726 C732 1.383 . S
C727 C723 1.495 . S
C727 H733 0.959 . S
C727 H734 0.961 . S
C727 H735 0.960 . S
C728 C726 1.381 . S
C728 C729 1.394 . S
C728 H736 0.930 . S
C729 C728 1.394 . S
C729 C730 1.383 . S
C729 H737 0.929 . S
C730 C729 1.383 . S
C730 C731 1.377 . S
C731 H715 0.930 . S
C731 C730 1.377 . S
C731 C732 1.379 . S
C732 H716 0.931 . S
C732 C726 1.383 . S
C732 C731 1.379 . S
H733 C727 0.959 . S
H734 C727 0.961 . S
H735 C727 0.960 . S
H736 C728 0.930 . S
H737 C729 0.929 . S
H738 C746 0.929 . S
H739 C748 0.930 . S
H740 C750 0.930 . S
H741 C753 0.929 . S
H742 C756 0.930 . S
H743 C758 0.960 . S
H744 C758 0.960 . S
H745 C758 0.960 . S
C746 H738 0.929 . S
C746 C747 1.377 . S
C746 C748 1.384 . S
C747 C746 1.377 . S
C747 C753 1.390 . S
C748 H739 0.930 . S
C748 C746 1.384 . S
C748 C749 1.372 . S
C749 C748 1.372 . S
C749 C750 1.400 . S
C749 C754 1.490 . S
C750 H740 0.930 . S
C750 C749 1.400 . S
C750 C753 1.386 . S
H751 C767 0.930 . S
H752 C768 0.931 . S
C753 H741 0.929 . S
C753 C747 1.390 . S
C753 C750 1.386 . S
C754 C749 1.490 . S
C754 C756 1.395 . S
C754 C757 1.403 . S
H755 C761 0.930 . S
C756 H742 0.930 . S
C756 C754 1.395 . S
C756 C759 1.403 . S
C757 C754 1.403 . S
C757 C758 1.524 . S
C757 C761 1.400 . S
C758 H743 0.960 . S
C758 H744 0.960 . S
C758 H745 0.960 . S
C758 C757 1.524 . S
C759 C756 1.403 . S
C759 C760 1.392 . S
C759 C763 1.495 . S
C760 C759 1.392 . S
C760 C761 1.385 . S
C760 C762 1.478 . S
C761 H755 0.930 . S
C761 C757 1.400 . S
C761 C760 1.385 . S
C762 C760 1.478 . S
C762 C764 1.381 . S
C762 C768 1.383 . S
C763 C759 1.495 . S
C763 H769 0.959 . S
C763 H770 0.961 . S
C763 H771 0.960 . S
C764 C762 1.381 . S
C764 C765 1.394 . S
C764 H772 0.930 . S
C765 C764 1.394 . S
C765 C766 1.383 . S
C765 H773 0.929 . S
C766 C765 1.383 . S
C766 C767 1.377 . S
C767 H751 0.930 . S
C767 C766 1.377 . S
C767 C768 1.379 . S
C768 H752 0.931 . S
C768 C762 1.383 . S
C768 C767 1.379 . S
H769 C763 0.959 . S
H770 C763 0.961 . S
H771 C763 0.960 . S
H772 C764 0.930 . S
H773 C765 0.929 . S
H774 C782 0.929 . S
H775 C784 0.930 . S
H776 C786 0.930 . S
H777 C789 0.929 . S
H778 C792 0.930 . S
H779 C794 0.960 . S
H780 C794 0.960 . S
H781 C794 0.960 . S
C782 H774 0.929 . S
C782 C783 1.377 . S
C782 C784 1.384 . S
C783 C782 1.377 . S
C783 C789 1.390 . S
C784 H775 0.930 . S
C784 C782 1.384 . S
C784 C785 1.372 . S
C785 C784 1.372 . S
C785 C786 1.400 . S
C785 C790 1.490 . S
C786 H776 0.930 . S
C786 C785 1.400 . S
C786 C789 1.386 . S
H787 C803 0.930 . S
H788 C804 0.931 . S
C789 H777 0.929 . S
C789 C783 1.390 . S
C789 C786 1.386 . S
C790 C785 1.490 . S
C790 C792 1.395 . S
C790 C793 1.403 . S
H791 C797 0.930 . S
C792 H778 0.930 . S
C792 C790 1.395 . S
C792 C795 1.403 . S
C793 C790 1.403 . S
C793 C794 1.524 . S
C793 C797 1.400 . S
C794 H779 0.960 . S
C794 H780 0.960 . S
C794 H781 0.960 . S
C794 C793 1.524 . S
C795 C792 1.403 . S
C795 C796 1.392 . S
C795 C799 1.495 . S
C796 C795 1.392 . S
C796 C797 1.385 . S
C796 C798 1.478 . S
C797 H791 0.930 . S
C797 C793 1.400 . S
C797 C796 1.385 . S
C798 C796 1.478 . S
C798 C800 1.381 . S
C798 C804 1.383 . S
C799 C795 1.495 . S
C799 H805 0.959 . S
C799 H806 0.961 . S
C799 H807 0.960 . S
C800 C798 1.381 . S
C800 C801 1.394 . S
C800 H808 0.930 . S
C801 C800 1.394 . S
C801 C802 1.383 . S
C801 H809 0.929 . S
C802 C801 1.383 . S
C802 C803 1.377 . S
C803 H787 0.930 . S
C803 C802 1.377 . S
C803 C804 1.379 . S
C804 H788 0.931 . S
C804 C798 1.383 . S
C804 C803 1.379 . S
H805 C799 0.959 . S
H806 C799 0.961 . S
H807 C799 0.960 . S
H808 C800 0.930 . S
H809 C801 0.929 . S
H810 C818 0.929 . S
H811 C820 0.930 . S
H812 C822 0.930 . S
H813 C825 0.929 . S
H814 C828 0.930 . S
H815 C830 0.960 . S
H816 C830 0.960 . S
H817 C830 0.960 . S
C818 H810 0.929 . S
C818 C819 1.377 . S
C818 C820 1.384 . S
C819 C818 1.377 . S
C819 C825 1.390 . S
C820 H811 0.930 . S
C820 C818 1.384 . S
C820 C821 1.372 . S
C821 C820 1.372 . S
C821 C822 1.400 . S
C821 C826 1.490 . S
C822 H812 0.930 . S
C822 C821 1.400 . S
C822 C825 1.386 . S
H823 C839 0.930 . S
H824 C840 0.931 . S
C825 H813 0.929 . S
C825 C819 1.390 . S
C825 C822 1.386 . S
C826 C821 1.490 . S
C826 C828 1.395 . S
C826 C829 1.403 . S
H827 C833 0.930 . S
C828 H814 0.930 . S
C828 C826 1.395 . S
C828 C831 1.403 . S
C829 C826 1.403 . S
C829 C830 1.524 . S
C829 C833 1.400 . S
C830 H815 0.960 . S
C830 H816 0.960 . S
C830 H817 0.960 . S
C830 C829 1.524 . S
C831 C828 1.403 . S
C831 C832 1.392 . S
C831 C835 1.495 . S
C832 C831 1.392 . S
C832 C833 1.385 . S
C832 C834 1.478 . S
C833 H827 0.930 . S
C833 C829 1.400 . S
C833 C832 1.385 . S
C834 C832 1.478 . S
C834 C836 1.381 . S
C834 C840 1.383 . S
C835 C831 1.495 . S
C835 H841 0.959 . S
C835 H842 0.961 . S
C835 H843 0.960 . S
C836 C834 1.381 . S
C836 C837 1.394 . S
C836 H844 0.930 . S
C837 C836 1.394 . S
C837 C838 1.383 . S
C837 H845 0.929 . S
C838 C837 1.383 . S
C838 C839 1.377 . S
C839 H823 0.930 . S
C839 C838 1.377 . S
C839 C840 1.379 . S
C840 H824 0.931 . S
C840 C834 1.383 . S
C840 C839 1.379 . S
H841 C835 0.959 . S
H842 C835 0.961 . S
H843 C835 0.960 . S
H844 C836 0.930 . S
H845 C837 0.929 . S
H846 C854 0.929 . S
H847 C856 0.930 . S
H848 C858 0.930 . S
H849 C861 0.929 . S
H850 C864 0.930 . S
H851 C866 0.960 . S
H852 C866 0.960 . S
H853 C866 0.960 . S
C854 H846 0.929 . S
C854 C855 1.377 . S
C854 C856 1.384 . S
C855 C854 1.377 . S
C855 C861 1.390 . S
C856 H847 0.930 . S
C856 C854 1.384 . S
C856 C857 1.372 . S
C857 C856 1.372 . S
C857 C858 1.400 . S
C857 C862 1.490 . S
C858 H848 0.930 . S
C858 C857 1.400 . S
C858 C861 1.386 . S
H859 C875 0.930 . S
H860 C876 0.931 . S
C861 H849 0.929 . S
C861 C855 1.390 . S
C861 C858 1.386 . S
C862 C857 1.490 . S
C862 C864 1.395 . S
C862 C865 1.403 . S
H863 C869 0.930 . S
C864 H850 0.930 . S
C864 C862 1.395 . S
C864 C867 1.403 . S
C865 C862 1.403 . S
C865 C866 1.524 . S
C865 C869 1.400 . S
C866 H851 0.960 . S
C866 H852 0.960 . S
C866 H853 0.960 . S
C866 C865 1.524 . S
C867 C864 1.403 . S
C867 C868 1.392 . S
C867 C871 1.495 . S
C868 C867 1.392 . S
C868 C869 1.385 . S
C868 C870 1.478 . S
C869 H863 0.930 . S
C869 C865 1.400 . S
C869 C868 1.385 . S
C870 C868 1.478 . S
C870 C872 1.381 . S
C870 C876 1.383 . S
C871 C867 1.495 . S
C871 H877 0.959 . S
C871 H878 0.961 . S
C871 H879 0.960 . S
C872 C870 1.381 . S
C872 C873 1.394 . S
C872 H880 0.930 . S
C873 C872 1.394 . S
C873 C874 1.383 . S
C873 H881 0.929 . S
C874 C873 1.383 . S
C874 C875 1.377 . S
C875 H859 0.930 . S
C875 C874 1.377 . S
C875 C876 1.379 . S
C876 H860 0.931 . S
C876 C870 1.383 . S
C876 C875 1.379 . S
H877 C871 0.959 . S
H878 C871 0.961 . S
H879 C871 0.960 . S
H880 C872 0.930 . S
H881 C873 0.929 . S
H882 C890 0.929 . S
H883 C892 0.930 . S
H884 C894 0.930 . S
H885 C897 0.929 . S
H886 C900 0.930 . S
H887 C902 0.960 . S
H888 C902 0.960 . S
H889 C902 0.960 . S
C890 H882 0.929 . S
C890 C891 1.377 . S
C890 C892 1.384 . S
C891 C890 1.377 . S
C891 C897 1.390 . S
C892 H883 0.930 . S
C892 C890 1.384 . S
C892 C893 1.372 . S
C893 C892 1.372 . S
C893 C894 1.400 . S
C893 C898 1.490 . S
C894 H884 0.930 . S
C894 C893 1.400 . S
C894 C897 1.386 . S
H895 C911 0.930 . S
H896 C912 0.931 . S
C897 H885 0.929 . S
C897 C891 1.390 . S
C897 C894 1.386 . S
C898 C893 1.490 . S
C898 C900 1.395 . S
C898 C901 1.403 . S
H899 C905 0.930 . S
C900 H886 0.930 . S
C900 C898 1.395 . S
C900 C903 1.403 . S
C901 C898 1.403 . S
C901 C902 1.524 . S
C901 C905 1.400 . S
C902 H887 0.960 . S
C902 H888 0.960 . S
C902 H889 0.960 . S
C902 C901 1.524 . S
C903 C900 1.403 . S
C903 C904 1.392 . S
C903 C907 1.495 . S
C904 C903 1.392 . S
C904 C905 1.385 . S
C904 C906 1.478 . S
C905 H899 0.930 . S
C905 C901 1.400 . S
C905 C904 1.385 . S
C906 C904 1.478 . S
C906 C908 1.381 . S
C906 C912 1.383 . S
C907 C903 1.495 . S
C907 H913 0.959 . S
C907 H914 0.961 . S
C907 H915 0.960 . S
C908 C906 1.381 . S
C908 C909 1.394 . S
C908 H916 0.930 . S
C909 C908 1.394 . S
C909 C910 1.383 . S
C909 H917 0.929 . S
C910 C909 1.383 . S
C910 C911 1.377 . S
C911 H895 0.930 . S
C911 C910 1.377 . S
C911 C912 1.379 . S
C912 H896 0.931 . S
C912 C906 1.383 . S
C912 C911 1.379 . S
H913 C907 0.959 . S
H914 C907 0.961 . S
H915 C907 0.960 . S
H916 C908 0.930 . S
H917 C909 0.929 . S
H918 C926 0.929 . S
H919 C928 0.930 . S
H920 C930 0.930 . S
H921 C933 0.929 . S
H922 C936 0.930 . S
H923 C938 0.960 . S
H924 C938 0.960 . S
H925 C938 0.960 . S
C926 H918 0.929 . S
C926 C927 1.377 . S
C926 C928 1.384 . S
C927 C926 1.377 . S
C927 C933 1.390 . S
C928 H919 0.930 . S
C928 C926 1.384 . S
C928 C929 1.372 . S
C929 C928 1.372 . S
C929 C930 1.400 . S
C929 C934 1.490 . S
C930 H920 0.930 . S
C930 C929 1.400 . S
C930 C933 1.386 . S
H931 C947 0.930 . S
H932 C948 0.931 . S
C933 H921 0.929 . S
C933 C927 1.390 . S
C933 C930 1.386 . S
C934 C929 1.490 . S
C934 C936 1.395 . S
C934 C937 1.403 . S
H935 C941 0.930 . S
C936 H922 0.930 . S
C936 C934 1.395 . S
C936 C939 1.403 . S
C937 C934 1.403 . S
C937 C938 1.524 . S
C937 C941 1.400 . S
C938 H923 0.960 . S
C938 H924 0.960 . S
C938 H925 0.960 . S
C938 C937 1.524 . S
C939 C936 1.403 . S
C939 C940 1.392 . S
C939 C943 1.495 . S
C940 C939 1.392 . S
C940 C941 1.385 . S
C940 C942 1.478 . S
C941 H935 0.930 . S
C941 C937 1.400 . S
C941 C940 1.385 . S
C942 C940 1.478 . S
C942 C944 1.381 . S
C942 C948 1.383 . S
C943 C939 1.495 . S
C943 H949 0.959 . S
C943 H950 0.961 . S
C943 H951 0.960 . S
C944 C942 1.381 . S
C944 C945 1.394 . S
C944 H952 0.930 . S
C945 C944 1.394 . S
C945 C946 1.383 . S
C945 H953 0.929 . S
C946 C945 1.383 . S
C946 C947 1.377 . S
C947 H931 0.930 . S
C947 C946 1.377 . S
C947 C948 1.379 . S
C948 H932 0.931 . S
C948 C942 1.383 . S
C948 C947 1.379 . S
H949 C943 0.959 . S
H950 C943 0.961 . S
H951 C943 0.960 . S
H952 C944 0.930 . S
H953 C945 0.929 . S
H954 C962 0.929 . S
H955 C964 0.930 . S
H956 C966 0.930 . S
H957 C969 0.929 . S
H958 C972 0.930 . S
H959 C974 0.960 . S
H960 C974 0.960 . S
H961 C974 0.960 . S
C962 H954 0.929 . S
C962 C963 1.377 . S
C962 C964 1.384 . S
C963 C962 1.377 . S
C963 C969 1.390 . S
C964 H955 0.930 . S
C964 C962 1.384 . S
C964 C965 1.372 . S
C965 C964 1.372 . S
C965 C966 1.400 . S
C965 C970 1.490 . S
C966 H956 0.930 . S
C966 C965 1.400 . S
C966 C969 1.386 . S
H967 C983 0.930 . S
H968 C984 0.931 . S
C969 H957 0.929 . S
C969 C963 1.390 . S
C969 C966 1.386 . S
C970 C965 1.490 . S
C970 C972 1.395 . S
C970 C973 1.403 . S
H971 C977 0.930 . S
C972 H958 0.930 . S
C972 C970 1.395 . S
C972 C975 1.403 . S
C973 C970 1.403 . S
C973 C974 1.524 . S
C973 C977 1.400 . S
C974 H959 0.960 . S
C974 H960 0.960 . S
C974 H961 0.960 . S
C974 C973 1.524 . S
C975 C972 1.403 . S
C975 C976 1.392 . S
C975 C979 1.495 . S
C976 C975 1.392 . S
C976 C977 1.385 . S
C976 C978 1.478 . S
C977 H971 0.930 . S
C977 C973 1.400 . S
C977 C976 1.385 . S
C978 C976 1.478 . S
C978 C980 1.381 . S
C978 C984 1.383 . S
C979 C975 1.495 . S
C979 H985 0.959 . S
C979 H986 0.961 . S
C979 H987 0.960 . S
C980 C978 1.381 . S
C980 C981 1.394 . S
C980 H988 0.930 . S
C981 C980 1.394 . S
C981 C982 1.383 . S
C981 H989 0.929 . S
C982 C981 1.383 . S
C982 C983 1.377 . S
C983 H967 0.930 . S
C983 C982 1.377 . S
C983 C984 1.379 . S
C984 H968 0.931 . S
C984 C978 1.383 . S
C984 C983 1.379 . S
H985 C979 0.959 . S
H986 C979 0.961 . S
H987 C979 0.960 . S
H988 C980 0.930 . S
H989 C981 0.929 . S
H990 C998 0.929 . S
H991 C1000 0.930 . S
H992 C1002 0.930 . S
H993 C1005 0.929 . S
H994 C1008 0.930 . S
H995 C1010 0.960 . S
H996 C1010 0.960 . S
H997 C1010 0.960 . S
C998 H990 0.929 . S
C998 C999 1.377 . S
C998 C1000 1.384 . S
C999 C998 1.377 . S
C999 C1005 1.390 . S
C1000 H991 0.930 . S
C1000 C998 1.384 . S
C1000 C1001 1.372 . S
C1001 C1000 1.372 . S
C1001 C1002 1.400 . S
C1001 C1006 1.490 . S
C1002 H992 0.930 . S
C1002 C1001 1.400 . S
C1002 C1005 1.386 . S
H1003 C1019 0.930 . S
H1004 C1020 0.931 . S
C1005 H993 0.929 . S
C1005 C999 1.390 . S
C1005 C1002 1.386 . S
C1006 C1001 1.490 . S
C1006 C1008 1.395 . S
C1006 C1009 1.403 . S
H1007 C1013 0.930 . S
C1008 H994 0.930 . S
C1008 C1006 1.395 . S
C1008 C1011 1.403 . S
C1009 C1006 1.403 . S
C1009 C1010 1.524 . S
C1009 C1013 1.400 . S
C1010 H995 0.960 . S
C1010 H996 0.960 . S
C1010 H997 0.960 . S
C1010 C1009 1.524 . S
C1011 C1008 1.403 . S
C1011 C1012 1.392 . S
C1011 C1015 1.495 . S
C1012 C1011 1.392 . S
C1012 C1013 1.385 . S
C1012 C1014 1.478 . S
C1013 H1007 0.930 . S
C1013 C1009 1.400 . S
C1013 C1012 1.385 . S
C1014 C1012 1.478 . S
C1014 C1016 1.381 . S
C1014 C1020 1.383 . S
C1015 C1011 1.495 . S
C1015 H1021 0.959 . S
C1015 H1022 0.961 . S
C1015 H1023 0.960 . S
C1016 C1014 1.381 . S
C1016 C1017 1.394 . S
C1016 H1024 0.930 . S
C1017 C1016 1.394 . S
C1017 C1018 1.383 . S
C1017 H1025 0.929 . S
C1018 C1017 1.383 . S
C1018 C1019 1.377 . S
C1019 H1003 0.930 . S
C1019 C1018 1.377 . S
C1019 C1020 1.379 . S
C1020 H1004 0.931 . S
C1020 C1014 1.383 . S
C1020 C1019 1.379 . S
H1021 C1015 0.959 . S
H1022 C1015 0.961 . S
H1023 C1015 0.960 . S
H1024 C1016 0.930 . S
H1025 C1017 0.929 . S
H1026 C1034 0.929 . S
H1027 C1036 0.930 . S
H1028 C1038 0.930 . S
H1029 C1041 0.929 . S
H1030 C1044 0.930 . S
H1031 C1046 0.960 . S
H1032 C1046 0.960 . S
H1033 C1046 0.960 . S
C1034 H1026 0.929 . S
C1034 C1035 1.377 . S
C1034 C1036 1.384 . S
C1035 C1034 1.377 . S
C1035 C1041 1.390 . S
C1036 H1027 0.930 . S
C1036 C1034 1.384 . S
C1036 C1037 1.372 . S
C1037 C1036 1.372 . S
C1037 C1038 1.400 . S
C1037 C1042 1.490 . S
C1038 H1028 0.930 . S
C1038 C1037 1.400 . S
C1038 C1041 1.386 . S
H1039 C1055 0.930 . S
H1040 C1056 0.931 . S
C1041 H1029 0.929 . S
C1041 C1035 1.390 . S
C1041 C1038 1.386 . S
C1042 C1037 1.490 . S
C1042 C1044 1.395 . S
C1042 C1045 1.403 . S
H1043 C1049 0.930 . S
C1044 H1030 0.930 . S
C1044 C1042 1.395 . S
C1044 C1047 1.403 . S
C1045 C1042 1.403 . S
C1045 C1046 1.524 . S
C1045 C1049 1.400 . S
C1046 H1031 0.960 . S
C1046 H1032 0.960 . S
C1046 H1033 0.960 . S
C1046 C1045 1.524 . S
C1047 C1044 1.403 . S
C1047 C1048 1.392 . S
C1047 C1051 1.495 . S
C1048 C1047 1.392 . S
C1048 C1049 1.385 . S
C1048 C1050 1.478 . S
C1049 H1043 0.930 . S
C1049 C1045 1.400 . S
C1049 C1048 1.385 . S
C1050 C1048 1.478 . S
C1050 C1052 1.381 . S
C1050 C1056 1.383 . S
C1051 C1047 1.495 . S
C1051 H1057 0.959 . S
C1051 H1058 0.961 . S
C1051 H1059 0.960 . S
C1052 C1050 1.381 . S
C1052 C1053 1.394 . S
C1052 H1060 0.930 . S
C1053 C1052 1.394 . S
C1053 C1054 1.383 . S
C1053 H1061 0.929 . S
C1054 C1053 1.383 . S
C1054 C1055 1.377 . S
C1055 H1039 0.930 . S
C1055 C1054 1.377 . S
C1055 C1056 1.379 . S
C1056 H1040 0.931 . S
C1056 C1050 1.383 . S
C1056 C1055 1.379 . S
H1057 C1051 0.959 . S
H1058 C1051 0.961 . S
H1059 C1051 0.960 . S
H1060 C1052 0.930 . S
H1061 C1053 0.929 . S
H1062 C1070 0.929 . S
H1063 C1072 0.930 . S
H1064 C1074 0.930 . S
H1065 C1077 0.929 . S
H1066 C1080 0.930 . S
H1067 C1082 0.960 . S
H1068 C1082 0.960 . S
H1069 C1082 0.960 . S
C1070 H1062 0.929 . S
C1070 C1071 1.377 . S
C1070 C1072 1.384 . S
C1071 C1070 1.377 . S
C1071 C1077 1.390 . S
C1072 H1063 0.930 . S
C1072 C1070 1.384 . S
C1072 C1073 1.372 . S
C1073 C1072 1.372 . S
C1073 C1074 1.400 . S
C1073 C1078 1.490 . S
C1074 H1064 0.930 . S
C1074 C1073 1.400 . S
C1074 C1077 1.386 . S
H1075 C1091 0.930 . S
H1076 C1092 0.931 . S
C1077 H1065 0.929 . S
C1077 C1071 1.390 . S
C1077 C1074 1.386 . S
C1078 C1073 1.490 . S
C1078 C1080 1.395 . S
C1078 C1081 1.403 . S
H1079 C1085 0.930 . S
C1080 H1066 0.930 . S
C1080 C1078 1.395 . S
C1080 C1083 1.403 . S
C1081 C1078 1.403 . S
C1081 C1082 1.524 . S
C1081 C1085 1.400 . S
C1082 H1067 0.960 . S
C1082 H1068 0.960 . S
C1082 H1069 0.960 . S
C1082 C1081 1.524 . S
C1083 C1080 1.403 . S
C1083 C1084 1.392 . S
C1083 C1087 1.495 . S
C1084 C1083 1.392 . S
C1084 C1085 1.385 . S
C1084 C1086 1.478 . S
C1085 H1079 0.930 . S
C1085 C1081 1.400 . S
C1085 C1084 1.385 . S
C1086 C1084 1.478 . S
C1086 C1088 1.381 . S
C1086 C1092 1.383 . S
C1087 C1083 1.495 . S
C1087 H1093 0.959 . S
C1087 H1094 0.961 . S
C1087 H1095 0.960 . S
C1088 C1086 1.381 . S
C1088 C1089 1.394 . S
C1088 H1096 0.930 . S
C1089 C1088 1.394 . S
C1089 C1090 1.383 . S
C1089 H1097 0.929 . S
C1090 C1089 1.383 . S
C1090 C1091 1.377 . S
C1091 H1075 0.930 . S
C1091 C1090 1.377 . S
C1091 C1092 1.379 . S
C1092 H1076 0.931 . S
C1092 C1086 1.383 . S
C1092 C1091 1.379 . S
H1093 C1087 0.959 . S
H1094 C1087 0.961 . S
H1095 C1087 0.960 . S
H1096 C1088 0.930 . S
H1097 C1089 0.929 . S
H1098 C1106 0.929 . S
H1099 C1108 0.930 . S
H1100 C1110 0.930 . S
H1101 C1113 0.929 . S
H1102 C1116 0.930 . S
H1103 C1118 0.960 . S
H1104 C1118 0.960 . S
H1105 C1118 0.960 . S
C1106 H1098 0.929 . S
C1106 C1107 1.377 . S
C1106 C1108 1.384 . S
C1107 C1106 1.377 . S
C1107 C1113 1.390 . S
C1108 H1099 0.930 . S
C1108 C1106 1.384 . S
C1108 C1109 1.372 . S
C1109 C1108 1.372 . S
C1109 C1110 1.400 . S
C1109 C1114 1.490 . S
C1110 H1100 0.930 . S
C1110 C1109 1.400 . S
C1110 C1113 1.386 . S
H1111 C1127 0.930 . S
H1112 C1128 0.931 . S
C1113 H1101 0.929 . S
C1113 C1107 1.390 . S
C1113 C1110 1.386 . S
C1114 C1109 1.490 . S
C1114 C1116 1.395 . S
C1114 C1117 1.403 . S
H1115 C1121 0.930 . S
C1116 H1102 0.930 . S
C1116 C1114 1.395 . S
C1116 C1119 1.403 . S
C1117 C1114 1.403 . S
C1117 C1118 1.524 . S
C1117 C1121 1.400 . S
C1118 H1103 0.960 . S
C1118 H1104 0.960 . S
C1118 H1105 0.960 . S
C1118 C1117 1.524 . S
C1119 C1116 1.403 . S
C1119 C1120 1.392 . S
C1119 C1123 1.495 . S
C1120 C1119 1.392 . S
C1120 C1121 1.385 . S
C1120 C1122 1.478 . S
C1121 H1115 0.930 . S
C1121 C1117 1.400 . S
C1121 C1120 1.385 . S
C1122 C1120 1.478 . S
C1122 C1124 1.381 . S
C1122 C1128 1.383 . S
C1123 C1119 1.495 . S
C1123 H1129 0.959 . S
C1123 H1130 0.961 . S
C1123 H1131 0.960 . S
C1124 C1122 1.381 . S
C1124 C1125 1.394 . S
C1124 H1132 0.930 . S
C1125 C1124 1.394 . S
C1125 C1126 1.383 . S
C1125 H1133 0.929 . S
C1126 C1125 1.383 . S
C1126 C1127 1.377 . S
C1127 H1111 0.930 . S
C1127 C1126 1.377 . S
C1127 C1128 1.379 . S
C1128 H1112 0.931 . S
C1128 C1122 1.383 . S
C1128 C1127 1.379 . S
H1129 C1123 0.959 . S
H1130 C1123 0.961 . S
H1131 C1123 0.960 . S
H1132 C1124 0.930 . S
H1133 C1125 0.929 . S
H1134 C1142 0.929 . S
H1135 C1144 0.930 . S
H1136 C1146 0.930 . S
H1137 C1149 0.929 . S
H1138 C1152 0.930 . S
H1139 C1154 0.960 . S
H1140 C1154 0.960 . S
H1141 C1154 0.960 . S
C1142 H1134 0.929 . S
C1142 C1143 1.377 . S
C1142 C1144 1.384 . S
C1143 C1142 1.377 . S
C1143 C1149 1.390 . S
C1144 H1135 0.930 . S
C1144 C1142 1.384 . S
C1144 C1145 1.372 . S
C1145 C1144 1.372 . S
C1145 C1146 1.400 . S
C1145 C1150 1.490 . S
C1146 H1136 0.930 . S
C1146 C1145 1.400 . S
C1146 C1149 1.386 . S
H1147 C1163 0.930 . S
H1148 C1164 0.931 . S
C1149 H1137 0.929 . S
C1149 C1143 1.390 . S
C1149 C1146 1.386 . S
C1150 C1145 1.490 . S
C1150 C1152 1.395 . S
C1150 C1153 1.403 . S
H1151 C1157 0.930 . S
C1152 H1138 0.930 . S
C1152 C1150 1.395 . S
C1152 C1155 1.403 . S
C1153 C1150 1.403 . S
C1153 C1154 1.524 . S
C1153 C1157 1.400 . S
C1154 H1139 0.960 . S
C1154 H1140 0.960 . S
C1154 H1141 0.960 . S
C1154 C1153 1.524 . S
C1155 C1152 1.403 . S
C1155 C1156 1.392 . S
C1155 C1159 1.495 . S
C1156 C1155 1.392 . S
C1156 C1157 1.385 . S
C1156 C1158 1.478 . S
C1157 H1151 0.930 . S
C1157 C1153 1.400 . S
C1157 C1156 1.385 . S
C1158 C1156 1.478 . S
C1158 C1160 1.381 . S
C1158 C1164 1.383 . S
C1159 C1155 1.495 . S
C1159 H1165 0.959 . S
C1159 H1166 0.961 . S
C1159 H1167 0.960 . S
C1160 C1158 1.381 . S
C1160 C1161 1.394 . S
C1160 H1168 0.930 . S
C1161 C1160 1.394 . S
C1161 C1162 1.383 . S
C1161 H1169 0.929 . S
C1162 C1161 1.383 . S
C1162 C1163 1.377 . S
C1163 H1147 0.930 . S
C1163 C1162 1.377 . S
C1163 C1164 1.379 . S
C1164 H1148 0.931 . S
C1164 C1158 1.383 . S
C1164 C1163 1.379 . S
H1165 C1159 0.959 . S
H1166 C1159 0.961 . S
H1167 C1159 0.960 . S
H1168 C1160 0.930 . S
H1169 C1161 0.929 . S
H1170 C1178 0.929 . S
H1171 C1180 0.930 . S
H1172 C1182 0.930 . S
H1173 C1185 0.929 . S
H1174 C1188 0.930 . S
H1175 C1190 0.960 . S
H1176 C1190 0.960 . S
H1177 C1190 0.960 . S
C1178 H1170 0.929 . S
C1178 C1179 1.377 . S
C1178 C1180 1.384 . S
C1179 C1178 1.377 . S
C1179 C1185 1.390 . S
C1180 H1171 0.930 . S
C1180 C1178 1.384 . S
C1180 C1181 1.372 . S
C1181 C1180 1.372 . S
C1181 C1182 1.400 . S
C1181 C1186 1.490 . S
C1182 H1172 0.930 . S
C1182 C1181 1.400 . S
C1182 C1185 1.386 . S
H1183 C1199 0.930 . S
H1184 C1200 0.931 . S
C1185 H1173 0.929 . S
C1185 C1179 1.390 . S
C1185 C1182 1.386 . S
C1186 C1181 1.490 . S
C1186 C1188 1.395 . S
C1186 C1189 1.403 . S
H1187 C1193 0.930 . S
C1188 H1174 0.930 . S
C1188 C1186 1.395 . S
C1188 C1191 1.403 . S
C1189 C1186 1.403 . S
C1189 C1190 1.524 . S
C1189 C1193 1.400 . S
C1190 H1175 0.960 . S
C1190 H1176 0.960 . S
C1190 H1177 0.960 . S
C1190 C1189 1.524 . S
C1191 C1188 1.403 . S
C1191 C1192 1.392 . S
C1191 C1195 1.495 . S
C1192 C1191 1.392 . S
C1192 C1193 1.385 . S
C1192 C1194 1.478 . S
C1193 H1187 0.930 . S
C1193 C1189 1.400 . S
C1193 C1192 1.385 . S
C1194 C1192 1.478 . S
C1194 C1196 1.381 . S
C1194 C1200 1.383 . S
C1195 C1191 1.495 . S
C1195 H1201 0.959 . S
C1195 H1202 0.961 . S
C1195 H1203 0.960 . S
C1196 C1194 1.381 . S
C1196 C1197 1.394 . S
C1196 H1204 0.930 . S
C1197 C1196 1.394 . S
C1197 C1198 1.383 . S
C1197 H1205 0.929 . S
C1198 C1197 1.383 . S
C1198 C1199 1.377 . S
C1199 H1183 0.930 . S
C1199 C1198 1.377 . S
C1199 C1200 1.379 . S
C1200 H1184 0.931 . S
C1200 C1194 1.383 . S
C1200 C1199 1.379 . S
H1201 C1195 0.959 . S
H1202 C1195 0.961 . S
H1203 C1195 0.960 . S
H1204 C1196 0.930 . S
H1205 C1197 0.929 . S
H1206 C1214 0.929 . S
H1207 C1216 0.930 . S
H1208 C1218 0.930 . S
H1209 C1221 0.929 . S
H1210 C1224 0.930 . S
H1211 C1226 0.960 . S
H1212 C1226 0.960 . S
H1213 C1226 0.960 . S
C1214 H1206 0.929 . S
C1214 C1215 1.377 . S
C1214 C1216 1.384 . S
C1215 C1214 1.377 . S
C1215 C1221 1.390 . S
C1216 H1207 0.930 . S
C1216 C1214 1.384 . S
C1216 C1217 1.372 . S
C1217 C1216 1.372 . S
C1217 C1218 1.400 . S
C1217 C1222 1.490 . S
C1218 H1208 0.930 . S
C1218 C1217 1.400 . S
C1218 C1221 1.386 . S
H1219 C1235 0.930 . S
H1220 C1236 0.931 . S
C1221 H1209 0.929 . S
C1221 C1215 1.390 . S
C1221 C1218 1.386 . S
C1222 C1217 1.490 . S
C1222 C1224 1.395 . S
C1222 C1225 1.403 . S
H1223 C1229 0.930 . S
C1224 H1210 0.930 . S
C1224 C1222 1.395 . S
C1224 C1227 1.403 . S
C1225 C1222 1.403 . S
C1225 C1226 1.524 . S
C1225 C1229 1.400 . S
C1226 H1211 0.960 . S
C1226 H1212 0.960 . S
C1226 H1213 0.960 . S
C1226 C1225 1.524 . S
C1227 C1224 1.403 . S
C1227 C1228 1.392 . S
C1227 C1231 1.495 . S
C1228 C1227 1.392 . S
C1228 C1229 1.385 . S
C1228 C1230 1.478 . S
C1229 H1223 0.930 . S
C1229 C1225 1.400 . S
C1229 C1228 1.385 . S
C1230 C1228 1.478 . S
C1230 C1232 1.381 . S
C1230 C1236 1.383 . S
C1231 C1227 1.495 . S
C1231 H1237 0.959 . S
C1231 H1238 0.961 . S
C1231 H1239 0.960 . S
C1232 C1230 1.381 . S
C1232 C1233 1.394 . S
C1232 H1240 0.930 . S
C1233 C1232 1.394 . S
C1233 C1234 1.383 . S
C1233 H1241 0.929 . S
C1234 C1233 1.383 . S
C1234 C1235 1.377 . S
C1235 H1219 0.930 . S
C1235 C1234 1.377 . S
C1235 C1236 1.379 . S
C1236 H1220 0.931 . S
C1236 C1230 1.383 . S
C1236 C1235 1.379 . S
H1237 C1231 0.959 . S
H1238 C1231 0.961 . S
H1239 C1231 0.960 . S
H1240 C1232 0.930 . S
H1241 C1233 0.929 . S
H1242 C1250 0.929 . S
H1243 C1252 0.930 . S
H1244 C1254 0.930 . S
H1245 C1257 0.929 . S
H1246 C1260 0.930 . S
H1247 C1262 0.960 . S
H1248 C1262 0.960 . S
H1249 C1262 0.960 . S
C1250 H1242 0.929 . S
C1250 C1251 1.377 . S
C1250 C1252 1.384 . S
C1251 C1250 1.377 . S
C1251 C1257 1.390 . S
C1252 H1243 0.930 . S
C1252 C1250 1.384 . S
C1252 C1253 1.372 . S
C1253 C1252 1.372 . S
C1253 C1254 1.400 . S
C1253 C1258 1.490 . S
C1254 H1244 0.930 . S
C1254 C1253 1.400 . S
C1254 C1257 1.386 . S
H1255 C1271 0.930 . S
H1256 C1272 0.931 . S
C1257 H1245 0.929 . S
C1257 C1251 1.390 . S
C1257 C1254 1.386 . S
C1258 C1253 1.490 . S
C1258 C1260 1.395 . S
C1258 C1261 1.403 . S
H1259 C1265 0.930 . S
C1260 H1246 0.930 . S
C1260 C1258 1.395 . S
C1260 C1263 1.403 . S
C1261 C1258 1.403 . S
C1261 C1262 1.524 . S
C1261 C1265 1.400 . S
C1262 H1247 0.960 . S
C1262 H1248 0.960 . S
C1262 H1249 0.960 . S
C1262 C1261 1.524 . S
C1263 C1260 1.403 . S
C1263 C1264 1.392 . S
C1263 C1267 1.495 . S
C1264 C1263 1.392 . S
C1264 C1265 1.385 . S
C1264 C1266 1.478 . S
C1265 H1259 0.930 . S
C1265 C1261 1.400 . S
C1265 C1264 1.385 . S
C1266 C1264 1.478 . S
C1266 C1268 1.381 . S
C1266 C1272 1.383 . S
C1267 C1263 1.495 . S
C1267 H1273 0.959 . S
C1267 H1274 0.961 . S
C1267 H1275 0.960 . S
C1268 C1266 1.381 . S
C1268 C1269 1.394 . S
C1268 H1276 0.930 . S
C1269 C1268 1.394 . S
C1269 C1270 1.383 . S
C1269 H1277 0.929 . S
C1270 C1269 1.383 . S
C1270 C1271 1.377 . S
C1271 H1255 0.930 . S
C1271 C1270 1.377 . S
C1271 C1272 1.379 . S
C1272 H1256 0.931 . S
C1272 C1266 1.383 . S
C1272 C1271 1.379 . S
H1273 C1267 0.959 . S
H1274 C1267 0.961 . S
H1275 C1267 0.960 . S
H1276 C1268 0.930 . S
H1277 C1269 0.929 . S
C423 C7 1.869 . S
C442 C160 1.862 . S
C459 C30 1.641 . S
C478 C199 1.624 . S
C514 C231 1.713 . S
C495 N58 1.702 . S
C550 C277 1.495 . S
C531 N81 1.470 . S
C586 C344 1.751 . S
C567 C99 1.776 . S
C622 C383 1.507 . S
C603 N127 1.494 . S
C639 N25 1.709 . S
C658 C245 1.723 . S
C675 C62 1.628 . S
C694 C291 1.626 . S
C730 C330 1.775 . S
C711 C85 1.806 . S
C766 C369 1.530 . S
C747 N94 1.509 . S
C783 C131 1.814 . S
C802 C146 1.785 . S
C838 C185 1.509 . S
C819 N2 1.487 . S
C874 C284 1.790 . S
C855 C16 1.811 . S
C891 C39 1.602 . S
C910 C337 1.599 . S
C946 C390 1.701 . S
C927 N48 1.694 . S
C963 N71 1.467 . S
C982 C153 1.490 . S
C999 C108 1.784 . S
C1018 C206 1.779 . S
C1035 N117 1.486 . S
C1054 C238 1.526 . S
C1071 N35 1.701 . S
C1090 C376 1.741 . S
C1126 C139 1.626 . S
C1107 C53 1.641 . S
C1143 C76 1.852 . S
C1162 C192 1.846 . S
C1179 N104 1.488 . S
C1198 C252 1.511 . S
C1215 C122 1.769 . S
C1234 C298 1.728 . S
C1251 N12 1.452 . S
C1270 C323 1.472 . S
