# Generated by pormake.
# Topology ftw, (4,12)-cn, num edge types: 1
# Building blocks:
#     Node 0, Type 0, BuildingBlock: AZAVOO_clean_linker_0, # of connection points: 4
#     Node 1, Type 0, BuildingBlock: AZAVOO_clean_linker_0, # of connection points: 4
#     Node 2, Type 0, BuildingBlock: AZAVOO_clean_linker_0, # of connection points: 4
#     Node 3, Type 1, BuildingBlock: QEWDON_clean_sbu_0, # of connection points: 12
#     Edge 4, Type (0, 1), BuildingBlock: AJUNOK_clean_linker_0, # of connection points: 2
#     Edge 5, Type (0, 1), BuildingBlock: AJUNOK_clean_linker_0, # of connection points: 2
#     Edge 6, Type (0, 1), BuildingBlock: AJUNOK_clean_linker_0, # of connection points: 2
#     Edge 7, Type (0, 1), BuildingBlock: AJUNOK_clean_linker_0, # of connection points: 2
#     Edge 8, Type (0, 1), BuildingBlock: AJUNOK_clean_linker_0, # of connection points: 2
#     Edge 9, Type (0, 1), BuildingBlock: AJUNOK_clean_linker_0, # of connection points: 2
#     Edge 10, Type (0, 1), BuildingBlock: AJUNOK_clean_linker_0, # of connection points: 2
#     Edge 11, Type (0, 1), BuildingBlock: AJUNOK_clean_linker_0, # of connection points: 2
#     Edge 12, Type (0, 1), BuildingBlock: AJUNOK_clean_linker_0, # of connection points: 2
#     Edge 13, Type (0, 1), BuildingBlock: AJUNOK_clean_linker_0, # of connection points: 2
#     Edge 14, Type (0, 1), BuildingBlock: AJUNOK_clean_linker_0, # of connection points: 2
#     Edge 15, Type (0, 1), BuildingBlock: AJUNOK_clean_linker_0, # of connection points: 2
# Relax obj value: 0.085
# Max RMSD: 0.222
# Mean RMSD: 0.193
data_MOF--net-ftw--node1-QEWDON_clean_sbu_0--node2-AZAVOO_clean_linker_0--edge1-AJUNOK_clean_linker_0
_symmetry_space_group_name_H-M    P1
_symmetry_Int_Tables_number       1
_symmetry_cell_setting            triclinic
loop_
_symmetry_equiv_pos_as_xyz
'x, y, z'
_cell_length_a     22.557743
_cell_length_b     22.343477
_cell_length_c     23.01431
_cell_angle_alpha  91.261241
_cell_angle_beta   88.349533
_cell_angle_gamma 92.269918
loop_
_atom_site_label
_atom_site_type_symbol
_atom_site_fract_x
_atom_site_fract_y
_atom_site_fract_z
_atom_type_partial_charge
H0 H 0.02107 0.09592 0.44705 0.0
H1 H 0.93727 0.55652 0.90624 0.0
H2 H 0.08662 0.42236 0.40981 0.0
H3 H 0.0843 0.358 0.32234 0.0
H4 H 0.90397 0.40601 0.29495 0.0
H5 H 0.90601 0.46922 0.38342 0.0
H6 H 0.07671 0.34521 0.51618 0.0
H7 H 0.07075 0.23798 0.49129 0.0
H8 H 0.88902 0.25449 0.44089 0.0
H9 H 0.8958 0.36154 0.46536 0.0
H10 H 0.07754 0.41037 0.63794 0.0
H11 H 0.07543 0.33129 0.71088 0.0
H12 H 0.89116 0.29049 0.67558 0.0
H13 H 0.8941 0.36825 0.60207 0.0
H14 H 0.07366 0.55911 0.64495 0.0
H15 H 0.07411 0.58521 0.74883 0.0
H16 H 0.89516 0.51015 0.76858 0.0
H17 H 0.89495 0.48533 0.66454 0.0
H18 H 0.06699 0.63813 0.53519 0.0
H19 H 0.06967 0.73022 0.59506 0.0
H20 H 0.89091 0.6883 0.6581 0.0
H21 H 0.88765 0.59851 0.59602 0.0
H22 H 0.07132 0.5611 0.39877 0.0
H23 H 0.0693 0.63606 0.32317 0.0
H24 H 0.89497 0.68538 0.38448 0.0
H25 H 0.89651 0.60851 0.45922 0.0
O26 O 0.02267 0.13839 0.45639 0.0
O27 O 0.92973 0.14967 0.43017 0.0
O28 O 0.0283 0.58952 0.85182 0.0
O29 O 0.93774 0.54811 0.8648 0.0
C30 C -0.00897 0.47026 0.46536 0.0
C31 C 0.98949 0.42578 0.50888 0.0
C32 C 0.98738 0.44217 0.56841 0.0
C33 C 0.98468 0.50329 0.58449 0.0
C34 C 0.9821 0.54797 0.54136 0.0
C35 C 0.98571 0.53183 0.48118 0.0
C36 C -0.0038 0.44991 0.40345 0.0
C37 C 0.04741 0.42093 0.38364 0.0
C38 C 0.04607 0.38418 0.33366 0.0
C39 C -0.00644 0.37612 0.30268 0.0
C40 C 0.94472 0.41082 0.31869 0.0
C41 C 0.94596 0.44734 0.36888 0.0
C42 C 0.98683 0.36111 0.49216 0.0
C43 C 0.03582 0.32556 0.49944 0.0
C44 C 0.03224 0.26436 0.48523 0.0
C45 C 0.97947 0.23771 0.46378 0.0
C46 C 0.93046 0.27363 0.45681 0.0
C47 C 0.93421 0.33479 0.4707 0.0
C48 C 0.98613 0.39491 0.61401 0.0
C49 C 0.03676 0.38425 0.64593 0.0
C50 C 0.03542 0.3392 0.68778 0.0
C51 C 0.9834 0.30371 0.69858 0.0
C52 C 0.93245 0.31568 0.66743 0.0
C53 C 0.93391 0.36041 0.62553 0.0
C54 C 0.98431 0.52032 0.6473 0.0
C55 C 0.03449 0.54874 0.67175 0.0
C56 C 0.03467 0.56343 0.7311 0.0
C57 C 0.98472 0.54953 0.76708 0.0
C58 C 0.9344 0.52133 0.74221 0.0
C59 C 0.93418 0.50701 0.68283 0.0
C60 C 0.97722 0.61144 0.56136 0.0
C61 C 0.02742 0.65047 0.55967 0.0
C62 C 0.02908 0.70267 0.59451 0.0
C63 C 0.9807 0.71646 0.6319 0.0
C64 C 0.92858 0.67994 0.62929 0.0
C65 C 0.9267 0.6283 0.59387 0.0
C66 C 0.98414 0.5787 0.43512 0.0
C67 C 0.03233 0.58753 0.39579 0.0
C68 C 0.03117 0.63083 0.35256 0.0
C69 C 0.98182 0.66701 0.34715 0.0
C70 C 0.93332 0.65793 0.38639 0.0
C71 C 0.9345 0.61437 0.42976 0.0
C72 C 0.97557 0.17267 0.44903 0.0
C73 C 0.9851 0.56379 0.83037 0.0
H74 H 0.54562 0.94621 0.12139 0.0
H75 H 0.08192 0.0649 0.54129 0.0
H76 H 0.58841 0.90452 0.4691 0.0
H77 H 0.67877 0.89316 0.41029 0.0
H78 H 0.69905 0.0854 0.397 0.0
H79 H 0.61121 0.09668 0.46122 0.0
H80 H 0.48027 0.90985 0.36644 0.0
H81 H 0.50335 0.907 0.26185 0.0
H82 H 0.56318 0.09316 0.27126 0.0
H83 H 0.53866 0.09572 0.37542 0.0
H84 H 0.34073 0.92058 0.42752 0.0
H85 H 0.26466 0.92497 0.35358 0.0
H86 H 0.34408 0.0932 0.2958 0.0
H87 H 0.41495 0.09192 0.3735 0.0
H88 H 0.33292 0.91759 0.55247 0.0
H89 H 0.22496 0.91914 0.56562 0.0
H90 H 0.23008 0.1048 0.51581 0.0
H91 H 0.33809 0.10273 0.50324 0.0
H92 H 0.43398 0.90768 0.62328 0.0
H93 H 0.36896 0.89889 0.71053 0.0
H94 H 0.35053 0.09048 0.71399 0.0
H95 H 0.41401 0.09886 0.62629 0.0
H96 H 0.58344 0.91665 0.57249 0.0
H97 H 0.65669 0.91648 0.64817 0.0
H98 H 0.60453 0.09252 0.70623 0.0
H99 H 0.53601 0.09483 0.62587 0.0
O100 O 0.53817 0.9477 0.16302 0.0
O101 O 0.56356 0.04469 0.16991 0.0
O102 O 0.12422 0.96686 0.55894 0.0
O103 O 0.12469 0.06346 0.53752 0.0
C104 C 0.53028 0.00631 0.48562 0.0
C105 C 0.48851 0.00589 0.44063 0.0
C106 C 0.42716 0.00633 0.45428 0.0
C107 C 0.40786 0.00738 0.51312 0.0
C108 C 0.44976 0.00668 0.55792 0.0
C109 C 0.51123 0.00664 0.5446 0.0
C110 C 0.59346 0.00136 0.4692 0.0
C111 C 0.61449 0.94427 0.45691 0.0
C112 C 0.66554 0.93789 0.42262 0.0
C113 C 0.69406 0.98838 0.39754 0.0
C114 C 0.67733 0.04586 0.41557 0.0
C115 C 0.62727 0.05231 0.45204 0.0
C116 C 0.50853 0.00274 0.37858 0.0
C117 C 0.49904 0.94972 0.34589 0.0
C118 C 0.512 0.94831 0.28616 0.0
C119 C 0.53492 -0.0001 0.25819 0.0
C120 C 0.54556 0.05263 0.29144 0.0
C121 C 0.53222 0.05406 0.35106 0.0
C122 C 0.38313 0.0064 0.40677 0.0
C123 C 0.34101 0.95886 0.39947 0.0
C124 C 0.29809 0.96096 0.35668 0.0
C125 C 0.29734 0.01011 0.31963 0.0
C126 C 0.34188 0.05572 0.32494 0.0
C127 C 0.3832 0.05463 0.36882 0.0
C128 C 0.34331 0.01016 0.52733 0.0
C129 C 0.31076 0.95885 0.54551 0.0
C130 C 0.24904 0.95968 0.55235 0.0
C131 C 0.21882 0.01195 0.54113 0.0
C132 C 0.25188 0.06375 0.5245 0.0
C133 C 0.31358 0.0628 0.51759 0.0
C134 C 0.42785 0.00383 0.61863 0.0
C135 C 0.41779 0.9479 0.64442 0.0
C136 C 0.3809 0.94289 0.69398 0.0
C137 C 0.35457 -0.00605 0.71781 0.0
C138 C 0.37035 0.05062 0.6957 0.0
C139 C 0.40654 0.05551 0.64599 0.0
C140 C 0.55517 0.00634 0.59219 0.0
C141 C 0.58918 0.95609 0.60014 0.0
C142 C 0.63042 0.95567 0.64441 0.0
C143 C 0.63747 0.00475 0.68343 0.0
C144 C 0.60221 0.05465 0.67616 0.0
C145 C 0.56213 0.05568 0.63066 0.0
C146 C 0.54662 -0.00105 0.19446 0.0
C147 C 0.15309 0.01246 0.54634 0.0
H148 H 0.46809 0.09684 0.00582 0.0
H149 H 0.90605 0.58646 0.08112 0.0
H150 H 0.41511 0.45249 0.92521 0.0
H151 H 0.31707 0.4066 0.90679 0.0
H152 H 0.27534 0.41046 0.09104 0.0
H153 H 0.37341 0.45815 0.10933 0.0
H154 H 0.52008 0.34746 0.94835 0.0
H155 H 0.50115 0.23919 0.95466 0.0
H156 H 0.43159 0.26336 0.13028 0.0
H157 H 0.45218 0.37148 0.12389 0.0
H158 H 0.63692 0.41856 0.94427 0.0
H159 H 0.69954 0.33145 0.93777 0.0
H160 H 0.65609 0.29324 0.11765 0.0
H161 H 0.59319 0.38026 0.12376 0.0
H162 H 0.65282 0.5533 0.93907 0.0
H163 H 0.75797 0.58438 0.93995 0.0
H164 H 0.76281 0.54012 0.12169 0.0
H165 H 0.65724 0.5104 0.12054 0.0
H166 H 0.54108 0.60717 0.91924 0.0
H167 H 0.59589 0.70018 0.89422 0.0
H168 H 0.63112 0.73254 0.07608 0.0
H169 H 0.57657 0.63982 0.10045 0.0
H170 H 0.42739 0.57314 0.92704 0.0
H171 H 0.35458 0.65172 0.92169 0.0
H172 H 0.36026 0.67809 0.10808 0.0
H173 H 0.43228 0.59932 0.11311 0.0
O174 O 0.47334 0.13993 1.00356 0.0
O175 O 0.43309 0.15505 0.09175 0.0
O176 O 0.85728 0.60536 0.98887 0.0
O177 O 0.86426 0.57505 0.07974 0.0
C178 C 0.46257 0.47542 0.02876 0.0
C179 C 0.50548 0.43217 0.03404 0.0
C180 C 0.56598 0.45069 0.03482 0.0
C181 C 0.58333 0.51161 0.02959 0.0
C182 C 0.53958 0.55406 0.0234 0.0
C183 C 0.47958 0.53597 0.02405 0.0
C184 C 0.40095 0.45677 0.01855 0.0
C185 C 0.38392 0.44529 0.96132 0.0
C186 C 0.328 0.42032 0.95079 0.0
C187 C 0.28957 0.40584 0.99762 0.0
C188 C 0.30451 0.42254 0.05457 0.0
C189 C 0.36043 0.44836 0.06506 0.0
C190 C 0.4877 0.3673 0.03574 0.0
C191 C 0.50044 0.32931 0.98803 0.0
C192 C 0.48969 0.26746 0.9918 0.0
C193 C 0.4653 0.24254 0.04316 0.0
C194 C 0.45068 0.28105 0.09018 0.0
C195 C 0.462 0.34286 0.08653 0.0
C196 C 0.61099 0.40517 0.03448 0.0
C197 C 0.64206 0.392 0.98251 0.0
C198 C 0.67713 0.34229 0.9787 0.0
C199 C 0.68101 0.30545 0.02682 0.0
C200 C 0.65217 0.32046 0.07967 0.0
C201 C 0.61716 0.37023 0.08347 0.0
C202 C 0.64722 0.53047 0.02997 0.0
C203 C 0.67644 0.55111 0.97922 0.0
C204 C 0.73659 0.56854 0.97977 0.0
C205 C 0.76873 0.56496 0.03098 0.0
C206 C 0.73935 0.54359 0.08158 0.0
C207 C 0.67909 0.52659 0.08106 0.0
C208 C 0.55678 0.61668 0.01135 0.0
C209 C 0.55835 0.636 0.95378 0.0
C210 C 0.58899 0.68919 0.93959 0.0
C211 C 0.6181 0.7229 0.98306 0.0
C212 C 0.60866 0.7076 0.04172 0.0
C213 C 0.57843 0.65425 0.05577 0.0
C214 C 0.43435 0.58102 0.02049 0.0
C215 C 0.41238 0.59579 0.96656 0.0
C216 C 0.37144 0.64054 0.96353 0.0
C217 C 0.35221 0.67029 0.0145 0.0
C218 C 0.37422 0.65502 0.06841 0.0
C219 C 0.41512 0.61045 0.07136 0.0
C220 C 0.45605 0.17662 0.0478 0.0
C221 C 0.83271 0.58309 0.0317 0.0
Zn222 Zn 0.07587 0.09482 0.92843 0.0
Zn223 Zn 0.06222 0.12351 0.0665 0.0
O224 O 0.05678 0.05853 0.0048 0.0
H225 H 0.06864 0.01784 0.00866 0.0
C226 C 0.97321 0.11041 0.86887 0.0
O227 O 0.9651 0.05433 0.85173 0.0
Zn228 Zn 0.88908 0.87656 0.10126 0.0
Zn229 Zn 0.87302 0.91632 0.95964 0.0
O230 O 0.87678 0.94605 0.04534 0.0
H231 H 0.85475 0.9806 0.05716 0.0
Zn232 Zn 0.93794 0.05356 0.98047 0.0
O233 O 0.96672 0.02718 0.06176 0.0
Zn234 Zn 0.91155 0.05648 0.12199 0.0
H235 H 0.98783 0.99172 0.06961 0.0
Zn236 Zn 0.08373 0.90431 0.94451 0.0
O237 O 0.03177 0.90374 0.01922 0.0
H238 H 0.99012 0.89196 0.02109 0.0
Zn239 Zn 0.08937 0.91347 0.0856 0.0
C240 C 0.00762 0.87406 0.83617 0.0
O241 O 0.96734 0.9112 0.85513 0.0
O242 O 0.11244 0.17886 0.93589 0.0
O243 O 0.10833 0.19155 0.03228 0.0
O244 O 0.89079 0.82952 0.9754 0.0
O245 O 0.85502 0.80323 0.06103 0.0
O246 O 0.85455 0.08254 0.98862 0.0
O247 O 0.84966 0.10227 0.08393 0.0
C248 C 0.12164 0.04247 0.14233 0.0
O249 O 0.16255 0.867 0.96216 0.0
O250 O 0.16447 0.87716 0.05866 0.0
O251 O 0.80612 0.93599 0.9002 0.0
C252 C 0.1226 0.20971 0.98174 0.0
O253 O 0.11878 0.0428 0.8689 0.0
C254 C 0.84203 0.94776 0.19315 0.0
O255 O 0.97183 0.12224 0.92342 0.0
C256 C 0.85256 0.79996 0.00582 0.0
O257 O 0.05338 0.8672 0.86602 0.0
C258 C 0.97678 0.16152 0.15432 0.0
O259 O 0.1099 0.09621 0.13191 0.0
O260 O 0.09999 0.00139 0.10899 0.0
C261 C 0.82959 0.10589 0.03311 0.0
O262 O 0.84224 0.89457 0.17263 0.0
O263 O 0.86885 0.98993 0.16576 0.0
C264 C 0.01025 0.84628 0.16298 0.0
O265 O 0.95162 0.11479 0.17563 0.0
O266 O 0.98811 0.16292 0.09979 0.0
C267 C 0.18679 0.85892 0.0104 0.0
O268 O 0.06395 0.86316 0.15398 0.0
O269 O 0.97261 0.86644 0.12862 0.0
C270 C 0.80618 0.98403 0.87121 0.0
O271 O 0.84832 0.02504 0.87996 0.0
C272 C 0.16115 0.01104 0.88328 0.0
O273 O 0.17261 0.00665 0.93865 0.0
C274 C 0.02687 0.31526 0.2147 0.0
C275 C 0.98641 0.32422 0.26156 0.0
C276 C 0.02279 0.26319 0.17911 0.0
C277 C 0.97918 0.21764 0.19026 0.0
H278 H 0.06205 0.34849 0.20582 0.0
H279 H 0.05493 0.25782 0.14365 0.0
S280 S 0.8627 0.21997 0.30768 0.0
N281 N 0.90121 0.28364 0.31665 0.0
N282 N 0.8939 0.18612 0.2509 0.0
C283 C 0.93833 0.22657 0.23677 0.0
C284 C 0.94189 0.27972 0.27211 0.0
C285 C 0.78797 0.00913 0.33893 0.0
C286 C 0.73167 0.98023 0.34478 0.0
C287 C 0.82361 -0.0002 0.28877 0.0
C288 C 0.8038 0.96102 0.24382 0.0
H289 H 0.8048 0.03807 0.37358 0.0
H290 H 0.86732 0.02163 0.2858 0.0
S291 S 0.65618 0.8835 0.23396 0.0
N292 N 0.6549 0.91815 0.29801 0.0
N293 N 0.72262 0.89924 0.20516 0.0
C294 C 0.74673 0.93428 0.24814 0.0
C295 C 0.71038 0.94431 0.29833 0.0
C296 C 0.03545 0.75232 0.29587 0.0
C297 C 0.9836 0.71581 0.30266 0.0
C298 C 0.04154 0.79541 0.25245 0.0
C299 C -0.00373 0.80473 0.21276 0.0
H300 H 0.07235 0.74724 0.32423 0.0
H301 H 0.0833 0.82097 0.24947 0.0
S302 S 0.84962 0.72321 0.21301 0.0
N303 N 0.88432 0.69375 0.26718 0.0
N304 N 0.89614 0.77465 0.18513 0.0
C305 C 0.94305 0.77013 0.22015 0.0
C306 C 0.93665 0.72593 0.26504 0.0
C307 C 0.23016 0.96815 0.24071 0.0
C308 C 0.24878 0.01618 0.27762 0.0
C309 C 0.18733 0.97563 0.19817 0.0
C310 C 0.16158 0.03137 0.19123 0.0
H311 H 0.2502 0.92509 0.24344 0.0
H312 H 0.17576 0.93814 0.16954 0.0
S313 S 0.18912 0.16876 0.28281 0.0
N314 N 0.2331 0.11912 0.30856 0.0
N315 N 0.15425 0.13378 0.22922 0.0
C316 C 0.17782 0.07867 0.23012 0.0
C317 C 0.22094 0.07095 0.27306 0.0
C318 C 0.03923 0.76263 0.71304 0.0
C319 C 0.98796 0.76227 0.67965 0.0
C320 C 0.04529 0.79976 0.76245 0.0
C321 C 0.00024 0.83827 0.78119 0.0
H322 H 0.07434 0.73223 0.70228 0.0
H323 H 0.08544 0.79709 0.78681 0.0
S324 S 0.85871 0.85807 0.70647 0.0
N325 N 0.89263 0.80667 0.66659 0.0
N326 N 0.90353 0.87604 0.76016 0.0
C327 C 0.94932 0.83987 0.74723 0.0
C328 C 0.94324 0.80194 0.6965 0.0
C329 C 0.30799 0.96777 0.81442 0.0
C330 C 0.30274 0.98798 0.75762 0.0
C331 C 0.25995 0.97067 0.85437 0.0
C332 C 0.2055 0.99347 0.83823 0.0
H333 H 0.35014 0.9528 0.82879 0.0
H334 H 0.26669 0.95819 0.89884 0.0
S335 S 0.1678 0.04171 0.69083 0.0
N336 N 0.23807 0.02414 0.68479 0.0
N337 N 0.14737 0.02821 0.75877 0.0
C338 C 0.19862 0.00827 0.77973 0.0
C339 C 0.24751 0.00607 0.73968 0.0
C340 C 0.00461 0.26275 0.79763 0.0
C341 C 0.9823 0.25369 0.74129 0.0
C342 C 0.00179 0.21659 0.83874 0.0
C343 C 0.97783 0.15896 0.82482 0.0
H344 H 0.02323 0.30629 0.81052 0.0
H345 H 0.01845 0.22622 0.88173 0.0
S346 S 0.91472 0.11139 0.68276 0.0
N347 N 0.93641 0.18206 0.67375 0.0
N348 N 0.93133 0.09594 0.75 0.0
C349 C 0.95616 0.14925 0.76831 0.0
C350 C 0.95834 0.1963 0.72692 0.0
C351 C 0.68466 0.94819 0.76248 0.0
C352 C 0.67982 0.00209 0.73246 0.0
C353 C 0.72469 0.94319 0.80758 0.0
C354 C 0.76187 0.9919 0.82516 0.0
H355 H 0.65696 0.90919 0.75129 0.0
H356 H 0.72685 0.90034 0.82838 0.0
S357 S 0.76655 0.14397 0.76207 0.0
N358 N 0.71638 0.10565 0.72407 0.0
N359 N 0.79011 0.09688 0.80981 0.0
C360 C 0.75704 0.04657 0.79629 0.0
C361 C 0.7164 0.05155 0.74996 0.0
C362 C 0.18474 0.36726 0.99304 0.0
C363 C 0.24571 0.35742 0.98901 0.0
C364 C 0.14372 0.31894 0.98784 0.0
C365 C 0.16349 0.26073 0.97807 0.0
H366 H 0.16904 0.41195 1.0012 0.0
H367 H 0.09672 0.32672 0.99279 0.0
S368 S 0.31842 0.21227 0.96968 0.0
N369 N 0.32393 0.2858 0.97845 0.0
N370 N 0.2466 0.19518 0.96775 0.0
C371 C 0.22419 0.25066 0.97412 0.0
C372 C 0.26558 0.29923 0.97989 0.0
C373 C 0.3205 0.767 0.97611 0.0
C374 C 0.30914 0.71746 0.01202 0.0
C375 C 0.28114 0.81391 0.97594 0.0
C376 C 0.23033 0.81258 0.01248 0.0
H377 H 0.36032 0.76976 0.94867 0.0
H378 H 0.29062 0.85143 0.94767 0.0
S379 S 0.17665 0.68863 0.1076 0.0
N380 N 0.24067 0.66669 0.07975 0.0
N381 N 0.16729 0.75533 0.08059 0.0
C382 C 0.21769 0.76236 0.0471 0.0
C383 C 0.25708 0.71457 0.04662 0.0
C384 C 0.77517 0.25653 1.0023 0.0
C385 C 0.71586 0.25167 0.02222 0.0
C386 C 0.81092 0.20719 1.00293 0.0
C387 C 0.78819 0.15213 0.02369 0.0
H388 H 0.79462 0.29918 0.98844 0.0
H389 H 0.8573 0.21279 0.9897 0.0
S390 S 0.63426 0.11426 0.07202 0.0
N391 N 0.63414 0.18609 0.05655 0.0
N392 N 0.70291 0.09325 0.05941 0.0
C393 C 0.72863 0.14573 0.04105 0.0
C394 C 0.6919 0.19575 0.03982 0.0
C395 C 0.71838 0.72796 0.9385 0.0
C396 C 0.67247 0.75822 0.96807 0.0
C397 C 0.77779 0.74526 0.94664 0.0
C398 C 0.79242 0.79349 0.98391 0.0
H399 H 0.70892 0.68642 0.91478 0.0
H400 H 0.81216 0.71748 0.92816 0.0
S401 S 0.68839 0.89744 0.05707 0.0
N402 N 0.6451 0.84583 0.02539 0.0
N403 N 0.75718 0.87914 0.04038 0.0
C404 C 0.74696 0.82924 0.00675 0.0
C405 C 0.6866 0.81155 0.99853 0.0
loop_
_geom_bond_atom_site_label_1
_geom_bond_atom_site_label_2
_geom_bond_distance
_geom_bond_site_symmetry_2
_ccdc_geom_bond_type
H0 O26 0.856 . S
H1 O29 0.854 . S
H2 C37 0.930 . S
H3 C38 0.930 . S
H4 C40 0.930 . S
H5 C41 0.930 . S
H6 C43 0.931 . S
H7 C44 0.930 . S
H8 C46 0.930 . S
H9 C47 0.929 . S
H10 C49 0.930 . S
H11 C50 0.931 . S
H12 C52 0.930 . S
H13 C53 0.929 . S
H14 C55 0.931 . S
H15 C56 0.930 . S
H16 C58 0.930 . S
H17 C59 0.932 . S
H18 C61 0.930 . S
H19 C62 0.929 . S
H20 C64 0.931 . S
H21 C65 0.930 . S
H22 C67 0.929 . S
H23 C68 0.931 . S
H24 C70 0.930 . S
H25 C71 0.929 . S
O26 H0 0.856 . S
O26 C72 1.300 1_455 S
O27 C72 1.209 . S
O28 C73 1.199 1_455 S
O29 H1 0.854 . S
O29 C73 1.297 . S
C30 C31 1.404 1_455 S
C30 C35 1.397 . S
C30 C36 1.492 . S
C31 C30 1.404 1_655 S
C31 C32 1.396 . S
C31 C42 1.492 . S
C32 C31 1.396 . S
C32 C33 1.397 . S
C32 C48 1.509 . S
C33 C32 1.397 . S
C33 C34 1.412 1_655 S
C33 C54 1.485 . S
C34 C33 1.412 1_455 S
C34 C35 1.388 . S
C34 C60 1.490 . S
C35 C30 1.397 . S
C35 C34 1.388 . S
C35 C66 1.520 . S
C36 C30 1.492 . S
C36 C37 1.363 . S
C36 C41 1.390 1_455 S
C37 H2 0.930 . S
C37 C36 1.363 . S
C37 C38 1.372 . S
C38 H3 0.930 . S
C38 C37 1.372 . S
C38 C39 1.383 . S
C39 C38 1.383 . S
C39 C40 1.395 1_455 S
C40 H4 0.930 . S
C40 C39 1.395 1_655 S
C40 C41 1.362 . S
C41 H5 0.930 . S
C41 C36 1.390 1_655 S
C41 C40 1.362 . S
C42 C31 1.492 . S
C42 C43 1.377 1_655 S
C42 C47 1.397 . S
C43 H6 0.931 . S
C43 C42 1.377 1_455 S
C43 C44 1.376 . S
C44 H7 0.930 . S
C44 C43 1.376 . S
C44 C45 1.376 1_455 S
C45 C44 1.376 1_655 S
C45 C46 1.378 . S
C45 C72 1.486 . S
C46 H8 0.930 . S
C46 C45 1.378 . S
C46 C47 1.376 . S
C47 H9 0.929 . S
C47 C42 1.397 . S
C47 C46 1.376 . S
C48 C32 1.509 . S
C48 C49 1.391 1_655 S
C48 C53 1.386 . S
C49 H10 0.930 . S
C49 C48 1.391 1_455 S
C49 C50 1.375 . S
C50 H11 0.931 . S
C50 C49 1.375 . S
C50 C51 1.375 1_455 S
C51 C50 1.375 1_655 S
C51 C52 1.361 . S
C52 H12 0.930 . S
C52 C51 1.361 . S
C52 C53 1.399 . S
C53 H13 0.929 . S
C53 C48 1.386 . S
C53 C52 1.399 . S
C54 C33 1.485 . S
C54 C55 1.394 1_655 S
C54 C59 1.360 . S
C55 H14 0.931 . S
C55 C54 1.394 1_455 S
C55 C56 1.372 . S
C56 H15 0.930 . S
C56 C55 1.372 . S
C56 C57 1.397 1_455 S
C57 C56 1.397 1_655 S
C57 C58 1.390 . S
C57 C73 1.476 . S
C58 H16 0.930 . S
C58 C57 1.390 . S
C58 C59 1.366 . S
C59 H17 0.932 . S
C59 C54 1.360 . S
C59 C58 1.366 . S
C60 C34 1.490 . S
C60 C61 1.380 . S
C60 C65 1.386 1_455 S
C61 H18 0.930 . S
C61 C60 1.380 . S
C61 C62 1.381 . S
C62 H19 0.929 . S
C62 C61 1.381 . S
C62 C63 1.371 . S
C63 C62 1.371 . S
C63 C64 1.380 1_455 S
C64 H20 0.931 . S
C64 C63 1.380 1_655 S
C64 C65 1.387 . S
C65 H21 0.930 . S
C65 C60 1.386 1_655 S
C65 C64 1.387 . S
C66 C35 1.520 . S
C66 C67 1.385 . S
C66 C71 1.351 1_455 S
C67 H22 0.929 . S
C67 C66 1.385 . S
C67 C68 1.386 . S
C68 H23 0.931 . S
C68 C67 1.386 . S
C68 C69 1.363 1_455 S
C69 C68 1.363 1_655 S
C69 C70 1.385 . S
C70 H24 0.930 . S
C70 C69 1.385 . S
C70 C71 1.396 . S
C71 H25 0.929 . S
C71 C66 1.351 1_655 S
C71 C70 1.396 . S
C72 O26 1.300 1_655 S
C72 O27 1.209 . S
C72 C45 1.486 . S
C73 O28 1.199 1_655 S
C73 O29 1.297 . S
C73 C57 1.476 . S
H74 O100 0.856 1_545 S
H75 O103 0.854 . S
H76 C111 0.930 . S
H77 C112 0.930 . S
H78 C114 0.930 . S
H79 C115 0.930 . S
H80 C117 0.931 . S
H81 C118 0.930 . S
H82 C120 0.930 . S
H83 C121 0.929 . S
H84 C123 0.930 . S
H85 C124 0.931 . S
H86 C126 0.930 . S
H87 C127 0.929 . S
H88 C129 0.931 . S
H89 C130 0.930 . S
H90 C132 0.930 . S
H91 C133 0.932 . S
H92 C135 0.930 . S
H93 C136 0.929 . S
H94 C138 0.931 . S
H95 C139 0.930 . S
H96 C141 0.929 . S
H97 C142 0.931 . S
H98 C144 0.930 . S
H99 C145 0.929 . S
O100 H74 0.856 1_565 S
O100 C146 1.300 1_565 S
O101 C146 1.209 . S
O102 C147 1.199 1_565 S
O103 H75 0.854 . S
O103 C147 1.297 . S
C104 C105 1.404 . S
C104 C109 1.397 . S
C104 C110 1.492 . S
C105 C104 1.404 . S
C105 C106 1.396 . S
C105 C116 1.492 . S
C106 C105 1.396 . S
C106 C107 1.397 . S
C106 C122 1.509 . S
C107 C106 1.397 . S
C107 C108 1.412 . S
C107 C128 1.485 . S
C108 C107 1.412 . S
C108 C109 1.388 . S
C108 C134 1.490 . S
C109 C104 1.397 . S
C109 C108 1.388 . S
C109 C140 1.519 . S
C110 C104 1.492 . S
C110 C111 1.363 1_545 S
C110 C115 1.390 . S
C111 H76 0.930 . S
C111 C110 1.363 1_565 S
C111 C112 1.372 . S
C112 H77 0.930 . S
C112 C111 1.372 . S
C112 C113 1.383 . S
C113 C112 1.383 . S
C113 C114 1.395 1_565 S
C114 H78 0.930 . S
C114 C113 1.395 1_545 S
C114 C115 1.362 . S
C115 H79 0.930 . S
C115 C110 1.390 . S
C115 C114 1.362 . S
C116 C105 1.492 . S
C116 C117 1.377 1_545 S
C116 C121 1.397 . S
C117 H80 0.931 . S
C117 C116 1.377 1_565 S
C117 C118 1.376 . S
C118 H81 0.930 . S
C118 C117 1.376 . S
C118 C119 1.376 1_565 S
C119 C118 1.376 1_545 S
C119 C120 1.378 . S
C119 C146 1.486 . S
C120 H82 0.930 . S
C120 C119 1.378 . S
C120 C121 1.376 . S
C121 H83 0.929 . S
C121 C116 1.397 . S
C121 C120 1.376 . S
C122 C106 1.509 . S
C122 C123 1.391 1_545 S
C122 C127 1.386 . S
C123 H84 0.930 . S
C123 C122 1.391 1_565 S
C123 C124 1.375 . S
C124 H85 0.931 . S
C124 C123 1.375 . S
C124 C125 1.375 1_565 S
C125 C124 1.375 1_545 S
C125 C126 1.361 . S
C126 H86 0.930 . S
C126 C125 1.361 . S
C126 C127 1.399 . S
C127 H87 0.929 . S
C127 C122 1.386 . S
C127 C126 1.399 . S
C128 C107 1.485 . S
C128 C129 1.394 1_545 S
C128 C133 1.360 . S
C129 H88 0.931 . S
C129 C128 1.394 1_565 S
C129 C130 1.372 . S
C130 H89 0.930 . S
C130 C129 1.372 . S
C130 C131 1.397 1_565 S
C131 C130 1.397 1_545 S
C131 C132 1.390 . S
C131 C147 1.476 . S
C132 H90 0.930 . S
C132 C131 1.390 . S
C132 C133 1.366 . S
C133 H91 0.932 . S
C133 C128 1.360 . S
C133 C132 1.366 . S
C134 C108 1.490 . S
C134 C135 1.380 1_545 S
C134 C139 1.386 . S
C135 H92 0.930 . S
C135 C134 1.380 1_565 S
C135 C136 1.381 . S
C136 H93 0.929 . S
C136 C135 1.381 . S
C136 C137 1.371 . S
C137 C136 1.371 . S
C137 C138 1.380 1_565 S
C138 H94 0.931 . S
C138 C137 1.380 1_545 S
C138 C139 1.387 . S
C139 H95 0.930 . S
C139 C134 1.386 . S
C139 C138 1.387 . S
C140 C109 1.519 . S
C140 C141 1.377 1_545 S
C140 C145 1.361 . S
C141 H96 0.929 . S
C141 C140 1.377 1_565 S
C141 C142 1.386 . S
C142 H97 0.931 . S
C142 C141 1.386 . S
C142 C143 1.363 1_565 S
C143 C142 1.363 1_545 S
C143 C144 1.385 . S
C144 H98 0.930 . S
C144 C143 1.385 . S
C144 C145 1.396 . S
C145 H99 0.929 . S
C145 C140 1.361 . S
C145 C144 1.396 . S
C146 O100 1.300 1_545 S
C146 O101 1.209 . S
C146 C119 1.486 . S
C147 O102 1.199 1_545 S
C147 O103 1.297 . S
C147 C131 1.476 . S
H148 O174 0.856 1_554 S
H149 O177 0.854 . S
H150 C185 0.930 . S
H151 C186 0.930 . S
H152 C188 0.930 . S
H153 C189 0.930 . S
H154 C191 0.931 . S
H155 C192 0.930 . S
H156 C194 0.930 . S
H157 C195 0.929 . S
H158 C197 0.930 . S
H159 C198 0.931 . S
H160 C200 0.930 . S
H161 C201 0.929 . S
H162 C203 0.931 . S
H163 C204 0.930 . S
H164 C206 0.930 . S
H165 C207 0.932 . S
H166 C209 0.930 . S
H167 C210 0.929 . S
H168 C212 0.931 . S
H169 C213 0.930 . S
H170 C215 0.929 . S
H171 C216 0.931 . S
H172 C218 0.930 . S
H173 C219 0.929 . S
O174 H148 0.856 1_556 S
O174 C220 1.300 1_556 S
O175 C220 1.209 . S
O176 C221 1.199 1_556 S
O177 H149 0.854 . S
O177 C221 1.297 . S
C178 C179 1.404 . S
C178 C183 1.397 . S
C178 C184 1.492 . S
C179 C178 1.404 . S
C179 C180 1.396 . S
C179 C190 1.492 . S
C180 C179 1.396 . S
C180 C181 1.397 . S
C180 C196 1.509 . S
C181 C180 1.397 . S
C181 C182 1.412 . S
C181 C202 1.485 . S
C182 C181 1.412 . S
C182 C183 1.388 . S
C182 C208 1.490 . S
C183 C178 1.397 . S
C183 C182 1.388 . S
C183 C214 1.519 . S
C184 C178 1.492 . S
C184 C185 1.363 1_554 S
C184 C189 1.390 . S
C185 H150 0.930 . S
C185 C184 1.363 1_556 S
C185 C186 1.372 . S
C186 H151 0.930 . S
C186 C185 1.372 . S
C186 C187 1.383 . S
C187 C186 1.383 . S
C187 C188 1.395 1_556 S
C188 H152 0.930 . S
C188 C187 1.395 1_554 S
C188 C189 1.362 . S
C189 H153 0.930 . S
C189 C184 1.390 . S
C189 C188 1.362 . S
C190 C179 1.492 . S
C190 C191 1.377 1_554 S
C190 C195 1.397 . S
C191 H154 0.931 . S
C191 C190 1.377 1_556 S
C191 C192 1.376 . S
C192 H155 0.930 . S
C192 C191 1.376 . S
C192 C193 1.376 1_556 S
C193 C192 1.376 1_554 S
C193 C194 1.378 . S
C193 C220 1.486 . S
C194 H156 0.930 . S
C194 C193 1.378 . S
C194 C195 1.376 . S
C195 H157 0.929 . S
C195 C190 1.397 . S
C195 C194 1.376 . S
C196 C180 1.509 . S
C196 C197 1.391 1_554 S
C196 C201 1.386 . S
C197 H158 0.930 . S
C197 C196 1.391 1_556 S
C197 C198 1.375 . S
C198 H159 0.931 . S
C198 C197 1.375 . S
C198 C199 1.375 1_556 S
C199 C198 1.375 1_554 S
C199 C200 1.361 . S
C200 H160 0.930 . S
C200 C199 1.361 . S
C200 C201 1.399 . S
C201 H161 0.929 . S
C201 C196 1.386 . S
C201 C200 1.399 . S
C202 C181 1.485 . S
C202 C203 1.394 1_554 S
C202 C207 1.360 . S
C203 H162 0.931 . S
C203 C202 1.394 1_556 S
C203 C204 1.372 . S
C204 H163 0.930 . S
C204 C203 1.372 . S
C204 C205 1.397 1_556 S
C205 C204 1.397 1_554 S
C205 C206 1.390 . S
C205 C221 1.476 . S
C206 H164 0.930 . S
C206 C205 1.390 . S
C206 C207 1.366 . S
C207 H165 0.932 . S
C207 C202 1.360 . S
C207 C206 1.366 . S
C208 C182 1.490 . S
C208 C209 1.380 1_554 S
C208 C213 1.386 . S
C209 H166 0.930 . S
C209 C208 1.380 1_556 S
C209 C210 1.381 . S
C210 H167 0.929 . S
C210 C209 1.381 . S
C210 C211 1.371 . S
C211 C210 1.371 . S
C211 C212 1.380 1_556 S
C212 H168 0.931 . S
C212 C211 1.380 1_554 S
C212 C213 1.387 . S
C213 H169 0.930 . S
C213 C208 1.386 . S
C213 C212 1.387 . S
C214 C183 1.519 . S
C214 C215 1.377 1_554 S
C214 C219 1.361 . S
C215 H170 0.929 . S
C215 C214 1.377 1_556 S
C215 C216 1.386 . S
C216 H171 0.931 . S
C216 C215 1.386 . S
C216 C217 1.363 1_556 S
C217 C216 1.363 1_554 S
C217 C218 1.385 . S
C218 H172 0.930 . S
C218 C217 1.385 . S
C218 C219 1.396 . S
C219 H173 0.929 . S
C219 C214 1.361 . S
C219 C218 1.396 . S
C220 O174 1.300 1_554 S
C220 O175 1.209 . S
C220 C193 1.486 . S
C221 O176 1.199 1_554 S
C221 O177 1.297 . S
C221 C205 1.476 . S
Zn222 O224 1.933 1_556 S
Zn222 O242 1.985 . S
Zn222 O253 1.955 . S
Zn223 O224 1.911 . S
Zn223 O243 1.970 . S
Zn223 O259 1.945 . S
Zn223 O266 1.981 . S
O224 Zn222 1.933 1_554 S
O224 Zn223 1.911 . S
O224 H225 0.841 . S
H225 O224 0.841 . S
C226 O227 1.246 . S
C226 O255 1.276 1_455 S
O227 C226 1.246 . S
Zn228 O230 1.911 . S
Zn228 O245 1.970 . S
Zn228 O262 1.945 . S
Zn228 O269 1.981 . S
Zn229 O230 1.933 1_556 S
Zn229 O244 1.985 . S
Zn229 O251 1.955 . S
O230 Zn228 1.911 . S
O230 Zn229 1.933 1_554 S
O230 H231 0.841 . S
H231 O230 0.841 . S
Zn232 O233 1.933 1_556 S
Zn232 O246 1.985 . S
Zn232 O255 1.955 . S
O233 Zn232 1.933 1_554 S
O233 Zn234 1.911 . S
O233 H235 0.841 . S
Zn234 O233 1.911 . S
Zn234 O247 1.970 . S
Zn234 O263 1.981 . S
Zn234 O265 1.945 . S
H235 O233 0.841 . S
Zn236 O237 1.933 1_556 S
Zn236 O249 1.985 . S
Zn236 O257 1.955 . S
O237 Zn236 1.933 1_554 S
O237 H238 0.841 . S
O237 Zn239 1.911 . S
H238 O237 0.841 . S
Zn239 O237 1.911 . S
Zn239 O250 1.970 . S
Zn239 O260 1.981 . S
Zn239 O268 1.945 . S
C240 O241 1.246 . S
C240 O257 1.276 1_655 S
O241 C240 1.246 . S
O242 Zn222 1.985 . S
O242 C252 1.245 1_556 S
O243 Zn223 1.970 . S
O243 C252 1.263 . S
O244 Zn229 1.985 . S
O244 C256 1.245 1_556 S
O245 Zn228 1.970 . S
O245 C256 1.263 . S
O246 Zn232 1.985 . S
O246 C261 1.245 1_556 S
O247 Zn234 1.970 . S
O247 C261 1.263 . S
C248 O259 1.262 . S
C248 O260 1.245 1_545 S
O249 Zn236 1.985 . S
O249 C267 1.245 1_556 S
O250 Zn239 1.970 . S
O250 C267 1.263 . S
O251 Zn229 1.955 . S
O251 C270 1.276 1_565 S
C252 O242 1.245 1_554 S
C252 O243 1.263 . S
O253 Zn222 1.955 . S
O253 C272 1.276 . S
C254 O262 1.262 1_545 S
C254 O263 1.245 . S
O255 C226 1.276 1_655 S
O255 Zn232 1.955 . S
C256 O244 1.245 1_554 S
C256 O245 1.263 . S
O257 Zn236 1.955 . S
O257 C240 1.276 1_455 S
C258 O265 1.262 1_455 S
C258 O266 1.245 . S
O259 Zn223 1.945 . S
O259 C248 1.262 . S
O260 Zn239 1.981 . S
O260 C248 1.245 1_565 S
C261 O246 1.245 1_554 S
C261 O247 1.263 . S
O262 Zn228 1.945 . S
O262 C254 1.262 1_565 S
O263 Zn234 1.981 . S
O263 C254 1.245 . S
C264 O268 1.262 1_655 S
C264 O269 1.245 . S
O265 Zn234 1.945 . S
O265 C258 1.262 1_655 S
O266 Zn223 1.981 . S
O266 C258 1.245 . S
C267 O249 1.245 1_554 S
C267 O250 1.263 . S
O268 Zn239 1.945 . S
O268 C264 1.262 1_455 S
O269 Zn228 1.981 . S
O269 C264 1.245 . S
C270 O251 1.276 1_545 S
C270 O271 1.246 . S
O271 C270 1.246 . S
C272 O253 1.276 . S
C272 O273 1.246 1_545 S
O273 C272 1.246 1_565 S
C274 C275 1.369 . S
C274 C276 1.419 . S
C274 H278 0.930 . S
C275 C274 1.369 . S
C275 C284 1.429 1_455 S
C276 C274 1.419 . S
C276 C277 1.363 . S
C276 H279 0.929 . S
C277 C276 1.363 . S
C277 C283 1.428 1_455 S
H278 C274 0.930 . S
H279 C276 0.929 . S
S280 N281 1.613 . S
S280 N282 1.610 . S
N281 S280 1.613 . S
N281 C284 1.350 . S
N282 S280 1.610 . S
N282 C283 1.351 . S
C283 C277 1.428 1_655 S
C283 N282 1.351 . S
C283 C284 1.434 . S
C284 C275 1.429 1_655 S
C284 N281 1.350 . S
C284 C283 1.434 . S
C285 C286 1.369 1_545 S
C285 C287 1.419 . S
C285 H289 0.930 . S
C286 C285 1.369 1_565 S
C286 C295 1.429 . S
C287 C285 1.419 . S
C287 C288 1.363 . S
C287 H290 0.929 . S
C288 C287 1.363 . S
C288 C294 1.428 1_545 S
H289 C285 0.930 . S
H290 C287 0.929 . S
S291 N292 1.613 . S
S291 N293 1.610 . S
N292 S291 1.613 . S
N292 C295 1.350 . S
N293 S291 1.610 . S
N293 C294 1.351 . S
C294 C288 1.428 1_565 S
C294 N293 1.351 . S
C294 C295 1.434 . S
C295 C286 1.429 . S
C295 N292 1.350 . S
C295 C294 1.434 . S
C296 C297 1.369 1_455 S
C296 C298 1.419 . S
C296 H300 0.930 . S
C297 C296 1.369 1_655 S
C297 C306 1.429 . S
C298 C296 1.419 . S
C298 C299 1.363 1_455 S
C298 H301 0.929 . S
C299 C298 1.363 1_655 S
C299 C305 1.428 . S
H300 C296 0.930 . S
H301 C298 0.929 . S
S302 N303 1.613 . S
S302 N304 1.610 . S
N303 S302 1.613 . S
N303 C306 1.350 . S
N304 S302 1.610 . S
N304 C305 1.351 . S
C305 C299 1.428 . S
C305 N304 1.351 . S
C305 C306 1.434 . S
C306 C297 1.429 . S
C306 N303 1.350 . S
C306 C305 1.434 . S
C307 C308 1.369 1_565 S
C307 C309 1.419 . S
C307 H311 0.930 . S
C308 C307 1.369 1_545 S
C308 C317 1.429 . S
C309 C307 1.419 . S
C309 C310 1.363 1_565 S
C309 H312 0.929 . S
C310 C309 1.363 1_545 S
C310 C316 1.428 . S
H311 C307 0.930 . S
H312 C309 0.929 . S
S313 N314 1.613 . S
S313 N315 1.610 . S
N314 S313 1.613 . S
N314 C317 1.350 . S
N315 S313 1.610 . S
N315 C316 1.351 . S
C316 C310 1.428 . S
C316 N315 1.351 . S
C316 C317 1.434 . S
C317 C308 1.429 . S
C317 N314 1.350 . S
C317 C316 1.434 . S
C318 C319 1.369 . S
C318 C320 1.419 . S
C318 H322 0.930 . S
C319 C318 1.369 . S
C319 C328 1.429 1_455 S
C320 C318 1.419 . S
C320 C321 1.363 1_455 S
C320 H323 0.929 . S
C321 C320 1.363 1_655 S
C321 C327 1.428 . S
H322 C318 0.930 . S
H323 C320 0.929 . S
S324 N325 1.613 . S
S324 N326 1.610 . S
N325 S324 1.613 . S
N325 C328 1.350 . S
N326 S324 1.610 . S
N326 C327 1.351 . S
C327 C321 1.428 . S
C327 N326 1.351 . S
C327 C328 1.434 . S
C328 C319 1.429 1_655 S
C328 N325 1.350 . S
C328 C327 1.434 . S
C329 C330 1.369 . S
C329 C331 1.419 . S
C329 H333 0.930 . S
C330 C329 1.369 . S
C330 C339 1.429 1_565 S
C331 C329 1.419 . S
C331 C332 1.363 . S
C331 H334 0.929 . S
C332 C331 1.363 . S
C332 C338 1.428 1_565 S
H333 C329 0.930 . S
H334 C331 0.929 . S
S335 N336 1.613 . S
S335 N337 1.610 . S
N336 S335 1.613 . S
N336 C339 1.350 . S
N337 S335 1.610 . S
N337 C338 1.351 . S
C338 C332 1.428 1_545 S
C338 N337 1.351 . S
C338 C339 1.434 . S
C339 C330 1.429 1_545 S
C339 N336 1.350 . S
C339 C338 1.434 . S
C340 C341 1.369 1_455 S
C340 C342 1.419 . S
C340 H344 0.930 . S
C341 C340 1.369 1_655 S
C341 C350 1.429 . S
C342 C340 1.419 . S
C342 C343 1.363 . S
C342 H345 0.929 . S
C343 C342 1.363 . S
C343 C349 1.428 1_455 S
H344 C340 0.930 . S
H345 C342 0.929 . S
S346 N347 1.613 . S
S346 N348 1.610 . S
N347 S346 1.613 . S
N347 C350 1.350 . S
N348 S346 1.610 . S
N348 C349 1.351 . S
C349 C343 1.428 1_655 S
C349 N348 1.351 . S
C349 C350 1.434 . S
C350 C341 1.429 . S
C350 N347 1.350 . S
C350 C349 1.434 . S
C351 C352 1.369 1_565 S
C351 C353 1.419 . S
C351 H355 0.930 . S
C352 C351 1.369 1_545 S
C352 C361 1.429 . S
C353 C351 1.419 . S
C353 C354 1.363 1_565 S
C353 H356 0.929 . S
C354 C353 1.363 1_545 S
C354 C360 1.428 . S
H355 C351 0.930 . S
H356 C353 0.929 . S
S357 N358 1.613 . S
S357 N359 1.610 . S
N358 S357 1.613 . S
N358 C361 1.350 . S
N359 S357 1.610 . S
N359 C360 1.351 . S
C360 C354 1.428 . S
C360 N359 1.351 . S
C360 C361 1.434 . S
C361 C352 1.429 . S
C361 N358 1.350 . S
C361 C360 1.434 . S
C362 C363 1.369 . S
C362 C364 1.419 . S
C362 H366 0.930 . S
C363 C362 1.369 . S
C363 C372 1.429 . S
C364 C362 1.419 . S
C364 C365 1.363 1_556 S
C364 H367 0.929 . S
C365 C364 1.363 1_554 S
C365 C371 1.428 . S
H366 C362 0.930 . S
H367 C364 0.929 . S
S368 N369 1.611 1_554 S
S368 N370 1.612 . S
N369 S368 1.611 1_556 S
N369 C372 1.350 . S
N370 S368 1.612 . S
N370 C371 1.351 . S
C371 C365 1.428 . S
C371 N370 1.351 . S
C371 C372 1.434 1_554 S
C372 C363 1.429 . S
C372 N369 1.350 . S
C372 C371 1.434 1_556 S
C373 C374 1.369 1_556 S
C373 C375 1.419 . S
C373 H377 0.930 . S
C374 C373 1.369 1_554 S
C374 C383 1.429 . S
C375 C373 1.419 . S
C375 C376 1.363 1_556 S
C375 H378 0.929 . S
C376 C375 1.363 1_554 S
C376 C382 1.428 . S
H377 C373 0.930 . S
H378 C375 0.929 . S
S379 N380 1.613 . S
S379 N381 1.610 . S
N380 S379 1.613 . S
N380 C383 1.350 . S
N381 S379 1.610 . S
N381 C382 1.351 . S
C382 C376 1.428 . S
C382 N381 1.351 . S
C382 C383 1.434 . S
C383 C374 1.429 . S
C383 N380 1.350 . S
C383 C382 1.434 . S
C384 C385 1.369 . S
C384 C386 1.419 1_554 S
C384 H388 0.930 . S
C385 C384 1.369 . S
C385 C394 1.429 . S
C386 C384 1.419 1_556 S
C386 C387 1.363 1_556 S
C386 H389 0.929 . S
C387 C386 1.363 1_554 S
C387 C393 1.428 . S
H388 C384 0.930 . S
H389 C386 0.929 . S
S390 N391 1.613 . S
S390 N392 1.610 . S
N391 S390 1.613 . S
N391 C394 1.350 . S
N392 S390 1.610 . S
N392 C393 1.351 . S
C393 C387 1.428 . S
C393 N392 1.351 . S
C393 C394 1.434 . S
C394 C385 1.429 . S
C394 N391 1.350 . S
C394 C393 1.434 . S
C395 C396 1.369 . S
C395 C397 1.419 . S
C395 H399 0.930 . S
C396 C395 1.369 . S
C396 C405 1.429 1_556 S
C397 C395 1.419 . S
C397 C398 1.363 1_556 S
C397 H400 0.929 . S
C398 C397 1.363 1_554 S
C398 C404 1.428 . S
H399 C395 0.930 . S
H400 C397 0.929 . S
S401 N402 1.613 . S
S401 N403 1.610 . S
N402 S401 1.613 . S
N402 C405 1.350 . S
N403 S401 1.610 . S
N403 C404 1.351 . S
C404 C398 1.428 . S
C404 N403 1.351 . S
C404 C405 1.434 . S
C405 C396 1.429 1_554 S
C405 N402 1.350 . S
C405 C404 1.434 . S
C277 C258 1.795 . S
C275 C39 1.782 . S
C288 C254 1.992 . S
C286 C113 1.867 . S
C299 C264 2.071 . S
C297 C69 2.179 . S
C310 C248 1.019 . S
C308 C125 1.091 . S
C319 C63 1.916 . S
C321 C240 2.004 . S
C332 C272 1.866 1_565 S
C330 C137 1.892 . S
C341 C51 1.219 . S
C343 C226 1.105 . S
C352 C143 2.286 . S
C354 C270 2.178 . S
C363 C187 1.161 . S
C365 C252 1.300 . S
C374 C217 1.605 . S
C376 C267 1.559 . S
C387 C261 0.566 . S
C385 C199 0.525 . S
C398 C256 1.402 . S
C396 C211 1.367 . S
