# Generated by pormake.
# Topology pyr, (3,6)-cn, num edge types: 1
# Building blocks:
#     Node 0, Type 0, BuildingBlock: MIDCAF_clean_linker_0, # of connection points: 3
#     Node 1, Type 0, BuildingBlock: MIDCAF_clean_linker_0, # of connection points: 3
#     Node 2, Type 0, BuildingBlock: MIDCAF_clean_linker_0, # of connection points: 3
#     Node 3, Type 0, BuildingBlock: MIDCAF_clean_linker_0, # of connection points: 3
#     Node 4, Type 0, BuildingBlock: MIDCAF_clean_linker_0, # of connection points: 3
#     Node 5, Type 0, BuildingBlock: MIDCAF_clean_linker_0, # of connection points: 3
#     Node 6, Type 0, BuildingBlock: MIDCAF_clean_linker_0, # of connection points: 3
#     Node 7, Type 0, BuildingBlock: MIDCAF_clean_linker_0, # of connection points: 3
#     Node 8, Type 1, BuildingBlock: BETDIP_clean_sbu_0, # of connection points: 6
#     Node 9, Type 1, BuildingBlock: BETDIP_clean_sbu_0, # of connection points: 6
#     Node 10, Type 1, BuildingBlock: BETDIP_clean_sbu_0, # of connection points: 6
#     Node 11, Type 1, BuildingBlock: BETDIP_clean_sbu_0, # of connection points: 6
#     Edge 12, Type (0, 1), None
#     Edge 13, Type (0, 1), None
#     Edge 14, Type (0, 1), None
#     Edge 15, Type (0, 1), None
#     Edge 16, Type (0, 1), None
#     Edge 17, Type (0, 1), None
#     Edge 18, Type (0, 1), None
#     Edge 19, Type (0, 1), None
#     Edge 20, Type (0, 1), None
#     Edge 21, Type (0, 1), None
#     Edge 22, Type (0, 1), None
#     Edge 23, Type (0, 1), None
#     Edge 24, Type (0, 1), None
#     Edge 25, Type (0, 1), None
#     Edge 26, Type (0, 1), None
#     Edge 27, Type (0, 1), None
#     Edge 28, Type (0, 1), None
#     Edge 29, Type (0, 1), None
#     Edge 30, Type (0, 1), None
#     Edge 31, Type (0, 1), None
#     Edge 32, Type (0, 1), None
#     Edge 33, Type (0, 1), None
#     Edge 34, Type (0, 1), None
#     Edge 35, Type (0, 1), None
# Relax obj value: 0.243
# Max RMSD: 0.222
# Mean RMSD: 0.105
data_MOF--net-pyr--node1-BETDIP_clean_sbu_0--node2-MIDCAF_clean_linker_0--edge1-none
_symmetry_space_group_name_H-M    P1
_symmetry_Int_Tables_number       1
_symmetry_cell_setting            triclinic
loop_
_symmetry_equiv_pos_as_xyz
'x, y, z'
_cell_length_a     24.619749
_cell_length_b     25.915759
_cell_length_c     23.952598
_cell_angle_alpha  88.433312
_cell_angle_beta   92.917536
_cell_angle_gamma 107.36034
loop_
_atom_site_label
_atom_site_type_symbol
_atom_site_fract_x
_atom_site_fract_y
_atom_site_fract_z
_atom_type_partial_charge
C0 C 0.37054 0.34111 0.53571 0.0
C1 C 0.38231 0.29415 0.55642 0.0
C2 C 0.43192 0.28362 0.53936 0.0
C3 C 0.46038 0.31118 0.49334 0.0
H4 H 0.55036 0.28076 0.34183 0.0
H5 H 0.56944 0.20623 0.29227 0.0
H6 H 0.42648 0.1995 0.17759 0.0
H7 H 0.40875 0.27377 0.22493 0.0
H8 H 0.34788 0.35707 0.22107 0.0
H9 H 0.25756 0.37307 0.19294 0.0
H10 H 0.27572 0.47841 0.33371 0.0
H11 H 0.36561 0.46238 0.3622 0.0
H12 H 0.38542 0.40186 0.47194 0.0
H13 H 0.33397 0.35196 0.54873 0.0
H14 H 0.44451 0.24974 0.55693 0.0
H15 H 0.49336 0.29724 0.47629 0.0
N16 N 0.47086 0.32812 0.37468 0.0
N17 N 0.43084 0.35396 0.29143 0.0
N18 N 0.41794 0.38952 0.37651 0.0
C19 C 0.46292 0.32536 0.31805 0.0
C20 C 0.40879 0.38671 0.32033 0.0
C21 C 0.44843 0.36039 0.40433 0.0
C22 C 0.47827 0.28338 0.28711 0.0
C23 C 0.52353 0.26349 0.30567 0.0
C24 C 0.53435 0.22091 0.27756 0.0
C25 C 0.49881 0.19657 0.23183 0.0
C26 C 0.45401 0.2168 0.21335 0.0
C27 C 0.44428 0.25995 0.24016 0.0
C28 C 0.36354 0.40768 0.2945 0.0
C29 C 0.33351 0.38486 0.24517 0.0
C30 C 0.28156 0.39378 0.22914 0.0
C31 C 0.25892 0.4257 0.2621 0.0
C32 C 0.2914 0.45228 0.30849 0.0
C33 C 0.34318 0.44348 0.32447 0.0
C34 C 0.4405 0.35065 0.46512 0.0
C35 C 0.40004 0.36966 0.49084 0.0
C36 C 0.99562 0.91227 0.76405 0.0
C37 C 0.02818 0.93837 0.71941 0.0
C38 C 0.06999 0.91748 0.69989 0.0
C39 C 0.08083 0.87253 0.7257 0.0
H40 H 0.17566 0.77269 0.71007 0.0
H41 H 0.2628 0.75832 0.67958 0.0
H42 H 0.28113 0.67715 0.83608 0.0
H43 H 0.19441 0.69192 0.86712 0.0
H44 H 0.16346 0.7418 0.96996 0.0
H45 H 0.21386 0.79721 1.04644 0.0
H46 H 0.08996 0.88561 1.03846 0.0
H47 H 0.04105 0.83184 0.95914 0.0
H48 H 0.9839 0.8499 0.82728 0.0
H49 H 0.96295 0.92766 0.77952 0.0
H50 H 0.09514 0.93658 0.66498 0.0
H51 H 0.11476 0.85882 0.71042 0.0
N52 N 0.10528 0.78224 0.78259 0.0
N53 N 0.12541 0.74911 0.87049 0.0
N54 N 0.06485 0.8037 0.86201 0.0
C55 C 0.13222 0.7524 0.81455 0.0
C56 C 0.09198 0.77451 0.89482 0.0
C57 C 0.07079 0.80737 0.80582 0.0
C58 C 0.17819 0.73415 0.79143 0.0
C59 C 0.19751 0.75084 0.73768 0.0
C60 C 0.24761 0.74263 0.72012 0.0
C61 C 0.27946 0.7175 0.75584 0.0
C62 C 0.25829 0.69784 0.80814 0.0
C63 C 0.20822 0.70595 0.8257 0.0
C64 C 0.10085 0.7853 0.95564 0.0
C65 C 0.14558 0.7718 0.98549 0.0
C66 C 0.17458 0.80365 1.03002 0.0
C67 C 0.1582 0.84843 1.04608 0.0
C68 C 0.10561 0.8534 1.02473 0.0
C69 C 0.07722 0.82222 0.97944 0.0
C70 C 0.05108 0.84814 0.77274 0.0
C71 C 1.00759 0.86786 0.79114 0.0
C72 C 0.59044 0.23446 1.05373 0.0
C73 C 0.54822 0.1961 1.02285 0.0
C74 C 0.53139 0.21148 0.96918 0.0
C75 C 0.55651 0.26409 0.9472 0.0
H76 H 0.5474 0.39965 0.82032 0.0
H77 H 0.51785 0.45138 0.74288 0.0
H78 H 0.66743 0.58589 0.77711 0.0
H79 H 0.69698 0.53525 0.85322 0.0
H80 H 0.80629 0.51544 0.94174 0.0
H81 H 0.89408 0.55106 1.00032 0.0
H82 H 0.81141 0.45794 0.1409 0.0
H83 H 0.72518 0.42199 1.08299 0.0
H84 H 0.6477 0.31397 1.05823 0.0
H85 H 0.60409 0.22457 1.0953 0.0
H86 H 0.49856 0.18297 0.94431 0.0
H87 H 0.54288 0.2745 0.90585 0.0
N88 N 0.61234 0.38215 0.91004 0.0
N89 N 0.69078 0.46044 0.92514 0.0
N90 N 0.67684 0.38681 0.98677 0.0
C91 C 0.64295 0.43375 0.89391 0.0
C92 C 0.70769 0.43724 0.97177 0.0
C93 C 0.62965 0.3584 0.95696 0.0
C94 C 0.62465 0.46282 0.84401 0.0
C95 C 0.57425 0.44008 0.81113 0.0
C96 C 0.55729 0.46978 0.76651 0.0
C97 C 0.59012 0.52311 0.75358 0.0
C98 C 0.64086 0.54515 0.78561 0.0
C99 C 0.65779 0.51572 0.82973 0.0
C100 C 0.75886 0.46535 1.0074 0.0
C101 C 0.80679 0.50329 0.98534 0.0
C102 C 0.85706 0.52358 1.01884 0.0
C103 C 0.85987 0.50696 1.07515 0.0
C104 C 0.81093 0.47138 1.09769 0.0
C105 C 0.76139 0.45062 1.06427 0.0
C106 C 0.59921 0.30242 0.97838 0.0
C107 C 0.6154 0.28633 1.03206 0.0
C108 C 0.70455 0.70436 0.55853 0.0
C109 C 0.67642 0.64878 0.5545 0.0
C110 C 0.69833 0.61775 0.51923 0.0
C111 C 0.74655 0.64206 0.48804 0.0
H112 H 0.88339 0.61864 0.38127 0.0
H113 H 0.91563 0.57328 0.30666 0.0
H114 H 0.97341 0.725 0.21714 0.0
H115 H 0.94346 0.77079 0.29292 0.0
H116 H 0.0167 0.84983 0.46256 0.0
H117 H 0.06472 0.93302 0.51316 0.0
H118 H 0.90523 0.96909 0.51996 0.0
H119 H 0.8567 0.88452 0.4718 0.0
H120 H 0.77247 0.77157 0.53218 0.0
H121 H 0.68908 0.72964 0.58505 0.0
H122 H 0.67764 0.57477 0.51484 0.0
H123 H 0.76196 0.6171 0.4611 0.0
N124 N 0.84464 0.69982 0.41862 0.0
N125 N 0.92046 0.77915 0.40312 0.0
N126 N 0.8544 0.77752 0.47087 0.0
C127 C 0.89171 0.7266 0.38972 0.0
C128 C 0.90163 0.80475 0.44386 0.0
C129 C 0.82563 0.72535 0.45924 0.0
C130 C 0.91106 0.69866 0.34363 0.0
C131 C 0.90309 0.64245 0.34578 0.0
C132 C 0.92162 0.61635 0.30287 0.0
C133 C 0.94697 0.64525 0.25545 0.0
C134 C 0.95378 0.70123 0.25269 0.0
C135 C 0.93693 0.72763 0.29645 0.0
C136 C 0.93295 0.86051 0.46293 0.0
C137 C 0.9921 0.87607 0.47373 0.0
C138 C 0.01942 0.92363 0.50325 0.0
C139 C 0.98863 0.95761 0.52151 0.0
C140 C 0.93013 0.94387 0.50734 0.0
C141 C 0.90247 0.89548 0.47927 0.0
C142 C 0.77426 0.69792 0.49169 0.0
C143 C 0.75266 0.72846 0.52782 0.0
C144 C 0.49612 0.92748 0.97279 0.0
C145 C 0.53168 0.95185 1.01849 0.0
C146 C 0.57648 0.93163 1.03698 0.0
C147 C 0.58619 0.88845 1.01019 0.0
H148 H 0.68231 0.79103 1.02949 0.0
H149 H 0.77255 0.7749 1.05773 0.0
H150 H 0.75452 0.66974 0.91682 0.0
H151 H 0.66471 0.68588 0.88823 0.0
H152 H 0.64515 0.74651 0.7786 0.0
H153 H 0.69666 0.7964 0.70184 0.0
H154 H 0.58602 0.89854 0.69341 0.0
H155 H 0.53712 0.85104 0.77404 0.0
H156 H 0.48006 0.86759 0.90857 0.0
H157 H 0.46102 0.94216 0.95807 0.0
H158 H 0.60402 0.94897 1.07271 0.0
H159 H 0.62172 0.87464 1.02542 0.0
N160 N 0.59952 0.79435 0.959 0.0
N161 N 0.61244 0.75878 0.87393 0.0
N162 N 0.5596 0.82024 0.87572 0.0
C163 C 0.62155 0.76156 0.93011 0.0
C164 C 0.58202 0.78794 0.84609 0.0
C165 C 0.5675 0.82298 0.93235 0.0
C166 C 0.66672 0.74051 0.95599 0.0
C167 C 0.69669 0.76325 1.00538 0.0
C168 C 0.74859 0.75425 1.02147 0.0
C169 C 0.77125 0.72235 0.98851 0.0
C170 C 0.73883 0.69585 0.94205 0.0
C171 C 0.68709 0.70472 0.92602 0.0
C172 C 0.59002 0.79769 0.7853 0.0
C173 C 0.63053 0.77871 0.75966 0.0
C174 C 0.66006 0.80724 0.71479 0.0
C175 C 0.64827 0.85418 0.69403 0.0
C176 C 0.59863 0.86468 0.71102 0.0
C177 C 0.57014 0.83713 0.75704 0.0
C178 C 0.55217 0.86499 0.96327 0.0
C179 C 0.50692 0.88487 0.9447 0.0
C180 C 0.9248 0.29499 0.226 0.0
C181 C 0.87226 0.30004 0.20458 0.0
C182 C 0.8559 0.34483 0.22067 0.0
C183 C 0.88487 0.37661 0.26526 0.0
H184 H 0.83606 0.45654 0.38366 0.0
H185 H 0.74931 0.47133 0.41459 0.0
H186 H 0.76727 0.38986 0.57101 0.0
H187 H 0.85445 0.37547 0.54061 0.0
H188 H 0.91596 0.28985 0.54065 0.0
H189 H 0.93571 0.21218 0.5862 0.0
H190 H 0.06747 0.22077 0.47126 0.0
H191 H 0.0464 0.29843 0.42342 0.0
H192 H 0.98925 0.31639 0.29169 0.0
H193 H 0.94044 0.26278 0.21224 0.0
H194 H 0.81667 0.35133 0.20419 0.0
H195 H 0.86698 0.4066 0.28079 0.0
N196 N 0.9049 0.39919 0.38029 0.0
N197 N 0.92507 0.36613 0.46821 0.0
N198 N 0.96553 0.34467 0.38881 0.0
C199 C 0.89809 0.39593 0.43623 0.0
C200 C 0.95959 0.34103 0.445 0.0
C201 C 0.93837 0.37381 0.35599 0.0
C202 C 0.8521 0.41416 0.45931 0.0
C203 C 0.82215 0.44244 0.42504 0.0
C204 C 0.77207 0.45057 0.44253 0.0
C205 C 0.75079 0.43083 0.49478 0.0
C206 C 0.78255 0.40561 0.5305 0.0
C207 C 0.83266 0.3974 0.51301 0.0
C208 C 0.97941 0.30035 0.47813 0.0
C209 C 0.94983 0.27609 0.52531 0.0
C210 C 0.96075 0.2312 0.55119 0.0
C211 C 1.00247 0.21024 0.53158 0.0
C212 C 0.03488 0.23622 0.4868 0.0
C213 C 0.02284 0.28057 0.45966 0.0
C214 C 0.92952 0.36303 0.29516 0.0
C215 C 0.95314 0.32609 0.27136 0.0
C216 C 0.17367 0.62501 0.23179 0.0
C217 C 0.17073 0.6418 0.17555 0.0
C218 C 0.21956 0.67756 0.15304 0.0
C219 C 0.26913 0.69833 0.18642 0.0
H220 H 0.38277 0.83479 0.19244 0.0
H221 H 0.42642 0.9241 0.15525 0.0
H222 H 0.53252 0.96564 0.30589 0.0
H223 H 0.48815 0.87418 0.34451 0.0
H224 H 0.48349 0.74895 0.43008 0.0
H225 H 0.51294 0.69721 0.50759 0.0
H226 H 0.36278 0.56314 0.47397 0.0
H227 H 0.33333 0.61378 0.3978 0.0
H228 H 0.22455 0.63302 0.30881 0.0
H229 H 0.13674 0.59737 0.2503 0.0
H230 H 0.21898 0.69114 1.10988 0.0
H231 H 0.30526 0.72708 0.16772 0.0
N232 N 0.35387 0.76193 0.26383 0.0
N233 N 0.41836 0.76661 0.34057 0.0
N234 N 0.33988 0.68835 0.32551 0.0
C235 C 0.40107 0.79034 0.29362 0.0
C236 C 0.38771 0.71504 0.35673 0.0
C237 C 0.32299 0.71152 0.27885 0.0
C238 C 0.43153 0.8463 0.27214 0.0
C239 C 0.4152 0.8624 0.21852 0.0
C240 C 0.44019 0.91422 0.19678 0.0
C241 C 0.48258 0.95255 0.22752 0.0
C242 C 0.49956 0.93717 0.28114 0.0
C243 C 0.4744 0.88459 0.30319 0.0
C244 C 0.40596 0.68599 0.40669 0.0
C245 C 0.45649 0.70862 0.43942 0.0
C246 C 0.4734 0.67891 0.48407 0.0
C247 C 0.44037 0.62571 0.49718 0.0
C248 C 0.3895 0.60379 0.46532 0.0
C249 C 0.37263 0.63322 0.42116 0.0
C250 C 0.27179 0.68343 0.24324 0.0
C251 C 0.22397 0.64531 0.26526 0.0
C252 C 0.1003 0.20468 0.74337 0.0
C253 C 0.04177 0.19088 0.72934 0.0
C254 C 0.01098 0.22483 0.74766 0.0
C255 C 0.03833 0.27242 0.77714 0.0
H256 H 0.08707 0.37768 0.95791 0.0
H257 H 0.05717 0.42347 1.03373 0.0
H258 H 0.11508 0.57523 0.94431 0.0
H259 H 0.14726 0.52988 0.86966 0.0
H260 H 0.26856 0.53139 0.78969 0.0
H261 H 0.35287 0.57371 0.73593 0.0
H262 H 0.34144 0.41881 0.66578 0.0
H263 H 0.25806 0.37689 0.71868 0.0
H264 H 0.17376 0.26407 0.77878 0.0
H265 H 0.1252 0.17949 0.73068 0.0
H266 H 0.96566 0.21538 0.73786 0.0
H267 H 0.01372 0.29863 0.78838 0.0
N268 N 0.11004 0.36937 0.84769 0.0
N269 N 0.18591 0.44867 0.83222 0.0
N270 N 0.17607 0.37099 0.7799 0.0
C271 C 0.13884 0.4219 0.86111 0.0
C272 C 0.20488 0.42315 0.79157 0.0
C273 C 0.12883 0.34377 0.80691 0.0
C274 C 0.11953 0.44984 0.90724 0.0
C275 C 0.09364 0.42085 0.95441 0.0
C276 C 0.07683 0.44725 0.9982 0.0
C277 C 0.08368 0.50324 0.99548 0.0
C278 C 0.10905 0.53215 0.94807 0.0
C279 C 0.12755 0.50606 0.90514 0.0
C280 C 0.25627 0.45056 0.75913 0.0
C281 C 0.28397 0.50642 0.76276 0.0
C282 C 0.33219 0.53072 0.73156 0.0
C283 C 0.3541 0.49968 0.6963 0.0
C284 C 0.32598 0.4441 0.6923 0.0
C285 C 0.27788 0.42 0.72301 0.0
C286 C 0.0975 0.28802 0.78783 0.0
C287 C 0.12798 0.25309 0.7714 0.0
Tb288 Tb 0.95298 1.06004 0.63175 0.0
Tb289 Tb 0.07764 0.08847 0.6191 0.0
C290 C 0.84609 1.02533 0.63251 0.0
C291 C 0.79441 0.9806 0.64234 0.0
C292 C 0.78561 0.92792 0.62307 0.0
C293 C 0.73576 0.8869 0.63589 0.0
C294 C 0.69439 0.8981 0.66833 0.0
C295 C 0.70295 0.95176 0.68491 0.0
C296 C 0.75213 0.99231 0.67189 0.0
C297 C 0.01239 0.14418 0.69255 0.0
C298 C 0.02167 0.98851 0.69355 0.0
C299 C 0.18452 0.12307 0.61819 0.0
C300 C 0.23619 0.16778 0.60826 0.0
C301 C 0.24508 0.22046 0.62757 0.0
C302 C 0.29491 0.26146 0.61469 0.0
C303 C 0.33621 0.25024 0.58215 0.0
C304 C 0.32757 0.19658 0.56552 0.0
C305 C 0.2784 0.15605 0.5786 0.0
C306 C 0.01799 1.00421 0.55843 0.0
C307 C 0.00896 0.16009 0.55743 0.0
O308 O 0.87497 1.02444 0.5884 0.0
O309 O 0.87877 1.04513 0.67635 0.0
O310 O 0.02696 0.10213 0.68403 0.0
O311 O 0.96237 0.13786 0.6697 0.0
O312 O 0.97133 0.99007 0.67297 0.0
O313 O 0.06873 1.0279 0.68464 0.0
O314 O 0.15573 0.12403 0.66234 0.0
O315 O 0.15177 0.10324 0.5744 0.0
O316 O 1.00372 1.04644 0.56683 0.0
O317 O 0.06798 1.01044 0.58133 0.0
O318 O 0.0593 0.15848 0.57796 0.0
O319 O 0.9619 0.12071 0.56633 0.0
H320 H 0.81754 0.91827 0.59936 0.0
H321 H 0.73054 0.84625 0.62192 0.0
H322 H 0.67342 0.96238 0.71104 0.0
H323 H 0.75793 1.0329 0.68655 0.0
H324 H 0.21322 0.23013 0.65137 0.0
H325 H 0.3002 0.3021 0.6287 0.0
H326 H 0.35703 0.18595 0.53931 0.0
H327 H 0.27253 0.11546 0.5639 0.0
Tb328 Tb 0.57652 0.08783 0.14266 0.0
Tb329 Tb 0.45401 1.06073 1.1075 0.0
C330 C 0.68328 0.11748 0.13758 0.0
C331 C 0.73358 0.16439 0.14898 0.0
C332 C 0.73862 0.21598 0.12583 0.0
C333 C 0.786 0.25989 0.14028 0.0
C334 C 0.82899 0.25295 0.17823 0.0
C335 C 0.8248 0.20048 0.19872 0.0
C336 C 0.77783 0.15685 0.18408 0.0
C337 C 0.51013 1.00675 0.20154 0.0
C338 C 0.5077 0.15116 0.20144 0.0
C339 C 0.34724 1.03122 1.11241 0.0
C340 C 0.29694 0.98427 1.10118 0.0
C341 C 0.29197 0.93274 0.12444 0.0
C342 C 0.24459 0.88878 1.11016 0.0
C343 C 0.20151 0.89561 1.07226 0.0
C344 C 0.20563 0.94802 1.05164 0.0
C345 C 0.25261 0.9917 1.06611 0.0
C346 C 0.52068 0.14183 1.04869 0.0
C347 C 0.52281 0.9973 1.04883 0.0
O348 O 0.64844 0.1215 1.09567 0.0
O349 O 0.65635 0.09307 0.1812 0.0
O350 O 0.50512 1.01695 0.15001 0.0
O351 O 0.55647 1.0412 0.22133 0.0
O352 O 0.55977 0.15135 0.19033 0.0
O353 O 0.46223 0.11671 0.17705 0.0
O354 O 0.38201 1.02738 0.15445 0.0
O355 O 0.37424 1.05538 1.06873 0.0
O356 O 0.52532 0.13154 1.10022 0.0
O357 O 0.47437 0.10739 1.0288 0.0
O358 O 0.47074 0.9971 1.05999 0.0
O359 O 0.56828 1.03179 1.07315 0.0
H360 H 0.70556 0.22273 1.09767 0.0
H361 H 0.78799 0.2995 1.1232 0.0
H362 H 0.85604 0.19324 0.22891 0.0
H363 H 0.77518 0.11728 0.20181 0.0
H364 H 0.3251 0.92607 0.15258 0.0
H365 H 0.24266 0.84921 0.12734 0.0
H366 H 0.17431 0.95517 1.02149 0.0
H367 H 0.25521 1.03122 1.04829 0.0
Tb368 Tb 0.52153 0.62356 0.65522 0.0
Tb369 Tb 0.50888 0.52498 0.59536 0.0
C370 C 0.49894 0.7031 0.69453 0.0
C371 C 0.44357 0.70933 0.70902 0.0
C372 C 0.39702 0.69782 0.66989 0.0
C373 C 0.34382 0.70036 0.68506 0.0
C374 C 0.33581 0.71409 0.73972 0.0
C375 C 0.38241 0.72563 0.77877 0.0
C376 C 0.43567 0.7232 0.76355 0.0
C377 C 0.5712 0.55746 0.70955 0.0
C378 C 0.40795 0.52413 0.66683 0.0
C379 C 0.53131 0.44547 0.55578 0.0
C380 C 0.58667 0.43916 0.54137 0.0
C381 C 0.63314 0.45053 0.58058 0.0
C382 C 0.68634 0.44793 0.5655 0.0
C383 C 0.69443 0.43428 0.51083 0.0
C384 C 0.6479 0.42287 0.47169 0.0
C385 C 0.59464 0.42537 0.48683 0.0
C386 C 0.4592 0.59131 0.54123 0.0
C387 C 0.62254 0.62434 0.58392 0.0
O388 O 0.50611 0.69827 0.64141 0.0
O389 O 0.51704 0.66877 0.72553 0.0
O390 O 0.52378 0.54417 0.68225 0.0
O391 O 0.59159 0.60982 0.70776 0.0
O392 O 0.4323 0.57697 0.66893 0.0
O393 O 0.43278 0.49266 0.64237 0.0
O394 O 0.52401 0.45012 0.60891 0.0
O395 O 0.51342 0.48 0.52489 0.0
O396 O 0.50672 0.60434 0.56831 0.0
O397 O 0.43869 0.53895 0.54306 0.0
O398 O 0.59818 0.5715 0.58184 0.0
O399 O 0.59768 0.65584 0.60829 0.0
H400 H 0.40133 0.68601 0.6277 0.0
H401 H 0.30869 0.69069 0.6542 0.0
H402 H 0.37786 0.73701 0.82106 0.0
H403 H 0.47048 0.73142 0.79469 0.0
H404 H 0.62878 0.46229 0.62278 0.0
H405 H 0.72142 0.45751 0.59642 0.0
H406 H 0.65251 0.41155 0.4294 0.0
H407 H 0.55989 0.41726 0.45564 0.0
Tb408 Tb 0.01816 0.621 1.08787 0.0
Tb409 Tb 0.01235 0.52742 0.16301 0.0
C410 C 0.99146 0.69114 1.02728 0.0
C411 C 0.93919 0.70727 1.01995 0.0
C412 C 0.90331 0.70415 1.06453 0.0
C413 C 0.84911 0.71031 1.05472 0.0
C414 C 0.82985 0.71915 1.00013 0.0
C415 C 0.86688 0.7245 0.95605 0.0
C416 C 0.92107 0.71863 0.96592 0.0
C417 C 0.11665 0.62568 0.14088 0.0
C418 C 0.96839 0.61784 0.21046 0.0
C419 C 0.03879 0.4571 0.22353 0.0
C420 C 0.09098 0.44082 0.23082 0.0
C421 C 0.12675 0.44377 0.18619 0.0
C422 C 0.18094 0.43758 0.19595 0.0
C423 C 0.20029 0.42886 0.25053 0.0
C424 C 0.16335 0.42363 0.29467 0.0
C425 C 0.10916 0.42954 0.28484 0.0
C426 C 0.91389 0.52305 1.1099 0.0
C427 C 0.06225 0.53065 1.04047 0.0
O428 O 0.98565 0.642 1.01119 0.0
O429 O 0.02051 0.70225 1.07502 0.0
O430 O 0.06781 0.6081 0.16027 0.0
O431 O 0.11129 0.64593 1.09155 0.0
O432 O 0.97092 0.63733 0.15849 0.0
O433 O 0.98621 0.57561 0.22368 0.0
O434 O 0.04475 0.50625 0.23967 0.0
O435 O 0.00971 0.44608 0.1758 0.0
O436 O 0.96279 0.5403 1.09067 0.0
O437 O 0.91914 0.50283 0.15928 0.0
O438 O 0.05969 0.51114 1.09243 0.0
O439 O 0.04444 0.57287 1.02724 0.0
H440 H 0.91623 0.69524 1.10659 0.0
H441 H 0.82155 0.70616 1.08945 0.0
H442 H 0.85362 0.73252 0.91371 0.0
H443 H 0.94809 0.72099 0.93101 0.0
H444 H 0.11377 0.4526 0.14412 0.0
H445 H 0.20843 0.44163 0.16117 0.0
H446 H 0.17668 0.4157 0.33701 0.0
H447 H 0.08223 0.4273 0.3198 0.0
loop_
_geom_bond_atom_site_label_1
_geom_bond_atom_site_label_2
_geom_bond_distance
_geom_bond_site_symmetry_2
_ccdc_geom_bond_type
C0 C1 1.384 . S
C0 H13 0.947 . S
C0 C35 1.382 . S
C1 C0 1.384 . S
C1 C2 1.378 . S
C2 C1 1.378 . S
C2 C3 1.378 . S
C2 H14 0.952 . S
C3 C2 1.378 . S
C3 H15 0.950 . S
C3 C34 1.383 . S
H4 C23 0.947 . S
H5 C24 0.946 . S
H6 C26 0.953 . S
H7 C27 0.945 . S
H8 C29 0.952 . S
H9 C30 0.949 . S
H10 C32 0.950 . S
H11 C33 0.948 . S
H12 C35 0.951 . S
H13 C0 0.947 . S
H14 C2 0.952 . S
H15 C3 0.950 . S
N16 C19 1.382 . S
N16 C21 1.363 . S
N17 C19 1.371 . S
N17 C20 1.372 . S
N18 C20 1.361 . S
N18 C21 1.377 . S
C19 N16 1.382 . S
C19 N17 1.371 . S
C19 C22 1.480 . S
C20 N17 1.372 . S
C20 N18 1.361 . S
C20 C28 1.457 . S
C21 N16 1.363 . S
C21 N18 1.377 . S
C21 C34 1.479 . S
C22 C19 1.480 . S
C22 C23 1.383 . S
C22 C27 1.385 . S
C23 H4 0.947 . S
C23 C22 1.383 . S
C23 C24 1.388 . S
C24 H5 0.946 . S
C24 C23 1.388 . S
C24 C25 1.384 . S
C25 C24 1.384 . S
C25 C26 1.377 . S
C26 H6 0.953 . S
C26 C25 1.377 . S
C26 C27 1.369 . S
C27 H7 0.945 . S
C27 C22 1.385 . S
C27 C26 1.369 . S
C28 C20 1.457 . S
C28 C29 1.372 . S
C28 C33 1.364 . S
C29 H8 0.952 . S
C29 C28 1.372 . S
C29 C30 1.389 . S
C30 H9 0.949 . S
C30 C29 1.389 . S
C30 C31 1.387 . S
C31 C30 1.387 . S
C31 C32 1.372 . S
C32 H10 0.950 . S
C32 C31 1.372 . S
C32 C33 1.379 . S
C33 H11 0.948 . S
C33 C28 1.364 . S
C33 C32 1.379 . S
C34 C3 1.383 . S
C34 C21 1.479 . S
C34 C35 1.398 . S
C35 C0 1.382 . S
C35 H12 0.951 . S
C35 C34 1.398 . S
C36 C37 1.384 . S
C36 H49 0.947 . S
C36 C71 1.382 . S
C37 C36 1.384 . S
C37 C38 1.378 . S
C38 C37 1.378 . S
C38 C39 1.378 . S
C38 H50 0.952 . S
C39 C38 1.378 . S
C39 H51 0.950 . S
C39 C70 1.383 . S
H40 C59 0.947 . S
H41 C60 0.946 . S
H42 C62 0.953 . S
H43 C63 0.945 . S
H44 C65 0.952 . S
H45 C66 0.949 . S
H46 C68 0.950 . S
H47 C69 0.948 . S
H48 C71 0.951 . S
H49 C36 0.947 . S
H50 C38 0.952 . S
H51 C39 0.950 . S
N52 C55 1.382 . S
N52 C57 1.363 . S
N53 C55 1.371 . S
N53 C56 1.372 . S
N54 C56 1.361 . S
N54 C57 1.377 . S
C55 N52 1.382 . S
C55 N53 1.371 . S
C55 C58 1.480 . S
C56 N53 1.372 . S
C56 N54 1.361 . S
C56 C64 1.457 . S
C57 N52 1.363 . S
C57 N54 1.377 . S
C57 C70 1.479 1_455 S
C58 C55 1.480 . S
C58 C59 1.383 . S
C58 C63 1.385 . S
C59 H40 0.947 . S
C59 C58 1.383 . S
C59 C60 1.388 . S
C60 H41 0.946 . S
C60 C59 1.388 . S
C60 C61 1.384 . S
C61 C60 1.384 . S
C61 C62 1.377 . S
C62 H42 0.953 . S
C62 C61 1.377 . S
C62 C63 1.369 . S
C63 H43 0.945 . S
C63 C58 1.385 . S
C63 C62 1.369 . S
C64 C56 1.457 . S
C64 C65 1.372 . S
C64 C69 1.364 . S
C65 H44 0.952 . S
C65 C64 1.372 . S
C65 C66 1.389 . S
C66 H45 0.949 . S
C66 C65 1.389 . S
C66 C67 1.387 . S
C67 C66 1.387 . S
C67 C68 1.372 . S
C68 H46 0.950 . S
C68 C67 1.372 . S
C68 C69 1.379 . S
C69 H47 0.948 . S
C69 C64 1.364 . S
C69 C68 1.379 . S
C70 C39 1.383 . S
C70 C57 1.479 1_655 S
C70 C71 1.398 . S
C71 C36 1.382 . S
C71 H48 0.951 . S
C71 C70 1.398 . S
C72 C73 1.384 . S
C72 H85 0.947 . S
C72 C107 1.382 . S
C73 C72 1.384 . S
C73 C74 1.378 . S
C74 C73 1.378 . S
C74 C75 1.378 . S
C74 H86 0.952 . S
C75 C74 1.378 . S
C75 H87 0.950 . S
C75 C106 1.383 . S
H76 C95 0.947 . S
H77 C96 0.946 . S
H78 C98 0.953 . S
H79 C99 0.945 . S
H80 C101 0.952 . S
H81 C102 0.949 . S
H82 C104 0.950 . S
H83 C105 0.948 . S
H84 C107 0.951 . S
H85 C72 0.947 . S
H86 C74 0.952 . S
H87 C75 0.950 . S
N88 C91 1.382 . S
N88 C93 1.363 . S
N89 C91 1.371 . S
N89 C92 1.372 . S
N90 C92 1.361 . S
N90 C93 1.377 . S
C91 N88 1.382 . S
C91 N89 1.371 . S
C91 C94 1.480 . S
C92 N89 1.372 . S
C92 N90 1.361 . S
C92 C100 1.457 . S
C93 N88 1.363 . S
C93 N90 1.377 . S
C93 C106 1.479 . S
C94 C91 1.480 . S
C94 C95 1.383 . S
C94 C99 1.385 . S
C95 H76 0.947 . S
C95 C94 1.383 . S
C95 C96 1.388 . S
C96 H77 0.946 . S
C96 C95 1.388 . S
C96 C97 1.384 . S
C97 C96 1.384 . S
C97 C98 1.377 . S
C98 H78 0.953 . S
C98 C97 1.377 . S
C98 C99 1.369 . S
C99 H79 0.945 . S
C99 C94 1.385 . S
C99 C98 1.369 . S
C100 C92 1.457 . S
C100 C101 1.372 . S
C100 C105 1.364 . S
C101 H80 0.952 . S
C101 C100 1.372 . S
C101 C102 1.389 . S
C102 H81 0.949 . S
C102 C101 1.389 . S
C102 C103 1.387 . S
C103 C102 1.387 . S
C103 C104 1.372 . S
C104 H82 0.950 . S
C104 C103 1.372 . S
C104 C105 1.379 . S
C105 H83 0.948 . S
C105 C100 1.364 . S
C105 C104 1.379 . S
C106 C75 1.383 . S
C106 C93 1.479 . S
C106 C107 1.398 . S
C107 C72 1.382 . S
C107 H84 0.951 . S
C107 C106 1.398 . S
C108 C109 1.384 . S
C108 H121 0.947 . S
C108 C143 1.382 . S
C109 C108 1.384 . S
C109 C110 1.378 . S
C110 C109 1.378 . S
C110 C111 1.378 . S
C110 H122 0.952 . S
C111 C110 1.378 . S
C111 H123 0.950 . S
C111 C142 1.383 . S
H112 C131 0.947 . S
H113 C132 0.946 . S
H114 C134 0.953 . S
H115 C135 0.945 . S
H116 C137 0.952 . S
H117 C138 0.949 . S
H118 C140 0.950 . S
H119 C141 0.948 . S
H120 C143 0.951 . S
H121 C108 0.947 . S
H122 C110 0.952 . S
H123 C111 0.950 . S
N124 C127 1.382 . S
N124 C129 1.363 . S
N125 C127 1.371 . S
N125 C128 1.372 . S
N126 C128 1.361 . S
N126 C129 1.377 . S
C127 N124 1.382 . S
C127 N125 1.371 . S
C127 C130 1.480 . S
C128 N125 1.372 . S
C128 N126 1.361 . S
C128 C136 1.457 . S
C129 N124 1.363 . S
C129 N126 1.377 . S
C129 C142 1.479 . S
C130 C127 1.480 . S
C130 C131 1.383 . S
C130 C135 1.385 . S
C131 H112 0.947 . S
C131 C130 1.383 . S
C131 C132 1.388 . S
C132 H113 0.946 . S
C132 C131 1.388 . S
C132 C133 1.384 . S
C133 C132 1.384 . S
C133 C134 1.377 . S
C134 H114 0.953 . S
C134 C133 1.377 . S
C134 C135 1.369 . S
C135 H115 0.945 . S
C135 C130 1.385 . S
C135 C134 1.369 . S
C136 C128 1.457 . S
C136 C137 1.372 . S
C136 C141 1.364 . S
C137 H116 0.952 . S
C137 C136 1.372 . S
C137 C138 1.389 . S
C138 H117 0.949 . S
C138 C137 1.389 . S
C138 C139 1.387 . S
C139 C138 1.387 . S
C139 C140 1.372 . S
C140 H118 0.950 . S
C140 C139 1.372 . S
C140 C141 1.379 . S
C141 H119 0.948 . S
C141 C136 1.364 . S
C141 C140 1.379 . S
C142 C111 1.383 . S
C142 C129 1.479 . S
C142 C143 1.398 . S
C143 C108 1.382 . S
C143 H120 0.951 . S
C143 C142 1.398 . S
C144 C145 1.384 . S
C144 H157 0.947 . S
C144 C179 1.382 . S
C145 C144 1.384 . S
C145 C146 1.378 . S
C146 C145 1.378 . S
C146 C147 1.378 . S
C146 H158 0.952 . S
C147 C146 1.378 . S
C147 H159 0.950 . S
C147 C178 1.383 . S
H148 C167 0.947 . S
H149 C168 0.946 . S
H150 C170 0.953 . S
H151 C171 0.945 . S
H152 C173 0.952 . S
H153 C174 0.949 . S
H154 C176 0.950 . S
H155 C177 0.948 . S
H156 C179 0.951 . S
H157 C144 0.947 . S
H158 C146 0.952 . S
H159 C147 0.950 . S
N160 C163 1.382 . S
N160 C165 1.363 . S
N161 C163 1.371 . S
N161 C164 1.372 . S
N162 C164 1.361 . S
N162 C165 1.377 . S
C163 N160 1.382 . S
C163 N161 1.371 . S
C163 C166 1.480 . S
C164 N161 1.372 . S
C164 N162 1.361 . S
C164 C172 1.457 . S
C165 N160 1.363 . S
C165 N162 1.377 . S
C165 C178 1.479 . S
C166 C163 1.480 . S
C166 C167 1.383 . S
C166 C171 1.385 . S
C167 H148 0.947 . S
C167 C166 1.383 . S
C167 C168 1.388 . S
C168 H149 0.946 . S
C168 C167 1.388 . S
C168 C169 1.384 . S
C169 C168 1.384 . S
C169 C170 1.377 . S
C170 H150 0.953 . S
C170 C169 1.377 . S
C170 C171 1.369 . S
C171 H151 0.945 . S
C171 C166 1.385 . S
C171 C170 1.369 . S
C172 C164 1.457 . S
C172 C173 1.372 . S
C172 C177 1.364 . S
C173 H152 0.952 . S
C173 C172 1.372 . S
C173 C174 1.389 . S
C174 H153 0.949 . S
C174 C173 1.389 . S
C174 C175 1.387 . S
C175 C174 1.387 . S
C175 C176 1.372 . S
C176 H154 0.950 . S
C176 C175 1.372 . S
C176 C177 1.379 . S
C177 H155 0.948 . S
C177 C172 1.364 . S
C177 C176 1.379 . S
C178 C147 1.383 . S
C178 C165 1.479 . S
C178 C179 1.398 . S
C179 C144 1.382 . S
C179 H156 0.951 . S
C179 C178 1.398 . S
C180 C181 1.384 . S
C180 H193 0.947 . S
C180 C215 1.382 . S
C181 C180 1.384 . S
C181 C182 1.378 . S
C182 C181 1.378 . S
C182 C183 1.378 . S
C182 H194 0.952 . S
C183 C182 1.378 . S
C183 H195 0.950 . S
C183 C214 1.383 . S
H184 C203 0.947 . S
H185 C204 0.946 . S
H186 C206 0.953 . S
H187 C207 0.945 . S
H188 C209 0.952 . S
H189 C210 0.949 . S
H190 C212 0.950 . S
H191 C213 0.948 . S
H192 C215 0.951 . S
H193 C180 0.947 . S
H194 C182 0.952 . S
H195 C183 0.950 . S
N196 C199 1.382 . S
N196 C201 1.363 . S
N197 C199 1.371 . S
N197 C200 1.372 . S
N198 C200 1.361 . S
N198 C201 1.377 . S
C199 N196 1.382 . S
C199 N197 1.371 . S
C199 C202 1.480 . S
C200 N197 1.372 . S
C200 N198 1.361 . S
C200 C208 1.457 1_655 S
C201 N196 1.363 . S
C201 N198 1.377 . S
C201 C214 1.479 . S
C202 C199 1.480 . S
C202 C203 1.383 . S
C202 C207 1.385 . S
C203 H184 0.947 . S
C203 C202 1.383 . S
C203 C204 1.388 . S
C204 H185 0.946 . S
C204 C203 1.388 . S
C204 C205 1.384 . S
C205 C204 1.384 . S
C205 C206 1.377 . S
C206 H186 0.953 . S
C206 C205 1.377 . S
C206 C207 1.369 . S
C207 H187 0.945 . S
C207 C202 1.385 . S
C207 C206 1.369 . S
C208 C200 1.457 1_455 S
C208 C209 1.372 . S
C208 C213 1.364 . S
C209 H188 0.952 . S
C209 C208 1.372 . S
C209 C210 1.389 . S
C210 H189 0.949 . S
C210 C209 1.389 . S
C210 C211 1.387 . S
C211 C210 1.387 . S
C211 C212 1.372 . S
C212 H190 0.950 . S
C212 C211 1.372 . S
C212 C213 1.379 . S
C213 H191 0.948 . S
C213 C208 1.364 . S
C213 C212 1.379 . S
C214 C183 1.383 . S
C214 C201 1.479 . S
C214 C215 1.398 . S
C215 C180 1.382 . S
C215 H192 0.951 . S
C215 C214 1.398 . S
C216 C217 1.384 . S
C216 H229 0.947 . S
C216 C251 1.382 . S
C217 C216 1.384 . S
C217 C218 1.378 . S
C218 C217 1.378 . S
C218 C219 1.378 . S
C218 H230 0.952 . S
C219 C218 1.378 . S
C219 H231 0.950 . S
C219 C250 1.383 . S
H220 C239 0.947 . S
H221 C240 0.946 . S
H222 C242 0.953 . S
H223 C243 0.945 . S
H224 C245 0.952 . S
H225 C246 0.949 . S
H226 C248 0.950 . S
H227 C249 0.948 . S
H228 C251 0.951 . S
H229 C216 0.947 . S
H230 C218 0.952 . S
H231 C219 0.950 . S
N232 C235 1.382 . S
N232 C237 1.363 . S
N233 C235 1.371 . S
N233 C236 1.372 . S
N234 C236 1.361 . S
N234 C237 1.377 . S
C235 N232 1.382 . S
C235 N233 1.371 . S
C235 C238 1.480 . S
C236 N233 1.372 . S
C236 N234 1.361 . S
C236 C244 1.457 . S
C237 N232 1.363 . S
C237 N234 1.377 . S
C237 C250 1.479 . S
C238 C235 1.480 . S
C238 C239 1.383 . S
C238 C243 1.385 . S
C239 H220 0.947 . S
C239 C238 1.383 . S
C239 C240 1.388 . S
C240 H221 0.946 . S
C240 C239 1.388 . S
C240 C241 1.384 . S
C241 C240 1.384 . S
C241 C242 1.377 . S
C242 H222 0.953 . S
C242 C241 1.377 . S
C242 C243 1.369 . S
C243 H223 0.945 . S
C243 C238 1.385 . S
C243 C242 1.369 . S
C244 C236 1.457 . S
C244 C245 1.372 . S
C244 C249 1.364 . S
C245 H224 0.952 . S
C245 C244 1.372 . S
C245 C246 1.389 . S
C246 H225 0.949 . S
C246 C245 1.389 . S
C246 C247 1.387 . S
C247 C246 1.387 . S
C247 C248 1.372 . S
C248 H226 0.950 . S
C248 C247 1.372 . S
C248 C249 1.379 . S
C249 H227 0.948 . S
C249 C244 1.364 . S
C249 C248 1.379 . S
C250 C219 1.383 . S
C250 C237 1.479 . S
C250 C251 1.398 . S
C251 C216 1.382 . S
C251 H228 0.951 . S
C251 C250 1.398 . S
C252 C253 1.384 . S
C252 H265 0.947 . S
C252 C287 1.382 . S
C253 C252 1.384 . S
C253 C254 1.378 . S
C254 C253 1.378 . S
C254 C255 1.378 . S
C254 H266 0.952 . S
C255 C254 1.378 . S
C255 H267 0.950 . S
C255 C286 1.383 . S
H256 C275 0.947 . S
H257 C276 0.946 . S
H258 C278 0.953 . S
H259 C279 0.945 . S
H260 C281 0.952 . S
H261 C282 0.949 . S
H262 C284 0.950 . S
H263 C285 0.948 . S
H264 C287 0.951 . S
H265 C252 0.947 . S
H266 C254 0.952 . S
H267 C255 0.950 . S
N268 C271 1.382 . S
N268 C273 1.363 . S
N269 C271 1.371 . S
N269 C272 1.372 . S
N270 C272 1.361 . S
N270 C273 1.377 . S
C271 N268 1.382 . S
C271 N269 1.371 . S
C271 C274 1.480 . S
C272 N269 1.372 . S
C272 N270 1.361 . S
C272 C280 1.457 . S
C273 N268 1.363 . S
C273 N270 1.377 . S
C273 C286 1.479 . S
C274 C271 1.480 . S
C274 C275 1.383 . S
C274 C279 1.385 . S
C275 H256 0.947 . S
C275 C274 1.383 . S
C275 C276 1.388 . S
C276 H257 0.946 . S
C276 C275 1.388 . S
C276 C277 1.384 . S
C277 C276 1.384 . S
C277 C278 1.377 . S
C278 H258 0.953 . S
C278 C277 1.377 . S
C278 C279 1.369 . S
C279 H259 0.945 . S
C279 C274 1.385 . S
C279 C278 1.369 . S
C280 C272 1.457 . S
C280 C281 1.372 . S
C280 C285 1.364 . S
C281 H260 0.952 . S
C281 C280 1.372 . S
C281 C282 1.389 . S
C282 H261 0.949 . S
C282 C281 1.389 . S
C282 C283 1.387 . S
C283 C282 1.387 . S
C283 C284 1.372 . S
C284 H262 0.950 . S
C284 C283 1.372 . S
C284 C285 1.379 . S
C285 H263 0.948 . S
C285 C280 1.364 . S
C285 C284 1.379 . S
C286 C255 1.383 . S
C286 C273 1.479 . S
C286 C287 1.398 . S
C287 C252 1.382 . S
C287 H264 0.951 . S
C287 C286 1.398 . S
Tb288 C290 2.809 1_545 S
Tb288 O308 2.484 1_545 S
Tb288 O309 2.440 1_545 S
Tb288 O310 2.658 1_655 S
Tb288 O311 2.409 . S
Tb288 O312 2.378 1_545 S
Tb288 O316 2.325 1_545 S
Tb288 O319 2.341 . S
Tb289 C299 2.809 . S
Tb289 O310 2.325 . S
Tb289 O313 2.341 1_545 S
Tb289 O314 2.484 . S
Tb289 O315 2.440 . S
Tb289 O316 2.658 1_445 S
Tb289 O317 2.409 1_545 S
Tb289 O318 2.378 . S
C290 Tb288 2.809 1_565 S
C290 C291 1.514 . S
C290 O308 1.248 . S
C290 O309 1.266 . S
C291 C290 1.514 . S
C291 C292 1.359 . S
C291 C296 1.348 . S
C292 C291 1.359 . S
C292 C293 1.380 . S
C292 H320 0.929 . S
C293 C292 1.380 . S
C293 C294 1.347 . S
C293 H321 0.931 . S
C294 C293 1.347 . S
C294 C295 1.369 . S
C295 C294 1.369 . S
C295 C296 1.408 . S
C295 H322 0.930 . S
C296 C291 1.348 . S
C296 C295 1.408 . S
C296 H323 0.930 . S
C297 O310 1.281 . S
C297 O311 1.254 1_455 S
C298 O312 1.236 1_455 S
C298 O313 1.266 . S
C299 Tb289 2.809 . S
C299 C300 1.514 . S
C299 O314 1.248 . S
C299 O315 1.266 . S
C300 C299 1.514 . S
C300 C301 1.359 . S
C300 C305 1.348 . S
C301 C300 1.359 . S
C301 C302 1.380 . S
C301 H324 0.929 . S
C302 C301 1.380 . S
C302 C303 1.347 . S
C302 H325 0.931 . S
C303 C302 1.347 . S
C303 C304 1.369 . S
C304 C303 1.369 . S
C304 C305 1.408 . S
C304 H326 0.930 . S
C305 C300 1.348 . S
C305 C304 1.408 . S
C305 H327 0.930 . S
C306 O316 1.281 . S
C306 O317 1.254 1_655 S
C307 O318 1.236 1_655 S
C307 O319 1.266 . S
O308 Tb288 2.484 1_565 S
O308 C290 1.248 . S
O309 Tb288 2.440 1_565 S
O309 C290 1.266 . S
O310 Tb288 2.658 1_455 S
O310 Tb289 2.325 . S
O310 C297 1.281 . S
O311 Tb288 2.409 . S
O311 C297 1.254 1_655 S
O312 Tb288 2.378 1_565 S
O312 C298 1.236 1_655 S
O313 Tb289 2.341 1_565 S
O313 C298 1.266 . S
O314 Tb289 2.484 . S
O314 C299 1.248 . S
O315 Tb289 2.440 . S
O315 C299 1.266 . S
O316 Tb288 2.325 1_565 S
O316 Tb289 2.658 1_665 S
O316 C306 1.281 . S
O317 Tb289 2.409 1_565 S
O317 C306 1.254 1_455 S
O318 Tb289 2.378 . S
O318 C307 1.236 1_455 S
O319 Tb288 2.341 . S
O319 C307 1.266 . S
H320 C292 0.929 . S
H321 C293 0.931 . S
H322 C295 0.930 . S
H323 C296 0.930 . S
H324 C301 0.929 . S
H325 C302 0.931 . S
H326 C304 0.930 . S
H327 C305 0.930 . S
Tb328 C330 2.809 . S
Tb328 O348 2.484 . S
Tb328 O349 2.440 . S
Tb328 O350 2.658 1_545 S
Tb328 O351 2.409 1_545 S
Tb328 O352 2.378 . S
Tb328 O356 2.325 1_554 S
Tb328 O359 2.341 1_544 S
Tb329 C339 2.809 . S
Tb329 O350 2.325 1_556 S
Tb329 O353 2.341 1_566 S
Tb329 O354 2.484 . S
Tb329 O355 2.440 . S
Tb329 O356 2.658 1_565 S
Tb329 O357 2.409 1_565 S
Tb329 O358 2.378 . S
C330 Tb328 2.809 . S
C330 C331 1.514 . S
C330 O348 1.248 . S
C330 O349 1.266 . S
C331 C330 1.514 . S
C331 C332 1.359 . S
C331 C336 1.348 . S
C332 C331 1.359 . S
C332 C333 1.380 . S
C332 H360 0.929 . S
C333 C332 1.380 . S
C333 C334 1.347 . S
C333 H361 0.931 . S
C334 C333 1.347 . S
C334 C335 1.369 . S
C335 C334 1.369 . S
C335 C336 1.408 . S
C335 H362 0.930 . S
C336 C331 1.348 . S
C336 C335 1.408 . S
C336 H363 0.930 . S
C337 O350 1.281 . S
C337 O351 1.254 . S
C338 O352 1.236 . S
C338 O353 1.266 . S
C339 Tb329 2.809 . S
C339 C340 1.514 . S
C339 O354 1.248 . S
C339 O355 1.266 . S
C340 C339 1.514 . S
C340 C341 1.359 . S
C340 C345 1.348 . S
C341 C340 1.359 . S
C341 C342 1.380 . S
C341 H364 0.929 . S
C342 C341 1.380 . S
C342 C343 1.347 . S
C342 H365 0.931 . S
C343 C342 1.347 . S
C343 C344 1.369 . S
C344 C343 1.369 . S
C344 C345 1.408 . S
C344 H366 0.930 . S
C345 C340 1.348 . S
C345 C344 1.408 . S
C345 H367 0.930 . S
C346 O356 1.281 . S
C346 O357 1.254 . S
C347 O358 1.236 . S
C347 O359 1.266 . S
O348 Tb328 2.484 . S
O348 C330 1.248 . S
O349 Tb328 2.440 . S
O349 C330 1.266 . S
O350 Tb328 2.658 1_565 S
O350 Tb329 2.325 1_554 S
O350 C337 1.281 . S
O351 Tb328 2.409 1_565 S
O351 C337 1.254 . S
O352 Tb328 2.378 . S
O352 C338 1.236 . S
O353 Tb329 2.341 1_544 S
O353 C338 1.266 . S
O354 Tb329 2.484 . S
O354 C339 1.248 . S
O355 Tb329 2.440 . S
O355 C339 1.266 . S
O356 Tb328 2.325 1_556 S
O356 Tb329 2.658 1_545 S
O356 C346 1.281 . S
O357 Tb329 2.409 1_545 S
O357 C346 1.254 . S
O358 Tb329 2.378 . S
O358 C347 1.236 . S
O359 Tb328 2.341 1_566 S
O359 C347 1.266 . S
H360 C332 0.929 . S
H361 C333 0.931 . S
H362 C335 0.930 . S
H363 C336 0.930 . S
H364 C341 0.929 . S
H365 C342 0.931 . S
H366 C344 0.930 . S
H367 C345 0.930 . S
Tb368 C370 2.809 . S
Tb368 O388 2.484 . S
Tb368 O389 2.440 . S
Tb368 O390 2.658 . S
Tb368 O391 2.409 . S
Tb368 O392 2.378 . S
Tb368 O396 2.325 . S
Tb368 O399 2.341 . S
Tb369 C379 2.809 . S
Tb369 O390 2.325 . S
Tb369 O393 2.341 . S
Tb369 O394 2.484 . S
Tb369 O395 2.440 . S
Tb369 O396 2.658 . S
Tb369 O397 2.409 . S
Tb369 O398 2.378 . S
C370 Tb368 2.809 . S
C370 C371 1.514 . S
C370 O388 1.248 . S
C370 O389 1.266 . S
C371 C370 1.514 . S
C371 C372 1.359 . S
C371 C376 1.348 . S
C372 C371 1.359 . S
C372 C373 1.380 . S
C372 H400 0.929 . S
C373 C372 1.380 . S
C373 C374 1.347 . S
C373 H401 0.931 . S
C374 C373 1.347 . S
C374 C375 1.369 . S
C375 C374 1.369 . S
C375 C376 1.408 . S
C375 H402 0.930 . S
C376 C371 1.348 . S
C376 C375 1.408 . S
C376 H403 0.930 . S
C377 O390 1.281 . S
C377 O391 1.254 . S
C378 O392 1.236 . S
C378 O393 1.266 . S
C379 Tb369 2.809 . S
C379 C380 1.514 . S
C379 O394 1.248 . S
C379 O395 1.266 . S
C380 C379 1.514 . S
C380 C381 1.359 . S
C380 C385 1.348 . S
C381 C380 1.359 . S
C381 C382 1.380 . S
C381 H404 0.929 . S
C382 C381 1.380 . S
C382 C383 1.347 . S
C382 H405 0.931 . S
C383 C382 1.347 . S
C383 C384 1.369 . S
C384 C383 1.369 . S
C384 C385 1.408 . S
C384 H406 0.930 . S
C385 C380 1.348 . S
C385 C384 1.408 . S
C385 H407 0.930 . S
C386 O396 1.281 . S
C386 O397 1.254 . S
C387 O398 1.236 . S
C387 O399 1.266 . S
O388 Tb368 2.484 . S
O388 C370 1.248 . S
O389 Tb368 2.440 . S
O389 C370 1.266 . S
O390 Tb368 2.658 . S
O390 Tb369 2.325 . S
O390 C377 1.281 . S
O391 Tb368 2.409 . S
O391 C377 1.254 . S
O392 Tb368 2.378 . S
O392 C378 1.236 . S
O393 Tb369 2.341 . S
O393 C378 1.266 . S
O394 Tb369 2.484 . S
O394 C379 1.248 . S
O395 Tb369 2.440 . S
O395 C379 1.266 . S
O396 Tb368 2.325 . S
O396 Tb369 2.658 . S
O396 C386 1.281 . S
O397 Tb369 2.409 . S
O397 C386 1.254 . S
O398 Tb369 2.378 . S
O398 C387 1.236 . S
O399 Tb368 2.341 . S
O399 C387 1.266 . S
H400 C372 0.929 . S
H401 C373 0.931 . S
H402 C375 0.930 . S
H403 C376 0.930 . S
H404 C381 0.929 . S
H405 C382 0.931 . S
H406 C384 0.930 . S
H407 C385 0.930 . S
Tb408 C410 2.816 . S
Tb408 O428 2.493 . S
Tb408 O429 2.444 . S
Tb408 O430 2.653 1_656 S
Tb408 O431 2.403 1_656 S
Tb408 O432 2.382 1_556 S
Tb408 O436 2.328 . S
Tb408 O439 2.335 1_655 S
Tb409 C419 2.809 . S
Tb409 O430 2.325 . S
Tb409 O433 2.341 1_455 S
Tb409 O434 2.484 . S
Tb409 O435 2.440 . S
Tb409 O436 2.658 1_454 S
Tb409 O437 2.417 1_455 S
Tb409 O438 2.378 1_554 S
C410 Tb408 2.816 . S
C410 C411 1.514 . S
C410 O428 1.248 . S
C410 O429 1.266 . S
C411 C410 1.514 . S
C411 C412 1.359 . S
C411 C416 1.348 . S
C412 C411 1.359 . S
C412 C413 1.380 . S
C412 H440 0.929 . S
C413 C412 1.380 . S
C413 C414 1.347 . S
C413 H441 0.931 . S
C414 C413 1.347 . S
C414 C415 1.369 . S
C415 C414 1.369 . S
C415 C416 1.408 . S
C415 H442 0.930 . S
C416 C411 1.348 . S
C416 C415 1.408 . S
C416 H443 0.930 . S
C417 O430 1.281 . S
C417 O431 1.254 . S
C418 O432 1.236 . S
C418 O433 1.266 . S
C419 Tb409 2.809 . S
C419 C420 1.514 . S
C419 O434 1.248 . S
C419 O435 1.266 . S
C420 C419 1.514 . S
C420 C421 1.359 . S
C420 C425 1.348 . S
C421 C420 1.359 . S
C421 C422 1.380 . S
C421 H444 0.929 . S
C422 C421 1.380 . S
C422 C423 1.347 . S
C422 H445 0.931 . S
C423 C422 1.347 . S
C423 C424 1.369 . S
C424 C423 1.369 . S
C424 C425 1.408 . S
C424 H446 0.930 . S
C425 C420 1.348 . S
C425 C424 1.408 . S
C425 H447 0.930 . S
C426 O436 1.281 . S
C426 O437 1.244 1_556 S
C427 O438 1.236 . S
C427 O439 1.266 . S
O428 Tb408 2.493 . S
O428 C410 1.248 . S
O429 Tb408 2.444 . S
O429 C410 1.266 . S
O430 Tb408 2.653 1_454 S
O430 Tb409 2.325 . S
O430 C417 1.281 . S
O431 Tb408 2.403 1_454 S
O431 C417 1.254 . S
O432 Tb408 2.382 1_554 S
O432 C418 1.236 . S
O433 Tb409 2.341 1_655 S
O433 C418 1.266 . S
O434 Tb409 2.484 . S
O434 C419 1.248 . S
O435 Tb409 2.440 . S
O435 C419 1.266 . S
O436 Tb408 2.328 . S
O436 Tb409 2.658 1_656 S
O436 C426 1.281 . S
O437 Tb409 2.417 1_655 S
O437 C426 1.244 1_554 S
O438 Tb409 2.378 1_556 S
O438 C427 1.236 . S
O439 Tb408 2.335 1_455 S
O439 C427 1.266 . S
H440 C412 0.929 . S
H441 C413 0.931 . S
H442 C415 0.930 . S
H443 C416 0.930 . S
H444 C421 0.929 . S
H445 C422 0.931 . S
H446 C424 0.930 . S
H447 C425 0.930 . S
C1 C303 2.326 . S
C67 C343 2.739 . S
C377 C97 3.572 . S
C133 C418 3.824 . S
C338 C25 3.190 . S
C298 C37 4.330 1_455 S
C426 C103 2.461 . S
C387 C109 2.684 . S
C31 C423 3.839 . S
C346 C73 2.909 . S
C139 C306 3.440 . S
C61 C374 3.284 . S
C294 C175 2.194 . S
C181 C334 2.648 . S
C247 C386 3.583 . S
C277 C427 3.770 . S
C145 C347 3.001 . S
C307 C211 4.333 1_655 S
C417 C217 2.397 . S
C378 C283 2.660 . S
C169 C414 3.622 . S
C337 C241 2.920 . S
C297 C253 3.441 . S
C205 C383 3.372 . S
