# Generated by pormake.
# Topology pyr, (3,6)-cn, num edge types: 1
# Building blocks:
#     Node 0, Type 0, BuildingBlock: QEWDON_clean_linker_0, # of connection points: 3
#     Node 1, Type 0, BuildingBlock: QEWDON_clean_linker_0, # of connection points: 3
#     Node 2, Type 0, BuildingBlock: QEWDON_clean_linker_0, # of connection points: 3
#     Node 3, Type 0, BuildingBlock: QEWDON_clean_linker_0, # of connection points: 3
#     Node 4, Type 0, BuildingBlock: QEWDON_clean_linker_0, # of connection points: 3
#     Node 5, Type 0, BuildingBlock: QEWDON_clean_linker_0, # of connection points: 3
#     Node 6, Type 0, BuildingBlock: QEWDON_clean_linker_0, # of connection points: 3
#     Node 7, Type 0, BuildingBlock: QEWDON_clean_linker_0, # of connection points: 3
#     Node 8, Type 1, BuildingBlock: BETDAH_clean_sbu_0, # of connection points: 6
#     Node 9, Type 1, BuildingBlock: BETDAH_clean_sbu_0, # of connection points: 6
#     Node 10, Type 1, BuildingBlock: BETDAH_clean_sbu_0, # of connection points: 6
#     Node 11, Type 1, BuildingBlock: BETDAH_clean_sbu_0, # of connection points: 6
#     Edge 12, Type (0, 1), None
#     Edge 13, Type (0, 1), None
#     Edge 14, Type (0, 1), None
#     Edge 15, Type (0, 1), None
#     Edge 16, Type (0, 1), None
#     Edge 17, Type (0, 1), None
#     Edge 18, Type (0, 1), None
#     Edge 19, Type (0, 1), None
#     Edge 20, Type (0, 1), None
#     Edge 21, Type (0, 1), None
#     Edge 22, Type (0, 1), None
#     Edge 23, Type (0, 1), None
#     Edge 24, Type (0, 1), None
#     Edge 25, Type (0, 1), None
#     Edge 26, Type (0, 1), None
#     Edge 27, Type (0, 1), None
#     Edge 28, Type (0, 1), None
#     Edge 29, Type (0, 1), None
#     Edge 30, Type (0, 1), None
#     Edge 31, Type (0, 1), None
#     Edge 32, Type (0, 1), None
#     Edge 33, Type (0, 1), None
#     Edge 34, Type (0, 1), None
#     Edge 35, Type (0, 1), None
# Relax obj value: 0.390
# Max RMSD: 0.269
# Mean RMSD: 0.202
data_MOF--net-pyr--node1-BETDAH_clean_sbu_0--node2-QEWDON_clean_linker_0--edge1-none
_symmetry_space_group_name_H-M    P1
_symmetry_Int_Tables_number       1
_symmetry_cell_setting            triclinic
loop_
_symmetry_equiv_pos_as_xyz
'x, y, z'
_cell_length_a     18.180789
_cell_length_b     20.222488
_cell_length_c     19.515308
_cell_angle_alpha  92.785754
_cell_angle_beta   88.629013
_cell_angle_gamma 117.26323
loop_
_atom_site_label
_atom_site_type_symbol
_atom_site_fract_x
_atom_site_fract_y
_atom_site_fract_z
_atom_type_partial_charge
H0 H 0.56292 0.40254 0.19097 0.0
C1 C 0.55745 0.40301 0.2463 0.0
C2 C 0.55591 0.34386 0.28281 0.0
C3 C 0.54238 0.4584 0.28039 0.0
H4 H 0.52806 0.29024 0.37812 0.0
C5 C 0.5382 0.34025 0.35275 0.0
C6 C 0.52079 0.39441 0.3868 0.0
C7 C 0.5288 0.45583 0.35117 0.0
C8 C 0.52253 0.5096 0.24226 0.0
H9 H 0.51482 0.49751 0.37696 0.0
C10 C 0.44212 0.50327 0.24731 0.0
C11 C 0.42256 0.55628 0.21933 0.0
C12 C 0.58353 0.56748 0.20601 0.0
H13 H 0.64564 0.5731 0.20163 0.0
C14 C 0.56526 0.62026 0.17754 0.0
H15 H 0.39519 0.45637 0.27339 0.0
C16 C 0.48624 0.61559 0.18492 0.0
H17 H 0.47623 0.65954 0.16444 0.0
H18 H 0.61305 0.66597 0.15072 0.0
H19 H 0.05287 0.91816 0.90401 0.0
C20 C 0.0999 0.90343 0.88402 0.0
C21 C 0.16981 0.92279 0.92337 0.0
C22 C 0.09955 0.88456 0.81456 0.0
H23 H 0.28636 0.92025 0.92951 0.0
C24 C 0.23248 0.90604 0.89803 0.0
C25 C 0.23028 0.87897 0.82977 0.0
C26 C 0.16443 0.87113 0.78695 0.0
C27 C 1.04607 0.90469 0.77357 0.0
H28 H 0.1662 0.85923 0.73238 0.0
C29 C 0.08176 0.97675 0.74835 0.0
C30 C 1.03381 1.01375 0.73782 0.0
C31 C 0.95998 0.86762 0.7836 0.0
H32 H 0.93114 0.81321 0.80548 0.0
C33 C 0.91169 0.90338 0.7716 0.0
H34 H 0.14818 1.00592 0.74035 0.0
C35 C 0.94864 0.97686 0.75059 0.0
H36 H 0.91039 1.00336 0.74089 0.0
H37 H 0.84558 0.87425 0.77968 0.0
H38 H 0.80773 0.60865 0.98545 0.0
C39 C 0.77295 0.55192 1.00119 0.0
C40 C 0.80638 0.52659 1.05435 0.0
C41 C 0.69252 0.50842 0.97183 0.0
H42 H 0.78033 0.43344 0.11799 0.0
C43 C 0.75749 0.45248 0.07636 0.0
C44 C 0.67717 0.40411 1.04948 0.0
C45 C 0.64548 0.43475 0.99873 0.0
C46 C 0.64894 0.5499 0.93651 0.0
H47 H 0.5812 0.40314 0.98386 0.0
C48 C 0.65089 0.57174 0.86448 0.0
C49 C 0.61039 0.61693 0.84368 0.0
C50 C 0.60606 0.57408 0.98356 0.0
H51 H 0.60248 0.56065 1.03706 0.0
C52 C 0.56927 0.61742 0.96477 0.0
H53 H 0.68323 0.5545 0.82608 0.0
C54 C 0.57176 0.63849 0.89756 0.0
H55 H 0.54078 0.67189 0.88813 0.0
H56 H 0.53805 0.63553 1.0036 0.0
H57 H 0.97448 0.95349 0.44972 0.0
C58 C 0.92327 0.91723 0.48123 0.0
C59 C 0.90452 0.94826 0.54242 0.0
C60 C 0.8744 0.84115 0.45772 0.0
H61 H 0.82217 0.9208 0.62967 0.0
C62 C 0.83566 0.89942 0.58196 0.0
C63 C 0.78228 0.82409 0.5613 0.0
C64 C 0.8026 0.79618 0.49813 0.0
C65 C 0.88692 0.81803 0.38284 0.0
H66 H 0.76151 0.74011 0.4795 0.0
C67 C 0.92689 0.7726 0.35946 0.0
C68 C 0.94151 0.762 0.28653 0.0
C69 C 0.86126 0.8493 0.33162 0.0
H70 H 0.83112 0.88349 0.34571 0.0
C71 C 0.87451 0.83878 0.26203 0.0
H72 H 0.94789 0.74752 0.39715 0.0
C73 C 0.91438 0.79674 0.23999 0.0
H74 H 0.9227 0.79029 0.18539 0.0
H75 H 0.85386 0.86417 0.22433 0.0
H76 H 0.65243 0.83767 0.06691 0.0
C77 C 0.65657 0.84983 1.01309 0.0
C78 C 0.72884 0.86285 0.97516 0.0
C79 C 0.59328 0.85981 0.98189 0.0
H80 H 0.79718 0.90935 0.88289 0.0
C81 C 0.73823 0.8903 0.9091 0.0
C82 C 0.67568 0.90162 0.88018 0.0
C83 C 0.60029 0.8777 0.91322 0.0
C84 C 0.5338 0.87754 1.02041 0.0
H85 H 0.55309 0.88849 0.89052 0.0
C86 C 0.55135 0.95323 1.02436 0.0
C87 C 0.48762 0.97391 1.03022 0.0
C88 C 0.45222 0.82237 1.02827 0.0
H89 H 0.43716 0.76399 1.02251 0.0
C90 C 0.38866 0.84251 1.03794 0.0
H91 H 0.61456 0.99573 1.01748 0.0
C92 C 0.40586 0.91739 1.03757 0.0
H93 H 0.35519 0.93101 1.04452 0.0
H94 H 0.32547 0.79984 1.0435 0.0
H95 H 0.05853 0.41265 0.56968 0.0
C96 C 1.03775 0.38791 0.51872 0.0
C97 C 1.02692 0.31554 0.50262 0.0
C98 C 1.01076 0.42428 0.47411 0.0
H99 H 0.9846 0.22526 0.42632 0.0
C100 C 0.99586 0.28205 0.43805 0.0
C101 C 0.97174 0.3195 0.39127 0.0
C102 C 0.97962 0.39061 0.4098 0.0
C103 C 0.99914 0.48859 0.50123 0.0
H104 H 0.95569 0.41749 0.37631 0.0
C105 C 0.91957 0.48417 0.50133 0.0
C106 C 0.90364 0.53761 0.53828 0.0
C107 C 0.06355 0.54891 0.53618 0.0
H108 H 0.12501 0.55292 0.53753 0.0
C109 C 0.04842 0.60332 0.57135 0.0
H110 H 0.86878 0.43656 0.47649 0.0
C111 C 0.96873 0.59734 0.57318 0.0
H112 H 0.9578 0.63919 0.60196 0.0
H113 H 0.0982 0.64935 0.59862 0.0
H114 H 0.51814 0.97595 0.31649 0.0
C115 C 0.45748 0.9417 0.29464 0.0
C116 C 0.42671 0.97391 0.245 0.0
C117 C 0.41364 0.86444 0.31306 0.0
H118 H 0.32484 0.94595 0.17451 0.0
C119 C 0.3492 0.92427 0.21274 0.0
C120 C 0.30324 0.84695 0.22779 0.0
C121 C 0.33721 0.81951 0.27832 0.0
C122 C 0.4582 0.82448 0.34813 0.0
H123 H 0.30564 0.76076 0.28855 0.0
C124 C 0.44876 0.79655 0.41803 0.0
C125 C 0.48978 0.75245 0.43912 0.0
C126 C 0.50927 0.80779 0.30322 0.0
H127 H 0.51843 0.82622 0.25102 0.0
C128 C 0.5474 0.76564 0.32258 0.0
H129 H 0.40997 0.80807 0.45457 0.0
C130 C 0.53744 0.73828 0.3881 0.0
H131 H 0.57008 0.70668 0.39912 0.0
H132 H 0.58565 0.75368 0.28573 0.0
H133 H 0.32418 0.61866 0.79904 0.0
C134 C 0.28576 0.56259 0.77888 0.0
C135 C 0.30984 0.53743 0.71556 0.0
C136 C 0.2137 0.51434 0.81727 0.0
H137 H 0.27933 0.44159 0.6462 0.0
C138 C 0.2611 0.46173 0.69273 0.0
C139 C 0.19069 0.41068 0.72866 0.0
C140 C 0.16709 0.43912 0.7891 0.0
C141 C 0.19318 0.53196 0.89277 0.0
H142 H 0.11299 0.40082 0.81664 0.0
C143 C 0.17973 0.59439 0.92175 0.0
C144 C 0.14888 0.59448 0.99251 0.0
C145 C 0.18132 0.4762 0.9385 0.0
H146 H 0.19384 0.43026 0.92249 0.0
C147 C 0.15022 0.47532 1.00428 0.0
H148 H 0.18985 0.6399 0.88957 0.0
C149 C 0.13174 0.53138 1.02937 0.0
H150 H 0.10446 0.52533 0.07959 0.0
H151 H 0.13888 0.42933 1.03631 0.0
Ho152 Ho 0.11951 0.18258 0.60116 0.0
Ho153 Ho 0.97919 0.1778 0.66487 0.0
C154 C 0.14283 0.32828 0.70175 0.0
C155 C 0.26214 0.21449 0.5489 0.0
C156 C 0.33615 0.27905 0.52712 0.0
C157 C 0.33002 0.33437 0.49107 0.0
C158 C 0.39685 0.38187 0.45239 0.0
C159 C 0.47018 0.37423 0.4499 0.0
C160 C 0.48057 0.3285 0.49663 0.0
C161 C 0.413 0.27993 0.53435 0.0
C162 C 0.06957 1.07978 0.69598 0.0
C163 C 0.95461 1.03112 0.56658 0.0
C164 C 0.83898 0.14983 0.72188 0.0
C165 C 0.77343 0.08267 0.74952 0.0
C166 C 0.76448 1.0132 0.72493 0.0
C167 C 0.72975 0.9525 0.76649 0.0
C168 C 0.6976 0.95937 0.83029 0.0
C169 C 0.69641 1.0265 0.8509 0.0
C170 C 0.73536 0.08842 0.81095 0.0
C171 C 1.02907 0.27208 0.56026 0.0
O172 O 0.17105 0.30326 0.64822 0.0
O173 O 0.06946 0.28225 0.72661 0.0
O174 O 0.2481 0.21145 0.61481 0.0
O175 O 0.19535 0.19425 0.51187 0.0
O176 O 0.10444 1.07656 0.63898 0.0
O177 O 0.06701 0.14169 0.70511 0.0
O178 O 0.92623 1.05781 0.61854 0.0
O179 O 1.02882 1.07573 0.54143 0.0
O180 O 0.84959 0.14882 0.65548 0.0
O181 O 0.90852 0.17528 0.75566 0.0
O182 O 1.00542 0.28477 0.61977 0.0
O183 O 1.02496 0.20785 0.55722 0.0
H184 H 0.27146 0.33591 0.48707 0.0
H185 H 0.38648 0.41717 0.41799 0.0
H186 H 0.53752 0.32375 0.49767 0.0
H187 H 0.41889 0.23872 0.56409 0.0
H188 H 0.79133 1.00779 0.67665 0.0
H189 H 0.73234 0.90183 0.75114 0.0
H190 H 0.67203 1.03295 0.90055 0.0
H191 H 0.74191 0.14186 0.83073 0.0
Ho192 Ho 0.60097 0.17722 0.14997 0.0
Ho193 Ho 0.47936 0.17836 0.11719 0.0
C194 C 0.55002 0.27701 0.24514 0.0
C195 C 0.75009 0.19125 0.1633 0.0
C196 C 0.81281 0.21859 0.21833 0.0
C197 C 0.88387 0.28721 0.21248 0.0
C198 C 0.93895 0.318 0.26726 0.0
C199 C 0.92429 0.28047 0.32872 0.0
C200 C 0.85625 0.20958 0.33289 0.0
C201 C 0.80097 0.17888 0.27822 0.0
C202 C 0.47661 1.05655 0.22134 0.0
C203 C 0.50675 1.05367 1.03897 0.0
C204 C 0.34771 0.17897 0.07365 0.0
C205 C 0.27126 0.11219 0.05757 0.0
C206 C 0.26326 1.04429 0.08057 0.0
C207 C 0.22317 0.97926 1.03982 0.0
C208 C 0.18878 0.9817 0.97734 0.0
C209 C 0.18527 1.04728 0.9606 0.0
C210 C 0.22648 0.11236 1.00066 0.0
C211 C 0.61896 0.33578 0.09182 0.0
O212 O 0.61568 0.27275 0.22231 0.0
O213 O 0.47877 0.22883 0.22048 0.0
O214 O 0.68297 0.13019 0.17315 0.0
O215 O 0.73392 0.24081 0.13689 0.0
O216 O 0.54576 0.10833 0.24695 0.0
O217 O 0.47223 1.07582 0.16127 0.0
O218 O 0.44789 1.06833 0.06305 0.0
O219 O 0.58217 0.10404 1.05395 0.0
O220 O 0.40821 0.18415 1.03332 0.0
O221 O 0.3691 0.19164 0.13823 0.0
O222 O 0.59963 0.26608 0.07578 0.0
O223 O 0.59771 0.26505 0.07692 0.0
H224 H 0.89513 0.31845 0.16648 0.0
H225 H 0.99131 0.3725 0.26265 0.0
H226 H 0.84286 0.17974 0.3799 0.0
H227 H 0.74731 0.12546 0.28411 0.0
H228 H 0.29753 1.0434 0.12486 0.0
H229 H 0.2247 0.9289 1.05417 0.0
H230 H 0.15888 1.05068 0.91249 0.0
H231 H 0.23266 0.16428 0.98198 0.0
Ho232 Ho 0.54052 0.62012 0.61157 0.0
Ho233 Ho 0.5517 0.74449 0.67028 0.0
C234 C 0.60051 0.64445 0.77095 0.0
C235 C 0.57688 0.51871 0.55791 0.0
C236 C 0.65744 0.51691 0.55335 0.0
C237 C 0.69369 0.51698 0.48892 0.0
C238 C 0.77296 0.52203 0.48388 0.0
C239 C 0.81834 0.52899 0.5433 0.0
C240 C 0.78211 0.52825 0.60778 0.0
C241 C 0.70224 0.5217 0.61282 0.0
C242 C 0.38704 0.58593 0.67243 0.0
C243 C 0.49212 0.7209 0.51084 0.0
C244 C 0.51356 0.84702 0.72057 0.0
C245 C 0.44077 0.85085 0.75297 0.0
C246 C 0.3594 0.79574 0.73873 0.0
C247 C 0.29097 0.80501 0.76277 0.0
C248 C 0.30244 0.86908 0.80227 0.0
C249 C 0.38408 0.92338 0.81725 0.0
C250 C 0.4522 0.91453 0.79256 0.0
C251 C 0.70489 0.77859 0.60622 0.0
O252 O 0.6095 0.61609 0.71044 0.0
O253 O 0.57096 0.69375 0.76817 0.0
O254 O 0.54452 0.51502 0.61863 0.0
O255 O 0.57096 0.56874 0.52239 0.0
O256 O 0.3997 0.56326 0.6119 0.0
O257 O 0.45819 0.62922 0.69684 0.0
O258 O 0.49235 0.75573 0.56989 0.0
O259 O 0.51149 0.66498 0.514 0.0
O260 O 0.5038 0.82287 0.65694 0.0
O261 O 0.55352 0.82003 0.75498 0.0
O262 O 0.69315 0.80339 0.66584 0.0
O263 O 0.63288 0.73513 0.5838 0.0
H264 H 0.66186 0.51547 0.4424 0.0
H265 H 0.79987 0.52286 0.43359 0.0
H266 H 0.8157 0.5328 0.65435 0.0
H267 H 0.67662 0.52217 0.66339 0.0
H268 H 0.34875 0.74622 0.70781 0.0
H269 H 0.22912 0.76187 0.75091 0.0
H270 H 0.39551 0.97382 0.84693 0.0
H271 H 0.51405 0.9584 0.8032 0.0
Ho272 Ho 0.04992 0.62841 0.191 0.0
Ho273 Ho 0.06194 0.74387 0.08939 0.0
C274 C 0.21992 0.79338 0.19161 0.0
C275 C 0.0945 0.53925 0.24715 0.0
C276 C 0.17523 0.53861 0.23853 0.0
C277 C 0.22879 0.57824 0.18577 0.0
C278 C 0.30726 0.58214 0.17855 0.0
C279 C 0.3368 0.54989 0.22631 0.0
C280 C 0.28341 0.51211 0.28082 0.0
C281 C 0.20327 0.50584 0.2863 0.0
C282 C 0.98284 0.71539 0.25522 0.0
C283 C 0.89082 0.57951 0.08847 0.0
C284 C 1.02127 0.8363 1.03448 0.0
C285 C 0.94451 0.84374 1.02944 0.0
C286 C 0.86584 0.78216 1.03465 0.0
C287 C 0.79412 0.78924 1.02246 0.0
C288 C 0.80033 0.8581 1.00504 0.0
C289 C 0.87876 0.92062 1.00476 0.0
C290 C 0.95009 0.91351 1.01716 0.0
C291 C 0.12899 0.6535 1.0326 0.0
O292 O 0.18428 0.72135 0.20493 0.0
O293 O 0.18266 0.81766 0.14866 0.0
O294 O 0.09873 0.59929 0.27839 0.0
O295 O 1.04681 0.5198 0.19308 0.0
O296 O 0.98222 0.65715 0.28115 0.0
O297 O 1.01497 0.7188 0.19548 0.0
O298 O 0.93082 0.64921 0.06778 0.0
O299 O 0.92421 0.55666 0.13696 0.0
O300 O 1.02369 0.78004 1.00041 0.0
O301 O 0.05373 0.84754 0.09549 0.0
O302 O 0.1516 0.72204 1.01599 0.0
O303 O 0.07001 0.63797 0.0766 0.0
H304 H 0.21054 0.60755 0.15043 0.0
H305 H 0.34429 0.6108 0.13517 0.0
H306 H 0.30348 0.48848 0.32045 0.0
H307 H 0.16408 0.47711 0.32887 0.0
H308 H 0.85981 0.72822 1.04597 0.0
H309 H 0.73448 0.74025 1.02274 0.0
H310 H 0.88511 0.97445 0.99165 0.0
H311 H 1.00988 0.96208 1.01446 0.0
loop_
_geom_bond_atom_site_label_1
_geom_bond_atom_site_label_2
_geom_bond_distance
_geom_bond_site_symmetry_2
_ccdc_geom_bond_type
H0 C1 0.949 . S
C1 H0 0.949 . S
C1 C2 1.395 . S
C1 C3 1.391 . S
C2 C1 1.395 . S
C2 C5 1.390 . S
C3 C1 1.391 . S
C3 C7 1.387 . S
C3 C8 1.491 . S
H4 C5 0.950 . S
C5 C2 1.390 . S
C5 H4 0.950 . S
C5 C6 1.378 . S
C6 C5 1.378 . S
C6 C7 1.409 . S
C7 C3 1.387 . S
C7 C6 1.409 . S
C7 H9 0.951 . S
C8 C3 1.491 . S
C8 C10 1.382 . S
C8 C12 1.404 . S
H9 C7 0.951 . S
C10 C8 1.382 . S
C10 C11 1.390 . S
C10 H15 0.949 . S
C11 C10 1.390 . S
C11 C16 1.399 . S
C12 C8 1.404 . S
C12 H13 0.950 . S
C12 C14 1.375 . S
H13 C12 0.950 . S
C14 C12 1.375 . S
C14 C16 1.382 . S
C14 H18 0.950 . S
H15 C10 0.949 . S
C16 C11 1.399 . S
C16 C14 1.382 . S
C16 H17 0.952 . S
H17 C16 0.952 . S
H18 C14 0.950 . S
H19 C20 0.949 . S
C20 H19 0.949 . S
C20 C21 1.395 . S
C20 C22 1.391 . S
C21 C20 1.395 . S
C21 C24 1.390 . S
C22 C20 1.391 . S
C22 C26 1.387 . S
C22 C27 1.491 . S
H23 C24 0.950 . S
C24 C21 1.390 . S
C24 H23 0.950 . S
C24 C25 1.378 . S
C25 C24 1.378 . S
C25 C26 1.409 . S
C26 C22 1.387 . S
C26 C25 1.409 . S
C26 H28 0.951 . S
C27 C22 1.491 . S
C27 C29 1.382 . S
C27 C31 1.404 1_455 S
H28 C26 0.951 . S
C29 C27 1.382 . S
C29 C30 1.390 1_455 S
C29 H34 0.949 . S
C30 C29 1.390 1_655 S
C30 C35 1.399 . S
C31 C27 1.404 1_655 S
C31 H32 0.950 . S
C31 C33 1.375 . S
H32 C31 0.950 . S
C33 C31 1.375 . S
C33 C35 1.382 . S
C33 H37 0.950 . S
H34 C29 0.949 . S
C35 C30 1.399 . S
C35 C33 1.382 . S
C35 H36 0.952 . S
H36 C35 0.952 . S
H37 C33 0.950 . S
H38 C39 0.949 . S
C39 H38 0.949 . S
C39 C40 1.395 . S
C39 C41 1.391 . S
C40 C39 1.395 . S
C40 C43 1.390 1_556 S
C41 C39 1.391 . S
C41 C45 1.387 . S
C41 C46 1.491 . S
H42 C43 0.950 . S
C43 C40 1.390 1_554 S
C43 H42 0.950 . S
C43 C44 1.378 1_554 S
C44 C43 1.378 1_556 S
C44 C45 1.409 . S
C45 C41 1.387 . S
C45 C44 1.409 . S
C45 H47 0.951 . S
C46 C41 1.491 . S
C46 C48 1.382 . S
C46 C50 1.404 . S
H47 C45 0.951 . S
C48 C46 1.382 . S
C48 C49 1.390 . S
C48 H53 0.949 . S
C49 C48 1.390 . S
C49 C54 1.399 . S
C50 C46 1.404 . S
C50 H51 0.950 . S
C50 C52 1.375 . S
H51 C50 0.950 . S
C52 C50 1.375 . S
C52 C54 1.382 . S
C52 H56 0.950 . S
H53 C48 0.949 . S
C54 C49 1.399 . S
C54 C52 1.382 . S
C54 H55 0.952 . S
H55 C54 0.952 . S
H56 C52 0.950 . S
H57 C58 0.949 . S
C58 H57 0.949 . S
C58 C59 1.395 . S
C58 C60 1.391 . S
C59 C58 1.395 . S
C59 C62 1.390 . S
C60 C58 1.391 . S
C60 C64 1.387 . S
C60 C65 1.491 . S
H61 C62 0.950 . S
C62 C59 1.390 . S
C62 H61 0.950 . S
C62 C63 1.378 . S
C63 C62 1.378 . S
C63 C64 1.409 . S
C64 C60 1.387 . S
C64 C63 1.409 . S
C64 H66 0.951 . S
C65 C60 1.491 . S
C65 C67 1.382 . S
C65 C69 1.404 . S
H66 C64 0.951 . S
C67 C65 1.382 . S
C67 C68 1.390 . S
C67 H72 0.949 . S
C68 C67 1.390 . S
C68 C73 1.399 . S
C69 C65 1.404 . S
C69 H70 0.950 . S
C69 C71 1.375 . S
H70 C69 0.950 . S
C71 C69 1.375 . S
C71 C73 1.382 . S
C71 H75 0.950 . S
H72 C67 0.949 . S
C73 C68 1.399 . S
C73 C71 1.382 . S
C73 H74 0.952 . S
H74 C73 0.952 . S
H75 C71 0.950 . S
H76 C77 0.949 . S
C77 H76 0.949 . S
C77 C78 1.395 . S
C77 C79 1.391 . S
C78 C77 1.395 . S
C78 C81 1.390 . S
C79 C77 1.391 . S
C79 C83 1.387 . S
C79 C84 1.491 . S
H80 C81 0.950 . S
C81 C78 1.390 . S
C81 H80 0.950 . S
C81 C82 1.378 . S
C82 C81 1.378 . S
C82 C83 1.409 . S
C83 C79 1.387 . S
C83 C82 1.409 . S
C83 H85 0.951 . S
C84 C79 1.491 . S
C84 C86 1.382 . S
C84 C88 1.404 . S
H85 C83 0.951 . S
C86 C84 1.382 . S
C86 C87 1.390 . S
C86 H91 0.949 . S
C87 C86 1.390 . S
C87 C92 1.399 . S
C88 C84 1.404 . S
C88 H89 0.950 . S
C88 C90 1.375 . S
H89 C88 0.950 . S
C90 C88 1.375 . S
C90 C92 1.382 . S
C90 H94 0.950 . S
H91 C86 0.949 . S
C92 C87 1.399 . S
C92 C90 1.382 . S
C92 H93 0.952 . S
H93 C92 0.952 . S
H94 C90 0.950 . S
H95 C96 0.949 . S
C96 H95 0.949 . S
C96 C97 1.395 . S
C96 C98 1.391 . S
C97 C96 1.395 . S
C97 C100 1.390 . S
C98 C96 1.391 . S
C98 C102 1.387 . S
C98 C103 1.491 . S
H99 C100 0.950 . S
C100 C97 1.390 . S
C100 H99 0.950 . S
C100 C101 1.378 . S
C101 C100 1.378 . S
C101 C102 1.409 . S
C102 C98 1.387 . S
C102 C101 1.409 . S
C102 H104 0.951 . S
C103 C98 1.491 . S
C103 C105 1.382 . S
C103 C107 1.404 . S
H104 C102 0.951 . S
C105 C103 1.382 . S
C105 C106 1.390 . S
C105 H110 0.949 . S
C106 C105 1.390 . S
C106 C111 1.399 . S
C107 C103 1.404 . S
C107 H108 0.950 . S
C107 C109 1.375 . S
H108 C107 0.950 . S
C109 C107 1.375 . S
C109 C111 1.382 . S
C109 H113 0.950 . S
H110 C105 0.949 . S
C111 C106 1.399 . S
C111 C109 1.382 . S
C111 H112 0.952 . S
H112 C111 0.952 . S
H113 C109 0.950 . S
H114 C115 0.949 . S
C115 H114 0.949 . S
C115 C116 1.395 . S
C115 C117 1.391 . S
C116 C115 1.395 . S
C116 C119 1.390 . S
C117 C115 1.391 . S
C117 C121 1.387 . S
C117 C122 1.491 . S
H118 C119 0.950 . S
C119 C116 1.390 . S
C119 H118 0.950 . S
C119 C120 1.378 . S
C120 C119 1.378 . S
C120 C121 1.409 . S
C121 C117 1.387 . S
C121 C120 1.409 . S
C121 H123 0.951 . S
C122 C117 1.491 . S
C122 C124 1.382 . S
C122 C126 1.404 . S
H123 C121 0.951 . S
C124 C122 1.382 . S
C124 C125 1.390 . S
C124 H129 0.949 . S
C125 C124 1.390 . S
C125 C130 1.399 . S
C126 C122 1.404 . S
C126 H127 0.950 . S
C126 C128 1.375 . S
H127 C126 0.950 . S
C128 C126 1.375 . S
C128 C130 1.382 . S
C128 H132 0.950 . S
H129 C124 0.949 . S
C130 C125 1.399 . S
C130 C128 1.382 . S
C130 H131 0.952 . S
H131 C130 0.952 . S
H132 C128 0.950 . S
H133 C134 0.949 . S
C134 H133 0.949 . S
C134 C135 1.395 . S
C134 C136 1.391 . S
C135 C134 1.395 . S
C135 C138 1.390 . S
C136 C134 1.391 . S
C136 C140 1.387 . S
C136 C141 1.491 . S
H137 C138 0.950 . S
C138 C135 1.390 . S
C138 H137 0.950 . S
C138 C139 1.378 . S
C139 C138 1.378 . S
C139 C140 1.409 . S
C140 C136 1.387 . S
C140 C139 1.409 . S
C140 H142 0.951 . S
C141 C136 1.491 . S
C141 C143 1.382 . S
C141 C145 1.404 . S
H142 C140 0.951 . S
C143 C141 1.382 . S
C143 C144 1.390 . S
C143 H148 0.949 . S
C144 C143 1.390 . S
C144 C149 1.399 . S
C145 C141 1.404 . S
C145 H146 0.950 . S
C145 C147 1.375 . S
H146 C145 0.950 . S
C147 C145 1.375 . S
C147 C149 1.382 . S
C147 H151 0.950 . S
H148 C143 0.949 . S
C149 C144 1.399 . S
C149 C147 1.382 . S
C149 H150 0.952 . S
H150 C149 0.952 . S
H151 C147 0.950 . S
Ho152 C155 2.811 . S
Ho152 O172 2.322 . S
Ho152 O174 2.378 . S
Ho152 O175 2.524 . S
Ho152 O176 2.381 . S
Ho152 O177 2.669 . S
Ho152 O179 2.346 1_445 S
Ho152 O183 2.305 1_455 S
Ho153 C164 2.811 1_545 S
Ho153 O173 2.346 1_655 S
Ho153 O177 2.305 1_655 S
Ho153 O178 2.322 1_545 S
Ho153 O180 2.379 . S
Ho153 O181 2.524 1_545 S
Ho153 O182 2.381 . S
Ho153 O183 2.669 . S
C154 O172 1.259 . S
C154 O173 1.268 . S
C155 Ho152 2.811 . S
C155 C156 1.488 . S
C155 O174 1.215 . S
C155 O175 1.289 . S
C156 C155 1.488 . S
C156 C157 1.348 . S
C156 C161 1.413 . S
C157 C156 1.348 . S
C157 C158 1.442 . S
C157 H184 0.930 . S
C158 C157 1.442 . S
C158 C159 1.381 . S
C158 H185 0.931 . S
C159 C158 1.381 . S
C159 C160 1.321 . S
C160 C159 1.321 . S
C160 C161 1.403 . S
C160 H186 0.934 . S
C161 C156 1.413 . S
C161 C160 1.403 . S
C161 H187 0.930 . S
C162 O176 1.275 . S
C162 O177 1.256 . S
C163 O178 1.259 . S
C163 O179 1.268 . S
C164 Ho153 2.811 1_565 S
C164 C165 1.488 . S
C164 O180 1.205 1_565 S
C164 O181 1.289 . S
C165 C164 1.488 . S
C165 C166 1.348 . S
C165 C170 1.413 . S
C166 C165 1.348 . S
C166 C167 1.442 . S
C166 H188 0.930 . S
C167 C166 1.442 . S
C167 C168 1.381 . S
C167 H189 0.931 . S
C168 C167 1.381 . S
C168 C169 1.321 . S
C169 C168 1.321 . S
C169 C170 1.403 . S
C169 H190 0.934 . S
C170 C165 1.413 . S
C170 C169 1.403 . S
C170 H191 0.930 . S
C171 O182 1.275 . S
C171 O183 1.256 . S
O172 Ho152 2.322 . S
O172 C154 1.259 . S
O173 Ho153 2.346 1_455 S
O173 C154 1.268 . S
O174 Ho152 2.378 . S
O174 C155 1.215 . S
O175 Ho152 2.524 . S
O175 C155 1.289 . S
O176 Ho152 2.381 . S
O176 C162 1.275 . S
O177 Ho152 2.669 . S
O177 Ho153 2.305 1_455 S
O177 C162 1.256 . S
O178 Ho153 2.322 1_565 S
O178 C163 1.259 . S
O179 Ho152 2.346 1_665 S
O179 C163 1.268 . S
O180 Ho153 2.379 . S
O180 C164 1.205 1_545 S
O181 Ho153 2.524 1_565 S
O181 C164 1.289 . S
O182 Ho153 2.381 . S
O182 C171 1.275 . S
O183 Ho152 2.305 1_655 S
O183 Ho153 2.669 . S
O183 C171 1.256 . S
H184 C157 0.930 . S
H185 C158 0.931 . S
H186 C160 0.934 . S
H187 C161 0.930 . S
H188 C166 0.930 . S
H189 C167 0.931 . S
H190 C169 0.934 . S
H191 C170 0.930 . S
Ho192 C195 2.811 . S
Ho192 O212 2.322 . S
Ho192 O214 2.378 . S
Ho192 O215 2.524 . S
Ho192 O216 2.381 1_545 S
Ho192 O217 2.669 1_545 S
Ho192 O219 2.346 1_545 S
Ho192 O223 2.305 . S
Ho193 C204 2.811 1_544 S
Ho193 O213 2.346 . S
Ho193 O217 2.305 1_545 S
Ho193 O218 2.322 1_554 S
Ho193 O220 2.378 1_554 S
Ho193 O221 2.524 1_545 S
Ho193 O222 2.381 1_554 S
Ho193 O223 2.669 . S
C194 O212 1.259 . S
C194 O213 1.268 . S
C195 Ho192 2.811 . S
C195 C196 1.488 . S
C195 O214 1.215 . S
C195 O215 1.289 . S
C196 C195 1.488 . S
C196 C197 1.348 . S
C196 C201 1.413 . S
C197 C196 1.348 . S
C197 C198 1.442 . S
C197 H224 0.930 . S
C198 C197 1.442 . S
C198 C199 1.381 . S
C198 H225 0.931 . S
C199 C198 1.381 . S
C199 C200 1.321 . S
C200 C199 1.321 . S
C200 C201 1.403 . S
C200 H226 0.934 . S
C201 C196 1.413 . S
C201 C200 1.403 . S
C201 H227 0.930 . S
C202 O216 1.275 . S
C202 O217 1.256 . S
C203 O218 1.259 1_564 S
C203 O219 1.268 . S
C204 Ho193 2.811 1_566 S
C204 C205 1.488 . S
C204 O220 1.215 1_565 S
C204 O221 1.289 1_556 S
C205 C204 1.488 . S
C205 C206 1.348 . S
C205 C210 1.413 . S
C206 C205 1.348 . S
C206 C207 1.442 . S
C206 H228 0.930 . S
C207 C206 1.442 . S
C207 C208 1.381 . S
C207 H229 0.931 . S
C208 C207 1.381 . S
C208 C209 1.321 . S
C209 C208 1.321 . S
C209 C210 1.403 . S
C209 H230 0.934 . S
C210 C205 1.413 . S
C210 C209 1.403 . S
C210 H231 0.930 1_565 S
C211 O222 1.275 1_554 S
C211 O223 1.256 . S
O212 Ho192 2.322 . S
O212 C194 1.259 . S
O213 Ho193 2.346 . S
O213 C194 1.268 . S
O214 Ho192 2.378 . S
O214 C195 1.215 . S
O215 Ho192 2.524 . S
O215 C195 1.289 . S
O216 Ho192 2.381 1_565 S
O216 C202 1.275 . S
O217 Ho192 2.669 1_565 S
O217 Ho193 2.305 1_565 S
O217 C202 1.256 . S
O218 Ho193 2.322 1_556 S
O218 C203 1.259 1_546 S
O219 Ho192 2.346 1_565 S
O219 C203 1.268 . S
O220 Ho193 2.378 1_556 S
O220 C204 1.215 1_545 S
O221 Ho193 2.524 1_565 S
O221 C204 1.289 1_554 S
O222 Ho193 2.381 1_556 S
O222 C211 1.275 1_556 S
O223 Ho192 2.305 . S
O223 Ho193 2.669 . S
O223 C211 1.256 . S
H224 C197 0.930 . S
H225 C198 0.931 . S
H226 C200 0.934 . S
H227 C201 0.930 . S
H228 C206 0.930 . S
H229 C207 0.931 . S
H230 C209 0.934 . S
H231 C210 0.930 1_545 S
Ho232 C235 2.811 . S
Ho232 O252 2.322 . S
Ho232 O254 2.378 . S
Ho232 O255 2.524 . S
Ho232 O256 2.381 . S
Ho232 O257 2.669 . S
Ho232 O259 2.346 . S
Ho232 O263 2.305 . S
Ho233 C244 2.811 . S
Ho233 O253 2.346 . S
Ho233 O257 2.305 . S
Ho233 O258 2.322 . S
Ho233 O260 2.378 . S
Ho233 O261 2.524 . S
Ho233 O262 2.381 . S
Ho233 O263 2.669 . S
C234 O252 1.259 . S
C234 O253 1.268 . S
C235 Ho232 2.811 . S
C235 C236 1.488 . S
C235 O254 1.215 . S
C235 O255 1.289 . S
C236 C235 1.488 . S
C236 C237 1.348 . S
C236 C241 1.413 . S
C237 C236 1.348 . S
C237 C238 1.442 . S
C237 H264 0.930 . S
C238 C237 1.442 . S
C238 C239 1.381 . S
C238 H265 0.931 . S
C239 C238 1.381 . S
C239 C240 1.321 . S
C240 C239 1.321 . S
C240 C241 1.403 . S
C240 H266 0.934 . S
C241 C236 1.413 . S
C241 C240 1.403 . S
C241 H267 0.930 . S
C242 O256 1.275 . S
C242 O257 1.256 . S
C243 O258 1.259 . S
C243 O259 1.268 . S
C244 Ho233 2.811 . S
C244 C245 1.488 . S
C244 O260 1.215 . S
C244 O261 1.289 . S
C245 C244 1.488 . S
C245 C246 1.348 . S
C245 C250 1.413 . S
C246 C245 1.348 . S
C246 C247 1.442 . S
C246 H268 0.930 . S
C247 C246 1.442 . S
C247 C248 1.381 . S
C247 H269 0.931 . S
C248 C247 1.381 . S
C248 C249 1.321 . S
C249 C248 1.321 . S
C249 C250 1.403 . S
C249 H270 0.934 1_565 S
C250 C245 1.413 . S
C250 C249 1.403 . S
C250 H271 0.930 . S
C251 O262 1.275 . S
C251 O263 1.256 . S
O252 Ho232 2.322 . S
O252 C234 1.259 . S
O253 Ho233 2.346 . S
O253 C234 1.268 . S
O254 Ho232 2.378 . S
O254 C235 1.215 . S
O255 Ho232 2.524 . S
O255 C235 1.289 . S
O256 Ho232 2.381 . S
O256 C242 1.275 . S
O257 Ho232 2.669 . S
O257 Ho233 2.305 . S
O257 C242 1.256 . S
O258 Ho233 2.322 . S
O258 C243 1.259 . S
O259 Ho232 2.346 . S
O259 C243 1.268 . S
O260 Ho233 2.378 . S
O260 C244 1.215 . S
O261 Ho233 2.524 . S
O261 C244 1.289 . S
O262 Ho233 2.381 . S
O262 C251 1.275 . S
O263 Ho232 2.305 . S
O263 Ho233 2.669 . S
O263 C251 1.256 . S
H264 C237 0.930 . S
H265 C238 0.931 . S
H266 C240 0.934 . S
H267 C241 0.930 . S
H268 C246 0.930 . S
H269 C247 0.931 . S
H270 C249 0.934 1_545 S
H271 C250 0.930 . S
Ho272 C275 2.811 . S
Ho272 O292 2.322 . S
Ho272 O294 2.378 . S
Ho272 O295 2.524 . S
Ho272 O296 2.381 1_455 S
Ho272 O297 2.669 1_455 S
Ho272 O299 2.346 1_455 S
Ho272 O303 2.305 1_554 S
Ho273 C284 2.811 1_455 S
Ho273 O293 2.346 1_556 S
Ho273 O297 2.305 1_456 S
Ho273 O298 2.322 1_455 S
Ho273 O300 2.378 1_455 S
Ho273 O301 2.524 1_455 S
Ho273 O302 2.381 . S
Ho273 O303 2.669 . S
C274 O292 1.259 . S
C274 O293 1.268 . S
C275 Ho272 2.811 . S
C275 C276 1.488 . S
C275 O294 1.215 . S
C275 O295 1.289 . S
C276 C275 1.488 . S
C276 C277 1.348 . S
C276 C281 1.413 . S
C277 C276 1.348 . S
C277 C278 1.442 . S
C277 H304 0.930 . S
C278 C277 1.442 . S
C278 C279 1.381 . S
C278 H305 0.931 . S
C279 C278 1.381 . S
C279 C280 1.321 . S
C280 C279 1.321 . S
C280 C281 1.403 . S
C280 H306 0.934 . S
C281 C276 1.413 . S
C281 C280 1.403 . S
C281 H307 0.930 . S
C282 O296 1.275 . S
C282 O297 1.256 . S
C283 O298 1.259 . S
C283 O299 1.268 1_556 S
C284 Ho273 2.811 1_655 S
C284 C285 1.488 . S
C284 O300 1.215 . S
C284 O301 1.289 . S
C285 C284 1.488 . S
C285 C286 1.348 . S
C285 C290 1.413 . S
C286 C285 1.348 . S
C286 C287 1.442 . S
C286 H308 0.930 . S
C287 C286 1.442 . S
C287 C288 1.381 . S
C287 H309 0.931 . S
C288 C287 1.381 . S
C288 C289 1.321 . S
C289 C288 1.321 . S
C289 C290 1.403 . S
C289 H310 0.934 . S
C290 C285 1.413 . S
C290 C289 1.403 . S
C290 H311 0.930 . S
C291 O302 1.275 . S
C291 O303 1.256 . S
O292 Ho272 2.322 . S
O292 C274 1.259 . S
O293 Ho273 2.346 1_554 S
O293 C274 1.268 . S
O294 Ho272 2.378 . S
O294 C275 1.215 . S
O295 Ho272 2.524 . S
O295 C275 1.289 . S
O296 Ho272 2.381 1_655 S
O296 C282 1.275 . S
O297 Ho272 2.669 1_655 S
O297 Ho273 2.305 1_654 S
O297 C282 1.256 . S
O298 Ho273 2.322 1_655 S
O298 C283 1.259 . S
O299 Ho272 2.346 1_655 S
O299 C283 1.268 1_554 S
O300 Ho273 2.378 1_655 S
O300 C284 1.215 . S
O301 Ho273 2.524 1_655 S
O301 C284 1.289 . S
O302 Ho273 2.381 . S
O302 C291 1.275 . S
O303 Ho272 2.305 1_556 S
O303 Ho273 2.669 . S
O303 C291 1.256 . S
H304 C277 0.930 . S
H305 C278 0.931 . S
H306 C280 0.934 . S
H307 C281 0.930 . S
H308 C286 0.930 . S
H309 C287 0.931 . S
H310 C289 0.934 . S
H311 C290 0.930 . S
C6 C159 1.795 . S
C21 C208 1.908 . S
C234 C49 3.320 . S
C68 C282 3.129 . S
C194 C2 3.831 . S
C162 C30 2.805 1_445 S
C283 C40 3.151 . S
C251 C63 2.711 . S
C11 C279 1.869 . S
C211 C44 3.934 1_554 S
C59 C163 2.906 . S
C25 C248 3.619 . S
C168 C82 1.152 . S
C101 C199 2.403 . S
C125 C243 3.257 . S
C144 C291 3.152 . S
C87 C203 3.909 1_556 S
C171 C97 1.751 . S
C274 C120 2.470 . S
C242 C135 2.770 . S
C78 C288 3.064 . S
C202 C116 2.777 . S
C154 C139 3.999 . S
C106 C239 1.495 . S
