# Generated by pormake.
# Topology ptr, (4,4)-cn, num edge types: 1
# Building blocks:
#     Node 0, Type 0, BuildingBlock: UXUYUI_clean_sbu_0, # of connection points: 4
#     Node 1, Type 0, BuildingBlock: UXUYUI_clean_sbu_0, # of connection points: 4
#     Node 2, Type 0, BuildingBlock: UXUYUI_clean_sbu_0, # of connection points: 4
#     Node 3, Type 0, BuildingBlock: UXUYUI_clean_sbu_0, # of connection points: 4
#     Node 4, Type 0, BuildingBlock: UXUYUI_clean_sbu_0, # of connection points: 4
#     Node 5, Type 0, BuildingBlock: UXUYUI_clean_sbu_0, # of connection points: 4
#     Node 6, Type 0, BuildingBlock: UXUYUI_clean_sbu_0, # of connection points: 4
#     Node 7, Type 0, BuildingBlock: UXUYUI_clean_sbu_0, # of connection points: 4
#     Node 8, Type 0, BuildingBlock: UXUYUI_clean_sbu_0, # of connection points: 4
#     Node 9, Type 0, BuildingBlock: UXUYUI_clean_sbu_0, # of connection points: 4
#     Node 10, Type 0, BuildingBlock: UXUYUI_clean_sbu_0, # of connection points: 4
#     Node 11, Type 0, BuildingBlock: UXUYUI_clean_sbu_0, # of connection points: 4
#     Node 12, Type 0, BuildingBlock: UXUYUI_clean_sbu_0, # of connection points: 4
#     Node 13, Type 0, BuildingBlock: UXUYUI_clean_sbu_0, # of connection points: 4
#     Node 14, Type 0, BuildingBlock: UXUYUI_clean_sbu_0, # of connection points: 4
#     Node 15, Type 0, BuildingBlock: UXUYUI_clean_sbu_0, # of connection points: 4
#     Node 16, Type 0, BuildingBlock: UXUYUI_clean_sbu_0, # of connection points: 4
#     Node 17, Type 0, BuildingBlock: UXUYUI_clean_sbu_0, # of connection points: 4
#     Node 18, Type 1, BuildingBlock: MIFKUJ_clean_linker_1, # of connection points: 4
#     Node 19, Type 1, BuildingBlock: MIFKUJ_clean_linker_1, # of connection points: 4
#     Node 20, Type 1, BuildingBlock: MIFKUJ_clean_linker_1, # of connection points: 4
#     Node 21, Type 1, BuildingBlock: MIFKUJ_clean_linker_1, # of connection points: 4
#     Node 22, Type 1, BuildingBlock: MIFKUJ_clean_linker_1, # of connection points: 4
#     Node 23, Type 1, BuildingBlock: MIFKUJ_clean_linker_1, # of connection points: 4
#     Node 24, Type 1, BuildingBlock: MIFKUJ_clean_linker_1, # of connection points: 4
#     Node 25, Type 1, BuildingBlock: MIFKUJ_clean_linker_1, # of connection points: 4
#     Node 26, Type 1, BuildingBlock: MIFKUJ_clean_linker_1, # of connection points: 4
#     Node 27, Type 1, BuildingBlock: MIFKUJ_clean_linker_1, # of connection points: 4
#     Node 28, Type 1, BuildingBlock: MIFKUJ_clean_linker_1, # of connection points: 4
#     Node 29, Type 1, BuildingBlock: MIFKUJ_clean_linker_1, # of connection points: 4
#     Node 30, Type 1, BuildingBlock: MIFKUJ_clean_linker_1, # of connection points: 4
#     Node 31, Type 1, BuildingBlock: MIFKUJ_clean_linker_1, # of connection points: 4
#     Node 32, Type 1, BuildingBlock: MIFKUJ_clean_linker_1, # of connection points: 4
#     Node 33, Type 1, BuildingBlock: MIFKUJ_clean_linker_1, # of connection points: 4
#     Node 34, Type 1, BuildingBlock: MIFKUJ_clean_linker_1, # of connection points: 4
#     Node 35, Type 1, BuildingBlock: MIFKUJ_clean_linker_1, # of connection points: 4
#     Edge 36, Type (0, 1), BuildingBlock: CIFDUS_clean_linker_0, # of connection points: 2
#     Edge 37, Type (0, 1), BuildingBlock: CIFDUS_clean_linker_0, # of connection points: 2
#     Edge 38, Type (0, 1), BuildingBlock: CIFDUS_clean_linker_0, # of connection points: 2
#     Edge 39, Type (0, 1), BuildingBlock: CIFDUS_clean_linker_0, # of connection points: 2
#     Edge 40, Type (0, 1), BuildingBlock: CIFDUS_clean_linker_0, # of connection points: 2
#     Edge 41, Type (0, 1), BuildingBlock: CIFDUS_clean_linker_0, # of connection points: 2
#     Edge 42, Type (0, 1), BuildingBlock: CIFDUS_clean_linker_0, # of connection points: 2
#     Edge 43, Type (0, 1), BuildingBlock: CIFDUS_clean_linker_0, # of connection points: 2
#     Edge 44, Type (0, 1), BuildingBlock: CIFDUS_clean_linker_0, # of connection points: 2
#     Edge 45, Type (0, 1), BuildingBlock: CIFDUS_clean_linker_0, # of connection points: 2
#     Edge 46, Type (0, 1), BuildingBlock: CIFDUS_clean_linker_0, # of connection points: 2
#     Edge 47, Type (0, 1), BuildingBlock: CIFDUS_clean_linker_0, # of connection points: 2
#     Edge 48, Type (0, 1), BuildingBlock: CIFDUS_clean_linker_0, # of connection points: 2
#     Edge 49, Type (0, 1), BuildingBlock: CIFDUS_clean_linker_0, # of connection points: 2
#     Edge 50, Type (0, 1), BuildingBlock: CIFDUS_clean_linker_0, # of connection points: 2
#     Edge 51, Type (0, 1), BuildingBlock: CIFDUS_clean_linker_0, # of connection points: 2
#     Edge 52, Type (0, 1), BuildingBlock: CIFDUS_clean_linker_0, # of connection points: 2
#     Edge 53, Type (0, 1), BuildingBlock: CIFDUS_clean_linker_0, # of connection points: 2
#     Edge 54, Type (0, 1), BuildingBlock: CIFDUS_clean_linker_0, # of connection points: 2
#     Edge 55, Type (0, 1), BuildingBlock: CIFDUS_clean_linker_0, # of connection points: 2
#     Edge 56, Type (0, 1), BuildingBlock: CIFDUS_clean_linker_0, # of connection points: 2
#     Edge 57, Type (0, 1), BuildingBlock: CIFDUS_clean_linker_0, # of connection points: 2
#     Edge 58, Type (0, 1), BuildingBlock: CIFDUS_clean_linker_0, # of connection points: 2
#     Edge 59, Type (0, 1), BuildingBlock: CIFDUS_clean_linker_0, # of connection points: 2
#     Edge 60, Type (0, 1), BuildingBlock: CIFDUS_clean_linker_0, # of connection points: 2
#     Edge 61, Type (0, 1), BuildingBlock: CIFDUS_clean_linker_0, # of connection points: 2
#     Edge 62, Type (0, 1), BuildingBlock: CIFDUS_clean_linker_0, # of connection points: 2
#     Edge 63, Type (0, 1), BuildingBlock: CIFDUS_clean_linker_0, # of connection points: 2
#     Edge 64, Type (0, 1), BuildingBlock: CIFDUS_clean_linker_0, # of connection points: 2
#     Edge 65, Type (0, 1), BuildingBlock: CIFDUS_clean_linker_0, # of connection points: 2
#     Edge 66, Type (0, 1), BuildingBlock: CIFDUS_clean_linker_0, # of connection points: 2
#     Edge 67, Type (0, 1), BuildingBlock: CIFDUS_clean_linker_0, # of connection points: 2
#     Edge 68, Type (0, 1), BuildingBlock: CIFDUS_clean_linker_0, # of connection points: 2
#     Edge 69, Type (0, 1), BuildingBlock: CIFDUS_clean_linker_0, # of connection points: 2
#     Edge 70, Type (0, 1), BuildingBlock: CIFDUS_clean_linker_0, # of connection points: 2
#     Edge 71, Type (0, 1), BuildingBlock: CIFDUS_clean_linker_0, # of connection points: 2
#     Edge 72, Type (0, 1), BuildingBlock: CIFDUS_clean_linker_0, # of connection points: 2
#     Edge 73, Type (0, 1), BuildingBlock: CIFDUS_clean_linker_0, # of connection points: 2
#     Edge 74, Type (0, 1), BuildingBlock: CIFDUS_clean_linker_0, # of connection points: 2
#     Edge 75, Type (0, 1), BuildingBlock: CIFDUS_clean_linker_0, # of connection points: 2
#     Edge 76, Type (0, 1), BuildingBlock: CIFDUS_clean_linker_0, # of connection points: 2
#     Edge 77, Type (0, 1), BuildingBlock: CIFDUS_clean_linker_0, # of connection points: 2
#     Edge 78, Type (0, 1), BuildingBlock: CIFDUS_clean_linker_0, # of connection points: 2
#     Edge 79, Type (0, 1), BuildingBlock: CIFDUS_clean_linker_0, # of connection points: 2
#     Edge 80, Type (0, 1), BuildingBlock: CIFDUS_clean_linker_0, # of connection points: 2
#     Edge 81, Type (0, 1), BuildingBlock: CIFDUS_clean_linker_0, # of connection points: 2
#     Edge 82, Type (0, 1), BuildingBlock: CIFDUS_clean_linker_0, # of connection points: 2
#     Edge 83, Type (0, 1), BuildingBlock: CIFDUS_clean_linker_0, # of connection points: 2
#     Edge 84, Type (0, 1), BuildingBlock: CIFDUS_clean_linker_0, # of connection points: 2
#     Edge 85, Type (0, 1), BuildingBlock: CIFDUS_clean_linker_0, # of connection points: 2
#     Edge 86, Type (0, 1), BuildingBlock: CIFDUS_clean_linker_0, # of connection points: 2
#     Edge 87, Type (0, 1), BuildingBlock: CIFDUS_clean_linker_0, # of connection points: 2
#     Edge 88, Type (0, 1), BuildingBlock: CIFDUS_clean_linker_0, # of connection points: 2
#     Edge 89, Type (0, 1), BuildingBlock: CIFDUS_clean_linker_0, # of connection points: 2
#     Edge 90, Type (0, 1), BuildingBlock: CIFDUS_clean_linker_0, # of connection points: 2
#     Edge 91, Type (0, 1), BuildingBlock: CIFDUS_clean_linker_0, # of connection points: 2
#     Edge 92, Type (0, 1), BuildingBlock: CIFDUS_clean_linker_0, # of connection points: 2
#     Edge 93, Type (0, 1), BuildingBlock: CIFDUS_clean_linker_0, # of connection points: 2
#     Edge 94, Type (0, 1), BuildingBlock: CIFDUS_clean_linker_0, # of connection points: 2
#     Edge 95, Type (0, 1), BuildingBlock: CIFDUS_clean_linker_0, # of connection points: 2
#     Edge 96, Type (0, 1), BuildingBlock: CIFDUS_clean_linker_0, # of connection points: 2
#     Edge 97, Type (0, 1), BuildingBlock: CIFDUS_clean_linker_0, # of connection points: 2
#     Edge 98, Type (0, 1), BuildingBlock: CIFDUS_clean_linker_0, # of connection points: 2
#     Edge 99, Type (0, 1), BuildingBlock: CIFDUS_clean_linker_0, # of connection points: 2
#     Edge 100, Type (0, 1), BuildingBlock: CIFDUS_clean_linker_0, # of connection points: 2
#     Edge 101, Type (0, 1), BuildingBlock: CIFDUS_clean_linker_0, # of connection points: 2
#     Edge 102, Type (0, 1), BuildingBlock: CIFDUS_clean_linker_0, # of connection points: 2
#     Edge 103, Type (0, 1), BuildingBlock: CIFDUS_clean_linker_0, # of connection points: 2
#     Edge 104, Type (0, 1), BuildingBlock: CIFDUS_clean_linker_0, # of connection points: 2
#     Edge 105, Type (0, 1), BuildingBlock: CIFDUS_clean_linker_0, # of connection points: 2
#     Edge 106, Type (0, 1), BuildingBlock: CIFDUS_clean_linker_0, # of connection points: 2
#     Edge 107, Type (0, 1), BuildingBlock: CIFDUS_clean_linker_0, # of connection points: 2
# Relax obj value: 0.094
# Max RMSD: 0.272
# Mean RMSD: 0.119
data_MOF--net-ptr--node1-UXUYUI_clean_sbu_0--node2-MIFKUJ_clean_linker_1--edge1-CIFDUS_clean_linker_0
_symmetry_space_group_name_H-M    P1
_symmetry_Int_Tables_number       1
_symmetry_cell_setting            triclinic
loop_
_symmetry_equiv_pos_as_xyz
'x, y, z'
_cell_length_a     98.878019
_cell_length_b     98.875078
_cell_length_c     64.895816
_cell_angle_alpha  90.13094
_cell_angle_beta   89.891918
_cell_angle_gamma 120.10737
loop_
_atom_site_label
_atom_site_type_symbol
_atom_site_fract_x
_atom_site_fract_y
_atom_site_fract_z
_atom_type_partial_charge
Li0 Li 0.98922 0.33885 0.00508 0.0
Li1 Li 0.01512 0.35074 0.01937 0.0
Li2 Li 0.99647 0.36032 0.03028 0.0
Li3 Li 0.00773 0.36497 0.99578 0.0
C4 C 0.98381 0.32502 0.0405 0.0
N5 N 0.96038 0.29513 0.0501 0.0
C6 C 0.98632 0.3124 0.03811 0.0
C7 C 0.96944 0.32248 0.04788 0.0
C8 C 0.97431 0.29736 0.04301 0.0
C9 C 0.95772 0.30727 0.05264 0.0
C10 C 0.02184 0.34936 0.97832 0.0
C11 C 0.04881 0.36684 0.96926 0.0
N12 N 0.04795 0.35638 0.95494 0.0
C13 C 0.02121 0.3388 0.96346 0.0
C14 C 0.03574 0.36351 0.98121 0.0
C15 C 0.03453 0.34255 0.95182 0.0
C16 C 0.95757 0.31595 0.99646 0.0
N17 N 0.97271 0.31946 0.99533 0.0
C18 C 0.96532 0.29549 0.97778 0.0
C19 C 0.97674 0.3095 0.9865 0.0
C20 C 0.94958 0.29167 0.97818 0.0
C21 C 0.94574 0.30203 0.98793 0.0
H22 H 0.95473 0.32409 0.00369 0.0
H23 H 0.98888 0.31259 0.98597 0.0
C24 C 0.03959 0.35508 0.04565 0.0
N25 N 0.03077 0.34673 0.02931 0.0
C26 C 0.05037 0.35156 0.05434 0.0
C27 C 0.04279 0.33095 0.02913 0.0
C28 C 0.03218 0.33489 0.02091 0.0
C29 C 0.05196 0.33924 0.0462 0.0
H30 H 0.03798 0.36423 0.05224 0.0
H31 H 0.02482 0.3283 0.00809 0.0
C32 C 0.97982 0.3632 0.99064 0.0
N33 N 0.96946 0.37724 0.96302 0.0
C34 C 0.98296 0.37846 0.99407 0.0
C35 C 0.97121 0.35499 0.97331 0.0
C36 C 0.97769 0.38539 0.97988 0.0
C37 C 0.96611 0.36231 0.9595 0.0
C38 C 0.02909 0.38793 0.02585 0.0
C39 C 0.02344 0.39817 0.02946 0.0
C40 C 0.0452 0.39363 0.02626 0.0
C41 C 0.03402 0.41396 0.03319 0.0
C42 C 0.0554 0.4095 0.03001 0.0
N43 N 0.04964 0.41926 0.03336 0.0
C44 C 2e-05 0.37623 0.06783 0.0
C45 C 0.97631 0.36863 0.05012 0.0
C46 C 0.9966 0.38462 0.08222 0.0
N47 N 0.99008 0.3688 0.05193 0.0
C48 C 0.97237 0.37676 0.06425 0.0
C49 C 0.98276 0.38525 0.08029 0.0
H50 H 0.01096 0.37625 0.06875 0.0
H51 H 0.96864 0.36259 0.0373 0.0
C52 C 0.00644 0.37231 0.95478 0.0
N53 N 0.01378 0.37906 0.97277 0.0
C54 C 0.00728 0.38154 0.93805 0.0
C55 C 0.02475 0.4045 0.95777 0.0
C56 C 0.02328 0.39483 0.9743 0.0
C57 C 0.01623 0.39785 0.93968 0.0
H58 H 0.99918 0.35973 0.95384 0.0
H59 H 0.02927 0.40003 0.98848 0.0
O60 O 0.99522 0.33973 0.03514 0.0
O61 O 0.00886 0.34576 0.98986 0.0
O62 O 0.9852 0.35634 0.0041 0.0
O63 O 0.01893 0.37235 0.0225 0.0
H64 H 0.99737 0.31419 0.03229 0.0
H65 H 0.96731 0.33215 0.04969 0.0
H66 H 0.97604 0.28746 0.04112 0.0
H67 H 0.9465 0.3051 0.05826 0.0
H68 H 0.05963 0.37776 0.97136 0.0
H69 H 0.01053 0.32781 0.96094 0.0
H70 H 0.03642 0.37187 0.99245 0.0
H71 H 0.03421 0.33447 0.94029 0.0
H72 H 0.96885 0.28796 0.97027 0.0
H73 H 0.93374 0.29945 0.98884 0.0
H74 H 0.05701 0.35808 0.06769 0.0
H75 H 0.04372 0.32145 0.02228 0.0
H76 H 0.98948 0.38494 0.00747 0.0
H77 H 0.96873 0.34319 0.97034 0.0
H78 H 0.98016 0.39725 0.98226 0.0
H79 H 0.95957 0.35615 0.94592 0.0
H80 H 0.01106 0.39401 0.02928 0.0
H81 H 0.0498 0.38587 0.02372 0.0
H82 H 0.0298 0.422 0.03593 0.0
H83 H 0.06789 0.41407 0.03029 0.0
H84 H 0.00507 0.39112 0.09413 0.0
H85 H 0.96145 0.37668 0.06234 0.0
H86 H 0.00066 0.37603 0.92422 0.0
H87 H 0.03178 0.41707 0.95951 0.0
Li88 Li 0.66314 0.6508 0.99389 0.0
Li89 Li 0.64952 0.66305 0.00913 0.0
Li90 Li 0.64239 0.63675 0.01745 0.0
Li91 Li 0.63606 0.64154 0.98379 0.0
C92 C 0.67629 0.66875 0.02906 0.0
N93 N 0.70402 0.69493 0.04039 0.0
C94 C 0.68422 0.68107 0.01515 0.0
C95 C 0.68246 0.66978 0.04873 0.0
C96 C 0.69822 0.69419 0.02117 0.0
C97 C 0.6965 0.6831 0.05416 0.0
C98 C 0.65085 0.67073 0.96604 0.0
C99 C 0.63385 0.68048 0.956 0.0
N100 N 0.64267 0.68684 0.9388 0.0
C101 C 0.65972 0.67731 0.94826 0.0
C102 C 0.63778 0.67227 0.96995 0.0
C103 C 0.65541 0.68544 0.93469 0.0
C104 C 0.68317 0.65339 0.96212 0.0
N105 N 0.68242 0.65406 0.98298 0.0
C106 C 0.70873 0.65944 0.9862 0.0
C107 C 0.69474 0.65676 0.99511 0.0
C108 C 0.70986 0.65893 0.96469 0.0
C109 C 0.69683 0.65571 0.95259 0.0
H110 H 0.67311 0.65106 0.95291 0.0
H111 H 0.69374 0.65683 0.01168 0.0
C112 C 0.6491 0.68264 0.04004 0.0
N113 N 0.65262 0.68244 0.01983 0.0
C114 C 0.65198 0.69656 0.04941 0.0
C115 C 0.66236 0.70992 0.0171 0.0
C116 C 0.65936 0.69576 0.0084 0.0
C117 C 0.65868 0.71044 0.03789 0.0
H118 H 0.64438 0.67204 0.04901 0.0
H119 H 0.66283 0.69556 0.99268 0.0
C120 C 0.65153 0.61908 0.99407 0.0
N121 N 0.66316 0.59914 1.00003 0.0
C122 C 0.64705 0.60629 0.98097 0.0
C123 C 0.66191 0.62171 0.01023 0.0
C124 C 0.65306 0.59634 0.98423 0.0
C125 C 0.66766 0.61151 0.01297 0.0
C126 C 0.61485 0.63455 0.0207 0.0
C127 C 0.60416 0.62017 0.01191 0.0
C128 C 0.61224 0.63814 0.04062 0.0
C129 C 0.59107 0.6096 0.02325 0.0
C130 C 0.59903 0.62724 0.05149 0.0
N131 N 0.58881 0.61331 0.04265 0.0
C132 C 0.63785 0.62562 0.05877 0.0
C133 C 0.62458 0.60634 0.03308 0.0
C134 C 0.63075 0.61442 0.0743 0.0
N135 N 0.63448 0.62141 0.03867 0.0
C136 C 0.61713 0.59484 0.04804 0.0
C137 C 0.62002 0.59881 0.06902 0.0
H138 H 0.64574 0.63772 0.06274 0.0
H139 H 0.622 0.60337 0.01697 0.0
C140 C 0.62487 0.6254 0.9468 0.0
N141 N 0.62183 0.63333 0.96147 0.0
C142 C 0.6142 0.61773 0.93095 0.0
C143 C 0.59772 0.62705 0.94516 0.0
C144 C 0.60872 0.63452 0.96079 0.0
C145 C 0.60026 0.61825 0.93022 0.0
H146 H 0.63546 0.62475 0.94771 0.0
H147 H 0.60658 0.64084 0.97277 0.0
O148 O 0.66243 0.65582 0.02374 0.0
O149 O 0.65479 0.66252 0.97927 0.0
O150 O 0.64572 0.62889 0.99096 0.0
O151 O 0.62796 0.64489 0.01001 0.0
H152 H 0.67968 0.68053 0.99986 0.0
H153 H 0.67644 0.66036 0.05969 0.0
H154 H 0.70447 0.7038 0.01056 0.0
H155 H 0.70141 0.68404 0.06933 0.0
H156 H 0.62378 0.68179 0.95884 0.0
H157 H 0.66983 0.67614 0.94498 0.0
H158 H 0.63078 0.66724 0.98363 0.0
H159 H 0.66217 0.69062 0.92087 0.0
H160 H 0.71851 0.66169 0.996 0.0
H161 H 0.69731 0.65526 0.93594 0.0
H162 H 0.64899 0.69646 0.0655 0.0
H163 H 0.66788 0.72043 0.00782 0.0
H164 H 0.639 0.60406 0.96842 0.0
H165 H 0.66549 0.6315 0.02059 0.0
H166 H 0.64969 0.5864 0.9742 0.0
H167 H 0.67571 0.61342 0.0254 0.0
H168 H 0.60611 0.61702 0.99669 0.0
H169 H 0.62037 0.64916 0.04772 0.0
H170 H 0.58278 0.59839 0.01668 0.0
H171 H 0.59693 0.62984 0.06697 0.0
H172 H 0.63351 0.61801 0.09024 0.0
H173 H 0.60875 0.58308 0.04316 0.0
H174 H 0.61671 0.61128 0.91956 0.0
H175 H 0.58707 0.62763 0.94526 0.0
Li176 Li 0.35751 0.99465 0.99115 0.0
Li177 Li 0.36144 0.00401 0.02598 0.0
Li178 Li 0.33539 0.98681 0.01357 0.0
Li179 Li 0.34963 0.0132 0.00144 0.0
C180 C 0.34696 0.96662 0.01203 0.0
N181 N 0.33566 0.93548 0.00272 0.0
C182 C 0.3505 0.95744 0.02475 0.0
C183 C 0.33767 0.95997 0.99456 0.0
C184 C 0.34468 0.94172 0.01978 0.0
C185 C 0.33207 0.94421 0.99013 0.0
C186 C 0.38641 0.02045 0.99903 0.0
C187 C 0.4128 0.03839 0.98808 0.0
N188 N 0.41732 0.02829 0.99498 0.0
C189 C 0.39132 0.01023 0.006 0.0
C190 C 0.39721 0.03463 0.98998 0.0
C191 C 0.40699 0.01441 0.00382 0.0
C192 C 0.36879 0.99793 0.95119 0.0
N193 N 0.36706 0.98995 0.96893 0.0
C194 C 0.38289 0.97994 0.95566 0.0
C195 C 0.37372 0.9809 0.97136 0.0
C196 C 0.38541 0.98859 0.93749 0.0
C197 C 0.37798 0.99743 0.93519 0.0
H198 H 0.36358 0.00525 0.94987 0.0
H199 H 0.37258 0.97504 0.98584 0.0
C200 C 0.37004 0.99683 0.06327 0.0
N201 N 0.37433 0.00871 0.04966 0.0
C202 C 0.37929 0.99876 0.08046 0.0
C203 C 0.39701 0.02531 0.06961 0.0
C204 C 0.38739 0.02286 0.05261 0.0
C205 C 0.3931 0.01308 0.08367 0.0
H206 H 0.35956 0.98572 0.0605 0.0
H207 H 0.39051 0.03215 0.04158 0.0
C208 C 0.32425 0.99328 0.97764 0.0
N209 N 0.29743 0.99224 0.96341 0.0
C210 C 0.31495 0.99623 0.99107 0.0
C211 C 0.31993 0.98983 0.95697 0.0
C212 C 0.30143 0.99564 0.98358 0.0
C213 C 0.30631 0.98935 0.95007 0.0
C214 C 0.34648 0.01853 0.04291 0.0
C215 C 0.33688 0.01683 0.0597 0.0
C216 C 0.35995 0.03295 0.03934 0.0
C217 C 0.34093 0.02959 0.07267 0.0
C218 C 0.3636 0.04543 0.05267 0.0
N219 N 0.3541 0.04351 0.06892 0.0
C220 C 0.31343 0.96938 0.04311 0.0
C221 C 0.30402 0.9608 0.00923 0.0
C222 C 0.2991 0.95833 0.05147 0.0
N223 N 0.31556 0.97049 0.02237 0.0
C224 C 0.28941 0.94965 0.01694 0.0
C225 C 0.28682 0.94839 0.03832 0.0
H226 H 0.32285 0.97725 0.05314 0.0
H227 H 0.30608 0.96182 0.9928 0.0
C228 C 0.35401 0.03543 0.9722 0.0
N229 N 0.34742 0.0299 0.99093 0.0
C230 C 0.35124 0.04614 0.9618 0.0
C231 C 0.33533 0.04561 0.99048 0.0
C232 C 0.33828 0.03478 0.00025 0.0
C233 C 0.34164 0.05121 0.97085 0.0
H234 H 0.361 0.03111 0.96505 0.0
H235 H 0.33278 0.02985 0.01486 0.0
O236 O 0.35256 0.98201 0.01686 0.0
O237 O 0.37109 0.01659 0.00069 0.0
O238 O 0.33769 0.994 0.98444 0.0
O239 O 0.34263 0.00605 0.03021 0.0
H240 H 0.35768 0.96242 0.03832 0.0
H241 H 0.33483 0.96686 0.98446 0.0
H242 H 0.34733 0.93447 0.0295 0.0
H243 H 0.32488 0.93891 0.97666 0.0
H244 H 0.42129 0.04933 0.9811 0.0
H245 H 0.38313 0.99918 0.01298 0.0
H246 H 0.39357 0.04264 0.98444 0.0
H247 H 0.41095 0.00661 0.00914 0.0
H248 H 0.38863 0.9732 0.95816 0.0
H249 H 0.37959 0.00422 0.92138 0.0
H250 H 0.37592 0.98895 0.09072 0.0
H251 H 0.40746 0.03659 0.07163 0.0
H252 H 0.31811 0.99896 0.0071 0.0
H253 H 0.32705 0.98759 0.94637 0.0
H254 H 0.29414 0.9979 0.9938 0.0
H255 H 0.30282 0.98669 0.93411 0.0
H256 H 0.32641 0.00574 0.06267 0.0
H257 H 0.36751 0.03454 0.02641 0.0
H258 H 0.33361 0.02844 0.08573 0.0
H259 H 0.37399 0.05664 0.05009 0.0
H260 H 0.29752 0.95782 0.06803 0.0
H261 H 0.28027 0.94207 0.00633 0.0
H262 H 0.35638 0.05026 0.94672 0.0
H263 H 0.32769 0.04908 0.99782 0.0
Li264 Li 0.01318 0.66473 0.00655 0.0
Li265 Li 0.9962 0.63843 0.01783 0.0
Li266 Li 0.00562 0.64417 0.98224 0.0
Li267 Li 0.98599 0.65066 0.99401 0.0
C268 C 0.03218 0.65488 0.01649 0.0
N269 N 0.06117 0.67083 0.03514 0.0
C270 C 0.03353 0.65398 0.03782 0.0
C271 C 0.04559 0.66381 0.00464 0.0
C272 C 0.04829 0.66214 0.04696 0.0
C273 C 0.06013 0.67182 0.01436 0.0
C274 C 0.98154 0.65336 0.03642 0.0
C275 C 0.9543 0.63792 0.04566 0.0
N276 N 0.95717 0.6465 0.06319 0.0
C277 C 0.98421 0.66206 0.05448 0.0
C278 C 0.96647 0.64121 0.03193 0.0
C279 C 0.97174 0.65839 0.06785 0.0
C280 C 0.03774 0.69661 0.00335 0.0
N281 N 0.02898 0.68451 0.01628 0.0
C282 C 0.04166 0.70038 0.04568 0.0
C283 C 0.03064 0.68615 0.03706 0.0
C284 C 0.05088 0.71313 0.03278 0.0
C285 C 0.04883 0.71115 0.01134 0.0
H286 H 0.03601 0.69503 0.98689 0.0
H287 H 0.02331 0.67637 0.04694 0.0
C288 C -3e-05 0.61556 0.03615 0.0
N289 N 0.99234 0.62362 0.03929 0.0
C290 C 0.99941 0.60506 0.05084 0.0
C291 C 0.98308 0.6112 0.07201 0.0
C292 C 0.98391 0.6216 0.05678 0.0
C293 C 0.99108 0.60292 0.06923 0.0
H294 H 0.00685 0.61758 0.02235 0.0
H295 H 0.97815 0.62826 0.05929 0.0
C296 C 0.00954 0.66675 0.95799 0.0
N297 N 0.01745 0.67114 0.9167 0.0
C298 C 0.99821 0.66398 0.94314 0.0
C299 C 0.02493 0.67191 0.95184 0.0
C300 C 0.00243 0.66623 0.92234 0.0
C301 C 0.02868 0.674 0.93089 0.0
C302 C 0.97626 0.61398 0.9924 0.0
C303 C 0.9845 0.60605 0.98946 0.0
C304 C 0.96013 0.60546 0.9958 0.0
C305 C 0.97649 0.58973 0.99019 0.0
C306 C 0.95254 0.58915 0.99643 0.0
N307 N 0.96081 0.58169 0.99364 0.0
C308 C 0.0231 0.63356 0.95906 0.0
C309 C 0.99916 0.62893 0.9445 0.0
C310 C 0.02457 0.62429 0.94394 0.0
N311 N 0.01038 0.63541 0.95924 0.0
C312 C 0.00015 0.61958 0.92916 0.0
C313 C 0.01273 0.61678 0.92912 0.0
H314 H 0.03163 0.63852 0.9713 0.0
H315 H 0.98902 0.63035 0.94533 0.0
C316 C 0.96867 0.66595 0.98894 0.0
N317 N 0.96902 0.65269 0.98458 0.0
C318 C 0.9578 0.66888 0.97925 0.0
C319 C 0.94762 0.6442 0.96128 0.0
C320 C 0.95863 0.64173 0.97138 0.0
C321 C 0.94735 0.65809 0.96481 0.0
H322 H 0.97729 0.67456 0.99927 0.0
H323 H 0.9594 0.63143 0.96796 0.0
O324 O 0.0178 0.64724 0.0073 0.0
O325 O 0.99362 0.65695 0.02313 0.0
O326 O 0.00559 0.66434 0.97841 0.0
O327 O 0.98388 0.62998 0.99178 0.0
H328 H 0.02328 0.64727 0.04729 0.0
H329 H 0.04477 0.66466 0.98814 0.0
H330 H 0.04949 0.66163 0.06346 0.0
H331 H 0.07059 0.67885 0.00539 0.0
H332 H 0.94259 0.62852 0.04239 0.0
H333 H 0.99581 0.67155 0.05814 0.0
H334 H 0.9642 0.63435 0.01808 0.0
H335 H 0.97365 0.66501 0.08191 0.0
H336 H 0.04271 0.70149 0.06229 0.0
H337 H 0.05575 0.72071 0.00091 0.0
H338 H 0.00558 0.59879 0.04787 0.0
H339 H 0.97666 0.61003 0.08606 0.0
H340 H 0.98627 0.66006 0.94759 0.0
H341 H 0.03384 0.67412 0.96312 0.0
H342 H 0.99376 0.66406 0.91069 0.0
H343 H 0.04052 0.67789 0.92592 0.0
H344 H 0.99698 0.6124 0.98687 0.0
H345 H 0.95349 0.61134 0.99787 0.0
H346 H 0.98275 0.58347 0.98804 0.0
H347 H 0.94007 0.58242 0.99909 0.0
H348 H 0.03436 0.62226 0.9446 0.0
H349 H 0.99085 0.61413 0.91789 0.0
H350 H 0.9581 0.6798 0.98224 0.0
H351 H 0.93967 0.63553 0.95042 0.0
Li352 Li 0.33783 0.35479 0.01785 0.0
Li353 Li 0.36539 0.36319 0.02235 0.0
Li354 Li 0.35584 0.36711 0.989 0.0
Li355 Li 0.34942 0.34091 1.00007 0.0
C356 C 0.35406 0.38871 0.01918 0.0
N357 N 0.35029 0.41426 0.02555 0.0
C358 C 0.36015 0.39789 0.03688 0.0
C359 C 0.34626 0.39267 0.00459 0.0
C360 C 0.35806 0.41072 0.03986 0.0
C361 C 0.34442 0.40559 0.00812 0.0
C362 C 0.34462 0.34163 0.05133 0.0
C363 C 0.33636 0.32656 0.0827 0.0
N364 N 0.33942 0.33965 0.09336 0.0
C365 C 0.34768 0.35493 0.06261 0.0
C366 C 0.33891 0.32732 0.06144 0.0
C367 C 0.34498 0.35369 0.08384 0.0
C368 C 0.30588 0.33832 0.02752 0.0
N369 N 0.31945 0.35178 0.03152 0.0
C370 C 0.30686 0.35903 0.05712 0.0
C371 C 0.32014 0.36216 0.04586 0.0
C372 C 0.29272 0.34512 0.05354 0.0
C373 C 0.29226 0.33478 0.03832 0.0
H374 H 0.30572 0.33019 0.01622 0.0
H375 H 0.33108 0.37265 0.04903 0.0
C376 C 0.39209 0.3891 0.03565 0.0
N377 N 0.38274 0.37378 0.04044 0.0
C378 C 0.40383 0.39909 0.04914 0.0
C379 C 0.39669 0.37718 0.07188 0.0
C380 C 0.3851 0.36754 0.0578 0.0
C381 C 0.40591 0.3933 0.06789 0.0
H382 H 0.38998 0.39368 0.02166 0.0
H383 H 0.37758 0.35527 0.06117 0.0
C384 C 0.32437 0.3465 0.97502 0.0
N385 N 0.30235 0.34399 0.94676 0.0
C386 C 0.32095 0.33683 0.95777 0.0
C387 C 0.31641 0.3547 0.97806 0.0
C388 C 0.30984 0.33578 0.9436 0.0
C389 C 0.30537 0.35333 0.96355 0.0
C390 C 0.38154 0.35472 0.99529 0.0
C391 C 0.39382 0.36053 0.98111 0.0
C392 C 0.38064 0.34445 0.0107 0.0
C393 C 0.40506 0.35596 0.98257 0.0
C394 C 0.3921 0.34016 0.01165 0.0
N395 N 0.40397 0.34595 0.99769 0.0
C396 C 0.37559 0.39499 0.96974 0.0
C397 C 0.3555 0.3773 0.94743 0.0
C398 C 0.38272 0.4056 0.95369 0.0
N399 N 0.36235 0.3811 0.96633 0.0
C400 C 0.3622 0.38762 0.93091 0.0
C401 C 0.37616 0.40189 0.93384 0.0
H402 H 0.38091 0.39757 0.98486 0.0
H403 H 0.34515 0.3661 0.94496 0.0
C404 C 0.33785 0.30805 0.99985 0.0
N405 N 0.3455 0.3216 0.98901 0.0
C406 C 0.33391 0.29383 0.99038 0.0
C407 C 0.34597 0.30788 0.95896 0.0
C408 C 0.34977 0.3218 0.96906 0.0
C409 C 0.33778 0.29363 0.96956 0.0
H410 H 0.33448 0.30827 0.01565 0.0
H411 H 0.35579 0.33279 0.96086 0.0
O412 O 0.35612 0.37618 0.01599 0.0
O413 O 0.347 0.34249 0.03048 0.0
O414 O 0.33514 0.34755 0.98908 0.0
O415 O 0.37047 0.35911 0.99397 0.0
H416 H 0.36636 0.39509 0.04825 0.0
H417 H 0.34184 0.38597 0.99056 0.0
H418 H 0.36262 0.41786 0.05355 0.0
H419 H 0.33838 0.40877 0.99697 0.0
H420 H 0.33195 0.31555 0.09071 0.0
H421 H 0.35216 0.3661 0.05509 0.0
H422 H 0.33646 0.31691 0.05294 0.0
H423 H 0.34731 0.36391 0.09273 0.0
H424 H 0.30767 0.36737 0.06862 0.0
H425 H 0.28162 0.32386 0.03524 0.0
H426 H 0.4109 0.41134 0.04517 0.0
H427 H 0.39788 0.37222 0.08614 0.0
H428 H 0.32688 0.33028 0.95528 0.0
H429 H 0.3186 0.36192 0.99156 0.0
H430 H 0.30715 0.32842 0.93012 0.0
H431 H 0.29916 0.35964 0.9657 0.0
H432 H 0.39466 0.3685 0.96909 0.0
H433 H 0.37122 0.33981 0.02181 0.0
H434 H 0.41464 0.36036 0.97169 0.0
H435 H 0.39156 0.33221 0.02349 0.0
H436 H 0.39361 0.41628 0.95665 0.0
H437 H 0.35666 0.38432 0.91593 0.0
H438 H 0.3275 0.28307 0.99904 0.0
H439 H 0.34934 0.30825 0.94299 0.0
Li440 Li 0.65121 0.98505 0.02079 0.0
Li441 Li 0.64265 0.00459 0.02822 0.0
Li442 Li 0.63837 0.99092 0.99394 0.0
Li443 Li 0.66382 0.01011 0.00433 0.0
C444 C 0.62192 0.96873 0.03323 0.0
N445 N 0.60714 0.94239 0.05774 0.0
C446 C 0.61816 0.96995 0.05367 0.0
C447 C 0.61804 0.95408 0.02522 0.0
C448 C 0.61071 0.9565 0.06582 0.0
C449 C 0.61062 0.94092 0.03787 0.0
C450 C 0.6776 0.01516 0.0406 0.0
C451 C 0.69805 0.0398 0.05377 0.0
N452 N 0.70848 0.03478 0.05122 0.0
C453 C 0.68849 0.0102 0.03819 0.0
C454 C 0.68237 0.03004 0.04851 0.0
C455 C 0.70406 0.02032 0.04362 0.0
C456 C 0.6598 0.96163 0.02328 0.0
N457 N 0.65473 0.97002 0.0341 0.0
C458 C 0.65611 0.95841 0.06566 0.0
C459 C 0.65297 0.96872 0.05489 0.0
C460 C 0.66141 0.94957 0.05497 0.0
C461 C 0.6632 0.95126 0.03345 0.0
H462 H 0.66152 0.96324 0.00683 0.0
H463 H 0.64927 0.97582 0.06313 0.0
C464 C 0.61925 0.0098 0.04194 0.0
N465 N 0.63314 0.01134 0.04773 0.0
C466 C 0.6103 0.01261 0.05604 0.0
C467 C 0.63038 0.01904 0.08168 0.0
C468 C 0.63894 0.01602 0.06705 0.0
C469 C 0.61571 0.01701 0.07631 0.0
H470 H 0.61493 0.00592 0.02649 0.0
H471 H 0.64989 0.01683 0.0713 0.0
C472 C 0.65486 0.98302 0.97256 0.0
N473 N 0.64827 0.96977 0.9337 0.0
C474 C 0.66118 0.99242 0.95512 0.0
C475 C 0.64523 0.96687 0.97022 0.0
C476 C 0.65771 0.9855 0.93561 0.0
C477 C 0.64202 0.9604 0.95045 0.0
C478 C 0.65194 0.02831 0.99323 0.0
C479 C 0.65827 0.0324 0.97341 0.0
C480 C 0.6519 0.03969 0.00604 0.0
C481 C 0.66458 0.04785 0.96679 0.0
C482 C 0.65829 0.055 0.99883 0.0
N483 N 0.66445 0.05873 0.97953 0.0
C484 C 0.60886 0.97052 0.97635 0.0
C485 C 0.62621 0.99106 0.95437 0.0
C486 C 0.59661 0.96619 0.96241 0.0
N487 N 0.62322 0.98297 0.97231 0.0
C488 C 0.61433 0.98711 0.93998 0.0
C489 C 0.59916 0.97483 0.94422 0.0
H490 H 0.60668 0.96444 0.99084 0.0
H491 H 0.63762 0.00105 0.95163 0.0
C492 C 0.69314 0.02124 0.986 0.0
N493 N 0.68418 0.02618 0.99566 0.0
C494 C 0.70813 0.03201 0.97915 0.0
C495 C 0.70468 0.05281 0.99291 0.0
C496 C 0.68979 0.04161 0.99967 0.0
C497 C 0.71398 0.04803 0.98237 0.0
H498 H 0.68865 0.00889 0.98363 0.0
H499 H 0.68279 0.04526 0.00822 0.0
O500 O 0.62946 0.9818 0.02119 0.0
O501 O 0.6624 0.0056 0.03484 0.0
O502 O 0.6579 0.98961 0.99179 0.0
O503 O 0.6456 0.01324 1.0 0.0
H504 H 0.62106 0.98116 0.06017 0.0
H505 H 0.62084 0.95291 0.00945 0.0
H506 H 0.6078 0.95729 0.08169 0.0
H507 H 0.60764 0.92953 0.0319 0.0
H508 H 0.70194 0.05139 0.05979 0.0
H509 H 0.68498 0.99874 0.03196 0.0
H510 H 0.67409 0.0341 0.05025 0.0
H511 H 0.71265 0.01668 0.04172 0.0
H512 H 0.65439 0.9574 0.08219 0.0
H513 H 0.66755 0.94494 0.02462 0.0
H514 H 0.59912 0.01106 0.05126 0.0
H515 H 0.63485 0.02226 0.09722 0.0
H516 H 0.66851 0.00496 0.95659 0.0
H517 H 0.6402 0.95942 0.98352 0.0
H518 H 0.66246 0.99265 0.92199 0.0
H519 H 0.63453 0.94792 0.94842 0.0
H520 H 0.65865 0.02386 0.96341 0.0
H521 H 0.64706 0.03676 0.02142 0.0
H522 H 0.66964 0.0512 0.95157 0.0
H523 H 0.65838 0.06392 0.0086 0.0
H524 H 0.58511 0.95656 0.96621 0.0
H525 H 0.61679 0.99423 0.9263 0.0
H526 H 0.71494 0.02784 0.97109 0.0
H527 H 0.70892 0.06505 0.99606 0.0
Li528 Li 0.65447 0.67095 0.34299 0.0
Li529 Li 0.68084 0.68396 0.35731 0.0
Li530 Li 0.66103 0.68987 0.3699 0.0
Li531 Li 0.67276 0.69854 0.33588 0.0
C532 C 0.65669 0.66613 0.39142 0.0
N533 N 0.64862 0.66046 0.43257 0.0
C534 C 0.66819 0.66962 0.4063 0.0
C535 C 0.64108 0.65971 0.39745 0.0
C536 C 0.66387 0.66666 0.42703 0.0
C537 C 0.63724 0.65695 0.41833 0.0
C538 C 0.68387 0.6752 0.31971 0.0
C539 C 0.70921 0.68005 0.30857 0.0
N540 N 0.70302 0.66453 0.30473 0.0
C541 C 0.67774 0.6593 0.31557 0.0
C542 C 0.69971 0.68568 0.31609 0.0
C543 C 0.68762 0.65413 0.30802 0.0
C544 C 0.63651 0.65164 0.31034 0.0
N545 N 0.63886 0.65196 0.33101 0.0
C546 C 0.61997 0.6248 0.33373 0.0
C547 C 0.63088 0.63895 0.34278 0.0
C548 C 0.61728 0.62411 0.3124 0.0
C549 C 0.62564 0.6378 0.30069 0.0
H550 H 0.64329 0.66212 0.30133 0.0
H551 H 0.63315 0.6395 0.35913 0.0
C552 C 0.71038 0.69262 0.37463 0.0
N553 N 0.69744 0.68077 0.36562 0.0
C554 C 0.72211 0.69003 0.38218 0.0
C555 C 0.70709 0.66318 0.3707 0.0
C556 C 0.69554 0.66622 0.36371 0.0
C557 C 0.72049 0.67514 0.38027 0.0
H558 H 0.71142 0.70397 0.37641 0.0
H559 H 0.68489 0.65688 0.35713 0.0
C560 C 0.63681 0.68266 0.33312 0.0
N561 N 0.60934 0.66931 0.31075 0.0
C562 C 0.63686 0.68706 0.31265 0.0
C563 C 0.62278 0.67152 0.34224 0.0
C564 C 0.62285 0.68017 0.3016 0.0
C565 C 0.60902 0.66488 0.33066 0.0
C566 C 0.69276 0.72022 0.36093 0.0
C567 C 0.6881 0.7305 0.36852 0.0
C568 C 0.70692 0.72613 0.35032 0.0
C569 C 0.69767 0.74654 0.36524 0.0
C570 C 0.71615 0.74224 0.34733 0.0
N571 N 0.71137 0.75203 0.35479 0.0
C572 C 0.66478 0.70327 0.40905 0.0
C573 C 0.64017 0.6955 0.39386 0.0
C574 C 0.66137 0.71013 0.42555 0.0
N575 N 0.65433 0.6964 0.39348 0.0
C576 C 0.6362 0.7021 0.41017 0.0
C577 C 0.64703 0.70989 0.42608 0.0
H578 H 0.67605 0.70399 0.40817 0.0
H579 H 0.63213 0.69009 0.38119 0.0
C580 C 0.68709 0.71579 0.29912 0.0
N581 N 0.6789 0.71491 0.31641 0.0
C582 C 0.69097 0.72778 0.28487 0.0
C583 C 0.67799 0.7377 0.30661 0.0
C584 C 0.67423 0.72546 0.32028 0.0
C585 C 0.68641 0.73893 0.28859 0.0
H586 H 0.69045 0.7071 0.29629 0.0
H587 H 0.66742 0.72425 0.33393 0.0
O588 O 0.66073 0.66932 0.37111 0.0
O589 O 0.67444 0.68046 0.32733 0.0
O590 O 0.65045 0.68906 0.34409 0.0
O591 O 0.6834 0.70444 0.36358 0.0
H592 H 0.68034 0.67468 0.40193 0.0
H593 H 0.63206 0.65707 0.38614 0.0
H594 H 0.67265 0.66935 0.43872 0.0
H595 H 0.62523 0.65207 0.42323 0.0
H596 H 0.72151 0.68803 0.30582 0.0
H597 H 0.66553 0.65099 0.31835 0.0
H598 H 0.70465 0.69802 0.31922 0.0
H599 H 0.68305 0.64185 0.30484 0.0
H600 H 0.6137 0.61451 0.34331 0.0
H601 H 0.62409 0.63771 0.28416 0.0
H602 H 0.73228 0.69953 0.38953 0.0
H603 H 0.70533 0.65149 0.36929 0.0
H604 H 0.64761 0.69558 0.30529 0.0
H605 H 0.62255 0.66785 0.35798 0.0
H606 H 0.62272 0.68342 0.28573 0.0
H607 H 0.5981 0.65617 0.33747 0.0
H608 H 0.67711 0.72614 0.37657 0.0
H609 H 0.71069 0.71834 0.34431 0.0
H610 H 0.69417 0.75463 0.37093 0.0
H611 H 0.72709 0.74697 0.33905 0.0
H612 H 0.6702 0.7162 0.43723 0.0
H613 H 0.62492 0.7014 0.41006 0.0
H614 H 0.69747 0.72834 0.27113 0.0
H615 H 0.67401 0.74589 0.30985 0.0
Li616 Li 0.2975 0.97292 0.32097 0.0
Li617 Li 0.30272 0.96724 0.35484 0.0
Li618 Li 0.31223 0.99398 0.34653 0.0
Li619 Li 0.32386 0.97984 0.33138 0.0
C620 C 0.27626 0.96767 0.35721 0.0
N621 N 0.24899 0.94792 0.37816 0.0
C622 C 0.26476 0.95391 0.3479 0.0
C623 C 0.27383 0.97141 0.37714 0.0
C624 C 0.25106 0.94409 0.35873 0.0
C625 C 0.25999 0.96126 0.3875 0.0
C626 C 0.3096 0.94771 0.33182 0.0
C627 C 0.32405 0.93822 0.35095 0.0
N628 N 0.31831 0.92552 0.33835 0.0
C629 C 0.30384 0.93457 0.31908 0.0
C630 C 0.31978 0.94957 0.34792 0.0
C631 C 0.30838 0.92348 0.32263 0.0
C632 C 0.28742 0.95833 0.28327 0.0
N633 N 0.28398 0.96599 0.29788 0.0
C634 C 0.26142 0.96177 0.2791 0.0
C635 C 0.27142 0.96803 0.29604 0.0
C636 C 0.26447 0.95343 0.26397 0.0
C637 C 0.27779 0.95192 0.26613 0.0
H638 H 0.29753 0.95696 0.28517 0.0
H639 H 0.26901 0.97423 0.30791 0.0
C640 C 0.29675 0.95665 0.39635 0.0
N641 N 0.29337 0.95221 0.3763 0.0
C642 C 0.28802 0.94628 0.4121 0.0
C643 C 0.27282 0.92693 0.38621 0.0
C644 C 0.28199 0.93755 0.37102 0.0
C645 C 0.27561 0.93138 0.407 0.0
H646 H 0.30575 0.96846 0.40004 0.0
H647 H 0.2795 0.93439 0.35494 0.0
C648 C 0.31443 0.00234 0.30407 0.0
N649 N 0.30861 0.02087 0.27798 0.0
C650 C 0.32395 0.00925 0.28687 0.0
C651 C 0.30193 0.00482 0.30798 0.0
C652 C 0.32082 0.0186 0.27387 0.0
C653 C 0.29919 0.01423 0.29461 0.0
C654 C 0.33812 0.99714 0.36653 0.0
C655 C 0.34692 0.00925 0.35266 0.0
C656 C 0.34408 0.99746 0.38614 0.0
C657 C 0.36154 0.02147 0.35867 0.0
C658 C 0.35876 0.00989 0.39156 0.0
N659 N 0.36712 0.02154 0.37784 0.0
C660 C 0.31339 0.01442 0.3773 0.0
C661 C 0.32549 0.02729 0.34615 0.0
C662 C 0.31772 0.02869 0.38682 0.0
N663 N 0.31716 0.01395 0.35727 0.0
C664 C 0.33004 0.04182 0.35504 0.0
C665 C 0.3262 0.04266 0.37567 0.0
H666 H 0.30743 0.00372 0.38606 0.0
H667 H 0.329 0.02678 0.33056 0.0
C668 C 0.34301 0.98242 0.29901 0.0
N669 N 0.34247 0.98188 0.31991 0.0
C670 C 0.35651 0.98525 0.2886 0.0
C671 C 0.36859 0.98648 0.32144 0.0
C672 C 0.35475 0.98349 0.33123 0.0
C673 C 0.36968 0.98765 0.29983 0.0
H674 H 0.33296 0.9809 0.29044 0.0
H675 H 0.35397 0.98285 0.34786 0.0
O676 O 0.28994 0.97723 0.34703 0.0
O677 O 0.30521 0.95863 0.32844 0.0
O678 O 0.31726 0.99301 0.31677 0.0
O679 O 0.32367 0.98507 0.36121 0.0
H680 H 0.26654 0.95062 0.33267 0.0
H681 H 0.28257 0.98195 0.38465 0.0
H682 H 0.24214 0.93335 0.35176 0.0
H683 H 0.25802 0.96396 0.40298 0.0
H684 H 0.33192 0.93952 0.36333 0.0
H685 H 0.29592 0.93295 0.30658 0.0
H686 H 0.32435 0.95961 0.358 0.0
H687 H 0.304 0.91324 0.31288 0.0
H688 H 0.25136 0.96334 0.27794 0.0
H689 H 0.28048 0.9454 0.25505 0.0
H690 H 0.2904 0.9501 0.42801 0.0
H691 H 0.26337 0.9155 0.38176 0.0
H692 H 0.33366 0.00742 0.28362 0.0
H693 H 0.29445 0.99959 0.32123 0.0
H694 H 0.3281 0.02403 0.26051 0.0
H695 H 0.28957 0.01627 0.29746 0.0
H696 H 0.34257 0.00923 0.3374 0.0
H697 H 0.3374 0.98819 0.39706 0.0
H698 H 0.36846 0.0309 0.34809 0.0
H699 H 0.36351 0.01028 0.4067 0.0
H700 H 0.31485 0.02881 0.40291 0.0
H701 H 0.33655 0.05228 0.34586 0.0
H702 H 0.35665 0.98565 0.27193 0.0
H703 H 0.37845 0.98832 0.33075 0.0
Li704 Li 0.0236 0.33175 0.32192 0.0
Li705 Li 0.02988 0.34298 0.35689 0.0
Li706 Li 0.00292 0.3252 0.34797 0.0
Li707 Li 0.01666 0.35055 0.33326 0.0
C708 C 0.03001 0.31609 0.35689 0.0
N709 N 0.05062 0.30851 0.37496 0.0
C710 C 0.04532 0.32263 0.3495 0.0
C711 C 0.02516 0.30562 0.37339 0.0
C712 C 0.05556 0.31867 0.35886 0.0
C713 C 0.03576 0.30195 0.38232 0.0
C714 C 0.04646 0.36933 0.32736 0.0
C715 C 0.05652 0.39559 0.34012 0.0
N716 N 0.0624 0.40128 0.3211 0.0
C717 C 0.05267 0.37544 0.30797 0.0
C718 C 0.04845 0.37948 0.3436 0.0
C719 C 0.06066 0.39162 0.30511 0.0
C720 C 0.0345 0.33312 0.28168 0.0
N721 N 0.03025 0.32444 0.29919 0.0
C722 C 0.038 0.30711 0.28486 0.0
C723 C 0.03134 0.31132 0.3008 0.0
C724 C 0.04342 0.31642 0.26707 0.0
C725 C 0.04117 0.32932 0.26533 0.0
H726 H 0.03311 0.34327 0.28069 0.0
H727 H 0.02747 0.30437 0.31468 0.0
C728 C 0.04065 0.34212 0.39708 0.0
N729 N 0.04509 0.3486 0.37805 0.0
C730 C 0.05191 0.34368 0.4114 0.0
C731 C 0.07202 0.35925 0.38659 0.0
C732 C 0.06042 0.3573 0.37275 0.0
C733 C 0.06782 0.35199 0.40598 0.0
H734 H 0.02835 0.335 0.4007 0.0
H735 H 0.06363 0.36204 0.35738 0.0
C736 C 0.99379 0.31816 0.30649 0.0
N737 N 0.9746 0.29245 0.28252 0.0
C738 C 0.98545 0.3196 0.29011 0.0
C739 C 0.99241 0.30365 0.31065 0.0
C740 C 0.97579 0.30646 0.27819 0.0
C741 C 0.98264 0.29079 0.29836 0.0
C742 C 0.99952 0.3475 0.36887 0.0
C743 C 0.98748 0.34447 0.35504 0.0
C744 C 0.99898 0.35245 0.38888 0.0
C745 C 0.97512 0.34648 0.36149 0.0
C746 C 0.98642 0.35433 0.39474 0.0
N747 N 0.97484 0.35133 0.38104 0.0
C748 C 0.98334 0.30373 0.37771 0.0
C749 C 0.96976 0.30526 0.34859 0.0
C750 C 0.96929 0.29285 0.38698 0.0
N751 N 0.98333 0.30957 0.35879 0.0
C752 C 0.95545 0.29444 0.35727 0.0
C753 C 0.95508 0.28809 0.37674 0.0
H754 H 0.99426 0.30779 0.38579 0.0
H755 H 0.96996 0.31043 0.33386 0.0
C756 C 0.01485 0.36824 0.30156 0.0
N757 N 0.01487 0.36746 0.32246 0.0
C758 C 0.01383 0.38025 0.29186 0.0
C759 C 0.01261 0.39033 0.3254 0.0
C760 C 0.01397 0.37827 0.33447 0.0
C761 C 0.01257 0.39139 0.30384 0.0
H762 H 0.01572 0.35952 0.29246 0.0
H763 H 0.01435 0.37758 0.35106 0.0
O764 O 0.02001 0.32034 0.34844 0.0
O765 O 0.03817 0.35351 0.33038 0.0
O766 O 0.00335 0.33101 0.31813 0.0
O767 O 0.01171 0.34547 0.3631 0.0
H768 H 0.04933 0.33091 0.33691 0.0
H769 H 0.01337 0.30043 0.37929 0.0
H770 H 0.06748 0.32375 0.35342 0.0
H771 H 0.03219 0.2939 0.39515 0.0
H772 H 0.05805 0.40357 0.35252 0.0
H773 H 0.0513 0.36778 0.29524 0.0
H774 H 0.04359 0.37494 0.35866 0.0
H775 H 0.06547 0.39651 0.29016 0.0
H776 H 0.03926 0.2969 0.28664 0.0
H777 H 0.04522 0.33683 0.25192 0.0
H778 H 0.04815 0.33774 0.42608 0.0
H779 H 0.08414 0.36592 0.38186 0.0
H780 H 0.98643 0.33077 0.28667 0.0
H781 H 0.99874 0.30225 0.32324 0.0
H782 H 0.96926 0.3074 0.26547 0.0
H783 H 0.98145 0.27949 0.30142 0.0
H784 H 0.98767 0.34066 0.33948 0.0
H785 H 0.00818 0.35479 0.39978 0.0
H786 H 0.96574 0.34419 0.35095 0.0
H787 H 0.98586 0.35815 0.41018 0.0
H788 H 0.96953 0.28851 0.4022 0.0
H789 H 0.94479 0.29106 0.3488 0.0
H790 H 0.01376 0.38069 0.27519 0.0
H791 H 0.01179 0.39884 0.33507 0.0
Li792 Li 0.67542 0.99462 0.34991 0.0
Li793 Li 0.65769 0.96805 0.36248 0.0
Li794 Li 0.66907 0.97237 0.32755 0.0
Li795 Li 0.6489 0.9788 0.33527 0.0
C796 C 0.69566 0.98275 0.35136 0.0
N797 N 0.727 0.99325 0.34475 0.0
C798 C 0.70344 0.97708 0.36339 0.0
C799 C 0.70381 0.99377 0.33597 0.0
C800 C 0.71929 0.98254 0.3598 0.0
C801 C 0.71965 0.99893 0.33287 0.0
C802 C 0.64744 0.98805 0.38032 0.0
C803 C 0.62364 0.9809 0.39891 0.0
N804 N 0.63215 0.99105 0.41419 0.0
C805 C 0.65594 0.99853 0.3961 0.0
C806 C 0.63115 0.97926 0.38163 0.0
C807 C 0.648 -0.00017 0.41314 0.0
C808 C 0.694 0.0277 0.34801 0.0
N809 N 0.69088 0.01473 0.35888 0.0
C810 C 0.70933 0.03024 0.38477 0.0
C811 C 0.69832 0.01569 0.37686 0.0
C812 C 0.71281 0.04393 0.37399 0.0
C813 C 0.70503 0.04251 0.35529 0.0
H814 H 0.68784 0.02654 0.33378 0.0
H815 H 0.69547 0.00514 0.38523 0.0
C816 C 0.65016 0.94001 0.38135 0.0
N817 N 0.65207 0.95434 0.38546 0.0
C818 C 0.64701 0.92935 0.39725 0.0
C819 C 0.64762 0.94832 0.42135 0.0
C820 C 0.65089 0.95866 0.40498 0.0
C821 C 0.6458 0.93348 0.41764 0.0
H822 H 0.65142 0.93699 0.36571 0.0
H823 H 0.65277 0.97019 0.40801 0.0
C824 C 0.66614 0.9926 0.29972 0.0
N825 N 0.65986 0.99371 0.25847 0.0
C826 C 0.6568 0.97879 0.28878 0.0
C827 C 0.6723 0.00698 0.28965 0.0
C828 C 0.65375 0.97959 0.26795 0.0
C829 C 0.66899 0.0073 0.26879 0.0
C830 C 0.63256 0.94567 0.33447 0.0
C831 C 0.62813 0.93647 0.31665 0.0
C832 C 0.62182 0.94193 0.35051 0.0
C833 C 0.6129 0.92386 0.315 0.0
C834 C 0.60669 0.92922 0.34828 0.0
N835 N 0.60257 0.92053 0.33071 0.0
C836 C 0.67074 0.94764 0.31049 0.0
C837 C 0.68565 0.97107 0.29163 0.0
C838 C 0.67404 0.93924 0.29604 0.0
N839 N 0.6763 0.96317 0.30786 0.0
C840 C 0.68922 0.9631 0.27671 0.0
C841 C 0.68313 0.9469 0.27863 0.0
H842 H 0.66343 0.94171 0.32365 0.0
H843 H 0.68996 0.98346 0.28995 0.0
C844 C 0.6289 0.99119 0.33258 0.0
N845 N 0.63154 0.97997 0.32471 0.0
C846 C 0.61668 0.99298 0.32506 0.0
C847 C 0.61039 0.97194 0.301 0.0
C848 C 0.62253 0.97035 0.30927 0.0
C849 C 0.60738 0.98337 0.30893 0.0
H850 H 0.63642 0.99889 0.34457 0.0
H851 H 0.62491 0.96162 0.30308 0.0
O852 O 0.68015 0.97748 0.35473 0.0
O853 O 0.65506 0.9867 0.3635 0.0
O854 O 0.66925 0.99213 0.32016 0.0
O855 O 0.64745 0.95804 0.33632 0.0
H856 H 0.69728 0.96855 0.37536 0.0
H857 H 0.69801 0.99831 0.32652 0.0
H858 H 0.72547 0.97825 0.369 0.0
H859 H 0.7261 0.00745 0.32101 0.0
H860 H 0.61103 0.97415 0.40013 0.0
H861 H 0.66854 0.00553 0.39528 0.0
H862 H 0.62433 0.9714 0.36935 0.0
H863 H 0.65445 0.00783 0.42552 0.0
H864 H 0.71479 0.03073 0.39942 0.0
H865 H 0.70746 0.05271 0.34633 0.0
H866 H 0.64603 0.9182 0.39364 0.0
H867 H 0.64668 0.95198 0.43677 0.0
H868 H 0.65196 0.96757 0.29628 0.0
H869 H 0.67957 0.01778 0.29786 0.0
H870 H 0.64653 0.96899 0.25933 0.0
H871 H 0.67368 0.01835 0.26082 0.0
H872 H 0.63636 0.93909 0.30417 0.0
H873 H 0.62515 0.94864 0.36461 0.0
H874 H 0.60928 0.91671 0.30124 0.0
H875 H 0.59825 0.92621 0.36056 0.0
H876 H 0.66938 0.92684 0.2984 0.0
H877 H 0.69622 0.96945 0.2635 0.0
H878 H 0.61478 0.00205 0.33135 0.0
H879 H 0.60342 0.96433 0.28854 0.0
Li880 Li 0.03337 0.69512 0.3638 0.0
Li881 Li 0.00652 0.68784 0.35295 0.0
Li882 Li 0.0196 0.67356 0.33968 0.0
Li883 Li 0.02835 0.69993 0.32965 0.0
C884 C 0.00846 0.67338 0.38872 0.0
N885 N 0.99803 0.67044 0.42889 0.0
C886 C 0.01032 0.68648 0.39949 0.0
C887 C 0.00131 0.65881 0.3984 0.0
C888 C 0.00496 0.68475 0.41977 0.0
C889 C 0.99611 0.65756 0.41872 0.0
C890 C 0.02594 0.72217 0.34758 0.0
C891 C 0.01489 0.73465 0.32727 0.0
N892 N 0.02796 0.74873 0.33059 0.0
C893 C 0.03923 0.73677 0.35087 0.0
C894 C 0.01364 0.72109 0.33574 0.0
C895 C 0.04004 0.75005 0.34213 0.0
C896 C 0.06063 0.71832 0.38111 0.0
N897 N 0.04861 0.70374 0.38518 0.0
C898 C 0.05901 0.70426 0.41862 0.0
C899 C 0.04782 0.69642 0.40326 0.0
C900 C 0.07108 0.71969 0.41521 0.0
C901 C 0.07199 0.72659 0.39599 0.0
H902 H 0.06127 0.72358 0.3663 0.0
H903 H 0.0384 0.68463 0.40595 0.0
C904 C 0.97367 0.67214 0.35692 0.0
N905 N 0.98713 0.68546 0.36176 0.0
C906 C 0.95932 0.66982 0.36409 0.0
C907 C 0.97303 0.695 0.38098 0.0
C908 C 0.98707 0.69684 0.37347 0.0
C909 C 0.95888 0.68132 0.37639 0.0
H910 H 0.97412 0.66327 0.34763 0.0
H911 H 0.99799 0.70724 0.37726 0.0
C912 C 0.05125 0.68549 0.34281 0.0
N913 N 0.07115 0.67435 0.35222 0.0
C914 C 0.06516 0.69074 0.33182 0.0
C915 C 0.04745 0.67454 0.35859 0.0
C916 C 0.07507 0.68498 0.3368 0.0
C917 C 0.05766 0.66907 0.36311 0.0
C918 C 0.00278 0.6812 0.30493 0.0
C919 C 0.01046 0.6787 0.28856 0.0
C920 C 0.99019 0.68352 0.30098 0.0
C921 C 0.0055 0.67869 0.26841 0.0
C922 C 0.98558 0.68341 0.28061 0.0
N923 N 0.99327 0.68103 0.26489 0.0
C924 C 0.00521 0.64049 0.33977 0.0
C925 C 0.02412 0.65351 0.31357 0.0
C926 C 0.00194 0.62594 0.33205 0.0
N927 N 0.01605 0.65385 0.33036 0.0
C928 C 0.02103 0.63925 0.30514 0.0
C929 C 0.00973 0.62525 0.31431 0.0
H930 H 0.99893 0.64114 0.35303 0.0
H931 H 0.03281 0.66433 0.30656 0.0
C932 C 0.05431 0.72281 0.31016 0.0
N933 N 0.03852 0.71487 0.30808 0.0
C934 C 0.06374 0.73365 0.29537 0.0
C935 C 0.04049 0.72833 0.27663 0.0
C936 C 0.03147 0.71774 0.29204 0.0
C937 C 0.05691 0.73627 0.27799 0.0
H938 H 0.05961 0.72065 0.32337 0.0
H939 H 0.01889 0.71174 0.29101 0.0
O940 O 0.01347 0.67471 0.36876 0.0
O941 O 0.02506 0.70892 0.35547 0.0
O942 O 0.04147 0.69106 0.33797 0.0
O943 O 0.00738 0.68119 0.32478 0.0
H944 H 0.01593 0.69788 0.39235 0.0
H945 H -0.00021 0.64856 0.39031 0.0
H946 H 0.00634 0.69478 0.42828 0.0
H947 H 0.99056 0.64634 0.4264 0.0
H948 H 0.00549 0.73396 0.31798 0.0
H949 H 0.04884 0.73788 0.36006 0.0
H950 H 0.00333 0.70989 0.33288 0.0
H951 H 0.05028 0.76142 0.3445 0.0
H952 H 0.05796 0.69851 0.4332 0.0
H953 H 0.08133 0.73831 0.39254 0.0
H954 H 0.9487 0.65917 0.36 0.0
H955 H 0.97329 0.70405 0.39069 0.0
H956 H 0.06826 0.69919 0.31953 0.0
H957 H 0.03674 0.67028 0.36727 0.0
H958 H 0.08588 0.68895 0.32841 0.0
H959 H 0.05487 0.66061 0.37528 0.0
H960 H 0.02031 0.67705 0.29133 0.0
H961 H 0.98406 0.68538 0.31349 0.0
H962 H 0.01141 0.67687 0.25557 0.0
H963 H 0.97589 0.68523 0.27731 0.0
H964 H 0.9931 0.61535 0.33946 0.0
H965 H 0.02739 0.63915 0.29158 0.0
H966 H 0.07629 0.73985 0.29754 0.0
H967 H 0.03466 0.72996 0.26358 0.0
Li968 Li 0.31274 0.34143 0.35665 0.0
Li969 Li 0.32097 0.32232 0.34942 0.0
Li970 Li 0.33315 0.34767 0.33014 0.0
Li971 Li 0.30665 0.32698 0.32285 0.0
C972 C 0.34309 0.35513 0.37447 0.0
N973 N 0.36165 0.37759 0.40306 0.0
C974 C 0.34595 0.35069 0.39368 0.0
C975 C 0.34983 0.37101 0.36975 0.0
C976 C 0.35531 0.36221 0.40795 0.0
C977 C 0.35914 0.38217 0.38441 0.0
C978 C 0.29138 0.30572 0.36302 0.0
C979 C 0.27716 0.27771 0.3672 0.0
N980 N 0.27565 0.27958 0.38769 0.0
C981 C 0.28958 0.30736 0.38409 0.0
C982 C 0.28502 0.29077 0.35447 0.0
C983 C 0.28163 0.29401 0.39631 0.0
C984 C 0.28812 0.34278 0.3741 0.0
N985 N 0.30361 0.34829 0.37714 0.0
C986 C 0.30266 0.35952 0.40942 0.0
C987 C 0.31102 0.35671 0.39426 0.0
C988 C 0.28651 0.3535 0.40701 0.0
C989 C 0.2793 0.34519 0.3889 0.0
H990 H 0.2825 0.33597 0.36045 0.0
H991 H 0.3233 0.361 0.39649 0.0
C992 C 0.33006 0.29923 0.35154 0.0
N993 N 0.32498 0.30753 0.36255 0.0
C994 C 0.33357 0.28885 0.36151 0.0
C995 C 0.32657 0.29581 0.39392 0.0
C996 C 0.32324 0.30605 0.38334 0.0
C997 C 0.3319 0.2871 0.38302 0.0
H998 H 0.33164 0.30084 0.33507 0.0
H999 H 0.31937 0.31293 0.39175 0.0
C1000 C 0.31677 0.36401 0.32324 0.0
N1001 N 0.32197 0.39343 0.31334 0.0
C1002 C 0.31403 0.36725 0.30321 0.0
C1003 C 0.32181 0.37565 0.33832 0.0
C1004 C 0.31684 0.38222 0.29848 0.0
C1005 C 0.32447 0.39047 0.333 0.0
C1006 C 0.32372 0.318 0.30183 0.0
C1007 C 0.33181 0.32551 0.28388 0.0
C1008 C 0.31287 0.302 0.30135 0.0
C1009 C 0.32869 0.31693 0.26563 0.0
C1010 C 0.31007 0.29382 0.2828 0.0
N1011 N 0.31796 0.3014 0.26547 0.0
C1012 C 0.36588 0.36779 0.32573 0.0
C1013 C 0.35049 0.36837 0.29816 0.0
C1014 C 0.37959 0.37837 0.3155 0.0
N1015 N 0.35171 0.36316 0.31705 0.0
C1016 C 0.36388 0.37878 0.28726 0.0
C1017 C 0.37866 0.38387 0.29593 0.0
H1018 H 0.36655 0.36305 0.34044 0.0
H1019 H 0.33912 0.36403 0.29125 0.0
C1020 C 0.27652 0.30797 0.30543 0.0
N1021 N 0.29165 0.31874 0.30126 0.0
C1022 C 0.26511 0.30355 0.29016 0.0
C1023 C 0.28516 0.32102 0.26647 0.0
C1024 C 0.29616 0.3251 0.28218 0.0
C1025 C 0.26933 0.31039 0.2705 0.0
H1026 H 0.27321 0.30327 0.32082 0.0
H1027 H 0.30822 0.33387 0.27941 0.0
O1028 O 0.33396 0.34396 0.36032 0.0
O1029 O 0.29921 0.31867 0.35082 0.0
O1030 O 0.31394 0.34935 0.32817 0.0
O1031 O 0.32643 0.32625 0.31978 0.0
H1032 H 0.34099 0.33849 0.39759 0.0
H1033 H 0.34802 0.3747 0.35487 0.0
H1034 H 0.35756 0.35893 0.4229 0.0
H1035 H 0.3644 0.39449 0.38094 0.0
H1036 H 0.27224 0.26607 0.36079 0.0
H1037 H 0.29447 0.31882 0.39104 0.0
H1038 H 0.2861 0.28926 0.33817 0.0
H1039 H 0.28026 0.29512 0.41266 0.0
H1040 H 0.30875 0.36616 0.423 0.0
H1041 H 0.26685 0.34006 0.38647 0.0
H1042 H 0.33786 0.28253 0.35254 0.0
H1043 H 0.32493 0.29471 0.41046 0.0
H1044 H 0.30987 0.35833 0.2914 0.0
H1045 H 0.32355 0.37328 0.35403 0.0
H1046 H 0.3149 0.38491 0.28299 0.0
H1047 H 0.32845 0.3996 0.34452 0.0
H1048 H 0.34036 0.33785 0.28399 0.0
H1049 H 0.30665 0.29598 0.31514 0.0
H1050 H 0.3348 0.32262 0.25159 0.0
H1051 H 0.30163 0.28145 0.2822 0.0
H1052 H 0.3908 0.38184 0.32252 0.0
H1053 H 0.3627 0.38275 0.27219 0.0
H1054 H 0.25305 0.29522 0.29388 0.0
H1055 H 0.28892 0.32679 0.25168 0.0
Li1056 Li 0.32458 0.00748 0.67581 0.0
Li1057 Li 0.35106 0.01916 0.68754 0.0
Li1058 Li 0.33419 0.03014 0.69706 0.0
Li1059 Li 0.34343 0.03316 0.66157 0.0
C1060 C 0.32323 0.99591 0.71457 0.0
N1061 N 0.30548 0.96774 0.7346 0.0
C1062 C 0.32953 0.98631 0.71871 0.0
C1063 C 0.30796 0.99125 0.72076 0.0
C1064 C 0.32035 0.9721 0.72883 0.0
C1065 C 0.29916 0.97694 0.73081 0.0
C1066 C 0.33881 0.00024 0.64687 0.0
C1067 C 0.32855 0.98655 0.61477 0.0
N1068 N 0.32739 0.97344 0.62324 0.0
C1069 C 0.3376 0.98666 0.65521 0.0
C1070 C 0.33435 0.00024 0.62644 0.0
C1071 C 0.33179 0.97322 0.64302 0.0
C1072 C 0.29948 0.99024 0.64988 0.0
N1073 N 0.30678 0.9884 0.66648 0.0
C1074 C 0.29163 0.96058 0.66315 0.0
C1075 C 0.30296 0.97391 0.67336 0.0
C1076 C 0.28446 0.9622 0.64544 0.0
C1077 C 0.2883 0.97725 0.639 0.0
H1078 H 0.30296 0.00187 0.64444 0.0
H1079 H 0.30931 0.97259 0.68591 0.0
C1080 C 0.37249 0.02076 0.7167 0.0
N1081 N 0.36734 0.01601 0.69717 0.0
C1082 C 0.38383 0.01801 0.72525 0.0
C1083 C 0.38444 0.00565 0.69332 0.0
C1084 C 0.37325 0.00884 0.68529 0.0
C1085 C 0.38976 0.01016 0.7136 0.0
H1086 H 0.36756 0.02645 0.72574 0.0
H1087 H 0.36916 0.00547 0.66967 0.0
C1088 C 0.31213 0.03101 0.67557 0.0
N1089 N 0.29238 0.0423 0.68514 0.0
C1090 C 0.3161 0.0462 0.66996 0.0
C1091 C 0.29806 0.0215 0.68584 0.0
C1092 C 0.30598 0.05171 0.67499 0.0
C1093 C 0.28825 0.02744 0.6906 0.0
C1094 C 0.37173 0.05135 0.68339 0.0
C1095 C 0.3801 0.06533 0.69435 0.0
C1096 C 0.37941 0.04718 0.66878 0.0
C1097 C 0.39604 0.075 0.69041 0.0
C1098 C 0.39537 0.05715 0.66531 0.0
N1099 N 0.40328 0.07074 0.67609 0.0
C1100 C 0.32242 0.03505 0.73528 0.0
C1101 C 0.3368 0.0571 0.71377 0.0
C1102 C 0.32071 0.04436 0.75014 0.0
N1103 N 0.33041 0.04158 0.71758 0.0
C1104 C 0.33531 0.06679 0.72809 0.0
C1105 C 0.32733 0.06051 0.7467 0.0
H1106 H 0.31764 0.02271 0.73804 0.0
H1107 H 0.34315 0.06195 0.69958 0.0
C1108 C 0.33607 0.0408 0.62416 0.0
N1109 N 0.34783 0.04633 0.63821 0.0
C1110 C 0.33638 0.05031 0.60812 0.0
C1111 C 0.36119 0.07094 0.62083 0.0
C1112 C 0.36035 0.06105 0.63676 0.0
C1113 C 0.3489 0.06571 0.60658 0.0
H1114 H 0.32604 0.02922 0.62603 0.0
H1115 H 0.36931 0.06547 0.64843 0.0
O1116 O 0.33211 0.00996 0.70497 0.0
O1117 O 0.34406 0.01339 0.65874 0.0
O1118 O 0.32201 0.0255 0.67114 0.0
O1119 O 0.35618 0.04169 0.68734 0.0
H1120 H 0.34134 0.98976 0.71409 0.0
H1121 H 0.30293 0.99855 0.71771 0.0
H1122 H 0.32505 0.96453 0.73207 0.0
H1123 H 0.28729 0.97314 0.73559 0.0
H1124 H 0.32495 0.98635 0.59899 0.0
H1125 H 0.34077 0.98638 0.67109 0.0
H1126 H 0.33527 0.01066 0.61971 0.0
H1127 H 0.33065 0.96259 0.64935 0.0
H1128 H 0.28914 0.94915 0.66835 0.0
H1129 H 0.28298 0.97894 0.62541 0.0
H1130 H 0.38759 0.02157 0.74098 0.0
H1131 H 0.3889 0.99974 0.68381 0.0
H1132 H 0.32697 0.05371 0.66201 0.0
H1133 H 0.29478 0.00967 0.69011 0.0
H1134 H 0.30894 0.06348 0.67087 0.0
H1135 H 0.27735 0.02024 0.69864 0.0
H1136 H 0.37432 0.06867 0.70578 0.0
H1137 H 0.37314 0.0364 0.66015 0.0
H1138 H 0.40267 0.08587 0.69875 0.0
H1139 H 0.40146 0.05409 0.65403 0.0
H1140 H 0.31463 0.03905 0.76436 0.0
H1141 H 0.34038 0.0791 0.7246 0.0
H1142 H 0.32669 0.04582 0.5974 0.0
H1143 H 0.37092 0.08283 0.62036 0.0
Li1144 Li 0.99581 0.31248 0.67048 0.0
Li1145 Li 0.98359 0.32481 0.68707 0.0
Li1146 Li 0.97539 0.29773 0.6961 0.0
Li1147 Li 0.96913 0.30423 0.66072 0.0
C1148 C 0.00824 0.32376 0.71282 0.0
N1149 N 0.03347 0.3385 0.7392 0.0
C1150 C 0.01812 0.33996 0.71186 0.0
C1151 C 0.0111 0.31508 0.72735 0.0
C1152 C 0.03084 0.34719 0.72529 0.0
C1153 C 0.02394 0.32274 0.7405 0.0
C1154 C 0.99921 0.33343 0.64317 0.0
C1155 C 0.00977 0.3363 0.60889 0.0
N1156 N 0.0232 0.34912 0.61519 0.0
C1157 C 0.01306 0.34674 0.64925 0.0
C1158 C 0.99748 0.32824 0.62278 0.0
C1159 C 0.02507 0.35447 0.6349 0.0
C1160 C 0.01291 0.30715 0.64068 0.0
N1161 N 0.01469 0.31527 0.65836 0.0
C1162 C 0.0425 0.32842 0.65494 0.0
C1163 C 0.02911 0.32564 0.66574 0.0
C1164 C 0.041 0.32043 0.63639 0.0
C1165 C 0.02594 0.30949 0.62946 0.0
H1166 H 0.00131 0.29916 0.63494 0.0
H1167 H 0.03027 0.33219 0.67957 0.0
C1168 C 0.98575 0.3436 0.72044 0.0
N1169 N 0.98682 0.34354 0.69958 0.0
C1170 C 0.98903 0.35727 0.73082 0.0
C1171 C 0.99433 0.37053 0.698 0.0
C1172 C 0.99084 0.35655 0.68823 0.0
C1173 C 0.9936 0.37105 0.71962 0.0
H1174 H 0.98254 0.33304 0.72901 0.0
H1175 H 0.99161 0.35612 0.67164 0.0
C1176 C 0.98273 0.27988 0.66862 0.0
N1177 N 0.99228 0.258 0.66956 0.0
C1178 C 0.97619 0.26719 0.65504 0.0
C1179 C 0.99416 0.28148 0.68264 0.0
C1180 C 0.98116 0.25624 0.65577 0.0
C1181 C 0.99882 0.27028 0.68288 0.0
C1182 C 0.95397 0.31365 0.69566 0.0
C1183 C 0.94798 0.311 0.71569 0.0
C1184 C 0.95263 0.32438 0.68308 0.0
C1185 C 0.94083 0.31923 0.72287 0.0
C1186 C 0.94543 0.33239 0.69084 0.0
N1187 N 0.93973 0.32967 0.71041 0.0
C1188 C 0.96766 0.28895 0.73706 0.0
C1189 C 0.96198 0.26761 0.71504 0.0
C1190 C 0.96088 0.27888 0.75377 0.0
N1191 N 0.96783 0.28316 0.71813 0.0
C1192 C 0.95544 0.25715 0.73142 0.0
C1193 C 0.95445 0.26267 0.75107 0.0
H1194 H 0.97235 0.30139 0.73901 0.0
H1195 H 0.96205 0.26323 0.69981 0.0
C1196 C 0.95801 0.28892 0.62344 0.0
N1197 N 0.9544 0.2958 0.63896 0.0
C1198 C 0.94737 0.28118 0.60759 0.0
C1199 C 0.92952 0.28797 0.62378 0.0
C1200 C 0.94052 0.29554 0.63941 0.0
C1201 C 0.93281 0.28045 0.60777 0.0
H1202 H 0.96909 0.28919 0.62361 0.0
H1203 H 0.9378 0.30083 0.65214 0.0
O1204 O 0.99551 0.31643 0.70014 0.0
O1205 O 0.9875 0.32541 0.65717 0.0
O1206 O 0.97809 0.29079 0.66796 0.0
O1207 O 0.9614 0.30606 0.68852 0.0
H1208 H 0.01606 0.34689 0.70082 0.0
H1209 H 0.00344 0.30256 0.72851 0.0
H1210 H 0.03861 0.3597 0.72465 0.0
H1211 H 0.02632 0.31616 0.75179 0.0
H1212 H 0.00864 0.33233 0.5931 0.0
H1213 H 0.01459 0.35094 0.66494 0.0
H1214 H 0.98683 0.31802 0.61778 0.0
H1215 H 0.0359 0.3647 0.63945 0.0
H1216 H 0.05386 0.33712 0.6607 0.0
H1217 H 0.02422 0.3029 0.6154 0.0
H1218 H 0.98805 0.35705 0.74746 0.0
H1219 H 0.99794 0.38089 0.68875 0.0
H1220 H 0.96735 0.26581 0.64408 0.0
H1221 H 0.99941 0.29128 0.69314 0.0
H1222 H 0.97619 0.24635 0.64537 0.0
H1223 H 0.00766 0.27137 0.69364 0.0
H1224 H 0.94886 0.3027 0.72561 0.0
H1225 H 0.95738 0.3267 0.6676 0.0
H1226 H 0.93619 0.31732 0.73837 0.0
H1227 H 0.94442 0.34082 0.68133 0.0
H1228 H 0.96022 0.28377 0.76842 0.0
H1229 H 0.95101 0.24485 0.72855 0.0
H1230 H 0.95043 0.27567 0.59544 0.0
H1231 H 0.91836 0.2875 0.62462 0.0
Li1232 Li 0.68151 0.68085 0.66978 0.0
Li1233 Li 0.66913 0.65492 0.68329 0.0
Li1234 Li 0.69541 0.67323 0.69354 0.0
Li1235 Li 0.68952 0.66198 0.65808 0.0
C1236 C 0.66406 0.67612 0.70526 0.0
N1237 N 0.63874 0.67881 0.71761 0.0
C1238 C 0.65148 0.67186 0.69187 0.0
C1239 C 0.66373 0.6817 0.72494 0.0
C1240 C 0.63881 0.67332 0.69839 0.0
C1241 C 0.65083 0.68299 0.73089 0.0
C1242 C 0.65834 0.65088 0.641 0.0
C1243 C 0.64707 0.62705 0.62112 0.0
N1244 N 0.63587 0.63003 0.61412 0.0
C1245 C 0.64679 0.65378 0.63349 0.0
C1246 C 0.65856 0.63747 0.63467 0.0
C1247 C 0.6355 0.64307 0.61997 0.0
C1248 C 0.67717 0.69795 0.63929 0.0
N1249 N 0.67859 0.69726 0.66002 0.0
C1250 C 0.67386 0.71846 0.66514 0.0
C1251 C 0.67728 0.70738 0.67297 0.0
C1252 C 0.67204 0.71924 0.6438 0.0
C1253 C 0.67394 0.70896 0.63079 0.0
H1254 H 0.67827 0.68972 0.62942 0.0
H1255 H 0.67865 0.7067 0.68939 0.0
C1256 C 0.64958 0.63804 0.71556 0.0
N1257 N 0.64985 0.63863 0.69463 0.0
C1258 C 0.63602 0.62751 0.726 0.0
C1259 C 0.62306 0.61836 0.69319 0.0
C1260 C 0.63696 0.62898 0.68336 0.0
C1261 C 0.62242 0.6176 0.71483 0.0
H1262 H 0.6599 0.64599 0.7242 0.0
H1263 H 0.63723 0.62968 0.66681 0.0
C1264 C 0.71389 0.69973 0.66944 0.0
N1265 N 0.73584 0.73092 0.6749 0.0
C1266 C 0.72664 0.70711 0.65605 0.0
C1267 C 0.71229 0.7082 0.6856 0.0
C1268 C 0.73762 0.7229 0.65907 0.0
C1269 C 0.72352 0.72396 0.6881 0.0
C1270 C 0.68121 0.6377 0.69556 0.0
C1271 C 0.68355 0.63809 0.71684 0.0
C1272 C 0.67249 0.62333 0.68556 0.0
C1273 C 0.67693 0.62406 0.72782 0.0
C1274 C 0.66605 0.60956 0.69709 0.0
N1275 N 0.66838 0.61021 0.7178 0.0
C1276 C 0.71023 0.68732 0.73166 0.0
C1277 C 0.72194 0.67584 0.71161 0.0
C1278 C 0.72134 0.6911 0.74721 0.0
N1279 N 0.71071 0.67974 0.71442 0.0
C1280 C 0.73318 0.67928 0.72676 0.0
C1281 C 0.73287 0.68685 0.74495 0.0
H1282 H 0.70111 0.69022 0.73345 0.0
H1283 H 0.72196 0.66981 0.69769 0.0
C1284 C 0.70004 0.66347 0.61739 0.0
N1285 N 0.69809 0.65634 0.63591 0.0
C1286 C 0.70814 0.66096 0.60157 0.0
C1287 C 0.71157 0.64344 0.62407 0.0
C1288 C 0.70341 0.64628 0.63942 0.0
C1289 C 0.71433 0.6511 0.60499 0.0
H1290 H 0.69579 0.67154 0.61519 0.0
H1291 H 0.70175 0.64086 0.65438 0.0
O1292 O 0.67658 0.67467 0.69937 0.0
O1293 O 0.66953 0.66134 0.65411 0.0
O1294 O 0.70305 0.6843 0.66662 0.0
O1295 O 0.68737 0.65133 0.6846 0.0
H1296 H 0.65147 0.66746 0.67664 0.0
H1297 H 0.67333 0.68498 0.73554 0.0
H1298 H 0.62901 0.67007 0.68818 0.0
H1299 H 0.65043 0.6873 0.74609 0.0
H1300 H 0.64706 0.6166 0.61615 0.0
H1301 H 0.64655 0.66419 0.63809 0.0
H1302 H 0.66745 0.6351 0.64019 0.0
H1303 H 0.62646 0.64513 0.6141 0.0
H1304 H 0.67264 0.72633 0.67562 0.0
H1305 H 0.67251 0.70914 0.61426 0.0
H1306 H 0.6362 0.62722 0.74267 0.0
H1307 H 0.61282 0.61114 0.68392 0.0
H1308 H 0.72801 0.7007 0.64346 0.0
H1309 H 0.70249 0.70269 0.69608 0.0
H1310 H 0.74754 0.72877 0.64883 0.0
H1311 H 0.72242 0.73066 0.70053 0.0
H1312 H 0.69021 0.6491 0.72486 0.0
H1313 H 0.67066 0.62279 0.6691 0.0
H1314 H 0.67855 0.62419 0.74431 0.0
H1315 H 0.65921 0.59835 0.68957 0.0
H1316 H 0.72067 0.69686 0.76106 0.0
H1317 H 0.742 0.67601 0.7243 0.0
H1318 H 0.71015 0.66723 0.58719 0.0
H1319 H 0.71599 0.63561 0.62725 0.0
Li1320 Li 0.34374 0.32495 0.68536 0.0
Li1321 Li 0.32322 0.29888 0.69598 0.0
Li1322 Li 0.33371 0.30237 0.66252 0.0
Li1323 Li 0.31583 0.31208 0.67044 0.0
C1324 C 0.3562 0.30195 0.68716 0.0
N1325 N 0.37886 0.29352 0.68393 0.0
C1326 C 0.35211 0.28626 0.68888 0.0
C1327 C 0.37184 0.31338 0.6841 0.0
C1328 C 0.36373 0.28223 0.6871 0.0
C1329 C 0.38311 0.30888 0.68244 0.0
C1330 C 0.31521 0.31589 0.71725 0.0
C1331 C 0.29086 0.30399 0.73599 0.0
N1332 N 0.29896 0.30824 0.75402 0.0
C1333 C 0.3233 0.3202 0.73594 0.0
C1334 C 0.29887 0.30776 0.71722 0.0
C1335 C 0.31486 0.3162 0.75438 0.0
C1336 C 0.36559 0.35751 0.68504 0.0
N1337 N 0.36066 0.34381 0.69516 0.0
C1338 C 0.37871 0.3569 0.7225 0.0
C1339 C 0.36701 0.34322 0.71344 0.0
C1340 C 0.38394 0.37133 0.71264 0.0
C1341 C 0.37732 0.37151 0.69353 0.0
H1342 H 0.36022 0.35759 0.67056 0.0
H1343 H 0.36271 0.33212 0.72116 0.0
C1344 C 0.30224 0.27469 0.72477 0.0
N1345 N 0.31716 0.28577 0.71996 0.0
C1346 C 0.29926 0.26509 0.74197 0.0
C1347 C 0.32689 0.27917 0.74968 0.0
C1348 C 0.32934 0.28832 0.73224 0.0
C1349 C 0.31173 0.2672 0.75454 0.0
H1350 H 0.29264 0.2732 0.71528 0.0
H1351 H 0.34105 0.2974 0.72837 0.0
C1352 C 0.34404 0.32587 0.63765 0.0
N1353 N 0.35857 0.32917 0.60013 0.0
C1354 C 0.33519 0.32097 0.61958 0.0
C1355 C 0.36026 0.33252 0.63668 0.0
C1356 C 0.34276 0.32271 0.60074 0.0
C1357 C 0.36739 0.33408 0.61754 0.0
C1358 C 0.30004 0.27546 0.67296 0.0
C1359 C 0.30386 0.26366 0.67426 0.0
C1360 C 0.28443 0.27167 0.67442 0.0
C1361 C 0.29197 0.24824 0.67737 0.0
C1362 C 0.27287 0.25609 0.6775 0.0
N1363 N 0.27685 0.2448 0.67893 0.0
C1364 C 0.35254 0.29413 0.63624 0.0
C1365 C 0.32548 0.28228 0.62911 0.0
C1366 C 0.35428 0.28514 0.62092 0.0
N1367 N 0.33818 0.29219 0.64047 0.0
C1368 C 0.32669 0.27318 0.61361 0.0
C1369 C 0.34116 0.27422 0.60968 0.0
H1370 H 0.36262 0.30247 0.64486 0.0
H1371 H 0.31428 0.28131 0.63224 0.0
C1372 C 0.29881 0.32792 0.66713 0.0
N1373 N 0.30057 0.31613 0.65935 0.0
C1374 C 0.28852 0.33184 0.65781 0.0
C1375 C 0.28194 0.31125 0.63286 0.0
C1376 C 0.29234 0.30773 0.64268 0.0
C1377 C 0.28004 0.32357 0.64027 0.0
H1378 H 0.30562 0.33445 0.68036 0.0
H1379 H 0.29415 0.29852 0.63673 0.0
O1380 O 0.34503 0.30615 0.68905 0.0
O1381 O 0.32321 0.31921 0.69905 0.0
O1382 O 0.33681 0.3238 0.65629 0.0
O1383 O 0.31148 0.29061 0.6698 0.0
H1384 H 0.3401 0.27732 0.69161 0.0
H1385 H 0.37521 0.32559 0.68284 0.0
H1386 H 0.36073 0.27013 0.68829 0.0
H1387 H 0.39525 0.31758 0.67993 0.0
H1388 H 0.27822 0.29763 0.73621 0.0
H1389 H 0.33594 0.32642 0.7362 0.0
H1390 H 0.29245 0.30422 0.70285 0.0
H1391 H 0.32095 0.31938 0.76898 0.0
H1392 H 0.38329 0.35622 0.73736 0.0
H1393 H 0.38112 0.38234 0.68529 0.0
H1394 H 0.28737 0.25611 0.74541 0.0
H1395 H 0.33684 0.28113 0.7589 0.0
H1396 H 0.32261 0.31572 0.62012 0.0
H1397 H 0.36724 0.33627 0.65057 0.0
H1398 H 0.33607 0.31889 0.58662 0.0
H1399 H 0.37994 0.33913 0.61655 0.0
H1400 H 0.31588 0.2664 0.67287 0.0
H1401 H 0.28129 0.28067 0.67335 0.0
H1402 H 0.29476 0.23899 0.67851 0.0
H1403 H 0.26074 0.25298 0.67878 0.0
H1404 H 0.36569 0.2864 0.61838 0.0
H1405 H 0.31635 0.2653 0.60492 0.0
H1406 H 0.28728 0.3413 0.66418 0.0
H1407 H 0.27583 0.30471 0.61923 0.0
Li1408 Li 0.67588 0.0194 0.68736 0.0
Li1409 Li 0.70255 0.02565 0.69708 0.0
Li1410 Li 0.69681 0.0315 0.66202 0.0
Li1411 Li 0.68753 0.00465 0.67201 0.0
C1412 C 0.69232 0.05232 0.68632 0.0
N1413 N 0.68652 0.07666 0.68101 0.0
C1414 C 0.69994 0.06568 0.69864 0.0
C1415 C 0.68178 0.05134 0.67127 0.0
C1416 C 0.69685 0.07787 0.69573 0.0
C1417 C 0.67899 0.06377 0.66882 0.0
C1418 C 0.68418 0.99488 0.71279 0.0
C1419 C 0.69966 0.98342 0.723 0.0
N1420 N 0.68752 0.97278 0.73462 0.0
C1421 C 0.67184 0.98383 0.72479 0.0
C1422 C 0.6982 0.99469 0.71185 0.0
C1423 C 0.67377 0.97275 0.73574 0.0
C1424 C 0.64329 0.00773 0.69008 0.0
N1425 N 0.65747 0.01816 0.69807 0.0
C1426 C 0.64551 0.02656 0.72313 0.0
C1427 C 0.65882 0.02748 0.71427 0.0
C1428 C 0.63066 0.01583 0.71533 0.0
C1429 C 0.62965 0.00638 0.69851 0.0
H1430 H 0.64259 0.00036 0.6773 0.0
H1431 H 0.67025 0.03551 0.72048 0.0
C1432 C 0.73236 0.04537 0.71188 0.0
N1433 N 0.71799 0.03391 0.71796 0.0
C1434 C 0.74422 0.05319 0.72632 0.0
C1435 C 0.72636 0.03707 0.75304 0.0
C1436 C 0.71477 0.02959 0.73805 0.0
C1437 C 0.74129 0.04919 0.74728 0.0
H1438 H 0.73445 0.0487 0.69582 0.0
H1439 H 0.70316 0.02058 0.74249 0.0
C1440 C 0.66982 0.01098 0.63867 0.0
N1441 N 0.65838 0.00659 0.59891 0.0
C1442 C 0.67555 0.00512 0.62347 0.0
C1443 C 0.65811 0.01441 0.63369 0.0
C1444 C 0.66966 0.00304 0.60345 0.0
C1445 C 0.65253 0.01217 0.61349 0.0
C1446 C 0.72012 0.02054 0.65889 0.0
C1447 C 0.71925 0.02014 0.63739 0.0
C1448 C 0.73228 0.01971 0.66863 0.0
C1449 C 0.73042 0.01864 0.62598 0.0
C1450 C 0.74321 0.01819 0.65668 0.0
N1451 N 0.74206 0.01768 0.63578 0.0
C1452 C 0.72228 0.05621 0.64436 0.0
C1453 C 0.70002 0.04737 0.62294 0.0
C1454 C 0.73179 0.06679 0.62938 0.0
N1455 N 0.7068 0.04654 0.64076 0.0
C1456 C 0.70914 0.05782 0.60746 0.0
C1457 C 0.72532 0.06746 0.61043 0.0
H1458 H 0.72731 0.05536 0.65875 0.0
H1459 H 0.68767 0.03974 0.62047 0.0
C1460 C 0.66885 0.97495 0.65434 0.0
N1461 N 0.68333 0.98476 0.66206 0.0
C1462 C 0.66564 0.96098 0.64478 0.0
C1463 C 0.69205 0.96708 0.65228 0.0
C1464 C 0.69475 0.98094 0.66164 0.0
C1465 C 0.67743 0.95703 0.64331 0.0
H1466 H 0.65995 0.97824 0.655 0.0
H1467 H 0.70605 0.98874 0.66825 0.0
O1468 O 0.69524 0.04031 0.689 0.0
O1469 O 0.68238 0.00567 0.70182 0.0
O1470 O 0.67537 0.01307 0.65842 0.0
O1471 O 0.70936 0.02208 0.67042 0.0
H1472 H 0.70816 0.06661 0.71034 0.0
H1473 H 0.67583 0.04112 0.66158 0.0
H1474 H 0.70265 0.08828 0.70517 0.0
H1475 H 0.67086 0.06316 0.65723 0.0
H1476 H 0.71045 0.98314 0.7224 0.0
H1477 H 0.66089 0.9838 0.72561 0.0
H1478 H 0.70783 0.00312 0.7026 0.0
H1479 H 0.66432 0.96412 0.7451 0.0
H1480 H 0.64683 0.03389 0.73628 0.0
H1481 H 0.61845 0.99805 0.69192 0.0
H1482 H 0.75541 0.06264 0.72115 0.0
H1483 H 0.72359 0.03349 0.76898 0.0
H1484 H 0.68435 0.00208 0.6271 0.0
H1485 H 0.6534 0.01879 0.64529 0.0
H1486 H 0.67403 0.99854 0.59154 0.0
H1487 H 0.64353 0.01485 0.6094 0.0
H1488 H 0.71019 0.02117 0.62955 0.0
H1489 H 0.73323 0.02016 0.68526 0.0
H1490 H 0.72988 0.01831 0.60933 0.0
H1491 H 0.75262 0.01744 0.66403 0.0
H1492 H 0.74414 0.07423 0.63252 0.0
H1493 H 0.70368 0.05795 0.59307 0.0
H1494 H 0.65423 0.95365 0.63798 0.0
H1495 H 0.70136 0.96434 0.6519 0.0
Li1496 Li 0.97568 0.67164 0.69449 0.0
Li1497 Li 0.98235 0.65201 0.68707 0.0
Li1498 Li 0.99731 0.67709 0.66954 0.0
Li1499 Li 0.9704 0.65836 0.66047 0.0
C1500 C 0.00431 0.66981 0.71361 0.0
N1501 N 0.02033 0.66173 0.74117 0.0
C1502 C 0.001 0.66894 0.73468 0.0
C1503 C 0.01581 0.66664 0.70657 0.0
C1504 C 0.00923 0.66483 0.74836 0.0
C1505 C 0.02375 0.66254 0.72074 0.0
C1506 C 0.95211 0.63673 0.69939 0.0
C1507 C 0.93598 0.6088 0.7033 0.0
N1508 N 0.93383 0.61084 0.72353 0.0
C1509 C 0.94962 0.63856 0.72018 0.0
C1510 C 0.94511 0.62174 0.69083 0.0
C1511 C 0.94038 0.62532 0.73213 0.0
C1512 C 0.95228 0.67559 0.71175 0.0
N1513 N 0.96767 0.68027 0.7138 0.0
C1514 C 0.96942 0.69464 0.74433 0.0
C1515 C 0.97639 0.68982 0.72945 0.0
C1516 C 0.95337 0.68956 0.74299 0.0
C1517 C 0.94484 0.68005 0.72625 0.0
H1518 H 0.94566 0.66793 0.69917 0.0
H1519 H 0.98866 0.69347 0.73058 0.0
C1520 C 0.99029 0.62816 0.68805 0.0
N1521 N 0.98417 0.63537 0.69944 0.0
C1522 C 0.99235 0.61641 0.69673 0.0
C1523 C 0.98183 0.61973 0.72874 0.0
C1524 C 0.98008 0.63147 0.71949 0.0
C1525 C 0.98806 0.61205 0.71733 0.0
H1526 H 0.9938 0.63169 0.67229 0.0
H1527 H 0.97579 0.63771 0.7285 0.0
C1528 C 0.9843 0.69651 0.66691 0.0
N1529 N 0.99395 0.72799 0.66843 0.0
C1530 C 0.97805 0.70282 0.65324 0.0
C1531 C 0.99549 0.7062 0.68133 0.0
C1532 C 0.98307 0.71877 0.65426 0.0
C1533 C 0.00021 0.72208 0.68186 0.0
C1534 C 0.98606 0.64774 0.64006 0.0
C1535 C 0.99474 0.65492 0.62233 0.0
C1536 C 0.97409 0.63213 0.63921 0.0
C1537 C 0.99106 0.64645 0.60391 0.0
C1538 C 0.97076 0.62406 0.62051 0.0
N1539 N 0.97923 0.63134 0.60338 0.0
C1540 C 0.03016 0.69924 0.66823 0.0
C1541 C 0.01547 0.6971 0.63833 0.0
C1542 C 0.04398 0.71019 0.65847 0.0
N1543 N 0.01635 0.69279 0.65791 0.0
C1544 C 0.02896 0.70791 0.62797 0.0
C1545 C 0.04349 0.71446 0.63796 0.0
H1546 H 0.03049 0.6958 0.68393 0.0
H1547 H 0.00426 0.69194 0.63066 0.0
C1548 C 0.94115 0.64122 0.64004 0.0
N1549 N 0.95652 0.65205 0.63774 0.0
C1550 C 0.93073 0.63804 0.62377 0.0
C1551 C 0.95228 0.65685 0.60297 0.0
C1552 C 0.96223 0.65976 0.61967 0.0
C1553 C 0.93621 0.64613 0.60504 0.0
H1554 H 0.93688 0.63551 0.65473 0.0
H1555 H 0.97448 0.6685 0.61844 0.0
O1556 O 0.99618 0.67351 0.69992 0.0
O1557 O 0.96106 0.64957 0.68739 0.0
O1558 O 0.97954 0.68093 0.66598 0.0
O1559 O 0.9893 0.6559 0.65817 0.0
H1560 H 0.99201 0.67117 0.74037 0.0
H1561 H 0.01836 0.66707 0.69027 0.0
H1562 H 0.00674 0.66402 0.7647 0.0
H1563 H 0.03259 0.65994 0.71549 0.0
H1564 H 0.93056 0.59713 0.69689 0.0
H1565 H 0.95499 0.65003 0.72716 0.0
H1566 H 0.94666 0.62009 0.67472 0.0
H1567 H 0.93848 0.62657 0.74828 0.0
H1568 H 0.97648 0.70213 0.7568 0.0
H1569 H 0.93241 0.67561 0.72473 0.0
H1570 H 0.99718 0.61075 0.6874 0.0
H1571 H 0.97869 0.61695 0.74481 0.0
H1572 H 0.96941 0.69546 0.64194 0.0
H1573 H 0.00053 0.70154 0.69197 0.0
H1574 H 0.97833 0.72382 0.64377 0.0
H1575 H 0.00885 0.72972 0.69294 0.0
H1576 H 0.00421 0.66689 0.62274 0.0
H1577 H 0.96744 0.62634 0.65284 0.0
H1578 H 0.99762 0.6519 0.59005 0.0
H1579 H 0.96145 0.61201 0.61962 0.0
H1580 H 0.05495 0.71496 0.66672 0.0
H1581 H 0.02803 0.71111 0.61231 0.0
H1582 H 0.91841 0.62989 0.62621 0.0
H1583 H 0.95707 0.66322 0.58877 0.0
H1584 H 0.14804 0.33086 0.19614 0.0
H1585 H 0.12744 0.32911 0.21862 0.0
H1586 H 0.09249 0.29483 0.17796 0.0
H1587 H 0.11325 0.29629 0.15557 0.0
H1588 H 0.15532 0.3101 0.18874 0.0
H1589 H 0.14059 0.34004 0.14816 0.0
H1590 H 0.12366 0.34694 0.12916 0.0
H1591 H 0.11239 0.30917 0.08638 0.0
H1592 H 0.12896 0.30195 0.10599 0.0
H1593 H 0.17116 0.29726 0.1087 0.0
H1594 H 0.19394 0.30138 0.08872 0.0
H1595 H 0.22335 0.34245 0.12526 0.0
H1596 H 0.20062 0.33797 0.14544 0.0
H1597 H 0.15995 0.31844 0.11319 0.0
H1598 H 0.18113 0.29316 0.15804 0.0
H1599 H 0.19955 0.29109 0.18141 0.0
H1600 H 0.20296 0.32942 0.21756 0.0
H1601 H 0.18477 0.33149 0.19431 0.0
C1602 C 0.13223 0.31366 0.1742 0.0
C1603 C 0.13596 0.32294 0.19201 0.0
C1604 C 0.1242 0.32194 0.20485 0.0
C1605 C 0.10841 0.31172 0.2001 0.0
C1606 C 0.10459 0.30282 0.1819 0.0
C1607 C 0.11643 0.30369 0.16911 0.0
C1608 C 0.145 0.31392 0.16181 0.0
C1609 C 0.15638 0.31207 0.17222 0.0
C1610 C 0.1463 0.3163 0.14023 0.0
C1611 C 0.13585 0.32031 0.1287 0.0
C1612 C 0.13431 0.3331 0.13486 0.0
C1613 C 0.12477 0.33716 0.12381 0.0
C1614 C 0.11668 0.32863 0.10622 0.0
C1615 C 0.1183 0.31586 0.10001 0.0
C1616 C 0.12784 0.31178 0.11111 0.0
C1617 C 0.18426 0.3172 0.12868 0.0
C1618 C 0.18256 0.30708 0.11245 0.0
C1619 C 0.19557 0.30951 0.10097 0.0
C1620 C 0.21051 0.32225 0.10538 0.0
C1621 C 0.21211 0.33236 0.12168 0.0
C1622 C 0.19912 0.32985 0.13321 0.0
C1623 C 0.17041 0.31499 0.14029 0.0
C1624 C 0.15875 0.31632 0.12967 0.0
C1625 C 0.16928 0.31299 0.1619 0.0
C1626 C 0.18151 0.31243 0.17449 0.0
C1627 C 0.18605 0.30126 0.17082 0.0
C1628 C 0.19654 0.30007 0.18418 0.0
C1629 C 0.20248 0.30994 0.20148 0.0
C1630 C 0.19832 0.32143 0.20462 0.0
C1631 C 0.18796 0.32267 0.1913 0.0
H1632 H 0.70872 0.874 0.18504 0.0
H1633 H 0.70582 0.8921 0.20786 0.0
H1634 H 0.66026 0.87715 0.18174 0.0
H1635 H 0.6629 0.85857 0.15983 0.0
H1636 H 0.6916 0.84313 0.18539 0.0
H1637 H 0.70307 0.88262 0.13334 0.0
H1638 H 0.69812 0.90074 0.11357 0.0
H1639 H 0.65372 0.86211 0.09373 0.0
H1640 H 0.65889 0.8441 0.11317 0.0
H1641 H 0.66116 0.80668 0.11368 0.0
H1642 H 0.65769 0.78333 0.09599 0.0
H1643 H 0.70309 0.79312 0.11738 0.0
H1644 H 0.70652 0.81655 0.13506 0.0
H1645 H 0.68126 0.83675 0.11023 0.0
H1646 H 0.66688 0.79797 0.16204 0.0
H1647 H 0.66786 0.77833 0.18372 0.0
H1648 H 0.71321 0.81329 0.20634 0.0
H1649 H 0.71226 0.83291 0.18437 0.0
C1650 C 0.68611 0.86501 0.17055 0.0
C1651 C 0.69816 0.87472 0.18414 0.0
C1652 C 0.69653 0.88516 0.19706 0.0
C1653 C 0.68278 0.88606 0.19669 0.0
C1654 C 0.67092 0.87663 0.18263 0.0
C1655 C 0.67251 0.86613 0.16985 0.0
C1656 C 0.68716 0.85285 0.15832 0.0
C1657 C 0.68975 0.84197 0.16886 0.0
C1658 C 0.68413 0.85097 0.13688 0.0
C1659 C 0.68132 0.86202 0.12478 0.0
C1660 C 0.69227 0.87809 0.12474 0.0
C1661 C 0.68939 0.88842 0.11349 0.0
C1662 C 0.67551 0.88288 0.10207 0.0
C1663 C 0.66463 0.86676 0.10207 0.0
C1664 C 0.66755 0.85644 0.11324 0.0
C1665 C 0.68405 0.81331 0.12582 0.0
C1666 C 0.67045 0.8039 0.11438 0.0
C1667 C 0.66848 0.79057 0.10425 0.0
C1668 C 0.6801 0.78636 0.10533 0.0
C1669 C 0.69384 0.79594 0.11651 0.0
C1670 C 0.69583 0.80934 0.12657 0.0
C1671 C 0.68561 0.827 0.13734 0.0
C1672 C 0.68349 0.83813 0.12668 0.0
C1673 C 0.68872 0.82892 0.15875 0.0
C1674 C 0.6896 0.81687 0.17135 0.0
C1675 C 0.67717 0.80136 0.17136 0.0
C1676 C 0.67775 0.79014 0.18375 0.0
C1677 C 0.69065 0.79426 0.19666 0.0
C1678 C 0.70309 0.8098 0.19664 0.0
C1679 C 0.70256 0.821 0.1841 0.0
H1680 H 0.11784 0.83593 0.17201 0.0
H1681 H 0.0983 0.81691 0.19554 0.0
H1682 H 0.11174 0.78314 0.17751 0.0
H1683 H 0.13207 0.80258 0.1556 0.0
H1684 H 0.14762 0.84908 0.17506 0.0
H1685 H 0.11224 0.81828 0.11974 0.0
H1686 H 0.09494 0.79374 0.10165 0.0
H1687 H 0.13328 0.78484 0.09524 0.0
H1688 H 0.15049 0.80932 0.11329 0.0
H1689 H 0.18976 0.84875 0.11679 0.0
H1690 H 0.2148 0.86656 0.10037 0.0
H1691 H 0.2038 0.90363 0.10304 0.0
H1692 H 0.17872 0.88574 0.11962 0.0
H1693 H 0.15963 0.83911 0.10433 0.0
H1694 H 0.19406 0.86655 0.15956 0.0
H1695 H 0.21204 0.88778 0.18201 0.0
H1696 H 0.17709 0.90116 0.19181 0.0
H1697 H 0.15913 0.87992 0.16899 0.0
C1698 C 0.12636 0.8207 0.16175 0.0
C1699 C 0.11651 0.8244 0.17307 0.0
C1700 C 0.10522 0.81342 0.18641 0.0
C1701 C 0.10345 0.79845 0.1886 0.0
C1702 C 0.11293 0.79462 0.1766 0.0
C1703 C 0.1244 0.80567 0.16364 0.0
C1704 C 0.13961 0.83292 0.14954 0.0
C1705 C 0.14997 0.84708 0.15935 0.0
C1706 C 0.14306 0.83013 0.12932 0.0
C1707 C 0.13262 0.81557 0.11791 0.0
C1708 C 0.1169 0.81104 0.11439 0.0
C1709 C 0.10708 0.7971 0.10398 0.0
C1710 C 0.1128 0.78741 0.09712 0.0
C1711 C 0.12856 0.79204 0.10053 0.0
C1712 C 0.13841 0.80605 0.1107 0.0
C1713 C 0.18244 0.86596 0.11945 0.0
C1714 C 0.19271 0.86069 0.11375 0.0
C1715 C 0.20703 0.87088 0.10451 0.0
C1716 C 0.21121 0.88645 0.10051 0.0
C1717 C 0.20079 0.89165 0.10587 0.0
C1718 C 0.18653 0.88149 0.11539 0.0
C1719 C 0.16755 0.85514 0.12991 0.0
C1720 C 0.15696 0.84129 0.11978 0.0
C1721 C 0.164 0.85812 0.14994 0.0
C1722 C 0.17533 0.87179 0.16229 0.0
C1723 C 0.19039 0.87429 0.16606 0.0
C1724 C 0.20066 0.88643 0.17895 0.0
C1725 C 0.196 0.89618 0.1886 0.0
C1726 C 0.18097 0.89378 0.18466 0.0
C1727 C 0.17073 0.88169 0.17161 0.0
H1728 H 0.28 0.16235 0.84976 0.0
H1729 H 0.27713 0.18051 0.82713 0.0
H1730 H 0.32543 0.21538 0.83825 0.0
H1731 H 0.32804 0.19729 0.8612 0.0
H1732 H 0.30117 0.15186 0.84353 0.0
H1733 H 0.29162 0.18204 0.89497 0.0
H1734 H 0.29692 0.20567 0.91395 0.0
H1735 H 0.34237 0.21315 0.93099 0.0
H1736 H 0.33723 0.18984 0.91169 0.0
H1737 H 0.3378 0.15329 0.91432 0.0
H1738 H 0.34369 0.1358 0.93392 0.0
H1739 H 0.3004 0.09617 0.91333 0.0
H1740 H 0.29422 0.11373 0.89423 0.0
H1741 H 0.31698 0.16081 0.91697 0.0
H1742 H 0.33161 0.13707 0.86536 0.0
H1743 H 0.33238 0.11726 0.84377 0.0
H1744 H 0.28528 0.10185 0.82318 0.0
H1745 H 0.28431 0.12121 0.8457 0.0
C1746 C 0.30418 0.17852 0.85727 0.0
C1747 C 0.28989 0.17399 0.84747 0.0
C1748 C 0.28831 0.18435 0.83447 0.0
C1749 C 0.30106 0.19942 0.8308 0.0
C1750 C 0.31529 0.204 0.84097 0.0
C1751 C 0.31683 0.19365 0.85406 0.0
C1752 C 0.30618 0.16707 0.86967 0.0
C1753 C 0.30432 0.15362 0.85973 0.0
C1754 C 0.31108 0.16986 0.89048 0.0
C1755 C 0.31407 0.1842 0.90175 0.0
C1756 C 0.3028 0.18887 0.90256 0.0
C1757 C 0.30581 0.20233 0.91346 0.0
C1758 C 0.32003 0.21119 0.92401 0.0
C1759 C 0.33123 0.20644 0.92324 0.0
C1760 C 0.3283 0.19313 0.91219 0.0
C1761 C 0.31561 0.13485 0.90264 0.0
C1762 C 0.32947 0.14085 0.91416 0.0
C1763 C 0.33285 0.13087 0.92535 0.0
C1764 C 0.32251 0.11466 0.92509 0.0
C1765 C 0.30863 0.10862 0.9136 0.0
C1766 C 0.30513 0.11864 0.90265 0.0
C1767 C 0.31217 0.14563 0.8908 0.0
C1768 C 0.31366 0.15891 0.90084 0.0
C1769 C 0.30768 0.14309 0.8698 0.0
C1770 C 0.30783 0.13051 0.85739 0.0
C1771 C 0.32132 0.12921 0.85656 0.0
C1772 C 0.32181 0.118 0.84397 0.0
C1773 C 0.30892 0.108 0.83162 0.0
C1774 C 0.29535 0.10921 0.83266 0.0
C1775 C 0.29482 0.12037 0.8454 0.0
H1776 H 0.83449 0.11747 0.85268 0.0
H1777 H 0.81354 0.09663 0.83239 0.0
H1778 H 0.78453 0.11718 0.84359 0.0
H1779 H 0.80533 0.1376 0.86435 0.0
H1780 H 0.84907 0.14998 0.84518 0.0
H1781 H 0.81893 0.11328 0.89833 0.0
H1782 H 0.79447 0.09598 0.91613 0.0
H1783 H 0.78984 0.13586 0.93267 0.0
H1784 H 0.81395 0.153 0.914 0.0
H1785 H 0.85396 0.18976 0.9132 0.0
H1786 H 0.87331 0.21259 0.93221 0.0
H1787 H 0.90914 0.20201 0.91431 0.0
H1788 H 0.88951 0.17873 0.89598 0.0
H1789 H 0.84327 0.16023 0.91855 0.0
H1790 H 0.87132 0.19698 0.86591 0.0
H1791 H 0.89135 0.21459 0.8416 0.0
H1792 H 0.89768 0.17668 0.82072 0.0
H1793 H 0.87823 0.15921 0.84579 0.0
C1794 C 0.8214 0.12899 0.86011 0.0
C1795 C 0.82355 0.11738 0.85083 0.0
C1796 C 0.81158 0.10553 0.83916 0.0
C1797 C 0.79731 0.1052 0.8363 0.0
C1798 C 0.79522 0.11686 0.84575 0.0
C1799 C 0.80714 0.12861 0.85755 0.0
C1800 C 0.83426 0.14187 0.87187 0.0
C1801 C 0.84805 0.15209 0.86137 0.0
C1802 C 0.83251 0.14483 0.89273 0.0
C1803 C 0.81816 0.13441 0.90459 0.0
C1804 C 0.81259 0.11828 0.90568 0.0
C1805 C 0.79869 0.10843 0.91607 0.0
C1806 C 0.79016 0.11453 0.92579 0.0
C1807 C 0.79599 0.13075 0.92509 0.0
C1808 C 0.80985 0.14058 0.9146 0.0
C1809 C 0.87028 0.18256 0.90305 0.0
C1810 C 0.86596 0.19229 0.91345 0.0
C1811 C 0.87708 0.20545 0.92415 0.0
C1812 C 0.8928 0.2092 0.92468 0.0
C1813 C 0.89711 0.19939 0.91435 0.0
C1814 C 0.88593 0.18616 0.90369 0.0
C1815 C 0.85825 0.16857 0.89184 0.0
C1816 C 0.84456 0.15808 0.90246 0.0
C1817 C 0.86001 0.16557 0.87092 0.0
C1818 C 0.87337 0.17676 0.85795 0.0
C1819 C 0.8774 0.19255 0.8567 0.0
C1820 C 0.88877 0.2026 0.84272 0.0
C1821 C 0.89599 0.19693 0.82938 0.0
C1822 C 0.89223 0.18128 0.83089 0.0
C1823 C 0.88112 0.17131 0.84516 0.0
H1824 H 0.80439 0.67177 0.86307 0.0
H1825 H 0.78218 0.66801 0.8424 0.0
H1826 H 0.81109 0.71314 0.81409 0.0
H1827 H 0.83318 0.71707 0.83544 0.0
H1828 H 0.8464 0.69882 0.83332 0.0
H1829 H 0.81575 0.6695 0.90726 0.0
H1830 H 0.79263 0.66499 0.92684 0.0
H1831 H 0.8007 0.71043 0.90866 0.0
H1832 H 0.82375 0.71483 0.88885 0.0
H1833 H 0.87953 0.71207 0.91053 0.0
H1834 H 0.89739 0.70643 0.92969 0.0
H1835 H 0.88214 0.66452 0.89334 0.0
H1836 H 0.86472 0.67056 0.87388 0.0
H1837 H 0.84707 0.69225 0.90897 0.0
H1838 H 0.8911 0.71457 0.86119 0.0
H1839 H 0.9104 0.71547 0.83648 0.0
H1840 H 0.87306 0.67982 0.7999 0.0
H1841 H 0.85394 0.67859 0.82471 0.0
C1842 C 0.8204 0.69479 0.85099 0.0
C1843 C 0.80584 0.68106 0.85286 0.0
C1844 C 0.7932 0.67884 0.84084 0.0
C1845 C 0.79491 0.69023 0.82651 0.0
C1846 C 0.80936 0.70421 0.82514 0.0
C1847 C 0.82201 0.70644 0.83723 0.0
C1848 C 0.83424 0.6962 0.86183 0.0
C1849 C 0.84669 0.69757 0.8499 0.0
C1850 C 0.83451 0.69449 0.88341 0.0
C1851 C 0.82141 0.69248 0.89661 0.0
C1852 C 0.81264 0.67856 0.9077 0.0
C1853 C 0.79942 0.67595 0.91874 0.0
C1854 C 0.79491 0.68735 0.91916 0.0
C1855 C 0.804 0.70151 0.90863 0.0
C1856 C 0.8171 0.70401 0.89731 0.0
C1857 C 0.87093 0.69182 0.89069 0.0
C1858 C 0.88021 0.70178 0.90656 0.0
C1859 C 0.89031 0.69845 0.9176 0.0
C1860 C 0.89115 0.68496 0.91317 0.0
C1861 C 0.88199 0.67513 0.89699 0.0
C1862 C 0.87199 0.67855 0.88585 0.0
C1863 C 0.85919 0.69455 0.88037 0.0
C1864 C 0.84707 0.69389 0.89244 0.0
C1865 C 0.85904 0.69643 0.85877 0.0
C1866 C 0.87103 0.69652 0.84482 0.0
C1867 C 0.8871 0.70675 0.84805 0.0
C1868 C 0.8981 0.70731 0.83391 0.0
C1869 C 0.89317 0.69785 0.81618 0.0
C1870 C 0.87715 0.68743 0.81325 0.0
C1871 C 0.86623 0.68672 0.82744 0.0
H1872 H 0.821 0.67149 0.5275 0.0
H1873 H 0.80163 0.67097 0.55134 0.0
H1874 H 0.76489 0.63246 0.5174 0.0
H1875 H 0.78439 0.63296 0.49357 0.0
H1876 H 0.82908 0.65068 0.5209 0.0
H1877 H 0.81265 0.67862 0.4785 0.0
H1878 H 0.7937 0.68417 0.46243 0.0
H1879 H 0.7737 0.64011 0.42976 0.0
H1880 H 0.79319 0.63495 0.44546 0.0
H1881 H 0.83937 0.63254 0.44103 0.0
H1882 H 0.8614 0.63525 0.42031 0.0
H1883 H 0.89194 0.67926 0.45043 0.0
H1884 H 0.86991 0.67659 0.47075 0.0
H1885 H 0.82708 0.6538 0.44475 0.0
H1886 H 0.85212 0.63176 0.48871 0.0
H1887 H 0.87427 0.63295 0.50742 0.0
H1888 H 0.88122 0.67437 0.53934 0.0
H1889 H 0.85941 0.67328 0.52044 0.0
C1890 C 0.80417 0.65227 0.50875 0.0
C1891 C 0.80878 0.66293 0.52517 0.0
C1892 C 0.7977 0.6626 0.5388 0.0
C1893 C 0.78176 0.65159 0.53633 0.0
C1894 C 0.77708 0.64115 0.51959 0.0
C1895 C 0.78821 0.64144 0.50597 0.0
C1896 C 0.8162 0.65215 0.49512 0.0
C1897 C 0.82864 0.65141 0.50425 0.0
C1898 C 0.81567 0.65309 0.47342 0.0
C1899 C 0.8042 0.65632 0.46329 0.0
C1900 C 0.80417 0.67017 0.46787 0.0
C1901 C 0.79325 0.67327 0.45875 0.0
C1902 C 0.78204 0.66253 0.44492 0.0
C1903 C 0.78225 0.64872 0.44016 0.0
C1904 C 0.79332 0.6457 0.44917 0.0
C1905 C 0.85307 0.6543 0.45752 0.0
C1906 C 0.85081 0.64281 0.44302 0.0
C1907 C 0.8634 0.64432 0.43131 0.0
C1908 C 0.8784 0.65746 0.43377 0.0
C1909 C 0.88051 0.66909 0.44802 0.0
C1910 C 0.86797 0.66753 0.45976 0.0
C1911 C 0.83999 0.65245 0.47063 0.0
C1912 C 0.82731 0.65275 0.46137 0.0
C1913 C 0.84068 0.65185 0.49234 0.0
C1914 C 0.85416 0.65246 0.50317 0.0
C1915 C 0.85853 0.64115 0.49962 0.0
C1916 C 0.8711 0.64179 0.51038 0.0
C1917 C 0.87952 0.6538 0.52476 0.0
C1918 C 0.87513 0.66512 0.52813 0.0
C1919 C 0.86257 0.66443 0.51749 0.0
H1920 H 0.38222 0.21286 0.50833 0.0
H1921 H 0.38212 0.23287 0.53067 0.0
H1922 H 0.3342 0.21674 0.51355 0.0
H1923 H 0.33426 0.19665 0.49168 0.0
H1924 H 0.36358 0.18124 0.51274 0.0
H1925 H 0.37303 0.21898 0.45956 0.0
H1926 H 0.36825 0.23723 0.43983 0.0
H1927 H 0.32202 0.19957 0.42443 0.0
H1928 H 0.3269 0.18141 0.44404 0.0
H1929 H 0.32526 0.14277 0.44731 0.0
H1930 H 0.31796 0.11789 0.43063 0.0
H1931 H 0.36355 0.12432 0.44454 0.0
H1932 H 0.37098 0.14952 0.46072 0.0
H1933 H 0.34707 0.17196 0.43951 0.0
H1934 H 0.33469 0.1352 0.49352 0.0
H1935 H 0.33614 0.11559 0.51449 0.0
H1936 H 0.38347 0.14966 0.53184 0.0
H1937 H 0.38226 0.16897 0.50964 0.0
C1938 C 0.3583 0.20335 0.49822 0.0
C1939 C 0.37176 0.21376 0.50927 0.0
C1940 C 0.37172 0.22522 0.52191 0.0
C1941 C 0.35813 0.22632 0.5239 0.0
C1942 C 0.34479 0.21608 0.51247 0.0
C1943 C 0.34486 0.20469 0.49981 0.0
C1944 C 0.3578 0.19035 0.48616 0.0
C1945 C 0.36037 0.1794 0.49657 0.0
C1946 C 0.35308 0.18769 0.46528 0.0
C1947 C 0.3503 0.19885 0.45335 0.0
C1948 C 0.36184 0.21469 0.45202 0.0
C1949 C 0.35909 0.2251 0.44076 0.0
C1950 C 0.34476 0.21984 0.43055 0.0
C1951 C 0.33326 0.20395 0.43185 0.0
C1952 C 0.33602 0.19356 0.4431 0.0
C1953 C 0.34863 0.14796 0.45536 0.0
C1954 C 0.33375 0.13891 0.44659 0.0
C1955 C 0.32953 0.12461 0.43725 0.0
C1956 C 0.34013 0.11907 0.43643 0.0
C1957 C 0.35516 0.12831 0.44484 0.0
C1958 C 0.35938 0.14265 0.45419 0.0
C1959 C 0.35257 0.16272 0.46617 0.0
C1960 C 0.35066 0.17398 0.45554 0.0
C1961 C 0.35752 0.16546 0.48698 0.0
C1962 C 0.35847 0.15349 0.49967 0.0
C1963 C 0.34551 0.13837 0.50148 0.0
C1964 C 0.34628 0.12721 0.51376 0.0
C1965 C 0.35991 0.13102 0.52496 0.0
C1966 C 0.37287 0.14622 0.52319 0.0
C1967 C 0.37215 0.15733 0.51067 0.0
H1968 H 0.78881 0.16695 0.50717 0.0
H1969 H 0.7685 0.14732 0.52946 0.0
H1970 H 0.78109 0.11336 0.50939 0.0
H1971 H 0.80175 0.13319 0.48781 0.0
H1972 H 0.82007 0.17753 0.5113 0.0
H1973 H 0.78049 0.14958 0.45845 0.0
H1974 H 0.76226 0.12525 0.44084 0.0
H1975 H 0.80108 0.11994 0.42087 0.0
H1976 H 0.81908 0.14373 0.43935 0.0
H1977 H 0.85659 0.18063 0.44035 0.0
H1978 H 0.88094 0.19942 0.42344 0.0
H1979 H 0.87538 0.23736 0.44659 0.0
H1980 H 0.85073 0.21846 0.46292 0.0
H1981 H 0.82743 0.17295 0.43653 0.0
H1982 H 0.86508 0.19297 0.48855 0.0
H1983 H 0.88573 0.21083 0.51168 0.0
H1984 H 0.8548 0.22577 0.53681 0.0
H1985 H 0.83439 0.20841 0.51271 0.0
C1986 C 0.79671 0.15151 0.4957 0.0
C1987 C 0.78708 0.15522 0.50746 0.0
C1988 C 0.7754 0.14396 0.52006 0.0
C1989 C 0.77319 0.12878 0.52123 0.0
C1990 C 0.7826 0.12499 0.50902 0.0
C1991 C 0.79431 0.13627 0.49649 0.0
C1992 C 0.81001 0.16386 0.48388 0.0
C1993 C 0.82149 0.17678 0.49483 0.0
C1994 C 0.81224 0.16233 0.46262 0.0
C1995 C 0.80114 0.14838 0.45049 0.0
C1996 C 0.78505 0.14313 0.45033 0.0
C1997 C 0.77466 0.1293 0.44008 0.0
C1998 C 0.7802 0.12056 0.42958 0.0
C1999 C 0.79638 0.1262 0.42913 0.0
C2000 C 0.80672 0.13992 0.4395 0.0
C2001 C 0.85187 0.19814 0.45299 0.0
C2002 C 0.86052 0.19299 0.44158 0.0
C2003 C 0.87452 0.20375 0.43211 0.0
C2004 C 0.88015 0.21988 0.4338 0.0
C2005 C 0.8713 0.22501 0.44488 0.0
C2006 C 0.85728 0.21423 0.45435 0.0
C2007 C 0.83747 0.18665 0.46396 0.0
C2008 C 0.82581 0.17395 0.45289 0.0
C2009 C 0.83542 0.18791 0.48533 0.0
C2010 C 0.84824 0.19951 0.49863 0.0
C2011 C 0.86284 0.20036 0.49866 0.0
C2012 C 0.87459 0.21043 0.51214 0.0
C2013 C 0.87191 0.21968 0.52623 0.0
C2014 C 0.85734 0.21896 0.526 0.0
C2015 C 0.84561 0.20896 0.51235 0.0
H2016 H 0.95641 0.50134 0.16925 0.0
H2017 H 0.95567 0.52036 0.14597 0.0
H2018 H 0.00115 0.55571 0.1679 0.0
H2019 H 0.00213 0.53645 0.19032 0.0
H2020 H 0.97601 0.49027 0.16948 0.0
H2021 H 0.96359 0.52036 0.21619 0.0
H2022 H 0.96766 0.54435 0.23293 0.0
H2023 H 0.01095 0.55154 0.25886 0.0
H2024 H 0.00723 0.52794 0.24149 0.0
H2025 H 0.00923 0.48907 0.2399 0.0
H2026 H 0.01297 0.47034 0.26026 0.0
H2027 H 0.96558 0.4344 0.24675 0.0
H2028 H 0.96194 0.45315 0.22623 0.0
H2029 H 0.98727 0.49893 0.24432 0.0
H2030 H 0.0029 0.47324 0.19596 0.0
H2031 H 0.00269 0.45178 0.17702 0.0
H2032 H 0.95647 0.43771 0.15413 0.0
H2033 H 0.9567 0.4592 0.17331 0.0
C2034 C 0.97926 0.51749 0.18167 0.0
C2035 C 0.96622 0.51319 0.16901 0.0
C2036 C 0.96575 0.52412 0.15586 0.0
C2037 C 0.97834 0.53958 0.15508 0.0
C2038 C 0.99133 0.54387 0.16792 0.0
C2039 C 0.99184 0.53291 0.18094 0.0
C2040 C 0.97993 0.50571 0.19512 0.0
C2041 C 0.97815 0.49203 0.18593 0.0
C2042 C 0.98327 0.50828 0.21648 0.0
C2043 C 0.98522 0.52243 0.22729 0.0
C2044 C 0.97405 0.52717 0.22528 0.0
C2045 C 0.97634 0.54083 0.2349 0.0
C2046 C 0.98962 0.54976 0.24714 0.0
C2047 C 0.00055 0.54479 0.24963 0.0
C2048 C 0.99841 0.5313 0.23972 0.0
C2049 C 0.98534 0.47244 0.23153 0.0
C2050 C 0.99963 0.47718 0.24144 0.0
C2051 C 0.00178 0.46648 0.25294 0.0
C2052 C 0.98956 0.45096 0.25501 0.0
C2053 C 0.97514 0.44633 0.24547 0.0
C2054 C 0.97307 0.45698 0.23371 0.0
C2055 C 0.9834 0.48365 0.21862 0.0
C2056 C 0.98491 0.49715 0.22792 0.0
C2057 C 0.9801 0.48109 0.19733 0.0
C2058 C 0.97972 0.46771 0.18631 0.0
C2059 C 0.99259 0.46537 0.18719 0.0
C2060 C 0.99247 0.45309 0.17634 0.0
C2061 C 0.97954 0.443 0.16414 0.0
C2062 C 0.96665 0.44536 0.16327 0.0
C2063 C 0.96675 0.4576 0.17424 0.0
H2064 H 0.50666 0.4605 0.17002 0.0
H2065 H 0.48776 0.44007 0.14714 0.0
H2066 H 0.4526 0.45133 0.16594 0.0
H2067 H 0.47169 0.47214 0.188 0.0
H2068 H 0.51775 0.49113 0.16716 0.0
H2069 H 0.48818 0.45169 0.21786 0.0
H2070 H 0.46501 0.43284 0.23718 0.0
H2071 H 0.45739 0.47015 0.25719 0.0
H2072 H 0.48011 0.48887 0.23731 0.0
H2073 H 0.51653 0.52919 0.23171 0.0
H2074 H 0.53403 0.55359 0.24979 0.0
H2075 H 0.57261 0.54554 0.23954 0.0
H2076 H 0.55502 0.52107 0.2216 0.0
H2077 H 0.50891 0.49884 0.24044 0.0
H2078 H 0.5294 0.53433 0.18308 0.0
H2079 H 0.54973 0.55504 0.16222 0.0
H2080 H 0.5728 0.52785 0.15611 0.0
H2081 H 0.5519 0.50686 0.17632 0.0
C2082 C 0.49058 0.46778 0.18087 0.0
C2083 C 0.49485 0.4585 0.16928 0.0
C2084 C 0.48399 0.44673 0.15633 0.0
C2085 C 0.46867 0.44409 0.15465 0.0
C2086 C 0.46435 0.45319 0.16665 0.0
C2087 C 0.47521 0.46498 0.17949 0.0
C2088 C 0.50241 0.48108 0.19333 0.0
C2089 C 0.51594 0.49256 0.18332 0.0
C2090 C 0.49983 0.48332 0.21426 0.0
C2091 C 0.48585 0.47171 0.22595 0.0
C2092 C 0.48141 0.4558 0.22616 0.0
C2093 C 0.46823 0.44505 0.23725 0.0
C2094 C 0.4595 0.4501 0.24869 0.0
C2095 C 0.46404 0.46601 0.24866 0.0
C2096 C 0.47702 0.47669 0.23732 0.0
C2097 C 0.5345 0.52337 0.22529 0.0
C2098 C 0.52875 0.53266 0.23344 0.0
C2099 C 0.53876 0.54663 0.24362 0.0
C2100 C 0.55467 0.55146 0.24602 0.0
C2101 C 0.56038 0.54204 0.23803 0.0
C2102 C 0.55038 0.52813 0.22769 0.0
C2103 C 0.52387 0.50876 0.21412 0.0
C2104 C 0.51071 0.4971 0.22438 0.0
C2105 C 0.5265 0.50648 0.19336 0.0
C2106 C 0.53921 0.51912 0.18123 0.0
C2107 C 0.53889 0.53289 0.17728 0.0
C2108 C 0.55062 0.54478 0.16548 0.0
C2109 C 0.56302 0.54321 0.1575 0.0
C2110 C 0.56335 0.5294 0.16172 0.0
C2111 C 0.55147 0.51741 0.17334 0.0
H2112 H 0.53879 0.03697 0.17073 0.0
H2113 H 0.55741 0.03577 0.14682 0.0
H2114 H 0.5394 0.98733 0.16291 0.0
H2115 H 0.52073 0.98853 0.1865 0.0
H2116 H 0.50702 0.02007 0.16909 0.0
H2117 H 0.54673 0.02752 0.21533 0.0
H2118 H 0.56604 0.02209 0.23078 0.0
H2119 H 0.5289 0.97865 0.25513 0.0
H2120 H 0.50952 0.98367 0.23879 0.0
H2121 H 0.46974 0.98246 0.23518 0.0
H2122 H 0.44641 0.97691 0.25472 0.0
H2123 H 0.45732 0.02472 0.24624 0.0
H2124 H 0.4805 0.03005 0.22626 0.0
H2125 H 0.50053 0.0033 0.24216 0.0
H2126 H 0.46199 0.99377 0.18961 0.0
H2127 H 0.44379 0.99694 0.16751 0.0
H2128 H 0.47944 0.04475 0.1554 0.0
H2129 H 0.49763 0.04144 0.17739 0.0
C2130 C 0.52846 0.01287 0.18046 0.0
C2131 C 0.53894 0.02614 0.16916 0.0
C2132 C 0.54962 0.02547 0.15564 0.0
C2133 C 0.54982 0.01145 0.15301 0.0
C2134 C 0.53942 0.99825 0.16451 0.0
C2135 C 0.52883 0.99895 0.17809 0.0
C2136 C 0.5166 0.01325 0.19407 0.0
C2137 C 0.50581 0.01676 0.18522 0.0
C2138 C 0.51493 0.00869 0.215 0.0
C2139 C 0.52663 0.00587 0.22552 0.0
C2140 C 0.5427 0.01671 0.22373 0.0
C2141 C 0.55373 0.01366 0.23263 0.0
C2142 C 0.5489 -8e-05 0.24398 0.0
C2143 C 0.53287 0.98934 0.24645 0.0
C2144 C 0.52182 0.99223 0.23718 0.0
C2145 C 0.47679 0.00663 0.22917 0.0
C2146 C 0.46713 0.99175 0.23761 0.0
C2147 C 0.45383 0.98863 0.24887 0.0
C2148 C 0.44998 0.00037 0.25208 0.0
C2149 C 0.4598 0.01534 0.24379 0.0
C2150 C 0.47308 0.01843 0.23243 0.0
C2151 C 0.4907 0.00965 0.21696 0.0
C2152 C 0.50192 0.00687 0.22613 0.0
C2153 C 0.49281 0.01492 0.19633 0.0
C2154 C 0.48114 0.0174 0.18523 0.0
C2155 C 0.46577 0.00504 0.18259 0.0
C2156 C 0.45537 0.00688 0.16994 0.0
C2157 C 0.4602 0.02108 0.1596 0.0
C2158 C 0.47543 0.0336 0.16291 0.0
C2159 C 0.48581 0.03176 0.17554 0.0
H2160 H 0.48517 0.00141 0.86116 0.0
H2161 H 0.4633 0.9991 0.88162 0.0
H2162 H 0.4308 0.96281 0.84076 0.0
H2163 H 0.45279 0.96519 0.82025 0.0
H2164 H 0.49349 0.97936 0.85312 0.0
H2165 H 0.4777 0.01056 0.81717 0.0
H2166 H 0.46004 0.01712 0.7996 0.0
H2167 H 0.45405 0.98476 0.7507 0.0
H2168 H 0.47082 0.97738 0.76925 0.0
H2169 H 0.50991 0.97202 0.77037 0.0
H2170 H 0.53256 0.97524 0.75091 0.0
H2171 H 0.56332 0.0109 0.79385 0.0
H2172 H 0.54062 0.00792 0.81289 0.0
H2173 H 0.50027 0.9931 0.77891 0.0
H2174 H 0.51901 0.96373 0.81729 0.0
H2175 H 0.53806 0.96 0.83693 0.0
H2176 H 0.54119 0.99373 0.88186 0.0
H2177 H 0.52258 0.99777 0.862 0.0
C2178 C 0.47059 0.98352 0.83916 0.0
C2179 C 0.47333 0.99295 0.85661 0.0
C2180 C 0.46084 0.9917 0.86818 0.0
C2181 C 0.44536 0.98082 0.86271 0.0
C2182 C 0.44262 0.97125 0.84535 0.0
C2183 C 0.45514 0.97265 0.8336 0.0
C2184 C 0.48397 0.98504 0.82696 0.0
C2185 C 0.49505 0.98247 0.83692 0.0
C2186 C 0.48587 0.98898 0.80579 0.0
C2187 C 0.47531 0.99318 0.79481 0.0
C2188 C 0.47232 0.00462 0.80289 0.0
C2189 C 0.46241 0.00857 0.79259 0.0
C2190 C 0.45555 0.00148 0.77368 0.0
C2191 C 0.45884 0.99026 0.76541 0.0
C2192 C 0.46858 0.98613 0.7759 0.0
C2193 C 0.52359 0.9896 0.79319 0.0
C2194 C 0.52154 0.98059 0.77551 0.0
C2195 C 0.53449 0.98235 0.7645 0.0
C2196 C 0.54974 0.99327 0.77089 0.0
C2197 C 0.55173 0.00248 0.78842 0.0
C2198 C 0.53878 0.0007 0.79943 0.0
C2199 C 0.50981 0.98741 0.80509 0.0
C2200 C 0.49863 0.98982 0.79505 0.0
C2201 C 0.50801 0.98368 0.82634 0.0
C2202 C 0.51945 0.98115 0.83805 0.0
C2203 C 0.52394 0.97047 0.83123 0.0
C2204 C 0.53477 0.96829 0.84247 0.0
C2205 C 0.54101 0.97652 0.86094 0.0
C2206 C 0.5364 0.98709 0.86781 0.0
C2207 C 0.52578 0.98941 0.85646 0.0
H2208 H 0.04717 0.5424 0.84363 0.0
H2209 H 0.04822 0.56368 0.86419 0.0
H2210 H 0.00256 0.55204 0.84143 0.0
H2211 H 0.00122 0.53031 0.82201 0.0
H2212 H 0.02788 0.51178 0.84601 0.0
H2213 H 0.04073 0.55044 0.79295 0.0
H2214 H 0.03714 0.56997 0.77447 0.0
H2215 H 0.99062 0.5341 0.75689 0.0
H2216 H 0.99414 0.51471 0.77578 0.0
H2217 H 0.992 0.47429 0.77847 0.0
H2218 H 0.98624 0.4506 0.75969 0.0
H2219 H 0.03246 0.45875 0.77386 0.0
H2220 H 0.03806 0.48241 0.79293 0.0
H2221 H 0.01408 0.50422 0.77182 0.0
H2222 H 0.00143 0.46525 0.82345 0.0
H2223 H 0.00354 0.44592 0.84411 0.0
H2224 H 0.04822 0.48214 0.8673 0.0
H2225 H 0.04668 0.50106 0.845 0.0
C2226 C 0.0242 0.53486 0.83108 0.0
C2227 C 0.03739 0.54443 0.84314 0.0
C2228 C 0.03803 0.5567 0.85472 0.0
C2229 C 0.02548 0.5596 0.85447 0.0
C2230 C 0.01235 0.55003 0.84223 0.0
C2231 C 0.01165 0.53771 0.83086 0.0
C2232 C 0.02329 0.52158 0.81918 0.0
C2233 C 0.02522 0.51026 0.82967 0.0
C2234 C 0.01942 0.51944 0.798 0.0
C2235 C 0.01765 0.53116 0.78589 0.0
C2236 C 0.02976 0.5468 0.78512 0.0
C2237 C 0.02774 0.55792 0.77443 0.0
C2238 C 0.01357 0.55357 0.76432 0.0
C2239 C 0.00159 0.53783 0.76477 0.0
C2240 C 0.00363 0.52673 0.77539 0.0
C2241 C 0.01542 0.48006 0.78717 0.0
C2242 C 0.00092 0.47101 0.77745 0.0
C2243 C 0.99767 0.4575 0.76665 0.0
C2244 C 0.0089 0.4528 0.76523 0.0
C2245 C 0.02348 0.46195 0.77489 0.0
C2246 C 0.02672 0.47548 0.78574 0.0
C2247 C 0.01858 0.49431 0.79866 0.0
C2248 C 0.01705 0.50583 0.78807 0.0
C2249 C 0.02281 0.49656 0.81977 0.0
C2250 C 0.02405 0.48461 0.83225 0.0
C2251 C 0.0119 0.46896 0.83251 0.0
C2252 C 0.013 0.45793 0.84472 0.0
C2253 C 0.02605 0.46237 0.85756 0.0
C2254 C 0.03813 0.47811 0.85737 0.0
C2255 C 0.03718 0.48904 0.84478 0.0
H2256 H 0.45095 0.50544 0.83689 0.0
H2257 H 0.42989 0.48784 0.86002 0.0
H2258 H 0.44159 0.45183 0.84842 0.0
H2259 H 0.46232 0.46937 0.82496 0.0
H2260 H 0.48274 0.51475 0.84241 0.0
H2261 H 0.44158 0.48558 0.79212 0.0
H2262 H 0.42216 0.4617 0.77478 0.0
H2263 H 0.45885 0.45281 0.75534 0.0
H2264 H 0.47797 0.47608 0.77371 0.0
H2265 H 0.51769 0.51265 0.77291 0.0
H2266 H 0.54156 0.53009 0.75402 0.0
H2267 H 0.53543 0.56926 0.76948 0.0
H2268 H 0.51184 0.55177 0.78889 0.0
H2269 H 0.48785 0.50533 0.76847 0.0
H2270 H 0.52675 0.52677 0.8183 0.0
H2271 H 0.54845 0.54514 0.83972 0.0
H2272 H 0.52004 0.56361 0.86329 0.0
H2273 H 0.49853 0.54564 0.84091 0.0
C2274 C 0.45809 0.48866 0.82911 0.0
C2275 C 0.44882 0.49368 0.83918 0.0
C2276 C 0.43685 0.48363 0.85247 0.0
C2277 C 0.43405 0.46841 0.85614 0.0
C2278 C 0.44321 0.46335 0.8457 0.0
C2279 C 0.45512 0.47338 0.83233 0.0
C2280 C 0.47155 0.49974 0.81636 0.0
C2281 C 0.4837 0.51292 0.82611 0.0
C2282 C 0.47315 0.49677 0.79541 0.0
C2283 C 0.46123 0.48255 0.78447 0.0
C2284 C 0.44539 0.47837 0.78436 0.0
C2285 C 0.43432 0.4648 0.7742 0.0
C2286 C 0.43891 0.45526 0.76372 0.0
C2287 C 0.45482 0.45968 0.76358 0.0
C2288 C 0.46582 0.47311 0.77389 0.0
C2289 C 0.51306 0.53094 0.78238 0.0
C2290 C 0.52147 0.52499 0.77212 0.0
C2291 C 0.53508 0.53498 0.76126 0.0
C2292 C 0.54046 0.55111 0.76024 0.0
C2293 C 0.53181 0.55697 0.77026 0.0
C2294 C 0.51827 0.54698 0.78127 0.0
C2295 C 0.49895 0.52037 0.7945 0.0
C2296 C 0.48673 0.50733 0.78467 0.0
C2297 C 0.49759 0.52301 0.81563 0.0
C2298 C 0.51106 0.53496 0.82773 0.0
C2299 C 0.52529 0.53503 0.82766 0.0
C2300 C 0.53764 0.54541 0.84017 0.0
C2301 C 0.53596 0.55578 0.85334 0.0
C2302 C 0.52179 0.55589 0.85316 0.0
C2303 C 0.50944 0.54555 0.8405 0.0
H2304 H 0.61051 0.82782 0.51337 0.0
H2305 H 0.60832 0.84649 0.49092 0.0
H2306 H 0.65731 0.87974 0.50078 0.0
H2307 H 0.65922 0.86124 0.52359 0.0
H2308 H 0.63 0.81567 0.50671 0.0
H2309 H 0.62177 0.8448 0.5593 0.0
H2310 H 0.62611 0.86799 0.57838 0.0
H2311 H 0.67316 0.87868 0.59248 0.0
H2312 H 0.66896 0.85585 0.57273 0.0
H2313 H 0.67255 0.818 0.56632 0.0
H2314 H 0.6804 0.80072 0.58275 0.0
H2315 H 0.63279 0.7625 0.57925 0.0
H2316 H 0.62499 0.77982 0.5626 0.0
H2317 H 0.65036 0.82623 0.57825 0.0
H2318 H 0.66066 0.80029 0.52402 0.0
H2319 H 0.65885 0.7791 0.50265 0.0
H2320 H 0.6104 0.76376 0.49001 0.0
H2321 H 0.61213 0.78482 0.51191 0.0
C2322 C 0.63498 0.8432 0.52027 0.0
C2323 C 0.6207 0.83923 0.51087 0.0
C2324 C 0.6195 0.84988 0.49796 0.0
C2325 C 0.63264 0.86464 0.49399 0.0
C2326 C 0.64687 0.86864 0.50377 0.0
C2327 C 0.64801 0.85804 0.51678 0.0
C2328 C 0.6367 0.83151 0.53247 0.0
C2329 C 0.63406 0.81777 0.52255 0.0
C2330 C 0.64251 0.83456 0.55287 0.0
C2331 C 0.64508 0.84865 0.56441 0.0
C2332 C 0.63308 0.85224 0.5663 0.0
C2333 C 0.63552 0.86541 0.5774 0.0
C2334 C 0.64999 0.8752 0.58695 0.0
C2335 C 0.66196 0.87152 0.58509 0.0
C2336 C 0.65952 0.85838 0.57395 0.0
C2337 C 0.64821 0.80015 0.56322 0.0
C2338 C 0.66379 0.80593 0.56922 0.0
C2339 C 0.66828 0.79605 0.57845 0.0
C2340 C 0.6572 0.78031 0.58218 0.0
C2341 C 0.64152 0.77462 0.57661 0.0
C2342 C 0.63708 0.78446 0.56708 0.0
C2343 C 0.64379 0.81051 0.55242 0.0
C2344 C 0.64596 0.82398 0.56258 0.0
C2345 C 0.63776 0.80733 0.53213 0.0
C2346 C 0.63644 0.79399 0.51992 0.0
C2347 C 0.64952 0.79214 0.51712 0.0
C2348 C 0.64849 0.78005 0.50485 0.0
C2349 C 0.63446 0.76974 0.49477 0.0
C2350 C 0.62137 0.77158 0.49756 0.0
C2351 C 0.62235 0.78358 0.51006 0.0
H2352 H 0.16798 0.79312 0.51166 0.0
H2353 H 0.14766 0.77484 0.488 0.0
H2354 H 0.11658 0.79058 0.50994 0.0
H2355 H 0.13696 0.80898 0.53316 0.0
H2356 H 0.18162 0.82479 0.51069 0.0
H2357 H 0.15229 0.78432 0.55995 0.0
H2358 H 0.12918 0.7653 0.57911 0.0
H2359 H 0.12289 0.80273 0.60245 0.0
H2360 H 0.14585 0.82165 0.58315 0.0
H2361 H 0.18235 0.85873 0.58359 0.0
H2362 H 0.20011 0.88153 0.60415 0.0
H2363 H 0.23939 0.87836 0.5811 0.0
H2364 H 0.22155 0.85502 0.56125 0.0
H2365 H 0.1749 0.83034 0.58537 0.0
H2366 H 0.19634 0.86811 0.52897 0.0
H2367 H 0.21638 0.88789 0.50632 0.0
H2368 H 0.23562 0.85772 0.49611 0.0
H2369 H 0.21537 0.83784 0.51847 0.0
C2370 C 0.15396 0.80233 0.52428 0.0
C2371 C 0.15672 0.79248 0.5115 0.0
C2372 C 0.14508 0.782 0.4981 0.0
C2373 C 0.13055 0.78133 0.49708 0.0
C2374 C 0.12771 0.79093 0.51025 0.0
C2375 C 0.1393 0.80135 0.52368 0.0
C2376 C 0.16668 0.81449 0.53709 0.0
C2377 C 0.1803 0.82581 0.52713 0.0
C2378 C 0.16477 0.81608 0.55841 0.0
C2379 C 0.15078 0.80442 0.56999 0.0
C2380 C 0.14586 0.78841 0.56904 0.0
C2381 C 0.13267 0.77756 0.58001 0.0
C2382 C 0.12425 0.78254 0.59231 0.0
C2383 C 0.12926 0.79857 0.59333 0.0
C2384 C 0.14237 0.80939 0.58228 0.0
C2385 C 0.20057 0.85517 0.57066 0.0
C2386 C 0.19477 0.86282 0.58303 0.0
C2387 C 0.2049 0.87586 0.59475 0.0
C2388 C 0.22107 0.88165 0.59414 0.0
C2389 C 0.22695 0.87416 0.58165 0.0
C2390 C 0.21677 0.8609 0.57021 0.0
C2391 C 0.18951 0.84099 0.55881 0.0
C2392 C 0.1763 0.82921 0.56899 0.0
C2393 C 0.19158 0.83916 0.53761 0.0
C2394 C 0.20445 0.85158 0.52541 0.0
C2395 C 0.20499 0.86585 0.52202 0.0
C2396 C 0.21637 0.87708 0.50907 0.0
C2397 C 0.22751 0.87429 0.49954 0.0
C2398 C 0.22723 0.86018 0.50343 0.0
C2399 C 0.21567 0.84883 0.51609 0.0
H2400 H 0.14321 0.32872 0.49426 0.0
H2401 H 0.12295 0.33017 0.47472 0.0
H2402 H 0.12914 0.36888 0.51261 0.0
H2403 H 0.1494 0.36722 0.53238 0.0
H2404 H 0.17344 0.3507 0.49745 0.0
H2405 H 0.12987 0.32277 0.54228 0.0
H2406 H 0.10769 0.31864 0.56349 0.0
H2407 H 0.1389 0.35672 0.60317 0.0
H2408 H 0.16111 0.36095 0.5817 0.0
H2409 H 0.20313 0.35948 0.57793 0.0
H2410 H 0.2205 0.35286 0.59657 0.0
H2411 H 0.21036 0.31618 0.55242 0.0
H2412 H 0.19257 0.32246 0.53436 0.0
H2413 H 0.17251 0.34179 0.57268 0.0
H2414 H 0.21722 0.36604 0.527 0.0
H2415 H 0.23747 0.36906 0.50243 0.0
H2416 H 0.20185 0.33447 0.46278 0.0
H2417 H 0.18176 0.33116 0.48743 0.0
C2418 C 0.14786 0.3479 0.51471 0.0
C2419 C 0.14019 0.33751 0.49839 0.0
C2420 C 0.12864 0.33839 0.4872 0.0
C2421 C 0.12456 0.34976 0.49195 0.0
C2422 C 0.13196 0.35993 0.50866 0.0
C2423 C 0.14355 0.35902 0.51992 0.0
C2424 C 0.16069 0.34726 0.52563 0.0
C2425 C 0.17321 0.34861 0.51389 0.0
C2426 C 0.16053 0.34497 0.54714 0.0
C2427 C 0.14711 0.34237 0.56017 0.0
C2428 C 0.13193 0.33037 0.55538 0.0
C2429 C 0.11927 0.328 0.56753 0.0
C2430 C 0.12156 0.33744 0.58489 0.0
C2431 C 0.1368 0.34923 0.58994 0.0
C2432 C 0.14947 0.35167 0.57767 0.0
C2433 C 0.19667 0.34159 0.55462 0.0
C2434 C 0.20472 0.35007 0.57222 0.0
C2435 C 0.21472 0.34634 0.58278 0.0
C2436 C 0.21681 0.33398 0.57599 0.0
C2437 C 0.20888 0.32565 0.55819 0.0
C2438 C 0.19886 0.32936 0.54768 0.0
C2439 C 0.18517 0.34479 0.54436 0.0
C2440 C 0.17291 0.34404 0.55627 0.0
C2441 C 0.18538 0.34725 0.52284 0.0
C2442 C 0.19794 0.34837 0.50908 0.0
C2443 C 0.2138 0.35889 0.51321 0.0
C2444 C 0.22535 0.36066 0.49916 0.0
C2445 C 0.22117 0.35213 0.48063 0.0
C2446 C 0.20535 0.34137 0.47679 0.0
C2447 C 0.19388 0.33947 0.49088 0.0
H2448 H 0.98861 0.3905 0.1216 0.0
H2449 H 0.97037 0.40353 0.06966 0.0
H2450 H 0.96685 0.42169 0.09128 0.0
H2451 H 0.97045 0.43514 0.12433 0.0
H2452 H 0.98947 0.4229 0.17608 0.0
H2453 H 0.9915 0.40345 0.15503 0.0
C2454 C 0.9839 0.39733 0.11498 0.0
C2455 C 0.97975 0.39557 0.09399 0.0
C2456 C 0.98219 0.40804 0.12742 0.0
C2457 C 0.97343 0.40439 0.08581 0.0
C2458 C 0.97154 0.41492 0.09813 0.0
C2459 C 0.97482 0.42805 0.13109 0.0
C2460 C 0.97983 0.4305 0.15173 0.0
C2461 C 0.97604 0.41697 0.11888 0.0
C2462 C 0.9857 0.42138 0.16016 0.0
C2463 C 0.98681 0.41021 0.14816 0.0
H2464 H 0.60859 0.60282 0.10544 0.0
H2465 H 0.61142 0.56777 0.06886 0.0
H2466 H 0.59441 0.54761 0.09322 0.0
H2467 H 0.5774 0.5397 0.12359 0.0
H2468 H 0.57606 0.57498 0.16149 0.0
H2469 H 0.59392 0.59527 0.13789 0.0
C2470 C 0.60581 0.59085 0.10297 0.0
C2471 C 0.61117 0.58686 0.08513 0.0
C2472 C 0.59615 0.5793 0.11717 0.0
C2473 C 0.6072 0.57118 0.08217 0.0
C2474 C 0.59752 0.55963 0.09616 0.0
C2475 C 0.58124 0.55184 0.127 0.0
C2476 C 0.57515 0.5557 0.14422 0.0
C2477 C 0.59172 0.56351 0.11353 0.0
C2478 C 0.58019 0.57155 0.14811 0.0
C2479 C 0.59051 0.58321 0.13469 0.0
H2480 H 0.4248 0.02731 0.08272 0.0
H2481 H 0.38526 0.00267 0.12339 0.0
H2482 H 0.40258 0.00354 0.15082 0.0
H2483 H 0.42887 0.01031 0.16273 0.0
H2484 H 0.46823 0.03465 0.12165 0.0
H2485 H 0.45112 0.0353 0.09517 0.0
C2486 C 0.41999 0.02239 0.0977 0.0
C2487 C 0.40374 0.01488 0.10094 0.0
C2488 C 0.42999 0.0229 0.11337 0.0
C2489 C 0.3977 0.00833 0.12037 0.0
C2490 C 0.4076 0.00888 0.1361 0.0
C2491 C 0.43369 0.01577 0.14798 0.0
C2492 C 0.44981 0.02241 0.14421 0.0
C2493 C 0.42374 0.01591 0.13266 0.0
C2494 C 0.45591 0.02963 0.12511 0.0
C2495 C 0.44611 0.0299 0.10986 0.0
H2496 H 0.38799 0.96455 0.92114 0.0
H2497 H 0.4085 0.01467 0.91903 0.0
H2498 H 0.42848 0.01663 0.8951 0.0
H2499 H 0.44085 0.00425 0.87597 0.0
H2500 H 0.42043 0.95417 0.8777 0.0
H2501 H 0.39965 0.95199 0.90047 0.0
C2502 C 0.39682 0.97587 0.91537 0.0
C2503 C 0.39677 0.98944 0.92184 0.0
C2504 C 0.4083 0.97692 0.9016 0.0
C2505 C 0.40818 0.00404 0.91409 0.0
C2506 C 0.41967 0.00518 0.90052 0.0
C2507 C 0.43183 0.99287 0.88135 0.0
C2508 C 0.43221 0.9794 0.87534 0.0
C2509 C 0.41995 0.99173 0.89436 0.0
C2510 C 0.42032 0.96469 0.88208 0.0
C2511 C 0.4085 0.96346 0.89517 0.0
H2512 H 0.0405 0.42132 0.91882 0.0
H2513 H 0.99031 0.39693 0.92451 0.0
H2514 H 0.98883 0.41461 0.8995 0.0
H2515 H 0.00189 0.4377 0.87749 0.0
H2516 H 0.052 0.46091 0.86942 0.0
H2517 H 0.05344 0.44319 0.89419 0.0
C2518 C 0.02927 0.41987 0.91441 0.0
C2519 C 0.01554 0.40792 0.92341 0.0
C2520 C 0.0285 0.42995 0.89982 0.0
C2521 C 0.00101 0.40602 0.9176 0.0
C2522 C 0.00018 0.41616 0.9034 0.0
C2523 C 0.01313 0.43875 0.88071 0.0
C2524 C 0.02682 0.45083 0.87161 0.0
C2525 C 0.01386 0.42824 0.89454 0.0
C2526 C 0.04127 0.45204 0.87648 0.0
C2527 C 0.04211 0.4418 0.89055 0.0
H2528 H 0.59038 0.58844 0.91846 0.0
H2529 H 0.58258 0.62699 0.9074 0.0
H2530 H 0.56204 0.61114 0.88252 0.0
H2531 H 0.54632 0.58625 0.8639 0.0
H2532 H 0.55407 0.54772 0.87591 0.0
H2533 H 0.57486 0.56379 0.90004 0.0
C2534 C 0.58434 0.59346 0.91041 0.0
C2535 C 0.58807 0.6089 0.91468 0.0
C2536 C 0.57257 0.5843 0.89622 0.0
C2537 C 0.57987 0.6151 0.90447 0.0
C2538 C 0.56816 0.60606 0.8902 0.0
C2539 C 0.5525 0.58135 0.87189 0.0
C2540 C 0.54868 0.56582 0.86794 0.0
C2541 C 0.56437 0.59062 0.886 0.0
C2542 C 0.55693 0.55971 0.87831 0.0
C2543 C 0.56876 0.56886 0.89225 0.0
H2544 H 0.03712 0.61865 0.9069 0.0
H2545 H 0.98816 0.58807 0.92012 0.0
H2546 H 0.9878 0.56789 0.89814 0.0
H2547 H 0.00145 0.55855 0.87617 0.0
H2548 H 0.05028 0.589 0.862 0.0
H2549 H 0.05072 0.60943 0.88379 0.0
C2550 C 0.0264 0.60756 0.90494 0.0
C2551 C 0.01267 0.60492 0.91501 0.0
C2552 C 0.02627 0.59592 0.8923 0.0
C2553 C 0.99882 0.59052 0.91225 0.0
C2554 C 0.99863 0.57891 0.89981 0.0
C2555 C 0.01216 0.56973 0.87754 0.0
C2556 C 0.02579 0.57221 0.86739 0.0
C2557 C 0.01228 0.58147 0.88983 0.0
C2558 C 0.03964 0.58668 0.86982 0.0
C2559 C 0.03989 0.59841 0.88217 0.0
H2560 H 0.39181 0.43377 0.93323 0.0
H2561 H 0.37944 0.39359 0.89465 0.0
H2562 H 0.39517 0.41068 0.86665 0.0
H2563 H 0.41395 0.43692 0.85393 0.0
H2564 H 0.42779 0.4769 0.89353 0.0
H2565 H 0.40997 0.46002 0.92019 0.0
C2566 C 0.39257 0.42873 0.91872 0.0
C2567 C 0.38449 0.41239 0.91617 0.0
C2568 C 0.40196 0.43861 0.90283 0.0
C2569 C 0.38535 0.40611 0.89705 0.0
C2570 C 0.39448 0.41588 0.88105 0.0
C2571 C 0.4131 0.44195 0.86841 0.0
C2572 C 0.42228 0.45818 0.87168 0.0
C2573 C 0.40307 0.43212 0.88391 0.0
C2574 C 0.42076 0.4645 0.89042 0.0
C2575 C 0.41065 0.45483 0.90578 0.0
H2576 H 0.59786 0.9747 0.90213 0.0
H2577 H 0.57066 0.96968 0.95668 0.0
H2578 H 0.54983 0.96865 0.93556 0.0
H2579 H 0.54019 0.97126 0.90192 0.0
H2580 H 0.56727 0.97674 0.84723 0.0
H2581 H 0.58727 0.97547 0.86802 0.0
C2582 C 0.58732 0.97329 0.90936 0.0
C2583 C 0.58586 0.9723 0.93096 0.0
C2584 C 0.57542 0.9729 0.89711 0.0
C2585 C 0.57204 0.97026 0.94009 0.0
C2586 C 0.56016 0.96982 0.92803 0.0
C2587 C 0.55046 0.97212 0.89458 0.0
C2588 C 0.55237 0.97426 0.87316 0.0
C2589 C 0.56187 0.97145 0.9066 0.0
C2590 C 0.56556 0.97506 0.86372 0.0
C2591 C 0.57701 0.97442 0.87561 0.0
H2592 H 0.585 0.99695 0.08296 0.0
H2593 H 0.62383 0.04018 0.10504 0.0
H2594 H 0.60688 0.04235 0.13082 0.0
H2595 H 0.58086 0.0319 0.14693 0.0
H2596 H 0.5423 0.98851 0.12462 0.0
H2597 H 0.5593 0.98647 0.09903 0.0
C2598 C 0.58972 0.00693 0.09329 0.0
C2599 C 0.60559 0.01846 0.09199 0.0
C2600 C 0.57996 0.00804 0.10805 0.0
C2601 C 0.61164 0.03114 0.10579 0.0
C2602 C 0.60195 0.0324 0.12047 0.0
C2603 C 0.5762 0.02205 0.13637 0.0
C2604 C 0.56036 0.01036 0.13767 0.0
C2605 C 0.58607 0.02093 0.12171 0.0
C2606 C 0.55449 0.99756 0.12408 0.0
C2607 C 0.56418 0.99643 0.10938 0.0
H2608 H 0.96679 0.5823 0.09341 0.0
H2609 H 0.01588 0.60014 0.08178 0.0
H2610 H 0.01621 0.58224 0.10721 0.0
H2611 H 0.00253 0.56108 0.13199 0.0
H2612 H 0.95372 0.54374 0.14494 0.0
H2613 H 0.95333 0.56186 0.11973 0.0
C2614 C 0.97759 0.5824 0.09662 0.0
C2615 C 0.99124 0.59245 0.08551 0.0
C2616 C 0.97776 0.57211 0.11142 0.0
C2617 C 0.00511 0.59231 0.08976 0.0
C2618 C 0.00536 0.58214 0.10441 0.0
C2619 C 0.99185 0.56141 0.12958 0.0
C2620 C 0.97818 0.55103 0.14037 0.0
C2621 C 0.99173 0.57192 0.11521 0.0
C2622 C 0.96438 0.55144 0.13667 0.0
C2623 C 0.96416 0.56187 0.12233 0.0
H2624 H 0.42578 0.38925 0.0932 0.0
H2625 H 0.41047 0.42198 0.07823 0.0
H2626 H 0.42846 0.44039 0.10349 0.0
H2627 H 0.44868 0.44745 0.12951 0.0
H2628 H 0.46365 0.41472 0.14583 0.0
H2629 H 0.44569 0.3961 0.12038 0.0
C2630 C 0.42631 0.40036 0.09558 0.0
C2631 C 0.4169 0.40426 0.08361 0.0
C2632 C 0.43663 0.41092 0.11036 0.0
C2633 C 0.41782 0.41878 0.08684 0.0
C2634 C 0.42802 0.4293 0.10142 0.0
C2635 C 0.44787 0.43616 0.12776 0.0
C2636 C 0.45746 0.43249 0.13966 0.0
C2637 C 0.4375 0.42552 0.11322 0.0
C2638 C 0.4565 0.41792 0.13677 0.0
C2639 C 0.44618 0.40724 0.12227 0.0
H2640 H 0.63258 0.727 0.42148 0.0
H2641 H 0.6548 0.71291 0.4671 0.0
H2642 H 0.65239 0.72978 0.49258 0.0
H2643 H 0.64518 0.74959 0.50141 0.0
H2644 H 0.62247 0.76312 0.45591 0.0
H2645 H 0.62345 0.74503 0.43106 0.0
C2646 C 0.63659 0.7273 0.4371 0.0
C2647 C 0.64398 0.71874 0.44225 0.0
C2648 C 0.63508 0.73695 0.45173 0.0
C2649 C 0.64933 0.71957 0.46255 0.0
C2650 C 0.64789 0.72917 0.47718 0.0
C2651 C 0.64039 0.7485 0.48607 0.0
C2652 C 0.63384 0.75772 0.48046 0.0
C2653 C 0.64104 0.73812 0.47184 0.0
C2654 C 0.62748 0.75606 0.46064 0.0
C2655 C 0.62812 0.7458 0.44639 0.0
H2656 H 0.28291 0.92093 0.44166 0.0
H2657 H 0.24418 0.91857 0.40814 0.0
H2658 H 0.22594 0.90124 0.43432 0.0
H2659 H 0.22093 0.88636 0.46637 0.0
H2660 H 0.25926 0.88728 0.4991 0.0
H2661 H 0.27777 0.90555 0.4737 0.0
C2662 C 0.27047 0.91662 0.44022 0.0
C2663 C 0.26483 0.92094 0.42307 0.0
C2664 C 0.26003 0.90642 0.45515 0.0
C2665 C 0.24872 0.91525 0.42117 0.0
C2666 C 0.23831 0.9054 0.43614 0.0
C2667 C 0.23336 0.89069 0.46799 0.0
C2668 C 0.2388 0.88564 0.48459 0.0
C2669 C 0.24382 0.90087 0.45314 0.0
C2670 C 0.25487 0.89106 0.4864 0.0
C2671 C 0.26542 0.90149 0.47191 0.0
H2672 H 0.07047 0.35543 0.44795 0.0
H2673 H 0.09216 0.34814 0.39452 0.0
H2674 H 0.11181 0.34747 0.41629 0.0
H2675 H 0.12261 0.34842 0.45034 0.0
H2676 H 0.10077 0.35467 0.50428 0.0
H2677 H 0.08148 0.35638 0.48248 0.0
C2678 C 0.07948 0.35365 0.44111 0.0
C2679 C 0.0799 0.35199 0.41959 0.0
C2680 C 0.09071 0.35309 0.45379 0.0
C2681 C 0.09172 0.3498 0.41096 0.0
C2682 C 0.10291 0.34928 0.42342 0.0
C2683 C 0.11355 0.35001 0.45738 0.0
C2684 C 0.11305 0.35126 0.47891 0.0
C2685 C 0.10247 0.35084 0.44482 0.0
C2686 C 0.10146 0.35374 0.48773 0.0
C2687 C 0.09038 0.35463 0.47528 0.0
H2688 H 0.06639 0.30979 0.27407 0.0
H2689 H 0.04158 0.3173 0.22494 0.0
H2690 H 0.0589 0.3154 0.19951 0.0
H2691 H 0.08229 0.31334 0.19157 0.0
H2692 H 0.10727 0.30666 0.24124 0.0
H2693 H 0.08855 0.30627 0.26614 0.0
C2694 C 0.06455 0.31068 0.25777 0.0
C2695 C 0.05271 0.31364 0.25139 0.0
C2696 C 0.07466 0.30982 0.24336 0.0
C2697 C 0.0507 0.31512 0.23024 0.0
C2698 C 0.06058 0.31401 0.21571 0.0
C2699 C 0.08346 0.31159 0.20782 0.0
C2700 C 0.09616 0.31015 0.21463 0.0
C2701 C 0.07278 0.31164 0.22212 0.0
C2702 C 0.09767 0.30799 0.23572 0.0
C2703 C 0.08697 0.30774 0.24994 0.0
H2704 H 0.6824 0.73606 0.24708 0.0
H2705 H 0.69782 0.76989 0.29639 0.0
H2706 H 0.70136 0.79023 0.27203 0.0
H2707 H 0.69856 0.798 0.23713 0.0
H2708 H 0.68265 0.76411 0.18787 0.0
H2709 H 0.68085 0.74418 0.21177 0.0
C2710 C 0.68678 0.74794 0.25241 0.0
C2711 C 0.68981 0.75147 0.27349 0.0
C2712 C 0.68858 0.75952 0.23836 0.0
C2713 C 0.69526 0.76687 0.28025 0.0
C2714 C 0.69731 0.7785 0.26634 0.0
C2715 C 0.69495 0.78632 0.23157 0.0
C2716 C 0.69072 0.78252 0.21079 0.0
C2717 C 0.69379 0.77491 0.24542 0.0
C2718 C 0.68581 0.76726 0.20386 0.0
C2719 C 0.68483 0.75589 0.21749 0.0
H2720 H 0.23266 0.93732 0.26535 0.0
H2721 H 0.27155 0.95165 0.22365 0.0
H2722 H 0.25366 0.93593 0.1962 0.0
H2723 H 0.22716 0.91669 0.18478 0.0
H2724 H 0.18832 0.90226 0.22655 0.0
H2725 H 0.20595 0.91981 0.25303 0.0
C2726 C 0.23721 0.93729 0.25014 0.0
C2727 C 0.25345 0.94553 0.24665 0.0
C2728 C 0.22686 0.92818 0.23443 0.0
C2729 C 0.25913 0.94519 0.22688 0.0
C2730 C 0.24891 0.93624 0.21114 0.0
C2731 C 0.22256 0.91746 0.19965 0.0
C2732 C 0.20648 0.90811 0.20374 0.0
C2733 C 0.23279 0.92742 0.21489 0.0
C2734 C 0.20064 0.90941 0.22296 0.0
C2735 C 0.21073 0.91936 0.23816 0.0
H2736 H 0.66191 0.91849 0.2634 0.0
H2737 H 0.71004 0.955 0.25699 0.0
H2738 H 0.71409 0.93969 0.23054 0.0
H2739 H 0.70401 0.9156 0.20977 0.0
H2740 H 0.65608 0.87883 0.21772 0.0
H2741 H 0.65194 0.89461 0.243 0.0
C2742 C 0.67335 0.92305 0.2564 0.0
C2743 C 0.68568 0.93782 0.26232 0.0
C2744 C 0.67562 0.91416 0.2414 0.0
C2745 C 0.70031 0.94371 0.25266 0.0
C2746 C 0.70265 0.93492 0.2376 0.0
C2747 C 0.69269 0.91101 0.21712 0.0
C2748 C 0.68037 0.89605 0.21172 0.0
C2749 C 0.69041 0.92008 0.23194 0.0
C2750 C 0.66571 0.89039 0.22124 0.0
C2751 C 0.66335 0.89936 0.23585 0.0
H2752 H 0.05185 0.75623 0.25413 0.0
H2753 H 0.08463 0.74005 0.26383 0.0
H2754 H 0.1018 0.75794 0.23761 0.0
H2755 H 0.10788 0.77844 0.21251 0.0
H2756 H 0.07439 0.79328 0.20016 0.0
H2757 H 0.05719 0.77565 0.2269 0.0
C2758 C 0.06264 0.75644 0.25035 0.0
C2759 C 0.06697 0.7469 0.26128 0.0
C2760 C 0.0724 0.76657 0.23482 0.0
C2761 C 0.08112 0.74752 0.25618 0.0
C2762 C 0.09093 0.75767 0.24102 0.0
C2763 C 0.09669 0.77764 0.21526 0.0
C2764 C 0.0925 0.78722 0.20419 0.0
C2765 C 0.08672 0.76728 0.23032 0.0
C2766 C 0.07808 0.78624 0.20857 0.0
C2767 C 0.06817 0.77608 0.22379 0.0
H2768 H 0.24162 0.30902 0.27726 0.0
H2769 H 0.27002 0.30627 0.22872 0.0
H2770 H 0.25136 0.30497 0.20295 0.0
H2771 H 0.22777 0.3064 0.19417 0.0
H2772 H 0.19976 0.3093 0.24315 0.0
H2773 H 0.21736 0.30856 0.26878 0.0
C2774 C 0.24358 0.30777 0.26109 0.0
C2775 C 0.2572 0.30775 0.25495 0.0
C2776 C 0.23291 0.30719 0.2464 0.0
C2777 C 0.25969 0.30647 0.23386 0.0
C2778 C 0.24901 0.3057 0.21912 0.0
C2779 C 0.22544 0.30665 0.21046 0.0
C2780 C 0.2126 0.3081 0.21675 0.0
C2781 C 0.23571 0.30634 0.22519 0.0
C2782 C 0.20973 0.30848 0.23792 0.0
C2783 C 0.21975 0.30799 0.25259 0.0
H2784 H 0.26207 0.35867 0.40274 0.0
H2785 H 0.28945 0.35173 0.4488 0.0
H2786 H 0.27245 0.35206 0.47587 0.0
H2787 H 0.24849 0.35221 0.48625 0.0
H2788 H 0.22038 0.35752 0.43978 0.0
H2789 H 0.2388 0.35966 0.41309 0.0
C2790 C 0.26431 0.35717 0.41868 0.0
C2791 C 0.27699 0.35508 0.42364 0.0
C2792 C 0.25425 0.35692 0.43412 0.0
C2793 C 0.2799 0.35353 0.44448 0.0
C2794 C 0.27009 0.35358 0.45999 0.0
C2795 C 0.24655 0.35402 0.4703 0.0
C2796 C 0.23308 0.35459 0.46493 0.0
C2797 C 0.25706 0.35499 0.45497 0.0
C2798 C 0.23059 0.35685 0.44421 0.0
C2799 C 0.24112 0.35811 0.42897 0.0
H2800 H 0.62727 0.90171 0.41832 0.0
H2801 H 0.65918 0.94089 0.45596 0.0
H2802 H 0.65674 0.92312 0.48354 0.0
H2803 H 0.64688 0.89645 0.4962 0.0
H2804 H 0.61673 0.85724 0.45739 0.0
H2805 H 0.61708 0.87504 0.43121 0.0
C2806 C 0.63376 0.90639 0.43251 0.0
C2807 C 0.64345 0.92265 0.43494 0.0
C2808 C 0.63263 0.89608 0.44816 0.0
C2809 C 0.65148 0.92847 0.45367 0.0
C2810 C 0.6502 0.9183 0.46943 0.0
C2811 C 0.64043 0.89178 0.48199 0.0
C2812 C 0.63186 0.8755 0.47882 0.0
C2813 C 0.64102 0.90208 0.46671 0.0
C2814 C 0.62328 0.86968 0.46045 0.0
C2815 C 0.62359 0.87987 0.44534 0.0
H2816 H 0.08046 0.74943 0.42654 0.0
H2817 H 0.0868 0.71045 0.44114 0.0
H2818 H 0.10571 0.72599 0.46798 0.0
H2819 H 0.12073 0.75093 0.48695 0.0
H2820 H 0.11403 0.78967 0.47191 0.0
H2821 H 0.095 0.77396 0.44558 0.0
C2822 C 0.08608 0.74437 0.43549 0.0
C2823 C 0.08236 0.72888 0.43175 0.0
C2824 C 0.09684 0.75333 0.45085 0.0
C2825 C 0.08945 0.72235 0.44378 0.0
C2826 C 0.10029 0.73125 0.45906 0.0
C2827 C 0.11512 0.75591 0.47784 0.0
C2828 C 0.11875 0.77143 0.48143 0.0
C2829 C 0.10413 0.74678 0.46267 0.0
C2830 C 0.11129 0.77769 0.46966 0.0
C2831 C 0.10047 0.76876 0.45451 0.0
H2832 H 0.3024 0.05469 0.77112 0.0
H2833 H 0.35023 0.08972 0.75804 0.0
H2834 H 0.34868 0.10733 0.78298 0.0
H2835 H 0.33372 0.11309 0.8079 0.0
H2836 H 0.28626 0.07791 0.82237 0.0
H2837 H 0.28772 0.06009 0.79747 0.0
C2838 C 0.31254 0.06611 0.7739 0.0
C2839 C 0.32636 0.0709 0.76254 0.0
C2840 C 0.31164 0.07619 0.78845 0.0
C2841 C 0.33933 0.08582 0.76621 0.0
C2842 C 0.33851 0.09589 0.78059 0.0
C2843 C 0.32375 0.10144 0.8059 0.0
C2844 C 0.30991 0.09687 0.81706 0.0
C2845 C 0.32471 0.09123 0.79171 0.0
C2846 C 0.29701 0.08183 0.81384 0.0
C2847 C 0.29786 0.07159 0.79967 0.0
H2848 H 0.92899 0.23329 0.74845 0.0
H2849 H 0.9607 0.26696 0.79271 0.0
H2850 H 0.94541 0.24971 0.82082 0.0
H2851 H 0.92246 0.22525 0.83296 0.0
H2852 H 0.89229 0.19095 0.78847 0.0
H2853 H 0.90788 0.20809 0.76028 0.0
C2854 C 0.93288 0.2368 0.76416 0.0
C2855 C 0.94599 0.25158 0.76827 0.0
C2856 C 0.9243 0.22666 0.78027 0.0
C2857 C 0.95048 0.25587 0.78893 0.0
C2858 C 0.9418 0.24595 0.80508 0.0
C2859 C 0.91943 0.22156 0.81706 0.0
C2860 C 0.90629 0.20695 0.81268 0.0
C2861 C 0.92858 0.23139 0.80094 0.0
C2862 C 0.90245 0.20214 0.79211 0.0
C2863 C 0.9113 0.21195 0.77603 0.0
H2864 H 0.7415 0.66677 0.75982 0.0
H2865 H 0.74972 0.71363 0.76755 0.0
H2866 H 0.76929 0.71872 0.79412 0.0
H2867 H 0.78468 0.71001 0.8143 0.0
H2868 H 0.77647 0.66317 0.80571 0.0
H2869 H 0.75624 0.6579 0.7804 0.0
C2870 C 0.74764 0.67813 0.76724 0.0
C2871 C 0.7443 0.68986 0.7616 0.0
C2872 C 0.75885 0.68096 0.78238 0.0
C2873 C 0.75207 0.7044 0.77168 0.0
C2874 C 0.7633 0.70733 0.78679 0.0
C2875 C 0.77846 0.69867 0.80685 0.0
C2876 C 0.78207 0.687 0.81194 0.0
C2877 C 0.76688 0.69573 0.79213 0.0
C2878 C 0.77378 0.67229 0.80233 0.0
C2879 C 0.76228 0.66929 0.78773 0.0
H2880 H 0.7417 0.65184 0.61185 0.0
H2881 H 0.71026 0.64775 0.5631 0.0
H2882 H 0.72815 0.64715 0.53747 0.0
H2883 H 0.75321 0.64862 0.52894 0.0
H2884 H 0.78439 0.6527 0.57809 0.0
H2885 H 0.76606 0.65237 0.60355 0.0
C2886 C 0.73862 0.65055 0.59564 0.0
C2887 C 0.72463 0.64977 0.58941 0.0
C2888 C 0.74897 0.65031 0.58106 0.0
C2889 C 0.721 0.64847 0.56829 0.0
C2890 C 0.73121 0.64809 0.55365 0.0
C2891 C 0.75589 0.64928 0.54524 0.0
C2892 C 0.77019 0.6508 0.55161 0.0
C2893 C 0.74529 0.64913 0.55984 0.0
C2894 C 0.77358 0.65178 0.57277 0.0
C2895 C 0.76308 0.65151 0.58735 0.0
H2896 H 0.37245 0.08631 0.58158 0.0
H2897 H 0.32429 0.06973 0.59774 0.0
H2898 H 0.32345 0.0883 0.57387 0.0
H2899 H 0.33654 0.10979 0.54944 0.0
H2900 H 0.38444 0.126 0.53205 0.0
H2901 H 0.38533 0.10732 0.55576 0.0
C2902 C 0.36179 0.08679 0.57983 0.0
C2903 C 0.34844 0.07662 0.59133 0.0
C2904 C 0.36137 0.09752 0.56604 0.0
C2905 C 0.33466 0.07727 0.58884 0.0
C2906 C 0.33419 0.08796 0.5753 0.0
C2907 C 0.34712 0.1091 0.55051 0.0
C2908 C 0.3604 0.11934 0.53892 0.0
C2909 C 0.34749 0.09817 0.56389 0.0
C2910 C 0.3741 0.11845 0.54098 0.0
C2911 C 0.3746 0.10768 0.55444 0.0
H2912 H 0.92482 0.25164 0.59352 0.0
H2913 H 0.9139 0.28849 0.58668 0.0
H2914 H 0.89412 0.27302 0.56073 0.0
H2915 H 0.88014 0.24905 0.53978 0.0
H2916 H 0.89086 0.21208 0.54772 0.0
H2917 H 0.91078 0.22776 0.57305 0.0
C2918 C 0.91824 0.25637 0.58619 0.0
C2919 C 0.92089 0.27123 0.5919 0.0
C2920 C 0.90691 0.24743 0.57139 0.0
C2921 C 0.91201 0.27704 0.58261 0.0
C2922 C 0.90075 0.26823 0.56773 0.0
C2923 C 0.88675 0.24438 0.54716 0.0
C2924 C 0.88405 0.22943 0.54167 0.0
C2925 C 0.89809 0.25339 0.56201 0.0
C2926 C 0.89287 0.22365 0.55128 0.0
C2927 C 0.9042 0.23256 0.56591 0.0
H2928 H 0.36462 0.2808 0.58195 0.0
H2929 H 0.32022 0.24333 0.6036 0.0
H2930 H 0.32146 0.22552 0.57876 0.0
H2931 H 0.33517 0.22034 0.55129 0.0
H2932 H 0.37986 0.25723 0.5299 0.0
H2933 H 0.37866 0.27541 0.55457 0.0
C2934 C 0.35528 0.26871 0.58134 0.0
C2935 C 0.34227 0.2635 0.59453 0.0
C2936 C 0.35614 0.2584 0.56714 0.0
C2937 C 0.33021 0.2478 0.59337 0.0
C2938 C 0.33095 0.23754 0.57927 0.0
C2939 C 0.34458 0.2324 0.55187 0.0
C2940 C 0.35752 0.23747 0.53869 0.0
C2941 C 0.34382 0.24271 0.56607 0.0
C2942 C 0.36979 0.25305 0.53996 0.0
C2943 C 0.36908 0.26344 0.55399 0.0
H2944 H 0.71987 0.08578 0.58416 0.0
H2945 H 0.75385 0.07208 0.59904 0.0
H2946 H 0.77138 0.08953 0.57259 0.0
H2947 H 0.77747 0.10921 0.54602 0.0
H2948 H 0.74353 0.12272 0.5302 0.0
H2949 H 0.72557 0.10479 0.55621 0.0
C2950 C 0.73104 0.0865 0.58145 0.0
C2951 C 0.73559 0.07775 0.59373 0.0
C2952 C 0.7411 0.09655 0.5661 0.0
C2953 C 0.75018 0.07892 0.59012 0.0
C2954 C 0.76018 0.08882 0.5749 0.0
C2955 C 0.76604 0.10805 0.54798 0.0
C2956 C 0.76185 0.11727 0.53613 0.0
C2957 C 0.75581 0.09776 0.56291 0.0
C2958 C 0.74711 0.11586 0.53925 0.0
C2959 C 0.73682 0.10558 0.55406 0.0
H2960 H 0.93714 0.66907 0.58109 0.0
H2961 H 0.91006 0.61935 0.59194 0.0
H2962 H 0.89054 0.61714 0.567 0.0
H2963 H 0.88037 0.6297 0.54382 0.0
H2964 H 0.90788 0.67937 0.53291 0.0
H2965 H 0.92819 0.68116 0.55593 0.0
C2966 C 0.92717 0.65767 0.5777 0.0
C2967 C 0.92508 0.64441 0.58845 0.0
C2968 C 0.91602 0.65649 0.56339 0.0
C2969 C 0.91187 0.6298 0.58411 0.0
C2970 C 0.90073 0.62851 0.56979 0.0
C2971 C 0.89095 0.64085 0.54619 0.0
C2972 C 0.89255 0.65441 0.53683 0.0
C2973 C 0.90256 0.64183 0.55958 0.0
C2974 C 0.90625 0.66881 0.54021 0.0
C2975 C 0.91789 0.66984 0.55332 0.0
H2976 H 0.93052 0.69698 0.73808 0.0
H2977 H 0.95786 0.69065 0.7848 0.0
H2978 H 0.94259 0.69417 0.81172 0.0
H2979 H 0.91983 0.69663 0.82198 0.0
H2980 H 0.89172 0.70134 0.77494 0.0
H2981 H 0.90875 0.70063 0.7482 0.0
C2982 C 0.93314 0.69634 0.75414 0.0
C2983 C 0.94524 0.6934 0.75934 0.0
C2984 C 0.92405 0.69793 0.76952 0.0
C2985 C 0.94871 0.69301 0.78028 0.0
C2986 C 0.93988 0.69489 0.79572 0.0
C2987 C 0.91761 0.69772 0.80587 0.0
C2988 C 0.9045 0.6989 0.80039 0.0
C2989 C 0.92732 0.69703 0.79052 0.0
C2990 C 0.90165 0.70021 0.77949 0.0
C2991 C 0.91139 0.69984 0.7642 0.0
H2992 H 0.29476 0.23552 0.75458 0.0
H2993 H 0.32342 0.2751 0.79354 0.0
H2994 H 0.32179 0.25756 0.82117 0.0
H2995 H 0.31351 0.23104 0.83344 0.0
H2996 H 0.28599 0.19155 0.79363 0.0
H2997 H 0.28553 0.20894 0.76743 0.0
C2998 C 0.30041 0.24027 0.76926 0.0
C2999 C 0.30923 0.25656 0.77202 0.0
C3000 C 0.29964 0.23013 0.78493 0.0
C3001 C 0.31667 0.26259 0.79101 0.0
C3002 C 0.31574 0.25257 0.8068 0.0
C3003 C 0.30743 0.22623 0.81902 0.0
C3004 C 0.29985 0.20999 0.81556 0.0
C3005 C 0.30751 0.23633 0.80378 0.0
C3006 C 0.29177 0.20396 0.7969 0.0
C3007 C 0.29161 0.21392 0.78179 0.0
H3008 H 0.7374 0.05845 0.7854 0.0
H3009 H 0.77281 0.06041 0.74445 0.0
H3010 H 0.79315 0.07752 0.76858 0.0
H3011 H 0.80097 0.09315 0.80024 0.0
H3012 H 0.76555 0.09016 0.84206 0.0
H3013 H 0.74514 0.07216 0.81861 0.0
C3014 C 0.74953 0.06233 0.7819 0.0
C3015 C 0.75352 0.05823 0.76299 0.0
C3016 C 0.7612 0.07211 0.79591 0.0
C3017 C 0.76937 0.06361 0.75867 0.0
C3018 C 0.78104 0.07334 0.77252 0.0
C3019 C 0.7888 0.08834 0.80448 0.0
C3020 C 0.78487 0.09317 0.82286 0.0
C3021 C 0.7771 0.07786 0.79103 0.0
C3022 C 0.76897 0.08694 0.82784 0.0
C3023 C 0.75727 0.07655 0.81449 0.0
H3024 H 0.08143 0.35843 0.0606 0.0
H3025 H 0.04644 0.30973 0.05398 0.0
H3026 H 0.06352 0.30214 0.07129 0.0
H3027 H 0.08795 0.30935 0.08961 0.0
H3028 H 0.12293 0.35806 0.09625 0.0
H3029 H 0.10615 0.36561 0.07806 0.0
C3030 C 0.07752 0.34616 0.06303 0.0
C3031 C 0.06267 0.33468 0.05601 0.0
C3032 C 0.08734 0.34187 0.07316 0.0
C3033 C 0.05789 0.31882 0.05899 0.0
C3034 C 0.0676 0.31446 0.06902 0.0
C3035 C 0.09199 0.32161 0.08686 0.0
C3036 C 0.10665 0.33311 0.09442 0.0
C3037 C 0.08231 0.32589 0.07629 0.0
C3038 C 0.11159 0.34896 0.09093 0.0
C3039 C 0.10205 0.3533 0.08041 0.0
H3040 H 0.67174 0.72174 0.07541 0.0
H3041 H 0.65329 0.73283 0.02194 0.0
H3042 H 0.65871 0.75748 0.03782 0.0
H3043 H 0.66834 0.7757 0.06708 0.0
H3044 H 0.6864 0.76444 0.1208 0.0
H3045 H 0.68157 0.74008 0.10459 0.0
C3046 C 0.6688 0.7295 0.06732 0.0
C3047 C 0.66206 0.72543 0.04757 0.0
C3048 C 0.67193 0.74365 0.07654 0.0
C3049 C 0.65859 0.73575 0.03709 0.0
C3050 C 0.66163 0.74981 0.04619 0.0
C3051 C 0.67114 0.76787 0.07528 0.0
C3052 C 0.67769 0.77186 0.09513 0.0
C3053 C 0.66824 0.75385 0.06593 0.0
C3054 C 0.68151 0.76172 0.10541 0.0
C3055 C 0.67865 0.74775 0.09622 0.0
H3056 H 0.28087 0.92877 0.07057 0.0
H3057 H 0.25811 0.94257 0.02551 0.0
H3058 H 0.23265 0.92471 0.04086 0.0
H3059 H 0.21691 0.90548 0.06757 0.0
H3060 H 0.23975 0.89145 0.11218 0.0
H3061 H 0.26515 0.90916 0.09665 0.0
C3062 C 0.27032 0.92789 0.06416 0.0
C3063 C 0.27135 0.937 0.047 0.0
C3064 C 0.25577 0.9176 0.07304 0.0
C3065 C 0.25759 0.93557 0.03862 0.0
C3066 C 0.24305 0.92544 0.04747 0.0
C3067 C 0.22749 0.90639 0.0739 0.0
C3068 C 0.22652 0.89725 0.091 0.0
C3069 C 0.24202 0.91647 0.06475 0.0
C3070 C 0.24024 0.89833 0.09894 0.0
C3071 C 0.25474 0.90847 0.09011 0.0
H3072 H 0.34189 0.07717 0.98527 0.0
H3073 H 0.33229 0.04861 0.93089 0.0
H3074 H 0.32519 0.06552 0.91204 0.0
H3075 H 0.32176 0.08848 0.91099 0.0
H3076 H 0.33195 0.11741 0.96505 0.0
H3077 H 0.33871 0.1003 0.98411 0.0
C3078 C 0.33818 0.07464 0.96932 0.0
C3079 C 0.33763 0.0617 0.95946 0.0
C3080 C 0.33421 0.08446 0.95854 0.0
C3081 C 0.33297 0.05863 0.93872 0.0
C3082 C 0.32884 0.06823 0.92798 0.0
C3083 C 0.32535 0.09093 0.92699 0.0
C3084 C 0.32631 0.10411 0.93666 0.0
C3085 C 0.3294 0.08117 0.93773 0.0
C3086 C 0.33121 0.10735 0.95729 0.0
C3087 C 0.33504 0.09757 0.96818 0.0
H3088 H 0.94659 0.2627 0.97802 0.0
H3089 H 0.92529 0.28844 0.95457 0.0
H3090 H 0.90588 0.26525 0.93615 0.0
H3091 H 0.89546 0.23795 0.92579 0.0
H3092 H 0.91667 0.21211 0.94914 0.0
H3093 H 0.93593 0.23521 0.96795 0.0
C3094 C 0.93776 0.26326 0.96879 0.0
C3095 C 0.93741 0.27731 0.96773 0.0
C3096 C 0.92672 0.24992 0.95802 0.0
C3097 C 0.92571 0.27774 0.95594 0.0
C3098 C 0.91468 0.26451 0.94525 0.0
C3099 C 0.90419 0.2373 0.93517 0.0
C3100 C 0.9046 0.22329 0.93603 0.0
C3101 C 0.91512 0.25057 0.9461 0.0
C3102 C 0.9162 0.22278 0.94796 0.0
C3103 C 0.92715 0.23596 0.95885 0.0
H3104 H 0.73893 0.6836 0.97083 0.0
H3105 H 0.71354 0.64071 0.93639 0.0
H3106 H 0.73777 0.64551 0.91966 0.0
H3107 H 0.7661 0.66212 0.91453 0.0
H3108 H 0.79135 0.70569 0.94758 0.0
H3109 H 0.76727 0.70049 0.9652 0.0
C3110 C 0.73878 0.67529 0.95975 0.0
C3111 C 0.72457 0.6618 0.95486 0.0
C3112 C 0.75269 0.67829 0.94996 0.0
C3113 C 0.72439 0.6512 0.94029 0.0
C3114 C 0.73821 0.65393 0.93078 0.0
C3115 C 0.7663 0.6704 0.92571 0.0
C3116 C 0.78042 0.6842 0.92992 0.0
C3117 C 0.75241 0.66745 0.93546 0.0
C3118 C 0.78057 0.695 0.94412 0.0
C3119 C 0.76684 0.69201 0.9542 0.0
H3120 H 0.92989 0.67065 0.9783 0.0
H3121 H 0.94183 0.65409 0.9235 0.0
H3122 H 0.92565 0.66101 0.90272 0.0
H3123 H 0.90865 0.67233 0.89995 0.0
H3124 H 0.89609 0.68828 0.95485 0.0
H3125 H 0.91235 0.68148 0.9756 0.0
C3126 C 0.92897 0.6686 0.9618 0.0
C3127 C 0.937 0.66181 0.95249 0.0
C3128 C 0.91969 0.67266 0.94991 0.0
C3129 C 0.93557 0.65908 0.93111 0.0
C3130 C 0.92642 0.66314 0.91919 0.0
C3131 C 0.90931 0.67417 0.91648 0.0
C3132 C 0.90118 0.68089 0.92574 0.0
C3133 C 0.91846 0.66997 0.92841 0.0
C3134 C 0.90243 0.68341 0.94719 0.0
C3135 C 0.91163 0.67939 0.95913 0.0
H3136 H 0.3402 0.26895 0.98329 0.0
H3137 H 0.32461 0.2848 0.93148 0.0
H3138 H 0.31724 0.2605 0.91307 0.0
H3139 H 0.3158 0.23497 0.91135 0.0
H3140 H 0.33177 0.21927 0.96291 0.0
H3141 H 0.33832 0.24321 0.98181 0.0
C3142 C 0.33506 0.267 0.96805 0.0
C3143 C 0.33301 0.27867 0.95873 0.0
C3144 C 0.33093 0.25304 0.9575 0.0
C3145 C 0.3265 0.27608 0.93887 0.0
C3146 C 0.32221 0.26215 0.92838 0.0
C3147 C 0.32056 0.23674 0.92681 0.0
C3148 C 0.32331 0.2254 0.93573 0.0
C3149 C 0.32445 0.25059 0.93749 0.0
C3150 C 0.32968 0.22791 0.95566 0.0
C3151 C 0.33339 0.24157 0.96649 0.0
H3152 H 0.72168 0.0746 0.96134 0.0
H3153 H 0.74118 0.04737 0.98522 0.0
H3154 H 0.76661 0.0658 0.97032 0.0
H3155 H 0.7831 0.08932 0.94994 0.0
H3156 H 0.76329 0.11601 0.925 0.0
H3157 H 0.73829 0.09833 0.94132 0.0
C3158 C 0.73156 0.07283 0.96349 0.0
C3159 C 0.72958 0.05966 0.97433 0.0
C3160 C 0.74608 0.08338 0.95474 0.0
C3161 C 0.7424 0.05736 0.97675 0.0
C3162 C 0.75694 0.0679 0.9683 0.0
C3163 C 0.77329 0.09122 0.94795 0.0
C3164 C 0.7751 0.10398 0.93624 0.0
C3165 C 0.75887 0.08086 0.95709 0.0
C3166 C 0.76231 0.10641 0.93415 0.0
C3167 C 0.74797 0.09624 0.94336 0.0
H3168 H 0.65578 0.92074 0.04299 0.0
H3169 H 0.67591 0.95442 0.09237 0.0
H3170 H 0.68191 0.93679 0.11125 0.0
H3171 H 0.68126 0.91174 0.11394 0.0
H3172 H 0.66237 0.87862 0.06379 0.0
H3173 H 0.65616 0.89616 0.04501 0.0
C3174 C 0.66165 0.92433 0.05776 0.0
C3175 C 0.66529 0.93888 0.06625 0.0
C3176 C 0.66528 0.91422 0.06845 0.0
C3177 C 0.67269 0.94318 0.0856 0.0
C3178 C 0.67624 0.93315 0.09636 0.0
C3179 C 0.67598 0.90843 0.09878 0.0
C3180 C 0.67225 0.89384 0.09035 0.0
C3181 C 0.67257 0.91863 0.08795 0.0
C3182 C 0.66516 0.88967 0.07082 0.0
C3183 C 0.66167 0.89973 0.06 0.0
H3184 H 0.07179 0.71868 0.0632 0.0
H3185 H 0.05539 0.74189 0.02265 0.0
H3186 H 0.07315 0.767 0.03894 0.0
H3187 H 0.09288 0.78224 0.06538 0.0
H3188 H 0.10938 0.75894 0.10562 0.0
H3189 H 0.09199 0.73395 0.08887 0.0
C3190 C 0.0721 0.72925 0.05798 0.0
C3191 C 0.06227 0.72845 0.04183 0.0
C3192 C 0.0823 0.74359 0.0674 0.0
C3193 C 0.06295 0.74224 0.03496 0.0
C3194 C 0.07302 0.75658 0.04434 0.0
C3195 C 0.09259 0.77166 0.07049 0.0
C3196 C 0.10232 0.77238 0.08673 0.0
C3197 C 0.08265 0.75737 0.06069 0.0
C3198 C 0.10204 0.75866 0.09305 0.0
C3199 C 0.09208 0.74438 0.08354 0.0
H3200 H 0.26285 0.33366 0.04017 0.0
H3201 H 0.29116 0.34781 0.09516 0.0
H3202 H 0.26821 0.34164 0.11605 0.0
H3203 H 0.24017 0.33224 0.11872 0.0
H3204 H 0.21193 0.31895 0.06362 0.0
H3205 H 0.23469 0.32434 0.04286 0.0
C3206 C 0.26395 0.33529 0.05674 0.0
C3207 C 0.27868 0.34124 0.06609 0.0
C3208 C 0.25072 0.33177 0.06866 0.0
C3209 C 0.27998 0.34344 0.08756 0.0
C3210 C 0.26686 0.33984 0.09953 0.0
C3211 C 0.23899 0.33066 0.10215 0.0
C3212 C 0.22432 0.3252 0.0928 0.0
C3213 C 0.25218 0.33406 0.09024 0.0
C3214 C 0.22301 0.32292 0.07132 0.0
C3215 C 0.23605 0.32612 0.05938 0.0
H3216 H 0.7324 0.68176 0.41883 0.0
H3217 H 0.73483 0.66095 0.36153 0.0
H3218 H 0.75416 0.6552 0.37639 0.0
H3219 H 0.7705 0.65638 0.40563 0.0
H3220 H 0.76674 0.67587 0.46355 0.0
H3221 H 0.748 0.68208 0.44837 0.0
C3222 C 0.73728 0.67608 0.40958 0.0
C3223 C 0.73235 0.67189 0.38911 0.0
C3224 C 0.74816 0.67262 0.41831 0.0
C3225 C 0.73848 0.66426 0.37735 0.0
C3226 C 0.74952 0.661 0.38583 0.0
C3227 C 0.76545 0.66181 0.41503 0.0
C3228 C 0.77018 0.66576 0.43568 0.0
C3229 C 0.75442 0.6651 0.40632 0.0
C3230 C 0.76361 0.67299 0.4475 0.0
C3231 C 0.75279 0.67645 0.43889 0.0
H3232 H 0.30946 0.05019 0.40184 0.0
H3233 H 0.35439 0.06964 0.37189 0.0
H3234 H 0.36269 0.09494 0.38804 0.0
H3235 H 0.35711 0.1116 0.41053 0.0
H3236 H 0.31241 0.09187 0.44116 0.0
H3237 H 0.30414 0.06661 0.42497 0.0
C3238 C 0.32113 0.05992 0.399 0.0
C3239 C 0.33126 0.05801 0.38563 0.0
C3240 C 0.32586 0.0744 0.40844 0.0
C3241 C 0.34626 0.07083 0.38187 0.0
C3242 C 0.35106 0.08528 0.39121 0.0
C3243 C 0.34563 0.10173 0.41382 0.0
C3244 C 0.33538 0.10364 0.42697 0.0
C3245 C 0.34095 0.0872 0.40451 0.0
C3246 C 0.32045 0.09078 0.43086 0.0
C3247 C 0.31573 0.0763 0.4217 0.0
H3248 H 0.94821 0.26164 0.39781 0.0
H3249 H 0.92797 0.28913 0.37741 0.0
H3250 H 0.90302 0.27043 0.39307 0.0
H3251 H 0.88693 0.24625 0.41251 0.0
H3252 H 0.90739 0.21915 0.43368 0.0
H3253 H 0.93227 0.23774 0.41778 0.0
C3254 C 0.93839 0.26362 0.39696 0.0
C3255 C 0.93996 0.27675 0.38642 0.0
C3256 C 0.9241 0.25287 0.40609 0.0
C3257 C 0.92703 0.27901 0.38518 0.0
C3258 C 0.91278 0.26837 0.39424 0.0
C3259 C 0.89687 0.24449 0.4138 0.0
C3260 C 0.89528 0.23131 0.42423 0.0
C3261 C 0.91118 0.25526 0.40472 0.0
C3262 C 0.90823 0.22908 0.4255 0.0
C3263 C 0.92249 0.23975 0.41652 0.0
H3264 H 0.99006 0.39884 0.31048 0.0
H3265 H 0.0314 0.41163 0.27441 0.0
H3266 H 0.02824 0.43167 0.25657 0.0
H3267 H 0.01326 0.44498 0.2506 0.0
H3268 H 0.97115 0.4313 0.28537 0.0
H3269 H 0.97498 0.41211 0.30438 0.0
C3270 C 0.99842 0.40614 0.29884 0.0
C3271 C 0.01097 0.40389 0.29376 0.0
C3272 C 0.99633 0.41737 0.28839 0.0
C3273 C 0.02164 0.4132 0.27846 0.0
C3274 C 0.01984 0.42463 0.26831 0.0
C3275 C 0.00502 0.43787 0.26247 0.0
C3276 C 0.992 0.43954 0.2667 0.0
C3277 C 0.00717 0.42674 0.27304 0.0
C3278 C 0.98123 0.43012 0.28184 0.0
C3279 C 0.98344 0.41921 0.29272 0.0
H3280 H 0.59542 0.61918 0.28348 0.0
H3281 H 0.61428 0.59545 0.31861 0.0
H3282 H 0.59656 0.57087 0.30122 0.0
H3283 H 0.57595 0.5562 0.27567 0.0
H3284 H 0.55706 0.57991 0.2406 0.0
H3285 H 0.57457 0.60444 0.25827 0.0
C3286 C 0.59569 0.60863 0.28724 0.0
C3287 C 0.60616 0.60913 0.30227 0.0
C3288 C 0.58548 0.59456 0.27719 0.0
C3289 C 0.60622 0.59533 0.30724 0.0
C3290 C 0.59616 0.5813 0.29722 0.0
C3291 C 0.57576 0.56677 0.27183 0.0
C3292 C 0.56528 0.56628 0.25683 0.0
C3293 C 0.5858 0.5808 0.28211 0.0
C3294 C 0.56495 0.57999 0.25221 0.0
C3295 C 0.57499 0.59402 0.26224 0.0
H3296 H 0.3904 0.97785 0.30877 0.0
H3297 H 0.38245 0.00682 0.2665 0.0
H3298 H 0.40639 0.01317 0.24805 0.0
H3299 H 0.42941 0.0103 0.24358 0.0
H3300 H 0.43823 0.98253 0.28686 0.0
H3301 H 0.41416 0.97599 0.30525 0.0
C3302 C 0.39398 0.9857 0.29568 0.0
C3303 C 0.38452 0.99172 0.28898 0.0
C3304 C 0.40792 0.98951 0.28526 0.0
C3305 C 0.3893 0.00172 0.27178 0.0
C3306 C 0.40307 0.00548 0.26129 0.0
C3307 C 0.42621 0.003 0.2572 0.0
C3308 C 0.43563 0.99689 0.26375 0.0
C3309 C 0.41244 0.99941 0.26785 0.0
C3310 C 0.4311 0.98721 0.28126 0.0
C3311 C 0.41737 0.98352 0.29187 0.0
H3312 H 0.60374 0.98812 0.26886 0.0
H3313 H 0.58348 0.98398 0.329 0.0
H3314 H 0.56311 0.98816 0.31409 0.0
H3315 H 0.55137 0.99344 0.28388 0.0
H3316 H 0.57268 0.99915 0.22413 0.0
H3317 H 0.59236 0.9939 0.23885 0.0
C3318 C 0.59477 0.98803 0.27862 0.0
C3319 C 0.59496 0.98565 0.29991 0.0
C3320 C 0.58336 0.99077 0.27 0.0
C3321 C 0.5835 0.98581 0.31254 0.0
C3322 C 0.57188 0.98818 0.30403 0.0
C3323 C 0.5603 0.99343 0.27414 0.0
C3324 C 0.56063 0.9966 0.25301 0.0
C3325 C 0.57173 0.99072 0.28279 0.0
C3326 C 0.57232 0.99679 0.24048 0.0
C3327 C 0.58351 0.99376 0.24887 0.0
H3328 H 0.00193 0.61626 0.27468 0.0
H3329 H 0.00875 0.60023 0.33337 0.0
H3330 H 0.00303 0.57531 0.31779 0.0
H3331 H 0.99655 0.55831 0.28722 0.0
H3332 H 0.98872 0.57402 0.22888 0.0
H3333 H 0.9943 0.59884 0.24453 0.0
C3334 C 0.00219 0.60729 0.284 0.0
C3335 C 0.00587 0.61004 0.30505 0.0
C3336 C 0.99869 0.59297 0.275 0.0
C3337 C 0.00592 0.5983 0.31711 0.0
C3338 C 0.0027 0.58411 0.30821 0.0
C3339 C 0.99608 0.56721 0.27799 0.0
C3340 C 0.99231 0.56444 0.25695 0.0
C3341 C 0.99914 0.58135 0.28714 0.0
C3342 C 0.99152 0.57591 0.24515 0.0
C3343 C 0.99477 0.5901 0.25406 0.0
H3344 H 0.40396 0.41026 0.31006 0.0
H3345 H 0.38547 0.38138 0.2559 0.0
H3346 H 0.40913 0.39902 0.23664 0.0
H3347 H 0.43495 0.42292 0.2351 0.0
H3348 H 0.453 0.45229 0.28889 0.0
H3349 H 0.42971 0.43419 0.30849 0.0
C3350 C 0.40519 0.40781 0.29408 0.0
C3351 C 0.39304 0.39457 0.28439 0.0
C3352 C 0.41873 0.41808 0.28307 0.0
C3353 C 0.39464 0.39159 0.26361 0.0
C3354 C 0.40818 0.40163 0.25263 0.0
C3355 C 0.43379 0.42524 0.25116 0.0
C3356 C 0.44562 0.43884 0.26061 0.0
C3357 C 0.42028 0.41493 0.26219 0.0
C3358 C 0.44396 0.4419 0.28132 0.0
C3359 C 0.43068 0.43156 0.29251 0.0
H3360 H 0.32538 0.25795 0.37144 0.0
H3361 H 0.34741 0.29236 0.4196 0.0
H3362 H 0.35337 0.27466 0.43844 0.0
H3363 H 0.35198 0.24927 0.44154 0.0
H3364 H 0.33059 0.21511 0.39298 0.0
H3365 H 0.32478 0.23287 0.37398 0.0
C3366 C 0.33164 0.26164 0.38594 0.0
C3367 C 0.33587 0.27643 0.39412 0.0
C3368 C 0.33511 0.25144 0.39666 0.0
C3369 C 0.34379 0.28094 0.41309 0.0
C3370 C 0.34729 0.27087 0.42383 0.0
C3371 C 0.34622 0.24579 0.42668 0.0
C3372 C 0.3417 0.23087 0.41873 0.0
C3373 C 0.34296 0.25607 0.4158 0.0
C3374 C 0.33402 0.22644 0.39959 0.0
C3375 C 0.33075 0.23662 0.38866 0.0
H3376 H 0.74018 0.05223 0.39369 0.0
H3377 H 0.71121 0.07084 0.37341 0.0
H3378 H 0.72968 0.09625 0.38818 0.0
H3379 H 0.75379 0.11306 0.40755 0.0
H3380 H 0.78176 0.09376 0.42955 0.0
H3381 H 0.76389 0.06876 0.41349 0.0
C3382 C 0.73779 0.06178 0.39265 0.0
C3383 C 0.72428 0.05955 0.38246 0.0
C3384 C 0.7483 0.07627 0.4015 0.0
C3385 C 0.7216 0.07222 0.38091 0.0
C3386 C 0.7321 0.08675 0.3895 0.0
C3387 C 0.75591 0.10335 0.40898 0.0
C3388 C 0.76918 0.10536 0.41968 0.0
C3389 C 0.74544 0.08888 0.39995 0.0
C3390 C 0.77183 0.09268 0.42111 0.0
C3391 C 0.76154 0.07832 0.41205 0.0
H3392 H 0.93466 0.65454 0.39219 0.0
H3393 H 0.94938 0.70287 0.37977 0.0
H3394 H 0.9256 0.69961 0.39585 0.0
H3395 H 0.90103 0.68329 0.41438 0.0
H3396 H 0.88619 0.63496 0.42672 0.0
H3397 H 0.9094 0.63785 0.40918 0.0
C3398 C 0.93256 0.6643 0.39269 0.0
C3399 C 0.94387 0.67896 0.3849 0.0
C3400 C 0.91882 0.66234 0.4019 0.0
C3401 C 0.94102 0.69153 0.38596 0.0
C3402 C 0.92739 0.68966 0.39505 0.0
C3403 C 0.90289 0.6734 0.41324 0.0
C3404 C 0.89195 0.65896 0.42193 0.0
C3405 C 0.9163 0.67518 0.4033 0.0
C3406 C 0.89437 0.64617 0.42002 0.0
C3407 C 0.90769 0.64784 0.41012 0.0
H3408 H 0.41638 0.02957 0.73438 0.0
H3409 H 0.38832 0.98194 0.71351 0.0
H3410 H 0.40621 0.97503 0.73012 0.0
H3411 H 0.42923 0.98233 0.75163 0.0
H3412 H 0.45815 0.03038 0.77087 0.0
H3413 H 0.44033 0.03722 0.75424 0.0
C3414 C 0.41422 0.01769 0.7335 0.0
C3415 C 0.40106 0.00626 0.72283 0.0
C3416 C 0.42461 0.01384 0.74295 0.0
C3417 C 0.39845 0.99095 0.72154 0.0
C3418 C 0.40863 0.98698 0.73111 0.0
C3419 C 0.43182 0.99436 0.75194 0.0
C3420 C 0.445 0.00576 0.76271 0.0
C3421 C 0.4217 0.99832 0.74195 0.0
C3422 C 0.44794 0.02125 0.76314 0.0
C3423 C 0.43781 0.02522 0.75347 0.0
H3424 H 0.98674 0.39347 0.70829 0.0
H3425 H 0.01018 0.38211 0.7554 0.0
H3426 H 0.01695 0.40629 0.7736 0.0
H3427 H 0.01603 0.43057 0.77634 0.0
H3428 H 0.99358 0.44249 0.72847 0.0
H3429 H 0.9867 0.41823 0.71034 0.0
C3430 C 0.99348 0.39636 0.72241 0.0
C3431 C 0.99786 0.38592 0.73048 0.0
C3432 C 0.99751 0.41038 0.7327 0.0
C3433 C 0.0064 0.38977 0.74899 0.0
C3434 C 0.01038 0.40366 0.75936 0.0
C3435 C 0.00981 0.42796 0.76181 0.0
C3436 C 0.0053 0.43832 0.75384 0.0
C3437 C 0.00598 0.41404 0.75137 0.0
C3438 C 0.99701 0.43462 0.73513 0.0
C3439 C 0.99314 0.42079 0.72468 0.0
H3440 H 0.60023 0.58794 0.70384 0.0
H3441 H 0.61111 0.62325 0.75037 0.0
H3442 H 0.58704 0.60573 0.76861 0.0
H3443 H 0.56295 0.58045 0.77148 0.0
H3444 H 0.55107 0.54577 0.72378 0.0
H3445 H 0.57548 0.56304 0.70589 0.0
C3446 C 0.59727 0.5919 0.71784 0.0
C3447 C 0.60759 0.60689 0.72574 0.0
C3448 C 0.58323 0.58188 0.72809 0.0
C3449 C 0.60361 0.61168 0.7441 0.0
C3450 C 0.58976 0.60171 0.75449 0.0
C3451 C 0.56556 0.57672 0.75702 0.0
C3452 C 0.55515 0.56179 0.74905 0.0
C3453 C 0.57949 0.58679 0.74663 0.0
C3454 C 0.55894 0.55709 0.73048 0.0
C3455 C 0.57287 0.567 0.72015 0.0
H3456 H 0.68539 0.73874 0.61134 0.0
H3457 H 0.64898 0.72464 0.65691 0.0
H3458 H 0.64105 0.74224 0.64179 0.0
H3459 H 0.64423 0.76133 0.61518 0.0
H3460 H 0.6811 0.77594 0.57022 0.0
H3461 H 0.6891 0.75842 0.58544 0.0
C3462 C 0.67571 0.73953 0.6179 0.0
C3463 C 0.66774 0.73041 0.63514 0.0
C3464 C 0.67129 0.74972 0.60921 0.0
C3465 C 0.65536 0.73166 0.64372 0.0
C3466 C 0.65077 0.74164 0.63502 0.0
C3467 C 0.65397 0.7606 0.60873 0.0
C3468 C 0.66204 0.76981 0.59161 0.0
C3469 C 0.6586 0.75066 0.6177 0.0
C3470 C 0.67479 0.76898 0.58349 0.0
C3471 C 0.67932 0.75896 0.59213 0.0
H3472 H 0.25941 0.93526 0.6588 0.0
H3473 H 0.2859 0.95816 0.60423 0.0
H3474 H 0.26891 0.93507 0.58354 0.0
H3475 H 0.24646 0.9083 0.58099 0.0
H3476 H 0.21927 0.88582 0.63526 0.0
H3477 H 0.23658 0.90872 0.65611 0.0
C3478 C 0.26142 0.93513 0.64238 0.0
C3479 C 0.27381 0.94834 0.633 0.0
C3480 C 0.25151 0.92189 0.63057 0.0
C3481 C 0.27629 0.94816 0.6117 0.0
C3482 C 0.26665 0.93495 0.5999 0.0
C3483 C 0.24443 0.90844 0.59741 0.0
C3484 C 0.23172 0.89545 0.60666 0.0
C3485 C 0.25423 0.92174 0.60918 0.0
C3486 C 0.229 0.89577 0.62786 0.0
C3487 C 0.23888 0.90882 0.63976 0.0
H3488 H 0.06929 0.32562 0.65018 0.0
H3489 H 0.04418 0.32297 0.59454 0.0
H3490 H 0.0668 0.32792 0.57384 0.0
H3491 H 0.09369 0.33302 0.57144 0.0
H3492 H 0.11915 0.33631 0.6269 0.0
H3493 H 0.09655 0.33151 0.6478 0.0
C3494 C 0.06881 0.32628 0.63354 0.0
C3495 C 0.05498 0.32377 0.62396 0.0
C3496 C 0.08195 0.32933 0.6217 0.0
C3497 C 0.05454 0.32452 0.60234 0.0
C3498 C 0.06752 0.32747 0.59047 0.0
C3499 C 0.09425 0.33259 0.5881 0.0
C3500 C 0.10802 0.33493 0.59761 0.0
C3501 C 0.08124 0.32982 0.59997 0.0
C3502 C 0.1087 0.33465 0.61923 0.0
C3503 C 0.09576 0.33183 0.63117 0.0
H3504 H 0.25134 0.3043 0.62363 0.0
H3505 H 0.28558 0.35306 0.63215 0.0
H3506 H 0.26903 0.36057 0.61332 0.0
H3507 H 0.24517 0.35331 0.59355 0.0
H3508 H 0.21098 0.30454 0.58499 0.0
H3509 H 0.22739 0.29705 0.6042 0.0
C3510 C 0.25524 0.31657 0.62126 0.0
C3511 C 0.26969 0.32808 0.62933 0.0
C3512 C 0.24574 0.32082 0.61022 0.0
C3513 C 0.27442 0.34394 0.62638 0.0
C3514 C 0.26501 0.34826 0.61546 0.0
C3515 C 0.24124 0.34105 0.59604 0.0
C3516 C 0.22688 0.32952 0.58774 0.0
C3517 C 0.25068 0.3368 0.60725 0.0
C3518 C 0.22208 0.31367 0.59089 0.0
C3519 C 0.23141 0.30936 0.60201 0.0
H3520 H 0.65133 0.92805 0.64352 0.0
H3521 H 0.69744 0.95433 0.61688 0.0
H3522 H 0.69305 0.9314 0.59728 0.0
H3523 H 0.67598 0.90409 0.5871 0.0
H3524 H 0.62987 0.87768 0.61365 0.0
H3525 H 0.63424 0.90059 0.6334 0.0
C3526 C 0.66038 0.92878 0.63333 0.0
C3527 C 0.67472 0.94289 0.63177 0.0
C3528 C 0.65774 0.91558 0.62193 0.0
C3529 C 0.68639 0.94357 0.61867 0.0
C3530 C 0.68386 0.93049 0.60732 0.0
C3531 C 0.66694 0.90329 0.59736 0.0
C3532 C 0.65262 0.88917 0.59888 0.0
C3533 C 0.66957 0.91645 0.60881 0.0
C3534 C 0.64092 0.88844 0.61197 0.0
C3535 C 0.64345 0.90151 0.62339 0.0
H3536 H 0.06783 0.74176 0.65226 0.0
H3537 H 0.05176 0.71187 0.59866 0.0
H3538 H 0.07539 0.73013 0.57994 0.0
H3539 H 0.10044 0.75478 0.57859 0.0
H3540 H 0.11658 0.78469 0.63214 0.0
H3541 H 0.09314 0.76622 0.6511 0.0
C3542 C 0.06958 0.73918 0.63655 0.0
C3543 C 0.05804 0.72551 0.62686 0.0
C3544 C 0.08318 0.74975 0.62585 0.0
C3545 C 0.06037 0.72243 0.60639 0.0
C3546 C 0.07391 0.73281 0.5957 0.0
C3547 C 0.09889 0.75716 0.59448 0.0
C3548 C 0.11022 0.77107 0.60394 0.0
C3549 C 0.08537 0.74654 0.60525 0.0
C3550 C 0.10794 0.77413 0.62444 0.0
C3551 C 0.09458 0.76355 0.63532 0.0
H3552 H 0.01354 0.60849 0.71473 0.0
H3553 H 0.96759 0.58813 0.7419 0.0
H3554 H 0.97141 0.56821 0.75871 0.0
H3555 H 0.98792 0.55682 0.76605 0.0
H3556 H 0.03386 0.57705 0.73887 0.0
H3557 H 0.02995 0.59683 0.72171 0.0
C3558 C 0.00431 0.59958 0.72416 0.0
C3559 C 0.9903 0.59976 0.72706 0.0
C3560 C 0.00661 0.58821 0.73383 0.0
C3561 C 0.97854 0.58832 0.73959 0.0
C3562 C 0.98069 0.5769 0.74914 0.0
C3563 C 0.99701 0.56545 0.75619 0.0
C3564 C 0.01113 0.56545 0.75368 0.0
C3565 C 0.99469 0.57676 0.74642 0.0
C3566 C 0.02293 0.5769 0.74118 0.0
C3567 C 0.02067 0.58815 0.7313 0.0
H3568 H 0.38455 0.39919 0.71425 0.0
H3569 H 0.41012 0.37661 0.73358 0.0
H3570 H 0.42902 0.40036 0.75147 0.0
H3571 H 0.43807 0.42733 0.76204 0.0
H3572 H 0.41339 0.45048 0.74129 0.0
H3573 H 0.39428 0.42664 0.72368 0.0
C3574 C 0.39438 0.39953 0.72212 0.0
C3575 C 0.39587 0.38609 0.72259 0.0
C3576 C 0.40529 0.41327 0.73227 0.0
C3577 C 0.40855 0.38668 0.73319 0.0
C3578 C 0.41941 0.40029 0.74336 0.0
C3579 C 0.42865 0.42727 0.75344 0.0
C3580 C 0.42722 0.44074 0.75302 0.0
C3581 C 0.41786 0.41362 0.74307 0.0
C3582 C 0.41468 0.44026 0.74216 0.0
C3583 C 0.40381 0.42665 0.73193 0.0
H3584 H 0.60351 0.98901 0.72389 0.0
H3585 H 0.6257 0.03921 0.72886 0.0
H3586 H 0.60264 0.03667 0.74633 0.0
H3587 H 0.57627 0.02019 0.7605 0.0
H3588 H 0.55415 0.96999 0.75565 0.0
H3589 H 0.57694 0.97256 0.7374 0.0
C3590 C 0.60323 0.9994 0.72855 0.0
C3591 C 0.61634 0.01427 0.7251 0.0
C3592 C 0.58993 0.99786 0.73857 0.0
C3593 C 0.61585 0.02761 0.73155 0.0
C3594 C 0.60265 0.02618 0.74147 0.0
C3595 C 0.57648 0.00981 0.75556 0.0
C3596 C 0.56352 0.99493 0.75946 0.0
C3597 C 0.58966 0.01136 0.74519 0.0
C3598 C 0.56388 0.9816 0.75265 0.0
C3599 C 0.57695 0.98305 0.74231 0.0
loop_
_geom_bond_atom_site_label_1
_geom_bond_atom_site_label_2
_geom_bond_distance
_geom_bond_site_symmetry_2
_ccdc_geom_bond_type
Li0 N17 1.990 1_554 S
Li0 O60 1.956 . S
Li0 O61 1.970 1_654 S
Li0 O62 1.961 . S
Li1 N25 1.990 . S
Li1 O60 1.970 1_455 S
Li1 O61 1.956 1_554 S
Li1 O63 1.961 . S
Li2 N47 1.990 . S
Li2 O60 1.961 . S
Li2 O62 1.956 . S
Li2 O63 1.970 1_655 S
Li3 N53 1.990 . S
Li3 O61 1.961 . S
Li3 O62 1.970 1_456 S
Li3 O63 1.956 1_556 S
C4 C6 1.331 1_655 S
C4 C7 1.356 . S
C4 O60 1.325 . S
N5 C8 1.314 . S
N5 C9 1.279 . S
C6 C4 1.331 1_455 S
C6 C8 1.353 1_455 S
C6 H64 0.946 . S
C7 C4 1.356 . S
C7 C9 1.358 . S
C7 H65 0.930 . S
C8 N5 1.314 . S
C8 C6 1.353 1_655 S
C8 H66 0.930 1_655 S
C9 N5 1.279 . S
C9 C7 1.358 . S
C9 H67 0.930 . S
C10 C13 1.348 . S
C10 C14 1.356 . S
C10 O61 1.325 . S
C11 N12 1.279 . S
C11 C14 1.358 . S
C11 H68 0.930 . S
N12 C11 1.279 . S
N12 C15 1.314 . S
C13 C10 1.348 . S
C13 C15 1.353 . S
C13 H69 0.929 1_455 S
C14 C10 1.356 . S
C14 C11 1.358 . S
C14 H70 0.930 . S
C15 N12 1.314 . S
C15 C13 1.353 . S
C15 H71 0.930 . S
C16 N17 1.314 . S
C16 C21 1.353 . S
C16 H22 0.930 . S
N17 Li0 1.990 1_556 S
N17 C16 1.314 . S
N17 C19 1.279 1_556 S
C18 C19 1.358 . S
C18 C20 1.356 1_554 S
C18 H72 0.930 . S
C19 N17 1.279 1_554 S
C19 C18 1.358 . S
C19 H23 0.930 . S
C20 C18 1.356 1_556 S
C20 C21 1.348 . S
C21 C16 1.353 . S
C21 C20 1.348 . S
C21 H73 0.929 . S
H22 C16 0.930 . S
H23 C19 0.930 . S
C24 N25 1.314 . S
C24 C26 1.353 . S
C24 H30 0.930 . S
N25 Li1 1.990 . S
N25 C24 1.314 . S
N25 C28 1.279 . S
C26 C24 1.353 . S
C26 C29 1.348 . S
C26 H74 0.929 . S
C27 C28 1.358 . S
C27 C29 1.356 . S
C27 H75 0.930 . S
C28 N25 1.279 . S
C28 C27 1.358 . S
C28 H31 0.914 1_554 S
C29 C26 1.348 . S
C29 C27 1.356 . S
H30 C24 0.930 . S
H31 C28 0.914 1_556 S
C32 C34 1.348 . S
C32 C35 1.356 1_556 S
C32 O62 1.325 1_556 S
N33 C36 1.314 . S
N33 C37 1.279 1_556 S
C34 C32 1.348 . S
C34 C36 1.353 . S
C34 H76 0.929 . S
C35 C32 1.356 1_554 S
C35 C37 1.358 . S
C35 H77 0.930 . S
C36 N33 1.314 . S
C36 C34 1.353 . S
C36 H78 0.930 . S
C37 N33 1.279 1_554 S
C37 C35 1.358 . S
C37 H79 0.930 . S
C38 C39 1.348 . S
C38 C40 1.356 . S
C38 O63 1.325 . S
C39 C38 1.348 . S
C39 C41 1.353 . S
C39 H80 0.929 . S
C40 C38 1.356 . S
C40 C42 1.358 . S
C40 H81 0.930 . S
C41 C39 1.353 . S
C41 N43 1.314 . S
C41 H82 0.930 . S
C42 C40 1.358 . S
C42 N43 1.279 . S
C42 H83 0.930 . S
N43 C41 1.314 . S
N43 C42 1.279 . S
C44 C46 1.353 . S
C44 N47 1.314 . S
C44 H50 0.898 1_655 S
C45 N47 1.279 . S
C45 C48 1.358 . S
C45 H51 0.930 . S
C46 C44 1.353 . S
C46 C49 1.348 . S
C46 H84 0.929 . S
N47 Li2 1.990 . S
N47 C44 1.314 . S
N47 C45 1.279 . S
C48 C45 1.358 . S
C48 C49 1.356 . S
C48 H85 0.930 . S
C49 C46 1.348 . S
C49 C48 1.356 . S
H50 C44 0.898 1_455 S
H51 C45 0.930 . S
C52 N53 1.314 . S
C52 C54 1.353 . S
C52 H58 0.930 . S
N53 Li3 1.990 . S
N53 C52 1.314 . S
N53 C56 1.279 . S
C54 C52 1.353 . S
C54 C57 1.348 . S
C54 H86 0.929 . S
C55 C56 1.358 . S
C55 C57 1.356 . S
C55 H87 0.930 . S
C56 N53 1.279 . S
C56 C55 1.358 . S
C56 H59 0.930 . S
C57 C54 1.348 . S
C57 C55 1.356 . S
H58 C52 0.930 . S
H59 C56 0.930 . S
O60 Li0 1.956 . S
O60 Li1 1.970 1_655 S
O60 Li2 1.961 . S
O60 C4 1.325 . S
O61 Li0 1.970 1_456 S
O61 Li1 1.956 1_556 S
O61 Li3 1.961 . S
O61 C10 1.325 . S
O62 Li0 1.961 . S
O62 Li2 1.956 . S
O62 Li3 1.970 1_654 S
O62 C32 1.325 1_554 S
O63 Li1 1.961 . S
O63 Li2 1.970 1_455 S
O63 Li3 1.956 1_554 S
O63 C38 1.325 . S
H64 C6 0.946 . S
H65 C7 0.930 . S
H66 C8 0.930 1_455 S
H67 C9 0.930 . S
H68 C11 0.930 . S
H69 C13 0.929 1_655 S
H70 C14 0.930 . S
H71 C15 0.930 . S
H72 C18 0.930 . S
H73 C21 0.929 . S
H74 C26 0.929 . S
H75 C27 0.930 . S
H76 C34 0.929 . S
H77 C35 0.930 . S
H78 C36 0.930 . S
H79 C37 0.930 . S
H80 C39 0.929 . S
H81 C40 0.930 . S
H82 C41 0.930 . S
H83 C42 0.930 . S
H84 C46 0.929 . S
H85 C48 0.930 . S
H86 C54 0.929 . S
H87 C55 0.930 . S
Li88 N105 1.990 1_554 S
Li88 O148 1.956 . S
Li88 O149 1.970 1_554 S
Li88 O150 1.960 1_554 S
Li89 N113 1.990 . S
Li89 O148 1.970 . S
Li89 O149 1.956 1_554 S
Li89 O151 1.961 . S
Li90 N135 1.990 . S
Li90 O148 1.961 . S
Li90 O150 1.951 1_554 S
Li90 O151 1.970 . S
Li91 N141 1.990 . S
Li91 O149 1.961 . S
Li91 O150 1.972 . S
Li91 O151 1.956 1_556 S
C92 C94 1.348 . S
C92 C95 1.356 . S
C92 O148 1.325 . S
N93 C96 1.314 . S
N93 C97 1.279 . S
C94 C92 1.348 . S
C94 C96 1.353 . S
C94 H152 0.929 . S
C95 C92 1.356 . S
C95 C97 1.358 . S
C95 H153 0.930 . S
C96 N93 1.314 . S
C96 C94 1.353 . S
C96 H154 0.930 . S
C97 N93 1.279 . S
C97 C95 1.358 . S
C97 H155 0.930 . S
C98 C101 1.348 . S
C98 C102 1.356 . S
C98 O149 1.325 . S
C99 N100 1.279 . S
C99 C102 1.358 . S
C99 H156 0.930 . S
N100 C99 1.279 . S
N100 C103 1.314 . S
C101 C98 1.348 . S
C101 C103 1.353 . S
C101 H157 0.929 . S
C102 C98 1.356 . S
C102 C99 1.358 . S
C102 H158 0.930 . S
C103 N100 1.314 . S
C103 C101 1.353 . S
C103 H159 0.930 . S
C104 N105 1.314 . S
C104 C109 1.353 . S
C104 H110 0.930 . S
N105 Li88 1.990 1_556 S
N105 C104 1.314 . S
N105 C107 1.279 1_556 S
C106 C107 1.358 1_556 S
C106 C108 1.356 . S
C106 H160 0.930 1_556 S
C107 N105 1.279 1_554 S
C107 C106 1.358 1_554 S
C107 H111 0.930 . S
C108 C106 1.356 . S
C108 C109 1.348 . S
C109 C104 1.353 . S
C109 C108 1.348 . S
C109 H161 0.929 . S
H110 C104 0.930 . S
H111 C107 0.930 . S
C112 N113 1.314 . S
C112 C114 1.353 . S
C112 H118 0.930 . S
N113 Li89 1.990 . S
N113 C112 1.314 . S
N113 C116 1.279 . S
C114 C112 1.353 . S
C114 C117 1.348 . S
C114 H162 0.929 . S
C115 C116 1.358 . S
C115 C117 1.356 . S
C115 H163 0.930 . S
C116 N113 1.279 . S
C116 C115 1.358 . S
C116 H119 0.930 . S
C117 C114 1.348 . S
C117 C115 1.356 . S
H118 C112 0.930 . S
H119 C116 0.930 . S
C120 C122 1.348 . S
C120 C123 1.355 . S
C120 O150 1.326 . S
N121 C124 1.314 . S
N121 C125 1.279 . S
C122 C120 1.348 . S
C122 C124 1.353 . S
C122 H164 0.929 . S
C123 C120 1.355 . S
C123 C125 1.357 . S
C123 H165 0.932 1_556 S
C124 N121 1.314 . S
C124 C122 1.353 . S
C124 H166 0.930 . S
C125 N121 1.279 . S
C125 C123 1.357 . S
C125 H167 0.930 . S
C126 C127 1.348 . S
C126 C128 1.356 . S
C126 O151 1.325 . S
C127 C126 1.348 . S
C127 C129 1.353 . S
C127 H168 0.929 . S
C128 C126 1.356 . S
C128 C130 1.358 . S
C128 H169 0.930 . S
C129 C127 1.353 . S
C129 N131 1.314 . S
C129 H170 0.930 . S
C130 C128 1.358 . S
C130 N131 1.279 . S
C130 H171 0.930 . S
N131 C129 1.314 . S
N131 C130 1.279 . S
C132 C134 1.353 . S
C132 N135 1.314 . S
C132 H138 0.930 . S
C133 N135 1.279 . S
C133 C136 1.358 . S
C133 H139 0.930 . S
C134 C132 1.353 . S
C134 C137 1.348 . S
C134 H172 0.929 . S
N135 Li90 1.990 . S
N135 C132 1.314 . S
N135 C133 1.279 . S
C136 C133 1.358 . S
C136 C137 1.356 . S
C136 H173 0.930 . S
C137 C134 1.348 . S
C137 C136 1.356 . S
H138 C132 0.930 . S
H139 C133 0.930 . S
C140 N141 1.314 . S
C140 C142 1.353 . S
C140 H146 0.930 . S
N141 Li91 1.990 . S
N141 C140 1.314 . S
N141 C144 1.279 . S
C142 C140 1.353 . S
C142 C145 1.348 . S
C142 H174 0.929 . S
C143 C144 1.358 . S
C143 C145 1.356 . S
C143 H175 0.930 . S
C144 N141 1.279 . S
C144 C143 1.358 . S
C144 H147 0.930 . S
C145 C142 1.348 . S
C145 C143 1.356 . S
H146 C140 0.930 . S
H147 C144 0.930 . S
O148 Li88 1.956 . S
O148 Li89 1.970 . S
O148 Li90 1.961 . S
O148 C92 1.325 . S
O149 Li88 1.970 1_556 S
O149 Li89 1.956 1_556 S
O149 Li91 1.961 . S
O149 C98 1.325 . S
O150 Li88 1.960 1_556 S
O150 Li90 1.951 1_556 S
O150 Li91 1.972 . S
O150 C120 1.326 . S
O151 Li89 1.961 . S
O151 Li90 1.970 . S
O151 Li91 1.956 1_554 S
O151 C126 1.325 . S
H152 C94 0.929 . S
H153 C95 0.930 . S
H154 C96 0.930 . S
H155 C97 0.930 . S
H156 C99 0.930 . S
H157 C101 0.929 . S
H158 C102 0.930 . S
H159 C103 0.930 . S
H160 C106 0.930 1_554 S
H161 C109 0.929 . S
H162 C114 0.929 . S
H163 C115 0.930 . S
H164 C122 0.929 . S
H165 C123 0.932 1_554 S
H166 C124 0.930 . S
H167 C125 0.930 . S
H168 C127 0.929 . S
H169 C128 0.930 . S
H170 C129 0.930 . S
H171 C130 0.930 . S
H172 C134 0.929 . S
H173 C136 0.930 . S
H174 C142 0.929 . S
H175 C143 0.930 . S
Li176 N193 1.990 . S
Li176 O236 1.956 1_556 S
Li176 O237 1.970 1_566 S
Li176 O238 1.961 . S
Li177 N201 1.990 . S
Li177 O236 1.970 1_545 S
Li177 O237 1.956 . S
Li177 O239 1.961 . S
Li178 N223 1.990 . S
Li178 O236 1.961 . S
Li178 O238 1.956 1_554 S
Li178 O239 1.970 1_565 S
Li179 N229 1.990 1_554 S
Li179 O237 1.961 . S
Li179 O238 1.970 1_544 S
Li179 O239 1.956 . S
C180 C182 1.348 . S
C180 C183 1.356 . S
C180 O236 1.325 . S
N181 C184 1.314 . S
N181 C185 1.279 . S
C182 C180 1.348 . S
C182 C184 1.353 . S
C182 H240 0.929 . S
C183 C180 1.356 . S
C183 C185 1.358 . S
C183 H241 0.930 . S
C184 N181 1.314 . S
C184 C182 1.353 . S
C184 H242 0.930 . S
C185 N181 1.279 . S
C185 C183 1.358 . S
C185 H243 0.930 . S
C186 C189 1.348 . S
C186 C190 1.356 1_556 S
C186 O237 1.325 1_556 S
C187 N188 1.262 1_554 S
C187 C190 1.366 . S
C187 H244 0.942 . S
N188 C187 1.262 1_556 S
N188 C191 1.314 . S
C189 C186 1.348 . S
C189 C191 1.353 . S
C189 H245 0.929 . S
C190 C186 1.356 1_554 S
C190 C187 1.366 . S
C190 H246 0.930 . S
C191 N188 1.314 . S
C191 C189 1.353 . S
C191 H247 0.930 . S
C192 N193 1.314 . S
C192 C197 1.353 . S
C192 H198 0.895 1_565 S
N193 Li176 1.990 . S
N193 C192 1.314 . S
N193 C195 1.279 . S
C194 C195 1.358 . S
C194 C196 1.356 . S
C194 H248 0.930 . S
C195 N193 1.279 . S
C195 C194 1.358 . S
C195 H199 0.930 . S
C196 C194 1.356 . S
C196 C197 1.348 . S
C197 C192 1.353 . S
C197 C196 1.348 . S
C197 H249 0.929 . S
H198 C192 0.895 1_545 S
H199 C195 0.930 . S
C200 N201 1.314 . S
C200 C202 1.353 . S
C200 H206 0.930 . S
N201 Li177 1.990 . S
N201 C200 1.314 . S
N201 C204 1.279 . S
C202 C200 1.353 . S
C202 C205 1.348 . S
C202 H250 0.929 . S
C203 C204 1.358 . S
C203 C205 1.356 . S
C203 H251 0.930 . S
C204 N201 1.279 . S
C204 C203 1.358 . S
C204 H207 0.930 . S
C205 C202 1.348 . S
C205 C203 1.356 . S
H206 C200 0.930 . S
H207 C204 0.930 . S
C208 C210 1.329 1_565 S
C208 C211 1.356 . S
C208 O238 1.325 . S
N209 C212 1.314 . S
N209 C213 1.279 . S
C210 C208 1.329 1_545 S
C210 C212 1.353 1_545 S
C210 H252 0.948 . S
C211 C208 1.356 . S
C211 C213 1.358 . S
C211 H253 0.930 . S
C212 N209 1.314 . S
C212 C210 1.353 1_565 S
C212 H254 0.930 1_565 S
C213 N209 1.279 . S
C213 C211 1.358 . S
C213 H255 0.930 . S
C214 C215 1.348 . S
C214 C216 1.356 . S
C214 O239 1.325 . S
C215 C214 1.348 . S
C215 C217 1.353 . S
C215 H256 0.929 1_545 S
C216 C214 1.356 . S
C216 C218 1.358 . S
C216 H257 0.930 . S
C217 C215 1.353 . S
C217 N219 1.314 . S
C217 H258 0.930 . S
C218 C216 1.358 . S
C218 N219 1.279 . S
C218 H259 0.930 . S
N219 C217 1.314 . S
N219 C218 1.279 . S
C220 C222 1.353 . S
C220 N223 1.314 . S
C220 H226 0.930 . S
C221 N223 1.279 . S
C221 C224 1.358 . S
C221 H227 0.930 1_554 S
C222 C220 1.353 . S
C222 C225 1.348 . S
C222 H260 0.929 . S
N223 Li178 1.990 . S
N223 C220 1.314 . S
N223 C221 1.279 . S
C224 C221 1.358 . S
C224 C225 1.356 . S
C224 H261 0.930 . S
C225 C222 1.348 . S
C225 C224 1.356 . S
H226 C220 0.930 . S
H227 C221 0.930 1_556 S
C228 N229 1.314 . S
C228 C230 1.353 . S
C228 H234 0.930 . S
N229 Li179 1.990 1_556 S
N229 C228 1.314 . S
N229 C232 1.279 1_556 S
C230 C228 1.353 . S
C230 C233 1.348 . S
C230 H262 0.929 . S
C231 C232 1.358 . S
C231 C233 1.356 1_554 S
C231 H263 0.930 . S
C232 N229 1.279 1_554 S
C232 C231 1.358 . S
C232 H235 0.930 . S
C233 C230 1.348 . S
C233 C231 1.356 1_556 S
H234 C228 0.930 . S
H235 C232 0.930 . S
O236 Li176 1.956 1_554 S
O236 Li177 1.970 1_565 S
O236 Li178 1.961 . S
O236 C180 1.325 . S
O237 Li176 1.970 1_544 S
O237 Li177 1.956 . S
O237 Li179 1.961 . S
O237 C186 1.325 1_554 S
O238 Li176 1.961 . S
O238 Li178 1.956 1_556 S
O238 Li179 1.970 1_566 S
O238 C208 1.325 . S
O239 Li177 1.961 . S
O239 Li178 1.970 1_545 S
O239 Li179 1.956 . S
O239 C214 1.325 . S
H240 C182 0.929 . S
H241 C183 0.930 . S
H242 C184 0.930 . S
H243 C185 0.930 . S
H244 C187 0.942 . S
H245 C189 0.929 . S
H246 C190 0.930 . S
H247 C191 0.930 . S
H248 C194 0.930 . S
H249 C197 0.929 . S
H250 C202 0.929 . S
H251 C203 0.930 . S
H252 C210 0.948 . S
H253 C211 0.930 . S
H254 C212 0.930 1_545 S
H255 C213 0.930 . S
H256 C215 0.929 1_565 S
H257 C216 0.930 . S
H258 C217 0.930 . S
H259 C218 0.930 . S
H260 C222 0.929 . S
H261 C224 0.930 . S
H262 C230 0.929 . S
H263 C231 0.930 . S
Li264 N281 1.990 . S
Li264 O324 1.956 . S
Li264 O325 1.970 1_455 S
Li264 O326 1.961 1_554 S
Li265 N289 1.990 . S
Li265 O324 1.970 1_655 S
Li265 O325 1.956 . S
Li265 O327 1.961 . S
Li266 N311 1.990 . S
Li266 O324 1.961 1_556 S
Li266 O326 1.956 . S
Li266 O327 1.970 1_456 S
Li267 N317 1.990 1_554 S
Li267 O325 1.961 . S
Li267 O326 1.970 1_654 S
Li267 O327 1.956 . S
C268 C270 1.348 . S
C268 C271 1.356 . S
C268 O324 1.325 . S
N269 C272 1.314 . S
N269 C273 1.279 . S
C270 C268 1.348 . S
C270 C272 1.353 . S
C270 H328 0.929 . S
C271 C268 1.356 . S
C271 C273 1.358 . S
C271 H329 0.930 1_554 S
C272 N269 1.314 . S
C272 C270 1.353 . S
C272 H330 0.930 . S
C273 N269 1.279 . S
C273 C271 1.358 . S
C273 H331 0.930 . S
C274 C277 1.348 1_655 S
C274 C278 1.356 . S
C274 O325 1.325 . S
C275 N276 1.279 . S
C275 C278 1.358 . S
C275 H332 0.930 . S
N276 C275 1.279 . S
N276 C279 1.314 . S
C277 C274 1.348 1_455 S
C277 C279 1.353 1_455 S
C277 H333 0.929 . S
C278 C274 1.356 . S
C278 C275 1.358 . S
C278 H334 0.930 . S
C279 N276 1.314 . S
C279 C277 1.353 1_655 S
C279 H335 0.930 1_655 S
C280 N281 1.314 . S
C280 C285 1.353 . S
C280 H286 0.930 . S
N281 Li264 1.990 . S
N281 C280 1.314 . S
N281 C283 1.279 . S
C282 C283 1.358 . S
C282 C284 1.356 . S
C282 H336 0.930 . S
C283 N281 1.279 . S
C283 C282 1.358 . S
C283 H287 0.930 . S
C284 C282 1.356 . S
C284 C285 1.348 . S
C285 C280 1.353 . S
C285 C284 1.348 . S
C285 H337 0.929 . S
H286 C280 0.930 . S
H287 C283 0.930 . S
C288 N289 1.314 . S
C288 C290 1.353 . S
C288 H294 0.930 . S
N289 Li265 1.990 . S
N289 C288 1.314 . S
N289 C292 1.279 . S
C290 C288 1.353 . S
C290 C293 1.348 . S
C290 H338 0.929 . S
C291 C292 1.358 . S
C291 C293 1.356 . S
C291 H339 0.930 . S
C292 N289 1.279 . S
C292 C291 1.358 . S
C292 H295 0.930 . S
C293 C290 1.348 . S
C293 C291 1.356 . S
H294 C288 0.930 . S
H295 C292 0.930 . S
C296 C298 1.348 1_455 S
C296 C299 1.356 . S
C296 O326 1.325 . S
N297 C300 1.314 . S
N297 C301 1.279 . S
C298 C296 1.348 1_655 S
C298 C300 1.353 1_655 S
C298 H340 0.929 . S
C299 C296 1.356 . S
C299 C301 1.358 . S
C299 H341 0.930 . S
C300 N297 1.314 . S
C300 C298 1.353 1_455 S
C300 H342 0.930 1_455 S
C301 N297 1.279 . S
C301 C299 1.358 . S
C301 H343 0.930 . S
C302 C303 1.348 . S
C302 C304 1.356 1_556 S
C302 O327 1.325 1_556 S
C303 C302 1.348 . S
C303 C305 1.353 . S
C303 H344 0.929 . S
C304 C302 1.356 1_554 S
C304 C306 1.358 . S
C304 H345 0.930 . S
C305 C303 1.353 . S
C305 N307 1.314 . S
C305 H346 0.930 . S
C306 C304 1.358 . S
C306 N307 1.279 1_554 S
C306 H347 0.930 . S
N307 C305 1.314 . S
N307 C306 1.279 1_556 S
C308 C310 1.353 . S
C308 N311 1.314 . S
C308 H314 0.930 . S
C309 N311 1.279 . S
C309 C312 1.358 . S
C309 H315 0.930 . S
C310 C308 1.353 . S
C310 C313 1.348 . S
C310 H348 0.929 . S
N311 Li266 1.990 . S
N311 C308 1.314 . S
N311 C309 1.279 . S
C312 C309 1.358 . S
C312 C313 1.356 . S
C312 H349 0.930 . S
C313 C310 1.348 . S
C313 C312 1.356 . S
H314 C308 0.930 . S
H315 C309 0.930 . S
C316 N317 1.308 1_554 S
C316 C318 1.347 1_554 S
C316 H322 0.944 . S
N317 Li267 1.990 1_556 S
N317 C316 1.308 1_556 S
N317 C320 1.279 . S
C318 C316 1.347 1_556 S
C318 C321 1.348 . S
C318 H350 0.927 1_556 S
C319 C320 1.358 . S
C319 C321 1.356 . S
C319 H351 0.930 . S
C320 N317 1.279 . S
C320 C319 1.358 . S
C320 H323 0.930 . S
C321 C318 1.348 . S
C321 C319 1.356 . S
H322 C316 0.944 . S
H323 C320 0.930 . S
O324 Li264 1.956 . S
O324 Li265 1.970 1_455 S
O324 Li266 1.961 1_554 S
O324 C268 1.325 . S
O325 Li264 1.970 1_655 S
O325 Li265 1.956 . S
O325 Li267 1.961 . S
O325 C274 1.325 . S
O326 Li264 1.961 1_556 S
O326 Li266 1.956 . S
O326 Li267 1.970 1_456 S
O326 C296 1.325 . S
O327 Li265 1.961 . S
O327 Li266 1.970 1_654 S
O327 Li267 1.956 . S
O327 C302 1.325 1_554 S
H328 C270 0.929 . S
H329 C271 0.930 1_556 S
H330 C272 0.930 . S
H331 C273 0.930 . S
H332 C275 0.930 . S
H333 C277 0.929 . S
H334 C278 0.930 . S
H335 C279 0.930 1_455 S
H336 C282 0.930 . S
H337 C285 0.929 . S
H338 C290 0.929 . S
H339 C291 0.930 . S
H340 C298 0.929 . S
H341 C299 0.930 . S
H342 C300 0.930 1_655 S
H343 C301 0.930 . S
H344 C303 0.929 . S
H345 C304 0.930 . S
H346 C305 0.930 . S
H347 C306 0.930 . S
H348 C310 0.929 . S
H349 C312 0.930 . S
H350 C318 0.927 1_554 S
H351 C319 0.930 . S
Li352 N369 1.990 . S
Li352 O412 1.956 . S
Li352 O413 1.970 . S
Li352 O414 1.961 1_554 S
Li353 N377 1.990 . S
Li353 O412 1.970 . S
Li353 O413 1.956 . S
Li353 O415 1.989 . S
Li354 N399 1.990 . S
Li354 O412 1.961 1_556 S
Li354 O414 1.956 . S
Li354 O415 1.960 1_556 S
Li355 N405 1.990 1_554 S
Li355 O413 1.961 . S
Li355 O414 1.970 1_554 S
Li355 O415 1.957 . S
C356 C358 1.348 . S
C356 C359 1.356 . S
C356 O412 1.325 . S
N357 C360 1.314 . S
N357 C361 1.279 . S
C358 C356 1.348 . S
C358 C360 1.353 . S
C358 H416 0.929 . S
C359 C356 1.356 . S
C359 C361 1.358 . S
C359 H417 0.930 . S
C360 N357 1.314 . S
C360 C358 1.353 . S
C360 H418 0.930 . S
C361 N357 1.279 . S
C361 C359 1.358 . S
C361 H419 0.930 . S
C362 C365 1.348 . S
C362 C366 1.356 . S
C362 O413 1.325 . S
C363 N364 1.279 . S
C363 C366 1.358 . S
C363 H420 0.930 . S
N364 C363 1.279 . S
N364 C367 1.314 . S
C365 C362 1.348 . S
C365 C367 1.353 . S
C365 H421 0.929 . S
C366 C362 1.356 . S
C366 C363 1.358 . S
C366 H422 0.930 . S
C367 N364 1.314 . S
C367 C365 1.353 . S
C367 H423 0.930 . S
C368 N369 1.314 . S
C368 C373 1.353 . S
C368 H374 0.930 . S
N369 Li352 1.990 . S
N369 C368 1.314 . S
N369 C371 1.279 . S
C370 C371 1.358 . S
C370 C372 1.356 . S
C370 H424 0.930 . S
C371 N369 1.279 . S
C371 C370 1.358 . S
C371 H375 0.930 . S
C372 C370 1.356 . S
C372 C373 1.348 . S
C373 C368 1.353 . S
C373 C372 1.348 . S
C373 H425 0.929 . S
H374 C368 0.930 . S
H375 C371 0.930 . S
C376 N377 1.314 . S
C376 C378 1.353 . S
C376 H382 0.930 . S
N377 Li353 1.990 . S
N377 C376 1.314 . S
N377 C380 1.279 . S
C378 C376 1.353 . S
C378 C381 1.348 . S
C378 H426 0.929 . S
C379 C380 1.358 . S
C379 C381 1.356 . S
C379 H427 0.930 . S
C380 N377 1.279 . S
C380 C379 1.358 . S
C380 H383 0.930 . S
C381 C378 1.348 . S
C381 C379 1.356 . S
H382 C376 0.930 . S
H383 C380 0.930 . S
C384 C386 1.348 . S
C384 C387 1.356 . S
C384 O414 1.325 . S
N385 C388 1.314 . S
N385 C389 1.279 . S
C386 C384 1.348 . S
C386 C388 1.353 . S
C386 H428 0.929 . S
C387 C384 1.356 . S
C387 C389 1.358 . S
C387 H429 0.930 . S
C388 N385 1.314 . S
C388 C386 1.353 . S
C388 H430 0.930 . S
C389 N385 1.279 . S
C389 C387 1.358 . S
C389 H431 0.930 . S
C390 C391 1.348 . S
C390 C392 1.356 1_556 S
C390 O415 1.316 1_556 S
C391 C390 1.348 . S
C391 C393 1.353 . S
C391 H432 0.929 . S
C392 C390 1.356 1_554 S
C392 C394 1.358 1_554 S
C392 H433 0.930 . S
C393 C391 1.353 . S
C393 N395 1.314 . S
C393 H434 0.930 . S
C394 C392 1.358 1_556 S
C394 N395 1.279 . S
C394 H435 0.930 1_556 S
N395 C393 1.314 . S
N395 C394 1.279 . S
C396 C398 1.353 . S
C396 N399 1.314 . S
C396 H402 0.930 . S
C397 N399 1.279 . S
C397 C400 1.358 . S
C397 H403 0.930 . S
C398 C396 1.353 . S
C398 C401 1.348 . S
C398 H436 0.929 . S
N399 Li354 1.990 . S
N399 C396 1.314 . S
N399 C397 1.279 . S
C400 C397 1.358 . S
C400 C401 1.356 . S
C400 H437 0.930 . S
C401 C398 1.348 . S
C401 C400 1.356 . S
H402 C396 0.930 . S
H403 C397 0.930 . S
C404 N405 1.314 . S
C404 C406 1.353 . S
C404 H410 0.930 1_556 S
N405 Li355 1.990 1_556 S
N405 C404 1.314 . S
N405 C408 1.279 . S
C406 C404 1.353 . S
C406 C409 1.348 . S
C406 H438 0.929 . S
C407 C408 1.358 . S
C407 C409 1.356 . S
C407 H439 0.930 . S
C408 N405 1.279 . S
C408 C407 1.358 . S
C408 H411 0.930 . S
C409 C406 1.348 . S
C409 C407 1.356 . S
H410 C404 0.930 1_554 S
H411 C408 0.930 . S
O412 Li352 1.956 . S
O412 Li353 1.970 . S
O412 Li354 1.961 1_554 S
O412 C356 1.325 . S
O413 Li352 1.970 . S
O413 Li353 1.956 . S
O413 Li355 1.961 . S
O413 C362 1.325 . S
O414 Li352 1.961 1_556 S
O414 Li354 1.956 . S
O414 Li355 1.970 1_556 S
O414 C384 1.325 . S
O415 Li353 1.989 . S
O415 Li354 1.960 1_554 S
O415 Li355 1.957 . S
O415 C390 1.316 1_554 S
H416 C358 0.929 . S
H417 C359 0.930 . S
H418 C360 0.930 . S
H419 C361 0.930 . S
H420 C363 0.930 . S
H421 C365 0.929 . S
H422 C366 0.930 . S
H423 C367 0.930 . S
H424 C370 0.930 . S
H425 C373 0.929 . S
H426 C378 0.929 . S
H427 C379 0.930 . S
H428 C386 0.929 . S
H429 C387 0.930 . S
H430 C388 0.930 . S
H431 C389 0.930 . S
H432 C391 0.929 . S
H433 C392 0.930 . S
H434 C393 0.930 . S
H435 C394 0.930 1_554 S
H436 C398 0.929 . S
H437 C400 0.930 . S
H438 C406 0.929 . S
H439 C407 0.930 . S
Li440 N457 1.990 . S
Li440 O500 1.956 . S
Li440 O501 1.970 1_565 S
Li440 O502 1.961 1_554 S
Li441 N465 1.990 . S
Li441 O500 1.970 1_545 S
Li441 O501 1.956 . S
Li441 O503 1.961 . S
Li442 N487 1.990 . S
Li442 O500 1.961 1_556 S
Li442 O502 1.956 . S
Li442 O503 1.970 1_566 S
Li443 N493 1.990 1_554 S
Li443 O501 1.961 . S
Li443 O502 1.970 1_544 S
Li443 O503 1.956 . S
C444 C446 1.348 . S
C444 C447 1.356 . S
C444 O500 1.325 . S
N445 C448 1.314 . S
N445 C449 1.279 . S
C446 C444 1.348 . S
C446 C448 1.353 . S
C446 H504 0.929 . S
C447 C444 1.356 . S
C447 C449 1.358 . S
C447 H505 0.930 1_554 S
C448 N445 1.314 . S
C448 C446 1.353 . S
C448 H506 0.930 . S
C449 N445 1.279 . S
C449 C447 1.358 . S
C449 H507 0.930 . S
C450 C453 1.348 1_545 S
C450 C454 1.356 . S
C450 O501 1.325 . S
C451 N452 1.279 . S
C451 C454 1.358 . S
C451 H508 0.930 . S
N452 C451 1.279 . S
N452 C455 1.314 . S
C453 C450 1.348 1_565 S
C453 C455 1.353 1_565 S
C453 H509 0.929 . S
C454 C450 1.356 . S
C454 C451 1.358 . S
C454 H510 0.930 . S
C455 N452 1.314 . S
C455 C453 1.353 1_545 S
C455 H511 0.930 1_545 S
C456 N457 1.314 . S
C456 C461 1.353 . S
C456 H462 0.930 . S
N457 Li440 1.990 . S
N457 C456 1.314 . S
N457 C459 1.279 . S
C458 C459 1.358 . S
C458 C460 1.356 . S
C458 H512 0.930 . S
C459 N457 1.279 . S
C459 C458 1.358 . S
C459 H463 0.930 . S
C460 C458 1.356 . S
C460 C461 1.348 . S
C461 C456 1.353 . S
C461 C460 1.348 . S
C461 H513 0.929 . S
H462 C456 0.930 . S
H463 C459 0.930 . S
C464 N465 1.314 . S
C464 C466 1.353 . S
C464 H470 0.930 . S
N465 Li441 1.990 . S
N465 C464 1.314 . S
N465 C468 1.279 . S
C466 C464 1.353 . S
C466 C469 1.348 . S
C466 H514 0.929 . S
C467 C468 1.358 . S
C467 C469 1.356 . S
C467 H515 0.930 . S
C468 N465 1.279 . S
C468 C467 1.358 . S
C468 H471 0.930 . S
C469 C466 1.348 . S
C469 C467 1.356 . S
H470 C464 0.930 . S
H471 C468 0.930 . S
C472 C474 1.348 1_565 S
C472 C475 1.356 . S
C472 O502 1.325 . S
N473 C476 1.314 . S
N473 C477 1.279 . S
C474 C472 1.348 1_545 S
C474 C476 1.353 1_545 S
C474 H516 0.929 . S
C475 C472 1.356 . S
C475 C477 1.358 . S
C475 H517 0.930 . S
C476 N473 1.314 . S
C476 C474 1.353 1_565 S
C476 H518 0.930 1_565 S
C477 N473 1.279 . S
C477 C475 1.358 . S
C477 H519 0.930 . S
C478 C479 1.348 . S
C478 C480 1.356 1_556 S
C478 O503 1.325 1_556 S
C479 C478 1.348 . S
C479 C481 1.353 . S
C479 H520 0.929 . S
C480 C478 1.356 1_554 S
C480 C482 1.358 . S
C480 H521 0.930 . S
C481 C479 1.353 . S
C481 N483 1.314 . S
C481 H522 0.930 . S
C482 C480 1.358 . S
C482 N483 1.279 1_554 S
C482 H523 0.930 . S
N483 C481 1.314 . S
N483 C482 1.279 1_556 S
C484 C486 1.353 . S
C484 N487 1.314 . S
C484 H490 0.930 . S
C485 N487 1.279 . S
C485 C488 1.358 . S
C485 H491 0.930 . S
C486 C484 1.353 . S
C486 C489 1.348 . S
C486 H524 0.929 . S
N487 Li442 1.990 . S
N487 C484 1.314 . S
N487 C485 1.279 . S
C488 C485 1.358 . S
C488 C489 1.356 . S
C488 H525 0.930 . S
C489 C486 1.348 . S
C489 C488 1.356 . S
H490 C484 0.930 . S
H491 C485 0.930 . S
C492 N493 1.314 1_554 S
C492 C494 1.353 1_554 S
C492 H498 0.930 . S
N493 Li443 1.990 1_556 S
N493 C492 1.314 1_556 S
N493 C496 1.279 . S
C494 C492 1.353 1_556 S
C494 C497 1.348 . S
C494 H526 0.929 1_556 S
C495 C496 1.358 . S
C495 C497 1.356 . S
C495 H527 0.930 . S
C496 N493 1.279 . S
C496 C495 1.358 . S
C496 H499 0.930 . S
C497 C494 1.348 . S
C497 C495 1.356 . S
H498 C492 0.930 . S
H499 C496 0.930 . S
O500 Li440 1.956 . S
O500 Li441 1.970 1_565 S
O500 Li442 1.961 1_554 S
O500 C444 1.325 . S
O501 Li440 1.970 1_545 S
O501 Li441 1.956 . S
O501 Li443 1.961 . S
O501 C450 1.325 . S
O502 Li440 1.961 1_556 S
O502 Li442 1.956 . S
O502 Li443 1.970 1_566 S
O502 C472 1.325 . S
O503 Li441 1.961 . S
O503 Li442 1.970 1_544 S
O503 Li443 1.956 . S
O503 C478 1.325 1_554 S
H504 C446 0.929 . S
H505 C447 0.930 1_556 S
H506 C448 0.930 . S
H507 C449 0.930 . S
H508 C451 0.930 . S
H509 C453 0.929 . S
H510 C454 0.930 . S
H511 C455 0.930 1_565 S
H512 C458 0.930 . S
H513 C461 0.929 . S
H514 C466 0.929 . S
H515 C467 0.930 . S
H516 C474 0.929 . S
H517 C475 0.930 . S
H518 C476 0.930 1_545 S
H519 C477 0.930 . S
H520 C479 0.929 . S
H521 C480 0.930 . S
H522 C481 0.930 . S
H523 C482 0.930 . S
H524 C486 0.929 . S
H525 C488 0.930 . S
H526 C494 0.929 1_554 S
H527 C495 0.930 . S
Li528 N545 1.990 . S
Li528 O588 1.956 . S
Li528 O589 1.970 . S
Li528 O590 1.961 . S
Li529 N553 1.990 . S
Li529 O588 1.970 . S
Li529 O589 1.956 . S
Li529 O591 1.961 . S
Li530 N575 1.990 . S
Li530 O588 1.961 . S
Li530 O590 1.956 . S
Li530 O591 1.970 . S
Li531 N581 1.990 . S
Li531 O589 1.961 . S
Li531 O590 1.970 . S
Li531 O591 1.956 . S
C532 C534 1.348 . S
C532 C535 1.356 . S
C532 O588 1.325 . S
N533 C536 1.314 . S
N533 C537 1.279 . S
C534 C532 1.348 . S
C534 C536 1.353 . S
C534 H592 0.929 . S
C535 C532 1.356 . S
C535 C537 1.358 . S
C535 H593 0.930 . S
C536 N533 1.314 . S
C536 C534 1.353 . S
C536 H594 0.930 . S
C537 N533 1.279 . S
C537 C535 1.358 . S
C537 H595 0.930 . S
C538 C541 1.348 . S
C538 C542 1.356 . S
C538 O589 1.325 . S
C539 N540 1.279 . S
C539 C542 1.358 . S
C539 H596 0.930 . S
N540 C539 1.279 . S
N540 C543 1.314 . S
C541 C538 1.348 . S
C541 C543 1.353 . S
C541 H597 0.929 . S
C542 C538 1.356 . S
C542 C539 1.358 . S
C542 H598 0.930 . S
C543 N540 1.314 . S
C543 C541 1.353 . S
C543 H599 0.930 . S
C544 N545 1.314 . S
C544 C549 1.353 . S
C544 H550 0.930 . S
N545 Li528 1.990 . S
N545 C544 1.314 . S
N545 C547 1.279 . S
C546 C547 1.358 . S
C546 C548 1.356 . S
C546 H600 0.930 . S
C547 N545 1.279 . S
C547 C546 1.358 . S
C547 H551 0.930 . S
C548 C546 1.356 . S
C548 C549 1.348 . S
C549 C544 1.353 . S
C549 C548 1.348 . S
C549 H601 0.929 . S
H550 C544 0.930 . S
H551 C547 0.930 . S
C552 N553 1.314 . S
C552 C554 1.353 . S
C552 H558 0.930 . S
N553 Li529 1.990 . S
N553 C552 1.314 . S
N553 C556 1.279 . S
C554 C552 1.353 . S
C554 C557 1.348 . S
C554 H602 0.929 . S
C555 C556 1.358 . S
C555 C557 1.356 . S
C555 H603 0.930 . S
C556 N553 1.279 . S
C556 C555 1.358 . S
C556 H559 0.930 . S
C557 C554 1.348 . S
C557 C555 1.356 . S
H558 C552 0.930 . S
H559 C556 0.930 . S
C560 C562 1.348 . S
C560 C563 1.356 . S
C560 O590 1.325 . S
N561 C564 1.314 . S
N561 C565 1.279 . S
C562 C560 1.348 . S
C562 C564 1.353 . S
C562 H604 0.929 . S
C563 C560 1.356 . S
C563 C565 1.358 . S
C563 H605 0.930 . S
C564 N561 1.314 . S
C564 C562 1.353 . S
C564 H606 0.930 . S
C565 N561 1.279 . S
C565 C563 1.358 . S
C565 H607 0.930 . S
C566 C567 1.348 . S
C566 C568 1.356 . S
C566 O591 1.325 . S
C567 C566 1.348 . S
C567 C569 1.353 . S
C567 H608 0.929 . S
C568 C566 1.356 . S
C568 C570 1.358 . S
C568 H609 0.930 . S
C569 C567 1.353 . S
C569 N571 1.314 . S
C569 H610 0.930 . S
C570 C568 1.358 . S
C570 N571 1.279 . S
C570 H611 0.930 . S
N571 C569 1.314 . S
N571 C570 1.279 . S
C572 C574 1.353 . S
C572 N575 1.314 . S
C572 H578 0.930 . S
C573 N575 1.279 . S
C573 C576 1.358 . S
C573 H579 0.930 . S
C574 C572 1.353 . S
C574 C577 1.348 . S
C574 H612 0.929 . S
N575 Li530 1.990 . S
N575 C572 1.314 . S
N575 C573 1.279 . S
C576 C573 1.358 . S
C576 C577 1.356 . S
C576 H613 0.930 . S
C577 C574 1.348 . S
C577 C576 1.356 . S
H578 C572 0.930 . S
H579 C573 0.930 . S
C580 N581 1.314 . S
C580 C582 1.353 . S
C580 H586 0.930 . S
N581 Li531 1.990 . S
N581 C580 1.314 . S
N581 C584 1.279 . S
C582 C580 1.353 . S
C582 C585 1.348 . S
C582 H614 0.929 . S
C583 C584 1.358 . S
C583 C585 1.356 . S
C583 H615 0.930 . S
C584 N581 1.279 . S
C584 C583 1.358 . S
C584 H587 0.930 . S
C585 C582 1.348 . S
C585 C583 1.356 . S
H586 C580 0.930 . S
H587 C584 0.930 . S
O588 Li528 1.956 . S
O588 Li529 1.970 . S
O588 Li530 1.961 . S
O588 C532 1.325 . S
O589 Li528 1.970 . S
O589 Li529 1.956 . S
O589 Li531 1.961 . S
O589 C538 1.325 . S
O590 Li528 1.961 . S
O590 Li530 1.956 . S
O590 Li531 1.970 . S
O590 C560 1.325 . S
O591 Li529 1.961 . S
O591 Li530 1.970 . S
O591 Li531 1.956 . S
O591 C566 1.325 . S
H592 C534 0.929 . S
H593 C535 0.930 . S
H594 C536 0.930 . S
H595 C537 0.930 . S
H596 C539 0.930 . S
H597 C541 0.929 . S
H598 C542 0.930 . S
H599 C543 0.930 . S
H600 C546 0.930 . S
H601 C549 0.929 . S
H602 C554 0.929 . S
H603 C555 0.930 . S
H604 C562 0.929 . S
H605 C563 0.930 . S
H606 C564 0.930 . S
H607 C565 0.930 . S
H608 C567 0.929 . S
H609 C568 0.930 . S
H610 C569 0.930 . S
H611 C570 0.930 . S
H612 C574 0.929 . S
H613 C576 0.930 . S
H614 C582 0.929 . S
H615 C583 0.930 . S
Li616 N633 1.990 . S
Li616 O676 1.956 . S
Li616 O677 1.970 . S
Li616 O678 1.961 . S
Li617 N641 1.990 . S
Li617 O676 1.970 . S
Li617 O677 1.956 . S
Li617 O679 1.961 . S
Li618 N663 1.963 1_565 S
Li618 O676 1.973 . S
Li618 O678 1.965 . S
Li618 O679 1.993 . S
Li619 N669 1.990 . S
Li619 O677 1.961 . S
Li619 O678 1.970 . S
Li619 O679 1.956 . S
C620 C622 1.348 . S
C620 C623 1.356 . S
C620 O676 1.325 . S
N621 C624 1.314 . S
N621 C625 1.279 . S
C622 C620 1.348 . S
C622 C624 1.353 . S
C622 H680 0.929 . S
C623 C620 1.356 . S
C623 C625 1.358 . S
C623 H681 0.930 . S
C624 N621 1.314 . S
C624 C622 1.353 . S
C624 H682 0.930 . S
C625 N621 1.279 . S
C625 C623 1.358 . S
C625 H683 0.930 . S
C626 C629 1.348 . S
C626 C630 1.356 . S
C626 O677 1.325 . S
C627 N628 1.279 . S
C627 C630 1.358 . S
C627 H684 0.930 . S
N628 C627 1.279 . S
N628 C631 1.314 . S
C629 C626 1.348 . S
C629 C631 1.353 . S
C629 H685 0.929 . S
C630 C626 1.356 . S
C630 C627 1.358 . S
C630 H686 0.930 . S
C631 N628 1.314 . S
C631 C629 1.353 . S
C631 H687 0.930 . S
C632 N633 1.314 . S
C632 C637 1.353 . S
C632 H638 0.930 . S
N633 Li616 1.990 . S
N633 C632 1.314 . S
N633 C635 1.279 . S
C634 C635 1.358 . S
C634 C636 1.356 . S
C634 H688 0.930 . S
C635 N633 1.279 . S
C635 C634 1.358 . S
C635 H639 0.930 . S
C636 C634 1.356 . S
C636 C637 1.348 . S
C637 C632 1.353 . S
C637 C636 1.348 . S
C637 H689 0.929 . S
H638 C632 0.930 . S
H639 C635 0.930 . S
C640 N641 1.314 . S
C640 C642 1.353 . S
C640 H646 0.930 . S
N641 Li617 1.990 . S
N641 C640 1.314 . S
N641 C644 1.279 . S
C642 C640 1.353 . S
C642 C645 1.348 . S
C642 H690 0.929 . S
C643 C644 1.358 . S
C643 C645 1.356 . S
C643 H691 0.930 . S
C644 N641 1.279 . S
C644 C643 1.358 . S
C644 H647 0.930 . S
C645 C642 1.348 . S
C645 C643 1.356 . S
H646 C640 0.930 . S
H647 C644 0.930 . S
C648 C650 1.348 . S
C648 C651 1.356 . S
C648 O678 1.325 1_545 S
N649 C652 1.314 . S
N649 C653 1.279 . S
C650 C648 1.348 . S
C650 C652 1.353 . S
C650 H692 0.929 . S
C651 C648 1.356 . S
C651 C653 1.358 . S
C651 H693 0.930 . S
C652 N649 1.314 . S
C652 C650 1.353 . S
C652 H694 0.930 . S
C653 N649 1.279 . S
C653 C651 1.358 . S
C653 H695 0.930 . S
C654 C655 1.348 1_565 S
C654 C656 1.356 . S
C654 O679 1.325 . S
C655 C654 1.348 1_545 S
C655 C657 1.353 . S
C655 H696 0.929 . S
C656 C654 1.356 . S
C656 C658 1.358 . S
C656 H697 0.930 . S
C657 C655 1.353 . S
C657 N659 1.314 . S
C657 H698 0.930 . S
C658 C656 1.358 . S
C658 N659 1.279 1_565 S
C658 H699 0.930 . S
N659 C657 1.314 . S
N659 C658 1.279 1_545 S
C660 C662 1.353 . S
C660 N663 1.314 . S
C660 H666 0.930 . S
C661 N663 1.279 . S
C661 C664 1.358 . S
C661 H667 0.930 . S
C662 C660 1.353 . S
C662 C665 1.348 . S
C662 H700 0.929 . S
N663 Li618 1.963 1_545 S
N663 C660 1.314 . S
N663 C661 1.279 . S
C664 C661 1.358 . S
C664 C665 1.356 . S
C664 H701 0.930 . S
C665 C662 1.348 . S
C665 C664 1.356 . S
H666 C660 0.930 . S
H667 C661 0.930 . S
C668 N669 1.314 . S
C668 C670 1.353 . S
C668 H674 0.930 . S
N669 Li619 1.990 . S
N669 C668 1.314 . S
N669 C672 1.279 . S
C670 C668 1.353 . S
C670 C673 1.348 . S
C670 H702 0.929 . S
C671 C672 1.358 . S
C671 C673 1.356 . S
C671 H703 0.939 . S
C672 N669 1.279 . S
C672 C671 1.358 . S
C672 H675 0.930 . S
C673 C670 1.348 . S
C673 C671 1.356 . S
H674 C668 0.930 . S
H675 C672 0.930 . S
O676 Li616 1.956 . S
O676 Li617 1.970 . S
O676 Li618 1.973 . S
O676 C620 1.325 . S
O677 Li616 1.970 . S
O677 Li617 1.956 . S
O677 Li619 1.961 . S
O677 C626 1.325 . S
O678 Li616 1.961 . S
O678 Li618 1.965 . S
O678 Li619 1.970 . S
O678 C648 1.325 1_565 S
O679 Li617 1.961 . S
O679 Li618 1.993 . S
O679 Li619 1.956 . S
O679 C654 1.325 . S
H680 C622 0.929 . S
H681 C623 0.930 . S
H682 C624 0.930 . S
H683 C625 0.930 . S
H684 C627 0.930 . S
H685 C629 0.929 . S
H686 C630 0.930 . S
H687 C631 0.930 . S
H688 C634 0.930 . S
H689 C637 0.929 . S
H690 C642 0.929 . S
H691 C643 0.930 . S
H692 C650 0.929 . S
H693 C651 0.930 . S
H694 C652 0.930 . S
H695 C653 0.930 . S
H696 C655 0.929 . S
H697 C656 0.930 . S
H698 C657 0.930 . S
H699 C658 0.930 . S
H700 C662 0.929 . S
H701 C664 0.930 . S
H702 C670 0.929 . S
H703 C671 0.939 . S
Li704 N721 1.990 . S
Li704 O764 1.956 . S
Li704 O765 1.970 . S
Li704 O766 1.961 . S
Li705 N729 1.990 . S
Li705 O764 1.970 . S
Li705 O765 1.956 . S
Li705 O767 1.961 . S
Li706 N751 1.990 1_455 S
Li706 O764 1.961 . S
Li706 O766 1.956 . S
Li706 O767 1.970 . S
Li707 N757 1.990 . S
Li707 O765 1.961 . S
Li707 O766 1.970 . S
Li707 O767 1.956 . S
C708 C710 1.348 . S
C708 C711 1.356 . S
C708 O764 1.325 . S
N709 C712 1.314 . S
N709 C713 1.279 . S
C710 C708 1.348 . S
C710 C712 1.353 . S
C710 H768 0.929 . S
C711 C708 1.356 . S
C711 C713 1.358 . S
C711 H769 0.930 . S
C712 N709 1.314 . S
C712 C710 1.353 . S
C712 H770 0.930 . S
C713 N709 1.279 . S
C713 C711 1.358 . S
C713 H771 0.930 . S
C714 C717 1.348 . S
C714 C718 1.356 . S
C714 O765 1.325 . S
C715 N716 1.279 . S
C715 C718 1.358 . S
C715 H772 0.930 . S
N716 C715 1.279 . S
N716 C719 1.314 . S
C717 C714 1.348 . S
C717 C719 1.353 . S
C717 H773 0.929 . S
C718 C714 1.356 . S
C718 C715 1.358 . S
C718 H774 0.930 . S
C719 N716 1.314 . S
C719 C717 1.353 . S
C719 H775 0.930 . S
C720 N721 1.314 . S
C720 C725 1.353 . S
C720 H726 0.930 . S
N721 Li704 1.990 . S
N721 C720 1.314 . S
N721 C723 1.279 . S
C722 C723 1.358 . S
C722 C724 1.356 . S
C722 H776 0.930 . S
C723 N721 1.279 . S
C723 C722 1.358 . S
C723 H727 0.930 . S
C724 C722 1.356 . S
C724 C725 1.348 . S
C725 C720 1.353 . S
C725 C724 1.348 . S
C725 H777 0.929 . S
H726 C720 0.930 . S
H727 C723 0.930 . S
C728 N729 1.314 . S
C728 C730 1.353 . S
C728 H734 0.930 . S
N729 Li705 1.990 . S
N729 C728 1.314 . S
N729 C732 1.279 . S
C730 C728 1.353 . S
C730 C733 1.348 . S
C730 H778 0.929 . S
C731 C732 1.358 . S
C731 C733 1.356 . S
C731 H779 0.930 . S
C732 N729 1.279 . S
C732 C731 1.358 . S
C732 H735 0.930 . S
C733 C730 1.348 . S
C733 C731 1.356 . S
H734 C728 0.930 . S
H735 C732 0.930 . S
C736 C738 1.348 . S
C736 C739 1.356 . S
C736 O766 1.325 1_655 S
N737 C740 1.314 . S
N737 C741 1.279 . S
C738 C736 1.348 . S
C738 C740 1.353 . S
C738 H780 0.929 . S
C739 C736 1.356 . S
C739 C741 1.358 . S
C739 H781 0.930 . S
C740 N737 1.314 . S
C740 C738 1.353 . S
C740 H782 0.930 . S
C741 N737 1.279 . S
C741 C739 1.358 . S
C741 H783 0.930 . S
C742 C743 1.348 1_455 S
C742 C744 1.356 . S
C742 O767 1.325 . S
C743 C742 1.348 1_655 S
C743 C745 1.353 . S
C743 H784 0.929 . S
C744 C742 1.356 . S
C744 C746 1.358 . S
C744 H785 0.930 . S
C745 C743 1.353 . S
C745 N747 1.314 . S
C745 H786 0.930 . S
C746 C744 1.358 . S
C746 N747 1.279 1_455 S
C746 H787 0.930 . S
N747 C745 1.314 . S
N747 C746 1.279 1_655 S
C748 C750 1.353 . S
C748 N751 1.314 . S
C748 H754 0.930 . S
C749 N751 1.279 . S
C749 C752 1.358 . S
C749 H755 0.930 . S
C750 C748 1.353 . S
C750 C753 1.348 . S
C750 H788 0.929 . S
N751 Li706 1.990 1_655 S
N751 C748 1.314 . S
N751 C749 1.279 . S
C752 C749 1.358 . S
C752 C753 1.356 . S
C752 H789 0.930 . S
C753 C750 1.348 . S
C753 C752 1.356 . S
H754 C748 0.930 . S
H755 C749 0.930 . S
C756 N757 1.314 . S
C756 C758 1.353 . S
C756 H762 0.930 . S
N757 Li707 1.990 . S
N757 C756 1.314 . S
N757 C760 1.279 . S
C758 C756 1.353 . S
C758 C761 1.348 . S
C758 H790 0.929 . S
C759 C760 1.358 . S
C759 C761 1.356 . S
C759 H791 0.930 . S
C760 N757 1.279 . S
C760 C759 1.358 . S
C760 H763 0.930 . S
C761 C758 1.348 . S
C761 C759 1.356 . S
H762 C756 0.930 . S
H763 C760 0.930 . S
O764 Li704 1.956 . S
O764 Li705 1.970 . S
O764 Li706 1.961 . S
O764 C708 1.325 . S
O765 Li704 1.970 . S
O765 Li705 1.956 . S
O765 Li707 1.961 . S
O765 C714 1.325 . S
O766 Li704 1.961 . S
O766 Li706 1.956 . S
O766 Li707 1.970 . S
O766 C736 1.325 1_455 S
O767 Li705 1.961 . S
O767 Li706 1.970 . S
O767 Li707 1.956 . S
O767 C742 1.325 . S
H768 C710 0.929 . S
H769 C711 0.930 . S
H770 C712 0.930 . S
H771 C713 0.930 . S
H772 C715 0.930 . S
H773 C717 0.929 . S
H774 C718 0.930 . S
H775 C719 0.930 . S
H776 C722 0.930 . S
H777 C725 0.929 . S
H778 C730 0.929 . S
H779 C731 0.930 . S
H780 C738 0.929 . S
H781 C739 0.930 . S
H782 C740 0.930 . S
H783 C741 0.930 . S
H784 C743 0.929 . S
H785 C744 0.930 . S
H786 C745 0.930 . S
H787 C746 0.930 . S
H788 C750 0.929 . S
H789 C752 0.930 . S
H790 C758 0.929 . S
H791 C759 0.930 . S
Li792 N809 1.990 1_565 S
Li792 O852 1.956 . S
Li792 O853 1.970 . S
Li792 O854 1.961 . S
Li793 N817 1.990 . S
Li793 O852 1.970 . S
Li793 O853 1.956 . S
Li793 O855 1.961 . S
Li794 N839 1.990 . S
Li794 O852 1.961 . S
Li794 O854 1.956 . S
Li794 O855 1.970 . S
Li795 N845 1.990 . S
Li795 O853 1.961 . S
Li795 O854 1.970 . S
Li795 O855 1.956 . S
C796 C798 1.348 . S
C796 C799 1.356 . S
C796 O852 1.325 . S
N797 C800 1.314 . S
N797 C801 1.279 . S
C798 C796 1.348 . S
C798 C800 1.353 . S
C798 H856 0.929 . S
C799 C796 1.356 . S
C799 C801 1.358 . S
C799 H857 0.930 . S
C800 N797 1.314 . S
C800 C798 1.353 . S
C800 H858 0.930 . S
C801 N797 1.279 . S
C801 C799 1.358 . S
C801 H859 0.930 . S
C802 C805 1.348 1_565 S
C802 C806 1.356 . S
C802 O853 1.325 . S
C803 N804 1.279 1_565 S
C803 C806 1.358 . S
C803 H860 0.930 . S
N804 C803 1.279 1_545 S
N804 C807 1.314 . S
C805 C802 1.348 1_545 S
C805 C807 1.353 . S
C805 H861 0.929 . S
C806 C802 1.356 . S
C806 C803 1.358 . S
C806 H862 0.930 . S
C807 N804 1.314 . S
C807 C805 1.353 . S
C807 H863 0.930 . S
C808 N809 1.314 . S
C808 C813 1.353 . S
C808 H814 0.930 . S
N809 Li792 1.990 1_545 S
N809 C808 1.314 . S
N809 C811 1.279 . S
C810 C811 1.358 . S
C810 C812 1.356 . S
C810 H864 0.930 . S
C811 N809 1.279 . S
C811 C810 1.358 . S
C811 H815 0.930 . S
C812 C810 1.356 . S
C812 C813 1.348 . S
C813 C808 1.353 . S
C813 C812 1.348 . S
C813 H865 0.929 . S
H814 C808 0.930 . S
H815 C811 0.930 . S
C816 N817 1.314 . S
C816 C818 1.353 . S
C816 H822 0.930 . S
N817 Li793 1.990 . S
N817 C816 1.314 . S
N817 C820 1.279 . S
C818 C816 1.353 . S
C818 C821 1.348 . S
C818 H866 0.929 . S
C819 C820 1.358 . S
C819 C821 1.356 . S
C819 H867 0.930 . S
C820 N817 1.279 . S
C820 C819 1.358 . S
C820 H823 0.930 . S
C821 C818 1.348 . S
C821 C819 1.356 . S
H822 C816 0.930 . S
H823 C820 0.930 . S
C824 C826 1.348 . S
C824 C827 1.356 . S
C824 O854 1.325 1_545 S
N825 C828 1.314 . S
N825 C829 1.279 . S
C826 C824 1.348 . S
C826 C828 1.353 . S
C826 H868 0.929 1_545 S
C827 C824 1.356 . S
C827 C829 1.358 . S
C827 H869 0.930 . S
C828 N825 1.314 . S
C828 C826 1.353 . S
C828 H870 0.930 . S
C829 N825 1.279 . S
C829 C827 1.358 . S
C829 H871 0.930 . S
C830 C831 1.348 . S
C830 C832 1.356 . S
C830 O855 1.325 . S
C831 C830 1.348 . S
C831 C833 1.353 . S
C831 H872 0.929 . S
C832 C830 1.356 . S
C832 C834 1.358 . S
C832 H873 0.930 . S
C833 C831 1.353 . S
C833 N835 1.314 . S
C833 H874 0.930 . S
C834 C832 1.358 . S
C834 N835 1.279 . S
C834 H875 0.930 . S
N835 C833 1.314 . S
N835 C834 1.279 . S
C836 C838 1.353 . S
C836 N839 1.314 . S
C836 H842 0.930 . S
C837 N839 1.279 . S
C837 C840 1.358 . S
C837 H843 0.930 . S
C838 C836 1.353 . S
C838 C841 1.348 . S
C838 H876 0.929 . S
N839 Li794 1.990 . S
N839 C836 1.314 . S
N839 C837 1.279 . S
C840 C837 1.358 . S
C840 C841 1.356 . S
C840 H877 0.930 . S
C841 C838 1.348 . S
C841 C840 1.356 . S
H842 C836 0.930 . S
H843 C837 0.930 . S
C844 N845 1.314 . S
C844 C846 1.353 . S
C844 H850 0.930 1_565 S
N845 Li795 1.990 . S
N845 C844 1.314 . S
N845 C848 1.279 . S
C846 C844 1.353 . S
C846 C849 1.348 . S
C846 H878 0.929 1_565 S
C847 C848 1.358 . S
C847 C849 1.356 . S
C847 H879 0.930 . S
C848 N845 1.279 . S
C848 C847 1.358 . S
C848 H851 0.930 . S
C849 C846 1.348 . S
C849 C847 1.356 . S
H850 C844 0.930 1_545 S
H851 C848 0.930 . S
O852 Li792 1.956 . S
O852 Li793 1.970 . S
O852 Li794 1.961 . S
O852 C796 1.325 . S
O853 Li792 1.970 . S
O853 Li793 1.956 . S
O853 Li795 1.961 . S
O853 C802 1.325 . S
O854 Li792 1.961 . S
O854 Li794 1.956 . S
O854 Li795 1.970 . S
O854 C824 1.325 1_565 S
O855 Li793 1.961 . S
O855 Li794 1.970 . S
O855 Li795 1.956 . S
O855 C830 1.325 . S
H856 C798 0.929 . S
H857 C799 0.930 . S
H858 C800 0.930 . S
H859 C801 0.930 . S
H860 C803 0.930 . S
H861 C805 0.929 . S
H862 C806 0.930 . S
H863 C807 0.930 . S
H864 C810 0.930 . S
H865 C813 0.929 . S
H866 C818 0.929 . S
H867 C819 0.930 . S
H868 C826 0.929 1_565 S
H869 C827 0.930 . S
H870 C828 0.930 . S
H871 C829 0.930 . S
H872 C831 0.929 . S
H873 C832 0.930 . S
H874 C833 0.930 . S
H875 C834 0.930 . S
H876 C838 0.929 . S
H877 C840 0.930 . S
H878 C846 0.929 1_545 S
H879 C847 0.930 . S
Li880 N897 1.990 . S
Li880 O940 1.956 . S
Li880 O941 1.970 . S
Li880 O942 1.961 . S
Li881 N905 1.990 1_455 S
Li881 O940 1.970 . S
Li881 O941 1.956 . S
Li881 O943 1.961 . S
Li882 N927 1.990 . S
Li882 O940 1.961 . S
Li882 O942 1.956 . S
Li882 O943 1.970 . S
Li883 N933 1.990 . S
Li883 O941 1.961 . S
Li883 O942 1.970 . S
Li883 O943 1.956 . S
C884 C886 1.348 1_455 S
C884 C887 1.356 . S
C884 O940 1.325 . S
N885 C888 1.314 . S
N885 C889 1.279 1_655 S
C886 C884 1.348 1_655 S
C886 C888 1.353 . S
C886 H944 0.929 . S
C887 C884 1.356 . S
C887 C889 1.358 . S
C887 H945 0.930 . S
C888 N885 1.314 . S
C888 C886 1.353 . S
C888 H946 0.930 . S
C889 N885 1.279 1_455 S
C889 C887 1.358 . S
C889 H947 0.930 . S
C890 C893 1.348 . S
C890 C894 1.356 . S
C890 O941 1.325 . S
C891 N892 1.279 . S
C891 C894 1.358 . S
C891 H948 0.930 . S
N892 C891 1.279 . S
N892 C895 1.314 . S
C893 C890 1.348 . S
C893 C895 1.353 . S
C893 H949 0.929 . S
C894 C890 1.356 . S
C894 C891 1.358 . S
C894 H950 0.930 . S
C895 N892 1.314 . S
C895 C893 1.353 . S
C895 H951 0.930 . S
C896 N897 1.314 . S
C896 C901 1.353 . S
C896 H902 0.930 . S
N897 Li880 1.990 . S
N897 C896 1.314 . S
N897 C899 1.279 . S
C898 C899 1.358 . S
C898 C900 1.356 . S
C898 H952 0.930 . S
C899 N897 1.279 . S
C899 C898 1.358 . S
C899 H903 0.930 . S
C900 C898 1.356 . S
C900 C901 1.348 . S
C901 C896 1.353 . S
C901 C900 1.348 . S
C901 H953 0.929 . S
H902 C896 0.930 . S
H903 C899 0.930 . S
C904 N905 1.314 . S
C904 C906 1.353 . S
C904 H910 0.930 . S
N905 Li881 1.990 1_655 S
N905 C904 1.314 . S
N905 C908 1.279 . S
C906 C904 1.353 . S
C906 C909 1.348 . S
C906 H954 0.929 . S
C907 C908 1.358 . S
C907 C909 1.356 . S
C907 H955 0.930 . S
C908 N905 1.279 . S
C908 C907 1.358 . S
C908 H911 0.930 . S
C909 C906 1.348 . S
C909 C907 1.356 . S
H910 C904 0.930 . S
H911 C908 0.930 . S
C912 C914 1.348 . S
C912 C915 1.356 . S
C912 O942 1.325 . S
N913 C916 1.314 . S
N913 C917 1.279 . S
C914 C912 1.348 . S
C914 C916 1.353 . S
C914 H956 0.929 . S
C915 C912 1.356 . S
C915 C917 1.358 . S
C915 H957 0.930 . S
C916 N913 1.314 . S
C916 C914 1.353 . S
C916 H958 0.930 . S
C917 N913 1.279 . S
C917 C915 1.358 . S
C917 H959 0.930 . S
C918 C919 1.348 . S
C918 C920 1.356 . S
C918 O943 1.325 1_655 S
C919 C918 1.348 . S
C919 C921 1.353 . S
C919 H960 0.929 1_655 S
C920 C918 1.356 . S
C920 C922 1.358 . S
C920 H961 0.930 . S
C921 C919 1.353 . S
C921 N923 1.314 . S
C921 H962 0.930 . S
C922 C920 1.358 . S
C922 N923 1.279 . S
C922 H963 0.930 . S
N923 C921 1.314 . S
N923 C922 1.279 . S
C924 C926 1.353 . S
C924 N927 1.314 . S
C924 H930 0.930 1_455 S
C925 N927 1.279 . S
C925 C928 1.358 . S
C925 H931 0.930 . S
C926 C924 1.353 . S
C926 C929 1.348 . S
C926 H964 0.929 1_455 S
N927 Li882 1.990 . S
N927 C924 1.314 . S
N927 C925 1.279 . S
C928 C925 1.358 . S
C928 C929 1.356 . S
C928 H965 0.930 . S
C929 C926 1.348 . S
C929 C928 1.356 . S
H930 C924 0.930 1_655 S
H931 C925 0.930 . S
C932 N933 1.314 . S
C932 C934 1.353 . S
C932 H938 0.930 . S
N933 Li883 1.990 . S
N933 C932 1.314 . S
N933 C936 1.279 . S
C934 C932 1.353 . S
C934 C937 1.348 . S
C934 H966 0.929 . S
C935 C936 1.358 . S
C935 C937 1.356 . S
C935 H967 0.930 . S
C936 N933 1.279 . S
C936 C935 1.358 . S
C936 H939 0.930 . S
C937 C934 1.348 . S
C937 C935 1.356 . S
H938 C932 0.930 . S
H939 C936 0.930 . S
O940 Li880 1.956 . S
O940 Li881 1.970 . S
O940 Li882 1.961 . S
O940 C884 1.325 . S
O941 Li880 1.970 . S
O941 Li881 1.956 . S
O941 Li883 1.961 . S
O941 C890 1.325 . S
O942 Li880 1.961 . S
O942 Li882 1.956 . S
O942 Li883 1.970 . S
O942 C912 1.325 . S
O943 Li881 1.961 . S
O943 Li882 1.970 . S
O943 Li883 1.956 . S
O943 C918 1.325 1_455 S
H944 C886 0.929 . S
H945 C887 0.930 . S
H946 C888 0.930 . S
H947 C889 0.930 . S
H948 C891 0.930 . S
H949 C893 0.929 . S
H950 C894 0.930 . S
H951 C895 0.930 . S
H952 C898 0.930 . S
H953 C901 0.929 . S
H954 C906 0.929 . S
H955 C907 0.930 . S
H956 C914 0.929 . S
H957 C915 0.930 . S
H958 C916 0.930 . S
H959 C917 0.930 . S
H960 C919 0.929 1_455 S
H961 C920 0.930 . S
H962 C921 0.930 . S
H963 C922 0.930 . S
H964 C926 0.929 1_655 S
H965 C928 0.930 . S
H966 C934 0.929 . S
H967 C935 0.930 . S
Li968 N985 1.990 . S
Li968 O1028 1.956 . S
Li968 O1029 1.970 . S
Li968 O1030 1.961 . S
Li969 N993 1.990 . S
Li969 O1028 1.970 . S
Li969 O1029 1.956 . S
Li969 O1031 1.961 . S
Li970 N1015 1.990 . S
Li970 O1028 1.961 . S
Li970 O1030 1.956 . S
Li970 O1031 1.970 . S
Li971 N1021 1.990 . S
Li971 O1029 1.961 . S
Li971 O1030 1.970 . S
Li971 O1031 1.956 . S
C972 C974 1.348 . S
C972 C975 1.356 . S
C972 O1028 1.325 . S
N973 C976 1.314 . S
N973 C977 1.279 . S
C974 C972 1.348 . S
C974 C976 1.353 . S
C974 H1032 0.929 . S
C975 C972 1.356 . S
C975 C977 1.358 . S
C975 H1033 0.930 . S
C976 N973 1.314 . S
C976 C974 1.353 . S
C976 H1034 0.930 . S
C977 N973 1.279 . S
C977 C975 1.358 . S
C977 H1035 0.930 . S
C978 C981 1.348 . S
C978 C982 1.356 . S
C978 O1029 1.325 . S
C979 N980 1.279 . S
C979 C982 1.358 . S
C979 H1036 0.930 . S
N980 C979 1.279 . S
N980 C983 1.314 . S
C981 C978 1.348 . S
C981 C983 1.353 . S
C981 H1037 0.929 . S
C982 C978 1.356 . S
C982 C979 1.358 . S
C982 H1038 0.930 . S
C983 N980 1.314 . S
C983 C981 1.353 . S
C983 H1039 0.930 . S
C984 N985 1.314 . S
C984 C989 1.353 . S
C984 H990 0.930 . S
N985 Li968 1.990 . S
N985 C984 1.314 . S
N985 C987 1.279 . S
C986 C987 1.358 . S
C986 C988 1.356 . S
C986 H1040 0.930 . S
C987 N985 1.279 . S
C987 C986 1.358 . S
C987 H991 0.930 . S
C988 C986 1.356 . S
C988 C989 1.348 . S
C989 C984 1.353 . S
C989 C988 1.348 . S
C989 H1041 0.929 . S
H990 C984 0.930 . S
H991 C987 0.930 . S
C992 N993 1.314 . S
C992 C994 1.353 . S
C992 H998 0.930 . S
N993 Li969 1.990 . S
N993 C992 1.314 . S
N993 C996 1.279 . S
C994 C992 1.353 . S
C994 C997 1.348 . S
C994 H1042 0.929 . S
C995 C996 1.358 . S
C995 C997 1.356 . S
C995 H1043 0.930 . S
C996 N993 1.279 . S
C996 C995 1.358 . S
C996 H999 0.930 . S
C997 C994 1.348 . S
C997 C995 1.356 . S
H998 C992 0.930 . S
H999 C996 0.930 . S
C1000 C1002 1.348 . S
C1000 C1003 1.356 . S
C1000 O1030 1.325 . S
N1001 C1004 1.314 . S
N1001 C1005 1.279 . S
C1002 C1000 1.348 . S
C1002 C1004 1.353 . S
C1002 H1044 0.929 . S
C1003 C1000 1.356 . S
C1003 C1005 1.358 . S
C1003 H1045 0.930 . S
C1004 N1001 1.314 . S
C1004 C1002 1.353 . S
C1004 H1046 0.930 . S
C1005 N1001 1.279 . S
C1005 C1003 1.358 . S
C1005 H1047 0.930 . S
C1006 C1007 1.348 . S
C1006 C1008 1.356 . S
C1006 O1031 1.325 . S
C1007 C1006 1.348 . S
C1007 C1009 1.353 . S
C1007 H1048 0.929 . S
C1008 C1006 1.356 . S
C1008 C1010 1.358 . S
C1008 H1049 0.930 . S
C1009 C1007 1.353 . S
C1009 N1011 1.314 . S
C1009 H1050 0.930 . S
C1010 C1008 1.358 . S
C1010 N1011 1.279 . S
C1010 H1051 0.930 . S
N1011 C1009 1.314 . S
N1011 C1010 1.279 . S
C1012 C1014 1.353 . S
C1012 N1015 1.314 . S
C1012 H1018 0.930 . S
C1013 N1015 1.279 . S
C1013 C1016 1.358 . S
C1013 H1019 0.930 . S
C1014 C1012 1.353 . S
C1014 C1017 1.348 . S
C1014 H1052 0.929 . S
N1015 Li970 1.990 . S
N1015 C1012 1.314 . S
N1015 C1013 1.279 . S
C1016 C1013 1.358 . S
C1016 C1017 1.356 . S
C1016 H1053 0.930 . S
C1017 C1014 1.348 . S
C1017 C1016 1.356 . S
H1018 C1012 0.930 . S
H1019 C1013 0.930 . S
C1020 N1021 1.314 . S
C1020 C1022 1.353 . S
C1020 H1026 0.930 . S
N1021 Li971 1.990 . S
N1021 C1020 1.314 . S
N1021 C1024 1.279 . S
C1022 C1020 1.353 . S
C1022 C1025 1.348 . S
C1022 H1054 0.929 . S
C1023 C1024 1.358 . S
C1023 C1025 1.356 . S
C1023 H1055 0.930 . S
C1024 N1021 1.279 . S
C1024 C1023 1.358 . S
C1024 H1027 0.930 . S
C1025 C1022 1.348 . S
C1025 C1023 1.356 . S
H1026 C1020 0.930 . S
H1027 C1024 0.930 . S
O1028 Li968 1.956 . S
O1028 Li969 1.970 . S
O1028 Li970 1.961 . S
O1028 C972 1.325 . S
O1029 Li968 1.970 . S
O1029 Li969 1.956 . S
O1029 Li971 1.961 . S
O1029 C978 1.325 . S
O1030 Li968 1.961 . S
O1030 Li970 1.956 . S
O1030 Li971 1.970 . S
O1030 C1000 1.325 . S
O1031 Li969 1.961 . S
O1031 Li970 1.970 . S
O1031 Li971 1.956 . S
O1031 C1006 1.325 . S
H1032 C974 0.929 . S
H1033 C975 0.930 . S
H1034 C976 0.930 . S
H1035 C977 0.930 . S
H1036 C979 0.930 . S
H1037 C981 0.929 . S
H1038 C982 0.930 . S
H1039 C983 0.930 . S
H1040 C986 0.930 . S
H1041 C989 0.929 . S
H1042 C994 0.929 . S
H1043 C995 0.930 . S
H1044 C1002 0.929 . S
H1045 C1003 0.930 . S
H1046 C1004 0.930 . S
H1047 C1005 0.930 . S
H1048 C1007 0.929 . S
H1049 C1008 0.930 . S
H1050 C1009 0.930 . S
H1051 C1010 0.930 . S
H1052 C1014 0.929 . S
H1053 C1016 0.930 . S
H1054 C1022 0.929 . S
H1055 C1023 0.930 . S
Li1056 N1073 1.990 1_545 S
Li1056 O1116 1.956 . S
Li1056 O1117 1.970 . S
Li1056 O1118 1.961 . S
Li1057 N1081 1.990 . S
Li1057 O1116 1.970 . S
Li1057 O1117 1.956 . S
Li1057 O1119 1.961 . S
Li1058 N1103 1.990 . S
Li1058 O1116 1.961 . S
Li1058 O1118 1.956 . S
Li1058 O1119 1.970 . S
Li1059 N1109 1.990 . S
Li1059 O1117 1.961 . S
Li1059 O1118 1.970 . S
Li1059 O1119 1.956 . S
C1060 C1062 1.348 . S
C1060 C1063 1.356 . S
C1060 O1116 1.325 1_565 S
N1061 C1064 1.314 . S
N1061 C1065 1.279 . S
C1062 C1060 1.348 . S
C1062 C1064 1.353 . S
C1062 H1120 0.929 . S
C1063 C1060 1.356 . S
C1063 C1065 1.358 . S
C1063 H1121 0.930 . S
C1064 N1061 1.314 . S
C1064 C1062 1.353 . S
C1064 H1122 0.930 . S
C1065 N1061 1.279 . S
C1065 C1063 1.358 . S
C1065 H1123 0.930 . S
C1066 C1069 1.348 1_545 S
C1066 C1070 1.356 . S
C1066 O1117 1.325 . S
C1067 N1068 1.279 1_545 S
C1067 C1070 1.358 . S
C1067 H1124 0.930 . S
N1068 C1067 1.279 1_565 S
N1068 C1071 1.314 . S
C1069 C1066 1.348 1_565 S
C1069 C1071 1.353 . S
C1069 H1125 0.929 . S
C1070 C1066 1.356 . S
C1070 C1067 1.358 . S
C1070 H1126 0.930 . S
C1071 N1068 1.314 . S
C1071 C1069 1.353 . S
C1071 H1127 0.930 . S
C1072 N1073 1.314 . S
C1072 C1077 1.353 . S
C1072 H1078 0.930 . S
N1073 Li1056 1.990 1_565 S
N1073 C1072 1.314 . S
N1073 C1075 1.279 . S
C1074 C1075 1.358 . S
C1074 C1076 1.356 . S
C1074 H1128 0.930 . S
C1075 N1073 1.279 . S
C1075 C1074 1.358 . S
C1075 H1079 0.930 . S
C1076 C1074 1.356 . S
C1076 C1077 1.348 . S
C1077 C1072 1.353 . S
C1077 C1076 1.348 . S
C1077 H1129 0.929 . S
H1078 C1072 0.930 . S
H1079 C1075 0.930 . S
C1080 N1081 1.314 . S
C1080 C1082 1.353 . S
C1080 H1086 0.930 . S
N1081 Li1057 1.990 . S
N1081 C1080 1.314 . S
N1081 C1084 1.279 . S
C1082 C1080 1.353 . S
C1082 C1085 1.348 . S
C1082 H1130 0.929 . S
C1083 C1084 1.358 . S
C1083 C1085 1.356 . S
C1083 H1131 0.930 . S
C1084 N1081 1.279 . S
C1084 C1083 1.358 . S
C1084 H1087 0.930 . S
C1085 C1082 1.348 . S
C1085 C1083 1.356 . S
H1086 C1080 0.930 . S
H1087 C1084 0.930 . S
C1088 C1090 1.348 . S
C1088 C1091 1.356 . S
C1088 O1118 1.325 . S
N1089 C1092 1.314 . S
N1089 C1093 1.279 . S
C1090 C1088 1.348 . S
C1090 C1092 1.353 . S
C1090 H1132 0.929 . S
C1091 C1088 1.356 . S
C1091 C1093 1.358 . S
C1091 H1133 0.930 . S
C1092 N1089 1.314 . S
C1092 C1090 1.353 . S
C1092 H1134 0.930 . S
C1093 N1089 1.279 . S
C1093 C1091 1.358 . S
C1093 H1135 0.930 . S
C1094 C1095 1.348 . S
C1094 C1096 1.356 . S
C1094 O1119 1.325 . S
C1095 C1094 1.348 . S
C1095 C1097 1.353 . S
C1095 H1136 0.929 . S
C1096 C1094 1.356 . S
C1096 C1098 1.358 . S
C1096 H1137 0.930 . S
C1097 C1095 1.353 . S
C1097 N1099 1.314 . S
C1097 H1138 0.930 . S
C1098 C1096 1.358 . S
C1098 N1099 1.279 . S
C1098 H1139 0.930 . S
N1099 C1097 1.314 . S
N1099 C1098 1.279 . S
C1100 C1102 1.353 . S
C1100 N1103 1.314 . S
C1100 H1106 0.930 . S
C1101 N1103 1.279 . S
C1101 C1104 1.358 . S
C1101 H1107 0.930 . S
C1102 C1100 1.353 . S
C1102 C1105 1.348 . S
C1102 H1140 0.929 . S
N1103 Li1058 1.990 . S
N1103 C1100 1.314 . S
N1103 C1101 1.279 . S
C1104 C1101 1.358 . S
C1104 C1105 1.356 . S
C1104 H1141 0.930 . S
C1105 C1102 1.348 . S
C1105 C1104 1.356 . S
H1106 C1100 0.930 . S
H1107 C1101 0.930 . S
C1108 N1109 1.314 . S
C1108 C1110 1.353 . S
C1108 H1114 0.930 . S
N1109 Li1059 1.990 . S
N1109 C1108 1.314 . S
N1109 C1112 1.279 . S
C1110 C1108 1.353 . S
C1110 C1113 1.348 . S
C1110 H1142 0.929 . S
C1111 C1112 1.358 . S
C1111 C1113 1.356 . S
C1111 H1143 0.930 . S
C1112 N1109 1.279 . S
C1112 C1111 1.358 . S
C1112 H1115 0.930 . S
C1113 C1110 1.348 . S
C1113 C1111 1.356 . S
H1114 C1108 0.930 . S
H1115 C1112 0.930 . S
O1116 Li1056 1.956 . S
O1116 Li1057 1.970 . S
O1116 Li1058 1.961 . S
O1116 C1060 1.325 1_545 S
O1117 Li1056 1.970 . S
O1117 Li1057 1.956 . S
O1117 Li1059 1.961 . S
O1117 C1066 1.325 . S
O1118 Li1056 1.961 . S
O1118 Li1058 1.956 . S
O1118 Li1059 1.970 . S
O1118 C1088 1.325 . S
O1119 Li1057 1.961 . S
O1119 Li1058 1.970 . S
O1119 Li1059 1.956 . S
O1119 C1094 1.325 . S
H1120 C1062 0.929 . S
H1121 C1063 0.930 . S
H1122 C1064 0.930 . S
H1123 C1065 0.930 . S
H1124 C1067 0.930 . S
H1125 C1069 0.929 . S
H1126 C1070 0.930 . S
H1127 C1071 0.930 . S
H1128 C1074 0.930 . S
H1129 C1077 0.929 . S
H1130 C1082 0.929 . S
H1131 C1083 0.930 . S
H1132 C1090 0.929 . S
H1133 C1091 0.930 . S
H1134 C1092 0.930 . S
H1135 C1093 0.930 . S
H1136 C1095 0.929 . S
H1137 C1096 0.930 . S
H1138 C1097 0.930 . S
H1139 C1098 0.930 . S
H1140 C1102 0.929 . S
H1141 C1104 0.930 . S
H1142 C1110 0.929 . S
H1143 C1111 0.930 . S
Li1144 N1161 1.964 1_655 S
Li1144 O1204 1.965 . S
Li1144 O1205 1.992 . S
Li1144 O1206 1.973 . S
Li1145 N1169 1.990 . S
Li1145 O1204 1.970 . S
Li1145 O1205 1.956 . S
Li1145 O1207 1.961 . S
Li1146 N1191 1.990 . S
Li1146 O1204 1.961 . S
Li1146 O1206 1.956 . S
Li1146 O1207 1.970 . S
Li1147 N1197 1.990 . S
Li1147 O1205 1.961 . S
Li1147 O1206 1.970 . S
Li1147 O1207 1.956 . S
C1148 C1150 1.348 . S
C1148 C1151 1.356 . S
C1148 O1204 1.325 1_455 S
N1149 C1152 1.314 . S
N1149 C1153 1.279 . S
C1150 C1148 1.348 . S
C1150 C1152 1.353 . S
C1150 H1208 0.929 . S
C1151 C1148 1.356 . S
C1151 C1153 1.358 . S
C1151 H1209 0.930 . S
C1152 N1149 1.314 . S
C1152 C1150 1.353 . S
C1152 H1210 0.930 . S
C1153 N1149 1.279 . S
C1153 C1151 1.358 . S
C1153 H1211 0.930 . S
C1154 C1157 1.348 1_655 S
C1154 C1158 1.356 . S
C1154 O1205 1.325 . S
C1155 N1156 1.279 1_655 S
C1155 C1158 1.358 . S
C1155 H1212 0.930 . S
N1156 C1155 1.279 1_455 S
N1156 C1159 1.314 . S
C1157 C1154 1.348 1_455 S
C1157 C1159 1.353 . S
C1157 H1213 0.929 . S
C1158 C1154 1.356 . S
C1158 C1155 1.358 . S
C1158 H1214 0.930 . S
C1159 N1156 1.314 . S
C1159 C1157 1.353 . S
C1159 H1215 0.930 . S
C1160 N1161 1.314 . S
C1160 C1165 1.353 . S
C1160 H1166 0.930 . S
N1161 Li1144 1.964 1_455 S
N1161 C1160 1.314 . S
N1161 C1163 1.279 . S
C1162 C1163 1.358 . S
C1162 C1164 1.356 . S
C1162 H1216 0.930 . S
C1163 N1161 1.279 . S
C1163 C1162 1.358 . S
C1163 H1167 0.930 . S
C1164 C1162 1.356 . S
C1164 C1165 1.348 . S
C1165 C1160 1.353 . S
C1165 C1164 1.348 . S
C1165 H1217 0.929 . S
H1166 C1160 0.930 . S
H1167 C1163 0.930 . S
C1168 N1169 1.314 . S
C1168 C1170 1.353 . S
C1168 H1174 0.930 . S
N1169 Li1145 1.990 . S
N1169 C1168 1.314 . S
N1169 C1172 1.279 . S
C1170 C1168 1.353 . S
C1170 C1173 1.348 . S
C1170 H1218 0.929 . S
C1171 C1172 1.358 . S
C1171 C1173 1.356 . S
C1171 H1219 0.939 . S
C1172 N1169 1.279 . S
C1172 C1171 1.358 . S
C1172 H1175 0.930 . S
C1173 C1170 1.348 . S
C1173 C1171 1.356 . S
H1174 C1168 0.930 . S
H1175 C1172 0.930 . S
C1176 C1178 1.348 . S
C1176 C1179 1.356 . S
C1176 O1206 1.325 . S
N1177 C1180 1.314 . S
N1177 C1181 1.279 . S
C1178 C1176 1.348 . S
C1178 C1180 1.353 . S
C1178 H1220 0.929 . S
C1179 C1176 1.356 . S
C1179 C1181 1.358 . S
C1179 H1221 0.930 . S
C1180 N1177 1.314 . S
C1180 C1178 1.353 . S
C1180 H1222 0.930 . S
C1181 N1177 1.279 . S
C1181 C1179 1.358 . S
C1181 H1223 0.930 . S
C1182 C1183 1.348 . S
C1182 C1184 1.356 . S
C1182 O1207 1.325 . S
C1183 C1182 1.348 . S
C1183 C1185 1.353 . S
C1183 H1224 0.929 . S
C1184 C1182 1.356 . S
C1184 C1186 1.358 . S
C1184 H1225 0.930 . S
C1185 C1183 1.353 . S
C1185 N1187 1.314 . S
C1185 H1226 0.930 . S
C1186 C1184 1.358 . S
C1186 N1187 1.279 . S
C1186 H1227 0.930 . S
N1187 C1185 1.314 . S
N1187 C1186 1.279 . S
C1188 C1190 1.353 . S
C1188 N1191 1.314 . S
C1188 H1194 0.930 . S
C1189 N1191 1.279 . S
C1189 C1192 1.358 . S
C1189 H1195 0.930 . S
C1190 C1188 1.353 . S
C1190 C1193 1.348 . S
C1190 H1228 0.929 . S
N1191 Li1146 1.990 . S
N1191 C1188 1.314 . S
N1191 C1189 1.279 . S
C1192 C1189 1.358 . S
C1192 C1193 1.356 . S
C1192 H1229 0.930 . S
C1193 C1190 1.348 . S
C1193 C1192 1.356 . S
H1194 C1188 0.930 . S
H1195 C1189 0.930 . S
C1196 N1197 1.314 . S
C1196 C1198 1.353 . S
C1196 H1202 0.930 . S
N1197 Li1147 1.990 . S
N1197 C1196 1.314 . S
N1197 C1200 1.279 . S
C1198 C1196 1.353 . S
C1198 C1201 1.348 . S
C1198 H1230 0.929 . S
C1199 C1200 1.358 . S
C1199 C1201 1.356 . S
C1199 H1231 0.930 . S
C1200 N1197 1.279 . S
C1200 C1199 1.358 . S
C1200 H1203 0.930 . S
C1201 C1198 1.348 . S
C1201 C1199 1.356 . S
H1202 C1196 0.930 . S
H1203 C1200 0.930 . S
O1204 Li1144 1.965 . S
O1204 Li1145 1.970 . S
O1204 Li1146 1.961 . S
O1204 C1148 1.325 1_655 S
O1205 Li1144 1.992 . S
O1205 Li1145 1.956 . S
O1205 Li1147 1.961 . S
O1205 C1154 1.325 . S
O1206 Li1144 1.973 . S
O1206 Li1146 1.956 . S
O1206 Li1147 1.970 . S
O1206 C1176 1.325 . S
O1207 Li1145 1.961 . S
O1207 Li1146 1.970 . S
O1207 Li1147 1.956 . S
O1207 C1182 1.325 . S
H1208 C1150 0.929 . S
H1209 C1151 0.930 . S
H1210 C1152 0.930 . S
H1211 C1153 0.930 . S
H1212 C1155 0.930 . S
H1213 C1157 0.929 . S
H1214 C1158 0.930 . S
H1215 C1159 0.930 . S
H1216 C1162 0.930 . S
H1217 C1165 0.929 . S
H1218 C1170 0.929 . S
H1219 C1171 0.939 . S
H1220 C1178 0.929 . S
H1221 C1179 0.930 . S
H1222 C1180 0.930 . S
H1223 C1181 0.930 . S
H1224 C1183 0.929 . S
H1225 C1184 0.930 . S
H1226 C1185 0.930 . S
H1227 C1186 0.930 . S
H1228 C1190 0.929 . S
H1229 C1192 0.930 . S
H1230 C1198 0.929 . S
H1231 C1199 0.930 . S
Li1232 N1249 1.990 . S
Li1232 O1292 1.956 . S
Li1232 O1293 1.970 . S
Li1232 O1294 1.961 . S
Li1233 N1257 1.990 . S
Li1233 O1292 1.970 . S
Li1233 O1293 1.956 . S
Li1233 O1295 1.961 . S
Li1234 N1279 1.990 . S
Li1234 O1292 1.961 . S
Li1234 O1294 1.956 . S
Li1234 O1295 1.970 . S
Li1235 N1285 1.990 . S
Li1235 O1293 1.961 . S
Li1235 O1294 1.970 . S
Li1235 O1295 1.956 . S
C1236 C1238 1.348 . S
C1236 C1239 1.356 . S
C1236 O1292 1.325 . S
N1237 C1240 1.314 . S
N1237 C1241 1.279 . S
C1238 C1236 1.348 . S
C1238 C1240 1.353 . S
C1238 H1296 0.929 . S
C1239 C1236 1.356 . S
C1239 C1241 1.358 . S
C1239 H1297 0.930 . S
C1240 N1237 1.314 . S
C1240 C1238 1.353 . S
C1240 H1298 0.930 . S
C1241 N1237 1.279 . S
C1241 C1239 1.358 . S
C1241 H1299 0.930 . S
C1242 C1245 1.348 . S
C1242 C1246 1.356 . S
C1242 O1293 1.325 . S
C1243 N1244 1.279 . S
C1243 C1246 1.358 . S
C1243 H1300 0.930 . S
N1244 C1243 1.279 . S
N1244 C1247 1.314 . S
C1245 C1242 1.348 . S
C1245 C1247 1.353 . S
C1245 H1301 0.929 . S
C1246 C1242 1.356 . S
C1246 C1243 1.358 . S
C1246 H1302 0.930 . S
C1247 N1244 1.314 . S
C1247 C1245 1.353 . S
C1247 H1303 0.930 . S
C1248 N1249 1.314 . S
C1248 C1253 1.353 . S
C1248 H1254 0.930 . S
N1249 Li1232 1.990 . S
N1249 C1248 1.314 . S
N1249 C1251 1.279 . S
C1250 C1251 1.358 . S
C1250 C1252 1.356 . S
C1250 H1304 0.930 . S
C1251 N1249 1.279 . S
C1251 C1250 1.358 . S
C1251 H1255 0.930 . S
C1252 C1250 1.356 . S
C1252 C1253 1.348 . S
C1253 C1248 1.353 . S
C1253 C1252 1.348 . S
C1253 H1305 0.929 . S
H1254 C1248 0.930 . S
H1255 C1251 0.930 . S
C1256 N1257 1.314 . S
C1256 C1258 1.353 . S
C1256 H1262 0.930 . S
N1257 Li1233 1.990 . S
N1257 C1256 1.314 . S
N1257 C1260 1.279 . S
C1258 C1256 1.353 . S
C1258 C1261 1.348 . S
C1258 H1306 0.929 . S
C1259 C1260 1.358 . S
C1259 C1261 1.356 . S
C1259 H1307 0.930 . S
C1260 N1257 1.279 . S
C1260 C1259 1.358 . S
C1260 H1263 0.930 . S
C1261 C1258 1.348 . S
C1261 C1259 1.356 . S
H1262 C1256 0.930 . S
H1263 C1260 0.930 . S
C1264 C1266 1.348 . S
C1264 C1267 1.356 . S
C1264 O1294 1.325 . S
N1265 C1268 1.314 . S
N1265 C1269 1.279 . S
C1266 C1264 1.348 . S
C1266 C1268 1.353 . S
C1266 H1308 0.929 . S
C1267 C1264 1.356 . S
C1267 C1269 1.358 . S
C1267 H1309 0.930 . S
C1268 N1265 1.314 . S
C1268 C1266 1.353 . S
C1268 H1310 0.930 . S
C1269 N1265 1.279 . S
C1269 C1267 1.358 . S
C1269 H1311 0.930 . S
C1270 C1271 1.348 . S
C1270 C1272 1.356 . S
C1270 O1295 1.325 . S
C1271 C1270 1.348 . S
C1271 C1273 1.353 . S
C1271 H1312 0.929 . S
C1272 C1270 1.356 . S
C1272 C1274 1.358 . S
C1272 H1313 0.930 . S
C1273 C1271 1.353 . S
C1273 N1275 1.314 . S
C1273 H1314 0.930 . S
C1274 C1272 1.358 . S
C1274 N1275 1.279 . S
C1274 H1315 0.930 . S
N1275 C1273 1.314 . S
N1275 C1274 1.279 . S
C1276 C1278 1.353 . S
C1276 N1279 1.314 . S
C1276 H1282 0.930 . S
C1277 N1279 1.279 . S
C1277 C1280 1.358 . S
C1277 H1283 0.930 . S
C1278 C1276 1.353 . S
C1278 C1281 1.348 . S
C1278 H1316 0.929 . S
N1279 Li1234 1.990 . S
N1279 C1276 1.314 . S
N1279 C1277 1.279 . S
C1280 C1277 1.358 . S
C1280 C1281 1.356 . S
C1280 H1317 0.930 . S
C1281 C1278 1.348 . S
C1281 C1280 1.356 . S
H1282 C1276 0.930 . S
H1283 C1277 0.930 . S
C1284 N1285 1.314 . S
C1284 C1286 1.353 . S
C1284 H1290 0.930 . S
N1285 Li1235 1.990 . S
N1285 C1284 1.314 . S
N1285 C1288 1.279 . S
C1286 C1284 1.353 . S
C1286 C1289 1.348 . S
C1286 H1318 0.929 . S
C1287 C1288 1.358 . S
C1287 C1289 1.356 . S
C1287 H1319 0.930 . S
C1288 N1285 1.279 . S
C1288 C1287 1.358 . S
C1288 H1291 0.930 . S
C1289 C1286 1.348 . S
C1289 C1287 1.356 . S
H1290 C1284 0.930 . S
H1291 C1288 0.930 . S
O1292 Li1232 1.956 . S
O1292 Li1233 1.970 . S
O1292 Li1234 1.961 . S
O1292 C1236 1.325 . S
O1293 Li1232 1.970 . S
O1293 Li1233 1.956 . S
O1293 Li1235 1.961 . S
O1293 C1242 1.325 . S
O1294 Li1232 1.961 . S
O1294 Li1234 1.956 . S
O1294 Li1235 1.970 . S
O1294 C1264 1.325 . S
O1295 Li1233 1.961 . S
O1295 Li1234 1.970 . S
O1295 Li1235 1.956 . S
O1295 C1270 1.325 . S
H1296 C1238 0.929 . S
H1297 C1239 0.930 . S
H1298 C1240 0.930 . S
H1299 C1241 0.930 . S
H1300 C1243 0.930 . S
H1301 C1245 0.929 . S
H1302 C1246 0.930 . S
H1303 C1247 0.930 . S
H1304 C1250 0.930 . S
H1305 C1253 0.929 . S
H1306 C1258 0.929 . S
H1307 C1259 0.930 . S
H1308 C1266 0.929 . S
H1309 C1267 0.930 . S
H1310 C1268 0.930 . S
H1311 C1269 0.930 . S
H1312 C1271 0.929 . S
H1313 C1272 0.930 . S
H1314 C1273 0.930 . S
H1315 C1274 0.930 . S
H1316 C1278 0.929 . S
H1317 C1280 0.930 . S
H1318 C1286 0.929 . S
H1319 C1287 0.930 . S
Li1320 N1337 1.990 . S
Li1320 O1380 1.956 . S
Li1320 O1381 1.970 . S
Li1320 O1382 1.961 . S
Li1321 N1345 1.990 . S
Li1321 O1380 1.970 . S
Li1321 O1381 1.956 . S
Li1321 O1383 1.961 . S
Li1322 N1367 1.990 . S
Li1322 O1380 1.961 . S
Li1322 O1382 1.956 . S
Li1322 O1383 1.970 . S
Li1323 N1373 1.990 . S
Li1323 O1381 1.961 . S
Li1323 O1382 1.970 . S
Li1323 O1383 1.956 . S
C1324 C1326 1.348 . S
C1324 C1327 1.356 . S
C1324 O1380 1.325 . S
N1325 C1328 1.314 . S
N1325 C1329 1.279 . S
C1326 C1324 1.348 . S
C1326 C1328 1.353 . S
C1326 H1384 0.929 . S
C1327 C1324 1.356 . S
C1327 C1329 1.358 . S
C1327 H1385 0.930 . S
C1328 N1325 1.314 . S
C1328 C1326 1.353 . S
C1328 H1386 0.930 . S
C1329 N1325 1.279 . S
C1329 C1327 1.358 . S
C1329 H1387 0.930 . S
C1330 C1333 1.348 . S
C1330 C1334 1.356 . S
C1330 O1381 1.325 . S
C1331 N1332 1.279 . S
C1331 C1334 1.358 . S
C1331 H1388 0.930 . S
N1332 C1331 1.279 . S
N1332 C1335 1.314 . S
C1333 C1330 1.348 . S
C1333 C1335 1.353 . S
C1333 H1389 0.929 . S
C1334 C1330 1.356 . S
C1334 C1331 1.358 . S
C1334 H1390 0.930 . S
C1335 N1332 1.314 . S
C1335 C1333 1.353 . S
C1335 H1391 0.930 . S
C1336 N1337 1.314 . S
C1336 C1341 1.353 . S
C1336 H1342 0.930 . S
N1337 Li1320 1.990 . S
N1337 C1336 1.314 . S
N1337 C1339 1.279 . S
C1338 C1339 1.358 . S
C1338 C1340 1.356 . S
C1338 H1392 0.930 . S
C1339 N1337 1.279 . S
C1339 C1338 1.358 . S
C1339 H1343 0.930 . S
C1340 C1338 1.356 . S
C1340 C1341 1.348 . S
C1341 C1336 1.353 . S
C1341 C1340 1.348 . S
C1341 H1393 0.929 . S
H1342 C1336 0.930 . S
H1343 C1339 0.930 . S
C1344 N1345 1.314 . S
C1344 C1346 1.353 . S
C1344 H1350 0.930 . S
N1345 Li1321 1.990 . S
N1345 C1344 1.314 . S
N1345 C1348 1.279 . S
C1346 C1344 1.353 . S
C1346 C1349 1.348 . S
C1346 H1394 0.929 . S
C1347 C1348 1.358 . S
C1347 C1349 1.356 . S
C1347 H1395 0.930 . S
C1348 N1345 1.279 . S
C1348 C1347 1.358 . S
C1348 H1351 0.930 . S
C1349 C1346 1.348 . S
C1349 C1347 1.356 . S
H1350 C1344 0.930 . S
H1351 C1348 0.930 . S
C1352 C1354 1.348 . S
C1352 C1355 1.356 . S
C1352 O1382 1.325 . S
N1353 C1356 1.314 . S
N1353 C1357 1.279 . S
C1354 C1352 1.348 . S
C1354 C1356 1.353 . S
C1354 H1396 0.929 . S
C1355 C1352 1.356 . S
C1355 C1357 1.358 . S
C1355 H1397 0.930 . S
C1356 N1353 1.314 . S
C1356 C1354 1.353 . S
C1356 H1398 0.930 . S
C1357 N1353 1.279 . S
C1357 C1355 1.358 . S
C1357 H1399 0.930 . S
C1358 C1359 1.348 . S
C1358 C1360 1.356 . S
C1358 O1383 1.325 . S
C1359 C1358 1.348 . S
C1359 C1361 1.353 . S
C1359 H1400 0.929 . S
C1360 C1358 1.356 . S
C1360 C1362 1.358 . S
C1360 H1401 0.930 . S
C1361 C1359 1.353 . S
C1361 N1363 1.314 . S
C1361 H1402 0.930 . S
C1362 C1360 1.358 . S
C1362 N1363 1.279 . S
C1362 H1403 0.930 . S
N1363 C1361 1.314 . S
N1363 C1362 1.279 . S
C1364 C1366 1.353 . S
C1364 N1367 1.314 . S
C1364 H1370 0.930 . S
C1365 N1367 1.279 . S
C1365 C1368 1.358 . S
C1365 H1371 0.930 . S
C1366 C1364 1.353 . S
C1366 C1369 1.348 . S
C1366 H1404 0.929 . S
N1367 Li1322 1.990 . S
N1367 C1364 1.314 . S
N1367 C1365 1.279 . S
C1368 C1365 1.358 . S
C1368 C1369 1.356 . S
C1368 H1405 0.930 . S
C1369 C1366 1.348 . S
C1369 C1368 1.356 . S
H1370 C1364 0.930 . S
H1371 C1365 0.930 . S
C1372 N1373 1.314 . S
C1372 C1374 1.353 . S
C1372 H1378 0.930 . S
N1373 Li1323 1.990 . S
N1373 C1372 1.314 . S
N1373 C1376 1.279 . S
C1374 C1372 1.353 . S
C1374 C1377 1.348 . S
C1374 H1406 0.929 . S
C1375 C1376 1.358 . S
C1375 C1377 1.356 . S
C1375 H1407 0.930 . S
C1376 N1373 1.279 . S
C1376 C1375 1.358 . S
C1376 H1379 0.930 . S
C1377 C1374 1.348 . S
C1377 C1375 1.356 . S
H1378 C1372 0.930 . S
H1379 C1376 0.930 . S
O1380 Li1320 1.956 . S
O1380 Li1321 1.970 . S
O1380 Li1322 1.961 . S
O1380 C1324 1.325 . S
O1381 Li1320 1.970 . S
O1381 Li1321 1.956 . S
O1381 Li1323 1.961 . S
O1381 C1330 1.325 . S
O1382 Li1320 1.961 . S
O1382 Li1322 1.956 . S
O1382 Li1323 1.970 . S
O1382 C1352 1.325 . S
O1383 Li1321 1.961 . S
O1383 Li1322 1.970 . S
O1383 Li1323 1.956 . S
O1383 C1358 1.325 . S
H1384 C1326 0.929 . S
H1385 C1327 0.930 . S
H1386 C1328 0.930 . S
H1387 C1329 0.930 . S
H1388 C1331 0.930 . S
H1389 C1333 0.929 . S
H1390 C1334 0.930 . S
H1391 C1335 0.930 . S
H1392 C1338 0.930 . S
H1393 C1341 0.929 . S
H1394 C1346 0.929 . S
H1395 C1347 0.930 . S
H1396 C1354 0.929 . S
H1397 C1355 0.930 . S
H1398 C1356 0.930 . S
H1399 C1357 0.930 . S
H1400 C1359 0.929 . S
H1401 C1360 0.930 . S
H1402 C1361 0.930 . S
H1403 C1362 0.930 . S
H1404 C1366 0.929 . S
H1405 C1368 0.930 . S
H1406 C1374 0.929 . S
H1407 C1375 0.930 . S
Li1408 N1425 1.990 . S
Li1408 O1468 1.956 . S
Li1408 O1469 1.970 . S
Li1408 O1470 1.961 . S
Li1409 N1433 1.990 . S
Li1409 O1468 1.970 . S
Li1409 O1469 1.956 . S
Li1409 O1471 1.961 . S
Li1410 N1455 1.990 . S
Li1410 O1468 1.961 . S
Li1410 O1470 1.956 . S
Li1410 O1471 1.970 . S
Li1411 N1461 1.990 1_545 S
Li1411 O1469 1.961 . S
Li1411 O1470 1.970 . S
Li1411 O1471 1.956 . S
C1412 C1414 1.348 . S
C1412 C1415 1.356 . S
C1412 O1468 1.325 . S
N1413 C1416 1.314 . S
N1413 C1417 1.279 . S
C1414 C1412 1.348 . S
C1414 C1416 1.353 . S
C1414 H1472 0.929 . S
C1415 C1412 1.356 . S
C1415 C1417 1.358 . S
C1415 H1473 0.930 . S
C1416 N1413 1.314 . S
C1416 C1414 1.353 . S
C1416 H1474 0.930 . S
C1417 N1413 1.279 . S
C1417 C1415 1.358 . S
C1417 H1475 0.930 . S
C1418 C1421 1.348 . S
C1418 C1422 1.356 . S
C1418 O1469 1.325 1_565 S
C1419 N1420 1.279 . S
C1419 C1422 1.358 . S
C1419 H1476 0.930 . S
N1420 C1419 1.279 . S
N1420 C1423 1.314 . S
C1421 C1418 1.348 . S
C1421 C1423 1.353 . S
C1421 H1477 0.929 1_565 S
C1422 C1418 1.356 . S
C1422 C1419 1.358 . S
C1422 H1478 0.930 . S
C1423 N1420 1.314 . S
C1423 C1421 1.353 . S
C1423 H1479 0.930 . S
C1424 N1425 1.314 . S
C1424 C1429 1.353 . S
C1424 H1430 0.930 1_545 S
N1425 Li1408 1.990 . S
N1425 C1424 1.314 . S
N1425 C1427 1.279 . S
C1426 C1427 1.358 . S
C1426 C1428 1.356 . S
C1426 H1480 0.930 . S
C1427 N1425 1.279 . S
C1427 C1426 1.358 . S
C1427 H1431 0.930 . S
C1428 C1426 1.356 . S
C1428 C1429 1.348 . S
C1429 C1424 1.353 . S
C1429 C1428 1.348 . S
C1429 H1481 0.929 1_545 S
H1430 C1424 0.930 1_565 S
H1431 C1427 0.930 . S
C1432 N1433 1.314 . S
C1432 C1434 1.353 . S
C1432 H1438 0.930 . S
N1433 Li1409 1.990 . S
N1433 C1432 1.314 . S
N1433 C1436 1.279 . S
C1434 C1432 1.353 . S
C1434 C1437 1.348 . S
C1434 H1482 0.929 . S
C1435 C1436 1.358 . S
C1435 C1437 1.356 . S
C1435 H1483 0.930 . S
C1436 N1433 1.279 . S
C1436 C1435 1.358 . S
C1436 H1439 0.930 . S
C1437 C1434 1.348 . S
C1437 C1435 1.356 . S
H1438 C1432 0.930 . S
H1439 C1436 0.930 . S
C1440 C1442 1.348 1_545 S
C1440 C1443 1.356 . S
C1440 O1470 1.325 . S
N1441 C1444 1.314 . S
N1441 C1445 1.279 1_565 S
C1442 C1440 1.348 1_565 S
C1442 C1444 1.353 . S
C1442 H1484 0.929 . S
C1443 C1440 1.356 . S
C1443 C1445 1.358 . S
C1443 H1485 0.930 . S
C1444 N1441 1.314 . S
C1444 C1442 1.353 . S
C1444 H1486 0.930 . S
C1445 N1441 1.279 1_545 S
C1445 C1443 1.358 . S
C1445 H1487 0.930 . S
C1446 C1447 1.348 . S
C1446 C1448 1.356 . S
C1446 O1471 1.325 . S
C1447 C1446 1.348 . S
C1447 C1449 1.353 . S
C1447 H1488 0.929 . S
C1448 C1446 1.356 . S
C1448 C1450 1.358 . S
C1448 H1489 0.930 . S
C1449 C1447 1.353 . S
C1449 N1451 1.314 . S
C1449 H1490 0.930 . S
C1450 C1448 1.358 . S
C1450 N1451 1.279 . S
C1450 H1491 0.930 . S
N1451 C1449 1.314 . S
N1451 C1450 1.279 . S
C1452 C1454 1.353 . S
C1452 N1455 1.314 . S
C1452 H1458 0.930 . S
C1453 N1455 1.279 . S
C1453 C1456 1.358 . S
C1453 H1459 0.930 . S
C1454 C1452 1.353 . S
C1454 C1457 1.348 . S
C1454 H1492 0.929 . S
N1455 Li1410 1.990 . S
N1455 C1452 1.314 . S
N1455 C1453 1.279 . S
C1456 C1453 1.358 . S
C1456 C1457 1.356 . S
C1456 H1493 0.930 . S
C1457 C1454 1.348 . S
C1457 C1456 1.356 . S
H1458 C1452 0.930 . S
H1459 C1453 0.930 . S
C1460 N1461 1.314 . S
C1460 C1462 1.353 . S
C1460 H1466 0.930 . S
N1461 Li1411 1.990 1_565 S
N1461 C1460 1.314 . S
N1461 C1464 1.279 . S
C1462 C1460 1.353 . S
C1462 C1465 1.348 . S
C1462 H1494 0.929 . S
C1463 C1464 1.358 . S
C1463 C1465 1.356 . S
C1463 H1495 0.930 . S
C1464 N1461 1.279 . S
C1464 C1463 1.358 . S
C1464 H1467 0.930 . S
C1465 C1462 1.348 . S
C1465 C1463 1.356 . S
H1466 C1460 0.930 . S
H1467 C1464 0.930 . S
O1468 Li1408 1.956 . S
O1468 Li1409 1.970 . S
O1468 Li1410 1.961 . S
O1468 C1412 1.325 . S
O1469 Li1408 1.970 . S
O1469 Li1409 1.956 . S
O1469 Li1411 1.961 . S
O1469 C1418 1.325 1_545 S
O1470 Li1408 1.961 . S
O1470 Li1410 1.956 . S
O1470 Li1411 1.970 . S
O1470 C1440 1.325 . S
O1471 Li1409 1.961 . S
O1471 Li1410 1.970 . S
O1471 Li1411 1.956 . S
O1471 C1446 1.325 . S
H1472 C1414 0.929 . S
H1473 C1415 0.930 . S
H1474 C1416 0.930 . S
H1475 C1417 0.930 . S
H1476 C1419 0.930 . S
H1477 C1421 0.929 1_545 S
H1478 C1422 0.930 . S
H1479 C1423 0.930 . S
H1480 C1426 0.930 . S
H1481 C1429 0.929 1_565 S
H1482 C1434 0.929 . S
H1483 C1435 0.930 . S
H1484 C1442 0.929 . S
H1485 C1443 0.930 . S
H1486 C1444 0.930 . S
H1487 C1445 0.930 . S
H1488 C1447 0.929 . S
H1489 C1448 0.930 . S
H1490 C1449 0.930 . S
H1491 C1450 0.930 . S
H1492 C1454 0.929 . S
H1493 C1456 0.930 . S
H1494 C1462 0.929 . S
H1495 C1463 0.930 . S
Li1496 N1513 1.990 . S
Li1496 O1556 1.956 . S
Li1496 O1557 1.970 . S
Li1496 O1558 1.961 . S
Li1497 N1521 1.990 . S
Li1497 O1556 1.970 . S
Li1497 O1557 1.956 . S
Li1497 O1559 1.961 . S
Li1498 N1543 1.990 1_655 S
Li1498 O1556 1.961 . S
Li1498 O1558 1.956 . S
Li1498 O1559 1.970 . S
Li1499 N1549 1.990 . S
Li1499 O1557 1.961 . S
Li1499 O1558 1.970 . S
Li1499 O1559 1.956 . S
C1500 C1502 1.348 . S
C1500 C1503 1.356 . S
C1500 O1556 1.325 1_455 S
N1501 C1504 1.314 . S
N1501 C1505 1.279 . S
C1502 C1500 1.348 . S
C1502 C1504 1.353 . S
C1502 H1560 0.929 1_455 S
C1503 C1500 1.356 . S
C1503 C1505 1.358 . S
C1503 H1561 0.930 . S
C1504 N1501 1.314 . S
C1504 C1502 1.353 . S
C1504 H1562 0.930 . S
C1505 N1501 1.279 . S
C1505 C1503 1.358 . S
C1505 H1563 0.930 . S
C1506 C1509 1.348 . S
C1506 C1510 1.356 . S
C1506 O1557 1.325 . S
C1507 N1508 1.279 . S
C1507 C1510 1.358 . S
C1507 H1564 0.930 . S
N1508 C1507 1.279 . S
N1508 C1511 1.314 . S
C1509 C1506 1.348 . S
C1509 C1511 1.353 . S
C1509 H1565 0.929 . S
C1510 C1506 1.356 . S
C1510 C1507 1.358 . S
C1510 H1566 0.930 . S
C1511 N1508 1.314 . S
C1511 C1509 1.353 . S
C1511 H1567 0.930 . S
C1512 N1513 1.314 . S
C1512 C1517 1.353 . S
C1512 H1518 0.930 . S
N1513 Li1496 1.990 . S
N1513 C1512 1.314 . S
N1513 C1515 1.279 . S
C1514 C1515 1.358 . S
C1514 C1516 1.356 . S
C1514 H1568 0.930 . S
C1515 N1513 1.279 . S
C1515 C1514 1.358 . S
C1515 H1519 0.930 . S
C1516 C1514 1.356 . S
C1516 C1517 1.348 . S
C1517 C1512 1.353 . S
C1517 C1516 1.348 . S
C1517 H1569 0.929 . S
H1518 C1512 0.930 . S
H1519 C1515 0.930 . S
C1520 N1521 1.314 . S
C1520 C1522 1.353 . S
C1520 H1526 0.930 1_655 S
N1521 Li1497 1.990 . S
N1521 C1520 1.314 . S
N1521 C1524 1.279 . S
C1522 C1520 1.353 . S
C1522 C1525 1.348 . S
C1522 H1570 0.929 1_655 S
C1523 C1524 1.358 . S
C1523 C1525 1.356 . S
C1523 H1571 0.930 . S
C1524 N1521 1.279 . S
C1524 C1523 1.358 . S
C1524 H1527 0.930 . S
C1525 C1522 1.348 . S
C1525 C1523 1.356 . S
H1526 C1520 0.930 1_455 S
H1527 C1524 0.930 . S
C1528 C1530 1.348 . S
C1528 C1531 1.356 . S
C1528 O1558 1.325 . S
N1529 C1532 1.314 . S
N1529 C1533 1.279 . S
C1530 C1528 1.348 . S
C1530 C1532 1.353 . S
C1530 H1572 0.929 . S
C1531 C1528 1.356 . S
C1531 C1533 1.358 . S
C1531 H1573 0.930 . S
C1532 N1529 1.314 . S
C1532 C1530 1.353 . S
C1532 H1574 0.930 . S
C1533 N1529 1.279 . S
C1533 C1531 1.358 . S
C1533 H1575 0.930 . S
C1534 C1535 1.348 1_655 S
C1534 C1536 1.356 . S
C1534 O1559 1.325 . S
C1535 C1534 1.348 1_455 S
C1535 C1537 1.353 . S
C1535 H1576 0.929 . S
C1536 C1534 1.356 . S
C1536 C1538 1.358 . S
C1536 H1577 0.930 . S
C1537 C1535 1.353 . S
C1537 N1539 1.314 . S
C1537 H1578 0.930 . S
C1538 C1536 1.358 . S
C1538 N1539 1.279 1_655 S
C1538 H1579 0.930 . S
N1539 C1537 1.314 . S
N1539 C1538 1.279 1_455 S
C1540 C1542 1.353 . S
C1540 N1543 1.314 . S
C1540 H1546 0.930 . S
C1541 N1543 1.279 . S
C1541 C1544 1.358 . S
C1541 H1547 0.930 . S
C1542 C1540 1.353 . S
C1542 C1545 1.348 . S
C1542 H1580 0.929 . S
N1543 Li1498 1.990 1_455 S
N1543 C1540 1.314 . S
N1543 C1541 1.279 . S
C1544 C1541 1.358 . S
C1544 C1545 1.356 . S
C1544 H1581 0.930 . S
C1545 C1542 1.348 . S
C1545 C1544 1.356 . S
H1546 C1540 0.930 . S
H1547 C1541 0.930 . S
C1548 N1549 1.314 . S
C1548 C1550 1.353 . S
C1548 H1554 0.930 . S
N1549 Li1499 1.990 . S
N1549 C1548 1.314 . S
N1549 C1552 1.279 . S
C1550 C1548 1.353 . S
C1550 C1553 1.348 . S
C1550 H1582 0.929 . S
C1551 C1552 1.358 . S
C1551 C1553 1.356 . S
C1551 H1583 0.930 . S
C1552 N1549 1.279 . S
C1552 C1551 1.358 . S
C1552 H1555 0.930 . S
C1553 C1550 1.348 . S
C1553 C1551 1.356 . S
H1554 C1548 0.930 . S
H1555 C1552 0.930 . S
O1556 Li1496 1.956 . S
O1556 Li1497 1.970 . S
O1556 Li1498 1.961 . S
O1556 C1500 1.325 1_655 S
O1557 Li1496 1.970 . S
O1557 Li1497 1.956 . S
O1557 Li1499 1.961 . S
O1557 C1506 1.325 . S
O1558 Li1496 1.961 . S
O1558 Li1498 1.956 . S
O1558 Li1499 1.970 . S
O1558 C1528 1.325 . S
O1559 Li1497 1.961 . S
O1559 Li1498 1.970 . S
O1559 Li1499 1.956 . S
O1559 C1534 1.325 . S
H1560 C1502 0.929 1_655 S
H1561 C1503 0.930 . S
H1562 C1504 0.930 . S
H1563 C1505 0.930 . S
H1564 C1507 0.930 . S
H1565 C1509 0.929 . S
H1566 C1510 0.930 . S
H1567 C1511 0.930 . S
H1568 C1514 0.930 . S
H1569 C1517 0.929 . S
H1570 C1522 0.929 1_455 S
H1571 C1523 0.930 . S
H1572 C1530 0.929 . S
H1573 C1531 0.930 . S
H1574 C1532 0.930 . S
H1575 C1533 0.930 . S
H1576 C1535 0.929 . S
H1577 C1536 0.930 . S
H1578 C1537 0.930 . S
H1579 C1538 0.930 . S
H1580 C1542 0.929 . S
H1581 C1544 0.930 . S
H1582 C1550 0.929 . S
H1583 C1551 0.930 . S
H1584 C1603 0.949 . S
H1585 C1604 0.950 . S
H1586 C1606 0.950 . S
H1587 C1607 0.950 . S
H1588 C1609 0.950 . S
H1589 C1612 0.950 . S
H1590 C1613 0.950 . S
H1591 C1615 0.951 . S
H1592 C1616 0.949 . S
H1593 C1618 0.949 . S
H1594 C1619 0.950 . S
H1595 C1621 0.950 . S
H1596 C1622 0.950 . S
H1597 C1624 0.950 . S
H1598 C1627 0.950 . S
H1599 C1628 0.950 . S
H1600 C1630 0.951 . S
H1601 C1631 0.949 . S
C1602 C1603 1.376 . S
C1602 C1607 1.386 . S
C1602 C1608 1.483 . S
C1603 H1584 0.949 . S
C1603 C1602 1.376 . S
C1603 C1604 1.397 . S
C1604 H1585 0.950 . S
C1604 C1603 1.397 . S
C1604 C1605 1.391 . S
C1605 C1604 1.391 . S
C1605 C1606 1.405 . S
C1606 H1586 0.950 . S
C1606 C1605 1.405 . S
C1606 C1607 1.367 . S
C1607 H1587 0.950 . S
C1607 C1602 1.386 . S
C1607 C1606 1.367 . S
C1608 C1602 1.483 . S
C1608 C1609 1.382 . S
C1608 C1610 1.403 . S
C1609 H1588 0.950 . S
C1609 C1608 1.382 . S
C1609 C1625 1.411 . S
C1610 C1608 1.403 . S
C1610 C1611 1.489 . S
C1610 C1624 1.411 . S
C1611 C1610 1.489 . S
C1611 C1612 1.383 . S
C1611 C1616 1.382 . S
C1612 H1589 0.950 . S
C1612 C1611 1.383 . S
C1612 C1613 1.395 . S
C1613 H1590 0.950 . S
C1613 C1612 1.395 . S
C1613 C1614 1.288 . S
C1614 C1613 1.288 . S
C1614 C1615 1.392 . S
C1615 H1591 0.951 . S
C1615 C1614 1.392 . S
C1615 C1616 1.392 . S
C1616 H1592 0.949 . S
C1616 C1611 1.382 . S
C1616 C1615 1.392 . S
C1617 C1618 1.376 . S
C1617 C1622 1.386 . S
C1617 C1623 1.483 . S
C1618 H1593 0.949 . S
C1618 C1617 1.376 . S
C1618 C1619 1.397 . S
C1619 H1594 0.950 . S
C1619 C1618 1.397 . S
C1619 C1620 1.391 . S
C1620 C1619 1.391 . S
C1620 C1621 1.405 . S
C1621 H1595 0.950 . S
C1621 C1620 1.405 . S
C1621 C1622 1.367 . S
C1622 H1596 0.950 . S
C1622 C1617 1.386 . S
C1622 C1621 1.367 . S
C1623 C1617 1.483 . S
C1623 C1624 1.382 . S
C1623 C1625 1.403 . S
C1624 H1597 0.950 . S
C1624 C1610 1.411 . S
C1624 C1623 1.382 . S
C1625 C1609 1.411 . S
C1625 C1623 1.403 . S
C1625 C1626 1.489 . S
C1626 C1625 1.489 . S
C1626 C1627 1.383 . S
C1626 C1631 1.382 . S
C1627 H1598 0.950 . S
C1627 C1626 1.383 . S
C1627 C1628 1.395 . S
C1628 H1599 0.950 . S
C1628 C1627 1.395 . S
C1628 C1629 1.288 . S
C1629 C1628 1.288 . S
C1629 C1630 1.392 . S
C1630 H1600 0.951 . S
C1630 C1629 1.392 . S
C1630 C1631 1.392 . S
C1631 H1601 0.949 . S
C1631 C1626 1.382 . S
C1631 C1630 1.392 . S
H1632 C1651 0.949 . S
H1633 C1652 0.950 . S
H1634 C1654 0.950 . S
H1635 C1655 0.950 . S
H1636 C1657 0.950 . S
H1637 C1660 0.950 . S
H1638 C1661 0.950 . S
H1639 C1663 0.951 . S
H1640 C1664 0.949 . S
H1641 C1666 0.949 . S
H1642 C1667 0.950 . S
H1643 C1669 0.950 . S
H1644 C1670 0.950 . S
H1645 C1672 0.950 . S
H1646 C1675 0.950 . S
H1647 C1676 0.950 . S
H1648 C1678 0.951 . S
H1649 C1679 0.949 . S
C1650 C1651 1.376 . S
C1650 C1655 1.386 . S
C1650 C1656 1.483 . S
C1651 H1632 0.949 . S
C1651 C1650 1.376 . S
C1651 C1652 1.397 . S
C1652 H1633 0.950 . S
C1652 C1651 1.397 . S
C1652 C1653 1.391 . S
C1653 C1652 1.391 . S
C1653 C1654 1.405 . S
C1654 H1634 0.950 . S
C1654 C1653 1.405 . S
C1654 C1655 1.367 . S
C1655 H1635 0.950 . S
C1655 C1650 1.386 . S
C1655 C1654 1.367 . S
C1656 C1650 1.483 . S
C1656 C1657 1.382 . S
C1656 C1658 1.403 . S
C1657 H1636 0.950 . S
C1657 C1656 1.382 . S
C1657 C1673 1.411 . S
C1658 C1656 1.403 . S
C1658 C1659 1.489 . S
C1658 C1672 1.411 . S
C1659 C1658 1.489 . S
C1659 C1660 1.383 . S
C1659 C1664 1.382 . S
C1660 H1637 0.950 . S
C1660 C1659 1.383 . S
C1660 C1661 1.395 . S
C1661 H1638 0.950 . S
C1661 C1660 1.395 . S
C1661 C1662 1.288 . S
C1662 C1661 1.288 . S
C1662 C1663 1.392 . S
C1663 H1639 0.951 . S
C1663 C1662 1.392 . S
C1663 C1664 1.392 . S
C1664 H1640 0.949 . S
C1664 C1659 1.382 . S
C1664 C1663 1.392 . S
C1665 C1666 1.376 . S
C1665 C1670 1.386 . S
C1665 C1671 1.483 . S
C1666 H1641 0.949 . S
C1666 C1665 1.376 . S
C1666 C1667 1.397 . S
C1667 H1642 0.950 . S
C1667 C1666 1.397 . S
C1667 C1668 1.391 . S
C1668 C1667 1.391 . S
C1668 C1669 1.405 . S
C1669 H1643 0.950 . S
C1669 C1668 1.405 . S
C1669 C1670 1.367 . S
C1670 H1644 0.950 . S
C1670 C1665 1.386 . S
C1670 C1669 1.367 . S
C1671 C1665 1.483 . S
C1671 C1672 1.382 . S
C1671 C1673 1.403 . S
C1672 H1645 0.950 . S
C1672 C1658 1.411 . S
C1672 C1671 1.382 . S
C1673 C1657 1.411 . S
C1673 C1671 1.403 . S
C1673 C1674 1.489 . S
C1674 C1673 1.489 . S
C1674 C1675 1.383 . S
C1674 C1679 1.382 . S
C1675 H1646 0.950 . S
C1675 C1674 1.383 . S
C1675 C1676 1.395 . S
C1676 H1647 0.950 . S
C1676 C1675 1.395 . S
C1676 C1677 1.288 . S
C1677 C1676 1.288 . S
C1677 C1678 1.392 . S
C1678 H1648 0.951 . S
C1678 C1677 1.392 . S
C1678 C1679 1.392 . S
C1679 H1649 0.949 . S
C1679 C1674 1.382 . S
C1679 C1678 1.392 . S
H1680 C1699 0.949 . S
H1681 C1700 0.950 . S
H1682 C1702 0.950 . S
H1683 C1703 0.950 . S
H1684 C1705 0.950 . S
H1685 C1708 0.950 . S
H1686 C1709 0.950 . S
H1687 C1711 0.951 . S
H1688 C1712 0.949 . S
H1689 C1714 0.949 . S
H1690 C1715 0.950 . S
H1691 C1717 0.950 . S
H1692 C1718 0.950 . S
H1693 C1720 0.950 . S
H1694 C1723 0.950 . S
H1695 C1724 0.950 . S
H1696 C1726 0.951 . S
H1697 C1727 0.949 . S
C1698 C1699 1.376 . S
C1698 C1703 1.386 . S
C1698 C1704 1.483 . S
C1699 H1680 0.949 . S
C1699 C1698 1.376 . S
C1699 C1700 1.397 . S
C1700 H1681 0.950 . S
C1700 C1699 1.397 . S
C1700 C1701 1.391 . S
C1701 C1700 1.391 . S
C1701 C1702 1.405 . S
C1702 H1682 0.950 . S
C1702 C1701 1.405 . S
C1702 C1703 1.367 . S
C1703 H1683 0.950 . S
C1703 C1698 1.386 . S
C1703 C1702 1.367 . S
C1704 C1698 1.483 . S
C1704 C1705 1.382 . S
C1704 C1706 1.403 . S
C1705 H1684 0.950 . S
C1705 C1704 1.382 . S
C1705 C1721 1.411 . S
C1706 C1704 1.403 . S
C1706 C1707 1.489 . S
C1706 C1720 1.411 . S
C1707 C1706 1.489 . S
C1707 C1708 1.383 . S
C1707 C1712 1.382 . S
C1708 H1685 0.950 . S
C1708 C1707 1.383 . S
C1708 C1709 1.395 . S
C1709 H1686 0.950 . S
C1709 C1708 1.395 . S
C1709 C1710 1.288 . S
C1710 C1709 1.288 . S
C1710 C1711 1.392 . S
C1711 H1687 0.951 . S
C1711 C1710 1.392 . S
C1711 C1712 1.392 . S
C1712 H1688 0.949 . S
C1712 C1707 1.382 . S
C1712 C1711 1.392 . S
C1713 C1714 1.376 . S
C1713 C1718 1.386 . S
C1713 C1719 1.483 . S
C1714 H1689 0.949 . S
C1714 C1713 1.376 . S
C1714 C1715 1.397 . S
C1715 H1690 0.950 . S
C1715 C1714 1.397 . S
C1715 C1716 1.391 . S
C1716 C1715 1.391 . S
C1716 C1717 1.405 . S
C1717 H1691 0.950 . S
C1717 C1716 1.405 . S
C1717 C1718 1.367 . S
C1718 H1692 0.950 . S
C1718 C1713 1.386 . S
C1718 C1717 1.367 . S
C1719 C1713 1.483 . S
C1719 C1720 1.382 . S
C1719 C1721 1.403 . S
C1720 H1693 0.950 . S
C1720 C1706 1.411 . S
C1720 C1719 1.382 . S
C1721 C1705 1.411 . S
C1721 C1719 1.403 . S
C1721 C1722 1.489 . S
C1722 C1721 1.489 . S
C1722 C1723 1.383 . S
C1722 C1727 1.382 . S
C1723 H1694 0.950 . S
C1723 C1722 1.383 . S
C1723 C1724 1.395 . S
C1724 H1695 0.950 . S
C1724 C1723 1.395 . S
C1724 C1725 1.288 . S
C1725 C1724 1.288 . S
C1725 C1726 1.392 . S
C1726 H1696 0.951 . S
C1726 C1725 1.392 . S
C1726 C1727 1.392 . S
C1727 H1697 0.949 . S
C1727 C1722 1.382 . S
C1727 C1726 1.392 . S
H1728 C1747 0.949 . S
H1729 C1748 0.950 . S
H1730 C1750 0.950 . S
H1731 C1751 0.950 . S
H1732 C1753 0.950 . S
H1733 C1756 0.950 . S
H1734 C1757 0.950 . S
H1735 C1759 0.951 . S
H1736 C1760 0.949 . S
H1737 C1762 0.949 . S
H1738 C1763 0.950 . S
H1739 C1765 0.950 . S
H1740 C1766 0.950 . S
H1741 C1768 0.950 . S
H1742 C1771 0.950 . S
H1743 C1772 0.950 . S
H1744 C1774 0.951 . S
H1745 C1775 0.949 . S
C1746 C1747 1.376 . S
C1746 C1751 1.386 . S
C1746 C1752 1.483 . S
C1747 H1728 0.949 . S
C1747 C1746 1.376 . S
C1747 C1748 1.397 . S
C1748 H1729 0.950 . S
C1748 C1747 1.397 . S
C1748 C1749 1.391 . S
C1749 C1748 1.391 . S
C1749 C1750 1.405 . S
C1750 H1730 0.950 . S
C1750 C1749 1.405 . S
C1750 C1751 1.367 . S
C1751 H1731 0.950 . S
C1751 C1746 1.386 . S
C1751 C1750 1.367 . S
C1752 C1746 1.483 . S
C1752 C1753 1.382 . S
C1752 C1754 1.403 . S
C1753 H1732 0.950 . S
C1753 C1752 1.382 . S
C1753 C1769 1.411 . S
C1754 C1752 1.403 . S
C1754 C1755 1.489 . S
C1754 C1768 1.411 . S
C1755 C1754 1.489 . S
C1755 C1756 1.383 . S
C1755 C1760 1.382 . S
C1756 H1733 0.950 . S
C1756 C1755 1.383 . S
C1756 C1757 1.395 . S
C1757 H1734 0.950 . S
C1757 C1756 1.395 . S
C1757 C1758 1.288 . S
C1758 C1757 1.288 . S
C1758 C1759 1.392 . S
C1759 H1735 0.951 . S
C1759 C1758 1.392 . S
C1759 C1760 1.392 . S
C1760 H1736 0.949 . S
C1760 C1755 1.382 . S
C1760 C1759 1.392 . S
C1761 C1762 1.376 . S
C1761 C1766 1.386 . S
C1761 C1767 1.483 . S
C1762 H1737 0.949 . S
C1762 C1761 1.376 . S
C1762 C1763 1.397 . S
C1763 H1738 0.950 . S
C1763 C1762 1.397 . S
C1763 C1764 1.391 . S
C1764 C1763 1.391 . S
C1764 C1765 1.405 . S
C1765 H1739 0.950 . S
C1765 C1764 1.405 . S
C1765 C1766 1.367 . S
C1766 H1740 0.950 . S
C1766 C1761 1.386 . S
C1766 C1765 1.367 . S
C1767 C1761 1.483 . S
C1767 C1768 1.382 . S
C1767 C1769 1.403 . S
C1768 H1741 0.950 . S
C1768 C1754 1.411 . S
C1768 C1767 1.382 . S
C1769 C1753 1.411 . S
C1769 C1767 1.403 . S
C1769 C1770 1.489 . S
C1770 C1769 1.489 . S
C1770 C1771 1.383 . S
C1770 C1775 1.382 . S
C1771 H1742 0.950 . S
C1771 C1770 1.383 . S
C1771 C1772 1.395 . S
C1772 H1743 0.950 . S
C1772 C1771 1.395 . S
C1772 C1773 1.288 . S
C1773 C1772 1.288 . S
C1773 C1774 1.392 . S
C1774 H1744 0.951 . S
C1774 C1773 1.392 . S
C1774 C1775 1.392 . S
C1775 H1745 0.949 . S
C1775 C1770 1.382 . S
C1775 C1774 1.392 . S
H1776 C1795 0.949 . S
H1777 C1796 0.950 . S
H1778 C1798 0.950 . S
H1779 C1799 0.950 . S
H1780 C1801 0.950 . S
H1781 C1804 0.950 . S
H1782 C1805 0.950 . S
H1783 C1807 0.951 . S
H1784 C1808 0.949 . S
H1785 C1810 0.949 . S
H1786 C1811 0.950 . S
H1787 C1813 0.950 . S
H1788 C1814 0.950 . S
H1789 C1816 0.950 . S
H1790 C1819 0.950 . S
H1791 C1820 0.950 . S
H1792 C1822 0.951 . S
H1793 C1823 0.949 . S
C1794 C1795 1.376 . S
C1794 C1799 1.386 . S
C1794 C1800 1.483 . S
C1795 H1776 0.949 . S
C1795 C1794 1.376 . S
C1795 C1796 1.397 . S
C1796 H1777 0.950 . S
C1796 C1795 1.397 . S
C1796 C1797 1.391 . S
C1797 C1796 1.391 . S
C1797 C1798 1.405 . S
C1798 H1778 0.950 . S
C1798 C1797 1.405 . S
C1798 C1799 1.367 . S
C1799 H1779 0.950 . S
C1799 C1794 1.386 . S
C1799 C1798 1.367 . S
C1800 C1794 1.483 . S
C1800 C1801 1.382 . S
C1800 C1802 1.403 . S
C1801 H1780 0.950 . S
C1801 C1800 1.382 . S
C1801 C1817 1.411 . S
C1802 C1800 1.403 . S
C1802 C1803 1.489 . S
C1802 C1816 1.411 . S
C1803 C1802 1.489 . S
C1803 C1804 1.383 . S
C1803 C1808 1.382 . S
C1804 H1781 0.950 . S
C1804 C1803 1.383 . S
C1804 C1805 1.395 . S
C1805 H1782 0.950 . S
C1805 C1804 1.395 . S
C1805 C1806 1.288 . S
C1806 C1805 1.288 . S
C1806 C1807 1.392 . S
C1807 H1783 0.951 . S
C1807 C1806 1.392 . S
C1807 C1808 1.392 . S
C1808 H1784 0.949 . S
C1808 C1803 1.382 . S
C1808 C1807 1.392 . S
C1809 C1810 1.376 . S
C1809 C1814 1.386 . S
C1809 C1815 1.483 . S
C1810 H1785 0.949 . S
C1810 C1809 1.376 . S
C1810 C1811 1.397 . S
C1811 H1786 0.950 . S
C1811 C1810 1.397 . S
C1811 C1812 1.391 . S
C1812 C1811 1.391 . S
C1812 C1813 1.405 . S
C1813 H1787 0.950 . S
C1813 C1812 1.405 . S
C1813 C1814 1.367 . S
C1814 H1788 0.950 . S
C1814 C1809 1.386 . S
C1814 C1813 1.367 . S
C1815 C1809 1.483 . S
C1815 C1816 1.382 . S
C1815 C1817 1.403 . S
C1816 H1789 0.950 . S
C1816 C1802 1.411 . S
C1816 C1815 1.382 . S
C1817 C1801 1.411 . S
C1817 C1815 1.403 . S
C1817 C1818 1.489 . S
C1818 C1817 1.489 . S
C1818 C1819 1.383 . S
C1818 C1823 1.382 . S
C1819 H1790 0.950 . S
C1819 C1818 1.383 . S
C1819 C1820 1.395 . S
C1820 H1791 0.950 . S
C1820 C1819 1.395 . S
C1820 C1821 1.288 . S
C1821 C1820 1.288 . S
C1821 C1822 1.392 . S
C1822 H1792 0.951 . S
C1822 C1821 1.392 . S
C1822 C1823 1.392 . S
C1823 H1793 0.949 . S
C1823 C1818 1.382 . S
C1823 C1822 1.392 . S
H1824 C1843 0.949 . S
H1825 C1844 0.950 . S
H1826 C1846 0.950 . S
H1827 C1847 0.950 . S
H1828 C1849 0.950 . S
H1829 C1852 0.950 . S
H1830 C1853 0.950 . S
H1831 C1855 0.951 . S
H1832 C1856 0.949 . S
H1833 C1858 0.949 . S
H1834 C1859 0.950 . S
H1835 C1861 0.950 . S
H1836 C1862 0.950 . S
H1837 C1864 0.950 . S
H1838 C1867 0.950 . S
H1839 C1868 0.950 . S
H1840 C1870 0.951 . S
H1841 C1871 0.949 . S
C1842 C1843 1.376 . S
C1842 C1847 1.386 . S
C1842 C1848 1.483 . S
C1843 H1824 0.949 . S
C1843 C1842 1.376 . S
C1843 C1844 1.397 . S
C1844 H1825 0.950 . S
C1844 C1843 1.397 . S
C1844 C1845 1.391 . S
C1845 C1844 1.391 . S
C1845 C1846 1.405 . S
C1846 H1826 0.950 . S
C1846 C1845 1.405 . S
C1846 C1847 1.367 . S
C1847 H1827 0.950 . S
C1847 C1842 1.386 . S
C1847 C1846 1.367 . S
C1848 C1842 1.483 . S
C1848 C1849 1.382 . S
C1848 C1850 1.403 . S
C1849 H1828 0.950 . S
C1849 C1848 1.382 . S
C1849 C1865 1.411 . S
C1850 C1848 1.403 . S
C1850 C1851 1.489 . S
C1850 C1864 1.411 . S
C1851 C1850 1.489 . S
C1851 C1852 1.383 . S
C1851 C1856 1.382 . S
C1852 H1829 0.950 . S
C1852 C1851 1.383 . S
C1852 C1853 1.395 . S
C1853 H1830 0.950 . S
C1853 C1852 1.395 . S
C1853 C1854 1.288 . S
C1854 C1853 1.288 . S
C1854 C1855 1.392 . S
C1855 H1831 0.951 . S
C1855 C1854 1.392 . S
C1855 C1856 1.392 . S
C1856 H1832 0.949 . S
C1856 C1851 1.382 . S
C1856 C1855 1.392 . S
C1857 C1858 1.376 . S
C1857 C1862 1.386 . S
C1857 C1863 1.483 . S
C1858 H1833 0.949 . S
C1858 C1857 1.376 . S
C1858 C1859 1.397 . S
C1859 H1834 0.950 . S
C1859 C1858 1.397 . S
C1859 C1860 1.391 . S
C1860 C1859 1.391 . S
C1860 C1861 1.405 . S
C1861 H1835 0.950 . S
C1861 C1860 1.405 . S
C1861 C1862 1.367 . S
C1862 H1836 0.950 . S
C1862 C1857 1.386 . S
C1862 C1861 1.367 . S
C1863 C1857 1.483 . S
C1863 C1864 1.382 . S
C1863 C1865 1.403 . S
C1864 H1837 0.950 . S
C1864 C1850 1.411 . S
C1864 C1863 1.382 . S
C1865 C1849 1.411 . S
C1865 C1863 1.403 . S
C1865 C1866 1.489 . S
C1866 C1865 1.489 . S
C1866 C1867 1.383 . S
C1866 C1871 1.382 . S
C1867 H1838 0.950 . S
C1867 C1866 1.383 . S
C1867 C1868 1.395 . S
C1868 H1839 0.950 . S
C1868 C1867 1.395 . S
C1868 C1869 1.288 . S
C1869 C1868 1.288 . S
C1869 C1870 1.392 . S
C1870 H1840 0.951 . S
C1870 C1869 1.392 . S
C1870 C1871 1.392 . S
C1871 H1841 0.949 . S
C1871 C1866 1.382 . S
C1871 C1870 1.392 . S
H1872 C1891 0.949 . S
H1873 C1892 0.950 . S
H1874 C1894 0.950 . S
H1875 C1895 0.950 . S
H1876 C1897 0.950 . S
H1877 C1900 0.950 . S
H1878 C1901 0.950 . S
H1879 C1903 0.951 . S
H1880 C1904 0.949 . S
H1881 C1906 0.949 . S
H1882 C1907 0.950 . S
H1883 C1909 0.950 . S
H1884 C1910 0.950 . S
H1885 C1912 0.950 . S
H1886 C1915 0.950 . S
H1887 C1916 0.950 . S
H1888 C1918 0.951 . S
H1889 C1919 0.949 . S
C1890 C1891 1.376 . S
C1890 C1895 1.386 . S
C1890 C1896 1.483 . S
C1891 H1872 0.949 . S
C1891 C1890 1.376 . S
C1891 C1892 1.397 . S
C1892 H1873 0.950 . S
C1892 C1891 1.397 . S
C1892 C1893 1.391 . S
C1893 C1892 1.391 . S
C1893 C1894 1.405 . S
C1894 H1874 0.950 . S
C1894 C1893 1.405 . S
C1894 C1895 1.367 . S
C1895 H1875 0.950 . S
C1895 C1890 1.386 . S
C1895 C1894 1.367 . S
C1896 C1890 1.483 . S
C1896 C1897 1.382 . S
C1896 C1898 1.403 . S
C1897 H1876 0.950 . S
C1897 C1896 1.382 . S
C1897 C1913 1.411 . S
C1898 C1896 1.403 . S
C1898 C1899 1.489 . S
C1898 C1912 1.411 . S
C1899 C1898 1.489 . S
C1899 C1900 1.383 . S
C1899 C1904 1.382 . S
C1900 H1877 0.950 . S
C1900 C1899 1.383 . S
C1900 C1901 1.395 . S
C1901 H1878 0.950 . S
C1901 C1900 1.395 . S
C1901 C1902 1.288 . S
C1902 C1901 1.288 . S
C1902 C1903 1.392 . S
C1903 H1879 0.951 . S
C1903 C1902 1.392 . S
C1903 C1904 1.392 . S
C1904 H1880 0.949 . S
C1904 C1899 1.382 . S
C1904 C1903 1.392 . S
C1905 C1906 1.376 . S
C1905 C1910 1.386 . S
C1905 C1911 1.483 . S
C1906 H1881 0.949 . S
C1906 C1905 1.376 . S
C1906 C1907 1.397 . S
C1907 H1882 0.950 . S
C1907 C1906 1.397 . S
C1907 C1908 1.391 . S
C1908 C1907 1.391 . S
C1908 C1909 1.405 . S
C1909 H1883 0.950 . S
C1909 C1908 1.405 . S
C1909 C1910 1.367 . S
C1910 H1884 0.950 . S
C1910 C1905 1.386 . S
C1910 C1909 1.367 . S
C1911 C1905 1.483 . S
C1911 C1912 1.382 . S
C1911 C1913 1.403 . S
C1912 H1885 0.950 . S
C1912 C1898 1.411 . S
C1912 C1911 1.382 . S
C1913 C1897 1.411 . S
C1913 C1911 1.403 . S
C1913 C1914 1.489 . S
C1914 C1913 1.489 . S
C1914 C1915 1.383 . S
C1914 C1919 1.382 . S
C1915 H1886 0.950 . S
C1915 C1914 1.383 . S
C1915 C1916 1.395 . S
C1916 H1887 0.950 . S
C1916 C1915 1.395 . S
C1916 C1917 1.288 . S
C1917 C1916 1.288 . S
C1917 C1918 1.392 . S
C1918 H1888 0.951 . S
C1918 C1917 1.392 . S
C1918 C1919 1.392 . S
C1919 H1889 0.949 . S
C1919 C1914 1.382 . S
C1919 C1918 1.392 . S
H1920 C1939 0.949 . S
H1921 C1940 0.950 . S
H1922 C1942 0.950 . S
H1923 C1943 0.950 . S
H1924 C1945 0.950 . S
H1925 C1948 0.950 . S
H1926 C1949 0.950 . S
H1927 C1951 0.951 . S
H1928 C1952 0.949 . S
H1929 C1954 0.949 . S
H1930 C1955 0.950 . S
H1931 C1957 0.950 . S
H1932 C1958 0.950 . S
H1933 C1960 0.950 . S
H1934 C1963 0.950 . S
H1935 C1964 0.950 . S
H1936 C1966 0.951 . S
H1937 C1967 0.949 . S
C1938 C1939 1.376 . S
C1938 C1943 1.386 . S
C1938 C1944 1.483 . S
C1939 H1920 0.949 . S
C1939 C1938 1.376 . S
C1939 C1940 1.397 . S
C1940 H1921 0.950 . S
C1940 C1939 1.397 . S
C1940 C1941 1.391 . S
C1941 C1940 1.391 . S
C1941 C1942 1.405 . S
C1942 H1922 0.950 . S
C1942 C1941 1.405 . S
C1942 C1943 1.367 . S
C1943 H1923 0.950 . S
C1943 C1938 1.386 . S
C1943 C1942 1.367 . S
C1944 C1938 1.483 . S
C1944 C1945 1.382 . S
C1944 C1946 1.403 . S
C1945 H1924 0.950 . S
C1945 C1944 1.382 . S
C1945 C1961 1.411 . S
C1946 C1944 1.403 . S
C1946 C1947 1.489 . S
C1946 C1960 1.411 . S
C1947 C1946 1.489 . S
C1947 C1948 1.383 . S
C1947 C1952 1.382 . S
C1948 H1925 0.950 . S
C1948 C1947 1.383 . S
C1948 C1949 1.395 . S
C1949 H1926 0.950 . S
C1949 C1948 1.395 . S
C1949 C1950 1.288 . S
C1950 C1949 1.288 . S
C1950 C1951 1.392 . S
C1951 H1927 0.951 . S
C1951 C1950 1.392 . S
C1951 C1952 1.392 . S
C1952 H1928 0.949 . S
C1952 C1947 1.382 . S
C1952 C1951 1.392 . S
C1953 C1954 1.376 . S
C1953 C1958 1.386 . S
C1953 C1959 1.483 . S
C1954 H1929 0.949 . S
C1954 C1953 1.376 . S
C1954 C1955 1.397 . S
C1955 H1930 0.950 . S
C1955 C1954 1.397 . S
C1955 C1956 1.391 . S
C1956 C1955 1.391 . S
C1956 C1957 1.405 . S
C1957 H1931 0.950 . S
C1957 C1956 1.405 . S
C1957 C1958 1.367 . S
C1958 H1932 0.950 . S
C1958 C1953 1.386 . S
C1958 C1957 1.367 . S
C1959 C1953 1.483 . S
C1959 C1960 1.382 . S
C1959 C1961 1.403 . S
C1960 H1933 0.950 . S
C1960 C1946 1.411 . S
C1960 C1959 1.382 . S
C1961 C1945 1.411 . S
C1961 C1959 1.403 . S
C1961 C1962 1.489 . S
C1962 C1961 1.489 . S
C1962 C1963 1.383 . S
C1962 C1967 1.382 . S
C1963 H1934 0.950 . S
C1963 C1962 1.383 . S
C1963 C1964 1.395 . S
C1964 H1935 0.950 . S
C1964 C1963 1.395 . S
C1964 C1965 1.288 . S
C1965 C1964 1.288 . S
C1965 C1966 1.392 . S
C1966 H1936 0.951 . S
C1966 C1965 1.392 . S
C1966 C1967 1.392 . S
C1967 H1937 0.949 . S
C1967 C1962 1.382 . S
C1967 C1966 1.392 . S
H1968 C1987 0.949 . S
H1969 C1988 0.950 . S
H1970 C1990 0.950 . S
H1971 C1991 0.950 . S
H1972 C1993 0.950 . S
H1973 C1996 0.950 . S
H1974 C1997 0.950 . S
H1975 C1999 0.951 . S
H1976 C2000 0.949 . S
H1977 C2002 0.949 . S
H1978 C2003 0.950 . S
H1979 C2005 0.950 . S
H1980 C2006 0.950 . S
H1981 C2008 0.950 . S
H1982 C2011 0.950 . S
H1983 C2012 0.950 . S
H1984 C2014 0.951 . S
H1985 C2015 0.949 . S
C1986 C1987 1.376 . S
C1986 C1991 1.386 . S
C1986 C1992 1.483 . S
C1987 H1968 0.949 . S
C1987 C1986 1.376 . S
C1987 C1988 1.397 . S
C1988 H1969 0.950 . S
C1988 C1987 1.397 . S
C1988 C1989 1.391 . S
C1989 C1988 1.391 . S
C1989 C1990 1.405 . S
C1990 H1970 0.950 . S
C1990 C1989 1.405 . S
C1990 C1991 1.367 . S
C1991 H1971 0.950 . S
C1991 C1986 1.386 . S
C1991 C1990 1.367 . S
C1992 C1986 1.483 . S
C1992 C1993 1.382 . S
C1992 C1994 1.403 . S
C1993 H1972 0.950 . S
C1993 C1992 1.382 . S
C1993 C2009 1.411 . S
C1994 C1992 1.403 . S
C1994 C1995 1.489 . S
C1994 C2008 1.411 . S
C1995 C1994 1.489 . S
C1995 C1996 1.383 . S
C1995 C2000 1.382 . S
C1996 H1973 0.950 . S
C1996 C1995 1.383 . S
C1996 C1997 1.395 . S
C1997 H1974 0.950 . S
C1997 C1996 1.395 . S
C1997 C1998 1.288 . S
C1998 C1997 1.288 . S
C1998 C1999 1.392 . S
C1999 H1975 0.951 . S
C1999 C1998 1.392 . S
C1999 C2000 1.392 . S
C2000 H1976 0.949 . S
C2000 C1995 1.382 . S
C2000 C1999 1.392 . S
C2001 C2002 1.376 . S
C2001 C2006 1.386 . S
C2001 C2007 1.483 . S
C2002 H1977 0.949 . S
C2002 C2001 1.376 . S
C2002 C2003 1.397 . S
C2003 H1978 0.950 . S
C2003 C2002 1.397 . S
C2003 C2004 1.391 . S
C2004 C2003 1.391 . S
C2004 C2005 1.405 . S
C2005 H1979 0.950 . S
C2005 C2004 1.405 . S
C2005 C2006 1.367 . S
C2006 H1980 0.950 . S
C2006 C2001 1.386 . S
C2006 C2005 1.367 . S
C2007 C2001 1.483 . S
C2007 C2008 1.382 . S
C2007 C2009 1.403 . S
C2008 H1981 0.950 . S
C2008 C1994 1.411 . S
C2008 C2007 1.382 . S
C2009 C1993 1.411 . S
C2009 C2007 1.403 . S
C2009 C2010 1.489 . S
C2010 C2009 1.489 . S
C2010 C2011 1.383 . S
C2010 C2015 1.382 . S
C2011 H1982 0.950 . S
C2011 C2010 1.383 . S
C2011 C2012 1.395 . S
C2012 H1983 0.950 . S
C2012 C2011 1.395 . S
C2012 C2013 1.288 . S
C2013 C2012 1.288 . S
C2013 C2014 1.392 . S
C2014 H1984 0.951 . S
C2014 C2013 1.392 . S
C2014 C2015 1.392 . S
C2015 H1985 0.949 . S
C2015 C2010 1.382 . S
C2015 C2014 1.392 . S
H2016 C2035 0.949 . S
H2017 C2036 0.950 . S
H2018 C2038 0.950 . S
H2019 C2039 0.950 . S
H2020 C2041 0.950 . S
H2021 C2044 0.950 . S
H2022 C2045 0.950 . S
H2023 C2047 0.951 . S
H2024 C2048 0.949 . S
H2025 C2050 0.949 . S
H2026 C2051 0.950 . S
H2027 C2053 0.950 . S
H2028 C2054 0.950 . S
H2029 C2056 0.950 . S
H2030 C2059 0.950 . S
H2031 C2060 0.950 . S
H2032 C2062 0.951 . S
H2033 C2063 0.949 . S
C2034 C2035 1.376 . S
C2034 C2039 1.386 1_655 S
C2034 C2040 1.483 . S
C2035 H2016 0.949 . S
C2035 C2034 1.376 . S
C2035 C2036 1.397 . S
C2036 H2017 0.950 . S
C2036 C2035 1.397 . S
C2036 C2037 1.391 . S
C2037 C2036 1.391 . S
C2037 C2038 1.405 1_655 S
C2038 H2018 0.950 . S
C2038 C2037 1.405 1_455 S
C2038 C2039 1.367 . S
C2039 H2019 0.950 . S
C2039 C2034 1.386 1_455 S
C2039 C2038 1.367 . S
C2040 C2034 1.483 . S
C2040 C2041 1.382 . S
C2040 C2042 1.403 1_655 S
C2041 H2020 0.950 . S
C2041 C2040 1.382 . S
C2041 C2057 1.411 . S
C2042 C2040 1.403 1_455 S
C2042 C2043 1.489 . S
C2042 C2056 1.411 . S
C2043 C2042 1.489 . S
C2043 C2044 1.383 1_455 S
C2043 C2048 1.382 . S
C2044 H2021 0.950 . S
C2044 C2043 1.383 1_655 S
C2044 C2045 1.395 . S
C2045 H2022 0.950 . S
C2045 C2044 1.395 . S
C2045 C2046 1.288 1_655 S
C2046 C2045 1.288 1_455 S
C2046 C2047 1.392 . S
C2047 H2023 0.951 . S
C2047 C2046 1.392 . S
C2047 C2048 1.392 . S
C2048 H2024 0.949 . S
C2048 C2043 1.382 . S
C2048 C2047 1.392 . S
C2049 C2050 1.376 . S
C2049 C2054 1.386 1_455 S
C2049 C2055 1.483 . S
C2050 H2025 0.949 . S
C2050 C2049 1.376 . S
C2050 C2051 1.397 . S
C2051 H2026 0.950 . S
C2051 C2050 1.397 . S
C2051 C2052 1.391 . S
C2052 C2051 1.391 . S
C2052 C2053 1.405 1_455 S
C2053 H2027 0.950 . S
C2053 C2052 1.405 1_655 S
C2053 C2054 1.367 . S
C2054 H2028 0.950 . S
C2054 C2049 1.386 1_655 S
C2054 C2053 1.367 . S
C2055 C2049 1.483 . S
C2055 C2056 1.382 . S
C2055 C2057 1.403 1_455 S
C2056 H2029 0.950 . S
C2056 C2042 1.411 . S
C2056 C2055 1.382 . S
C2057 C2041 1.411 . S
C2057 C2055 1.403 1_655 S
C2057 C2058 1.489 . S
C2058 C2057 1.489 . S
C2058 C2059 1.383 1_655 S
C2058 C2063 1.382 . S
C2059 H2030 0.950 . S
C2059 C2058 1.383 1_455 S
C2059 C2060 1.395 . S
C2060 H2031 0.950 . S
C2060 C2059 1.395 . S
C2060 C2061 1.288 1_455 S
C2061 C2060 1.288 1_655 S
C2061 C2062 1.392 . S
C2062 H2032 0.951 . S
C2062 C2061 1.392 . S
C2062 C2063 1.392 . S
C2063 H2033 0.949 . S
C2063 C2058 1.382 . S
C2063 C2062 1.392 . S
H2064 C2083 0.949 . S
H2065 C2084 0.950 . S
H2066 C2086 0.950 . S
H2067 C2087 0.950 . S
H2068 C2089 0.950 . S
H2069 C2092 0.950 . S
H2070 C2093 0.950 . S
H2071 C2095 0.951 . S
H2072 C2096 0.949 . S
H2073 C2098 0.949 . S
H2074 C2099 0.950 . S
H2075 C2101 0.950 . S
H2076 C2102 0.950 . S
H2077 C2104 0.950 . S
H2078 C2107 0.950 . S
H2079 C2108 0.950 . S
H2080 C2110 0.951 . S
H2081 C2111 0.949 . S
C2082 C2083 1.376 . S
C2082 C2087 1.386 . S
C2082 C2088 1.483 . S
C2083 H2064 0.949 . S
C2083 C2082 1.376 . S
C2083 C2084 1.397 . S
C2084 H2065 0.950 . S
C2084 C2083 1.397 . S
C2084 C2085 1.391 . S
C2085 C2084 1.391 . S
C2085 C2086 1.405 . S
C2086 H2066 0.950 . S
C2086 C2085 1.405 . S
C2086 C2087 1.367 . S
C2087 H2067 0.950 . S
C2087 C2082 1.386 . S
C2087 C2086 1.367 . S
C2088 C2082 1.483 . S
C2088 C2089 1.382 . S
C2088 C2090 1.403 . S
C2089 H2068 0.950 . S
C2089 C2088 1.382 . S
C2089 C2105 1.411 . S
C2090 C2088 1.403 . S
C2090 C2091 1.489 . S
C2090 C2104 1.411 . S
C2091 C2090 1.489 . S
C2091 C2092 1.383 . S
C2091 C2096 1.382 . S
C2092 H2069 0.950 . S
C2092 C2091 1.383 . S
C2092 C2093 1.395 . S
C2093 H2070 0.950 . S
C2093 C2092 1.395 . S
C2093 C2094 1.288 . S
C2094 C2093 1.288 . S
C2094 C2095 1.392 . S
C2095 H2071 0.951 . S
C2095 C2094 1.392 . S
C2095 C2096 1.392 . S
C2096 H2072 0.949 . S
C2096 C2091 1.382 . S
C2096 C2095 1.392 . S
C2097 C2098 1.376 . S
C2097 C2102 1.386 . S
C2097 C2103 1.483 . S
C2098 H2073 0.949 . S
C2098 C2097 1.376 . S
C2098 C2099 1.397 . S
C2099 H2074 0.950 . S
C2099 C2098 1.397 . S
C2099 C2100 1.391 . S
C2100 C2099 1.391 . S
C2100 C2101 1.405 . S
C2101 H2075 0.950 . S
C2101 C2100 1.405 . S
C2101 C2102 1.367 . S
C2102 H2076 0.950 . S
C2102 C2097 1.386 . S
C2102 C2101 1.367 . S
C2103 C2097 1.483 . S
C2103 C2104 1.382 . S
C2103 C2105 1.403 . S
C2104 H2077 0.950 . S
C2104 C2090 1.411 . S
C2104 C2103 1.382 . S
C2105 C2089 1.411 . S
C2105 C2103 1.403 . S
C2105 C2106 1.489 . S
C2106 C2105 1.489 . S
C2106 C2107 1.383 . S
C2106 C2111 1.382 . S
C2107 H2078 0.950 . S
C2107 C2106 1.383 . S
C2107 C2108 1.395 . S
C2108 H2079 0.950 . S
C2108 C2107 1.395 . S
C2108 C2109 1.288 . S
C2109 C2108 1.288 . S
C2109 C2110 1.392 . S
C2110 H2080 0.951 . S
C2110 C2109 1.392 . S
C2110 C2111 1.392 . S
C2111 H2081 0.949 . S
C2111 C2106 1.382 . S
C2111 C2110 1.392 . S
H2112 C2131 0.949 . S
H2113 C2132 0.950 . S
H2114 C2134 0.950 . S
H2115 C2135 0.950 . S
H2116 C2137 0.950 . S
H2117 C2140 0.950 . S
H2118 C2141 0.950 . S
H2119 C2143 0.951 . S
H2120 C2144 0.949 . S
H2121 C2146 0.949 . S
H2122 C2147 0.950 . S
H2123 C2149 0.950 . S
H2124 C2150 0.950 . S
H2125 C2152 0.950 . S
H2126 C2155 0.950 . S
H2127 C2156 0.950 . S
H2128 C2158 0.951 . S
H2129 C2159 0.949 . S
C2130 C2131 1.376 . S
C2130 C2135 1.386 1_545 S
C2130 C2136 1.483 . S
C2131 H2112 0.949 . S
C2131 C2130 1.376 . S
C2131 C2132 1.397 . S
C2132 H2113 0.950 . S
C2132 C2131 1.397 . S
C2132 C2133 1.391 . S
C2133 C2132 1.391 . S
C2133 C2134 1.405 1_545 S
C2134 H2114 0.950 . S
C2134 C2133 1.405 1_565 S
C2134 C2135 1.367 . S
C2135 H2115 0.950 . S
C2135 C2130 1.386 1_565 S
C2135 C2134 1.367 . S
C2136 C2130 1.483 . S
C2136 C2137 1.382 . S
C2136 C2138 1.403 1_545 S
C2137 H2116 0.950 . S
C2137 C2136 1.382 . S
C2137 C2153 1.411 . S
C2138 C2136 1.403 1_565 S
C2138 C2139 1.489 . S
C2138 C2152 1.411 . S
C2139 C2138 1.489 . S
C2139 C2140 1.383 1_565 S
C2139 C2144 1.382 . S
C2140 H2117 0.950 . S
C2140 C2139 1.383 1_545 S
C2140 C2141 1.395 . S
C2141 H2118 0.950 . S
C2141 C2140 1.395 . S
C2141 C2142 1.288 1_545 S
C2142 C2141 1.288 1_565 S
C2142 C2143 1.392 . S
C2143 H2119 0.951 . S
C2143 C2142 1.392 . S
C2143 C2144 1.392 . S
C2144 H2120 0.949 . S
C2144 C2139 1.382 . S
C2144 C2143 1.392 . S
C2145 C2146 1.376 . S
C2145 C2150 1.386 1_565 S
C2145 C2151 1.483 . S
C2146 H2121 0.949 . S
C2146 C2145 1.376 . S
C2146 C2147 1.397 . S
C2147 H2122 0.950 . S
C2147 C2146 1.397 . S
C2147 C2148 1.391 . S
C2148 C2147 1.391 . S
C2148 C2149 1.405 1_565 S
C2149 H2123 0.950 . S
C2149 C2148 1.405 1_545 S
C2149 C2150 1.367 . S
C2150 H2124 0.950 . S
C2150 C2145 1.386 1_545 S
C2150 C2149 1.367 . S
C2151 C2145 1.483 . S
C2151 C2152 1.382 . S
C2151 C2153 1.403 1_565 S
C2152 H2125 0.950 . S
C2152 C2138 1.411 . S
C2152 C2151 1.382 . S
C2153 C2137 1.411 . S
C2153 C2151 1.403 1_545 S
C2153 C2154 1.489 . S
C2154 C2153 1.489 . S
C2154 C2155 1.383 1_545 S
C2154 C2159 1.382 . S
C2155 H2126 0.950 . S
C2155 C2154 1.383 1_565 S
C2155 C2156 1.395 . S
C2156 H2127 0.950 . S
C2156 C2155 1.395 . S
C2156 C2157 1.288 1_565 S
C2157 C2156 1.288 1_545 S
C2157 C2158 1.392 . S
C2158 H2128 0.951 . S
C2158 C2157 1.392 . S
C2158 C2159 1.392 . S
C2159 H2129 0.949 . S
C2159 C2154 1.382 . S
C2159 C2158 1.392 . S
H2160 C2179 0.949 . S
H2161 C2180 0.950 . S
H2162 C2182 0.950 . S
H2163 C2183 0.950 . S
H2164 C2185 0.950 . S
H2165 C2188 0.950 . S
H2166 C2189 0.950 . S
H2167 C2191 0.951 . S
H2168 C2192 0.949 . S
H2169 C2194 0.949 . S
H2170 C2195 0.950 . S
H2171 C2197 0.950 . S
H2172 C2198 0.950 . S
H2173 C2200 0.950 . S
H2174 C2203 0.950 . S
H2175 C2204 0.950 . S
H2176 C2206 0.951 . S
H2177 C2207 0.949 . S
C2178 C2179 1.378 . S
C2178 C2183 1.385 1_545 S
C2178 C2184 1.506 . S
C2179 H2160 0.949 . S
C2179 C2178 1.378 . S
C2179 C2180 1.397 . S
C2180 H2161 0.950 . S
C2180 C2179 1.397 . S
C2180 C2181 1.391 1_545 S
C2181 C2180 1.391 1_565 S
C2181 C2182 1.405 . S
C2182 H2162 0.950 . S
C2182 C2181 1.405 . S
C2182 C2183 1.367 . S
C2183 H2163 0.950 . S
C2183 C2178 1.385 1_565 S
C2183 C2182 1.367 . S
C2184 C2178 1.506 . S
C2184 C2185 1.359 . S
C2184 C2186 1.399 1_545 S
C2185 H2164 0.950 . S
C2185 C2184 1.359 . S
C2185 C2201 1.440 . S
C2186 C2184 1.399 1_565 S
C2186 C2187 1.480 . S
C2186 C2200 1.430 . S
C2187 C2186 1.480 . S
C2187 C2188 1.367 1_565 S
C2187 C2192 1.390 . S
C2188 H2165 0.950 . S
C2188 C2187 1.367 1_545 S
C2188 C2189 1.395 . S
C2189 H2166 0.950 . S
C2189 C2188 1.395 . S
C2189 C2190 1.288 . S
C2190 C2189 1.288 . S
C2190 C2191 1.392 1_545 S
C2191 H2167 0.951 . S
C2191 C2190 1.392 1_565 S
C2191 C2192 1.392 . S
C2192 H2168 0.949 . S
C2192 C2187 1.390 . S
C2192 C2191 1.392 . S
C2193 C2194 1.378 1_545 S
C2193 C2198 1.385 . S
C2193 C2199 1.498 1_545 S
C2194 H2169 0.949 . S
C2194 C2193 1.378 1_565 S
C2194 C2195 1.397 . S
C2195 H2170 0.950 . S
C2195 C2194 1.397 . S
C2195 C2196 1.391 1_565 S
C2196 C2195 1.391 1_545 S
C2196 C2197 1.405 . S
C2197 H2171 0.950 . S
C2197 C2196 1.405 . S
C2197 C2198 1.367 . S
C2198 H2172 0.950 . S
C2198 C2193 1.385 . S
C2198 C2197 1.367 . S
C2199 C2193 1.498 1_565 S
C2199 C2200 1.367 . S
C2199 C2201 1.399 1_565 S
C2200 H2173 0.950 . S
C2200 C2186 1.430 . S
C2200 C2199 1.367 . S
C2201 C2185 1.440 . S
C2201 C2199 1.399 1_545 S
C2201 C2202 1.480 . S
C2202 C2201 1.480 . S
C2202 C2203 1.348 1_545 S
C2202 C2207 1.401 . S
C2203 H2174 0.950 . S
C2203 C2202 1.348 1_565 S
C2203 C2204 1.395 . S
C2204 H2175 0.950 . S
C2204 C2203 1.395 . S
C2204 C2205 1.288 . S
C2205 C2204 1.288 . S
C2205 C2206 1.392 1_565 S
C2206 H2176 0.951 . S
C2206 C2205 1.392 1_545 S
C2206 C2207 1.392 . S
C2207 H2177 0.949 . S
C2207 C2202 1.401 . S
C2207 C2206 1.392 . S
H2208 C2227 0.949 . S
H2209 C2228 0.950 . S
H2210 C2230 0.950 . S
H2211 C2231 0.950 . S
H2212 C2233 0.950 . S
H2213 C2236 0.950 . S
H2214 C2237 0.950 . S
H2215 C2239 0.951 . S
H2216 C2240 0.949 . S
H2217 C2242 0.949 . S
H2218 C2243 0.950 . S
H2219 C2245 0.950 . S
H2220 C2246 0.950 . S
H2221 C2248 0.950 . S
H2222 C2251 0.950 . S
H2223 C2252 0.950 . S
H2224 C2254 0.951 . S
H2225 C2255 0.949 . S
C2226 C2227 1.376 . S
C2226 C2231 1.386 1_455 S
C2226 C2232 1.483 . S
C2227 H2208 0.949 . S
C2227 C2226 1.376 . S
C2227 C2228 1.397 . S
C2228 H2209 0.950 . S
C2228 C2227 1.397 . S
C2228 C2229 1.391 . S
C2229 C2228 1.391 . S
C2229 C2230 1.405 1_455 S
C2230 H2210 0.950 . S
C2230 C2229 1.405 1_655 S
C2230 C2231 1.367 . S
C2231 H2211 0.950 . S
C2231 C2226 1.386 1_655 S
C2231 C2230 1.367 . S
C2232 C2226 1.483 . S
C2232 C2233 1.382 . S
C2232 C2234 1.403 1_455 S
C2233 H2212 0.950 . S
C2233 C2232 1.382 . S
C2233 C2249 1.411 . S
C2234 C2232 1.403 1_655 S
C2234 C2235 1.489 . S
C2234 C2248 1.411 . S
C2235 C2234 1.489 . S
C2235 C2236 1.383 1_655 S
C2235 C2240 1.382 . S
C2236 H2213 0.950 . S
C2236 C2235 1.383 1_455 S
C2236 C2237 1.395 . S
C2237 H2214 0.950 . S
C2237 C2236 1.395 . S
C2237 C2238 1.288 1_455 S
C2238 C2237 1.288 1_655 S
C2238 C2239 1.392 . S
C2239 H2215 0.951 . S
C2239 C2238 1.392 . S
C2239 C2240 1.392 . S
C2240 H2216 0.949 . S
C2240 C2235 1.382 . S
C2240 C2239 1.392 . S
C2241 C2242 1.376 . S
C2241 C2246 1.386 1_655 S
C2241 C2247 1.483 . S
C2242 H2217 0.949 . S
C2242 C2241 1.376 . S
C2242 C2243 1.397 . S
C2243 H2218 0.950 . S
C2243 C2242 1.397 . S
C2243 C2244 1.391 . S
C2244 C2243 1.391 . S
C2244 C2245 1.405 1_655 S
C2245 H2219 0.950 . S
C2245 C2244 1.405 1_455 S
C2245 C2246 1.367 . S
C2246 H2220 0.950 . S
C2246 C2241 1.386 1_455 S
C2246 C2245 1.367 . S
C2247 C2241 1.483 . S
C2247 C2248 1.382 . S
C2247 C2249 1.403 1_655 S
C2248 H2221 0.950 . S
C2248 C2234 1.411 . S
C2248 C2247 1.382 . S
C2249 C2233 1.411 . S
C2249 C2247 1.403 1_455 S
C2249 C2250 1.489 . S
C2250 C2249 1.489 . S
C2250 C2251 1.383 1_455 S
C2250 C2255 1.382 . S
C2251 H2222 0.950 . S
C2251 C2250 1.383 1_655 S
C2251 C2252 1.395 . S
C2252 H2223 0.950 . S
C2252 C2251 1.395 . S
C2252 C2253 1.288 1_655 S
C2253 C2252 1.288 1_455 S
C2253 C2254 1.392 . S
C2254 H2224 0.951 . S
C2254 C2253 1.392 . S
C2254 C2255 1.392 . S
C2255 H2225 0.949 . S
C2255 C2250 1.382 . S
C2255 C2254 1.392 . S
H2256 C2275 0.949 . S
H2257 C2276 0.950 . S
H2258 C2278 0.950 . S
H2259 C2279 0.950 . S
H2260 C2281 0.950 . S
H2261 C2284 0.950 . S
H2262 C2285 0.950 . S
H2263 C2287 0.951 . S
H2264 C2288 0.949 . S
H2265 C2290 0.949 . S
H2266 C2291 0.950 . S
H2267 C2293 0.950 . S
H2268 C2294 0.950 . S
H2269 C2296 0.950 . S
H2270 C2299 0.950 . S
H2271 C2300 0.950 . S
H2272 C2302 0.951 . S
H2273 C2303 0.949 . S
C2274 C2275 1.376 . S
C2274 C2279 1.386 . S
C2274 C2280 1.483 . S
C2275 H2256 0.949 . S
C2275 C2274 1.376 . S
C2275 C2276 1.397 . S
C2276 H2257 0.950 . S
C2276 C2275 1.397 . S
C2276 C2277 1.391 . S
C2277 C2276 1.391 . S
C2277 C2278 1.405 . S
C2278 H2258 0.950 . S
C2278 C2277 1.405 . S
C2278 C2279 1.367 . S
C2279 H2259 0.950 . S
C2279 C2274 1.386 . S
C2279 C2278 1.367 . S
C2280 C2274 1.483 . S
C2280 C2281 1.382 . S
C2280 C2282 1.403 . S
C2281 H2260 0.950 . S
C2281 C2280 1.382 . S
C2281 C2297 1.411 . S
C2282 C2280 1.403 . S
C2282 C2283 1.489 . S
C2282 C2296 1.411 . S
C2283 C2282 1.489 . S
C2283 C2284 1.383 . S
C2283 C2288 1.382 . S
C2284 H2261 0.950 . S
C2284 C2283 1.383 . S
C2284 C2285 1.395 . S
C2285 H2262 0.950 . S
C2285 C2284 1.395 . S
C2285 C2286 1.288 . S
C2286 C2285 1.288 . S
C2286 C2287 1.392 . S
C2287 H2263 0.951 . S
C2287 C2286 1.392 . S
C2287 C2288 1.392 . S
C2288 H2264 0.949 . S
C2288 C2283 1.382 . S
C2288 C2287 1.392 . S
C2289 C2290 1.376 . S
C2289 C2294 1.386 . S
C2289 C2295 1.483 . S
C2290 H2265 0.949 . S
C2290 C2289 1.376 . S
C2290 C2291 1.397 . S
C2291 H2266 0.950 . S
C2291 C2290 1.397 . S
C2291 C2292 1.391 . S
C2292 C2291 1.391 . S
C2292 C2293 1.405 . S
C2293 H2267 0.950 . S
C2293 C2292 1.405 . S
C2293 C2294 1.367 . S
C2294 H2268 0.950 . S
C2294 C2289 1.386 . S
C2294 C2293 1.367 . S
C2295 C2289 1.483 . S
C2295 C2296 1.382 . S
C2295 C2297 1.403 . S
C2296 H2269 0.950 . S
C2296 C2282 1.411 . S
C2296 C2295 1.382 . S
C2297 C2281 1.411 . S
C2297 C2295 1.403 . S
C2297 C2298 1.489 . S
C2298 C2297 1.489 . S
C2298 C2299 1.383 . S
C2298 C2303 1.382 . S
C2299 H2270 0.950 . S
C2299 C2298 1.383 . S
C2299 C2300 1.395 . S
C2300 H2271 0.950 . S
C2300 C2299 1.395 . S
C2300 C2301 1.288 . S
C2301 C2300 1.288 . S
C2301 C2302 1.392 . S
C2302 H2272 0.951 . S
C2302 C2301 1.392 . S
C2302 C2303 1.392 . S
C2303 H2273 0.949 . S
C2303 C2298 1.382 . S
C2303 C2302 1.392 . S
H2304 C2323 0.949 . S
H2305 C2324 0.950 . S
H2306 C2326 0.950 . S
H2307 C2327 0.950 . S
H2308 C2329 0.950 . S
H2309 C2332 0.950 . S
H2310 C2333 0.950 . S
H2311 C2335 0.951 . S
H2312 C2336 0.949 . S
H2313 C2338 0.949 . S
H2314 C2339 0.950 . S
H2315 C2341 0.950 . S
H2316 C2342 0.950 . S
H2317 C2344 0.950 . S
H2318 C2347 0.950 . S
H2319 C2348 0.950 . S
H2320 C2350 0.951 . S
H2321 C2351 0.949 . S
C2322 C2323 1.376 . S
C2322 C2327 1.386 . S
C2322 C2328 1.483 . S
C2323 H2304 0.949 . S
C2323 C2322 1.376 . S
C2323 C2324 1.397 . S
C2324 H2305 0.950 . S
C2324 C2323 1.397 . S
C2324 C2325 1.391 . S
C2325 C2324 1.391 . S
C2325 C2326 1.405 . S
C2326 H2306 0.950 . S
C2326 C2325 1.405 . S
C2326 C2327 1.367 . S
C2327 H2307 0.950 . S
C2327 C2322 1.386 . S
C2327 C2326 1.367 . S
C2328 C2322 1.483 . S
C2328 C2329 1.382 . S
C2328 C2330 1.403 . S
C2329 H2308 0.950 . S
C2329 C2328 1.382 . S
C2329 C2345 1.411 . S
C2330 C2328 1.403 . S
C2330 C2331 1.489 . S
C2330 C2344 1.411 . S
C2331 C2330 1.489 . S
C2331 C2332 1.383 . S
C2331 C2336 1.382 . S
C2332 H2309 0.950 . S
C2332 C2331 1.383 . S
C2332 C2333 1.395 . S
C2333 H2310 0.950 . S
C2333 C2332 1.395 . S
C2333 C2334 1.288 . S
C2334 C2333 1.288 . S
C2334 C2335 1.392 . S
C2335 H2311 0.951 . S
C2335 C2334 1.392 . S
C2335 C2336 1.392 . S
C2336 H2312 0.949 . S
C2336 C2331 1.382 . S
C2336 C2335 1.392 . S
C2337 C2338 1.376 . S
C2337 C2342 1.386 . S
C2337 C2343 1.483 . S
C2338 H2313 0.949 . S
C2338 C2337 1.376 . S
C2338 C2339 1.397 . S
C2339 H2314 0.950 . S
C2339 C2338 1.397 . S
C2339 C2340 1.391 . S
C2340 C2339 1.391 . S
C2340 C2341 1.405 . S
C2341 H2315 0.950 . S
C2341 C2340 1.405 . S
C2341 C2342 1.367 . S
C2342 H2316 0.950 . S
C2342 C2337 1.386 . S
C2342 C2341 1.367 . S
C2343 C2337 1.483 . S
C2343 C2344 1.382 . S
C2343 C2345 1.403 . S
C2344 H2317 0.950 . S
C2344 C2330 1.411 . S
C2344 C2343 1.382 . S
C2345 C2329 1.411 . S
C2345 C2343 1.403 . S
C2345 C2346 1.489 . S
C2346 C2345 1.489 . S
C2346 C2347 1.383 . S
C2346 C2351 1.382 . S
C2347 H2318 0.950 . S
C2347 C2346 1.383 . S
C2347 C2348 1.395 . S
C2348 H2319 0.950 . S
C2348 C2347 1.395 . S
C2348 C2349 1.288 . S
C2349 C2348 1.288 . S
C2349 C2350 1.392 . S
C2350 H2320 0.951 . S
C2350 C2349 1.392 . S
C2350 C2351 1.392 . S
C2351 H2321 0.949 . S
C2351 C2346 1.382 . S
C2351 C2350 1.392 . S
H2352 C2371 0.949 . S
H2353 C2372 0.950 . S
H2354 C2374 0.950 . S
H2355 C2375 0.950 . S
H2356 C2377 0.950 . S
H2357 C2380 0.950 . S
H2358 C2381 0.950 . S
H2359 C2383 0.951 . S
H2360 C2384 0.949 . S
H2361 C2386 0.949 . S
H2362 C2387 0.950 . S
H2363 C2389 0.950 . S
H2364 C2390 0.950 . S
H2365 C2392 0.950 . S
H2366 C2395 0.950 . S
H2367 C2396 0.950 . S
H2368 C2398 0.951 . S
H2369 C2399 0.949 . S
C2370 C2371 1.376 . S
C2370 C2375 1.386 . S
C2370 C2376 1.483 . S
C2371 H2352 0.949 . S
C2371 C2370 1.376 . S
C2371 C2372 1.397 . S
C2372 H2353 0.950 . S
C2372 C2371 1.397 . S
C2372 C2373 1.391 . S
C2373 C2372 1.391 . S
C2373 C2374 1.405 . S
C2374 H2354 0.950 . S
C2374 C2373 1.405 . S
C2374 C2375 1.367 . S
C2375 H2355 0.950 . S
C2375 C2370 1.386 . S
C2375 C2374 1.367 . S
C2376 C2370 1.483 . S
C2376 C2377 1.382 . S
C2376 C2378 1.403 . S
C2377 H2356 0.950 . S
C2377 C2376 1.382 . S
C2377 C2393 1.411 . S
C2378 C2376 1.403 . S
C2378 C2379 1.489 . S
C2378 C2392 1.411 . S
C2379 C2378 1.489 . S
C2379 C2380 1.383 . S
C2379 C2384 1.382 . S
C2380 H2357 0.950 . S
C2380 C2379 1.383 . S
C2380 C2381 1.395 . S
C2381 H2358 0.950 . S
C2381 C2380 1.395 . S
C2381 C2382 1.288 . S
C2382 C2381 1.288 . S
C2382 C2383 1.392 . S
C2383 H2359 0.951 . S
C2383 C2382 1.392 . S
C2383 C2384 1.392 . S
C2384 H2360 0.949 . S
C2384 C2379 1.382 . S
C2384 C2383 1.392 . S
C2385 C2386 1.376 . S
C2385 C2390 1.386 . S
C2385 C2391 1.483 . S
C2386 H2361 0.949 . S
C2386 C2385 1.376 . S
C2386 C2387 1.397 . S
C2387 H2362 0.950 . S
C2387 C2386 1.397 . S
C2387 C2388 1.391 . S
C2388 C2387 1.391 . S
C2388 C2389 1.405 . S
C2389 H2363 0.950 . S
C2389 C2388 1.405 . S
C2389 C2390 1.367 . S
C2390 H2364 0.950 . S
C2390 C2385 1.386 . S
C2390 C2389 1.367 . S
C2391 C2385 1.483 . S
C2391 C2392 1.382 . S
C2391 C2393 1.403 . S
C2392 H2365 0.950 . S
C2392 C2378 1.411 . S
C2392 C2391 1.382 . S
C2393 C2377 1.411 . S
C2393 C2391 1.403 . S
C2393 C2394 1.489 . S
C2394 C2393 1.489 . S
C2394 C2395 1.383 . S
C2394 C2399 1.382 . S
C2395 H2366 0.950 . S
C2395 C2394 1.383 . S
C2395 C2396 1.395 . S
C2396 H2367 0.950 . S
C2396 C2395 1.395 . S
C2396 C2397 1.288 . S
C2397 C2396 1.288 . S
C2397 C2398 1.392 . S
C2398 H2368 0.951 . S
C2398 C2397 1.392 . S
C2398 C2399 1.392 . S
C2399 H2369 0.949 . S
C2399 C2394 1.382 . S
C2399 C2398 1.392 . S
H2400 C2419 0.949 . S
H2401 C2420 0.950 . S
H2402 C2422 0.950 . S
H2403 C2423 0.950 . S
H2404 C2425 0.950 . S
H2405 C2428 0.950 . S
H2406 C2429 0.950 . S
H2407 C2431 0.951 . S
H2408 C2432 0.949 . S
H2409 C2434 0.949 . S
H2410 C2435 0.950 . S
H2411 C2437 0.950 . S
H2412 C2438 0.950 . S
H2413 C2440 0.950 . S
H2414 C2443 0.950 . S
H2415 C2444 0.950 . S
H2416 C2446 0.951 . S
H2417 C2447 0.949 . S
C2418 C2419 1.376 . S
C2418 C2423 1.386 . S
C2418 C2424 1.483 . S
C2419 H2400 0.949 . S
C2419 C2418 1.376 . S
C2419 C2420 1.397 . S
C2420 H2401 0.950 . S
C2420 C2419 1.397 . S
C2420 C2421 1.391 . S
C2421 C2420 1.391 . S
C2421 C2422 1.405 . S
C2422 H2402 0.950 . S
C2422 C2421 1.405 . S
C2422 C2423 1.367 . S
C2423 H2403 0.950 . S
C2423 C2418 1.386 . S
C2423 C2422 1.367 . S
C2424 C2418 1.483 . S
C2424 C2425 1.382 . S
C2424 C2426 1.403 . S
C2425 H2404 0.950 . S
C2425 C2424 1.382 . S
C2425 C2441 1.411 . S
C2426 C2424 1.403 . S
C2426 C2427 1.489 . S
C2426 C2440 1.411 . S
C2427 C2426 1.489 . S
C2427 C2428 1.383 . S
C2427 C2432 1.382 . S
C2428 H2405 0.950 . S
C2428 C2427 1.383 . S
C2428 C2429 1.395 . S
C2429 H2406 0.950 . S
C2429 C2428 1.395 . S
C2429 C2430 1.288 . S
C2430 C2429 1.288 . S
C2430 C2431 1.392 . S
C2431 H2407 0.951 . S
C2431 C2430 1.392 . S
C2431 C2432 1.392 . S
C2432 H2408 0.949 . S
C2432 C2427 1.382 . S
C2432 C2431 1.392 . S
C2433 C2434 1.376 . S
C2433 C2438 1.386 . S
C2433 C2439 1.483 . S
C2434 H2409 0.949 . S
C2434 C2433 1.376 . S
C2434 C2435 1.397 . S
C2435 H2410 0.950 . S
C2435 C2434 1.397 . S
C2435 C2436 1.391 . S
C2436 C2435 1.391 . S
C2436 C2437 1.405 . S
C2437 H2411 0.950 . S
C2437 C2436 1.405 . S
C2437 C2438 1.367 . S
C2438 H2412 0.950 . S
C2438 C2433 1.386 . S
C2438 C2437 1.367 . S
C2439 C2433 1.483 . S
C2439 C2440 1.382 . S
C2439 C2441 1.403 . S
C2440 H2413 0.950 . S
C2440 C2426 1.411 . S
C2440 C2439 1.382 . S
C2441 C2425 1.411 . S
C2441 C2439 1.403 . S
C2441 C2442 1.489 . S
C2442 C2441 1.489 . S
C2442 C2443 1.383 . S
C2442 C2447 1.382 . S
C2443 H2414 0.950 . S
C2443 C2442 1.383 . S
C2443 C2444 1.395 . S
C2444 H2415 0.950 . S
C2444 C2443 1.395 . S
C2444 C2445 1.288 . S
C2445 C2444 1.288 . S
C2445 C2446 1.392 . S
C2446 H2416 0.951 . S
C2446 C2445 1.392 . S
C2446 C2447 1.392 . S
C2447 H2417 0.949 . S
C2447 C2442 1.382 . S
C2447 C2446 1.392 . S
H2448 C2454 0.930 . S
H2449 C2457 0.930 . S
H2450 C2458 0.930 . S
H2451 C2459 0.929 . S
H2452 C2462 0.930 . S
H2453 C2463 0.930 . S
C2454 H2448 0.930 . S
C2454 C2455 1.355 . S
C2454 C2456 1.415 . S
C2455 C2454 1.355 . S
C2455 C2457 1.419 . S
C2456 C2454 1.415 . S
C2456 C2461 1.425 . S
C2456 C2463 1.409 . S
C2457 H2449 0.930 . S
C2457 C2455 1.419 . S
C2457 C2458 1.362 . S
C2458 H2450 0.930 . S
C2458 C2457 1.362 . S
C2458 C2461 1.409 . S
C2459 H2451 0.929 . S
C2459 C2460 1.355 . S
C2459 C2461 1.415 . S
C2460 C2459 1.355 . S
C2460 C2462 1.419 . S
C2461 C2456 1.425 . S
C2461 C2458 1.409 . S
C2461 C2459 1.415 . S
C2462 H2452 0.930 . S
C2462 C2460 1.419 . S
C2462 C2463 1.362 . S
C2463 H2453 0.930 . S
C2463 C2456 1.409 . S
C2463 C2462 1.362 . S
H2464 C2470 0.930 . S
H2465 C2473 0.930 . S
H2466 C2474 0.930 . S
H2467 C2475 0.930 . S
H2468 C2478 0.930 . S
H2469 C2479 0.930 . S
C2470 H2464 0.930 . S
C2470 C2471 1.355 . S
C2470 C2472 1.415 . S
C2471 C2470 1.355 . S
C2471 C2473 1.419 . S
C2472 C2470 1.415 . S
C2472 C2477 1.425 . S
C2472 C2479 1.409 . S
C2473 H2465 0.930 . S
C2473 C2471 1.419 . S
C2473 C2474 1.362 . S
C2474 H2466 0.930 . S
C2474 C2473 1.362 . S
C2474 C2477 1.409 . S
C2475 H2467 0.930 . S
C2475 C2476 1.355 . S
C2475 C2477 1.415 . S
C2476 C2475 1.355 . S
C2476 C2478 1.419 . S
C2477 C2472 1.425 . S
C2477 C2474 1.409 . S
C2477 C2475 1.415 . S
C2478 H2468 0.930 . S
C2478 C2476 1.419 . S
C2478 C2479 1.362 . S
C2479 H2469 0.930 . S
C2479 C2472 1.409 . S
C2479 C2478 1.362 . S
H2480 C2486 0.930 . S
H2481 C2489 0.930 . S
H2482 C2490 0.930 . S
H2483 C2491 0.936 . S
H2484 C2494 0.930 . S
H2485 C2495 0.930 . S
C2486 H2480 0.930 . S
C2486 C2487 1.355 . S
C2486 C2488 1.415 . S
C2487 C2486 1.355 . S
C2487 C2489 1.419 . S
C2488 C2486 1.415 . S
C2488 C2493 1.425 . S
C2488 C2495 1.409 . S
C2489 H2481 0.930 . S
C2489 C2487 1.419 . S
C2489 C2490 1.362 . S
C2490 H2482 0.930 . S
C2490 C2489 1.362 . S
C2490 C2493 1.409 . S
C2491 H2483 0.936 . S
C2491 C2492 1.355 . S
C2491 C2493 1.415 . S
C2492 C2491 1.355 . S
C2492 C2494 1.419 . S
C2493 C2488 1.425 . S
C2493 C2490 1.409 . S
C2493 C2491 1.415 . S
C2494 H2484 0.930 . S
C2494 C2492 1.419 . S
C2494 C2495 1.362 . S
C2495 H2485 0.930 . S
C2495 C2488 1.409 . S
C2495 C2494 1.362 . S
H2496 C2502 0.930 . S
H2497 C2505 0.972 . S
H2498 C2506 0.930 . S
H2499 C2507 0.930 . S
H2500 C2510 0.930 . S
H2501 C2511 0.930 . S
C2502 H2496 0.930 . S
C2502 C2503 1.355 . S
C2502 C2504 1.415 . S
C2503 C2502 1.355 . S
C2503 C2505 1.380 1_565 S
C2504 C2502 1.415 . S
C2504 C2509 1.425 . S
C2504 C2511 1.409 . S
C2505 H2497 0.972 . S
C2505 C2503 1.380 1_545 S
C2505 C2506 1.361 . S
C2506 H2498 0.930 . S
C2506 C2505 1.361 . S
C2506 C2509 1.409 1_545 S
C2507 H2499 0.930 . S
C2507 C2508 1.355 1_545 S
C2507 C2509 1.415 1_545 S
C2508 C2507 1.355 1_565 S
C2508 C2510 1.419 . S
C2509 C2504 1.425 . S
C2509 C2506 1.409 1_565 S
C2509 C2507 1.415 1_565 S
C2510 H2500 0.930 . S
C2510 C2508 1.419 . S
C2510 C2511 1.362 . S
C2511 H2501 0.930 . S
C2511 C2504 1.409 . S
C2511 C2510 1.362 . S
H2512 C2518 0.930 . S
H2513 C2521 0.920 1_655 S
H2514 C2522 0.930 . S
H2515 C2523 0.930 . S
H2516 C2526 0.930 . S
H2517 C2527 0.930 . S
C2518 H2512 0.930 . S
C2518 C2519 1.355 . S
C2518 C2520 1.415 . S
C2519 C2518 1.355 . S
C2519 C2521 1.477 . S
C2520 C2518 1.415 . S
C2520 C2525 1.425 . S
C2520 C2527 1.409 . S
C2521 H2513 0.920 1_455 S
C2521 C2519 1.477 . S
C2521 C2522 1.317 1_455 S
C2522 H2514 0.930 . S
C2522 C2521 1.317 1_655 S
C2522 C2525 1.409 1_655 S
C2523 H2515 0.930 . S
C2523 C2524 1.355 1_655 S
C2523 C2525 1.415 1_655 S
C2524 C2523 1.355 1_455 S
C2524 C2526 1.419 . S
C2525 C2520 1.425 . S
C2525 C2522 1.409 1_455 S
C2525 C2523 1.415 1_455 S
C2526 H2516 0.930 . S
C2526 C2524 1.419 . S
C2526 C2527 1.362 . S
C2527 H2517 0.930 . S
C2527 C2520 1.409 . S
C2527 C2526 1.362 . S
H2528 C2534 0.930 . S
H2529 C2537 0.930 . S
H2530 C2538 0.930 . S
H2531 C2539 0.930 . S
H2532 C2542 0.930 . S
H2533 C2543 0.930 . S
C2534 H2528 0.930 . S
C2534 C2535 1.355 . S
C2534 C2536 1.415 . S
C2535 C2534 1.355 . S
C2535 C2537 1.419 . S
C2536 C2534 1.415 . S
C2536 C2541 1.425 . S
C2536 C2543 1.409 . S
C2537 H2529 0.930 . S
C2537 C2535 1.419 . S
C2537 C2538 1.362 . S
C2538 H2530 0.930 . S
C2538 C2537 1.362 . S
C2538 C2541 1.409 . S
C2539 H2531 0.930 . S
C2539 C2540 1.355 . S
C2539 C2541 1.415 . S
C2540 C2539 1.355 . S
C2540 C2542 1.419 . S
C2541 C2536 1.425 . S
C2541 C2538 1.409 . S
C2541 C2539 1.415 . S
C2542 H2532 0.930 . S
C2542 C2540 1.419 . S
C2542 C2543 1.362 . S
C2543 H2533 0.930 . S
C2543 C2536 1.409 . S
C2543 C2542 1.362 . S
H2544 C2550 0.930 . S
H2545 C2553 0.920 1_655 S
H2546 C2554 0.930 . S
H2547 C2555 0.930 . S
H2548 C2558 0.930 . S
H2549 C2559 0.930 . S
C2550 H2544 0.930 . S
C2550 C2551 1.355 . S
C2550 C2552 1.415 . S
C2551 C2550 1.355 . S
C2551 C2553 1.428 . S
C2552 C2550 1.415 . S
C2552 C2557 1.425 . S
C2552 C2559 1.409 . S
C2553 H2545 0.920 1_455 S
C2553 C2551 1.428 . S
C2553 C2554 1.363 1_455 S
C2554 H2546 0.930 . S
C2554 C2553 1.363 1_655 S
C2554 C2557 1.409 1_655 S
C2555 H2547 0.930 . S
C2555 C2556 1.355 1_655 S
C2555 C2557 1.415 1_655 S
C2556 C2555 1.355 1_455 S
C2556 C2558 1.419 . S
C2557 C2552 1.425 . S
C2557 C2554 1.409 1_455 S
C2557 C2555 1.415 1_455 S
C2558 H2548 0.930 . S
C2558 C2556 1.419 . S
C2558 C2559 1.362 . S
C2559 H2549 0.930 . S
C2559 C2552 1.409 . S
C2559 C2558 1.362 . S
H2560 C2566 0.930 . S
H2561 C2569 0.930 . S
H2562 C2570 0.930 . S
H2563 C2571 0.930 . S
H2564 C2574 0.930 . S
H2565 C2575 0.930 . S
C2566 H2560 0.930 . S
C2566 C2567 1.355 . S
C2566 C2568 1.415 . S
C2567 C2566 1.355 . S
C2567 C2569 1.419 . S
C2568 C2566 1.415 . S
C2568 C2573 1.425 . S
C2568 C2575 1.409 . S
C2569 H2561 0.930 . S
C2569 C2567 1.419 . S
C2569 C2570 1.362 . S
C2570 H2562 0.930 . S
C2570 C2569 1.362 . S
C2570 C2573 1.409 . S
C2571 H2563 0.930 . S
C2571 C2572 1.355 . S
C2571 C2573 1.415 . S
C2572 C2571 1.355 . S
C2572 C2574 1.419 . S
C2573 C2568 1.425 . S
C2573 C2570 1.409 . S
C2573 C2571 1.415 . S
C2574 H2564 0.930 . S
C2574 C2572 1.419 . S
C2574 C2575 1.362 . S
C2575 H2565 0.930 . S
C2575 C2568 1.409 . S
C2575 C2574 1.362 . S
H2576 C2582 0.930 . S
H2577 C2585 0.918 1_545 S
H2578 C2586 0.930 . S
H2579 C2587 0.920 1_545 S
H2580 C2590 0.930 . S
H2581 C2591 0.930 . S
C2582 H2576 0.930 . S
C2582 C2583 1.355 . S
C2582 C2584 1.415 . S
C2583 C2582 1.355 . S
C2583 C2585 1.419 . S
C2584 C2582 1.415 . S
C2584 C2589 1.425 . S
C2584 C2591 1.409 . S
C2585 H2577 0.918 1_565 S
C2585 C2583 1.419 . S
C2585 C2586 1.362 1_565 S
C2586 H2578 0.930 . S
C2586 C2585 1.362 1_545 S
C2586 C2589 1.409 1_545 S
C2587 H2579 0.920 1_565 S
C2587 C2588 1.357 . S
C2587 C2589 1.422 . S
C2588 C2587 1.357 . S
C2588 C2590 1.419 . S
C2589 C2584 1.425 . S
C2589 C2586 1.409 1_565 S
C2589 C2587 1.422 . S
C2590 H2580 0.930 . S
C2590 C2588 1.419 . S
C2590 C2591 1.362 . S
C2591 H2581 0.930 . S
C2591 C2584 1.409 . S
C2591 C2590 1.362 . S
H2592 C2598 0.930 1_565 S
H2593 C2601 0.930 . S
H2594 C2602 0.930 . S
H2595 C2603 0.930 . S
H2596 C2606 0.930 . S
H2597 C2607 0.930 . S
C2598 H2592 0.930 1_545 S
C2598 C2599 1.355 . S
C2598 C2600 1.415 . S
C2599 C2598 1.355 . S
C2599 C2601 1.419 . S
C2600 C2598 1.415 . S
C2600 C2605 1.425 . S
C2600 C2607 1.409 1_545 S
C2601 H2593 0.930 . S
C2601 C2599 1.419 . S
C2601 C2602 1.362 . S
C2602 H2594 0.930 . S
C2602 C2601 1.362 . S
C2602 C2605 1.409 . S
C2603 H2595 0.930 . S
C2603 C2604 1.355 . S
C2603 C2605 1.415 . S
C2604 C2603 1.355 . S
C2604 C2606 1.419 1_545 S
C2605 C2600 1.425 . S
C2605 C2602 1.409 . S
C2605 C2603 1.415 . S
C2606 H2596 0.930 . S
C2606 C2604 1.419 1_565 S
C2606 C2607 1.362 . S
C2607 H2597 0.930 . S
C2607 C2600 1.409 1_565 S
C2607 C2606 1.362 . S
H2608 C2614 0.930 . S
H2609 C2617 0.933 . S
H2610 C2618 0.993 . S
H2611 C2619 0.874 1_455 S
H2612 C2622 0.930 . S
H2613 C2623 0.930 . S
C2614 H2608 0.930 . S
C2614 C2615 1.355 . S
C2614 C2616 1.415 . S
C2615 C2614 1.355 . S
C2615 C2617 1.419 . S
C2616 C2614 1.415 . S
C2616 C2621 1.425 . S
C2616 C2623 1.409 . S
C2617 H2609 0.933 . S
C2617 C2615 1.419 . S
C2617 C2618 1.314 1_655 S
C2618 H2610 0.993 . S
C2618 C2617 1.314 1_455 S
C2618 C2621 1.399 1_455 S
C2619 H2611 0.874 1_655 S
C2619 C2620 1.367 . S
C2619 C2621 1.459 . S
C2620 C2619 1.367 . S
C2620 C2622 1.419 . S
C2621 C2616 1.425 . S
C2621 C2618 1.399 1_655 S
C2621 C2619 1.459 . S
C2622 H2612 0.930 . S
C2622 C2620 1.419 . S
C2622 C2623 1.362 . S
C2623 H2613 0.930 . S
C2623 C2616 1.409 . S
C2623 C2622 1.362 . S
H2624 C2630 0.930 . S
H2625 C2633 0.930 . S
H2626 C2634 0.930 . S
H2627 C2635 0.930 . S
H2628 C2638 0.930 . S
H2629 C2639 0.930 . S
C2630 H2624 0.930 . S
C2630 C2631 1.355 . S
C2630 C2632 1.415 . S
C2631 C2630 1.355 . S
C2631 C2633 1.419 . S
C2632 C2630 1.415 . S
C2632 C2637 1.425 . S
C2632 C2639 1.409 . S
C2633 H2625 0.930 . S
C2633 C2631 1.419 . S
C2633 C2634 1.362 . S
C2634 H2626 0.930 . S
C2634 C2633 1.362 . S
C2634 C2637 1.409 . S
C2635 H2627 0.930 . S
C2635 C2636 1.355 . S
C2635 C2637 1.415 . S
C2636 C2635 1.355 . S
C2636 C2638 1.419 . S
C2637 C2632 1.425 . S
C2637 C2634 1.409 . S
C2637 C2635 1.415 . S
C2638 H2628 0.930 . S
C2638 C2636 1.419 . S
C2638 C2639 1.362 . S
C2639 H2629 0.930 . S
C2639 C2632 1.409 . S
C2639 C2638 1.362 . S
H2640 C2646 0.930 . S
H2641 C2649 0.930 . S
H2642 C2650 0.930 . S
H2643 C2651 0.930 . S
H2644 C2654 0.930 . S
H2645 C2655 0.930 . S
C2646 H2640 0.930 . S
C2646 C2647 1.355 . S
C2646 C2648 1.415 . S
C2647 C2646 1.355 . S
C2647 C2649 1.419 . S
C2648 C2646 1.415 . S
C2648 C2653 1.425 . S
C2648 C2655 1.409 . S
C2649 H2641 0.930 . S
C2649 C2647 1.419 . S
C2649 C2650 1.362 . S
C2650 H2642 0.930 . S
C2650 C2649 1.362 . S
C2650 C2653 1.409 . S
C2651 H2643 0.930 . S
C2651 C2652 1.355 . S
C2651 C2653 1.415 . S
C2652 C2651 1.355 . S
C2652 C2654 1.419 . S
C2653 C2648 1.425 . S
C2653 C2650 1.409 . S
C2653 C2651 1.415 . S
C2654 H2644 0.930 . S
C2654 C2652 1.419 . S
C2654 C2655 1.362 . S
C2655 H2645 0.930 . S
C2655 C2648 1.409 . S
C2655 C2654 1.362 . S
H2656 C2662 0.930 . S
H2657 C2665 0.930 . S
H2658 C2666 0.930 . S
H2659 C2667 0.930 . S
H2660 C2670 0.930 . S
H2661 C2671 0.930 . S
C2662 H2656 0.930 . S
C2662 C2663 1.355 . S
C2662 C2664 1.415 . S
C2663 C2662 1.355 . S
C2663 C2665 1.419 . S
C2664 C2662 1.415 . S
C2664 C2669 1.425 . S
C2664 C2671 1.409 . S
C2665 H2657 0.930 . S
C2665 C2663 1.419 . S
C2665 C2666 1.362 . S
C2666 H2658 0.930 . S
C2666 C2665 1.362 . S
C2666 C2669 1.409 . S
C2667 H2659 0.930 . S
C2667 C2668 1.355 . S
C2667 C2669 1.415 . S
C2668 C2667 1.355 . S
C2668 C2670 1.419 . S
C2669 C2664 1.425 . S
C2669 C2666 1.409 . S
C2669 C2667 1.415 . S
C2670 H2660 0.930 . S
C2670 C2668 1.419 . S
C2670 C2671 1.362 . S
C2671 H2661 0.930 . S
C2671 C2664 1.409 . S
C2671 C2670 1.362 . S
H2672 C2678 0.930 . S
H2673 C2681 0.930 . S
H2674 C2682 0.930 . S
H2675 C2683 0.930 . S
H2676 C2686 0.930 . S
H2677 C2687 0.930 . S
C2678 H2672 0.930 . S
C2678 C2679 1.355 . S
C2678 C2680 1.415 . S
C2679 C2678 1.355 . S
C2679 C2681 1.419 . S
C2680 C2678 1.415 . S
C2680 C2685 1.425 . S
C2680 C2687 1.409 . S
C2681 H2673 0.930 . S
C2681 C2679 1.419 . S
C2681 C2682 1.362 . S
C2682 H2674 0.930 . S
C2682 C2681 1.362 . S
C2682 C2685 1.409 . S
C2683 H2675 0.930 . S
C2683 C2684 1.355 . S
C2683 C2685 1.415 . S
C2684 C2683 1.355 . S
C2684 C2686 1.419 . S
C2685 C2680 1.425 . S
C2685 C2682 1.409 . S
C2685 C2683 1.415 . S
C2686 H2676 0.930 . S
C2686 C2684 1.419 . S
C2686 C2687 1.362 . S
C2687 H2677 0.930 . S
C2687 C2680 1.409 . S
C2687 C2686 1.362 . S
H2688 C2694 0.930 . S
H2689 C2697 0.930 . S
H2690 C2698 0.930 . S
H2691 C2699 0.930 . S
H2692 C2702 0.930 . S
H2693 C2703 0.930 . S
C2694 H2688 0.930 . S
C2694 C2695 1.355 . S
C2694 C2696 1.415 . S
C2695 C2694 1.355 . S
C2695 C2697 1.419 . S
C2696 C2694 1.415 . S
C2696 C2701 1.425 . S
C2696 C2703 1.409 . S
C2697 H2689 0.930 . S
C2697 C2695 1.419 . S
C2697 C2698 1.362 . S
C2698 H2690 0.930 . S
C2698 C2697 1.362 . S
C2698 C2701 1.409 . S
C2699 H2691 0.930 . S
C2699 C2700 1.355 . S
C2699 C2701 1.415 . S
C2700 C2699 1.355 . S
C2700 C2702 1.419 . S
C2701 C2696 1.425 . S
C2701 C2698 1.409 . S
C2701 C2699 1.415 . S
C2702 H2692 0.930 . S
C2702 C2700 1.419 . S
C2702 C2703 1.362 . S
C2703 H2693 0.930 . S
C2703 C2696 1.409 . S
C2703 C2702 1.362 . S
H2704 C2710 0.930 . S
H2705 C2713 0.930 . S
H2706 C2714 0.930 . S
H2707 C2715 0.930 . S
H2708 C2718 0.930 . S
H2709 C2719 0.930 . S
C2710 H2704 0.930 . S
C2710 C2711 1.355 . S
C2710 C2712 1.415 . S
C2711 C2710 1.355 . S
C2711 C2713 1.419 . S
C2712 C2710 1.415 . S
C2712 C2717 1.425 . S
C2712 C2719 1.409 . S
C2713 H2705 0.930 . S
C2713 C2711 1.419 . S
C2713 C2714 1.362 . S
C2714 H2706 0.930 . S
C2714 C2713 1.362 . S
C2714 C2717 1.409 . S
C2715 H2707 0.930 . S
C2715 C2716 1.355 . S
C2715 C2717 1.415 . S
C2716 C2715 1.355 . S
C2716 C2718 1.419 . S
C2717 C2712 1.425 . S
C2717 C2714 1.409 . S
C2717 C2715 1.415 . S
C2718 H2708 0.930 . S
C2718 C2716 1.419 . S
C2718 C2719 1.362 . S
C2719 H2709 0.930 . S
C2719 C2712 1.409 . S
C2719 C2718 1.362 . S
H2720 C2726 0.930 . S
H2721 C2729 0.930 . S
H2722 C2730 0.930 . S
H2723 C2731 0.930 . S
H2724 C2734 0.930 . S
H2725 C2735 0.930 . S
C2726 H2720 0.930 . S
C2726 C2727 1.355 . S
C2726 C2728 1.415 . S
C2727 C2726 1.355 . S
C2727 C2729 1.419 . S
C2728 C2726 1.415 . S
C2728 C2733 1.425 . S
C2728 C2735 1.409 . S
C2729 H2721 0.930 . S
C2729 C2727 1.419 . S
C2729 C2730 1.362 . S
C2730 H2722 0.930 . S
C2730 C2729 1.362 . S
C2730 C2733 1.409 . S
C2731 H2723 0.930 . S
C2731 C2732 1.355 . S
C2731 C2733 1.415 . S
C2732 C2731 1.355 . S
C2732 C2734 1.419 . S
C2733 C2728 1.425 . S
C2733 C2730 1.409 . S
C2733 C2731 1.415 . S
C2734 H2724 0.930 . S
C2734 C2732 1.419 . S
C2734 C2735 1.362 . S
C2735 H2725 0.930 . S
C2735 C2728 1.409 . S
C2735 C2734 1.362 . S
H2736 C2742 0.930 . S
H2737 C2745 0.930 . S
H2738 C2746 0.930 . S
H2739 C2747 0.930 . S
H2740 C2750 0.930 . S
H2741 C2751 0.930 . S
C2742 H2736 0.930 . S
C2742 C2743 1.355 . S
C2742 C2744 1.415 . S
C2743 C2742 1.355 . S
C2743 C2745 1.419 . S
C2744 C2742 1.415 . S
C2744 C2749 1.425 . S
C2744 C2751 1.409 . S
C2745 H2737 0.930 . S
C2745 C2743 1.419 . S
C2745 C2746 1.362 . S
C2746 H2738 0.930 . S
C2746 C2745 1.362 . S
C2746 C2749 1.409 . S
C2747 H2739 0.930 . S
C2747 C2748 1.355 . S
C2747 C2749 1.415 . S
C2748 C2747 1.355 . S
C2748 C2750 1.419 . S
C2749 C2744 1.425 . S
C2749 C2746 1.409 . S
C2749 C2747 1.415 . S
C2750 H2740 0.930 . S
C2750 C2748 1.419 . S
C2750 C2751 1.362 . S
C2751 H2741 0.930 . S
C2751 C2744 1.409 . S
C2751 C2750 1.362 . S
H2752 C2758 0.930 . S
H2753 C2761 0.930 . S
H2754 C2762 0.930 . S
H2755 C2763 0.930 . S
H2756 C2766 0.930 . S
H2757 C2767 0.930 . S
C2758 H2752 0.930 . S
C2758 C2759 1.355 . S
C2758 C2760 1.415 . S
C2759 C2758 1.355 . S
C2759 C2761 1.419 . S
C2760 C2758 1.415 . S
C2760 C2765 1.425 . S
C2760 C2767 1.409 . S
C2761 H2753 0.930 . S
C2761 C2759 1.419 . S
C2761 C2762 1.362 . S
C2762 H2754 0.930 . S
C2762 C2761 1.362 . S
C2762 C2765 1.409 . S
C2763 H2755 0.930 . S
C2763 C2764 1.355 . S
C2763 C2765 1.415 . S
C2764 C2763 1.355 . S
C2764 C2766 1.419 . S
C2765 C2760 1.425 . S
C2765 C2762 1.409 . S
C2765 C2763 1.415 . S
C2766 H2756 0.930 . S
C2766 C2764 1.419 . S
C2766 C2767 1.362 . S
C2767 H2757 0.930 . S
C2767 C2760 1.409 . S
C2767 C2766 1.362 . S
H2768 C2774 0.930 . S
H2769 C2777 0.930 . S
H2770 C2778 0.930 . S
H2771 C2779 0.930 . S
H2772 C2782 0.930 . S
H2773 C2783 0.930 . S
C2774 H2768 0.930 . S
C2774 C2775 1.355 . S
C2774 C2776 1.415 . S
C2775 C2774 1.355 . S
C2775 C2777 1.419 . S
C2776 C2774 1.415 . S
C2776 C2781 1.425 . S
C2776 C2783 1.409 . S
C2777 H2769 0.930 . S
C2777 C2775 1.419 . S
C2777 C2778 1.362 . S
C2778 H2770 0.930 . S
C2778 C2777 1.362 . S
C2778 C2781 1.409 . S
C2779 H2771 0.930 . S
C2779 C2780 1.355 . S
C2779 C2781 1.415 . S
C2780 C2779 1.355 . S
C2780 C2782 1.419 . S
C2781 C2776 1.425 . S
C2781 C2778 1.409 . S
C2781 C2779 1.415 . S
C2782 H2772 0.930 . S
C2782 C2780 1.419 . S
C2782 C2783 1.362 . S
C2783 H2773 0.930 . S
C2783 C2776 1.409 . S
C2783 C2782 1.362 . S
H2784 C2790 0.930 . S
H2785 C2793 0.930 . S
H2786 C2794 0.930 . S
H2787 C2795 0.930 . S
H2788 C2798 0.930 . S
H2789 C2799 0.930 . S
C2790 H2784 0.930 . S
C2790 C2791 1.355 . S
C2790 C2792 1.415 . S
C2791 C2790 1.355 . S
C2791 C2793 1.419 . S
C2792 C2790 1.415 . S
C2792 C2797 1.425 . S
C2792 C2799 1.409 . S
C2793 H2785 0.930 . S
C2793 C2791 1.419 . S
C2793 C2794 1.362 . S
C2794 H2786 0.930 . S
C2794 C2793 1.362 . S
C2794 C2797 1.409 . S
C2795 H2787 0.930 . S
C2795 C2796 1.355 . S
C2795 C2797 1.415 . S
C2796 C2795 1.355 . S
C2796 C2798 1.419 . S
C2797 C2792 1.425 . S
C2797 C2794 1.409 . S
C2797 C2795 1.415 . S
C2798 H2788 0.930 . S
C2798 C2796 1.419 . S
C2798 C2799 1.362 . S
C2799 H2789 0.930 . S
C2799 C2792 1.409 . S
C2799 C2798 1.362 . S
H2800 C2806 0.930 . S
H2801 C2809 0.930 . S
H2802 C2810 0.930 . S
H2803 C2811 0.930 . S
H2804 C2814 0.930 . S
H2805 C2815 0.930 . S
C2806 H2800 0.930 . S
C2806 C2807 1.355 . S
C2806 C2808 1.415 . S
C2807 C2806 1.355 . S
C2807 C2809 1.419 . S
C2808 C2806 1.415 . S
C2808 C2813 1.425 . S
C2808 C2815 1.409 . S
C2809 H2801 0.930 . S
C2809 C2807 1.419 . S
C2809 C2810 1.362 . S
C2810 H2802 0.930 . S
C2810 C2809 1.362 . S
C2810 C2813 1.409 . S
C2811 H2803 0.930 . S
C2811 C2812 1.355 . S
C2811 C2813 1.415 . S
C2812 C2811 1.355 . S
C2812 C2814 1.419 . S
C2813 C2808 1.425 . S
C2813 C2810 1.409 . S
C2813 C2811 1.415 . S
C2814 H2804 0.930 . S
C2814 C2812 1.419 . S
C2814 C2815 1.362 . S
C2815 H2805 0.930 . S
C2815 C2808 1.409 . S
C2815 C2814 1.362 . S
H2816 C2822 0.930 . S
H2817 C2825 0.930 . S
H2818 C2826 0.930 . S
H2819 C2827 0.930 . S
H2820 C2830 0.930 . S
H2821 C2831 0.930 . S
C2822 H2816 0.930 . S
C2822 C2823 1.355 . S
C2822 C2824 1.415 . S
C2823 C2822 1.355 . S
C2823 C2825 1.419 . S
C2824 C2822 1.415 . S
C2824 C2829 1.425 . S
C2824 C2831 1.409 . S
C2825 H2817 0.930 . S
C2825 C2823 1.419 . S
C2825 C2826 1.362 . S
C2826 H2818 0.930 . S
C2826 C2825 1.362 . S
C2826 C2829 1.409 . S
C2827 H2819 0.930 . S
C2827 C2828 1.355 . S
C2827 C2829 1.415 . S
C2828 C2827 1.355 . S
C2828 C2830 1.419 . S
C2829 C2824 1.425 . S
C2829 C2826 1.409 . S
C2829 C2827 1.415 . S
C2830 H2820 0.930 . S
C2830 C2828 1.419 . S
C2830 C2831 1.362 . S
C2831 H2821 0.930 . S
C2831 C2824 1.409 . S
C2831 C2830 1.362 . S
H2832 C2838 0.930 . S
H2833 C2841 0.930 . S
H2834 C2842 0.930 . S
H2835 C2843 0.930 . S
H2836 C2846 0.930 . S
H2837 C2847 0.930 . S
C2838 H2832 0.930 . S
C2838 C2839 1.355 . S
C2838 C2840 1.415 . S
C2839 C2838 1.355 . S
C2839 C2841 1.419 . S
C2840 C2838 1.415 . S
C2840 C2845 1.425 . S
C2840 C2847 1.409 . S
C2841 H2833 0.930 . S
C2841 C2839 1.419 . S
C2841 C2842 1.362 . S
C2842 H2834 0.930 . S
C2842 C2841 1.362 . S
C2842 C2845 1.409 . S
C2843 H2835 0.930 . S
C2843 C2844 1.355 . S
C2843 C2845 1.415 . S
C2844 C2843 1.355 . S
C2844 C2846 1.419 . S
C2845 C2840 1.425 . S
C2845 C2842 1.409 . S
C2845 C2843 1.415 . S
C2846 H2836 0.930 . S
C2846 C2844 1.419 . S
C2846 C2847 1.362 . S
C2847 H2837 0.930 . S
C2847 C2840 1.409 . S
C2847 C2846 1.362 . S
H2848 C2854 0.930 . S
H2849 C2857 0.930 . S
H2850 C2858 0.930 . S
H2851 C2859 0.930 . S
H2852 C2862 0.930 . S
H2853 C2863 0.930 . S
C2854 H2848 0.930 . S
C2854 C2855 1.355 . S
C2854 C2856 1.415 . S
C2855 C2854 1.355 . S
C2855 C2857 1.419 . S
C2856 C2854 1.415 . S
C2856 C2861 1.425 . S
C2856 C2863 1.409 . S
C2857 H2849 0.930 . S
C2857 C2855 1.419 . S
C2857 C2858 1.362 . S
C2858 H2850 0.930 . S
C2858 C2857 1.362 . S
C2858 C2861 1.409 . S
C2859 H2851 0.930 . S
C2859 C2860 1.355 . S
C2859 C2861 1.415 . S
C2860 C2859 1.355 . S
C2860 C2862 1.419 . S
C2861 C2856 1.425 . S
C2861 C2858 1.409 . S
C2861 C2859 1.415 . S
C2862 H2852 0.930 . S
C2862 C2860 1.419 . S
C2862 C2863 1.362 . S
C2863 H2853 0.930 . S
C2863 C2856 1.409 . S
C2863 C2862 1.362 . S
H2864 C2870 0.930 . S
H2865 C2873 0.930 . S
H2866 C2874 0.930 . S
H2867 C2875 0.930 . S
H2868 C2878 0.930 . S
H2869 C2879 0.930 . S
C2870 H2864 0.930 . S
C2870 C2871 1.355 . S
C2870 C2872 1.415 . S
C2871 C2870 1.355 . S
C2871 C2873 1.419 . S
C2872 C2870 1.415 . S
C2872 C2877 1.425 . S
C2872 C2879 1.409 . S
C2873 H2865 0.930 . S
C2873 C2871 1.419 . S
C2873 C2874 1.362 . S
C2874 H2866 0.930 . S
C2874 C2873 1.362 . S
C2874 C2877 1.409 . S
C2875 H2867 0.930 . S
C2875 C2876 1.355 . S
C2875 C2877 1.415 . S
C2876 C2875 1.355 . S
C2876 C2878 1.419 . S
C2877 C2872 1.425 . S
C2877 C2874 1.409 . S
C2877 C2875 1.415 . S
C2878 H2868 0.930 . S
C2878 C2876 1.419 . S
C2878 C2879 1.362 . S
C2879 H2869 0.930 . S
C2879 C2872 1.409 . S
C2879 C2878 1.362 . S
H2880 C2886 0.930 . S
H2881 C2889 0.930 . S
H2882 C2890 0.930 . S
H2883 C2891 0.930 . S
H2884 C2894 0.930 . S
H2885 C2895 0.930 . S
C2886 H2880 0.930 . S
C2886 C2887 1.355 . S
C2886 C2888 1.415 . S
C2887 C2886 1.355 . S
C2887 C2889 1.419 . S
C2888 C2886 1.415 . S
C2888 C2893 1.425 . S
C2888 C2895 1.409 . S
C2889 H2881 0.930 . S
C2889 C2887 1.419 . S
C2889 C2890 1.362 . S
C2890 H2882 0.930 . S
C2890 C2889 1.362 . S
C2890 C2893 1.409 . S
C2891 H2883 0.930 . S
C2891 C2892 1.355 . S
C2891 C2893 1.415 . S
C2892 C2891 1.355 . S
C2892 C2894 1.419 . S
C2893 C2888 1.425 . S
C2893 C2890 1.409 . S
C2893 C2891 1.415 . S
C2894 H2884 0.930 . S
C2894 C2892 1.419 . S
C2894 C2895 1.362 . S
C2895 H2885 0.930 . S
C2895 C2888 1.409 . S
C2895 C2894 1.362 . S
H2896 C2902 0.930 . S
H2897 C2905 0.930 . S
H2898 C2906 0.930 . S
H2899 C2907 0.930 . S
H2900 C2910 0.930 . S
H2901 C2911 0.930 . S
C2902 H2896 0.930 . S
C2902 C2903 1.355 . S
C2902 C2904 1.415 . S
C2903 C2902 1.355 . S
C2903 C2905 1.419 . S
C2904 C2902 1.415 . S
C2904 C2909 1.425 . S
C2904 C2911 1.409 . S
C2905 H2897 0.930 . S
C2905 C2903 1.419 . S
C2905 C2906 1.362 . S
C2906 H2898 0.930 . S
C2906 C2905 1.362 . S
C2906 C2909 1.409 . S
C2907 H2899 0.930 . S
C2907 C2908 1.355 . S
C2907 C2909 1.415 . S
C2908 C2907 1.355 . S
C2908 C2910 1.419 . S
C2909 C2904 1.425 . S
C2909 C2906 1.409 . S
C2909 C2907 1.415 . S
C2910 H2900 0.930 . S
C2910 C2908 1.419 . S
C2910 C2911 1.362 . S
C2911 H2901 0.930 . S
C2911 C2904 1.409 . S
C2911 C2910 1.362 . S
H2912 C2918 0.930 . S
H2913 C2921 0.930 . S
H2914 C2922 0.930 . S
H2915 C2923 0.930 . S
H2916 C2926 0.930 . S
H2917 C2927 0.930 . S
C2918 H2912 0.930 . S
C2918 C2919 1.355 . S
C2918 C2920 1.415 . S
C2919 C2918 1.355 . S
C2919 C2921 1.419 . S
C2920 C2918 1.415 . S
C2920 C2925 1.425 . S
C2920 C2927 1.409 . S
C2921 H2913 0.930 . S
C2921 C2919 1.419 . S
C2921 C2922 1.362 . S
C2922 H2914 0.930 . S
C2922 C2921 1.362 . S
C2922 C2925 1.409 . S
C2923 H2915 0.930 . S
C2923 C2924 1.355 . S
C2923 C2925 1.415 . S
C2924 C2923 1.355 . S
C2924 C2926 1.419 . S
C2925 C2920 1.425 . S
C2925 C2922 1.409 . S
C2925 C2923 1.415 . S
C2926 H2916 0.930 . S
C2926 C2924 1.419 . S
C2926 C2927 1.362 . S
C2927 H2917 0.930 . S
C2927 C2920 1.409 . S
C2927 C2926 1.362 . S
H2928 C2934 0.930 . S
H2929 C2937 0.930 . S
H2930 C2938 0.930 . S
H2931 C2939 0.930 . S
H2932 C2942 0.930 . S
H2933 C2943 0.930 . S
C2934 H2928 0.930 . S
C2934 C2935 1.355 . S
C2934 C2936 1.415 . S
C2935 C2934 1.355 . S
C2935 C2937 1.419 . S
C2936 C2934 1.415 . S
C2936 C2941 1.425 . S
C2936 C2943 1.409 . S
C2937 H2929 0.930 . S
C2937 C2935 1.419 . S
C2937 C2938 1.362 . S
C2938 H2930 0.930 . S
C2938 C2937 1.362 . S
C2938 C2941 1.409 . S
C2939 H2931 0.930 . S
C2939 C2940 1.355 . S
C2939 C2941 1.415 . S
C2940 C2939 1.355 . S
C2940 C2942 1.419 . S
C2941 C2936 1.425 . S
C2941 C2938 1.409 . S
C2941 C2939 1.415 . S
C2942 H2932 0.930 . S
C2942 C2940 1.419 . S
C2942 C2943 1.362 . S
C2943 H2933 0.930 . S
C2943 C2936 1.409 . S
C2943 C2942 1.362 . S
H2944 C2950 0.930 . S
H2945 C2953 0.930 . S
H2946 C2954 0.930 . S
H2947 C2955 0.930 . S
H2948 C2958 0.930 . S
H2949 C2959 0.930 . S
C2950 H2944 0.930 . S
C2950 C2951 1.355 . S
C2950 C2952 1.415 . S
C2951 C2950 1.355 . S
C2951 C2953 1.419 . S
C2952 C2950 1.415 . S
C2952 C2957 1.425 . S
C2952 C2959 1.409 . S
C2953 H2945 0.930 . S
C2953 C2951 1.419 . S
C2953 C2954 1.362 . S
C2954 H2946 0.930 . S
C2954 C2953 1.362 . S
C2954 C2957 1.409 . S
C2955 H2947 0.930 . S
C2955 C2956 1.355 . S
C2955 C2957 1.415 . S
C2956 C2955 1.355 . S
C2956 C2958 1.419 . S
C2957 C2952 1.425 . S
C2957 C2954 1.409 . S
C2957 C2955 1.415 . S
C2958 H2948 0.930 . S
C2958 C2956 1.419 . S
C2958 C2959 1.362 . S
C2959 H2949 0.930 . S
C2959 C2952 1.409 . S
C2959 C2958 1.362 . S
H2960 C2966 0.930 . S
H2961 C2969 0.930 . S
H2962 C2970 0.930 . S
H2963 C2971 0.930 . S
H2964 C2974 0.930 . S
H2965 C2975 0.930 . S
C2966 H2960 0.930 . S
C2966 C2967 1.355 . S
C2966 C2968 1.415 . S
C2967 C2966 1.355 . S
C2967 C2969 1.419 . S
C2968 C2966 1.415 . S
C2968 C2973 1.425 . S
C2968 C2975 1.409 . S
C2969 H2961 0.930 . S
C2969 C2967 1.419 . S
C2969 C2970 1.362 . S
C2970 H2962 0.930 . S
C2970 C2969 1.362 . S
C2970 C2973 1.409 . S
C2971 H2963 0.930 . S
C2971 C2972 1.355 . S
C2971 C2973 1.415 . S
C2972 C2971 1.355 . S
C2972 C2974 1.419 . S
C2973 C2968 1.425 . S
C2973 C2970 1.409 . S
C2973 C2971 1.415 . S
C2974 H2964 0.930 . S
C2974 C2972 1.419 . S
C2974 C2975 1.362 . S
C2975 H2965 0.930 . S
C2975 C2968 1.409 . S
C2975 C2974 1.362 . S
H2976 C2982 0.930 . S
H2977 C2985 0.930 . S
H2978 C2986 0.930 . S
H2979 C2987 0.930 . S
H2980 C2990 0.930 . S
H2981 C2991 0.930 . S
C2982 H2976 0.930 . S
C2982 C2983 1.355 . S
C2982 C2984 1.415 . S
C2983 C2982 1.355 . S
C2983 C2985 1.419 . S
C2984 C2982 1.415 . S
C2984 C2989 1.425 . S
C2984 C2991 1.409 . S
C2985 H2977 0.930 . S
C2985 C2983 1.419 . S
C2985 C2986 1.362 . S
C2986 H2978 0.930 . S
C2986 C2985 1.362 . S
C2986 C2989 1.409 . S
C2987 H2979 0.930 . S
C2987 C2988 1.355 . S
C2987 C2989 1.415 . S
C2988 C2987 1.355 . S
C2988 C2990 1.419 . S
C2989 C2984 1.425 . S
C2989 C2986 1.409 . S
C2989 C2987 1.415 . S
C2990 H2980 0.930 . S
C2990 C2988 1.419 . S
C2990 C2991 1.362 . S
C2991 H2981 0.930 . S
C2991 C2984 1.409 . S
C2991 C2990 1.362 . S
H2992 C2998 0.930 . S
H2993 C3001 0.930 . S
H2994 C3002 0.930 . S
H2995 C3003 0.930 . S
H2996 C3006 0.930 . S
H2997 C3007 0.930 . S
C2998 H2992 0.930 . S
C2998 C2999 1.355 . S
C2998 C3000 1.415 . S
C2999 C2998 1.355 . S
C2999 C3001 1.419 . S
C3000 C2998 1.415 . S
C3000 C3005 1.425 . S
C3000 C3007 1.409 . S
C3001 H2993 0.930 . S
C3001 C2999 1.419 . S
C3001 C3002 1.362 . S
C3002 H2994 0.930 . S
C3002 C3001 1.362 . S
C3002 C3005 1.409 . S
C3003 H2995 0.930 . S
C3003 C3004 1.355 . S
C3003 C3005 1.415 . S
C3004 C3003 1.355 . S
C3004 C3006 1.419 . S
C3005 C3000 1.425 . S
C3005 C3002 1.409 . S
C3005 C3003 1.415 . S
C3006 H2996 0.930 . S
C3006 C3004 1.419 . S
C3006 C3007 1.362 . S
C3007 H2997 0.930 . S
C3007 C3000 1.409 . S
C3007 C3006 1.362 . S
H3008 C3014 0.930 . S
H3009 C3017 0.930 . S
H3010 C3018 0.930 . S
H3011 C3019 0.930 . S
H3012 C3022 0.930 . S
H3013 C3023 0.930 . S
C3014 H3008 0.930 . S
C3014 C3015 1.355 . S
C3014 C3016 1.415 . S
C3015 C3014 1.355 . S
C3015 C3017 1.419 . S
C3016 C3014 1.415 . S
C3016 C3021 1.425 . S
C3016 C3023 1.409 . S
C3017 H3009 0.930 . S
C3017 C3015 1.419 . S
C3017 C3018 1.362 . S
C3018 H3010 0.930 . S
C3018 C3017 1.362 . S
C3018 C3021 1.409 . S
C3019 H3011 0.930 . S
C3019 C3020 1.355 . S
C3019 C3021 1.415 . S
C3020 C3019 1.355 . S
C3020 C3022 1.419 . S
C3021 C3016 1.425 . S
C3021 C3018 1.409 . S
C3021 C3019 1.415 . S
C3022 H3012 0.930 . S
C3022 C3020 1.419 . S
C3022 C3023 1.362 . S
C3023 H3013 0.930 . S
C3023 C3016 1.409 . S
C3023 C3022 1.362 . S
H3024 C3030 0.930 . S
H3025 C3033 0.930 . S
H3026 C3034 0.930 . S
H3027 C3035 0.930 . S
H3028 C3038 0.930 . S
H3029 C3039 0.930 . S
C3030 H3024 0.930 . S
C3030 C3031 1.355 . S
C3030 C3032 1.415 . S
C3031 C3030 1.355 . S
C3031 C3033 1.419 . S
C3032 C3030 1.415 . S
C3032 C3037 1.425 . S
C3032 C3039 1.409 . S
C3033 H3025 0.930 . S
C3033 C3031 1.419 . S
C3033 C3034 1.362 . S
C3034 H3026 0.930 . S
C3034 C3033 1.362 . S
C3034 C3037 1.409 . S
C3035 H3027 0.930 . S
C3035 C3036 1.355 . S
C3035 C3037 1.415 . S
C3036 C3035 1.355 . S
C3036 C3038 1.419 . S
C3037 C3032 1.425 . S
C3037 C3034 1.409 . S
C3037 C3035 1.415 . S
C3038 H3028 0.930 . S
C3038 C3036 1.419 . S
C3038 C3039 1.362 . S
C3039 H3029 0.930 . S
C3039 C3032 1.409 . S
C3039 C3038 1.362 . S
H3040 C3046 0.930 . S
H3041 C3049 0.930 . S
H3042 C3050 0.930 . S
H3043 C3051 0.930 . S
H3044 C3054 0.930 . S
H3045 C3055 0.930 . S
C3046 H3040 0.930 . S
C3046 C3047 1.355 . S
C3046 C3048 1.415 . S
C3047 C3046 1.355 . S
C3047 C3049 1.419 . S
C3048 C3046 1.415 . S
C3048 C3053 1.425 . S
C3048 C3055 1.409 . S
C3049 H3041 0.930 . S
C3049 C3047 1.419 . S
C3049 C3050 1.362 . S
C3050 H3042 0.930 . S
C3050 C3049 1.362 . S
C3050 C3053 1.409 . S
C3051 H3043 0.930 . S
C3051 C3052 1.355 . S
C3051 C3053 1.415 . S
C3052 C3051 1.355 . S
C3052 C3054 1.419 . S
C3053 C3048 1.425 . S
C3053 C3050 1.409 . S
C3053 C3051 1.415 . S
C3054 H3044 0.930 . S
C3054 C3052 1.419 . S
C3054 C3055 1.362 . S
C3055 H3045 0.930 . S
C3055 C3048 1.409 . S
C3055 C3054 1.362 . S
H3056 C3062 0.930 . S
H3057 C3065 0.930 . S
H3058 C3066 0.930 . S
H3059 C3067 0.930 . S
H3060 C3070 0.930 . S
H3061 C3071 0.930 . S
C3062 H3056 0.930 . S
C3062 C3063 1.355 . S
C3062 C3064 1.415 . S
C3063 C3062 1.355 . S
C3063 C3065 1.419 . S
C3064 C3062 1.415 . S
C3064 C3069 1.425 . S
C3064 C3071 1.409 . S
C3065 H3057 0.930 . S
C3065 C3063 1.419 . S
C3065 C3066 1.362 . S
C3066 H3058 0.930 . S
C3066 C3065 1.362 . S
C3066 C3069 1.409 . S
C3067 H3059 0.930 . S
C3067 C3068 1.355 . S
C3067 C3069 1.415 . S
C3068 C3067 1.355 . S
C3068 C3070 1.419 . S
C3069 C3064 1.425 . S
C3069 C3066 1.409 . S
C3069 C3067 1.415 . S
C3070 H3060 0.930 . S
C3070 C3068 1.419 . S
C3070 C3071 1.362 . S
C3071 H3061 0.930 . S
C3071 C3064 1.409 . S
C3071 C3070 1.362 . S
H3072 C3078 0.930 . S
H3073 C3081 0.930 . S
H3074 C3082 0.930 . S
H3075 C3083 0.930 . S
H3076 C3086 0.930 . S
H3077 C3087 0.930 . S
C3078 H3072 0.930 . S
C3078 C3079 1.355 . S
C3078 C3080 1.415 . S
C3079 C3078 1.355 . S
C3079 C3081 1.419 . S
C3080 C3078 1.415 . S
C3080 C3085 1.425 . S
C3080 C3087 1.409 . S
C3081 H3073 0.930 . S
C3081 C3079 1.419 . S
C3081 C3082 1.362 . S
C3082 H3074 0.930 . S
C3082 C3081 1.362 . S
C3082 C3085 1.409 . S
C3083 H3075 0.930 . S
C3083 C3084 1.355 . S
C3083 C3085 1.415 . S
C3084 C3083 1.355 . S
C3084 C3086 1.419 . S
C3085 C3080 1.425 . S
C3085 C3082 1.409 . S
C3085 C3083 1.415 . S
C3086 H3076 0.930 . S
C3086 C3084 1.419 . S
C3086 C3087 1.362 . S
C3087 H3077 0.930 . S
C3087 C3080 1.409 . S
C3087 C3086 1.362 . S
H3088 C3094 0.930 . S
H3089 C3097 0.930 . S
H3090 C3098 0.930 . S
H3091 C3099 0.930 . S
H3092 C3102 0.930 . S
H3093 C3103 0.930 . S
C3094 H3088 0.930 . S
C3094 C3095 1.355 . S
C3094 C3096 1.415 . S
C3095 C3094 1.355 . S
C3095 C3097 1.419 . S
C3096 C3094 1.415 . S
C3096 C3101 1.425 . S
C3096 C3103 1.409 . S
C3097 H3089 0.930 . S
C3097 C3095 1.419 . S
C3097 C3098 1.362 . S
C3098 H3090 0.930 . S
C3098 C3097 1.362 . S
C3098 C3101 1.409 . S
C3099 H3091 0.930 . S
C3099 C3100 1.355 . S
C3099 C3101 1.415 . S
C3100 C3099 1.355 . S
C3100 C3102 1.419 . S
C3101 C3096 1.425 . S
C3101 C3098 1.409 . S
C3101 C3099 1.415 . S
C3102 H3092 0.930 . S
C3102 C3100 1.419 . S
C3102 C3103 1.362 . S
C3103 H3093 0.930 . S
C3103 C3096 1.409 . S
C3103 C3102 1.362 . S
H3104 C3110 0.930 . S
H3105 C3113 0.930 . S
H3106 C3114 0.930 . S
H3107 C3115 0.930 . S
H3108 C3118 0.930 . S
H3109 C3119 0.930 . S
C3110 H3104 0.930 . S
C3110 C3111 1.355 . S
C3110 C3112 1.415 . S
C3111 C3110 1.355 . S
C3111 C3113 1.419 . S
C3112 C3110 1.415 . S
C3112 C3117 1.425 . S
C3112 C3119 1.409 . S
C3113 H3105 0.930 . S
C3113 C3111 1.419 . S
C3113 C3114 1.362 . S
C3114 H3106 0.930 . S
C3114 C3113 1.362 . S
C3114 C3117 1.409 . S
C3115 H3107 0.930 . S
C3115 C3116 1.355 . S
C3115 C3117 1.415 . S
C3116 C3115 1.355 . S
C3116 C3118 1.419 . S
C3117 C3112 1.425 . S
C3117 C3114 1.409 . S
C3117 C3115 1.415 . S
C3118 H3108 0.930 . S
C3118 C3116 1.419 . S
C3118 C3119 1.362 . S
C3119 H3109 0.930 . S
C3119 C3112 1.409 . S
C3119 C3118 1.362 . S
H3120 C3126 0.930 . S
H3121 C3129 0.930 . S
H3122 C3130 0.930 . S
H3123 C3131 0.930 . S
H3124 C3134 0.930 . S
H3125 C3135 0.930 . S
C3126 H3120 0.930 . S
C3126 C3127 1.355 . S
C3126 C3128 1.415 . S
C3127 C3126 1.355 . S
C3127 C3129 1.419 . S
C3128 C3126 1.415 . S
C3128 C3133 1.425 . S
C3128 C3135 1.409 . S
C3129 H3121 0.930 . S
C3129 C3127 1.419 . S
C3129 C3130 1.362 . S
C3130 H3122 0.930 . S
C3130 C3129 1.362 . S
C3130 C3133 1.409 . S
C3131 H3123 0.930 . S
C3131 C3132 1.355 . S
C3131 C3133 1.415 . S
C3132 C3131 1.355 . S
C3132 C3134 1.419 . S
C3133 C3128 1.425 . S
C3133 C3130 1.409 . S
C3133 C3131 1.415 . S
C3134 H3124 0.930 . S
C3134 C3132 1.419 . S
C3134 C3135 1.362 . S
C3135 H3125 0.930 . S
C3135 C3128 1.409 . S
C3135 C3134 1.362 . S
H3136 C3142 0.930 . S
H3137 C3145 0.930 . S
H3138 C3146 0.930 . S
H3139 C3147 0.930 . S
H3140 C3150 0.930 . S
H3141 C3151 0.930 . S
C3142 H3136 0.930 . S
C3142 C3143 1.355 . S
C3142 C3144 1.415 . S
C3143 C3142 1.355 . S
C3143 C3145 1.419 . S
C3144 C3142 1.415 . S
C3144 C3149 1.425 . S
C3144 C3151 1.409 . S
C3145 H3137 0.930 . S
C3145 C3143 1.419 . S
C3145 C3146 1.362 . S
C3146 H3138 0.930 . S
C3146 C3145 1.362 . S
C3146 C3149 1.409 . S
C3147 H3139 0.930 . S
C3147 C3148 1.355 . S
C3147 C3149 1.415 . S
C3148 C3147 1.355 . S
C3148 C3150 1.419 . S
C3149 C3144 1.425 . S
C3149 C3146 1.409 . S
C3149 C3147 1.415 . S
C3150 H3140 0.930 . S
C3150 C3148 1.419 . S
C3150 C3151 1.362 . S
C3151 H3141 0.930 . S
C3151 C3144 1.409 . S
C3151 C3150 1.362 . S
H3152 C3158 0.930 . S
H3153 C3161 0.930 . S
H3154 C3162 0.930 . S
H3155 C3163 0.930 . S
H3156 C3166 0.930 . S
H3157 C3167 0.930 . S
C3158 H3152 0.930 . S
C3158 C3159 1.355 . S
C3158 C3160 1.415 . S
C3159 C3158 1.355 . S
C3159 C3161 1.419 . S
C3160 C3158 1.415 . S
C3160 C3165 1.425 . S
C3160 C3167 1.409 . S
C3161 H3153 0.930 . S
C3161 C3159 1.419 . S
C3161 C3162 1.362 . S
C3162 H3154 0.930 . S
C3162 C3161 1.362 . S
C3162 C3165 1.409 . S
C3163 H3155 0.930 . S
C3163 C3164 1.355 . S
C3163 C3165 1.415 . S
C3164 C3163 1.355 . S
C3164 C3166 1.419 . S
C3165 C3160 1.425 . S
C3165 C3162 1.409 . S
C3165 C3163 1.415 . S
C3166 H3156 0.930 . S
C3166 C3164 1.419 . S
C3166 C3167 1.362 . S
C3167 H3157 0.930 . S
C3167 C3160 1.409 . S
C3167 C3166 1.362 . S
H3168 C3174 0.930 . S
H3169 C3177 0.930 . S
H3170 C3178 0.930 . S
H3171 C3179 0.930 . S
H3172 C3182 0.930 . S
H3173 C3183 0.930 . S
C3174 H3168 0.930 . S
C3174 C3175 1.355 . S
C3174 C3176 1.415 . S
C3175 C3174 1.355 . S
C3175 C3177 1.419 . S
C3176 C3174 1.415 . S
C3176 C3181 1.425 . S
C3176 C3183 1.409 . S
C3177 H3169 0.930 . S
C3177 C3175 1.419 . S
C3177 C3178 1.362 . S
C3178 H3170 0.930 . S
C3178 C3177 1.362 . S
C3178 C3181 1.409 . S
C3179 H3171 0.930 . S
C3179 C3180 1.355 . S
C3179 C3181 1.415 . S
C3180 C3179 1.355 . S
C3180 C3182 1.419 . S
C3181 C3176 1.425 . S
C3181 C3178 1.409 . S
C3181 C3179 1.415 . S
C3182 H3172 0.930 . S
C3182 C3180 1.419 . S
C3182 C3183 1.362 . S
C3183 H3173 0.930 . S
C3183 C3176 1.409 . S
C3183 C3182 1.362 . S
H3184 C3190 0.930 . S
H3185 C3193 0.930 . S
H3186 C3194 0.930 . S
H3187 C3195 0.930 . S
H3188 C3198 0.930 . S
H3189 C3199 0.930 . S
C3190 H3184 0.930 . S
C3190 C3191 1.355 . S
C3190 C3192 1.415 . S
C3191 C3190 1.355 . S
C3191 C3193 1.419 . S
C3192 C3190 1.415 . S
C3192 C3197 1.425 . S
C3192 C3199 1.409 . S
C3193 H3185 0.930 . S
C3193 C3191 1.419 . S
C3193 C3194 1.362 . S
C3194 H3186 0.930 . S
C3194 C3193 1.362 . S
C3194 C3197 1.409 . S
C3195 H3187 0.930 . S
C3195 C3196 1.355 . S
C3195 C3197 1.415 . S
C3196 C3195 1.355 . S
C3196 C3198 1.419 . S
C3197 C3192 1.425 . S
C3197 C3194 1.409 . S
C3197 C3195 1.415 . S
C3198 H3188 0.930 . S
C3198 C3196 1.419 . S
C3198 C3199 1.362 . S
C3199 H3189 0.930 . S
C3199 C3192 1.409 . S
C3199 C3198 1.362 . S
H3200 C3206 0.930 . S
H3201 C3209 0.930 . S
H3202 C3210 0.930 . S
H3203 C3211 0.930 . S
H3204 C3214 0.930 . S
H3205 C3215 0.930 . S
C3206 H3200 0.930 . S
C3206 C3207 1.355 . S
C3206 C3208 1.415 . S
C3207 C3206 1.355 . S
C3207 C3209 1.419 . S
C3208 C3206 1.415 . S
C3208 C3213 1.425 . S
C3208 C3215 1.409 . S
C3209 H3201 0.930 . S
C3209 C3207 1.419 . S
C3209 C3210 1.362 . S
C3210 H3202 0.930 . S
C3210 C3209 1.362 . S
C3210 C3213 1.409 . S
C3211 H3203 0.930 . S
C3211 C3212 1.355 . S
C3211 C3213 1.415 . S
C3212 C3211 1.355 . S
C3212 C3214 1.419 . S
C3213 C3208 1.425 . S
C3213 C3210 1.409 . S
C3213 C3211 1.415 . S
C3214 H3204 0.930 . S
C3214 C3212 1.419 . S
C3214 C3215 1.362 . S
C3215 H3205 0.930 . S
C3215 C3208 1.409 . S
C3215 C3214 1.362 . S
H3216 C3222 0.930 . S
H3217 C3225 0.930 . S
H3218 C3226 0.930 . S
H3219 C3227 0.930 . S
H3220 C3230 0.930 . S
H3221 C3231 0.930 . S
C3222 H3216 0.930 . S
C3222 C3223 1.355 . S
C3222 C3224 1.415 . S
C3223 C3222 1.355 . S
C3223 C3225 1.419 . S
C3224 C3222 1.415 . S
C3224 C3229 1.425 . S
C3224 C3231 1.409 . S
C3225 H3217 0.930 . S
C3225 C3223 1.419 . S
C3225 C3226 1.362 . S
C3226 H3218 0.930 . S
C3226 C3225 1.362 . S
C3226 C3229 1.409 . S
C3227 H3219 0.930 . S
C3227 C3228 1.355 . S
C3227 C3229 1.415 . S
C3228 C3227 1.355 . S
C3228 C3230 1.419 . S
C3229 C3224 1.425 . S
C3229 C3226 1.409 . S
C3229 C3227 1.415 . S
C3230 H3220 0.930 . S
C3230 C3228 1.419 . S
C3230 C3231 1.362 . S
C3231 H3221 0.930 . S
C3231 C3224 1.409 . S
C3231 C3230 1.362 . S
H3232 C3238 0.930 . S
H3233 C3241 0.930 . S
H3234 C3242 0.930 . S
H3235 C3243 0.930 . S
H3236 C3246 0.930 . S
H3237 C3247 0.930 . S
C3238 H3232 0.930 . S
C3238 C3239 1.355 . S
C3238 C3240 1.415 . S
C3239 C3238 1.355 . S
C3239 C3241 1.419 . S
C3240 C3238 1.415 . S
C3240 C3245 1.425 . S
C3240 C3247 1.409 . S
C3241 H3233 0.930 . S
C3241 C3239 1.419 . S
C3241 C3242 1.362 . S
C3242 H3234 0.930 . S
C3242 C3241 1.362 . S
C3242 C3245 1.409 . S
C3243 H3235 0.930 . S
C3243 C3244 1.355 . S
C3243 C3245 1.415 . S
C3244 C3243 1.355 . S
C3244 C3246 1.419 . S
C3245 C3240 1.425 . S
C3245 C3242 1.409 . S
C3245 C3243 1.415 . S
C3246 H3236 0.930 . S
C3246 C3244 1.419 . S
C3246 C3247 1.362 . S
C3247 H3237 0.930 . S
C3247 C3240 1.409 . S
C3247 C3246 1.362 . S
H3248 C3254 0.930 . S
H3249 C3257 0.930 . S
H3250 C3258 0.930 . S
H3251 C3259 0.930 . S
H3252 C3262 0.930 . S
H3253 C3263 0.930 . S
C3254 H3248 0.930 . S
C3254 C3255 1.355 . S
C3254 C3256 1.415 . S
C3255 C3254 1.355 . S
C3255 C3257 1.419 . S
C3256 C3254 1.415 . S
C3256 C3261 1.425 . S
C3256 C3263 1.409 . S
C3257 H3249 0.930 . S
C3257 C3255 1.419 . S
C3257 C3258 1.362 . S
C3258 H3250 0.930 . S
C3258 C3257 1.362 . S
C3258 C3261 1.409 . S
C3259 H3251 0.930 . S
C3259 C3260 1.355 . S
C3259 C3261 1.415 . S
C3260 C3259 1.355 . S
C3260 C3262 1.419 . S
C3261 C3256 1.425 . S
C3261 C3258 1.409 . S
C3261 C3259 1.415 . S
C3262 H3252 0.930 . S
C3262 C3260 1.419 . S
C3262 C3263 1.362 . S
C3263 H3253 0.930 . S
C3263 C3256 1.409 . S
C3263 C3262 1.362 . S
H3264 C3270 0.930 1_655 S
H3265 C3273 0.930 . S
H3266 C3274 0.930 . S
H3267 C3275 0.930 . S
H3268 C3278 0.930 . S
H3269 C3279 0.930 . S
C3270 H3264 0.930 1_455 S
C3270 C3271 1.355 . S
C3270 C3272 1.415 . S
C3271 C3270 1.355 . S
C3271 C3273 1.419 . S
C3272 C3270 1.415 . S
C3272 C3277 1.425 . S
C3272 C3279 1.409 1_455 S
C3273 H3265 0.930 . S
C3273 C3271 1.419 . S
C3273 C3274 1.362 . S
C3274 H3266 0.930 . S
C3274 C3273 1.362 . S
C3274 C3277 1.409 . S
C3275 H3267 0.930 . S
C3275 C3276 1.355 . S
C3275 C3277 1.415 . S
C3276 C3275 1.355 . S
C3276 C3278 1.419 1_455 S
C3277 C3272 1.425 . S
C3277 C3274 1.409 . S
C3277 C3275 1.415 . S
C3278 H3268 0.930 . S
C3278 C3276 1.419 1_655 S
C3278 C3279 1.362 . S
C3279 H3269 0.930 . S
C3279 C3272 1.409 1_655 S
C3279 C3278 1.362 . S
H3280 C3286 0.930 . S
H3281 C3289 0.930 . S
H3282 C3290 0.930 . S
H3283 C3291 0.930 . S
H3284 C3294 0.930 . S
H3285 C3295 0.930 . S
C3286 H3280 0.930 . S
C3286 C3287 1.355 . S
C3286 C3288 1.415 . S
C3287 C3286 1.355 . S
C3287 C3289 1.419 . S
C3288 C3286 1.415 . S
C3288 C3293 1.425 . S
C3288 C3295 1.409 . S
C3289 H3281 0.930 . S
C3289 C3287 1.419 . S
C3289 C3290 1.362 . S
C3290 H3282 0.930 . S
C3290 C3289 1.362 . S
C3290 C3293 1.409 . S
C3291 H3283 0.930 . S
C3291 C3292 1.355 . S
C3291 C3293 1.415 . S
C3292 C3291 1.355 . S
C3292 C3294 1.419 . S
C3293 C3288 1.425 . S
C3293 C3290 1.409 . S
C3293 C3291 1.415 . S
C3294 H3284 0.930 . S
C3294 C3292 1.419 . S
C3294 C3295 1.362 . S
C3295 H3285 0.930 . S
C3295 C3288 1.409 . S
C3295 C3294 1.362 . S
H3296 C3302 0.930 . S
H3297 C3305 0.930 . S
H3298 C3306 0.930 . S
H3299 C3307 0.930 . S
H3300 C3310 0.930 . S
H3301 C3311 0.930 . S
C3302 H3296 0.930 . S
C3302 C3303 1.355 . S
C3302 C3304 1.415 . S
C3303 C3302 1.355 . S
C3303 C3305 1.419 1_565 S
C3304 C3302 1.415 . S
C3304 C3309 1.456 . S
C3304 C3311 1.409 . S
C3305 H3297 0.930 . S
C3305 C3303 1.419 1_545 S
C3305 C3306 1.362 . S
C3306 H3298 0.930 . S
C3306 C3305 1.362 . S
C3306 C3309 1.372 1_545 S
C3307 H3299 0.930 . S
C3307 C3308 1.355 1_545 S
C3307 C3309 1.423 1_545 S
C3308 C3307 1.355 1_565 S
C3308 C3310 1.419 . S
C3309 C3304 1.456 . S
C3309 C3306 1.372 1_565 S
C3309 C3307 1.423 1_565 S
C3310 H3300 0.930 . S
C3310 C3308 1.419 . S
C3310 C3311 1.362 . S
C3311 H3301 0.930 . S
C3311 C3304 1.409 . S
C3311 C3310 1.362 . S
H3312 C3318 0.930 . S
H3313 C3321 0.930 . S
H3314 C3322 0.930 1_545 S
H3315 C3323 0.880 1_545 S
H3316 C3326 0.930 . S
H3317 C3327 0.930 . S
C3318 H3312 0.930 . S
C3318 C3319 1.355 . S
C3318 C3320 1.415 . S
C3319 C3318 1.355 . S
C3319 C3321 1.419 . S
C3320 C3318 1.415 . S
C3320 C3325 1.425 . S
C3320 C3327 1.409 . S
C3321 H3313 0.930 . S
C3321 C3319 1.419 . S
C3321 C3322 1.362 . S
C3322 H3314 0.930 1_565 S
C3322 C3321 1.362 . S
C3322 C3325 1.409 . S
C3323 H3315 0.880 1_565 S
C3323 C3324 1.355 . S
C3323 C3325 1.415 . S
C3324 C3323 1.355 . S
C3324 C3326 1.419 . S
C3325 C3320 1.425 . S
C3325 C3322 1.409 . S
C3325 C3323 1.415 . S
C3326 H3316 0.930 . S
C3326 C3324 1.419 . S
C3326 C3327 1.362 . S
C3327 H3317 0.930 . S
C3327 C3320 1.409 . S
C3327 C3326 1.362 . S
H3328 C3334 0.863 1_655 S
H3329 C3337 0.930 . S
H3330 C3338 0.930 . S
H3331 C3339 0.930 . S
H3332 C3342 0.930 . S
H3333 C3343 0.930 . S
C3334 H3328 0.863 1_455 S
C3334 C3335 1.355 . S
C3334 C3336 1.415 . S
C3335 C3334 1.355 . S
C3335 C3337 1.419 . S
C3336 C3334 1.415 . S
C3336 C3341 1.425 . S
C3336 C3343 1.409 1_455 S
C3337 H3329 0.930 . S
C3337 C3335 1.419 . S
C3337 C3338 1.362 . S
C3338 H3330 0.930 . S
C3338 C3337 1.362 . S
C3338 C3341 1.409 . S
C3339 H3331 0.930 . S
C3339 C3340 1.355 . S
C3339 C3341 1.415 . S
C3340 C3339 1.355 . S
C3340 C3342 1.419 1_455 S
C3341 C3336 1.425 . S
C3341 C3338 1.409 . S
C3341 C3339 1.415 . S
C3342 H3332 0.930 . S
C3342 C3340 1.419 1_655 S
C3342 C3343 1.362 . S
C3343 H3333 0.930 . S
C3343 C3336 1.409 1_655 S
C3343 C3342 1.362 . S
H3344 C3350 0.930 . S
H3345 C3353 0.930 . S
H3346 C3354 0.930 . S
H3347 C3355 0.930 . S
H3348 C3358 0.930 . S
H3349 C3359 0.930 . S
C3350 H3344 0.930 . S
C3350 C3351 1.355 . S
C3350 C3352 1.415 . S
C3351 C3350 1.355 . S
C3351 C3353 1.419 . S
C3352 C3350 1.415 . S
C3352 C3357 1.425 . S
C3352 C3359 1.409 . S
C3353 H3345 0.930 . S
C3353 C3351 1.419 . S
C3353 C3354 1.362 . S
C3354 H3346 0.930 . S
C3354 C3353 1.362 . S
C3354 C3357 1.409 . S
C3355 H3347 0.930 . S
C3355 C3356 1.355 . S
C3355 C3357 1.415 . S
C3356 C3355 1.355 . S
C3356 C3358 1.419 . S
C3357 C3352 1.425 . S
C3357 C3354 1.409 . S
C3357 C3355 1.415 . S
C3358 H3348 0.930 . S
C3358 C3356 1.419 . S
C3358 C3359 1.362 . S
C3359 H3349 0.930 . S
C3359 C3352 1.409 . S
C3359 C3358 1.362 . S
H3360 C3366 0.930 . S
H3361 C3369 0.930 . S
H3362 C3370 0.930 . S
H3363 C3371 0.930 . S
H3364 C3374 0.930 . S
H3365 C3375 0.930 . S
C3366 H3360 0.930 . S
C3366 C3367 1.355 . S
C3366 C3368 1.415 . S
C3367 C3366 1.355 . S
C3367 C3369 1.419 . S
C3368 C3366 1.415 . S
C3368 C3373 1.425 . S
C3368 C3375 1.409 . S
C3369 H3361 0.930 . S
C3369 C3367 1.419 . S
C3369 C3370 1.362 . S
C3370 H3362 0.930 . S
C3370 C3369 1.362 . S
C3370 C3373 1.409 . S
C3371 H3363 0.930 . S
C3371 C3372 1.355 . S
C3371 C3373 1.415 . S
C3372 C3371 1.355 . S
C3372 C3374 1.419 . S
C3373 C3368 1.425 . S
C3373 C3370 1.409 . S
C3373 C3371 1.415 . S
C3374 H3364 0.930 . S
C3374 C3372 1.419 . S
C3374 C3375 1.362 . S
C3375 H3365 0.930 . S
C3375 C3368 1.409 . S
C3375 C3374 1.362 . S
H3376 C3382 0.930 . S
H3377 C3385 0.930 . S
H3378 C3386 0.930 . S
H3379 C3387 0.930 . S
H3380 C3390 0.930 . S
H3381 C3391 0.930 . S
C3382 H3376 0.930 . S
C3382 C3383 1.355 . S
C3382 C3384 1.415 . S
C3383 C3382 1.355 . S
C3383 C3385 1.419 . S
C3384 C3382 1.415 . S
C3384 C3389 1.425 . S
C3384 C3391 1.409 . S
C3385 H3377 0.930 . S
C3385 C3383 1.419 . S
C3385 C3386 1.362 . S
C3386 H3378 0.930 . S
C3386 C3385 1.362 . S
C3386 C3389 1.409 . S
C3387 H3379 0.930 . S
C3387 C3388 1.355 . S
C3387 C3389 1.415 . S
C3388 C3387 1.355 . S
C3388 C3390 1.419 . S
C3389 C3384 1.425 . S
C3389 C3386 1.409 . S
C3389 C3387 1.415 . S
C3390 H3380 0.930 . S
C3390 C3388 1.419 . S
C3390 C3391 1.362 . S
C3391 H3381 0.930 . S
C3391 C3384 1.409 . S
C3391 C3390 1.362 . S
H3392 C3398 0.930 . S
H3393 C3401 0.930 . S
H3394 C3402 0.930 . S
H3395 C3403 0.930 . S
H3396 C3406 0.930 . S
H3397 C3407 0.930 . S
C3398 H3392 0.930 . S
C3398 C3399 1.355 . S
C3398 C3400 1.415 . S
C3399 C3398 1.355 . S
C3399 C3401 1.419 . S
C3400 C3398 1.415 . S
C3400 C3405 1.425 . S
C3400 C3407 1.409 . S
C3401 H3393 0.930 . S
C3401 C3399 1.419 . S
C3401 C3402 1.362 . S
C3402 H3394 0.930 . S
C3402 C3401 1.362 . S
C3402 C3405 1.409 . S
C3403 H3395 0.930 . S
C3403 C3404 1.355 . S
C3403 C3405 1.415 . S
C3404 C3403 1.355 . S
C3404 C3406 1.419 . S
C3405 C3400 1.425 . S
C3405 C3402 1.409 . S
C3405 C3403 1.415 . S
C3406 H3396 0.930 . S
C3406 C3404 1.419 . S
C3406 C3407 1.362 . S
C3407 H3397 0.930 . S
C3407 C3400 1.409 . S
C3407 C3406 1.362 . S
H3408 C3414 0.930 . S
H3409 C3417 0.930 . S
H3410 C3418 0.930 . S
H3411 C3419 0.930 . S
H3412 C3422 0.930 . S
H3413 C3423 0.930 . S
C3414 H3408 0.930 . S
C3414 C3415 1.355 . S
C3414 C3416 1.415 . S
C3415 C3414 1.355 . S
C3415 C3417 1.419 1_545 S
C3416 C3414 1.415 . S
C3416 C3421 1.477 . S
C3416 C3423 1.409 . S
C3417 H3409 0.930 . S
C3417 C3415 1.419 1_565 S
C3417 C3418 1.362 . S
C3418 H3410 0.930 . S
C3418 C3417 1.362 . S
C3418 C3421 1.403 1_565 S
C3419 H3411 0.930 . S
C3419 C3420 1.355 1_565 S
C3419 C3421 1.374 1_565 S
C3420 C3419 1.355 1_545 S
C3420 C3422 1.419 . S
C3421 C3416 1.477 . S
C3421 C3418 1.403 1_545 S
C3421 C3419 1.374 1_545 S
C3422 H3412 0.930 . S
C3422 C3420 1.419 . S
C3422 C3423 1.362 . S
C3423 H3413 0.930 . S
C3423 C3416 1.409 . S
C3423 C3422 1.362 . S
H3424 C3430 0.930 . S
H3425 C3433 0.930 . S
H3426 C3434 0.960 . S
H3427 C3435 0.930 . S
H3428 C3438 0.930 . S
H3429 C3439 0.930 . S
C3430 H3424 0.930 . S
C3430 C3431 1.355 . S
C3430 C3432 1.415 . S
C3431 C3430 1.355 . S
C3431 C3433 1.419 . S
C3432 C3430 1.415 . S
C3432 C3437 1.425 . S
C3432 C3439 1.409 . S
C3433 H3425 0.930 . S
C3433 C3431 1.419 . S
C3433 C3434 1.362 . S
C3434 H3426 0.960 . S
C3434 C3433 1.362 . S
C3434 C3437 1.409 . S
C3435 H3427 0.930 . S
C3435 C3436 1.355 . S
C3435 C3437 1.415 . S
C3436 C3435 1.355 . S
C3436 C3438 1.419 . S
C3437 C3432 1.425 . S
C3437 C3434 1.409 . S
C3437 C3435 1.415 . S
C3438 H3428 0.930 . S
C3438 C3436 1.419 . S
C3438 C3439 1.362 . S
C3439 H3429 0.930 . S
C3439 C3432 1.409 . S
C3439 C3438 1.362 . S
H3440 C3446 0.930 . S
H3441 C3449 0.930 . S
H3442 C3450 0.930 . S
H3443 C3451 0.930 . S
H3444 C3454 0.930 . S
H3445 C3455 0.930 . S
C3446 H3440 0.930 . S
C3446 C3447 1.355 . S
C3446 C3448 1.415 . S
C3447 C3446 1.355 . S
C3447 C3449 1.419 . S
C3448 C3446 1.415 . S
C3448 C3453 1.425 . S
C3448 C3455 1.409 . S
C3449 H3441 0.930 . S
C3449 C3447 1.419 . S
C3449 C3450 1.362 . S
C3450 H3442 0.930 . S
C3450 C3449 1.362 . S
C3450 C3453 1.409 . S
C3451 H3443 0.930 . S
C3451 C3452 1.355 . S
C3451 C3453 1.415 . S
C3452 C3451 1.355 . S
C3452 C3454 1.419 . S
C3453 C3448 1.425 . S
C3453 C3450 1.409 . S
C3453 C3451 1.415 . S
C3454 H3444 0.930 . S
C3454 C3452 1.419 . S
C3454 C3455 1.362 . S
C3455 H3445 0.930 . S
C3455 C3448 1.409 . S
C3455 C3454 1.362 . S
H3456 C3462 0.930 . S
H3457 C3465 0.930 . S
H3458 C3466 0.930 . S
H3459 C3467 0.930 . S
H3460 C3470 0.930 . S
H3461 C3471 0.930 . S
C3462 H3456 0.930 . S
C3462 C3463 1.355 . S
C3462 C3464 1.415 . S
C3463 C3462 1.355 . S
C3463 C3465 1.419 . S
C3464 C3462 1.415 . S
C3464 C3469 1.425 . S
C3464 C3471 1.409 . S
C3465 H3457 0.930 . S
C3465 C3463 1.419 . S
C3465 C3466 1.362 . S
C3466 H3458 0.930 . S
C3466 C3465 1.362 . S
C3466 C3469 1.409 . S
C3467 H3459 0.930 . S
C3467 C3468 1.355 . S
C3467 C3469 1.415 . S
C3468 C3467 1.355 . S
C3468 C3470 1.419 . S
C3469 C3464 1.425 . S
C3469 C3466 1.409 . S
C3469 C3467 1.415 . S
C3470 H3460 0.930 . S
C3470 C3468 1.419 . S
C3470 C3471 1.362 . S
C3471 H3461 0.930 . S
C3471 C3464 1.409 . S
C3471 C3470 1.362 . S
H3472 C3478 0.930 . S
H3473 C3481 0.930 . S
H3474 C3482 0.930 . S
H3475 C3483 0.930 . S
H3476 C3486 0.930 . S
H3477 C3487 0.930 . S
C3478 H3472 0.930 . S
C3478 C3479 1.355 . S
C3478 C3480 1.415 . S
C3479 C3478 1.355 . S
C3479 C3481 1.419 . S
C3480 C3478 1.415 . S
C3480 C3485 1.425 . S
C3480 C3487 1.409 . S
C3481 H3473 0.930 . S
C3481 C3479 1.419 . S
C3481 C3482 1.362 . S
C3482 H3474 0.930 . S
C3482 C3481 1.362 . S
C3482 C3485 1.409 . S
C3483 H3475 0.930 . S
C3483 C3484 1.355 . S
C3483 C3485 1.415 . S
C3484 C3483 1.355 . S
C3484 C3486 1.419 . S
C3485 C3480 1.425 . S
C3485 C3482 1.409 . S
C3485 C3483 1.415 . S
C3486 H3476 0.930 . S
C3486 C3484 1.419 . S
C3486 C3487 1.362 . S
C3487 H3477 0.930 . S
C3487 C3480 1.409 . S
C3487 C3486 1.362 . S
H3488 C3494 0.930 . S
H3489 C3497 0.930 . S
H3490 C3498 0.930 . S
H3491 C3499 0.930 . S
H3492 C3502 0.930 . S
H3493 C3503 0.930 . S
C3494 H3488 0.930 . S
C3494 C3495 1.355 . S
C3494 C3496 1.415 . S
C3495 C3494 1.355 . S
C3495 C3497 1.419 . S
C3496 C3494 1.415 . S
C3496 C3501 1.425 . S
C3496 C3503 1.409 . S
C3497 H3489 0.930 . S
C3497 C3495 1.419 . S
C3497 C3498 1.362 . S
C3498 H3490 0.930 . S
C3498 C3497 1.362 . S
C3498 C3501 1.409 . S
C3499 H3491 0.930 . S
C3499 C3500 1.355 . S
C3499 C3501 1.415 . S
C3500 C3499 1.355 . S
C3500 C3502 1.419 . S
C3501 C3496 1.425 . S
C3501 C3498 1.409 . S
C3501 C3499 1.415 . S
C3502 H3492 0.930 . S
C3502 C3500 1.419 . S
C3502 C3503 1.362 . S
C3503 H3493 0.930 . S
C3503 C3496 1.409 . S
C3503 C3502 1.362 . S
H3504 C3510 0.930 . S
H3505 C3513 0.930 . S
H3506 C3514 0.930 . S
H3507 C3515 0.930 . S
H3508 C3518 0.930 . S
H3509 C3519 0.930 . S
C3510 H3504 0.930 . S
C3510 C3511 1.355 . S
C3510 C3512 1.415 . S
C3511 C3510 1.355 . S
C3511 C3513 1.419 . S
C3512 C3510 1.415 . S
C3512 C3517 1.425 . S
C3512 C3519 1.409 . S
C3513 H3505 0.930 . S
C3513 C3511 1.419 . S
C3513 C3514 1.362 . S
C3514 H3506 0.930 . S
C3514 C3513 1.362 . S
C3514 C3517 1.409 . S
C3515 H3507 0.930 . S
C3515 C3516 1.355 . S
C3515 C3517 1.415 . S
C3516 C3515 1.355 . S
C3516 C3518 1.419 . S
C3517 C3512 1.425 . S
C3517 C3514 1.409 . S
C3517 C3515 1.415 . S
C3518 H3508 0.930 . S
C3518 C3516 1.419 . S
C3518 C3519 1.362 . S
C3519 H3509 0.930 . S
C3519 C3512 1.409 . S
C3519 C3518 1.362 . S
H3520 C3526 0.930 . S
H3521 C3529 0.930 . S
H3522 C3530 0.930 . S
H3523 C3531 0.930 . S
H3524 C3534 0.930 . S
H3525 C3535 0.930 . S
C3526 H3520 0.930 . S
C3526 C3527 1.355 . S
C3526 C3528 1.415 . S
C3527 C3526 1.355 . S
C3527 C3529 1.419 . S
C3528 C3526 1.415 . S
C3528 C3533 1.425 . S
C3528 C3535 1.409 . S
C3529 H3521 0.930 . S
C3529 C3527 1.419 . S
C3529 C3530 1.362 . S
C3530 H3522 0.930 . S
C3530 C3529 1.362 . S
C3530 C3533 1.409 . S
C3531 H3523 0.930 . S
C3531 C3532 1.355 . S
C3531 C3533 1.415 . S
C3532 C3531 1.355 . S
C3532 C3534 1.419 . S
C3533 C3528 1.425 . S
C3533 C3530 1.409 . S
C3533 C3531 1.415 . S
C3534 H3524 0.930 . S
C3534 C3532 1.419 . S
C3534 C3535 1.362 . S
C3535 H3525 0.930 . S
C3535 C3528 1.409 . S
C3535 C3534 1.362 . S
H3536 C3542 0.930 . S
H3537 C3545 0.930 . S
H3538 C3546 0.930 . S
H3539 C3547 0.930 . S
H3540 C3550 0.930 . S
H3541 C3551 0.930 . S
C3542 H3536 0.930 . S
C3542 C3543 1.355 . S
C3542 C3544 1.415 . S
C3543 C3542 1.355 . S
C3543 C3545 1.419 . S
C3544 C3542 1.415 . S
C3544 C3549 1.425 . S
C3544 C3551 1.409 . S
C3545 H3537 0.930 . S
C3545 C3543 1.419 . S
C3545 C3546 1.362 . S
C3546 H3538 0.930 . S
C3546 C3545 1.362 . S
C3546 C3549 1.409 . S
C3547 H3539 0.930 . S
C3547 C3548 1.355 . S
C3547 C3549 1.415 . S
C3548 C3547 1.355 . S
C3548 C3550 1.419 . S
C3549 C3544 1.425 . S
C3549 C3546 1.409 . S
C3549 C3547 1.415 . S
C3550 H3540 0.930 . S
C3550 C3548 1.419 . S
C3550 C3551 1.362 . S
C3551 H3541 0.930 . S
C3551 C3544 1.409 . S
C3551 C3550 1.362 . S
H3552 C3558 0.905 1_455 S
H3553 C3561 0.930 . S
H3554 C3562 0.930 . S
H3555 C3563 0.930 . S
H3556 C3566 0.930 . S
H3557 C3567 0.930 . S
C3558 H3552 0.905 1_655 S
C3558 C3559 1.405 . S
C3558 C3560 1.391 . S
C3559 C3558 1.405 . S
C3559 C3561 1.419 . S
C3560 C3558 1.391 . S
C3560 C3565 1.425 . S
C3560 C3567 1.409 1_655 S
C3561 H3553 0.930 . S
C3561 C3559 1.419 . S
C3561 C3562 1.362 . S
C3562 H3554 0.930 . S
C3562 C3561 1.362 . S
C3562 C3565 1.409 . S
C3563 H3555 0.930 . S
C3563 C3564 1.355 . S
C3563 C3565 1.415 . S
C3564 C3563 1.355 . S
C3564 C3566 1.419 1_655 S
C3565 C3560 1.425 . S
C3565 C3562 1.409 . S
C3565 C3563 1.415 . S
C3566 H3556 0.930 . S
C3566 C3564 1.419 1_455 S
C3566 C3567 1.362 . S
C3567 H3557 0.930 . S
C3567 C3560 1.409 1_455 S
C3567 C3566 1.362 . S
H3568 C3574 0.930 . S
H3569 C3577 0.930 . S
H3570 C3578 0.930 . S
H3571 C3579 0.930 . S
H3572 C3582 0.930 . S
H3573 C3583 0.930 . S
C3574 H3568 0.930 . S
C3574 C3575 1.355 . S
C3574 C3576 1.415 . S
C3575 C3574 1.355 . S
C3575 C3577 1.419 . S
C3576 C3574 1.415 . S
C3576 C3581 1.425 . S
C3576 C3583 1.409 . S
C3577 H3569 0.930 . S
C3577 C3575 1.419 . S
C3577 C3578 1.362 . S
C3578 H3570 0.930 . S
C3578 C3577 1.362 . S
C3578 C3581 1.409 . S
C3579 H3571 0.930 . S
C3579 C3580 1.355 . S
C3579 C3581 1.415 . S
C3580 C3579 1.355 . S
C3580 C3582 1.419 . S
C3581 C3576 1.425 . S
C3581 C3578 1.409 . S
C3581 C3579 1.415 . S
C3582 H3572 0.930 . S
C3582 C3580 1.419 . S
C3582 C3583 1.362 . S
C3583 H3573 0.930 . S
C3583 C3576 1.409 . S
C3583 C3582 1.362 . S
H3584 C3590 0.934 . S
H3585 C3593 0.930 . S
H3586 C3594 0.930 . S
H3587 C3595 0.930 . S
H3588 C3598 0.930 . S
H3589 C3599 0.930 . S
C3590 H3584 0.934 . S
C3590 C3591 1.352 1_565 S
C3590 C3592 1.402 1_565 S
C3591 C3590 1.352 1_545 S
C3591 C3593 1.419 . S
C3592 C3590 1.402 1_545 S
C3592 C3597 1.447 . S
C3592 C3599 1.399 1_545 S
C3593 H3585 0.930 . S
C3593 C3591 1.419 . S
C3593 C3594 1.362 . S
C3594 H3586 0.930 . S
C3594 C3593 1.362 . S
C3594 C3597 1.409 . S
C3595 H3587 0.930 . S
C3595 C3596 1.355 . S
C3595 C3597 1.415 . S
C3596 C3595 1.355 . S
C3596 C3598 1.419 1_545 S
C3597 C3592 1.447 . S
C3597 C3594 1.409 . S
C3597 C3595 1.415 . S
C3598 H3588 0.930 . S
C3598 C3596 1.419 1_565 S
C3598 C3599 1.362 . S
C3599 H3589 0.930 . S
C3599 C3592 1.399 1_565 S
C3599 C3598 1.362 . S
C2455 C49 1.598 . S
C2460 C2061 1.650 . S
C2471 C137 1.630 . S
C2476 C2109 1.654 . S
C2492 C2157 1.651 . S
C2487 C205 1.635 . S
C2503 C196 1.592 . S
C2508 C2181 1.665 . S
C2519 C57 1.601 . S
C2524 C2253 1.651 . S
C2535 C145 1.646 . S
C2540 C2301 1.652 . S
C2551 C313 1.603 . S
C2556 C2229 1.652 . S
C2572 C2277 1.655 . S
C2567 C401 1.649 . S
C2588 C2205 1.687 . S
C2583 C489 1.602 . S
C2599 C469 1.650 . S
C2604 C2133 1.675 . S
C2620 C2037 1.666 . S
C2615 C293 1.605 . S
C2631 C381 1.621 . S
C2636 C2085 1.658 . S
C2647 C577 1.697 . S
C2652 C2349 1.700 . S
C2663 C645 1.662 . S
C2668 C2397 1.689 . S
C2684 C2421 1.641 . S
C2679 C733 1.632 . S
C2695 C724 1.641 . S
C2700 C1605 1.636 . S
C2711 C585 1.677 . S
C2716 C1677 1.691 . S
C2727 C636 1.689 . S
C2732 C1725 1.689 . S
C2743 C841 1.634 . S
C2748 C1653 1.632 . S
C2759 C937 1.677 . S
C2764 C1701 1.707 . S
C2780 C1629 1.646 . S
C2775 C1025 1.692 . S
C2796 C2445 1.678 . S
C2791 C988 1.705 . S
C2812 C2325 1.654 . S
C2807 C821 1.649 . S
C2828 C2373 1.673 . S
C2823 C900 1.683 . S
C2839 C1105 1.606 . S
C2844 C1773 1.645 . S
C2855 C1193 1.687 . S
C2860 C1821 1.688 . S
C2871 C1281 1.695 . S
C2876 C1845 1.676 . S
C2887 C1289 1.703 . S
C2892 C1893 1.703 . S
C2908 C1965 1.652 . S
C2903 C1113 1.638 . S
C2924 C2013 1.675 . S
C2919 C1201 1.682 . S
C2940 C1941 1.716 . S
C2935 C1369 1.697 . S
C2956 C1989 1.692 . S
C2951 C1457 1.671 . S
C2967 C1553 1.641 . S
C2972 C1917 1.601 . S
C2988 C1869 1.603 . S
C2983 C1516 1.638 . S
C2999 C1349 1.696 . S
C3004 C1749 1.690 . S
C3020 C1797 1.695 . S
C3015 C1437 1.688 . S
C3036 C1614 1.565 . S
C3031 C29 1.538 . S
C3047 C117 1.476 . S
C3052 C1668 1.418 . S
C3068 C1716 1.545 . S
C3063 C225 1.591 . S
C3084 C1764 1.542 . S
C3079 C233 1.539 . S
C3100 C1812 1.594 . S
C3095 C20 1.590 . S
C3116 C1854 1.497 . S
C3111 C108 1.480 . S
C3127 C321 1.577 . S
C3132 C1860 1.608 . S
C3143 C409 1.479 . S
C3148 C1758 1.442 . S
C3159 C497 1.579 . S
C3164 C1806 1.509 . S
C3175 C460 1.563 . S
C3180 C1662 1.554 . S
C3196 C1710 1.513 . S
C3191 C284 1.578 . S
C3207 C372 1.503 . S
C3212 C1620 1.499 . S
C3228 C1902 1.483 . S
C3223 C557 1.490 . S
C3239 C665 1.556 . S
C3244 C1956 1.494 . S
C3255 C753 1.555 . S
C3260 C2004 1.492 . S
C3276 C2052 1.216 . S
C3271 C761 1.192 . S
C3287 C548 1.459 . S
C3292 C2100 1.406 . S
C3303 C673 1.195 . S
C3308 C2148 1.190 . S
C3319 C849 1.205 . S
C3324 C2142 1.165 . S
C3335 C929 1.219 . S
C3340 C2046 1.202 . S
C3356 C2094 1.449 . S
C3351 C1017 1.475 . S
C3367 C997 1.479 . S
C3372 C1950 1.438 . S
C3383 C812 1.549 . S
C3388 C1998 1.482 . S
C3404 C1908 1.540 . S
C3399 C909 1.577 . S
C3420 C2190 1.204 . S
C3415 C1085 1.186 . S
C3431 C1173 1.191 . S
C3436 C2244 1.205 . S
C3447 C1261 1.445 . S
C3452 C2292 1.411 . S
C3468 C2340 1.420 . S
C3463 C1252 1.477 . S
C3484 C2388 1.503 . S
C3479 C1076 1.546 . S
C3495 C1164 1.545 . S
C3500 C2430 1.555 . S
C3511 C1377 1.475 . S
C3516 C2436 1.477 . S
C3527 C1465 1.577 . S
C3532 C2334 1.545 . S
C3548 C2382 1.526 . S
C3543 C1545 1.563 . S
C3564 C2238 1.199 . S
C3559 C1525 1.199 . S
C3580 C2286 1.455 . S
C3575 C1340 1.496 . S
C3591 C1428 1.217 . S
C3596 C2196 1.206 . S
