# Generated by pormake.
# Topology csq, (4,8)-cn, num edge types: 1
# Building blocks:
#     Node 0, Type 0, BuildingBlock: KUFVIS_clean_linker_0, # of connection points: 4
#     Node 1, Type 0, BuildingBlock: KUFVIS_clean_linker_0, # of connection points: 4
#     Node 2, Type 0, BuildingBlock: KUFVIS_clean_linker_0, # of connection points: 4
#     Node 3, Type 0, BuildingBlock: KUFVIS_clean_linker_0, # of connection points: 4
#     Node 4, Type 0, BuildingBlock: KUFVIS_clean_linker_0, # of connection points: 4
#     Node 5, Type 0, BuildingBlock: KUFVIS_clean_linker_0, # of connection points: 4
#     Node 6, Type 1, BuildingBlock: TAGTUT_clean_sbu_1, # of connection points: 8
#     Node 7, Type 1, BuildingBlock: TAGTUT_clean_sbu_1, # of connection points: 8
#     Node 8, Type 1, BuildingBlock: TAGTUT_clean_sbu_1, # of connection points: 8
#     Edge 9, Type (0, 1), BuildingBlock: XUDNAN_clean_linker_2, # of connection points: 2
#     Edge 10, Type (0, 1), BuildingBlock: XUDNAN_clean_linker_2, # of connection points: 2
#     Edge 11, Type (0, 1), BuildingBlock: XUDNAN_clean_linker_2, # of connection points: 2
#     Edge 12, Type (0, 1), BuildingBlock: XUDNAN_clean_linker_2, # of connection points: 2
#     Edge 13, Type (0, 1), BuildingBlock: XUDNAN_clean_linker_2, # of connection points: 2
#     Edge 14, Type (0, 1), BuildingBlock: XUDNAN_clean_linker_2, # of connection points: 2
#     Edge 15, Type (0, 1), BuildingBlock: XUDNAN_clean_linker_2, # of connection points: 2
#     Edge 16, Type (0, 1), BuildingBlock: XUDNAN_clean_linker_2, # of connection points: 2
#     Edge 17, Type (0, 1), BuildingBlock: XUDNAN_clean_linker_2, # of connection points: 2
#     Edge 18, Type (0, 1), BuildingBlock: XUDNAN_clean_linker_2, # of connection points: 2
#     Edge 19, Type (0, 1), BuildingBlock: XUDNAN_clean_linker_2, # of connection points: 2
#     Edge 20, Type (0, 1), BuildingBlock: XUDNAN_clean_linker_2, # of connection points: 2
#     Edge 21, Type (0, 1), BuildingBlock: XUDNAN_clean_linker_2, # of connection points: 2
#     Edge 22, Type (0, 1), BuildingBlock: XUDNAN_clean_linker_2, # of connection points: 2
#     Edge 23, Type (0, 1), BuildingBlock: XUDNAN_clean_linker_2, # of connection points: 2
#     Edge 24, Type (0, 1), BuildingBlock: XUDNAN_clean_linker_2, # of connection points: 2
#     Edge 25, Type (0, 1), BuildingBlock: XUDNAN_clean_linker_2, # of connection points: 2
#     Edge 26, Type (0, 1), BuildingBlock: XUDNAN_clean_linker_2, # of connection points: 2
#     Edge 27, Type (0, 1), BuildingBlock: XUDNAN_clean_linker_2, # of connection points: 2
#     Edge 28, Type (0, 1), BuildingBlock: XUDNAN_clean_linker_2, # of connection points: 2
#     Edge 29, Type (0, 1), BuildingBlock: XUDNAN_clean_linker_2, # of connection points: 2
#     Edge 30, Type (0, 1), BuildingBlock: XUDNAN_clean_linker_2, # of connection points: 2
#     Edge 31, Type (0, 1), BuildingBlock: XUDNAN_clean_linker_2, # of connection points: 2
#     Edge 32, Type (0, 1), BuildingBlock: XUDNAN_clean_linker_2, # of connection points: 2
# Relax obj value: 0.044
# Max RMSD: 0.132
# Mean RMSD: 0.100
data_MOF--net-csq--node1-TAGTUT_clean_sbu_1--node2-KUFVIS_clean_linker_0--edge1-XUDNAN_clean_linker_2
_symmetry_space_group_name_H-M    P1
_symmetry_Int_Tables_number       1
_symmetry_cell_setting            triclinic
loop_
_symmetry_equiv_pos_as_xyz
'x, y, z'
_cell_length_a     54.057129
_cell_length_b     53.826817
_cell_length_c     18.418562
_cell_angle_alpha  92.341831
_cell_angle_beta   92.10898
_cell_angle_gamma 120.01104
loop_
_atom_site_label
_atom_site_type_symbol
_atom_site_fract_x
_atom_site_fract_y
_atom_site_fract_z
_atom_type_partial_charge
H0 H 0.347 0.49653 0.18713 0.0
H1 H 0.27124 0.48435 0.28382 0.0
H2 H 0.28373 0.50199 0.0556 0.0
H3 H 0.23838 0.48102 0.04295 0.0
H4 H 0.17299 0.49258 0.1313 0.0
H5 H 0.23956 0.49743 0.27568 0.0
C6 C 0.3263 0.4952 0.18182 0.0
C7 C 0.31609 0.4981 0.11405 0.0
C8 C 0.31056 0.49136 0.24323 0.0
C9 C 0.28334 0.4886 0.23595 0.0
C10 C 0.27252 0.49205 0.16824 0.0
C11 C 0.28991 0.49762 0.10784 0.0
C12 C 0.24376 0.49046 0.16039 0.0
C13 C 0.22984 0.48554 0.09053 0.0
C14 C 0.20499 0.48714 0.08006 0.0
C15 C 0.19218 0.49124 0.14052 0.0
C16 C 0.20359 0.49356 0.21188 0.0
C17 C 0.23001 0.49413 0.22116 0.0
H18 H 0.68692 0.17464 0.15279 0.0
H19 H 0.76355 0.24571 0.25459 0.0
H20 H 0.75065 0.23498 0.02003 0.0
H21 H 0.80013 0.25809 0.03318 0.0
H22 H 0.85604 0.34611 0.11142 0.0
H23 H 0.78439 0.29274 0.23148 0.0
C24 C 0.70748 0.19372 0.1477 0.0
C25 C 0.71711 0.20219 0.0782 0.0
C26 C 0.72405 0.20925 0.21129 0.0
C27 C 0.75062 0.23415 0.20529 0.0
C28 C 0.76032 0.24421 0.13645 0.0
C29 C 0.7434 0.2278 0.07321 0.0
C30 C 0.78763 0.27209 0.13063 0.0
C31 C 0.80532 0.27588 0.0722 0.0
C32 C 0.83051 0.30238 0.06595 0.0
C33 C 0.83713 0.3253 0.11641 0.0
C34 C 0.8214 0.32153 0.17712 0.0
C35 C 0.79655 0.2951 0.18429 0.0
H36 H 0.5466 0.86045 0.05143 0.0
H37 H 0.56381 0.80187 0.1626 0.0
H38 H 0.53212 0.78348 0.93529 0.0
H39 H 0.55997 0.76331 0.93444 0.0
H40 H 0.55885 0.69449 0.04501 0.0
H41 H 0.53861 0.75215 0.15991 0.0
C42 C 0.54662 0.84027 0.05105 0.0
C43 C 0.53876 0.82304 0.98663 0.0
C44 C 0.55487 0.83235 0.1146 0.0
C45 C 0.55622 0.80707 0.11349 0.0
C46 C 0.54804 0.78884 0.04913 0.0
C47 C 0.53894 0.79701 0.98543 0.0
C48 C 0.55033 0.76224 0.04831 0.0
C49 C 0.55723 0.75245 0.98423 0.0
C50 C 0.56026 0.72814 0.98337 0.0
C51 C 0.55747 0.71397 0.04685 0.0
C52 C 0.54952 0.72234 0.11027 0.0
C53 C 0.54566 0.74634 0.11112 0.0
H54 H 0.86256 0.52688 0.09598 0.0
H55 H 0.79448 0.53287 0.18854 0.0
H56 H 0.78895 0.5086 0.95831 0.0
H57 H 0.7588 0.52449 0.9497 0.0
H58 H 0.68369 0.51278 0.04746 0.0
H59 H 0.74838 0.50834 0.17819 0.0
C60 C 0.84155 0.52471 0.08887 0.0
C61 C 0.82748 0.51781 0.01933 0.0
C62 C 0.82915 0.52907 0.14984 0.0
C63 C 0.80286 0.52809 0.14092 0.0
C64 C 0.78744 0.52041 0.0723 0.0
C65 C 0.80023 0.51531 0.01149 0.0
C66 C 0.75813 0.51745 0.06531 0.0
C67 C 0.74676 0.52012 -0.00223 0.0
C68 C 0.71939 0.51692 0.99114 0.0
C69 C 0.70393 0.51322 0.0531 0.0
C70 C 0.7146 0.51107 0.12161 0.0
C71 C 0.74123 0.5121 0.12645 0.0
H72 H 0.35269 0.84203 0.07862 0.0
H73 H 0.28887 0.78257 0.21272 0.0
H74 H 0.27521 0.77181 0.97821 0.0
H75 H 0.25355 0.72478 0.00059 0.0
H76 H 0.18145 0.67262 0.12064 0.0
H77 H 0.23956 0.75989 0.20087 0.0
C78 C 0.332 0.82318 0.08419 0.0
C79 C 0.31512 0.8078 0.02093 0.0
C80 C 0.3225 0.81501 0.15392 0.0
C81 C 0.29604 0.78959 0.15938 0.0
C82 C 0.27882 0.77322 0.09632 0.0
C83 C 0.28839 0.78319 0.02734 0.0
C84 C 0.25117 0.74564 0.10224 0.0
C85 C 0.24156 0.72268 0.04797 0.0
C86 C 0.21623 0.69662 0.05484 0.0
C87 C 0.20072 0.69316 0.11581 0.0
C88 C 0.20817 0.71603 0.16716 0.0
C89 C 0.23379 0.74214 0.16118 0.0
H90 H 0.51515 0.3406 0.19217 0.0
H91 H 0.48544 0.26076 0.2915 0.0
H92 H 0.51353 0.2701 0.07165 0.0
H93 H 0.47652 0.22261 0.06516 0.0
H94 H 0.47287 0.15089 0.16763 0.0
H95 H 0.50808 0.232 0.2899 0.0
C96 C 0.51166 0.31887 0.19029 0.0
C97 C 0.51594 0.30741 0.1261 0.0
C98 C 0.50084 0.30231 0.24979 0.0
C99 C 0.49472 0.27374 0.24587 0.0
C100 C 0.49968 0.26175 0.18234 0.0
C101 C 0.51005 0.27883 0.12174 0.0
C102 C 0.49246 0.23108 0.17857 0.0
C103 C 0.48026 0.21373 0.11329 0.0
C104 C 0.47306 0.1848 0.10929 0.0
C105 C 0.47726 0.17293 0.17132 0.0
C106 C 0.48978 0.18967 0.23629 0.0
C107 C 0.49768 0.21888 0.23993 0.0
C108 C 0.98218 0.41685 0.76479 0.0
C109 C 0.07065 0.47467 0.7114 0.0
C110 C 0.05083 0.56036 0.74859 0.0
Mg111 Mg 0.01258 0.44592 0.62695 0.0
O112 O 1.00396 0.47321 0.66778 0.0
Mg113 Mg 0.02033 0.48982 0.76854 0.0
Mg114 Mg 0.01783 0.50922 0.61781 0.0
O115 O 0.03201 0.54505 0.56703 0.0
Mg116 Mg 0.02476 0.57352 0.60592 0.0
Mg117 Mg 0.01654 0.52849 0.46544 0.0
C118 C 0.98527 0.45849 0.48588 0.0
C119 C 0.06531 0.51181 0.50615 0.0
O120 O 0.9932 0.44171 0.79992 0.0
O121 O 0.98693 0.41374 0.69835 0.0
O122 O 0.05931 0.48472 0.75441 0.0
O123 O 0.05726 0.45973 0.65269 0.0
O124 O 0.99347 0.44276 0.51794 0.0
O125 O 0.99129 0.48333 0.51394 0.0
C126 C 0.96974 0.50442 0.73064 0.0
O127 O 0.9792 0.51144 0.66708 0.0
O128 O 0.98181 0.49581 0.77621 0.0
O129 O 0.0453 0.57645 0.43385 0.0
O130 O 0.05184 0.60487 0.53479 0.0
O131 O 0.97846 0.53535 0.47677 0.0
C132 C 0.05682 0.60139 0.46882 0.0
O133 O 0.98079 0.56152 0.5764 0.0
O134 O 0.04317 0.57637 0.71584 0.0
C135 C 0.96747 0.54643 0.51778 0.0
O136 O 0.04429 0.53529 0.7209 0.0
O137 O 0.05632 0.50674 0.57049 0.0
O138 O 0.05376 0.52011 0.45829 0.0
C139 C 0.46436 0.0323 0.80566 0.0
C140 C 0.43492 0.94647 0.70227 0.0
C141 C 0.54408 0.97526 0.71401 0.0
Mg142 Mg 0.45909 0.00657 0.64829 0.0
O143 O 0.49662 0.01708 0.68291 0.0
Mg144 Mg 0.50156 0.99865 0.77007 0.0
Mg145 Mg 0.51965 0.00927 0.61571 0.0
O146 O 0.54294 1.00158 0.54866 0.0
Mg147 Mg 0.58051 0.0131 0.58605 0.0
Mg148 Mg 0.53849 0.02124 0.46346 0.0
C149 C 0.49427 0.04218 0.51681 0.0
C150 C 0.47612 0.96495 0.48366 0.0
O151 O 0.48084 0.02278 0.82725 0.0
O152 O 0.45317 0.02765 0.74056 0.0
O153 O 0.45749 0.95797 0.74531 0.0
O154 O 0.4312 0.9606 0.65317 0.0
O155 O 0.47075 0.03065 0.54944 0.0
O156 O 0.51507 0.03815 0.53569 0.0
C157 C 0.56409 0.05377 0.74651 0.0
O158 O 0.55932 0.04779 0.67757 0.0
O159 O 0.5457 0.03844 0.791 0.0
O160 O 0.56194 1.00047 0.4057 0.0
O161 O 0.5899 0.99571 0.49186 0.0
O162 O 0.58165 0.06226 0.49204 0.0
C163 C 0.5798 0.99244 0.42595 0.0
O164 O 0.60744 0.05959 0.58535 0.0
O165 O 0.56775 0.98692 0.68187 0.0
C166 C 0.60382 0.07386 0.5364 0.0
O167 O 0.52377 0.98021 0.69642 0.0
O168 O 0.48025 0.97087 0.55278 0.0
O169 O 0.49482 0.98056 0.43994 0.0
C170 C 0.54028 0.56878 0.38931 0.0
C171 C 0.58294 0.52097 0.45731 0.0
C172 C 0.47869 0.44206 0.53898 0.0
Mg173 Mg 0.56577 0.56116 0.53559 0.0
O174 O 0.52742 0.53153 0.53505 0.0
Mg175 Mg 0.51211 0.5019 0.45181 0.0
Mg176 Mg 0.51613 0.5063 0.61751 0.0
O177 O 0.5052 0.4815 0.70114 0.0
Mg178 Mg 0.46782 0.45074 0.7072 0.0
Mg179 Mg 0.52178 0.51164 0.78345 0.0
C180 C 0.55139 0.57104 0.69728 0.0
C181 C 0.57439 0.51453 0.69701 0.0
O182 O 0.52308 0.54134 0.38114 0.0
O183 O 0.55871 0.58075 0.44371 0.0
O184 O 0.55673 0.50588 0.43247 0.0
O185 O 0.59102 0.54214 0.50434 0.0
O186 O 0.56806 0.58057 0.64468 0.0
O187 O 0.53065 0.54501 0.69614 0.0
C188 C 0.45868 0.49876 0.53574 0.0
O189 O 0.47123 0.50077 0.59789 0.0
O190 O 0.46993 0.49884 0.47576 0.0
O191 O 0.51332 0.47344 0.85533 0.0
O192 O 0.47961 0.43244 0.79435 0.0
O193 O 0.47774 0.50751 0.80568 0.0
C194 C 0.49841 0.44576 0.84747 0.0
O195 O 0.44174 0.46777 0.74803 0.0
O196 O 0.46367 0.43309 0.59489 0.0
C197 C 0.45097 0.49084 0.78887 0.0
O198 O 0.50085 0.46738 0.53882 0.0
O199 O 0.56105 0.51167 0.63562 0.0
O200 O 0.56385 0.51519 0.7575 0.0
H201 H 0.14511 0.46855 0.21937 0.0
H202 H 0.22487 0.52332 0.34821 0.0
H203 H 0.19748 0.52913 0.44564 0.0
H204 H 0.11627 0.51307 0.25573 0.0
H205 H 0.0799 0.48373 0.25462 0.0
H206 H 0.10539 0.48007 0.20196 0.0
H207 H 0.09465 0.43421 0.26697 0.0
H208 H 0.06921 0.43785 0.32026 0.0
H209 H 0.09834 0.43588 0.365 0.0
H210 H 0.15996 0.53064 0.52794 0.0
H211 H 0.11839 0.53216 0.57694 0.0
H212 H 0.06581 0.48225 0.38419 0.0
C213 C 0.15718 0.48201 0.26754 0.0
C214 C 0.18748 0.4956 0.27489 0.0
C215 C 0.20176 0.51223 0.34074 0.0
C216 C 0.18632 0.51579 0.39653 0.0
C217 C 0.15656 0.50284 0.3858 0.0
C218 C 0.14231 0.48652 0.32228 0.0
C219 C 0.11083 0.47727 0.31946 0.0
C220 C 0.10263 0.48926 0.2541 0.0
C221 C 0.09216 0.44435 0.31784 0.0
C222 C 0.10945 0.49128 0.39089 0.0
C223 C 0.13578 0.50532 0.4297 0.0
C224 C 0.13934 0.51974 0.49765 0.0
C225 C 0.11564 0.52041 0.52529 0.0
C226 C 0.08903 0.50743 0.48409 0.0
C227 C 0.08596 0.4924 0.4167 0.0
H228 H 0.67046 0.19086 0.25687 0.0
H229 H 0.75307 0.20214 0.32674 0.0
H230 H 0.73248 0.1763 0.43682 0.0
H231 H 0.64524 0.19356 0.44476 0.0
H232 H 0.60916 0.16617 0.41562 0.0
H233 H 0.63178 0.19103 0.35211 0.0
H234 H 0.62338 0.1484 0.26373 0.0
H235 H 0.60065 0.12358 0.32643 0.0
H236 H 0.63105 0.12166 0.29625 0.0
H237 H 0.70063 0.14124 0.5259 0.0
H238 H 0.66112 0.09999 0.58097 0.0
H239 H 0.59964 0.11235 0.45303 0.0
C240 C 0.6844 0.18858 0.29643 0.0
C241 C 0.71336 0.19853 0.28341 0.0
C242 C 0.73092 0.19504 0.33615 0.0
C243 C 0.71937 0.18037 0.39883 0.0
C244 C 0.69035 0.16976 0.40854 0.0
C245 C 0.67321 0.17406 0.35898 0.0
C246 C 0.64209 0.15763 0.37635 0.0
C247 C 0.63145 0.17834 0.39855 0.0
C248 C 0.62322 0.13657 0.31191 0.0
C249 C 0.64405 0.14193 0.44064 0.0
C250 C 0.67208 0.14967 0.45982 0.0
C251 C 0.67868 0.13552 0.51245 0.0
C252 C 0.65607 0.11214 0.54375 0.0
C253 C 0.62725 0.1029 0.5214 0.0
C254 C 0.62142 0.11899 0.47185 0.0
H255 H 0.58595 0.71533 0.20149 0.0
H256 H 0.49614 0.68296 0.14466 0.0
H257 H 0.48356 0.63927 0.21009 0.0
H258 H 0.5852 0.652 0.17443 0.0
H259 H 0.60977 0.657 0.25 0.0
H260 H 0.61178 0.68776 0.2095 0.0
H261 H 0.6058 0.7076 0.33405 0.0
H262 H 0.60487 0.67746 0.37575 0.0
H263 H 0.57608 0.68482 0.38632 0.0
H264 H 0.48178 0.59572 0.26382 0.0
H265 H 0.49001 0.55992 0.32384 0.0
H266 H 0.58096 0.62177 0.35015 0.0
C267 C 0.56359 0.69971 0.20637 0.0
C268 C 0.5419 0.70277 0.17003 0.0
C269 C 0.51291 0.68136 0.17436 0.0
C270 C 0.50565 0.65632 0.21042 0.0
C271 C 0.52767 0.65324 0.24252 0.0
C272 C 0.55601 0.67479 0.24287 0.0
C273 C 0.57571 0.66572 0.27847 0.0
C274 C 0.59685 0.66562 0.22488 0.0
C275 C 0.59154 0.68504 0.34778 0.0
C276 C 0.55416 0.63546 0.29642 0.0
C277 C 0.52657 0.6285 0.27464 0.0
C278 C 0.50326 0.60115 0.28214 0.0
C279 C 0.50818 0.5808 0.31534 0.0
C280 C 0.53612 0.58803 0.3414 0.0
C281 C 0.55936 0.61563 0.33077 0.0
H282 H 0.84908 0.49598 0.20328 0.0
H283 H 0.8413 0.5705 0.26067 0.0
H284 H 0.86965 0.57848 0.37736 0.0
H285 H 0.84872 0.47155 0.38784 0.0
H286 H 0.87558 0.46213 0.3695 0.0
H287 H 0.85081 0.45929 0.29694 0.0
H288 H 0.89236 0.49157 0.22094 0.0
H289 H 0.9189 0.49684 0.29084 0.0
H290 H 0.91859 0.52739 0.25648 0.0
H291 H 0.9054 0.58204 0.47879 0.0
H292 H 0.94544 0.58193 0.54891 0.0
H293 H 0.92807 0.50452 0.42261 0.0
C294 C 0.85282 0.51364 0.24112 0.0
C295 C 0.84317 0.53268 0.22322 0.0
C296 C 0.84844 0.55558 0.27386 0.0
C297 C 0.86443 0.56018 0.34019 0.0
C298 C 0.87445 0.54139 0.35517 0.0
C299 C 0.86855 0.51842 0.30692 0.0
C300 C 0.8845 0.50342 0.32977 0.0
C301 C 0.86367 0.47225 0.347 0.0
C302 C 0.90474 0.50486 0.2711 0.0
C303 C 0.90092 0.5218 0.39779 0.0
C304 C 0.89476 0.54345 0.41254 0.0
C305 C 0.9099 0.56479 0.46857 0.0
C306 C 0.93252 0.56452 0.50839 0.0
C307 C 0.93983 0.54322 0.4911 0.0
C308 C 0.92292 0.52102 0.43735 0.0
H309 H 0.35686 0.87397 0.16731 0.0
H310 H 0.32981 0.7984 0.29043 0.0
H311 H 0.3627 0.82932 0.39424 0.0
H312 H 0.42998 0.90422 0.21915 0.0
H313 H 0.43738 0.94082 0.22018 0.0
H314 H 0.40856 0.91338 0.1611 0.0
H315 H 0.37311 0.92646 0.21866 0.0
H316 H 0.40187 0.95391 0.27818 0.0
H317 H 0.37028 0.92618 0.31588 0.0
H318 H 0.40115 0.86951 0.48386 0.0
H319 H 0.44343 0.91309 0.5434 0.0
H320 H 0.44825 0.95969 0.35301 0.0
C321 C 0.35776 0.86359 0.21561 0.0
C322 C 0.34059 0.83346 0.21973 0.0
C323 C 0.34225 0.82137 0.28557 0.0
C324 C 0.36105 0.8388 0.34492 0.0
C325 C 0.37828 0.86827 0.3376 0.0
C326 C 0.37686 0.88042 0.27411 0.0
C327 C 0.3993 0.91198 0.27635 0.0
C328 C 0.42002 0.91793 0.21562 0.0
C329 C 0.38529 0.93073 0.27203 0.0
C330 C 0.41399 0.91577 0.35073 0.0
C331 C 0.40124 0.89059 0.38628 0.0
C332 C 0.41128 0.88925 0.45619 0.0
C333 C 0.43524 0.91408 0.48968 0.0
C334 C 0.44926 0.9396 0.45239 0.0
C335 C 0.43816 0.94038 0.3825 0.0
H336 H 0.53537 0.3531 0.32572 0.0
H337 H 0.44838 0.28128 0.3047 0.0
H338 H 0.43219 0.31046 0.37355 0.0
H339 H 0.53226 0.38443 0.50723 0.0
H340 H 0.55414 0.42044 0.47942 0.0
H341 H 0.55873 0.39169 0.44196 0.0
H342 H 0.55083 0.40467 0.31247 0.0
H343 H 0.54501 0.43262 0.34981 0.0
H344 H 0.51816 0.40447 0.28762 0.0
H345 H 0.42512 0.34949 0.4322 0.0
H346 H 0.42886 0.39299 0.49419 0.0
H347 H 0.52004 0.43991 0.46467 0.0
C348 C 0.51314 0.34317 0.33854 0.0
C349 C 0.4931 0.31498 0.31094 0.0
C350 C 0.46407 0.30269 0.32693 0.0
C351 C 0.45467 0.31926 0.36486 0.0
C352 C 0.47468 0.34786 0.38598 0.0
C353 C 0.50342 0.35951 0.37478 0.0
C354 C 0.52032 0.39124 0.39776 0.0
C355 C 0.54266 0.3973 0.46035 0.0
C356 C 0.53439 0.4093 0.33303 0.0
C357 C 0.49656 0.39579 0.42306 0.0
C358 C 0.4704 0.37055 0.41602 0.0
C359 C 0.44549 0.36935 0.43811 0.0
C360 C 0.44774 0.3942 0.47235 0.0
C361 C 0.47466 0.41981 0.48334 0.0
C362 C 0.49907 0.42086 0.45547 0.0
H363 H 0.57563 0.8614 0.89813 0.0
H364 H 0.4861 0.81347 0.94206 0.0
H365 H 0.47726 0.84753 0.87502 0.0
H366 H 0.58422 0.92746 0.93201 0.0
H367 H 0.60825 0.94546 0.86212 0.0
H368 H 0.60686 0.91437 0.89886 0.0
H369 H 0.59525 0.8883 0.77034 0.0
H370 H 0.59783 0.9198 0.7325 0.0
H371 H 0.56587 0.88529 0.71349 0.0
H372 H 0.48033 0.8917 0.8227 0.0
H373 H 0.49283 0.93728 0.76812 0.0
H374 H 0.58089 0.95681 0.76018 0.0
C375 C 0.55387 0.85709 0.88935 0.0
C376 C 0.53129 0.83424 0.92269 0.0
C377 C 0.50336 0.83017 0.91426 0.0
C378 C 0.4983 0.84972 0.8774 0.0
C379 C 0.52144 0.87315 0.84922 0.0
C380 C 0.54855 0.87647 0.85301 0.0
C381 C 0.5702 0.90465 0.82374 0.0
C382 C 0.59376 0.92412 0.88272 0.0
C383 C 0.58304 0.89918 0.75597 0.0
C384 C 0.55123 0.91698 0.80432 0.0
C385 C 0.52321 0.89858 0.81966 0.0
C386 C 0.50209 0.90596 0.80912 0.0
C387 C 0.50951 0.93216 0.77893 0.0
C388 C 0.53784 0.95078 0.75946 0.0
C389 C 0.55901 0.94319 0.77414 0.0
H390 H 0.66834 0.47544 0.93051 0.0
H391 H 0.73989 0.55912 0.89402 0.0
H392 H 0.71242 0.56248 0.78769 0.0
H393 H 0.64003 0.45239 0.73087 0.0
H394 H 0.60371 0.435 0.7579 0.0
H395 H 0.63165 0.43594 0.81663 0.0
H396 H 0.61814 0.45927 0.92234 0.0
H397 H 0.59043 0.45834 0.86397 0.0
H398 H 0.61758 0.492 0.90888 0.0
H399 H 0.67339 0.56131 0.70548 0.0
H400 H 0.62716 0.55624 0.66011 0.0
H401 H 0.58172 0.47328 0.75042 0.0
C402 C 0.67854 0.49394 0.89819 0.0
C403 C 0.7061 0.51695 0.91963 0.0
C404 C 0.71885 0.54113 0.87744 0.0
C405 C 0.70341 0.54313 0.81701 0.0
C406 C 0.67557 0.52051 0.79905 0.0
C407 C 0.66347 0.49615 0.83808 0.0
C408 C 0.63205 0.47679 0.81596 0.0
C409 C 0.62655 0.44835 0.77806 0.0
C410 C 0.61351 0.47135 0.88171 0.0
C411 C 0.62769 0.49505 0.76264 0.0
C412 C 0.65312 0.51979 0.75147 0.0
C413 C 0.65353 0.54162 0.71192 0.0
C414 C 0.62728 0.5386 0.68607 0.0
C415 C 0.60127 0.51412 0.70088 0.0
C416 C 0.60158 0.49172 0.7368 0.0
H417 H 0.18556 0.69888 0.94072 0.0
H418 H 0.21054 0.64319 0.04314 0.0
H419 H 0.17019 0.60079 0.97443 0.0
H420 H 0.11494 0.65661 0.96183 0.0
H421 H 0.10181 0.66339 0.87792 0.0
H422 H 0.13621 0.68987 0.91964 0.0
H423 H 0.16112 0.68962 0.80224 0.0
H424 H 0.12661 0.66416 0.75864 0.0
H425 H 0.1551 0.65593 0.76099 0.0
H426 H 0.12281 0.56431 0.90657 0.0
H427 H 0.07634 0.53705 0.83384 0.0
H428 H 0.08109 0.61785 0.78865 0.0
C429 C 0.18358 0.67794 0.94487 0.0
C430 C 0.20173 0.67429 0.99465 0.0
C431 C 0.19749 0.6464 0.0028 0.0
C432 C 0.17435 0.62222 0.96492 0.0
C433 C 0.15558 0.6264 0.91997 0.0
C434 C 0.16027 0.65368 0.909 0.0
C435 C 0.13546 0.65244 0.86504 0.0
C436 C 0.12129 0.6664 0.90875 0.0
C437 C 0.14515 0.66635 0.79241 0.0
C438 C 0.11591 0.62027 0.85351 0.0
C439 C 0.12782 0.60552 0.88496 0.0
C440 C 0.11341 0.57553 0.88079 0.0
C441 C 0.08688 0.56028 0.84019 0.0
C442 C 0.07484 0.57513 0.80534 0.0
C443 C 0.08932 0.60554 0.81469 0.0
H444 H 0.43113 0.12894 0.07668 0.0
H445 H 0.50195 0.20211 0.98717 0.0
H446 H 0.50379 0.16991 0.89163 0.0
H447 H 0.45794 0.08602 0.06843 0.0
H448 H 0.42593 0.05232 0.04176 0.0
H449 H 0.42337 0.0806 0.08987 0.0
H450 H 0.38923 0.08018 0.98694 0.0
H451 H 0.3905 0.05089 0.93955 0.0
H452 H 0.39941 0.0831 0.89419 0.0
H453 H 0.50706 0.13065 0.83046 0.0
H454 H 0.50422 0.08559 0.78461 0.0
H455 H 0.43071 0.03645 0.91017 0.0
C456 C 0.44592 0.13822 0.0344 0.0
C457 C 0.46636 0.16793 0.0389 0.0
C458 C 0.48582 0.1795 0.98387 0.0
C459 C 0.48721 0.1613 0.92986 0.0
C460 C 0.46861 0.1318 0.93116 0.0
C461 C 0.4476 0.12029 0.98024 0.0
C462 C 0.43252 0.08767 0.97495 0.0
C463 C 0.43512 0.07599 0.04809 0.0
C464 C 0.40105 0.07469 0.94723 0.0
C465 C 0.44961 0.08279 0.91862 0.0
C466 C 0.47021 0.10863 0.89411 0.0
C467 C 0.49049 0.11024 0.8474 0.0
C468 C 0.48899 0.08466 0.82269 0.0
C469 C 0.4674 0.05792 0.84456 0.0
C470 C 0.44745 0.0568 0.89326 0.0
H471 H 0.32029 0.45723 0.03183 0.0
H472 H 0.35322 0.54893 0.05915 0.0
H473 H 0.38898 0.55707 0.9686 0.0
H474 H 0.38554 0.46028 0.02076 0.0
H475 H 0.37359 0.43085 0.95278 0.0
H476 H 0.34854 0.43206 0.01236 0.0
H477 H 0.31616 0.42884 0.90092 0.0
H478 H 0.34105 0.42741 0.84081 0.0
H479 H 0.33106 0.45454 0.83256 0.0
H480 H 0.42537 0.55537 0.88899 0.0
H481 H 0.45727 0.54388 0.82013 0.0
H482 H 0.39893 0.45295 0.83838 0.0
C483 C 0.33446 0.4789 0.0167 0.0
C484 C 0.33379 0.50248 0.05102 0.0
C485 C 0.35314 0.53064 0.03205 0.0
C486 C 0.37353 0.53541 0.98098 0.0
C487 C 0.37405 0.51172 0.94891 0.0
C488 C 0.35471 0.48396 0.9652 0.0
C489 C 0.36081 0.46237 0.9264 0.0
C490 C 0.36753 0.44541 0.98136 0.0
C491 C 0.33578 0.44209 0.87193 0.0
C492 C 0.38711 0.48232 0.88741 0.0
C493 C 0.39444 0.51072 0.9011 0.0
C494 C 0.41944 0.53318 0.87654 0.0
C495 C 0.43747 0.52648 0.83762 0.0
C496 C 0.4303 0.49753 0.82272 0.0
C497 C 0.40452 0.47523 0.84706 0.0
H498 H 0.88876 0.33228 0.08446 0.0
H499 H 0.81919 0.28424 0.91979 0.0
H500 H 0.85399 0.30213 0.82421 0.0
H501 H 0.91721 0.39331 0.99601 0.0
H502 H 0.95411 0.40601 0.02432 0.0
H503 H 0.92623 0.3827 0.07999 0.0
H504 H 0.94467 0.34659 0.07531 0.0
H505 H 0.97296 0.36998 0.02008 0.0
H506 H 0.94897 0.33301 0.98843 0.0
H507 H 0.89497 0.33116 0.7468 0.0
H508 H 0.93634 0.37066 0.6935 0.0
H509 H 0.97691 0.40557 0.90968 0.0
C510 C 0.88079 0.32498 0.02834 0.0
C511 C 0.85115 0.30705 0.0095 0.0
C512 C 0.84178 0.29771 0.93561 0.0
C513 C 0.86143 0.30788 0.88103 0.0
C514 C 0.89023 0.32738 0.90149 0.0
C515 C 0.8998 0.33587 0.97362 0.0
C516 C 0.93028 0.36089 0.9815 0.0
C517 C 0.93203 0.38727 0.02285 0.0
C518 C 0.95041 0.35208 0.01851 0.0
C519 C 0.93615 0.36602 0.90235 0.0
C520 C 0.9132 0.3458 0.85707 0.0
C521 C 0.91314 0.34684 0.78174 0.0
C522 C 0.93681 0.36939 0.75204 0.0
C523 C 0.95988 0.39115 0.79761 0.0
C524 C 0.95966 0.38915 0.87366 0.0
H525 H 0.85656 0.48827 0.01559 0.0
H526 H 0.83212 0.53794 0.88186 0.0
H527 H 0.86287 0.53677 0.78646 0.0
H528 H 0.92847 0.52486 0.98175 0.0
H529 H 0.93285 0.4938 0.98215 0.0
H530 H 0.90575 0.49491 0.03357 0.0
H531 H 0.8669 0.4472 0.96571 0.0
H532 H 0.89396 0.4458 0.91437 0.0
H533 H 0.86334 0.44434 0.86757 0.0
H534 H 0.90096 0.53372 0.71018 0.0
H535 H 0.94094 0.52893 0.6634 0.0
H536 H 0.9408 0.48339 0.85244 0.0
C537 C 0.85729 0.49861 0.96584 0.0
C538 C 0.84192 0.51328 0.95646 0.0
C539 C 0.8434 0.52628 0.8901 0.0
C540 C 0.86098 0.52585 0.83577 0.0
C541 C 0.8768 0.51217 0.84835 0.0
C542 C 0.8748 0.49858 0.91179 0.0
C543 C 0.89529 0.48715 0.91554 0.0
C544 C 0.91686 0.50102 0.98217 0.0
C545 C 0.87889 0.45417 0.91578 0.0
C546 C 0.90974 0.49697 0.84515 0.0
C547 C 0.89868 0.51104 0.80629 0.0
C548 C 0.90957 0.52258 0.74029 0.0
C549 C 0.93239 0.51983 0.71407 0.0
C550 C 0.94439 0.50604 0.75421 0.0
C551 C 0.93243 0.49423 0.82014 0.0
H552 H 0.36832 0.82579 0.97339 0.0
H553 H 0.28588 0.81579 0.90775 0.0
H554 H 0.30638 0.84278 0.79921 0.0
H555 H 0.40787 0.89524 0.9405 0.0
H556 H 0.4382 0.89382 0.90766 0.0
H557 H 0.4155 0.8679 0.96832 0.0
H558 H 0.40693 0.82669 0.87483 0.0
H559 H 0.42939 0.8525 0.81291 0.0
H560 H 0.39323 0.82554 0.78326 0.0
H561 H 0.3381 0.87891 0.71259 0.0
H562 H 0.37755 0.92097 0.65995 0.0
H563 H 0.43917 0.9074 0.78328 0.0
C564 C 0.35439 0.82854 0.9349 0.0
C565 C 0.32552 0.81866 0.94879 0.0
C566 C 0.30795 0.82279 0.89756 0.0
C567 C 0.31945 0.83814 0.8358 0.0
C568 C 0.34843 0.8488 0.8255 0.0
C569 C 0.36556 0.84382 0.8734 0.0
C570 C 0.39669 0.86055 0.8562 0.0
C571 C 0.41565 0.88056 0.92204 0.0
C572 C 0.40717 0.8401 0.83025 0.0
C573 C 0.39476 0.87736 0.79452 0.0
C574 C 0.36672 0.86973 0.77593 0.0
C575 C 0.36007 0.88457 0.72555 0.0
C576 C 0.38264 0.90844 0.69573 0.0
C577 C 0.41147 0.91751 0.7175 0.0
C578 C 0.41738 0.90091 0.76507 0.0
H579 H 0.48029 0.30332 0.01312 0.0
H580 H 0.56695 0.35492 0.10823 0.0
H581 H 0.57259 0.39641 0.04276 0.0
H582 H 0.49344 0.33928 0.83166 0.0
H583 H 0.45862 0.33615 0.82972 0.0
H584 H 0.46411 0.30924 0.87042 0.0
H585 H 0.44426 0.31774 0.98884 0.0
H586 H 0.43989 0.34553 0.95008 0.0
H587 H 0.46135 0.35326 0.03417 0.0
H588 H 0.5649 0.43448 0.99026 0.0
H589 H 0.5485 0.46437 0.9303 0.0
H590 H 0.46682 0.38786 0.86696 0.0
C591 C 0.50106 0.32275 0.01588 0.0
C592 C 0.52351 0.32576 0.06385 0.0
C593 C 0.54991 0.35201 0.06972 0.0
C594 C 0.5531 0.3758 0.03366 0.0
C595 C 0.52978 0.37281 0.99118 0.0
C596 C 0.50457 0.34669 0.97998 0.0
C597 C 0.48198 0.34987 0.93681 0.0
C598 C 0.47408 0.33262 0.86274 0.0
C599 C 0.45531 0.34108 0.9801 0.0
C600 C 0.49804 0.38195 0.92791 0.0
C601 C 0.52552 0.39481 0.95994 0.0
C602 C 0.54367 0.42454 0.9633 0.0
C603 C 0.53398 0.44141 0.93004 0.0
C604 C 0.50637 0.42852 0.89363 0.0
C605 C 0.48811 0.3984 0.89382 0.0
H606 H 0.18707 0.52228 0.02778 0.0
H607 H 0.19401 0.4476 0.96564 0.0
H608 H 0.16786 0.44206 0.84719 0.0
H609 H 0.11855 0.49126 0.9709 0.0
H610 H 0.11768 0.52178 0.93865 0.0
H611 H 0.14396 0.52694 0.00916 0.0
H612 H 0.18626 0.56054 0.93738 0.0
H613 H 0.162 0.55861 0.86465 0.0
H614 H 0.18926 0.54984 0.84561 0.0
H615 H 0.13365 0.4401 0.74516 0.0
H616 H 0.09357 0.44038 0.67603 0.0
H617 H 0.10986 0.51639 0.80719 0.0
C618 C 0.18369 0.50514 0.98854 0.0
C619 C 0.19251 0.48539 0.00566 0.0
C620 C 0.18764 0.46317 0.95313 0.0
C621 C 0.17288 0.45993 0.88571 0.0
C622 C 0.16354 0.4793 0.87158 0.0
C623 C 0.169 0.50159 0.92171 0.0
C624 C 0.15306 0.51674 0.9 0.0
C625 C 0.13213 0.51407 0.95803 0.0
C626 C 0.17388 0.5483 0.88612 0.0
C627 C 0.13734 0.49933 0.83024 0.0
C628 C 0.14377 0.47799 0.81382 0.0
C629 C 0.12899 0.45716 0.75653 0.0
C630 C 0.10634 0.45754 0.71725 0.0
C631 C 0.09867 0.47842 0.73633 0.0
C632 C 0.11536 0.50027 0.79105 0.0
H633 H 0.68368 0.14321 0.06247 0.0
H634 H 0.70953 0.2195 0.94316 0.0
H635 H 0.67713 0.18899 0.83829 0.0
H636 H 0.67145 0.09235 0.90993 0.0
H637 H 0.64015 0.06387 0.9468 0.0
H638 H 0.6687 0.09117 0.00713 0.0
H639 H 0.63269 0.1028 0.06715 0.0
H640 H 0.60408 0.07553 0.00729 0.0
H641 H 0.6108 0.11193 0.01081 0.0
H642 H 0.63893 0.14926 0.74774 0.0
H643 H 0.59646 0.10594 0.6878 0.0
H644 H 0.59295 0.05803 0.87441 0.0
C645 C 0.68266 0.15378 0.01465 0.0
C646 C 0.69933 0.184 0.01189 0.0
C647 C 0.69749 0.19644 0.94686 0.0
C648 C 0.67898 0.17925 0.8869 0.0
C649 C 0.66227 0.14963 0.89275 0.0
C650 C 0.6639 0.13714 0.95544 0.0
C651 C 0.64188 0.10543 0.95175 0.0
C652 C 0.65643 0.08713 0.95402 0.0
C653 C 0.62114 0.09854 0.01284 0.0
C654 C 0.62707 0.10202 0.87777 0.0
C655 C 0.63949 0.12748 0.84343 0.0
C656 C 0.62909 0.12927 0.77438 0.0
C657 C 0.60503 0.1046 0.74064 0.0
C658 C 0.59132 0.07881 0.77691 0.0
C659 C 0.60286 0.07755 0.84572 0.0
H660 H 0.60088 0.71625 0.93749 0.0
H661 H 0.51642 0.70316 0.88219 0.0
H662 H 0.50558 0.66114 0.8002 0.0
H663 H 0.61017 0.69006 0.74704 0.0
H664 H 0.62951 0.67435 0.78777 0.0
H665 H 0.63244 0.70663 0.82985 0.0
H666 H 0.61714 0.68112 0.94984 0.0
H667 H 0.61268 0.64829 0.90758 0.0
H668 H 0.58322 0.64824 0.95051 0.0
H669 H 0.49941 0.61462 0.75498 0.0
H670 H 0.5032 0.57313 0.70936 0.0
H671 H 0.59352 0.61816 0.7799 0.0
C672 C 0.58088 0.70556 0.90432 0.0
C673 C 0.55955 0.71291 0.91485 0.0
C674 C 0.53314 0.69808 0.87314 0.0
C675 C 0.52669 0.67399 0.82737 0.0
C676 C 0.5473 0.66581 0.8226 0.0
C677 C 0.5744 0.68188 0.8568 0.0
C678 C 0.59198 0.66742 0.84488 0.0
C679 C 0.61754 0.6857 0.79966 0.0
C680 C 0.60182 0.66089 0.91754 0.0
C681 C 0.56998 0.64004 0.80212 0.0
C682 C 0.54423 0.63943 0.79125 0.0
C683 C 0.5197 0.61521 0.76064 0.0
C684 C 0.52195 0.59157 0.73632 0.0
C685 C 0.54866 0.59263 0.7414 0.0
C686 C 0.57292 0.61698 0.77553 0.0
H687 H 0.45226 0.14338 0.30574 0.0
H688 H 0.54274 0.20329 0.29323 0.0
H689 H 0.55419 0.17112 0.36152 0.0
H690 H 0.45716 0.11901 0.48943 0.0
H691 H 0.42927 0.08272 0.46287 0.0
H692 H 0.42913 0.11251 0.42214 0.0
H693 H 0.42738 0.08929 0.29456 0.0
H694 H 0.42861 0.05998 0.3348 0.0
H695 H 0.45514 0.08145 0.27319 0.0
H696 H 0.5551 0.12898 0.41712 0.0
H697 H 0.54591 0.085 0.47584 0.0
H698 H 0.45451 0.05289 0.45093 0.0
C699 C 0.47447 0.15026 0.32031 0.0
C700 C 0.49668 0.17601 0.29577 0.0
C701 C 0.52551 0.184 0.31342 0.0
C702 C 0.53214 0.16565 0.35115 0.0
C703 C 0.50965 0.13957 0.37105 0.0
C704 C 0.48139 0.13227 0.35784 0.0
C705 C 0.4611 0.10261 0.38202 0.0
C706 C 0.44312 0.10432 0.44275 0.0
C707 C 0.44194 0.08214 0.31728 0.0
C708 C 0.48228 0.09416 0.41043 0.0
C709 C 0.51018 0.11559 0.40302 0.0
C710 C 0.53334 0.11226 0.42397 0.0
C711 C 0.52787 0.08696 0.45642 0.0
C712 C 0.49947 0.06538 0.46806 0.0
C713 C 0.47646 0.0689 0.44291 0.0
H714 H 0.36102 0.53396 0.30284 0.0
H715 H 0.29115 0.44961 0.34179 0.0
H716 H 0.31964 0.44744 0.44761 0.0
H717 H 0.41263 0.51852 0.32172 0.0
H718 H 0.43982 0.55259 0.36472 0.0
H719 H 0.4113 0.55082 0.30799 0.0
H720 H 0.39818 0.57424 0.41446 0.0
H721 H 0.42687 0.57599 0.47175 0.0
H722 H 0.39085 0.55825 0.5009 0.0
H723 H 0.35958 0.45008 0.52935 0.0
H724 H 0.40647 0.45652 0.574 0.0
H725 H 0.44985 0.5387 0.47905 0.0
C726 C 0.35138 0.51557 0.33568 0.0
C727 C 0.32402 0.49203 0.31506 0.0
C728 C 0.312 0.46799 0.3578 0.0
C729 C 0.32804 0.46666 0.4179 0.0
C730 C 0.35574 0.48975 0.43475 0.0
C731 C 0.3671 0.51396 0.39512 0.0
C732 C 0.3986 0.53381 0.41541 0.0
C733 C 0.4166 0.53919 0.34852 0.0
C734 C 0.40393 0.56225 0.45289 0.0
C735 C 0.40384 0.51609 0.46865 0.0
C736 C 0.37879 0.49118 0.4813 0.0
C737 C 0.37914 0.46989 0.52165 0.0
C738 C 0.40577 0.47369 0.54704 0.0
C739 C 0.43138 0.49833 0.53071 0.0
C740 C 0.43032 0.52011 0.49363 0.0
H741 H 0.85201 0.31953 0.2914 0.0
H742 H 0.82629 0.37466 0.18897 0.0
H743 H 0.8661 0.4172 0.25874 0.0
H744 H 0.88176 0.36193 0.47157 0.0
H745 H 0.91063 0.35426 0.47366 0.0
H746 H 0.87632 0.32858 0.4295 0.0
H747 H 0.90162 0.32925 0.31214 0.0
H748 H 0.93581 0.35595 0.35444 0.0
H749 H 0.92257 0.36277 0.27077 0.0
H750 H 0.91311 0.454 0.32774 0.0
H751 H 0.95937 0.48148 0.40112 0.0
H752 H 0.95573 0.40108 0.44499 0.0
C753 C 0.8537 0.34035 0.28743 0.0
C754 C 0.83551 0.34383 0.23743 0.0
C755 C 0.83938 0.37158 0.22949 0.0
C756 C 0.86221 0.39584 0.26795 0.0
C757 C 0.88107 0.39185 0.3131 0.0
C758 C 0.87674 0.36468 0.3237 0.0
C759 C 0.90166 0.36616 0.36764 0.0
C760 C 0.89202 0.3519 0.43989 0.0
C761 C 0.91626 0.35274 0.32359 0.0
C762 C 0.92081 0.39834 0.37988 0.0
C763 C 0.90865 0.4129 0.34859 0.0
C764 C 0.92268 0.44288 0.35334 0.0
C765 C 0.9491 0.45829 0.39434 0.0
C766 C 0.96138 0.4436 0.42901 0.0
C767 C 0.94728 0.41324 0.41911 0.0
H768 H 0.52192 0.85125 0.17238 0.0
H769 H 0.60537 0.85875 0.19911 0.0
H770 H 0.62201 0.90209 0.28347 0.0
H771 H 0.54753 0.92266 0.15303 0.0
H772 H 0.51977 0.92498 0.19881 0.0
H773 H 0.5124 0.89138 0.1543 0.0
H774 H 0.49627 0.86568 0.27413 0.0
H775 H 0.50233 0.8989 0.31827 0.0
H776 H 0.51956 0.88057 0.35595 0.0
H777 H 0.63007 0.94717 0.35597 0.0
H778 H 0.62769 0.98756 0.4183 0.0
H779 H 0.54057 0.95233 0.32753 0.0
C780 C 0.54336 0.86142 0.19833 0.0
C781 C 0.56238 0.85177 0.18035 0.0
C782 C 0.59044 0.86569 0.21372 0.0
C783 C 0.6001 0.89045 0.26075 0.0
C784 C 0.58134 0.90072 0.27282 0.0
C785 C 0.55343 0.88635 0.24316 0.0
C786 C 0.53822 0.90291 0.25795 0.0
C787 C 0.52895 0.91095 0.18678 0.0
C788 C 0.51259 0.88602 0.30437 0.0
C789 C 0.56197 0.92909 0.30023 0.0
C790 C 0.58661 0.92741 0.30909 0.0
C791 C 0.61095 0.94875 0.34911 0.0
C792 C 0.60953 0.97169 0.38355 0.0
C793 C 0.58417 0.97324 0.37618 0.0
C794 C 0.56051 0.95214 0.33217 0.0
H795 H 0.65574 0.48448 0.13307 0.0
H796 H 0.73671 0.53467 0.26081 0.0
H797 H 0.71077 0.5368 0.36581 0.0
H798 H 0.62672 0.52608 0.19464 0.0
H799 H 0.59046 0.4966 0.19454 0.0
H800 H 0.61468 0.49464 0.13328 0.0
H801 H 0.60606 0.44691 0.18519 0.0
H802 H 0.58102 0.44876 0.24371 0.0
H803 H 0.61034 0.4455 0.28226 0.0
H804 H 0.67673 0.53851 0.45282 0.0
H805 H 0.63772 0.54049 0.51323 0.0
H806 H 0.5789 0.49107 0.32784 0.0
C807 C 0.66818 0.49577 0.18311 0.0
C808 C 0.69852 0.5093 0.18792 0.0
C809 C 0.71355 0.52353 0.25536 0.0
C810 C 0.69896 0.52503 0.31551 0.0
C811 C 0.66923 0.51223 0.30792 0.0
C812 C 0.65399 0.49783 0.24338 0.0
C813 C 0.62249 0.48835 0.247 0.0
C814 C 0.61305 0.50226 0.18894 0.0
C815 C 0.6039 0.45541 0.23915 0.0
C816 C 0.62244 0.50013 0.32332 0.0
C817 C 0.64959 0.51356 0.35777 0.0
C818 C 0.65534 0.52773 0.42669 0.0
C819 C 0.63299 0.52878 0.46059 0.0
C820 C 0.60511 0.51582 0.42568 0.0
C821 C 0.59977 0.50075 0.35672 0.0
H822 H 0.14993 0.68795 0.15035 0.0
H823 H 0.22057 0.73285 0.31383 0.0
H824 H 0.18628 0.71457 0.41045 0.0
H825 H 0.09095 0.68755 0.25272 0.0
H826 H 0.06621 0.65107 0.21866 0.0
H827 H 0.09438 0.67483 0.16368 0.0
H828 H 0.11157 0.63784 0.15194 0.0
H829 H 0.08388 0.61418 0.20756 0.0
H830 H 0.12079 0.62587 0.23324 0.0
H831 H 0.14564 0.68522 0.48809 0.0
H832 H 0.104 0.64571 0.5406 0.0
H833 H 0.06192 0.61383 0.32462 0.0
C834 C 0.15823 0.69454 0.2065 0.0
C835 C 0.18801 0.71164 0.22465 0.0
C836 C 0.19787 0.72004 0.2986 0.0
C837 C 0.17851 0.70963 0.35375 0.0
C838 C 0.14952 0.69083 0.33375 0.0
C839 C 0.13947 0.68335 0.26165 0.0
C840 C 0.10875 0.6588 0.2537 0.0
C841 C 0.0889 0.66866 0.22022 0.0
C842 C 0.10612 0.63264 0.20901 0.0
C843 C 0.10329 0.65271 0.33263 0.0
C844 C 0.12668 0.67212 0.37805 0.0
C845 C 0.12713 0.67018 0.45309 0.0
C846 C 0.10334 0.64763 0.48233 0.0
C847 C 0.07973 0.62675 0.4365 0.0
C848 C 0.07963 0.62955 0.36078 0.0
loop_
_geom_bond_atom_site_label_1
_geom_bond_atom_site_label_2
_geom_bond_distance
_geom_bond_site_symmetry_2
_ccdc_geom_bond_type
H0 C6 0.930 . S
H1 C9 0.931 . S
H2 C11 0.931 . S
H3 C13 0.930 . S
H4 C15 0.930 . S
H5 C17 0.931 . S
C6 H0 0.930 . S
C6 C7 1.380 . S
C6 C8 1.394 . S
C7 C6 1.380 . S
C7 C11 1.382 . S
C8 C6 1.394 . S
C8 C9 1.400 . S
C9 H1 0.931 . S
C9 C8 1.400 . S
C9 C10 1.375 . S
C10 C9 1.375 . S
C10 C11 1.415 . S
C10 C12 1.501 . S
C11 H2 0.931 . S
C11 C7 1.382 . S
C11 C10 1.415 . S
C12 C10 1.501 . S
C12 C13 1.384 . S
C12 C17 1.408 . S
C13 H3 0.930 . S
C13 C12 1.384 . S
C13 C14 1.389 . S
C14 C13 1.389 . S
C14 C15 1.405 . S
C15 H4 0.930 . S
C15 C14 1.405 . S
C15 C16 1.364 . S
C16 C15 1.364 . S
C16 C17 1.400 . S
C17 H5 0.931 . S
C17 C12 1.408 . S
C17 C16 1.400 . S
H18 C24 0.930 . S
H19 C27 0.931 . S
H20 C29 0.931 . S
H21 C31 0.930 . S
H22 C33 0.930 . S
H23 C35 0.931 . S
C24 H18 0.930 . S
C24 C25 1.380 . S
C24 C26 1.394 . S
C25 C24 1.380 . S
C25 C29 1.382 . S
C26 C24 1.394 . S
C26 C27 1.400 . S
C27 H19 0.931 . S
C27 C26 1.400 . S
C27 C28 1.375 . S
C28 C27 1.375 . S
C28 C29 1.415 . S
C28 C30 1.501 . S
C29 H20 0.931 . S
C29 C25 1.382 . S
C29 C28 1.415 . S
C30 C28 1.501 . S
C30 C31 1.384 . S
C30 C35 1.408 . S
C31 H21 0.930 . S
C31 C30 1.384 . S
C31 C32 1.389 . S
C32 C31 1.389 . S
C32 C33 1.405 . S
C33 H22 0.930 . S
C33 C32 1.405 . S
C33 C34 1.364 . S
C34 C33 1.364 . S
C34 C35 1.400 . S
C35 H23 0.931 . S
C35 C30 1.408 . S
C35 C34 1.400 . S
H36 C42 0.930 . S
H37 C45 0.931 . S
H38 C47 0.931 . S
H39 C49 0.930 . S
H40 C51 0.930 . S
H41 C53 0.931 . S
C42 H36 0.930 . S
C42 C43 1.380 1_554 S
C42 C44 1.394 . S
C43 C42 1.380 1_556 S
C43 C47 1.382 . S
C44 C42 1.394 . S
C44 C45 1.400 . S
C45 H37 0.931 . S
C45 C44 1.400 . S
C45 C46 1.375 . S
C46 C45 1.375 . S
C46 C47 1.415 1_554 S
C46 C48 1.501 . S
C47 H38 0.931 . S
C47 C43 1.382 . S
C47 C46 1.415 1_556 S
C48 C46 1.501 . S
C48 C49 1.384 1_554 S
C48 C53 1.408 . S
C49 H39 0.930 . S
C49 C48 1.384 1_556 S
C49 C50 1.389 . S
C50 C49 1.389 . S
C50 C51 1.405 1_556 S
C51 H40 0.930 . S
C51 C50 1.405 1_554 S
C51 C52 1.364 . S
C52 C51 1.364 . S
C52 C53 1.400 . S
C53 H41 0.931 . S
C53 C48 1.408 . S
C53 C52 1.400 . S
H54 C60 0.930 . S
H55 C63 0.931 . S
H56 C65 0.939 . S
H57 C67 0.930 . S
H58 C69 0.930 . S
H59 C71 0.931 . S
C60 H54 0.930 . S
C60 C61 1.380 . S
C60 C62 1.394 . S
C61 C60 1.380 . S
C61 C65 1.383 1_554 S
C62 C60 1.394 . S
C62 C63 1.400 . S
C63 H55 0.931 . S
C63 C62 1.400 . S
C63 C64 1.375 . S
C64 C63 1.375 . S
C64 C65 1.406 1_554 S
C64 C66 1.501 . S
C65 H56 0.939 . S
C65 C61 1.383 1_556 S
C65 C64 1.406 1_556 S
C66 C64 1.501 . S
C66 C67 1.384 1_554 S
C66 C71 1.408 . S
C67 H57 0.930 . S
C67 C66 1.384 1_556 S
C67 C68 1.389 . S
C68 C67 1.389 . S
C68 C69 1.405 1_556 S
C69 H58 0.930 . S
C69 C68 1.405 1_554 S
C69 C70 1.364 . S
C70 C69 1.364 . S
C70 C71 1.400 . S
C71 H59 0.931 . S
C71 C66 1.408 . S
C71 C70 1.400 . S
H72 C78 0.930 . S
H73 C81 0.931 . S
H74 C83 0.931 1_556 S
H75 C85 0.930 1_556 S
H76 C87 0.930 . S
H77 C89 0.931 . S
C78 H72 0.930 . S
C78 C79 1.380 . S
C78 C80 1.394 . S
C79 C78 1.380 . S
C79 C83 1.382 . S
C80 C78 1.394 . S
C80 C81 1.400 . S
C81 H73 0.931 . S
C81 C80 1.400 . S
C81 C82 1.375 . S
C82 C81 1.375 . S
C82 C83 1.415 . S
C82 C84 1.501 . S
C83 H74 0.931 1_554 S
C83 C79 1.382 . S
C83 C82 1.415 . S
C84 C82 1.501 . S
C84 C85 1.384 . S
C84 C89 1.408 . S
C85 H75 0.930 1_554 S
C85 C84 1.384 . S
C85 C86 1.389 . S
C86 C85 1.389 . S
C86 C87 1.405 . S
C87 H76 0.930 . S
C87 C86 1.405 . S
C87 C88 1.364 . S
C88 C87 1.364 . S
C88 C89 1.400 . S
C89 H77 0.931 . S
C89 C84 1.408 . S
C89 C88 1.400 . S
H90 C96 0.930 . S
H91 C99 0.931 . S
H92 C101 0.931 . S
H93 C103 0.930 . S
H94 C105 0.930 . S
H95 C107 0.931 . S
C96 H90 0.930 . S
C96 C97 1.380 . S
C96 C98 1.394 . S
C97 C96 1.380 . S
C97 C101 1.382 . S
C98 C96 1.394 . S
C98 C99 1.400 . S
C99 H91 0.931 . S
C99 C98 1.400 . S
C99 C100 1.375 . S
C100 C99 1.375 . S
C100 C101 1.415 . S
C100 C102 1.501 . S
C101 H92 0.931 . S
C101 C97 1.382 . S
C101 C100 1.415 . S
C102 C100 1.501 . S
C102 C103 1.384 . S
C102 C107 1.408 . S
C103 H93 0.930 . S
C103 C102 1.384 . S
C103 C104 1.389 . S
C104 C103 1.389 . S
C104 C105 1.405 . S
C105 H94 0.930 . S
C105 C104 1.405 . S
C105 C106 1.364 . S
C106 C105 1.364 . S
C106 C107 1.400 . S
C107 H95 0.931 . S
C107 C102 1.408 . S
C107 C106 1.400 . S
C108 O120 1.241 . S
C108 O121 1.280 . S
C109 O122 1.277 . S
C109 O123 1.245 . S
C110 O134 1.247 . S
C110 O136 1.289 . S
Mg111 O112 1.926 1_655 S
Mg111 O121 1.984 . S
Mg111 O123 1.988 1_655 S
Mg111 O124 2.061 . S
O112 Mg111 1.926 1_455 S
O112 Mg113 1.986 . S
O112 Mg114 1.917 . S
Mg113 O112 1.986 . S
Mg113 O120 2.042 1_455 S
Mg113 O122 2.041 . S
Mg113 O128 2.038 1_455 S
Mg113 O136 2.238 . S
Mg114 O112 1.917 . S
Mg114 O115 1.917 . S
Mg114 O125 2.106 1_455 S
Mg114 O127 2.079 1_455 S
Mg114 O136 2.106 . S
Mg114 O137 2.079 . S
O115 Mg114 1.917 . S
O115 Mg116 1.926 . S
O115 Mg117 1.986 . S
Mg116 O115 1.926 . S
Mg116 O130 1.984 . S
Mg116 O133 1.988 1_455 S
Mg116 O134 2.061 . S
Mg117 O115 1.986 . S
Mg117 O125 2.238 1_455 S
Mg117 O129 2.042 . S
Mg117 O131 2.041 1_455 S
Mg117 O138 2.038 . S
C118 O124 1.247 . S
C118 O125 1.289 . S
C119 O137 1.245 . S
C119 O138 1.274 . S
O120 C108 1.241 . S
O120 Mg113 2.042 1_655 S
O121 C108 1.280 . S
O121 Mg111 1.984 . S
O122 C109 1.277 . S
O122 Mg113 2.041 . S
O123 C109 1.245 . S
O123 Mg111 1.988 1_455 S
O124 Mg111 2.061 . S
O124 C118 1.247 . S
O125 Mg114 2.106 1_655 S
O125 Mg117 2.238 1_655 S
O125 C118 1.289 . S
C126 O127 1.245 . S
C126 O128 1.274 . S
O127 Mg114 2.079 1_655 S
O127 C126 1.245 . S
O128 Mg113 2.038 1_655 S
O128 C126 1.274 . S
O129 Mg117 2.042 . S
O129 C132 1.241 . S
O130 Mg116 1.984 . S
O130 C132 1.280 . S
O131 Mg117 2.041 1_655 S
O131 C135 1.277 . S
C132 O129 1.241 . S
C132 O130 1.280 . S
O133 Mg116 1.988 1_655 S
O133 C135 1.245 . S
O134 C110 1.247 . S
O134 Mg116 2.061 . S
C135 O131 1.277 . S
C135 O133 1.245 . S
O136 C110 1.289 . S
O136 Mg113 2.238 . S
O136 Mg114 2.106 . S
O137 Mg114 2.079 . S
O137 C119 1.245 . S
O138 Mg117 2.038 . S
O138 C119 1.274 . S
C139 O151 1.241 . S
C139 O152 1.280 . S
C140 O153 1.277 . S
C140 O154 1.245 . S
C141 O165 1.247 . S
C141 O167 1.289 . S
Mg142 O143 1.926 . S
Mg142 O152 1.984 . S
Mg142 O154 1.988 1_545 S
Mg142 O155 2.061 . S
O143 Mg142 1.926 . S
O143 Mg144 1.986 . S
O143 Mg145 1.917 . S
Mg144 O143 1.986 . S
Mg144 O151 2.042 . S
Mg144 O153 2.041 1_545 S
Mg144 O159 2.038 . S
Mg144 O167 2.238 1_545 S
Mg145 O143 1.917 . S
Mg145 O146 1.917 1_545 S
Mg145 O156 2.106 . S
Mg145 O158 2.079 . S
Mg145 O167 2.106 1_545 S
Mg145 O168 2.079 1_545 S
O146 Mg145 1.917 1_565 S
O146 Mg147 1.926 . S
O146 Mg148 1.986 1_565 S
Mg147 O146 1.926 . S
Mg147 O161 1.984 . S
Mg147 O164 1.988 1_565 S
Mg147 O165 2.061 . S
Mg148 O146 1.986 1_545 S
Mg148 O156 2.238 . S
Mg148 O160 2.042 1_545 S
Mg148 O162 2.041 . S
Mg148 O169 2.038 1_545 S
C149 O155 1.247 . S
C149 O156 1.289 . S
C150 O168 1.245 . S
C150 O169 1.274 . S
O151 C139 1.241 . S
O151 Mg144 2.042 . S
O152 C139 1.280 . S
O152 Mg142 1.984 . S
O153 C140 1.277 . S
O153 Mg144 2.041 1_565 S
O154 C140 1.245 . S
O154 Mg142 1.988 1_565 S
O155 Mg142 2.061 . S
O155 C149 1.247 . S
O156 Mg145 2.106 . S
O156 Mg148 2.238 . S
O156 C149 1.289 . S
C157 O158 1.245 . S
C157 O159 1.274 . S
O158 Mg145 2.079 . S
O158 C157 1.245 . S
O159 Mg144 2.038 . S
O159 C157 1.274 . S
O160 Mg148 2.042 1_565 S
O160 C163 1.241 . S
O161 Mg147 1.984 . S
O161 C163 1.280 . S
O162 Mg148 2.041 . S
O162 C166 1.277 . S
C163 O160 1.241 . S
C163 O161 1.280 . S
O164 Mg147 1.988 1_545 S
O164 C166 1.245 . S
O165 C141 1.247 . S
O165 Mg147 2.061 . S
C166 O162 1.277 . S
C166 O164 1.245 . S
O167 C141 1.289 . S
O167 Mg144 2.238 1_565 S
O167 Mg145 2.106 1_565 S
O168 Mg145 2.079 1_565 S
O168 C150 1.245 . S
O169 Mg148 2.038 1_565 S
O169 C150 1.274 . S
C170 O182 1.241 . S
C170 O183 1.280 . S
C171 O184 1.277 . S
C171 O185 1.245 . S
C172 O196 1.247 . S
C172 O198 1.289 . S
Mg173 O174 1.926 . S
Mg173 O183 1.984 . S
Mg173 O185 1.988 . S
Mg173 O186 2.061 . S
O174 Mg173 1.926 . S
O174 Mg175 1.986 . S
O174 Mg176 1.917 . S
Mg175 O174 1.986 . S
Mg175 O182 2.042 . S
Mg175 O184 2.041 . S
Mg175 O190 2.038 . S
Mg175 O198 2.238 . S
Mg176 O174 1.917 . S
Mg176 O177 1.917 . S
Mg176 O187 2.106 . S
Mg176 O189 2.079 . S
Mg176 O198 2.106 . S
Mg176 O199 2.079 . S
O177 Mg176 1.917 . S
O177 Mg178 1.926 . S
O177 Mg179 1.986 . S
Mg178 O177 1.926 . S
Mg178 O192 1.984 . S
Mg178 O195 1.988 . S
Mg178 O196 2.061 . S
Mg179 O177 1.986 . S
Mg179 O187 2.238 . S
Mg179 O191 2.042 . S
Mg179 O193 2.041 . S
Mg179 O200 2.038 . S
C180 O186 1.247 . S
C180 O187 1.289 . S
C181 O199 1.245 . S
C181 O200 1.274 . S
O182 C170 1.241 . S
O182 Mg175 2.042 . S
O183 C170 1.280 . S
O183 Mg173 1.984 . S
O184 C171 1.277 . S
O184 Mg175 2.041 . S
O185 C171 1.245 . S
O185 Mg173 1.988 . S
O186 Mg173 2.061 . S
O186 C180 1.247 . S
O187 Mg176 2.106 . S
O187 Mg179 2.238 . S
O187 C180 1.289 . S
C188 O189 1.245 . S
C188 O190 1.274 . S
O189 Mg176 2.079 . S
O189 C188 1.245 . S
O190 Mg175 2.038 . S
O190 C188 1.274 . S
O191 Mg179 2.042 . S
O191 C194 1.241 . S
O192 Mg178 1.984 . S
O192 C194 1.280 . S
O193 Mg179 2.041 . S
O193 C197 1.277 . S
C194 O191 1.241 . S
C194 O192 1.280 . S
O195 Mg178 1.988 . S
O195 C197 1.245 . S
O196 C172 1.247 . S
O196 Mg178 2.061 . S
C197 O193 1.277 . S
C197 O195 1.245 . S
O198 C172 1.289 . S
O198 Mg175 2.238 . S
O198 Mg176 2.106 . S
O199 Mg176 2.079 . S
O199 C181 1.245 . S
O200 Mg179 2.038 . S
O200 C181 1.274 . S
H201 C213 0.930 . S
H202 C215 0.930 . S
H203 C216 0.930 . S
H204 C220 0.959 . S
H205 C220 0.959 . S
H206 C220 0.961 . S
H207 C221 0.960 . S
H208 C221 0.961 . S
H209 C221 0.959 . S
H210 C224 0.929 . S
H211 C225 0.931 . S
H212 C227 0.930 . S
C213 H201 0.930 . S
C213 C214 1.399 . S
C213 C218 1.399 . S
C214 C213 1.399 . S
C214 C215 1.376 . S
C215 H202 0.930 . S
C215 C214 1.376 . S
C215 C216 1.388 . S
C216 H203 0.930 . S
C216 C215 1.388 . S
C216 C217 1.390 . S
C217 C216 1.390 . S
C217 C218 1.394 . S
C217 C223 1.465 . S
C218 C213 1.399 . S
C218 C217 1.394 . S
C218 C219 1.516 . S
C219 C218 1.516 . S
C219 C220 1.502 . S
C219 C221 1.561 . S
C219 C222 1.526 . S
C220 H204 0.959 . S
C220 H205 0.959 . S
C220 H206 0.961 . S
C220 C219 1.502 . S
C221 H207 0.960 . S
C221 H208 0.961 . S
C221 H209 0.959 . S
C221 C219 1.561 . S
C222 C219 1.526 . S
C222 C223 1.396 . S
C222 C227 1.390 . S
C223 C217 1.465 . S
C223 C222 1.396 . S
C223 C224 1.399 . S
C224 H210 0.929 . S
C224 C223 1.399 . S
C224 C225 1.385 . S
C225 H211 0.931 . S
C225 C224 1.385 . S
C225 C226 1.389 . S
C226 C225 1.389 . S
C226 C227 1.387 . S
C227 H212 0.930 . S
C227 C222 1.390 . S
C227 C226 1.387 . S
H228 C240 0.930 . S
H229 C242 0.930 . S
H230 C243 0.930 . S
H231 C247 0.959 . S
H232 C247 0.959 . S
H233 C247 0.961 . S
H234 C248 0.960 . S
H235 C248 0.961 . S
H236 C248 0.959 . S
H237 C251 0.929 . S
H238 C252 0.931 . S
H239 C254 0.930 . S
C240 H228 0.930 . S
C240 C241 1.399 . S
C240 C245 1.399 . S
C241 C240 1.399 . S
C241 C242 1.376 . S
C242 H229 0.930 . S
C242 C241 1.376 . S
C242 C243 1.388 . S
C243 H230 0.930 . S
C243 C242 1.388 . S
C243 C244 1.390 . S
C244 C243 1.390 . S
C244 C245 1.394 . S
C244 C250 1.465 . S
C245 C240 1.399 . S
C245 C244 1.394 . S
C245 C246 1.516 . S
C246 C245 1.516 . S
C246 C247 1.502 . S
C246 C248 1.561 . S
C246 C249 1.526 . S
C247 H231 0.959 . S
C247 H232 0.959 . S
C247 H233 0.961 . S
C247 C246 1.502 . S
C248 H234 0.960 . S
C248 H235 0.961 . S
C248 H236 0.959 . S
C248 C246 1.561 . S
C249 C246 1.526 . S
C249 C250 1.396 . S
C249 C254 1.390 . S
C250 C244 1.465 . S
C250 C249 1.396 . S
C250 C251 1.399 . S
C251 H237 0.929 . S
C251 C250 1.399 . S
C251 C252 1.385 . S
C252 H238 0.931 . S
C252 C251 1.385 . S
C252 C253 1.389 . S
C253 C252 1.389 . S
C253 C254 1.387 . S
C254 H239 0.930 . S
C254 C249 1.390 . S
C254 C253 1.387 . S
H255 C267 0.930 . S
H256 C269 0.930 . S
H257 C270 0.930 . S
H258 C274 0.959 . S
H259 C274 0.959 . S
H260 C274 0.961 . S
H261 C275 0.960 . S
H262 C275 0.961 . S
H263 C275 0.959 . S
H264 C278 0.929 . S
H265 C279 0.931 . S
H266 C281 0.930 . S
C267 H255 0.930 . S
C267 C268 1.399 . S
C267 C272 1.399 . S
C268 C267 1.399 . S
C268 C269 1.376 . S
C269 H256 0.930 . S
C269 C268 1.376 . S
C269 C270 1.388 . S
C270 H257 0.930 . S
C270 C269 1.388 . S
C270 C271 1.390 . S
C271 C270 1.390 . S
C271 C272 1.394 . S
C271 C277 1.465 . S
C272 C267 1.399 . S
C272 C271 1.394 . S
C272 C273 1.516 . S
C273 C272 1.516 . S
C273 C274 1.502 . S
C273 C275 1.561 . S
C273 C276 1.526 . S
C274 H258 0.959 . S
C274 H259 0.959 . S
C274 H260 0.961 . S
C274 C273 1.502 . S
C275 H261 0.960 . S
C275 H262 0.961 . S
C275 H263 0.959 . S
C275 C273 1.561 . S
C276 C273 1.526 . S
C276 C277 1.396 . S
C276 C281 1.390 . S
C277 C271 1.465 . S
C277 C276 1.396 . S
C277 C278 1.399 . S
C278 H264 0.929 . S
C278 C277 1.399 . S
C278 C279 1.385 . S
C279 H265 0.931 . S
C279 C278 1.385 . S
C279 C280 1.389 . S
C280 C279 1.389 . S
C280 C281 1.387 . S
C281 H266 0.930 . S
C281 C276 1.390 . S
C281 C280 1.387 . S
H282 C294 0.930 . S
H283 C296 0.930 . S
H284 C297 0.930 . S
H285 C301 0.959 . S
H286 C301 0.959 . S
H287 C301 0.961 . S
H288 C302 0.960 . S
H289 C302 0.961 . S
H290 C302 0.959 . S
H291 C305 0.929 . S
H292 C306 0.931 . S
H293 C308 0.930 . S
C294 H282 0.930 . S
C294 C295 1.399 . S
C294 C299 1.399 . S
C295 C294 1.399 . S
C295 C296 1.376 . S
C296 H283 0.930 . S
C296 C295 1.376 . S
C296 C297 1.388 . S
C297 H284 0.930 . S
C297 C296 1.388 . S
C297 C298 1.390 . S
C298 C297 1.390 . S
C298 C299 1.394 . S
C298 C304 1.465 . S
C299 C294 1.399 . S
C299 C298 1.394 . S
C299 C300 1.516 . S
C300 C299 1.516 . S
C300 C301 1.502 . S
C300 C302 1.561 . S
C300 C303 1.526 . S
C301 H285 0.959 . S
C301 H286 0.959 . S
C301 H287 0.961 . S
C301 C300 1.502 . S
C302 H288 0.960 . S
C302 H289 0.961 . S
C302 H290 0.959 . S
C302 C300 1.561 . S
C303 C300 1.526 . S
C303 C304 1.396 . S
C303 C308 1.390 . S
C304 C298 1.465 . S
C304 C303 1.396 . S
C304 C305 1.399 . S
C305 H291 0.929 . S
C305 C304 1.399 . S
C305 C306 1.385 . S
C306 H292 0.931 . S
C306 C305 1.385 . S
C306 C307 1.389 . S
C307 C306 1.389 . S
C307 C308 1.387 . S
C308 H293 0.930 . S
C308 C303 1.390 . S
C308 C307 1.387 . S
H309 C321 0.930 . S
H310 C323 0.930 . S
H311 C324 0.930 . S
H312 C328 0.959 . S
H313 C328 0.959 . S
H314 C328 0.961 . S
H315 C329 0.960 . S
H316 C329 0.961 . S
H317 C329 0.959 . S
H318 C332 0.929 . S
H319 C333 0.931 . S
H320 C335 0.930 . S
C321 H309 0.930 . S
C321 C322 1.399 . S
C321 C326 1.399 . S
C322 C321 1.399 . S
C322 C323 1.376 . S
C323 H310 0.930 . S
C323 C322 1.376 . S
C323 C324 1.388 . S
C324 H311 0.930 . S
C324 C323 1.388 . S
C324 C325 1.390 . S
C325 C324 1.390 . S
C325 C326 1.394 . S
C325 C331 1.465 . S
C326 C321 1.399 . S
C326 C325 1.394 . S
C326 C327 1.516 . S
C327 C326 1.516 . S
C327 C328 1.502 . S
C327 C329 1.561 . S
C327 C330 1.526 . S
C328 H312 0.959 . S
C328 H313 0.959 . S
C328 H314 0.961 . S
C328 C327 1.502 . S
C329 H315 0.960 . S
C329 H316 0.961 . S
C329 H317 0.959 . S
C329 C327 1.561 . S
C330 C327 1.526 . S
C330 C331 1.396 . S
C330 C335 1.390 . S
C331 C325 1.465 . S
C331 C330 1.396 . S
C331 C332 1.399 . S
C332 H318 0.929 . S
C332 C331 1.399 . S
C332 C333 1.385 . S
C333 H319 0.931 . S
C333 C332 1.385 . S
C333 C334 1.389 . S
C334 C333 1.389 . S
C334 C335 1.387 . S
C335 H320 0.930 . S
C335 C330 1.390 . S
C335 C334 1.387 . S
H336 C348 0.930 . S
H337 C350 0.930 . S
H338 C351 0.930 . S
H339 C355 0.959 . S
H340 C355 0.959 . S
H341 C355 0.961 . S
H342 C356 0.960 . S
H343 C356 0.961 . S
H344 C356 0.959 . S
H345 C359 0.929 . S
H346 C360 0.931 . S
H347 C362 0.930 . S
C348 H336 0.930 . S
C348 C349 1.399 . S
C348 C353 1.399 . S
C349 C348 1.399 . S
C349 C350 1.376 . S
C350 H337 0.930 . S
C350 C349 1.376 . S
C350 C351 1.388 . S
C351 H338 0.930 . S
C351 C350 1.388 . S
C351 C352 1.390 . S
C352 C351 1.390 . S
C352 C353 1.394 . S
C352 C358 1.465 . S
C353 C348 1.399 . S
C353 C352 1.394 . S
C353 C354 1.516 . S
C354 C353 1.516 . S
C354 C355 1.502 . S
C354 C356 1.561 . S
C354 C357 1.526 . S
C355 H339 0.959 . S
C355 H340 0.959 . S
C355 H341 0.961 . S
C355 C354 1.502 . S
C356 H342 0.960 . S
C356 H343 0.961 . S
C356 H344 0.959 . S
C356 C354 1.561 . S
C357 C354 1.526 . S
C357 C358 1.396 . S
C357 C362 1.390 . S
C358 C352 1.465 . S
C358 C357 1.396 . S
C358 C359 1.399 . S
C359 H345 0.929 . S
C359 C358 1.399 . S
C359 C360 1.385 . S
C360 H346 0.931 . S
C360 C359 1.385 . S
C360 C361 1.389 . S
C361 C360 1.389 . S
C361 C362 1.387 . S
C362 H347 0.930 . S
C362 C357 1.390 . S
C362 C361 1.387 . S
H363 C375 0.930 . S
H364 C377 0.930 . S
H365 C378 0.930 . S
H366 C382 0.959 . S
H367 C382 0.959 . S
H368 C382 0.961 . S
H369 C383 0.960 . S
H370 C383 0.961 . S
H371 C383 0.959 . S
H372 C386 0.929 . S
H373 C387 0.931 . S
H374 C389 0.930 . S
C375 H363 0.930 . S
C375 C376 1.399 . S
C375 C380 1.399 . S
C376 C375 1.399 . S
C376 C377 1.376 . S
C377 H364 0.930 . S
C377 C376 1.376 . S
C377 C378 1.388 . S
C378 H365 0.930 . S
C378 C377 1.388 . S
C378 C379 1.390 . S
C379 C378 1.390 . S
C379 C380 1.394 . S
C379 C385 1.465 . S
C380 C375 1.399 . S
C380 C379 1.394 . S
C380 C381 1.516 . S
C381 C380 1.516 . S
C381 C382 1.502 . S
C381 C383 1.561 . S
C381 C384 1.526 . S
C382 H366 0.959 . S
C382 H367 0.959 . S
C382 H368 0.961 . S
C382 C381 1.502 . S
C383 H369 0.960 . S
C383 H370 0.961 . S
C383 H371 0.959 . S
C383 C381 1.561 . S
C384 C381 1.526 . S
C384 C385 1.396 . S
C384 C389 1.390 . S
C385 C379 1.465 . S
C385 C384 1.396 . S
C385 C386 1.399 . S
C386 H372 0.929 . S
C386 C385 1.399 . S
C386 C387 1.385 . S
C387 H373 0.931 . S
C387 C386 1.385 . S
C387 C388 1.389 . S
C388 C387 1.389 . S
C388 C389 1.387 . S
C389 H374 0.930 . S
C389 C384 1.390 . S
C389 C388 1.387 . S
H390 C402 0.930 . S
H391 C404 0.930 . S
H392 C405 0.930 . S
H393 C409 0.959 . S
H394 C409 0.959 . S
H395 C409 0.961 . S
H396 C410 0.960 . S
H397 C410 0.961 . S
H398 C410 0.959 . S
H399 C413 0.929 . S
H400 C414 0.931 . S
H401 C416 0.930 . S
C402 H390 0.930 . S
C402 C403 1.399 . S
C402 C407 1.399 . S
C403 C402 1.399 . S
C403 C404 1.376 . S
C404 H391 0.930 . S
C404 C403 1.376 . S
C404 C405 1.388 . S
C405 H392 0.930 . S
C405 C404 1.388 . S
C405 C406 1.390 . S
C406 C405 1.390 . S
C406 C407 1.394 . S
C406 C412 1.465 . S
C407 C402 1.399 . S
C407 C406 1.394 . S
C407 C408 1.516 . S
C408 C407 1.516 . S
C408 C409 1.502 . S
C408 C410 1.561 . S
C408 C411 1.526 . S
C409 H393 0.959 . S
C409 H394 0.959 . S
C409 H395 0.961 . S
C409 C408 1.502 . S
C410 H396 0.960 . S
C410 H397 0.961 . S
C410 H398 0.959 . S
C410 C408 1.561 . S
C411 C408 1.526 . S
C411 C412 1.396 . S
C411 C416 1.390 . S
C412 C406 1.465 . S
C412 C411 1.396 . S
C412 C413 1.399 . S
C413 H399 0.929 . S
C413 C412 1.399 . S
C413 C414 1.385 . S
C414 H400 0.931 . S
C414 C413 1.385 . S
C414 C415 1.389 . S
C415 C414 1.389 . S
C415 C416 1.387 . S
C416 H401 0.930 . S
C416 C411 1.390 . S
C416 C415 1.387 . S
H417 C429 0.930 . S
H418 C431 0.930 . S
H419 C432 0.930 1_554 S
H420 C436 0.959 . S
H421 C436 0.959 . S
H422 C436 0.961 . S
H423 C437 0.960 . S
H424 C437 0.961 . S
H425 C437 0.959 . S
H426 C440 0.929 . S
H427 C441 0.931 . S
H428 C443 0.930 . S
C429 H417 0.930 . S
C429 C430 1.399 . S
C429 C434 1.399 . S
C430 C429 1.399 . S
C430 C431 1.376 1_556 S
C431 H418 0.930 . S
C431 C430 1.376 1_554 S
C431 C432 1.388 1_554 S
C432 H419 0.930 1_556 S
C432 C431 1.388 1_556 S
C432 C433 1.390 . S
C433 C432 1.390 . S
C433 C434 1.394 . S
C433 C439 1.465 . S
C434 C429 1.399 . S
C434 C433 1.394 . S
C434 C435 1.516 . S
C435 C434 1.516 . S
C435 C436 1.502 . S
C435 C437 1.561 . S
C435 C438 1.526 . S
C436 H420 0.959 . S
C436 H421 0.959 . S
C436 H422 0.961 . S
C436 C435 1.502 . S
C437 H423 0.960 . S
C437 H424 0.961 . S
C437 H425 0.959 . S
C437 C435 1.561 . S
C438 C435 1.526 . S
C438 C439 1.396 . S
C438 C443 1.390 . S
C439 C433 1.465 . S
C439 C438 1.396 . S
C439 C440 1.399 . S
C440 H426 0.929 . S
C440 C439 1.399 . S
C440 C441 1.385 . S
C441 H427 0.931 . S
C441 C440 1.385 . S
C441 C442 1.389 . S
C442 C441 1.389 . S
C442 C443 1.387 . S
C443 H428 0.930 . S
C443 C438 1.390 . S
C443 C442 1.387 . S
H444 C456 0.930 . S
H445 C458 0.930 . S
H446 C459 0.930 1_556 S
H447 C463 0.959 . S
H448 C463 0.959 . S
H449 C463 0.961 . S
H450 C464 0.960 . S
H451 C464 0.961 . S
H452 C464 0.959 . S
H453 C467 0.929 . S
H454 C468 0.931 . S
H455 C470 0.930 . S
C456 H444 0.930 . S
C456 C457 1.399 . S
C456 C461 1.399 . S
C457 C456 1.399 . S
C457 C458 1.376 . S
C458 H445 0.930 . S
C458 C457 1.376 . S
C458 C459 1.388 . S
C459 H446 0.930 1_554 S
C459 C458 1.388 . S
C459 C460 1.390 1_554 S
C460 C459 1.390 1_556 S
C460 C461 1.394 1_556 S
C460 C466 1.465 . S
C461 C456 1.399 . S
C461 C460 1.394 1_554 S
C461 C462 1.516 . S
C462 C461 1.516 . S
C462 C463 1.502 . S
C462 C464 1.561 1_554 S
C462 C465 1.526 1_554 S
C463 H447 0.959 . S
C463 H448 0.959 . S
C463 H449 0.961 . S
C463 C462 1.502 . S
C464 H450 0.960 . S
C464 H451 0.961 . S
C464 H452 0.959 . S
C464 C462 1.561 1_556 S
C465 C462 1.526 1_556 S
C465 C466 1.396 . S
C465 C470 1.390 . S
C466 C460 1.465 . S
C466 C465 1.396 . S
C466 C467 1.399 . S
C467 H453 0.929 . S
C467 C466 1.399 . S
C467 C468 1.385 . S
C468 H454 0.931 . S
C468 C467 1.385 . S
C468 C469 1.389 . S
C469 C468 1.389 . S
C469 C470 1.387 . S
C470 H455 0.930 . S
C470 C465 1.390 . S
C470 C469 1.387 . S
H471 C483 0.930 . S
H472 C485 0.930 . S
H473 C486 0.930 . S
H474 C490 0.959 . S
H475 C490 0.959 . S
H476 C490 0.961 . S
H477 C491 0.960 . S
H478 C491 0.961 . S
H479 C491 0.959 . S
H480 C494 0.929 . S
H481 C495 0.931 . S
H482 C497 0.930 . S
C483 H471 0.930 . S
C483 C484 1.399 . S
C483 C488 1.399 1_554 S
C484 C483 1.399 . S
C484 C485 1.376 . S
C485 H472 0.930 . S
C485 C484 1.376 . S
C485 C486 1.388 1_554 S
C486 H473 0.930 . S
C486 C485 1.388 1_556 S
C486 C487 1.390 . S
C487 C486 1.390 . S
C487 C488 1.394 . S
C487 C493 1.465 . S
C488 C483 1.399 1_556 S
C488 C487 1.394 . S
C488 C489 1.516 . S
C489 C488 1.516 . S
C489 C490 1.502 . S
C489 C491 1.561 . S
C489 C492 1.526 . S
C490 H474 0.959 . S
C490 H475 0.959 . S
C490 H476 0.961 . S
C490 C489 1.502 . S
C491 H477 0.960 . S
C491 H478 0.961 . S
C491 H479 0.959 . S
C491 C489 1.561 . S
C492 C489 1.526 . S
C492 C493 1.396 . S
C492 C497 1.390 . S
C493 C487 1.465 . S
C493 C492 1.396 . S
C493 C494 1.399 . S
C494 H480 0.929 . S
C494 C493 1.399 . S
C494 C495 1.385 . S
C495 H481 0.931 . S
C495 C494 1.385 . S
C495 C496 1.389 . S
C496 C495 1.389 . S
C496 C497 1.387 . S
C497 H482 0.930 . S
C497 C492 1.390 . S
C497 C496 1.387 . S
H498 C510 0.930 . S
H499 C512 0.930 . S
H500 C513 0.930 . S
H501 C517 0.959 . S
H502 C517 0.959 . S
H503 C517 0.961 . S
H504 C518 0.960 . S
H505 C518 0.961 . S
H506 C518 0.959 . S
H507 C521 0.929 1_554 S
H508 C522 0.931 . S
H509 C524 0.930 . S
C510 H498 0.930 . S
C510 C511 1.399 1_556 S
C510 C515 1.399 . S
C511 C510 1.399 1_554 S
C511 C512 1.376 . S
C512 H499 0.930 . S
C512 C511 1.376 . S
C512 C513 1.388 . S
C513 H500 0.930 . S
C513 C512 1.388 . S
C513 C514 1.390 1_554 S
C514 C513 1.390 1_556 S
C514 C515 1.394 . S
C514 C520 1.465 . S
C515 C510 1.399 . S
C515 C514 1.394 . S
C515 C516 1.516 . S
C516 C515 1.516 . S
C516 C517 1.502 . S
C516 C518 1.561 . S
C516 C519 1.526 . S
C517 H501 0.959 . S
C517 H502 0.959 . S
C517 H503 0.961 . S
C517 C516 1.502 . S
C518 H504 0.960 . S
C518 H505 0.961 . S
C518 H506 0.959 . S
C518 C516 1.561 . S
C519 C516 1.526 . S
C519 C520 1.396 . S
C519 C524 1.390 . S
C520 C514 1.465 . S
C520 C519 1.396 . S
C520 C521 1.399 . S
C521 H507 0.929 1_556 S
C521 C520 1.399 . S
C521 C522 1.385 . S
C522 H508 0.931 . S
C522 C521 1.385 . S
C522 C523 1.389 . S
C523 C522 1.389 . S
C523 C524 1.387 . S
C524 H509 0.930 . S
C524 C519 1.390 . S
C524 C523 1.387 . S
H525 C537 0.930 . S
H526 C539 0.930 1_554 S
H527 C540 0.930 . S
H528 C544 0.959 . S
H529 C544 0.959 . S
H530 C544 0.961 . S
H531 C545 0.960 . S
H532 C545 0.961 . S
H533 C545 0.959 . S
H534 C548 0.929 . S
H535 C549 0.931 . S
H536 C551 0.930 . S
C537 H525 0.930 . S
C537 C538 1.399 . S
C537 C542 1.399 . S
C538 C537 1.399 . S
C538 C539 1.376 . S
C539 H526 0.930 1_556 S
C539 C538 1.376 . S
C539 C540 1.388 . S
C540 H527 0.930 . S
C540 C539 1.388 . S
C540 C541 1.390 . S
C541 C540 1.390 . S
C541 C542 1.394 . S
C541 C547 1.465 . S
C542 C537 1.399 . S
C542 C541 1.394 . S
C542 C543 1.516 . S
C543 C542 1.516 . S
C543 C544 1.502 . S
C543 C545 1.561 . S
C543 C546 1.526 . S
C544 H528 0.959 . S
C544 H529 0.959 . S
C544 H530 0.961 . S
C544 C543 1.502 . S
C545 H531 0.960 . S
C545 H532 0.961 . S
C545 H533 0.959 . S
C545 C543 1.561 . S
C546 C543 1.526 . S
C546 C547 1.396 . S
C546 C551 1.390 . S
C547 C541 1.465 . S
C547 C546 1.396 . S
C547 C548 1.399 . S
C548 H534 0.929 . S
C548 C547 1.399 . S
C548 C549 1.385 . S
C549 H535 0.931 . S
C549 C548 1.385 . S
C549 C550 1.389 . S
C550 C549 1.389 . S
C550 C551 1.387 . S
C551 H536 0.930 . S
C551 C546 1.390 . S
C551 C550 1.387 . S
H552 C564 0.930 1_554 S
H553 C566 0.930 . S
H554 C567 0.930 . S
H555 C571 0.959 . S
H556 C571 0.959 . S
H557 C571 0.961 . S
H558 C572 0.960 . S
H559 C572 0.961 . S
H560 C572 0.959 . S
H561 C575 0.929 . S
H562 C576 0.931 . S
H563 C578 0.930 . S
C564 H552 0.930 1_556 S
C564 C565 1.399 . S
C564 C569 1.399 . S
C565 C564 1.399 . S
C565 C566 1.376 . S
C566 H553 0.930 . S
C566 C565 1.376 . S
C566 C567 1.388 . S
C567 H554 0.930 . S
C567 C566 1.388 . S
C567 C568 1.390 . S
C568 C567 1.390 . S
C568 C569 1.394 . S
C568 C574 1.465 . S
C569 C564 1.399 . S
C569 C568 1.394 . S
C569 C570 1.516 . S
C570 C569 1.516 . S
C570 C571 1.502 1_556 S
C570 C572 1.561 . S
C570 C573 1.526 . S
C571 H555 0.959 . S
C571 H556 0.959 . S
C571 H557 0.961 . S
C571 C570 1.502 1_554 S
C572 H558 0.960 . S
C572 H559 0.961 . S
C572 H560 0.959 . S
C572 C570 1.561 . S
C573 C570 1.526 . S
C573 C574 1.396 . S
C573 C578 1.390 . S
C574 C568 1.465 . S
C574 C573 1.396 . S
C574 C575 1.399 . S
C575 H561 0.929 . S
C575 C574 1.399 . S
C575 C576 1.385 . S
C576 H562 0.931 . S
C576 C575 1.385 . S
C576 C577 1.389 . S
C577 C576 1.389 . S
C577 C578 1.387 . S
C578 H563 0.930 . S
C578 C573 1.390 . S
C578 C577 1.387 . S
H579 C591 0.930 1_556 S
H580 C593 0.930 . S
H581 C594 0.930 . S
H582 C598 0.959 . S
H583 C598 0.959 . S
H584 C598 0.961 . S
H585 C599 0.960 . S
H586 C599 0.961 . S
H587 C599 0.959 . S
H588 C602 0.929 . S
H589 C603 0.931 . S
H590 C605 0.930 . S
C591 H579 0.930 1_554 S
C591 C592 1.399 . S
C591 C596 1.399 1_554 S
C592 C591 1.399 . S
C592 C593 1.376 . S
C593 H580 0.930 . S
C593 C592 1.376 . S
C593 C594 1.388 . S
C594 H581 0.930 . S
C594 C593 1.388 . S
C594 C595 1.390 . S
C595 C594 1.390 . S
C595 C596 1.394 1_554 S
C595 C601 1.465 1_554 S
C596 C591 1.399 1_556 S
C596 C595 1.394 1_556 S
C596 C597 1.516 . S
C597 C596 1.516 . S
C597 C598 1.502 . S
C597 C599 1.561 . S
C597 C600 1.526 . S
C598 H582 0.959 . S
C598 H583 0.959 . S
C598 H584 0.961 . S
C598 C597 1.502 . S
C599 H585 0.960 . S
C599 H586 0.961 . S
C599 H587 0.959 . S
C599 C597 1.561 . S
C600 C597 1.526 . S
C600 C601 1.396 . S
C600 C605 1.390 . S
C601 C595 1.465 1_556 S
C601 C600 1.396 . S
C601 C602 1.399 1_556 S
C602 H588 0.929 . S
C602 C601 1.399 1_554 S
C602 C603 1.385 1_554 S
C603 H589 0.931 . S
C603 C602 1.385 1_556 S
C603 C604 1.389 . S
C604 C603 1.389 . S
C604 C605 1.387 . S
C605 H590 0.930 . S
C605 C600 1.390 . S
C605 C604 1.387 . S
H606 C618 0.930 . S
H607 C620 0.930 . S
H608 C621 0.930 . S
H609 C625 0.959 . S
H610 C625 0.959 . S
H611 C625 0.961 . S
H612 C626 0.960 . S
H613 C626 0.961 . S
H614 C626 0.959 . S
H615 C629 0.929 . S
H616 C630 0.931 . S
H617 C632 0.930 . S
C618 H606 0.930 . S
C618 C619 1.399 . S
C618 C623 1.399 1_554 S
C619 C618 1.399 . S
C619 C620 1.376 1_554 S
C620 H607 0.930 . S
C620 C619 1.376 1_556 S
C620 C621 1.388 . S
C621 H608 0.930 . S
C621 C620 1.388 . S
C621 C622 1.390 . S
C622 C621 1.390 . S
C622 C623 1.394 . S
C622 C628 1.465 . S
C623 C618 1.399 1_556 S
C623 C622 1.394 . S
C623 C624 1.516 . S
C624 C623 1.516 . S
C624 C625 1.502 1_556 S
C624 C626 1.561 . S
C624 C627 1.526 . S
C625 H609 0.959 . S
C625 H610 0.959 . S
C625 H611 0.961 . S
C625 C624 1.502 1_554 S
C626 H612 0.960 . S
C626 H613 0.961 . S
C626 H614 0.959 . S
C626 C624 1.561 . S
C627 C624 1.526 . S
C627 C628 1.396 . S
C627 C632 1.390 . S
C628 C622 1.465 . S
C628 C627 1.396 . S
C628 C629 1.399 . S
C629 H615 0.929 . S
C629 C628 1.399 . S
C629 C630 1.385 . S
C630 H616 0.931 . S
C630 C629 1.385 . S
C630 C631 1.389 . S
C631 C630 1.389 . S
C631 C632 1.387 . S
C632 H617 0.930 . S
C632 C627 1.390 . S
C632 C631 1.387 . S
H633 C645 0.930 . S
H634 C647 0.930 . S
H635 C648 0.930 . S
H636 C652 0.959 . S
H637 C652 0.959 . S
H638 C652 0.961 . S
H639 C653 0.960 . S
H640 C653 0.961 . S
H641 C653 0.959 . S
H642 C656 0.929 . S
H643 C657 0.931 . S
H644 C659 0.930 . S
C645 H633 0.930 . S
C645 C646 1.399 1_556 S
C645 C650 1.399 . S
C646 C645 1.399 1_554 S
C646 C647 1.376 . S
C647 H634 0.930 . S
C647 C646 1.376 . S
C647 C648 1.388 1_554 S
C648 H635 0.930 . S
C648 C647 1.388 1_556 S
C648 C649 1.390 . S
C649 C648 1.390 . S
C649 C650 1.394 . S
C649 C655 1.465 . S
C650 C645 1.399 . S
C650 C649 1.394 . S
C650 C651 1.516 . S
C651 C650 1.516 . S
C651 C652 1.502 . S
C651 C653 1.561 . S
C651 C654 1.526 . S
C652 H636 0.959 . S
C652 H637 0.959 . S
C652 H638 0.961 . S
C652 C651 1.502 . S
C653 H639 0.960 . S
C653 H640 0.961 . S
C653 H641 0.959 . S
C653 C651 1.561 . S
C654 C651 1.526 . S
C654 C655 1.396 . S
C654 C659 1.390 . S
C655 C649 1.465 . S
C655 C654 1.396 . S
C655 C656 1.399 . S
C656 H642 0.929 . S
C656 C655 1.399 . S
C656 C657 1.385 . S
C657 H643 0.931 . S
C657 C656 1.385 . S
C657 C658 1.389 . S
C658 C657 1.389 . S
C658 C659 1.387 . S
C659 H644 0.930 . S
C659 C654 1.390 . S
C659 C658 1.387 . S
H660 C672 0.930 . S
H661 C674 0.930 1_554 S
H662 C675 0.930 . S
H663 C679 0.959 . S
H664 C679 0.959 . S
H665 C679 0.961 . S
H666 C680 0.960 . S
H667 C680 0.961 . S
H668 C680 0.959 . S
H669 C683 0.929 . S
H670 C684 0.931 . S
H671 C686 0.930 . S
C672 H660 0.930 . S
C672 C673 1.399 . S
C672 C677 1.399 . S
C673 C672 1.399 . S
C673 C674 1.376 . S
C674 H661 0.930 1_556 S
C674 C673 1.376 . S
C674 C675 1.388 . S
C675 H662 0.930 . S
C675 C674 1.388 . S
C675 C676 1.390 . S
C676 C675 1.390 . S
C676 C677 1.394 . S
C676 C682 1.465 . S
C677 C672 1.399 . S
C677 C676 1.394 . S
C677 C678 1.516 . S
C678 C677 1.516 . S
C678 C679 1.502 . S
C678 C680 1.561 . S
C678 C681 1.526 . S
C679 H663 0.959 . S
C679 H664 0.959 . S
C679 H665 0.961 . S
C679 C678 1.502 . S
C680 H666 0.960 . S
C680 H667 0.961 . S
C680 H668 0.959 . S
C680 C678 1.561 . S
C681 C678 1.526 . S
C681 C682 1.396 . S
C681 C686 1.390 . S
C682 C676 1.465 . S
C682 C681 1.396 . S
C682 C683 1.399 . S
C683 H669 0.929 . S
C683 C682 1.399 . S
C683 C684 1.385 . S
C684 H670 0.931 . S
C684 C683 1.385 . S
C684 C685 1.389 . S
C685 C684 1.389 . S
C685 C686 1.387 . S
C686 H671 0.930 . S
C686 C681 1.390 . S
C686 C685 1.387 . S
H687 C699 0.930 . S
H688 C701 0.930 . S
H689 C702 0.930 . S
H690 C706 0.959 . S
H691 C706 0.959 . S
H692 C706 0.961 . S
H693 C707 0.960 . S
H694 C707 0.961 . S
H695 C707 0.959 . S
H696 C710 0.929 . S
H697 C711 0.931 . S
H698 C713 0.930 . S
C699 H687 0.930 . S
C699 C700 1.399 . S
C699 C704 1.399 . S
C700 C699 1.399 . S
C700 C701 1.376 . S
C701 H688 0.930 . S
C701 C700 1.376 . S
C701 C702 1.388 . S
C702 H689 0.930 . S
C702 C701 1.388 . S
C702 C703 1.390 . S
C703 C702 1.390 . S
C703 C704 1.394 . S
C703 C709 1.465 . S
C704 C699 1.399 . S
C704 C703 1.394 . S
C704 C705 1.516 . S
C705 C704 1.516 . S
C705 C706 1.502 . S
C705 C707 1.561 . S
C705 C708 1.526 . S
C706 H690 0.959 . S
C706 H691 0.959 . S
C706 H692 0.961 . S
C706 C705 1.502 . S
C707 H693 0.960 . S
C707 H694 0.961 . S
C707 H695 0.959 . S
C707 C705 1.561 . S
C708 C705 1.526 . S
C708 C709 1.396 . S
C708 C713 1.390 . S
C709 C703 1.465 . S
C709 C708 1.396 . S
C709 C710 1.399 . S
C710 H696 0.929 . S
C710 C709 1.399 . S
C710 C711 1.385 . S
C711 H697 0.931 . S
C711 C710 1.385 . S
C711 C712 1.389 . S
C712 C711 1.389 . S
C712 C713 1.387 . S
C713 H698 0.930 . S
C713 C708 1.390 . S
C713 C712 1.387 . S
H714 C726 0.930 . S
H715 C728 0.930 . S
H716 C729 0.930 . S
H717 C733 0.959 . S
H718 C733 0.959 . S
H719 C733 0.961 . S
H720 C734 0.960 . S
H721 C734 0.961 . S
H722 C734 0.959 . S
H723 C737 0.929 . S
H724 C738 0.931 . S
H725 C740 0.930 . S
C726 H714 0.930 . S
C726 C727 1.399 . S
C726 C731 1.399 . S
C727 C726 1.399 . S
C727 C728 1.376 . S
C728 H715 0.930 . S
C728 C727 1.376 . S
C728 C729 1.388 . S
C729 H716 0.930 . S
C729 C728 1.388 . S
C729 C730 1.390 . S
C730 C729 1.390 . S
C730 C731 1.394 . S
C730 C736 1.465 . S
C731 C726 1.399 . S
C731 C730 1.394 . S
C731 C732 1.516 . S
C732 C731 1.516 . S
C732 C733 1.502 . S
C732 C734 1.561 . S
C732 C735 1.526 . S
C733 H717 0.959 . S
C733 H718 0.959 . S
C733 H719 0.961 . S
C733 C732 1.502 . S
C734 H720 0.960 . S
C734 H721 0.961 . S
C734 H722 0.959 . S
C734 C732 1.561 . S
C735 C732 1.526 . S
C735 C736 1.396 . S
C735 C740 1.390 . S
C736 C730 1.465 . S
C736 C735 1.396 . S
C736 C737 1.399 . S
C737 H723 0.929 . S
C737 C736 1.399 . S
C737 C738 1.385 . S
C738 H724 0.931 . S
C738 C737 1.385 . S
C738 C739 1.389 . S
C739 C738 1.389 . S
C739 C740 1.387 . S
C740 H725 0.930 . S
C740 C735 1.390 . S
C740 C739 1.387 . S
H741 C753 0.930 . S
H742 C755 0.930 . S
H743 C756 0.930 . S
H744 C760 0.959 . S
H745 C760 0.959 . S
H746 C760 0.961 . S
H747 C761 0.960 . S
H748 C761 0.961 . S
H749 C761 0.959 . S
H750 C764 0.929 . S
H751 C765 0.931 . S
H752 C767 0.930 . S
C753 H741 0.930 . S
C753 C754 1.399 . S
C753 C758 1.399 . S
C754 C753 1.399 . S
C754 C755 1.376 . S
C755 H742 0.930 . S
C755 C754 1.376 . S
C755 C756 1.388 . S
C756 H743 0.930 . S
C756 C755 1.388 . S
C756 C757 1.390 . S
C757 C756 1.390 . S
C757 C758 1.394 . S
C757 C763 1.465 . S
C758 C753 1.399 . S
C758 C757 1.394 . S
C758 C759 1.516 . S
C759 C758 1.516 . S
C759 C760 1.502 . S
C759 C761 1.561 . S
C759 C762 1.526 . S
C760 H744 0.959 . S
C760 H745 0.959 . S
C760 H746 0.961 . S
C760 C759 1.502 . S
C761 H747 0.960 . S
C761 H748 0.961 . S
C761 H749 0.959 . S
C761 C759 1.561 . S
C762 C759 1.526 . S
C762 C763 1.396 . S
C762 C767 1.390 . S
C763 C757 1.465 . S
C763 C762 1.396 . S
C763 C764 1.399 . S
C764 H750 0.929 . S
C764 C763 1.399 . S
C764 C765 1.385 . S
C765 H751 0.931 . S
C765 C764 1.385 . S
C765 C766 1.389 . S
C766 C765 1.389 . S
C766 C767 1.387 . S
C767 H752 0.930 . S
C767 C762 1.390 . S
C767 C766 1.387 . S
H768 C780 0.930 . S
H769 C782 0.930 . S
H770 C783 0.930 . S
H771 C787 0.959 . S
H772 C787 0.959 . S
H773 C787 0.961 . S
H774 C788 0.960 . S
H775 C788 0.961 . S
H776 C788 0.959 . S
H777 C791 0.929 . S
H778 C792 0.931 . S
H779 C794 0.930 . S
C780 H768 0.930 . S
C780 C781 1.399 . S
C780 C785 1.399 . S
C781 C780 1.399 . S
C781 C782 1.376 . S
C782 H769 0.930 . S
C782 C781 1.376 . S
C782 C783 1.388 . S
C783 H770 0.930 . S
C783 C782 1.388 . S
C783 C784 1.390 . S
C784 C783 1.390 . S
C784 C785 1.394 . S
C784 C790 1.465 . S
C785 C780 1.399 . S
C785 C784 1.394 . S
C785 C786 1.516 . S
C786 C785 1.516 . S
C786 C787 1.502 . S
C786 C788 1.561 . S
C786 C789 1.526 . S
C787 H771 0.959 . S
C787 H772 0.959 . S
C787 H773 0.961 . S
C787 C786 1.502 . S
C788 H774 0.960 . S
C788 H775 0.961 . S
C788 H776 0.959 . S
C788 C786 1.561 . S
C789 C786 1.526 . S
C789 C790 1.396 . S
C789 C794 1.390 . S
C790 C784 1.465 . S
C790 C789 1.396 . S
C790 C791 1.399 . S
C791 H777 0.929 . S
C791 C790 1.399 . S
C791 C792 1.385 . S
C792 H778 0.931 . S
C792 C791 1.385 . S
C792 C793 1.389 . S
C793 C792 1.389 . S
C793 C794 1.387 . S
C794 H779 0.930 . S
C794 C789 1.390 . S
C794 C793 1.387 . S
H795 C807 0.930 . S
H796 C809 0.930 . S
H797 C810 0.930 . S
H798 C814 0.959 . S
H799 C814 0.959 . S
H800 C814 0.961 . S
H801 C815 0.960 . S
H802 C815 0.961 . S
H803 C815 0.959 . S
H804 C818 0.929 . S
H805 C819 0.931 . S
H806 C821 0.930 . S
C807 H795 0.930 . S
C807 C808 1.399 . S
C807 C812 1.399 . S
C808 C807 1.399 . S
C808 C809 1.376 . S
C809 H796 0.930 . S
C809 C808 1.376 . S
C809 C810 1.388 . S
C810 H797 0.930 . S
C810 C809 1.388 . S
C810 C811 1.390 . S
C811 C810 1.390 . S
C811 C812 1.394 . S
C811 C817 1.465 . S
C812 C807 1.399 . S
C812 C811 1.394 . S
C812 C813 1.516 . S
C813 C812 1.516 . S
C813 C814 1.502 . S
C813 C815 1.561 . S
C813 C816 1.526 . S
C814 H798 0.959 . S
C814 H799 0.959 . S
C814 H800 0.961 . S
C814 C813 1.502 . S
C815 H801 0.960 . S
C815 H802 0.961 . S
C815 H803 0.959 . S
C815 C813 1.561 . S
C816 C813 1.526 . S
C816 C817 1.396 . S
C816 C821 1.390 . S
C817 C811 1.465 . S
C817 C816 1.396 . S
C817 C818 1.399 . S
C818 H804 0.929 . S
C818 C817 1.399 . S
C818 C819 1.385 . S
C819 H805 0.931 . S
C819 C818 1.385 . S
C819 C820 1.389 . S
C820 C819 1.389 . S
C820 C821 1.387 . S
C821 H806 0.930 . S
C821 C816 1.390 . S
C821 C820 1.387 . S
H822 C834 0.930 . S
H823 C836 0.930 . S
H824 C837 0.930 . S
H825 C841 0.959 . S
H826 C841 0.959 . S
H827 C841 0.961 . S
H828 C842 0.960 . S
H829 C842 0.961 . S
H830 C842 0.959 . S
H831 C845 0.929 . S
H832 C846 0.931 . S
H833 C848 0.930 . S
C834 H822 0.930 . S
C834 C835 1.399 . S
C834 C839 1.399 . S
C835 C834 1.399 . S
C835 C836 1.376 . S
C836 H823 0.930 . S
C836 C835 1.376 . S
C836 C837 1.388 . S
C837 H824 0.930 . S
C837 C836 1.388 . S
C837 C838 1.390 . S
C838 C837 1.390 . S
C838 C839 1.394 . S
C838 C844 1.465 . S
C839 C834 1.399 . S
C839 C838 1.394 . S
C839 C840 1.516 . S
C840 C839 1.516 . S
C840 C841 1.502 . S
C840 C842 1.561 . S
C840 C843 1.526 . S
C841 H825 0.959 . S
C841 H826 0.959 . S
C841 H827 0.961 . S
C841 C840 1.502 . S
C842 H828 0.960 . S
C842 H829 0.961 . S
C842 H830 0.959 . S
C842 C840 1.561 . S
C843 C840 1.526 . S
C843 C844 1.396 . S
C843 C848 1.390 . S
C844 C838 1.465 . S
C844 C843 1.396 . S
C844 C845 1.399 . S
C845 H831 0.929 . S
C845 C844 1.399 . S
C845 C846 1.385 . S
C846 H832 0.931 . S
C846 C845 1.385 . S
C846 C847 1.389 . S
C847 C846 1.389 . S
C847 C848 1.387 . S
C848 H833 0.930 . S
C848 C843 1.390 . S
C848 C847 1.387 . S
C214 C16 1.800 . S
C226 C119 1.848 . S
C241 C26 1.576 . S
C253 C166 1.591 . S
C280 C170 1.800 . S
C268 C52 1.774 . S
C307 C135 1.499 . S
C295 C62 1.534 . S
C322 C80 1.799 . S
C334 C150 1.777 . S
C361 C172 1.086 . S
C349 C98 1.135 . S
C388 C141 1.523 . S
C376 C43 1.561 . S
C403 C68 1.466 . S
C415 C181 1.445 . S
C442 C110 1.430 . S
C430 C86 1.391 1_556 S
C457 C104 1.486 . S
C469 C139 1.482 . S
C484 C7 1.886 . S
C496 C197 1.903 . S
C523 C108 1.563 . S
C511 C32 1.507 . S
C550 C126 1.771 . S
C538 C61 1.802 1_556 S
C577 C140 1.613 . S
C565 C79 1.619 1_556 S
C604 C194 1.766 . S
C592 C97 1.780 . S
C631 C109 1.505 . S
C619 C14 1.538 . S
C658 C157 1.715 . S
C646 C25 1.728 . S
C673 C50 1.050 . S
C685 C180 1.141 . S
C712 C149 1.537 . S
C700 C106 1.490 . S
C739 C188 1.406 . S
C727 C8 1.438 . S
C766 C118 1.372 . S
C754 C34 1.365 . S
C793 C163 1.389 . S
C781 C44 1.439 . S
C808 C70 1.896 . S
C820 C171 1.864 . S
C835 C88 1.537 . S
C847 C132 1.527 . S
