# Generated by pormake.
# Topology pyr, (3,6)-cn, num edge types: 1
# Building blocks:
#     Node 0, Type 0, BuildingBlock: QEWDON_clean_linker_0, # of connection points: 3
#     Node 1, Type 0, BuildingBlock: QEWDON_clean_linker_0, # of connection points: 3
#     Node 2, Type 0, BuildingBlock: QEWDON_clean_linker_0, # of connection points: 3
#     Node 3, Type 0, BuildingBlock: QEWDON_clean_linker_0, # of connection points: 3
#     Node 4, Type 0, BuildingBlock: QEWDON_clean_linker_0, # of connection points: 3
#     Node 5, Type 0, BuildingBlock: QEWDON_clean_linker_0, # of connection points: 3
#     Node 6, Type 0, BuildingBlock: QEWDON_clean_linker_0, # of connection points: 3
#     Node 7, Type 0, BuildingBlock: QEWDON_clean_linker_0, # of connection points: 3
#     Node 8, Type 1, BuildingBlock: FUNLAD_clean_sbu_0, # of connection points: 6
#     Node 9, Type 1, BuildingBlock: FUNLAD_clean_sbu_0, # of connection points: 6
#     Node 10, Type 1, BuildingBlock: FUNLAD_clean_sbu_0, # of connection points: 6
#     Node 11, Type 1, BuildingBlock: FUNLAD_clean_sbu_0, # of connection points: 6
#     Edge 12, Type (0, 1), BuildingBlock: UVAHIK_clean_linker_0, # of connection points: 2
#     Edge 13, Type (0, 1), BuildingBlock: UVAHIK_clean_linker_0, # of connection points: 2
#     Edge 14, Type (0, 1), BuildingBlock: UVAHIK_clean_linker_0, # of connection points: 2
#     Edge 15, Type (0, 1), BuildingBlock: UVAHIK_clean_linker_0, # of connection points: 2
#     Edge 16, Type (0, 1), BuildingBlock: UVAHIK_clean_linker_0, # of connection points: 2
#     Edge 17, Type (0, 1), BuildingBlock: UVAHIK_clean_linker_0, # of connection points: 2
#     Edge 18, Type (0, 1), BuildingBlock: UVAHIK_clean_linker_0, # of connection points: 2
#     Edge 19, Type (0, 1), BuildingBlock: UVAHIK_clean_linker_0, # of connection points: 2
#     Edge 20, Type (0, 1), BuildingBlock: UVAHIK_clean_linker_0, # of connection points: 2
#     Edge 21, Type (0, 1), BuildingBlock: UVAHIK_clean_linker_0, # of connection points: 2
#     Edge 22, Type (0, 1), BuildingBlock: UVAHIK_clean_linker_0, # of connection points: 2
#     Edge 23, Type (0, 1), BuildingBlock: UVAHIK_clean_linker_0, # of connection points: 2
#     Edge 24, Type (0, 1), BuildingBlock: UVAHIK_clean_linker_0, # of connection points: 2
#     Edge 25, Type (0, 1), BuildingBlock: UVAHIK_clean_linker_0, # of connection points: 2
#     Edge 26, Type (0, 1), BuildingBlock: UVAHIK_clean_linker_0, # of connection points: 2
#     Edge 27, Type (0, 1), BuildingBlock: UVAHIK_clean_linker_0, # of connection points: 2
#     Edge 28, Type (0, 1), BuildingBlock: UVAHIK_clean_linker_0, # of connection points: 2
#     Edge 29, Type (0, 1), BuildingBlock: UVAHIK_clean_linker_0, # of connection points: 2
#     Edge 30, Type (0, 1), BuildingBlock: UVAHIK_clean_linker_0, # of connection points: 2
#     Edge 31, Type (0, 1), BuildingBlock: UVAHIK_clean_linker_0, # of connection points: 2
#     Edge 32, Type (0, 1), BuildingBlock: UVAHIK_clean_linker_0, # of connection points: 2
#     Edge 33, Type (0, 1), BuildingBlock: UVAHIK_clean_linker_0, # of connection points: 2
#     Edge 34, Type (0, 1), BuildingBlock: UVAHIK_clean_linker_0, # of connection points: 2
#     Edge 35, Type (0, 1), BuildingBlock: UVAHIK_clean_linker_0, # of connection points: 2
# Relax obj value: 0.225
# Max RMSD: 0.287
# Mean RMSD: 0.188
data_MOF--net-pry--node1-FUNLAD_clean_sbu_0--node2-QEWDON_clean_linker_0--edge1-UVAHIK_clean_linker_0
_symmetry_space_group_name_H-M    P1
_symmetry_Int_Tables_number       1
_symmetry_cell_setting            triclinic
loop_
_symmetry_equiv_pos_as_xyz
'x, y, z'
_cell_length_a     45.040429
_cell_length_b     48.102036
_cell_length_c     51.726093
_cell_angle_alpha  89.874007
_cell_angle_beta   90.609452
_cell_angle_gamma 94.988824
loop_
_atom_site_label
_atom_site_type_symbol
_atom_site_fract_x
_atom_site_fract_y
_atom_site_fract_z
_atom_type_partial_charge
H0 H 0.2112 0.24866 0.18936 0.0
C1 C 0.19989 0.23752 0.20517 0.0
C2 C 0.20941 0.21159 0.21337 0.0
C3 C 0.17782 0.25034 0.21881 0.0
H4 H 0.20426 0.17918 0.24223 0.0
C5 C 0.19614 0.19846 0.23548 0.0
C6 C 0.17328 0.21033 0.24922 0.0
C7 C 0.16411 0.23604 0.24008 0.0
C8 C 0.17398 0.28093 0.21557 0.0
H9 H 0.14687 0.24591 0.2501 0.0
C10 C 0.16383 0.29357 0.19245 0.0
C11 C 0.16106 0.32294 0.1916 0.0
C12 C 0.18115 0.29801 0.23717 0.0
H13 H 0.18917 0.28918 0.25496 0.0
C14 C 0.17845 0.32656 0.23628 0.0
H15 H 0.1582 0.28088 0.17555 0.0
C16 C 0.16855 0.33888 0.21383 0.0
H17 H 0.16655 0.36118 0.21388 0.0
H18 H 0.18411 0.33927 0.25317 0.0
H19 H 0.35138 0.93118 0.7783 0.0
C20 C 0.36555 0.91789 0.76811 0.0
C21 C 0.39415 0.9135 0.77821 0.0
C22 C 0.35383 0.90357 0.74608 0.0
H23 H 0.43267 0.88995 0.77274 0.0
C24 C 0.41076 0.89379 0.7655 0.0
C25 C 0.39933 0.8791 0.74324 0.0
C26 C 0.3709 0.88449 0.73382 0.0
C27 C 0.32137 0.90285 0.73992 0.0
H28 H 0.36103 0.8724 0.71775 0.0
C29 C 0.30854 0.92279 0.72391 0.0
C30 C 0.27729 0.92046 0.71893 0.0
C31 C 0.30293 0.88078 0.75042 0.0
H32 H 0.31226 0.86529 0.76259 0.0
C33 C 0.27244 0.87827 0.74535 0.0
H34 H 0.32259 0.93992 0.7157 0.0
C35 C 0.25975 0.89779 0.72979 0.0
H36 H 0.23598 0.8949 0.72599 0.0
H37 H 0.25854 0.86101 0.75347 0.0
H38 H 0.64381 0.56037 1.01477 0.0
C39 C 0.63614 0.53858 1.01755 0.0
C40 C 0.65682 0.51897 0.02246 0.0
C41 C 0.60574 0.5299 1.01485 0.0
H42 H 0.66283 0.47558 0.02885 0.0
C43 C 0.64677 0.4907 0.02526 0.0
C44 C 0.61646 0.48165 0.02203 0.0
C45 C 0.59605 0.50149 1.01698 0.0
C46 C 0.5846 0.54984 1.00634 0.0
H47 H 0.57272 0.4948 1.01358 0.0
C48 C 0.57122 0.54659 0.98185 0.0
C49 C 0.55183 0.56577 0.97258 0.0
C50 C 0.57842 0.57238 0.02192 0.0
H51 H 0.58872 0.57524 0.04086 0.0
C52 C 0.55866 0.59126 1.0131 0.0
H53 H 0.57708 0.52969 0.96959 0.0
C54 C 0.54548 0.58809 0.98854 0.0
H55 H 0.5305 0.60314 0.982 0.0
H56 H 0.55377 0.60857 0.02522 0.0
H57 H 0.90034 0.65877 0.43002 0.0
C58 C 0.89265 0.65101 0.44865 0.0
C59 C 0.8998 0.66742 0.47057 0.0
C60 C 0.87477 0.62559 0.45059 0.0
H61 H 0.89276 0.67231 0.51131 0.0
C62 C 0.88831 0.6589 0.49464 0.0
C63 C 0.86908 0.63448 0.49688 0.0
C64 C 0.86361 0.61734 0.47504 0.0
C65 C 0.86582 0.60901 0.42687 0.0
H66 H 0.84921 0.59827 0.47688 0.0
C67 C 0.88442 0.60994 0.40506 0.0
C68 C 0.87508 0.59635 0.38199 0.0
C69 C 0.83794 0.59324 0.42524 0.0
H70 H 0.8223 0.59261 0.44099 0.0
C71 C 0.82922 0.57865 0.40275 0.0
H72 H 0.90621 0.62137 0.40577 0.0
C73 C 0.84756 0.58026 0.38117 0.0
H74 H 0.83973 0.56974 0.36358 0.0
H75 H 0.80774 0.5667 0.40178 0.0
H76 H 0.85972 0.88284 0.89056 0.0
C77 C 0.87021 0.89354 0.87414 0.0
C78 C 0.89828 0.88629 0.8656 0.0
C79 C 0.85424 0.91274 0.86043 0.0
H80 H 0.93213 0.89451 0.83643 0.0
C81 C 0.91047 0.8995 0.84294 0.0
C82 C 0.89501 0.91936 0.82893 0.0
C83 C 0.86675 0.92532 0.838 0.0
C84 C 0.82211 0.91536 0.8661 0.0
H85 H 0.8535 0.93894 0.82692 0.0
C86 C 0.81208 0.92883 0.88844 0.0
C87 C 0.78107 0.93036 0.89239 0.0
C88 C 0.80094 0.90373 0.84818 0.0
H89 H 0.80798 0.89333 0.83102 0.0
C90 C 0.77058 0.90508 0.85219 0.0
H91 H 0.8281 0.93803 0.90241 0.0
C92 C 0.76072 0.9182 0.87407 0.0
H93 H 0.73696 0.91907 0.87664 0.0
H94 H 0.75457 0.89591 0.83822 0.0
H95 H 0.69191 0.2312 0.43028 0.0
C96 C 0.6851 0.22461 0.41094 0.0
C97 C 0.70201 0.20609 0.39717 0.0
C98 C 0.65845 0.23351 0.40054 0.0
H99 H 0.70381 0.18209 0.36197 0.0
C100 C 0.69183 0.1971 0.37227 0.0
C101 C 0.66519 0.2057 0.36128 0.0
C102 C 0.64899 0.2241 0.37569 0.0
C103 C 0.63685 0.24685 0.41747 0.0
H104 H 0.62822 0.23058 0.36797 0.0
C105 C 0.64162 0.27439 0.42777 0.0
C106 C 0.61977 0.28505 0.44392 0.0
C107 C 0.61033 0.23068 0.42349 0.0
H108 H 0.6061 0.20966 0.41602 0.0
C109 C 0.58912 0.24107 0.43932 0.0
H110 H 0.66186 0.28725 0.42331 0.0
C111 C 0.59377 0.26788 0.44947 0.0
H112 H 0.57672 0.27541 0.46161 0.0
H113 H 0.56888 0.22823 0.44378 0.0
H114 H 0.4642 0.65058 0.1627 0.0
C115 C 0.44251 0.64458 0.15415 0.0
C116 C 0.42743 0.66438 0.1405 0.0
C117 C 0.42969 0.61701 0.15691 0.0
H118 H 0.3867 0.6718 0.12028 0.0
C119 C 0.3992 0.65643 0.12992 0.0
C120 C 0.38617 0.62914 0.13261 0.0
C121 C 0.40158 0.60924 0.14575 0.0
C122 C 0.44479 0.59715 0.17318 0.0
H123 H 0.39113 0.58828 0.14841 0.0
C124 C 0.45367 0.60474 0.19846 0.0
C125 C 0.46823 0.58638 0.21432 0.0
C126 C 0.4504 0.57079 0.16379 0.0
H127 H 0.44366 0.56451 0.14435 0.0
C128 C 0.46532 0.55256 0.17936 0.0
H129 H 0.4491 0.625 0.20586 0.0
C130 C 0.47434 0.56032 0.20448 0.0
H131 H 0.48549 0.54576 0.21637 0.0
H132 H 0.46982 0.53233 0.17196 0.0
H133 H 0.14222 0.49293 0.61179 0.0
C134 C 0.13285 0.4854 0.59346 0.0
C135 C 0.15115 0.48579 0.57156 0.0
C136 C 0.10346 0.47301 0.59235 0.0
H137 H 0.15405 0.4728 0.53174 0.0
C138 C 0.13973 0.47365 0.54838 0.0
C139 C 0.11043 0.46115 0.54699 0.0
C140 C 0.09218 0.46219 0.56874 0.0
C141 C 0.08567 0.46789 0.61626 0.0
H142 H 0.06966 0.45227 0.568 0.0
C143 C 0.08649 0.48777 0.63625 0.0
C144 C 0.06989 0.48228 0.65887 0.0
C145 C 0.06832 0.44229 0.61949 0.0
H146 H 0.06799 0.42601 0.60505 0.0
C147 C 0.05161 0.43698 0.64172 0.0
H148 H 0.09971 0.50755 0.63416 0.0
C149 C 0.05232 0.4568 0.6613 0.0
H150 H 0.03974 0.45184 0.67869 0.0
H151 H 0.03843 0.41722 0.64396 0.0
C152 C 0.04319 0.08837 0.48869 0.0
N153 N 0.02941 0.12933 0.55817 0.0
C154 C 0.05765 0.14148 0.55587 0.0
C155 C 0.06295 0.17047 0.55561 0.0
C156 C 0.03881 0.18715 0.55662 0.0
C157 C 1.01036 0.17394 0.5618 0.0
C158 C 1.00626 0.14488 0.56293 0.0
Zn159 Zn 0.02042 0.0898 0.5442 0.0
C160 C 0.96056 0.08682 0.51395 0.0
N161 N 0.99994 1.01048 0.50974 0.0
C162 C 0.02296 0.99853 0.49867 0.0
C163 C 0.97247 0.99653 0.51166 0.0
C164 C 0.96755 0.96909 0.50281 0.0
C165 C 0.99124 0.95594 0.49221 0.0
C166 C 0.01912 0.97108 0.48986 0.0
Zn167 Zn 1.00823 0.04913 0.52535 0.0
O168 O 0.04307 0.1036 0.50879 0.0
C169 C 0.06744 0.05206 0.55601 0.0
O170 O 0.03017 0.0638 0.48977 0.0
H171 H 0.95457 1.00644 0.52067 0.0
H172 H 0.0758 0.12885 0.55196 0.0
H173 H 0.04457 1.01008 0.49723 0.0
O174 O 0.06126 0.07695 0.56023 0.0
O175 O 0.0498 0.03654 0.54167 0.0
H176 H 0.984 0.13485 0.56511 0.0
O177 O 0.98663 0.03485 0.56114 0.0
O178 O 0.99853 0.07525 0.57979 0.0
O179 O 0.96657 0.06188 0.50959 0.0
O180 O 0.9788 0.10224 0.52776 0.0
C181 C 0.98684 0.05013 0.58131 0.0
H182 H 0.08555 0.17952 0.55286 0.0
H183 H 0.99088 0.18551 0.56287 0.0
H184 H 0.9458 0.95794 0.50516 0.0
H185 H 0.03784 0.96167 0.48159 0.0
C186 C 0.5652 0.05408 0.05037 0.0
N187 N 0.52788 0.13122 0.04364 0.0
C188 C 0.55554 0.1445 0.04705 0.0
C189 C 0.56142 0.17218 0.03922 0.0
C190 C 0.53853 0.18631 0.02793 0.0
C191 C 0.51059 0.17168 0.02359 0.0
C192 C 0.50574 0.14396 0.03159 0.0
Zn193 Zn 0.5182 0.09316 0.06007 0.0
C194 C 0.48461 0.05235 0.0232 0.0
N195 N 0.49638 0.01477 0.0957 0.0
C196 C 0.51808 1.00199 0.10836 0.0
C197 C 0.46868 1.00171 0.09197 0.0
C198 C 0.46232 0.97421 0.10006 0.0
C199 C 0.4847 0.96004 0.11208 0.0
C200 C 0.51266 0.97446 0.11683 0.0
Zn201 Zn 0.50621 0.05275 0.0792 0.0
O202 O 0.55902 0.07894 0.04569 0.0
C203 C 0.541 0.09283 0.11583 0.0
O204 O 0.54747 0.03871 0.0645 0.0
H205 H 0.45178 0.01232 0.08189 0.0
H206 H 0.57273 0.13399 0.05683 0.0
H207 H 0.53997 0.01281 0.11102 0.0
O208 O 0.54047 0.10814 0.0957 0.0
O209 O 0.52853 0.06804 0.11456 0.0
H210 H 0.48393 0.13294 0.02906 0.0
O211 O 0.46481 0.06716 0.09345 0.0
O212 O 0.47701 0.10733 0.07481 0.0
O213 O 0.48443 0.03756 0.04367 0.0
O214 O 0.49641 0.07742 0.02438 0.0
C215 C 0.45889 0.09211 0.08867 0.0
H216 H 0.58318 0.18281 0.04317 0.0
H217 H 0.49247 0.18178 1.0147 0.0
H218 H 0.44034 0.96391 0.09637 0.0
H219 H 0.53058 0.96419 0.12585 0.0
C220 C 0.53902 0.53805 0.56844 0.0
N221 N 0.53178 0.56355 0.64661 0.0
C222 C 0.51605 0.53968 0.65464 0.0
C223 C 0.51667 0.53186 0.6807 0.0
C224 C 0.53404 0.54855 0.69836 0.0
C225 C 0.55089 0.5724 0.68932 0.0
C226 C 0.54923 0.57968 0.66334 0.0
Zn227 Zn 0.52701 0.57872 0.6101 0.0
C228 C 0.5845 0.60612 0.59038 0.0
N229 N 0.5171 0.61371 0.53503 0.0
C230 C 0.49861 0.59796 0.51878 0.0
C231 C 0.53328 0.63712 0.52648 0.0
C232 C 0.53182 0.64493 0.50043 0.0
C233 C 0.51303 0.62881 0.48338 0.0
C234 C 0.49596 0.60535 0.4929 0.0
Zn235 Zn 0.52211 0.59866 0.57171 0.0
O236 O 0.53793 0.53965 0.59302 0.0
C237 C 0.46465 0.57081 0.59106 0.0
O238 O 0.53282 0.55918 0.55514 0.0
H239 H 0.54796 0.64928 0.53966 0.0
H240 H 0.50226 0.52721 0.64103 0.0
H241 H 0.48655 0.57902 0.52564 0.0
O242 O 0.48094 0.56459 0.61004 0.0
O243 O 0.47635 0.58492 0.57247 0.0
H244 H 0.56104 0.59886 0.65676 0.0
O245 O 0.51165 0.63792 0.5888 0.0
O246 O 0.51617 0.6181 0.62664 0.0
O247 O 0.56791 0.61205 0.5715 0.0
O248 O 0.57302 0.59276 0.60953 0.0
C249 C 0.51048 0.63943 0.6134 0.0
H250 H 0.50337 0.51331 0.68705 0.0
H251 H 0.56412 0.58607 0.70244 0.0
H252 H 0.54539 0.66312 0.49363 0.0
H253 H 0.48167 0.59213 0.48017 0.0
C254 C 1.01496 0.65027 1.00191 0.0
N255 N 1.01318 0.61857 0.07898 0.0
C256 C 0.02246 0.64351 0.09011 0.0
C257 C 1.01355 0.64952 0.11523 0.0
C258 C 0.99454 0.62982 0.12847 0.0
C259 C 0.9854 0.6044 0.11653 0.0
C260 C 0.99526 0.59905 0.09183 0.0
Zn261 Zn 0.02565 0.60761 0.04283 0.0
C262 C 0.9734 0.57696 1.01531 0.0
N263 N 0.04864 0.58008 0.96844 0.0
C264 C 0.06657 0.59891 0.95482 0.0
C265 C 0.03747 0.55551 0.95774 0.0
C266 C 0.04341 0.5496 0.93198 0.0
C267 C 0.06117 0.56907 0.9173 0.0
C268 C 0.07329 0.59374 0.92915 0.0
Zn269 Zn 0.03645 0.59127 1.0044 0.0
O270 O 1.0125 0.64668 0.02629 0.0
C271 C 0.08889 0.62085 0.03298 0.0
O272 O 0.02515 0.631 0.98865 0.0
H273 H 0.02329 0.54086 0.96897 0.0
H274 H 0.03684 0.65865 0.07959 0.0
H275 H 0.07493 0.61846 0.9636 0.0
O276 O 0.06924 0.62544 0.04949 0.0
O277 O 0.08109 0.60758 1.01243 0.0
H278 H 0.98866 0.5791 0.083 0.0
O279 O 0.04749 0.55148 0.02052 0.0
O280 O 0.03905 0.56853 0.05868 0.0
O281 O 0.99169 0.57476 0.99707 0.0
O282 O 0.9822 0.58924 0.03601 0.0
C283 C 0.04717 0.54853 0.04504 0.0
H284 H 0.0211 0.6693 0.12407 0.0
H285 H 0.97114 0.58857 0.12643 0.0
H286 H 0.03386 0.53022 0.92351 0.0
H287 H 0.08677 0.60942 0.91838 0.0
C288 C 0.14895 0.21322 0.29355 0.0
C289 C 0.16013 0.19693 0.27378 0.0
C290 C 0.13657 0.20105 0.31621 0.0
C291 C 0.11032 0.13098 0.34659 0.0
H292 H 0.10882 0.17651 0.40805 0.0
C293 C 0.04941 0.088 0.43994 0.0
C294 C 0.05764 0.09953 0.46424 0.0
C295 C 0.06199 0.09937 0.41695 0.0
C296 C 0.10931 0.16303 0.39139 0.0
H297 H 0.16665 0.15414 0.26355 0.0
H298 H 0.14727 0.13336 0.30335 0.0
H299 H 0.1314 0.19608 0.36934 0.0
H300 H 0.08645 0.13183 0.48314 0.0
H301 H 0.10957 0.15048 0.44381 0.0
H302 H 0.09001 0.09737 0.36923 0.0
C303 C 0.14696 0.15568 0.30103 0.0
C304 C 0.1219 0.17467 0.36857 0.0
C305 C 0.15878 0.16783 0.27805 0.0
C306 C 0.07931 0.12245 0.46484 0.0
C307 C 0.09242 0.13341 0.44195 0.0
C308 C 0.0983 0.11914 0.36961 0.0
C309 C 0.13545 0.172 0.32066 0.0
C310 C 0.12248 0.15905 0.3455 0.0
C311 C 0.08384 0.12238 0.41738 0.0
C312 C 0.09731 0.13493 0.39256 0.0
H313 H 0.14996 0.23569 0.29191 0.0
H314 H 0.12765 0.21476 0.33012 0.0
H315 H 0.10963 0.11793 0.32956 0.0
H316 H 0.03261 0.07053 0.43858 0.0
H317 H 0.05394 0.09027 0.39883 0.0
C318 C 0.39725 0.95552 0.80847 0.0
C319 C 0.40549 0.92859 0.80264 0.0
C320 C 0.40598 0.969 0.83181 0.0
C321 C 0.43737 0.95555 0.89848 0.0
H322 H 0.44527 0.03628 0.90166 0.0
C323 C 0.457 0.01335 0.99722 0.0
C324 C 0.47348 0.03962 0.99795 0.0
C325 C 0.4485 1.00036 0.97357 0.0
C326 C 0.44359 0.01371 0.90132 0.0
H327 H 0.43039 0.89533 0.81765 0.0
H328 H 0.44676 0.91918 0.85742 0.0
H329 H 0.43333 0.01318 0.86081 0.0
H330 H 0.4939 0.07261 0.97377 0.0
H331 H 0.48006 0.04989 0.93281 0.0
H332 H 0.44903 0.9561 0.93874 0.0
C333 C 0.43266 0.9297 0.84422 0.0
C334 C 0.43613 1.00026 0.87766 0.0
C335 C 0.42361 0.91605 0.82095 0.0
C336 C 0.48094 0.05256 0.97415 0.0
C337 C 0.4728 0.03941 0.95047 0.0
C338 C 0.44518 0.969 0.92209 0.0
C339 C 0.42379 0.95639 0.8503 0.0
C340 C 0.43266 0.97086 0.87571 0.0
C341 C 0.45654 0.01291 0.94962 0.0
C342 C 0.44831 0.99841 0.9241 0.0
H343 H 0.38384 0.96642 0.79497 0.0
H344 H 0.39812 0.98923 0.83543 0.0
H345 H 0.43465 0.93298 0.89833 0.0
H346 H 0.45071 1.00265 1.01505 0.0
H347 H 0.43547 0.9804 0.97421 0.0
C348 C 0.5409 0.58709 0.92963 0.0
C349 C 0.54047 0.56336 0.94555 0.0
C350 C 0.53529 0.58431 0.90311 0.0
C351 C 0.50835 0.53428 0.85134 0.0
H352 H 0.56548 0.57964 0.8102 0.0
C353 C 0.50549 0.539 0.73909 0.0
C354 C 0.53299 0.54287 0.72646 0.0
C355 C 0.50442 0.53883 0.7661 0.0
C356 C 0.54956 0.56657 0.82139 0.0
H357 H 0.53122 0.51835 0.94651 0.0
H358 H 0.52234 0.51344 0.90019 0.0
H359 H 0.56501 0.58592 0.85666 0.0
H360 H 0.58091 0.54734 0.73187 0.0
H361 H 0.57915 0.54631 0.77896 0.0
H362 H 0.49362 0.51434 0.81587 0.0
C363 C 0.52686 0.53421 0.90813 0.0
C364 C 0.54891 0.57055 0.84804 0.0
C365 C 0.53228 0.537 0.93466 0.0
C366 C 0.55942 0.54469 0.7412 0.0
C367 C 0.55837 0.54429 0.76813 0.0
C368 C 0.50906 0.53023 0.82457 0.0
C369 C 0.5293 0.55776 0.89192 0.0
C370 C 0.52837 0.55443 0.86337 0.0
C371 C 0.53085 0.54239 0.78089 0.0
C372 C 0.52986 0.54621 0.80934 0.0
H373 H 0.5472 0.60769 0.93735 0.0
H374 H 0.53669 0.60294 0.89123 0.0
H375 H 0.49214 0.52162 0.86259 0.0
H376 H 0.48479 0.53779 0.72814 0.0
H377 H 0.48287 0.53744 0.77533 0.0
C378 C 0.90385 0.62788 0.35091 0.0
C379 C 0.89286 0.60078 0.35817 0.0
C380 C 0.91778 0.63266 0.32714 0.0
C381 C 0.92007 0.60098 0.26258 0.0
H382 H 0.9849 0.65812 0.25144 0.0
C383 C 0.95381 0.63233 0.16012 0.0
C384 C 0.98441 0.6348 0.15492 0.0
C385 C 0.94386 0.63152 0.18555 0.0
C386 C 0.96691 0.64199 0.25427 0.0
H387 H 0.88925 0.55725 0.34695 0.0
H388 H 0.91416 0.56544 0.30561 0.0
H389 H 0.96743 0.64799 0.2953 0.0
H390 H 0.02868 0.63975 0.17182 0.0
H391 H 1.01136 0.63776 0.21657 0.0
H392 H 0.91997 0.59432 0.22184 0.0
C393 C 0.91133 0.58313 0.31798 0.0
C394 C 0.95673 0.63634 0.27936 0.0
C395 C 0.89717 0.57839 0.34167 0.0
C396 C 1.00495 0.63807 0.17549 0.0
C397 C 0.995 0.63691 0.20104 0.0
C398 C 0.9303 0.60652 0.23761 0.0
C399 C 0.92117 0.61041 0.31016 0.0
C400 C 0.93311 0.6158 0.28378 0.0
C401 C 0.96433 0.63267 0.20631 0.0
C402 C 0.95366 0.62723 0.23308 0.0
H403 H 0.9005 0.64559 0.36313 0.0
H404 H 0.92473 0.65395 0.32163 0.0
H405 H 0.90155 0.58533 0.26516 0.0
H406 H 0.93761 0.62994 0.14447 0.0
H407 H 0.92008 0.62903 0.18892 0.0
C408 C 0.25891 0.19007 0.21423 0.0
C409 C 0.23468 0.19909 0.19997 0.0
C410 C 0.28272 0.17865 0.20182 0.0
C411 C 0.30319 0.14185 0.14276 0.0
H412 H 0.38458 0.16815 0.16083 0.0
C413 C 0.40816 0.08651 0.11016 0.0
C414 C 0.43213 0.10392 0.10016 0.0
C415 C 0.3836 0.09787 0.12157 0.0
C416 C 0.362 0.16054 0.15551 0.0
H417 H 0.2167 0.20273 0.16126 0.0
H418 H 0.25781 0.18203 0.13965 0.0
H419 H 0.34303 0.18821 0.18211 0.0
H420 H 0.44876 0.14717 0.09468 0.0
H421 H 0.40655 0.16681 0.11515 0.0
H422 H 0.32224 0.11375 0.11655 0.0
C423 C 0.25847 0.18407 0.1605 0.0
C424 C 0.33813 0.17196 0.16785 0.0
C425 C 0.23494 0.1961 0.17288 0.0
C426 C 0.43077 0.13302 0.10202 0.0
C427 C 0.40657 0.14434 0.11392 0.0
C428 C 0.3271 0.12997 0.13084 0.0
C429 C 0.28284 0.17531 0.17477 0.0
C430 C 0.30833 0.16292 0.16159 0.0
C431 C 0.38258 0.12698 0.12389 0.0
C432 C 0.35691 0.13925 0.1369 0.0
H433 H 0.25967 0.19221 0.23507 0.0
H434 H 0.30095 0.17207 0.2135 0.0
H435 H 0.28061 0.13421 0.13752 0.0
H436 H 0.40834 0.06404 0.10914 0.0
H437 H 0.36566 0.08382 0.12911 0.0
C438 C 0.27175 0.94856 0.6776 0.0
C439 C 0.26179 0.94071 0.70251 0.0
C440 C 0.25364 0.96304 0.6607 0.0
C441 C 0.17393 0.97063 0.64835 0.0
H442 H 0.19933 0.0342 0.60535 0.0
C443 C 0.09608 0.01154 0.56968 0.0
C444 C 0.09337 0.04049 0.56936 0.0
C445 C 0.11859 1.00025 0.5843 0.0
C446 C 0.19189 0.01644 0.61724 0.0
H447 H 0.22603 0.94417 0.72974 0.0
H448 H 0.19475 0.96886 0.7005 0.0
H449 H 0.23545 0.014 0.63431 0.0
H450 H 0.11323 0.08025 0.58367 0.0
H451 H 0.15281 0.06055 0.60879 0.0
H452 H 0.13055 0.97281 0.63143 0.0
C453 C 0.21619 0.96344 0.69373 0.0
C454 C 0.21265 1.00476 0.63371 0.0
C455 C 0.23424 0.94933 0.71056 0.0
C456 C 0.11456 0.05788 0.58339 0.0
C457 C 0.13737 0.04659 0.59776 0.0
C458 C 0.1534 0.98195 0.63166 0.0
C459 C 0.22514 0.9698 0.6683 0.0
C460 C 0.20384 0.98187 0.64973 0.0
C461 C 0.13937 0.01754 0.59882 0.0
C462 C 0.16194 1.00515 0.61597 0.0
H463 H 0.29273 0.94219 0.67069 0.0
H464 H 0.2613 0.96769 0.64126 0.0
H465 H 0.16635 0.95285 0.66018 0.0
H466 H 0.08025 0.99743 0.55919 0.0
H467 H 0.11959 0.97783 0.58439 0.0
C468 C 0.70169 0.54099 1.00002 0.0
C469 C 0.68919 0.52713 0.02175 0.0
C470 C 0.7326 0.54536 0.99757 0.0
C471 C 0.80235 0.51898 0.02325 0.0
H472 H 0.83996 0.58541 0.99052 0.0
C473 C 0.92595 0.55801 0.03519 0.0
C474 C 0.94188 0.56621 1.01285 0.0
C475 C 0.8954 0.55053 0.03381 0.0
C476 C 0.82965 0.56658 0.99935 0.0
H477 H 0.69885 0.50801 0.05844 0.0
H478 H 0.75282 0.51677 0.05489 0.0
H479 H 0.78581 0.57971 0.99438 0.0
H480 H 0.93867 0.57252 0.97147 0.0
H481 H 0.88457 0.5601 0.96916 0.0
H482 H 0.84649 0.50666 0.02927 0.0
C483 C 0.73893 0.52341 0.03923 0.0
C484 C 0.79864 0.56327 1.00159 0.0
C485 C 0.70804 0.51866 0.04146 0.0
C486 C 0.92686 0.56611 0.98892 0.0
C487 C 0.89602 0.55919 0.98763 0.0
C488 C 0.83333 0.52253 0.02136 0.0
C489 C 0.75165 0.53626 1.01698 0.0
C490 C 0.7846 0.53956 1.01385 0.0
C491 C 0.88006 0.55162 1.01014 0.0
C492 C 0.84724 0.54646 1.00961 0.0
H493 H 0.68756 0.54731 0.98438 0.0
H494 H 0.74149 0.555 0.98003 0.0
H495 H 0.79236 0.50009 0.03216 0.0
H496 H 0.93706 0.55784 0.05387 0.0
H497 H 0.88355 0.54495 0.05145 0.0
C498 C 0.84141 0.60228 0.52862 0.0
C499 C 0.85032 0.62954 0.52023 0.0
C500 C 0.81753 0.59742 0.54555 0.0
C501 C 0.76302 0.63124 0.5861 0.0
H502 H 0.70495 0.58161 0.54902 0.0
C503 C 0.63026 0.61892 0.5648 0.0
C504 C 0.61718 0.61174 0.5887 0.0
C505 C 0.66107 0.62002 0.56201 0.0
C506 C 0.72102 0.59528 0.55974 0.0
H507 H 0.84304 0.67326 0.52532 0.0
H508 H 0.80204 0.66478 0.55495 0.0
H509 H 0.75726 0.58336 0.53727 0.0
H510 H 0.62625 0.60182 0.62882 0.0
H511 H 0.68056 0.60453 0.62391 0.0
H512 H 0.72607 0.64384 0.60785 0.0
C513 C 0.8134 0.64714 0.5485 0.0
C514 C 0.75101 0.59606 0.55326 0.0
C515 C 0.83706 0.65199 0.53144 0.0
C516 C 0.63571 0.60731 0.61014 0.0
C517 C 0.6667 0.60885 0.60739 0.0
C518 C 0.73291 0.63016 0.59284 0.0
C519 C 0.80234 0.61976 0.55457 0.0
C520 C 0.77221 0.6147 0.56576 0.0
C521 C 0.67946 0.61439 0.58311 0.0
C522 C 0.71164 0.61287 0.57904 0.0
H523 H 0.85162 0.58457 0.52083 0.0
H524 H 0.80972 0.5761 0.55027 0.0
H525 H 0.77893 0.64577 0.59605 0.0
H526 H 0.61665 0.62248 0.54792 0.0
H527 H 0.67056 0.62468 0.54316 0.0
C528 C 0.16923 0.36121 0.15877 0.0
C529 C 0.15068 0.33857 0.16848 0.0
C530 C 0.15783 0.38149 0.1428 0.0
C531 C 0.09306 0.39967 0.10205 0.0
H532 H 0.12068 0.47536 0.12169 0.0
C533 C 0.06362 0.49917 0.04348 0.0
C534 C 0.05721 0.52275 0.05787 0.0
C535 C 0.07396 0.47553 0.05574 0.0
C536 C 0.11254 0.45442 0.11592 0.0
H537 H 0.10555 0.31915 0.16791 0.0
H538 H 0.08561 0.35426 0.13939 0.0
H539 H 0.1405 0.43615 0.14385 0.0
H540 H 0.05662 0.53938 0.09677 0.0
H541 H 0.07475 0.49867 0.1179 0.0
H542 H 0.06499 0.41823 0.07407 0.0
C543 C 0.10916 0.35625 0.14415 0.0
C544 C 0.12421 0.43177 0.12851 0.0
C545 C 0.12063 0.3359 0.16034 0.0
C546 C 0.06128 0.52179 0.0849 0.0
C547 C 0.07192 0.49837 0.09708 0.0
C548 C 0.08162 0.42244 0.08915 0.0
C549 C 0.12738 0.37996 0.13592 0.0
C550 C 0.11472 0.40396 0.12187 0.0
C551 C 0.07862 0.47485 0.08275 0.0
C552 C 0.09105 0.45024 0.096 0.0
H553 H 0.19238 0.36414 0.16486 0.0
H554 H 0.17281 0.39898 0.13653 0.0
H555 H 0.08519 0.37867 0.09626 0.0
H556 H 0.06082 0.499 0.02266 0.0
H557 H 0.079 0.45801 0.04394 0.0
C558 C 0.6238 0.43244 1.00949 0.0
C559 C 0.60655 0.45139 0.02179 0.0
C560 C 0.6143 0.40408 1.00858 0.0
C561 C 0.56392 0.35025 0.04047 0.0
H562 H 0.57806 0.30748 0.97898 0.0
C563 C 0.5217 0.23437 0.03075 0.0
C564 C 0.54313 0.21668 0.02286 0.0
C565 C 0.52722 0.26327 0.02857 0.0
C566 C 0.57408 0.31917 0.99629 0.0
H567 H 0.56573 0.45535 0.04281 0.0
H568 H 0.54871 0.40585 0.04064 0.0
H569 H 0.59171 0.3577 0.9795 0.0
H570 H 0.58655 0.21525 1.00549 0.0
H571 H 0.59623 0.26588 1.00167 0.0
H572 H 0.54629 0.31167 0.05723 0.0
C573 C 0.56986 0.41291 0.03205 0.0
C574 C 0.58196 0.34789 0.99665 0.0
C575 C 0.57946 0.44131 0.03308 0.0
C576 C 0.56974 0.22842 1.01188 0.0
C577 C 0.57517 0.25735 1.00952 0.0
C578 C 0.55585 0.32157 0.04004 0.0
C579 C 0.58718 0.39397 0.01976 0.0
C580 C 0.57731 0.36371 0.01887 0.0
C581 C 0.55419 0.27506 0.0183 0.0
C582 C 0.56113 0.30571 0.01805 0.0
H583 H 0.64452 0.43953 1.00017 0.0
H584 H 0.6284 0.39004 0.99929 0.0
H585 H 0.56042 0.3617 0.05802 0.0
H586 H 0.50112 0.22594 0.03954 0.0
H587 H 0.51056 0.27644 0.03527 0.0
C588 C 0.90579 0.71478 0.45068 0.0
C589 C 0.91619 0.69521 0.46794 0.0
C590 C 0.91893 0.74213 0.45025 0.0
C591 C 0.96341 0.79216 0.49245 0.0
H592 H 0.96365 0.83901 0.4313 0.0
C593 C 1.00802 0.90786 0.49421 0.0
C594 C 0.98741 0.92606 0.48522 0.0
C595 C 1.00332 0.87927 0.4895 0.0
C596 C 0.96374 0.82608 0.44847 0.0
H597 H 0.94927 0.68814 0.49729 0.0
H598 H 0.97323 0.73567 0.49588 0.0
H599 H 0.9497 0.78894 0.42745 0.0
H600 H 0.94645 0.92892 0.46343 0.0
H601 H 0.93836 0.87873 0.45492 0.0
H602 H 0.97763 0.82937 0.51336 0.0
C603 C 0.9543 0.73027 0.48323 0.0
C604 C 0.95564 0.79746 0.44635 0.0
C605 C 0.94079 0.70302 0.48396 0.0
C606 C 0.96255 0.91527 0.47067 0.0
C607 C 0.95808 0.88668 0.46565 0.0
C608 C 0.97195 0.82064 0.49447 0.0
C609 C 0.94305 0.75038 0.46685 0.0
C610 C 0.95479 0.78022 0.46841 0.0
C611 C 0.97815 0.8684 0.47544 0.0
C612 C 0.97168 0.83792 0.4726 0.0
H613 H 0.88657 0.70928 0.43837 0.0
H614 H 0.90926 0.75704 0.4377 0.0
H615 H 0.96248 0.77978 0.50997 0.0
H616 H 0.02725 0.91563 0.50565 0.0
H617 H 0.01914 0.86556 0.49718 0.0
C618 C 0.41541 0.85416 0.70321 0.0
C619 C 0.41565 0.8568 0.73037 0.0
C620 C 0.42774 0.83179 0.69103 0.0
C621 C 0.44838 0.75925 0.70324 0.0
H622 H 0.48835 0.769 0.63745 0.0
C623 C 0.50233 0.66721 0.65391 0.0
C624 C 0.50175 0.66526 0.62671 0.0
C625 C 0.49326 0.69085 0.66661 0.0
C626 C 0.47691 0.76565 0.65564 0.0
H627 H 0.4299 0.83766 0.7658 0.0
H628 H 0.45165 0.7988 0.74463 0.0
H629 H 0.47089 0.80925 0.65933 0.0
H630 H 0.49099 0.68727 0.59173 0.0
H631 H 0.47476 0.72813 0.61371 0.0
H632 H 0.45394 0.71564 0.69943 0.0
C633 C 0.44159 0.81402 0.73269 0.0
C634 C 0.4669 0.78894 0.66831 0.0
C635 C 0.42942 0.83659 0.74489 0.0
C636 C 0.49196 0.68792 0.61265 0.0
C637 C 0.48275 0.71156 0.62537 0.0
C638 C 0.45826 0.73594 0.69051 0.0
C639 C 0.44068 0.81103 0.70552 0.0
C640 C 0.45236 0.78618 0.69233 0.0
C641 C 0.48308 0.71346 0.65263 0.0
C642 C 0.47269 0.73863 0.66641 0.0
H643 H 0.40525 0.86931 0.69125 0.0
H644 H 0.42626 0.83035 0.67016 0.0
H645 H 0.4369 0.75597 0.72142 0.0
H646 H 0.50981 0.65035 0.66553 0.0
H647 H 0.49453 0.69141 0.68751 0.0
C648 C 0.92445 0.91952 0.78665 0.0
C649 C 0.90717 0.93334 0.80434 0.0
C650 C 0.93386 0.9322 0.76308 0.0
C651 C 0.93971 1.00203 0.7277 0.0
H652 H 0.95043 0.95587 0.66792 0.0
C653 C 0.98371 0.05136 0.63032 0.0
C654 C 0.97592 0.03792 0.60673 0.0
C655 C 0.97577 0.03881 0.65423 0.0
C656 C 0.9472 0.96934 0.68419 0.0
H657 H 0.88767 0.97246 0.81068 0.0
H658 H 0.90241 0.99356 0.76985 0.0
H659 H 0.93601 0.93414 0.70881 0.0
H660 H 0.95285 1.0006 0.59027 0.0
H661 H 0.93787 0.9794 0.63147 0.0
H662 H 0.94941 0.03724 0.70288 0.0
C663 C 0.90936 0.97305 0.77409 0.0
C664 C 0.93936 0.95667 0.70809 0.0
C665 C 0.9003 0.96056 0.79767 0.0
C666 C 0.95936 0.01171 0.60791 0.0
C667 C 0.95102 0.99932 0.6318 0.0
C668 C 0.94716 0.01469 0.70376 0.0
C669 C 0.92624 0.95918 0.75614 0.0
C670 C 0.93538 0.97272 0.73042 0.0
C671 C 0.95932 0.01242 0.65556 0.0
C672 C 0.95111 0.99868 0.6814 0.0
H673 H 0.93023 0.89856 0.79065 0.0
H674 H 0.94722 0.92069 0.75035 0.0
H675 H 0.93757 0.01552 0.74416 0.0
H676 H 0.99678 0.07135 0.6304 0.0
H677 H 0.9833 0.04969 0.67169 0.0
C678 C 0.6723 0.18912 0.31503 0.0
C679 C 0.6532 0.1941 0.33564 0.0
C680 C 0.66095 0.17815 0.29128 0.0
C681 C 0.59266 0.13989 0.26115 0.0
H682 H 0.62967 0.16392 0.19667 0.0
C683 C 0.55559 0.08724 0.163 0.0
C684 C 0.55522 0.10399 0.14063 0.0
C685 C 0.5681 0.0979 0.18641 0.0
C686 C 0.6188 0.15703 0.21441 0.0
H687 H 0.60674 0.19054 0.3469 0.0
H688 H 0.58714 0.17228 0.30577 0.0
H689 H 0.6497 0.18324 0.23745 0.0
H690 H 0.56818 0.14539 0.12578 0.0
H691 H 0.58962 0.16398 0.16639 0.0
H692 H 0.56137 0.11418 0.23815 0.0
C693 C 0.61103 0.17659 0.30791 0.0
C694 C 0.63062 0.16793 0.23801 0.0
C695 C 0.62235 0.18757 0.33158 0.0
C696 C 0.56805 0.13172 0.14245 0.0
C697 C 0.58058 0.14239 0.16587 0.0
C698 C 0.58088 0.12897 0.23758 0.0
C699 C 0.63007 0.17161 0.28726 0.0
C700 C 0.61773 0.15965 0.26186 0.0
C701 C 0.58074 0.12574 0.18837 0.0
C702 C 0.59366 0.13734 0.21371 0.0
H703 H 0.69613 0.19394 0.31711 0.0
H704 H 0.67656 0.17443 0.27616 0.0
H705 H 0.58215 0.13253 0.2789 0.0
H706 H 0.54607 0.06578 0.1625 0.0
H707 H 0.56809 0.0841 0.20297 0.0
C708 C 0.45504 0.60523 0.25723 0.0
C709 C 0.47625 0.59441 0.24128 0.0
C710 C 0.46241 0.6133 0.28254 0.0
C711 C 0.51736 0.60358 0.33485 0.0
H712 H 0.48012 0.66506 0.36575 0.0
C713 C 0.53898 0.63553 0.44111 0.0
C714 C 0.51255 0.6347 0.45535 0.0
C715 C 0.53789 0.63573 0.41408 0.0
C716 C 0.49078 0.64795 0.3573 0.0
H717 H 0.52187 0.58377 0.23907 0.0
H718 H 0.53515 0.5985 0.28322 0.0
H719 H 0.47234 0.65494 0.31985 0.0
H720 H 0.46459 0.63519 0.45287 0.0
H721 H 0.4627 0.6362 0.40563 0.0
H722 H 0.53573 0.59669 0.37244 0.0
C723 C 0.51258 0.60023 0.27638 0.0
C724 C 0.48617 0.64197 0.33107 0.0
C725 C 0.50505 0.59182 0.2511 0.0
C726 C 0.48524 0.63586 0.44224 0.0
C727 C 0.4842 0.63653 0.41527 0.0
C728 C 0.52228 0.60982 0.36099 0.0
C729 C 0.49132 0.61107 0.29244 0.0
C730 C 0.49878 0.61925 0.31965 0.0
C731 C 0.51041 0.63558 0.40094 0.0
C732 C 0.5085 0.63166 0.37258 0.0
H733 H 0.43254 0.6071 0.25022 0.0
H734 H 0.44521 0.62084 0.29446 0.0
H735 H 0.52714 0.58573 0.32688 0.0
H736 H 0.56026 0.6344 0.45084 0.0
H737 H 0.55841 0.63513 0.40343 0.0
C738 C 0.09965 0.51362 0.69 0.0
C739 C 0.07181 0.50216 0.68074 0.0
C740 C 0.10173 0.52839 0.71329 0.0
C741 C 0.05656 0.55979 0.76376 0.0
H742 H 0.1151 0.53262 0.81089 0.0
C743 C 0.04098 0.55612 0.87342 0.0
C744 C 0.06549 0.5647 0.88935 0.0
C745 C 0.04451 0.55357 0.84681 0.0
C746 C 0.09897 0.54079 0.79787 0.0
H747 H 0.0242 0.49911 0.68727 0.0
H748 H 0.02777 0.5243 0.72799 0.0
H749 H 0.11666 0.5212 0.76509 0.0
H750 H 0.11296 0.57695 0.89009 0.0
H751 H 0.11921 0.57212 0.84337 0.0
H752 H 0.03803 0.5782 0.7969 0.0
C753 C 0.04803 0.52213 0.71738 0.0
C754 C 0.09993 0.53437 0.7716 0.0
C755 C 0.04598 0.5074 0.69417 0.0
C756 C 0.09369 0.57038 0.87819 0.0
C757 C 0.09728 0.56756 0.85155 0.0
C758 C 0.0555 0.56603 0.79005 0.0
C759 C 0.076 0.53201 0.72763 0.0
C760 C 0.07819 0.54311 0.75438 0.0
C761 C 0.07265 0.55935 0.83561 0.0
C762 C 0.07618 0.55591 0.80743 0.0
H763 H 0.11994 0.50983 0.68003 0.0
H764 H 0.12355 0.53609 0.72053 0.0
H765 H 0.03985 0.56727 0.75091 0.0
H766 H 0.01894 0.55193 0.88147 0.0
H767 H 0.02523 0.5468 0.83501 0.0
C768 C 0.76679 0.9735 0.91495 0.0
C769 C 0.76848 0.94446 0.91498 0.0
C770 C 0.74797 0.986 0.93224 0.0
C771 C 0.67965 0.96745 0.97154 0.0
H772 H 0.69517 0.04249 0.99838 0.0
C773 C 0.59705 0.01438 0.04146 0.0
C774 C 0.5915 0.04253 0.03801 0.0
C775 C 0.62027 1.00294 0.02828 0.0
C776 C 0.69029 0.02157 0.99089 0.0
H777 H 0.75238 0.9059 0.93364 0.0
H778 H 0.72071 0.92753 0.96442 0.0
H779 H 0.73319 0.02193 0.97309 0.0
H780 H 0.60685 0.08073 0.01811 0.0
H781 H 0.64711 0.06086 0.99517 0.0
H782 H 0.63676 0.96708 0.9891 0.0
C783 C 0.73334 0.94082 0.9508 0.0
C784 C 0.71221 1.00972 0.9763 0.0
C785 C 0.75197 0.92839 0.93345 0.0
C786 C 0.61039 0.05902 0.0214 0.0
C787 C 0.63368 0.04759 1.00826 0.0
C788 C 0.65783 0.97925 0.98613 0.0
C789 C 0.73021 0.96975 0.94996 0.0
C790 C 0.70728 0.98242 0.96632 0.0
C791 C 0.6388 0.01924 1.01121 0.0
C792 C 0.66267 1.00654 0.99605 0.0
H793 H 0.77858 0.98633 0.90048 0.0
H794 H 0.74616 1.00823 0.93067 0.0
H795 H 0.67444 0.94669 0.96379 0.0
H796 H 0.58311 1.00096 0.05408 0.0
H797 H 0.62366 0.98119 0.03151 0.0
C798 C 0.72979 0.18787 0.43599 0.0
C799 C 0.72904 0.19453 0.40942 0.0
C800 C 0.75449 0.17626 0.44726 0.0
C801 C 0.82171 0.13883 0.43094 0.0
H802 H 0.84625 0.15885 0.50096 0.0
C803 C 0.91345 0.08227 0.48614 0.0
C804 C 0.93329 0.09835 0.50257 0.0
C805 C 0.8885 0.09363 0.47494 0.0
C806 C 0.83997 0.15307 0.48131 0.0
H807 H 0.75471 0.19429 0.37421 0.0
H808 H 0.79754 0.1742 0.39375 0.0
H809 H 0.80423 0.17978 0.48116 0.0
H810 H 0.94194 0.13929 0.51994 0.0
H811 H 0.89896 0.15898 0.50046 0.0
H812 H 0.85785 0.11252 0.43095 0.0
C813 C 0.77874 0.17755 0.40588 0.0
C814 C 0.81544 0.16491 0.46998 0.0
C815 C 0.75404 0.1892 0.39461 0.0
C816 C 0.92722 0.12609 0.50753 0.0
C817 C 0.9023 0.13741 0.4964 0.0
C818 C 0.84621 0.12693 0.44231 0.0
C819 C 0.77943 0.17079 0.43243 0.0
C820 C 0.80583 0.15806 0.44456 0.0
C821 C 0.88247 0.12145 0.47983 0.0
C822 C 0.85587 0.13387 0.4677 0.0
H823 H 0.71092 0.19098 0.44811 0.0
H824 H 0.75367 0.171 0.46761 0.0
H825 H 0.81502 0.13263 0.41149 0.0
H826 H 0.91725 0.06086 0.4818 0.0
H827 H 0.87373 0.08042 0.46262 0.0
C828 C 0.34917 0.60986 0.09964 0.0
C829 C 0.35527 0.62293 0.12353 0.0
C830 C 0.32055 0.60926 0.08871 0.0
C831 C 0.25425 0.64901 0.09076 0.0
H832 H 0.21505 0.58575 0.05396 0.0
C833 C 0.12958 0.64005 0.06287 0.0
C834 C 0.12085 0.62715 0.03932 0.0
C835 C 0.15931 0.64147 0.07109 0.0
C836 C 0.22593 0.60374 0.06383 0.0
H837 H 0.33674 0.6446 0.15532 0.0
H838 H 0.28656 0.6429 0.13672 0.0
H839 H 0.26415 0.58207 0.07348 0.0
H840 H 0.13679 0.60715 1.00517 0.0
H841 H 0.18873 0.60988 0.01949 0.0
H842 H 0.21594 0.67058 0.08139 0.0
C843 C 0.30376 0.63357 0.12611 0.0
C844 C 0.254 0.60159 0.07508 0.0
C845 C 0.33228 0.63424 0.13692 0.0
C846 C 0.14276 0.61715 0.02347 0.0
C847 C 0.17247 0.61847 0.03176 0.0
C848 C 0.22621 0.65114 0.07957 0.0
C849 C 0.29777 0.62184 0.10154 0.0
C850 C 0.2683 0.62409 0.08894 0.0
C851 C 0.1809 0.62997 0.05596 0.0
C852 C 0.21162 0.62846 0.06619 0.0
H853 H 0.36685 0.60144 0.08889 0.0
H854 H 0.31667 0.60018 0.0697 0.0
H855 H 0.26499 0.66697 0.10078 0.0
H856 H 0.11327 0.64795 0.07553 0.0
H857 H 0.16507 0.65034 0.08989 0.0
C858 C 0.19212 0.52075 0.58698 0.0
C859 C 0.18314 0.49582 0.57388 0.0
C860 C 0.22238 0.52941 0.59014 0.0
C861 C 0.29655 0.50258 0.59108 0.0
H862 H 0.32546 0.57961 0.57822 0.0
C863 C 0.41432 0.57123 0.57038 0.0
C864 C 0.43231 0.56225 0.59058 0.0
C865 C 0.38373 0.56361 0.56986 0.0
C866 C 0.31771 0.55801 0.58184 0.0
H867 H 0.19882 0.4602 0.55416 0.0
H868 H 0.25155 0.47551 0.55935 0.0
H869 H 0.27227 0.56536 0.57403 0.0
H870 H 0.43229 0.53812 0.62607 0.0
H871 H 0.37866 0.5247 0.62507 0.0
H872 H 0.34206 0.49511 0.59839 0.0
C873 C 0.23523 0.48831 0.56727 0.0
C874 C 0.28724 0.54993 0.57967 0.0
C875 C 0.20502 0.47974 0.56399 0.0
C876 C 0.41903 0.54535 0.61023 0.0
C877 C 0.38837 0.53759 0.60962 0.0
C878 C 0.327 0.5107 0.59339 0.0
C879 C 0.24424 0.51316 0.58046 0.0
C880 C 0.27639 0.52206 0.58397 0.0
C881 C 0.37041 0.54673 0.58946 0.0
C882 C 0.33793 0.53843 0.5885 0.0
H883 H 0.17572 0.53354 0.59478 0.0
H884 H 0.22868 0.54857 0.60054 0.0
H885 H 0.28878 0.48101 0.59481 0.0
H886 H 0.42384 0.58423 0.5549 0.0
H887 H 0.37055 0.57063 0.55387 0.0
C888 C 0.92852 0.84372 0.86654 0.0
C889 C 0.91365 0.86389 0.87985 0.0
C890 C 0.94065 0.82159 0.87983 0.0
C891 C 0.93581 0.78254 0.94319 0.0
H892 H 1.00775 0.75227 0.91977 0.0
C893 C 0.99193 0.69686 1.00237 0.0
C894 C 1.0051 0.67592 0.98864 0.0
C895 C 0.98168 0.72017 0.9895 0.0
C896 C 0.98742 0.76015 0.92653 0.0
H897 H 0.9014 0.8767 0.91819 0.0
H898 H 0.92249 0.83867 0.94112 0.0
H899 H 0.98879 0.79147 0.89681 0.0
H900 H 0.01774 0.66367 0.95025 0.0
H901 H 0.99987 0.70377 0.92802 0.0
H902 H 0.93437 0.75118 0.97285 0.0
C903 C 0.92419 0.83941 0.92027 0.0
C904 C 0.97646 0.78282 0.91323 0.0
C905 C 0.91208 0.86146 0.90701 0.0
C906 C 1.0079 0.67927 0.96165 0.0
C907 C 0.99772 0.70254 0.94882 0.0
C908 C 0.94678 0.75988 0.95648 0.0
C909 C 0.93842 0.8188 0.90696 0.0
C910 C 0.9504 0.79449 0.92127 0.0
C911 C 0.98427 0.72344 0.96243 0.0
C912 C 0.97279 0.74816 0.94841 0.0
H913 H 0.92998 0.84444 0.84566 0.0
H914 H 0.95105 0.80619 0.86864 0.0
H915 H 0.91542 0.79032 0.94991 0.0
H916 H 0.98931 0.69517 0.02312 0.0
H917 H 0.97191 0.73579 1.00091 0.0
C918 C 0.43683 0.70841 0.1151 0.0
C919 C 0.43983 0.69384 0.13842 0.0
C920 C 0.44411 0.73711 0.11396 0.0
C921 C 0.48491 0.79736 0.14466 0.0
H922 H 0.42165 0.8373 0.11473 0.0
C923 C 0.48967 0.91843 0.14086 0.0
C924 C 0.47959 0.9298 0.11764 0.0
C925 C 0.48536 0.88968 0.14542 0.0
C926 C 0.43967 0.82649 0.12291 0.0
H927 H 0.45453 0.69764 0.17843 0.0
H928 H 0.4678 0.74808 0.17623 0.0
H929 H 0.41522 0.78672 0.1181 0.0
H930 H 0.45801 0.91996 0.08071 0.0
H931 H 0.45076 0.87009 0.08849 0.0
H932 H 0.50967 0.83723 0.14889 0.0
C933 C 0.45963 0.73712 0.15895 0.0
C934 C 0.43595 0.79754 0.12486 0.0
C935 C 0.45213 0.7083 0.16016 0.0
C936 C 0.46537 0.91191 0.09905 0.0
C937 C 0.46122 0.8833 0.10352 0.0
C938 C 0.48878 0.82646 0.14249 0.0
C939 C 0.45476 0.75185 0.13604 0.0
C940 C 0.45869 0.78266 0.13535 0.0
C941 C 0.47103 0.87182 0.12678 0.0
C942 C 0.46635 0.84127 0.13117 0.0
H943 H 0.42798 0.69771 0.09791 0.0
H944 H 0.44073 0.74794 0.09591 0.0
H945 H 0.50273 0.7863 0.15286 0.0
H946 H 0.50062 0.93179 0.15555 0.0
H947 H 0.49295 0.8815 0.16362 0.0
C948 C 0.0704 0.43717 0.51897 0.0
C949 C 0.10074 0.44119 0.52603 0.0
C950 C 0.05834 0.4111 0.51023 0.0
C951 C 0.07045 0.33932 0.49311 0.0
H952 H 0.03445 0.31974 0.5592 0.0
C953 C 0.06465 0.22693 0.53145 0.0
C954 C 0.04266 0.21732 0.5493 0.0
C955 C 0.06726 0.25463 0.52316 0.0
C956 C 0.04349 0.32454 0.54026 0.0
H957 H 0.1432 0.42312 0.52404 0.0
H958 H 0.1223 0.37829 0.50776 0.0
H959 H 0.04517 0.36828 0.54781 0.0
H960 H 1.00612 0.23012 0.5723 0.0
H961 H 1.00903 0.27746 0.55627 0.0
H962 H 0.06861 0.29563 0.4853 0.0
C963 C 0.10771 0.3949 0.50976 0.0
C964 C 0.04969 0.35253 0.53377 0.0
C965 C 0.1197 0.42075 0.51906 0.0
C966 C 0.02315 0.23635 0.55834 0.0
C967 C 0.02515 0.26388 0.54938 0.0
C968 C 0.0634 0.31118 0.49924 0.0
C969 C 0.07672 0.38923 0.50755 0.0
C970 C 0.06402 0.36014 0.51055 0.0
C971 C 0.04738 0.27352 0.53176 0.0
C972 C 0.05086 0.30335 0.52338 0.0
H973 H 0.05537 0.45286 0.5234 0.0
H974 H 0.03436 0.40718 0.50837 0.0
H975 H 0.08173 0.3448 0.47518 0.0
H976 H 0.07969 0.21303 0.52329 0.0
H977 H 0.08518 0.26113 0.51013 0.0
C978 C 0.62165 0.3167 0.48257 0.0
C979 C 0.62233 0.31376 0.45551 0.0
C980 C 0.61599 0.34214 0.49406 0.0
C981 C 0.57921 0.40728 0.47975 0.0
H982 H 0.61244 0.43089 0.54636 0.0
C983 C 0.55095 0.51142 0.52811 0.0
C984 C 0.54865 0.51248 0.55525 0.0
C985 C 0.56106 0.48805 0.51568 0.0
C986 C 0.60255 0.42453 0.52791 0.0
H987 H 0.61803 0.33574 0.41936 0.0
H988 H 0.60879 0.38044 0.43929 0.0
H989 H 0.62972 0.39016 0.52516 0.0
H990 H 0.55523 0.48911 0.5904 0.0
H991 H 0.57235 0.44835 0.56884 0.0
H992 H 0.55181 0.44144 0.4826 0.0
C993 C 0.61248 0.36294 0.45175 0.0
C994 C 0.6126 0.40103 0.51562 0.0
C995 C 0.61835 0.33741 0.44024 0.0
C996 C 0.55665 0.48922 0.56951 0.0
C997 C 0.56678 0.46582 0.55706 0.0
C998 C 0.56912 0.43076 0.49206 0.0
C999 C 0.61045 0.36556 0.47889 0.0
C1000 C 0.60101 0.39182 0.49136 0.0
C1001 C 0.5693 0.4648 0.52988 0.0
C1002 C 0.58045 0.43978 0.51647 0.0
H1003 H 0.62392 0.29875 0.49489 0.0
H1004 H 0.61435 0.34289 0.51491 0.0
H1005 H 0.5692 0.40079 0.46137 0.0
H1006 H 0.54521 0.52887 0.51636 0.0
H1007 H 0.56296 0.48854 0.49483 0.0
loop_
_geom_bond_atom_site_label_1
_geom_bond_atom_site_label_2
_geom_bond_distance
_geom_bond_site_symmetry_2
_ccdc_geom_bond_type
H0 C1 0.949 . S
C1 H0 0.949 . S
C1 C2 1.395 . S
C1 C3 1.391 . S
C2 C1 1.395 . S
C2 C5 1.390 . S
C3 C1 1.391 . S
C3 C7 1.387 . S
C3 C8 1.491 . S
H4 C5 0.950 . S
C5 C2 1.390 . S
C5 H4 0.950 . S
C5 C6 1.378 . S
C6 C5 1.378 . S
C6 C7 1.409 . S
C7 C3 1.387 . S
C7 C6 1.409 . S
C7 H9 0.951 . S
C8 C3 1.491 . S
C8 C10 1.382 . S
C8 C12 1.404 . S
H9 C7 0.951 . S
C10 C8 1.382 . S
C10 C11 1.390 . S
C10 H15 0.949 . S
C11 C10 1.390 . S
C11 C16 1.399 . S
C12 C8 1.404 . S
C12 H13 0.950 . S
C12 C14 1.375 . S
H13 C12 0.950 . S
C14 C12 1.375 . S
C14 C16 1.382 . S
C14 H18 0.950 . S
H15 C10 0.949 . S
C16 C11 1.399 . S
C16 C14 1.382 . S
C16 H17 0.952 . S
H17 C16 0.952 . S
H18 C14 0.950 . S
H19 C20 0.949 . S
C20 H19 0.949 . S
C20 C21 1.395 . S
C20 C22 1.391 . S
C21 C20 1.395 . S
C21 C24 1.390 . S
C22 C20 1.391 . S
C22 C26 1.387 . S
C22 C27 1.491 . S
H23 C24 0.950 . S
C24 C21 1.390 . S
C24 H23 0.950 . S
C24 C25 1.378 . S
C25 C24 1.378 . S
C25 C26 1.409 . S
C26 C22 1.387 . S
C26 C25 1.409 . S
C26 H28 0.951 . S
C27 C22 1.491 . S
C27 C29 1.382 . S
C27 C31 1.404 . S
H28 C26 0.951 . S
C29 C27 1.382 . S
C29 C30 1.390 . S
C29 H34 0.949 . S
C30 C29 1.390 . S
C30 C35 1.399 . S
C31 C27 1.404 . S
C31 H32 0.950 . S
C31 C33 1.375 . S
H32 C31 0.950 . S
C33 C31 1.375 . S
C33 C35 1.382 . S
C33 H37 0.950 . S
H34 C29 0.949 . S
C35 C30 1.399 . S
C35 C33 1.382 . S
C35 H36 0.952 . S
H36 C35 0.952 . S
H37 C33 0.950 . S
H38 C39 0.949 . S
C39 H38 0.949 . S
C39 C40 1.395 . S
C39 C41 1.391 . S
C40 C39 1.395 . S
C40 C43 1.390 . S
C41 C39 1.391 . S
C41 C45 1.387 . S
C41 C46 1.491 . S
H42 C43 0.950 . S
C43 C40 1.390 . S
C43 H42 0.950 . S
C43 C44 1.378 . S
C44 C43 1.378 . S
C44 C45 1.409 . S
C45 C41 1.387 . S
C45 C44 1.409 . S
C45 H47 0.951 . S
C46 C41 1.491 . S
C46 C48 1.382 . S
C46 C50 1.404 . S
H47 C45 0.951 . S
C48 C46 1.382 . S
C48 C49 1.390 . S
C48 H53 0.949 . S
C49 C48 1.390 . S
C49 C54 1.399 . S
C50 C46 1.404 . S
C50 H51 0.950 . S
C50 C52 1.375 . S
H51 C50 0.950 . S
C52 C50 1.375 . S
C52 C54 1.382 . S
C52 H56 0.950 . S
H53 C48 0.949 . S
C54 C49 1.399 . S
C54 C52 1.382 . S
C54 H55 0.952 . S
H55 C54 0.952 . S
H56 C52 0.950 . S
H57 C58 0.949 . S
C58 H57 0.949 . S
C58 C59 1.395 . S
C58 C60 1.391 . S
C59 C58 1.395 . S
C59 C62 1.390 . S
C60 C58 1.391 . S
C60 C64 1.387 . S
C60 C65 1.491 . S
H61 C62 0.950 . S
C62 C59 1.390 . S
C62 H61 0.950 . S
C62 C63 1.378 . S
C63 C62 1.378 . S
C63 C64 1.409 . S
C64 C60 1.387 . S
C64 C63 1.409 . S
C64 H66 0.951 . S
C65 C60 1.491 . S
C65 C67 1.382 . S
C65 C69 1.404 . S
H66 C64 0.951 . S
C67 C65 1.382 . S
C67 C68 1.390 . S
C67 H72 0.949 . S
C68 C67 1.390 . S
C68 C73 1.399 . S
C69 C65 1.404 . S
C69 H70 0.950 . S
C69 C71 1.375 . S
H70 C69 0.950 . S
C71 C69 1.375 . S
C71 C73 1.382 . S
C71 H75 0.950 . S
H72 C67 0.949 . S
C73 C68 1.399 . S
C73 C71 1.382 . S
C73 H74 0.952 . S
H74 C73 0.952 . S
H75 C71 0.950 . S
H76 C77 0.949 . S
C77 H76 0.949 . S
C77 C78 1.395 . S
C77 C79 1.391 . S
C78 C77 1.395 . S
C78 C81 1.390 . S
C79 C77 1.391 . S
C79 C83 1.387 . S
C79 C84 1.491 . S
H80 C81 0.950 . S
C81 C78 1.390 . S
C81 H80 0.950 . S
C81 C82 1.378 . S
C82 C81 1.378 . S
C82 C83 1.409 . S
C83 C79 1.387 . S
C83 C82 1.409 . S
C83 H85 0.951 . S
C84 C79 1.491 . S
C84 C86 1.382 . S
C84 C88 1.404 . S
H85 C83 0.951 . S
C86 C84 1.382 . S
C86 C87 1.390 . S
C86 H91 0.949 . S
C87 C86 1.390 . S
C87 C92 1.399 . S
C88 C84 1.404 . S
C88 H89 0.950 . S
C88 C90 1.375 . S
H89 C88 0.950 . S
C90 C88 1.375 . S
C90 C92 1.382 . S
C90 H94 0.950 . S
H91 C86 0.949 . S
C92 C87 1.399 . S
C92 C90 1.382 . S
C92 H93 0.952 . S
H93 C92 0.952 . S
H94 C90 0.950 . S
H95 C96 0.949 . S
C96 H95 0.949 . S
C96 C97 1.395 . S
C96 C98 1.391 . S
C97 C96 1.395 . S
C97 C100 1.390 . S
C98 C96 1.391 . S
C98 C102 1.387 . S
C98 C103 1.491 . S
H99 C100 0.950 . S
C100 C97 1.390 . S
C100 H99 0.950 . S
C100 C101 1.378 . S
C101 C100 1.378 . S
C101 C102 1.409 . S
C102 C98 1.387 . S
C102 C101 1.409 . S
C102 H104 0.951 . S
C103 C98 1.491 . S
C103 C105 1.382 . S
C103 C107 1.404 . S
H104 C102 0.951 . S
C105 C103 1.382 . S
C105 C106 1.390 . S
C105 H110 0.949 . S
C106 C105 1.390 . S
C106 C111 1.399 . S
C107 C103 1.404 . S
C107 H108 0.950 . S
C107 C109 1.375 . S
H108 C107 0.950 . S
C109 C107 1.375 . S
C109 C111 1.382 . S
C109 H113 0.950 . S
H110 C105 0.949 . S
C111 C106 1.399 . S
C111 C109 1.382 . S
C111 H112 0.952 . S
H112 C111 0.952 . S
H113 C109 0.950 . S
H114 C115 0.949 . S
C115 H114 0.949 . S
C115 C116 1.395 . S
C115 C117 1.391 . S
C116 C115 1.395 . S
C116 C119 1.390 . S
C117 C115 1.391 . S
C117 C121 1.387 . S
C117 C122 1.491 . S
H118 C119 0.950 . S
C119 C116 1.390 . S
C119 H118 0.950 . S
C119 C120 1.378 . S
C120 C119 1.378 . S
C120 C121 1.409 . S
C121 C117 1.387 . S
C121 C120 1.409 . S
C121 H123 0.951 . S
C122 C117 1.491 . S
C122 C124 1.382 . S
C122 C126 1.404 . S
H123 C121 0.951 . S
C124 C122 1.382 . S
C124 C125 1.390 . S
C124 H129 0.949 . S
C125 C124 1.390 . S
C125 C130 1.399 . S
C126 C122 1.404 . S
C126 H127 0.950 . S
C126 C128 1.375 . S
H127 C126 0.950 . S
C128 C126 1.375 . S
C128 C130 1.382 . S
C128 H132 0.950 . S
H129 C124 0.949 . S
C130 C125 1.399 . S
C130 C128 1.382 . S
C130 H131 0.952 . S
H131 C130 0.952 . S
H132 C128 0.950 . S
H133 C134 0.949 . S
C134 H133 0.949 . S
C134 C135 1.395 . S
C134 C136 1.391 . S
C135 C134 1.395 . S
C135 C138 1.390 . S
C136 C134 1.391 . S
C136 C140 1.387 . S
C136 C141 1.491 . S
H137 C138 0.950 . S
C138 C135 1.390 . S
C138 H137 0.950 . S
C138 C139 1.378 . S
C139 C138 1.378 . S
C139 C140 1.409 . S
C140 C136 1.387 . S
C140 C139 1.409 . S
C140 H142 0.951 . S
C141 C136 1.491 . S
C141 C143 1.382 . S
C141 C145 1.404 . S
H142 C140 0.951 . S
C143 C141 1.382 . S
C143 C144 1.390 . S
C143 H148 0.949 . S
C144 C143 1.390 . S
C144 C149 1.399 . S
C145 C141 1.404 . S
C145 H146 0.950 . S
C145 C147 1.375 . S
H146 C145 0.950 . S
C147 C145 1.375 . S
C147 C149 1.382 . S
C147 H151 0.950 . S
H148 C143 0.949 . S
C149 C144 1.399 . S
C149 C147 1.382 . S
C149 H150 0.952 . S
H150 C149 0.952 . S
H151 C147 0.950 . S
C152 O168 1.251 . S
C152 O170 1.254 . S
N153 C154 1.333 . S
N153 C158 1.307 . S
N153 Zn159 2.020 . S
C154 N153 1.333 . S
C154 C155 1.379 . S
C154 H172 0.952 . S
C155 C154 1.379 . S
C155 C156 1.390 . S
C155 H182 0.949 . S
C156 C155 1.390 . S
C156 C157 1.357 . S
C157 C156 1.357 . S
C157 C158 1.370 . S
C157 H183 0.950 . S
C158 N153 1.307 . S
C158 C157 1.370 . S
C158 H176 0.939 1_455 S
Zn159 N153 2.020 . S
Zn159 O168 2.039 . S
Zn159 O174 2.034 . S
Zn159 O178 2.025 1_455 S
Zn159 O180 2.024 1_455 S
C160 O179 1.246 . S
C160 O180 1.249 . S
N161 C162 1.307 . S
N161 C163 1.333 . S
N161 Zn167 2.020 1_565 S
C162 N161 1.307 . S
C162 C166 1.370 . S
C162 H173 0.948 1_655 S
C163 N161 1.333 . S
C163 C164 1.379 . S
C163 H171 0.952 . S
C164 C163 1.379 . S
C164 C165 1.390 . S
C164 H184 0.949 . S
C165 C164 1.390 . S
C165 C166 1.357 . S
C166 C162 1.370 . S
C166 C165 1.357 . S
C166 H185 0.950 . S
Zn167 N161 2.020 1_545 S
Zn167 O170 2.025 1_655 S
Zn167 O175 2.024 1_655 S
Zn167 O177 2.039 . S
Zn167 O179 2.034 . S
O168 C152 1.251 . S
O168 Zn159 2.039 . S
C169 O174 1.246 . S
C169 O175 1.249 . S
O170 C152 1.254 . S
O170 Zn167 2.025 1_455 S
H171 C163 0.952 . S
H172 C154 0.952 . S
H173 C162 0.948 1_455 S
O174 Zn159 2.034 . S
O174 C169 1.246 . S
O175 Zn167 2.024 1_455 S
O175 C169 1.249 . S
H176 C158 0.939 1_655 S
O177 Zn167 2.039 . S
O177 C181 1.251 . S
O178 Zn159 2.025 1_655 S
O178 C181 1.254 . S
O179 C160 1.246 . S
O179 Zn167 2.034 . S
O180 Zn159 2.024 1_655 S
O180 C160 1.249 . S
C181 O177 1.251 . S
C181 O178 1.254 . S
H182 C155 0.949 . S
H183 C157 0.950 . S
H184 C164 0.949 . S
H185 C166 0.950 . S
C186 O202 1.251 . S
C186 O204 1.254 . S
N187 C188 1.333 . S
N187 C192 1.307 . S
N187 Zn193 2.020 . S
C188 N187 1.333 . S
C188 C189 1.379 . S
C188 H206 0.952 . S
C189 C188 1.379 . S
C189 C190 1.390 . S
C189 H216 0.949 . S
C190 C189 1.390 . S
C190 C191 1.357 . S
C191 C190 1.357 . S
C191 C192 1.370 . S
C191 H217 0.950 . S
C192 N187 1.307 . S
C192 C191 1.370 . S
C192 H210 0.948 . S
Zn193 N187 2.020 . S
Zn193 O202 2.039 . S
Zn193 O208 2.034 . S
Zn193 O212 2.025 . S
Zn193 O214 2.024 . S
C194 O213 1.246 . S
C194 O214 1.249 . S
N195 C196 1.307 . S
N195 C197 1.333 . S
N195 Zn201 2.020 1_565 S
C196 N195 1.307 . S
C196 C200 1.370 . S
C196 H207 0.948 . S
C197 N195 1.333 . S
C197 C198 1.379 . S
C197 H205 0.952 . S
C198 C197 1.379 . S
C198 C199 1.390 . S
C198 H218 0.949 . S
C199 C198 1.390 . S
C199 C200 1.357 . S
C200 C196 1.370 . S
C200 C199 1.357 . S
C200 H219 0.950 . S
Zn201 N195 2.020 1_545 S
Zn201 O204 2.025 . S
Zn201 O209 2.024 . S
Zn201 O211 2.039 . S
Zn201 O213 2.034 . S
O202 C186 1.251 . S
O202 Zn193 2.039 . S
C203 O208 1.246 . S
C203 O209 1.249 . S
O204 C186 1.254 . S
O204 Zn201 2.025 . S
H205 C197 0.952 . S
H206 C188 0.952 . S
H207 C196 0.948 . S
O208 Zn193 2.034 . S
O208 C203 1.246 . S
O209 Zn201 2.024 . S
O209 C203 1.249 . S
H210 C192 0.948 . S
O211 Zn201 2.039 . S
O211 C215 1.251 . S
O212 Zn193 2.025 . S
O212 C215 1.254 . S
O213 C194 1.246 . S
O213 Zn201 2.034 . S
O214 Zn193 2.024 . S
O214 C194 1.249 . S
C215 O211 1.251 . S
C215 O212 1.254 . S
H216 C189 0.949 . S
H217 C191 0.950 . S
H218 C198 0.949 . S
H219 C200 0.950 . S
C220 O236 1.251 . S
C220 O238 1.254 . S
N221 C222 1.333 . S
N221 C226 1.307 . S
N221 Zn227 2.020 . S
C222 N221 1.333 . S
C222 C223 1.379 . S
C222 H240 0.952 . S
C223 C222 1.379 . S
C223 C224 1.390 . S
C223 H250 0.949 . S
C224 C223 1.390 . S
C224 C225 1.357 . S
C225 C224 1.357 . S
C225 C226 1.370 . S
C225 H251 0.950 . S
C226 N221 1.307 . S
C226 C225 1.370 . S
C226 H244 0.948 . S
Zn227 N221 2.020 . S
Zn227 O236 2.039 . S
Zn227 O242 2.034 . S
Zn227 O246 2.025 . S
Zn227 O248 2.024 . S
C228 O247 1.246 . S
C228 O248 1.249 . S
N229 C230 1.307 . S
N229 C231 1.333 . S
N229 Zn235 2.020 . S
C230 N229 1.307 . S
C230 C234 1.370 . S
C230 H241 0.948 . S
C231 N229 1.333 . S
C231 C232 1.379 . S
C231 H239 0.952 . S
C232 C231 1.379 . S
C232 C233 1.390 . S
C232 H252 0.949 . S
C233 C232 1.390 . S
C233 C234 1.357 . S
C234 C230 1.370 . S
C234 C233 1.357 . S
C234 H253 0.950 . S
Zn235 N229 2.020 . S
Zn235 O238 2.025 . S
Zn235 O243 2.024 . S
Zn235 O245 2.039 . S
Zn235 O247 2.034 . S
O236 C220 1.251 . S
O236 Zn227 2.039 . S
C237 O242 1.246 . S
C237 O243 1.249 . S
O238 C220 1.254 . S
O238 Zn235 2.025 . S
H239 C231 0.952 . S
H240 C222 0.952 . S
H241 C230 0.948 . S
O242 Zn227 2.034 . S
O242 C237 1.246 . S
O243 Zn235 2.024 . S
O243 C237 1.249 . S
H244 C226 0.948 . S
O245 Zn235 2.039 . S
O245 C249 1.251 . S
O246 Zn227 2.025 . S
O246 C249 1.254 . S
O247 C228 1.246 . S
O247 Zn235 2.034 . S
O248 Zn227 2.024 . S
O248 C228 1.249 . S
C249 O245 1.251 . S
C249 O246 1.254 . S
H250 C223 0.949 . S
H251 C225 0.950 . S
H252 C232 0.949 . S
H253 C234 0.950 . S
C254 O270 1.251 . S
C254 O272 1.254 1_654 S
N255 C256 1.333 . S
N255 C260 1.307 . S
N255 Zn261 2.020 . S
C256 N255 1.333 . S
C256 C257 1.379 . S
C256 H274 0.952 . S
C257 C256 1.379 . S
C257 C258 1.390 . S
C257 H284 0.949 . S
C258 C257 1.390 . S
C258 C259 1.357 . S
C259 C258 1.357 . S
C259 C260 1.370 . S
C259 H285 0.950 . S
C260 N255 1.307 . S
C260 C259 1.370 . S
C260 H278 0.948 . S
Zn261 N255 2.020 . S
Zn261 O270 2.039 . S
Zn261 O276 2.034 1_655 S
Zn261 O280 2.025 1_655 S
Zn261 O282 2.024 . S
C262 O281 1.241 1_554 S
C262 O282 1.256 . S
N263 C264 1.307 . S
N263 C265 1.333 . S
N263 Zn269 2.020 . S
C264 N263 1.307 . S
C264 C268 1.370 . S
C264 H275 0.948 . S
C265 N263 1.333 . S
C265 C266 1.379 . S
C265 H273 0.952 . S
C266 C265 1.379 . S
C266 C267 1.390 . S
C266 H286 0.949 . S
C267 C266 1.390 . S
C267 C268 1.357 . S
C268 C264 1.370 . S
C268 C267 1.357 . S
C268 H287 0.950 . S
Zn269 N263 2.020 . S
Zn269 O272 2.025 . S
Zn269 O277 2.024 1_556 S
Zn269 O279 2.039 1_556 S
Zn269 O281 2.034 1_455 S
O270 C254 1.251 . S
O270 Zn261 2.039 . S
C271 O276 1.246 . S
C271 O277 1.249 . S
O272 C254 1.254 1_456 S
O272 Zn269 2.025 . S
H273 C265 0.952 . S
H274 C256 0.952 . S
H275 C264 0.948 . S
O276 Zn261 2.034 1_455 S
O276 C271 1.246 . S
O277 Zn269 2.024 1_554 S
O277 C271 1.249 . S
H278 C260 0.948 . S
O279 Zn269 2.039 1_554 S
O279 C283 1.251 . S
O280 Zn261 2.025 1_455 S
O280 C283 1.254 . S
O281 C262 1.241 1_556 S
O281 Zn269 2.034 1_655 S
O282 Zn261 2.024 . S
O282 C262 1.256 . S
C283 O279 1.251 . S
C283 O280 1.254 . S
H284 C257 0.949 . S
H285 C259 0.950 . S
H286 C266 0.949 . S
H287 C268 0.950 . S
C288 C289 1.349 . S
C288 C290 1.327 . S
C288 H313 0.950 . S
C289 C288 1.349 . S
C289 C305 1.349 . S
C290 C288 1.327 . S
C290 C309 1.429 . S
C290 H314 0.950 . S
C291 C308 1.574 . S
C291 C310 1.368 . S
C291 H315 0.949 . S
H292 C296 0.949 . S
C293 C294 1.349 . S
C293 C295 1.327 . S
C293 H316 0.950 . S
C294 C293 1.349 . S
C294 C306 1.349 . S
C295 C293 1.327 . S
C295 C311 1.429 . S
C295 H317 0.950 . S
C296 H292 0.949 . S
C296 C304 1.574 . S
C296 C312 1.368 . S
H297 C305 0.950 . S
H298 C303 0.950 . S
H299 C304 0.949 . S
H300 C306 0.950 . S
H301 C307 0.950 . S
H302 C308 0.949 . S
C303 H298 0.950 . S
C303 C305 1.327 . S
C303 C309 1.429 . S
C304 C296 1.574 . S
C304 H299 0.949 . S
C304 C310 1.368 . S
C305 C289 1.349 . S
C305 H297 0.950 . S
C305 C303 1.327 . S
C306 C294 1.349 . S
C306 H300 0.950 . S
C306 C307 1.327 . S
C307 H301 0.950 . S
C307 C306 1.327 . S
C307 C311 1.429 . S
C308 C291 1.574 . S
C308 H302 0.949 . S
C308 C312 1.368 . S
C309 C290 1.429 . S
C309 C303 1.429 . S
C309 C310 1.523 . S
C310 C291 1.368 . S
C310 C304 1.368 . S
C310 C309 1.523 . S
C311 C295 1.429 . S
C311 C307 1.429 . S
C311 C312 1.523 . S
C312 C296 1.368 . S
C312 C308 1.368 . S
C312 C311 1.523 . S
H313 C288 0.950 . S
H314 C290 0.950 . S
H315 C291 0.949 . S
H316 C293 0.950 . S
H317 C295 0.950 . S
C318 C319 1.349 . S
C318 C320 1.327 . S
C318 H343 0.950 . S
C319 C318 1.349 . S
C319 C335 1.349 . S
C320 C318 1.327 . S
C320 C339 1.429 . S
C320 H344 0.950 1_565 S
C321 C338 1.574 . S
C321 C340 1.368 . S
C321 H345 0.949 . S
H322 C326 0.949 . S
C323 C324 1.349 1_565 S
C323 C325 1.327 . S
C323 H346 0.950 . S
C324 C323 1.349 1_545 S
C324 C336 1.349 . S
C325 C323 1.327 . S
C325 C341 1.429 1_565 S
C325 H347 0.950 . S
C326 H322 0.949 . S
C326 C334 1.574 . S
C326 C342 1.368 1_545 S
H327 C335 0.950 . S
H328 C333 0.950 . S
H329 C334 0.949 . S
H330 C336 0.950 . S
H331 C337 0.950 . S
H332 C338 0.949 . S
C333 H328 0.950 . S
C333 C335 1.327 . S
C333 C339 1.429 . S
C334 C326 1.574 . S
C334 H329 0.949 . S
C334 C340 1.368 1_545 S
C335 C319 1.349 . S
C335 H327 0.950 . S
C335 C333 1.327 . S
C336 C324 1.349 . S
C336 H330 0.950 . S
C336 C337 1.327 . S
C337 H331 0.950 . S
C337 C336 1.327 . S
C337 C341 1.429 . S
C338 C321 1.574 . S
C338 H332 0.949 . S
C338 C342 1.368 . S
C339 C320 1.429 . S
C339 C333 1.429 . S
C339 C340 1.523 . S
C340 C321 1.368 . S
C340 C334 1.368 1_565 S
C340 C339 1.523 . S
C341 C325 1.429 1_545 S
C341 C337 1.429 . S
C341 C342 1.523 1_545 S
C342 C326 1.368 1_565 S
C342 C338 1.368 . S
C342 C341 1.523 1_565 S
H343 C318 0.950 . S
H344 C320 0.950 1_545 S
H345 C321 0.949 . S
H346 C323 0.950 . S
H347 C325 0.950 . S
C348 C349 1.349 . S
C348 C350 1.327 . S
C348 H373 0.950 . S
C349 C348 1.349 . S
C349 C365 1.349 . S
C350 C348 1.327 . S
C350 C369 1.429 . S
C350 H374 0.950 . S
C351 C368 1.574 . S
C351 C370 1.368 . S
C351 H375 0.949 . S
H352 C356 0.949 . S
C353 C354 1.349 . S
C353 C355 1.327 . S
C353 H376 0.950 . S
C354 C353 1.349 . S
C354 C366 1.349 . S
C355 C353 1.327 . S
C355 C371 1.429 . S
C355 H377 0.950 . S
C356 H352 0.949 . S
C356 C364 1.574 . S
C356 C372 1.368 . S
H357 C365 0.950 . S
H358 C363 0.950 . S
H359 C364 0.949 . S
H360 C366 0.950 . S
H361 C367 0.950 . S
H362 C368 0.949 . S
C363 H358 0.950 . S
C363 C365 1.327 . S
C363 C369 1.429 . S
C364 C356 1.574 . S
C364 H359 0.949 . S
C364 C370 1.368 . S
C365 C349 1.349 . S
C365 H357 0.950 . S
C365 C363 1.327 . S
C366 C354 1.349 . S
C366 H360 0.950 . S
C366 C367 1.327 . S
C367 H361 0.950 . S
C367 C366 1.327 . S
C367 C371 1.429 . S
C368 C351 1.574 . S
C368 H362 0.949 . S
C368 C372 1.368 . S
C369 C350 1.429 . S
C369 C363 1.429 . S
C369 C370 1.523 . S
C370 C351 1.368 . S
C370 C364 1.368 . S
C370 C369 1.523 . S
C371 C355 1.429 . S
C371 C367 1.429 . S
C371 C372 1.523 . S
C372 C356 1.368 . S
C372 C368 1.368 . S
C372 C371 1.523 . S
H373 C348 0.950 . S
H374 C350 0.950 . S
H375 C351 0.949 . S
H376 C353 0.950 . S
H377 C355 0.950 . S
C378 C379 1.349 . S
C378 C380 1.327 . S
C378 H403 0.950 . S
C379 C378 1.349 . S
C379 C395 1.349 . S
C380 C378 1.327 . S
C380 C399 1.429 . S
C380 H404 0.950 . S
C381 C398 1.574 . S
C381 C400 1.368 . S
C381 H405 0.949 . S
H382 C386 0.949 . S
C383 C384 1.349 . S
C383 C385 1.327 . S
C383 H406 0.950 . S
C384 C383 1.349 . S
C384 C396 1.349 . S
C385 C383 1.327 . S
C385 C401 1.429 . S
C385 H407 0.950 . S
C386 H382 0.949 . S
C386 C394 1.574 . S
C386 C402 1.368 . S
H387 C395 0.950 . S
H388 C393 0.950 . S
H389 C394 0.949 . S
H390 C396 0.950 . S
H391 C397 0.950 . S
H392 C398 0.949 . S
C393 H388 0.950 . S
C393 C395 1.327 . S
C393 C399 1.429 . S
C394 C386 1.574 . S
C394 H389 0.949 . S
C394 C400 1.368 . S
C395 C379 1.349 . S
C395 H387 0.950 . S
C395 C393 1.327 . S
C396 C384 1.349 . S
C396 H390 0.950 . S
C396 C397 1.327 . S
C397 H391 0.950 . S
C397 C396 1.327 . S
C397 C401 1.429 . S
C398 C381 1.574 . S
C398 H392 0.949 . S
C398 C402 1.368 . S
C399 C380 1.429 . S
C399 C393 1.429 . S
C399 C400 1.523 . S
C400 C381 1.368 . S
C400 C394 1.368 . S
C400 C399 1.523 . S
C401 C385 1.429 . S
C401 C397 1.429 . S
C401 C402 1.523 . S
C402 C386 1.368 . S
C402 C398 1.368 . S
C402 C401 1.523 . S
H403 C378 0.950 . S
H404 C380 0.950 . S
H405 C381 0.949 . S
H406 C383 0.950 . S
H407 C385 0.950 . S
C408 C409 1.349 . S
C408 C410 1.327 . S
C408 H433 0.950 . S
C409 C408 1.349 . S
C409 C425 1.349 . S
C410 C408 1.327 . S
C410 C429 1.429 . S
C410 H434 0.950 . S
C411 C428 1.574 . S
C411 C430 1.368 . S
C411 H435 0.949 . S
H412 C416 0.949 . S
C413 C414 1.349 . S
C413 C415 1.327 . S
C413 H436 0.950 . S
C414 C413 1.349 . S
C414 C426 1.349 . S
C415 C413 1.327 . S
C415 C431 1.429 . S
C415 H437 0.950 . S
C416 H412 0.949 . S
C416 C424 1.574 . S
C416 C432 1.368 . S
H417 C425 0.950 . S
H418 C423 0.950 . S
H419 C424 0.949 . S
H420 C426 0.950 . S
H421 C427 0.950 . S
H422 C428 0.949 . S
C423 H418 0.950 . S
C423 C425 1.327 . S
C423 C429 1.429 . S
C424 C416 1.574 . S
C424 H419 0.949 . S
C424 C430 1.368 . S
C425 C409 1.349 . S
C425 H417 0.950 . S
C425 C423 1.327 . S
C426 C414 1.349 . S
C426 H420 0.950 . S
C426 C427 1.327 . S
C427 H421 0.950 . S
C427 C426 1.327 . S
C427 C431 1.429 . S
C428 C411 1.574 . S
C428 H422 0.949 . S
C428 C432 1.368 . S
C429 C410 1.429 . S
C429 C423 1.429 . S
C429 C430 1.523 . S
C430 C411 1.368 . S
C430 C424 1.368 . S
C430 C429 1.523 . S
C431 C415 1.429 . S
C431 C427 1.429 . S
C431 C432 1.523 . S
C432 C416 1.368 . S
C432 C428 1.368 . S
C432 C431 1.523 . S
H433 C408 0.950 . S
H434 C410 0.950 . S
H435 C411 0.949 . S
H436 C413 0.950 . S
H437 C415 0.950 . S
C438 C439 1.349 1_545 S
C438 C440 1.327 . S
C438 H463 0.950 . S
C439 C438 1.349 1_565 S
C439 C455 1.349 . S
C440 C438 1.327 . S
C440 C459 1.429 1_545 S
C440 H464 0.950 . S
C441 C458 1.574 . S
C441 C460 1.368 1_565 S
C441 H465 0.949 . S
H442 C446 0.949 . S
C443 C444 1.349 . S
C443 C445 1.325 1_545 S
C443 H466 0.950 1_545 S
C444 C443 1.349 . S
C444 C456 1.349 . S
C445 C443 1.325 1_565 S
C445 C461 1.424 1_565 S
C445 H467 0.957 . S
C446 H442 0.949 . S
C446 C454 1.574 . S
C446 C462 1.368 . S
H447 C455 0.950 . S
H448 C453 0.950 . S
H449 C454 0.949 . S
H450 C456 0.950 . S
H451 C457 0.950 . S
H452 C458 0.949 . S
C453 H448 0.950 . S
C453 C455 1.327 . S
C453 C459 1.429 . S
C454 C446 1.574 . S
C454 H449 0.949 . S
C454 C460 1.368 . S
C455 C439 1.349 . S
C455 H447 0.950 . S
C455 C453 1.327 . S
C456 C444 1.349 . S
C456 H450 0.950 . S
C456 C457 1.327 . S
C457 H451 0.950 . S
C457 C456 1.327 . S
C457 C461 1.429 . S
C458 C441 1.574 . S
C458 H452 0.949 . S
C458 C462 1.368 1_565 S
C459 C440 1.429 1_565 S
C459 C453 1.429 . S
C459 C460 1.523 1_565 S
C460 C441 1.368 1_545 S
C460 C454 1.368 . S
C460 C459 1.523 1_545 S
C461 C445 1.424 1_545 S
C461 C457 1.429 . S
C461 C462 1.523 . S
C462 C446 1.368 . S
C462 C458 1.368 1_545 S
C462 C461 1.523 . S
H463 C438 0.950 . S
H464 C440 0.950 . S
H465 C441 0.949 . S
H466 C443 0.950 1_565 S
H467 C445 0.957 . S
C468 C469 1.349 . S
C468 C470 1.327 . S
C468 H493 0.950 . S
C469 C468 1.349 . S
C469 C485 1.349 . S
C470 C468 1.327 . S
C470 C489 1.429 . S
C470 H494 0.950 . S
C471 C488 1.574 . S
C471 C490 1.368 . S
C471 H495 0.949 1_556 S
H472 C476 0.949 . S
C473 C474 1.349 1_554 S
C473 C475 1.327 . S
C473 H496 0.950 . S
C474 C473 1.349 1_556 S
C474 C486 1.349 . S
C475 C473 1.327 . S
C475 C491 1.429 1_554 S
C475 H497 0.950 . S
C476 H472 0.949 . S
C476 C484 1.574 . S
C476 C492 1.368 . S
H477 C485 0.950 . S
H478 C483 0.950 . S
H479 C484 0.949 . S
H480 C486 0.950 . S
H481 C487 0.950 . S
H482 C488 0.949 1_554 S
C483 H478 0.950 . S
C483 C485 1.327 . S
C483 C489 1.429 . S
C484 C476 1.574 . S
C484 H479 0.949 . S
C484 C490 1.368 . S
C485 C469 1.349 . S
C485 H477 0.950 . S
C485 C483 1.327 . S
C486 C474 1.349 . S
C486 H480 0.950 . S
C486 C487 1.327 . S
C487 H481 0.950 . S
C487 C486 1.327 . S
C487 C491 1.429 . S
C488 C471 1.574 . S
C488 H482 0.949 1_556 S
C488 C492 1.368 . S
C489 C470 1.429 . S
C489 C483 1.429 . S
C489 C490 1.523 . S
C490 C471 1.368 . S
C490 C484 1.368 . S
C490 C489 1.523 . S
C491 C475 1.429 1_556 S
C491 C487 1.429 . S
C491 C492 1.523 . S
C492 C476 1.368 . S
C492 C488 1.368 . S
C492 C491 1.523 . S
H493 C468 0.950 . S
H494 C470 0.950 . S
H495 C471 0.949 1_554 S
H496 C473 0.950 . S
H497 C475 0.950 . S
C498 C499 1.349 . S
C498 C500 1.327 . S
C498 H523 0.950 . S
C499 C498 1.349 . S
C499 C515 1.349 . S
C500 C498 1.327 . S
C500 C519 1.429 . S
C500 H524 0.950 . S
C501 C518 1.574 . S
C501 C520 1.368 . S
C501 H525 0.949 . S
H502 C506 0.949 . S
C503 C504 1.349 . S
C503 C505 1.327 . S
C503 H526 0.950 . S
C504 C503 1.349 . S
C504 C516 1.349 . S
C505 C503 1.327 . S
C505 C521 1.429 . S
C505 H527 0.950 . S
C506 H502 0.949 . S
C506 C514 1.574 . S
C506 C522 1.368 . S
H507 C515 0.950 . S
H508 C513 0.950 . S
H509 C514 0.949 . S
H510 C516 0.950 . S
H511 C517 0.950 . S
H512 C518 0.949 . S
C513 H508 0.950 . S
C513 C515 1.327 . S
C513 C519 1.429 . S
C514 C506 1.574 . S
C514 H509 0.949 . S
C514 C520 1.368 . S
C515 C499 1.349 . S
C515 H507 0.950 . S
C515 C513 1.327 . S
C516 C504 1.349 . S
C516 H510 0.950 . S
C516 C517 1.327 . S
C517 H511 0.950 . S
C517 C516 1.327 . S
C517 C521 1.429 . S
C518 C501 1.574 . S
C518 H512 0.949 . S
C518 C522 1.368 . S
C519 C500 1.429 . S
C519 C513 1.429 . S
C519 C520 1.523 . S
C520 C501 1.368 . S
C520 C514 1.368 . S
C520 C519 1.523 . S
C521 C505 1.429 . S
C521 C517 1.429 . S
C521 C522 1.523 . S
C522 C506 1.368 . S
C522 C518 1.368 . S
C522 C521 1.523 . S
H523 C498 0.950 . S
H524 C500 0.950 . S
H525 C501 0.949 . S
H526 C503 0.950 . S
H527 C505 0.950 . S
C528 C529 1.349 . S
C528 C530 1.327 . S
C528 H553 0.950 . S
C529 C528 1.349 . S
C529 C545 1.349 . S
C530 C528 1.327 . S
C530 C549 1.429 . S
C530 H554 0.950 . S
C531 C548 1.574 . S
C531 C550 1.368 . S
C531 H555 0.949 . S
H532 C536 0.949 . S
C533 C534 1.349 . S
C533 C535 1.327 . S
C533 H556 0.950 1_455 S
C534 C533 1.349 . S
C534 C546 1.349 . S
C535 C533 1.327 . S
C535 C551 1.429 . S
C535 H557 0.951 1_455 S
C536 H532 0.949 . S
C536 C544 1.574 . S
C536 C552 1.368 . S
H537 C545 0.950 . S
H538 C543 0.950 . S
H539 C544 0.949 . S
H540 C546 0.950 . S
H541 C547 0.950 . S
H542 C548 0.949 . S
C543 H538 0.950 . S
C543 C545 1.327 . S
C543 C549 1.429 . S
C544 C536 1.574 . S
C544 H539 0.949 . S
C544 C550 1.368 . S
C545 C529 1.349 . S
C545 H537 0.950 . S
C545 C543 1.327 . S
C546 C534 1.349 . S
C546 H540 0.950 . S
C546 C547 1.327 . S
C547 H541 0.950 . S
C547 C546 1.327 . S
C547 C551 1.429 . S
C548 C531 1.574 . S
C548 H542 0.949 . S
C548 C552 1.368 . S
C549 C530 1.429 . S
C549 C543 1.429 . S
C549 C550 1.523 . S
C550 C531 1.368 . S
C550 C544 1.368 . S
C550 C549 1.523 . S
C551 C535 1.429 . S
C551 C547 1.429 . S
C551 C552 1.523 . S
C552 C536 1.368 . S
C552 C548 1.368 . S
C552 C551 1.523 . S
H553 C528 0.950 . S
H554 C530 0.950 . S
H555 C531 0.949 . S
H556 C533 0.950 1_655 S
H557 C535 0.951 1_655 S
C558 C559 1.349 . S
C558 C560 1.327 . S
C558 H583 0.950 . S
C559 C558 1.349 . S
C559 C575 1.349 . S
C560 C558 1.327 . S
C560 C579 1.429 . S
C560 H584 0.950 . S
C561 C578 1.574 . S
C561 C580 1.368 1_554 S
C561 H585 0.949 . S
H562 C566 0.949 . S
C563 C564 1.349 . S
C563 C565 1.327 . S
C563 H586 0.950 . S
C564 C563 1.349 . S
C564 C576 1.349 1_554 S
C565 C563 1.327 . S
C565 C581 1.444 . S
C565 H587 0.950 . S
C566 H562 0.949 . S
C566 C574 1.574 . S
C566 C582 1.368 . S
H567 C575 0.950 . S
H568 C573 0.950 1_554 S
H569 C574 0.949 . S
H570 C576 0.950 . S
H571 C577 0.950 . S
H572 C578 0.949 . S
C573 H568 0.950 1_556 S
C573 C575 1.327 . S
C573 C579 1.429 . S
C574 C566 1.574 . S
C574 H569 0.949 . S
C574 C580 1.368 . S
C575 C559 1.349 . S
C575 H567 0.950 . S
C575 C573 1.327 . S
C576 C564 1.349 1_556 S
C576 H570 0.950 . S
C576 C577 1.327 . S
C577 H571 0.950 . S
C577 C576 1.327 . S
C577 C581 1.418 1_556 S
C578 C561 1.574 . S
C578 H572 0.949 . S
C578 C582 1.368 1_554 S
C579 C560 1.429 . S
C579 C573 1.429 . S
C579 C580 1.523 . S
C580 C561 1.368 1_556 S
C580 C574 1.368 . S
C580 C579 1.523 . S
C581 C565 1.444 . S
C581 C577 1.418 1_554 S
C581 C582 1.519 1_554 S
C582 C566 1.368 . S
C582 C578 1.368 1_556 S
C582 C581 1.519 1_556 S
H583 C558 0.950 . S
H584 C560 0.950 . S
H585 C561 0.949 . S
H586 C563 0.950 . S
H587 C565 0.950 . S
C588 C589 1.349 . S
C588 C590 1.327 . S
C588 H613 0.950 . S
C589 C588 1.349 . S
C589 C605 1.349 . S
C590 C588 1.327 . S
C590 C609 1.429 . S
C590 H614 0.950 . S
C591 C608 1.574 . S
C591 C610 1.368 . S
C591 H615 0.949 . S
H592 C596 0.949 . S
C593 C594 1.349 . S
C593 C595 1.327 . S
C593 H616 0.950 . S
C594 C593 1.349 . S
C594 C606 1.349 . S
C595 C593 1.327 . S
C595 C611 1.429 . S
C595 H617 0.950 . S
C596 H592 0.949 . S
C596 C604 1.574 . S
C596 C612 1.368 . S
H597 C605 0.950 . S
H598 C603 0.950 . S
H599 C604 0.949 . S
H600 C606 0.950 . S
H601 C607 0.950 . S
H602 C608 0.949 . S
C603 H598 0.950 . S
C603 C605 1.327 . S
C603 C609 1.429 . S
C604 C596 1.574 . S
C604 H599 0.949 . S
C604 C610 1.368 . S
C605 C589 1.349 . S
C605 H597 0.950 . S
C605 C603 1.327 . S
C606 C594 1.349 . S
C606 H600 0.950 . S
C606 C607 1.327 . S
C607 H601 0.950 . S
C607 C606 1.327 . S
C607 C611 1.429 . S
C608 C591 1.574 . S
C608 H602 0.949 . S
C608 C612 1.368 . S
C609 C590 1.429 . S
C609 C603 1.429 . S
C609 C610 1.523 . S
C610 C591 1.368 . S
C610 C604 1.368 . S
C610 C609 1.523 . S
C611 C595 1.429 . S
C611 C607 1.429 . S
C611 C612 1.523 . S
C612 C596 1.368 . S
C612 C608 1.368 . S
C612 C611 1.523 . S
H613 C588 0.950 . S
H614 C590 0.950 . S
H615 C591 0.949 . S
H616 C593 0.950 . S
H617 C595 0.950 . S
C618 C619 1.349 . S
C618 C620 1.327 . S
C618 H643 0.950 . S
C619 C618 1.349 . S
C619 C635 1.349 . S
C620 C618 1.327 . S
C620 C639 1.429 . S
C620 H644 0.950 . S
C621 C638 1.574 . S
C621 C640 1.368 . S
C621 H645 0.949 . S
H622 C626 0.949 . S
C623 C624 1.349 . S
C623 C625 1.327 . S
C623 H646 0.950 . S
C624 C623 1.349 . S
C624 C636 1.349 . S
C625 C623 1.327 . S
C625 C641 1.429 . S
C625 H647 0.950 . S
C626 H622 0.949 . S
C626 C634 1.574 . S
C626 C642 1.368 . S
H627 C635 0.950 . S
H628 C633 0.950 . S
H629 C634 0.949 . S
H630 C636 0.950 . S
H631 C637 0.950 . S
H632 C638 0.949 . S
C633 H628 0.950 . S
C633 C635 1.327 . S
C633 C639 1.429 . S
C634 C626 1.574 . S
C634 H629 0.949 . S
C634 C640 1.368 . S
C635 C619 1.349 . S
C635 H627 0.950 . S
C635 C633 1.327 . S
C636 C624 1.349 . S
C636 H630 0.950 . S
C636 C637 1.327 . S
C637 H631 0.950 . S
C637 C636 1.327 . S
C637 C641 1.429 . S
C638 C621 1.574 . S
C638 H632 0.949 . S
C638 C642 1.368 . S
C639 C620 1.429 . S
C639 C633 1.429 . S
C639 C640 1.523 . S
C640 C621 1.368 . S
C640 C634 1.368 . S
C640 C639 1.523 . S
C641 C625 1.429 . S
C641 C637 1.429 . S
C641 C642 1.523 . S
C642 C626 1.368 . S
C642 C638 1.368 . S
C642 C641 1.523 . S
H643 C618 0.950 . S
H644 C620 0.950 . S
H645 C621 0.949 . S
H646 C623 0.950 . S
H647 C625 0.950 . S
C648 C649 1.349 . S
C648 C650 1.327 . S
C648 H673 0.950 . S
C649 C648 1.349 . S
C649 C665 1.349 . S
C650 C648 1.327 . S
C650 C669 1.429 . S
C650 H674 0.950 . S
C651 C668 1.574 . S
C651 C670 1.368 1_545 S
C651 H675 0.949 . S
H652 C656 0.949 . S
C653 C654 1.349 . S
C653 C655 1.327 . S
C653 H676 0.950 1_655 S
C654 C653 1.349 . S
C654 C666 1.349 . S
C655 C653 1.327 . S
C655 C671 1.429 . S
C655 H677 0.950 . S
C656 H652 0.949 . S
C656 C664 1.574 . S
C656 C672 1.368 . S
H657 C665 0.950 . S
H658 C663 0.950 1_545 S
H659 C664 0.949 . S
H660 C666 0.950 1_565 S
H661 C667 0.950 . S
H662 C668 0.949 . S
C663 H658 0.950 1_565 S
C663 C665 1.327 . S
C663 C669 1.429 . S
C664 C656 1.574 . S
C664 H659 0.949 . S
C664 C670 1.368 . S
C665 C649 1.349 . S
C665 H657 0.950 . S
C665 C663 1.327 . S
C666 C654 1.349 . S
C666 H660 0.950 1_545 S
C666 C667 1.327 1_545 S
C667 H661 0.950 . S
C667 C666 1.327 1_565 S
C667 C671 1.429 1_565 S
C668 C651 1.574 . S
C668 H662 0.949 . S
C668 C672 1.368 1_545 S
C669 C650 1.429 . S
C669 C663 1.429 . S
C669 C670 1.523 . S
C670 C651 1.368 1_565 S
C670 C664 1.368 . S
C670 C669 1.523 . S
C671 C655 1.429 . S
C671 C667 1.429 1_545 S
C671 C672 1.523 1_545 S
C672 C656 1.368 . S
C672 C668 1.368 1_565 S
C672 C671 1.523 1_565 S
H673 C648 0.950 . S
H674 C650 0.950 . S
H675 C651 0.949 . S
H676 C653 0.950 1_455 S
H677 C655 0.950 . S
C678 C679 1.349 . S
C678 C680 1.327 . S
C678 H703 0.950 . S
C679 C678 1.349 . S
C679 C695 1.349 . S
C680 C678 1.327 . S
C680 C699 1.429 . S
C680 H704 0.950 . S
C681 C698 1.574 . S
C681 C700 1.368 . S
C681 H705 0.949 . S
H682 C686 0.949 . S
C683 C684 1.349 . S
C683 C685 1.327 . S
C683 H706 0.950 . S
C684 C683 1.349 . S
C684 C696 1.349 . S
C685 C683 1.327 . S
C685 C701 1.429 . S
C685 H707 0.950 . S
C686 H682 0.949 . S
C686 C694 1.574 . S
C686 C702 1.368 . S
H687 C695 0.950 . S
H688 C693 0.950 . S
H689 C694 0.949 . S
H690 C696 0.950 . S
H691 C697 0.950 . S
H692 C698 0.949 . S
C693 H688 0.950 . S
C693 C695 1.327 . S
C693 C699 1.429 . S
C694 C686 1.574 . S
C694 H689 0.949 . S
C694 C700 1.368 . S
C695 C679 1.349 . S
C695 H687 0.950 . S
C695 C693 1.327 . S
C696 C684 1.349 . S
C696 H690 0.950 . S
C696 C697 1.327 . S
C697 H691 0.950 . S
C697 C696 1.327 . S
C697 C701 1.429 . S
C698 C681 1.574 . S
C698 H692 0.949 . S
C698 C702 1.368 . S
C699 C680 1.429 . S
C699 C693 1.429 . S
C699 C700 1.523 . S
C700 C681 1.368 . S
C700 C694 1.368 . S
C700 C699 1.523 . S
C701 C685 1.429 . S
C701 C697 1.429 . S
C701 C702 1.523 . S
C702 C686 1.368 . S
C702 C698 1.368 . S
C702 C701 1.523 . S
H703 C678 0.950 . S
H704 C680 0.950 . S
H705 C681 0.949 . S
H706 C683 0.950 . S
H707 C685 0.950 . S
C708 C709 1.349 . S
C708 C710 1.327 . S
C708 H733 0.950 . S
C709 C708 1.349 . S
C709 C725 1.349 . S
C710 C708 1.327 . S
C710 C729 1.429 . S
C710 H734 0.950 . S
C711 C728 1.574 . S
C711 C730 1.368 . S
C711 H735 0.949 . S
H712 C716 0.949 . S
C713 C714 1.349 . S
C713 C715 1.327 . S
C713 H736 0.950 . S
C714 C713 1.349 . S
C714 C726 1.349 . S
C715 C713 1.327 . S
C715 C731 1.429 . S
C715 H737 0.950 . S
C716 H712 0.949 . S
C716 C724 1.574 . S
C716 C732 1.368 . S
H717 C725 0.950 . S
H718 C723 0.950 . S
H719 C724 0.949 . S
H720 C726 0.950 . S
H721 C727 0.950 . S
H722 C728 0.949 . S
C723 H718 0.950 . S
C723 C725 1.327 . S
C723 C729 1.429 . S
C724 C716 1.574 . S
C724 H719 0.949 . S
C724 C730 1.368 . S
C725 C709 1.349 . S
C725 H717 0.950 . S
C725 C723 1.327 . S
C726 C714 1.349 . S
C726 H720 0.950 . S
C726 C727 1.327 . S
C727 H721 0.950 . S
C727 C726 1.327 . S
C727 C731 1.429 . S
C728 C711 1.574 . S
C728 H722 0.949 . S
C728 C732 1.368 . S
C729 C710 1.429 . S
C729 C723 1.429 . S
C729 C730 1.523 . S
C730 C711 1.368 . S
C730 C724 1.368 . S
C730 C729 1.523 . S
C731 C715 1.429 . S
C731 C727 1.429 . S
C731 C732 1.523 . S
C732 C716 1.368 . S
C732 C728 1.368 . S
C732 C731 1.523 . S
H733 C708 0.950 . S
H734 C710 0.950 . S
H735 C711 0.949 . S
H736 C713 0.950 . S
H737 C715 0.950 . S
C738 C739 1.349 . S
C738 C740 1.327 . S
C738 H763 0.950 . S
C739 C738 1.349 . S
C739 C755 1.349 . S
C740 C738 1.327 . S
C740 C759 1.429 . S
C740 H764 0.950 . S
C741 C758 1.574 . S
C741 C760 1.368 . S
C741 H765 0.949 . S
H742 C746 0.949 . S
C743 C744 1.349 . S
C743 C745 1.327 . S
C743 H766 0.950 . S
C744 C743 1.349 . S
C744 C756 1.349 . S
C745 C743 1.327 . S
C745 C761 1.429 . S
C745 H767 0.950 . S
C746 H742 0.949 . S
C746 C754 1.574 . S
C746 C762 1.368 . S
H747 C755 0.950 . S
H748 C753 0.950 . S
H749 C754 0.949 . S
H750 C756 0.950 . S
H751 C757 0.950 . S
H752 C758 0.949 . S
C753 H748 0.950 . S
C753 C755 1.327 . S
C753 C759 1.429 . S
C754 C746 1.574 . S
C754 H749 0.949 . S
C754 C760 1.368 . S
C755 C739 1.349 . S
C755 H747 0.950 . S
C755 C753 1.327 . S
C756 C744 1.349 . S
C756 H750 0.950 . S
C756 C757 1.327 . S
C757 H751 0.950 . S
C757 C756 1.327 . S
C757 C761 1.429 . S
C758 C741 1.574 . S
C758 H752 0.949 . S
C758 C762 1.368 . S
C759 C740 1.429 . S
C759 C753 1.429 . S
C759 C760 1.523 . S
C760 C741 1.368 . S
C760 C754 1.368 . S
C760 C759 1.523 . S
C761 C745 1.429 . S
C761 C757 1.429 . S
C761 C762 1.523 . S
C762 C746 1.368 . S
C762 C758 1.368 . S
C762 C761 1.523 . S
H763 C738 0.950 . S
H764 C740 0.950 . S
H765 C741 0.949 . S
H766 C743 0.950 . S
H767 C745 0.950 . S
C768 C769 1.349 . S
C768 C770 1.327 . S
C768 H793 0.950 . S
C769 C768 1.349 . S
C769 C785 1.349 . S
C770 C768 1.327 . S
C770 C789 1.429 . S
C770 H794 0.950 1_565 S
C771 C788 1.574 . S
C771 C790 1.368 . S
C771 H795 0.949 . S
H772 C776 0.949 . S
C773 C774 1.349 . S
C773 C775 1.327 1_554 S
C773 H796 0.950 1_554 S
C774 C773 1.349 . S
C774 C786 1.349 . S
C775 C773 1.327 1_556 S
C775 C791 1.429 1_556 S
C775 H797 0.968 . S
C776 H772 0.949 . S
C776 C784 1.574 . S
C776 C792 1.368 1_554 S
H777 C785 0.950 . S
H778 C783 0.950 . S
H779 C784 0.949 . S
H780 C786 0.950 . S
H781 C787 0.950 . S
H782 C788 0.949 . S
C783 H778 0.950 . S
C783 C785 1.327 . S
C783 C789 1.429 . S
C784 C776 1.574 . S
C784 H779 0.949 . S
C784 C790 1.368 1_544 S
C785 C769 1.349 . S
C785 H777 0.950 . S
C785 C783 1.327 . S
C786 C774 1.349 . S
C786 H780 0.950 . S
C786 C787 1.327 . S
C787 H781 0.950 . S
C787 C786 1.327 . S
C787 C791 1.429 . S
C788 C771 1.574 . S
C788 H782 0.949 . S
C788 C792 1.368 1_565 S
C789 C770 1.429 . S
C789 C783 1.429 . S
C789 C790 1.523 . S
C790 C771 1.368 . S
C790 C784 1.368 1_566 S
C790 C789 1.523 . S
C791 C775 1.429 1_554 S
C791 C787 1.429 . S
C791 C792 1.523 1_554 S
C792 C776 1.368 1_556 S
C792 C788 1.368 1_545 S
C792 C791 1.523 1_556 S
H793 C768 0.950 . S
H794 C770 0.950 1_545 S
H795 C771 0.949 . S
H796 C773 0.950 1_556 S
H797 C775 0.968 . S
C798 C799 1.349 . S
C798 C800 1.327 . S
C798 H823 0.950 . S
C799 C798 1.349 . S
C799 C815 1.349 . S
C800 C798 1.327 . S
C800 C819 1.429 . S
C800 H824 0.950 . S
C801 C818 1.574 . S
C801 C820 1.368 . S
C801 H825 0.949 . S
H802 C806 0.949 . S
C803 C804 1.349 . S
C803 C805 1.327 . S
C803 H826 0.950 . S
C804 C803 1.349 . S
C804 C816 1.349 . S
C805 C803 1.327 . S
C805 C821 1.429 . S
C805 H827 0.950 . S
C806 H802 0.949 . S
C806 C814 1.574 . S
C806 C822 1.368 . S
H807 C815 0.950 . S
H808 C813 0.950 . S
H809 C814 0.949 . S
H810 C816 0.950 . S
H811 C817 0.950 . S
H812 C818 0.949 . S
C813 H808 0.950 . S
C813 C815 1.327 . S
C813 C819 1.429 . S
C814 C806 1.574 . S
C814 H809 0.949 . S
C814 C820 1.368 . S
C815 C799 1.349 . S
C815 H807 0.950 . S
C815 C813 1.327 . S
C816 C804 1.349 . S
C816 H810 0.950 . S
C816 C817 1.327 . S
C817 H811 0.950 . S
C817 C816 1.327 . S
C817 C821 1.429 . S
C818 C801 1.574 . S
C818 H812 0.949 . S
C818 C822 1.368 . S
C819 C800 1.429 . S
C819 C813 1.429 . S
C819 C820 1.523 . S
C820 C801 1.368 . S
C820 C814 1.368 . S
C820 C819 1.523 . S
C821 C805 1.429 . S
C821 C817 1.429 . S
C821 C822 1.523 . S
C822 C806 1.368 . S
C822 C818 1.368 . S
C822 C821 1.523 . S
H823 C798 0.950 . S
H824 C800 0.950 . S
H825 C801 0.949 . S
H826 C803 0.950 . S
H827 C805 0.950 . S
C828 C829 1.349 . S
C828 C830 1.327 . S
C828 H853 0.950 . S
C829 C828 1.349 . S
C829 C845 1.349 . S
C830 C828 1.327 . S
C830 C849 1.429 . S
C830 H854 0.950 . S
C831 C848 1.574 . S
C831 C850 1.368 . S
C831 H855 0.949 . S
H832 C836 0.949 . S
C833 C834 1.349 . S
C833 C835 1.327 . S
C833 H856 0.950 . S
C834 C833 1.349 . S
C834 C846 1.349 . S
C835 C833 1.327 . S
C835 C851 1.429 . S
C835 H857 0.950 . S
C836 H832 0.949 . S
C836 C844 1.574 . S
C836 C852 1.368 . S
H837 C845 0.950 . S
H838 C843 0.950 . S
H839 C844 0.949 . S
H840 C846 0.950 . S
H841 C847 0.950 . S
H842 C848 0.949 . S
C843 H838 0.950 . S
C843 C845 1.327 . S
C843 C849 1.429 . S
C844 C836 1.574 . S
C844 H839 0.949 . S
C844 C850 1.368 . S
C845 C829 1.349 . S
C845 H837 0.950 . S
C845 C843 1.327 . S
C846 C834 1.349 . S
C846 H840 0.950 . S
C846 C847 1.327 . S
C847 H841 0.950 . S
C847 C846 1.327 . S
C847 C851 1.429 . S
C848 C831 1.574 . S
C848 H842 0.949 . S
C848 C852 1.368 . S
C849 C830 1.429 . S
C849 C843 1.429 . S
C849 C850 1.523 . S
C850 C831 1.368 . S
C850 C844 1.368 . S
C850 C849 1.523 . S
C851 C835 1.429 . S
C851 C847 1.429 . S
C851 C852 1.523 . S
C852 C836 1.368 . S
C852 C848 1.368 . S
C852 C851 1.523 . S
H853 C828 0.950 . S
H854 C830 0.950 . S
H855 C831 0.949 . S
H856 C833 0.950 . S
H857 C835 0.950 . S
C858 C859 1.349 . S
C858 C860 1.327 . S
C858 H883 0.950 . S
C859 C858 1.349 . S
C859 C875 1.349 . S
C860 C858 1.327 . S
C860 C879 1.429 . S
C860 H884 0.950 . S
C861 C878 1.574 . S
C861 C880 1.368 . S
C861 H885 0.949 . S
H862 C866 0.949 . S
C863 C864 1.349 . S
C863 C865 1.327 . S
C863 H886 0.950 . S
C864 C863 1.349 . S
C864 C876 1.349 . S
C865 C863 1.327 . S
C865 C881 1.429 . S
C865 H887 0.950 . S
C866 H862 0.949 . S
C866 C874 1.574 . S
C866 C882 1.368 . S
H867 C875 0.950 . S
H868 C873 0.950 . S
H869 C874 0.949 . S
H870 C876 0.950 . S
H871 C877 0.950 . S
H872 C878 0.949 . S
C873 H868 0.950 . S
C873 C875 1.327 . S
C873 C879 1.429 . S
C874 C866 1.574 . S
C874 H869 0.949 . S
C874 C880 1.368 . S
C875 C859 1.349 . S
C875 H867 0.950 . S
C875 C873 1.327 . S
C876 C864 1.349 . S
C876 H870 0.950 . S
C876 C877 1.327 . S
C877 H871 0.950 . S
C877 C876 1.327 . S
C877 C881 1.429 . S
C878 C861 1.574 . S
C878 H872 0.949 . S
C878 C882 1.368 . S
C879 C860 1.429 . S
C879 C873 1.429 . S
C879 C880 1.523 . S
C880 C861 1.368 . S
C880 C874 1.368 . S
C880 C879 1.523 . S
C881 C865 1.429 . S
C881 C877 1.429 . S
C881 C882 1.523 . S
C882 C866 1.368 . S
C882 C878 1.368 . S
C882 C881 1.523 . S
H883 C858 0.950 . S
H884 C860 0.950 . S
H885 C861 0.949 . S
H886 C863 0.950 . S
H887 C865 0.950 . S
C888 C889 1.349 . S
C888 C890 1.327 . S
C888 H913 0.950 . S
C889 C888 1.349 . S
C889 C905 1.349 . S
C890 C888 1.327 . S
C890 C909 1.429 . S
C890 H914 0.950 . S
C891 C908 1.574 . S
C891 C910 1.368 . S
C891 H915 0.949 . S
H892 C896 0.949 . S
C893 C894 1.349 1_554 S
C893 C895 1.327 1_554 S
C893 H916 0.950 . S
C894 C893 1.349 1_556 S
C894 C906 1.349 . S
C895 C893 1.327 1_556 S
C895 C911 1.429 . S
C895 H917 0.950 1_556 S
C896 H892 0.949 . S
C896 C904 1.574 . S
C896 C912 1.368 . S
H897 C905 0.950 . S
H898 C903 0.950 . S
H899 C904 0.949 . S
H900 C906 0.945 1_455 S
H901 C907 0.950 . S
H902 C908 0.949 . S
C903 H898 0.950 . S
C903 C905 1.327 . S
C903 C909 1.429 . S
C904 C896 1.574 . S
C904 H899 0.949 . S
C904 C910 1.368 . S
C905 C889 1.349 . S
C905 H897 0.950 . S
C905 C903 1.327 . S
C906 C894 1.349 . S
C906 H900 0.945 1_655 S
C906 C907 1.327 . S
C907 H901 0.950 . S
C907 C906 1.327 . S
C907 C911 1.429 . S
C908 C891 1.574 . S
C908 H902 0.949 . S
C908 C912 1.368 . S
C909 C890 1.429 . S
C909 C903 1.429 . S
C909 C910 1.523 . S
C910 C891 1.368 . S
C910 C904 1.368 . S
C910 C909 1.523 . S
C911 C895 1.429 . S
C911 C907 1.429 . S
C911 C912 1.523 . S
C912 C896 1.368 . S
C912 C908 1.368 . S
C912 C911 1.523 . S
H913 C888 0.950 . S
H914 C890 0.950 . S
H915 C891 0.949 . S
H916 C893 0.950 . S
H917 C895 0.950 1_554 S
C918 C919 1.349 . S
C918 C920 1.327 . S
C918 H943 0.950 . S
C919 C918 1.349 . S
C919 C935 1.349 . S
C920 C918 1.327 . S
C920 C939 1.429 . S
C920 H944 0.950 . S
C921 C938 1.574 . S
C921 C940 1.368 . S
C921 H945 0.949 . S
H922 C926 0.949 . S
C923 C924 1.349 . S
C923 C925 1.327 . S
C923 H946 0.950 . S
C924 C923 1.349 . S
C924 C936 1.349 . S
C925 C923 1.327 . S
C925 C941 1.429 . S
C925 H947 0.950 . S
C926 H922 0.949 . S
C926 C934 1.574 . S
C926 C942 1.368 . S
H927 C935 0.950 . S
H928 C933 0.950 . S
H929 C934 0.949 . S
H930 C936 0.950 . S
H931 C937 0.950 . S
H932 C938 0.949 . S
C933 H928 0.950 . S
C933 C935 1.327 . S
C933 C939 1.429 . S
C934 C926 1.574 . S
C934 H929 0.949 . S
C934 C940 1.368 . S
C935 C919 1.349 . S
C935 H927 0.950 . S
C935 C933 1.327 . S
C936 C924 1.349 . S
C936 H930 0.950 . S
C936 C937 1.327 . S
C937 H931 0.950 . S
C937 C936 1.327 . S
C937 C941 1.429 . S
C938 C921 1.574 . S
C938 H932 0.949 . S
C938 C942 1.368 . S
C939 C920 1.429 . S
C939 C933 1.429 . S
C939 C940 1.523 . S
C940 C921 1.368 . S
C940 C934 1.368 . S
C940 C939 1.523 . S
C941 C925 1.429 . S
C941 C937 1.429 . S
C941 C942 1.523 . S
C942 C926 1.368 . S
C942 C938 1.368 . S
C942 C941 1.523 . S
H943 C918 0.950 . S
H944 C920 0.950 . S
H945 C921 0.949 . S
H946 C923 0.950 . S
H947 C925 0.950 . S
C948 C949 1.349 . S
C948 C950 1.327 . S
C948 H973 0.950 . S
C949 C948 1.349 . S
C949 C965 1.349 . S
C950 C948 1.327 . S
C950 C969 1.429 . S
C950 H974 0.950 . S
C951 C968 1.574 . S
C951 C970 1.368 . S
C951 H975 0.949 . S
H952 C956 0.949 . S
C953 C954 1.349 . S
C953 C955 1.327 . S
C953 H976 0.950 . S
C954 C953 1.349 . S
C954 C966 1.349 . S
C955 C953 1.327 . S
C955 C971 1.429 . S
C955 H977 0.950 . S
C956 H952 0.949 . S
C956 C964 1.574 . S
C956 C972 1.368 . S
H957 C965 0.950 . S
H958 C963 0.950 . S
H959 C964 0.949 . S
H960 C966 0.950 . S
H961 C967 0.950 . S
H962 C968 0.949 . S
C963 H958 0.950 . S
C963 C965 1.327 . S
C963 C969 1.429 . S
C964 C956 1.574 . S
C964 H959 0.949 . S
C964 C970 1.368 . S
C965 C949 1.349 . S
C965 H957 0.950 . S
C965 C963 1.327 . S
C966 C954 1.349 . S
C966 H960 0.950 . S
C966 C967 1.327 . S
C967 H961 0.950 . S
C967 C966 1.327 . S
C967 C971 1.429 . S
C968 C951 1.574 . S
C968 H962 0.949 . S
C968 C972 1.368 . S
C969 C950 1.429 . S
C969 C963 1.429 . S
C969 C970 1.523 . S
C970 C951 1.368 . S
C970 C964 1.368 . S
C970 C969 1.523 . S
C971 C955 1.429 . S
C971 C967 1.429 . S
C971 C972 1.523 . S
C972 C956 1.368 . S
C972 C968 1.368 . S
C972 C971 1.523 . S
H973 C948 0.950 . S
H974 C950 0.950 . S
H975 C951 0.949 . S
H976 C953 0.950 . S
H977 C955 0.950 . S
C978 C979 1.349 . S
C978 C980 1.327 . S
C978 H1003 0.950 . S
C979 C978 1.349 . S
C979 C995 1.349 . S
C980 C978 1.327 . S
C980 C999 1.429 . S
C980 H1004 0.950 . S
C981 C998 1.574 . S
C981 C1000 1.368 . S
C981 H1005 0.949 . S
H982 C986 0.949 . S
C983 C984 1.349 . S
C983 C985 1.327 . S
C983 H1006 0.950 . S
C984 C983 1.349 . S
C984 C996 1.349 . S
C985 C983 1.327 . S
C985 C1001 1.429 . S
C985 H1007 0.950 . S
C986 H982 0.949 . S
C986 C994 1.574 . S
C986 C1002 1.368 . S
H987 C995 0.950 . S
H988 C993 0.950 . S
H989 C994 0.949 . S
H990 C996 0.950 . S
H991 C997 0.950 . S
H992 C998 0.949 . S
C993 H988 0.950 . S
C993 C995 1.327 . S
C993 C999 1.429 . S
C994 C986 1.574 . S
C994 H989 0.949 . S
C994 C1000 1.368 . S
C995 C979 1.349 . S
C995 H987 0.950 . S
C995 C993 1.327 . S
C996 C984 1.349 . S
C996 H990 0.950 . S
C996 C997 1.327 . S
C997 H991 0.950 . S
C997 C996 1.327 . S
C997 C1001 1.429 . S
C998 C981 1.574 . S
C998 H992 0.949 . S
C998 C1002 1.368 . S
C999 C980 1.429 . S
C999 C993 1.429 . S
C999 C1000 1.523 . S
C1000 C981 1.368 . S
C1000 C994 1.368 . S
C1000 C999 1.523 . S
C1001 C985 1.429 . S
C1001 C997 1.429 . S
C1001 C1002 1.523 . S
C1002 C986 1.368 . S
C1002 C998 1.368 . S
C1002 C1001 1.523 . S
H1003 C978 0.950 . S
H1004 C980 0.950 . S
H1005 C981 0.949 . S
H1006 C983 0.950 . S
H1007 C985 0.950 . S
C289 C6 2.645 . S
C294 C152 2.663 . S
C319 C21 2.935 . S
C324 C194 2.951 1_556 S
C354 C224 0.330 . S
C349 C49 0.478 . S
C379 C68 0.775 . S
C384 C258 0.790 . S
C414 C215 2.684 . S
C409 C2 2.662 . S
C444 C169 1.615 . S
C439 C30 1.417 . S
C474 C262 0.956 1_556 S
C469 C40 0.954 . S
C504 C228 1.022 . S
C499 C63 1.012 . S
C529 C11 2.018 . S
C534 C283 2.242 . S
C564 C190 1.246 . S
C559 C44 1.238 . S
C589 C59 0.755 . S
C594 C165 0.755 . S
C619 C25 2.485 . S
C624 C249 2.504 . S
C654 C181 2.890 . S
C649 C82 2.871 . S
C679 C101 2.594 . S
C684 C203 2.605 . S
C709 C125 0.737 . S
C714 C233 0.736 . S
C739 C144 0.653 . S
C744 C267 0.460 . S
C769 C87 1.474 . S
C774 C186 1.641 . S
C804 C160 2.641 . S
C799 C97 2.626 . S
C834 C271 0.941 . S
C829 C120 0.937 . S
C864 C237 1.078 . S
C859 C135 1.068 . S
C889 C78 2.623 . S
C894 C254 2.635 1_556 S
C924 C199 0.727 . S
C919 C116 0.728 . S
C954 C156 1.231 . S
C949 C139 1.212 . S
C979 C106 2.078 . S
C984 C220 2.199 . S
