# Generated by pormake.
# Topology anh, (6,3)-cn, num edge types: 1
# Building blocks:
#     Node 0, Type 0, BuildingBlock: BETDIP_clean_sbu_0, # of connection points: 6
#     Node 1, Type 0, BuildingBlock: BETDIP_clean_sbu_0, # of connection points: 6
#     Node 2, Type 0, BuildingBlock: BETDIP_clean_sbu_0, # of connection points: 6
#     Node 3, Type 1, BuildingBlock: ESEHIV_clean_linker_0, # of connection points: 3
#     Node 4, Type 1, BuildingBlock: ESEHIV_clean_linker_0, # of connection points: 3
#     Node 5, Type 1, BuildingBlock: ESEHIV_clean_linker_0, # of connection points: 3
#     Node 6, Type 1, BuildingBlock: ESEHIV_clean_linker_0, # of connection points: 3
#     Node 7, Type 1, BuildingBlock: ESEHIV_clean_linker_0, # of connection points: 3
#     Node 8, Type 1, BuildingBlock: ESEHIV_clean_linker_0, # of connection points: 3
#     Edge 9, Type (0, 1), BuildingBlock: TEMPAE_clean_linker_10, # of connection points: 2
#     Edge 10, Type (0, 1), BuildingBlock: TEMPAE_clean_linker_10, # of connection points: 2
#     Edge 11, Type (0, 1), BuildingBlock: TEMPAE_clean_linker_10, # of connection points: 2
#     Edge 12, Type (0, 1), BuildingBlock: TEMPAE_clean_linker_10, # of connection points: 2
#     Edge 13, Type (0, 1), BuildingBlock: TEMPAE_clean_linker_10, # of connection points: 2
#     Edge 14, Type (0, 1), BuildingBlock: TEMPAE_clean_linker_10, # of connection points: 2
#     Edge 15, Type (0, 1), BuildingBlock: TEMPAE_clean_linker_10, # of connection points: 2
#     Edge 16, Type (0, 1), BuildingBlock: TEMPAE_clean_linker_10, # of connection points: 2
#     Edge 17, Type (0, 1), BuildingBlock: TEMPAE_clean_linker_10, # of connection points: 2
#     Edge 18, Type (0, 1), BuildingBlock: TEMPAE_clean_linker_10, # of connection points: 2
#     Edge 19, Type (0, 1), BuildingBlock: TEMPAE_clean_linker_10, # of connection points: 2
#     Edge 20, Type (0, 1), BuildingBlock: TEMPAE_clean_linker_10, # of connection points: 2
#     Edge 21, Type (0, 1), BuildingBlock: TEMPAE_clean_linker_10, # of connection points: 2
#     Edge 22, Type (0, 1), BuildingBlock: TEMPAE_clean_linker_10, # of connection points: 2
#     Edge 23, Type (0, 1), BuildingBlock: TEMPAE_clean_linker_10, # of connection points: 2
#     Edge 24, Type (0, 1), BuildingBlock: TEMPAE_clean_linker_10, # of connection points: 2
#     Edge 25, Type (0, 1), BuildingBlock: TEMPAE_clean_linker_10, # of connection points: 2
#     Edge 26, Type (0, 1), BuildingBlock: TEMPAE_clean_linker_10, # of connection points: 2
# Relax obj value: 0.308
# Max RMSD: 0.192
# Mean RMSD: 0.163
data_MOF--net-anh--node1-BETDIP_clean_sbu_0--node2-ESEHIV_clean_linker_0--edge1-TEMPAE_clean_linker_10
_symmetry_space_group_name_H-M    P1
_symmetry_Int_Tables_number       1
_symmetry_cell_setting            triclinic
loop_
_symmetry_equiv_pos_as_xyz
'x, y, z'
_cell_length_a     29.900065
_cell_length_b     29.86764
_cell_length_c     51.929802
_cell_angle_alpha  89.992174
_cell_angle_beta   89.972319
_cell_angle_gamma 119.95006
loop_
_atom_site_label
_atom_site_type_symbol
_atom_site_fract_x
_atom_site_fract_y
_atom_site_fract_z
_atom_type_partial_charge
Tb0 Tb 0.12207 0.62547 0.16037 0.0
Tb1 Tb 1.07318 0.51715 0.16161 0.0
C2 C 0.18685 0.71752 0.16846 0.0
C3 C 0.24178 0.74437 0.16094 0.0
C4 C 0.27974 0.75766 0.17985 0.0
C5 C 0.33162 0.78098 0.17298 0.0
C6 C 0.34687 0.79235 0.14702 0.0
C7 C 0.3087 0.77679 0.12797 0.0
C8 C 0.25664 0.7529 0.13484 0.0
C9 C 0.09405 0.58303 0.11491 0.0
C10 C 0.19685 0.57125 0.15545 0.0
C11 C 1.01539 0.42277 0.15222 0.0
C12 C 0.96172 0.39407 0.14341 0.0
C13 C 0.94256 0.417 0.12637 0.0
C14 C 0.88952 0.39579 0.12311 0.0
C15 C 0.85497 0.35164 0.13706 0.0
C16 C 0.87449 0.3261 0.15216 0.0
C17 C 0.92756 0.34724 0.1553 0.0
C18 C 0.10037 0.55853 0.20847 0.0
C19 C 0.99995 0.57322 0.15735 0.0
O20 O 0.17361 0.68165 0.18611 0.0
O21 O 0.15346 0.70295 0.14961 0.0
O22 O 0.11457 0.57074 0.13254 0.0
O23 O 0.09028 0.62251 0.12202 0.0
O24 O 0.19299 0.61428 0.15662 0.0
O25 O 0.15254 0.52627 0.15676 0.0
O26 O 1.04883 0.4554 0.13576 0.0
O27 O 1.02155 0.44272 0.17523 0.0
O28 O 1.07984 0.57202 0.19091 0.0
O29 O 0.10634 0.5213 0.19966 0.0
O30 O 1.00487 0.5312 0.15315 0.0
O31 O 1.04286 0.61619 0.16449 0.0
H32 H 0.26934 0.75063 0.20004 0.0
H33 H 0.35992 0.793 0.18825 0.0
H34 H 0.31927 0.78507 0.10786 0.0
H35 H 0.22823 0.74189 0.11967 0.0
H36 H 0.96831 0.45307 0.11688 0.0
H37 H 0.87557 0.41575 0.11101 0.0
H38 H 0.84896 0.29231 0.16342 0.0
H39 H 0.94171 0.32914 0.16857 0.0
Tb40 Tb 0.61219 1.05041 0.4999 0.0
Tb41 Tb 0.55378 0.10073 0.4942 0.0
C42 C 0.65002 0.99937 0.51871 0.0
C43 C 0.64794 0.94929 0.51838 0.0
C44 C 0.65353 0.92951 0.54181 0.0
C45 C 0.66612 0.8905 0.54212 0.0
C46 C 0.67342 0.87067 0.51892 0.0
C47 C 0.66306 0.88721 0.49547 0.0
C48 C 0.65033 0.9263 0.49519 0.0
C49 C 0.59765 0.06474 0.45166 0.0
C50 C 0.48422 0.97566 0.491 0.0
C51 C 0.52493 0.16339 0.48223 0.0
C52 C 0.55317 0.21878 0.48889 0.0
C53 C 0.58143 0.25542 0.46969 0.0
C54 C 0.62305 0.30366 0.47642 0.0
C55 C 0.63678 0.3154 0.50238 0.0
C56 C 0.60503 0.28123 0.52154 0.0
C57 C 0.5634 0.23346 0.5149 0.0
C58 C 0.56929 0.08574 0.54335 0.0
C59 C 0.68231 0.17397 0.49216 0.0
O60 O 0.61201 1.00223 0.52961 0.0
O61 O 0.66729 1.0275 0.49789 0.0
O62 O 0.56556 1.05194 0.4696 0.0
O63 O 0.63847 0.06457 0.45977 0.0
O64 O 0.5294 0.97903 0.49818 0.0
O65 O 0.48599 1.02065 0.48599 0.0
O66 O 0.5499 0.14961 0.46643 0.0
O67 O 0.50488 0.13098 0.50147 0.0
O68 O 0.60229 0.10132 0.52535 0.0
O69 O 0.52634 0.0789 0.53393 0.0
O70 O 0.63591 0.16942 0.48769 0.0
O71 O 0.68183 0.13118 0.50015 0.0
H72 H 0.6521 0.94696 0.55987 0.0
H73 H 0.67428 0.87903 0.56051 0.0
H74 H 0.66765 0.87202 0.47734 0.0
H75 H 0.64582 0.94082 0.47683 0.0
H76 H 0.57436 0.24503 0.44951 0.0
H77 H 0.64671 0.32999 0.46137 0.0
H78 H 0.61416 0.29035 0.54174 0.0
H79 H 0.54229 0.20652 0.53025 0.0
Tb80 Tb 0.57275 0.58509 0.82595 0.0
Tb81 Tb 0.68204 0.64347 0.82949 0.0
C82 C 0.47797 0.53602 0.83531 0.0
C83 C 0.43181 0.52869 0.8489 0.0
C84 C 0.43117 0.53259 0.87589 0.0
C85 C 0.38421 0.5088 0.88918 0.0
C86 C 0.33774 0.48067 0.8756 0.0
C87 C 0.33843 0.48107 0.84857 0.0
C88 C 0.38516 0.50503 0.83532 0.0
C89 C 0.62005 0.60425 0.78138 0.0
C90 C 0.62698 0.71307 0.8236 0.0
C91 C 0.77522 0.67244 0.8219 0.0
C92 C 0.80213 0.64404 0.82865 0.0
C93 C 0.82515 0.62945 0.80928 0.0
C94 C 0.84105 0.5935 0.81451 0.0
C95 C 0.8343 0.57186 0.83924 0.0
C96 C 0.81277 0.58787 0.85872 0.0
C97 C 0.7969 0.62349 0.85352 0.0
C98 C 0.63902 0.62823 0.87575 0.0
C99 C 0.62676 0.51525 0.82202 0.0
O100 O 0.51293 0.53306 0.84912 0.0
O101 O 0.49726 0.5685 0.81605 0.0
O102 O 0.63085 0.63457 0.79997 0.0
O103 O 0.57895 0.56084 0.78672 0.0
O104 O 0.58389 0.66724 0.82824 0.0
O105 O 0.67127 0.71216 0.82113 0.0
O106 O 0.73978 0.65004 0.80422 0.0
O107 O 0.75918 0.68913 0.84115 0.0
O108 O 0.62419 0.59515 0.85756 0.0
O109 O 0.67945 0.66998 0.86799 0.0
O110 O 0.66951 0.56078 0.82693 0.0
O111 O 0.58257 0.51573 0.82025 0.0
H112 H 0.46681 0.5505 0.88679 0.0
H113 H 0.38443 0.50926 0.91004 0.0
H114 H 0.30285 0.46044 0.83772 0.0
H115 H 0.38486 0.5013 0.81455 0.0
H116 H 0.82871 0.64409 0.78985 0.0
H117 H 0.85776 0.58202 0.79917 0.0
H118 H 0.80606 0.57118 0.87783 0.0
H119 H 0.77818 0.63285 0.86876 0.0
H120 H 0.52955 1.05145 0.25874 0.0
H121 H 0.56662 0.21005 0.26828 0.0
H122 H 0.55678 0.14668 0.19279 0.0
C123 C 0.53667 0.08804 0.2509 0.0
C124 C 0.53953 0.0941 0.22417 0.0
C125 C 0.54567 0.12921 0.2673 0.0
C126 C 0.55814 0.17718 0.25621 0.0
C127 C 0.56279 0.18393 0.22936 0.0
C128 C 0.55229 0.14178 0.21351 0.0
H129 H 0.84708 0.74541 0.61494 0.0
H130 H 0.84739 0.60517 0.63151 0.0
H131 H 0.88074 0.66809 0.55495 0.0
C132 C 0.85619 0.71609 0.60898 0.0
C133 C 0.86711 0.71267 0.58297 0.0
C134 C 0.84869 0.6773 0.62658 0.0
C135 C 0.85644 0.63692 0.61846 0.0
C136 C 0.86639 0.63237 0.5924 0.0
C137 C 0.87517 0.67229 0.57524 0.0
H138 H 0.87985 0.35772 0.95107 0.0
H139 H 1.00479 0.33714 0.97504 0.0
H140 H 0.94321 0.2929 0.89857 0.0
C141 C 0.90361 0.34032 0.94754 0.0
C142 C 0.90599 0.32292 0.92271 0.0
C143 C 0.93784 0.34328 0.96674 0.0
C144 C 0.9745 0.32852 0.96112 0.0
C145 C 0.97808 0.31222 0.93623 0.0
C146 C 0.94034 0.30478 0.91794 0.0
H147 H 1.00956 0.51014 0.40894 0.0
H148 H 0.15883 0.64465 0.41012 0.0
H149 H 0.08619 0.5701 0.48221 0.0
C150 C 1.0428 0.53626 0.42021 0.0
C151 C 1.04088 0.52963 0.4474 0.0
C152 C 0.08516 0.5759 0.4066 0.0
C153 C 0.12711 0.61446 0.42082 0.0
C154 C 0.13009 0.6159 0.44813 0.0
C155 C 0.08548 0.57199 0.46143 0.0
H156 H 0.6204 0.18333 0.74373 0.0
H157 H 0.60616 1.03361 0.74394 0.0
H158 H 0.63099 0.11612 0.81597 0.0
C159 C 0.61995 0.15221 0.75457 0.0
C160 C 0.62486 0.15728 0.78176 0.0
C161 C 0.6145 0.10886 0.74074 0.0
C162 C 0.61395 0.0678 0.75462 0.0
C163 C 0.62193 0.06822 0.78159 0.0
C164 C 0.62577 0.11377 0.79531 0.0
H165 H 0.5314 0.58117 0.07556 0.0
H166 H 0.67356 0.58053 0.07492 0.0
H167 H 0.60139 0.57699 0.14816 0.0
C168 C 0.56161 0.58022 0.08654 0.0
C169 C 0.5574 0.57737 0.11379 0.0
C170 C 0.60271 0.58131 0.07258 0.0
C171 C 0.64328 0.58061 0.08623 0.0
C172 C 0.64669 0.5805 0.11354 0.0
C173 C 0.60181 0.57821 0.12734 0.0
C174 C 0.25734 0.52932 0.15522 0.0
C175 C 0.25105 0.57317 0.15167 0.0
C176 C 0.30594 0.52981 0.15189 0.0
C177 C 0.35281 0.57499 0.14353 0.0
C178 C 0.34658 0.61952 0.13981 0.0
C179 C 0.29774 0.61827 0.14422 0.0
C180 C 0.30584 0.4804 0.15784 0.0
C181 C 0.39163 0.66986 0.13085 0.0
C182 C 0.50035 0.60095 0.14606 0.0
C183 C 0.50484 0.57311 0.12483 0.0
C184 C 0.45279 0.60133 0.1526 0.0
C185 C 0.40582 0.57454 0.13754 0.0
C186 C 0.41042 0.5463 0.11631 0.0
C187 C 0.45733 0.54498 0.11097 0.0
C188 C 0.45409 0.63163 0.17601 0.0
C189 C 0.36576 0.51718 0.09811 0.0
H190 H 0.22367 0.49355 0.16111 0.0
H191 H 0.29619 0.65338 0.14123 0.0
H192 H 0.28741 0.45293 0.14168 0.0
H193 H 0.34515 0.48638 0.16098 0.0
H194 H 0.28233 0.4619 0.17532 0.0
H195 H 0.37839 0.69244 0.11935 0.0
H196 H 0.41227 0.69344 0.14794 0.0
H197 H 0.41926 0.66393 0.11911 0.0
H198 H 0.53459 0.62384 0.15755 0.0
H199 H 0.4566 0.52161 0.09486 0.0
H200 H 0.41499 0.61878 0.18384 0.0
H201 H 0.47235 0.6731 0.17078 0.0
H202 H 0.47805 0.62823 0.19138 0.0
H203 H 0.34352 0.47621 0.10429 0.0
H204 H 0.37976 0.51764 0.07823 0.0
H205 H 0.33943 0.53329 0.09752 0.0
C206 C 0.78512 0.23349 0.49331 0.0
C207 C 0.73553 0.22741 0.48801 0.0
C208 C 0.83391 0.28121 0.48917 0.0
C209 C 0.83682 0.32737 0.47888 0.0
C210 C 0.78688 0.3217 0.47374 0.0
C211 C 0.73858 0.27357 0.47827 0.0
C212 C 0.88321 0.28186 0.49589 0.0
C213 C 0.7842 0.36718 0.46309 0.0
C214 C 0.96579 0.47003 0.48222 0.0
C215 C 0.99118 0.47718 0.458 0.0
C216 C 0.91796 0.42277 0.48936 0.0
C217 C 0.89079 0.37923 0.4722 0.0
C218 C 0.91677 0.38589 0.44817 0.0
C219 C 0.96509 0.43209 0.44196 0.0
C220 C 0.89612 0.41926 0.51578 0.0
C221 C 0.89299 0.34352 0.42832 0.0
H222 H 0.78615 0.20019 0.50083 0.0
H223 H 0.70255 0.27216 0.4738 0.0
H224 H 0.90433 0.2838 0.47798 0.0
H225 H 0.90868 0.31666 0.50746 0.0
H226 H 0.87599 0.24693 0.50684 0.0
H227 H 0.74408 0.35737 0.45843 0.0
H228 H 0.80021 0.39908 0.47735 0.0
H229 H 0.80813 0.38169 0.44541 0.0
H230 H 0.98286 0.50176 0.49579 0.0
H231 H 0.98262 0.43223 0.42373 0.0
H232 H 0.8922 0.38478 0.52593 0.0
H233 H 0.8569 0.41396 0.51395 0.0
H234 H 0.9204 0.45408 0.5276 0.0
H235 H 0.89189 0.30819 0.43576 0.0
H236 H 0.91462 0.35451 0.40984 0.0
H237 H 0.85254 0.33362 0.42449 0.0
C238 C 0.6711 0.81557 0.82072 0.0
C239 C 0.62585 0.76585 0.81996 0.0
C240 C 0.67138 0.86408 0.81722 0.0
C241 C 0.62537 0.86645 0.81155 0.0
C242 C 0.57949 0.81617 0.81052 0.0
C243 C 0.58018 0.76829 0.81506 0.0
C244 C 0.72258 0.91311 0.81991 0.0
C245 C 0.5284 0.81201 0.80423 0.0
C246 C 0.60526 0.99171 0.81545 0.0
C247 C 0.62655 1.01977 0.79217 0.0
C248 C 0.60528 0.94401 0.82217 0.0
C249 C 0.62584 0.91986 0.80537 0.0
C250 C 0.64763 0.94844 0.7821 0.0
C251 C 0.64878 0.9965 0.77644 0.0
C252 C 0.58233 0.9197 0.84775 0.0
C253 C 0.66988 0.92833 0.76215 0.0
H254 H 0.70747 0.81706 0.82444 0.0
H255 H 0.5441 0.732 0.81412 0.0
H256 H 0.74553 0.91913 0.80214 0.0
H257 H 0.71853 0.94759 0.82325 0.0
H258 H 0.7449 0.90962 0.83611 0.0
H259 H 0.50106 0.77371 0.79582 0.0
H260 H 0.51095 0.81639 0.82222 0.0
H261 H 0.53296 0.84259 0.79055 0.0
H262 H 0.58733 1.00633 0.82854 0.0
H263 H 0.66734 1.01591 0.75868 0.0
H264 H 0.59594 0.89331 0.85452 0.0
H265 H 0.53968 0.89748 0.84594 0.0
H266 H 0.59187 0.94996 0.86258 0.0
H267 H 0.71163 0.94457 0.766 0.0
H268 H 0.66611 0.94072 0.74248 0.0
H269 H 0.65089 0.88554 0.76239 0.0
C270 C 0.9062 0.53792 0.13653 0.0
C271 C 0.94667 0.57312 0.15307 0.0
C272 C 0.85879 0.53932 0.13169 0.0
C273 C 0.84751 0.5759 0.14394 0.0
C274 C 0.88806 0.6112 0.16078 0.0
C275 C 0.93564 0.6098 0.16477 0.0
C276 C 0.82096 0.50183 0.11244 0.0
C277 C 0.88144 0.65173 0.17468 0.0
C278 C 0.7464 0.60947 0.11059 0.0
C279 C 0.69861 0.58301 0.12451 0.0
C280 C 0.79281 0.60763 0.11667 0.0
C281 C 0.79596 0.57912 0.13809 0.0
C282 C 0.74937 0.55541 0.15359 0.0
C283 C 0.70258 0.55686 0.14662 0.0
C284 C 0.83977 0.63793 0.09995 0.0
C285 C 0.74808 0.52937 0.17858 0.0
H286 H 0.91212 0.5095 0.12653 0.0
H287 H 0.96466 0.63805 0.17751 0.0
H288 H 0.78102 0.48364 0.12007 0.0
H289 H 0.82211 0.52292 0.09466 0.0
H290 H 0.82998 0.47125 0.10703 0.0
H291 H 0.91541 0.67723 0.18676 0.0
H292 H 0.87506 0.67587 0.16055 0.0
H293 H 0.84672 0.63275 0.18718 0.0
H294 H 0.74817 0.63282 0.09427 0.0
H295 H 0.66865 0.53656 0.15867 0.0
H296 H 0.84947 0.61118 0.08987 0.0
H297 H 0.87349 0.66387 0.11205 0.0
H298 H 0.83395 0.66162 0.08529 0.0
H299 H 0.71281 0.49071 0.17949 0.0
H300 H 0.74549 0.55239 0.19469 0.0
H301 H 0.78269 0.52555 0.18167 0.0
C302 C 0.42431 0.87278 0.49544 0.0
C303 C 0.43191 0.92146 0.48684 0.0
C304 C 0.37657 0.82369 0.49186 0.0
C305 C 0.33236 0.81943 0.47839 0.0
C306 C 0.34016 0.86845 0.46943 0.0
C307 C 0.38776 0.91711 0.47394 0.0
C308 C 0.3745 0.77608 0.50292 0.0
C309 C 0.29781 0.86983 0.45441 0.0
C310 C 0.2308 0.68251 0.44688 0.0
C311 C 0.18217 0.66411 0.45961 0.0
C312 C 0.27752 0.73082 0.45256 0.0
C313 C 0.28024 0.76505 0.47264 0.0
C314 C 0.23209 0.74601 0.48652 0.0
C315 C 0.18504 0.69776 0.47986 0.0
C316 C 0.32448 0.74567 0.43616 0.0
C317 C 0.22904 0.77691 0.50864 0.0
H318 H 0.45602 0.8727 0.50549 0.0
H319 H 0.39049 0.95243 0.46674 0.0
H320 H 0.33438 0.74421 0.50604 0.0
H321 H 0.39414 0.76252 0.48951 0.0
H322 H 0.39552 0.78514 0.52154 0.0
H323 H 0.31114 0.90793 0.44511 0.0
H324 H 0.28263 0.83941 0.43934 0.0
H325 H 0.26548 0.86191 0.46758 0.0
H326 H 0.2325 0.65898 0.43148 0.0
H327 H 0.14984 0.68731 0.49035 0.0
H328 H 0.35309 0.74057 0.44745 0.0
H329 H 0.34292 0.78691 0.43037 0.0
H330 H 0.31503 0.72161 0.41851 0.0
H331 H 0.26731 0.80199 0.5176 0.0
H332 H 0.20199 0.75099 0.52364 0.0
H333 H 0.2138 0.80171 0.50152 0.0
C334 C 0.5912 0.42127 0.80237 0.0
C335 C 0.62772 0.46259 0.81807 0.0
C336 C 0.59133 0.37312 0.79817 0.0
C337 C 0.62767 0.36182 0.81045 0.0
C338 C 0.66374 0.4029 0.82687 0.0
C339 C 0.66407 0.45158 0.82997 0.0
C340 C 0.55202 0.33388 0.78005 0.0
C341 C 0.7016 0.39475 0.84223 0.0
C342 C 0.59976 0.21399 0.813 0.0
C343 C 0.63029 0.21014 0.79293 0.0
C344 C 0.59925 0.2616 0.8192 0.0
C345 C 0.62935 0.30933 0.80521 0.0
C346 C 0.66106 0.30584 0.78552 0.0
C347 C 0.66119 0.25829 0.77992 0.0
C348 C 0.56508 0.26035 0.84078 0.0
C349 C 0.69438 0.35276 0.7693 0.0
H350 H 0.56234 0.42691 0.79265 0.0
H351 H 0.69266 0.48092 0.84248 0.0
H352 H 0.57192 0.32546 0.76434 0.0
H353 H 0.52756 0.29712 0.79047 0.0
H354 H 0.52673 0.34723 0.77142 0.0
H355 H 0.73085 0.43059 0.85198 0.0
H356 H 0.68033 0.36487 0.85711 0.0
H357 H 0.72128 0.38004 0.82964 0.0
H358 H 0.57447 0.17903 0.82354 0.0
H359 H 0.68564 0.25883 0.76439 0.0
H360 H 0.53312 0.2648 0.8328 0.0
H361 H 0.58727 0.29318 0.85412 0.0
H362 H 0.5483 0.22366 0.85186 0.0
H363 H 0.66932 0.36136 0.75694 0.0
H364 H 0.72129 0.34715 0.75676 0.0
H365 H 0.71717 0.38704 0.7817 0.0
C366 C 0.7415 0.85209 0.50322 0.0
C367 C 0.69925 0.83935 0.51948 0.0
C368 C 0.77384 0.83131 0.50737 0.0
C369 C 0.76399 0.79779 0.52849 0.0
C370 C 0.71917 0.78174 0.54371 0.0
C371 C 0.68708 0.80241 0.53885 0.0
C372 C 0.82036 0.84808 0.49026 0.0
C373 C 0.70695 0.74547 0.56629 0.0
C374 C 0.82137 0.7138 0.54298 0.0
C375 C 0.8545 0.74115 0.56352 0.0
C376 C 0.79561 0.73442 0.5292 0.0
C377 C 0.80234 0.78293 0.53651 0.0
C378 C 0.83998 0.81312 0.55517 0.0
C379 C 0.86605 0.79199 0.56831 0.0
C380 C 0.75708 0.70179 0.5088 0.0
C381 C 0.84867 0.86541 0.56328 0.0
H382 H 0.75139 0.88089 0.48828 0.0
H383 H 0.65389 0.79174 0.55111 0.0
H384 H 0.8552 0.87835 0.50022 0.0
H385 H 0.82685 0.81532 0.48611 0.0
H386 H 0.81624 0.86432 0.47175 0.0
H387 H 0.6693 0.73492 0.57537 0.0
H388 H 0.70603 0.70952 0.56004 0.0
H389 H 0.73764 0.76398 0.58109 0.0
H390 H 0.81163 0.67432 0.53907 0.0
H391 H 0.89232 0.81362 0.5838 0.0
H392 H 0.75746 0.72596 0.49248 0.0
H393 H 0.71769 0.68232 0.5172 0.0
H394 H 0.76493 0.67154 0.5013 0.0
H395 H 0.85264 0.8894 0.5462 0.0
H396 H 0.88363 0.8866 0.57548 0.0
H397 H 0.81475 0.86033 0.57444 0.0
C398 C 0.87079 0.53214 0.86845 0.0
C399 C 0.84734 0.53108 0.84495 0.0
C400 C 0.87706 0.4908 0.87614 0.0
C401 C 0.85993 0.44733 0.85979 0.0
C402 C 0.83887 0.44707 0.83536 0.0
C403 C 0.83271 0.48911 0.82819 0.0
C404 C 0.90071 0.49312 0.90219 0.0
C405 C 0.82217 0.40218 0.8171 0.0
C406 C 0.92177 0.37159 0.8818 0.0
C407 C 0.8866 0.34023 0.90081 0.0
C408 C 0.91113 0.40289 0.8659 0.0
C409 C 0.86402 0.40251 0.86902 0.0
C410 C 0.82575 0.36612 0.88584 0.0
C411 C 0.83766 0.3355 0.90173 0.0
C412 C 0.95332 0.4412 0.84843 0.0
C413 C 0.77383 0.3625 0.88852 0.0
H414 H 0.88329 0.56507 0.88115 0.0
H415 H 0.81445 0.48806 0.81001 0.0
H416 H 0.87204 0.46171 0.91469 0.0
H417 H 0.93432 0.48718 0.9001 0.0
H418 H 0.91374 0.53059 0.9121 0.0
H419 H 0.80302 0.40617 0.79964 0.0
H420 H 0.8562 0.39939 0.81095 0.0
H421 H 0.79537 0.36534 0.82691 0.0
H422 H 0.95994 0.37598 0.88105 0.0
H423 H 0.81018 0.31068 0.91614 0.0
H424 H 0.97511 0.47874 0.8586 0.0
H425 H 0.93736 0.44795 0.83054 0.0
H426 H 0.98092 0.42801 0.84318 0.0
H427 H 0.77855 0.40059 0.89392 0.0
H428 H 0.74906 0.33352 0.90315 0.0
H429 H 0.75374 0.35128 0.86971 0.0
C430 C 0.44104 0.83095 0.15574 0.0
C431 C 0.40134 0.83067 0.14121 0.0
C432 C 0.48435 0.87807 0.16261 0.0
C433 C 0.4864 0.92447 0.15499 0.0
C434 C 0.45394 0.92326 0.13489 0.0
C435 C 0.41133 0.87576 0.12806 0.0
C436 C 0.52199 0.87828 0.18193 0.0
C437 C 0.4573 0.97215 0.1247 0.0
C438 C 0.48277 1.0039 0.21053 0.0
C439 C 0.52897 1.05021 0.20738 0.0
C440 C 0.46958 0.96233 0.19403 0.0
C441 C 0.50409 0.967 0.17399 0.0
C442 C 0.552 1.01324 0.17134 0.0
C443 C 0.56378 0.05466 0.18806 0.0
C444 C 0.41787 0.91395 0.19791 0.0
C445 C 0.59129 1.01907 0.1514 0.0
H446 H 0.43475 0.79555 0.16481 0.0
H447 H 0.38188 0.8757 0.11587 0.0
H448 H 0.56077 0.91283 0.17934 0.0
H449 H 0.50836 0.87942 0.20168 0.0
H450 H 0.52505 0.84283 0.18019 0.0
H451 H 0.43809 0.96565 0.10566 0.0
H452 H 0.4377 0.98536 0.13837 0.0
H453 H 0.49805 1.0034 0.12284 0.0
H454 H 0.45608 1.00082 0.22551 0.0
H455 H 0.60018 0.09048 0.18609 0.0
H456 H 0.42376 0.88108 0.20262 0.0
H457 H 0.39452 0.90434 0.18006 0.0
H458 H 0.39516 0.91793 0.21378 0.0
H459 H 0.61598 1.00466 0.15967 0.0
H460 H 0.61672 0.06026 0.14603 0.0
H461 H 0.57307 0.99644 0.13372 0.0
C462 C 0.69665 0.41066 0.50264 0.0
C463 C 0.68568 0.3612 0.50995 0.0
C464 C 0.73776 0.4544 0.51405 0.0
C465 C 0.76837 0.44795 0.53293 0.0
C466 C 0.76077 0.39815 0.5381 0.0
C467 C 0.71924 0.35524 0.5266 0.0
C468 C 0.74532 0.50708 0.50773 0.0
C469 C 0.79311 0.38925 0.55751 0.0
C470 C 0.87485 0.57496 0.55979 0.0
C471 C 0.84989 0.58059 0.5814 0.0
C472 C 0.8502 0.53072 0.54424 0.0
C473 C 0.79976 0.49107 0.55078 0.0
C474 C 0.77624 0.49485 0.57372 0.0
C475 C 0.80174 0.53931 0.58878 0.0
C476 C 0.87735 0.52938 0.52 0.0
C477 C 0.72186 0.45432 0.58113 0.0
H478 H 0.67097 0.415 0.48944 0.0
H479 H 0.71146 0.31674 0.53161 0.0
H480 H 0.73668 0.5234 0.52499 0.0
H481 H 0.7861 0.53375 0.50232 0.0
H482 H 0.72009 0.5057 0.4917 0.0
H483 H 0.79754 0.35584 0.55175 0.0
H484 H 0.83197 0.42377 0.55984 0.0
H485 H 0.77341 0.37985 0.57648 0.0
H486 H 0.91214 0.6067 0.55401 0.0
H487 H 0.78145 0.54351 0.60507 0.0
H488 H 0.88399 0.56218 0.5074 0.0
H489 H 0.85568 0.49308 0.5089 0.0
H490 H 0.91595 0.53506 0.52498 0.0
H491 H 0.69456 0.45063 0.56568 0.0
H492 H 0.70906 0.46367 0.59943 0.0
H493 H 0.71916 0.41616 0.58337 0.0
C494 C 0.25892 0.39525 0.88201 0.0
C495 C 0.2889 0.44722 0.88923 0.0
C496 C 0.20969 0.364 0.89241 0.0
C497 C 0.1899 0.38565 0.91013 0.0
C498 C 0.22163 0.43701 0.91897 0.0
C499 C 0.27111 0.46725 0.90845 0.0
C500 C 0.1774 0.30923 0.88284 0.0
C501 C 0.20177 0.46142 0.93786 0.0
C502 C 1.05019 0.34869 0.90464 0.0
C503 C 1.02881 0.3202 0.9273 0.0
C504 C 0.10199 0.36809 0.89841 0.0
C505 C 0.13367 0.35891 0.91524 0.0
C506 C 0.112 0.32742 0.93727 0.0
C507 C 1.05965 0.30849 0.94313 0.0
C508 C 0.12348 0.40145 0.87464 0.0
C509 C 0.1446 0.31617 0.95538 0.0
H510 H 0.27343 0.37949 0.86756 0.0
H511 H 0.29465 0.50734 0.91416 0.0
H512 H 0.15612 0.28265 0.89896 0.0
H513 H 0.14839 0.30733 0.86889 0.0
H514 H 0.20127 0.29537 0.87305 0.0
H515 H 0.2332 0.49873 0.94545 0.0
H516 H 0.17292 0.46869 0.92817 0.0
H517 H 0.18216 0.43503 0.95428 0.0
H518 H 1.02755 0.3593 0.89252 0.0
H519 H 1.04344 0.28646 0.96063 0.0
H520 H 0.14383 0.38694 0.86233 0.0
H521 H 0.15201 0.44157 0.88037 0.0
H522 H 0.09297 0.40258 0.86292 0.0
H523 H 0.17025 0.30603 0.94449 0.0
H524 H 0.12058 0.28416 0.96887 0.0
H525 H 0.16961 0.35123 0.96687 0.0
C526 C 0.78906 0.37736 0.14578 0.0
C527 C 0.80048 0.33817 0.14026 0.0
C528 C 0.74177 0.36575 0.15687 0.0
C529 C 0.70578 0.31392 0.16293 0.0
C530 C 0.71463 0.27375 0.15453 0.0
C531 C 0.76183 0.28649 0.143 0.0
C532 C 0.73223 0.40926 0.1638 0.0
C533 C 0.67707 0.21759 0.16045 0.0
C534 C 0.64176 0.2683 0.22631 0.0
C535 C 0.5912 0.23591 0.21779 0.0
C536 C 0.67984 0.30103 0.20896 0.0
C537 C 0.66604 0.30183 0.18293 0.0
C538 C 0.61348 0.27847 0.17603 0.0
C539 C 0.57616 0.245 0.19364 0.0
C540 C 0.73556 0.32787 0.21752 0.0
C541 C 0.59731 0.28318 0.14916 0.0
H542 H 0.8188 0.41744 0.14379 0.0
H543 H 0.7702 0.25612 0.13814 0.0
H544 H 0.71398 0.40364 0.18302 0.0
H545 H 0.76862 0.44697 0.16369 0.0
H546 H 0.70551 0.41074 0.14945 0.0
H547 H 0.68841 0.19117 0.15123 0.0
H548 H 0.67507 0.21123 0.18159 0.0
H549 H 0.63778 0.20688 0.15376 0.0
H550 H 0.65327 0.26226 0.24521 0.0
H551 H 0.53654 0.22108 0.18736 0.0
H552 H 0.75617 0.36855 0.21081 0.0
H553 H 0.75513 0.3081 0.20897 0.0
H554 H 0.73921 0.32762 0.23881 0.0
H555 H 0.62341 0.32222 0.14115 0.0
H556 H 0.557 0.2757 0.14886 0.0
H557 H 0.59939 0.25442 0.13645 0.0
C558 C 0.08598 0.52038 0.08155 0.0
C559 C 1.06632 0.54911 0.09318 0.0
C560 C 1.05913 0.48584 0.06157 0.0
C561 C 1.01045 0.47845 0.05382 0.0
C562 C 0.98973 0.50644 0.0661 0.0
C563 C 1.01862 0.54253 0.08529 0.0
C564 C 0.08305 0.45751 0.04863 0.0
C565 C 0.93681 0.49752 0.05935 0.0
C566 C 0.97416 0.43033 0.98555 0.0
C567 C 0.94711 0.37678 0.98922 0.0
C568 C 0.99285 0.46408 0.00656 0.0
C569 C 0.98324 0.44359 0.03184 0.0
C570 C 0.95301 0.38944 0.03563 0.0
C571 C 0.93581 0.35645 0.01415 0.0
C572 C 1.02618 0.52135 0.00161 0.0
C573 C 0.93983 0.36636 0.0623 0.0
H574 H 0.12277 0.52544 0.08792 0.0
H575 H 1.003 0.56404 0.09483 0.0
H576 H 1.05781 0.41523 0.05123 0.0
H577 H 0.08665 0.4654 0.02762 0.0
H578 H 0.12188 0.4689 0.05645 0.0
H579 H 0.92526 0.52051 0.07165 0.0
H580 H 0.93587 0.50777 0.03891 0.0
H581 H 0.9078 0.45598 0.06163 0.0
H582 H 0.98334 0.44567 0.96612 0.0
H583 H 0.91485 0.31489 0.01677 0.0
H584 H 1.06626 0.53439 0.00801 0.0
H585 H 1.01204 0.54335 0.01286 0.0
H586 H 1.0271 0.5312 0.98091 0.0
H587 H 0.97502 0.38112 0.07435 0.0
H588 H 0.92002 0.32348 0.06197 0.0
H589 H 0.91394 0.37806 0.07169 0.0
C590 C 0.54565 0.08077 0.41966 0.0
C591 C 0.58777 0.07397 0.42503 0.0
C592 C 0.53755 0.09352 0.39485 0.0
C593 C 0.56998 0.09533 0.37458 0.0
C594 C 0.61118 0.08599 0.37967 0.0
C595 C 0.62044 0.07676 0.40506 0.0
C596 C 0.49465 0.10549 0.39047 0.0
C597 C 0.64491 0.08495 0.3583 0.0
C598 C 0.51601 0.07387 0.30701 0.0
C599 C 0.54697 0.12266 0.29571 0.0
C600 C 0.52336 0.06434 0.3326 0.0
C601 C 0.55995 0.10547 0.34789 0.0
C602 C 0.58809 0.1558 0.33742 0.0
C603 C 0.58231 0.16356 0.31128 0.0
C604 C 0.49371 1.00972 0.34283 0.0
C605 C 0.62534 0.2012 0.35364 0.0
H606 H 0.51933 0.07692 0.43494 0.0
H607 H 0.65258 0.07073 0.40919 0.0
H608 H 0.50869 0.14108 0.37872 0.0
H609 H 0.46268 0.07345 0.37973 0.0
H610 H 0.47892 0.11084 0.40887 0.0
H611 H 0.67315 0.07388 0.36532 0.0
H612 H 0.62059 0.0571 0.34319 0.0
H613 H 0.66645 0.12352 0.34909 0.0
H614 H 0.48705 1.04235 0.29562 0.0
H615 H 0.60696 0.20138 0.30301 0.0
H616 H 0.46908 1.00764 0.35925 0.0
H617 H 0.52102 0.99765 0.35008 0.0
H618 H 0.46873 0.98165 0.32794 0.0
H619 H 0.60695 0.20178 0.37212 0.0
H620 H 0.63874 0.23864 0.34362 0.0
H621 H 0.65957 0.19758 0.35834 0.0
C622 C 0.64664 0.57544 0.74201 0.0
C623 C 0.65359 0.61508 0.75877 0.0
C624 C 0.68041 0.5856 0.7212 0.0
C625 C 0.72186 0.63653 0.71724 0.0
C626 C 0.72893 0.67657 0.7342 0.0
C627 C 0.69448 0.66539 0.75468 0.0
C628 C 0.67155 0.54202 0.70336 0.0
C629 C 0.77262 0.73131 0.73061 0.0
C630 C 0.83287 0.65666 0.67381 0.0
C631 C 0.81952 0.67121 0.65068 0.0
C632 C 0.80168 0.64561 0.69582 0.0
C633 C 0.75598 0.64873 0.69444 0.0
C634 C 0.74264 0.66382 0.67121 0.0
C635 C 0.77447 0.67477 0.64965 0.0
C636 C 0.81717 0.63001 0.72042 0.0
C637 C 0.69412 0.66738 0.66894 0.0
H638 H 0.61516 0.53648 0.74531 0.0
H639 H 0.69981 0.6961 0.76766 0.0
H640 H 0.66376 0.55048 0.68359 0.0
H641 H 0.70674 0.53851 0.70238 0.0
H642 H 0.63861 0.50435 0.7096 0.0
H643 H 0.77409 0.75744 0.74623 0.0
H644 H 0.81007 0.73204 0.73005 0.0
H645 H 0.76821 0.74672 0.71193 0.0
H646 H 0.8674 0.65345 0.67457 0.0
H647 H 0.763 0.6844 0.63162 0.0
H648 H 0.78686 0.59055 0.72612 0.0
H649 H 0.82065 0.65646 0.73627 0.0
H650 H 0.85441 0.6305 0.71846 0.0
H651 H 0.65979 0.6291 0.6729 0.0
H652 H 0.68972 0.68039 0.64953 0.0
H653 H 0.69445 0.69478 0.68346 0.0
C654 C 0.54003 0.05505 0.58867 0.0
C655 C 0.57965 0.08816 0.57183 0.0
C656 C 0.547 0.05785 0.6157 0.0
C657 C 0.59426 0.09617 0.62669 0.0
C658 C 0.63445 0.12996 0.60971 0.0
C659 C 0.62703 0.12498 0.58261 0.0
C660 C 0.50348 1.0196 0.63255 0.0
C661 C 0.68489 0.17253 0.6202 0.0
C662 C 0.58764 0.13136 0.69768 0.0
C663 C 0.60992 0.10641 0.7113 0.0
C664 C 0.58394 0.12977 0.67042 0.0
C665 C 0.60106 0.10094 0.65581 0.0
C666 C 0.62305 0.07525 0.66928 0.0
C667 C 0.62812 0.07911 0.69645 0.0
C668 C 0.56135 0.15899 0.65721 0.0
C669 C 0.6407 1.04282 0.65497 0.0
H670 H 0.50329 1.02642 0.58062 0.0
H671 H 0.65772 0.15123 0.56987 0.0
H672 H 0.51757 0.99977 0.64552 0.0
H673 H 0.48922 1.04013 0.64488 0.0
H674 H 0.47059 0.98997 0.62112 0.0
H675 H 0.71207 0.19613 0.60468 0.0
H676 H 0.67758 0.19828 0.63275 0.0
H677 H 0.70365 0.15596 0.63227 0.0
H678 H 0.57224 0.15188 0.70825 0.0
H679 H 0.64682 0.06061 0.70598 0.0
H680 H 0.52427 0.13141 0.64791 0.0
H681 H 0.58776 0.18403 0.64181 0.0
H682 H 0.55422 0.18344 0.67082 0.0
H683 H 0.60827 1.01272 0.64352 0.0
H684 H 0.65519 1.02358 0.66813 0.0
H685 H 0.67188 0.06725 0.64125 0.0
C686 C 0.66577 0.65067 0.92206 0.0
C687 C 0.62916 0.61663 0.90417 0.0
C688 C 0.65929 0.64204 0.94887 0.0
C689 C 0.61427 0.59868 0.95874 0.0
C690 C 0.57666 0.56425 0.94084 0.0
C691 C 0.58478 0.57323 0.91387 0.0
C692 C 0.70113 0.67958 0.96672 0.0
C693 C 0.52751 0.51812 0.95021 0.0
C694 C 0.6231 0.55783 0.02826 0.0
C695 C 0.60339 0.5836 0.04317 0.0
C696 C 0.62563 0.56126 0.001 0.0
C697 C 0.60714 0.59036 0.98771 0.0
C698 C 0.58581 0.61517 0.00249 0.0
C699 C 0.58471 0.612 0.02974 0.0
C700 C 0.64943 0.53463 0.98643 0.0
C701 C 0.56507 0.64627 0.98951 0.0
H702 H 0.7004 0.68432 0.91507 0.0
H703 H 0.55606 0.5467 0.90043 0.0
H704 H 0.68544 0.69797 0.97965 0.0
H705 H 0.715 0.65869 0.97908 0.0
H706 H 0.73462 0.71046 0.95611 0.0
H707 H 0.50114 0.49611 0.93413 0.0
H708 H 0.53671 0.49187 0.96118 0.0
H709 H 0.50704 0.53087 0.96354 0.0
H710 H 0.63671 0.53471 0.03787 0.0
H711 H 0.57011 0.63303 0.04053 0.0
H712 H 0.68443 0.56382 0.97608 0.0
H713 H 0.62205 0.5083 0.97172 0.0
H714 H 0.66045 0.512 0.99929 0.0
H715 H 0.59726 0.68117 0.98048 0.0
H716 H 0.54492 0.65876 0.00324 0.0
H717 H 0.5378 0.6233 0.97394 0.0
C718 C 0.13463 0.56271 0.25332 0.0
C719 C 0.10006 0.56805 0.237 0.0
C720 C 0.13297 0.56693 0.28043 0.0
C721 C 0.09455 0.57497 0.29209 0.0
C722 C 1.05961 0.58069 0.27565 0.0
C723 C 1.06325 0.57797 0.24845 0.0
C724 C 0.17225 0.56215 0.29666 0.0
C725 C 1.01702 0.58781 0.28684 0.0
C726 C 1.06111 0.52973 0.36279 0.0
C727 C 0.08597 0.57619 0.37704 0.0
C728 C 1.06215 0.52902 0.33548 0.0
C729 C 0.09022 0.57571 0.32136 0.0
C730 C 0.11563 0.62272 0.33543 0.0
C731 C 0.11252 0.62249 0.36273 0.0
C732 C 1.03341 0.47781 0.32172 0.0
C733 C 0.14713 0.67355 0.32162 0.0
H734 H 0.16323 0.55502 0.2448 0.0
H735 H 1.03584 0.58148 0.23618 0.0
H736 H 0.19162 0.5956 0.30994 0.0
H737 H 0.15269 0.52678 0.30867 0.0
H738 H 0.20212 0.56019 0.28477 0.0
H739 H 0.99346 0.59254 0.27171 0.0
H740 H 0.99131 0.55379 0.29886 0.0
H741 H 1.03344 0.62216 0.29959 0.0
H742 H 1.04128 0.49323 0.37293 0.0
H743 H 0.13111 0.65912 0.37277 0.0
H744 H 1.06124 0.46927 0.31189 0.0
H745 H 1.0079 0.47949 0.30669 0.0
H746 H 1.00954 0.44547 0.33507 0.0
H747 H 0.17785 0.67253 0.31007 0.0
H748 H 0.16544 0.70676 0.33513 0.0
H749 H 0.12234 0.68008 0.30804 0.0
loop_
_geom_bond_atom_site_label_1
_geom_bond_atom_site_label_2
_geom_bond_distance
_geom_bond_site_symmetry_2
_ccdc_geom_bond_type
Tb0 C2 2.809 . S
Tb0 O20 2.484 . S
Tb0 O21 2.440 . S
Tb0 O22 2.658 . S
Tb0 O23 2.409 . S
Tb0 O24 2.378 . S
Tb0 O28 2.325 . S
Tb0 O31 2.341 1_455 S
Tb1 C11 2.809 . S
Tb1 O22 2.325 1_655 S
Tb1 O25 2.341 1_655 S
Tb1 O26 2.484 . S
Tb1 O27 2.440 . S
Tb1 O28 2.658 1_655 S
Tb1 O29 2.409 . S
Tb1 O30 2.378 . S
C2 Tb0 2.809 . S
C2 C3 1.514 . S
C2 O20 1.248 . S
C2 O21 1.266 . S
C3 C2 1.514 . S
C3 C4 1.359 . S
C3 C8 1.348 . S
C4 C3 1.359 . S
C4 C5 1.380 . S
C4 H32 0.929 . S
C5 C4 1.380 . S
C5 C6 1.347 . S
C5 H33 0.931 . S
C6 C5 1.347 . S
C6 C7 1.369 . S
C7 C6 1.369 . S
C7 C8 1.408 . S
C7 H34 0.930 . S
C8 C3 1.348 . S
C8 C7 1.408 . S
C8 H35 0.930 . S
C9 O22 1.281 . S
C9 O23 1.254 . S
C10 O24 1.236 . S
C10 O25 1.266 . S
C11 Tb1 2.809 . S
C11 C12 1.514 . S
C11 O26 1.248 . S
C11 O27 1.266 . S
C12 C11 1.514 . S
C12 C13 1.359 . S
C12 C17 1.348 . S
C13 C12 1.359 . S
C13 C14 1.380 . S
C13 H36 0.929 . S
C14 C13 1.380 . S
C14 C15 1.347 . S
C14 H37 0.931 . S
C15 C14 1.347 . S
C15 C16 1.369 . S
C16 C15 1.369 . S
C16 C17 1.408 . S
C16 H38 0.930 . S
C17 C12 1.348 . S
C17 C16 1.408 . S
C17 H39 0.930 . S
C18 O28 1.281 . S
C18 O29 1.254 1_455 S
C19 O30 1.236 . S
C19 O31 1.266 . S
O20 Tb0 2.484 . S
O20 C2 1.248 . S
O21 Tb0 2.440 . S
O21 C2 1.266 . S
O22 Tb0 2.658 . S
O22 Tb1 2.325 1_455 S
O22 C9 1.281 . S
O23 Tb0 2.409 . S
O23 C9 1.254 . S
O24 Tb0 2.378 . S
O24 C10 1.236 . S
O25 Tb1 2.341 1_455 S
O25 C10 1.266 . S
O26 Tb1 2.484 . S
O26 C11 1.248 . S
O27 Tb1 2.440 . S
O27 C11 1.266 . S
O28 Tb0 2.325 . S
O28 Tb1 2.658 1_455 S
O28 C18 1.281 . S
O29 Tb1 2.409 . S
O29 C18 1.254 1_655 S
O30 Tb1 2.378 . S
O30 C19 1.236 . S
O31 Tb0 2.341 1_655 S
O31 C19 1.266 . S
H32 C4 0.929 . S
H33 C5 0.931 . S
H34 C7 0.930 . S
H35 C8 0.930 . S
H36 C13 0.929 . S
H37 C14 0.931 . S
H38 C16 0.930 . S
H39 C17 0.930 . S
Tb40 C42 2.809 . S
Tb40 O60 2.484 . S
Tb40 O61 2.440 . S
Tb40 O62 2.658 1_565 S
Tb40 O63 2.409 1_565 S
Tb40 O64 2.378 . S
Tb40 O68 2.325 1_565 S
Tb40 O71 2.341 1_565 S
Tb41 C51 2.809 . S
Tb41 O62 2.325 . S
Tb41 O65 2.341 1_545 S
Tb41 O66 2.484 . S
Tb41 O67 2.440 . S
Tb41 O68 2.658 . S
Tb41 O69 2.409 . S
Tb41 O70 2.378 . S
C42 Tb40 2.809 . S
C42 C43 1.514 . S
C42 O60 1.248 . S
C42 O61 1.266 . S
C43 C42 1.514 . S
C43 C44 1.359 . S
C43 C48 1.348 . S
C44 C43 1.359 . S
C44 C45 1.380 . S
C44 H72 0.929 . S
C45 C44 1.380 . S
C45 C46 1.347 . S
C45 H73 0.931 . S
C46 C45 1.347 . S
C46 C47 1.369 . S
C47 C46 1.369 . S
C47 C48 1.408 . S
C47 H74 0.930 . S
C48 C43 1.348 . S
C48 C47 1.408 . S
C48 H75 0.930 . S
C49 O62 1.281 . S
C49 O63 1.254 . S
C50 O64 1.236 . S
C50 O65 1.266 . S
C51 Tb41 2.809 . S
C51 C52 1.514 . S
C51 O66 1.248 . S
C51 O67 1.266 . S
C52 C51 1.514 . S
C52 C53 1.359 . S
C52 C57 1.348 . S
C53 C52 1.359 . S
C53 C54 1.380 . S
C53 H76 0.929 . S
C54 C53 1.380 . S
C54 C55 1.347 . S
C54 H77 0.931 . S
C55 C54 1.347 . S
C55 C56 1.369 . S
C56 C55 1.369 . S
C56 C57 1.408 . S
C56 H78 0.930 . S
C57 C52 1.348 . S
C57 C56 1.408 . S
C57 H79 0.930 . S
C58 O68 1.281 . S
C58 O69 1.254 . S
C59 O70 1.236 . S
C59 O71 1.266 . S
O60 Tb40 2.484 . S
O60 C42 1.248 . S
O61 Tb40 2.440 . S
O61 C42 1.266 . S
O62 Tb40 2.658 1_545 S
O62 Tb41 2.325 . S
O62 C49 1.281 . S
O63 Tb40 2.409 1_545 S
O63 C49 1.254 . S
O64 Tb40 2.378 . S
O64 C50 1.236 . S
O65 Tb41 2.341 1_565 S
O65 C50 1.266 . S
O66 Tb41 2.484 . S
O66 C51 1.248 . S
O67 Tb41 2.440 . S
O67 C51 1.266 . S
O68 Tb40 2.325 1_545 S
O68 Tb41 2.658 . S
O68 C58 1.281 . S
O69 Tb41 2.409 . S
O69 C58 1.254 . S
O70 Tb41 2.378 . S
O70 C59 1.236 . S
O71 Tb40 2.341 1_545 S
O71 C59 1.266 . S
H72 C44 0.929 . S
H73 C45 0.931 . S
H74 C47 0.930 . S
H75 C48 0.930 . S
H76 C53 0.929 . S
H77 C54 0.931 . S
H78 C56 0.930 . S
H79 C57 0.930 . S
Tb80 C82 2.809 . S
Tb80 O100 2.484 . S
Tb80 O101 2.440 . S
Tb80 O102 2.658 . S
Tb80 O103 2.409 . S
Tb80 O104 2.378 . S
Tb80 O108 2.325 . S
Tb80 O111 2.341 . S
Tb81 C91 2.809 . S
Tb81 O102 2.325 . S
Tb81 O105 2.341 . S
Tb81 O106 2.484 . S
Tb81 O107 2.440 . S
Tb81 O108 2.658 . S
Tb81 O109 2.409 . S
Tb81 O110 2.378 . S
C82 Tb80 2.809 . S
C82 C83 1.514 . S
C82 O100 1.248 . S
C82 O101 1.266 . S
C83 C82 1.514 . S
C83 C84 1.359 . S
C83 C88 1.348 . S
C84 C83 1.359 . S
C84 C85 1.380 . S
C84 H112 0.929 . S
C85 C84 1.380 . S
C85 C86 1.347 . S
C85 H113 0.931 . S
C86 C85 1.347 . S
C86 C87 1.369 . S
C87 C86 1.369 . S
C87 C88 1.408 . S
C87 H114 0.930 . S
C88 C83 1.348 . S
C88 C87 1.408 . S
C88 H115 0.930 . S
C89 O102 1.281 . S
C89 O103 1.254 . S
C90 O104 1.236 . S
C90 O105 1.266 . S
C91 Tb81 2.809 . S
C91 C92 1.514 . S
C91 O106 1.248 . S
C91 O107 1.266 . S
C92 C91 1.514 . S
C92 C93 1.359 . S
C92 C97 1.348 . S
C93 C92 1.359 . S
C93 C94 1.380 . S
C93 H116 0.929 . S
C94 C93 1.380 . S
C94 C95 1.347 . S
C94 H117 0.931 . S
C95 C94 1.347 . S
C95 C96 1.369 . S
C96 C95 1.369 . S
C96 C97 1.408 . S
C96 H118 0.930 . S
C97 C92 1.348 . S
C97 C96 1.408 . S
C97 H119 0.930 . S
C98 O108 1.281 . S
C98 O109 1.254 . S
C99 O110 1.236 . S
C99 O111 1.266 . S
O100 Tb80 2.484 . S
O100 C82 1.248 . S
O101 Tb80 2.440 . S
O101 C82 1.266 . S
O102 Tb80 2.658 . S
O102 Tb81 2.325 . S
O102 C89 1.281 . S
O103 Tb80 2.409 . S
O103 C89 1.254 . S
O104 Tb80 2.378 . S
O104 C90 1.236 . S
O105 Tb81 2.341 . S
O105 C90 1.266 . S
O106 Tb81 2.484 . S
O106 C91 1.248 . S
O107 Tb81 2.440 . S
O107 C91 1.266 . S
O108 Tb80 2.325 . S
O108 Tb81 2.658 . S
O108 C98 1.281 . S
O109 Tb81 2.409 . S
O109 C98 1.254 . S
O110 Tb81 2.378 . S
O110 C99 1.236 . S
O111 Tb80 2.341 . S
O111 C99 1.266 . S
H112 C84 0.929 . S
H113 C85 0.931 . S
H114 C87 0.930 . S
H115 C88 0.930 . S
H116 C93 0.929 . S
H117 C94 0.931 . S
H118 C96 0.930 . S
H119 C97 0.930 . S
H120 C123 0.931 1_565 S
H121 C126 0.928 . S
H122 C128 0.930 . S
C123 H120 0.931 1_545 S
C123 C124 1.413 . S
C123 C125 1.360 . S
C124 C123 1.413 . S
C124 C128 1.429 . S
C125 C123 1.360 . S
C125 C126 1.372 . S
C126 H121 0.928 . S
C126 C125 1.372 . S
C126 C127 1.404 . S
C127 C126 1.404 . S
C127 C128 1.391 . S
C128 H122 0.930 . S
C128 C124 1.429 . S
C128 C127 1.391 . S
H129 C132 0.931 . S
H130 C135 0.928 . S
H131 C137 0.930 . S
C132 H129 0.931 . S
C132 C133 1.413 . S
C132 C134 1.360 . S
C133 C132 1.413 . S
C133 C137 1.429 . S
C134 C132 1.360 . S
C134 C135 1.372 . S
C135 H130 0.928 . S
C135 C134 1.372 . S
C135 C136 1.404 . S
C136 C135 1.404 . S
C136 C137 1.391 . S
C137 H131 0.930 . S
C137 C133 1.429 . S
C137 C136 1.391 . S
H138 C141 0.931 . S
H139 C144 0.928 . S
H140 C146 0.930 . S
C141 H138 0.931 . S
C141 C142 1.413 . S
C141 C143 1.360 1_655 S
C142 C141 1.413 . S
C142 C146 1.429 1_655 S
C143 C141 1.360 1_455 S
C143 C144 1.372 . S
C144 H139 0.928 . S
C144 C143 1.372 . S
C144 C145 1.404 . S
C145 C144 1.404 . S
C145 C146 1.391 . S
C146 H140 0.930 . S
C146 C142 1.429 1_455 S
C146 C145 1.391 . S
H147 C150 0.931 1_655 S
H148 C153 0.928 . S
H149 C155 0.930 . S
C150 H147 0.931 1_455 S
C150 C151 1.413 . S
C150 C152 1.360 . S
C151 C150 1.413 . S
C151 C155 1.429 . S
C152 C150 1.360 . S
C152 C153 1.372 . S
C153 H148 0.928 . S
C153 C152 1.372 . S
C153 C154 1.404 . S
C154 C153 1.404 . S
C154 C155 1.391 . S
C155 H149 0.930 . S
C155 C151 1.429 . S
C155 C154 1.391 . S
H156 C159 0.931 . S
H157 C162 0.928 . S
H158 C164 0.931 . S
C159 H156 0.931 . S
C159 C160 1.413 . S
C159 C161 1.360 . S
C160 C159 1.413 . S
C160 C164 1.429 . S
C161 C159 1.360 . S
C161 C162 1.372 1_545 S
C162 H157 0.928 . S
C162 C161 1.372 1_565 S
C162 C163 1.404 . S
C163 C162 1.404 . S
C163 C164 1.391 1_565 S
C164 H158 0.931 . S
C164 C160 1.429 . S
C164 C163 1.391 1_545 S
H165 C168 0.931 . S
H166 C171 0.928 . S
H167 C173 0.930 . S
C168 H165 0.931 . S
C168 C169 1.413 . S
C168 C170 1.360 . S
C169 C168 1.413 . S
C169 C173 1.429 . S
C170 C168 1.360 . S
C170 C171 1.372 . S
C171 H166 0.928 . S
C171 C170 1.372 . S
C171 C172 1.404 . S
C172 C171 1.404 . S
C172 C173 1.391 . S
C173 H167 0.930 . S
C173 C169 1.429 . S
C173 C172 1.391 . S
C174 C175 1.391 . S
C174 C176 1.394 . S
C174 H190 0.931 . S
C175 C174 1.391 . S
C175 C179 1.376 . S
C176 C174 1.394 . S
C176 C177 1.369 . S
C176 C180 1.531 . S
C177 C176 1.369 . S
C177 C178 1.410 . S
C177 C185 1.503 . S
C178 C177 1.410 . S
C178 C179 1.392 . S
C178 C181 1.511 . S
C179 C175 1.376 . S
C179 C178 1.392 . S
C179 H191 0.929 . S
C180 C176 1.531 . S
C180 H192 0.960 . S
C180 H193 0.962 . S
C180 H194 0.960 . S
C181 C178 1.511 . S
C181 H195 0.961 . S
C181 H196 0.961 . S
C181 H197 0.961 . S
C182 C183 1.370 . S
C182 C184 1.363 . S
C182 H198 0.931 . S
C183 C182 1.370 . S
C183 C187 1.408 . S
C184 C182 1.363 . S
C184 C185 1.370 . S
C184 C188 1.524 . S
C185 C177 1.503 . S
C185 C184 1.370 . S
C185 C186 1.403 . S
C186 C185 1.403 . S
C186 C187 1.404 . S
C186 C189 1.539 . S
C187 C183 1.408 . S
C187 C186 1.404 . S
C187 H199 0.930 . S
C188 C184 1.524 . S
C188 H200 0.956 . S
C188 H201 0.961 . S
C188 H202 0.961 . S
C189 C186 1.539 . S
C189 H203 0.958 . S
C189 H204 0.961 . S
C189 H205 0.960 . S
H190 C174 0.931 . S
H191 C179 0.929 . S
H192 C180 0.960 . S
H193 C180 0.962 . S
H194 C180 0.960 . S
H195 C181 0.961 . S
H196 C181 0.961 . S
H197 C181 0.961 . S
H198 C182 0.931 . S
H199 C187 0.930 . S
H200 C188 0.956 . S
H201 C188 0.961 . S
H202 C188 0.961 . S
H203 C189 0.958 . S
H204 C189 0.961 . S
H205 C189 0.960 . S
C206 C207 1.391 . S
C206 C208 1.394 . S
C206 H222 0.931 . S
C207 C206 1.391 . S
C207 C211 1.376 . S
C208 C206 1.394 . S
C208 C209 1.369 . S
C208 C212 1.531 . S
C209 C208 1.369 . S
C209 C210 1.410 . S
C209 C217 1.503 . S
C210 C209 1.410 . S
C210 C211 1.392 . S
C210 C213 1.511 . S
C211 C207 1.376 . S
C211 C210 1.392 . S
C211 H223 0.929 . S
C212 C208 1.531 . S
C212 H224 0.960 . S
C212 H225 0.962 . S
C212 H226 0.960 . S
C213 C210 1.511 . S
C213 H227 0.961 . S
C213 H228 0.961 . S
C213 H229 0.961 . S
C214 C215 1.370 . S
C214 C216 1.363 . S
C214 H230 0.931 . S
C215 C214 1.370 . S
C215 C219 1.408 . S
C216 C214 1.363 . S
C216 C217 1.370 . S
C216 C220 1.524 . S
C217 C209 1.503 . S
C217 C216 1.370 . S
C217 C218 1.403 . S
C218 C217 1.403 . S
C218 C219 1.404 . S
C218 C221 1.539 . S
C219 C215 1.408 . S
C219 C218 1.404 . S
C219 H231 0.930 . S
C220 C216 1.524 . S
C220 H232 0.956 . S
C220 H233 0.961 . S
C220 H234 0.961 . S
C221 C218 1.539 . S
C221 H235 0.958 . S
C221 H236 0.961 . S
C221 H237 0.960 . S
H222 C206 0.931 . S
H223 C211 0.929 . S
H224 C212 0.960 . S
H225 C212 0.962 . S
H226 C212 0.960 . S
H227 C213 0.961 . S
H228 C213 0.961 . S
H229 C213 0.961 . S
H230 C214 0.931 . S
H231 C219 0.930 . S
H232 C220 0.956 . S
H233 C220 0.961 . S
H234 C220 0.961 . S
H235 C221 0.958 . S
H236 C221 0.961 . S
H237 C221 0.960 . S
C238 C239 1.391 . S
C238 C240 1.394 . S
C238 H254 0.931 . S
C239 C238 1.391 . S
C239 C243 1.376 . S
C240 C238 1.394 . S
C240 C241 1.369 . S
C240 C244 1.531 . S
C241 C240 1.369 . S
C241 C242 1.410 . S
C241 C249 1.503 . S
C242 C241 1.410 . S
C242 C243 1.392 . S
C242 C245 1.511 . S
C243 C239 1.376 . S
C243 C242 1.392 . S
C243 H255 0.929 . S
C244 C240 1.531 . S
C244 H256 0.960 . S
C244 H257 0.962 . S
C244 H258 0.960 . S
C245 C242 1.511 . S
C245 H259 0.961 . S
C245 H260 0.961 . S
C245 H261 0.961 . S
C246 C247 1.370 . S
C246 C248 1.363 . S
C246 H262 0.931 . S
C247 C246 1.370 . S
C247 C251 1.408 . S
C248 C246 1.363 . S
C248 C249 1.370 . S
C248 C252 1.524 . S
C249 C241 1.503 . S
C249 C248 1.370 . S
C249 C250 1.403 . S
C250 C249 1.403 . S
C250 C251 1.404 . S
C250 C253 1.539 . S
C251 C247 1.408 . S
C251 C250 1.404 . S
C251 H263 0.930 . S
C252 C248 1.524 . S
C252 H264 0.956 . S
C252 H265 0.961 . S
C252 H266 0.961 . S
C253 C250 1.539 . S
C253 H267 0.958 . S
C253 H268 0.961 . S
C253 H269 0.960 . S
H254 C238 0.931 . S
H255 C243 0.929 . S
H256 C244 0.960 . S
H257 C244 0.962 . S
H258 C244 0.960 . S
H259 C245 0.961 . S
H260 C245 0.961 . S
H261 C245 0.961 . S
H262 C246 0.931 . S
H263 C251 0.930 . S
H264 C252 0.956 . S
H265 C252 0.961 . S
H266 C252 0.961 . S
H267 C253 0.958 . S
H268 C253 0.961 . S
H269 C253 0.960 . S
C270 C271 1.391 . S
C270 C272 1.394 . S
C270 H286 0.931 . S
C271 C270 1.391 . S
C271 C275 1.376 . S
C272 C270 1.394 . S
C272 C273 1.369 . S
C272 C276 1.531 . S
C273 C272 1.369 . S
C273 C274 1.410 . S
C273 C281 1.503 . S
C274 C273 1.410 . S
C274 C275 1.392 . S
C274 C277 1.511 . S
C275 C271 1.376 . S
C275 C274 1.392 . S
C275 H287 0.929 . S
C276 C272 1.531 . S
C276 H288 0.960 . S
C276 H289 0.962 . S
C276 H290 0.960 . S
C277 C274 1.511 . S
C277 H291 0.961 . S
C277 H292 0.961 . S
C277 H293 0.961 . S
C278 C279 1.370 . S
C278 C280 1.363 . S
C278 H294 0.931 . S
C279 C278 1.370 . S
C279 C283 1.408 . S
C280 C278 1.363 . S
C280 C281 1.370 . S
C280 C284 1.524 . S
C281 C273 1.503 . S
C281 C280 1.370 . S
C281 C282 1.403 . S
C282 C281 1.403 . S
C282 C283 1.404 . S
C282 C285 1.539 . S
C283 C279 1.408 . S
C283 C282 1.404 . S
C283 H295 0.930 . S
C284 C280 1.524 . S
C284 H296 0.956 . S
C284 H297 0.961 . S
C284 H298 0.961 . S
C285 C282 1.539 . S
C285 H299 0.958 . S
C285 H300 0.961 . S
C285 H301 0.960 . S
H286 C270 0.931 . S
H287 C275 0.929 . S
H288 C276 0.960 . S
H289 C276 0.962 . S
H290 C276 0.960 . S
H291 C277 0.961 . S
H292 C277 0.961 . S
H293 C277 0.961 . S
H294 C278 0.931 . S
H295 C283 0.930 . S
H296 C284 0.956 . S
H297 C284 0.961 . S
H298 C284 0.961 . S
H299 C285 0.958 . S
H300 C285 0.961 . S
H301 C285 0.960 . S
C302 C303 1.391 . S
C302 C304 1.394 . S
C302 H318 0.931 . S
C303 C302 1.391 . S
C303 C307 1.376 . S
C304 C302 1.394 . S
C304 C305 1.369 . S
C304 C308 1.531 . S
C305 C304 1.369 . S
C305 C306 1.410 . S
C305 C313 1.503 . S
C306 C305 1.410 . S
C306 C307 1.392 . S
C306 C309 1.511 . S
C307 C303 1.376 . S
C307 C306 1.392 . S
C307 H319 0.929 . S
C308 C304 1.531 . S
C308 H320 0.960 . S
C308 H321 0.962 . S
C308 H322 0.960 . S
C309 C306 1.511 . S
C309 H323 0.961 . S
C309 H324 0.961 . S
C309 H325 0.961 . S
C310 C311 1.370 . S
C310 C312 1.363 . S
C310 H326 0.931 . S
C311 C310 1.370 . S
C311 C315 1.408 . S
C312 C310 1.363 . S
C312 C313 1.370 . S
C312 C316 1.524 . S
C313 C305 1.503 . S
C313 C312 1.370 . S
C313 C314 1.403 . S
C314 C313 1.403 . S
C314 C315 1.404 . S
C314 C317 1.539 . S
C315 C311 1.408 . S
C315 C314 1.404 . S
C315 H327 0.930 . S
C316 C312 1.524 . S
C316 H328 0.956 . S
C316 H329 0.961 . S
C316 H330 0.961 . S
C317 C314 1.539 . S
C317 H331 0.958 . S
C317 H332 0.961 . S
C317 H333 0.960 . S
H318 C302 0.931 . S
H319 C307 0.929 . S
H320 C308 0.960 . S
H321 C308 0.962 . S
H322 C308 0.960 . S
H323 C309 0.961 . S
H324 C309 0.961 . S
H325 C309 0.961 . S
H326 C310 0.931 . S
H327 C315 0.930 . S
H328 C316 0.956 . S
H329 C316 0.961 . S
H330 C316 0.961 . S
H331 C317 0.958 . S
H332 C317 0.961 . S
H333 C317 0.960 . S
C334 C335 1.391 . S
C334 C336 1.394 . S
C334 H350 0.931 . S
C335 C334 1.391 . S
C335 C339 1.376 . S
C336 C334 1.394 . S
C336 C337 1.369 . S
C336 C340 1.531 . S
C337 C336 1.369 . S
C337 C338 1.410 . S
C337 C345 1.503 . S
C338 C337 1.410 . S
C338 C339 1.392 . S
C338 C341 1.511 . S
C339 C335 1.376 . S
C339 C338 1.392 . S
C339 H351 0.929 . S
C340 C336 1.531 . S
C340 H352 0.960 . S
C340 H353 0.962 . S
C340 H354 0.960 . S
C341 C338 1.511 . S
C341 H355 0.961 . S
C341 H356 0.961 . S
C341 H357 0.961 . S
C342 C343 1.370 . S
C342 C344 1.363 . S
C342 H358 0.931 . S
C343 C342 1.370 . S
C343 C347 1.408 . S
C344 C342 1.363 . S
C344 C345 1.370 . S
C344 C348 1.524 . S
C345 C337 1.503 . S
C345 C344 1.370 . S
C345 C346 1.403 . S
C346 C345 1.403 . S
C346 C347 1.404 . S
C346 C349 1.539 . S
C347 C343 1.408 . S
C347 C346 1.404 . S
C347 H359 0.930 . S
C348 C344 1.524 . S
C348 H360 0.956 . S
C348 H361 0.961 . S
C348 H362 0.961 . S
C349 C346 1.539 . S
C349 H363 0.958 . S
C349 H364 0.961 . S
C349 H365 0.960 . S
H350 C334 0.931 . S
H351 C339 0.929 . S
H352 C340 0.960 . S
H353 C340 0.962 . S
H354 C340 0.960 . S
H355 C341 0.961 . S
H356 C341 0.961 . S
H357 C341 0.961 . S
H358 C342 0.931 . S
H359 C347 0.930 . S
H360 C348 0.956 . S
H361 C348 0.961 . S
H362 C348 0.961 . S
H363 C349 0.958 . S
H364 C349 0.961 . S
H365 C349 0.960 . S
C366 C367 1.391 . S
C366 C368 1.394 . S
C366 H382 0.931 . S
C367 C366 1.391 . S
C367 C371 1.376 . S
C368 C366 1.394 . S
C368 C369 1.369 . S
C368 C372 1.531 . S
C369 C368 1.369 . S
C369 C370 1.410 . S
C369 C377 1.503 . S
C370 C369 1.410 . S
C370 C371 1.392 . S
C370 C373 1.511 . S
C371 C367 1.376 . S
C371 C370 1.392 . S
C371 H383 0.929 . S
C372 C368 1.531 . S
C372 H384 0.960 . S
C372 H385 0.962 . S
C372 H386 0.960 . S
C373 C370 1.511 . S
C373 H387 0.961 . S
C373 H388 0.961 . S
C373 H389 0.961 . S
C374 C375 1.370 . S
C374 C376 1.363 . S
C374 H390 0.931 . S
C375 C374 1.370 . S
C375 C379 1.408 . S
C376 C374 1.363 . S
C376 C377 1.370 . S
C376 C380 1.524 . S
C377 C369 1.503 . S
C377 C376 1.370 . S
C377 C378 1.403 . S
C378 C377 1.403 . S
C378 C379 1.404 . S
C378 C381 1.539 . S
C379 C375 1.408 . S
C379 C378 1.404 . S
C379 H391 0.930 . S
C380 C376 1.524 . S
C380 H392 0.956 . S
C380 H393 0.961 . S
C380 H394 0.961 . S
C381 C378 1.539 . S
C381 H395 0.958 . S
C381 H396 0.961 . S
C381 H397 0.960 . S
H382 C366 0.931 . S
H383 C371 0.929 . S
H384 C372 0.960 . S
H385 C372 0.962 . S
H386 C372 0.960 . S
H387 C373 0.961 . S
H388 C373 0.961 . S
H389 C373 0.961 . S
H390 C374 0.931 . S
H391 C379 0.930 . S
H392 C380 0.956 . S
H393 C380 0.961 . S
H394 C380 0.961 . S
H395 C381 0.958 . S
H396 C381 0.961 . S
H397 C381 0.960 . S
C398 C399 1.391 . S
C398 C400 1.394 . S
C398 H414 0.931 . S
C399 C398 1.391 . S
C399 C403 1.376 . S
C400 C398 1.394 . S
C400 C401 1.369 . S
C400 C404 1.531 . S
C401 C400 1.369 . S
C401 C402 1.410 . S
C401 C409 1.503 . S
C402 C401 1.410 . S
C402 C403 1.392 . S
C402 C405 1.511 . S
C403 C399 1.376 . S
C403 C402 1.392 . S
C403 H415 0.929 . S
C404 C400 1.531 . S
C404 H416 0.960 . S
C404 H417 0.962 . S
C404 H418 0.960 . S
C405 C402 1.511 . S
C405 H419 0.961 . S
C405 H420 0.961 . S
C405 H421 0.961 . S
C406 C407 1.370 . S
C406 C408 1.363 . S
C406 H422 0.931 . S
C407 C406 1.370 . S
C407 C411 1.408 . S
C408 C406 1.363 . S
C408 C409 1.370 . S
C408 C412 1.524 . S
C409 C401 1.503 . S
C409 C408 1.370 . S
C409 C410 1.403 . S
C410 C409 1.403 . S
C410 C411 1.404 . S
C410 C413 1.539 . S
C411 C407 1.408 . S
C411 C410 1.404 . S
C411 H423 0.930 . S
C412 C408 1.524 . S
C412 H424 0.956 . S
C412 H425 0.961 . S
C412 H426 0.961 . S
C413 C410 1.539 . S
C413 H427 0.958 . S
C413 H428 0.961 . S
C413 H429 0.960 . S
H414 C398 0.931 . S
H415 C403 0.929 . S
H416 C404 0.960 . S
H417 C404 0.962 . S
H418 C404 0.960 . S
H419 C405 0.961 . S
H420 C405 0.961 . S
H421 C405 0.961 . S
H422 C406 0.931 . S
H423 C411 0.930 . S
H424 C412 0.956 . S
H425 C412 0.961 . S
H426 C412 0.961 . S
H427 C413 0.958 . S
H428 C413 0.961 . S
H429 C413 0.960 . S
C430 C431 1.391 . S
C430 C432 1.394 . S
C430 H446 0.931 . S
C431 C430 1.391 . S
C431 C435 1.376 . S
C432 C430 1.394 . S
C432 C433 1.369 . S
C432 C436 1.531 . S
C433 C432 1.369 . S
C433 C434 1.410 . S
C433 C441 1.503 . S
C434 C433 1.410 . S
C434 C435 1.392 . S
C434 C437 1.511 . S
C435 C431 1.376 . S
C435 C434 1.392 . S
C435 H447 0.929 . S
C436 C432 1.531 . S
C436 H448 0.960 . S
C436 H449 0.962 . S
C436 H450 0.960 . S
C437 C434 1.511 . S
C437 H451 0.961 . S
C437 H452 0.961 . S
C437 H453 0.961 . S
C438 C439 1.370 . S
C438 C440 1.363 . S
C438 H454 0.931 . S
C439 C438 1.370 . S
C439 C443 1.408 . S
C440 C438 1.363 . S
C440 C441 1.370 . S
C440 C444 1.524 . S
C441 C433 1.503 . S
C441 C440 1.370 . S
C441 C442 1.403 . S
C442 C441 1.403 . S
C442 C443 1.404 . S
C442 C445 1.539 . S
C443 C439 1.408 . S
C443 C442 1.404 . S
C443 H455 0.930 . S
C444 C440 1.524 . S
C444 H456 0.956 . S
C444 H457 0.961 . S
C444 H458 0.961 . S
C445 C442 1.539 . S
C445 H459 0.958 . S
C445 H460 0.961 . S
C445 H461 0.960 . S
H446 C430 0.931 . S
H447 C435 0.929 . S
H448 C436 0.960 . S
H449 C436 0.962 . S
H450 C436 0.960 . S
H451 C437 0.961 . S
H452 C437 0.961 . S
H453 C437 0.961 . S
H454 C438 0.931 . S
H455 C443 0.930 . S
H456 C444 0.956 . S
H457 C444 0.961 . S
H458 C444 0.961 . S
H459 C445 0.958 . S
H460 C445 0.961 . S
H461 C445 0.960 . S
C462 C463 1.391 . S
C462 C464 1.394 . S
C462 H478 0.931 . S
C463 C462 1.391 . S
C463 C467 1.376 . S
C464 C462 1.394 . S
C464 C465 1.369 . S
C464 C468 1.531 . S
C465 C464 1.369 . S
C465 C466 1.410 . S
C465 C473 1.503 . S
C466 C465 1.410 . S
C466 C467 1.392 . S
C466 C469 1.511 . S
C467 C463 1.376 . S
C467 C466 1.392 . S
C467 H479 0.929 . S
C468 C464 1.531 . S
C468 H480 0.960 . S
C468 H481 0.962 . S
C468 H482 0.960 . S
C469 C466 1.511 . S
C469 H483 0.961 . S
C469 H484 0.961 . S
C469 H485 0.961 . S
C470 C471 1.370 . S
C470 C472 1.363 . S
C470 H486 0.931 . S
C471 C470 1.370 . S
C471 C475 1.408 . S
C472 C470 1.363 . S
C472 C473 1.370 . S
C472 C476 1.524 . S
C473 C465 1.503 . S
C473 C472 1.370 . S
C473 C474 1.403 . S
C474 C473 1.403 . S
C474 C475 1.404 . S
C474 C477 1.539 . S
C475 C471 1.408 . S
C475 C474 1.404 . S
C475 H487 0.930 . S
C476 C472 1.524 . S
C476 H488 0.956 . S
C476 H489 0.961 . S
C476 H490 0.961 . S
C477 C474 1.539 . S
C477 H491 0.958 . S
C477 H492 0.961 . S
C477 H493 0.960 . S
H478 C462 0.931 . S
H479 C467 0.929 . S
H480 C468 0.960 . S
H481 C468 0.962 . S
H482 C468 0.960 . S
H483 C469 0.961 . S
H484 C469 0.961 . S
H485 C469 0.961 . S
H486 C470 0.931 . S
H487 C475 0.930 . S
H488 C476 0.956 . S
H489 C476 0.961 . S
H490 C476 0.961 . S
H491 C477 0.958 . S
H492 C477 0.961 . S
H493 C477 0.960 . S
C494 C495 1.391 . S
C494 C496 1.394 . S
C494 H510 0.931 . S
C495 C494 1.391 . S
C495 C499 1.376 . S
C496 C494 1.394 . S
C496 C497 1.369 . S
C496 C500 1.531 . S
C497 C496 1.369 . S
C497 C498 1.410 . S
C497 C505 1.503 . S
C498 C497 1.410 . S
C498 C499 1.392 . S
C498 C501 1.511 . S
C499 C495 1.376 . S
C499 C498 1.392 . S
C499 H511 0.929 . S
C500 C496 1.531 . S
C500 H512 0.960 . S
C500 H513 0.962 . S
C500 H514 0.960 . S
C501 C498 1.511 . S
C501 H515 0.961 . S
C501 H516 0.961 . S
C501 H517 0.961 . S
C502 C503 1.370 . S
C502 C504 1.363 . S
C502 H518 0.931 . S
C503 C502 1.370 . S
C503 C507 1.408 . S
C504 C502 1.363 . S
C504 C505 1.370 . S
C504 C508 1.524 . S
C505 C497 1.503 . S
C505 C504 1.370 . S
C505 C506 1.403 . S
C506 C505 1.403 . S
C506 C507 1.404 . S
C506 C509 1.539 . S
C507 C503 1.408 . S
C507 C506 1.404 . S
C507 H519 0.930 . S
C508 C504 1.524 . S
C508 H520 0.956 . S
C508 H521 0.961 . S
C508 H522 0.961 . S
C509 C506 1.539 . S
C509 H523 0.958 . S
C509 H524 0.961 . S
C509 H525 0.960 . S
H510 C494 0.931 . S
H511 C499 0.929 . S
H512 C500 0.960 . S
H513 C500 0.962 . S
H514 C500 0.960 . S
H515 C501 0.961 . S
H516 C501 0.961 . S
H517 C501 0.961 . S
H518 C502 0.931 . S
H519 C507 0.930 . S
H520 C508 0.956 . S
H521 C508 0.961 . S
H522 C508 0.961 . S
H523 C509 0.958 . S
H524 C509 0.961 . S
H525 C509 0.960 . S
C526 C527 1.391 . S
C526 C528 1.394 . S
C526 H542 0.931 . S
C527 C526 1.391 . S
C527 C531 1.376 . S
C528 C526 1.394 . S
C528 C529 1.369 . S
C528 C532 1.531 . S
C529 C528 1.369 . S
C529 C530 1.410 . S
C529 C537 1.503 . S
C530 C529 1.410 . S
C530 C531 1.392 . S
C530 C533 1.511 . S
C531 C527 1.376 . S
C531 C530 1.392 . S
C531 H543 0.929 . S
C532 C528 1.531 . S
C532 H544 0.960 . S
C532 H545 0.962 . S
C532 H546 0.960 . S
C533 C530 1.511 . S
C533 H547 0.961 . S
C533 H548 0.961 . S
C533 H549 0.961 . S
C534 C535 1.370 . S
C534 C536 1.363 . S
C534 H550 0.931 . S
C535 C534 1.370 . S
C535 C539 1.408 . S
C536 C534 1.363 . S
C536 C537 1.370 . S
C536 C540 1.524 . S
C537 C529 1.503 . S
C537 C536 1.370 . S
C537 C538 1.403 . S
C538 C537 1.403 . S
C538 C539 1.404 . S
C538 C541 1.539 . S
C539 C535 1.408 . S
C539 C538 1.404 . S
C539 H551 0.930 . S
C540 C536 1.524 . S
C540 H552 0.956 . S
C540 H553 0.961 . S
C540 H554 0.961 . S
C541 C538 1.539 . S
C541 H555 0.958 . S
C541 H556 0.961 . S
C541 H557 0.960 . S
H542 C526 0.931 . S
H543 C531 0.929 . S
H544 C532 0.960 . S
H545 C532 0.962 . S
H546 C532 0.960 . S
H547 C533 0.961 . S
H548 C533 0.961 . S
H549 C533 0.961 . S
H550 C534 0.931 . S
H551 C539 0.930 . S
H552 C540 0.956 . S
H553 C540 0.961 . S
H554 C540 0.961 . S
H555 C541 0.958 . S
H556 C541 0.961 . S
H557 C541 0.960 . S
C558 C559 1.391 . S
C558 C560 1.394 1_455 S
C558 H574 0.926 . S
C559 C558 1.391 . S
C559 C563 1.376 . S
C560 C558 1.394 1_655 S
C560 C561 1.369 1_655 S
C560 C564 1.531 . S
C561 C560 1.369 1_455 S
C561 C562 1.410 . S
C561 C569 1.503 . S
C562 C561 1.410 . S
C562 C563 1.392 . S
C562 C565 1.511 . S
C563 C559 1.376 . S
C563 C562 1.392 . S
C563 H575 0.929 . S
C564 C560 1.531 . S
C564 H576 0.960 . S
C564 H577 0.962 1_655 S
C564 H578 0.960 . S
C565 C562 1.511 . S
C565 H579 0.961 . S
C565 H580 0.961 . S
C565 H581 0.961 1_455 S
C566 C567 1.370 . S
C566 C568 1.363 1_556 S
C566 H582 0.931 . S
C567 C566 1.370 . S
C567 C571 1.408 1_455 S
C568 C566 1.363 1_554 S
C568 C569 1.370 . S
C568 C572 1.524 . S
C569 C561 1.503 . S
C569 C568 1.370 . S
C569 C570 1.403 1_455 S
C570 C569 1.403 1_655 S
C570 C571 1.404 1_554 S
C570 C573 1.539 . S
C571 C567 1.408 1_655 S
C571 C570 1.404 1_556 S
C571 H583 0.930 . S
C572 C568 1.524 . S
C572 H584 0.956 . S
C572 H585 0.961 . S
C572 H586 0.961 . S
C573 C570 1.539 . S
C573 H587 0.958 . S
C573 H588 0.961 . S
C573 H589 0.960 . S
H574 C558 0.926 . S
H575 C563 0.929 . S
H576 C564 0.960 . S
H577 C564 0.962 1_455 S
H578 C564 0.960 . S
H579 C565 0.961 . S
H580 C565 0.961 . S
H581 C565 0.961 1_655 S
H582 C566 0.931 . S
H583 C571 0.930 . S
H584 C572 0.956 . S
H585 C572 0.961 . S
H586 C572 0.961 . S
H587 C573 0.958 . S
H588 C573 0.961 . S
H589 C573 0.960 . S
C590 C591 1.391 . S
C590 C592 1.394 . S
C590 H606 0.931 . S
C591 C590 1.391 . S
C591 C595 1.376 . S
C592 C590 1.394 . S
C592 C593 1.369 . S
C592 C596 1.531 . S
C593 C592 1.369 . S
C593 C594 1.410 . S
C593 C601 1.503 . S
C594 C593 1.410 . S
C594 C595 1.392 . S
C594 C597 1.511 1_545 S
C595 C591 1.376 . S
C595 C594 1.392 . S
C595 H607 0.929 1_545 S
C596 C592 1.531 . S
C596 H608 0.960 . S
C596 H609 0.962 . S
C596 H610 0.960 . S
C597 C594 1.511 1_565 S
C597 H611 0.961 . S
C597 H612 0.961 . S
C597 H613 0.961 1_565 S
C598 C599 1.370 . S
C598 C600 1.363 . S
C598 H614 0.931 1_545 S
C599 C598 1.370 . S
C599 C603 1.408 . S
C600 C598 1.363 . S
C600 C601 1.370 . S
C600 C604 1.524 1_545 S
C601 C593 1.503 . S
C601 C600 1.370 . S
C601 C602 1.403 . S
C602 C601 1.403 . S
C602 C603 1.404 . S
C602 C605 1.539 . S
C603 C599 1.408 . S
C603 C602 1.404 . S
C603 H615 0.930 . S
C604 C600 1.524 1_565 S
C604 H616 0.956 . S
C604 H617 0.961 . S
C604 H618 0.961 . S
C605 C602 1.539 . S
C605 H619 0.958 . S
C605 H620 0.961 . S
C605 H621 0.960 . S
H606 C590 0.931 . S
H607 C595 0.929 1_565 S
H608 C596 0.960 . S
H609 C596 0.962 . S
H610 C596 0.960 . S
H611 C597 0.961 . S
H612 C597 0.961 . S
H613 C597 0.961 1_545 S
H614 C598 0.931 1_565 S
H615 C603 0.930 . S
H616 C604 0.956 . S
H617 C604 0.961 . S
H618 C604 0.961 . S
H619 C605 0.958 . S
H620 C605 0.961 . S
H621 C605 0.960 . S
C622 C623 1.391 . S
C622 C624 1.394 . S
C622 H638 0.931 . S
C623 C622 1.391 . S
C623 C627 1.376 . S
C624 C622 1.394 . S
C624 C625 1.369 . S
C624 C628 1.531 . S
C625 C624 1.369 . S
C625 C626 1.410 . S
C625 C633 1.503 . S
C626 C625 1.410 . S
C626 C627 1.392 . S
C626 C629 1.511 . S
C627 C623 1.376 . S
C627 C626 1.392 . S
C627 H639 0.929 . S
C628 C624 1.531 . S
C628 H640 0.960 . S
C628 H641 0.962 . S
C628 H642 0.960 . S
C629 C626 1.511 . S
C629 H643 0.961 . S
C629 H644 0.961 . S
C629 H645 0.961 . S
C630 C631 1.370 . S
C630 C632 1.363 . S
C630 H646 0.931 . S
C631 C630 1.370 . S
C631 C635 1.408 . S
C632 C630 1.363 . S
C632 C633 1.370 . S
C632 C636 1.524 . S
C633 C625 1.503 . S
C633 C632 1.370 . S
C633 C634 1.403 . S
C634 C633 1.403 . S
C634 C635 1.404 . S
C634 C637 1.539 . S
C635 C631 1.408 . S
C635 C634 1.404 . S
C635 H647 0.930 . S
C636 C632 1.524 . S
C636 H648 0.956 . S
C636 H649 0.961 . S
C636 H650 0.961 . S
C637 C634 1.539 . S
C637 H651 0.958 . S
C637 H652 0.961 . S
C637 H653 0.960 . S
H638 C622 0.931 . S
H639 C627 0.929 . S
H640 C628 0.960 . S
H641 C628 0.962 . S
H642 C628 0.960 . S
H643 C629 0.961 . S
H644 C629 0.961 . S
H645 C629 0.961 . S
H646 C630 0.931 . S
H647 C635 0.930 . S
H648 C636 0.956 . S
H649 C636 0.961 . S
H650 C636 0.961 . S
H651 C637 0.958 . S
H652 C637 0.961 . S
H653 C637 0.960 . S
C654 C655 1.391 1_565 S
C654 C656 1.394 . S
C654 H670 0.931 . S
C655 C654 1.391 1_545 S
C655 C659 1.376 . S
C656 C654 1.394 . S
C656 C657 1.369 1_565 S
C656 C660 1.531 . S
C657 C656 1.369 1_545 S
C657 C658 1.410 . S
C657 C665 1.503 . S
C658 C657 1.410 . S
C658 C659 1.392 . S
C658 C661 1.511 . S
C659 C655 1.376 . S
C659 C658 1.392 . S
C659 H671 0.929 . S
C660 C656 1.531 . S
C660 H672 0.960 . S
C660 H673 0.962 . S
C660 H674 0.960 . S
C661 C658 1.511 . S
C661 H675 0.961 . S
C661 H676 0.961 . S
C661 H677 0.961 . S
C662 C663 1.370 . S
C662 C664 1.363 . S
C662 H678 0.931 . S
C663 C662 1.370 . S
C663 C667 1.408 1_545 S
C664 C662 1.363 . S
C664 C665 1.370 . S
C664 C668 1.524 . S
C665 C657 1.503 . S
C665 C664 1.370 . S
C665 C666 1.403 1_545 S
C666 C665 1.403 1_565 S
C666 C667 1.404 . S
C666 C669 1.539 . S
C667 C663 1.408 1_565 S
C667 C666 1.404 . S
C667 H679 0.930 . S
C668 C664 1.524 . S
C668 H680 0.956 . S
C668 H681 0.961 . S
C668 H682 0.961 . S
C669 C666 1.539 . S
C669 H683 0.958 . S
C669 H684 0.961 . S
C669 H685 0.960 . S
H670 C654 0.931 . S
H671 C659 0.929 . S
H672 C660 0.960 . S
H673 C660 0.962 . S
H674 C660 0.960 . S
H675 C661 0.961 . S
H676 C661 0.961 . S
H677 C661 0.961 . S
H678 C662 0.931 . S
H679 C667 0.930 . S
H680 C668 0.956 . S
H681 C668 0.961 . S
H682 C668 0.961 . S
H683 C669 0.958 . S
H684 C669 0.961 . S
H685 C669 0.960 . S
C686 C687 1.391 . S
C686 C688 1.394 . S
C686 H702 0.931 . S
C687 C686 1.391 . S
C687 C691 1.376 . S
C688 C686 1.394 . S
C688 C689 1.369 . S
C688 C692 1.531 . S
C689 C688 1.369 . S
C689 C690 1.410 . S
C689 C697 1.503 . S
C690 C689 1.410 . S
C690 C691 1.392 . S
C690 C693 1.511 . S
C691 C687 1.376 . S
C691 C690 1.392 . S
C691 H703 0.929 . S
C692 C688 1.531 . S
C692 H704 0.960 . S
C692 H705 0.962 . S
C692 H706 0.960 . S
C693 C690 1.511 . S
C693 H707 0.961 . S
C693 H708 0.961 . S
C693 H709 0.961 . S
C694 C695 1.370 . S
C694 C696 1.363 . S
C694 H710 0.931 . S
C695 C694 1.370 . S
C695 C699 1.408 . S
C696 C694 1.363 . S
C696 C697 1.370 1_554 S
C696 C700 1.524 1_554 S
C697 C689 1.503 . S
C697 C696 1.370 1_556 S
C697 C698 1.403 1_556 S
C698 C697 1.403 1_554 S
C698 C699 1.404 . S
C698 C701 1.539 1_554 S
C699 C695 1.408 . S
C699 C698 1.404 . S
C699 H711 0.930 . S
C700 C696 1.524 1_556 S
C700 H712 0.956 . S
C700 H713 0.961 . S
C700 H714 0.961 1_556 S
C701 C698 1.539 1_556 S
C701 H715 0.958 . S
C701 H716 0.961 1_556 S
C701 H717 0.960 . S
H702 C686 0.931 . S
H703 C691 0.929 . S
H704 C692 0.960 . S
H705 C692 0.962 . S
H706 C692 0.960 . S
H707 C693 0.961 . S
H708 C693 0.961 . S
H709 C693 0.961 . S
H710 C694 0.931 . S
H711 C699 0.930 . S
H712 C700 0.956 . S
H713 C700 0.961 . S
H714 C700 0.961 1_554 S
H715 C701 0.958 . S
H716 C701 0.961 1_554 S
H717 C701 0.960 . S
C718 C719 1.391 . S
C718 C720 1.394 . S
C718 H734 0.931 . S
C719 C718 1.391 . S
C719 C723 1.376 1_455 S
C720 C718 1.394 . S
C720 C721 1.369 . S
C720 C724 1.531 . S
C721 C720 1.369 . S
C721 C722 1.410 1_455 S
C721 C729 1.503 . S
C722 C721 1.410 1_655 S
C722 C723 1.392 . S
C722 C725 1.511 . S
C723 C719 1.376 1_655 S
C723 C722 1.392 . S
C723 H735 0.929 . S
C724 C720 1.531 . S
C724 H736 0.960 . S
C724 H737 0.962 . S
C724 H738 0.960 . S
C725 C722 1.511 . S
C725 H739 0.961 . S
C725 H740 0.961 . S
C725 H741 0.961 . S
C726 C727 1.370 . S
C726 C728 1.363 . S
C726 H742 0.931 . S
C727 C726 1.370 . S
C727 C731 1.408 . S
C728 C726 1.363 . S
C728 C729 1.370 . S
C728 C732 1.524 . S
C729 C721 1.503 . S
C729 C728 1.370 . S
C729 C730 1.403 . S
C730 C729 1.403 . S
C730 C731 1.404 . S
C730 C733 1.539 . S
C731 C727 1.408 . S
C731 C730 1.404 . S
C731 H743 0.930 . S
C732 C728 1.524 . S
C732 H744 0.956 . S
C732 H745 0.961 . S
C732 H746 0.961 . S
C733 C730 1.539 . S
C733 H747 0.958 . S
C733 H748 0.961 . S
C733 H749 0.960 . S
H734 C718 0.931 . S
H735 C723 0.929 . S
H736 C724 0.960 . S
H737 C724 0.962 . S
H738 C724 0.960 . S
H739 C725 0.961 . S
H740 C725 0.961 . S
H741 C725 0.961 . S
H742 C726 0.931 . S
H743 C731 0.930 . S
H744 C732 0.956 . S
H745 C732 0.961 . S
H746 C732 0.961 . S
H747 C733 0.958 . S
H748 C733 0.961 . S
H749 C733 0.960 . S
C175 C10 2.882 . S
C183 C169 2.904 . S
C207 C59 2.983 . S
C215 C151 2.956 1_655 S
C239 C90 2.863 . S
C247 C163 2.877 . S
C271 C19 2.971 . S
C279 C172 2.938 . S
C311 C154 2.885 . S
C303 C50 2.882 . S
C343 C160 2.959 . S
C335 C99 2.986 . S
C367 C46 0.465 . S
C375 C133 0.511 . S
C399 C95 0.506 . S
C407 C142 0.509 . S
C431 C6 0.624 . S
C439 C124 0.487 1_565 S
C471 C136 0.488 . S
C463 C55 0.473 . S
C503 C145 0.504 . S
C495 C86 0.471 . S
C527 C15 0.661 . S
C535 C127 0.479 . S
C567 C143 1.016 . S
C559 C9 1.006 . S
C591 C49 0.989 . S
C599 C125 1.014 . S
C623 C89 0.964 . S
C631 C134 1.016 . S
C663 C161 1.811 . S
C655 C58 1.745 . S
C695 C170 1.812 . S
C687 C98 1.722 . S
C719 C18 1.751 . S
C727 C152 1.812 . S
