# Generated by pormake.
# Topology anh, (6,3)-cn, num edge types: 1
# Building blocks:
#     Node 0, Type 0, BuildingBlock: CUKXOW_clean_sbu_0, # of connection points: 6
#     Node 1, Type 0, BuildingBlock: CUKXOW_clean_sbu_0, # of connection points: 6
#     Node 2, Type 0, BuildingBlock: CUKXOW_clean_sbu_0, # of connection points: 6
#     Node 3, Type 1, BuildingBlock: VETTIZ_charged_linker_0, # of connection points: 3
#     Node 4, Type 1, BuildingBlock: VETTIZ_charged_linker_0, # of connection points: 3
#     Node 5, Type 1, BuildingBlock: VETTIZ_charged_linker_0, # of connection points: 3
#     Node 6, Type 1, BuildingBlock: VETTIZ_charged_linker_0, # of connection points: 3
#     Node 7, Type 1, BuildingBlock: VETTIZ_charged_linker_0, # of connection points: 3
#     Node 8, Type 1, BuildingBlock: VETTIZ_charged_linker_0, # of connection points: 3
#     Edge 9, Type (0, 1), BuildingBlock: EZIPEK_clean_linker_0, # of connection points: 2
#     Edge 10, Type (0, 1), BuildingBlock: EZIPEK_clean_linker_0, # of connection points: 2
#     Edge 11, Type (0, 1), BuildingBlock: EZIPEK_clean_linker_0, # of connection points: 2
#     Edge 12, Type (0, 1), BuildingBlock: EZIPEK_clean_linker_0, # of connection points: 2
#     Edge 13, Type (0, 1), BuildingBlock: EZIPEK_clean_linker_0, # of connection points: 2
#     Edge 14, Type (0, 1), BuildingBlock: EZIPEK_clean_linker_0, # of connection points: 2
#     Edge 15, Type (0, 1), BuildingBlock: EZIPEK_clean_linker_0, # of connection points: 2
#     Edge 16, Type (0, 1), BuildingBlock: EZIPEK_clean_linker_0, # of connection points: 2
#     Edge 17, Type (0, 1), BuildingBlock: EZIPEK_clean_linker_0, # of connection points: 2
#     Edge 18, Type (0, 1), BuildingBlock: EZIPEK_clean_linker_0, # of connection points: 2
#     Edge 19, Type (0, 1), BuildingBlock: EZIPEK_clean_linker_0, # of connection points: 2
#     Edge 20, Type (0, 1), BuildingBlock: EZIPEK_clean_linker_0, # of connection points: 2
#     Edge 21, Type (0, 1), BuildingBlock: EZIPEK_clean_linker_0, # of connection points: 2
#     Edge 22, Type (0, 1), BuildingBlock: EZIPEK_clean_linker_0, # of connection points: 2
#     Edge 23, Type (0, 1), BuildingBlock: EZIPEK_clean_linker_0, # of connection points: 2
#     Edge 24, Type (0, 1), BuildingBlock: EZIPEK_clean_linker_0, # of connection points: 2
#     Edge 25, Type (0, 1), BuildingBlock: EZIPEK_clean_linker_0, # of connection points: 2
#     Edge 26, Type (0, 1), BuildingBlock: EZIPEK_clean_linker_0, # of connection points: 2
# Relax obj value: 0.140
# Max RMSD: 0.196
# Mean RMSD: 0.143
data_MOF--net-anh--node1-CUKXOW_clean_sbu_0--node2-VETTIZ_charged_linker_0--edge1-EZIPEK_clean_linker_0
_symmetry_space_group_name_H-M    P1
_symmetry_Int_Tables_number       1
_symmetry_cell_setting            triclinic
loop_
_symmetry_equiv_pos_as_xyz
'x, y, z'
_cell_length_a     26.574502
_cell_length_b     25.513631
_cell_length_c     51.473396
_cell_angle_alpha  95.08766
_cell_angle_beta   90.572323
_cell_angle_gamma 112.82825
loop_
_atom_site_label
_atom_site_type_symbol
_atom_site_fract_x
_atom_site_fract_y
_atom_site_fract_z
_atom_type_partial_charge
Tb0 Tb 0.08469 0.55062 0.1428 0.0
C1 C 0.06368 0.49703 0.19718 0.0
Tb2 Tb 1.02085 0.41681 0.14369 0.0
O3 O 1.01417 0.57609 0.14534 0.0
O4 O 1.00363 0.49168 0.14472 0.0
O5 O 0.08014 0.54374 0.1846 0.0
C6 C 0.93619 0.31882 0.14666 0.0
O7 O 0.04239 0.4443 0.18508 0.0
C8 C 0.12857 0.44418 0.13934 0.0
C9 C 1.03378 0.47229 0.09085 0.0
O10 O 0.94745 0.36497 0.16235 0.0
O11 O 0.97305 0.32729 0.12934 0.0
O12 O 0.09237 0.39234 0.14027 0.0
O13 O 0.10158 0.47585 0.14077 0.0
O14 O 1.00368 0.42948 0.10397 0.0
O15 O 0.07409 0.51901 0.10169 0.0
C16 C 0.17163 0.64736 0.14083 0.0
O17 O 0.12669 0.63221 0.12657 0.0
O18 O 0.16722 0.60852 0.15632 0.0
C19 C 0.97734 0.52417 0.14532 0.0
Tb20 Tb 0.50306 1.0085 0.48865 0.0
C21 C 0.55838 0.0419 0.43612 0.0
Tb22 Tb 0.62404 0.08659 0.4911 0.0
O23 O 0.47972 0.07453 0.47479 0.0
O24 O 0.54986 0.09732 0.49898 0.0
O25 O 0.51573 1.00567 0.44718 0.0
C26 C 0.71584 0.18108 0.49405 0.0
O27 O 0.60275 0.0794 0.44936 0.0
C28 C 0.60549 0.97824 0.49389 0.0
C29 C 0.56975 0.04534 0.54341 0.0
O30 O 0.70944 0.13174 0.48199 0.0
O31 O 0.66948 0.17714 0.50324 0.0
O32 O 0.65151 0.02023 0.50143 0.0
O33 O 0.57699 0.99883 0.48176 0.0
O34 O 0.61383 0.0798 0.53261 0.0
O35 O 0.52401 1.01293 0.52985 0.0
C36 C 0.41039 0.91897 0.4928 0.0
O37 O 0.41929 0.97127 0.50148 0.0
O38 O 0.4532 0.91738 0.48152 0.0
C39 C 0.52295 0.11706 0.48508 0.0
Tb40 Tb 0.56695 0.5847 0.83983 0.0
C41 C 0.65084 0.59188 0.88523 0.0
Tb42 Tb 0.68958 0.5993 0.8263 0.0
O43 O 0.53473 0.49087 0.84116 0.0
O44 O 0.61365 0.53566 0.83269 0.0
O45 O 0.60379 0.59489 0.8785 0.0
C46 C 0.76609 0.56877 0.80557 0.0
O47 O 0.68857 0.5899 0.86858 0.0
C48 C 0.6757 0.69706 0.82973 0.0
C49 C 0.59998 0.58617 0.78121 0.0
O50 O 0.77378 0.60593 0.82587 0.0
O51 O 0.71534 0.54845 0.7973 0.0
O52 O 0.7222 0.69328 0.82468 0.0
O53 O 0.64315 0.64749 0.83316 0.0
O54 O 0.64917 0.58809 0.78792 0.0
O55 O 0.56322 0.58834 0.79806 0.0
C56 C 0.48915 0.61985 0.85327 0.0
O57 O 0.48086 0.5712 0.84 0.0
O58 O 0.54063 0.64799 0.85929 0.0
C59 C 0.58001 0.48546 0.83464 0.0
C60 C 0.69292 0.10144 0.15905 0.0
C61 C 0.74071 0.14248 0.17194 0.0
C62 C 0.74526 0.14985 0.19933 0.0
C63 C 0.6543 0.07751 0.20107 0.0
C64 C 0.65006 0.06933 0.17408 0.0
C65 C 0.59551 0.02412 0.16412 0.0
H66 H 0.3464 0.83234 0.19285 0.0
C67 C 0.60256 0.03944 0.21104 0.0
C68 C 0.56761 1.00786 0.18959 0.0
H69 H 0.411 0.8606 0.11649 0.0
H70 H 0.49462 0.9363 0.13581 0.0
H71 H 0.45306 0.83606 0.22036 0.0
H72 H 0.38734 0.96457 0.21493 0.0
H73 H 0.41593 0.97519 0.24681 0.0
H74 H 0.36028 0.90848 0.23587 0.0
H75 H 0.3955 0.83656 0.23815 0.0
H76 H 0.46463 0.87496 0.25122 0.0
C77 C 0.60576 0.97396 0.14932 0.0
C78 C 0.566 0.05189 0.14731 0.0
C79 C 0.58064 0.04309 0.30883 0.0
C80 C 0.53716 1.01359 0.324 0.0
C81 C 0.48738 0.97497 0.31186 0.0
C82 C 0.48117 0.96523 0.2846 0.0
C83 C 0.5253 0.99448 0.26948 0.0
C84 C 0.57377 0.03298 0.28166 0.0
C85 C 0.61587 0.06078 0.26255 0.0
C86 C 0.58492 0.03209 0.23685 0.0
C87 C 0.53218 0.9933 0.24105 0.0
C88 C 0.66559 0.04467 0.26731 0.0
C89 C 0.62895 0.12589 0.26585 0.0
C90 C 0.37853 0.85531 0.18036 0.0
C91 C 0.37287 0.84117 0.15334 0.0
C92 C 0.41514 0.87134 0.13745 0.0
C93 C 0.46342 0.91483 0.14872 0.0
C94 C 0.46907 0.92774 0.17605 0.0
C95 C 0.42666 0.89823 0.19127 0.0
C96 C 0.43942 0.91608 0.21987 0.0
C97 C 0.49682 0.96088 0.21956 0.0
C98 C 0.51424 0.96793 0.19391 0.0
C99 C 0.43782 0.86341 0.23333 0.0
C100 C 0.39861 0.94214 0.23015 0.0
H101 H 0.70832 0.12574 0.23478 0.0
H102 H 0.68888 0.09528 0.13792 0.0
H103 H 0.57132 0.09488 0.15664 0.0
H104 H 0.52144 0.02733 0.14511 0.0
H105 H 0.58282 0.05731 0.1276 0.0
H106 H 0.63965 0.96675 0.15918 0.0
H107 H 0.61723 0.98291 0.129 0.0
H108 H 0.57028 0.93286 0.14885 0.0
H109 H 0.61916 0.07314 0.31797 0.0
H110 H 0.4536 0.95212 0.32354 0.0
H111 H 0.44241 0.93504 0.27639 0.0
H112 H 0.65219 1.00066 0.27338 0.0
H113 H 0.69414 0.07432 0.283 0.0
H114 H 0.68838 0.04374 0.24956 0.0
H115 H 0.5927 0.1345 0.27214 0.0
H116 H 0.63953 0.14591 0.24741 0.0
H117 H 0.6626 0.14864 0.28081 0.0
H118 H 0.78198 0.1814 0.2094 0.0
C119 C 0.70238 0.11764 0.21397 0.0
C120 C 0.54837 0.69482 0.50701 0.0
C121 C 0.54545 0.74519 0.51959 0.0
C122 C 0.52812 0.74499 0.54529 0.0
C123 C 0.52529 0.64976 0.5473 0.0
C124 C 0.53686 0.64682 0.52126 0.0
C125 C 0.53502 0.58791 0.51179 0.0
H126 H 0.5194 0.32803 0.54637 0.0
C127 C 0.51973 0.59605 0.55764 0.0
C128 C 0.52339 0.558 0.5369 0.0
H129 H 0.53092 0.37836 0.46822 0.0
H130 H 0.53029 0.471 0.48487 0.0
H131 H 0.60283 0.4563 0.5766 0.0
H132 H 0.43016 0.36161 0.56156 0.0
H133 H 0.43565 0.40761 0.58989 0.0
H134 H 0.46428 0.35387 0.59026 0.0
H135 H 0.56361 0.38729 0.58706 0.0
H136 H 0.56836 0.45106 0.60603 0.0
C137 C 0.59119 0.59433 0.50148 0.0
C138 C 0.48755 0.55974 0.49105 0.0
C139 C 0.5409 0.59366 0.6556 0.0
C140 C 0.53426 0.54927 0.67129 0.0
C141 C 0.51246 0.4923 0.65981 0.0
C142 C 0.50272 0.48013 0.63279 0.0
C143 C 0.51392 0.5253 0.61713 0.0
C144 C 0.52865 0.58033 0.62868 0.0
C145 C 0.52722 0.62056 0.6093 0.0
C146 C 0.51705 0.58179 0.58375 0.0
C147 C 0.5112 0.52675 0.58862 0.0
C148 C 0.58346 0.67127 0.61074 0.0
C149 C 0.47872 0.63861 0.61557 0.0
C150 C 0.52229 0.35921 0.53284 0.0
C151 C 0.52585 0.34638 0.50614 0.0
C152 C 0.52858 0.38766 0.489 0.0
C153 C 0.52789 0.44109 0.49868 0.0
C154 C 0.52362 0.45287 0.52568 0.0
C155 C 0.52059 0.41161 0.54205 0.0
C156 C 0.51388 0.42862 0.5699 0.0
C157 C 0.51344 0.48731 0.56794 0.0
C158 C 0.5198 0.50238 0.54209 0.0
C159 C 0.56455 0.43094 0.58593 0.0
C160 C 0.4584 0.38575 0.57854 0.0
H161 H 0.50671 0.70111 0.5788 0.0
H162 H 0.56048 0.69352 0.48702 0.0
H163 H 0.45066 0.56694 0.49742 0.0
H164 H 0.47478 0.51299 0.48784 0.0
H165 H 0.49887 0.57807 0.47213 0.0
H166 H 0.62447 0.62143 0.51596 0.0
H167 H 0.59817 0.61484 0.48295 0.0
H168 H 0.59542 0.55301 0.49795 0.0
H169 H 0.55532 0.63758 0.66416 0.0
H170 H 0.50543 0.45737 0.67172 0.0
H171 H 0.48822 0.43618 0.62508 0.0
H172 H 0.61686 0.65544 0.60838 0.0
H173 H 0.59073 0.69755 0.62985 0.0
H174 H 0.58723 0.7 0.59543 0.0
H175 H 0.45328 0.61515 0.63114 0.0
H176 H 0.44998 0.6292 0.59835 0.0
H177 H 0.49334 0.68481 0.62249 0.0
H178 H 0.52474 0.78279 0.55512 0.0
C179 C 0.51815 0.69778 0.55913 0.0
C180 C 0.27283 0.66935 0.862 0.0
C181 C 0.31241 0.68425 0.88246 0.0
C182 C 0.29891 0.69457 0.90821 0.0
C183 C 0.20372 0.65661 0.89372 0.0
C184 C 0.21837 0.65497 0.86806 0.0
C185 C 0.1697 0.62683 0.84924 0.0
H186 H 0.8969 0.50435 0.83247 0.0
C187 C 0.14453 0.6234 0.89402 0.0
C188 C 0.1243 0.60624 0.86806 0.0
H189 H 1.01498 0.56294 0.77359 0.0
H190 H 0.08862 0.57955 0.80554 0.0
H191 H 0.95746 0.42952 0.85685 0.0
H192 H 0.95065 0.59202 0.87972 0.0
H193 H 0.93978 0.55087 0.90678 0.0
H194 H 0.89467 0.52339 0.87838 0.0
H195 H 0.91042 0.43619 0.88019 0.0
H196 H 0.97836 0.4435 0.89021 0.0
C197 C 0.17606 0.5762 0.83255 0.0
C198 C 0.1649 0.67353 0.83328 0.0
C199 C 0.06329 0.55603 0.97925 0.0
C200 C 1.015 0.51101 0.98466 0.0
C201 C 0.97402 0.48403 0.96476 0.0
C202 C 0.98191 0.50104 0.93944 0.0
C203 C 1.03177 0.5442 0.934 0.0
C204 C 0.0715 0.5708 0.95375 0.0
C205 C 0.12471 0.60947 0.94381 0.0
C206 C 0.11049 0.60107 0.91473 0.0
C207 C 0.05579 0.564 0.90924 0.0
C208 C 0.16989 0.58771 0.95091 0.0
C209 C 0.13626 0.67141 0.95527 0.0
C210 C 0.93866 0.5194 0.82641 0.0
C211 C 0.95109 0.53562 0.80113 0.0
C212 C 1.0052 0.55263 0.79337 0.0
C213 C 0.0476 0.5628 0.81198 0.0
C214 C 1.0349 0.5537 0.83812 0.0
C215 C 0.98106 0.52864 0.8446 0.0
C216 C 0.9753 0.51915 0.87305 0.0
C217 C 1.03419 0.55028 0.88313 0.0
C218 C 0.06866 0.57031 0.86262 0.0
C219 C 0.95412 0.45387 0.87533 0.0
C220 C 0.93799 0.54768 0.88524 0.0
H221 H 0.23522 0.68496 0.93412 0.0
H222 H 0.28307 0.6617 0.84208 0.0
H223 H 0.17828 0.71543 0.84536 0.0
H224 H 0.12249 0.66445 0.8266 0.0
H225 H 0.19092 0.67958 0.81614 0.0
H226 H 0.19584 0.55443 0.84441 0.0
H227 H 0.20168 0.59112 0.81566 0.0
H228 H 0.13659 0.54233 0.82526 0.0
H229 H 0.09578 0.57633 -0.0058 0.0
H230 H 0.93673 0.4489 0.9687 0.0
H231 H 0.94969 0.479 0.92491 0.0
H232 H 0.15242 0.54304 0.95625 0.0
H233 H 0.19677 0.61466 0.96773 0.0
H234 H 0.1955 0.5859 0.93432 0.0
H235 H 0.09826 0.67993 0.95472 0.0
H236 H 0.16567 0.70379 0.94403 0.0
H237 H 0.15181 0.67884 0.97595 0.0
H238 H 0.32959 0.70662 0.92407 0.0
C239 C 0.24422 0.6809 0.91397 0.0
C240 C 0.92974 0.41962 0.47401 0.0
C241 C 0.88435 0.37586 0.4608 0.0
C242 C 0.87695 0.37331 0.43359 0.0
C243 C 0.96288 0.45414 0.43253 0.0
C244 C 0.96858 0.45839 0.45946 0.0
C245 C 1.02079 0.50645 0.46996 0.0
H246 H 0.2594 0.71724 0.44414 0.0
C247 C 1.01314 0.49584 0.42297 0.0
C248 C 0.04752 0.52642 0.44473 0.0
H249 H 0.18728 0.68626 0.51882 0.0
H250 H 0.11245 0.60128 0.49882 0.0
H251 H 0.2413 0.59332 0.4252 0.0
H252 H 0.14633 0.69107 0.40956 0.0
H253 H 0.16146 0.6594 0.38018 0.0
H254 H 0.21621 0.70758 0.40154 0.0
H255 H 0.25236 0.63233 0.39712 0.0
H256 H 0.20324 0.55933 0.39594 0.0
C257 C 0.05439 0.48176 0.48605 0.0
C258 C 1.00586 0.55276 0.48565 0.0
C259 C 0.03771 0.50416 0.32556 0.0
C260 C 0.08447 0.5264 0.31095 0.0
C261 C 0.13596 0.55514 0.32418 0.0
C262 C 0.14042 0.56429 0.35145 0.0
C263 C 0.09318 0.54287 0.36568 0.0
C264 C 0.04343 0.51081 0.35281 0.0
C265 C 1.00027 0.48129 0.37125 0.0
C266 C 1.03152 0.50499 0.39738 0.0
C267 C 0.08522 0.54249 0.39389 0.0
C268 C 0.9838 0.41571 0.3656 0.0
C269 C 0.9524 0.50078 0.36815 0.0
C270 C 0.2275 0.69161 0.45607 0.0
C271 C 0.22819 0.7078 0.48278 0.0
C272 C 0.18682 0.67398 0.49811 0.0
C273 C 0.14351 0.62531 0.48643 0.0
C274 C 0.142 0.61098 0.45929 0.0
C275 C 0.18402 0.64357 0.44467 0.0
C276 C 0.17539 0.62322 0.41608 0.0
C277 C 0.11938 0.57519 0.41568 0.0
C278 C 0.10036 0.5677 0.441 0.0
C279 C 0.22038 0.60112 0.40801 0.0
C280 C 0.17487 0.67277 0.40088 0.0
H281 H 0.90866 0.40822 0.39861 0.0
H282 H 0.9356 0.42221 0.49501 0.0
H283 H 0.96503 0.55079 0.47917 0.0
H284 H 1.03438 0.59666 0.48275 0.0
H285 H 1.00471 0.54744 0.50685 0.0
H286 H 0.05512 0.44219 0.47539 0.0
H287 H 0.0363 0.47073 0.50518 0.0
H288 H 0.09753 0.51135 0.48966 0.0
H289 H 0.99787 0.4802 0.31594 0.0
H290 H 0.17268 0.5712 0.31331 0.0
H291 H 0.18042 0.5873 0.36047 0.0
H292 H 1.01434 0.40516 0.354 0.0
H293 H 0.94389 0.39505 0.35443 0.0
H294 H 0.98173 0.39465 0.38371 0.0
H295 H 0.9681 0.54798 0.36785 0.0
H296 H 0.92459 0.49059 0.38445 0.0
H297 H 0.92818 0.48078 0.34958 0.0
H298 H 0.84175 0.33981 0.42333 0.0
C299 C 0.91598 0.41249 0.41935 0.0
C300 C 0.61676 0.93306 0.81806 0.0
C301 C 0.60683 0.8772 0.80653 0.0
C302 C 0.57552 0.85727 0.78282 0.0
C303 C 0.57453 0.95044 0.77956 0.0
C304 C 0.59838 0.96851 0.8044 0.0
C305 C 0.59947 0.02727 0.81348 0.0
H306 H 0.56527 0.26485 0.77766 0.0
C307 C 0.56503 0.99737 0.76898 0.0
C308 C 0.577 0.0424 0.78897 0.0
H309 H 0.60612 0.23916 0.85542 0.0
H310 H 0.60212 0.14405 0.83965 0.0
H311 H 0.64291 0.20422 0.74778 0.0
H312 H 0.47377 0.1557 0.76468 0.0
H313 H 0.47292 0.11274 0.73595 0.0
H314 H 0.50002 0.18963 0.7359 0.0
H315 H 0.59856 0.23564 0.73568 0.0
H316 H 0.60289 0.17342 0.71877 0.0
C317 C 0.65895 0.06844 0.8209 0.0
C318 C 0.56085 0.02086 0.83626 0.0
C319 C 0.56018 1.00254 0.67064 0.0
C320 C 0.55081 0.04038 0.65484 0.0
C321 C 0.53346 0.08233 0.66623 0.0
C322 C 0.52987 0.08969 0.69322 0.0
C323 C 0.54352 0.05458 0.709 0.0
C324 C 0.55463 1.00946 0.69765 0.0
C325 C 0.55754 0.97049 0.71743 0.0
C326 C 0.55435 1.00495 0.74283 0.0
C327 C 0.54798 0.05485 0.73752 0.0
C328 C 0.61274 0.96365 0.71569 0.0
C329 C 0.50729 0.91287 0.71205 0.0
C330 C 0.5734 0.23876 0.79132 0.0
C331 C 0.58611 0.25914 0.81761 0.0
C332 C 0.59626 0.224 0.83495 0.0
C333 C 0.59354 0.16892 0.8258 0.0
C334 C 0.57991 0.14887 0.79919 0.0
C335 C 0.57012 0.18417 0.78266 0.0
C336 C 0.55593 0.15772 0.75516 0.0
C337 C 0.55679 0.09945 0.75767 0.0
C338 C 0.57162 0.09401 0.78337 0.0
C339 C 0.60204 0.19438 0.73825 0.0
C340 C 0.49789 0.15393 0.74732 0.0
H341 H 0.53637 0.87652 0.75131 0.0
H342 H 0.63894 0.94875 0.83676 0.0
H343 H 0.52249 0.98213 0.83207 0.0
H344 H 0.54788 0.05695 0.8395 0.0
H345 H 0.58049 0.01651 0.85466 0.0
H346 H 0.68608 0.06631 0.80488 0.0
H347 H 0.67418 0.05698 0.83885 0.0
H348 H 0.66338 0.11334 0.82432 0.0
H349 H 0.5713 0.96844 0.66208 0.0
H350 H 0.52461 0.1108 0.65422 0.0
H351 H 0.51816 0.12354 0.7008 0.0
H352 H 0.64738 1.00608 0.71863 0.0
H353 H 0.61584 0.94257 0.69629 0.0
H354 H 0.61806 0.9372 0.73049 0.0
H355 H 0.4813 0.91164 0.69474 0.0
H356 H 0.47989 0.90471 0.7287 0.0
H357 H 0.51996 0.87636 0.70804 0.0
H358 H 0.56584 0.81403 0.77407 0.0
C359 C 0.55941 0.89359 0.76935 0.0
C360 C 0.70414 0.49053 0.14809 0.0
C361 C 0.74079 0.46869 0.13531 0.0
C362 C 0.72167 0.43174 0.11217 0.0
C363 C 0.64178 0.45422 0.11025 0.0
C364 C 0.65257 0.47998 0.13534 0.0
C365 C 0.60475 0.49667 0.14362 0.0
H366 H 0.36975 0.52586 0.09714 0.0
C367 C 0.59649 0.46404 0.09843 0.0
C368 C 0.5674 0.47934 0.11831 0.0
H369 H 0.37213 0.44608 0.16716 0.0
H370 H 0.46495 0.45046 0.15824 0.0
H371 H 0.50369 0.61696 0.09937 0.0
H372 H 0.40707 0.44675 0.06461 0.0
H373 H 0.45261 0.48167 0.04131 0.0
H374 H 0.40324 0.50937 0.05286 0.0
H375 H 0.45888 0.60359 0.07108 0.0
H376 H 0.52869 0.60987 0.06838 0.0
C377 C 0.62573 0.56151 0.15127 0.0
C378 C 0.57667 0.46337 0.16642 0.0
C379 C 0.63636 0.53065 0.0082 0.0
C380 C 0.61194 0.55622 -0.008 0.0
C381 C 0.5669 0.56791 0.00051 0.0
C382 C 0.54573 0.55315 0.0249 0.0
C383 C 0.56959 0.5259 0.04074 0.0
C384 C 0.61434 0.51537 0.03231 0.0
C385 C 0.63538 0.48722 0.0517 0.0
C386 C 0.59466 0.48135 0.07314 0.0
C387 C 0.55737 0.50537 0.06685 0.0
C388 C 0.69418 0.52885 0.06083 0.0
C389 C 0.63286 0.42869 0.03895 0.0
C390 C 0.3911 0.51214 0.11139 0.0
C391 C 0.36403 0.48756 0.13328 0.0
C392 C 0.39258 0.46718 0.15063 0.0
C393 C 0.44651 0.47065 0.14586 0.0
C394 C 0.47292 0.49588 0.12387 0.0
C395 C 0.4441 0.51448 0.10673 0.0
C396 C 0.47204 0.52757 0.08146 0.0
C397 C 0.5196 0.50973 0.08536 0.0
C398 C 0.52318 0.49539 0.11094 0.0
C399 C 0.49167 0.59275 0.0797 0.0
C400 C 0.4319 0.48989 0.05872 0.0
H401 H 0.65845 0.39576 0.08202 0.0
H402 H 0.71639 0.51689 0.16654 0.0
H403 H 0.55352 0.41745 0.15971 0.0
H404 H 0.5486 0.48143 0.17559 0.0
H405 H 0.60749 0.46653 0.18189 0.0
H406 H 0.64759 0.58539 0.13498 0.0
H407 H 0.65432 0.57419 0.16874 0.0
H408 H 0.59108 0.57433 0.15585 0.0
H409 H 0.67084 0.52109 0.00176 0.0
H410 H 0.54746 0.58729 0.988 0.0
H411 H 0.51094 0.56249 0.03023 0.0
H412 H 0.69411 0.56946 0.07064 0.0
H413 H 0.72092 0.53924 0.04398 0.0
H414 H 0.71388 0.51092 0.0745 0.0
H415 H 0.62398 0.4227 0.01749 0.0
H416 H 0.60011 0.39252 0.04704 0.0
H417 H 0.67243 0.4242 0.04173 0.0
H418 H 0.74719 0.41213 0.1027 0.0
C419 C 0.67181 0.42371 0.0998 0.0
C420 C 0.22942 0.50102 0.15502 0.0
C421 C 0.18974 0.45945 0.13701 0.0
C422 C 0.2636 0.4319 0.11923 0.0
C423 C 0.30378 0.47686 0.13559 0.0
N424 N 0.32526 0.56059 0.16604 0.0
N425 N 0.17213 0.39186 0.09876 0.0
C426 C 0.2867 0.51335 0.15254 0.0
C427 C 0.20786 0.42675 0.11826 0.0
N428 N 0.21238 0.52617 0.17564 0.0
N429 N 0.2784 0.39273 0.10501 0.0
H430 H 0.13136 0.38677 0.0971 0.0
H431 H 0.18399 0.37217 0.08277 0.0
H432 H 0.31845 0.395 0.10501 0.0
H433 H 0.25037 0.35521 0.0951 0.0
H434 H 0.23852 0.55228 0.19096 0.0
H435 H 0.17121 0.51643 0.17865 0.0
H436 H 0.31597 0.5925 0.1763 0.0
H437 H 0.36707 0.5701 0.1652 0.0
C438 C 0.81524 0.23077 0.48591 0.0
C439 C 0.76581 0.23451 0.4939 0.0
C440 C 0.80141 0.33587 0.48698 0.0
C441 C 0.84671 0.32951 0.47496 0.0
N442 N 0.89982 0.2732 0.46395 0.0
N443 N 0.72632 0.29677 0.5152 0.0
C444 C 0.85503 0.27783 0.4751 0.0
C445 C 0.76297 0.28896 0.49848 0.0
N446 N 0.82532 0.18364 0.49037 0.0
N447 N 0.79397 0.38586 0.48642 0.0
H448 H 0.70315 0.26557 0.52684 0.0
H449 H 0.72481 0.33641 0.5206 0.0
H450 H 0.82227 0.42173 0.47887 0.0
H451 H 0.75828 0.39069 0.49191 0.0
H452 H 0.86211 0.17945 0.48679 0.0
H453 H 0.7991 0.15149 0.5008 0.0
H454 H 0.90487 0.23478 0.46038 0.0
H455 H 0.9312 0.30764 0.45701 0.0
C456 C 0.63687 0.77009 0.84542 0.0
C457 C 0.66185 0.74712 0.82573 0.0
C458 C 0.66798 0.8246 0.79948 0.0
C459 C 0.63327 0.8402 0.81642 0.0
N460 N 0.58203 0.82581 0.85542 0.0
N461 N 0.69261 0.74777 0.7816 0.0
C462 C 0.61735 0.81284 0.83958 0.0
C463 C 0.67562 0.77339 0.80218 0.0
N464 N 0.63345 0.75254 0.86986 0.0
N465 N 0.69354 0.85886 0.78065 0.0
H466 H 0.69574 0.70837 0.78186 0.0
H467 H 0.69757 0.76248 0.76316 0.0
H468 H 0.68965 0.89746 0.77854 0.0
H469 H 0.72303 0.85211 0.76921 0.0
H470 H 0.62043 0.77159 0.88568 0.0
H471 H 0.64789 0.72187 0.87474 0.0
H472 H 0.56461 0.80299 0.87108 0.0
H473 H 0.56709 0.85679 0.85175 0.0
C474 C 0.89429 0.53803 0.1272 0.0
C475 C 0.91596 0.50923 0.1439 0.0
C476 C 0.82183 0.45711 0.15792 0.0
C477 C 0.8013 0.48876 0.14252 0.0
N478 N 0.82079 0.56825 0.11698 0.0
N479 N 0.90085 0.45153 0.17986 0.0
C480 C 0.83866 0.53226 0.12878 0.0
C481 C 0.87976 0.47139 0.16054 0.0
N482 N 0.92581 0.56839 0.10852 0.0
N483 N 0.78587 0.4127 0.16976 0.0
H484 H 0.94274 0.46338 0.18302 0.0
H485 H 0.87749 0.42808 0.19416 0.0
H486 H 0.74391 0.40299 0.16916 0.0
H487 H 0.79728 0.38378 0.17881 0.0
H488 H 0.91062 0.58499 0.09399 0.0
H489 H 0.96538 0.5712 0.10534 0.0
H490 H 0.84689 0.60464 0.10901 0.0
H491 H 0.78046 0.56502 0.11748 0.0
C492 C 0.30831 0.86549 0.48913 0.0
C493 C 0.36091 0.86792 0.4964 0.0
C494 C 0.32284 0.76552 0.50142 0.0
C495 C 0.27074 0.76296 0.49351 0.0
N496 N 0.2103 0.81117 0.48728 0.0
N497 N 0.41531 0.82536 0.5174 0.0
C498 C 0.26232 0.81347 0.49014 0.0
C499 C 0.36725 0.81945 0.50512 0.0
N500 N 0.30257 0.91103 0.47928 0.0
N501 N 0.33021 0.71621 0.50429 0.0
H502 H 0.44795 0.86479 0.5213 0.0
H503 H 0.42092 0.7925 0.52603 0.0
H504 H 0.29779 0.67629 0.5029 0.0
H505 H 0.3685 0.71456 0.50676 0.0
H506 H 0.26608 0.9091 0.47081 0.0
H507 H 0.33508 0.9497 0.47756 0.0
H508 H 0.20116 0.84733 0.48721 0.0
H509 H 0.17588 0.77325 0.48754 0.0
C510 C 0.63587 0.4213 0.83371 0.0
C511 C 0.58599 0.42895 0.82915 0.0
C512 C 0.53675 0.32452 0.82358 0.0
C513 C 0.58646 0.31687 0.82596 0.0
N514 N 0.68472 0.35781 0.82969 0.0
N515 N 0.4943 0.38568 0.8094 0.0
C516 C 0.63646 0.36525 0.83016 0.0
C517 C 0.53784 0.37989 0.82128 0.0
N518 N 0.68271 0.46691 0.84163 0.0
N519 N 0.48814 0.27848 0.82317 0.0
H520 H 0.49576 0.42464 0.80398 0.0
H521 H 0.46001 0.35092 0.80142 0.0
H522 H 0.48591 0.2372 0.82497 0.0
H523 H 0.45054 0.28237 0.82381 0.0
H524 H 0.71785 0.46348 0.84893 0.0
H525 H 0.68585 0.50853 0.84203 0.0
H526 H 0.7229 0.39114 0.82979 0.0
H527 H 0.68669 0.31763 0.82768 0.0
C528 C 0.55364 0.87048 0.48136 0.0
C529 C 0.59158 0.91668 0.49829 0.0
C530 C 0.61163 0.84619 0.52132 0.0
C531 C 0.56612 0.80127 0.50827 0.0
N532 N 0.48883 0.77171 0.47761 0.0
N533 N 0.64588 0.94428 0.53935 0.0
C534 C 0.53567 0.81358 0.48869 0.0
C535 C 0.61816 0.90353 0.5195 0.0
N536 N 0.53669 0.87978 0.45773 0.0
N537 N 0.6479 0.83401 0.53611 0.0
H538 H 0.64599 0.98523 0.54134 0.0
H539 H 0.66179 0.93482 0.55607 0.0
H540 H 0.6443 0.79219 0.5377 0.0
H541 H 0.68435 0.86541 0.5443 0.0
H542 H 0.51257 0.84667 0.44404 0.0
H543 H 0.55173 0.91944 0.45048 0.0
H544 H 0.46179 0.78008 0.46546 0.0
H545 H 0.47515 0.72953 0.48216 0.0
C546 C 0.85814 0.60639 0.78811 0.0
C547 C 0.81037 0.5584 0.79199 0.0
C548 C 0.85834 0.49578 0.7807 0.0
C549 C 0.90802 0.5438 0.78565 0.0
N550 N 0.95673 0.64638 0.78876 0.0
N551 N 0.76058 0.45589 0.78641 0.0
C552 C 0.90845 0.59973 0.78668 0.0
C553 C 0.80851 0.50233 0.78574 0.0
N554 N 0.85495 0.65798 0.78581 0.0
N555 N 0.86014 0.44397 0.77309 0.0
H556 H 0.72324 0.45917 0.78949 0.0
H557 H 0.75774 0.4139 0.78444 0.0
H558 H 0.89739 0.43999 0.77008 0.0
H559 H 0.82577 0.40685 0.76785 0.0
H560 H 0.88762 0.6938 0.78084 0.0
H561 H 0.81779 0.66302 0.78613 0.0
H562 H 0.95963 0.68794 0.79375 0.0
H563 H 0.99432 0.64359 0.78588 0.0
C564 C 0.22276 0.75364 0.14069 0.0
C565 C 0.22254 0.69768 0.13814 0.0
C566 C 0.32256 0.73688 0.13954 0.0
C567 C 0.32282 0.79274 0.1426 0.0
N568 N 0.27533 0.85525 0.13921 0.0
N569 N 0.27042 0.63619 0.12684 0.0
C570 C 0.27343 0.80131 0.14069 0.0
C571 C 0.27197 0.68935 0.13492 0.0
N572 N 0.17534 0.76147 0.14491 0.0
N573 N 0.37034 0.72911 0.14234 0.0
H574 H 0.23392 0.60076 0.1224 0.0
H575 H 0.30495 0.62834 0.12192 0.0
H576 H 0.40845 0.76299 0.1448 0.0
H577 H 0.37194 0.6893 0.14372 0.0
H578 H 0.17393 0.80131 0.14991 0.0
H579 H 0.13741 0.72782 0.14529 0.0
H580 H 0.241 0.86407 0.13545 0.0
H581 H 0.31216 0.89077 0.13932 0.0
C582 C 0.47992 0.18526 0.5015 0.0
C583 C 0.52447 0.17648 0.48965 0.0
C584 C 0.57042 0.28039 0.48729 0.0
C585 C 0.52369 0.28809 0.49701 0.0
N586 N 0.42869 0.24564 0.50689 0.0
N587 N 0.60682 0.21496 0.46611 0.0
C588 C 0.47673 0.23968 0.50198 0.0
C589 C 0.56823 0.22387 0.48103 0.0
N590 N 0.44199 0.14262 0.51359 0.0
N591 N 0.61765 0.32682 0.485 0.0
H592 H 0.60625 0.17442 0.46108 0.0
H593 H 0.63644 0.24699 0.45698 0.0
H594 H 0.62102 0.36875 0.4894 0.0
H595 H 0.6546 0.32368 0.48059 0.0
H596 H 0.41179 0.14869 0.52471 0.0
H597 H 0.44424 0.10309 0.51507 0.0
H598 H 0.39181 0.21102 0.50822 0.0
H599 H 0.4246 0.28471 0.50685 0.0
C600 C 0.44447 0.68968 0.85394 0.0
C601 C 0.4462 0.6387 0.86206 0.0
C602 C 0.36098 0.6185 0.88391 0.0
C603 C 0.36131 0.67182 0.87764 0.0
N604 N 0.40691 0.7624 0.86053 0.0
N605 N 0.41424 0.56194 0.88979 0.0
C606 C 0.40439 0.70893 0.8639 0.0
C607 C 0.40695 0.60532 0.87859 0.0
N608 N 0.47908 0.71784 0.83568 0.0
N609 N 0.31564 0.57895 0.89356 0.0
H610 H 0.44791 0.5512 0.88658 0.0
H611 H 0.38972 0.54037 0.90425 0.0
H612 H 0.28009 0.58565 0.89744 0.0
H613 H 0.31133 0.53711 0.89545 0.0
H614 H 0.4758 0.75174 0.82694 0.0
H615 H 0.50859 0.70451 0.82768 0.0
H616 H 0.44018 0.79343 0.85284 0.0
H617 H 0.37764 0.77726 0.86756 0.0
C618 C 0.83465 0.27562 0.14352 0.0
C619 C 0.88451 0.26818 0.14639 0.0
C620 C 0.83428 0.16911 0.15536 0.0
C621 C 0.78629 0.18046 0.15756 0.0
N622 N 0.73906 0.24335 0.1535 0.0
N623 N 0.93326 0.20834 0.15426 0.0
C624 C 0.78568 0.23305 0.15107 0.0
C625 C 0.88474 0.2146 0.15151 0.0
N626 N 0.83427 0.32307 0.1332 0.0
N627 N 0.83129 0.11492 0.1573 0.0
H628 H 0.97083 0.24054 0.15115 0.0
H629 H 0.93678 0.17254 0.16095 0.0
H630 H 0.79456 0.08114 0.16017 0.0
H631 H 0.86365 0.1023 0.1538 0.0
H632 H 0.79866 0.32862 0.12834 0.0
H633 H 0.86955 0.35459 0.12711 0.0
H634 H 0.73767 0.28327 0.15223 0.0
H635 H 0.7019 0.21233 0.15806 0.0
C636 C 0.97502 0.47798 0.05396 0.0
C637 C 1.02157 0.46895 0.06266 0.0
C638 C 0.05067 0.46731 0.01792 0.0
C639 C 1.0113 0.48872 0.01046 0.0
N640 N 0.93776 0.51849 0.02181 0.0
N641 N 0.105 0.45607 0.05334 0.0
C642 C 0.9732 0.49427 0.02844 0.0
C643 C 0.05963 0.46345 0.04471 0.0
N644 N 0.93293 0.47153 0.07006 0.0
N645 N 0.07896 0.45021 -0.0007 0.0
H646 H 0.11179 0.45103 0.07276 0.0
H647 H 0.13736 0.45846 0.04159 0.0
H648 H 0.07215 0.45116 0.97937 0.0
H649 H 0.10485 0.42975 0.00336 0.0
H650 H 0.89582 0.47226 0.0638 0.0
H651 H 0.93309 0.46031 0.08902 0.0
H652 H 0.9136 0.52966 0.03521 0.0
H653 H 0.93553 0.53167 0.00339 0.0
C654 C 0.57881 1.00277 0.39336 0.0
C655 C 0.55702 0.03874 0.40745 0.0
C656 C 0.52764 0.06322 0.36662 0.0
C657 C 0.54421 0.02256 0.35273 0.0
N658 N 0.58037 0.94919 0.35228 0.0
N659 N 0.50905 0.10194 0.40847 0.0
C660 C 0.56854 0.99117 0.36593 0.0
C661 C 0.53106 0.06879 0.39435 0.0
N662 N 0.61035 0.98083 0.4062 0.0
N663 N 0.50992 0.09732 0.35322 0.0
H664 H 0.51402 0.10994 0.42873 0.0
H665 H 0.48382 0.11943 0.40037 0.0
H666 H 0.50585 0.09352 0.33289 0.0
H667 H 0.50276 0.13195 0.36201 0.0
H668 H 0.63191 0.95888 0.39678 0.0
H669 H 0.61902 0.98891 0.42631 0.0
H670 H 0.5923 0.92038 0.36109 0.0
H671 H 0.57443 0.94024 0.33204 0.0
C672 C 0.59735 0.53949 0.73595 0.0
C673 C 0.58449 0.57889 0.753 0.0
C674 C 0.53326 0.59496 0.71693 0.0
C675 C 0.55277 0.56181 0.69934 0.0
N676 N 0.61854 0.51844 0.69187 0.0
N677 N 0.55256 0.65603 0.75753 0.0
C678 C 0.58965 0.53907 0.70875 0.0
C679 C 0.55609 0.61032 0.74289 0.0
N680 N 0.61379 0.50005 0.74549 0.0
N681 N 0.49155 0.60976 0.70938 0.0
H682 H 0.57161 0.67101 0.77605 0.0
H683 H 0.53616 0.68293 0.75 0.0
H684 H 0.47158 0.59672 0.69097 0.0
H685 H 0.47307 0.6297 0.72237 0.0
H686 H 0.61939 0.46788 0.73342 0.0
H687 H 0.61486 0.49461 0.76529 0.0
H688 H 0.64898 0.50564 0.69825 0.0
H689 H 0.61676 0.52054 0.67176 0.0
C690 C 0.54316 0.98949 0.58246 0.0
C691 C 0.57041 0.04276 0.5721 0.0
C692 C 0.59755 0.08869 0.61652 0.0
C693 C 0.56092 0.03857 0.62654 0.0
N694 N 0.49099 0.94321 0.618 0.0
N695 N 0.61269 0.14619 0.58053 0.0
C696 C 0.53165 0.98923 0.60928 0.0
C697 C 0.59518 0.09337 0.58941 0.0
N698 N 0.52941 0.93908 0.56704 0.0
N699 N 0.63472 0.13179 0.63283 0.0
H700 H 0.60688 0.15272 0.56124 0.0
H701 H 0.6267 0.18389 0.59306 0.0
H702 H 0.63893 0.12898 0.65278 0.0
H703 H 0.66515 0.16712 0.62598 0.0
H704 H 0.51388 0.8994 0.57443 0.0
H705 H 0.53932 0.93688 0.54757 0.0
H706 H 0.46511 0.90866 0.60546 0.0
H707 H 0.47942 0.94198 0.6373 0.0
C708 C 0.63228 0.52698 0.92012 0.0
C709 C 0.6567 0.5834 0.91292 0.0
C710 C 0.66237 0.62156 0.95875 0.0
C711 C 0.63031 0.56563 0.96511 0.0
N712 N 0.58059 0.46512 0.95179 0.0
N713 N 0.69545 0.68491 0.92457 0.0
C714 C 0.61477 0.51815 0.94586 0.0
C715 C 0.67256 0.63093 0.93209 0.0
N716 N 0.62525 0.48182 0.90211 0.0
N717 N 0.68335 0.6653 0.97821 0.0
H718 H 0.70619 0.69255 0.90539 0.0
H719 H 0.70197 0.72175 0.93692 0.0
H720 H 0.67616 0.65964 -0.00213 0.0
H721 H 0.71104 0.70604 0.9752 0.0
H722 H 0.61267 0.43973 0.90655 0.0
H723 H 0.63719 0.48745 0.88306 0.0
H724 H 0.56261 0.43023 0.93788 0.0
H725 H 0.56643 0.45661 0.9704 0.0
C726 C 0.10815 0.55568 0.24006 0.0
C727 C 0.06948 0.50432 0.22645 0.0
C728 C 0.05015 0.46411 0.26843 0.0
C729 C 0.07976 0.51869 0.28189 0.0
N730 N 0.12322 0.62065 0.27898 0.0
N731 N 0.98966 0.41693 0.2312 0.0
C732 C 0.10445 0.56594 0.26729 0.0
C733 C 0.03633 0.46031 0.24154 0.0
N734 N 0.15054 0.59329 0.22789 0.0
N735 N 0.03602 0.41571 0.28091 0.0
H736 H 0.97238 0.41604 0.21289 0.0
H737 H 0.96362 0.38659 0.24249 0.0
H738 H 0.04854 0.41618 0.30023 0.0
H739 H 1.01756 0.37492 0.27099 0.0
H740 H 0.18072 0.62905 0.23805 0.0
H741 H 0.16061 0.58488 0.20898 0.0
H742 H 0.13789 0.65607 0.26832 0.0
H743 H 0.11806 0.63043 0.29862 0.0
loop_
_geom_bond_atom_site_label_1
_geom_bond_atom_site_label_2
_geom_bond_distance
_geom_bond_site_symmetry_2
_ccdc_geom_bond_type
Tb0 O3 2.453 1_455 S
Tb0 O4 2.596 1_455 S
Tb0 O5 2.374 . S
Tb0 O13 2.343 . S
Tb0 O15 2.353 . S
Tb0 O17 2.427 . S
Tb0 O18 2.513 . S
C1 O5 1.251 . S
C1 O7 1.263 . S
Tb2 O4 2.343 1_455 S
Tb2 O7 2.353 . S
Tb2 O10 2.427 1_455 S
Tb2 O11 2.513 1_455 S
Tb2 O12 2.453 . S
Tb2 O13 2.596 . S
Tb2 O14 2.374 . S
O3 Tb0 2.453 1_655 S
O3 C19 1.245 . S
O4 Tb0 2.596 1_655 S
O4 Tb2 2.343 1_655 S
O4 C19 1.259 . S
O5 Tb0 2.374 . S
O5 C1 1.251 . S
C6 O10 1.275 . S
C6 O11 1.246 . S
O7 C1 1.263 . S
O7 Tb2 2.353 . S
C8 O12 1.245 . S
C8 O13 1.259 . S
C9 O14 1.250 . S
C9 O15 1.263 . S
O10 Tb2 2.427 1_655 S
O10 C6 1.275 . S
O11 Tb2 2.513 1_655 S
O11 C6 1.246 . S
O12 Tb2 2.453 . S
O12 C8 1.245 . S
O13 Tb0 2.343 . S
O13 Tb2 2.596 . S
O13 C8 1.259 . S
O14 Tb2 2.374 . S
O14 C9 1.250 . S
O15 Tb0 2.353 . S
O15 C9 1.263 . S
C16 O17 1.275 . S
C16 O18 1.246 . S
O17 Tb0 2.427 . S
O17 C16 1.275 . S
O18 Tb0 2.513 . S
O18 C16 1.246 . S
C19 O3 1.245 . S
C19 O4 1.259 . S
Tb20 O23 2.453 . S
Tb20 O24 2.596 . S
Tb20 O25 2.374 . S
Tb20 O33 2.343 1_545 S
Tb20 O35 2.353 . S
Tb20 O37 2.427 1_545 S
Tb20 O38 2.513 1_545 S
C21 O25 1.251 . S
C21 O27 1.263 . S
Tb22 O24 2.343 . S
Tb22 O27 2.353 . S
Tb22 O30 2.427 . S
Tb22 O31 2.513 . S
Tb22 O32 2.453 1_545 S
Tb22 O33 2.596 1_545 S
Tb22 O34 2.374 . S
O23 Tb20 2.453 . S
O23 C39 1.245 . S
O24 Tb20 2.596 . S
O24 Tb22 2.343 . S
O24 C39 1.259 . S
O25 Tb20 2.374 . S
O25 C21 1.251 . S
C26 O30 1.275 . S
C26 O31 1.246 . S
O27 C21 1.263 . S
O27 Tb22 2.353 . S
C28 O32 1.245 . S
C28 O33 1.259 . S
C29 O34 1.250 . S
C29 O35 1.263 . S
O30 Tb22 2.427 . S
O30 C26 1.275 . S
O31 Tb22 2.513 . S
O31 C26 1.246 . S
O32 Tb22 2.453 1_565 S
O32 C28 1.245 . S
O33 Tb20 2.343 1_565 S
O33 Tb22 2.596 1_565 S
O33 C28 1.259 . S
O34 Tb22 2.374 . S
O34 C29 1.250 . S
O35 Tb20 2.353 . S
O35 C29 1.263 . S
C36 O37 1.275 . S
C36 O38 1.246 . S
O37 Tb20 2.427 1_565 S
O37 C36 1.275 . S
O38 Tb20 2.513 1_565 S
O38 C36 1.246 . S
C39 O23 1.245 . S
C39 O24 1.259 . S
Tb40 O43 2.453 . S
Tb40 O44 2.596 . S
Tb40 O45 2.374 . S
Tb40 O53 2.343 . S
Tb40 O55 2.353 . S
Tb40 O57 2.427 . S
Tb40 O58 2.513 . S
C41 O45 1.251 . S
C41 O47 1.263 . S
Tb42 O44 2.343 . S
Tb42 O47 2.353 . S
Tb42 O50 2.427 . S
Tb42 O51 2.513 . S
Tb42 O52 2.453 . S
Tb42 O53 2.596 . S
Tb42 O54 2.374 . S
O43 Tb40 2.453 . S
O43 C59 1.245 . S
O44 Tb40 2.596 . S
O44 Tb42 2.343 . S
O44 C59 1.259 . S
O45 Tb40 2.374 . S
O45 C41 1.251 . S
C46 O50 1.275 . S
C46 O51 1.246 . S
O47 C41 1.263 . S
O47 Tb42 2.353 . S
C48 O52 1.245 . S
C48 O53 1.259 . S
C49 O54 1.250 . S
C49 O55 1.263 . S
O50 Tb42 2.427 . S
O50 C46 1.275 . S
O51 Tb42 2.513 . S
O51 C46 1.246 . S
O52 Tb42 2.453 . S
O52 C48 1.245 . S
O53 Tb40 2.343 . S
O53 Tb42 2.596 . S
O53 C48 1.259 . S
O54 Tb42 2.374 . S
O54 C49 1.250 . S
O55 Tb40 2.353 . S
O55 C49 1.263 . S
C56 O57 1.275 . S
C56 O58 1.246 . S
O57 Tb40 2.427 . S
O57 C56 1.275 . S
O58 Tb40 2.513 . S
O58 C56 1.246 . S
C59 O43 1.245 . S
C59 O44 1.259 . S
C60 C61 1.391 . S
C60 C64 1.391 . S
C60 H102 0.948 . S
C61 C60 1.391 . S
C61 C62 1.391 . S
C62 C61 1.391 . S
C62 H118 0.947 . S
C62 C119 1.392 . S
C63 C64 1.391 . S
C63 C67 1.397 . S
C63 C119 1.419 . S
C64 C60 1.391 . S
C64 C63 1.391 . S
C64 C65 1.399 . S
C65 C64 1.399 . S
C65 C68 1.396 . S
C65 C77 1.453 . S
C65 C78 1.684 . S
H66 C90 0.948 . S
C67 C63 1.397 . S
C67 C68 1.394 . S
C67 C86 1.723 . S
C68 C65 1.396 . S
C68 C67 1.394 . S
C68 C98 1.723 1_545 S
H69 C92 0.947 . S
H70 C93 0.948 . S
H71 C99 0.982 . S
H72 C100 0.979 . S
H73 C100 0.980 . S
H74 C100 0.983 . S
H75 C99 0.979 . S
H76 C99 0.977 . S
C77 C65 1.453 . S
C77 H106 0.982 . S
C77 H107 0.979 . S
C77 H108 0.977 1_545 S
C78 C65 1.684 . S
C78 H103 0.979 . S
C78 H104 0.980 . S
C78 H105 0.983 . S
C79 C80 1.391 . S
C79 C84 1.391 . S
C79 H109 0.948 . S
C80 C79 1.391 . S
C80 C81 1.391 . S
C81 C80 1.391 . S
C81 C82 1.392 . S
C81 H110 0.947 1_545 S
C82 C81 1.392 . S
C82 C83 1.419 . S
C82 H111 0.948 1_545 S
C83 C82 1.419 . S
C83 C84 1.391 . S
C83 C87 1.397 . S
C84 C79 1.391 . S
C84 C83 1.391 . S
C84 C85 1.399 . S
C85 C84 1.399 . S
C85 C86 1.396 . S
C85 C88 1.453 . S
C85 C89 1.684 . S
C86 C67 1.723 . S
C86 C85 1.396 . S
C86 C87 1.394 . S
C87 C83 1.397 . S
C87 C86 1.394 . S
C87 C97 1.723 1_545 S
C88 C85 1.453 . S
C88 H112 0.982 . S
C88 H113 0.979 . S
C88 H114 0.977 . S
C89 C85 1.684 . S
C89 H115 0.979 . S
C89 H116 0.980 . S
C89 H117 0.983 . S
C90 H66 0.948 . S
C90 C91 1.391 . S
C90 C95 1.391 . S
C91 C90 1.391 . S
C91 C92 1.391 . S
C92 H69 0.947 . S
C92 C91 1.391 . S
C92 C93 1.392 . S
C93 H70 0.948 . S
C93 C92 1.392 . S
C93 C94 1.419 . S
C94 C93 1.419 . S
C94 C95 1.391 . S
C94 C98 1.397 . S
C95 C90 1.391 . S
C95 C94 1.391 . S
C95 C96 1.399 . S
C96 C95 1.399 . S
C96 C97 1.396 . S
C96 C99 1.453 . S
C96 C100 1.684 . S
C97 C87 1.723 1_565 S
C97 C96 1.396 . S
C97 C98 1.394 . S
C98 C68 1.723 1_565 S
C98 C94 1.397 . S
C98 C97 1.394 . S
C99 H71 0.982 . S
C99 H75 0.979 . S
C99 H76 0.977 . S
C99 C96 1.453 . S
C100 H72 0.979 . S
C100 H73 0.980 . S
C100 H74 0.983 . S
C100 C96 1.684 . S
H101 C119 0.948 . S
H102 C60 0.948 . S
H103 C78 0.979 . S
H104 C78 0.980 . S
H105 C78 0.983 . S
H106 C77 0.982 . S
H107 C77 0.979 . S
H108 C77 0.977 1_565 S
H109 C79 0.948 . S
H110 C81 0.947 1_565 S
H111 C82 0.948 1_565 S
H112 C88 0.982 . S
H113 C88 0.979 . S
H114 C88 0.977 . S
H115 C89 0.979 . S
H116 C89 0.980 . S
H117 C89 0.983 . S
H118 C62 0.947 . S
C119 C62 1.392 . S
C119 C63 1.419 . S
C119 H101 0.948 . S
C120 C121 1.391 . S
C120 C124 1.391 . S
C120 H162 0.948 . S
C121 C120 1.391 . S
C121 C122 1.391 . S
C122 C121 1.391 . S
C122 H178 0.947 . S
C122 C179 1.392 . S
C123 C124 1.391 . S
C123 C127 1.397 . S
C123 C179 1.419 . S
C124 C120 1.391 . S
C124 C123 1.391 . S
C124 C125 1.399 . S
C125 C124 1.399 . S
C125 C128 1.396 . S
C125 C137 1.453 . S
C125 C138 1.684 . S
H126 C150 0.948 . S
C127 C123 1.397 . S
C127 C128 1.394 . S
C127 C146 1.723 . S
C128 C125 1.396 . S
C128 C127 1.394 . S
C128 C158 1.723 . S
H129 C152 0.947 . S
H130 C153 0.948 . S
H131 C159 0.982 . S
H132 C160 0.979 . S
H133 C160 0.980 . S
H134 C160 0.983 . S
H135 C159 0.979 . S
H136 C159 0.977 . S
C137 C125 1.453 . S
C137 H166 0.982 . S
C137 H167 0.979 . S
C137 H168 0.977 . S
C138 C125 1.684 . S
C138 H163 0.979 . S
C138 H164 0.980 . S
C138 H165 0.983 . S
C139 C140 1.391 . S
C139 C144 1.391 . S
C139 H169 0.948 . S
C140 C139 1.391 . S
C140 C141 1.391 . S
C141 C140 1.391 . S
C141 C142 1.392 . S
C141 H170 0.947 . S
C142 C141 1.392 . S
C142 C143 1.419 . S
C142 H171 0.948 . S
C143 C142 1.419 . S
C143 C144 1.391 . S
C143 C147 1.397 . S
C144 C139 1.391 . S
C144 C143 1.391 . S
C144 C145 1.399 . S
C145 C144 1.399 . S
C145 C146 1.396 . S
C145 C148 1.453 . S
C145 C149 1.684 . S
C146 C127 1.723 . S
C146 C145 1.396 . S
C146 C147 1.394 . S
C147 C143 1.397 . S
C147 C146 1.394 . S
C147 C157 1.723 . S
C148 C145 1.453 . S
C148 H172 0.982 . S
C148 H173 0.979 . S
C148 H174 0.977 . S
C149 C145 1.684 . S
C149 H175 0.979 . S
C149 H176 0.980 . S
C149 H177 0.983 . S
C150 H126 0.948 . S
C150 C151 1.391 . S
C150 C155 1.391 . S
C151 C150 1.391 . S
C151 C152 1.391 . S
C152 H129 0.947 . S
C152 C151 1.391 . S
C152 C153 1.392 . S
C153 H130 0.948 . S
C153 C152 1.392 . S
C153 C154 1.419 . S
C154 C153 1.419 . S
C154 C155 1.391 . S
C154 C158 1.397 . S
C155 C150 1.391 . S
C155 C154 1.391 . S
C155 C156 1.399 . S
C156 C155 1.399 . S
C156 C157 1.396 . S
C156 C159 1.453 . S
C156 C160 1.684 . S
C157 C147 1.723 . S
C157 C156 1.396 . S
C157 C158 1.394 . S
C158 C128 1.723 . S
C158 C154 1.397 . S
C158 C157 1.394 . S
C159 H131 0.982 . S
C159 H135 0.979 . S
C159 H136 0.977 . S
C159 C156 1.453 . S
C160 H132 0.979 . S
C160 H133 0.980 . S
C160 H134 0.983 . S
C160 C156 1.684 . S
H161 C179 0.948 . S
H162 C120 0.948 . S
H163 C138 0.979 . S
H164 C138 0.980 . S
H165 C138 0.983 . S
H166 C137 0.982 . S
H167 C137 0.979 . S
H168 C137 0.977 . S
H169 C139 0.948 . S
H170 C141 0.947 . S
H171 C142 0.948 . S
H172 C148 0.982 . S
H173 C148 0.979 . S
H174 C148 0.977 . S
H175 C149 0.979 . S
H176 C149 0.980 . S
H177 C149 0.983 . S
H178 C122 0.947 . S
C179 C122 1.392 . S
C179 C123 1.419 . S
C179 H161 0.948 . S
C180 C181 1.391 . S
C180 C184 1.391 . S
C180 H222 0.948 . S
C181 C180 1.391 . S
C181 C182 1.391 . S
C182 C181 1.391 . S
C182 H238 0.947 . S
C182 C239 1.392 . S
C183 C184 1.391 . S
C183 C187 1.397 . S
C183 C239 1.419 . S
C184 C180 1.391 . S
C184 C183 1.391 . S
C184 C185 1.399 . S
C185 C184 1.399 . S
C185 C188 1.396 . S
C185 C197 1.453 . S
C185 C198 1.684 . S
H186 C210 0.948 . S
C187 C183 1.397 . S
C187 C188 1.394 . S
C187 C206 1.723 . S
C188 C185 1.396 . S
C188 C187 1.394 . S
C188 C218 1.723 . S
H189 C212 0.947 . S
H190 C213 0.948 1_455 S
H191 C219 0.982 . S
H192 C220 0.979 . S
H193 C220 0.980 . S
H194 C220 0.983 . S
H195 C219 0.979 . S
H196 C219 0.977 . S
C197 C185 1.453 . S
C197 H226 0.982 . S
C197 H227 0.979 . S
C197 H228 0.977 . S
C198 C185 1.684 . S
C198 H223 0.979 . S
C198 H224 0.980 . S
C198 H225 0.983 . S
C199 C200 1.391 1_556 S
C199 C204 1.391 . S
C199 H229 0.948 . S
C200 C199 1.391 1_554 S
C200 C201 1.391 1_554 S
C201 C200 1.391 1_556 S
C201 C202 1.392 . S
C201 H230 0.945 1_455 S
C202 C201 1.392 . S
C202 C203 1.419 . S
C202 H231 0.948 1_455 S
C203 C202 1.419 . S
C203 C204 1.391 . S
C203 C207 1.397 . S
C204 C199 1.391 . S
C204 C203 1.391 . S
C204 C205 1.399 . S
C205 C204 1.399 . S
C205 C206 1.396 . S
C205 C208 1.453 . S
C205 C209 1.684 . S
C206 C187 1.723 . S
C206 C205 1.396 . S
C206 C207 1.394 . S
C207 C203 1.397 . S
C207 C206 1.394 . S
C207 C217 1.723 . S
C208 C205 1.453 . S
C208 H232 0.982 . S
C208 H233 0.979 . S
C208 H234 0.977 . S
C209 C205 1.684 . S
C209 H235 0.979 . S
C209 H236 0.980 . S
C209 H237 0.983 . S
C210 H186 0.948 . S
C210 C211 1.391 . S
C210 C215 1.391 . S
C211 C210 1.391 . S
C211 C212 1.391 . S
C212 H189 0.947 . S
C212 C211 1.391 . S
C212 C213 1.392 . S
C213 H190 0.948 1_655 S
C213 C212 1.392 . S
C213 C214 1.419 . S
C214 C213 1.419 . S
C214 C215 1.391 . S
C214 C218 1.397 1_655 S
C215 C210 1.391 . S
C215 C214 1.391 . S
C215 C216 1.399 . S
C216 C215 1.399 . S
C216 C217 1.396 1_655 S
C216 C219 1.453 . S
C216 C220 1.684 . S
C217 C207 1.723 . S
C217 C216 1.396 1_455 S
C217 C218 1.394 . S
C218 C188 1.723 . S
C218 C214 1.397 1_455 S
C218 C217 1.394 . S
C219 H191 0.982 . S
C219 H195 0.979 . S
C219 H196 0.977 . S
C219 C216 1.453 . S
C220 H192 0.979 . S
C220 H193 0.980 . S
C220 H194 0.983 . S
C220 C216 1.684 . S
H221 C239 0.948 . S
H222 C180 0.948 . S
H223 C198 0.979 . S
H224 C198 0.980 . S
H225 C198 0.983 . S
H226 C197 0.982 . S
H227 C197 0.979 . S
H228 C197 0.977 . S
H229 C199 0.948 . S
H230 C201 0.945 1_655 S
H231 C202 0.948 1_655 S
H232 C208 0.982 . S
H233 C208 0.979 . S
H234 C208 0.977 . S
H235 C209 0.979 . S
H236 C209 0.980 . S
H237 C209 0.983 . S
H238 C182 0.947 . S
C239 C182 1.392 . S
C239 C183 1.419 . S
C239 H221 0.948 . S
C240 C241 1.391 . S
C240 C244 1.391 . S
C240 H282 0.948 . S
C241 C240 1.391 . S
C241 C242 1.391 . S
C242 C241 1.391 . S
C242 H298 0.947 . S
C242 C299 1.392 . S
C243 C244 1.391 . S
C243 C247 1.397 . S
C243 C299 1.419 . S
C244 C240 1.391 . S
C244 C243 1.391 . S
C244 C245 1.399 . S
C245 C244 1.399 . S
C245 C248 1.396 . S
C245 C257 1.453 . S
C245 C258 1.684 . S
H246 C270 0.948 . S
C247 C243 1.397 . S
C247 C248 1.394 . S
C247 C266 1.723 . S
C248 C245 1.396 . S
C248 C247 1.394 . S
C248 C278 1.723 1_655 S
H249 C272 0.947 . S
H250 C273 0.948 . S
H251 C279 0.982 . S
H252 C280 0.979 . S
H253 C280 0.980 . S
H254 C280 0.983 . S
H255 C279 0.979 . S
H256 C279 0.977 . S
C257 C245 1.453 . S
C257 H286 0.982 1_655 S
C257 H287 0.979 . S
C257 H288 0.977 1_655 S
C258 C245 1.684 . S
C258 H283 0.979 . S
C258 H284 0.980 . S
C258 H285 0.983 . S
C259 C260 1.391 1_655 S
C259 C264 1.391 . S
C259 H289 0.948 . S
C260 C259 1.391 1_455 S
C260 C261 1.391 . S
C261 C260 1.391 . S
C261 C262 1.392 . S
C261 H290 0.947 . S
C262 C261 1.392 . S
C262 C263 1.419 . S
C262 H291 0.948 . S
C263 C262 1.419 . S
C263 C264 1.391 1_455 S
C263 C267 1.397 . S
C264 C259 1.391 . S
C264 C263 1.391 1_655 S
C264 C265 1.399 . S
C265 C264 1.399 . S
C265 C266 1.396 . S
C265 C268 1.453 . S
C265 C269 1.684 . S
C266 C247 1.723 . S
C266 C265 1.396 . S
C266 C267 1.394 1_655 S
C267 C263 1.397 . S
C267 C266 1.394 1_455 S
C267 C277 1.723 . S
C268 C265 1.453 . S
C268 H292 0.982 . S
C268 H293 0.979 . S
C268 H294 0.977 . S
C269 C265 1.684 . S
C269 H295 0.979 . S
C269 H296 0.980 . S
C269 H297 0.983 . S
C270 H246 0.948 . S
C270 C271 1.391 . S
C270 C275 1.391 . S
C271 C270 1.391 . S
C271 C272 1.391 . S
C272 H249 0.947 . S
C272 C271 1.391 . S
C272 C273 1.392 . S
C273 H250 0.948 . S
C273 C272 1.392 . S
C273 C274 1.419 . S
C274 C273 1.419 . S
C274 C275 1.391 . S
C274 C278 1.397 . S
C275 C270 1.391 . S
C275 C274 1.391 . S
C275 C276 1.399 . S
C276 C275 1.399 . S
C276 C277 1.396 . S
C276 C279 1.453 . S
C276 C280 1.684 . S
C277 C267 1.723 . S
C277 C276 1.396 . S
C277 C278 1.394 . S
C278 C248 1.723 1_455 S
C278 C274 1.397 . S
C278 C277 1.394 . S
C279 H251 0.982 . S
C279 H255 0.979 . S
C279 H256 0.977 . S
C279 C276 1.453 . S
C280 H252 0.979 . S
C280 H253 0.980 . S
C280 H254 0.983 . S
C280 C276 1.684 . S
H281 C299 0.948 . S
H282 C240 0.948 . S
H283 C258 0.979 . S
H284 C258 0.980 . S
H285 C258 0.983 . S
H286 C257 0.982 1_455 S
H287 C257 0.979 . S
H288 C257 0.977 1_455 S
H289 C259 0.948 . S
H290 C261 0.947 . S
H291 C262 0.948 . S
H292 C268 0.982 . S
H293 C268 0.979 . S
H294 C268 0.977 . S
H295 C269 0.979 . S
H296 C269 0.980 . S
H297 C269 0.983 . S
H298 C242 0.947 . S
C299 C242 1.392 . S
C299 C243 1.419 . S
C299 H281 0.948 . S
C300 C301 1.391 . S
C300 C304 1.391 . S
C300 H342 0.948 . S
C301 C300 1.391 . S
C301 C302 1.391 . S
C302 C301 1.391 . S
C302 H358 0.947 . S
C302 C359 1.392 . S
C303 C304 1.391 . S
C303 C307 1.397 . S
C303 C359 1.419 . S
C304 C300 1.391 . S
C304 C303 1.391 . S
C304 C305 1.399 . S
C305 C304 1.399 . S
C305 C308 1.396 1_565 S
C305 C317 1.453 1_565 S
C305 C318 1.684 . S
H306 C330 0.948 . S
C307 C303 1.397 . S
C307 C308 1.394 1_565 S
C307 C326 1.723 . S
C308 C305 1.396 1_545 S
C308 C307 1.394 1_545 S
C308 C338 1.723 . S
H309 C332 0.947 . S
H310 C333 0.948 . S
H311 C339 0.982 . S
H312 C340 0.979 . S
H313 C340 0.980 . S
H314 C340 0.983 . S
H315 C339 0.979 . S
H316 C339 0.977 . S
C317 C305 1.453 1_545 S
C317 H346 0.982 . S
C317 H347 0.979 . S
C317 H348 0.977 . S
C318 C305 1.684 . S
C318 H343 0.979 . S
C318 H344 0.980 1_565 S
C318 H345 0.983 . S
C319 C320 1.391 1_565 S
C319 C324 1.391 . S
C319 H349 0.948 . S
C320 C319 1.391 1_545 S
C320 C321 1.391 . S
C321 C320 1.391 . S
C321 C322 1.392 . S
C321 H350 0.947 . S
C322 C321 1.392 . S
C322 C323 1.419 . S
C322 H351 0.948 . S
C323 C322 1.419 . S
C323 C324 1.391 1_545 S
C323 C327 1.397 . S
C324 C319 1.391 . S
C324 C323 1.391 1_565 S
C324 C325 1.399 . S
C325 C324 1.399 . S
C325 C326 1.396 . S
C325 C328 1.453 . S
C325 C329 1.684 . S
C326 C307 1.723 . S
C326 C325 1.396 . S
C326 C327 1.394 1_565 S
C327 C323 1.397 . S
C327 C326 1.394 1_545 S
C327 C337 1.723 . S
C328 C325 1.453 . S
C328 H352 0.982 . S
C328 H353 0.979 . S
C328 H354 0.977 . S
C329 C325 1.684 . S
C329 H355 0.979 . S
C329 H356 0.980 . S
C329 H357 0.983 . S
C330 H306 0.948 . S
C330 C331 1.391 . S
C330 C335 1.391 . S
C331 C330 1.391 . S
C331 C332 1.391 . S
C332 H309 0.947 . S
C332 C331 1.391 . S
C332 C333 1.392 . S
C333 H310 0.948 . S
C333 C332 1.392 . S
C333 C334 1.419 . S
C334 C333 1.419 . S
C334 C335 1.391 . S
C334 C338 1.397 . S
C335 C330 1.391 . S
C335 C334 1.391 . S
C335 C336 1.399 . S
C336 C335 1.399 . S
C336 C337 1.396 . S
C336 C339 1.453 . S
C336 C340 1.684 . S
C337 C327 1.723 . S
C337 C336 1.396 . S
C337 C338 1.394 . S
C338 C308 1.723 . S
C338 C334 1.397 . S
C338 C337 1.394 . S
C339 H311 0.982 . S
C339 H315 0.979 . S
C339 H316 0.977 . S
C339 C336 1.453 . S
C340 H312 0.979 . S
C340 H313 0.980 . S
C340 H314 0.983 . S
C340 C336 1.684 . S
H341 C359 0.948 . S
H342 C300 0.948 . S
H343 C318 0.979 . S
H344 C318 0.980 1_545 S
H345 C318 0.983 . S
H346 C317 0.982 . S
H347 C317 0.979 . S
H348 C317 0.977 . S
H349 C319 0.948 . S
H350 C321 0.947 . S
H351 C322 0.948 . S
H352 C328 0.982 . S
H353 C328 0.979 . S
H354 C328 0.977 . S
H355 C329 0.979 . S
H356 C329 0.980 . S
H357 C329 0.983 . S
H358 C302 0.947 . S
C359 C302 1.392 . S
C359 C303 1.419 . S
C359 H341 0.948 . S
C360 C361 1.391 . S
C360 C364 1.391 . S
C360 H402 0.948 . S
C361 C360 1.391 . S
C361 C362 1.391 . S
C362 C361 1.391 . S
C362 H418 0.947 . S
C362 C419 1.392 . S
C363 C364 1.391 . S
C363 C367 1.397 . S
C363 C419 1.419 . S
C364 C360 1.391 . S
C364 C363 1.391 . S
C364 C365 1.399 . S
C365 C364 1.399 . S
C365 C368 1.396 . S
C365 C377 1.453 . S
C365 C378 1.684 . S
H366 C390 0.948 . S
C367 C363 1.397 . S
C367 C368 1.394 . S
C367 C386 1.723 . S
C368 C365 1.396 . S
C368 C367 1.394 . S
C368 C398 1.723 . S
H369 C392 0.947 . S
H370 C393 0.948 . S
H371 C399 0.982 . S
H372 C400 0.979 . S
H373 C400 0.980 . S
H374 C400 0.983 . S
H375 C399 0.979 . S
H376 C399 0.977 . S
C377 C365 1.453 . S
C377 H406 0.982 . S
C377 H407 0.979 . S
C377 H408 0.977 . S
C378 C365 1.684 . S
C378 H403 0.979 . S
C378 H404 0.980 . S
C378 H405 0.983 . S
C379 C380 1.391 1_554 S
C379 C384 1.391 . S
C379 H409 0.948 . S
C380 C379 1.391 1_556 S
C380 C381 1.391 1_556 S
C381 C380 1.391 1_554 S
C381 C382 1.392 . S
C381 H410 0.947 1_554 S
C382 C381 1.392 . S
C382 C383 1.419 . S
C382 H411 0.948 . S
C383 C382 1.419 . S
C383 C384 1.391 . S
C383 C387 1.397 . S
C384 C379 1.391 . S
C384 C383 1.391 . S
C384 C385 1.399 . S
C385 C384 1.399 . S
C385 C386 1.396 . S
C385 C388 1.453 . S
C385 C389 1.684 . S
C386 C367 1.723 . S
C386 C385 1.396 . S
C386 C387 1.394 . S
C387 C383 1.397 . S
C387 C386 1.394 . S
C387 C397 1.723 . S
C388 C385 1.453 . S
C388 H412 0.982 . S
C388 H413 0.979 . S
C388 H414 0.977 . S
C389 C385 1.684 . S
C389 H415 0.979 . S
C389 H416 0.980 . S
C389 H417 0.983 . S
C390 H366 0.948 . S
C390 C391 1.391 . S
C390 C395 1.391 . S
C391 C390 1.391 . S
C391 C392 1.391 . S
C392 H369 0.947 . S
C392 C391 1.391 . S
C392 C393 1.392 . S
C393 H370 0.948 . S
C393 C392 1.392 . S
C393 C394 1.419 . S
C394 C393 1.419 . S
C394 C395 1.391 . S
C394 C398 1.397 . S
C395 C390 1.391 . S
C395 C394 1.391 . S
C395 C396 1.399 . S
C396 C395 1.399 . S
C396 C397 1.396 . S
C396 C399 1.453 . S
C396 C400 1.684 . S
C397 C387 1.723 . S
C397 C396 1.396 . S
C397 C398 1.394 . S
C398 C368 1.723 . S
C398 C394 1.397 . S
C398 C397 1.394 . S
C399 H371 0.982 . S
C399 H375 0.979 . S
C399 H376 0.977 . S
C399 C396 1.453 . S
C400 H372 0.979 . S
C400 H373 0.980 . S
C400 H374 0.983 . S
C400 C396 1.684 . S
H401 C419 0.948 . S
H402 C360 0.948 . S
H403 C378 0.979 . S
H404 C378 0.980 . S
H405 C378 0.983 . S
H406 C377 0.982 . S
H407 C377 0.979 . S
H408 C377 0.977 . S
H409 C379 0.948 . S
H410 C381 0.947 1_556 S
H411 C382 0.948 . S
H412 C388 0.982 . S
H413 C388 0.979 . S
H414 C388 0.977 . S
H415 C389 0.979 . S
H416 C389 0.980 . S
H417 C389 0.983 . S
H418 C362 0.947 . S
C419 C362 1.392 . S
C419 C363 1.419 . S
C419 H401 0.948 . S
C420 C421 1.363 . S
C420 C426 1.379 . S
C420 N428 1.356 . S
C421 C420 1.363 . S
C421 C427 1.363 . S
C422 C423 1.363 . S
C422 C427 1.379 . S
C422 N429 1.356 . S
C423 C422 1.363 . S
C423 C426 1.363 . S
N424 C426 1.356 . S
N424 H436 0.984 . S
N424 H437 0.985 . S
N425 C427 1.356 . S
N425 H430 0.984 . S
N425 H431 0.985 . S
C426 C420 1.379 . S
C426 C423 1.363 . S
C426 N424 1.356 . S
C427 C421 1.363 . S
C427 C422 1.379 . S
C427 N425 1.356 . S
N428 C420 1.356 . S
N428 H434 0.984 . S
N428 H435 0.984 . S
N429 C422 1.356 . S
N429 H432 0.984 . S
N429 H433 0.985 . S
H430 N425 0.984 . S
H431 N425 0.985 . S
H432 N429 0.984 . S
H433 N429 0.985 . S
H434 N428 0.984 . S
H435 N428 0.984 . S
H436 N424 0.984 . S
H437 N424 0.985 . S
C438 C439 1.363 . S
C438 C444 1.379 . S
C438 N446 1.356 . S
C439 C438 1.363 . S
C439 C445 1.363 . S
C440 C441 1.363 . S
C440 C445 1.379 . S
C440 N447 1.356 . S
C441 C440 1.363 . S
C441 C444 1.363 . S
N442 C444 1.356 . S
N442 H454 0.984 . S
N442 H455 0.985 . S
N443 C445 1.356 . S
N443 H448 0.984 . S
N443 H449 0.985 . S
C444 C438 1.379 . S
C444 C441 1.363 . S
C444 N442 1.356 . S
C445 C439 1.363 . S
C445 C440 1.379 . S
C445 N443 1.356 . S
N446 C438 1.356 . S
N446 H452 0.984 . S
N446 H453 0.984 . S
N447 C440 1.356 . S
N447 H450 0.984 . S
N447 H451 0.985 . S
H448 N443 0.984 . S
H449 N443 0.985 . S
H450 N447 0.984 . S
H451 N447 0.985 . S
H452 N446 0.984 . S
H453 N446 0.984 . S
H454 N442 0.984 . S
H455 N442 0.985 . S
C456 C457 1.363 . S
C456 C462 1.379 . S
C456 N464 1.356 . S
C457 C456 1.363 . S
C457 C463 1.363 . S
C458 C459 1.363 . S
C458 C463 1.379 . S
C458 N465 1.356 . S
C459 C458 1.363 . S
C459 C462 1.363 . S
N460 C462 1.356 . S
N460 H472 0.984 . S
N460 H473 0.985 . S
N461 C463 1.356 . S
N461 H466 0.984 . S
N461 H467 0.985 . S
C462 C456 1.379 . S
C462 C459 1.363 . S
C462 N460 1.356 . S
C463 C457 1.363 . S
C463 C458 1.379 . S
C463 N461 1.356 . S
N464 C456 1.356 . S
N464 H470 0.984 . S
N464 H471 0.984 . S
N465 C458 1.356 . S
N465 H468 0.984 . S
N465 H469 0.985 . S
H466 N461 0.984 . S
H467 N461 0.985 . S
H468 N465 0.984 . S
H469 N465 0.985 . S
H470 N464 0.984 . S
H471 N464 0.984 . S
H472 N460 0.984 . S
H473 N460 0.985 . S
C474 C475 1.363 . S
C474 C480 1.379 . S
C474 N482 1.356 . S
C475 C474 1.363 . S
C475 C481 1.363 . S
C476 C477 1.363 . S
C476 C481 1.379 . S
C476 N483 1.356 . S
C477 C476 1.363 . S
C477 C480 1.363 . S
N478 C480 1.356 . S
N478 H490 0.984 . S
N478 H491 0.985 . S
N479 C481 1.356 . S
N479 H484 0.984 . S
N479 H485 0.985 . S
C480 C474 1.379 . S
C480 C477 1.363 . S
C480 N478 1.356 . S
C481 C475 1.363 . S
C481 C476 1.379 . S
C481 N479 1.356 . S
N482 C474 1.356 . S
N482 H488 0.984 . S
N482 H489 0.984 . S
N483 C476 1.356 . S
N483 H486 0.984 . S
N483 H487 0.985 . S
H484 N479 0.984 . S
H485 N479 0.985 . S
H486 N483 0.984 . S
H487 N483 0.985 . S
H488 N482 0.984 . S
H489 N482 0.984 . S
H490 N478 0.984 . S
H491 N478 0.985 . S
C492 C493 1.363 . S
C492 C498 1.379 . S
C492 N500 1.356 . S
C493 C492 1.363 . S
C493 C499 1.363 . S
C494 C495 1.363 . S
C494 C499 1.379 . S
C494 N501 1.356 . S
C495 C494 1.363 . S
C495 C498 1.363 . S
N496 C498 1.356 . S
N496 H508 0.984 . S
N496 H509 0.985 . S
N497 C499 1.356 . S
N497 H502 0.984 . S
N497 H503 0.985 . S
C498 C492 1.379 . S
C498 C495 1.363 . S
C498 N496 1.356 . S
C499 C493 1.363 . S
C499 C494 1.379 . S
C499 N497 1.356 . S
N500 C492 1.356 . S
N500 H506 0.984 . S
N500 H507 0.984 . S
N501 C494 1.356 . S
N501 H504 0.984 . S
N501 H505 0.985 . S
H502 N497 0.984 . S
H503 N497 0.985 . S
H504 N501 0.984 . S
H505 N501 0.985 . S
H506 N500 0.984 . S
H507 N500 0.984 . S
H508 N496 0.984 . S
H509 N496 0.985 . S
C510 C511 1.363 . S
C510 C516 1.379 . S
C510 N518 1.356 . S
C511 C510 1.363 . S
C511 C517 1.363 . S
C512 C513 1.363 . S
C512 C517 1.379 . S
C512 N519 1.356 . S
C513 C512 1.363 . S
C513 C516 1.363 . S
N514 C516 1.356 . S
N514 H526 0.984 . S
N514 H527 0.985 . S
N515 C517 1.356 . S
N515 H520 0.984 . S
N515 H521 0.985 . S
C516 C510 1.379 . S
C516 C513 1.363 . S
C516 N514 1.356 . S
C517 C511 1.363 . S
C517 C512 1.379 . S
C517 N515 1.356 . S
N518 C510 1.356 . S
N518 H524 0.984 . S
N518 H525 0.984 . S
N519 C512 1.356 . S
N519 H522 0.984 . S
N519 H523 0.985 . S
H520 N515 0.984 . S
H521 N515 0.985 . S
H522 N519 0.984 . S
H523 N519 0.985 . S
H524 N518 0.984 . S
H525 N518 0.984 . S
H526 N514 0.984 . S
H527 N514 0.985 . S
C528 C529 1.363 . S
C528 C534 1.379 . S
C528 N536 1.356 . S
C529 C528 1.363 . S
C529 C535 1.363 . S
C530 C531 1.363 . S
C530 C535 1.379 . S
C530 N537 1.356 . S
C531 C530 1.363 . S
C531 C534 1.363 . S
N532 C534 1.356 . S
N532 H544 0.984 . S
N532 H545 0.985 . S
N533 C535 1.356 . S
N533 H538 0.984 . S
N533 H539 0.985 . S
C534 C528 1.379 . S
C534 C531 1.363 . S
C534 N532 1.356 . S
C535 C529 1.363 . S
C535 C530 1.379 . S
C535 N533 1.356 . S
N536 C528 1.356 . S
N536 H542 0.984 . S
N536 H543 0.984 . S
N537 C530 1.356 . S
N537 H540 0.984 . S
N537 H541 0.985 . S
H538 N533 0.984 . S
H539 N533 0.985 . S
H540 N537 0.984 . S
H541 N537 0.985 . S
H542 N536 0.984 . S
H543 N536 0.984 . S
H544 N532 0.984 . S
H545 N532 0.985 . S
C546 C547 1.363 . S
C546 C552 1.379 . S
C546 N554 1.356 . S
C547 C546 1.363 . S
C547 C553 1.363 . S
C548 C549 1.363 . S
C548 C553 1.379 . S
C548 N555 1.356 . S
C549 C548 1.363 . S
C549 C552 1.363 . S
N550 C552 1.356 . S
N550 H562 0.984 . S
N550 H563 0.985 . S
N551 C553 1.356 . S
N551 H556 0.984 . S
N551 H557 0.985 . S
C552 C546 1.379 . S
C552 C549 1.363 . S
C552 N550 1.356 . S
C553 C547 1.363 . S
C553 C548 1.379 . S
C553 N551 1.356 . S
N554 C546 1.356 . S
N554 H560 0.984 . S
N554 H561 0.984 . S
N555 C548 1.356 . S
N555 H558 0.984 . S
N555 H559 0.985 . S
H556 N551 0.984 . S
H557 N551 0.985 . S
H558 N555 0.984 . S
H559 N555 0.985 . S
H560 N554 0.984 . S
H561 N554 0.984 . S
H562 N550 0.984 . S
H563 N550 0.985 . S
C564 C565 1.363 . S
C564 C570 1.379 . S
C564 N572 1.356 . S
C565 C564 1.363 . S
C565 C571 1.363 . S
C566 C567 1.363 . S
C566 C571 1.379 . S
C566 N573 1.356 . S
C567 C566 1.363 . S
C567 C570 1.363 . S
N568 C570 1.356 . S
N568 H580 0.984 . S
N568 H581 0.985 . S
N569 C571 1.356 . S
N569 H574 0.984 . S
N569 H575 0.985 . S
C570 C564 1.379 . S
C570 C567 1.363 . S
C570 N568 1.356 . S
C571 C565 1.363 . S
C571 C566 1.379 . S
C571 N569 1.356 . S
N572 C564 1.356 . S
N572 H578 0.984 . S
N572 H579 0.984 . S
N573 C566 1.356 . S
N573 H576 0.984 . S
N573 H577 0.985 . S
H574 N569 0.984 . S
H575 N569 0.985 . S
H576 N573 0.984 . S
H577 N573 0.985 . S
H578 N572 0.984 . S
H579 N572 0.984 . S
H580 N568 0.984 . S
H581 N568 0.985 . S
C582 C583 1.363 . S
C582 C588 1.379 . S
C582 N590 1.356 . S
C583 C582 1.363 . S
C583 C589 1.363 . S
C584 C585 1.363 . S
C584 C589 1.379 . S
C584 N591 1.356 . S
C585 C584 1.363 . S
C585 C588 1.363 . S
N586 C588 1.356 . S
N586 H598 0.984 . S
N586 H599 0.985 . S
N587 C589 1.356 . S
N587 H592 0.984 . S
N587 H593 0.985 . S
C588 C582 1.379 . S
C588 C585 1.363 . S
C588 N586 1.356 . S
C589 C583 1.363 . S
C589 C584 1.379 . S
C589 N587 1.356 . S
N590 C582 1.356 . S
N590 H596 0.984 . S
N590 H597 0.984 . S
N591 C584 1.356 . S
N591 H594 0.984 . S
N591 H595 0.985 . S
H592 N587 0.984 . S
H593 N587 0.985 . S
H594 N591 0.984 . S
H595 N591 0.985 . S
H596 N590 0.984 . S
H597 N590 0.984 . S
H598 N586 0.984 . S
H599 N586 0.985 . S
C600 C601 1.363 . S
C600 C606 1.379 . S
C600 N608 1.356 . S
C601 C600 1.363 . S
C601 C607 1.363 . S
C602 C603 1.363 . S
C602 C607 1.379 . S
C602 N609 1.356 . S
C603 C602 1.363 . S
C603 C606 1.363 . S
N604 C606 1.356 . S
N604 H616 0.984 . S
N604 H617 0.985 . S
N605 C607 1.356 . S
N605 H610 0.984 . S
N605 H611 0.985 . S
C606 C600 1.379 . S
C606 C603 1.363 . S
C606 N604 1.356 . S
C607 C601 1.363 . S
C607 C602 1.379 . S
C607 N605 1.356 . S
N608 C600 1.356 . S
N608 H614 0.984 . S
N608 H615 0.984 . S
N609 C602 1.356 . S
N609 H612 0.984 . S
N609 H613 0.985 . S
H610 N605 0.984 . S
H611 N605 0.985 . S
H612 N609 0.984 . S
H613 N609 0.985 . S
H614 N608 0.984 . S
H615 N608 0.984 . S
H616 N604 0.984 . S
H617 N604 0.985 . S
C618 C619 1.363 . S
C618 C624 1.379 . S
C618 N626 1.356 . S
C619 C618 1.363 . S
C619 C625 1.363 . S
C620 C621 1.363 . S
C620 C625 1.379 . S
C620 N627 1.356 . S
C621 C620 1.363 . S
C621 C624 1.363 . S
N622 C624 1.356 . S
N622 H634 0.984 . S
N622 H635 0.985 . S
N623 C625 1.356 . S
N623 H628 0.984 . S
N623 H629 0.985 . S
C624 C618 1.379 . S
C624 C621 1.363 . S
C624 N622 1.356 . S
C625 C619 1.363 . S
C625 C620 1.379 . S
C625 N623 1.356 . S
N626 C618 1.356 . S
N626 H632 0.984 . S
N626 H633 0.984 . S
N627 C620 1.356 . S
N627 H630 0.984 . S
N627 H631 0.985 . S
H628 N623 0.984 . S
H629 N623 0.985 . S
H630 N627 0.984 . S
H631 N627 0.985 . S
H632 N626 0.984 . S
H633 N626 0.984 . S
H634 N622 0.984 . S
H635 N622 0.985 . S
C636 C637 1.363 . S
C636 C642 1.379 . S
C636 N644 1.356 . S
C637 C636 1.363 . S
C637 C643 1.363 . S
C638 C639 1.363 . S
C638 C643 1.379 . S
C638 N645 1.356 . S
C639 C638 1.363 . S
C639 C642 1.363 . S
N640 C642 1.356 . S
N640 H652 0.984 . S
N640 H653 0.985 . S
N641 C643 1.356 . S
N641 H646 0.984 . S
N641 H647 0.985 . S
C642 C636 1.379 . S
C642 C639 1.363 . S
C642 N640 1.356 . S
C643 C637 1.363 . S
C643 C638 1.379 . S
C643 N641 1.356 . S
N644 C636 1.356 . S
N644 H650 0.984 . S
N644 H651 0.984 . S
N645 C638 1.356 . S
N645 H648 0.984 1_554 S
N645 H649 0.985 . S
H646 N641 0.984 . S
H647 N641 0.985 . S
H648 N645 0.984 1_556 S
H649 N645 0.985 . S
H650 N644 0.984 . S
H651 N644 0.984 . S
H652 N640 0.984 . S
H653 N640 0.985 . S
C654 C655 1.363 . S
C654 C660 1.379 . S
C654 N662 1.356 1_545 S
C655 C654 1.363 . S
C655 C661 1.363 . S
C656 C657 1.363 . S
C656 C661 1.379 . S
C656 N663 1.356 . S
C657 C656 1.363 . S
C657 C660 1.363 . S
N658 C660 1.356 1_565 S
N658 H670 0.984 . S
N658 H671 0.985 . S
N659 C661 1.356 . S
N659 H664 0.984 . S
N659 H665 0.985 . S
C660 C654 1.379 . S
C660 C657 1.363 . S
C660 N658 1.356 1_545 S
C661 C655 1.363 . S
C661 C656 1.379 . S
C661 N659 1.356 . S
N662 C654 1.356 1_565 S
N662 H668 0.984 . S
N662 H669 0.984 . S
N663 C656 1.356 . S
N663 H666 0.984 . S
N663 H667 0.985 . S
H664 N659 0.984 . S
H665 N659 0.985 . S
H666 N663 0.984 . S
H667 N663 0.985 . S
H668 N662 0.984 . S
H669 N662 0.984 . S
H670 N658 0.984 . S
H671 N658 0.985 . S
C672 C673 1.363 . S
C672 C678 1.379 . S
C672 N680 1.356 . S
C673 C672 1.363 . S
C673 C679 1.363 . S
C674 C675 1.363 . S
C674 C679 1.379 . S
C674 N681 1.356 . S
C675 C674 1.363 . S
C675 C678 1.363 . S
N676 C678 1.356 . S
N676 H688 0.984 . S
N676 H689 0.985 . S
N677 C679 1.356 . S
N677 H682 0.984 . S
N677 H683 0.985 . S
C678 C672 1.379 . S
C678 C675 1.363 . S
C678 N676 1.356 . S
C679 C673 1.363 . S
C679 C674 1.379 . S
C679 N677 1.356 . S
N680 C672 1.356 . S
N680 H686 0.984 . S
N680 H687 0.984 . S
N681 C674 1.356 . S
N681 H684 0.984 . S
N681 H685 0.985 . S
H682 N677 0.984 . S
H683 N677 0.985 . S
H684 N681 0.984 . S
H685 N681 0.985 . S
H686 N680 0.984 . S
H687 N680 0.984 . S
H688 N676 0.984 . S
H689 N676 0.985 . S
C690 C691 1.363 1_565 S
C690 C696 1.379 . S
C690 N698 1.356 . S
C691 C690 1.363 1_545 S
C691 C697 1.363 . S
C692 C693 1.363 . S
C692 C697 1.379 . S
C692 N699 1.356 . S
C693 C692 1.363 . S
C693 C696 1.363 1_545 S
N694 C696 1.356 . S
N694 H706 0.984 . S
N694 H707 0.985 . S
N695 C697 1.356 . S
N695 H700 0.984 . S
N695 H701 0.985 . S
C696 C690 1.379 . S
C696 C693 1.363 1_565 S
C696 N694 1.356 . S
C697 C691 1.363 . S
C697 C692 1.379 . S
C697 N695 1.356 . S
N698 C690 1.356 . S
N698 H704 0.984 . S
N698 H705 0.984 . S
N699 C692 1.356 . S
N699 H702 0.984 . S
N699 H703 0.985 . S
H700 N695 0.984 . S
H701 N695 0.985 . S
H702 N699 0.984 . S
H703 N699 0.985 . S
H704 N698 0.984 . S
H705 N698 0.984 . S
H706 N694 0.984 . S
H707 N694 0.985 . S
C708 C709 1.363 . S
C708 C714 1.379 . S
C708 N716 1.356 . S
C709 C708 1.363 . S
C709 C715 1.363 . S
C710 C711 1.363 . S
C710 C715 1.379 . S
C710 N717 1.356 . S
C711 C710 1.363 . S
C711 C714 1.363 . S
N712 C714 1.356 . S
N712 H724 0.984 . S
N712 H725 0.985 . S
N713 C715 1.356 . S
N713 H718 0.984 . S
N713 H719 0.985 . S
C714 C708 1.379 . S
C714 C711 1.363 . S
C714 N712 1.356 . S
C715 C709 1.363 . S
C715 C710 1.379 . S
C715 N713 1.356 . S
N716 C708 1.356 . S
N716 H722 0.984 . S
N716 H723 0.984 . S
N717 C710 1.356 . S
N717 H720 0.984 1_556 S
N717 H721 0.985 . S
H718 N713 0.984 . S
H719 N713 0.985 . S
H720 N717 0.984 1_554 S
H721 N717 0.985 . S
H722 N716 0.984 . S
H723 N716 0.984 . S
H724 N712 0.984 . S
H725 N712 0.985 . S
C726 C727 1.363 . S
C726 C732 1.379 . S
C726 N734 1.356 . S
C727 C726 1.363 . S
C727 C733 1.363 1_455 S
C728 C729 1.363 1_655 S
C728 C733 1.379 . S
C728 N735 1.356 . S
C729 C728 1.363 1_455 S
C729 C732 1.363 . S
N730 C732 1.356 . S
N730 H742 0.984 . S
N730 H743 0.985 . S
N731 C733 1.356 . S
N731 H736 0.984 . S
N731 H737 0.985 . S
C732 C726 1.379 . S
C732 C729 1.363 . S
C732 N730 1.356 . S
C733 C727 1.363 1_655 S
C733 C728 1.379 . S
C733 N731 1.356 . S
N734 C726 1.356 . S
N734 H740 0.984 . S
N734 H741 0.984 . S
N735 C728 1.356 . S
N735 H738 0.984 . S
N735 H739 0.985 . S
H736 N731 0.984 . S
H737 N731 0.985 . S
H738 N735 0.984 . S
H739 N735 0.985 . S
H740 N734 0.984 . S
H741 N734 0.984 . S
H742 N730 0.984 . S
H743 N730 0.985 . S
C421 C8 2.062 . S
C423 C391 2.183 . S
C439 C26 1.414 . S
C441 C241 1.330 . S
C457 C48 1.578 . S
C459 C301 1.508 . S
C475 C19 1.960 . S
C477 C361 1.842 . S
C495 C271 1.626 . S
C493 C36 1.576 . S
C513 C331 1.895 . S
C511 C59 1.821 . S
C529 C28 1.600 . S
C531 C121 1.525 . S
C547 C46 1.291 . S
C549 C211 1.333 . S
C565 C16 1.647 . S
C567 C91 1.707 . S
C585 C151 1.851 . S
C583 C39 1.801 . S
C603 C181 1.048 . S
C601 C56 1.112 . S
C619 C6 1.484 . S
C621 C61 1.400 . S
C639 C200 1.438 . S
C637 C9 1.408 . S
C655 C21 1.518 . S
C657 C80 1.490 . S
C673 C49 1.485 . S
C675 C140 1.457 . S
C693 C320 1.439 . S
C691 C29 1.481 . S
C711 C380 1.582 . S
C709 C41 1.575 . S
C727 C1 1.507 . S
C729 C260 1.488 . S
