# Generated by pormake.
# Topology zzz, (3,6)-cn, num edge types: 1
# Building blocks:
#     Node 0, Type 0, BuildingBlock: QEWDON_clean_linker_0, # of connection points: 3
#     Node 1, Type 0, BuildingBlock: QEWDON_clean_linker_0, # of connection points: 3
#     Node 2, Type 0, BuildingBlock: QEWDON_clean_linker_0, # of connection points: 3
#     Node 3, Type 0, BuildingBlock: QEWDON_clean_linker_0, # of connection points: 3
#     Node 4, Type 0, BuildingBlock: QEWDON_clean_linker_0, # of connection points: 3
#     Node 5, Type 0, BuildingBlock: QEWDON_clean_linker_0, # of connection points: 3
#     Node 6, Type 0, BuildingBlock: QEWDON_clean_linker_0, # of connection points: 3
#     Node 7, Type 0, BuildingBlock: QEWDON_clean_linker_0, # of connection points: 3
#     Node 8, Type 1, BuildingBlock: HISSIN_clean_sbu_0, # of connection points: 6
#     Node 9, Type 1, BuildingBlock: HISSIN_clean_sbu_0, # of connection points: 6
#     Node 10, Type 1, BuildingBlock: HISSIN_clean_sbu_0, # of connection points: 6
#     Node 11, Type 1, BuildingBlock: HISSIN_clean_sbu_0, # of connection points: 6
#     Edge 12, Type (0, 1), BuildingBlock: KIFKEQ_clean_linker_1, # of connection points: 2
#     Edge 13, Type (0, 1), BuildingBlock: KIFKEQ_clean_linker_1, # of connection points: 2
#     Edge 14, Type (0, 1), BuildingBlock: KIFKEQ_clean_linker_1, # of connection points: 2
#     Edge 15, Type (0, 1), BuildingBlock: KIFKEQ_clean_linker_1, # of connection points: 2
#     Edge 16, Type (0, 1), BuildingBlock: KIFKEQ_clean_linker_1, # of connection points: 2
#     Edge 17, Type (0, 1), BuildingBlock: KIFKEQ_clean_linker_1, # of connection points: 2
#     Edge 18, Type (0, 1), BuildingBlock: KIFKEQ_clean_linker_1, # of connection points: 2
#     Edge 19, Type (0, 1), BuildingBlock: KIFKEQ_clean_linker_1, # of connection points: 2
#     Edge 20, Type (0, 1), BuildingBlock: KIFKEQ_clean_linker_1, # of connection points: 2
#     Edge 21, Type (0, 1), BuildingBlock: KIFKEQ_clean_linker_1, # of connection points: 2
#     Edge 22, Type (0, 1), BuildingBlock: KIFKEQ_clean_linker_1, # of connection points: 2
#     Edge 23, Type (0, 1), BuildingBlock: KIFKEQ_clean_linker_1, # of connection points: 2
#     Edge 24, Type (0, 1), BuildingBlock: KIFKEQ_clean_linker_1, # of connection points: 2
#     Edge 25, Type (0, 1), BuildingBlock: KIFKEQ_clean_linker_1, # of connection points: 2
#     Edge 26, Type (0, 1), BuildingBlock: KIFKEQ_clean_linker_1, # of connection points: 2
#     Edge 27, Type (0, 1), BuildingBlock: KIFKEQ_clean_linker_1, # of connection points: 2
#     Edge 28, Type (0, 1), BuildingBlock: KIFKEQ_clean_linker_1, # of connection points: 2
#     Edge 29, Type (0, 1), BuildingBlock: KIFKEQ_clean_linker_1, # of connection points: 2
#     Edge 30, Type (0, 1), BuildingBlock: KIFKEQ_clean_linker_1, # of connection points: 2
#     Edge 31, Type (0, 1), BuildingBlock: KIFKEQ_clean_linker_1, # of connection points: 2
#     Edge 32, Type (0, 1), BuildingBlock: KIFKEQ_clean_linker_1, # of connection points: 2
#     Edge 33, Type (0, 1), BuildingBlock: KIFKEQ_clean_linker_1, # of connection points: 2
#     Edge 34, Type (0, 1), BuildingBlock: KIFKEQ_clean_linker_1, # of connection points: 2
#     Edge 35, Type (0, 1), BuildingBlock: KIFKEQ_clean_linker_1, # of connection points: 2
# Relax obj value: 0.187
# Max RMSD: 0.193
# Mean RMSD: 0.065
data_MOF--net-zzz--node1-HISSIN_clean_sbu_0--node2-QEWDON_clean_linker_0--edge1-KIFKEQ_clean_linker_1
_symmetry_space_group_name_H-M    P1
_symmetry_Int_Tables_number       1
_symmetry_cell_setting            triclinic
loop_
_symmetry_equiv_pos_as_xyz
'x, y, z'
_cell_length_a     54.704987
_cell_length_b     54.568834
_cell_length_c     16.260573
_cell_angle_alpha  90.153718
_cell_angle_beta   91.637729
_cell_angle_gamma 90.256384
loop_
_atom_site_label
_atom_site_type_symbol
_atom_site_fract_x
_atom_site_fract_y
_atom_site_fract_z
_atom_type_partial_charge
H0 H 0.7656 0.5137 0.18452 0.0
C1 C 0.77806 0.51606 0.23676 0.0
C2 C 0.79921 0.50165 0.24029 0.0
C3 C 0.7738 0.53424 0.29652 0.0
H4 H 0.83349 0.49528 0.30445 0.0
C5 C 0.81645 0.50535 0.30447 0.0
C6 C 0.81339 0.52343 0.36432 0.0
C7 C 0.7919 0.53778 0.36064 0.0
C8 C 0.75152 0.55047 0.287 0.0
H9 H 0.78953 0.55148 0.40784 0.0
C10 C 0.7301 0.54288 0.24143 0.0
C11 C 0.71022 0.55901 0.22697 0.0
C12 C 0.75203 0.57447 0.3192 0.0
H13 H 0.76799 0.58167 0.35187 0.0
C14 C 0.73219 0.59016 0.30727 0.0
H15 H 0.72857 0.52443 0.21737 0.0
C16 C 0.71158 0.58263 0.2614 0.0
H17 H 0.69695 0.59565 0.25099 0.0
H18 H 0.73305 0.60857 0.33215 0.0
H19 H 0.9912 0.75861 0.17367 0.0
C20 C 0.99522 0.77141 0.22322 0.0
C21 C 0.98678 0.79539 0.2144 0.0
C22 C 1.00837 0.76402 0.29453 0.0
H23 H 0.98477 0.83116 0.26934 0.0
C24 C 0.99076 0.81239 0.27807 0.0
C25 C 1.00381 0.80633 0.35026 0.0
C26 C 1.01304 0.78204 0.35794 0.0
C27 C 1.01555 0.73725 0.30292 0.0
H28 H 0.02352 0.77733 0.41302 0.0
C29 C 1.01902 0.72152 0.23326 0.0
C30 C 0.02279 0.69581 0.24243 0.0
C31 C 1.01684 0.72662 0.38151 0.0
H32 H 1.01378 0.73738 0.43618 0.0
C33 C 0.02088 0.70159 0.39118 0.0
H34 H 1.01899 0.72915 0.17199 0.0
C35 C 0.0235 0.68637 0.32303 0.0
H36 H 0.02549 0.66693 0.33417 0.0
H37 H 0.02136 0.69376 0.4523 0.0
H38 H 0.78683 0.04525 0.14573 0.0
C39 C 0.77388 0.03963 0.1911 0.0
C40 C 0.75118 0.05121 0.19037 0.0
C41 C 0.77999 0.02174 0.25018 0.0
H42 H 0.71648 0.05484 0.24755 0.0
C43 C 0.73403 0.04563 0.24976 0.0
C44 C 0.73875 0.02786 0.31004 0.0
C45 C 0.76175 1.01556 0.30924 0.0
C46 C 0.80584 1.01128 0.25216 0.0
H47 H 0.76532 1.00158 0.35499 0.0
C48 C 0.82142 1.01127 0.18201 0.0
C49 C 0.84628 1.0034 0.18826 0.0
C50 C 0.81597 1.00288 0.32731 0.0
H51 H 0.8056 1.00312 0.3829 0.0
C52 C 0.84013 0.99497 0.33364 0.0
H53 H 0.81435 1.01699 0.12239 0.0
C54 C 0.85509 0.99538 0.26572 0.0
H55 H 0.87394 0.9898 0.27481 0.0
H56 H 0.84754 0.98891 0.39255 0.0
H57 H 0.49786 0.7863 0.17785 0.0
C58 C 0.50407 0.77263 0.22166 0.0
C59 C 0.49232 0.74972 0.2211 0.0
C60 C 0.52304 0.77816 0.27933 0.0
H61 H 0.49044 0.7143 0.27933 0.0
C62 C 0.4991 0.73222 0.2805 0.0
C63 C 0.51757 0.73685 0.33974 0.0
C64 C 0.52999 0.75968 0.33779 0.0
C65 C 0.53418 0.80365 0.28106 0.0
H66 H 0.54469 0.76298 0.38239 0.0
C67 C 0.53496 0.81899 0.20975 0.0
C68 C 0.54407 0.84344 0.21477 0.0
C69 C 0.54285 0.8135 0.35651 0.0
H70 H 0.54196 0.80314 0.41296 0.0
C71 C 0.55197 0.83734 0.36159 0.0
H72 H 0.52887 0.81198 0.15031 0.0
C73 C 0.55248 0.85215 0.29206 0.0
H74 H 0.55905 0.87079 0.29957 0.0
H75 H 0.5583 0.84459 0.42051 0.0
H76 H 0.29566 0.55195 0.2037 0.0
C77 C 0.2823 0.54691 0.15629 0.0
C78 C 0.2594 0.55818 0.1575 0.0
C79 C 0.28785 0.5298 0.09427 0.0
H80 H 0.22409 0.56186 0.09801 0.0
C81 C 0.24187 0.55317 0.09557 0.0
C82 C 0.24628 0.53609 0.03355 0.0
C83 C 0.26912 0.52399 0.03408 0.0
C84 C 0.31326 0.51895 0.09121 0.0
H85 H 0.27209 0.5103 0.98725 0.0
C86 C 0.3293 0.51775 0.16193 0.0
C87 C 0.35355 0.50895 0.15645 0.0
C88 C 0.32228 0.51082 0.01559 0.0
H89 H 0.31145 0.51209 0.95914 0.0
C90 C 0.34592 0.50158 0.01039 0.0
H91 H 0.32312 0.5233 0.22168 0.0
C92 C 0.36142 0.50069 0.07977 0.0
H93 H 0.3799 0.49412 0.07276 0.0
H94 H 0.35247 0.49554 0.95154 0.0
H95 H 0.07333 0.28974 0.18003 0.0
C96 C 0.06798 0.2767 0.13271 0.0
C97 C 0.07715 0.25292 0.1402 0.0
C98 C 0.05186 0.28327 0.06731 0.0
H99 H 0.07851 0.21702 0.0854 0.0
C100 C 0.07188 0.23563 0.07836 0.0
C101 C 0.05634 0.24093 0.01127 0.0
C102 C 0.04574 0.2647 1.00683 0.0
C103 C 0.04224 0.30945 0.06298 0.0
H104 H 0.03293 0.26842 0.95666 0.0
C105 C 0.04244 0.32573 0.13283 0.0
C106 C 0.03584 0.35084 0.12498 0.0
C107 C 0.03407 0.31903 0.9868 0.0
H108 H 0.03402 0.30811 0.9313 0.0
C109 C 0.02645 0.3433 0.97965 0.0
H110 H 0.04807 0.31935 0.19321 0.0
C111 C 0.02742 0.35902 0.04737 0.0
H112 H 0.02152 0.37778 0.03867 0.0
H113 H 0.02015 0.35017 0.92037 0.0
H114 H 0.2712 0.06985 0.21164 0.0
C115 C 0.28485 0.06245 0.17184 0.0
C116 C 0.30894 0.07088 0.18221 0.0
C117 C 0.2784 0.04437 0.1133 0.0
H118 H 0.3454 0.06912 0.1357 0.0
C119 C 0.32668 0.06285 0.12751 0.0
C120 C 0.3214 0.04559 0.06545 0.0
C121 C 0.29702 0.0362 0.05868 0.0
C122 C 0.25216 0.03482 0.11067 0.0
H123 H 0.29297 0.02214 0.01327 0.0
C124 C 0.23667 0.03556 0.18087 0.0
C125 C 0.21136 0.02939 0.17405 0.0
C126 C 0.24173 0.0264 0.03578 0.0
H127 H 0.25228 0.02579 0.98058 0.0
C128 C 0.21714 0.01947 0.02964 0.0
H129 H 0.24392 0.04138 0.24037 0.0
C130 C 0.20211 0.0212 0.09732 0.0
H131 H 0.18302 1.01609 0.08955 0.0
H132 H 0.20949 1.01319 0.97113 0.0
H133 H 0.55238 0.26316 0.22599 0.0
C134 C 0.54658 0.27692 0.18186 0.0
C135 C 0.55858 0.29957 0.18387 0.0
C136 C 0.52817 0.27178 0.12179 0.0
H137 H 0.56175 0.33515 0.1293 0.0
C138 C 0.55247 0.31754 0.12585 0.0
C139 C 0.53413 0.31364 0.06548 0.0
C140 C 0.52162 0.29076 0.06442 0.0
C141 C 0.51774 0.24605 0.11569 0.0
H142 H 0.5073 0.28775 0.0182 0.0
C143 C 0.51692 0.22987 0.18484 0.0
C144 C 0.50981 0.20485 0.17562 0.0
C145 C 0.51054 0.23665 0.03808 0.0
H146 H 0.51143 0.24776 0.98325 0.0
C147 C 0.50322 0.21231 0.0287 0.0
H148 H 0.52167 0.23667 0.24577 0.0
C149 C 0.50312 0.19655 0.09597 0.0
H150 H 0.49833 0.17757 0.0845 0.0
H151 H 0.49817 0.20538 0.96809 0.0
Eu152 Eu 1.01259 0.03244 0.6157 0.0
Eu153 Eu 0.04778 1.01323 0.7625 0.0
C154 C 0.03758 0.07095 0.75045 0.0
C155 C 1.00552 0.07939 0.46911 0.0
C156 C 0.02645 0.08664 0.51507 0.0
C157 C 1.01126 0.11414 0.37913 0.0
C158 C 0.0394 0.10749 0.49477 0.0
C159 C 0.9979 0.09318 0.40065 0.0
C160 C 0.03201 0.12143 0.42674 0.0
C161 C 0.99305 0.05701 0.49516 0.0
O162 O 1.00903 1.01401 0.81416 0.0
O163 O 0.98345 1.01911 0.70129 0.0
C164 C 0.98675 1.01506 0.78057 0.0
O165 O 1.00801 0.99148 0.59596 0.0
O166 O 0.05744 1.01339 0.89378 0.0
O167 O 0.07504 0.98793 0.81283 0.0
O168 O 0.03782 0.97867 0.68825 0.0
C169 C 0.02152 0.97391 0.62886 0.0
O170 O 0.05109 0.03205 0.56328 0.0
O171 O 0.07698 0.02197 0.67072 0.0
O172 O 0.05407 0.05441 0.77052 0.0
O173 O 1.00548 0.03704 0.48355 0.0
O174 O 0.98488 0.05812 0.56959 0.0
O175 O 1.0185 0.06478 0.70392 0.0
C176 C 0.05848 0.97166 0.93211 0.0
C177 C 0.0363 0.9745 0.97274 0.0
C178 C 0.05187 0.92763 0.92983 0.0
C179 C 0.02142 0.95427 0.98727 0.0
C180 C 0.06674 0.9479 0.91503 0.0
C181 C 0.02859 0.93077 0.96256 0.0
C182 C 0.0691 0.99265 0.88834 0.0
C183 C 0.07336 0.02805 0.59324 0.0
H184 H 0.03308 0.07596 0.56666 0.0
H185 H 1.00535 0.12471 0.32597 0.0
H186 H 0.05557 0.11241 0.53134 0.0
H187 H 0.98193 0.08774 0.36406 0.0
H188 H 0.02942 0.99251 0.98747 0.0
H189 H 0.05825 0.9096 0.91288 0.0
H190 H 1.00368 0.95728 0.01337 0.0
H191 H 0.08381 0.94514 0.88415 0.0
Eu192 Eu 0.54268 0.04238 0.76713 0.0
Eu193 Eu 0.51955 1.00779 0.62444 0.0
C194 C 0.53743 0.98313 0.79692 0.0
C195 C 0.58114 0.09017 0.88021 0.0
C196 C 0.59066 0.09743 0.95702 0.0
C197 C 0.61566 0.10924 0.81453 0.0
C198 C 0.61311 0.10952 0.96311 0.0
C199 C 0.59323 0.09687 0.80865 0.0
C200 C 0.62649 0.11462 0.89216 0.0
C201 C 0.56047 0.07307 0.87653 0.0
O202 O 0.48678 1.0133 0.70571 0.0
O203 O 0.50166 0.04334 0.79239 0.0
C204 C 0.48352 0.02917 0.76537 0.0
O205 O 0.54292 0.06457 0.64949 0.0
O206 O 0.49804 0.97653 0.57882 0.0
O207 O 0.51357 1.00188 0.49262 0.0
O208 O 0.50875 0.04712 0.59435 0.0
C209 C 0.52433 0.06546 0.5972 0.0
O210 O 0.57694 0.03086 0.69977 0.0
O211 O 0.5596 1.01071 0.58812 0.0
O212 O 0.53373 0.9799 0.71724 0.0
O213 O 0.54259 0.07845 0.82498 0.0
O214 O 0.5664 0.04994 0.87397 0.0
O215 O 0.53895 1.00528 0.82923 0.0
C216 C 0.47143 0.99369 0.47801 0.0
C217 C 0.4689 1.01246 0.41934 0.0
C218 C 0.43017 1.00198 0.52232 0.0
C219 C 0.44788 0.02682 0.41602 0.0
C220 C 0.45124 0.98768 0.52601 0.0
C221 C 0.42883 0.0224 0.47018 0.0
C222 C 0.49623 0.98589 0.50507 0.0
C223 C 0.57898 0.01989 0.62778 0.0
H224 H 0.58153 0.09232 0.01276 0.0
H225 H 0.62517 0.11321 0.75858 0.0
H226 H 0.62077 0.11288 0.02421 0.0
H227 H 0.586 0.09139 0.7486 0.0
H228 H 0.48396 1.01742 0.38077 0.0
H229 H 0.41555 0.99791 0.56379 0.0
H230 H 0.44689 0.04191 0.37292 0.0
H231 H 0.45243 0.97323 0.57149 0.0
Eu232 Eu 0.50786 0.53624 0.78028 0.0
Eu233 Eu 0.54745 0.51829 0.64783 0.0
C234 C 0.56464 0.5352 0.82814 0.0
C235 C 0.46112 0.57594 0.87683 0.0
C236 C 0.46205 0.59115 0.80748 0.0
C237 C 0.4395 0.60761 0.94929 0.0
C238 C 0.4527 0.61488 0.81035 0.0
C239 C 0.44897 0.5839 0.94648 0.0
C240 C 0.44232 0.62372 0.88267 0.0
C241 C 0.47578 0.55355 0.88041 0.0
O242 O 0.54132 0.48446 0.72607 0.0
O243 O 0.50663 0.49474 0.79447 0.0
C244 C 0.52318 0.47852 0.77386 0.0
O245 O 0.48746 0.53562 0.65773 0.0
O246 O 0.58561 0.50928 0.62877 0.0
O247 O 0.5596 0.50719 0.52649 0.0
O248 O 0.51055 0.50781 0.58941 0.0
C249 C 0.49011 0.52018 0.59669 0.0
O250 O 0.52142 0.57168 0.72165 0.0
O251 O 0.53906 0.55686 0.60513 0.0
O252 O 0.56784 0.53901 0.74959 0.0
O253 O 0.47055 0.53701 0.82449 0.0
O254 O 0.49928 0.55732 0.8894 0.0
O255 O 0.54295 0.52882 0.85319 0.0
C256 C 0.59066 0.47759 0.53476 0.0
C257 C 0.57767 0.45702 0.56117 0.0
C258 C 0.62102 0.45092 0.47651 0.0
C259 C 0.58609 0.43352 0.54443 0.0
C260 C 0.61257 0.47449 0.49359 0.0
C261 C 0.60767 0.43019 0.50082 0.0
C262 C 0.58173 0.50218 0.55308 0.0
C263 C 0.53062 0.57524 0.64836 0.0
H264 H 0.47138 0.58521 0.75307 0.0
H265 H 0.4319 0.61397 1.00627 0.0
H266 H 0.45505 0.62686 0.75809 0.0
H267 H 0.4482 0.57238 1.00054 0.0
H268 H 0.56077 0.45916 0.59349 0.0
H269 H 0.63774 0.44891 0.44307 0.0
H270 H 0.57509 0.418 0.56257 0.0
H271 H 0.62297 0.49026 0.47392 0.0
Eu272 Eu 0.0404 0.54465 0.60819 0.0
Eu273 Eu 0.02493 0.50466 0.74669 0.0
C274 C 0.08198 0.52095 0.73577 0.0
C275 C 0.07828 0.58853 0.48384 0.0
C276 C 0.09406 0.59428 0.55078 0.0
C277 C 0.10916 0.60205 0.39024 0.0
C278 C 0.11752 0.60347 0.53733 0.0
C279 C 0.08568 0.59319 0.40384 0.0
C280 C 0.12571 0.60661 0.45667 0.0
C281 C 0.05568 0.5746 0.49551 0.0
O282 O 1.01794 0.54174 0.80707 0.0
O283 O 0.04056 0.56708 0.72598 0.0
C284 C 0.02838 0.56314 0.79335 0.0
O285 O 0.99909 0.54733 0.60202 0.0
O286 O 1.01839 0.49302 0.87275 0.0
O287 O 1.01103 0.46801 0.77209 0.0
O288 O 0.99002 0.51219 0.67221 0.0
C289 C 0.98323 0.53087 0.62612 0.0
O290 O 0.03071 0.50897 0.54104 0.0
O291 O 0.04162 0.48269 0.64351 0.0
O292 O 0.06497 0.51017 0.77856 0.0
O293 O 0.05816 0.55088 0.492 0.0
O294 O 0.04197 0.58142 0.55571 0.0
O295 O 0.07675 0.5327 0.66672 0.0
C296 C 0.98233 0.46985 0.87462 0.0
C297 C 0.96494 0.4864 0.8437 0.0
C298 C 0.95038 0.44857 0.94695 0.0
C299 C 0.94048 0.4839 0.86253 0.0
C300 C 0.97499 0.45072 0.9258 0.0
C301 C 0.93289 0.46534 0.91594 0.0
C302 C 1.00768 0.47265 0.84953 0.0
C303 C 0.03682 0.48678 0.56513 0.0
H304 H 0.08867 0.59062 0.61319 0.0
H305 H 0.11473 0.60369 0.32716 0.0
H306 H 0.12955 0.6071 0.59003 0.0
H307 H 0.0738 0.58861 0.3515 0.0
H308 H 0.97033 0.50144 0.80505 0.0
H309 H 0.94523 0.43423 0.98902 0.0
H310 H 0.92758 0.49681 0.83579 0.0
H311 H 0.98824 0.43772 0.94999 0.0
H312 H 0.16867 0.05511 0.17318 0.0
H313 H 0.21328 1.00949 0.33171 0.0
H314 H 0.1372 0.05636 0.27549 0.0
H315 H 0.18114 1.00962 0.43412 0.0
H316 H 0.12331 0.02515 0.62965 0.0
H317 H 0.15735 0.02725 0.53538 0.0
H318 H 0.1058 0.03542 0.33117 0.0
H319 H 0.07226 0.03443 0.42534 0.0
C320 C 0.17179 0.04532 0.23036 0.0
C321 C 0.19368 0.0322 0.24355 0.0
C322 C 0.15344 0.04574 0.28932 0.0
C323 C 0.15585 0.03265 0.36397 0.0
C324 C 0.17822 0.02013 0.37839 0.0
C325 C 0.19684 0.02001 0.3194 0.0
C326 C 0.11924 0.02759 0.56464 0.0
C327 C 0.09473 0.02975 0.53605 0.0
C328 C 0.13892 0.02861 0.5099 0.0
C329 C 0.13489 0.03168 0.42417 0.0
C330 C 0.11026 0.03369 0.39612 0.0
C331 C 0.09071 0.0329 0.45071 0.0
H332 H 0.54083 0.2028 0.31432 0.0
H333 H 0.47914 0.16526 0.19939 0.0
H334 H 0.54302 0.17135 0.42022 0.0
H335 H 0.4828 0.13284 0.29899 0.0
H336 H 0.48278 0.08089 0.51325 0.0
H337 H 0.47787 0.11595 0.42235 0.0
H338 H 0.55478 0.13311 0.45721 0.0
H339 H 0.55897 0.09908 0.55266 0.0
C340 C 0.52766 0.18794 0.31129 0.0
C341 C 0.51005 0.18676 0.24638 0.0
C342 C 0.52919 0.16942 0.37173 0.0
C343 C 0.51337 0.1488 0.3691 0.0
C344 C 0.49533 0.14815 0.3054 0.0
C345 C 0.49351 0.16681 0.24629 0.0
C346 C 0.4986 0.09227 0.50183 0.0
C347 C 0.52127 0.08703 0.5407 0.0
C348 C 0.4959 0.11246 0.44859 0.0
C349 C 0.51593 0.12785 0.43036 0.0
C350 C 0.53863 0.12242 0.46971 0.0
C351 C 0.54116 0.10257 0.52443 0.0
H352 H 0.36233 0.54567 0.26995 0.0
H353 H 0.38566 0.47291 0.20528 0.0
H354 H 0.39478 0.54792 0.37603 0.0
H355 H 0.4177 0.47478 0.31232 0.0
H356 H 0.48953 0.49559 0.44791 0.0
H357 H 0.45601 0.49246 0.34589 0.0
H358 H 0.40999 0.53461 0.50445 0.0
H359 H 0.44364 0.53841 0.6045 0.0
C360 C 0.37406 0.52993 0.27949 0.0
C361 C 0.37134 0.50917 0.22857 0.0
C362 C 0.39279 0.53119 0.34051 0.0
C363 C 0.40928 0.51161 0.35305 0.0
C364 C 0.40594 0.49052 0.30378 0.0
C365 C 0.38735 0.48935 0.24251 0.0
C366 C 0.47225 0.50415 0.46105 0.0
C367 C 0.46948 0.51731 0.53468 0.0
C368 C 0.45285 0.50225 0.40257 0.0
C369 C 0.43 0.5133 0.41612 0.0
C370 C 0.42726 0.5262 0.49039 0.0
C371 C 0.44666 0.52824 0.54842 0.0
H372 H 0.05335 0.39795 0.11941 0.0
H373 H 0.02395 0.34593 0.29 0.0
H374 H 0.05413 0.42935 0.22537 0.0
H375 H 0.02457 0.37773 0.39734 0.0
H376 H 0.04707 0.43764 0.59105 0.0
H377 H 0.0479 0.40433 0.48983 0.0
H378 H 0.02815 0.45552 0.29748 0.0
H379 H 0.02782 0.48865 0.3979 0.0
C380 C 0.04687 0.39315 0.17961 0.0
C381 C 0.03821 0.36924 0.19491 0.0
C382 C 0.04724 0.41136 0.24088 0.0
C383 C 0.03899 0.40656 0.32058 0.0
C384 C 0.03117 0.38236 0.33718 0.0
C385 C 0.03082 0.36399 0.2754 0.0
C386 C 0.04299 0.44183 0.52708 0.0
C387 C 0.03753 0.4661 0.50327 0.0
C388 C 0.0433 0.42258 0.46876 0.0
C389 C 0.03825 0.42692 0.3844 0.0
C390 C 0.03265 0.45121 0.36106 0.0
C391 C 0.03231 0.47038 0.4192 0.0
H392 H 0.88148 0.96946 0.15077 0.0
H393 H 0.85173 0.03798 0.06332 0.0
H394 H 0.91385 0.97219 0.05199 0.0
H395 H 0.88422 0.04045 0.96209 0.0
H396 H 0.93794 0.02578 0.74581 0.0
H397 H 0.903 0.02279 0.83673 0.0
H398 H 0.95083 0.99577 0.03113 0.0
H399 H 0.98553 0.99886 0.94088 0.0
C400 C 0.88172 0.98522 0.11048 0.0
C401 C 0.86387 1.00372 0.11719 0.0
C402 C 0.90052 0.98679 0.05335 0.0
C403 C 0.90226 1.00678 0.99917 0.0
C404 C 0.8837 0.02472 1.00243 0.0
C405 C 0.86488 0.02326 0.06056 0.0
C406 C 0.94104 1.01908 0.80784 0.0
C407 C 0.96486 1.01247 0.83514 0.0
C408 C 0.9209 1.01754 0.86048 0.0
C409 C 0.92374 1.00894 0.94203 0.0
C410 C 0.94756 1.00218 0.96885 0.0
C411 C 0.96767 1.00405 0.91677 0.0
H412 H 0.57998 0.87635 0.17513 0.0
H413 H 0.50924 0.85008 0.08898 0.0
H414 H 0.57856 0.90863 0.07236 0.0
H415 H 0.50806 0.88243 0.98408 0.0
H416 H 0.52529 0.93478 0.76342 0.0
H417 H 0.52722 0.89958 0.85692 0.0
H418 H 0.55542 0.94666 0.05128 0.0
H419 H 0.55343 0.98166 0.95854 0.0
C420 C 0.56407 0.87735 0.1341 0.0
C421 C 0.54451 0.86064 0.14206 0.0
C422 C 0.56327 0.89601 0.07489 0.0
C423 C 0.54301 0.89861 0.02039 0.0
C424 C 0.524 0.8811 0.02484 0.0
C425 C 0.52471 0.86242 0.08495 0.0
C426 C 0.53203 0.93763 0.826 0.0
C427 C 0.5393 0.96124 0.85285 0.0
C428 C 0.53296 0.9174 0.87991 0.0
C429 C 0.54157 0.92007 0.96201 0.0
C430 C 0.54897 0.94367 0.98845 0.0
C431 C 0.54773 0.96388 0.93507 0.0
H432 H 0.70927 0.5341 0.0792 0.0
H433 H 0.66169 0.56869 0.25154 0.0
H434 H 0.67427 0.52697 0.985 0.0
H435 H 0.62695 0.56228 0.1568 0.0
H436 H 0.56489 0.52964 0.99637 0.0
H437 H 0.59956 0.53285 0.09379 0.0
H438 H 0.64712 0.54974 0.89405 0.0
H439 H 0.61255 0.54613 0.79663 0.0
C440 C 0.69132 0.53992 0.09757 0.0
C441 C 0.68845 0.55208 0.17313 0.0
C442 C 0.67123 0.53613 0.04294 0.0
C443 C 0.64763 0.54423 0.06246 0.0
C444 C 0.64468 0.5556 0.13936 0.0
C445 C 0.66474 0.55948 0.19366 0.0
C446 C 0.58272 0.53407 0.9731 0.0
C447 C 0.58576 0.5377 0.8883 0.0
C448 C 0.60268 0.536 0.0292 0.0
C449 C 0.62634 0.54154 1.0023 0.0
C450 C 0.62935 0.54509 0.91737 0.0
C451 C 0.60939 0.54323 0.86133 0.0
H452 H 0.04999 0.6532 0.23411 0.0
H453 H 1.00138 0.69793 0.08445 0.0
H454 H 0.04991 0.62219 0.12676 0.0
H455 H 1.00259 0.66707 0.97446 0.0
H456 H 0.03452 0.61293 0.77172 0.0
H457 H 0.03317 0.64576 0.87494 0.0
H458 H 1.01814 0.59232 0.0618 0.0
H459 H 1.01886 0.55959 0.9585 0.0
C460 C 0.03913 0.65658 0.17867 0.0
C461 C 0.02519 0.67825 0.17016 0.0
C462 C 0.03924 0.63863 0.11648 0.0
C463 C 0.02598 0.64178 0.04196 0.0
C464 C 1.01302 0.66391 0.03103 0.0
C465 C 1.01247 0.68176 0.09427 0.0
C466 C 0.03077 0.60814 0.83471 0.0
C467 C 0.0268 0.58341 0.85624 0.0
C468 C 0.02989 0.62705 0.89397 0.0
C469 C 0.02563 0.62183 0.97717 0.0
C470 C 0.02164 0.59712 0.99862 0.0
C471 C 0.02194 0.57829 0.9391 0.0
H472 H 0.05923 0.26116 0.29161 0.0
H473 H 0.11714 0.22355 0.16877 0.0
H474 H 0.05827 0.22911 0.39374 0.0
H475 H 0.1159 0.19106 0.27113 0.0
H476 H 0.04706 0.15877 0.52786 0.0
H477 H 0.07174 0.1946 0.49188 0.0
H478 H 0.0752 0.16763 0.24237 0.0
H479 H 0.05064 0.1321 0.27829 0.0
C480 C 0.07295 0.24692 0.28945 0.0
C481 C 0.0873 0.244 0.21986 0.0
C482 C 0.07233 0.22842 0.34822 0.0
C483 C 0.08612 0.20708 0.33735 0.0
C484 C 0.10456 0.20707 0.27901 0.0
C485 C 0.1053 0.2257 0.22058 0.0
C486 C 0.05339 0.16051 0.4656 0.0
C487 C 0.04671 0.14302 0.40519 0.0
C488 C 0.06766 0.18078 0.44546 0.0
C489 C 0.07578 0.1836 0.36502 0.0
C490 C 0.06975 0.1656 0.30554 0.0
C491 C 0.05524 0.14557 0.32536 0.0
H492 H 0.345 0.10615 0.20518 0.0
H493 H 0.29104 0.06531 0.33794 0.0
H494 H 0.37213 0.10519 0.32465 0.0
H495 H 0.31703 0.06691 0.46019 0.0
H496 H 0.38077 1.00985 0.47472 0.0
H497 H 0.34611 0.03607 0.45022 0.0
H498 H 0.39404 0.09945 0.44752 0.0
H499 H 0.4291 0.07254 0.47068 0.0
C500 C 0.33838 0.09805 0.26112 0.0
C501 C 0.31698 0.08367 0.25951 0.0
C502 C 0.35388 0.09781 0.33072 0.0
C503 C 0.34756 0.08384 0.3997 0.0
C504 C 0.32309 0.07622 0.40561 0.0
C505 C 0.30799 0.07554 0.33505 0.0
C506 C 0.38386 0.02944 0.47128 0.0
C507 C 0.40761 0.03906 0.47154 0.0
C508 C 0.36386 0.04473 0.45812 0.0
C509 C 0.36716 0.07008 0.44483 0.0
C510 C 0.39082 0.08001 0.45518 0.0
C511 C 0.41091 0.0646 0.46773 0.0
H512 H 0.60673 0.31063 0.16864 0.0
H513 H 0.55002 0.30402 0.34591 0.0
H514 H 0.63116 0.3354 0.26588 0.0
H515 H 0.57354 0.32964 0.44168 0.0
H516 H 0.60685 0.38689 0.58651 0.0
H517 H 0.60591 0.34578 0.5266 0.0
H518 H 0.62121 0.37681 0.28894 0.0
H519 H 0.62242 0.41728 0.34861 0.0
C520 C 0.60001 0.31371 0.22984 0.0
C521 C 0.57647 0.3059 0.24992 0.0
C522 C 0.61385 0.32802 0.28529 0.0
C523 C 0.60397 0.33528 0.36045 0.0
C524 C 0.58182 0.32453 0.38447 0.0
C525 C 0.5682 0.30987 0.32951 0.0
C526 C 0.61071 0.38471 0.52194 0.0
C527 C 0.6141 0.40534 0.47179 0.0
C528 C 0.61021 0.36119 0.48767 0.0
C529 C 0.61291 0.35795 0.40259 0.0
C530 C 0.6192 0.37839 0.35478 0.0
C531 C 0.6198 0.40181 0.38905 0.0
H532 H 0.24877 0.54174 0.30788 0.0
H533 H 0.25193 0.6075 0.16274 0.0
H534 H 0.2227 0.56199 0.40429 0.0
H535 H 0.22724 0.62894 0.26275 0.0
H536 H 0.14561 0.63275 0.3305 0.0
H537 H 0.18618 0.62782 0.27913 0.0
H538 H 0.20752 0.58799 0.49932 0.0
H539 H 0.16601 0.59054 0.5461 0.0
C540 C 0.24489 0.56105 0.29941 0.0
C541 C 0.25202 0.57307 0.22807 0.0
C542 C 0.22994 0.57286 0.35496 0.0
C543 C 0.22207 0.59711 0.34063 0.0
C544 C 0.23207 0.61003 0.27447 0.0
C545 C 0.24653 0.59795 0.2177 0.0
C546 C 0.15896 0.62302 0.36829 0.0
C547 C 0.15206 0.61103 0.44044 0.0
C548 C 0.1826 0.62056 0.33946 0.0
C549 C 0.20018 0.60658 0.38334 0.0
C550 C 0.19426 0.59792 0.46184 0.0
C551 C 0.17039 0.59978 0.48954 0.0
H552 H 0.94485 0.821 0.18009 0.0
H553 H 1.00903 0.79149 0.06873 0.0
H554 H 0.94317 0.85338 0.07711 0.0
H555 H 1.00785 0.8239 0.9677 0.0
H556 H 0.01986 0.8938 0.8511 0.0
H557 H 0.99618 0.85633 0.87181 0.0
H558 H 0.97522 0.88346 0.10966 0.0
H559 H 0.99883 0.92032 0.08942 0.0
C560 C 0.95771 0.82062 0.13065 0.0
C561 C 0.9777 0.80457 0.13402 0.0
C562 C 0.95684 0.8392 0.0719 0.0
C563 C 0.97618 0.84195 0.01754 0.0
C564 C 0.99293 0.82265 0.00989 0.0
C565 C 0.99366 0.80395 0.0681 0.0
C566 C 1.00993 0.89176 0.90739 0.0
C567 C 1.01172 0.90966 0.96974 0.0
C568 C 0.99611 0.8705 0.91859 0.0
C569 C 0.98384 0.86683 0.99227 0.0
C570 C 0.98401 0.88576 0.05134 0.0
C571 C 0.99784 0.90689 0.04027 0.0
H572 H 0.73524 0.03832 0.03889 0.0
H573 H 0.75103 0.10117 0.19234 0.0
H574 H 0.71415 0.06402 0.93939 0.0
H575 H 0.7312 0.12786 0.08994 0.0
H576 H 0.66395 0.09919 0.79519 0.0
H577 H 0.70569 0.09342 0.84327 0.0
H578 H 0.69076 0.1351 0.06268 0.0
H579 H 0.65001 0.14332 0.00977 0.0
C580 C 0.73496 0.05795 0.04922 0.0
C581 C 0.74422 0.06788 0.12305 0.0
C582 C 0.7231 0.07291 0.99169 0.0
C583 C 0.72041 0.09824 1.00671 0.0
C584 C 0.73222 0.10843 0.07712 0.0
C585 C 0.7437 0.09327 0.13558 0.0
C586 C 0.66985 0.10837 0.85143 0.0
C587 C 0.65306 0.12042 0.90141 0.0
C588 C 0.69387 0.10466 0.87987 0.0
C589 C 0.70113 0.11208 0.95987 0.0
C590 C 0.68582 0.12824 1.00195 0.0
C591 C 0.6621 0.13271 0.97208 0.0
H592 H 0.44978 0.72378 0.23626 0.0
H593 H 0.49351 0.76028 0.05629 0.0
H594 H 0.42876 0.70099 0.12822 0.0
H595 H 0.47082 0.73911 0.94647 0.0
H596 H 0.47437 0.65957 0.84415 0.0
H597 H 0.47732 0.69954 0.90595 0.0
H598 H 0.40651 0.68913 0.01325 0.0
H599 H 0.40431 0.64805 0.9536 0.0
C600 C 0.45433 0.72753 0.17311 0.0
C601 C 0.47415 0.74287 0.15516 0.0
C602 C 0.44191 0.71471 0.11043 0.0
C603 C 0.44872 0.71734 0.02803 0.0
C604 C 0.4658 0.73577 0.00939 0.0
C605 C 0.47865 0.7482 0.07245 0.0
C606 C 0.45895 0.66611 0.87819 0.0
C607 C 0.43941 0.65041 0.89589 0.0
C608 C 0.46056 0.68932 0.91383 0.0
C609 C 0.44253 0.69748 0.9675 0.0
C610 C 0.42124 0.68312 0.97507 0.0
C611 C 0.41984 0.65963 0.9405 0.0
H612 H 0.79411 0.51168 0.07612 0.0
H613 H 0.82034 0.45618 0.2454 0.0
H614 H 0.81985 0.49512 0.97053 0.0
H615 H 0.84725 0.44057 0.14097 0.0
H616 H 0.90338 0.4254 0.94868 0.0
H617 H 0.862 0.42617 1.00331 0.0
H618 H 0.86347 0.5053 0.99795 0.0
H619 H 0.9043 0.50468 0.94776 0.0
C620 C 0.80446 0.49525 0.08986 0.0
C621 C 0.80601 0.48585 0.17016 0.0
C622 C 0.81937 0.48585 0.02932 0.0
C623 C 0.83631 0.46731 0.04886 0.0
C624 C 0.83466 0.45513 0.12443 0.0
C625 C 0.81942 0.46426 0.18461 0.0
C626 C 0.89472 0.44291 0.95885 0.0
C627 C 0.90719 0.46498 0.94324 0.0
C628 C 0.87097 0.44331 0.98911 0.0
C629 C 0.85926 0.46576 1.00309 0.0
C630 C 0.87154 0.48765 0.9851 0.0
C631 C 0.89516 0.48728 0.95636 0.0
H632 H 0.08948 0.21602 0.92183 0.0
H633 H 1.01259 0.21724 0.97118 0.0
H634 H 0.08468 0.17613 0.85522 0.0
H635 H 1.0076 0.17694 0.90446 0.0
H636 H 1.00513 0.10921 0.7293 0.0
H637 H 1.00839 0.15126 0.78085 0.0
H638 H 0.07835 0.13431 0.8956 0.0
H639 H 0.07513 0.09232 0.84373 0.0
C640 C 0.07133 0.20805 0.91635 0.0
C641 C 0.05138 0.22021 0.95113 0.0
C642 C 0.06862 0.18484 0.87923 0.0
C643 C 0.04581 0.17271 0.87525 0.0
C644 C 0.02549 0.1855 0.90574 0.0
C645 C 0.02826 0.20883 0.94345 0.0
C646 C 0.02127 0.11436 0.76553 0.0
C647 C 0.03986 0.097 0.78204 0.0
C648 C 0.02308 0.13863 0.79559 0.0
C649 C 0.04367 0.14662 0.84264 0.0
C650 C 0.06231 0.12925 0.85874 0.0
C651 C 0.06041 0.10493 0.82926 0.0
H652 H 0.32639 0.0451 0.89472 0.0
H653 H 0.3658 0.02852 0.12073 0.0
H654 H 0.36453 0.04046 0.81878 0.0
H655 H 0.40355 0.02438 0.04621 0.0
H656 H 0.47147 0.05106 0.9121 0.0
H657 H 0.43194 0.05234 0.97814 0.0
H658 H 0.39891 1.01238 0.77431 0.0
H659 H 0.43872 1.01081 0.70845 0.0
C660 C 0.34296 0.03986 0.92807 0.0
C661 C 0.34274 0.03725 0.01438 0.0
C662 C 0.365 0.0374 0.88456 0.0
C663 C 0.38758 0.03255 0.92609 0.0
C664 C 0.38692 0.0287 0.01164 0.0
C665 C 0.36504 0.03084 0.05456 0.0
C666 C 0.45586 0.04255 0.88089 0.0
C667 C 0.45868 0.03076 0.80449 0.0
C668 C 0.43303 0.04315 0.91927 0.0
C669 C 0.41187 0.03231 0.88246 0.0
C670 C 0.41453 0.02102 0.80501 0.0
C671 C 0.43753 0.02004 0.76719 0.0
H672 H 0.49076 0.33787 0.02705 0.0
H673 H 0.56723 0.33683 0.97109 0.0
H674 H 0.48594 0.37632 0.94979 0.0
H675 H 0.56291 0.37519 0.89732 0.0
H676 H 0.49431 0.46008 0.89671 0.0
H677 H 0.49476 0.419 0.95645 0.0
H678 H 0.54926 0.3971 0.78414 0.0
H679 H 0.54946 0.43821 0.72726 0.0
C680 C 0.50641 0.34552 0.9967 0.0
C681 C 0.52934 0.33406 1.005 0.0
C682 C 0.5038 0.36788 0.95343 0.0
C683 C 0.52404 0.37938 0.91699 0.0
C684 C 0.54667 0.36714 0.92274 0.0
C685 C 0.54923 0.34498 0.96559 0.0
C686 C 0.50633 0.44647 0.87129 0.0
C687 C 0.52201 0.4528 0.80727 0.0
C688 C 0.50648 0.42269 0.90538 0.0
C689 C 0.52221 0.40434 0.87629 0.0
C690 C 0.53726 0.41058 0.81031 0.0
C691 C 0.53727 0.43433 0.77691 0.0
H692 H 0.22258 0.56924 0.93579 0.0
H693 H 0.22348 0.49228 0.9943 0.0
H694 H 0.18454 0.56372 0.85614 0.0
H695 H 0.18526 0.48648 0.91336 0.0
H696 H 0.10094 0.49558 0.86877 0.0
H697 H 0.14236 0.49712 0.92803 0.0
H698 H 0.16368 0.54674 0.7363 0.0
H699 H 0.12211 0.54547 0.6775 0.0
C700 C 0.21492 0.55096 0.92976 0.0
C701 C 0.22616 0.53119 0.97118 0.0
C702 C 0.19304 0.54775 0.88386 0.0
C703 C 0.18151 0.52466 0.87838 0.0
C704 C 0.19336 0.50461 0.91687 0.0
C705 C 0.21547 0.50782 0.96239 0.0
C706 C 0.11446 0.50669 0.83864 0.0
C707 C 0.10793 0.52048 0.76825 0.0
C708 C 0.13838 0.50743 0.87247 0.0
C709 C 0.15658 0.52209 0.83739 0.0
C710 C 0.1502 0.53544 0.76583 0.0
C711 C 0.12629 0.5346 0.73169 0.0
H712 H 0.96858 0.83331 0.42279 0.0
H713 H 0.0469 0.82678 0.41489 0.0
H714 H 0.97295 0.87238 0.4948 0.0
H715 H 0.05145 0.86626 0.48752 0.0
H716 H 0.04956 0.93319 0.66798 0.0
H717 H 0.04609 0.8915 0.61256 0.0
H718 H 0.98434 0.91372 0.46002 0.0
H719 H 0.98776 0.95523 0.51531 0.0
C720 C 0.98684 0.83994 0.43835 0.0
C721 C 1.00737 0.82658 0.41326 0.0
C722 C 0.98936 0.86267 0.47879 0.0
C723 C 1.01257 0.87308 0.49614 0.0
C724 C 0.03323 0.85902 0.47567 0.0
C725 C 0.03067 0.83617 0.43452 0.0
C726 C 0.03515 0.92924 0.6228 0.0
C727 C 1.01892 0.94794 0.59665 0.0
C728 C 0.03325 0.9052 0.59049 0.0
C729 C 1.01486 0.89883 0.53156 0.0
C730 C 0.99856 0.91752 0.50602 0.0
C731 C 1.00059 0.94157 0.53764 0.0
H732 H 0.71082 0.98604 0.33566 0.0
H733 H 0.72023 0.06044 0.4195 0.0
H734 H 0.67349 0.98246 0.41581 0.0
H735 H 0.68317 0.05715 0.4988 0.0
H736 H 0.62287 0.04121 0.67973 0.0
H737 H 0.66232 0.04089 0.61304 0.0
H738 H 0.63142 0.99591 0.41744 0.0
H739 H 0.59201 0.99604 0.48472 0.0
C740 C 0.70534 1.00143 0.37297 0.0
C741 C 0.719 0.02338 0.37197 0.0
C742 C 0.68359 0.99956 0.41817 0.0
C743 C 0.67479 0.01954 0.46451 0.0
C744 C 0.68911 0.04114 0.46551 0.0
C745 C 0.71058 0.04306 0.41985 0.0
C746 C 0.62441 0.03105 0.62281 0.0
C747 C 0.60384 1.01865 0.58835 0.0
C748 C 0.64721 0.031 0.58384 0.0
C749 C 0.65054 1.01843 0.50883 0.0
C750 C 0.63006 1.00562 0.47526 0.0
C751 C 0.6072 1.00582 0.51395 0.0
H752 H 0.56035 0.71109 0.36896 0.0
H753 H 0.48604 0.71675 0.44723 0.0
H754 H 0.56547 0.67344 0.45029 0.0
H755 H 0.49085 0.6793 0.52745 0.0
H756 H 0.50965 0.61772 0.7063 0.0
H757 H 0.50906 0.65837 0.64338 0.0
H758 H 0.55182 0.63112 0.44402 0.0
H759 H 0.55265 0.59067 0.50726 0.0
C760 C 0.54533 0.70467 0.40528 0.0
C761 C 0.52287 0.71714 0.40214 0.0
C762 C 0.54809 0.68284 0.45108 0.0
C763 C 0.52852 0.67295 0.49556 0.0
C764 C 0.50648 0.68622 0.49523 0.0
C765 C 0.50369 0.70781 0.44906 0.0
C766 C 0.51912 0.62039 0.6494 0.0
C767 C 0.53115 0.60063 0.61221 0.0
C768 C 0.51867 0.6438 0.61283 0.0
C769 C 0.53039 0.64834 0.53804 0.0
C770 C 0.54285 0.62867 0.50195 0.0
C771 C 0.54316 0.60526 0.53816 0.0
H772 H 0.83685 0.48961 0.4602 0.0
H773 H 0.83817 0.56648 0.40052 0.0
H774 H 0.87662 0.4933 0.52873 0.0
H775 H 0.87794 0.5707 0.47301 0.0
H776 H 0.96219 0.56088 0.5073 0.0
H777 H 0.91967 0.56136 0.45711 0.0
H778 H 0.90167 0.50622 0.63607 0.0
H779 H 0.94413 0.50482 0.68229 0.0
C780 C 0.84536 0.50756 0.46417 0.0
C781 C 0.83422 0.52773 0.42476 0.0
C782 C 0.86832 0.50976 0.5039 0.0
C783 C 0.88101 0.53231 0.50648 0.0
C784 C 0.86915 0.55289 0.4713 0.0
C785 C 0.84606 0.55063 0.43098 0.0
C786 C 0.94912 0.54892 0.53612 0.0
C787 C 0.95686 0.53269 0.59876 0.0
C788 C 0.92455 0.54932 0.50769 0.0
C789 C 0.90686 0.53369 0.54162 0.0
C790 C 0.91456 0.51816 0.60643 0.0
C791 C 0.9391 0.5175 0.63381 0.0
loop_
_geom_bond_atom_site_label_1
_geom_bond_atom_site_label_2
_geom_bond_distance
_geom_bond_site_symmetry_2
_ccdc_geom_bond_type
H0 C1 0.949 . S
C1 H0 0.949 . S
C1 C2 1.395 . S
C1 C3 1.391 . S
C2 C1 1.395 . S
C2 C5 1.390 . S
C3 C1 1.391 . S
C3 C7 1.387 . S
C3 C8 1.491 . S
H4 C5 0.950 . S
C5 C2 1.390 . S
C5 H4 0.950 . S
C5 C6 1.378 . S
C6 C5 1.378 . S
C6 C7 1.409 . S
C7 C3 1.387 . S
C7 C6 1.409 . S
C7 H9 0.951 . S
C8 C3 1.491 . S
C8 C10 1.382 . S
C8 C12 1.404 . S
H9 C7 0.951 . S
C10 C8 1.382 . S
C10 C11 1.390 . S
C10 H15 0.949 . S
C11 C10 1.390 . S
C11 C16 1.399 . S
C12 C8 1.404 . S
C12 H13 0.950 . S
C12 C14 1.375 . S
H13 C12 0.950 . S
C14 C12 1.375 . S
C14 C16 1.382 . S
C14 H18 0.950 . S
H15 C10 0.949 . S
C16 C11 1.399 . S
C16 C14 1.382 . S
C16 H17 0.952 . S
H17 C16 0.952 . S
H18 C14 0.950 . S
H19 C20 0.949 . S
C20 H19 0.949 . S
C20 C21 1.395 . S
C20 C22 1.391 . S
C21 C20 1.395 . S
C21 C24 1.390 . S
C22 C20 1.391 . S
C22 C26 1.387 . S
C22 C27 1.491 . S
H23 C24 0.950 . S
C24 C21 1.390 . S
C24 H23 0.950 . S
C24 C25 1.378 . S
C25 C24 1.378 . S
C25 C26 1.409 . S
C26 C22 1.387 . S
C26 C25 1.409 . S
C26 H28 0.951 . S
C27 C22 1.491 . S
C27 C29 1.382 . S
C27 C31 1.404 . S
H28 C26 0.951 . S
C29 C27 1.382 . S
C29 C30 1.390 . S
C29 H34 0.949 . S
C30 C29 1.390 . S
C30 C35 1.399 . S
C31 C27 1.404 . S
C31 H32 0.950 . S
C31 C33 1.375 . S
H32 C31 0.950 . S
C33 C31 1.375 . S
C33 C35 1.382 . S
C33 H37 0.950 . S
H34 C29 0.949 . S
C35 C30 1.399 . S
C35 C33 1.382 . S
C35 H36 0.952 . S
H36 C35 0.952 . S
H37 C33 0.950 . S
H38 C39 0.949 . S
C39 H38 0.949 . S
C39 C40 1.395 . S
C39 C41 1.391 . S
C40 C39 1.395 . S
C40 C43 1.390 . S
C41 C39 1.391 . S
C41 C45 1.387 . S
C41 C46 1.491 . S
H42 C43 0.950 . S
C43 C40 1.390 . S
C43 H42 0.950 . S
C43 C44 1.378 . S
C44 C43 1.378 . S
C44 C45 1.409 . S
C45 C41 1.387 . S
C45 C44 1.409 . S
C45 H47 0.951 . S
C46 C41 1.491 . S
C46 C48 1.382 . S
C46 C50 1.404 . S
H47 C45 0.951 . S
C48 C46 1.382 . S
C48 C49 1.390 . S
C48 H53 0.949 . S
C49 C48 1.390 . S
C49 C54 1.399 . S
C50 C46 1.404 . S
C50 H51 0.950 . S
C50 C52 1.375 . S
H51 C50 0.950 . S
C52 C50 1.375 . S
C52 C54 1.382 . S
C52 H56 0.950 . S
H53 C48 0.949 . S
C54 C49 1.399 . S
C54 C52 1.382 . S
C54 H55 0.952 . S
H55 C54 0.952 . S
H56 C52 0.950 . S
H57 C58 0.949 . S
C58 H57 0.949 . S
C58 C59 1.395 . S
C58 C60 1.391 . S
C59 C58 1.395 . S
C59 C62 1.390 . S
C60 C58 1.391 . S
C60 C64 1.387 . S
C60 C65 1.491 . S
H61 C62 0.950 . S
C62 C59 1.390 . S
C62 H61 0.950 . S
C62 C63 1.378 . S
C63 C62 1.378 . S
C63 C64 1.409 . S
C64 C60 1.387 . S
C64 C63 1.409 . S
C64 H66 0.951 . S
C65 C60 1.491 . S
C65 C67 1.382 . S
C65 C69 1.404 . S
H66 C64 0.951 . S
C67 C65 1.382 . S
C67 C68 1.390 . S
C67 H72 0.949 . S
C68 C67 1.390 . S
C68 C73 1.399 . S
C69 C65 1.404 . S
C69 H70 0.950 . S
C69 C71 1.375 . S
H70 C69 0.950 . S
C71 C69 1.375 . S
C71 C73 1.382 . S
C71 H75 0.950 . S
H72 C67 0.949 . S
C73 C68 1.399 . S
C73 C71 1.382 . S
C73 H74 0.952 . S
H74 C73 0.952 . S
H75 C71 0.950 . S
H76 C77 0.949 . S
C77 H76 0.949 . S
C77 C78 1.395 . S
C77 C79 1.391 . S
C78 C77 1.395 . S
C78 C81 1.390 . S
C79 C77 1.391 . S
C79 C83 1.387 1_554 S
C79 C84 1.491 . S
H80 C81 0.950 . S
C81 C78 1.390 . S
C81 H80 0.950 . S
C81 C82 1.378 1_554 S
C82 C81 1.378 1_556 S
C82 C83 1.409 . S
C83 C79 1.387 1_556 S
C83 C82 1.409 . S
C83 H85 0.951 . S
C84 C79 1.491 . S
C84 C86 1.382 . S
C84 C88 1.404 . S
H85 C83 0.951 . S
C86 C84 1.382 . S
C86 C87 1.390 . S
C86 H91 0.949 . S
C87 C86 1.390 . S
C87 C92 1.399 . S
C88 C84 1.404 . S
C88 H89 0.950 1_554 S
C88 C90 1.375 . S
H89 C88 0.950 1_556 S
C90 C88 1.375 . S
C90 C92 1.382 . S
C90 H94 0.950 1_554 S
H91 C86 0.949 . S
C92 C87 1.399 . S
C92 C90 1.382 . S
C92 H93 0.952 . S
H93 C92 0.952 . S
H94 C90 0.950 1_556 S
H95 C96 0.949 . S
C96 H95 0.949 . S
C96 C97 1.395 . S
C96 C98 1.391 . S
C97 C96 1.395 . S
C97 C100 1.390 . S
C98 C96 1.391 . S
C98 C102 1.387 1_554 S
C98 C103 1.491 . S
H99 C100 0.950 . S
C100 C97 1.390 . S
C100 H99 0.950 . S
C100 C101 1.378 1_554 S
C101 C100 1.378 1_556 S
C101 C102 1.409 . S
C102 C98 1.387 1_556 S
C102 C101 1.409 . S
C102 H104 0.951 . S
C103 C98 1.491 . S
C103 C105 1.382 . S
C103 C107 1.404 1_554 S
H104 C102 0.951 . S
C105 C103 1.382 . S
C105 C106 1.390 . S
C105 H110 0.949 . S
C106 C105 1.390 . S
C106 C111 1.399 . S
C107 C103 1.404 1_556 S
C107 H108 0.950 . S
C107 C109 1.375 . S
H108 C107 0.950 . S
C109 C107 1.375 . S
C109 C111 1.382 1_556 S
C109 H113 0.950 . S
H110 C105 0.949 . S
C111 C106 1.399 . S
C111 C109 1.382 1_554 S
C111 H112 0.952 . S
H112 C111 0.952 . S
H113 C109 0.950 . S
H114 C115 0.949 . S
C115 H114 0.949 . S
C115 C116 1.395 . S
C115 C117 1.391 1_554 S
C116 C115 1.395 . S
C116 C119 1.390 1_554 S
C117 C115 1.391 1_556 S
C117 C121 1.387 . S
C117 C122 1.491 . S
H118 C119 0.950 . S
C119 C116 1.390 1_556 S
C119 H118 0.950 . S
C119 C120 1.378 . S
C120 C119 1.378 . S
C120 C121 1.409 . S
C121 C117 1.387 . S
C121 C120 1.409 . S
C121 H123 0.951 . S
C122 C117 1.491 . S
C122 C124 1.382 1_556 S
C122 C126 1.404 . S
H123 C121 0.951 . S
C124 C122 1.382 1_554 S
C124 C125 1.390 . S
C124 H129 0.949 . S
C125 C124 1.390 . S
C125 C130 1.399 1_554 S
C126 C122 1.404 . S
C126 H127 0.950 . S
C126 C128 1.375 . S
H127 C126 0.950 . S
C128 C126 1.375 . S
C128 C130 1.382 . S
C128 H132 0.950 1_545 S
H129 C124 0.949 . S
C130 C125 1.399 1_556 S
C130 C128 1.382 . S
C130 H131 0.952 . S
H131 C130 0.952 . S
H132 C128 0.950 1_565 S
H133 C134 0.949 . S
C134 H133 0.949 . S
C134 C135 1.395 . S
C134 C136 1.391 . S
C135 C134 1.395 . S
C135 C138 1.390 . S
C136 C134 1.391 . S
C136 C140 1.387 1_554 S
C136 C141 1.491 . S
H137 C138 0.950 . S
C138 C135 1.390 . S
C138 H137 0.950 . S
C138 C139 1.378 1_554 S
C139 C138 1.378 1_556 S
C139 C140 1.409 . S
C140 C136 1.387 1_556 S
C140 C139 1.409 . S
C140 H142 0.951 . S
C141 C136 1.491 . S
C141 C143 1.382 . S
C141 C145 1.404 . S
H142 C140 0.951 . S
C143 C141 1.382 . S
C143 C144 1.390 . S
C143 H148 0.949 . S
C144 C143 1.390 . S
C144 C149 1.399 . S
C145 C141 1.404 . S
C145 H146 0.950 1_554 S
C145 C147 1.375 . S
H146 C145 0.950 1_556 S
C147 C145 1.375 . S
C147 C149 1.382 . S
C147 H151 0.950 1_554 S
H148 C143 0.949 . S
C149 C144 1.399 . S
C149 C147 1.382 . S
C149 H150 0.952 . S
H150 C149 0.952 . S
H151 C147 0.950 1_556 S
Eu152 C161 2.828 . S
Eu152 O163 2.392 . S
Eu152 O165 2.418 1_545 S
Eu152 O170 2.373 1_655 S
Eu152 O173 2.488 . S
Eu152 O174 2.471 1_655 S
Eu152 O175 2.349 1_655 S
Eu153 O162 2.377 1_455 S
Eu153 O166 2.488 . S
Eu153 O167 2.471 . S
Eu153 O168 2.349 . S
Eu153 O171 2.392 1_565 S
Eu153 O172 2.418 1_565 S
Eu153 C182 2.828 . S
C154 O172 1.244 . S
C154 O175 1.265 . S
C155 C156 1.379 . S
C155 C159 1.373 1_455 S
C155 C161 1.505 1_455 S
C156 C155 1.379 . S
C156 C158 1.369 . S
C156 H184 0.930 . S
C157 C159 1.383 . S
C157 C160 1.382 1_655 S
C157 H185 0.930 . S
C158 C156 1.369 . S
C158 C160 1.392 . S
C158 H186 0.930 . S
C159 C155 1.373 1_655 S
C159 C157 1.383 . S
C159 H187 0.931 . S
C160 C157 1.382 1_455 S
C160 C158 1.392 . S
C161 Eu152 2.828 . S
C161 C155 1.505 1_655 S
C161 O173 1.249 . S
C161 O174 1.244 1_655 S
O162 Eu153 2.377 1_655 S
O162 C164 1.253 1_565 S
O163 Eu152 2.392 . S
O163 C164 1.242 . S
C164 O162 1.253 1_545 S
C164 O163 1.242 . S
O165 Eu152 2.418 1_565 S
O165 C169 1.244 . S
O166 Eu153 2.488 . S
O166 C182 1.249 . S
O167 Eu153 2.471 . S
O167 C182 1.244 . S
O168 Eu153 2.349 . S
O168 C169 1.265 1_455 S
C169 O165 1.244 . S
C169 O168 1.265 1_655 S
O170 Eu152 2.373 1_455 S
O170 C183 1.258 . S
O171 Eu153 2.392 1_545 S
O171 C183 1.242 . S
O172 Eu153 2.418 1_545 S
O172 C154 1.244 . S
O173 Eu152 2.488 . S
O173 C161 1.249 . S
O174 Eu152 2.471 1_455 S
O174 C161 1.244 1_455 S
O175 Eu152 2.349 1_455 S
O175 C154 1.265 . S
C176 C177 1.379 . S
C176 C180 1.373 1_556 S
C176 C182 1.505 . S
C177 C176 1.379 . S
C177 C179 1.369 1_456 S
C177 H188 0.930 1_455 S
C178 C180 1.383 . S
C178 C181 1.382 . S
C178 H189 0.930 . S
C179 C177 1.369 1_654 S
C179 C181 1.392 1_655 S
C179 H190 0.930 1_554 S
C180 C176 1.373 1_554 S
C180 C178 1.383 . S
C180 H191 0.931 . S
C181 C178 1.382 . S
C181 C179 1.392 1_455 S
C182 Eu153 2.828 . S
C182 O166 1.249 . S
C182 O167 1.244 . S
C182 C176 1.505 . S
C183 O170 1.258 . S
C183 O171 1.242 . S
H184 C156 0.930 . S
H185 C157 0.930 . S
H186 C158 0.930 . S
H187 C159 0.931 . S
H188 C177 0.930 1_655 S
H189 C178 0.930 . S
H190 C179 0.930 1_556 S
H191 C180 0.931 . S
Eu192 C201 2.828 . S
Eu192 O203 2.392 . S
Eu192 O205 2.418 . S
Eu192 O210 2.373 . S
Eu192 O213 2.488 . S
Eu192 O214 2.471 . S
Eu192 O215 2.349 1_545 S
Eu193 O202 2.373 1_565 S
Eu193 O206 2.488 . S
Eu193 O207 2.471 1_565 S
Eu193 O208 2.349 1_565 S
Eu193 O211 2.392 . S
Eu193 O212 2.418 . S
Eu193 C222 2.828 . S
C194 O212 1.244 . S
C194 O215 1.265 . S
C195 C196 1.379 . S
C195 C199 1.373 . S
C195 C201 1.505 . S
C196 C195 1.379 . S
C196 C198 1.369 . S
C196 H224 0.930 1_545 S
C197 C199 1.383 . S
C197 C200 1.382 . S
C197 H225 0.930 . S
C198 C196 1.369 . S
C198 C200 1.392 . S
C198 H226 0.930 1_545 S
C199 C195 1.373 . S
C199 C197 1.383 . S
C199 H227 0.931 . S
C200 C197 1.382 . S
C200 C198 1.392 . S
C201 Eu192 2.828 . S
C201 C195 1.505 . S
C201 O213 1.249 . S
C201 O214 1.244 . S
O202 Eu193 2.373 1_545 S
O202 C204 1.258 . S
O203 Eu192 2.392 . S
O203 C204 1.242 . S
C204 O202 1.258 . S
C204 O203 1.242 . S
O205 Eu192 2.418 . S
O205 C209 1.244 . S
O206 Eu193 2.488 . S
O206 C222 1.249 . S
O207 Eu193 2.471 1_545 S
O207 C222 1.244 1_545 S
O208 Eu193 2.349 1_545 S
O208 C209 1.265 . S
C209 O205 1.244 . S
C209 O208 1.265 . S
O210 Eu192 2.373 . S
O210 C223 1.258 1_545 S
O211 Eu193 2.392 . S
O211 C223 1.242 . S
O212 Eu193 2.418 . S
O212 C194 1.244 . S
O213 Eu192 2.488 . S
O213 C201 1.249 . S
O214 Eu192 2.471 . S
O214 C201 1.244 . S
O215 Eu192 2.349 1_565 S
O215 C194 1.265 . S
C216 C217 1.379 1_565 S
C216 C220 1.373 . S
C216 C222 1.505 . S
C217 C216 1.379 1_545 S
C217 C219 1.369 . S
C217 H228 0.930 . S
C218 C220 1.383 . S
C218 C221 1.425 . S
C218 H229 0.930 . S
C219 C217 1.369 . S
C219 C221 1.353 1_545 S
C219 H230 0.930 . S
C220 C216 1.373 . S
C220 C218 1.383 . S
C220 H231 0.931 . S
C221 C218 1.425 . S
C221 C219 1.353 1_565 S
C222 Eu193 2.828 . S
C222 O206 1.249 . S
C222 O207 1.244 1_565 S
C222 C216 1.505 . S
C223 O210 1.258 1_565 S
C223 O211 1.242 . S
H224 C196 0.930 1_565 S
H225 C197 0.930 . S
H226 C198 0.930 1_565 S
H227 C199 0.931 . S
H228 C217 0.930 . S
H229 C218 0.930 . S
H230 C219 0.930 . S
H231 C220 0.931 . S
Eu232 C241 2.828 . S
Eu232 O243 2.392 . S
Eu232 O245 2.418 . S
Eu232 O250 2.373 . S
Eu232 O253 2.488 . S
Eu232 O254 2.471 . S
Eu232 O255 2.349 . S
Eu233 O242 2.373 . S
Eu233 O246 2.488 . S
Eu233 O247 2.471 . S
Eu233 O248 2.349 . S
Eu233 O251 2.392 . S
Eu233 O252 2.418 . S
Eu233 C262 2.828 . S
C234 O252 1.244 . S
C234 O255 1.265 . S
C235 C236 1.379 . S
C235 C239 1.373 . S
C235 C241 1.505 . S
C236 C235 1.379 . S
C236 C238 1.369 . S
C236 H264 0.930 . S
C237 C239 1.383 . S
C237 C240 1.382 . S
C237 H265 0.930 . S
C238 C236 1.369 . S
C238 C240 1.392 . S
C238 H266 0.930 . S
C239 C235 1.373 . S
C239 C237 1.383 . S
C239 H267 0.931 . S
C240 C237 1.382 . S
C240 C238 1.392 . S
C241 Eu232 2.828 . S
C241 C235 1.505 . S
C241 O253 1.249 . S
C241 O254 1.244 . S
O242 Eu233 2.373 . S
O242 C244 1.258 . S
O243 Eu232 2.392 . S
O243 C244 1.242 . S
C244 O242 1.258 . S
C244 O243 1.242 . S
O245 Eu232 2.418 . S
O245 C249 1.244 . S
O246 Eu233 2.488 . S
O246 C262 1.249 . S
O247 Eu233 2.471 . S
O247 C262 1.244 . S
O248 Eu233 2.349 . S
O248 C249 1.265 . S
C249 O245 1.244 . S
C249 O248 1.265 . S
O250 Eu232 2.373 . S
O250 C263 1.258 . S
O251 Eu233 2.392 . S
O251 C263 1.242 . S
O252 Eu233 2.418 . S
O252 C234 1.244 . S
O253 Eu232 2.488 . S
O253 C241 1.249 . S
O254 Eu232 2.471 . S
O254 C241 1.244 . S
O255 Eu232 2.349 . S
O255 C234 1.265 . S
C256 C257 1.379 . S
C256 C260 1.373 . S
C256 C262 1.505 . S
C257 C256 1.379 . S
C257 C259 1.369 . S
C257 H268 0.930 . S
C258 C260 1.383 . S
C258 C261 1.382 . S
C258 H269 0.930 . S
C259 C257 1.369 . S
C259 C261 1.392 . S
C259 H270 0.930 . S
C260 C256 1.373 . S
C260 C258 1.383 . S
C260 H271 0.931 . S
C261 C258 1.382 . S
C261 C259 1.392 . S
C262 Eu233 2.828 . S
C262 O246 1.249 . S
C262 O247 1.244 . S
C262 C256 1.505 . S
C263 O250 1.258 . S
C263 O251 1.242 . S
H264 C236 0.930 . S
H265 C237 0.930 . S
H266 C238 0.930 . S
H267 C239 0.931 . S
H268 C257 0.930 . S
H269 C258 0.930 . S
H270 C259 0.930 . S
H271 C260 0.931 . S
Eu272 C281 2.828 . S
Eu272 O283 2.392 . S
Eu272 O285 2.418 1_455 S
Eu272 O290 2.373 . S
Eu272 O293 2.488 . S
Eu272 O294 2.471 . S
Eu272 O295 2.349 . S
Eu273 O282 2.373 . S
Eu273 O286 2.488 . S
Eu273 O287 2.471 . S
Eu273 O288 2.349 . S
Eu273 O291 2.392 1_655 S
Eu273 O292 2.418 1_655 S
Eu273 C302 2.828 . S
C274 O292 1.244 . S
C274 O295 1.265 . S
C275 C276 1.379 . S
C275 C279 1.373 . S
C275 C281 1.505 . S
C276 C275 1.379 . S
C276 C278 1.369 . S
C276 H304 0.930 . S
C277 C279 1.383 . S
C277 C280 1.382 . S
C277 H305 0.930 . S
C278 C276 1.369 . S
C278 C280 1.392 . S
C278 H306 0.930 . S
C279 C275 1.373 . S
C279 C277 1.383 . S
C279 H307 0.931 . S
C280 C277 1.382 . S
C280 C278 1.392 . S
C281 Eu272 2.828 . S
C281 C275 1.505 . S
C281 O293 1.249 . S
C281 O294 1.244 . S
O282 Eu273 2.373 . S
O282 C284 1.258 1_655 S
O283 Eu272 2.392 . S
O283 C284 1.242 . S
C284 O282 1.258 1_455 S
C284 O283 1.242 . S
O285 Eu272 2.418 1_655 S
O285 C289 1.244 . S
O286 Eu273 2.488 . S
O286 C302 1.249 . S
O287 Eu273 2.471 . S
O287 C302 1.244 . S
O288 Eu273 2.349 . S
O288 C289 1.265 . S
C289 O285 1.244 . S
C289 O288 1.265 . S
O290 Eu272 2.373 . S
O290 C303 1.258 . S
O291 Eu273 2.392 1_455 S
O291 C303 1.242 . S
O292 Eu273 2.418 1_455 S
O292 C274 1.244 . S
O293 Eu272 2.488 . S
O293 C281 1.249 . S
O294 Eu272 2.471 . S
O294 C281 1.244 . S
O295 Eu272 2.349 . S
O295 C274 1.265 . S
C296 C297 1.379 . S
C296 C300 1.373 1_556 S
C296 C302 1.505 . S
C297 C296 1.379 . S
C297 C299 1.369 . S
C297 H308 0.930 . S
C298 C300 1.383 . S
C298 C301 1.382 . S
C298 H309 0.930 . S
C299 C297 1.369 . S
C299 C301 1.392 1_556 S
C299 H310 0.930 . S
C300 C296 1.373 1_554 S
C300 C298 1.383 . S
C300 H311 0.931 . S
C301 C298 1.382 . S
C301 C299 1.392 1_554 S
C302 Eu273 2.828 . S
C302 O286 1.249 . S
C302 O287 1.244 . S
C302 C296 1.505 . S
C303 O290 1.258 . S
C303 O291 1.242 . S
H304 C276 0.930 . S
H305 C277 0.930 . S
H306 C278 0.930 . S
H307 C279 0.931 . S
H308 C297 0.930 . S
H309 C298 0.930 . S
H310 C299 0.930 . S
H311 C300 0.931 . S
H312 C320 0.950 . S
H313 C325 0.950 . S
H314 C322 0.950 . S
H315 C324 0.923 1_565 S
H316 C326 0.950 1_565 S
H317 C328 0.950 1_565 S
H318 C330 0.950 . S
H319 C331 0.950 . S
C320 H312 0.950 . S
C320 C321 1.386 . S
C320 C322 1.391 . S
C321 C320 1.386 . S
C321 C325 1.393 . S
C322 H314 0.950 . S
C322 C320 1.391 . S
C322 C323 1.400 . S
C323 C322 1.400 . S
C323 C324 1.398 . S
C323 C329 1.491 . S
C324 H315 0.923 1_545 S
C324 C323 1.398 . S
C324 C325 1.391 . S
C325 H313 0.950 . S
C325 C321 1.393 . S
C325 C324 1.391 . S
C326 H316 0.950 1_545 S
C326 C327 1.386 . S
C326 C328 1.391 . S
C327 C326 1.386 . S
C327 C331 1.393 . S
C328 H317 0.950 1_545 S
C328 C326 1.391 . S
C328 C329 1.400 . S
C329 C323 1.491 . S
C329 C328 1.400 . S
C329 C330 1.398 . S
C330 H318 0.950 . S
C330 C329 1.398 . S
C330 C331 1.391 . S
C331 H319 0.950 . S
C331 C327 1.393 . S
C331 C330 1.391 . S
H332 C340 0.950 . S
H333 C345 0.950 . S
H334 C342 0.950 . S
H335 C344 0.950 . S
H336 C346 0.950 . S
H337 C348 0.950 . S
H338 C350 0.950 . S
H339 C351 0.950 . S
C340 H332 0.950 . S
C340 C341 1.386 . S
C340 C342 1.391 . S
C341 C340 1.386 . S
C341 C345 1.393 . S
C342 H334 0.950 . S
C342 C340 1.391 . S
C342 C343 1.400 . S
C343 C342 1.400 . S
C343 C344 1.398 . S
C343 C349 1.491 . S
C344 H335 0.950 . S
C344 C343 1.398 . S
C344 C345 1.391 . S
C345 H333 0.950 . S
C345 C341 1.393 . S
C345 C344 1.391 . S
C346 H336 0.950 . S
C346 C347 1.386 . S
C346 C348 1.391 . S
C347 C346 1.386 . S
C347 C351 1.393 . S
C348 H337 0.950 . S
C348 C346 1.391 . S
C348 C349 1.400 . S
C349 C343 1.491 . S
C349 C348 1.400 . S
C349 C350 1.398 . S
C350 H338 0.950 . S
C350 C349 1.398 . S
C350 C351 1.391 . S
C351 H339 0.950 . S
C351 C347 1.393 . S
C351 C350 1.391 . S
H352 C360 0.950 . S
H353 C365 0.950 . S
H354 C362 0.950 . S
H355 C364 0.950 . S
H356 C366 0.950 . S
H357 C368 0.950 . S
H358 C370 0.950 . S
H359 C371 0.950 . S
C360 H352 0.950 . S
C360 C361 1.386 . S
C360 C362 1.391 . S
C361 C360 1.386 . S
C361 C365 1.393 . S
C362 H354 0.950 . S
C362 C360 1.391 . S
C362 C363 1.400 . S
C363 C362 1.400 . S
C363 C364 1.398 . S
C363 C369 1.491 . S
C364 H355 0.950 . S
C364 C363 1.398 . S
C364 C365 1.391 . S
C365 H353 0.950 . S
C365 C361 1.393 . S
C365 C364 1.391 . S
C366 H356 0.950 . S
C366 C367 1.386 . S
C366 C368 1.391 . S
C367 C366 1.386 . S
C367 C371 1.393 . S
C368 H357 0.950 . S
C368 C366 1.391 . S
C368 C369 1.400 . S
C369 C363 1.491 . S
C369 C368 1.400 . S
C369 C370 1.398 . S
C370 H358 0.950 . S
C370 C369 1.398 . S
C370 C371 1.391 . S
C371 H359 0.950 . S
C371 C367 1.393 . S
C371 C370 1.391 . S
H372 C380 0.950 . S
H373 C385 0.950 . S
H374 C382 0.950 . S
H375 C384 0.950 . S
H376 C386 0.950 . S
H377 C388 0.950 . S
H378 C390 0.950 . S
H379 C391 0.950 . S
C380 H372 0.950 . S
C380 C381 1.386 . S
C380 C382 1.391 . S
C381 C380 1.386 . S
C381 C385 1.393 . S
C382 H374 0.950 . S
C382 C380 1.391 . S
C382 C383 1.400 . S
C383 C382 1.400 . S
C383 C384 1.398 . S
C383 C389 1.491 . S
C384 H375 0.950 . S
C384 C383 1.398 . S
C384 C385 1.391 . S
C385 H373 0.950 . S
C385 C381 1.393 . S
C385 C384 1.391 . S
C386 H376 0.950 . S
C386 C387 1.386 . S
C386 C388 1.391 . S
C387 C386 1.386 . S
C387 C391 1.393 . S
C388 H377 0.950 . S
C388 C386 1.391 . S
C388 C389 1.400 . S
C389 C383 1.491 . S
C389 C388 1.400 . S
C389 C390 1.398 . S
C390 H378 0.950 . S
C390 C389 1.398 . S
C390 C391 1.391 . S
C391 H379 0.950 . S
C391 C387 1.393 . S
C391 C390 1.391 . S
H392 C400 0.950 . S
H393 C405 0.950 . S
H394 C402 0.950 . S
H395 C404 0.950 . S
H396 C406 0.950 . S
H397 C408 0.950 1_554 S
H398 C410 0.950 . S
H399 C411 0.950 . S
C400 H392 0.950 . S
C400 C401 1.386 . S
C400 C402 1.391 . S
C401 C400 1.386 . S
C401 C405 1.393 1_565 S
C402 H394 0.950 . S
C402 C400 1.391 . S
C402 C403 1.400 . S
C403 C402 1.400 . S
C403 C404 1.398 1_565 S
C403 C409 1.491 . S
C404 H395 0.950 . S
C404 C403 1.398 1_545 S
C404 C405 1.391 . S
C405 H393 0.950 . S
C405 C401 1.393 1_545 S
C405 C404 1.391 . S
C406 H396 0.950 . S
C406 C407 1.386 1_545 S
C406 C408 1.391 . S
C407 C406 1.386 1_565 S
C407 C411 1.393 . S
C408 H397 0.950 1_556 S
C408 C406 1.391 . S
C408 C409 1.400 1_546 S
C409 C403 1.491 . S
C409 C408 1.400 1_564 S
C409 C410 1.398 1_554 S
C410 H398 0.950 . S
C410 C409 1.398 1_556 S
C410 C411 1.391 . S
C411 H399 0.950 . S
C411 C407 1.393 . S
C411 C410 1.391 . S
H412 C420 0.950 . S
H413 C425 0.950 . S
H414 C422 0.950 . S
H415 C424 0.950 . S
H416 C426 0.950 . S
H417 C428 0.950 . S
H418 C430 0.950 . S
H419 C431 0.950 . S
C420 H412 0.950 . S
C420 C421 1.386 . S
C420 C422 1.391 . S
C421 C420 1.386 . S
C421 C425 1.393 . S
C422 H414 0.950 . S
C422 C420 1.391 . S
C422 C423 1.400 . S
C423 C422 1.400 . S
C423 C424 1.398 . S
C423 C429 1.491 1_554 S
C424 H415 0.950 . S
C424 C423 1.398 . S
C424 C425 1.391 . S
C425 H413 0.950 . S
C425 C421 1.393 . S
C425 C424 1.391 . S
C426 H416 0.950 . S
C426 C427 1.386 . S
C426 C428 1.391 . S
C427 C426 1.386 . S
C427 C431 1.393 . S
C428 H417 0.950 . S
C428 C426 1.391 . S
C428 C429 1.400 . S
C429 C423 1.491 1_556 S
C429 C428 1.400 . S
C429 C430 1.398 . S
C430 H418 0.950 . S
C430 C429 1.398 . S
C430 C431 1.391 . S
C431 H419 0.950 . S
C431 C427 1.393 . S
C431 C430 1.391 . S
H432 C440 0.950 . S
H433 C445 0.950 . S
H434 C442 0.950 1_556 S
H435 C444 0.950 . S
H436 C446 0.950 . S
H437 C448 0.950 1_554 S
H438 C450 0.950 . S
H439 C451 0.950 . S
C440 H432 0.950 . S
C440 C441 1.386 . S
C440 C442 1.391 . S
C441 C440 1.386 . S
C441 C445 1.393 . S
C442 H434 0.950 1_554 S
C442 C440 1.391 . S
C442 C443 1.400 . S
C443 C442 1.400 . S
C443 C444 1.398 . S
C443 C449 1.491 1_554 S
C444 H435 0.950 . S
C444 C443 1.398 . S
C444 C445 1.391 . S
C445 H433 0.950 . S
C445 C441 1.393 . S
C445 C444 1.391 . S
C446 H436 0.950 . S
C446 C447 1.386 . S
C446 C448 1.391 . S
C447 C446 1.386 . S
C447 C451 1.393 . S
C448 H437 0.950 1_556 S
C448 C446 1.391 . S
C448 C449 1.400 . S
C449 C443 1.491 1_556 S
C449 C448 1.400 . S
C449 C450 1.398 . S
C450 H438 0.950 . S
C450 C449 1.398 . S
C450 C451 1.391 . S
C451 H439 0.950 . S
C451 C447 1.393 . S
C451 C450 1.391 . S
H452 C460 0.950 . S
H453 C465 0.950 . S
H454 C462 0.950 . S
H455 C464 0.950 1_556 S
H456 C466 0.950 . S
H457 C468 0.950 . S
H458 C470 0.950 . S
H459 C471 0.948 1_455 S
C460 H452 0.950 . S
C460 C461 1.386 . S
C460 C462 1.391 . S
C461 C460 1.386 . S
C461 C465 1.393 . S
C462 H454 0.950 . S
C462 C460 1.391 . S
C462 C463 1.400 . S
C463 C462 1.400 . S
C463 C464 1.398 . S
C463 C469 1.491 1_554 S
C464 H455 0.950 1_554 S
C464 C463 1.398 . S
C464 C465 1.391 . S
C465 H453 0.950 . S
C465 C461 1.393 . S
C465 C464 1.391 . S
C466 H456 0.950 . S
C466 C467 1.386 . S
C466 C468 1.391 . S
C467 C466 1.386 . S
C467 C471 1.393 . S
C468 H457 0.950 . S
C468 C466 1.391 . S
C468 C469 1.400 . S
C469 C463 1.491 1_556 S
C469 C468 1.400 . S
C469 C470 1.398 1_556 S
C470 H458 0.950 . S
C470 C469 1.398 1_554 S
C470 C471 1.391 1_554 S
C471 H459 0.948 1_655 S
C471 C467 1.393 . S
C471 C470 1.391 1_556 S
H472 C480 0.950 . S
H473 C485 0.950 . S
H474 C482 0.950 . S
H475 C484 0.950 . S
H476 C486 0.950 . S
H477 C488 0.950 . S
H478 C490 0.950 . S
H479 C491 0.950 . S
C480 H472 0.950 . S
C480 C481 1.386 . S
C480 C482 1.391 . S
C481 C480 1.386 . S
C481 C485 1.393 . S
C482 H474 0.950 . S
C482 C480 1.391 . S
C482 C483 1.400 . S
C483 C482 1.400 . S
C483 C484 1.398 . S
C483 C489 1.491 . S
C484 H475 0.950 . S
C484 C483 1.398 . S
C484 C485 1.391 . S
C485 H473 0.950 . S
C485 C481 1.393 . S
C485 C484 1.391 . S
C486 H476 0.950 . S
C486 C487 1.386 . S
C486 C488 1.391 . S
C487 C486 1.386 . S
C487 C491 1.393 . S
C488 H477 0.950 . S
C488 C486 1.391 . S
C488 C489 1.400 . S
C489 C483 1.491 . S
C489 C488 1.400 . S
C489 C490 1.398 . S
C490 H478 0.950 . S
C490 C489 1.398 . S
C490 C491 1.391 . S
C491 H479 0.950 . S
C491 C487 1.393 . S
C491 C490 1.391 . S
H492 C500 0.950 . S
H493 C505 0.950 . S
H494 C502 0.950 . S
H495 C504 0.950 1_565 S
H496 C506 0.950 . S
H497 C508 0.950 . S
H498 C510 0.950 . S
H499 C511 0.950 . S
C500 H492 0.950 . S
C500 C501 1.386 . S
C500 C502 1.391 . S
C501 C500 1.386 . S
C501 C505 1.393 . S
C502 H494 0.950 . S
C502 C500 1.391 . S
C502 C503 1.400 . S
C503 C502 1.400 . S
C503 C504 1.398 . S
C503 C509 1.491 . S
C504 H495 0.950 1_545 S
C504 C503 1.398 . S
C504 C505 1.391 . S
C505 H493 0.950 . S
C505 C501 1.393 . S
C505 C504 1.391 . S
C506 H496 0.950 . S
C506 C507 1.387 . S
C506 C508 1.391 . S
C507 C506 1.387 . S
C507 C511 1.390 1_565 S
C508 H497 0.950 . S
C508 C506 1.391 . S
C508 C509 1.400 1_565 S
C509 C503 1.491 . S
C509 C508 1.400 1_545 S
C509 C510 1.398 . S
C510 H498 0.950 . S
C510 C509 1.398 . S
C510 C511 1.391 . S
C511 H499 0.950 . S
C511 C507 1.390 1_545 S
C511 C510 1.391 . S
H512 C520 0.950 . S
H513 C525 0.950 . S
H514 C522 0.950 . S
H515 C524 0.950 . S
H516 C526 0.950 . S
H517 C528 0.950 . S
H518 C530 0.950 . S
H519 C531 0.950 . S
C520 H512 0.950 . S
C520 C521 1.386 . S
C520 C522 1.391 . S
C521 C520 1.386 . S
C521 C525 1.393 . S
C522 H514 0.950 . S
C522 C520 1.391 . S
C522 C523 1.400 . S
C523 C522 1.400 . S
C523 C524 1.398 . S
C523 C529 1.491 . S
C524 H515 0.950 . S
C524 C523 1.398 . S
C524 C525 1.391 . S
C525 H513 0.950 . S
C525 C521 1.393 . S
C525 C524 1.391 . S
C526 H516 0.950 . S
C526 C527 1.386 . S
C526 C528 1.391 . S
C527 C526 1.386 . S
C527 C531 1.393 . S
C528 H517 0.950 . S
C528 C526 1.391 . S
C528 C529 1.400 . S
C529 C523 1.491 . S
C529 C528 1.400 . S
C529 C530 1.398 . S
C530 H518 0.950 . S
C530 C529 1.398 . S
C530 C531 1.391 . S
C531 H519 0.950 . S
C531 C527 1.393 . S
C531 C530 1.391 . S
H532 C540 0.950 . S
H533 C545 0.950 . S
H534 C542 0.950 . S
H535 C544 0.950 . S
H536 C546 0.950 . S
H537 C548 0.950 . S
H538 C550 0.950 . S
H539 C551 0.950 . S
C540 H532 0.950 . S
C540 C541 1.386 . S
C540 C542 1.391 . S
C541 C540 1.386 . S
C541 C545 1.393 . S
C542 H534 0.950 . S
C542 C540 1.391 . S
C542 C543 1.400 . S
C543 C542 1.400 . S
C543 C544 1.398 . S
C543 C549 1.491 . S
C544 H535 0.950 . S
C544 C543 1.398 . S
C544 C545 1.391 . S
C545 H533 0.950 . S
C545 C541 1.393 . S
C545 C544 1.391 . S
C546 H536 0.950 . S
C546 C547 1.386 . S
C546 C548 1.391 . S
C547 C546 1.386 . S
C547 C551 1.393 . S
C548 H537 0.950 . S
C548 C546 1.391 . S
C548 C549 1.400 . S
C549 C543 1.491 . S
C549 C548 1.400 . S
C549 C550 1.398 . S
C550 H538 0.950 . S
C550 C549 1.398 . S
C550 C551 1.391 . S
C551 H539 0.950 . S
C551 C547 1.393 . S
C551 C550 1.391 . S
H552 C560 0.950 . S
H553 C565 0.950 . S
H554 C562 0.950 . S
H555 C564 0.950 1_455 S
H556 C566 0.950 . S
H557 C568 0.950 . S
H558 C570 0.950 . S
H559 C571 0.950 . S
C560 H552 0.950 . S
C560 C561 1.386 . S
C560 C562 1.391 . S
C561 C560 1.386 . S
C561 C565 1.393 . S
C562 H554 0.950 . S
C562 C560 1.391 . S
C562 C563 1.400 . S
C563 C562 1.400 . S
C563 C564 1.398 . S
C563 C569 1.491 . S
C564 H555 0.950 1_655 S
C564 C563 1.398 . S
C564 C565 1.391 . S
C565 H553 0.950 . S
C565 C561 1.393 . S
C565 C564 1.391 . S
C566 H556 0.950 . S
C566 C567 1.386 . S
C566 C568 1.391 . S
C567 C566 1.386 . S
C567 C571 1.393 1_455 S
C568 H557 0.950 . S
C568 C566 1.391 . S
C568 C569 1.400 1_455 S
C569 C563 1.491 . S
C569 C568 1.400 1_655 S
C569 C570 1.398 . S
C570 H558 0.950 . S
C570 C569 1.398 . S
C570 C571 1.391 . S
C571 H559 0.950 . S
C571 C567 1.393 1_655 S
C571 C570 1.391 . S
H572 C580 0.950 . S
H573 C585 0.950 . S
H574 C582 0.950 . S
H575 C584 0.950 1_545 S
H576 C586 0.950 . S
H577 C588 0.950 . S
H578 C590 0.950 . S
H579 C591 0.950 . S
C580 H572 0.950 . S
C580 C581 1.386 . S
C580 C582 1.391 . S
C581 C580 1.386 . S
C581 C585 1.393 . S
C582 H574 0.950 . S
C582 C580 1.391 . S
C582 C583 1.400 . S
C583 C582 1.400 . S
C583 C584 1.398 . S
C583 C589 1.491 1_565 S
C584 H575 0.950 1_565 S
C584 C583 1.398 . S
C584 C585 1.391 . S
C585 H573 0.950 . S
C585 C581 1.393 . S
C585 C584 1.391 . S
C586 H576 0.950 . S
C586 C587 1.386 1_556 S
C586 C588 1.391 1_556 S
C587 C586 1.386 1_554 S
C587 C591 1.393 . S
C588 H577 0.950 . S
C588 C586 1.391 1_554 S
C588 C589 1.400 . S
C589 C583 1.491 1_545 S
C589 C588 1.400 . S
C589 C590 1.398 . S
C590 H578 0.950 . S
C590 C589 1.398 . S
C590 C591 1.391 . S
C591 H579 0.950 . S
C591 C587 1.393 . S
C591 C590 1.391 . S
H592 C600 0.950 . S
H593 C605 0.950 . S
H594 C602 0.950 . S
H595 C604 0.950 . S
H596 C606 0.950 . S
H597 C608 0.950 . S
H598 C610 0.950 . S
H599 C611 0.950 . S
C600 H592 0.950 . S
C600 C601 1.386 . S
C600 C602 1.391 . S
C601 C600 1.386 . S
C601 C605 1.393 . S
C602 H594 0.950 . S
C602 C600 1.391 . S
C602 C603 1.400 . S
C603 C602 1.400 . S
C603 C604 1.398 . S
C603 C609 1.491 . S
C604 H595 0.950 . S
C604 C603 1.398 . S
C604 C605 1.391 . S
C605 H593 0.950 . S
C605 C601 1.393 . S
C605 C604 1.391 . S
C606 H596 0.950 . S
C606 C607 1.386 1_554 S
C606 C608 1.391 . S
C607 C606 1.386 1_556 S
C607 C611 1.393 . S
C608 H597 0.950 . S
C608 C606 1.391 . S
C608 C609 1.400 . S
C609 C603 1.491 . S
C609 C608 1.400 . S
C609 C610 1.398 . S
C610 H598 0.950 . S
C610 C609 1.398 . S
C610 C611 1.391 1_554 S
C611 H599 0.950 . S
C611 C607 1.393 . S
C611 C610 1.391 1_556 S
H612 C620 0.950 . S
H613 C625 0.950 . S
H614 C622 0.950 . S
H615 C624 0.950 . S
H616 C626 0.950 1_556 S
H617 C628 0.950 . S
H618 C630 0.950 . S
H619 C631 0.950 . S
C620 H612 0.950 . S
C620 C621 1.386 . S
C620 C622 1.391 . S
C621 C620 1.386 . S
C621 C625 1.393 . S
C622 H614 0.950 . S
C622 C620 1.391 . S
C622 C623 1.400 . S
C623 C622 1.400 . S
C623 C624 1.398 . S
C623 C629 1.491 . S
C624 H615 0.950 . S
C624 C623 1.398 . S
C624 C625 1.391 . S
C625 H613 0.950 . S
C625 C621 1.393 . S
C625 C624 1.391 . S
C626 H616 0.950 1_554 S
C626 C627 1.386 . S
C626 C628 1.391 . S
C627 C626 1.386 . S
C627 C631 1.393 . S
C628 H617 0.950 . S
C628 C626 1.391 . S
C628 C629 1.400 . S
C629 C623 1.491 . S
C629 C628 1.400 . S
C629 C630 1.398 . S
C630 H618 0.950 . S
C630 C629 1.398 . S
C630 C631 1.391 . S
C631 H619 0.950 . S
C631 C627 1.393 . S
C631 C630 1.391 . S
H632 C640 0.950 . S
H633 C645 0.950 . S
H634 C642 0.950 . S
H635 C644 0.950 . S
H636 C646 0.933 1_655 S
H637 C648 0.950 . S
H638 C650 0.950 . S
H639 C651 0.950 . S
C640 H632 0.950 . S
C640 C641 1.386 . S
C640 C642 1.391 . S
C641 C640 1.386 . S
C641 C645 1.393 . S
C642 H634 0.950 . S
C642 C640 1.391 . S
C642 C643 1.400 . S
C643 C642 1.400 . S
C643 C644 1.398 . S
C643 C649 1.491 . S
C644 H635 0.950 . S
C644 C643 1.398 . S
C644 C645 1.391 . S
C645 H633 0.950 . S
C645 C641 1.393 . S
C645 C644 1.391 . S
C646 H636 0.933 1_455 S
C646 C647 1.386 . S
C646 C648 1.391 . S
C647 C646 1.386 . S
C647 C651 1.393 . S
C648 H637 0.950 . S
C648 C646 1.391 . S
C648 C649 1.400 . S
C649 C643 1.491 . S
C649 C648 1.400 . S
C649 C650 1.398 . S
C650 H638 0.950 . S
C650 C649 1.398 . S
C650 C651 1.391 . S
C651 H639 0.950 . S
C651 C647 1.393 . S
C651 C650 1.391 . S
H652 C660 0.950 . S
H653 C665 0.950 . S
H654 C662 0.950 . S
H655 C664 0.950 . S
H656 C666 0.950 . S
H657 C668 0.950 . S
H658 C670 0.950 . S
H659 C671 0.950 . S
C660 H652 0.950 . S
C660 C661 1.386 . S
C660 C662 1.391 . S
C661 C660 1.386 . S
C661 C665 1.393 . S
C662 H654 0.950 . S
C662 C660 1.391 . S
C662 C663 1.400 . S
C663 C662 1.400 . S
C663 C664 1.398 . S
C663 C669 1.491 . S
C664 H655 0.950 . S
C664 C663 1.398 . S
C664 C665 1.391 . S
C665 H653 0.950 . S
C665 C661 1.393 . S
C665 C664 1.391 . S
C666 H656 0.950 . S
C666 C667 1.386 . S
C666 C668 1.391 . S
C667 C666 1.386 . S
C667 C671 1.393 . S
C668 H657 0.950 . S
C668 C666 1.391 . S
C668 C669 1.400 . S
C669 C663 1.491 . S
C669 C668 1.400 . S
C669 C670 1.398 . S
C670 H658 0.950 . S
C670 C669 1.398 . S
C670 C671 1.391 . S
C671 H659 0.950 . S
C671 C667 1.393 . S
C671 C670 1.391 . S
H672 C680 0.950 . S
H673 C685 0.950 . S
H674 C682 0.950 . S
H675 C684 0.950 . S
H676 C686 0.950 . S
H677 C688 0.950 . S
H678 C690 0.950 . S
H679 C691 0.950 . S
C680 H672 0.950 . S
C680 C681 1.386 . S
C680 C682 1.391 . S
C681 C680 1.386 . S
C681 C685 1.393 . S
C682 H674 0.950 . S
C682 C680 1.391 . S
C682 C683 1.400 . S
C683 C682 1.400 . S
C683 C684 1.398 . S
C683 C689 1.491 . S
C684 H675 0.950 . S
C684 C683 1.398 . S
C684 C685 1.391 . S
C685 H673 0.950 . S
C685 C681 1.393 . S
C685 C684 1.391 . S
C686 H676 0.950 . S
C686 C687 1.386 . S
C686 C688 1.391 . S
C687 C686 1.386 . S
C687 C691 1.393 . S
C688 H677 0.950 . S
C688 C686 1.391 . S
C688 C689 1.400 . S
C689 C683 1.491 . S
C689 C688 1.400 . S
C689 C690 1.398 . S
C690 H678 0.950 . S
C690 C689 1.398 . S
C690 C691 1.391 . S
C691 H679 0.950 . S
C691 C687 1.393 . S
C691 C690 1.391 . S
H692 C700 0.950 . S
H693 C705 0.950 . S
H694 C702 0.950 . S
H695 C704 0.950 . S
H696 C706 0.950 . S
H697 C708 0.950 . S
H698 C710 0.950 . S
H699 C711 0.950 . S
C700 H692 0.950 . S
C700 C701 1.386 . S
C700 C702 1.391 . S
C701 C700 1.386 . S
C701 C705 1.393 . S
C702 H694 0.950 . S
C702 C700 1.391 . S
C702 C703 1.400 . S
C703 C702 1.400 . S
C703 C704 1.398 . S
C703 C709 1.491 . S
C704 H695 0.950 . S
C704 C703 1.398 . S
C704 C705 1.391 . S
C705 H693 0.950 . S
C705 C701 1.393 . S
C705 C704 1.391 . S
C706 H696 0.950 . S
C706 C707 1.386 . S
C706 C708 1.391 . S
C707 C706 1.386 . S
C707 C711 1.393 . S
C708 H697 0.950 . S
C708 C706 1.391 . S
C708 C709 1.400 . S
C709 C703 1.491 . S
C709 C708 1.400 . S
C709 C710 1.398 . S
C710 H698 0.950 . S
C710 C709 1.398 . S
C710 C711 1.391 . S
C711 H699 0.950 . S
C711 C707 1.393 . S
C711 C710 1.391 . S
H712 C720 0.950 . S
H713 C725 0.950 1_455 S
H714 C722 0.950 . S
H715 C724 0.950 1_455 S
H716 C726 0.950 . S
H717 C728 0.950 . S
H718 C730 0.950 . S
H719 C731 0.950 . S
C720 H712 0.950 . S
C720 C721 1.386 . S
C720 C722 1.391 . S
C721 C720 1.386 . S
C721 C725 1.393 . S
C722 H714 0.950 . S
C722 C720 1.391 . S
C722 C723 1.400 . S
C723 C722 1.400 . S
C723 C724 1.398 . S
C723 C729 1.491 . S
C724 H715 0.950 1_655 S
C724 C723 1.398 . S
C724 C725 1.391 . S
C725 H713 0.950 1_655 S
C725 C721 1.393 . S
C725 C724 1.391 . S
C726 H716 0.950 . S
C726 C727 1.386 1_455 S
C726 C728 1.391 . S
C727 C726 1.386 1_655 S
C727 C731 1.393 . S
C728 H717 0.950 . S
C728 C726 1.391 . S
C728 C729 1.400 1_455 S
C729 C723 1.491 . S
C729 C728 1.400 1_655 S
C729 C730 1.398 . S
C730 H718 0.950 . S
C730 C729 1.398 . S
C730 C731 1.391 . S
C731 H719 0.950 . S
C731 C727 1.393 . S
C731 C730 1.391 . S
H732 C740 0.950 . S
H733 C745 0.950 . S
H734 C742 0.950 . S
H735 C744 0.950 . S
H736 C746 0.950 . S
H737 C748 0.950 . S
H738 C750 0.950 . S
H739 C751 0.950 . S
C740 H732 0.950 . S
C740 C741 1.386 . S
C740 C742 1.391 . S
C741 C740 1.386 . S
C741 C745 1.393 1_565 S
C742 H734 0.950 . S
C742 C740 1.391 . S
C742 C743 1.400 . S
C743 C742 1.400 . S
C743 C744 1.398 1_565 S
C743 C749 1.491 . S
C744 H735 0.950 . S
C744 C743 1.398 1_545 S
C744 C745 1.391 . S
C745 H733 0.950 . S
C745 C741 1.393 1_545 S
C745 C744 1.391 . S
C746 H736 0.950 . S
C746 C747 1.386 1_545 S
C746 C748 1.391 . S
C747 C746 1.386 1_565 S
C747 C751 1.393 . S
C748 H737 0.950 . S
C748 C746 1.391 . S
C748 C749 1.400 1_545 S
C749 C743 1.491 . S
C749 C748 1.400 1_565 S
C749 C750 1.398 . S
C750 H738 0.950 . S
C750 C749 1.398 . S
C750 C751 1.391 . S
C751 H739 0.950 . S
C751 C747 1.393 . S
C751 C750 1.391 . S
H752 C760 0.950 . S
H753 C765 0.950 . S
H754 C762 0.950 . S
H755 C764 0.950 . S
H756 C766 0.950 . S
H757 C768 0.950 . S
H758 C770 0.950 . S
H759 C771 0.950 . S
C760 H752 0.950 . S
C760 C761 1.386 . S
C760 C762 1.391 . S
C761 C760 1.386 . S
C761 C765 1.393 . S
C762 H754 0.950 . S
C762 C760 1.391 . S
C762 C763 1.400 . S
C763 C762 1.400 . S
C763 C764 1.398 . S
C763 C769 1.491 . S
C764 H755 0.950 . S
C764 C763 1.398 . S
C764 C765 1.391 . S
C765 H753 0.950 . S
C765 C761 1.393 . S
C765 C764 1.391 . S
C766 H756 0.950 . S
C766 C767 1.386 . S
C766 C768 1.391 . S
C767 C766 1.386 . S
C767 C771 1.393 . S
C768 H757 0.950 . S
C768 C766 1.391 . S
C768 C769 1.400 . S
C769 C763 1.491 . S
C769 C768 1.400 . S
C769 C770 1.398 . S
C770 H758 0.950 . S
C770 C769 1.398 . S
C770 C771 1.391 . S
C771 H759 0.950 . S
C771 C767 1.393 . S
C771 C770 1.391 . S
H772 C780 0.950 . S
H773 C785 0.950 . S
H774 C782 0.950 . S
H775 C784 0.950 . S
H776 C786 0.950 . S
H777 C788 0.950 . S
H778 C790 0.950 . S
H779 C791 0.950 . S
C780 H772 0.950 . S
C780 C781 1.386 . S
C780 C782 1.391 . S
C781 C780 1.386 . S
C781 C785 1.393 . S
C782 H774 0.950 . S
C782 C780 1.391 . S
C782 C783 1.400 . S
C783 C782 1.400 . S
C783 C784 1.398 . S
C783 C789 1.491 . S
C784 H775 0.950 . S
C784 C783 1.398 . S
C784 C785 1.391 . S
C785 H773 0.950 . S
C785 C781 1.393 . S
C785 C784 1.391 . S
C786 H776 0.950 . S
C786 C787 1.386 . S
C786 C788 1.391 . S
C787 C786 1.386 . S
C787 C791 1.393 . S
C788 H777 0.950 . S
C788 C786 1.391 . S
C788 C789 1.400 . S
C789 C783 1.491 . S
C789 C788 1.400 . S
C789 C790 1.398 . S
C790 H778 0.950 . S
C790 C789 1.398 . S
C790 C791 1.391 . S
C791 H779 0.950 . S
C791 C787 1.393 . S
C791 C790 1.391 . S
C321 C125 2.254 . S
C327 C183 2.330 . S
C347 C209 1.854 . S
C341 C144 1.847 . S
C367 C249 1.937 . S
C361 C87 1.872 . S
C387 C303 2.381 . S
C381 C106 2.277 . S
C407 C164 2.321 1_565 S
C401 C49 2.313 . S
C421 C68 1.798 . S
C427 C194 1.859 . S
C441 C11 1.922 . S
C447 C234 1.943 . S
C461 C30 2.360 . S
C467 C284 2.379 1_655 S
C487 C160 0.593 . S
C481 C97 0.632 . S
C507 C221 0.682 . S
C501 C116 0.711 . S
C527 C261 0.597 . S
C521 C135 0.602 . S
C541 C78 0.563 . S
C547 C280 0.516 . S
C561 C21 0.585 . S
C567 C181 0.571 . S
C587 C200 0.686 1_554 S
C581 C40 0.685 . S
C607 C240 0.582 . S
C601 C59 0.615 . S
C621 C2 0.547 . S
C627 C301 0.505 . S
C641 C101 1.919 . S
C647 C154 2.135 . S
C661 C120 2.399 . S
C667 C204 2.600 . S
C687 C244 2.362 . S
C681 C139 2.197 . S
C707 C274 1.880 . S
C701 C82 1.726 . S
C721 C25 1.950 . S
C727 C169 2.136 . S
C747 C223 2.605 . S
C741 C44 2.414 . S
C767 C263 2.362 . S
C761 C63 2.192 . S
C781 C6 1.703 . S
C787 C289 1.874 . S
