# Generated by pormake.
# Topology eea, (3,6)-cn, num edge types: 1
# Building blocks:
#     Node 0, Type 0, BuildingBlock: BETDAH_clean_linker_0, # of connection points: 3
#     Node 1, Type 0, BuildingBlock: BETDAH_clean_linker_0, # of connection points: 3
#     Node 2, Type 0, BuildingBlock: BETDAH_clean_linker_0, # of connection points: 3
#     Node 3, Type 0, BuildingBlock: BETDAH_clean_linker_0, # of connection points: 3
#     Node 4, Type 0, BuildingBlock: BETDAH_clean_linker_0, # of connection points: 3
#     Node 5, Type 0, BuildingBlock: BETDAH_clean_linker_0, # of connection points: 3
#     Node 6, Type 0, BuildingBlock: BETDAH_clean_linker_0, # of connection points: 3
#     Node 7, Type 0, BuildingBlock: BETDAH_clean_linker_0, # of connection points: 3
#     Node 8, Type 0, BuildingBlock: BETDAH_clean_linker_0, # of connection points: 3
#     Node 9, Type 0, BuildingBlock: BETDAH_clean_linker_0, # of connection points: 3
#     Node 10, Type 0, BuildingBlock: BETDAH_clean_linker_0, # of connection points: 3
#     Node 11, Type 0, BuildingBlock: BETDAH_clean_linker_0, # of connection points: 3
#     Node 12, Type 0, BuildingBlock: BETDAH_clean_linker_0, # of connection points: 3
#     Node 13, Type 0, BuildingBlock: BETDAH_clean_linker_0, # of connection points: 3
#     Node 14, Type 0, BuildingBlock: BETDAH_clean_linker_0, # of connection points: 3
#     Node 15, Type 0, BuildingBlock: BETDAH_clean_linker_0, # of connection points: 3
#     Node 16, Type 0, BuildingBlock: BETDAH_clean_linker_0, # of connection points: 3
#     Node 17, Type 0, BuildingBlock: BETDAH_clean_linker_0, # of connection points: 3
#     Node 18, Type 1, BuildingBlock: KUMJIN_clean_sbu_0, # of connection points: 6
#     Node 19, Type 1, BuildingBlock: KUMJIN_clean_sbu_0, # of connection points: 6
#     Node 20, Type 1, BuildingBlock: KUMJIN_clean_sbu_0, # of connection points: 6
#     Node 21, Type 1, BuildingBlock: KUMJIN_clean_sbu_0, # of connection points: 6
#     Node 22, Type 1, BuildingBlock: KUMJIN_clean_sbu_0, # of connection points: 6
#     Node 23, Type 1, BuildingBlock: KUMJIN_clean_sbu_0, # of connection points: 6
#     Node 24, Type 1, BuildingBlock: KUMJIN_clean_sbu_0, # of connection points: 6
#     Node 25, Type 1, BuildingBlock: KUMJIN_clean_sbu_0, # of connection points: 6
#     Node 26, Type 1, BuildingBlock: KUMJIN_clean_sbu_0, # of connection points: 6
#     Edge 27, Type (0, 1), BuildingBlock: KIFKEQ_clean_linker_1, # of connection points: 2
#     Edge 28, Type (0, 1), BuildingBlock: KIFKEQ_clean_linker_1, # of connection points: 2
#     Edge 29, Type (0, 1), BuildingBlock: KIFKEQ_clean_linker_1, # of connection points: 2
#     Edge 30, Type (0, 1), BuildingBlock: KIFKEQ_clean_linker_1, # of connection points: 2
#     Edge 31, Type (0, 1), BuildingBlock: KIFKEQ_clean_linker_1, # of connection points: 2
#     Edge 32, Type (0, 1), BuildingBlock: KIFKEQ_clean_linker_1, # of connection points: 2
#     Edge 33, Type (0, 1), BuildingBlock: KIFKEQ_clean_linker_1, # of connection points: 2
#     Edge 34, Type (0, 1), BuildingBlock: KIFKEQ_clean_linker_1, # of connection points: 2
#     Edge 35, Type (0, 1), BuildingBlock: KIFKEQ_clean_linker_1, # of connection points: 2
#     Edge 36, Type (0, 1), BuildingBlock: KIFKEQ_clean_linker_1, # of connection points: 2
#     Edge 37, Type (0, 1), BuildingBlock: KIFKEQ_clean_linker_1, # of connection points: 2
#     Edge 38, Type (0, 1), BuildingBlock: KIFKEQ_clean_linker_1, # of connection points: 2
#     Edge 39, Type (0, 1), BuildingBlock: KIFKEQ_clean_linker_1, # of connection points: 2
#     Edge 40, Type (0, 1), BuildingBlock: KIFKEQ_clean_linker_1, # of connection points: 2
#     Edge 41, Type (0, 1), BuildingBlock: KIFKEQ_clean_linker_1, # of connection points: 2
#     Edge 42, Type (0, 1), BuildingBlock: KIFKEQ_clean_linker_1, # of connection points: 2
#     Edge 43, Type (0, 1), BuildingBlock: KIFKEQ_clean_linker_1, # of connection points: 2
#     Edge 44, Type (0, 1), BuildingBlock: KIFKEQ_clean_linker_1, # of connection points: 2
#     Edge 45, Type (0, 1), BuildingBlock: KIFKEQ_clean_linker_1, # of connection points: 2
#     Edge 46, Type (0, 1), BuildingBlock: KIFKEQ_clean_linker_1, # of connection points: 2
#     Edge 47, Type (0, 1), BuildingBlock: KIFKEQ_clean_linker_1, # of connection points: 2
#     Edge 48, Type (0, 1), BuildingBlock: KIFKEQ_clean_linker_1, # of connection points: 2
#     Edge 49, Type (0, 1), BuildingBlock: KIFKEQ_clean_linker_1, # of connection points: 2
#     Edge 50, Type (0, 1), BuildingBlock: KIFKEQ_clean_linker_1, # of connection points: 2
#     Edge 51, Type (0, 1), BuildingBlock: KIFKEQ_clean_linker_1, # of connection points: 2
#     Edge 52, Type (0, 1), BuildingBlock: KIFKEQ_clean_linker_1, # of connection points: 2
#     Edge 53, Type (0, 1), BuildingBlock: KIFKEQ_clean_linker_1, # of connection points: 2
#     Edge 54, Type (0, 1), BuildingBlock: KIFKEQ_clean_linker_1, # of connection points: 2
#     Edge 55, Type (0, 1), BuildingBlock: KIFKEQ_clean_linker_1, # of connection points: 2
#     Edge 56, Type (0, 1), BuildingBlock: KIFKEQ_clean_linker_1, # of connection points: 2
#     Edge 57, Type (0, 1), BuildingBlock: KIFKEQ_clean_linker_1, # of connection points: 2
#     Edge 58, Type (0, 1), BuildingBlock: KIFKEQ_clean_linker_1, # of connection points: 2
#     Edge 59, Type (0, 1), BuildingBlock: KIFKEQ_clean_linker_1, # of connection points: 2
#     Edge 60, Type (0, 1), BuildingBlock: KIFKEQ_clean_linker_1, # of connection points: 2
#     Edge 61, Type (0, 1), BuildingBlock: KIFKEQ_clean_linker_1, # of connection points: 2
#     Edge 62, Type (0, 1), BuildingBlock: KIFKEQ_clean_linker_1, # of connection points: 2
#     Edge 63, Type (0, 1), BuildingBlock: KIFKEQ_clean_linker_1, # of connection points: 2
#     Edge 64, Type (0, 1), BuildingBlock: KIFKEQ_clean_linker_1, # of connection points: 2
#     Edge 65, Type (0, 1), BuildingBlock: KIFKEQ_clean_linker_1, # of connection points: 2
#     Edge 66, Type (0, 1), BuildingBlock: KIFKEQ_clean_linker_1, # of connection points: 2
#     Edge 67, Type (0, 1), BuildingBlock: KIFKEQ_clean_linker_1, # of connection points: 2
#     Edge 68, Type (0, 1), BuildingBlock: KIFKEQ_clean_linker_1, # of connection points: 2
#     Edge 69, Type (0, 1), BuildingBlock: KIFKEQ_clean_linker_1, # of connection points: 2
#     Edge 70, Type (0, 1), BuildingBlock: KIFKEQ_clean_linker_1, # of connection points: 2
#     Edge 71, Type (0, 1), BuildingBlock: KIFKEQ_clean_linker_1, # of connection points: 2
#     Edge 72, Type (0, 1), BuildingBlock: KIFKEQ_clean_linker_1, # of connection points: 2
#     Edge 73, Type (0, 1), BuildingBlock: KIFKEQ_clean_linker_1, # of connection points: 2
#     Edge 74, Type (0, 1), BuildingBlock: KIFKEQ_clean_linker_1, # of connection points: 2
#     Edge 75, Type (0, 1), BuildingBlock: KIFKEQ_clean_linker_1, # of connection points: 2
#     Edge 76, Type (0, 1), BuildingBlock: KIFKEQ_clean_linker_1, # of connection points: 2
#     Edge 77, Type (0, 1), BuildingBlock: KIFKEQ_clean_linker_1, # of connection points: 2
#     Edge 78, Type (0, 1), BuildingBlock: KIFKEQ_clean_linker_1, # of connection points: 2
#     Edge 79, Type (0, 1), BuildingBlock: KIFKEQ_clean_linker_1, # of connection points: 2
#     Edge 80, Type (0, 1), BuildingBlock: KIFKEQ_clean_linker_1, # of connection points: 2
# Relax obj value: 0.023
# Max RMSD: 0.163
# Mean RMSD: 0.118
data_MOF--net-eea--node1-KUMJIN_clean_sbu_0--node2-BETDAH_clean_linker_0--edge1-KIFKEQ_clean_linker_1
_symmetry_space_group_name_H-M    P1
_symmetry_Int_Tables_number       1
_symmetry_cell_setting            triclinic
loop_
_symmetry_equiv_pos_as_xyz
'x, y, z'
_cell_length_a     55.652388
_cell_length_b     56.973502
_cell_length_c     67.245235
_cell_angle_alpha  90.03436
_cell_angle_beta   89.997135
_cell_angle_gamma 119.95494
loop_
_atom_site_label
_atom_site_type_symbol
_atom_site_fract_x
_atom_site_fract_y
_atom_site_fract_z
_atom_type_partial_charge
H0 H 0.24803 0.07222 0.44156 0.0
H1 H 0.26305 0.15278 0.4285 0.0
H2 H 0.24274 0.09468 0.38164 0.0
C3 C 0.24863 0.08712 0.43126 0.0
C4 C 0.24346 0.08018 0.41109 0.0
C5 C 0.25635 0.11348 0.43786 0.0
C6 C 0.25742 0.13247 0.42386 0.0
C7 C 0.25249 0.12558 0.40358 0.0
C8 C 0.24613 0.09972 0.39732 0.0
N9 N 0.25587 0.14476 0.38886 0.0
C10 C 0.24601 0.16277 0.39054 0.0
H11 H 0.95095 0.1804 0.43977 0.0
H12 H 0.87255 0.10769 0.4286 0.0
H13 H 0.93235 0.14381 0.38182 0.0
C14 C 0.9368 0.16439 0.4299 0.0
C15 C 0.9447 0.16455 0.41001 0.0
C16 C 0.91056 0.14419 0.4369 0.0
C17 C 0.89292 0.12319 0.42376 0.0
C18 C 0.90097 0.12299 0.40394 0.0
C19 C 0.92649 0.14391 0.39719 0.0
N20 N 0.8837 0.10283 0.39 0.0
C21 C 0.8613 0.07747 0.39454 0.0
H22 H 0.83452 0.7708 0.43849 0.0
H23 H 0.91462 0.77762 0.4294 0.0
H24 H 0.87984 0.80621 0.38476 0.0
C25 C 0.85286 0.77709 0.42943 0.0
C26 C 0.85467 0.78921 0.4109 0.0
C27 C 0.87415 0.77248 0.43621 0.0
C28 C 0.89815 0.78105 0.42436 0.0
C29 C 0.90014 0.79322 0.40566 0.0
C30 C 0.87826 0.79691 0.39913 0.0
N31 N 0.9232 0.80186 0.39255 0.0
C32 C 0.94765 0.80103 0.39526 0.0
H33 H 0.07071 0.23362 0.59798 0.0
H34 H 0.14786 0.23566 0.61051 0.0
H35 H 0.08547 0.21061 0.6556 0.0
C36 C 0.08415 0.23094 0.60822 0.0
C37 C 0.07456 0.22159 0.62764 0.0
C38 C 0.11072 0.23656 0.60175 0.0
C39 C 0.12732 0.23126 0.61493 0.0
C40 C 0.11783 0.22141 0.63424 0.0
C41 C 0.09187 0.21712 0.64043 0.0
N42 N 0.1339 0.2166 0.64845 0.0
C43 C 0.15799 0.21528 0.64522 0.0
H44 H 0.76536 0.83488 0.59538 0.0
H45 H 0.75385 0.90109 0.61428 0.0
H46 H 0.78605 0.86567 0.655 0.0
C47 C 0.76712 0.84933 0.60659 0.0
C48 C 0.77753 0.84866 0.62547 0.0
C49 C 0.75848 0.86822 0.60232 0.0
C50 C 0.76056 0.88656 0.61725 0.0
C51 C 0.77051 0.88551 0.63625 0.0
C52 C 0.77881 0.86658 0.6402 0.0
N53 N 0.7709 0.90195 0.65218 0.0
C54 C 0.77623 0.92835 0.65019 0.0
H55 H 0.17732 0.93688 0.59906 0.0
H56 H 0.09537 0.86714 0.6059 0.0
H57 H 0.12463 0.93346 0.64687 0.0
C58 C 0.15792 0.92605 0.60705 0.0
C59 C 0.1541 0.93794 0.62421 0.0
C60 C 0.13696 0.90052 0.60004 0.0
C61 C 0.11172 0.8868 0.61078 0.0
C62 C 0.10751 0.89886 0.62773 0.0
C63 C 0.12853 0.92426 0.63408 0.0
N64 N 0.08218 0.88717 0.63853 0.0
C65 C 0.06121 0.86016 0.63883 0.0
H66 H 0.9129 0.40409 0.77781 0.0
H67 H 0.91957 0.48073 0.76295 0.0
H68 H 0.88608 0.41558 0.72053 0.0
C69 C 0.90955 0.41677 0.76746 0.0
C70 C 0.89811 0.40651 0.74869 0.0
C71 C 0.91727 0.44351 0.77276 0.0
C72 C 0.91329 0.45999 0.75908 0.0
C73 C 0.90176 0.44969 0.74025 0.0
C74 C 0.8944 0.42315 0.73522 0.0
N75 N 0.89839 0.4656 0.72553 0.0
C76 C 0.89573 0.48816 0.72923 0.0
H77 H 0.6109 0.51833 0.77058 0.0
H78 H 0.55194 0.43258 0.77196 0.0
H79 H 0.61788 0.46461 0.72904 0.0
C80 C 0.60295 0.49817 0.76449 0.0
C81 C 0.61691 0.4942 0.74854 0.0
C82 C 0.57985 0.47593 0.77339 0.0
C83 C 0.56976 0.44981 0.76533 0.0
C84 C 0.58331 0.44584 0.74913 0.0
C85 C 0.60716 0.46792 0.74124 0.0
N86 N 0.57463 0.41976 0.74112 0.0
C87 C 0.54719 0.39912 0.73929 0.0
H88 H 0.50763 0.11022 0.77565 0.0
H89 H 0.58333 0.11006 0.76275 0.0
H90 H 0.54673 0.13655 0.71834 0.0
C91 C 0.52423 0.11425 0.76537 0.0
C92 C 0.52417 0.12416 0.74615 0.0
C93 C 0.54519 0.10873 0.77143 0.0
C94 C 0.56714 0.11421 0.75823 0.0
C95 C 0.56795 0.12496 0.73921 0.0
C96 C 0.54632 0.1294 0.73332 0.0
N97 N 0.58951 0.1311 0.72515 0.0
C98 C 0.61388 0.13014 0.7279 0.0
H99 H 0.7421 0.57723 0.93441 0.0
H100 H 0.80797 0.55865 0.93895 0.0
H101 H 0.74203 0.52624 0.98179 0.0
C102 C 0.75139 0.56703 0.94208 0.0
C103 C 0.73852 0.5515 0.95924 0.0
C104 C 0.7761 0.56935 0.9344 0.0
C105 C 0.78889 0.55682 0.94461 0.0
C106 C 0.77679 0.54181 0.96205 0.0
C107 C 0.75155 0.53884 0.96887 0.0
N108 N 0.78849 0.52847 0.97297 0.0
C109 C 0.81552 0.53292 0.9718 0.0
H110 H 0.43409 0.1673 0.92792 0.0
H111 H 0.43951 0.24396 0.94158 0.0
H112 H 0.47663 0.21134 0.98038 0.0
C113 C 0.44063 0.1847 0.93754 0.0
C114 C 0.45578 0.18674 0.95479 0.0
C115 C 0.43475 0.20535 0.93239 0.0
C116 C 0.44418 0.22811 0.94503 0.0
C117 C 0.45946 0.2302 0.96227 0.0
C118 C 0.46516 0.20963 0.96691 0.0
N119 N 0.46962 0.25248 0.97554 0.0
C120 C 0.46493 0.27418 0.97443 0.0
H121 H 0.84355 0.26426 0.93224 0.0
H122 H 0.75986 0.19722 0.93682 0.0
H123 H 0.78954 0.26345 0.97823 0.0
C124 C 0.82373 0.25417 0.93984 0.0
C125 C 0.81929 0.2669 0.95617 0.0
C126 C 0.80239 0.22919 0.93259 0.0
C127 C 0.77641 0.21641 0.94229 0.0
C128 C 0.77197 0.22882 0.95895 0.0
C129 C 0.79327 0.25403 0.96549 0.0
N130 N 0.74628 0.21747 0.96928 0.0
C131 C 0.72519 0.1905 0.9692 0.0
H132 H 0.58796 0.74318 0.10759 0.0
H133 H 0.5593 0.80061 0.11286 0.0
H134 H 0.52108 0.73547 0.07085 0.0
C135 C 0.5744 0.75064 0.10278 0.0
C136 C 0.55486 0.73686 0.08768 0.0
C137 C 0.57602 0.77349 0.11214 0.0
C138 C 0.5584 0.78311 0.10575 0.0
C139 C 0.53883 0.76945 0.09068 0.0
C140 C 0.5369 0.74628 0.082 0.0
N141 N 0.51945 0.77736 0.08489 0.0
C142 C 0.52656 0.80398 0.08101 0.0
H143 H 0.27893 0.84884 0.10675 0.0
H144 H 0.21249 0.7662 0.10293 0.0
H145 H 0.27406 0.7986 0.05709 0.0
C146 C 0.26861 0.82988 0.09866 0.0
C147 C 0.28009 0.82687 0.08077 0.0
C148 C 0.24421 0.80818 0.1067 0.0
C149 C 0.2311 0.78305 0.09676 0.0
C150 C 0.24225 0.7798 0.07892 0.0
C151 C 0.26639 0.80159 0.07111 0.0
N152 N 0.23069 0.75477 0.06856 0.0
C153 C 0.20344 0.73359 0.06962 0.0
H154 H 0.16779 0.43742 0.10463 0.0
H155 H 0.24891 0.44588 0.09768 0.0
H156 H 0.21583 0.47523 0.05233 0.0
C157 C 0.18662 0.4442 0.09606 0.0
C158 C 0.18924 0.45686 0.07764 0.0
C159 C 0.20782 0.43981 0.10341 0.0
C160 C 0.23245 0.44904 0.09218 0.0
C161 C 0.2353 0.46182 0.07362 0.0
C162 C 0.21357 0.46539 0.06656 0.0
N163 N 0.25937 0.47167 0.06138 0.0
C164 C 0.28273 0.46891 0.06409 0.0
H165 H 0.40253 0.90164 0.26565 0.0
H166 H 0.47741 0.89843 0.2764 0.0
H167 H 0.41531 0.87398 0.32198 0.0
C168 C 0.41508 0.89672 0.27521 0.0
C169 C 0.40568 0.88716 0.29458 0.0
C170 C 0.4412 0.90138 0.26852 0.0
C171 C 0.45751 0.8953 0.28138 0.0
C172 C 0.448 0.88511 0.30063 0.0
C173 C 0.4224 0.88153 0.30707 0.0
N174 N 0.46327 0.87834 0.31424 0.0
C175 C 0.4885 0.87922 0.31103 0.0
H176 H 0.1 0.49952 0.26447 0.0
H177 H 0.12107 0.58327 0.26636 0.0
H178 H 0.156 0.5529 0.30918 0.0
C179 C 0.11085 0.51929 0.27148 0.0
C180 C 0.12836 0.5235 0.28779 0.0
C181 C 0.10837 0.54084 0.26353 0.0
C182 C 0.12293 0.56663 0.27242 0.0
C183 C 0.13996 0.5708 0.28903 0.0
C184 C 0.14274 0.54936 0.29639 0.0
N185 N 0.15523 0.59625 0.29863 0.0
C186 C 0.15121 0.61826 0.29626 0.0
H187 H 0.5112 0.59977 0.26671 0.0
H188 H 0.42689 0.5338 0.26983 0.0
H189 H 0.4564 0.59872 0.31227 0.0
C190 C 0.49111 0.59008 0.27392 0.0
C191 C 0.48678 0.60235 0.29063 0.0
C192 C 0.46963 0.56554 0.26615 0.0
C193 C 0.44355 0.55267 0.27568 0.0
C194 C 0.43909 0.56456 0.29263 0.0
C195 C 0.46052 0.5894 0.29967 0.0
N196 N 0.4132 0.55315 0.30269 0.0
C197 C 0.39213 0.52617 0.30237 0.0
Eu198 Eu 0.49473 0.98702 0.99365 0.0
C199 C 0.55133 0.08136 0.05589 0.0
C200 C 0.5995 0.093 0.05513 0.0
C201 C 0.58751 0.12754 0.06299 0.0
C202 C 0.5711 0.07388 0.05281 0.0
C203 C 0.55922 0.10812 0.06146 0.0
C204 C 0.60762 0.11999 0.0598 0.0
C205 C 0.51064 0.09394 0.06508 0.0
N206 N 0.52426 0.06208 0.05442 0.0
C207 C 0.50389 0.06768 0.05953 0.0
C208 C 0.53844 0.11435 0.06581 0.0
Eu209 Eu 0.51408 0.01841 0.04397 0.0
N210 N 0.56248 0.04759 0.04849 0.0
C211 C 0.58113 0.03865 0.04777 0.0
C212 C 0.61882 0.08425 0.05321 0.0
C213 C 0.60955 0.05687 0.04981 0.0
H214 H 0.48236 0.05199 0.0588 0.0
H215 H 0.62427 0.04977 0.04869 0.0
H216 H 0.62936 0.13502 0.06146 0.0
H217 H 0.49441 0.09844 0.06872 0.0
H218 H 0.57441 0.01762 0.04507 0.0
H219 H 0.3833 0.94887 0.98834 0.0
H220 H 0.64084 0.0983 0.05481 0.0
H221 H 0.53053 0.95696 0.9792 0.0
H222 H 0.43261 0.98352 0.99196 0.0
H223 H 0.52156 0.9114 0.96962 0.0
H224 H 0.59401 0.14827 0.06706 0.0
H225 H 0.36991 0.90091 0.98287 0.0
H226 H 0.38466 0.8664 0.97676 0.0
H227 H 0.54364 0.13467 0.07014 0.0
H228 H 0.42229 0.85624 0.97142 0.0
N229 N 0.44704 0.95542 0.98923 0.0
C230 C 0.4271 0.9627 0.98956 0.0
C231 C 0.39161 0.91604 0.98449 0.0
C232 C 0.41229 0.90901 0.98289 0.0
C233 C 0.39909 0.9431 0.98751 0.0
C234 C 0.44022 0.92949 0.9852 0.0
H235 H 0.47339 0.87298 0.96835 0.0
N236 N 0.48793 0.94427 0.9837 0.0
C237 C 0.50443 0.91456 0.97323 0.0
C238 C 0.46132 0.92374 0.98224 0.0
C239 C 0.50944 0.94033 0.97863 0.0
C240 C 0.47721 0.89292 0.97257 0.0
C241 C 0.45521 0.89741 0.97684 0.0
O242 O 0.51972 0.00127 0.96656 0.0
O243 O 0.52686 0.0203 0.01231 0.0
O244 O 0.50953 0.0477 0.02352 0.0
O245 O 0.4811 0.01824 0.99864 0.0
O246 O 0.54099 0.00224 0.99257 0.0
O247 O 0.47993 0.99901 0.9674 0.0
O248 O 0.49205 0.01031 0.07245 0.0
O249 O 0.48159 0.98591 0.02519 0.0
O250 O 0.49756 0.95707 0.01407 0.0
O251 O 0.52643 0.98603 0.03896 0.0
O252 O 0.46802 0.00407 0.0452 0.0
O253 O 0.52323 0.99881 0.06842 0.0
C254 C 0.54851 0.02133 1.00554 0.0
C255 C 0.49615 0.99356 0.93597 0.0
C256 C 0.49987 0.00106 0.89975 0.0
C257 C 0.50343 0.0112 0.91945 0.0
C258 C 0.4892 0.97299 0.89718 0.0
C259 C 0.48496 0.96575 0.93275 0.0
C260 C 0.48161 0.95559 0.91349 0.0
C261 C 0.49283 0.04193 1.00795 0.0
C262 C 0.50145 0.00429 0.95651 0.0
C263 C 0.42742 0.87666 0.97537 0.0
C264 C 0.406 0.88245 0.97842 0.0
C265 C 0.46014 0.98529 0.03197 0.0
C266 C 0.51622 0.00924 0.1012 0.0
C267 C 0.50394 0.99181 0.11766 0.0
C268 C 0.51497 1.00011 0.137 0.0
C269 C 0.53805 0.02617 0.13955 0.0
C270 C 0.53909 0.03514 0.10426 0.0
C271 C 0.54985 0.04354 0.12334 0.0
C272 C 0.51411 0.96233 0.02959 0.0
C273 C 0.50585 1.00003 0.08081 0.0
H274 H 0.51168 0.03264 0.92204 0.0
H275 H 0.48702 0.96428 0.88253 0.0
H276 H 0.47915 0.95189 0.94513 0.0
H277 H 0.47336 0.93411 0.91118 0.0
H278 H 0.48635 0.9717 0.11536 0.0
H279 H 0.54685 0.03324 0.15419 0.0
H280 H 0.54877 0.04879 0.09187 0.0
H281 H 0.56755 0.06356 0.12556 0.0
Eu282 Eu 0.02504 0.50657 0.99582 0.0
C283 C 0.92382 0.46417 0.05343 0.0
C284 C 0.90925 0.49765 0.05117 0.0
C285 C 0.87538 0.45075 0.05852 0.0
C286 C 0.93014 0.49056 0.05002 0.0
C287 C 0.89651 0.44408 0.05822 0.0
C288 C 0.88174 0.47749 0.05496 0.0
C289 C 0.91347 0.41298 0.06381 0.0
N290 N 0.94475 0.45848 0.05321 0.0
C291 C 0.94023 0.43361 0.05902 0.0
C292 C 0.89143 0.41812 0.06316 0.0
Eu293 Eu 0.98926 0.49411 0.04428 0.0
N294 N 0.95697 0.50957 0.04658 0.0
C295 C 0.96466 0.53637 0.04563 0.0
C296 C 0.91678 0.5249 0.04901 0.0
C297 C 0.94467 0.54439 0.04653 0.0
H298 H 0.9572 0.42952 0.05944 0.0
H299 H 0.95079 0.56558 0.04521 0.0
H300 H 0.86536 0.48249 0.0557 0.0
H301 H 0.90985 0.39312 0.06798 0.0
H302 H 0.98611 0.55162 0.04361 0.0
H303 H 0.06349 0.43508 0.99404 0.0
H304 H 0.90134 0.53117 0.0497 0.0
H305 H 0.05743 0.57143 0.98122 0.0
H306 H 0.0281 0.449 0.99547 0.0
H307 H 0.10501 0.60803 0.97344 0.0
H308 H 0.8542 0.43554 0.06197 0.0
H309 H 0.1131 0.46966 0.99084 0.0
H310 H 0.14928 0.51854 0.98596 0.0
H311 H 0.87073 0.40213 0.06693 0.0
H312 H 0.1606 0.56563 0.9802 0.0
N313 N 0.05737 0.49114 0.99359 0.0
C314 C 0.04964 0.46432 0.99397 0.0
C315 C 0.09764 0.4759 0.99144 0.0
C316 C 0.10524 0.50323 0.98979 0.0
C317 C 0.06966 0.45632 0.99318 0.0
C318 C 0.08431 0.51028 0.99078 0.0
H319 H 0.14415 0.59908 0.97507 0.0
N320 N 0.06977 0.54243 0.98761 0.0
C321 C 0.1013 0.58811 0.97751 0.0
C322 C 0.09073 0.53677 0.98766 0.0
C323 C 0.07441 0.56737 0.98188 0.0
C324 C 0.12335 0.583 0.97851 0.0
C325 C 0.11817 0.55697 0.98332 0.0
O326 O 0.01482 0.51797 0.96742 0.0
O327 O 0.98911 0.50424 0.01227 0.0
O328 O 0.96066 0.46028 0.02355 0.0
O329 O 0.99234 0.46176 1.00008 0.0
O330 O 0.00869 0.53585 0.99251 0.0
O331 O 0.01457 0.48 0.96985 0.0
O332 O 0.99986 0.48315 0.07273 0.0
O333 O 0.02488 0.49612 0.02771 0.0
O334 O 0.05363 0.53972 0.01687 0.0
O335 O 0.02191 0.53897 0.03989 0.0
O336 O 0.00556 0.46473 0.04762 0.0
O337 O 1.00074 0.52138 0.06987 0.0
C338 C 0.98815 0.52403 1.00468 0.0
C339 C 0.02588 0.50202 0.93856 0.0
C340 C 0.0229 0.5008 0.90218 0.0
C341 C 0.00997 0.49427 0.92104 0.0
C342 C 0.05212 0.51523 0.90139 0.0
C343 C 0.05486 0.51584 0.9373 0.0
C344 C 0.06788 0.52243 0.9188 0.0
C345 C 0.96753 0.44948 0.0087 0.0
C346 C 0.01201 0.49675 0.958 0.0
C347 C 0.13933 0.55034 0.98328 0.0
C348 C 0.13288 0.52352 0.98655 0.0
C349 C 0.02583 0.4763 0.03521 0.0
C350 C 0.99034 0.50047 0.10156 0.0
C351 C 0.00684 0.50727 0.11876 0.0
C352 C 0.9945 0.50136 0.13772 0.0
C353 C 0.96551 0.48889 0.13927 0.0
C354 C 0.96147 0.48839 0.1034 0.0
C355 C 0.94915 0.48267 0.12219 0.0
C356 C 0.04686 0.55086 0.03151 0.0
C357 C 1.00338 0.50481 0.08187 0.0
H358 H 0.98756 0.4831 0.9222 0.0
H359 H 0.06298 0.52138 0.88732 0.0
H360 H 0.06744 0.5218 0.95056 0.0
H361 H 0.0903 0.53343 0.91795 0.0
H362 H 0.02916 0.51647 0.11739 0.0
H363 H 0.95557 0.48417 0.15372 0.0
H364 H 0.94845 0.48316 0.09037 0.0
H365 H 0.92684 0.4732 0.12351 0.0
Eu366 Eu 0.52377 0.50511 0.04299 0.0
C367 C 0.46564 0.54492 0.98373 0.0
C368 C 0.41691 0.51108 0.98556 0.0
C369 C 0.43067 0.55784 0.97795 0.0
C370 C 0.44509 0.51844 0.98708 0.0
C371 C 0.45869 0.5648 0.97865 0.0
C372 C 0.40982 0.53103 0.98143 0.0
C373 C 0.50749 0.59631 0.97362 0.0
N374 N 0.49248 0.55091 0.98435 0.0
C375 C 0.51333 0.57587 0.97866 0.0
C376 C 0.48007 0.59086 0.97386 0.0
Eu377 Eu 0.50078 0.51557 0.99379 0.0
N378 N 0.45265 0.49963 0.99087 0.0
C379 C 0.43311 0.47279 0.99189 0.0
C380 C 0.39672 0.48378 0.98773 0.0
C381 C 0.40489 0.46451 0.99063 0.0
H382 H 0.53457 0.5802 0.97854 0.0
H383 H 0.38946 0.44328 0.99198 0.0
H384 H 0.38828 0.52581 0.98039 0.0
H385 H 0.52412 0.61625 0.96957 0.0
H386 H 0.43912 0.45769 0.99422 0.0
H387 H 0.63503 0.57823 0.04365 0.0
H388 H 0.37485 0.47731 0.98676 0.0
H389 H 0.49081 0.44117 0.05935 0.0
H390 H 0.58535 0.56335 0.04148 0.0
H391 H 0.50175 0.40584 0.0695 0.0
H392 H 0.42491 0.57288 0.97426 0.0
H393 H 0.65017 0.54481 0.04994 0.0
H394 H 0.63726 0.49675 0.0576 0.0
H395 H 0.47558 0.6067 0.96989 0.0
H396 H 0.60101 0.44984 0.06475 0.0
N397 N 0.57211 0.52161 0.04588 0.0
C398 C 0.59148 0.54845 0.04427 0.0
C399 C 0.62824 0.5381 0.04898 0.0
C400 C 0.60827 0.51086 0.05178 0.0
C401 C 0.61977 0.55703 0.04548 0.0
C402 C 0.57999 0.50318 0.05024 0.0
H403 H 0.55045 0.41586 0.06955 0.0
N404 N 0.53281 0.4706 0.05341 0.0
C405 C 0.51824 0.42569 0.06514 0.0
C406 C 0.55969 0.47683 0.05415 0.0
C407 C 0.51213 0.44574 0.05943 0.0
C408 C 0.54575 0.43141 0.06509 0.0
C409 C 0.56693 0.45735 0.05983 0.0
O410 O 0.50283 0.49408 0.07188 0.0
O411 O 0.48986 0.50599 0.02584 0.0
O412 O 0.50571 0.54942 0.01408 0.0
O413 O 0.5371 0.54943 0.03702 0.0
O414 O 0.47764 0.4753 0.04634 0.0
O415 O 0.53757 0.53434 0.06741 0.0
O416 O 0.52345 0.52615 0.96566 0.0
O417 O 0.53448 0.51398 0.0108 0.0
O418 O 0.51822 0.47086 0.02303 0.0
O419 O 0.4878 0.47108 0.99919 0.0
O420 O 0.54689 0.54521 0.99069 0.0
O421 O 0.48481 0.48839 0.96805 0.0
C422 C 0.46886 0.48618 0.03362 0.0
C423 C 0.53036 0.5163 0.09995 0.0
C424 C 0.52994 0.52113 0.13613 0.0
C425 C 0.51915 0.52132 0.11717 0.0
C426 C 0.5517 0.51536 0.13754 0.0
C427 C 0.55203 0.51061 0.1018 0.0
C428 C 0.56254 0.51007 0.12051 0.0
C429 C 0.52413 0.561 0.02851 0.0
C430 C 0.51962 0.51731 0.08012 0.0
C431 C 0.59502 0.46458 0.0606 0.0
C432 C 0.61566 0.49129 0.05654 0.0
C433 C 0.55557 0.53379 1.00305 0.0
C434 C 0.49726 0.50937 0.93631 0.0
C435 C 0.50728 0.50265 0.91924 0.0
C436 C 0.50164 0.50871 0.89997 0.0
C437 C 0.48576 0.52168 0.89836 0.0
C438 C 0.4811 0.52175 0.93414 0.0
C439 C 0.47544 0.52788 0.91527 0.0
C440 C 0.50014 0.45931 1.00838 0.0
C441 C 0.50493 0.50468 0.9563 0.0
H442 H 0.50253 0.52591 0.11577 0.0
H443 H 0.56023 0.51476 0.15189 0.0
H444 H 0.5609 0.50672 0.0888 0.0
H445 H 0.57926 0.50563 0.12181 0.0
H446 H 0.51938 0.49268 0.92107 0.0
H447 H 0.4816 0.52754 0.88403 0.0
H448 H 0.47314 0.52697 0.94701 0.0
H449 H 0.46326 0.53779 0.91374 0.0
Eu450 Eu 0.16138 0.32144 0.32744 0.0
C451 C 0.22028 0.41547 0.38987 0.0
C452 C 0.26867 0.42815 0.38769 0.0
C453 C 0.25604 0.46186 0.39683 0.0
C454 C 0.24031 0.40861 0.3859 0.0
C455 C 0.22785 0.44203 0.39579 0.0
C456 C 0.27643 0.45494 0.39277 0.0
C457 C 0.17922 0.42688 0.4006 0.0
N458 N 0.1933 0.39581 0.38883 0.0
C459 C 0.17279 0.40084 0.3947 0.0
C460 C 0.20687 0.44767 0.40093 0.0
Eu461 Eu 0.18362 0.35255 0.37766 0.0
N462 N 0.23205 0.38251 0.38117 0.0
C463 C 0.25112 0.37419 0.37948 0.0
C464 C 0.28834 0.42003 0.38482 0.0
C465 C 0.27949 0.39283 0.38098 0.0
H466 H 0.15136 0.38487 0.39429 0.0
H467 H 0.29451 0.38622 0.3791 0.0
H468 H 0.29811 0.47029 0.39404 0.0
H469 H 0.16287 0.43091 0.40484 0.0
H470 H 0.24473 0.35333 0.37639 0.0
H471 H 0.05041 0.28689 0.32434 0.0
H472 H 0.31033 0.43443 0.38599 0.0
H473 H 0.19442 0.28949 0.31146 0.0
H474 H 0.10014 0.32024 0.32712 0.0
H475 H 0.18347 0.2433 0.30172 0.0
H476 H 0.2623 0.48245 0.40118 0.0
H477 H 0.0351 0.23851 0.31876 0.0
H478 H 0.04787 0.20271 0.31199 0.0
H479 H 0.21183 0.46782 0.40555 0.0
H480 H 0.0841 0.19086 0.30562 0.0
N481 N 0.11313 0.29109 0.32374 0.0
C482 C 0.0939 0.29928 0.32462 0.0
C483 C 0.05703 0.25309 0.31998 0.0
C484 C 0.07692 0.24511 0.3178 0.0
C485 C 0.0656 0.28039 0.32306 0.0
C486 C 0.10519 0.26489 0.31962 0.0
H487 H 0.13471 0.20595 0.30141 0.0
N488 N 0.15237 0.27814 0.31691 0.0
C489 C 0.16696 0.24719 0.30578 0.0
C490 C 0.12547 0.25821 0.31604 0.0
C491 C 0.17309 0.27331 0.31122 0.0
C492 C 0.13942 0.22615 0.30568 0.0
C493 C 0.11822 0.23159 0.31056 0.0
O494 O 0.18279 0.33114 0.29868 0.0
O495 O 0.19458 0.35453 0.34555 0.0
O496 O 0.17813 0.38205 0.35815 0.0
O497 O 0.14822 0.35279 0.33377 0.0
O498 O 0.20763 0.33698 0.3246 0.0
O499 O 0.14894 0.33878 0.30325 0.0
O500 O 0.16284 0.34332 0.40668 0.0
O501 O 0.15019 0.31983 0.35948 0.0
O502 O 0.16585 0.29169 0.34722 0.0
O503 O 0.1967 0.32111 0.37103 0.0
O504 O 0.13759 0.33775 0.3805 0.0
O505 O 0.19494 0.33342 0.4012 0.0
C506 C 0.21585 0.35584 0.33779 0.0
C507 C 0.15663 0.32928 0.27034 0.0
C508 C 0.15622 0.33741 0.23452 0.0
C509 C 0.16714 0.34678 0.25374 0.0
C510 C 0.13514 0.31027 0.23222 0.0
C511 C 0.1357 0.30232 0.26754 0.0
C512 C 0.12512 0.2929 0.24858 0.0
C513 C 0.16046 0.37639 0.34323 0.0
C514 C 0.16697 0.33931 0.29059 0.0
C515 C 0.09011 0.2115 0.30962 0.0
C516 C 0.06949 0.21825 0.31325 0.0
C517 C 0.12913 0.31911 0.36712 0.0
C518 C 0.18875 0.34276 0.43451 0.0
C519 C 0.17623 0.32554 0.45101 0.0
C520 C 0.18762 0.33357 0.47028 0.0
C521 C 0.21139 0.35921 0.47271 0.0
C522 C 0.2123 0.36824 0.43743 0.0
C523 C 0.22349 0.37639 0.45644 0.0
C524 C 0.18403 0.2974 0.36173 0.0
C525 C 0.17774 0.33372 0.41424 0.0
H526 H 0.1832 0.36769 0.25583 0.0
H527 H 0.12648 0.30242 0.21767 0.0
H528 H 0.12742 0.28862 0.28004 0.0
H529 H 0.10894 0.27206 0.24655 0.0
H530 H 0.15808 0.30577 0.44879 0.0
H531 H 0.22046 0.36615 0.48729 0.0
H532 H 0.22217 0.38175 0.425 0.0
H533 H 0.2417 0.3961 0.45856 0.0
Eu534 Eu 0.69305 0.84114 0.33027 0.0
C535 C 0.59064 0.80216 0.38713 0.0
C536 C 0.57701 0.83625 0.38412 0.0
C537 C 0.54243 0.78978 0.39199 0.0
C538 C 0.59748 0.82858 0.38322 0.0
C539 C 0.56316 0.78256 0.39199 0.0
C540 C 0.54935 0.81658 0.38805 0.0
C541 C 0.57916 0.75081 0.3981 0.0
N542 N 0.61119 0.79596 0.38718 0.0
C543 C 0.6061 0.77099 0.39322 0.0
C544 C 0.55751 0.75652 0.39724 0.0
Eu545 Eu 0.6561 0.83072 0.37809 0.0
N546 N 0.62445 0.84709 0.37966 0.0
C547 C 0.63266 0.87399 0.37838 0.0
C548 C 0.58509 0.86358 0.38159 0.0
C549 C 0.6131 0.88258 0.37902 0.0
H550 H 0.62274 0.76643 0.39376 0.0
H551 H 0.61966 0.90385 0.37743 0.0
H552 H 0.53328 0.82203 0.38858 0.0
H553 H 0.5751 0.73087 0.40246 0.0
H554 H 0.65419 0.88893 0.37631 0.0
H555 H 0.72787 0.76676 0.33034 0.0
H556 H 0.56999 0.87029 0.38208 0.0
H557 H 0.72787 0.90588 0.3156 0.0
H558 H 0.69379 0.7823 0.3309 0.0
H559 H 0.77624 0.9414 0.30858 0.0
H560 H 0.52114 0.77495 0.39551 0.0
H561 H 0.77794 0.80004 0.32764 0.0
H562 H 0.81551 0.84842 0.3229 0.0
H563 H 0.53666 0.74088 0.40107 0.0
H564 H 0.8287 0.89597 0.31684 0.0
N565 N 0.72417 0.82414 0.329 0.0
C566 C 0.71551 0.7971 0.32962 0.0
C567 C 0.76305 0.80701 0.32784 0.0
C568 C 0.77165 0.83455 0.32598 0.0
C569 C 0.7348 0.78817 0.32931 0.0
C570 C 0.75141 0.84256 0.32643 0.0
H571 H 0.81414 0.93074 0.3111 0.0
N572 N 0.73856 0.87581 0.32241 0.0
C573 C 0.77165 0.92122 0.3127 0.0
C574 C 0.75884 0.86925 0.32301 0.0
C575 C 0.74432 0.90109 0.3166 0.0
C576 C 0.793 0.91514 0.3142 0.0
C577 C 0.78669 0.88878 0.31909 0.0
O578 O 0.68697 0.8534 0.30077 0.0
O579 O 0.65703 0.84001 0.34578 0.0
O580 O 0.62759 0.79659 0.35745 0.0
O581 O 0.65972 0.79671 0.33506 0.0
O582 O 0.67724 0.87066 0.32535 0.0
O583 O 0.67931 0.81263 0.30546 0.0
O584 O 0.66309 0.81967 0.40781 0.0
O585 O 0.69171 0.83146 0.3624 0.0
O586 O 0.72133 0.87456 0.35136 0.0
O587 O 0.68869 0.87527 0.37267 0.0
O588 O 0.67196 0.80115 0.38301 0.0
O589 O 0.67157 0.86049 0.40207 0.0
C590 C 0.65655 0.85962 0.33744 0.0
C591 C 0.69421 0.8316 0.27352 0.0
C592 C 0.69175 0.82748 0.23732 0.0
C593 C 0.6793 0.82683 0.2557 0.0
C594 C 0.71945 0.83322 0.23707 0.0
C595 C 0.7218 0.83735 0.27296 0.0
C596 C 0.73434 0.83819 0.25479 0.0
C597 C 0.63463 0.78506 0.34322 0.0
C598 C 0.68057 0.83029 0.29253 0.0
C599 C 0.80714 0.88121 0.31961 0.0
C600 C 0.79963 0.85413 0.32306 0.0
C601 C 0.6923 0.81187 0.37062 0.0
C602 C 0.65792 0.84358 0.43462 0.0
C603 C 0.67315 0.84782 0.45223 0.0
C604 C 0.66188 0.84895 0.47073 0.0
C605 C 0.63504 0.84552 0.47131 0.0
C606 C 0.63116 0.84009 0.43553 0.0
C607 C 0.61981 0.84103 0.45381 0.0
C608 C 0.71403 0.88658 0.36499 0.0
C609 C 0.67044 0.84336 0.41542 0.0
H610 H 0.65787 0.8221 0.25621 0.0
H611 H 0.72967 0.8341 0.22316 0.0
H612 H 0.73358 0.84108 0.28652 0.0
H613 H 0.75566 0.84265 0.25445 0.0
H614 H 0.69393 0.85074 0.45148 0.0
H615 H 0.62568 0.84597 0.48532 0.0
H616 H 0.61914 0.83679 0.42214 0.0
H617 H 0.59913 0.83832 0.45442 0.0
Eu618 Eu 0.1886 0.83559 0.3771 0.0
C619 C 0.13309 0.87909 0.31871 0.0
C620 C 0.08432 0.84518 0.31943 0.0
C621 C 0.09829 0.89239 0.31355 0.0
C622 C 0.11245 0.85243 0.32113 0.0
C623 C 0.12628 0.8993 0.31445 0.0
C624 C 0.07734 0.86538 0.31606 0.0
C625 C 0.17525 0.93118 0.31072 0.0
N626 N 0.15989 0.88503 0.31957 0.0
C627 C 0.18093 0.91039 0.31491 0.0
C628 C 0.14782 0.92569 0.31074 0.0
Eu629 Eu 0.16792 0.84918 0.32799 0.0
N630 N 0.11991 0.83343 0.32432 0.0
C631 C 0.10037 0.80655 0.3245 0.0
C632 C 0.06408 0.81777 0.32072 0.0
C633 C 0.07218 0.79835 0.32297 0.0
H634 H 0.20218 0.91474 0.31502 0.0
H635 H 0.05672 0.77706 0.32365 0.0
H636 H 0.05583 0.86024 0.31493 0.0
H637 H 0.19201 0.9514 0.30752 0.0
H638 H 0.10633 0.79135 0.32639 0.0
H639 H 0.30042 0.90517 0.38106 0.0
H640 H 0.04224 0.81137 0.31958 0.0
H641 H 0.15261 0.77003 0.39028 0.0
H642 H 0.25118 0.89231 0.37847 0.0
H643 H 0.16139 0.7326 0.39808 0.0
H644 H 0.09263 0.90768 0.31049 0.0
H645 H 0.31343 0.86982 0.38527 0.0
H646 H 0.29834 0.82066 0.39036 0.0
H647 H 0.14346 0.9418 0.30742 0.0
H648 H 0.26053 0.77375 0.39516 0.0
N649 N 0.23633 0.85001 0.38072 0.0
C650 C 0.2565 0.87667 0.3804 0.0
C651 C 0.29174 0.86404 0.38417 0.0
C652 C 0.27088 0.83688 0.38565 0.0
C653 C 0.28448 0.88406 0.38185 0.0
C654 C 0.24298 0.83045 0.384 0.0
H655 H 0.20944 0.7408 0.39835 0.0
N656 N 0.19521 0.79892 0.38577 0.0
C657 C 0.17855 0.75259 0.39481 0.0
C658 C 0.22177 0.8041 0.38668 0.0
C659 C 0.17365 0.77383 0.39043 0.0
C660 C 0.2057 0.75729 0.39492 0.0
C661 C 0.22776 0.78337 0.39109 0.0
O662 O 0.16415 0.82522 0.40439 0.0
O663 O 0.15578 0.83805 0.35968 0.0
O664 O 0.17252 0.88193 0.34927 0.0
O665 O 0.20301 0.88051 0.37242 0.0
O666 O 0.14226 0.80583 0.37897 0.0
O667 O 0.20464 0.86107 0.40376 0.0
O668 O 0.19131 0.86141 0.3002 0.0
O669 O 0.20078 0.84699 0.34543 0.0
O670 O 0.18502 0.8034 0.35584 0.0
O671 O 0.1549 0.80436 0.33213 0.0
O672 O 0.21432 0.87877 0.3258 0.0
O673 O 0.15325 0.82292 0.30172 0.0
C674 C 0.13429 0.81785 0.36659 0.0
C675 C 0.18803 0.83881 0.43483 0.0
C676 C 0.1813 0.83894 0.4708 0.0
C677 C 0.17914 0.84745 0.45152 0.0
C678 C 0.19277 0.82205 0.47317 0.0
C679 C 0.1998 0.82228 0.4376 0.0
C680 C 0.20218 0.81401 0.45668 0.0
C681 C 0.19085 0.89284 0.36382 0.0
C682 C 0.18304 0.84543 0.41461 0.0
C683 C 0.2555 0.78945 0.39197 0.0
C684 C 0.27703 0.81615 0.38922 0.0
C685 C 0.22232 0.86699 0.33837 0.0
C686 C 0.16616 0.84494 0.2704 0.0
C687 C 0.17518 0.83702 0.25341 0.0
C688 C 0.16989 0.84321 0.23409 0.0
C689 C 0.15534 0.85749 0.23233 0.0
C690 C 0.15133 0.85866 0.26811 0.0
C691 C 0.14598 0.86488 0.24918 0.0
C692 C 0.16774 0.79264 0.34067 0.0
C693 C 0.17351 0.84 0.29039 0.0
H694 H 0.1699 0.86012 0.44948 0.0
H695 H 0.19474 0.81533 0.48784 0.0
H696 H 0.2068 0.81548 0.42501 0.0
H697 H 0.21113 0.80112 0.45869 0.0
H698 H 0.18625 0.82603 0.25535 0.0
H699 H 0.15151 0.86348 0.21794 0.0
H700 H 0.14419 0.86486 0.28095 0.0
H701 H 0.13482 0.87582 0.24754 0.0
Eu702 Eu 0.82852 0.65547 0.6606 0.0
C703 C 0.88359 0.75092 0.72237 0.0
C704 C 0.93249 0.76531 0.7208 0.0
C705 C 0.91796 0.79782 0.72931 0.0
C706 C 0.90443 0.745 0.71883 0.0
C707 C 0.89007 0.77722 0.72817 0.0
C708 C 0.93914 0.79189 0.72559 0.0
C709 C 0.84107 0.76024 0.73296 0.0
N710 N 0.85692 0.73052 0.72123 0.0
C711 C 0.83572 0.7345 0.7271 0.0
C712 C 0.86835 0.7818 0.73322 0.0
Eu713 Eu 0.84929 0.68774 0.71055 0.0
N714 N 0.89725 0.71907 0.71442 0.0
C715 C 0.91706 0.71164 0.71331 0.0
C716 C 0.95297 0.75812 0.71844 0.0
C717 C 0.94518 0.73108 0.71498 0.0
H718 H 0.81458 0.71795 0.72683 0.0
H719 H 0.96082 0.72519 0.71352 0.0
H720 H 0.96058 0.80782 0.72696 0.0
H721 H 0.82417 0.76344 0.7372 0.0
H722 H 0.91137 0.69086 0.71053 0.0
H723 H 0.71773 0.62135 0.65624 0.0
H724 H 0.97476 0.77314 0.71974 0.0
H725 H 0.8618 0.62293 0.64663 0.0
H726 H 0.76737 0.65449 0.6598 0.0
H727 H 0.85088 0.57663 0.63728 0.0
H728 H 0.92337 0.81824 0.73354 0.0
H729 H 0.7024 0.57308 0.65011 0.0
H730 H 0.71513 0.53719 0.64365 0.0
H731 H 0.87245 0.80171 0.73778 0.0
H732 H 0.75134 0.52501 0.63843 0.0
N733 N 0.78034 0.62531 0.65633 0.0
C734 C 0.76115 0.63357 0.65711 0.0
C735 C 0.72431 0.58757 0.65169 0.0
C736 C 0.74417 0.57949 0.64981 0.0
C737 C 0.73288 0.6148 0.6551 0.0
C738 C 0.77241 0.59914 0.65209 0.0
H739 H 0.80201 0.53964 0.63577 0.0
N740 N 0.8196 0.61199 0.65072 0.0
C741 C 0.83431 0.58072 0.64066 0.0
C742 C 0.79269 0.59226 0.64921 0.0
C743 C 0.84042 0.6069 0.64589 0.0
C744 C 0.8067 0.55989 0.63988 0.0
C745 C 0.78545 0.56558 0.6439 0.0
O746 O 0.85051 0.6644 0.6321 0.0
O747 O 0.86123 0.6889 0.6787 0.0
O748 O 0.84397 0.7169 0.69053 0.0
O749 O 0.81541 0.68703 0.66586 0.0
O750 O 0.87479 0.67096 0.65842 0.0
O751 O 0.81689 0.67259 0.6358 0.0
O752 O 0.82506 0.67395 0.73804 0.0
O753 O 0.81643 0.65415 0.69244 0.0
O754 O 0.83272 0.62641 0.68126 0.0
O755 O 0.86307 0.65661 0.70494 0.0
O756 O 0.80328 0.67292 0.71238 0.0
O757 O 0.86396 0.67451 0.73616 0.0
C758 C 0.88269 0.69011 0.67135 0.0
C759 C 0.82516 0.66252 0.60324 0.0
C760 C 0.82486 0.6705 0.5674 0.0
C761 C 0.83547 0.68004 0.58664 0.0
C762 C 0.80429 0.64317 0.56505 0.0
C763 C 0.80475 0.63537 0.6004 0.0
C764 C 0.79448 0.62578 0.5814 0.0
C765 C 0.82709 0.71082 0.67504 0.0
C766 C 0.8351 0.67272 0.62352 0.0
C767 C 0.75734 0.54568 0.64233 0.0
C768 C 0.73673 0.55262 0.64529 0.0
C769 C 0.79512 0.65359 0.69955 0.0
C770 C 0.8495 0.68045 0.76811 0.0
C771 C 0.83874 0.66264 0.78453 0.0
C772 C 0.84327 0.67294 0.80413 0.0
C773 C 0.85894 0.7011 0.80703 0.0
C774 C 0.86534 0.70842 0.77149 0.0
C775 C 0.87004 0.71864 0.79084 0.0
C776 C 0.85058 0.6326 0.69606 0.0
C777 C 0.84308 0.66994 0.74753 0.0
H778 H 0.85112 0.70111 0.58877 0.0
H779 H 0.79586 0.63521 0.55047 0.0
H780 H 0.79662 0.62164 0.61289 0.0
H781 H 0.77869 0.60479 0.57934 0.0
H782 H 0.82635 0.64099 0.78205 0.0
H783 H 0.86273 0.70953 0.82191 0.0
H784 H 0.87386 0.72239 0.75916 0.0
H785 H 0.88217 0.74028 0.79329 0.0
Eu786 Eu 0.3612 0.17495 0.66265 0.0
C787 C 0.26097 0.14082 0.72031 0.0
C788 C 0.24908 0.17607 0.71665 0.0
C789 C 0.2133 0.13029 0.72511 0.0
C790 C 0.26877 0.16738 0.716 0.0
C791 C 0.23327 0.12209 0.72537 0.0
C792 C 0.22119 0.15724 0.72073 0.0
C793 C 0.24763 0.08925 0.73221 0.0
N794 N 0.28079 0.13364 0.72056 0.0
C795 C 0.27481 0.10858 0.72709 0.0
C796 C 0.22668 0.09592 0.7311 0.0
Eu797 Eu 0.32611 0.16694 0.71098 0.0
N798 N 0.29592 0.18506 0.71225 0.0
C799 C 0.30513 0.21214 0.71059 0.0
C800 C 0.25816 0.20356 0.71373 0.0
C801 C 0.28638 0.22173 0.71102 0.0
H802 H 0.29094 0.1033 0.72779 0.0
H803 H 0.2937 0.24312 0.70914 0.0
H804 H 0.20571 0.16347 0.72104 0.0
H805 H 0.24285 0.06923 0.73695 0.0
H806 H 0.32683 0.22643 0.70837 0.0
H807 H 0.39494 0.09975 0.66422 0.0
H808 H 0.24368 0.21104 0.71402 0.0
H809 H 0.3957 0.23871 0.64595 0.0
H810 H 0.36131 0.1158 0.66487 0.0
H811 H 0.44365 0.27325 0.6369 0.0
H812 H 0.19185 0.11613 0.72875 0.0
H813 H 0.44488 0.13237 0.65959 0.0
H814 H 0.48243 0.18016 0.65265 0.0
H815 H 0.20565 0.08093 0.73511 0.0
H816 H 0.49567 0.22735 0.64497 0.0
N817 N 0.39182 0.15735 0.66121 0.0
C818 C 0.38296 0.13033 0.66277 0.0
C819 C 0.43018 0.13958 0.65986 0.0
C820 C 0.43891 0.167 0.65698 0.0
C821 C 0.40201 0.1211 0.66241 0.0
C822 C 0.41892 0.17532 0.65757 0.0
H823 H 0.48127 0.26212 0.63866 0.0
N824 N 0.4063 0.20863 0.65298 0.0
C825 C 0.4391 0.25326 0.64154 0.0
C826 C 0.42639 0.20179 0.65325 0.0
C827 C 0.41199 0.23367 0.6466 0.0
C828 C 0.46029 0.24692 0.64261 0.0
C829 C 0.45402 0.22081 0.64825 0.0
O830 O 0.35449 0.18588 0.63279 0.0
O831 O 0.32631 0.17532 0.67863 0.0
O832 O 0.29665 0.13221 0.691 0.0
O833 O 0.3281 0.13096 0.66872 0.0
O834 O 0.34608 0.20503 0.65756 0.0
O835 O 0.34426 0.14465 0.63911 0.0
O836 O 0.33228 0.15581 0.74092 0.0
O837 O 0.36092 0.16644 0.695 0.0
O838 O 0.39088 0.20894 0.68272 0.0
O839 O 0.36006 0.211 0.70519 0.0
O840 O 0.34109 0.1368 0.71611 0.0
O841 O 0.34296 0.19716 0.73461 0.0
C842 C 0.32588 0.19481 0.67008 0.0
C843 C 0.35736 0.1602 0.60624 0.0
C844 C 0.35154 0.15295 0.5704 0.0
C845 C 0.34179 0.15634 0.58886 0.0
C846 C 0.37724 0.15391 0.56948 0.0
C847 C 0.38313 0.16144 0.60504 0.0
C848 C 0.39302 0.15837 0.5867 0.0
C849 C 0.30311 0.12001 0.67692 0.0
C850 C 0.34588 0.16175 0.62555 0.0
C851 C 0.47427 0.21297 0.64856 0.0
C852 C 0.46673 0.18611 0.65295 0.0
C853 C 0.36121 0.14686 0.70352 0.0
C854 C 0.32875 0.18135 0.76733 0.0
C855 C 0.34333 0.18417 0.78505 0.0
C856 C 0.33279 0.18686 0.80342 0.0
C857 C 0.3073 0.18641 0.8038 0.0
C858 C 0.30326 0.18074 0.76804 0.0
C859 C 0.29261 0.18322 0.78621 0.0
C860 C 0.38491 0.22153 0.69676 0.0
C861 C 0.34082 0.17991 0.74822 0.0
H862 H 0.32178 0.1552 0.58978 0.0
H863 H 0.38516 0.15136 0.55541 0.0
H864 H 0.3954 0.16444 0.61826 0.0
H865 H 0.41284 0.15919 0.58586 0.0
H866 H 0.36314 0.18484 0.78448 0.0
H867 H 0.29859 0.18822 0.81773 0.0
H868 H 0.29174 0.17858 0.75457 0.0
H869 H 0.27295 0.18278 0.78666 0.0
Eu870 Eu 0.85622 0.16755 0.71022 0.0
C871 C 0.79765 0.20661 0.64936 0.0
C872 C 0.74912 0.17226 0.65096 0.0
C873 C 0.76222 0.21859 0.64247 0.0
C874 C 0.7774 0.18015 0.65296 0.0
C875 C 0.79034 0.22604 0.64364 0.0
C876 C 0.74164 0.19174 0.64615 0.0
C877 C 0.83909 0.25811 0.63914 0.0
N878 N 0.82455 0.21304 0.6505 0.0
C879 C 0.84526 0.23811 0.64488 0.0
C880 C 0.81152 0.25215 0.63876 0.0
Eu881 Eu 0.83372 0.17863 0.66097 0.0
N882 N 0.7854 0.16183 0.65738 0.0
C883 C 0.76618 0.13489 0.65852 0.0
C884 C 0.72926 0.1449 0.65333 0.0
C885 C 0.73787 0.12608 0.65683 0.0
H886 H 0.86663 0.24287 0.6453 0.0
H887 H 0.72271 0.10479 0.65831 0.0
H888 H 0.72002 0.18612 0.64474 0.0
H889 H 0.8556 0.2781 0.63509 0.0
H890 H 0.77239 0.12007 0.66131 0.0
H891 H 0.96711 0.24151 0.71311 0.0
H892 H 0.70733 0.13802 0.65201 0.0
H893 H 0.82357 0.10271 0.72472 0.0
H894 H 0.91728 0.22624 0.71094 0.0
H895 H 0.83488 0.06702 0.73301 0.0
H896 H 0.75618 0.23328 0.63828 0.0
H897 H 0.98269 0.20804 0.71732 0.0
H898 H 0.97021 0.15961 0.72278 0.0
H899 H 0.80677 0.26766 0.63429 0.0
H900 H 0.93423 0.11213 0.72839 0.0
N901 N 0.90453 0.18435 0.71335 0.0
C902 C 0.92366 0.21135 0.71285 0.0
C903 C 0.96072 0.20118 0.71638 0.0
C904 C 0.94095 0.17369 0.71813 0.0
C905 C 0.95201 0.22013 0.71406 0.0
C906 C 0.91262 0.16584 0.71669 0.0
H907 H 0.88373 0.0775 0.73258 0.0
N908 N 0.8655 0.13275 0.71933 0.0
C909 C 0.85127 0.08721 0.72927 0.0
C910 C 0.89246 0.13919 0.71984 0.0
C911 C 0.84494 0.10745 0.72465 0.0
C912 C 0.87887 0.09319 0.72895 0.0
C913 C 0.89992 0.11954 0.72449 0.0
O914 O 0.8352 0.15512 0.73901 0.0
O915 O 0.82257 0.16886 0.693 0.0
O916 O 0.83866 0.21257 0.68129 0.0
O917 O 0.86886 0.21181 0.70505 0.0
O918 O 0.81001 0.13774 0.71322 0.0
O919 O 0.86957 0.19581 0.73523 0.0
O920 O 0.8547 0.1903 0.63209 0.0
O921 O 0.8675 0.17782 0.67832 0.0
O922 O 0.85215 0.13463 0.68947 0.0
O923 O 0.82041 0.13415 0.66666 0.0
O924 O 0.87983 0.2089 0.65819 0.0
O925 O 0.82156 0.14923 0.63682 0.0
C926 C 0.80147 0.14899 0.70062 0.0
C927 C 0.86226 0.17678 0.76742 0.0
C928 C 0.86206 0.18165 0.80359 0.0
C929 C 0.85132 0.18204 0.78466 0.0
C930 C 0.88353 0.17547 0.80495 0.0
C931 C 0.8836 0.17062 0.76919 0.0
C932 C 0.8941 0.1699 0.78788 0.0
C933 C 0.85627 0.2236 0.6963 0.0
C934 C 0.85164 0.17817 0.74765 0.0
C935 C 0.92807 0.12698 0.72504 0.0
C936 C 0.94856 0.15401 0.72184 0.0
C937 C 0.88855 0.19793 0.67089 0.0
C938 C 0.82834 0.16617 0.60399 0.0
C939 C 0.84139 0.16257 0.58724 0.0
C940 C 0.83053 0.16087 0.568 0.0
C941 C 0.80667 0.16321 0.56581 0.0
C942 C 0.80469 0.16863 0.6014 0.0
C943 C 0.79398 0.16719 0.58239 0.0
C944 C 0.83353 0.12277 0.67523 0.0
C945 C 0.8391 0.16659 0.62408 0.0
H946 H 0.83496 0.18701 0.7833 0.0
H947 H 0.89203 0.17475 0.81928 0.0
H948 H 0.89224 0.1665 0.75614 0.0
H949 H 0.91058 0.16513 0.78913 0.0
H950 H 0.8596 0.16053 0.58924 0.0
H951 H 0.79799 0.16227 0.55121 0.0
H952 H 0.79442 0.17145 0.61406 0.0
H953 H 0.7757 0.16907 0.58049 0.0
H954 H 0.29998 0.88201 0.08347 0.0
H955 H 0.32026 0.82421 0.0582 0.0
H956 H 0.34241 0.91866 0.07003 0.0
H957 H 0.36068 0.86063 0.04259 0.0
H958 H 0.44832 0.93278 0.03539 0.0
H959 H 0.40477 0.89436 0.04626 0.0
H960 H 0.36613 0.94409 0.04368 0.0
H961 H 0.41054 0.98287 0.03449 0.0
C962 C 0.31327 0.87693 0.07497 0.0
C963 C 0.30621 0.84976 0.07208 0.0
C964 C 0.33754 0.89816 0.06675 0.0
C965 C 0.3553 0.893 0.05486 0.0
C966 C 0.34807 0.86581 0.0518 0.0
C967 C 0.32425 0.84464 0.06051 0.0
C968 C 0.43032 0.93525 0.03683 0.0
C969 C 0.43269 0.96071 0.03403 0.0
C970 C 0.40514 0.91314 0.04306 0.0
C971 C 0.38155 0.91585 0.0463 0.0
C972 C 0.38379 0.94113 0.04217 0.0
C973 C 0.40916 0.96336 0.03654 0.0
H974 H 0.16185 0.43994 0.0421 0.0
H975 H 0.16523 0.48304 0.09574 0.0
H976 H 0.12332 0.44549 0.02986 0.0
H977 H 0.12735 0.48935 0.08318 0.0
H978 H 0.07991 0.5177 0.03777 0.0
H979 H 0.12071 0.51408 0.04692 0.0
H980 H 0.0698 0.4271 0.04901 0.0
H981 H 0.02887 0.43072 0.04052 0.0
C982 C 0.15454 0.45083 0.05116 0.0
C983 C 0.16647 0.46098 0.06991 0.0
C984 C 0.13253 0.45397 0.04417 0.0
C985 C 0.12251 0.46797 0.05554 0.0
C986 C 0.13483 0.47865 0.07407 0.0
C987 C 0.15635 0.47491 0.08129 0.0
C988 C 0.07753 0.49781 0.03987 0.0
C989 C 0.05128 0.47443 0.03812 0.0
C990 C 0.10082 0.49576 0.04523 0.0
C991 C 0.09837 0.4703 0.04862 0.0
C992 C 0.07228 0.44694 0.04635 0.0
C993 C 0.04891 0.44902 0.04151 0.0
H994 H 0.54692 0.72265 0.04831 0.0
H995 H 0.55687 0.69487 0.10585 0.0
H996 H 0.54078 0.68108 0.03314 0.0
H997 H 0.55086 0.65342 0.09068 0.0
H998 H 0.56479 0.59394 0.05459 0.0
H999 H 0.57373 0.6372 0.06804 0.0
H1000 H 0.50648 0.63246 0.03288 0.0
H1001 H 0.49754 0.58916 0.0193 0.0
C1002 C 0.54773 0.70764 0.05773 0.0
C1003 C 0.55237 0.71208 0.07831 0.0
C1004 C 0.5442 0.68383 0.04903 0.0
C1005 C 0.5453 0.66393 0.06069 0.0
C1006 C 0.55031 0.66853 0.08122 0.0
C1007 C 0.55379 0.69231 0.08992 0.0
C1008 C 0.55195 0.60212 0.04962 0.0
C1009 C 0.53046 0.58804 0.0358 0.0
C1010 C 0.55702 0.6269 0.05742 0.0
C1011 C 0.54075 0.63823 0.05161 0.0
C1012 C 0.51961 0.62443 0.0375 0.0
C1013 C 0.51447 0.59958 0.02971 0.0
H1014 H 0.87432 0.28381 0.96217 0.0
H1015 H 0.81459 0.31088 0.96638 0.0
H1016 H 0.91034 0.32745 0.97501 0.0
H1017 H 0.85054 0.35462 0.97876 0.0
H1018 H 0.91286 0.41963 0.01948 0.0
H1019 H 0.87802 0.37554 1.00717 0.0
H1020 H 0.93844 0.37441 0.96739 0.0
H1021 H 0.97376 0.41805 0.98048 0.0
C1022 C 0.86897 0.2992 0.96564 0.0
C1023 C 0.84155 0.2938 0.96337 0.0
C1024 C 0.88963 0.32427 0.97297 0.0
C1025 C 0.88342 0.34465 0.97807 0.0
C1026 C 0.85604 0.3393 0.97546 0.0
C1027 C 0.8354 0.31421 0.96828 0.0
C1028 C 0.91893 0.40986 1.00835 0.0
C1029 C 0.94631 0.42237 1.0012 0.0
C1030 C 0.89875 0.38463 1.00105 0.0
C1031 C 0.90525 0.3713 0.98618 0.0
C1032 C 0.93268 0.38382 0.97902 0.0
C1033 C 0.95294 0.409 0.98645 0.0
H1034 H 0.69553 0.55084 0.93798 0.0
H1035 H 0.71924 0.54434 0.99815 0.0
H1036 H 0.65258 0.54686 0.95054 0.0
H1037 H 0.67512 0.53839 0.01025 0.0
H1038 H 0.57084 0.49465 1.00746 0.0
H1039 H 0.61563 0.49863 0.99856 0.0
H1040 H 0.64626 0.5813 0.98037 0.0
H1041 H 0.60227 0.57787 0.99019 0.0
C1042 C 0.6919 0.5487 0.95385 0.0
C1043 C 0.71148 0.54818 0.96692 0.0
C1044 C 0.66699 0.54608 0.96099 0.0
C1045 C 0.6605 0.54219 0.98133 0.0
C1046 C 0.67952 0.5411 0.99446 0.0
C1047 C 0.70479 0.54436 0.9874 0.0
C1048 C 0.58743 0.5139 1.00218 0.0
C1049 C 0.5832 0.53615 0.99998 0.0
C1050 C 0.61296 0.5161 0.99692 0.0
C1051 C 0.63435 0.54027 0.98874 0.0
C1052 C 0.63014 0.56246 0.98665 0.0
C1053 C 0.60498 0.56047 0.99231 0.0
H1054 H 0.50522 0.19207 0.9663 0.0
H1055 H 0.4192 0.1324 0.95688 0.0
H1056 H 0.51406 0.15697 0.97885 0.0
H1057 H 0.42771 0.09724 0.96998 0.0
H1058 H 0.45808 0.03697 0.97748 0.0
H1059 H 0.44978 0.07156 0.9636 0.0
H1060 H 0.50506 0.12888 1.00721 0.0
H1061 H 0.5145 0.09457 0.02049 0.0
C1062 C 0.48821 0.17138 0.96693 0.0
C1063 C 0.46152 0.16493 0.96065 0.0
C1064 C 0.4932 0.15128 0.97427 0.0
C1065 C 0.47155 0.12426 0.97567 0.0
C1066 C 0.44496 0.11775 0.96893 0.0
C1067 C 0.44004 0.13786 0.96141 0.0
C1068 C 0.4685 0.05692 0.98418 0.0
C1069 C 0.48686 0.06287 1.00025 0.0
C1070 C 0.46355 0.07676 0.97626 0.0
C1071 C 0.47669 0.10306 0.98426 0.0
C1072 C 0.49486 0.10896 1.00046 0.0
C1073 C 0.5 0.08914 1.00829 0.0
H1074 H 0.67282 0.17534 0.95876 0.0
H1075 H 0.72257 0.14828 0.98943 0.0
H1076 H 0.63058 0.13444 0.96932 0.0
H1077 H 0.68037 0.10737 1.00034 0.0
H1078 H 0.59765 0.02479 0.99686 0.0
H1079 H 0.64124 0.06524 0.98795 0.0
H1080 H 0.60413 0.11474 0.99974 0.0
H1081 H 0.56043 0.07417 1.00815 0.0
C1082 C 0.67462 0.16032 0.96751 0.0
C1083 C 0.70076 0.16455 0.97303 0.0
C1084 C 0.65048 0.13711 0.97382 0.0
C1085 C 0.65201 0.11768 0.98587 0.0
C1086 C 0.67839 0.12177 0.99097 0.0
C1087 C 0.70255 0.14509 0.98468 0.0
C1088 C 0.59902 0.0444 0.99784 0.0
C1089 C 0.57576 0.04634 1.00343 0.0
C1090 C 0.62399 0.06759 0.99277 0.0
C1091 C 0.62617 0.09327 0.99292 0.0
C1092 C 0.60307 0.09525 0.99912 0.0
C1093 C 0.57811 0.07204 1.00423 0.0
H1094 H 0.82824 0.49495 0.96047 0.0
H1095 H 0.86112 0.57152 0.99078 0.0
H1096 H 0.86991 0.49288 0.9691 0.0
H1097 H 0.9027 0.56946 0.99982 0.0
H1098 H 0.98516 0.56876 0.99536 0.0
H1099 H 0.94417 0.57182 0.98669 0.0
H1100 H 0.89243 0.486 0.99744 0.0
H1101 H 0.93365 0.483 1.00556 0.0
C1102 C 0.84465 0.51154 0.96874 0.0
C1103 C 0.84178 0.53362 0.97467 0.0
C1104 C 0.86838 0.51021 0.97395 0.0
C1105 C 0.88977 0.53092 0.9853 0.0
C1106 C 0.88692 0.55327 0.99089 0.0
C1107 C 0.86314 0.55454 0.98569 0.0
C1108 C 0.96496 0.55062 0.99605 0.0
C1109 C 0.96262 0.52576 1.00151 0.0
C1110 C 0.94141 0.55236 0.99114 0.0
C1111 C 0.91482 0.52917 0.99129 0.0
C1112 C 0.91252 0.50426 0.99687 0.0
C1113 C 0.93613 0.50256 1.00183 0.0
H1114 H 0.46086 0.29274 0.00978 0.0
H1115 H 0.46828 0.31087 0.94708 0.0
H1116 H 0.46719 0.33747 0.01727 0.0
H1117 H 0.47448 0.35594 0.95453 0.0
H1118 H 0.46112 0.42606 0.98106 0.0
H1119 H 0.44921 0.37993 0.97166 0.0
H1120 H 0.51129 0.38402 0.0122 0.0
H1121 H 0.52384 0.43004 0.02113 0.0
C1122 C 0.46325 0.3062 0.99761 0.0
C1123 C 0.46403 0.29864 0.97792 0.0
C1124 C 0.46704 0.33177 1.00187 0.0
C1125 C 0.47157 0.35018 0.98648 0.0
C1126 C 0.4709 0.34203 0.96663 0.0
C1127 C 0.46736 0.31639 0.96237 0.0
C1128 C 0.47228 0.41715 0.98794 0.0
C1129 C 0.49306 0.43161 1.0022 0.0
C1130 C 0.46547 0.39079 0.98251 0.0
C1131 C 0.47907 0.37835 0.99143 0.0
C1132 C 0.5001 0.39295 1.00539 0.0
C1133 C 0.50719 0.41932 0.01057 0.0
H1134 H 0.16678 0.6971 0.09624 0.0
H1135 H 0.18218 0.71538 0.03376 0.0
H1136 H 0.1263 0.65271 0.08797 0.0
H1137 H 0.14227 0.67135 0.02548 0.0
H1138 H 0.10158 0.57871 0.02125 0.0
H1139 H 0.13664 0.62398 0.03122 0.0
H1140 H 0.07723 0.62995 0.06898 0.0
H1141 H 0.04134 0.58449 0.0584 0.0
C1142 C 0.16108 0.69179 0.08081 0.0
C1143 C 0.17728 0.70944 0.06558 0.0
C1144 C 0.13804 0.66651 0.07607 0.0
C1145 C 0.13134 0.65855 0.05608 0.0
C1146 C 0.1471 0.67686 0.04099 0.0
C1147 C 0.16979 0.70206 0.04571 0.0
C1148 C 0.09565 0.58969 0.03139 0.0
C1149 C 0.06834 0.57812 0.03856 0.0
C1150 C 0.11588 0.61564 0.0372 0.0
C1151 C 0.10957 0.63062 0.05068 0.0
C1152 C 0.0826 0.61884 0.05851 0.0
C1153 C 0.06209 0.59286 0.05241 0.0
H1154 H 0.29141 0.43128 0.04627 0.0
H1155 H 0.33344 0.50897 0.07538 0.0
H1156 H 0.33614 0.43553 0.03757 0.0
H1157 H 0.37836 0.51324 0.06713 0.0
H1158 H 0.45409 0.52569 0.03166 0.0
H1159 H 0.40878 0.52081 0.03928 0.0
H1160 H 0.37606 0.43559 0.05081 0.0
H1161 H 0.42105 0.44049 0.04261 0.0
C1162 C 0.31031 0.44897 0.05122 0.0
C1163 C 0.30905 0.46954 0.06181 0.0
C1164 C 0.33599 0.45151 0.0462 0.0
C1165 C 0.36109 0.47482 0.05154 0.0
C1166 C 0.35962 0.49519 0.06247 0.0
C1167 C 0.33389 0.4926 0.0675 0.0
C1168 C 0.43703 0.50584 0.03541 0.0
C1169 C 0.44097 0.48334 0.03611 0.0
C1170 C 0.41111 0.50307 0.0401 0.0
C1171 C 0.38857 0.47778 0.04579 0.0
C1172 C 0.39264 0.4553 0.04626 0.0
C1173 C 0.41849 0.4581 0.04161 0.0
H1174 H 0.52813 0.84439 0.10325 0.0
H1175 H 0.5325 0.82027 0.04319 0.0
H1176 H 0.52802 0.88479 0.09059 0.0
H1177 H 0.53259 0.86053 0.03044 0.0
H1178 H 0.48918 0.90968 0.01709 0.0
H1179 H 0.49616 0.87354 0.02951 0.0
H1180 H 0.55607 0.92864 0.07192 0.0
H1181 H 0.54942 0.96522 0.05928 0.0
C1182 C 0.52965 0.84813 0.08737 0.0
C1183 C 0.5304 0.82955 0.07411 0.0
C1184 C 0.52963 0.87118 0.08012 0.0
C1185 C 0.53007 0.87569 0.05951 0.0
C1186 C 0.53186 0.85741 0.04637 0.0
C1187 C 0.53203 0.83454 0.05363 0.0
C1188 C 0.50423 0.91435 0.0288 0.0
C1189 C 0.51899 0.94053 0.03696 0.0
C1190 C 0.50821 0.89355 0.03595 0.0
C1191 C 0.52681 0.89829 0.05161 0.0
C1192 C 0.54152 0.92439 0.05989 0.0
C1193 C 0.53774 0.94533 0.05258 0.0
H1194 H 0.95321 0.1967 0.37775 0.0
H1195 H 0.99679 0.18168 0.42459 0.0
H1196 H 0.99745 0.23268 0.36454 0.0
H1197 H 0.04116 0.21735 0.4111 0.0
H1198 H 0.11512 0.26561 0.36723 0.0
H1199 H 0.06991 0.22678 0.37632 0.0
H1200 H 0.03558 0.27977 0.38081 0.0
H1201 H 0.08081 0.31855 0.37227 0.0
C1202 C 0.97229 0.20103 0.38514 0.0
C1203 C 0.97161 0.18652 0.40225 0.0
C1204 C 0.99754 0.22156 0.37758 0.0
C1205 C 0.02268 0.22761 0.38672 0.0
C1206 C 0.02207 0.21285 0.40366 0.0
C1207 C 0.99674 0.19269 0.41148 0.0
C1208 C 0.09774 0.26879 0.36974 0.0
C1209 C 0.10127 0.29497 0.36881 0.0
C1210 C 0.072 0.24667 0.37511 0.0
C1211 C 0.04934 0.25035 0.37934 0.0
C1212 C 0.05266 0.27636 0.37754 0.0
C1213 C 0.07847 0.29849 0.37264 0.0
H1214 H 0.82549 0.77169 0.37608 0.0
H1215 H 0.83221 0.81649 0.42952 0.0
H1216 H 0.78696 0.77782 0.3647 0.0
H1217 H 0.79432 0.82335 0.41781 0.0
H1218 H 0.74677 0.85236 0.37275 0.0
H1219 H 0.78708 0.84775 0.3816 0.0
H1220 H 0.73441 0.76105 0.38491 0.0
H1221 H 0.69398 0.76568 0.3767 0.0
C1222 C 0.81889 0.78305 0.38529 0.0
C1223 C 0.83179 0.79354 0.40373 0.0
C1224 C 0.79688 0.78651 0.37879 0.0
C1225 C 0.7878 0.80116 0.39034 0.0
C1226 C 0.80105 0.81213 0.40857 0.0
C1227 C 0.82258 0.80808 0.41531 0.0
C1228 C 0.74388 0.83231 0.37508 0.0
C1229 C 0.71731 0.8093 0.37367 0.0
C1230 C 0.76689 0.82971 0.38028 0.0
C1231 C 0.76382 0.80403 0.38387 0.0
C1232 C 0.73736 0.78103 0.38208 0.0
C1233 C 0.71428 0.78369 0.3774 0.0
H1234 H 0.19902 0.03237 0.42247 0.0
H1235 H 0.27098 0.06635 0.38436 0.0
H1236 H 0.18585 0.98674 0.41048 0.0
H1237 H 0.25827 0.02069 0.37281 0.0
H1238 H 0.23909 0.92993 0.38167 0.0
H1239 H 0.25193 0.97559 0.39287 0.0
H1240 H 0.17296 0.9636 0.37277 0.0
H1241 H 0.16023 0.9181 0.36106 0.0
C1242 C 0.21204 0.02997 0.41163 0.0
C1243 C 0.23595 0.05269 0.40429 0.0
C1244 C 0.20448 0.00401 0.40473 0.0
C1245 C 0.22108 0.00038 0.39075 0.0
C1246 C 0.24522 0.02307 0.38363 0.0
C1247 C 0.25242 0.04907 0.39017 0.0
C1248 C 0.22447 0.93702 0.37962 0.0
C1249 C 0.19864 0.92044 0.37052 0.0
C1250 C 0.23188 0.96314 0.38595 0.0
C1251 C 0.21337 0.97292 0.3837 0.0
C1252 C 0.18749 0.95636 0.37473 0.0
C1253 C 0.1803 0.93044 0.36798 0.0
H1254 H 0.52605 0.64626 0.26955 0.0
H1255 H 0.49888 0.61876 0.3296 0.0
H1256 H 0.56219 0.68969 0.28246 0.0
H1257 H 0.5345 0.66251 0.34235 0.0
H1258 H 0.57978 0.75524 0.35387 0.0
H1259 H 0.54496 0.71088 0.34156 0.0
H1260 H 0.6059 0.70912 0.30285 0.0
H1261 H 0.641 0.75329 0.31541 0.0
C1262 C 0.52788 0.64928 0.2855 0.0
C1263 C 0.50937 0.62883 0.29849 0.0
C1264 C 0.54858 0.67427 0.29288 0.0
C1265 C 0.55116 0.67959 0.31343 0.0
C1266 C 0.53281 0.65919 0.32643 0.0
C1267 C 0.51231 0.6341 0.31908 0.0
C1268 C 0.58597 0.74529 0.34299 0.0
C1269 C 0.61341 0.75783 0.33588 0.0
C1270 C 0.56593 0.71984 0.33589 0.0
C1271 C 0.57267 0.70644 0.32125 0.0
C1272 C 0.60001 0.719 0.31402 0.0
C1273 C 0.62015 0.74432 0.3213 0.0
H1274 H 0.39681 0.90862 0.32827 0.0
H1275 H 0.35382 0.85753 0.27814 0.0
H1276 H 0.35281 0.90279 0.34099 0.0
H1277 H 0.30963 0.85107 0.29119 0.0
H1278 H 0.27197 0.91273 0.33414 0.0
H1279 H 0.31655 0.9168 0.32502 0.0
H1280 H 0.27886 0.82978 0.3257 0.0
H1281 H 0.23437 0.82574 0.33547 0.0
C1282 C 0.37792 0.89601 0.32004 0.0
C1283 C 0.3788 0.88362 0.30215 0.0
C1284 C 0.35276 0.89269 0.32732 0.0
C1285 C 0.32776 0.87633 0.31717 0.0
C1286 C 0.32854 0.86359 0.29943 0.0
C1287 C 0.35382 0.86746 0.29188 0.0
C1288 C 0.27338 0.8945 0.33277 0.0
C1289 C 0.2498 0.86897 0.33583 0.0
C1290 C 0.29886 0.89683 0.32752 0.0
C1291 C 0.30117 0.87362 0.32453 0.0
C1292 C 0.27766 0.84802 0.32782 0.0
C1293 C 0.25228 0.84571 0.33359 0.0
H1294 H 0.17696 0.52607 0.29834 0.0
H1295 H 0.08868 0.47085 0.29534 0.0
H1296 H 0.18366 0.49048 0.31256 0.0
H1297 H 0.09528 0.43514 0.30985 0.0
H1298 H 0.12232 0.37125 0.31536 0.0
H1299 H 0.11414 0.40633 0.30224 0.0
H1300 H 0.17572 0.46447 0.34243 0.0
H1301 H 0.18474 0.42953 0.35508 0.0
C1302 C 0.15893 0.50634 0.30088 0.0
C1303 C 0.13226 0.5013 0.29579 0.0
C1304 C 0.16276 0.48595 0.30912 0.0
C1305 C 0.14 0.45997 0.31253 0.0
C1306 C 0.11332 0.45483 0.30725 0.0
C1307 C 0.1095 0.47526 0.29892 0.0
C1308 C 0.13409 0.39147 0.32151 0.0
C1309 C 0.1542 0.39749 0.33634 0.0
C1310 C 0.12922 0.41159 0.31404 0.0
C1311 C 0.14428 0.43828 0.32122 0.0
C1312 C 0.164 0.44421 0.33634 0.0
C1313 C 0.16897 0.42408 0.34378 0.0
H1314 H 0.38968 0.48311 0.32125 0.0
H1315 H 0.33964 0.51148 0.29266 0.0
H1316 H 0.34757 0.44177 0.33172 0.0
H1317 H 0.2975 0.47018 0.30279 0.0
H1318 H 0.22796 0.40862 0.3415 0.0
H1319 H 0.27152 0.44939 0.3332 0.0
H1320 H 0.30811 0.40013 0.31881 0.0
H1321 H 0.26464 0.35944 0.32762 0.0
C1322 C 0.36961 0.48013 0.31686 0.0
C1323 C 0.36772 0.50009 0.30593 0.0
C1324 C 0.34551 0.45657 0.32289 0.0
C1325 C 0.31908 0.45272 0.31826 0.0
C1326 C 0.31744 0.47265 0.30692 0.0
C1327 C 0.34152 0.4961 0.30086 0.0
C1328 C 0.24549 0.40657 0.33702 0.0
C1329 C 0.24305 0.38088 0.33551 0.0
C1330 C 0.27037 0.42991 0.33197 0.0
C1331 C 0.2933 0.42807 0.32511 0.0
C1332 C 0.29101 0.40236 0.32417 0.0
C1333 C 0.26611 0.37904 0.32917 0.0
H1334 H 0.53676 0.91619 0.32781 0.0
H1335 H 0.49664 0.83843 0.29873 0.0
H1336 H 0.5772 0.91131 0.33477 0.0
H1337 H 0.53729 0.83354 0.3052 0.0
H1338 H 0.60138 0.82035 0.339 0.0
H1339 H 0.56119 0.82562 0.33194 0.0
H1340 H 0.61597 0.91069 0.32007 0.0
H1341 H 0.65588 0.90539 0.32774 0.0
C1342 C 0.53695 0.89832 0.3225 0.0
C1343 C 0.51388 0.8779 0.31245 0.0
C1344 C 0.5601 0.89545 0.3265 0.0
C1345 C 0.56068 0.87197 0.32061 0.0
C1346 C 0.53756 0.85173 0.31022 0.0
C1347 C 0.51441 0.85465 0.30624 0.0
C1348 C 0.60474 0.84022 0.33521 0.0
C1349 C 0.63176 0.86261 0.33443 0.0
C1350 C 0.58171 0.84322 0.33086 0.0
C1351 C 0.58516 0.86863 0.3254 0.0
C1352 C 0.61232 0.89091 0.32451 0.0
C1353 C 0.63527 0.88788 0.32884 0.0
H1354 H 0.10768 0.62505 0.30533 0.0
H1355 H 0.19489 0.66778 0.29123 0.0
H1356 H 0.11031 0.66815 0.31421 0.0
H1357 H 0.19768 0.71075 0.30001 0.0
H1358 H 0.19908 0.76907 0.3477 0.0
H1359 H 0.19339 0.72721 0.33392 0.0
H1360 H 0.12143 0.7153 0.30116 0.0
H1361 H 0.12701 0.75755 0.31508 0.0
C1362 C 0.12717 0.6438 0.3036 0.0
C1363 C 0.15107 0.64342 0.29754 0.0
C1364 C 0.12871 0.66838 0.30868 0.0
C1365 C 0.15427 0.69273 0.308 0.0
C1366 C 0.17779 0.69226 0.30091 0.0
C1367 C 0.17618 0.66778 0.29572 0.0
C1368 C 0.18191 0.75755 0.33766 0.0
C1369 C 0.16343 0.76665 0.33256 0.0
C1370 C 0.17884 0.73367 0.3296 0.0
C1371 C 0.15714 0.71814 0.3163 0.0
C1372 C 0.13834 0.72691 0.31137 0.0
C1373 C 0.14159 0.75109 0.31931 0.0
H1374 H 0.86508 0.03302 0.4019 0.0
H1375 H 0.80726 0.05986 0.38733 0.0
H1376 H 0.82858 0.98585 0.39714 0.0
H1377 H 0.77069 0.01278 0.38221 0.0
H1378 H 0.70603 0.92276 0.38697 0.0
H1379 H 0.74086 0.9684 0.39734 0.0
H1380 H 0.80449 0.95849 0.36832 0.0
H1381 H 0.76998 0.91282 0.35846 0.0
C1382 C 0.84433 0.02867 0.39807 0.0
C1383 C 0.83873 0.0498 0.39514 0.0
C1384 C 0.82352 0.00174 0.39513 0.0
C1385 C 0.79673 0.99549 0.38909 0.0
C1386 C 0.79096 0.01679 0.38703 0.0
C1387 C 0.81184 0.04373 0.38995 0.0
C1388 C 0.72747 0.93027 0.38289 0.0
C1389 C 0.73511 0.91417 0.37167 0.0
C1390 C 0.74742 0.9565 0.38876 0.0
C1391 C 0.77551 0.96717 0.38369 0.0
C1392 C 0.78314 0.95086 0.37273 0.0
C1393 C 0.76323 0.92473 0.36684 0.0
H1394 H 0.98572 0.83438 0.36927 0.0
H1395 H 0.97075 0.77415 0.4137 0.0
H1396 H 0.03051 0.83848 0.36146 0.0
H1397 H 0.01613 0.77862 0.40639 0.0
H1398 H 0.08536 0.77245 0.37426 0.0
H1399 H 0.04045 0.76845 0.38156 0.0
H1400 H 0.07649 0.8548 0.37342 0.0
H1401 H 0.12122 0.85851 0.3659 0.0
C1402 C 0.9923 0.82227 0.37756 0.0
C1403 C 0.97496 0.8041 0.39216 0.0
C1404 C 0.01806 0.82468 0.37315 0.0
C1405 C 0.02721 0.80895 0.38327 0.0
C1406 C 0.00975 0.79085 0.39807 0.0
C1407 C 0.98385 0.78841 0.40244 0.0
C1408 C 0.08353 0.7905 0.37383 0.0
C1409 C 0.10668 0.81568 0.36907 0.0
C1410 C 0.05784 0.78829 0.37822 0.0
C1411 C 0.05463 0.81129 0.37822 0.0
C1412 C 0.0779 0.83653 0.37336 0.0
C1413 C 0.10362 0.83871 0.36895 0.0
H1414 H 0.22323 0.16865 0.35746 0.0
H1415 H 0.24475 0.19753 0.41769 0.0
H1416 H 0.20677 0.20049 0.35152 0.0
H1417 H 0.22762 0.22926 0.41207 0.0
H1418 H 0.22697 0.30385 0.38539 0.0
H1419 H 0.2403 0.27031 0.39359 0.0
H1420 H 0.17061 0.2101 0.35982 0.0
H1421 H 0.1575 0.24374 0.35137 0.0
C1422 C 0.22408 0.18171 0.36949 0.0
C1423 C 0.23512 0.18083 0.38799 0.0
C1424 C 0.2145 0.19982 0.36616 0.0
C1425 C 0.21576 0.21743 0.38132 0.0
C1426 C 0.22661 0.2162 0.4 0.0
C1427 C 0.23624 0.198 0.4033 0.0
C1428 C 0.21441 0.28345 0.37974 0.0
C1429 C 0.19141 0.27665 0.36743 0.0
C1430 C 0.22196 0.26414 0.38458 0.0
C1431 C 0.20664 0.23751 0.37729 0.0
C1432 C 0.18321 0.23054 0.36539 0.0
C1433 C 0.17568 0.24986 0.36053 0.0
H1434 H 0.62203 0.53952 0.73076 0.0
H1435 H 0.66848 0.50021 0.74613 0.0
H1436 H 0.66309 0.57627 0.71495 0.0
H1437 H 0.71016 0.53761 0.73168 0.0
H1438 H 0.77996 0.59977 0.69532 0.0
H1439 H 0.73552 0.56051 0.7042 0.0
H1440 H 0.70471 0.61404 0.72098 0.0
H1441 H 0.74813 0.65266 0.71046 0.0
C1442 C 0.64124 0.53904 0.73097 0.0
C1443 C 0.64219 0.51718 0.73973 0.0
C1444 C 0.66491 0.56014 0.72198 0.0
C1445 C 0.69035 0.56027 0.72196 0.0
C1446 C 0.69107 0.53822 0.73087 0.0
C1447 C 0.66724 0.51686 0.73943 0.0
C1448 C 0.76327 0.60295 0.70021 0.0
C1449 C 0.76734 0.62926 0.70183 0.0
C1450 C 0.73788 0.58046 0.70574 0.0
C1451 C 0.71626 0.5838 0.71366 0.0
C1452 C 0.72034 0.61024 0.7147 0.0
C1453 C 0.74543 0.63256 0.70878 0.0
H1454 H 0.46875 0.09501 0.75642 0.0
H1455 H 0.52567 0.16232 0.71981 0.0
H1456 H 0.431 0.10132 0.74542 0.0
H1457 H 0.48731 0.16691 0.70727 0.0
H1458 H 0.41632 0.18626 0.70362 0.0
H1459 H 0.45576 0.18125 0.71338 0.0
H1460 H 0.40088 0.09493 0.72013 0.0
H1461 H 0.36156 0.10053 0.71144 0.0
C1462 C 0.4734 0.11122 0.74602 0.0
C1463 C 0.50068 0.12815 0.73919 0.0
C1464 C 0.4514 0.1145 0.7393 0.0
C1465 C 0.45567 0.13449 0.72516 0.0
C1466 C 0.48294 0.15144 0.71828 0.0
C1467 C 0.50506 0.14847 0.72529 0.0
C1468 C 0.41285 0.16621 0.70695 0.0
C1469 C 0.38588 0.14372 0.70658 0.0
C1470 C 0.43552 0.16324 0.71256 0.0
C1471 C 0.43182 0.13766 0.71788 0.0
C1472 C 0.40478 0.11511 0.71679 0.0
C1473 C 0.38215 0.11819 0.71154 0.0
H1474 H 0.84908 0.36666 0.73385 0.0
H1475 H 0.93175 0.3846 0.7493 0.0
H1476 H 0.83839 0.32209 0.72176 0.0
H1477 H 0.92185 0.34072 0.7363 0.0
H1478 H 0.88923 0.25143 0.72784 0.0
H1479 H 0.89796 0.29427 0.74151 0.0
H1480 H 0.84678 0.30021 0.69563 0.0
H1481 H 0.83638 0.25622 0.68284 0.0
C1482 C 0.86495 0.36097 0.7346 0.0
C1483 C 0.89116 0.37889 0.74257 0.0
C1484 C 0.85898 0.33556 0.7275 0.0
C1485 C 0.87928 0.3277 0.72788 0.0
C1486 C 0.90548 0.34573 0.73605 0.0
C1487 C 0.91125 0.37094 0.74347 0.0
C1488 C 0.87975 0.26178 0.72062 0.0
C1489 C 0.8623 0.25038 0.70403 0.0
C1490 C 0.88498 0.28659 0.72841 0.0
C1491 C 0.87328 0.30099 0.71966 0.0
C1492 C 0.8559 0.28963 0.70299 0.0
C1493 C 0.85026 0.26452 0.69541 0.0
H1494 H 0.19171 0.98282 0.60294 0.0
H1495 H 0.16766 0.95381 0.66312 0.0
H1496 H 0.22793 0.02628 0.61586 0.0
H1497 H 0.20312 0.9976 0.67586 0.0
H1498 H 0.24837 0.09055 0.68816 0.0
H1499 H 0.2129 0.04647 0.67566 0.0
H1500 H 0.27272 0.04455 0.63586 0.0
H1501 H 0.30842 0.0882 0.64864 0.0
C1502 C 0.19418 0.98553 0.61889 0.0
C1503 C 0.17655 0.96462 0.63192 0.0
C1504 C 0.21489 0.01053 0.62628 0.0
C1505 C 0.21827 0.01539 0.64688 0.0
C1506 C 0.20075 0.99459 0.65991 0.0
C1507 C 0.18033 0.9695 0.65255 0.0
C1508 C 0.25416 0.0806 0.67701 0.0
C1509 C 0.28146 0.09292 0.66966 0.0
C1510 C 0.23376 0.05535 0.66978 0.0
C1511 C 0.24002 0.04205 0.65477 0.0
C1512 C 0.26721 0.0544 0.64731 0.0
C1513 C 0.2877 0.07942 0.65474 0.0
H1514 H 0.04838 0.25026 0.61776 0.0
H1515 H 0.03771 0.18316 0.65407 0.0
H1516 H 1.00426 0.2437 0.62942 0.0
H1517 H 0.99453 0.17803 0.66701 0.0
H1518 H 0.90307 0.15824 0.67032 0.0
H1519 H 0.94781 0.16343 0.6606 0.0
H1520 H 0.98176 0.25004 0.65595 0.0
H1521 H 0.93674 0.2444 0.66476 0.0
C1522 C 0.03671 0.23405 0.62822 0.0
C1523 C 0.04699 0.21728 0.63483 0.0
C1524 C 0.01143 0.23059 0.63529 0.0
C1525 C 0.99562 0.21049 0.64946 0.0
C1526 C 0.00579 0.19362 0.65603 0.0
C1527 C 0.03095 0.19686 0.64876 0.0
C1528 C 0.92028 0.17839 0.66753 0.0
C1529 C 0.91648 0.20096 0.66845 0.0
C1530 C 0.94604 0.18145 0.66192 0.0
C1531 C 0.96865 0.20718 0.6571 0.0
C1532 C 0.96488 0.22979 0.65891 0.0
C1533 C 0.93912 0.22666 0.66423 0.0
H1534 H 0.82721 0.85862 0.64022 0.0
H1535 H 0.7468 0.79376 0.62248 0.0
H1536 H 0.84017 0.8257 0.65134 0.0
H1537 H 0.75889 0.76061 0.63454 0.0
H1538 H 0.79525 0.7064 0.64277 0.0
H1539 H 0.7851 0.73985 0.62938 0.0
H1540 H 0.83246 0.79497 0.67681 0.0
H1541 H 0.84436 0.76206 0.68938 0.0
C1542 C 0.81236 0.83722 0.6387 0.0
C1543 C 0.7861 0.82862 0.63043 0.0
C1544 C 0.81961 0.81832 0.64527 0.0
C1545 C 0.80054 0.79037 0.64407 0.0
C1546 C 0.77436 0.78188 0.63545 0.0
C1547 C 0.76733 0.80082 0.62855 0.0
C1548 C 0.80363 0.72565 0.65039 0.0
C1549 C 0.82042 0.73132 0.66738 0.0
C1550 C 0.79756 0.74486 0.64274 0.0
C1551 C 0.80771 0.77018 0.65202 0.0
C1552 C 0.82452 0.77587 0.66904 0.0
C1553 C 0.83103 0.75679 0.67649 0.0
H1554 H 0.03858 0.81157 0.61939 0.0
H1555 H 0.02867 0.85229 0.67008 0.0
H1556 H 0.99568 0.7699 0.62853 0.0
H1557 H 0.98624 0.81092 0.67945 0.0
H1558 H 0.89477 0.74291 0.67449 0.0
H1559 H 0.93881 0.78364 0.66715 0.0
H1560 H 0.97576 0.73427 0.65425 0.0
H1561 H 0.93156 0.69352 0.66171 0.0
C1562 C 0.02727 0.81145 0.63254 0.0
C1563 C 0.03668 0.83493 0.64405 0.0
C1564 C 1.00284 0.78766 0.63785 0.0
C1565 C 0.98742 0.7871 0.65471 0.0
C1566 C 0.9973 0.81071 0.66625 0.0
C1567 C 0.02165 0.83434 0.66096 0.0
C1568 C 0.91245 0.74081 0.67052 0.0
C1569 C 0.90992 0.71508 0.6691 0.0
C1570 C 0.9377 0.76414 0.66621 0.0
C1571 C 0.96087 0.76226 0.66005 0.0
C1572 C 0.95829 0.73646 0.65873 0.0
C1573 C 0.93308 0.71316 0.66316 0.0
H1574 H 0.20621 0.23874 0.62385 0.0
H1575 H 0.16339 0.18348 0.67191 0.0
H1576 H 0.24679 0.23328 0.6295 0.0
H1577 H 0.20382 0.17842 0.67803 0.0
H1578 H 0.27107 0.15517 0.67205 0.0
H1579 H 0.23043 0.15951 0.66498 0.0
H1580 H 0.28384 0.24475 0.65284 0.0
H1581 H 0.32443 0.2401 0.6597 0.0
C1582 C 0.20551 0.22533 0.63554 0.0
C1583 C 0.18172 0.21133 0.64734 0.0
C1584 C 0.22878 0.22234 0.63894 0.0
C1585 C 0.22872 0.20535 0.65426 0.0
C1586 C 0.20461 0.19128 0.6659 0.0
C1587 C 0.18145 0.19425 0.66246 0.0
C1588 C 0.27408 0.17488 0.66813 0.0
C1589 C 0.30092 0.19746 0.66694 0.0
C1590 C 0.25076 0.17741 0.664 0.0
C1591 C 0.25368 0.20254 0.65836 0.0
C1592 C 0.28066 0.22501 0.6569 0.0
C1593 C 0.30395 0.22244 0.66101 0.0
H1594 H 0.77353 0.96157 0.6223 0.0
H1595 H 0.79689 0.95793 0.68285 0.0
H1596 H 0.7885 0.00988 0.6267 0.0
H1597 H 0.8114 0.00565 0.68748 0.0
H1598 H 0.86177 0.0963 0.6837 0.0
H1599 H 0.84827 0.0496 0.67613 0.0
H1600 H 0.77544 0.03947 0.64551 0.0
H1601 H 0.78902 0.08643 0.65303 0.0
C1602 C 0.78178 0.97119 0.63652 0.0
C1603 C 0.78421 0.95644 0.65227 0.0
C1604 C 0.79024 0.99868 0.63908 0.0
C1605 C 0.80134 0.01162 0.6574 0.0
C1606 C 0.80345 0.99646 0.67309 0.0
C1607 C 0.79498 0.96915 0.67053 0.0
C1608 C 0.84281 0.08414 0.67541 0.0
C1609 C 0.82618 0.09495 0.66933 0.0
C1610 C 0.83509 0.05736 0.67105 0.0
C1611 C 0.81059 0.04073 0.66044 0.0
C1612 C 0.79449 0.05181 0.65364 0.0
C1613 C 0.80222 0.07868 0.65804 0.0
H1614 H 0.50612 0.36357 0.76377 0.0
H1615 H 0.52998 0.38216 0.70229 0.0
H1616 H 0.46475 0.32101 0.75366 0.0
H1617 H 0.48894 0.33998 0.69211 0.0
H1618 H 0.43948 0.24745 0.68586 0.0
H1619 H 0.47639 0.29164 0.69626 0.0
H1620 H 0.41914 0.30113 0.73408 0.0
H1621 H 0.38162 0.25674 0.72329 0.0
C1622 C 0.50215 0.35871 0.7481 0.0
C1623 C 0.52097 0.37593 0.73374 0.0
C1624 C 0.47855 0.33446 0.7423 0.0
C1625 C 0.47373 0.32703 0.72209 0.0
C1626 C 0.49225 0.34494 0.70779 0.0
C1627 C 0.51561 0.36914 0.71358 0.0
C1628 C 0.43446 0.25901 0.6961 0.0
C1629 C 0.40733 0.24861 0.70339 0.0
C1630 C 0.45574 0.28441 0.70213 0.0
C1631 C 0.45066 0.30003 0.71584 0.0
C1632 C 0.42369 0.28954 0.72349 0.0
C1633 C 0.4022 0.26414 0.71725 0.0
H1634 H 0.62365 0.09276 0.71101 0.0
H1635 H 0.66422 0.1713 0.73894 0.0
H1636 H 0.66877 0.09747 0.70311 0.0
H1637 H 0.70958 0.17603 0.73153 0.0
H1638 H 0.78639 0.1882 0.69758 0.0
H1639 H 0.7408 0.18314 0.70435 0.0
H1640 H 0.70848 0.09831 0.71726 0.0
H1641 H 0.75373 0.10336 0.70985 0.0
C1642 C 0.64232 0.11078 0.71586 0.0
C1643 C 0.64054 0.13144 0.72589 0.0
C1644 C 0.66823 0.11357 0.7113 0.0
C1645 C 0.69305 0.1372 0.71661 0.0
C1646 C 0.69106 0.15772 0.72693 0.0
C1647 C 0.66509 0.15488 0.73147 0.0
C1648 C 0.76937 0.1684 0.70147 0.0
C1649 C 0.77349 0.14604 0.70277 0.0
C1650 C 0.74328 0.16553 0.70566 0.0
C1651 C 0.72076 0.14029 0.71146 0.0
C1652 C 0.72504 0.11797 0.71259 0.0
C1653 C 0.75105 0.12086 0.70841 0.0
H1654 H 0.84608 0.48432 0.73377 0.0
H1655 H 0.93264 0.54108 0.7236 0.0
H1656 H 0.83485 0.52016 0.72779 0.0
H1657 H 0.92161 0.57705 0.71736 0.0
H1658 H 0.89252 0.6394 0.72099 0.0
H1659 H 0.90353 0.60509 0.73211 0.0
H1660 H 0.83505 0.54464 0.69758 0.0
H1661 H 0.82366 0.57868 0.68678 0.0
C1662 C 0.86272 0.50469 0.73068 0.0
C1663 C 0.89016 0.51025 0.72927 0.0
C1664 C 0.85632 0.5251 0.72705 0.0
C1665 C 0.87731 0.55136 0.7219 0.0
C1666 C 0.90501 0.55709 0.72144 0.0
C1667 C 0.91136 0.5366 0.72501 0.0
C1668 C 0.87975 0.61878 0.71581 0.0
C1669 C 0.85733 0.61185 0.70285 0.0
C1670 C 0.88614 0.59916 0.72214 0.0
C1671 C 0.87013 0.57216 0.71578 0.0
C1672 C 0.84757 0.5652 0.70297 0.0
C1673 C 0.84124 0.58481 0.69658 0.0
H1674 H 0.41336 0.88822 0.23278 0.0
H1675 H 0.49298 0.94269 0.25884 0.0
H1676 H 0.43038 0.90931 0.20035 0.0
H1677 H 0.5098 0.9645 0.22677 0.0
H1678 H 0.54248 0.98746 0.1647 0.0
H1679 H 0.52455 0.96166 0.19527 0.0
H1680 H 0.44264 0.94737 0.18064 0.0
H1681 H 0.4607 0.97226 0.1495 0.0
C1682 C 0.4345 0.90481 0.2316 0.0
C1683 C 0.45182 0.91364 0.24845 0.0
C1684 C 0.44428 0.91707 0.21296 0.0
C1685 C 0.47162 0.93878 0.21065 0.0
C1686 C 0.48887 0.94751 0.22761 0.0
C1687 C 0.47919 0.93503 0.24614 0.0
C1688 C 0.52058 0.97857 0.16795 0.0
C1689 C 0.50305 0.98203 0.15469 0.0
C1690 C 0.51025 0.96393 0.18564 0.0
C1691 C 0.48208 0.9526 0.19086 0.0
C1692 C 0.46437 0.95543 0.17723 0.0
C1693 C 0.4747 0.96978 0.15933 0.0
H1694 H 0.05378 0.5038 0.25812 0.0
H1695 H 0.1249 0.56774 0.22828 0.0
H1696 H 0.02613 0.4953 0.22807 0.0
H1697 H 0.09806 0.55831 0.19769 0.0
H1698 H 0.03718 0.55036 0.14952 0.0
H1699 H 0.06395 0.56103 0.18027 0.0
H1700 H 0.01798 0.47639 0.19696 0.0
H1701 H 0.99026 0.46645 0.16684 0.0
C1702 C 0.06347 0.51591 0.245 0.0
C1703 C 0.09137 0.53645 0.24547 0.0
C1704 C 0.04775 0.51091 0.22766 0.0
C1705 C 0.05975 0.52589 0.21017 0.0
C1706 C 0.08778 0.5466 0.21082 0.0
C1707 C 0.10329 0.55197 0.22832 0.0
C1708 C 0.03293 0.53416 0.15986 0.0
C1709 C 0.01165 0.50764 0.15592 0.0
C1710 C 0.04835 0.54017 0.17746 0.0
C1711 C 0.04325 0.51964 0.19135 0.0
C1712 C 0.0222 0.49297 0.18704 0.0
C1713 C 0.00641 0.48713 0.16967 0.0
H1714 H 0.51175 0.55541 0.25906 0.0
H1715 H 0.43977 0.55118 0.23145 0.0
H1716 H 0.52439 0.54316 0.22766 0.0
H1717 H 0.45287 0.53986 0.1996 0.0
H1718 H 0.47573 0.5008 0.14786 0.0
H1719 H 0.4589 0.50858 0.17947 0.0
H1720 H 0.54345 0.56401 0.19716 0.0
H1721 H 0.56 0.55555 0.16604 0.0
C1722 C 0.49855 0.5517 0.24622 0.0
C1723 C 0.47485 0.55436 0.24768 0.0
C1724 C 0.50592 0.54494 0.22813 0.0
C1725 C 0.49004 0.54106 0.21084 0.0
C1726 C 0.46559 0.54256 0.21253 0.0
C1727 C 0.45803 0.54903 0.23079 0.0
C1728 C 0.49061 0.51476 0.15851 0.0
C1729 C 0.51921 0.52733 0.15454 0.0
C1730 C 0.481 0.51926 0.17664 0.0
C1731 C 0.49977 0.53661 0.19115 0.0
C1732 C 0.52831 0.54984 0.18674 0.0
C1733 C 0.53786 0.54515 0.16879 0.0
H1734 H 0.89775 0.42301 0.80965 0.0
H1735 H 0.96783 0.48789 0.77943 0.0
H1736 H 0.92248 0.43822 0.84146 0.0
H1737 H 0.99282 0.50269 0.81115 0.0
H1738 H 0.03553 0.4864 0.86627 0.0
H1739 H 0.00943 0.47533 0.83534 0.0
H1740 H 0.94532 0.48413 0.86437 0.0
H1741 H 0.97212 0.497 0.89522 0.0
C1742 C 0.91832 0.44069 0.8099 0.0
C1743 C 0.93092 0.45436 0.79217 0.0
C1744 C 0.93239 0.4494 0.82804 0.0
C1745 C 0.95954 0.47153 0.82867 0.0
C1746 C 0.97193 0.48552 0.811 0.0
C1747 C 0.95762 0.47718 0.79293 0.0
C1748 C 0.01619 0.4866 0.86612 0.0
C1749 C 0.00621 0.4929 0.88341 0.0
C1750 C 1.00118 0.48008 0.84836 0.0
C1751 C 0.9755 0.47905 0.8475 0.0
C1752 C 0.96508 0.48474 0.86472 0.0
C1753 C 0.98039 0.49187 0.88243 0.0
H1754 H 0.56099 0.51143 0.77978 0.0
H1755 H 0.57114 0.44934 0.80867 0.0
H1756 H 0.54153 0.51827 0.81057 0.0
H1757 H 0.55232 0.45663 0.83956 0.0
H1758 H 0.55067 0.50803 0.89497 0.0
H1759 H 0.56862 0.49882 0.8646 0.0
H1760 H 0.49634 0.48686 0.83247 0.0
H1761 H 0.47735 0.49428 0.86288 0.0
C1762 C 0.55905 0.49929 0.79272 0.0
C1763 C 0.5674 0.47975 0.79182 0.0
C1764 C 0.54788 0.50314 0.81028 0.0
C1765 C 0.54548 0.488 0.82745 0.0
C1766 C 0.55406 0.46864 0.82659 0.0
C1767 C 0.56463 0.46436 0.8089 0.0
C1768 C 0.53821 0.50289 0.88161 0.0
C1769 C 0.5125 0.50216 0.88159 0.0
C1770 C 0.54867 0.4978 0.86415 0.0
C1771 C 0.53399 0.49239 0.84616 0.0
C1772 C 0.50829 0.4914 0.84608 0.0
C1773 C 0.49754 0.49587 0.86357 0.0
H1774 H 0.53849 0.12572 0.80813 0.0
H1775 H 0.54567 0.06193 0.77916 0.0
H1776 H 0.52941 0.10154 0.83996 0.0
H1777 H 0.5359 0.03748 0.81083 0.0
H1778 H 0.47472 0.98905 0.86294 0.0
H1779 H 0.48909 0.0163 0.83289 0.0
H1780 H 0.55495 0.0825 0.86519 0.0
H1781 H 0.54185 0.05461 0.89534 0.0
C1782 C 0.53844 0.10668 0.80863 0.0
C1783 C 0.54286 0.09574 0.79115 0.0
C1784 C 0.53331 0.09291 0.82684 0.0
C1785 C 0.53182 0.06758 0.82786 0.0
C1786 C 0.53683 0.05693 0.81047 0.0
C1787 C 0.54259 0.07098 0.79238 0.0
C1788 C 0.49266 0.00917 0.86377 0.0
C1789 C 0.50738 0.01918 0.88177 0.0
C1790 C 0.50074 0.02487 0.84646 0.0
C1791 C 0.52334 0.0514 0.84661 0.0
C1792 C 0.53746 0.06205 0.86464 0.0
C1793 C 0.52976 0.04607 0.88197 0.0
H1794 H 0.14477 0.2285 0.57592 0.0
H1795 H 0.10094 0.273 0.58148 0.0
H1796 H 0.16233 0.24947 0.54349 0.0
H1797 H 0.11763 0.29294 0.5489 0.0
H1798 H 0.13292 0.30596 0.48175 0.0
H1799 H 0.11346 0.28059 0.51264 0.0
H1800 H 0.19473 0.29594 0.52998 0.0
H1801 H 0.21407 0.3212 0.49919 0.0
C1802 C 0.13884 0.2427 0.57035 0.0
C1803 C 0.1212 0.24879 0.58154 0.0
C1804 C 0.14883 0.25464 0.55165 0.0
C1805 C 0.14124 0.27276 0.54347 0.0
C1806 C 0.12349 0.27868 0.55452 0.0
C1807 C 0.11381 0.26708 0.57329 0.0
C1808 C 0.14652 0.30356 0.49203 0.0
C1809 C 0.17507 0.31573 0.48803 0.0
C1810 C 0.13544 0.28923 0.50982 0.0
C1811 C 0.15255 0.28632 0.52389 0.0
C1812 C 0.1809 0.29761 0.51948 0.0
C1813 C 0.19203 0.31225 0.50187 0.0
H1814 H 0.77707 0.86428 0.56544 0.0
H1815 H 0.71163 0.87079 0.59474 0.0
H1816 H 0.75543 0.86141 0.53327 0.0
H1817 H 0.68961 0.86733 0.56274 0.0
H1818 H 0.66819 0.8833 0.50123 0.0
H1819 H 0.69313 0.88996 0.5324 0.0
H1820 H 0.71625 0.83126 0.51388 0.0
H1821 H 0.69182 0.82518 0.4825 0.0
C1822 C 0.758 0.86502 0.56499 0.0
C1823 C 0.74608 0.8678 0.58263 0.0
C1824 C 0.74551 0.86327 0.54656 0.0
C1825 C 0.72067 0.86405 0.54533 0.0
C1826 C 0.70897 0.86714 0.56301 0.0
C1827 C 0.72157 0.86909 0.5814 0.0
C1828 C 0.6786 0.87182 0.50385 0.0
C1829 C 0.67794 0.85363 0.48944 0.0
C1830 C 0.69285 0.87557 0.52176 0.0
C1831 C 0.70663 0.86105 0.5258 0.0
C1832 C 0.70627 0.84311 0.51122 0.0
C1833 C 0.69219 0.83954 0.49323 0.0
H1834 H 0.09886 0.8698 0.57099 0.0
H1835 H 0.18565 0.90486 0.58614 0.0
H1836 H 0.10759 0.85407 0.53935 0.0
H1837 H 0.1943 0.8907 0.55407 0.0
H1838 H 0.20004 0.89036 0.48431 0.0
H1839 H 0.18792 0.90412 0.51566 0.0
H1840 H 0.12894 0.82056 0.52867 0.0
H1841 H 0.14172 0.80674 0.49762 0.0
C1842 C 0.11971 0.87405 0.56777 0.0
C1843 C 0.14156 0.88903 0.58124 0.0
C1844 C 0.1247 0.86521 0.54953 0.0
C1845 C 0.1517 0.87159 0.54416 0.0
C1846 C 0.17338 0.88598 0.55768 0.0
C1847 C 0.16835 0.89424 0.57605 0.0
C1848 C 0.18428 0.87502 0.49378 0.0
C1849 C 0.17179 0.84752 0.48859 0.0
C1850 C 0.17745 0.88285 0.51172 0.0
C1851 C 0.15752 0.86337 0.52456 0.0
C1852 C 0.14426 0.83596 0.51899 0.0
C1853 C 0.15159 0.82808 0.5013 0.0
H1854 H 0.56353 0.78687 0.14814 0.0
H1855 H 0.63051 0.78738 0.11544 0.0
H1856 H 0.59226 0.80168 0.17797 0.0
H1857 H 0.65964 0.80291 0.14509 0.0
H1858 H 0.68961 0.79506 0.20666 0.0
H1859 H 0.66295 0.78479 0.17603 0.0
H1860 H 0.63144 0.83705 0.19451 0.0
H1861 H 0.65775 0.84678 0.22543 0.0
C1862 C 0.58465 0.79076 0.14723 0.0
C1863 C 0.59473 0.78584 0.12949 0.0
C1864 C 0.60116 0.79927 0.16434 0.0
C1865 C 0.62825 0.80327 0.16406 0.0
C1866 C 0.63868 0.79944 0.14603 0.0
C1867 C 0.62208 0.7907 0.12898 0.0
C1868 C 0.67717 0.80453 0.2041 0.0
C1869 C 0.67579 0.82172 0.21847 0.0
C1870 C 0.66194 0.79874 0.18647 0.0
C1871 C 0.64507 0.81017 0.18267 0.0
C1872 C 0.64387 0.82757 0.19702 0.0
C1873 C 0.65897 0.83319 0.21474 0.0
H1874 H 0.23311 0.77889 0.14107 0.0
H1875 H 0.22939 0.84605 0.11481 0.0
H1876 H 0.21502 0.78607 0.17248 0.0
H1877 H 0.21058 0.85271 0.14593 0.0
H1878 H 0.14517 0.8291 0.19715 0.0
H1879 H 0.16322 0.82049 0.16674 0.0
H1880 H 0.23424 0.82911 0.19878 0.0
H1881 H 0.21734 0.83957 0.22917 0.0
C1882 C 0.22822 0.79503 0.14201 0.0
C1883 C 0.2326 0.81192 0.12556 0.0
C1884 C 0.21804 0.79921 0.15995 0.0
C1885 C 0.21139 0.81991 0.16158 0.0
C1886 C 0.21543 0.83654 0.14503 0.0
C1887 C 0.22624 0.83279 0.12728 0.0
C1888 C 0.16488 0.82965 0.19783 0.0
C1889 C 0.17988 0.83551 0.2158 0.0
C1890 C 0.17506 0.82446 0.18035 0.0
C1891 C 0.20015 0.82425 0.18041 0.0
C1892 C 0.21474 0.82902 0.19838 0.0
C1893 C 0.20488 0.83484 0.21583 0.0
H1894 H 0.24134 0.45452 0.13665 0.0
H1895 H 0.16359 0.39121 0.11344 0.0
H1896 H 0.23039 0.4318 0.16911 0.0
H1897 H 0.15304 0.368 0.14525 0.0
H1898 H 0.12449 0.34571 0.20788 0.0
H1899 H 0.13865 0.37123 0.17701 0.0
H1900 H 0.22399 0.39461 0.18923 0.0
H1901 H 0.20958 0.36971 0.22078 0.0
C1902 C 0.22214 0.43551 0.13841 0.0
C1903 C 0.20319 0.42481 0.12254 0.0
C1904 C 0.21581 0.42243 0.15702 0.0
C1905 C 0.19049 0.39819 0.16013 0.0
C1906 C 0.17228 0.38702 0.14384 0.0
C1907 C 0.17843 0.40021 0.12545 0.0
C1908 C 0.14632 0.35648 0.20404 0.0
C1909 C 0.16586 0.35551 0.21672 0.0
C1910 C 0.15449 0.37096 0.18618 0.0
C1911 C 0.1825 0.38463 0.18016 0.0
C1912 C 0.20226 0.38448 0.19325 0.0
C1913 C 0.19404 0.3702 0.21136 0.0
H1914 H 0.78775 0.62062 0.92506 0.0
H1915 H 0.79056 0.55202 0.90077 0.0
H1916 H 0.80382 0.64435 0.89354 0.0
H1917 H 0.80526 0.57501 0.86868 0.0
H1918 H 0.85376 0.63339 0.81737 0.0
H1919 H 0.83905 0.60853 0.84882 0.0
H1920 H 0.79056 0.64692 0.8618 0.0
H1921 H 0.80675 0.67268 0.83105 0.0
C1922 C 0.79172 0.61057 0.91288 0.0
C1923 C 0.78787 0.58445 0.91543 0.0
C1924 C 0.80068 0.62405 0.89462 0.0
C1925 C 0.80553 0.61162 0.87814 0.0
C1926 C 0.80212 0.58557 0.88089 0.0
C1927 C 0.79361 0.57227 0.89933 0.0
C1928 C 0.83974 0.6362 0.82694 0.0
C1929 C 0.83143 0.65497 0.8218 0.0
C1930 C 0.8312 0.62192 0.84502 0.0
C1931 C 0.81379 0.62578 0.85828 0.0
C1932 C 0.80463 0.64383 0.85251 0.0
C1933 C 0.81358 0.65841 0.83469 0.0
H1934 H 0.44255 0.246 0.90653 0.0
H1935 H 0.39151 0.15966 0.91577 0.0
H1936 H 0.41793 0.24196 0.87554 0.0
H1937 H 0.3678 0.15568 0.88443 0.0
H1938 H 0.35618 0.15729 0.81627 0.0
H1939 H 0.38072 0.16217 0.84757 0.0
H1940 H 0.36889 0.2289 0.86421 0.0
H1941 H 0.34434 0.22402 0.83292 0.0
C1942 C 0.42597 0.2262 0.90211 0.0
C1943 C 0.41918 0.20315 0.91373 0.0
C1944 C 0.41197 0.22391 0.88428 0.0
C1945 C 0.3911 0.19848 0.8775 0.0
C1946 C 0.38412 0.17548 0.88912 0.0
C1947 C 0.39782 0.1778 0.90707 0.0
C1948 C 0.35898 0.17309 0.82657 0.0
C1949 C 0.34831 0.19024 0.82218 0.0
C1950 C 0.37283 0.17575 0.84453 0.0
C1951 C 0.37665 0.19587 0.85834 0.0
C1952 C 0.36637 0.21331 0.85381 0.0
C1953 C 0.35217 0.21039 0.83598 0.0
H1954 H 0.84458 0.21904 0.92604 0.0
H1955 H 0.77244 0.21384 0.89796 0.0
H1956 H 0.85713 0.20587 0.89501 0.0
H1957 H 0.78552 0.20175 0.86644 0.0
H1958 H 0.80799 0.16185 0.81537 0.0
H1959 H 0.7914 0.1703 0.84682 0.0
H1960 H 0.87615 0.22534 0.86433 0.0
H1961 H 0.89245 0.2161 0.8334 0.0
C1962 C 0.83132 0.2149 0.91318 0.0
C1963 C 0.80759 0.21751 0.91439 0.0
C1964 C 0.83865 0.20764 0.89527 0.0
C1965 C 0.82273 0.20326 0.87794 0.0
C1966 C 0.79827 0.20479 0.87941 0.0
C1967 C 0.79072 0.21171 0.89748 0.0
C1968 C 0.82298 0.17584 0.82596 0.0
C1969 C 0.85154 0.18809 0.82199 0.0
C1970 C 0.81349 0.18074 0.844 0.0
C1971 C 0.83238 0.19823 0.85841 0.0
C1972 C 0.86091 0.21109 0.85401 0.0
C1973 C 0.87033 0.20596 0.83616 0.0
H1974 H 0.29863 0.16214 0.45171 0.0
H1975 H 0.23576 0.08281 0.4718 0.0
H1976 H 0.31852 0.17245 0.48508 0.0
H1977 H 0.25675 0.09284 0.50481 0.0
H1978 H 0.33389 0.11012 0.54529 0.0
H1979 H 0.30721 0.10164 0.51454 0.0
H1980 H 0.30516 0.17566 0.52331 0.0
H1981 H 0.33137 0.18381 0.55447 0.0
C1982 C 0.28862 0.14709 0.46325 0.0
C1983 C 0.26572 0.12144 0.45886 0.0
C1984 C 0.30018 0.153 0.48236 0.0
C1985 C 0.28936 0.1333 0.49739 0.0
C1986 C 0.2657 0.10824 0.49337 0.0
C1987 C 0.25381 0.10249 0.47441 0.0
C1988 C 0.32756 0.12445 0.54069 0.0
C1989 C 0.33466 0.14762 0.55216 0.0
C1990 C 0.31219 0.11954 0.52321 0.0
C1991 C 0.3041 0.13798 0.51663 0.0
C1992 C 0.31117 0.16117 0.5281 0.0
C1993 C 0.32604 0.16577 0.54587 0.0
H1994 H 0.87784 0.10242 0.46255 0.0
H1995 H 0.92119 0.18978 0.45804 0.0
H1996 H 0.85973 0.10535 0.49495 0.0
H1997 H 0.90388 0.19254 0.49068 0.0
H1998 H 0.88559 0.18766 0.55775 0.0
H1999 H 0.90661 0.18282 0.5271 0.0
H2000 H 0.82625 0.11987 0.50719 0.0
H2001 H 0.80533 0.12471 0.53774 0.0
C2002 C 0.8836 0.12225 0.46839 0.0
C2003 C 0.90101 0.14584 0.45745 0.0
C2004 C 0.87328 0.12391 0.48704 0.0
C2005 C 0.88037 0.14918 0.49541 0.0
C2006 C 0.89832 0.17277 0.48479 0.0
C2007 C 0.90835 0.17113 0.46604 0.0
C2008 C 0.87252 0.17259 0.54692 0.0
C2009 C 0.84379 0.15666 0.55012 0.0
C2010 C 0.8845 0.16995 0.52931 0.0
C2011 C 0.86809 0.151 0.51467 0.0
C2012 C 0.83951 0.13451 0.5182 0.0
C2013 C 0.82749 0.13743 0.53564 0.0
H2014 H 0.90823 0.78757 0.46917 0.0
H2015 H 0.83046 0.72373 0.44643 0.0
H2016 H 0.89787 0.76498 0.50169 0.0
H2017 H 0.82051 0.70062 0.47827 0.0
H2018 H 0.79265 0.67837 0.54096 0.0
H2019 H 0.80634 0.70385 0.51006 0.0
H2020 H 0.89198 0.72803 0.52188 0.0
H2021 H 0.87803 0.7032 0.55348 0.0
C2022 C 0.88916 0.76847 0.47105 0.0
C2023 C 0.87003 0.75756 0.45531 0.0
C2024 C 0.88317 0.75546 0.48969 0.0
C2025 C 0.858 0.7311 0.49294 0.0
C2026 C 0.83964 0.71973 0.47676 0.0
C2027 C 0.84545 0.73285 0.45835 0.0
C2028 C 0.81444 0.68932 0.53704 0.0
C2029 C 0.83421 0.6886 0.54961 0.0
C2030 C 0.82235 0.70378 0.51915 0.0
C2031 C 0.8503 0.71764 0.51301 0.0
C2032 C 0.87029 0.71774 0.526 0.0
C2033 C 0.86233 0.7035 0.54414 0.0
loop_
_geom_bond_atom_site_label_1
_geom_bond_atom_site_label_2
_geom_bond_distance
_geom_bond_site_symmetry_2
_ccdc_geom_bond_type
H0 C3 0.929 . S
H1 C6 0.929 . S
H2 C8 0.930 . S
C3 H0 0.929 . S
C3 C4 1.398 . S
C3 C5 1.396 . S
C4 C3 1.398 . S
C4 C8 1.407 . S
C5 C3 1.396 . S
C5 C6 1.394 . S
C6 H1 0.929 . S
C6 C5 1.394 . S
C6 C7 1.382 . S
C7 C6 1.382 . S
C7 C8 1.392 . S
C7 N9 1.420 . S
C8 H2 0.930 . S
C8 C4 1.407 . S
C8 C7 1.392 . S
N9 C7 1.420 . S
N9 C10 1.244 . S
C10 N9 1.244 . S
H11 C14 0.929 . S
H12 C17 0.929 . S
H13 C19 0.930 . S
C14 H11 0.929 . S
C14 C15 1.398 . S
C14 C16 1.396 . S
C15 C14 1.398 . S
C15 C19 1.407 . S
C16 C14 1.396 . S
C16 C17 1.394 . S
C17 H12 0.929 . S
C17 C16 1.394 . S
C17 C18 1.382 . S
C18 C17 1.382 . S
C18 C19 1.392 . S
C18 N20 1.420 . S
C19 H13 0.930 . S
C19 C15 1.407 . S
C19 C18 1.392 . S
N20 C18 1.420 . S
N20 C21 1.244 . S
C21 N20 1.244 . S
H22 C25 0.929 . S
H23 C28 0.929 . S
H24 C30 0.930 . S
C25 H22 0.929 . S
C25 C26 1.398 . S
C25 C27 1.396 . S
C26 C25 1.398 . S
C26 C30 1.407 . S
C27 C25 1.396 . S
C27 C28 1.394 . S
C28 H23 0.929 . S
C28 C27 1.394 . S
C28 C29 1.382 . S
C29 C28 1.382 . S
C29 C30 1.392 . S
C29 N31 1.420 . S
C30 H24 0.930 . S
C30 C26 1.407 . S
C30 C29 1.392 . S
N31 C29 1.420 . S
N31 C32 1.244 . S
C32 N31 1.244 . S
H33 C36 0.929 . S
H34 C39 0.929 . S
H35 C41 0.930 . S
C36 H33 0.929 . S
C36 C37 1.398 . S
C36 C38 1.396 . S
C37 C36 1.398 . S
C37 C41 1.407 . S
C38 C36 1.396 . S
C38 C39 1.394 . S
C39 H34 0.929 . S
C39 C38 1.394 . S
C39 C40 1.382 . S
C40 C39 1.382 . S
C40 C41 1.392 . S
C40 N42 1.420 . S
C41 H35 0.930 . S
C41 C37 1.407 . S
C41 C40 1.392 . S
N42 C40 1.420 . S
N42 C43 1.244 . S
C43 N42 1.244 . S
H44 C47 0.929 . S
H45 C50 0.929 . S
H46 C52 0.930 . S
C47 H44 0.929 . S
C47 C48 1.398 . S
C47 C49 1.396 . S
C48 C47 1.398 . S
C48 C52 1.407 . S
C49 C47 1.396 . S
C49 C50 1.394 . S
C50 H45 0.929 . S
C50 C49 1.394 . S
C50 C51 1.382 . S
C51 C50 1.382 . S
C51 C52 1.392 . S
C51 N53 1.420 . S
C52 H46 0.930 . S
C52 C48 1.407 . S
C52 C51 1.392 . S
N53 C51 1.420 . S
N53 C54 1.244 . S
C54 N53 1.244 . S
H55 C58 0.929 . S
H56 C61 0.929 . S
H57 C63 0.930 . S
C58 H55 0.929 . S
C58 C59 1.398 . S
C58 C60 1.396 . S
C59 C58 1.398 . S
C59 C63 1.407 . S
C60 C58 1.396 . S
C60 C61 1.394 . S
C61 H56 0.929 . S
C61 C60 1.394 . S
C61 C62 1.382 . S
C62 C61 1.382 . S
C62 C63 1.392 . S
C62 N64 1.420 . S
C63 H57 0.930 . S
C63 C59 1.407 . S
C63 C62 1.392 . S
N64 C62 1.420 . S
N64 C65 1.244 . S
C65 N64 1.244 . S
H66 C69 0.929 . S
H67 C72 0.929 . S
H68 C74 0.930 . S
C69 H66 0.929 . S
C69 C70 1.398 . S
C69 C71 1.396 . S
C70 C69 1.398 . S
C70 C74 1.407 . S
C71 C69 1.396 . S
C71 C72 1.394 . S
C72 H67 0.929 . S
C72 C71 1.394 . S
C72 C73 1.382 . S
C73 C72 1.382 . S
C73 C74 1.392 . S
C73 N75 1.420 . S
C74 H68 0.930 . S
C74 C70 1.407 . S
C74 C73 1.392 . S
N75 C73 1.420 . S
N75 C76 1.244 . S
C76 N75 1.244 . S
H77 C80 0.929 . S
H78 C83 0.929 . S
H79 C85 0.930 . S
C80 H77 0.929 . S
C80 C81 1.398 . S
C80 C82 1.396 . S
C81 C80 1.398 . S
C81 C85 1.407 . S
C82 C80 1.396 . S
C82 C83 1.394 . S
C83 H78 0.929 . S
C83 C82 1.394 . S
C83 C84 1.382 . S
C84 C83 1.382 . S
C84 C85 1.392 . S
C84 N86 1.420 . S
C85 H79 0.930 . S
C85 C81 1.407 . S
C85 C84 1.392 . S
N86 C84 1.420 . S
N86 C87 1.244 . S
C87 N86 1.244 . S
H88 C91 0.929 . S
H89 C94 0.929 . S
H90 C96 0.930 . S
C91 H88 0.929 . S
C91 C92 1.398 . S
C91 C93 1.396 . S
C92 C91 1.398 . S
C92 C96 1.407 . S
C93 C91 1.396 . S
C93 C94 1.394 . S
C94 H89 0.929 . S
C94 C93 1.394 . S
C94 C95 1.382 . S
C95 C94 1.382 . S
C95 C96 1.392 . S
C95 N97 1.420 . S
C96 H90 0.930 . S
C96 C92 1.407 . S
C96 C95 1.392 . S
N97 C95 1.420 . S
N97 C98 1.244 . S
C98 N97 1.244 . S
H99 C102 0.929 . S
H100 C105 0.929 . S
H101 C107 0.930 . S
C102 H99 0.929 . S
C102 C103 1.398 . S
C102 C104 1.396 . S
C103 C102 1.398 . S
C103 C107 1.407 . S
C104 C102 1.396 . S
C104 C105 1.394 . S
C105 H100 0.929 . S
C105 C104 1.394 . S
C105 C106 1.382 . S
C106 C105 1.382 . S
C106 C107 1.392 . S
C106 N108 1.420 . S
C107 H101 0.930 . S
C107 C103 1.407 . S
C107 C106 1.392 . S
N108 C106 1.420 . S
N108 C109 1.244 . S
C109 N108 1.244 . S
H110 C113 0.929 . S
H111 C116 0.929 . S
H112 C118 0.930 . S
C113 H110 0.929 . S
C113 C114 1.398 . S
C113 C115 1.396 . S
C114 C113 1.398 . S
C114 C118 1.407 . S
C115 C113 1.396 . S
C115 C116 1.394 . S
C116 H111 0.929 . S
C116 C115 1.394 . S
C116 C117 1.382 . S
C117 C116 1.382 . S
C117 C118 1.392 . S
C117 N119 1.420 . S
C118 H112 0.930 . S
C118 C114 1.407 . S
C118 C117 1.392 . S
N119 C117 1.420 . S
N119 C120 1.244 . S
C120 N119 1.244 . S
H121 C124 0.929 . S
H122 C127 0.929 . S
H123 C129 0.930 . S
C124 H121 0.929 . S
C124 C125 1.398 . S
C124 C126 1.396 . S
C125 C124 1.398 . S
C125 C129 1.407 . S
C126 C124 1.396 . S
C126 C127 1.394 . S
C127 H122 0.929 . S
C127 C126 1.394 . S
C127 C128 1.382 . S
C128 C127 1.382 . S
C128 C129 1.392 . S
C128 N130 1.420 . S
C129 H123 0.930 . S
C129 C125 1.407 . S
C129 C128 1.392 . S
N130 C128 1.420 . S
N130 C131 1.244 . S
C131 N130 1.244 . S
H132 C135 0.929 . S
H133 C138 0.929 . S
H134 C140 0.930 . S
C135 H132 0.929 . S
C135 C136 1.398 . S
C135 C137 1.396 . S
C136 C135 1.398 . S
C136 C140 1.407 . S
C137 C135 1.396 . S
C137 C138 1.394 . S
C138 H133 0.929 . S
C138 C137 1.394 . S
C138 C139 1.382 . S
C139 C138 1.382 . S
C139 C140 1.392 . S
C139 N141 1.420 . S
C140 H134 0.930 . S
C140 C136 1.407 . S
C140 C139 1.392 . S
N141 C139 1.420 . S
N141 C142 1.244 . S
C142 N141 1.244 . S
H143 C146 0.929 . S
H144 C149 0.929 . S
H145 C151 0.930 . S
C146 H143 0.929 . S
C146 C147 1.398 . S
C146 C148 1.396 . S
C147 C146 1.398 . S
C147 C151 1.407 . S
C148 C146 1.396 . S
C148 C149 1.394 . S
C149 H144 0.929 . S
C149 C148 1.394 . S
C149 C150 1.382 . S
C150 C149 1.382 . S
C150 C151 1.392 . S
C150 N152 1.420 . S
C151 H145 0.930 . S
C151 C147 1.407 . S
C151 C150 1.392 . S
N152 C150 1.420 . S
N152 C153 1.244 . S
C153 N152 1.244 . S
H154 C157 0.929 . S
H155 C160 0.929 . S
H156 C162 0.930 . S
C157 H154 0.929 . S
C157 C158 1.398 . S
C157 C159 1.396 . S
C158 C157 1.398 . S
C158 C162 1.407 . S
C159 C157 1.396 . S
C159 C160 1.394 . S
C160 H155 0.929 . S
C160 C159 1.394 . S
C160 C161 1.382 . S
C161 C160 1.382 . S
C161 C162 1.392 . S
C161 N163 1.420 . S
C162 H156 0.930 . S
C162 C158 1.407 . S
C162 C161 1.392 . S
N163 C161 1.420 . S
N163 C164 1.244 . S
C164 N163 1.244 . S
H165 C168 0.929 . S
H166 C171 0.929 . S
H167 C173 0.930 . S
C168 H165 0.929 . S
C168 C169 1.398 . S
C168 C170 1.396 . S
C169 C168 1.398 . S
C169 C173 1.407 . S
C170 C168 1.396 . S
C170 C171 1.394 . S
C171 H166 0.929 . S
C171 C170 1.394 . S
C171 C172 1.382 . S
C172 C171 1.382 . S
C172 C173 1.392 . S
C172 N174 1.420 . S
C173 H167 0.930 . S
C173 C169 1.407 . S
C173 C172 1.392 . S
N174 C172 1.420 . S
N174 C175 1.244 . S
C175 N174 1.244 . S
H176 C179 0.929 . S
H177 C182 0.929 . S
H178 C184 0.930 . S
C179 H176 0.929 . S
C179 C180 1.398 . S
C179 C181 1.396 . S
C180 C179 1.398 . S
C180 C184 1.407 . S
C181 C179 1.396 . S
C181 C182 1.394 . S
C182 H177 0.929 . S
C182 C181 1.394 . S
C182 C183 1.382 . S
C183 C182 1.382 . S
C183 C184 1.392 . S
C183 N185 1.420 . S
C184 H178 0.930 . S
C184 C180 1.407 . S
C184 C183 1.392 . S
N185 C183 1.420 . S
N185 C186 1.244 . S
C186 N185 1.244 . S
H187 C190 0.929 . S
H188 C193 0.929 . S
H189 C195 0.930 . S
C190 H187 0.929 . S
C190 C191 1.398 . S
C190 C192 1.396 . S
C191 C190 1.398 . S
C191 C195 1.407 . S
C192 C190 1.396 . S
C192 C193 1.394 . S
C193 H188 0.929 . S
C193 C192 1.394 . S
C193 C194 1.382 . S
C194 C193 1.382 . S
C194 C195 1.392 . S
C194 N196 1.420 . S
C195 H189 0.930 . S
C195 C191 1.407 . S
C195 C194 1.392 . S
N196 C194 1.420 . S
N196 C197 1.244 . S
C197 N196 1.244 . S
Eu198 N229 2.657 . S
Eu198 N236 2.609 . S
Eu198 O242 2.558 . S
Eu198 O243 2.612 1_566 S
Eu198 O245 2.339 1_565 S
Eu198 O246 2.563 1_565 S
Eu198 O247 2.419 1_565 S
Eu198 O249 2.380 1_556 S
Eu198 O250 2.431 1_556 S
Eu198 C262 2.846 1_565 S
C199 C202 1.429 . S
C199 C203 1.411 . S
C199 N206 1.377 . S
C200 C202 1.420 . S
C200 C204 1.423 . S
C200 C212 1.392 . S
C201 C203 1.420 . S
C201 C204 1.351 . S
C201 H224 0.931 . S
C202 C199 1.429 . S
C202 C200 1.420 . S
C202 N210 1.362 . S
C203 C199 1.411 . S
C203 C201 1.420 . S
C203 C208 1.395 . S
C204 C200 1.423 . S
C204 C201 1.351 . S
C204 H216 0.930 . S
C205 C207 1.400 . S
C205 C208 1.386 . S
C205 H217 0.930 . S
N206 C199 1.377 . S
N206 C207 1.321 . S
N206 Eu209 2.609 . S
C207 C205 1.400 . S
C207 N206 1.321 . S
C207 H214 0.930 . S
C208 C203 1.395 . S
C208 C205 1.386 . S
C208 H227 0.930 . S
Eu209 N206 2.609 . S
Eu209 N210 2.657 . S
Eu209 O243 2.380 . S
Eu209 O244 2.432 . S
Eu209 O248 2.558 . S
Eu209 O249 2.612 1_545 S
Eu209 O251 2.339 1_545 S
Eu209 O252 2.563 1_545 S
Eu209 O253 2.419 1_545 S
Eu209 C273 2.848 . S
N210 C202 1.362 . S
N210 Eu209 2.657 . S
N210 C211 1.334 . S
C211 N210 1.334 . S
C211 C213 1.413 . S
C211 H218 0.929 . S
C212 C200 1.392 . S
C212 C213 1.367 . S
C212 H220 0.930 . S
C213 C211 1.413 . S
C213 C212 1.367 . S
C213 H215 0.930 . S
H214 C207 0.930 . S
H215 C213 0.930 . S
H216 C204 0.930 . S
H217 C205 0.930 . S
H218 C211 0.929 . S
H219 C233 0.930 . S
H220 C212 0.930 . S
H221 C239 0.930 . S
H222 C230 0.965 . S
H223 C237 0.930 . S
H224 C201 0.931 . S
H225 C231 0.930 . S
H226 C264 0.930 . S
H227 C208 0.930 . S
H228 C263 0.931 . S
N229 Eu198 2.657 . S
N229 C230 1.334 . S
N229 C234 1.362 . S
C230 H222 0.965 . S
C230 N229 1.334 . S
C230 C233 1.413 . S
C231 H225 0.930 . S
C231 C232 1.392 . S
C231 C233 1.367 . S
C232 C231 1.392 . S
C232 C234 1.420 . S
C232 C264 1.423 . S
C233 H219 0.930 . S
C233 C230 1.413 . S
C233 C231 1.367 . S
C234 N229 1.362 . S
C234 C232 1.420 . S
C234 C238 1.429 . S
H235 C240 0.930 . S
N236 Eu198 2.609 . S
N236 C238 1.377 . S
N236 C239 1.321 . S
C237 H223 0.930 . S
C237 C239 1.400 . S
C237 C240 1.386 . S
C238 C234 1.429 . S
C238 N236 1.377 . S
C238 C241 1.411 . S
C239 H221 0.930 . S
C239 N236 1.321 . S
C239 C237 1.400 . S
C240 H235 0.930 . S
C240 C237 1.386 . S
C240 C241 1.395 . S
C241 C238 1.411 . S
C241 C240 1.395 . S
C241 C263 1.420 . S
O242 Eu198 2.558 . S
O242 C262 1.239 1_565 S
O243 Eu198 2.612 1_544 S
O243 Eu209 2.380 . S
O243 C254 1.276 1_554 S
O244 Eu209 2.432 . S
O244 C261 1.264 . S
O245 Eu198 2.339 1_545 S
O245 C261 1.254 1_556 S
O246 Eu198 2.563 1_545 S
O246 C254 1.235 . S
O247 Eu198 2.419 1_545 S
O247 C262 1.265 . S
O248 Eu209 2.558 . S
O248 C273 1.257 . S
O249 Eu198 2.380 1_554 S
O249 Eu209 2.612 1_565 S
O249 C265 1.276 . S
O250 Eu198 2.431 1_554 S
O250 C272 1.267 . S
O251 Eu209 2.339 1_565 S
O251 C272 1.254 . S
O252 Eu209 2.563 1_565 S
O252 C265 1.235 . S
O253 Eu209 2.419 1_565 S
O253 C273 1.249 1_565 S
C254 O243 1.276 1_556 S
C254 O246 1.235 . S
C255 C257 1.393 . S
C255 C259 1.395 1_545 S
C255 C262 1.495 . S
C256 C257 1.392 . S
C256 C258 1.386 . S
C257 C255 1.393 . S
C257 C256 1.392 . S
C257 H274 0.930 . S
C258 C256 1.386 . S
C258 C260 1.395 1_545 S
C258 H275 0.930 . S
C259 C255 1.395 1_565 S
C259 C260 1.379 . S
C259 H276 0.930 . S
C260 C258 1.395 1_565 S
C260 C259 1.379 . S
C260 H277 0.930 . S
C261 O244 1.264 . S
C261 O245 1.254 1_554 S
C262 Eu198 2.846 1_545 S
C262 O242 1.239 1_545 S
C262 O247 1.265 . S
C262 C255 1.495 . S
C263 H228 0.931 . S
C263 C241 1.420 . S
C263 C264 1.351 . S
C264 H226 0.930 . S
C264 C232 1.423 . S
C264 C263 1.351 . S
C265 O249 1.276 . S
C265 O252 1.235 . S
C266 C267 1.393 1_545 S
C266 C270 1.395 . S
C266 C273 1.492 . S
C267 C266 1.393 1_565 S
C267 C268 1.392 . S
C267 H278 0.930 . S
C268 C267 1.392 . S
C268 C269 1.386 . S
C269 C268 1.386 . S
C269 C271 1.395 1_565 S
C269 H279 0.930 . S
C270 C266 1.395 . S
C270 C271 1.379 . S
C270 H280 0.930 . S
C271 C269 1.395 1_545 S
C271 C270 1.379 . S
C271 H281 0.930 . S
C272 O250 1.267 . S
C272 O251 1.254 . S
C273 Eu209 2.848 . S
C273 O248 1.257 . S
C273 O253 1.249 1_545 S
C273 C266 1.492 . S
H274 C257 0.930 . S
H275 C258 0.930 . S
H276 C259 0.930 . S
H277 C260 0.930 . S
H278 C267 0.930 . S
H279 C269 0.930 . S
H280 C270 0.930 . S
H281 C271 0.930 . S
Eu282 N313 2.657 . S
Eu282 N320 2.609 . S
Eu282 O326 2.558 . S
Eu282 O327 2.612 1_456 S
Eu282 O329 2.339 1_455 S
Eu282 O330 2.563 1_455 S
Eu282 O331 2.419 . S
Eu282 O333 2.380 1_556 S
Eu282 O334 2.432 1_556 S
Eu282 C346 2.848 . S
C283 C286 1.429 . S
C283 C287 1.411 . S
C283 N290 1.377 . S
C284 C286 1.420 . S
C284 C288 1.423 . S
C284 C296 1.392 . S
C285 C287 1.420 . S
C285 C288 1.351 . S
C285 H308 0.931 . S
C286 C283 1.429 . S
C286 C284 1.420 . S
C286 N294 1.362 . S
C287 C283 1.411 . S
C287 C285 1.420 . S
C287 C292 1.395 . S
C288 C284 1.423 . S
C288 C285 1.351 . S
C288 H300 0.930 . S
C289 C291 1.400 . S
C289 C292 1.386 . S
C289 H301 0.930 . S
N290 C283 1.377 . S
N290 C291 1.321 . S
N290 Eu293 2.609 . S
C291 C289 1.400 . S
C291 N290 1.321 . S
C291 H298 0.930 . S
C292 C287 1.395 . S
C292 C289 1.386 . S
C292 H311 0.930 . S
Eu293 N290 2.609 . S
Eu293 N294 2.657 . S
Eu293 O327 2.380 . S
Eu293 O328 2.432 . S
Eu293 O332 2.558 . S
Eu293 O333 2.612 1_655 S
Eu293 O335 2.339 1_655 S
Eu293 O336 2.563 1_655 S
Eu293 O337 2.419 1_655 S
Eu293 C357 2.848 . S
N294 C286 1.362 . S
N294 Eu293 2.657 . S
N294 C295 1.334 . S
C295 N294 1.334 . S
C295 C297 1.413 . S
C295 H302 0.929 . S
C296 C284 1.392 . S
C296 C297 1.367 . S
C296 H304 0.930 . S
C297 C295 1.413 . S
C297 C296 1.367 . S
C297 H299 0.930 . S
H298 C291 0.930 . S
H299 C297 0.930 . S
H300 C288 0.930 . S
H301 C289 0.930 . S
H302 C295 0.929 . S
H303 C317 0.930 . S
H304 C296 0.930 . S
H305 C323 0.930 . S
H306 C314 0.929 . S
H307 C321 0.930 . S
H308 C285 0.931 . S
H309 C315 0.930 . S
H310 C348 0.930 . S
H311 C292 0.930 . S
H312 C347 0.931 . S
N313 Eu282 2.657 . S
N313 C314 1.334 . S
N313 C318 1.362 . S
C314 H306 0.929 . S
C314 N313 1.334 . S
C314 C317 1.413 . S
C315 H309 0.930 . S
C315 C316 1.392 . S
C315 C317 1.367 . S
C316 C315 1.392 . S
C316 C318 1.420 . S
C316 C348 1.423 . S
C317 H303 0.930 . S
C317 C314 1.413 . S
C317 C315 1.367 . S
C318 N313 1.362 . S
C318 C316 1.420 . S
C318 C322 1.429 . S
H319 C324 0.930 . S
N320 Eu282 2.609 . S
N320 C322 1.377 . S
N320 C323 1.321 . S
C321 H307 0.930 . S
C321 C323 1.400 . S
C321 C324 1.386 . S
C322 C318 1.429 . S
C322 N320 1.377 . S
C322 C325 1.411 . S
C323 H305 0.930 . S
C323 N320 1.321 . S
C323 C321 1.400 . S
C324 H319 0.930 . S
C324 C321 1.386 . S
C324 C325 1.395 . S
C325 C322 1.411 . S
C325 C324 1.395 . S
C325 C347 1.420 . S
O326 Eu282 2.558 . S
O326 C346 1.257 . S
O327 Eu282 2.612 1_654 S
O327 Eu293 2.380 . S
O327 C338 1.276 1_554 S
O328 Eu293 2.432 . S
O328 C345 1.264 . S
O329 Eu282 2.339 1_655 S
O329 C345 1.254 1_556 S
O330 Eu282 2.563 1_655 S
O330 C338 1.235 . S
O331 Eu282 2.419 . S
O331 C346 1.249 . S
O332 Eu293 2.558 . S
O332 C357 1.257 . S
O333 Eu282 2.380 1_554 S
O333 Eu293 2.612 1_455 S
O333 C349 1.276 . S
O334 Eu282 2.432 1_554 S
O334 C356 1.264 . S
O335 Eu293 2.339 1_455 S
O335 C356 1.254 . S
O336 Eu293 2.563 1_455 S
O336 C349 1.235 . S
O337 Eu293 2.419 1_455 S
O337 C357 1.249 1_455 S
C338 O327 1.276 1_556 S
C338 O330 1.235 . S
C339 C341 1.393 1_455 S
C339 C343 1.395 . S
C339 C346 1.492 . S
C340 C341 1.392 . S
C340 C342 1.386 . S
C341 C339 1.393 1_655 S
C341 C340 1.392 . S
C341 H358 0.930 . S
C342 C340 1.386 . S
C342 C344 1.395 1_655 S
C342 H359 0.930 . S
C343 C339 1.395 . S
C343 C344 1.379 . S
C343 H360 0.930 . S
C344 C342 1.395 1_455 S
C344 C343 1.379 . S
C344 H361 0.930 . S
C345 O328 1.264 . S
C345 O329 1.254 1_554 S
C346 Eu282 2.848 . S
C346 O326 1.257 . S
C346 O331 1.249 . S
C346 C339 1.492 . S
C347 H312 0.931 . S
C347 C325 1.420 . S
C347 C348 1.351 . S
C348 H310 0.930 . S
C348 C316 1.423 . S
C348 C347 1.351 . S
C349 O333 1.276 . S
C349 O336 1.235 . S
C350 C351 1.393 . S
C350 C354 1.395 1_455 S
C350 C357 1.492 1_455 S
C351 C350 1.393 . S
C351 C352 1.392 . S
C351 H362 0.930 . S
C352 C351 1.392 . S
C352 C353 1.386 . S
C353 C352 1.386 . S
C353 C355 1.395 1_455 S
C353 H363 0.930 . S
C354 C350 1.395 1_655 S
C354 C355 1.379 . S
C354 H364 0.930 . S
C355 C353 1.395 1_655 S
C355 C354 1.379 . S
C355 H365 0.930 . S
C356 O334 1.264 . S
C356 O335 1.254 . S
C357 Eu293 2.848 . S
C357 O332 1.257 . S
C357 O337 1.249 1_655 S
C357 C350 1.492 1_655 S
H358 C341 0.930 . S
H359 C342 0.930 . S
H360 C343 0.930 . S
H361 C344 0.930 . S
H362 C351 0.930 . S
H363 C353 0.930 . S
H364 C354 0.930 . S
H365 C355 0.930 . S
Eu366 N397 2.657 . S
Eu366 N404 2.609 . S
Eu366 O410 2.558 . S
Eu366 O411 2.612 . S
Eu366 O413 2.339 . S
Eu366 O414 2.563 . S
Eu366 O415 2.419 . S
Eu366 O417 2.380 . S
Eu366 O418 2.432 . S
Eu366 C430 2.848 . S
C367 C370 1.429 . S
C367 C371 1.411 . S
C367 N374 1.377 . S
C368 C370 1.420 . S
C368 C372 1.423 . S
C368 C380 1.392 . S
C369 C371 1.420 . S
C369 C372 1.351 . S
C369 H392 0.931 . S
C370 C367 1.429 . S
C370 C368 1.420 . S
C370 N378 1.362 . S
C371 C367 1.411 . S
C371 C369 1.420 . S
C371 C376 1.395 . S
C372 C368 1.423 . S
C372 C369 1.351 . S
C372 H384 0.930 . S
C373 C375 1.400 . S
C373 C376 1.386 . S
C373 H385 0.930 . S
N374 C367 1.377 . S
N374 C375 1.321 . S
N374 Eu377 2.609 . S
C375 C373 1.400 . S
C375 N374 1.321 . S
C375 H382 0.930 . S
C376 C371 1.395 . S
C376 C373 1.386 . S
C376 H395 0.930 . S
Eu377 N374 2.609 . S
Eu377 N378 2.657 . S
Eu377 O411 2.380 1_556 S
Eu377 O412 2.432 1_556 S
Eu377 O416 2.558 . S
Eu377 O417 2.612 1_556 S
Eu377 O419 2.339 . S
Eu377 O420 2.563 . S
Eu377 O421 2.419 . S
Eu377 C441 2.848 . S
N378 C370 1.362 . S
N378 Eu377 2.657 . S
N378 C379 1.334 . S
C379 N378 1.334 . S
C379 C381 1.413 . S
C379 H386 0.929 . S
C380 C368 1.392 . S
C380 C381 1.367 . S
C380 H388 0.930 . S
C381 C379 1.413 . S
C381 C380 1.367 . S
C381 H383 0.930 . S
H382 C375 0.930 . S
H383 C381 0.930 . S
H384 C372 0.930 . S
H385 C373 0.930 . S
H386 C379 0.929 . S
H387 C401 0.930 . S
H388 C380 0.930 . S
H389 C407 0.930 . S
H390 C398 0.929 . S
H391 C405 0.930 . S
H392 C369 0.931 . S
H393 C399 0.930 . S
H394 C432 0.930 . S
H395 C376 0.930 . S
H396 C431 0.931 . S
N397 Eu366 2.657 . S
N397 C398 1.334 . S
N397 C402 1.362 . S
C398 H390 0.929 . S
C398 N397 1.334 . S
C398 C401 1.413 . S
C399 H393 0.930 . S
C399 C400 1.392 . S
C399 C401 1.367 . S
C400 C399 1.392 . S
C400 C402 1.420 . S
C400 C432 1.423 . S
C401 H387 0.930 . S
C401 C398 1.413 . S
C401 C399 1.367 . S
C402 N397 1.362 . S
C402 C400 1.420 . S
C402 C406 1.429 . S
H403 C408 0.930 . S
N404 Eu366 2.609 . S
N404 C406 1.377 . S
N404 C407 1.321 . S
C405 H391 0.930 . S
C405 C407 1.400 . S
C405 C408 1.386 . S
C406 C402 1.429 . S
C406 N404 1.377 . S
C406 C409 1.411 . S
C407 H389 0.930 . S
C407 N404 1.321 . S
C407 C405 1.400 . S
C408 H403 0.930 . S
C408 C405 1.386 . S
C408 C409 1.395 . S
C409 C406 1.411 . S
C409 C408 1.395 . S
C409 C431 1.420 . S
O410 Eu366 2.558 . S
O410 C430 1.257 . S
O411 Eu366 2.612 . S
O411 Eu377 2.380 1_554 S
O411 C422 1.276 . S
O412 Eu377 2.432 1_554 S
O412 C429 1.264 . S
O413 Eu366 2.339 . S
O413 C429 1.254 . S
O414 Eu366 2.563 . S
O414 C422 1.235 . S
O415 Eu366 2.419 . S
O415 C430 1.249 . S
O416 Eu377 2.558 . S
O416 C441 1.257 . S
O417 Eu366 2.380 . S
O417 Eu377 2.612 1_554 S
O417 C433 1.276 1_554 S
O418 Eu366 2.432 . S
O418 C440 1.264 . S
O419 Eu377 2.339 . S
O419 C440 1.254 1_556 S
O420 Eu377 2.563 . S
O420 C433 1.235 . S
O421 Eu377 2.419 . S
O421 C441 1.249 . S
C422 O411 1.276 . S
C422 O414 1.235 . S
C423 C425 1.393 . S
C423 C427 1.395 . S
C423 C430 1.492 . S
C424 C425 1.392 . S
C424 C426 1.386 . S
C425 C423 1.393 . S
C425 C424 1.392 . S
C425 H442 0.930 . S
C426 C424 1.386 . S
C426 C428 1.395 . S
C426 H443 0.930 . S
C427 C423 1.395 . S
C427 C428 1.379 . S
C427 H444 0.930 . S
C428 C426 1.395 . S
C428 C427 1.379 . S
C428 H445 0.930 . S
C429 O412 1.264 . S
C429 O413 1.254 . S
C430 Eu366 2.848 . S
C430 O410 1.257 . S
C430 O415 1.249 . S
C430 C423 1.492 . S
C431 H396 0.931 . S
C431 C409 1.420 . S
C431 C432 1.351 . S
C432 H394 0.930 . S
C432 C400 1.423 . S
C432 C431 1.351 . S
C433 O417 1.276 1_556 S
C433 O420 1.235 . S
C434 C435 1.393 . S
C434 C438 1.395 . S
C434 C441 1.492 . S
C435 C434 1.393 . S
C435 C436 1.392 . S
C435 H446 0.930 . S
C436 C435 1.392 . S
C436 C437 1.386 . S
C437 C436 1.386 . S
C437 C439 1.395 . S
C437 H447 0.930 . S
C438 C434 1.395 . S
C438 C439 1.379 . S
C438 H448 0.930 . S
C439 C437 1.395 . S
C439 C438 1.379 . S
C439 H449 0.930 . S
C440 O418 1.264 . S
C440 O419 1.254 1_554 S
C441 Eu377 2.848 . S
C441 O416 1.257 . S
C441 O421 1.249 . S
C441 C434 1.492 . S
H442 C425 0.930 . S
H443 C426 0.930 . S
H444 C427 0.930 . S
H445 C428 0.930 . S
H446 C435 0.930 . S
H447 C437 0.930 . S
H448 C438 0.930 . S
H449 C439 0.930 . S
Eu450 N481 2.657 . S
Eu450 N488 2.609 . S
Eu450 O494 2.558 . S
Eu450 O495 2.612 . S
Eu450 O497 2.339 . S
Eu450 O498 2.563 . S
Eu450 O499 2.419 . S
Eu450 O501 2.380 . S
Eu450 O502 2.432 . S
Eu450 C514 2.848 . S
C451 C454 1.429 . S
C451 C455 1.411 . S
C451 N458 1.377 . S
C452 C454 1.420 . S
C452 C456 1.423 . S
C452 C464 1.392 . S
C453 C455 1.420 . S
C453 C456 1.351 . S
C453 H476 0.931 . S
C454 C451 1.429 . S
C454 C452 1.420 . S
C454 N462 1.362 . S
C455 C451 1.411 . S
C455 C453 1.420 . S
C455 C460 1.395 . S
C456 C452 1.423 . S
C456 C453 1.351 . S
C456 H468 0.930 . S
C457 C459 1.400 . S
C457 C460 1.386 . S
C457 H469 0.930 . S
N458 C451 1.377 . S
N458 C459 1.321 . S
N458 Eu461 2.609 . S
C459 C457 1.400 . S
C459 N458 1.321 . S
C459 H466 0.930 . S
C460 C455 1.395 . S
C460 C457 1.386 . S
C460 H479 0.930 . S
Eu461 N458 2.609 . S
Eu461 N462 2.657 . S
Eu461 O495 2.380 . S
Eu461 O496 2.432 . S
Eu461 O500 2.558 . S
Eu461 O501 2.612 . S
Eu461 O503 2.339 . S
Eu461 O504 2.563 . S
Eu461 O505 2.419 . S
Eu461 C525 2.848 . S
N462 C454 1.362 . S
N462 Eu461 2.657 . S
N462 C463 1.334 . S
C463 N462 1.334 . S
C463 C465 1.413 . S
C463 H470 0.929 . S
C464 C452 1.392 . S
C464 C465 1.367 . S
C464 H472 0.930 . S
C465 C463 1.413 . S
C465 C464 1.367 . S
C465 H467 0.930 . S
H466 C459 0.930 . S
H467 C465 0.930 . S
H468 C456 0.930 . S
H469 C457 0.930 . S
H470 C463 0.929 . S
H471 C485 0.930 . S
H472 C464 0.930 . S
H473 C491 0.930 . S
H474 C482 0.929 . S
H475 C489 0.930 . S
H476 C453 0.931 . S
H477 C483 0.930 . S
H478 C516 0.930 . S
H479 C460 0.930 . S
H480 C515 0.931 . S
N481 Eu450 2.657 . S
N481 C482 1.334 . S
N481 C486 1.362 . S
C482 H474 0.929 . S
C482 N481 1.334 . S
C482 C485 1.413 . S
C483 H477 0.930 . S
C483 C484 1.392 . S
C483 C485 1.367 . S
C484 C483 1.392 . S
C484 C486 1.420 . S
C484 C516 1.423 . S
C485 H471 0.930 . S
C485 C482 1.413 . S
C485 C483 1.367 . S
C486 N481 1.362 . S
C486 C484 1.420 . S
C486 C490 1.429 . S
H487 C492 0.930 . S
N488 Eu450 2.609 . S
N488 C490 1.377 . S
N488 C491 1.321 . S
C489 H475 0.930 . S
C489 C491 1.400 . S
C489 C492 1.386 . S
C490 C486 1.429 . S
C490 N488 1.377 . S
C490 C493 1.411 . S
C491 H473 0.930 . S
C491 N488 1.321 . S
C491 C489 1.400 . S
C492 H487 0.930 . S
C492 C489 1.386 . S
C492 C493 1.395 . S
C493 C490 1.411 . S
C493 C492 1.395 . S
C493 C515 1.420 . S
O494 Eu450 2.558 . S
O494 C514 1.257 . S
O495 Eu450 2.612 . S
O495 Eu461 2.380 . S
O495 C506 1.276 . S
O496 Eu461 2.432 . S
O496 C513 1.264 . S
O497 Eu450 2.339 . S
O497 C513 1.254 . S
O498 Eu450 2.563 . S
O498 C506 1.235 . S
O499 Eu450 2.419 . S
O499 C514 1.249 . S
O500 Eu461 2.558 . S
O500 C525 1.257 . S
O501 Eu450 2.380 . S
O501 Eu461 2.612 . S
O501 C517 1.276 . S
O502 Eu450 2.432 . S
O502 C524 1.264 . S
O503 Eu461 2.339 . S
O503 C524 1.254 . S
O504 Eu461 2.563 . S
O504 C517 1.235 . S
O505 Eu461 2.419 . S
O505 C525 1.249 . S
C506 O495 1.276 . S
C506 O498 1.235 . S
C507 C509 1.393 . S
C507 C511 1.395 . S
C507 C514 1.492 . S
C508 C509 1.392 . S
C508 C510 1.386 . S
C509 C507 1.393 . S
C509 C508 1.392 . S
C509 H526 0.930 . S
C510 C508 1.386 . S
C510 C512 1.395 . S
C510 H527 0.930 . S
C511 C507 1.395 . S
C511 C512 1.379 . S
C511 H528 0.930 . S
C512 C510 1.395 . S
C512 C511 1.379 . S
C512 H529 0.930 . S
C513 O496 1.264 . S
C513 O497 1.254 . S
C514 Eu450 2.848 . S
C514 O494 1.257 . S
C514 O499 1.249 . S
C514 C507 1.492 . S
C515 H480 0.931 . S
C515 C493 1.420 . S
C515 C516 1.351 . S
C516 H478 0.930 . S
C516 C484 1.423 . S
C516 C515 1.351 . S
C517 O501 1.276 . S
C517 O504 1.235 . S
C518 C519 1.393 . S
C518 C522 1.395 . S
C518 C525 1.492 . S
C519 C518 1.393 . S
C519 C520 1.392 . S
C519 H530 0.930 . S
C520 C519 1.392 . S
C520 C521 1.386 . S
C521 C520 1.386 . S
C521 C523 1.395 . S
C521 H531 0.930 . S
C522 C518 1.395 . S
C522 C523 1.379 . S
C522 H532 0.930 . S
C523 C521 1.395 . S
C523 C522 1.379 . S
C523 H533 0.930 . S
C524 O502 1.264 . S
C524 O503 1.254 . S
C525 Eu461 2.848 . S
C525 O500 1.257 . S
C525 O505 1.249 . S
C525 C518 1.492 . S
H526 C509 0.930 . S
H527 C510 0.930 . S
H528 C511 0.930 . S
H529 C512 0.930 . S
H530 C519 0.930 . S
H531 C521 0.930 . S
H532 C522 0.930 . S
H533 C523 0.930 . S
Eu534 N565 2.657 . S
Eu534 N572 2.609 . S
Eu534 O578 2.558 . S
Eu534 O579 2.612 . S
Eu534 O581 2.339 . S
Eu534 O582 2.563 . S
Eu534 O583 2.419 . S
Eu534 O585 2.380 . S
Eu534 O586 2.432 . S
Eu534 C598 2.848 . S
C535 C538 1.429 . S
C535 C539 1.411 . S
C535 N542 1.377 . S
C536 C538 1.420 . S
C536 C540 1.423 . S
C536 C548 1.392 . S
C537 C539 1.420 . S
C537 C540 1.351 . S
C537 H560 0.931 . S
C538 C535 1.429 . S
C538 C536 1.420 . S
C538 N546 1.362 . S
C539 C535 1.411 . S
C539 C537 1.420 . S
C539 C544 1.395 . S
C540 C536 1.423 . S
C540 C537 1.351 . S
C540 H552 0.930 . S
C541 C543 1.400 . S
C541 C544 1.386 . S
C541 H553 0.930 . S
N542 C535 1.377 . S
N542 C543 1.321 . S
N542 Eu545 2.609 . S
C543 C541 1.400 . S
C543 N542 1.321 . S
C543 H550 0.930 . S
C544 C539 1.395 . S
C544 C541 1.386 . S
C544 H563 0.930 . S
Eu545 N542 2.609 . S
Eu545 N546 2.657 . S
Eu545 O579 2.380 . S
Eu545 O580 2.432 . S
Eu545 O584 2.558 . S
Eu545 O585 2.612 . S
Eu545 O587 2.339 . S
Eu545 O588 2.563 . S
Eu545 O589 2.419 . S
Eu545 C609 2.848 . S
N546 C538 1.362 . S
N546 Eu545 2.657 . S
N546 C547 1.334 . S
C547 N546 1.334 . S
C547 C549 1.413 . S
C547 H554 0.929 . S
C548 C536 1.392 . S
C548 C549 1.367 . S
C548 H556 0.930 . S
C549 C547 1.413 . S
C549 C548 1.367 . S
C549 H551 0.930 . S
H550 C543 0.930 . S
H551 C549 0.930 . S
H552 C540 0.930 . S
H553 C541 0.930 . S
H554 C547 0.929 . S
H555 C569 0.930 . S
H556 C548 0.930 . S
H557 C575 0.930 . S
H558 C566 0.929 . S
H559 C573 0.930 . S
H560 C537 0.931 . S
H561 C567 0.930 . S
H562 C600 0.930 . S
H563 C544 0.930 . S
H564 C599 0.931 . S
N565 Eu534 2.657 . S
N565 C566 1.334 . S
N565 C570 1.362 . S
C566 H558 0.929 . S
C566 N565 1.334 . S
C566 C569 1.413 . S
C567 H561 0.930 . S
C567 C568 1.392 . S
C567 C569 1.367 . S
C568 C567 1.392 . S
C568 C570 1.420 . S
C568 C600 1.423 . S
C569 H555 0.930 . S
C569 C566 1.413 . S
C569 C567 1.367 . S
C570 N565 1.362 . S
C570 C568 1.420 . S
C570 C574 1.429 . S
H571 C576 0.930 . S
N572 Eu534 2.609 . S
N572 C574 1.377 . S
N572 C575 1.321 . S
C573 H559 0.930 . S
C573 C575 1.400 . S
C573 C576 1.386 . S
C574 C570 1.429 . S
C574 N572 1.377 . S
C574 C577 1.411 . S
C575 H557 0.930 . S
C575 N572 1.321 . S
C575 C573 1.400 . S
C576 H571 0.930 . S
C576 C573 1.386 . S
C576 C577 1.395 . S
C577 C574 1.411 . S
C577 C576 1.395 . S
C577 C599 1.420 . S
O578 Eu534 2.558 . S
O578 C598 1.257 . S
O579 Eu534 2.612 . S
O579 Eu545 2.380 . S
O579 C590 1.276 . S
O580 Eu545 2.432 . S
O580 C597 1.264 . S
O581 Eu534 2.339 . S
O581 C597 1.254 . S
O582 Eu534 2.563 . S
O582 C590 1.235 . S
O583 Eu534 2.419 . S
O583 C598 1.249 . S
O584 Eu545 2.558 . S
O584 C609 1.257 . S
O585 Eu534 2.380 . S
O585 Eu545 2.612 . S
O585 C601 1.276 . S
O586 Eu534 2.432 . S
O586 C608 1.264 . S
O587 Eu545 2.339 . S
O587 C608 1.254 . S
O588 Eu545 2.563 . S
O588 C601 1.235 . S
O589 Eu545 2.419 . S
O589 C609 1.249 . S
C590 O579 1.276 . S
C590 O582 1.235 . S
C591 C593 1.393 . S
C591 C595 1.395 . S
C591 C598 1.492 . S
C592 C593 1.392 . S
C592 C594 1.386 . S
C593 C591 1.393 . S
C593 C592 1.392 . S
C593 H610 0.930 . S
C594 C592 1.386 . S
C594 C596 1.395 . S
C594 H611 0.930 . S
C595 C591 1.395 . S
C595 C596 1.379 . S
C595 H612 0.930 . S
C596 C594 1.395 . S
C596 C595 1.379 . S
C596 H613 0.930 . S
C597 O580 1.264 . S
C597 O581 1.254 . S
C598 Eu534 2.848 . S
C598 O578 1.257 . S
C598 O583 1.249 . S
C598 C591 1.492 . S
C599 H564 0.931 . S
C599 C577 1.420 . S
C599 C600 1.351 . S
C600 H562 0.930 . S
C600 C568 1.423 . S
C600 C599 1.351 . S
C601 O585 1.276 . S
C601 O588 1.235 . S
C602 C603 1.393 . S
C602 C606 1.395 . S
C602 C609 1.492 . S
C603 C602 1.393 . S
C603 C604 1.392 . S
C603 H614 0.930 . S
C604 C603 1.392 . S
C604 C605 1.386 . S
C605 C604 1.386 . S
C605 C607 1.395 . S
C605 H615 0.930 . S
C606 C602 1.395 . S
C606 C607 1.379 . S
C606 H616 0.930 . S
C607 C605 1.395 . S
C607 C606 1.379 . S
C607 H617 0.930 . S
C608 O586 1.264 . S
C608 O587 1.254 . S
C609 Eu545 2.848 . S
C609 O584 1.257 . S
C609 O589 1.249 . S
C609 C602 1.492 . S
H610 C593 0.930 . S
H611 C594 0.930 . S
H612 C595 0.930 . S
H613 C596 0.930 . S
H614 C603 0.930 . S
H615 C605 0.930 . S
H616 C606 0.930 . S
H617 C607 0.930 . S
Eu618 N649 2.657 . S
Eu618 N656 2.609 . S
Eu618 O662 2.558 . S
Eu618 O663 2.612 . S
Eu618 O665 2.339 . S
Eu618 O666 2.563 . S
Eu618 O667 2.419 . S
Eu618 O669 2.380 . S
Eu618 O670 2.432 . S
Eu618 C682 2.848 . S
C619 C622 1.429 . S
C619 C623 1.411 . S
C619 N626 1.377 . S
C620 C622 1.420 . S
C620 C624 1.423 . S
C620 C632 1.392 . S
C621 C623 1.420 . S
C621 C624 1.351 . S
C621 H644 0.931 . S
C622 C619 1.429 . S
C622 C620 1.420 . S
C622 N630 1.362 . S
C623 C619 1.411 . S
C623 C621 1.420 . S
C623 C628 1.395 . S
C624 C620 1.423 . S
C624 C621 1.351 . S
C624 H636 0.930 . S
C625 C627 1.400 . S
C625 C628 1.386 . S
C625 H637 0.930 . S
N626 C619 1.377 . S
N626 C627 1.321 . S
N626 Eu629 2.609 . S
C627 C625 1.400 . S
C627 N626 1.321 . S
C627 H634 0.930 . S
C628 C623 1.395 . S
C628 C625 1.386 . S
C628 H647 0.930 . S
Eu629 N626 2.609 . S
Eu629 N630 2.657 . S
Eu629 O663 2.380 . S
Eu629 O664 2.432 . S
Eu629 O668 2.558 . S
Eu629 O669 2.612 . S
Eu629 O671 2.339 . S
Eu629 O672 2.563 . S
Eu629 O673 2.419 . S
Eu629 C693 2.848 . S
N630 C622 1.362 . S
N630 Eu629 2.657 . S
N630 C631 1.334 . S
C631 N630 1.334 . S
C631 C633 1.413 . S
C631 H638 0.929 . S
C632 C620 1.392 . S
C632 C633 1.367 . S
C632 H640 0.930 . S
C633 C631 1.413 . S
C633 C632 1.367 . S
C633 H635 0.930 . S
H634 C627 0.930 . S
H635 C633 0.930 . S
H636 C624 0.930 . S
H637 C625 0.930 . S
H638 C631 0.929 . S
H639 C653 0.930 . S
H640 C632 0.930 . S
H641 C659 0.930 . S
H642 C650 0.929 . S
H643 C657 0.930 . S
H644 C621 0.931 . S
H645 C651 0.930 . S
H646 C684 0.930 . S
H647 C628 0.930 . S
H648 C683 0.931 . S
N649 Eu618 2.657 . S
N649 C650 1.334 . S
N649 C654 1.362 . S
C650 H642 0.929 . S
C650 N649 1.334 . S
C650 C653 1.413 . S
C651 H645 0.930 . S
C651 C652 1.392 . S
C651 C653 1.367 . S
C652 C651 1.392 . S
C652 C654 1.420 . S
C652 C684 1.423 . S
C653 H639 0.930 . S
C653 C650 1.413 . S
C653 C651 1.367 . S
C654 N649 1.362 . S
C654 C652 1.420 . S
C654 C658 1.429 . S
H655 C660 0.930 . S
N656 Eu618 2.609 . S
N656 C658 1.377 . S
N656 C659 1.321 . S
C657 H643 0.930 . S
C657 C659 1.400 . S
C657 C660 1.386 . S
C658 C654 1.429 . S
C658 N656 1.377 . S
C658 C661 1.411 . S
C659 H641 0.930 . S
C659 N656 1.321 . S
C659 C657 1.400 . S
C660 H655 0.930 . S
C660 C657 1.386 . S
C660 C661 1.395 . S
C661 C658 1.411 . S
C661 C660 1.395 . S
C661 C683 1.420 . S
O662 Eu618 2.558 . S
O662 C682 1.257 . S
O663 Eu618 2.612 . S
O663 Eu629 2.380 . S
O663 C674 1.276 . S
O664 Eu629 2.432 . S
O664 C681 1.264 . S
O665 Eu618 2.339 . S
O665 C681 1.254 . S
O666 Eu618 2.563 . S
O666 C674 1.235 . S
O667 Eu618 2.419 . S
O667 C682 1.249 . S
O668 Eu629 2.558 . S
O668 C693 1.257 . S
O669 Eu618 2.380 . S
O669 Eu629 2.612 . S
O669 C685 1.276 . S
O670 Eu618 2.432 . S
O670 C692 1.264 . S
O671 Eu629 2.339 . S
O671 C692 1.254 . S
O672 Eu629 2.563 . S
O672 C685 1.235 . S
O673 Eu629 2.419 . S
O673 C693 1.249 . S
C674 O663 1.276 . S
C674 O666 1.235 . S
C675 C677 1.393 . S
C675 C679 1.395 . S
C675 C682 1.492 . S
C676 C677 1.392 . S
C676 C678 1.386 . S
C677 C675 1.393 . S
C677 C676 1.392 . S
C677 H694 0.930 . S
C678 C676 1.386 . S
C678 C680 1.395 . S
C678 H695 0.930 . S
C679 C675 1.395 . S
C679 C680 1.379 . S
C679 H696 0.930 . S
C680 C678 1.395 . S
C680 C679 1.379 . S
C680 H697 0.930 . S
C681 O664 1.264 . S
C681 O665 1.254 . S
C682 Eu618 2.848 . S
C682 O662 1.257 . S
C682 O667 1.249 . S
C682 C675 1.492 . S
C683 H648 0.931 . S
C683 C661 1.420 . S
C683 C684 1.351 . S
C684 H646 0.930 . S
C684 C652 1.423 . S
C684 C683 1.351 . S
C685 O669 1.276 . S
C685 O672 1.235 . S
C686 C687 1.393 . S
C686 C690 1.395 . S
C686 C693 1.492 . S
C687 C686 1.393 . S
C687 C688 1.392 . S
C687 H698 0.930 . S
C688 C687 1.392 . S
C688 C689 1.386 . S
C689 C688 1.386 . S
C689 C691 1.395 . S
C689 H699 0.930 . S
C690 C686 1.395 . S
C690 C691 1.379 . S
C690 H700 0.930 . S
C691 C689 1.395 . S
C691 C690 1.379 . S
C691 H701 0.930 . S
C692 O670 1.264 . S
C692 O671 1.254 . S
C693 Eu629 2.848 . S
C693 O668 1.257 . S
C693 O673 1.249 . S
C693 C686 1.492 . S
H694 C677 0.930 . S
H695 C678 0.930 . S
H696 C679 0.930 . S
H697 C680 0.930 . S
H698 C687 0.930 . S
H699 C689 0.930 . S
H700 C690 0.930 . S
H701 C691 0.930 . S
Eu702 N733 2.657 . S
Eu702 N740 2.609 . S
Eu702 O746 2.558 . S
Eu702 O747 2.612 . S
Eu702 O749 2.339 . S
Eu702 O750 2.563 . S
Eu702 O751 2.419 . S
Eu702 O753 2.380 . S
Eu702 O754 2.432 . S
Eu702 C766 2.848 . S
C703 C706 1.429 . S
C703 C707 1.411 . S
C703 N710 1.377 . S
C704 C706 1.420 . S
C704 C708 1.423 . S
C704 C716 1.392 . S
C705 C707 1.420 . S
C705 C708 1.351 . S
C705 H728 0.931 . S
C706 C703 1.429 . S
C706 C704 1.420 . S
C706 N714 1.362 . S
C707 C703 1.411 . S
C707 C705 1.420 . S
C707 C712 1.395 . S
C708 C704 1.423 . S
C708 C705 1.351 . S
C708 H720 0.930 . S
C709 C711 1.400 . S
C709 C712 1.386 . S
C709 H721 0.930 . S
N710 C703 1.377 . S
N710 C711 1.321 . S
N710 Eu713 2.609 . S
C711 C709 1.400 . S
C711 N710 1.321 . S
C711 H718 0.930 . S
C712 C707 1.395 . S
C712 C709 1.386 . S
C712 H731 0.930 . S
Eu713 N710 2.609 . S
Eu713 N714 2.657 . S
Eu713 O747 2.380 . S
Eu713 O748 2.432 . S
Eu713 O752 2.558 . S
Eu713 O753 2.612 . S
Eu713 O755 2.339 . S
Eu713 O756 2.563 . S
Eu713 O757 2.419 . S
Eu713 C777 2.848 . S
N714 C706 1.362 . S
N714 Eu713 2.657 . S
N714 C715 1.334 . S
C715 N714 1.334 . S
C715 C717 1.413 . S
C715 H722 0.929 . S
C716 C704 1.392 . S
C716 C717 1.367 . S
C716 H724 0.930 . S
C717 C715 1.413 . S
C717 C716 1.367 . S
C717 H719 0.930 . S
H718 C711 0.930 . S
H719 C717 0.930 . S
H720 C708 0.930 . S
H721 C709 0.930 . S
H722 C715 0.929 . S
H723 C737 0.930 . S
H724 C716 0.930 . S
H725 C743 0.930 . S
H726 C734 0.929 . S
H727 C741 0.930 . S
H728 C705 0.931 . S
H729 C735 0.930 . S
H730 C768 0.930 . S
H731 C712 0.930 . S
H732 C767 0.931 . S
N733 Eu702 2.657 . S
N733 C734 1.334 . S
N733 C738 1.362 . S
C734 H726 0.929 . S
C734 N733 1.334 . S
C734 C737 1.413 . S
C735 H729 0.930 . S
C735 C736 1.392 . S
C735 C737 1.367 . S
C736 C735 1.392 . S
C736 C738 1.420 . S
C736 C768 1.423 . S
C737 H723 0.930 . S
C737 C734 1.413 . S
C737 C735 1.367 . S
C738 N733 1.362 . S
C738 C736 1.420 . S
C738 C742 1.429 . S
H739 C744 0.930 . S
N740 Eu702 2.609 . S
N740 C742 1.377 . S
N740 C743 1.321 . S
C741 H727 0.930 . S
C741 C743 1.400 . S
C741 C744 1.386 . S
C742 C738 1.429 . S
C742 N740 1.377 . S
C742 C745 1.411 . S
C743 H725 0.930 . S
C743 N740 1.321 . S
C743 C741 1.400 . S
C744 H739 0.930 . S
C744 C741 1.386 . S
C744 C745 1.395 . S
C745 C742 1.411 . S
C745 C744 1.395 . S
C745 C767 1.420 . S
O746 Eu702 2.558 . S
O746 C766 1.257 . S
O747 Eu702 2.612 . S
O747 Eu713 2.380 . S
O747 C758 1.276 . S
O748 Eu713 2.432 . S
O748 C765 1.264 . S
O749 Eu702 2.339 . S
O749 C765 1.254 . S
O750 Eu702 2.563 . S
O750 C758 1.235 . S
O751 Eu702 2.419 . S
O751 C766 1.249 . S
O752 Eu713 2.558 . S
O752 C777 1.257 . S
O753 Eu702 2.380 . S
O753 Eu713 2.612 . S
O753 C769 1.276 . S
O754 Eu702 2.432 . S
O754 C776 1.264 . S
O755 Eu713 2.339 . S
O755 C776 1.254 . S
O756 Eu713 2.563 . S
O756 C769 1.235 . S
O757 Eu713 2.419 . S
O757 C777 1.249 . S
C758 O747 1.276 . S
C758 O750 1.235 . S
C759 C761 1.393 . S
C759 C763 1.395 . S
C759 C766 1.492 . S
C760 C761 1.392 . S
C760 C762 1.386 . S
C761 C759 1.393 . S
C761 C760 1.392 . S
C761 H778 0.930 . S
C762 C760 1.386 . S
C762 C764 1.395 . S
C762 H779 0.930 . S
C763 C759 1.395 . S
C763 C764 1.379 . S
C763 H780 0.930 . S
C764 C762 1.395 . S
C764 C763 1.379 . S
C764 H781 0.930 . S
C765 O748 1.264 . S
C765 O749 1.254 . S
C766 Eu702 2.848 . S
C766 O746 1.257 . S
C766 O751 1.249 . S
C766 C759 1.492 . S
C767 H732 0.931 . S
C767 C745 1.420 . S
C767 C768 1.351 . S
C768 H730 0.930 . S
C768 C736 1.423 . S
C768 C767 1.351 . S
C769 O753 1.276 . S
C769 O756 1.235 . S
C770 C771 1.393 . S
C770 C774 1.395 . S
C770 C777 1.492 . S
C771 C770 1.393 . S
C771 C772 1.392 . S
C771 H782 0.930 . S
C772 C771 1.392 . S
C772 C773 1.386 . S
C773 C772 1.386 . S
C773 C775 1.395 . S
C773 H783 0.930 . S
C774 C770 1.395 . S
C774 C775 1.379 . S
C774 H784 0.930 . S
C775 C773 1.395 . S
C775 C774 1.379 . S
C775 H785 0.930 . S
C776 O754 1.264 . S
C776 O755 1.254 . S
C777 Eu713 2.848 . S
C777 O752 1.257 . S
C777 O757 1.249 . S
C777 C770 1.492 . S
H778 C761 0.930 . S
H779 C762 0.930 . S
H780 C763 0.930 . S
H781 C764 0.930 . S
H782 C771 0.930 . S
H783 C773 0.930 . S
H784 C774 0.930 . S
H785 C775 0.930 . S
Eu786 N817 2.657 . S
Eu786 N824 2.609 . S
Eu786 O830 2.558 . S
Eu786 O831 2.612 . S
Eu786 O833 2.339 . S
Eu786 O834 2.563 . S
Eu786 O835 2.419 . S
Eu786 O837 2.380 . S
Eu786 O838 2.432 . S
Eu786 C850 2.848 . S
C787 C790 1.429 . S
C787 C791 1.411 . S
C787 N794 1.377 . S
C788 C790 1.420 . S
C788 C792 1.423 . S
C788 C800 1.392 . S
C789 C791 1.420 . S
C789 C792 1.351 . S
C789 H812 0.931 . S
C790 C787 1.429 . S
C790 C788 1.420 . S
C790 N798 1.362 . S
C791 C787 1.411 . S
C791 C789 1.420 . S
C791 C796 1.395 . S
C792 C788 1.423 . S
C792 C789 1.351 . S
C792 H804 0.930 . S
C793 C795 1.400 . S
C793 C796 1.386 . S
C793 H805 0.930 . S
N794 C787 1.377 . S
N794 C795 1.321 . S
N794 Eu797 2.609 . S
C795 C793 1.400 . S
C795 N794 1.321 . S
C795 H802 0.930 . S
C796 C791 1.395 . S
C796 C793 1.386 . S
C796 H815 0.930 . S
Eu797 N794 2.609 . S
Eu797 N798 2.657 . S
Eu797 O831 2.380 . S
Eu797 O832 2.432 . S
Eu797 O836 2.558 . S
Eu797 O837 2.612 . S
Eu797 O839 2.339 . S
Eu797 O840 2.563 . S
Eu797 O841 2.419 . S
Eu797 C861 2.848 . S
N798 C790 1.362 . S
N798 Eu797 2.657 . S
N798 C799 1.334 . S
C799 N798 1.334 . S
C799 C801 1.413 . S
C799 H806 0.929 . S
C800 C788 1.392 . S
C800 C801 1.367 . S
C800 H808 0.930 . S
C801 C799 1.413 . S
C801 C800 1.367 . S
C801 H803 0.930 . S
H802 C795 0.930 . S
H803 C801 0.930 . S
H804 C792 0.930 . S
H805 C793 0.930 . S
H806 C799 0.929 . S
H807 C821 0.930 . S
H808 C800 0.930 . S
H809 C827 0.930 . S
H810 C818 0.929 . S
H811 C825 0.930 . S
H812 C789 0.931 . S
H813 C819 0.930 . S
H814 C852 0.930 . S
H815 C796 0.930 . S
H816 C851 0.931 . S
N817 Eu786 2.657 . S
N817 C818 1.334 . S
N817 C822 1.362 . S
C818 H810 0.929 . S
C818 N817 1.334 . S
C818 C821 1.413 . S
C819 H813 0.930 . S
C819 C820 1.392 . S
C819 C821 1.367 . S
C820 C819 1.392 . S
C820 C822 1.420 . S
C820 C852 1.423 . S
C821 H807 0.930 . S
C821 C818 1.413 . S
C821 C819 1.367 . S
C822 N817 1.362 . S
C822 C820 1.420 . S
C822 C826 1.429 . S
H823 C828 0.930 . S
N824 Eu786 2.609 . S
N824 C826 1.377 . S
N824 C827 1.321 . S
C825 H811 0.930 . S
C825 C827 1.400 . S
C825 C828 1.386 . S
C826 C822 1.429 . S
C826 N824 1.377 . S
C826 C829 1.411 . S
C827 H809 0.930 . S
C827 N824 1.321 . S
C827 C825 1.400 . S
C828 H823 0.930 . S
C828 C825 1.386 . S
C828 C829 1.395 . S
C829 C826 1.411 . S
C829 C828 1.395 . S
C829 C851 1.420 . S
O830 Eu786 2.558 . S
O830 C850 1.257 . S
O831 Eu786 2.612 . S
O831 Eu797 2.380 . S
O831 C842 1.276 . S
O832 Eu797 2.432 . S
O832 C849 1.264 . S
O833 Eu786 2.339 . S
O833 C849 1.254 . S
O834 Eu786 2.563 . S
O834 C842 1.235 . S
O835 Eu786 2.419 . S
O835 C850 1.249 . S
O836 Eu797 2.558 . S
O836 C861 1.257 . S
O837 Eu786 2.380 . S
O837 Eu797 2.612 . S
O837 C853 1.276 . S
O838 Eu786 2.432 . S
O838 C860 1.264 . S
O839 Eu797 2.339 . S
O839 C860 1.254 . S
O840 Eu797 2.563 . S
O840 C853 1.235 . S
O841 Eu797 2.419 . S
O841 C861 1.249 . S
C842 O831 1.276 . S
C842 O834 1.235 . S
C843 C845 1.393 . S
C843 C847 1.395 . S
C843 C850 1.492 . S
C844 C845 1.392 . S
C844 C846 1.386 . S
C845 C843 1.393 . S
C845 C844 1.392 . S
C845 H862 0.930 . S
C846 C844 1.386 . S
C846 C848 1.395 . S
C846 H863 0.930 . S
C847 C843 1.395 . S
C847 C848 1.379 . S
C847 H864 0.930 . S
C848 C846 1.395 . S
C848 C847 1.379 . S
C848 H865 0.930 . S
C849 O832 1.264 . S
C849 O833 1.254 . S
C850 Eu786 2.848 . S
C850 O830 1.257 . S
C850 O835 1.249 . S
C850 C843 1.492 . S
C851 H816 0.931 . S
C851 C829 1.420 . S
C851 C852 1.351 . S
C852 H814 0.930 . S
C852 C820 1.423 . S
C852 C851 1.351 . S
C853 O837 1.276 . S
C853 O840 1.235 . S
C854 C855 1.393 . S
C854 C858 1.395 . S
C854 C861 1.492 . S
C855 C854 1.393 . S
C855 C856 1.392 . S
C855 H866 0.930 . S
C856 C855 1.392 . S
C856 C857 1.386 . S
C857 C856 1.386 . S
C857 C859 1.395 . S
C857 H867 0.930 . S
C858 C854 1.395 . S
C858 C859 1.379 . S
C858 H868 0.930 . S
C859 C857 1.395 . S
C859 C858 1.379 . S
C859 H869 0.930 . S
C860 O838 1.264 . S
C860 O839 1.254 . S
C861 Eu797 2.848 . S
C861 O836 1.257 . S
C861 O841 1.249 . S
C861 C854 1.492 . S
H862 C845 0.930 . S
H863 C846 0.930 . S
H864 C847 0.930 . S
H865 C848 0.930 . S
H866 C855 0.930 . S
H867 C857 0.930 . S
H868 C858 0.930 . S
H869 C859 0.930 . S
Eu870 N901 2.657 . S
Eu870 N908 2.609 . S
Eu870 O914 2.558 . S
Eu870 O915 2.612 . S
Eu870 O917 2.339 . S
Eu870 O918 2.563 . S
Eu870 O919 2.419 . S
Eu870 O921 2.380 . S
Eu870 O922 2.432 . S
Eu870 C934 2.848 . S
C871 C874 1.429 . S
C871 C875 1.411 . S
C871 N878 1.377 . S
C872 C874 1.420 . S
C872 C876 1.423 . S
C872 C884 1.392 . S
C873 C875 1.420 . S
C873 C876 1.351 . S
C873 H896 0.931 . S
C874 C871 1.429 . S
C874 C872 1.420 . S
C874 N882 1.362 . S
C875 C871 1.411 . S
C875 C873 1.420 . S
C875 C880 1.395 . S
C876 C872 1.423 . S
C876 C873 1.351 . S
C876 H888 0.930 . S
C877 C879 1.400 . S
C877 C880 1.386 . S
C877 H889 0.930 . S
N878 C871 1.377 . S
N878 C879 1.321 . S
N878 Eu881 2.609 . S
C879 C877 1.400 . S
C879 N878 1.321 . S
C879 H886 0.930 . S
C880 C875 1.395 . S
C880 C877 1.386 . S
C880 H899 0.930 . S
Eu881 N878 2.609 . S
Eu881 N882 2.657 . S
Eu881 O915 2.380 . S
Eu881 O916 2.432 . S
Eu881 O920 2.558 . S
Eu881 O921 2.612 . S
Eu881 O923 2.339 . S
Eu881 O924 2.563 . S
Eu881 O925 2.419 . S
Eu881 C945 2.848 . S
N882 C874 1.362 . S
N882 Eu881 2.657 . S
N882 C883 1.334 . S
C883 N882 1.334 . S
C883 C885 1.413 . S
C883 H890 0.929 . S
C884 C872 1.392 . S
C884 C885 1.367 . S
C884 H892 0.930 . S
C885 C883 1.413 . S
C885 C884 1.367 . S
C885 H887 0.930 . S
H886 C879 0.930 . S
H887 C885 0.930 . S
H888 C876 0.930 . S
H889 C877 0.930 . S
H890 C883 0.929 . S
H891 C905 0.930 . S
H892 C884 0.930 . S
H893 C911 0.930 . S
H894 C902 0.929 . S
H895 C909 0.930 . S
H896 C873 0.931 . S
H897 C903 0.930 1_455 S
H898 C936 0.930 1_455 S
H899 C880 0.930 . S
H900 C935 0.931 . S
N901 Eu870 2.657 . S
N901 C902 1.334 . S
N901 C906 1.362 . S
C902 H894 0.929 . S
C902 N901 1.334 . S
C902 C905 1.413 . S
C903 H897 0.930 1_655 S
C903 C904 1.392 . S
C903 C905 1.367 . S
C904 C903 1.392 . S
C904 C906 1.420 . S
C904 C936 1.423 . S
C905 H891 0.930 . S
C905 C902 1.413 . S
C905 C903 1.367 . S
C906 N901 1.362 . S
C906 C904 1.420 . S
C906 C910 1.429 . S
H907 C912 0.930 . S
N908 Eu870 2.609 . S
N908 C910 1.377 . S
N908 C911 1.321 . S
C909 H895 0.930 . S
C909 C911 1.400 . S
C909 C912 1.386 . S
C910 C906 1.429 . S
C910 N908 1.377 . S
C910 C913 1.411 . S
C911 H893 0.930 . S
C911 N908 1.321 . S
C911 C909 1.400 . S
C912 H907 0.930 . S
C912 C909 1.386 . S
C912 C913 1.395 . S
C913 C910 1.411 . S
C913 C912 1.395 . S
C913 C935 1.420 . S
O914 Eu870 2.558 . S
O914 C934 1.257 . S
O915 Eu870 2.612 . S
O915 Eu881 2.380 . S
O915 C926 1.276 . S
O916 Eu881 2.432 . S
O916 C933 1.264 . S
O917 Eu870 2.339 . S
O917 C933 1.254 . S
O918 Eu870 2.563 . S
O918 C926 1.235 . S
O919 Eu870 2.419 . S
O919 C934 1.249 . S
O920 Eu881 2.558 . S
O920 C945 1.257 . S
O921 Eu870 2.380 . S
O921 Eu881 2.612 . S
O921 C937 1.276 . S
O922 Eu870 2.432 . S
O922 C944 1.264 . S
O923 Eu881 2.339 . S
O923 C944 1.254 . S
O924 Eu881 2.563 . S
O924 C937 1.235 . S
O925 Eu881 2.419 . S
O925 C945 1.249 . S
C926 O915 1.276 . S
C926 O918 1.235 . S
C927 C929 1.393 . S
C927 C931 1.395 . S
C927 C934 1.492 . S
C928 C929 1.392 . S
C928 C930 1.386 . S
C929 C927 1.393 . S
C929 C928 1.392 . S
C929 H946 0.930 . S
C930 C928 1.386 . S
C930 C932 1.395 . S
C930 H947 0.930 . S
C931 C927 1.395 . S
C931 C932 1.379 . S
C931 H948 0.930 . S
C932 C930 1.395 . S
C932 C931 1.379 . S
C932 H949 0.930 . S
C933 O916 1.264 . S
C933 O917 1.254 . S
C934 Eu870 2.848 . S
C934 O914 1.257 . S
C934 O919 1.249 . S
C934 C927 1.492 . S
C935 H900 0.931 . S
C935 C913 1.420 . S
C935 C936 1.351 . S
C936 H898 0.930 1_655 S
C936 C904 1.423 . S
C936 C935 1.351 . S
C937 O921 1.276 . S
C937 O924 1.235 . S
C938 C939 1.393 . S
C938 C942 1.395 . S
C938 C945 1.492 . S
C939 C938 1.393 . S
C939 C940 1.392 . S
C939 H950 0.930 . S
C940 C939 1.392 . S
C940 C941 1.386 . S
C941 C940 1.386 . S
C941 C943 1.395 . S
C941 H951 0.930 . S
C942 C938 1.395 . S
C942 C943 1.379 . S
C942 H952 0.930 . S
C943 C941 1.395 . S
C943 C942 1.379 . S
C943 H953 0.930 . S
C944 O922 1.264 . S
C944 O923 1.254 . S
C945 Eu881 2.848 . S
C945 O920 1.257 . S
C945 O925 1.249 . S
C945 C938 1.492 . S
H946 C929 0.930 . S
H947 C930 0.930 . S
H948 C931 0.930 . S
H949 C932 0.930 . S
H950 C939 0.930 . S
H951 C941 0.930 . S
H952 C942 0.930 . S
H953 C943 0.930 . S
H954 C962 0.950 . S
H955 C967 0.950 . S
H956 C964 0.950 . S
H957 C966 0.950 . S
H958 C968 0.950 . S
H959 C970 0.950 . S
H960 C972 0.950 . S
H961 C973 0.950 . S
C962 H954 0.950 . S
C962 C963 1.386 . S
C962 C964 1.391 . S
C963 C962 1.386 . S
C963 C967 1.393 . S
C964 H956 0.950 . S
C964 C962 1.391 . S
C964 C965 1.400 . S
C965 C964 1.400 . S
C965 C966 1.398 . S
C965 C971 1.491 . S
C966 H957 0.950 . S
C966 C965 1.398 . S
C966 C967 1.391 . S
C967 H955 0.950 . S
C967 C963 1.393 . S
C967 C966 1.391 . S
C968 H958 0.950 . S
C968 C969 1.386 . S
C968 C970 1.391 . S
C969 C968 1.386 . S
C969 C973 1.393 . S
C970 H959 0.950 . S
C970 C968 1.391 . S
C970 C971 1.400 . S
C971 C965 1.491 . S
C971 C970 1.400 . S
C971 C972 1.398 . S
C972 H960 0.950 . S
C972 C971 1.398 . S
C972 C973 1.391 . S
C973 H961 0.950 . S
C973 C969 1.393 . S
C973 C972 1.391 . S
H974 C982 0.950 . S
H975 C987 0.950 . S
H976 C984 0.950 . S
H977 C986 0.950 . S
H978 C988 0.950 . S
H979 C990 0.950 . S
H980 C992 0.950 . S
H981 C993 0.950 . S
C982 H974 0.950 . S
C982 C983 1.386 . S
C982 C984 1.391 . S
C983 C982 1.386 . S
C983 C987 1.393 . S
C984 H976 0.950 . S
C984 C982 1.391 . S
C984 C985 1.400 . S
C985 C984 1.400 . S
C985 C986 1.398 . S
C985 C991 1.491 . S
C986 H977 0.950 . S
C986 C985 1.398 . S
C986 C987 1.391 . S
C987 H975 0.950 . S
C987 C983 1.393 . S
C987 C986 1.391 . S
C988 H978 0.950 . S
C988 C989 1.386 . S
C988 C990 1.391 . S
C989 C988 1.386 . S
C989 C993 1.393 . S
C990 H979 0.950 . S
C990 C988 1.391 . S
C990 C991 1.400 . S
C991 C985 1.491 . S
C991 C990 1.400 . S
C991 C992 1.398 . S
C992 H980 0.950 . S
C992 C991 1.398 . S
C992 C993 1.391 . S
C993 H981 0.950 . S
C993 C989 1.393 . S
C993 C992 1.391 . S
H994 C1002 0.950 . S
H995 C1007 0.950 . S
H996 C1004 0.950 . S
H997 C1006 0.950 . S
H998 C1008 0.950 . S
H999 C1010 0.950 . S
H1000 C1012 0.950 . S
H1001 C1013 0.926 1_556 S
C1002 H994 0.950 . S
C1002 C1003 1.386 . S
C1002 C1004 1.391 . S
C1003 C1002 1.386 . S
C1003 C1007 1.393 . S
C1004 H996 0.950 . S
C1004 C1002 1.391 . S
C1004 C1005 1.400 . S
C1005 C1004 1.400 . S
C1005 C1006 1.398 . S
C1005 C1011 1.491 . S
C1006 H997 0.950 . S
C1006 C1005 1.398 . S
C1006 C1007 1.391 . S
C1007 H995 0.950 . S
C1007 C1003 1.393 . S
C1007 C1006 1.391 . S
C1008 H998 0.950 . S
C1008 C1009 1.386 . S
C1008 C1010 1.391 . S
C1009 C1008 1.386 . S
C1009 C1013 1.393 . S
C1010 H999 0.950 . S
C1010 C1008 1.391 . S
C1010 C1011 1.400 . S
C1011 C1005 1.491 . S
C1011 C1010 1.400 . S
C1011 C1012 1.398 . S
C1012 H1000 0.950 . S
C1012 C1011 1.398 . S
C1012 C1013 1.391 . S
C1013 H1001 0.926 1_554 S
C1013 C1009 1.393 . S
C1013 C1012 1.391 . S
H1014 C1022 0.950 . S
H1015 C1027 0.950 . S
H1016 C1024 0.950 . S
H1017 C1026 0.950 . S
H1018 C1028 0.958 . S
H1019 C1030 0.950 . S
H1020 C1032 0.950 . S
H1021 C1033 0.950 . S
C1022 H1014 0.950 . S
C1022 C1023 1.386 . S
C1022 C1024 1.391 . S
C1023 C1022 1.386 . S
C1023 C1027 1.393 . S
C1024 H1016 0.950 . S
C1024 C1022 1.391 . S
C1024 C1025 1.400 . S
C1025 C1024 1.400 . S
C1025 C1026 1.398 . S
C1025 C1031 1.491 . S
C1026 H1017 0.950 . S
C1026 C1025 1.398 . S
C1026 C1027 1.391 . S
C1027 H1015 0.950 . S
C1027 C1023 1.393 . S
C1027 C1026 1.391 . S
C1028 H1018 0.958 . S
C1028 C1029 1.386 . S
C1028 C1030 1.391 . S
C1029 C1028 1.386 . S
C1029 C1033 1.393 . S
C1030 H1019 0.950 . S
C1030 C1028 1.391 . S
C1030 C1031 1.400 . S
C1031 C1025 1.491 . S
C1031 C1030 1.400 . S
C1031 C1032 1.398 . S
C1032 H1020 0.950 . S
C1032 C1031 1.398 . S
C1032 C1033 1.391 . S
C1033 H1021 0.950 . S
C1033 C1029 1.393 . S
C1033 C1032 1.391 . S
H1034 C1042 0.950 . S
H1035 C1047 0.950 . S
H1036 C1044 0.950 . S
H1037 C1046 0.919 1_554 S
H1038 C1048 0.950 . S
H1039 C1050 0.950 . S
H1040 C1052 0.950 . S
H1041 C1053 0.950 . S
C1042 H1034 0.950 . S
C1042 C1043 1.386 . S
C1042 C1044 1.391 . S
C1043 C1042 1.386 . S
C1043 C1047 1.393 . S
C1044 H1036 0.950 . S
C1044 C1042 1.391 . S
C1044 C1045 1.400 . S
C1045 C1044 1.400 . S
C1045 C1046 1.398 . S
C1045 C1051 1.491 . S
C1046 H1037 0.919 1_556 S
C1046 C1045 1.398 . S
C1046 C1047 1.391 . S
C1047 H1035 0.950 . S
C1047 C1043 1.393 . S
C1047 C1046 1.391 . S
C1048 H1038 0.950 . S
C1048 C1049 1.386 1_554 S
C1048 C1050 1.391 . S
C1049 C1048 1.386 1_556 S
C1049 C1053 1.393 . S
C1050 H1039 0.950 . S
C1050 C1048 1.391 . S
C1050 C1051 1.400 1_554 S
C1051 C1045 1.491 . S
C1051 C1050 1.400 1_556 S
C1051 C1052 1.398 . S
C1052 H1040 0.950 . S
C1052 C1051 1.398 . S
C1052 C1053 1.391 . S
C1053 H1041 0.950 . S
C1053 C1049 1.393 . S
C1053 C1052 1.391 . S
H1054 C1062 0.950 . S
H1055 C1067 0.950 . S
H1056 C1064 0.950 . S
H1057 C1066 0.950 . S
H1058 C1068 0.950 . S
H1059 C1070 0.950 . S
H1060 C1072 0.950 . S
H1061 C1073 0.974 . S
C1062 H1054 0.950 . S
C1062 C1063 1.386 . S
C1062 C1064 1.391 . S
C1063 C1062 1.386 . S
C1063 C1067 1.393 . S
C1064 H1056 0.950 . S
C1064 C1062 1.391 . S
C1064 C1065 1.400 . S
C1065 C1064 1.400 . S
C1065 C1066 1.398 . S
C1065 C1071 1.491 . S
C1066 H1057 0.950 . S
C1066 C1065 1.398 . S
C1066 C1067 1.391 . S
C1067 H1055 0.950 . S
C1067 C1063 1.393 . S
C1067 C1066 1.391 . S
C1068 H1058 0.950 . S
C1068 C1069 1.386 . S
C1068 C1070 1.391 . S
C1069 C1068 1.386 . S
C1069 C1073 1.383 1_556 S
C1070 H1059 0.950 . S
C1070 C1068 1.391 . S
C1070 C1071 1.400 . S
C1071 C1065 1.491 . S
C1071 C1070 1.400 . S
C1071 C1072 1.398 . S
C1072 H1060 0.950 . S
C1072 C1071 1.398 . S
C1072 C1073 1.378 1_556 S
C1073 H1061 0.974 . S
C1073 C1069 1.383 1_554 S
C1073 C1072 1.378 1_554 S
H1074 C1082 0.950 . S
H1075 C1087 0.950 . S
H1076 C1084 0.950 . S
H1077 C1086 0.950 1_554 S
H1078 C1088 0.950 . S
H1079 C1090 0.950 . S
H1080 C1092 0.950 . S
H1081 C1093 0.950 . S
C1082 H1074 0.950 . S
C1082 C1083 1.386 . S
C1082 C1084 1.391 . S
C1083 C1082 1.386 . S
C1083 C1087 1.393 . S
C1084 H1076 0.950 . S
C1084 C1082 1.391 . S
C1084 C1085 1.400 . S
C1085 C1084 1.400 . S
C1085 C1086 1.398 . S
C1085 C1091 1.491 . S
C1086 H1077 0.950 1_556 S
C1086 C1085 1.398 . S
C1086 C1087 1.391 . S
C1087 H1075 0.950 . S
C1087 C1083 1.393 . S
C1087 C1086 1.391 . S
C1088 H1078 0.950 . S
C1088 C1089 1.386 1_554 S
C1088 C1090 1.391 . S
C1089 C1088 1.386 1_556 S
C1089 C1093 1.393 . S
C1090 H1079 0.950 . S
C1090 C1088 1.391 . S
C1090 C1091 1.400 1_554 S
C1091 C1085 1.491 . S
C1091 C1090 1.400 1_556 S
C1091 C1092 1.398 . S
C1092 H1080 0.950 . S
C1092 C1091 1.398 . S
C1092 C1093 1.391 . S
C1093 H1081 0.950 . S
C1093 C1089 1.393 . S
C1093 C1092 1.391 . S
H1094 C1102 0.950 . S
H1095 C1107 0.950 . S
H1096 C1104 0.950 . S
H1097 C1106 0.950 . S
H1098 C1108 0.950 . S
H1099 C1110 0.950 1_554 S
H1100 C1112 0.950 . S
H1101 C1113 0.950 . S
C1102 H1094 0.950 . S
C1102 C1103 1.386 . S
C1102 C1104 1.391 . S
C1103 C1102 1.386 . S
C1103 C1107 1.393 . S
C1104 H1096 0.950 . S
C1104 C1102 1.391 . S
C1104 C1105 1.400 . S
C1105 C1104 1.400 . S
C1105 C1106 1.398 . S
C1105 C1111 1.491 . S
C1106 H1097 0.950 . S
C1106 C1105 1.398 . S
C1106 C1107 1.391 . S
C1107 H1095 0.950 . S
C1107 C1103 1.393 . S
C1107 C1106 1.391 . S
C1108 H1098 0.950 . S
C1108 C1109 1.386 1_554 S
C1108 C1110 1.391 1_554 S
C1109 C1108 1.386 1_556 S
C1109 C1113 1.393 . S
C1110 H1099 0.950 1_556 S
C1110 C1108 1.391 1_556 S
C1110 C1111 1.400 . S
C1111 C1105 1.491 . S
C1111 C1110 1.400 . S
C1111 C1112 1.398 . S
C1112 H1100 0.950 . S
C1112 C1111 1.398 . S
C1112 C1113 1.391 . S
C1113 H1101 0.950 . S
C1113 C1109 1.393 . S
C1113 C1112 1.391 . S
H1114 C1122 0.950 . S
H1115 C1127 0.950 . S
H1116 C1124 0.950 . S
H1117 C1126 0.950 . S
H1118 C1128 0.950 . S
H1119 C1130 0.950 . S
H1120 C1132 0.950 1_554 S
H1121 C1133 0.950 . S
C1122 H1114 0.950 . S
C1122 C1123 1.386 . S
C1122 C1124 1.391 . S
C1123 C1122 1.386 . S
C1123 C1127 1.393 . S
C1124 H1116 0.950 . S
C1124 C1122 1.391 . S
C1124 C1125 1.400 . S
C1125 C1124 1.400 . S
C1125 C1126 1.398 . S
C1125 C1131 1.491 . S
C1126 H1117 0.950 . S
C1126 C1125 1.398 . S
C1126 C1127 1.391 . S
C1127 H1115 0.950 . S
C1127 C1123 1.393 . S
C1127 C1126 1.391 . S
C1128 H1118 0.950 . S
C1128 C1129 1.386 . S
C1128 C1130 1.391 . S
C1129 C1128 1.386 . S
C1129 C1133 1.393 1_556 S
C1130 H1119 0.950 . S
C1130 C1128 1.391 . S
C1130 C1131 1.400 . S
C1131 C1125 1.491 . S
C1131 C1130 1.400 . S
C1131 C1132 1.398 . S
C1132 H1120 0.950 1_556 S
C1132 C1131 1.398 . S
C1132 C1133 1.391 1_556 S
C1133 H1121 0.950 . S
C1133 C1129 1.393 1_554 S
C1133 C1132 1.391 1_554 S
H1134 C1142 0.950 . S
H1135 C1147 0.950 . S
H1136 C1144 0.950 . S
H1137 C1146 0.950 . S
H1138 C1148 0.950 . S
H1139 C1150 0.950 . S
H1140 C1152 0.950 . S
H1141 C1153 0.950 . S
C1142 H1134 0.950 . S
C1142 C1143 1.386 . S
C1142 C1144 1.391 . S
C1143 C1142 1.386 . S
C1143 C1147 1.393 . S
C1144 H1136 0.950 . S
C1144 C1142 1.391 . S
C1144 C1145 1.400 . S
C1145 C1144 1.400 . S
C1145 C1146 1.398 . S
C1145 C1151 1.491 . S
C1146 H1137 0.950 . S
C1146 C1145 1.398 . S
C1146 C1147 1.391 . S
C1147 H1135 0.950 . S
C1147 C1143 1.393 . S
C1147 C1146 1.391 . S
C1148 H1138 0.950 . S
C1148 C1149 1.386 . S
C1148 C1150 1.391 . S
C1149 C1148 1.386 . S
C1149 C1153 1.393 . S
C1150 H1139 0.950 . S
C1150 C1148 1.391 . S
C1150 C1151 1.400 . S
C1151 C1145 1.491 . S
C1151 C1150 1.400 . S
C1151 C1152 1.398 . S
C1152 H1140 0.950 . S
C1152 C1151 1.398 . S
C1152 C1153 1.391 . S
C1153 H1141 0.950 . S
C1153 C1149 1.393 . S
C1153 C1152 1.391 . S
H1154 C1162 0.950 . S
H1155 C1167 0.950 . S
H1156 C1164 0.950 . S
H1157 C1166 0.950 . S
H1158 C1168 0.950 . S
H1159 C1170 0.950 . S
H1160 C1172 0.950 . S
H1161 C1173 0.950 . S
C1162 H1154 0.950 . S
C1162 C1163 1.386 . S
C1162 C1164 1.391 . S
C1163 C1162 1.386 . S
C1163 C1167 1.393 . S
C1164 H1156 0.950 . S
C1164 C1162 1.391 . S
C1164 C1165 1.400 . S
C1165 C1164 1.400 . S
C1165 C1166 1.398 . S
C1165 C1171 1.491 . S
C1166 H1157 0.950 . S
C1166 C1165 1.398 . S
C1166 C1167 1.391 . S
C1167 H1155 0.950 . S
C1167 C1163 1.393 . S
C1167 C1166 1.391 . S
C1168 H1158 0.950 . S
C1168 C1169 1.386 . S
C1168 C1170 1.391 . S
C1169 C1168 1.386 . S
C1169 C1173 1.393 . S
C1170 H1159 0.950 . S
C1170 C1168 1.391 . S
C1170 C1171 1.400 . S
C1171 C1165 1.491 . S
C1171 C1170 1.400 . S
C1171 C1172 1.398 . S
C1172 H1160 0.950 . S
C1172 C1171 1.398 . S
C1172 C1173 1.391 . S
C1173 H1161 0.950 . S
C1173 C1169 1.393 . S
C1173 C1172 1.391 . S
H1174 C1182 0.950 . S
H1175 C1187 0.950 . S
H1176 C1184 0.950 . S
H1177 C1186 0.950 . S
H1178 C1188 0.950 . S
H1179 C1190 0.950 . S
H1180 C1192 0.950 . S
H1181 C1193 0.950 . S
C1182 H1174 0.950 . S
C1182 C1183 1.386 . S
C1182 C1184 1.391 . S
C1183 C1182 1.386 . S
C1183 C1187 1.393 . S
C1184 H1176 0.950 . S
C1184 C1182 1.391 . S
C1184 C1185 1.400 . S
C1185 C1184 1.400 . S
C1185 C1186 1.398 . S
C1185 C1191 1.491 . S
C1186 H1177 0.950 . S
C1186 C1185 1.398 . S
C1186 C1187 1.391 . S
C1187 H1175 0.950 . S
C1187 C1183 1.393 . S
C1187 C1186 1.391 . S
C1188 H1178 0.950 . S
C1188 C1189 1.386 . S
C1188 C1190 1.391 . S
C1189 C1188 1.386 . S
C1189 C1193 1.393 . S
C1190 H1179 0.950 . S
C1190 C1188 1.391 . S
C1190 C1191 1.400 . S
C1191 C1185 1.491 . S
C1191 C1190 1.400 . S
C1191 C1192 1.398 . S
C1192 H1180 0.950 . S
C1192 C1191 1.398 . S
C1192 C1193 1.391 . S
C1193 H1181 0.950 . S
C1193 C1189 1.393 . S
C1193 C1192 1.391 . S
H1194 C1202 0.950 . S
H1195 C1207 0.950 . S
H1196 C1204 0.950 . S
H1197 C1206 0.950 1_455 S
H1198 C1208 0.950 . S
H1199 C1210 0.950 . S
H1200 C1212 0.950 . S
H1201 C1213 0.950 . S
C1202 H1194 0.950 . S
C1202 C1203 1.386 . S
C1202 C1204 1.391 . S
C1203 C1202 1.386 . S
C1203 C1207 1.393 . S
C1204 H1196 0.950 . S
C1204 C1202 1.391 . S
C1204 C1205 1.400 . S
C1205 C1204 1.400 . S
C1205 C1206 1.398 . S
C1205 C1211 1.491 1_655 S
C1206 H1197 0.950 1_655 S
C1206 C1205 1.398 . S
C1206 C1207 1.391 . S
C1207 H1195 0.950 . S
C1207 C1203 1.393 . S
C1207 C1206 1.391 . S
C1208 H1198 0.950 . S
C1208 C1209 1.386 . S
C1208 C1210 1.391 . S
C1209 C1208 1.386 . S
C1209 C1213 1.393 . S
C1210 H1199 0.950 . S
C1210 C1208 1.391 . S
C1210 C1211 1.400 . S
C1211 C1205 1.491 1_455 S
C1211 C1210 1.400 . S
C1211 C1212 1.398 . S
C1212 H1200 0.950 . S
C1212 C1211 1.398 . S
C1212 C1213 1.391 . S
C1213 H1201 0.950 . S
C1213 C1209 1.393 . S
C1213 C1212 1.391 . S
H1214 C1222 0.950 . S
H1215 C1227 0.950 . S
H1216 C1224 0.950 . S
H1217 C1226 0.950 . S
H1218 C1228 0.950 . S
H1219 C1230 0.950 . S
H1220 C1232 0.950 . S
H1221 C1233 0.950 . S
C1222 H1214 0.950 . S
C1222 C1223 1.386 . S
C1222 C1224 1.391 . S
C1223 C1222 1.386 . S
C1223 C1227 1.393 . S
C1224 H1216 0.950 . S
C1224 C1222 1.391 . S
C1224 C1225 1.400 . S
C1225 C1224 1.400 . S
C1225 C1226 1.398 . S
C1225 C1231 1.491 . S
C1226 H1217 0.950 . S
C1226 C1225 1.398 . S
C1226 C1227 1.391 . S
C1227 H1215 0.950 . S
C1227 C1223 1.393 . S
C1227 C1226 1.391 . S
C1228 H1218 0.950 . S
C1228 C1229 1.386 . S
C1228 C1230 1.391 . S
C1229 C1228 1.386 . S
C1229 C1233 1.393 . S
C1230 H1219 0.950 . S
C1230 C1228 1.391 . S
C1230 C1231 1.400 . S
C1231 C1225 1.491 . S
C1231 C1230 1.400 . S
C1231 C1232 1.398 . S
C1232 H1220 0.950 . S
C1232 C1231 1.398 . S
C1232 C1233 1.391 . S
C1233 H1221 0.950 . S
C1233 C1229 1.393 . S
C1233 C1232 1.391 . S
H1234 C1242 0.950 . S
H1235 C1247 0.950 . S
H1236 C1244 0.950 . S
H1237 C1246 0.950 . S
H1238 C1248 0.950 . S
H1239 C1250 0.950 1_545 S
H1240 C1252 0.950 . S
H1241 C1253 0.950 . S
C1242 H1234 0.950 . S
C1242 C1243 1.386 . S
C1242 C1244 1.391 . S
C1243 C1242 1.386 . S
C1243 C1247 1.393 . S
C1244 H1236 0.950 . S
C1244 C1242 1.391 . S
C1244 C1245 1.400 . S
C1245 C1244 1.400 . S
C1245 C1246 1.398 . S
C1245 C1251 1.491 1_545 S
C1246 H1237 0.950 . S
C1246 C1245 1.398 . S
C1246 C1247 1.391 . S
C1247 H1235 0.950 . S
C1247 C1243 1.393 . S
C1247 C1246 1.391 . S
C1248 H1238 0.950 . S
C1248 C1249 1.386 . S
C1248 C1250 1.391 . S
C1249 C1248 1.386 . S
C1249 C1253 1.393 . S
C1250 H1239 0.950 1_565 S
C1250 C1248 1.391 . S
C1250 C1251 1.400 . S
C1251 C1245 1.491 1_565 S
C1251 C1250 1.400 . S
C1251 C1252 1.398 . S
C1252 H1240 0.950 . S
C1252 C1251 1.398 . S
C1252 C1253 1.391 . S
C1253 H1241 0.950 . S
C1253 C1249 1.393 . S
C1253 C1252 1.391 . S
H1254 C1262 0.950 . S
H1255 C1267 0.950 . S
H1256 C1264 0.950 . S
H1257 C1266 0.950 . S
H1258 C1268 0.950 . S
H1259 C1270 0.950 . S
H1260 C1272 0.950 . S
H1261 C1273 0.950 . S
C1262 H1254 0.950 . S
C1262 C1263 1.386 . S
C1262 C1264 1.391 . S
C1263 C1262 1.386 . S
C1263 C1267 1.393 . S
C1264 H1256 0.950 . S
C1264 C1262 1.391 . S
C1264 C1265 1.400 . S
C1265 C1264 1.400 . S
C1265 C1266 1.398 . S
C1265 C1271 1.491 . S
C1266 H1257 0.950 . S
C1266 C1265 1.398 . S
C1266 C1267 1.391 . S
C1267 H1255 0.950 . S
C1267 C1263 1.393 . S
C1267 C1266 1.391 . S
C1268 H1258 0.950 . S
C1268 C1269 1.386 . S
C1268 C1270 1.391 . S
C1269 C1268 1.386 . S
C1269 C1273 1.393 . S
C1270 H1259 0.950 . S
C1270 C1268 1.391 . S
C1270 C1271 1.400 . S
C1271 C1265 1.491 . S
C1271 C1270 1.400 . S
C1271 C1272 1.398 . S
C1272 H1260 0.950 . S
C1272 C1271 1.398 . S
C1272 C1273 1.391 . S
C1273 H1261 0.950 . S
C1273 C1269 1.393 . S
C1273 C1272 1.391 . S
H1274 C1282 0.950 . S
H1275 C1287 0.950 . S
H1276 C1284 0.950 . S
H1277 C1286 0.950 . S
H1278 C1288 0.950 . S
H1279 C1290 0.950 . S
H1280 C1292 0.950 . S
H1281 C1293 0.950 . S
C1282 H1274 0.950 . S
C1282 C1283 1.386 . S
C1282 C1284 1.391 . S
C1283 C1282 1.386 . S
C1283 C1287 1.393 . S
C1284 H1276 0.950 . S
C1284 C1282 1.391 . S
C1284 C1285 1.400 . S
C1285 C1284 1.400 . S
C1285 C1286 1.398 . S
C1285 C1291 1.491 . S
C1286 H1277 0.950 . S
C1286 C1285 1.398 . S
C1286 C1287 1.391 . S
C1287 H1275 0.950 . S
C1287 C1283 1.393 . S
C1287 C1286 1.391 . S
C1288 H1278 0.950 . S
C1288 C1289 1.386 . S
C1288 C1290 1.391 . S
C1289 C1288 1.386 . S
C1289 C1293 1.393 . S
C1290 H1279 0.950 . S
C1290 C1288 1.391 . S
C1290 C1291 1.400 . S
C1291 C1285 1.491 . S
C1291 C1290 1.400 . S
C1291 C1292 1.398 . S
C1292 H1280 0.950 . S
C1292 C1291 1.398 . S
C1292 C1293 1.391 . S
C1293 H1281 0.950 . S
C1293 C1289 1.393 . S
C1293 C1292 1.391 . S
H1294 C1302 0.950 . S
H1295 C1307 0.950 . S
H1296 C1304 0.950 . S
H1297 C1306 0.950 . S
H1298 C1308 0.950 . S
H1299 C1310 0.950 . S
H1300 C1312 0.950 . S
H1301 C1313 0.950 . S
C1302 H1294 0.950 . S
C1302 C1303 1.386 . S
C1302 C1304 1.391 . S
C1303 C1302 1.386 . S
C1303 C1307 1.393 . S
C1304 H1296 0.950 . S
C1304 C1302 1.391 . S
C1304 C1305 1.400 . S
C1305 C1304 1.400 . S
C1305 C1306 1.398 . S
C1305 C1311 1.491 . S
C1306 H1297 0.950 . S
C1306 C1305 1.398 . S
C1306 C1307 1.391 . S
C1307 H1295 0.950 . S
C1307 C1303 1.393 . S
C1307 C1306 1.391 . S
C1308 H1298 0.950 . S
C1308 C1309 1.386 . S
C1308 C1310 1.391 . S
C1309 C1308 1.386 . S
C1309 C1313 1.393 . S
C1310 H1299 0.950 . S
C1310 C1308 1.391 . S
C1310 C1311 1.400 . S
C1311 C1305 1.491 . S
C1311 C1310 1.400 . S
C1311 C1312 1.398 . S
C1312 H1300 0.950 . S
C1312 C1311 1.398 . S
C1312 C1313 1.391 . S
C1313 H1301 0.950 . S
C1313 C1309 1.393 . S
C1313 C1312 1.391 . S
H1314 C1322 0.950 . S
H1315 C1327 0.950 . S
H1316 C1324 0.950 . S
H1317 C1326 0.950 . S
H1318 C1328 0.950 . S
H1319 C1330 0.950 . S
H1320 C1332 0.950 . S
H1321 C1333 0.950 . S
C1322 H1314 0.950 . S
C1322 C1323 1.386 . S
C1322 C1324 1.391 . S
C1323 C1322 1.386 . S
C1323 C1327 1.393 . S
C1324 H1316 0.950 . S
C1324 C1322 1.391 . S
C1324 C1325 1.400 . S
C1325 C1324 1.400 . S
C1325 C1326 1.398 . S
C1325 C1331 1.491 . S
C1326 H1317 0.950 . S
C1326 C1325 1.398 . S
C1326 C1327 1.391 . S
C1327 H1315 0.950 . S
C1327 C1323 1.393 . S
C1327 C1326 1.391 . S
C1328 H1318 0.950 . S
C1328 C1329 1.386 . S
C1328 C1330 1.391 . S
C1329 C1328 1.386 . S
C1329 C1333 1.393 . S
C1330 H1319 0.950 . S
C1330 C1328 1.391 . S
C1330 C1331 1.400 . S
C1331 C1325 1.491 . S
C1331 C1330 1.400 . S
C1331 C1332 1.398 . S
C1332 H1320 0.950 . S
C1332 C1331 1.398 . S
C1332 C1333 1.391 . S
C1333 H1321 0.950 . S
C1333 C1329 1.393 . S
C1333 C1332 1.391 . S
H1334 C1342 0.950 . S
H1335 C1347 0.950 . S
H1336 C1344 0.950 . S
H1337 C1346 0.950 . S
H1338 C1348 0.950 . S
H1339 C1350 0.950 . S
H1340 C1352 0.950 . S
H1341 C1353 0.950 . S
C1342 H1334 0.950 . S
C1342 C1343 1.386 . S
C1342 C1344 1.391 . S
C1343 C1342 1.386 . S
C1343 C1347 1.393 . S
C1344 H1336 0.950 . S
C1344 C1342 1.391 . S
C1344 C1345 1.400 . S
C1345 C1344 1.400 . S
C1345 C1346 1.398 . S
C1345 C1351 1.491 . S
C1346 H1337 0.950 . S
C1346 C1345 1.398 . S
C1346 C1347 1.391 . S
C1347 H1335 0.950 . S
C1347 C1343 1.393 . S
C1347 C1346 1.391 . S
C1348 H1338 0.950 . S
C1348 C1349 1.386 . S
C1348 C1350 1.391 . S
C1349 C1348 1.386 . S
C1349 C1353 1.393 . S
C1350 H1339 0.950 . S
C1350 C1348 1.391 . S
C1350 C1351 1.400 . S
C1351 C1345 1.491 . S
C1351 C1350 1.400 . S
C1351 C1352 1.398 . S
C1352 H1340 0.950 . S
C1352 C1351 1.398 . S
C1352 C1353 1.391 . S
C1353 H1341 0.950 . S
C1353 C1349 1.393 . S
C1353 C1352 1.391 . S
H1354 C1362 0.950 . S
H1355 C1367 0.950 . S
H1356 C1364 0.950 . S
H1357 C1366 0.950 . S
H1358 C1368 0.950 . S
H1359 C1370 0.950 . S
H1360 C1372 0.950 . S
H1361 C1373 0.950 . S
C1362 H1354 0.950 . S
C1362 C1363 1.386 . S
C1362 C1364 1.391 . S
C1363 C1362 1.386 . S
C1363 C1367 1.393 . S
C1364 H1356 0.950 . S
C1364 C1362 1.391 . S
C1364 C1365 1.400 . S
C1365 C1364 1.400 . S
C1365 C1366 1.398 . S
C1365 C1371 1.491 . S
C1366 H1357 0.950 . S
C1366 C1365 1.398 . S
C1366 C1367 1.391 . S
C1367 H1355 0.950 . S
C1367 C1363 1.393 . S
C1367 C1366 1.391 . S
C1368 H1358 0.950 . S
C1368 C1369 1.386 . S
C1368 C1370 1.391 . S
C1369 C1368 1.386 . S
C1369 C1373 1.393 . S
C1370 H1359 0.950 . S
C1370 C1368 1.391 . S
C1370 C1371 1.400 . S
C1371 C1365 1.491 . S
C1371 C1370 1.400 . S
C1371 C1372 1.398 . S
C1372 H1360 0.950 . S
C1372 C1371 1.398 . S
C1372 C1373 1.391 . S
C1373 H1361 0.950 . S
C1373 C1369 1.393 . S
C1373 C1372 1.391 . S
H1374 C1382 0.950 . S
H1375 C1387 0.950 . S
H1376 C1384 0.950 . S
H1377 C1386 0.950 . S
H1378 C1388 0.950 . S
H1379 C1390 0.950 . S
H1380 C1392 0.950 . S
H1381 C1393 0.950 . S
C1382 H1374 0.950 . S
C1382 C1383 1.386 . S
C1382 C1384 1.391 1_545 S
C1383 C1382 1.386 . S
C1383 C1387 1.393 . S
C1384 H1376 0.950 . S
C1384 C1382 1.391 1_565 S
C1384 C1385 1.400 . S
C1385 C1384 1.400 . S
C1385 C1386 1.398 . S
C1385 C1391 1.491 . S
C1386 H1377 0.950 . S
C1386 C1385 1.398 . S
C1386 C1387 1.391 1_565 S
C1387 H1375 0.950 . S
C1387 C1383 1.393 . S
C1387 C1386 1.391 1_545 S
C1388 H1378 0.950 . S
C1388 C1389 1.386 . S
C1388 C1390 1.391 . S
C1389 C1388 1.386 . S
C1389 C1393 1.393 . S
C1390 H1379 0.950 . S
C1390 C1388 1.391 . S
C1390 C1391 1.400 . S
C1391 C1385 1.491 . S
C1391 C1390 1.400 . S
C1391 C1392 1.398 . S
C1392 H1380 0.950 . S
C1392 C1391 1.398 . S
C1392 C1393 1.391 . S
C1393 H1381 0.950 . S
C1393 C1389 1.393 . S
C1393 C1392 1.391 . S
H1394 C1402 0.950 1_655 S
H1395 C1407 0.950 . S
H1396 C1404 0.950 . S
H1397 C1406 0.950 . S
H1398 C1408 0.950 . S
H1399 C1410 0.950 . S
H1400 C1412 0.950 . S
H1401 C1413 0.950 . S
C1402 H1394 0.950 1_455 S
C1402 C1403 1.386 1_455 S
C1402 C1404 1.391 . S
C1403 C1402 1.386 1_655 S
C1403 C1407 1.393 1_655 S
C1404 H1396 0.950 . S
C1404 C1402 1.391 . S
C1404 C1405 1.400 . S
C1405 C1404 1.400 . S
C1405 C1406 1.398 . S
C1405 C1411 1.491 . S
C1406 H1397 0.950 . S
C1406 C1405 1.398 . S
C1406 C1407 1.391 . S
C1407 H1395 0.950 . S
C1407 C1403 1.393 1_455 S
C1407 C1406 1.391 . S
C1408 H1398 0.950 . S
C1408 C1409 1.386 . S
C1408 C1410 1.391 . S
C1409 C1408 1.386 . S
C1409 C1413 1.393 . S
C1410 H1399 0.950 . S
C1410 C1408 1.391 . S
C1410 C1411 1.400 . S
C1411 C1405 1.491 . S
C1411 C1410 1.400 . S
C1411 C1412 1.398 . S
C1412 H1400 0.950 . S
C1412 C1411 1.398 . S
C1412 C1413 1.391 . S
C1413 H1401 0.950 . S
C1413 C1409 1.393 . S
C1413 C1412 1.391 . S
H1414 C1422 0.950 . S
H1415 C1427 0.950 . S
H1416 C1424 0.950 . S
H1417 C1426 0.950 . S
H1418 C1428 0.950 . S
H1419 C1430 0.950 . S
H1420 C1432 0.950 . S
H1421 C1433 0.950 . S
C1422 H1414 0.950 . S
C1422 C1423 1.386 . S
C1422 C1424 1.391 . S
C1423 C1422 1.386 . S
C1423 C1427 1.393 . S
C1424 H1416 0.950 . S
C1424 C1422 1.391 . S
C1424 C1425 1.400 . S
C1425 C1424 1.400 . S
C1425 C1426 1.398 . S
C1425 C1431 1.491 . S
C1426 H1417 0.950 . S
C1426 C1425 1.398 . S
C1426 C1427 1.391 . S
C1427 H1415 0.950 . S
C1427 C1423 1.393 . S
C1427 C1426 1.391 . S
C1428 H1418 0.950 . S
C1428 C1429 1.386 . S
C1428 C1430 1.391 . S
C1429 C1428 1.386 . S
C1429 C1433 1.393 . S
C1430 H1419 0.950 . S
C1430 C1428 1.391 . S
C1430 C1431 1.400 . S
C1431 C1425 1.491 . S
C1431 C1430 1.400 . S
C1431 C1432 1.398 . S
C1432 H1420 0.950 . S
C1432 C1431 1.398 . S
C1432 C1433 1.391 . S
C1433 H1421 0.950 . S
C1433 C1429 1.393 . S
C1433 C1432 1.391 . S
H1434 C1442 0.950 . S
H1435 C1447 0.950 . S
H1436 C1444 0.950 . S
H1437 C1446 0.950 . S
H1438 C1448 0.950 . S
H1439 C1450 0.950 . S
H1440 C1452 0.950 . S
H1441 C1453 0.950 . S
C1442 H1434 0.950 . S
C1442 C1443 1.386 . S
C1442 C1444 1.391 . S
C1443 C1442 1.386 . S
C1443 C1447 1.393 . S
C1444 H1436 0.950 . S
C1444 C1442 1.391 . S
C1444 C1445 1.400 . S
C1445 C1444 1.400 . S
C1445 C1446 1.398 . S
C1445 C1451 1.491 . S
C1446 H1437 0.950 . S
C1446 C1445 1.398 . S
C1446 C1447 1.391 . S
C1447 H1435 0.950 . S
C1447 C1443 1.393 . S
C1447 C1446 1.391 . S
C1448 H1438 0.950 . S
C1448 C1449 1.386 . S
C1448 C1450 1.391 . S
C1449 C1448 1.386 . S
C1449 C1453 1.393 . S
C1450 H1439 0.950 . S
C1450 C1448 1.391 . S
C1450 C1451 1.400 . S
C1451 C1445 1.491 . S
C1451 C1450 1.400 . S
C1451 C1452 1.398 . S
C1452 H1440 0.950 . S
C1452 C1451 1.398 . S
C1452 C1453 1.391 . S
C1453 H1441 0.950 . S
C1453 C1449 1.393 . S
C1453 C1452 1.391 . S
H1454 C1462 0.950 . S
H1455 C1467 0.950 . S
H1456 C1464 0.950 . S
H1457 C1466 0.950 . S
H1458 C1468 0.950 . S
H1459 C1470 0.950 . S
H1460 C1472 0.950 . S
H1461 C1473 0.950 . S
C1462 H1454 0.950 . S
C1462 C1463 1.386 . S
C1462 C1464 1.391 . S
C1463 C1462 1.386 . S
C1463 C1467 1.393 . S
C1464 H1456 0.950 . S
C1464 C1462 1.391 . S
C1464 C1465 1.400 . S
C1465 C1464 1.400 . S
C1465 C1466 1.398 . S
C1465 C1471 1.491 . S
C1466 H1457 0.950 . S
C1466 C1465 1.398 . S
C1466 C1467 1.391 . S
C1467 H1455 0.950 . S
C1467 C1463 1.393 . S
C1467 C1466 1.391 . S
C1468 H1458 0.950 . S
C1468 C1469 1.386 . S
C1468 C1470 1.391 . S
C1469 C1468 1.386 . S
C1469 C1473 1.393 . S
C1470 H1459 0.950 . S
C1470 C1468 1.391 . S
C1470 C1471 1.400 . S
C1471 C1465 1.491 . S
C1471 C1470 1.400 . S
C1471 C1472 1.398 . S
C1472 H1460 0.950 . S
C1472 C1471 1.398 . S
C1472 C1473 1.391 . S
C1473 H1461 0.950 . S
C1473 C1469 1.393 . S
C1473 C1472 1.391 . S
H1474 C1482 0.950 . S
H1475 C1487 0.950 . S
H1476 C1484 0.950 . S
H1477 C1486 0.950 . S
H1478 C1488 0.950 . S
H1479 C1490 0.950 . S
H1480 C1492 0.950 . S
H1481 C1493 0.950 . S
C1482 H1474 0.950 . S
C1482 C1483 1.386 . S
C1482 C1484 1.391 . S
C1483 C1482 1.386 . S
C1483 C1487 1.393 . S
C1484 H1476 0.950 . S
C1484 C1482 1.391 . S
C1484 C1485 1.400 . S
C1485 C1484 1.400 . S
C1485 C1486 1.398 . S
C1485 C1491 1.491 . S
C1486 H1477 0.950 . S
C1486 C1485 1.398 . S
C1486 C1487 1.391 . S
C1487 H1475 0.950 . S
C1487 C1483 1.393 . S
C1487 C1486 1.391 . S
C1488 H1478 0.950 . S
C1488 C1489 1.386 . S
C1488 C1490 1.391 . S
C1489 C1488 1.386 . S
C1489 C1493 1.393 . S
C1490 H1479 0.950 . S
C1490 C1488 1.391 . S
C1490 C1491 1.400 . S
C1491 C1485 1.491 . S
C1491 C1490 1.400 . S
C1491 C1492 1.398 . S
C1492 H1480 0.950 . S
C1492 C1491 1.398 . S
C1492 C1493 1.391 . S
C1493 H1481 0.950 . S
C1493 C1489 1.393 . S
C1493 C1492 1.391 . S
H1494 C1502 0.950 . S
H1495 C1507 0.950 . S
H1496 C1504 0.961 . S
H1497 C1506 0.950 . S
H1498 C1508 0.950 . S
H1499 C1510 0.950 . S
H1500 C1512 0.950 . S
H1501 C1513 0.950 . S
C1502 H1494 0.950 . S
C1502 C1503 1.386 . S
C1502 C1504 1.391 . S
C1503 C1502 1.386 . S
C1503 C1507 1.393 . S
C1504 H1496 0.961 . S
C1504 C1502 1.391 . S
C1504 C1505 1.400 . S
C1505 C1504 1.400 . S
C1505 C1506 1.398 . S
C1505 C1511 1.491 1_565 S
C1506 H1497 0.950 . S
C1506 C1505 1.398 . S
C1506 C1507 1.391 . S
C1507 H1495 0.950 . S
C1507 C1503 1.393 . S
C1507 C1506 1.391 . S
C1508 H1498 0.950 . S
C1508 C1509 1.386 . S
C1508 C1510 1.391 . S
C1509 C1508 1.386 . S
C1509 C1513 1.393 . S
C1510 H1499 0.950 . S
C1510 C1508 1.391 . S
C1510 C1511 1.400 . S
C1511 C1505 1.491 1_545 S
C1511 C1510 1.400 . S
C1511 C1512 1.398 . S
C1512 H1500 0.950 . S
C1512 C1511 1.398 . S
C1512 C1513 1.391 . S
C1513 H1501 0.950 . S
C1513 C1509 1.393 . S
C1513 C1512 1.391 . S
H1514 C1522 0.950 . S
H1515 C1527 0.950 . S
H1516 C1524 0.950 . S
H1517 C1526 0.950 . S
H1518 C1528 0.950 . S
H1519 C1530 0.950 . S
H1520 C1532 0.950 . S
H1521 C1533 0.950 . S
C1522 H1514 0.950 . S
C1522 C1523 1.386 . S
C1522 C1524 1.391 . S
C1523 C1522 1.386 . S
C1523 C1527 1.393 . S
C1524 H1516 0.950 . S
C1524 C1522 1.391 . S
C1524 C1525 1.400 . S
C1525 C1524 1.400 . S
C1525 C1526 1.398 . S
C1525 C1531 1.491 1_455 S
C1526 H1517 0.950 . S
C1526 C1525 1.398 . S
C1526 C1527 1.391 . S
C1527 H1515 0.950 . S
C1527 C1523 1.393 . S
C1527 C1526 1.391 . S
C1528 H1518 0.950 . S
C1528 C1529 1.386 . S
C1528 C1530 1.391 . S
C1529 C1528 1.386 . S
C1529 C1533 1.393 . S
C1530 H1519 0.950 . S
C1530 C1528 1.391 . S
C1530 C1531 1.400 . S
C1531 C1525 1.491 1_655 S
C1531 C1530 1.400 . S
C1531 C1532 1.398 . S
C1532 H1520 0.950 . S
C1532 C1531 1.398 . S
C1532 C1533 1.391 . S
C1533 H1521 0.950 . S
C1533 C1529 1.393 . S
C1533 C1532 1.391 . S
H1534 C1542 0.950 . S
H1535 C1547 0.950 . S
H1536 C1544 0.950 . S
H1537 C1546 0.950 . S
H1538 C1548 0.950 . S
H1539 C1550 0.950 . S
H1540 C1552 0.950 . S
H1541 C1553 0.950 . S
C1542 H1534 0.950 . S
C1542 C1543 1.386 . S
C1542 C1544 1.391 . S
C1543 C1542 1.386 . S
C1543 C1547 1.393 . S
C1544 H1536 0.950 . S
C1544 C1542 1.391 . S
C1544 C1545 1.400 . S
C1545 C1544 1.400 . S
C1545 C1546 1.398 . S
C1545 C1551 1.491 . S
C1546 H1537 0.950 . S
C1546 C1545 1.398 . S
C1546 C1547 1.391 . S
C1547 H1535 0.950 . S
C1547 C1543 1.393 . S
C1547 C1546 1.391 . S
C1548 H1538 0.950 . S
C1548 C1549 1.386 . S
C1548 C1550 1.391 . S
C1549 C1548 1.386 . S
C1549 C1553 1.393 . S
C1550 H1539 0.950 . S
C1550 C1548 1.391 . S
C1550 C1551 1.400 . S
C1551 C1545 1.491 . S
C1551 C1550 1.400 . S
C1551 C1552 1.398 . S
C1552 H1540 0.950 . S
C1552 C1551 1.398 . S
C1552 C1553 1.391 . S
C1553 H1541 0.950 . S
C1553 C1549 1.393 . S
C1553 C1552 1.391 . S
H1554 C1562 0.950 1_455 S
H1555 C1567 0.950 . S
H1556 C1564 0.950 . S
H1557 C1566 0.950 . S
H1558 C1568 0.950 . S
H1559 C1570 0.950 . S
H1560 C1572 0.950 . S
H1561 C1573 0.950 . S
C1562 H1554 0.950 1_655 S
C1562 C1563 1.386 1_655 S
C1562 C1564 1.391 . S
C1563 C1562 1.386 1_455 S
C1563 C1567 1.393 . S
C1564 H1556 0.950 . S
C1564 C1562 1.391 . S
C1564 C1565 1.400 . S
C1565 C1564 1.400 . S
C1565 C1566 1.398 . S
C1565 C1571 1.491 . S
C1566 H1557 0.950 . S
C1566 C1565 1.398 . S
C1566 C1567 1.391 1_655 S
C1567 H1555 0.950 . S
C1567 C1563 1.393 . S
C1567 C1566 1.391 1_455 S
C1568 H1558 0.950 . S
C1568 C1569 1.386 . S
C1568 C1570 1.391 . S
C1569 C1568 1.386 . S
C1569 C1573 1.393 . S
C1570 H1559 0.950 . S
C1570 C1568 1.391 . S
C1570 C1571 1.400 . S
C1571 C1565 1.491 . S
C1571 C1570 1.400 . S
C1571 C1572 1.398 . S
C1572 H1560 0.950 . S
C1572 C1571 1.398 . S
C1572 C1573 1.391 . S
C1573 H1561 0.950 . S
C1573 C1569 1.393 . S
C1573 C1572 1.391 . S
H1574 C1582 0.950 . S
H1575 C1587 0.950 . S
H1576 C1584 0.950 . S
H1577 C1586 0.950 . S
H1578 C1588 0.950 . S
H1579 C1590 0.950 . S
H1580 C1592 0.950 . S
H1581 C1593 0.950 . S
C1582 H1574 0.950 . S
C1582 C1583 1.386 . S
C1582 C1584 1.391 . S
C1583 C1582 1.386 . S
C1583 C1587 1.393 . S
C1584 H1576 0.950 . S
C1584 C1582 1.391 . S
C1584 C1585 1.400 . S
C1585 C1584 1.400 . S
C1585 C1586 1.398 . S
C1585 C1591 1.491 . S
C1586 H1577 0.950 . S
C1586 C1585 1.398 . S
C1586 C1587 1.391 . S
C1587 H1575 0.950 . S
C1587 C1583 1.393 . S
C1587 C1586 1.391 . S
C1588 H1578 0.950 . S
C1588 C1589 1.386 . S
C1588 C1590 1.391 . S
C1589 C1588 1.386 . S
C1589 C1593 1.393 . S
C1590 H1579 0.950 . S
C1590 C1588 1.391 . S
C1590 C1591 1.400 . S
C1591 C1585 1.491 . S
C1591 C1590 1.400 . S
C1591 C1592 1.398 . S
C1592 H1580 0.950 . S
C1592 C1591 1.398 . S
C1592 C1593 1.391 . S
C1593 H1581 0.950 . S
C1593 C1589 1.393 . S
C1593 C1592 1.391 . S
H1594 C1602 0.950 . S
H1595 C1607 0.950 1_565 S
H1596 C1604 0.950 . S
H1597 C1606 0.950 . S
H1598 C1608 0.950 . S
H1599 C1610 0.950 . S
H1600 C1612 0.950 . S
H1601 C1613 0.950 . S
C1602 H1594 0.950 . S
C1602 C1603 1.386 . S
C1602 C1604 1.391 1_565 S
C1603 C1602 1.386 . S
C1603 C1607 1.393 1_565 S
C1604 H1596 0.950 . S
C1604 C1602 1.391 1_545 S
C1604 C1605 1.400 . S
C1605 C1604 1.400 . S
C1605 C1606 1.398 . S
C1605 C1611 1.491 . S
C1606 H1597 0.950 . S
C1606 C1605 1.398 . S
C1606 C1607 1.391 . S
C1607 H1595 0.950 1_545 S
C1607 C1603 1.393 1_545 S
C1607 C1606 1.391 . S
C1608 H1598 0.950 . S
C1608 C1609 1.386 . S
C1608 C1610 1.391 . S
C1609 C1608 1.386 . S
C1609 C1613 1.393 . S
C1610 H1599 0.950 . S
C1610 C1608 1.391 . S
C1610 C1611 1.400 . S
C1611 C1605 1.491 . S
C1611 C1610 1.400 . S
C1611 C1612 1.398 . S
C1612 H1600 0.950 . S
C1612 C1611 1.398 . S
C1612 C1613 1.391 . S
C1613 H1601 0.950 . S
C1613 C1609 1.393 . S
C1613 C1612 1.391 . S
H1614 C1622 0.950 . S
H1615 C1627 0.950 . S
H1616 C1624 0.950 . S
H1617 C1626 0.950 . S
H1618 C1628 0.950 . S
H1619 C1630 0.950 . S
H1620 C1632 0.950 . S
H1621 C1633 0.950 . S
C1622 H1614 0.950 . S
C1622 C1623 1.386 . S
C1622 C1624 1.391 . S
C1623 C1622 1.386 . S
C1623 C1627 1.393 . S
C1624 H1616 0.950 . S
C1624 C1622 1.391 . S
C1624 C1625 1.400 . S
C1625 C1624 1.400 . S
C1625 C1626 1.398 . S
C1625 C1631 1.491 . S
C1626 H1617 0.950 . S
C1626 C1625 1.398 . S
C1626 C1627 1.391 . S
C1627 H1615 0.950 . S
C1627 C1623 1.393 . S
C1627 C1626 1.391 . S
C1628 H1618 0.950 . S
C1628 C1629 1.386 . S
C1628 C1630 1.391 . S
C1629 C1628 1.386 . S
C1629 C1633 1.393 . S
C1630 H1619 0.950 . S
C1630 C1628 1.391 . S
C1630 C1631 1.400 . S
C1631 C1625 1.491 . S
C1631 C1630 1.400 . S
C1631 C1632 1.398 . S
C1632 H1620 0.950 . S
C1632 C1631 1.398 . S
C1632 C1633 1.391 . S
C1633 H1621 0.950 . S
C1633 C1629 1.393 . S
C1633 C1632 1.391 . S
H1634 C1642 0.950 . S
H1635 C1647 0.950 . S
H1636 C1644 0.950 . S
H1637 C1646 0.950 . S
H1638 C1648 0.950 . S
H1639 C1650 0.950 . S
H1640 C1652 0.950 . S
H1641 C1653 0.950 . S
C1642 H1634 0.950 . S
C1642 C1643 1.386 . S
C1642 C1644 1.391 . S
C1643 C1642 1.386 . S
C1643 C1647 1.393 . S
C1644 H1636 0.950 . S
C1644 C1642 1.391 . S
C1644 C1645 1.400 . S
C1645 C1644 1.400 . S
C1645 C1646 1.398 . S
C1645 C1651 1.491 . S
C1646 H1637 0.950 . S
C1646 C1645 1.398 . S
C1646 C1647 1.391 . S
C1647 H1635 0.950 . S
C1647 C1643 1.393 . S
C1647 C1646 1.391 . S
C1648 H1638 0.950 . S
C1648 C1649 1.386 . S
C1648 C1650 1.391 . S
C1649 C1648 1.386 . S
C1649 C1653 1.393 . S
C1650 H1639 0.950 . S
C1650 C1648 1.391 . S
C1650 C1651 1.400 . S
C1651 C1645 1.491 . S
C1651 C1650 1.400 . S
C1651 C1652 1.398 . S
C1652 H1640 0.950 . S
C1652 C1651 1.398 . S
C1652 C1653 1.391 . S
C1653 H1641 0.950 . S
C1653 C1649 1.393 . S
C1653 C1652 1.391 . S
H1654 C1662 0.950 . S
H1655 C1667 0.950 . S
H1656 C1664 0.950 . S
H1657 C1666 0.950 . S
H1658 C1668 0.950 . S
H1659 C1670 0.950 . S
H1660 C1672 0.950 . S
H1661 C1673 0.950 . S
C1662 H1654 0.950 . S
C1662 C1663 1.386 . S
C1662 C1664 1.391 . S
C1663 C1662 1.386 . S
C1663 C1667 1.393 . S
C1664 H1656 0.950 . S
C1664 C1662 1.391 . S
C1664 C1665 1.400 . S
C1665 C1664 1.400 . S
C1665 C1666 1.398 . S
C1665 C1671 1.491 . S
C1666 H1657 0.950 . S
C1666 C1665 1.398 . S
C1666 C1667 1.391 . S
C1667 H1655 0.950 . S
C1667 C1663 1.393 . S
C1667 C1666 1.391 . S
C1668 H1658 0.950 . S
C1668 C1669 1.386 . S
C1668 C1670 1.391 . S
C1669 C1668 1.386 . S
C1669 C1673 1.393 . S
C1670 H1659 0.950 . S
C1670 C1668 1.391 . S
C1670 C1671 1.400 . S
C1671 C1665 1.491 . S
C1671 C1670 1.400 . S
C1671 C1672 1.398 . S
C1672 H1660 0.950 . S
C1672 C1671 1.398 . S
C1672 C1673 1.391 . S
C1673 H1661 0.950 . S
C1673 C1669 1.393 . S
C1673 C1672 1.391 . S
H1674 C1682 0.950 . S
H1675 C1687 0.950 . S
H1676 C1684 0.950 . S
H1677 C1686 0.950 . S
H1678 C1688 0.950 . S
H1679 C1690 0.950 . S
H1680 C1692 0.950 . S
H1681 C1693 0.950 . S
C1682 H1674 0.950 . S
C1682 C1683 1.386 . S
C1682 C1684 1.391 . S
C1683 C1682 1.386 . S
C1683 C1687 1.393 . S
C1684 H1676 0.950 . S
C1684 C1682 1.391 . S
C1684 C1685 1.400 . S
C1685 C1684 1.400 . S
C1685 C1686 1.398 . S
C1685 C1691 1.491 . S
C1686 H1677 0.950 . S
C1686 C1685 1.398 . S
C1686 C1687 1.391 . S
C1687 H1675 0.950 . S
C1687 C1683 1.393 . S
C1687 C1686 1.391 . S
C1688 H1678 0.950 . S
C1688 C1689 1.386 . S
C1688 C1690 1.391 . S
C1689 C1688 1.386 . S
C1689 C1693 1.393 . S
C1690 H1679 0.950 . S
C1690 C1688 1.391 . S
C1690 C1691 1.400 . S
C1691 C1685 1.491 . S
C1691 C1690 1.400 . S
C1691 C1692 1.398 . S
C1692 H1680 0.950 . S
C1692 C1691 1.398 . S
C1692 C1693 1.391 . S
C1693 H1681 0.950 . S
C1693 C1689 1.393 . S
C1693 C1692 1.391 . S
H1694 C1702 0.950 . S
H1695 C1707 0.950 . S
H1696 C1704 0.950 . S
H1697 C1706 0.950 . S
H1698 C1708 0.950 . S
H1699 C1710 0.950 . S
H1700 C1712 0.950 . S
H1701 C1713 0.950 . S
C1702 H1694 0.950 . S
C1702 C1703 1.386 . S
C1702 C1704 1.391 . S
C1703 C1702 1.386 . S
C1703 C1707 1.393 . S
C1704 H1696 0.950 . S
C1704 C1702 1.391 . S
C1704 C1705 1.400 . S
C1705 C1704 1.400 . S
C1705 C1706 1.398 . S
C1705 C1711 1.491 . S
C1706 H1697 0.950 . S
C1706 C1705 1.398 . S
C1706 C1707 1.391 . S
C1707 H1695 0.950 . S
C1707 C1703 1.393 . S
C1707 C1706 1.391 . S
C1708 H1698 0.950 . S
C1708 C1709 1.386 . S
C1708 C1710 1.391 . S
C1709 C1708 1.386 . S
C1709 C1713 1.393 . S
C1710 H1699 0.950 . S
C1710 C1708 1.391 . S
C1710 C1711 1.400 . S
C1711 C1705 1.491 . S
C1711 C1710 1.400 . S
C1711 C1712 1.398 . S
C1712 H1700 0.950 . S
C1712 C1711 1.398 . S
C1712 C1713 1.391 . S
C1713 H1701 0.950 . S
C1713 C1709 1.393 . S
C1713 C1712 1.391 . S
H1714 C1722 0.950 . S
H1715 C1727 0.950 . S
H1716 C1724 0.950 . S
H1717 C1726 0.950 . S
H1718 C1728 0.950 . S
H1719 C1730 0.950 . S
H1720 C1732 0.950 . S
H1721 C1733 0.950 . S
C1722 H1714 0.950 . S
C1722 C1723 1.386 . S
C1722 C1724 1.391 . S
C1723 C1722 1.386 . S
C1723 C1727 1.393 . S
C1724 H1716 0.950 . S
C1724 C1722 1.391 . S
C1724 C1725 1.400 . S
C1725 C1724 1.400 . S
C1725 C1726 1.398 . S
C1725 C1731 1.491 . S
C1726 H1717 0.950 . S
C1726 C1725 1.398 . S
C1726 C1727 1.391 . S
C1727 H1715 0.950 . S
C1727 C1723 1.393 . S
C1727 C1726 1.391 . S
C1728 H1718 0.950 . S
C1728 C1729 1.386 . S
C1728 C1730 1.391 . S
C1729 C1728 1.386 . S
C1729 C1733 1.393 . S
C1730 H1719 0.950 . S
C1730 C1728 1.391 . S
C1730 C1731 1.400 . S
C1731 C1725 1.491 . S
C1731 C1730 1.400 . S
C1731 C1732 1.398 . S
C1732 H1720 0.950 . S
C1732 C1731 1.398 . S
C1732 C1733 1.391 . S
C1733 H1721 0.950 . S
C1733 C1729 1.393 . S
C1733 C1732 1.391 . S
H1734 C1742 0.950 . S
H1735 C1747 0.950 . S
H1736 C1744 0.950 . S
H1737 C1746 0.950 . S
H1738 C1748 0.950 . S
H1739 C1750 0.950 . S
H1740 C1752 0.950 . S
H1741 C1753 0.950 . S
C1742 H1734 0.950 . S
C1742 C1743 1.386 . S
C1742 C1744 1.391 . S
C1743 C1742 1.386 . S
C1743 C1747 1.393 . S
C1744 H1736 0.950 . S
C1744 C1742 1.391 . S
C1744 C1745 1.400 . S
C1745 C1744 1.400 . S
C1745 C1746 1.398 . S
C1745 C1751 1.491 . S
C1746 H1737 0.950 . S
C1746 C1745 1.398 . S
C1746 C1747 1.391 . S
C1747 H1735 0.950 . S
C1747 C1743 1.393 . S
C1747 C1746 1.391 . S
C1748 H1738 0.950 . S
C1748 C1749 1.386 . S
C1748 C1750 1.391 . S
C1749 C1748 1.386 . S
C1749 C1753 1.393 . S
C1750 H1739 0.950 . S
C1750 C1748 1.391 . S
C1750 C1751 1.400 . S
C1751 C1745 1.491 . S
C1751 C1750 1.400 . S
C1751 C1752 1.398 . S
C1752 H1740 0.950 . S
C1752 C1751 1.398 . S
C1752 C1753 1.391 . S
C1753 H1741 0.950 . S
C1753 C1749 1.393 . S
C1753 C1752 1.391 . S
H1754 C1762 0.950 . S
H1755 C1767 0.950 . S
H1756 C1764 0.950 . S
H1757 C1766 0.950 . S
H1758 C1768 0.950 . S
H1759 C1770 0.950 . S
H1760 C1772 0.950 . S
H1761 C1773 0.950 . S
C1762 H1754 0.950 . S
C1762 C1763 1.386 . S
C1762 C1764 1.391 . S
C1763 C1762 1.386 . S
C1763 C1767 1.393 . S
C1764 H1756 0.950 . S
C1764 C1762 1.391 . S
C1764 C1765 1.400 . S
C1765 C1764 1.400 . S
C1765 C1766 1.398 . S
C1765 C1771 1.491 . S
C1766 H1757 0.950 . S
C1766 C1765 1.398 . S
C1766 C1767 1.391 . S
C1767 H1755 0.950 . S
C1767 C1763 1.393 . S
C1767 C1766 1.391 . S
C1768 H1758 0.950 . S
C1768 C1769 1.386 . S
C1768 C1770 1.391 . S
C1769 C1768 1.386 . S
C1769 C1773 1.393 . S
C1770 H1759 0.950 . S
C1770 C1768 1.391 . S
C1770 C1771 1.400 . S
C1771 C1765 1.491 . S
C1771 C1770 1.400 . S
C1771 C1772 1.398 . S
C1772 H1760 0.950 . S
C1772 C1771 1.398 . S
C1772 C1773 1.391 . S
C1773 H1761 0.950 . S
C1773 C1769 1.393 . S
C1773 C1772 1.391 . S
H1774 C1782 0.950 . S
H1775 C1787 0.950 . S
H1776 C1784 0.950 . S
H1777 C1786 0.950 . S
H1778 C1788 0.950 . S
H1779 C1790 0.950 . S
H1780 C1792 0.950 . S
H1781 C1793 0.950 . S
C1782 H1774 0.950 . S
C1782 C1783 1.386 . S
C1782 C1784 1.391 . S
C1783 C1782 1.386 . S
C1783 C1787 1.393 . S
C1784 H1776 0.950 . S
C1784 C1782 1.391 . S
C1784 C1785 1.400 . S
C1785 C1784 1.400 . S
C1785 C1786 1.398 . S
C1785 C1791 1.491 . S
C1786 H1777 0.950 . S
C1786 C1785 1.398 . S
C1786 C1787 1.391 . S
C1787 H1775 0.950 . S
C1787 C1783 1.393 . S
C1787 C1786 1.391 . S
C1788 H1778 0.950 . S
C1788 C1789 1.386 . S
C1788 C1790 1.391 . S
C1789 C1788 1.386 . S
C1789 C1793 1.393 . S
C1790 H1779 0.950 . S
C1790 C1788 1.391 . S
C1790 C1791 1.400 . S
C1791 C1785 1.491 . S
C1791 C1790 1.400 . S
C1791 C1792 1.398 . S
C1792 H1780 0.950 . S
C1792 C1791 1.398 . S
C1792 C1793 1.391 . S
C1793 H1781 0.950 . S
C1793 C1789 1.393 . S
C1793 C1792 1.391 . S
H1794 C1802 0.950 . S
H1795 C1807 0.950 . S
H1796 C1804 0.950 . S
H1797 C1806 0.950 . S
H1798 C1808 0.950 . S
H1799 C1810 0.950 . S
H1800 C1812 0.950 . S
H1801 C1813 0.950 . S
C1802 H1794 0.950 . S
C1802 C1803 1.386 . S
C1802 C1804 1.391 . S
C1803 C1802 1.386 . S
C1803 C1807 1.393 . S
C1804 H1796 0.950 . S
C1804 C1802 1.391 . S
C1804 C1805 1.400 . S
C1805 C1804 1.400 . S
C1805 C1806 1.398 . S
C1805 C1811 1.491 . S
C1806 H1797 0.950 . S
C1806 C1805 1.398 . S
C1806 C1807 1.391 . S
C1807 H1795 0.950 . S
C1807 C1803 1.393 . S
C1807 C1806 1.391 . S
C1808 H1798 0.950 . S
C1808 C1809 1.386 . S
C1808 C1810 1.391 . S
C1809 C1808 1.386 . S
C1809 C1813 1.393 . S
C1810 H1799 0.950 . S
C1810 C1808 1.391 . S
C1810 C1811 1.400 . S
C1811 C1805 1.491 . S
C1811 C1810 1.400 . S
C1811 C1812 1.398 . S
C1812 H1800 0.950 . S
C1812 C1811 1.398 . S
C1812 C1813 1.391 . S
C1813 H1801 0.950 . S
C1813 C1809 1.393 . S
C1813 C1812 1.391 . S
H1814 C1822 0.950 . S
H1815 C1827 0.950 . S
H1816 C1824 0.950 . S
H1817 C1826 0.950 . S
H1818 C1828 0.950 . S
H1819 C1830 0.950 . S
H1820 C1832 0.950 . S
H1821 C1833 0.950 . S
C1822 H1814 0.950 . S
C1822 C1823 1.386 . S
C1822 C1824 1.391 . S
C1823 C1822 1.386 . S
C1823 C1827 1.393 . S
C1824 H1816 0.950 . S
C1824 C1822 1.391 . S
C1824 C1825 1.400 . S
C1825 C1824 1.400 . S
C1825 C1826 1.398 . S
C1825 C1831 1.491 . S
C1826 H1817 0.950 . S
C1826 C1825 1.398 . S
C1826 C1827 1.391 . S
C1827 H1815 0.950 . S
C1827 C1823 1.393 . S
C1827 C1826 1.391 . S
C1828 H1818 0.950 . S
C1828 C1829 1.386 . S
C1828 C1830 1.391 . S
C1829 C1828 1.386 . S
C1829 C1833 1.393 . S
C1830 H1819 0.950 . S
C1830 C1828 1.391 . S
C1830 C1831 1.400 . S
C1831 C1825 1.491 . S
C1831 C1830 1.400 . S
C1831 C1832 1.398 . S
C1832 H1820 0.950 . S
C1832 C1831 1.398 . S
C1832 C1833 1.391 . S
C1833 H1821 0.950 . S
C1833 C1829 1.393 . S
C1833 C1832 1.391 . S
H1834 C1842 0.950 . S
H1835 C1847 0.950 . S
H1836 C1844 0.950 . S
H1837 C1846 0.950 . S
H1838 C1848 0.950 . S
H1839 C1850 0.950 . S
H1840 C1852 0.950 . S
H1841 C1853 0.950 . S
C1842 H1834 0.950 . S
C1842 C1843 1.386 . S
C1842 C1844 1.391 . S
C1843 C1842 1.386 . S
C1843 C1847 1.393 . S
C1844 H1836 0.950 . S
C1844 C1842 1.391 . S
C1844 C1845 1.400 . S
C1845 C1844 1.400 . S
C1845 C1846 1.398 . S
C1845 C1851 1.491 . S
C1846 H1837 0.950 . S
C1846 C1845 1.398 . S
C1846 C1847 1.391 . S
C1847 H1835 0.950 . S
C1847 C1843 1.393 . S
C1847 C1846 1.391 . S
C1848 H1838 0.950 . S
C1848 C1849 1.386 . S
C1848 C1850 1.391 . S
C1849 C1848 1.386 . S
C1849 C1853 1.393 . S
C1850 H1839 0.950 . S
C1850 C1848 1.391 . S
C1850 C1851 1.400 . S
C1851 C1845 1.491 . S
C1851 C1850 1.400 . S
C1851 C1852 1.398 . S
C1852 H1840 0.950 . S
C1852 C1851 1.398 . S
C1852 C1853 1.391 . S
C1853 H1841 0.950 . S
C1853 C1849 1.393 . S
C1853 C1852 1.391 . S
H1854 C1862 0.950 . S
H1855 C1867 0.950 . S
H1856 C1864 0.950 . S
H1857 C1866 0.950 . S
H1858 C1868 0.950 . S
H1859 C1870 0.950 . S
H1860 C1872 0.950 . S
H1861 C1873 0.950 . S
C1862 H1854 0.950 . S
C1862 C1863 1.386 . S
C1862 C1864 1.391 . S
C1863 C1862 1.386 . S
C1863 C1867 1.393 . S
C1864 H1856 0.950 . S
C1864 C1862 1.391 . S
C1864 C1865 1.400 . S
C1865 C1864 1.400 . S
C1865 C1866 1.398 . S
C1865 C1871 1.491 . S
C1866 H1857 0.950 . S
C1866 C1865 1.398 . S
C1866 C1867 1.391 . S
C1867 H1855 0.950 . S
C1867 C1863 1.393 . S
C1867 C1866 1.391 . S
C1868 H1858 0.950 . S
C1868 C1869 1.386 . S
C1868 C1870 1.391 . S
C1869 C1868 1.386 . S
C1869 C1873 1.393 . S
C1870 H1859 0.950 . S
C1870 C1868 1.391 . S
C1870 C1871 1.400 . S
C1871 C1865 1.491 . S
C1871 C1870 1.400 . S
C1871 C1872 1.398 . S
C1872 H1860 0.950 . S
C1872 C1871 1.398 . S
C1872 C1873 1.391 . S
C1873 H1861 0.950 . S
C1873 C1869 1.393 . S
C1873 C1872 1.391 . S
H1874 C1882 0.950 . S
H1875 C1887 0.950 . S
H1876 C1884 0.950 . S
H1877 C1886 0.950 . S
H1878 C1888 0.950 . S
H1879 C1890 0.950 . S
H1880 C1892 0.950 . S
H1881 C1893 0.950 . S
C1882 H1874 0.950 . S
C1882 C1883 1.386 . S
C1882 C1884 1.391 . S
C1883 C1882 1.386 . S
C1883 C1887 1.393 . S
C1884 H1876 0.950 . S
C1884 C1882 1.391 . S
C1884 C1885 1.400 . S
C1885 C1884 1.400 . S
C1885 C1886 1.398 . S
C1885 C1891 1.491 . S
C1886 H1877 0.950 . S
C1886 C1885 1.398 . S
C1886 C1887 1.391 . S
C1887 H1875 0.950 . S
C1887 C1883 1.393 . S
C1887 C1886 1.391 . S
C1888 H1878 0.950 . S
C1888 C1889 1.386 . S
C1888 C1890 1.391 . S
C1889 C1888 1.386 . S
C1889 C1893 1.393 . S
C1890 H1879 0.950 . S
C1890 C1888 1.391 . S
C1890 C1891 1.400 . S
C1891 C1885 1.491 . S
C1891 C1890 1.400 . S
C1891 C1892 1.398 . S
C1892 H1880 0.950 . S
C1892 C1891 1.398 . S
C1892 C1893 1.391 . S
C1893 H1881 0.950 . S
C1893 C1889 1.393 . S
C1893 C1892 1.391 . S
H1894 C1902 0.950 . S
H1895 C1907 0.950 . S
H1896 C1904 0.950 . S
H1897 C1906 0.950 . S
H1898 C1908 0.950 . S
H1899 C1910 0.950 . S
H1900 C1912 0.950 . S
H1901 C1913 0.950 . S
C1902 H1894 0.950 . S
C1902 C1903 1.386 . S
C1902 C1904 1.391 . S
C1903 C1902 1.386 . S
C1903 C1907 1.393 . S
C1904 H1896 0.950 . S
C1904 C1902 1.391 . S
C1904 C1905 1.400 . S
C1905 C1904 1.400 . S
C1905 C1906 1.398 . S
C1905 C1911 1.491 . S
C1906 H1897 0.950 . S
C1906 C1905 1.398 . S
C1906 C1907 1.391 . S
C1907 H1895 0.950 . S
C1907 C1903 1.393 . S
C1907 C1906 1.391 . S
C1908 H1898 0.950 . S
C1908 C1909 1.386 . S
C1908 C1910 1.391 . S
C1909 C1908 1.386 . S
C1909 C1913 1.393 . S
C1910 H1899 0.950 . S
C1910 C1908 1.391 . S
C1910 C1911 1.400 . S
C1911 C1905 1.491 . S
C1911 C1910 1.400 . S
C1911 C1912 1.398 . S
C1912 H1900 0.950 . S
C1912 C1911 1.398 . S
C1912 C1913 1.391 . S
C1913 H1901 0.950 . S
C1913 C1909 1.393 . S
C1913 C1912 1.391 . S
H1914 C1922 0.950 . S
H1915 C1927 0.950 . S
H1916 C1924 0.950 . S
H1917 C1926 0.950 . S
H1918 C1928 0.950 . S
H1919 C1930 0.950 . S
H1920 C1932 0.950 . S
H1921 C1933 0.950 . S
C1922 H1914 0.950 . S
C1922 C1923 1.386 . S
C1922 C1924 1.391 . S
C1923 C1922 1.386 . S
C1923 C1927 1.393 . S
C1924 H1916 0.950 . S
C1924 C1922 1.391 . S
C1924 C1925 1.400 . S
C1925 C1924 1.400 . S
C1925 C1926 1.398 . S
C1925 C1931 1.491 . S
C1926 H1917 0.950 . S
C1926 C1925 1.398 . S
C1926 C1927 1.391 . S
C1927 H1915 0.950 . S
C1927 C1923 1.393 . S
C1927 C1926 1.391 . S
C1928 H1918 0.950 . S
C1928 C1929 1.386 . S
C1928 C1930 1.391 . S
C1929 C1928 1.386 . S
C1929 C1933 1.393 . S
C1930 H1919 0.950 . S
C1930 C1928 1.391 . S
C1930 C1931 1.400 . S
C1931 C1925 1.491 . S
C1931 C1930 1.400 . S
C1931 C1932 1.398 . S
C1932 H1920 0.950 . S
C1932 C1931 1.398 . S
C1932 C1933 1.391 . S
C1933 H1921 0.950 . S
C1933 C1929 1.393 . S
C1933 C1932 1.391 . S
H1934 C1942 0.950 . S
H1935 C1947 0.950 . S
H1936 C1944 0.950 . S
H1937 C1946 0.950 . S
H1938 C1948 0.950 . S
H1939 C1950 0.950 . S
H1940 C1952 0.950 . S
H1941 C1953 0.950 . S
C1942 H1934 0.950 . S
C1942 C1943 1.386 . S
C1942 C1944 1.391 . S
C1943 C1942 1.386 . S
C1943 C1947 1.393 . S
C1944 H1936 0.950 . S
C1944 C1942 1.391 . S
C1944 C1945 1.400 . S
C1945 C1944 1.400 . S
C1945 C1946 1.398 . S
C1945 C1951 1.491 . S
C1946 H1937 0.950 . S
C1946 C1945 1.398 . S
C1946 C1947 1.391 . S
C1947 H1935 0.950 . S
C1947 C1943 1.393 . S
C1947 C1946 1.391 . S
C1948 H1938 0.950 . S
C1948 C1949 1.386 . S
C1948 C1950 1.391 . S
C1949 C1948 1.386 . S
C1949 C1953 1.393 . S
C1950 H1939 0.950 . S
C1950 C1948 1.391 . S
C1950 C1951 1.400 . S
C1951 C1945 1.491 . S
C1951 C1950 1.400 . S
C1951 C1952 1.398 . S
C1952 H1940 0.950 . S
C1952 C1951 1.398 . S
C1952 C1953 1.391 . S
C1953 H1941 0.950 . S
C1953 C1949 1.393 . S
C1953 C1952 1.391 . S
H1954 C1962 0.950 . S
H1955 C1967 0.950 . S
H1956 C1964 0.950 . S
H1957 C1966 0.950 . S
H1958 C1968 0.950 . S
H1959 C1970 0.950 . S
H1960 C1972 0.950 . S
H1961 C1973 0.950 . S
C1962 H1954 0.950 . S
C1962 C1963 1.386 . S
C1962 C1964 1.391 . S
C1963 C1962 1.386 . S
C1963 C1967 1.393 . S
C1964 H1956 0.950 . S
C1964 C1962 1.391 . S
C1964 C1965 1.400 . S
C1965 C1964 1.400 . S
C1965 C1966 1.398 . S
C1965 C1971 1.491 . S
C1966 H1957 0.950 . S
C1966 C1965 1.398 . S
C1966 C1967 1.391 . S
C1967 H1955 0.950 . S
C1967 C1963 1.393 . S
C1967 C1966 1.391 . S
C1968 H1958 0.950 . S
C1968 C1969 1.386 . S
C1968 C1970 1.391 . S
C1969 C1968 1.386 . S
C1969 C1973 1.393 . S
C1970 H1959 0.950 . S
C1970 C1968 1.391 . S
C1970 C1971 1.400 . S
C1971 C1965 1.491 . S
C1971 C1970 1.400 . S
C1971 C1972 1.398 . S
C1972 H1960 0.950 . S
C1972 C1971 1.398 . S
C1972 C1973 1.391 . S
C1973 H1961 0.950 . S
C1973 C1969 1.393 . S
C1973 C1972 1.391 . S
H1974 C1982 0.950 . S
H1975 C1987 0.950 . S
H1976 C1984 0.950 . S
H1977 C1986 0.950 . S
H1978 C1988 0.950 . S
H1979 C1990 0.950 . S
H1980 C1992 0.950 . S
H1981 C1993 0.950 . S
C1982 H1974 0.950 . S
C1982 C1983 1.386 . S
C1982 C1984 1.391 . S
C1983 C1982 1.386 . S
C1983 C1987 1.393 . S
C1984 H1976 0.950 . S
C1984 C1982 1.391 . S
C1984 C1985 1.400 . S
C1985 C1984 1.400 . S
C1985 C1986 1.398 . S
C1985 C1991 1.491 . S
C1986 H1977 0.950 . S
C1986 C1985 1.398 . S
C1986 C1987 1.391 . S
C1987 H1975 0.950 . S
C1987 C1983 1.393 . S
C1987 C1986 1.391 . S
C1988 H1978 0.950 . S
C1988 C1989 1.386 . S
C1988 C1990 1.391 . S
C1989 C1988 1.386 . S
C1989 C1993 1.393 . S
C1990 H1979 0.950 . S
C1990 C1988 1.391 . S
C1990 C1991 1.400 . S
C1991 C1985 1.491 . S
C1991 C1990 1.400 . S
C1991 C1992 1.398 . S
C1992 H1980 0.950 . S
C1992 C1991 1.398 . S
C1992 C1993 1.391 . S
C1993 H1981 0.950 . S
C1993 C1989 1.393 . S
C1993 C1992 1.391 . S
H1994 C2002 0.950 . S
H1995 C2007 0.950 . S
H1996 C2004 0.950 . S
H1997 C2006 0.950 . S
H1998 C2008 0.950 . S
H1999 C2010 0.950 . S
H2000 C2012 0.950 . S
H2001 C2013 0.950 . S
C2002 H1994 0.950 . S
C2002 C2003 1.386 . S
C2002 C2004 1.391 . S
C2003 C2002 1.386 . S
C2003 C2007 1.393 . S
C2004 H1996 0.950 . S
C2004 C2002 1.391 . S
C2004 C2005 1.400 . S
C2005 C2004 1.400 . S
C2005 C2006 1.398 . S
C2005 C2011 1.491 . S
C2006 H1997 0.950 . S
C2006 C2005 1.398 . S
C2006 C2007 1.391 . S
C2007 H1995 0.950 . S
C2007 C2003 1.393 . S
C2007 C2006 1.391 . S
C2008 H1998 0.950 . S
C2008 C2009 1.386 . S
C2008 C2010 1.391 . S
C2009 C2008 1.386 . S
C2009 C2013 1.393 . S
C2010 H1999 0.950 . S
C2010 C2008 1.391 . S
C2010 C2011 1.400 . S
C2011 C2005 1.491 . S
C2011 C2010 1.400 . S
C2011 C2012 1.398 . S
C2012 H2000 0.950 . S
C2012 C2011 1.398 . S
C2012 C2013 1.391 . S
C2013 H2001 0.950 . S
C2013 C2009 1.393 . S
C2013 C2012 1.391 . S
H2014 C2022 0.950 . S
H2015 C2027 0.950 . S
H2016 C2024 0.950 . S
H2017 C2026 0.950 . S
H2018 C2028 0.950 . S
H2019 C2030 0.950 . S
H2020 C2032 0.950 . S
H2021 C2033 0.950 . S
C2022 H2014 0.950 . S
C2022 C2023 1.386 . S
C2022 C2024 1.391 . S
C2023 C2022 1.386 . S
C2023 C2027 1.393 . S
C2024 H2016 0.950 . S
C2024 C2022 1.391 . S
C2024 C2025 1.400 . S
C2025 C2024 1.400 . S
C2025 C2026 1.398 . S
C2025 C2031 1.491 . S
C2026 H2017 0.950 . S
C2026 C2025 1.398 . S
C2026 C2027 1.391 . S
C2027 H2015 0.950 . S
C2027 C2023 1.393 . S
C2027 C2026 1.391 . S
C2028 H2018 0.950 . S
C2028 C2029 1.386 . S
C2028 C2030 1.391 . S
C2029 C2028 1.386 . S
C2029 C2033 1.393 . S
C2030 H2019 0.950 . S
C2030 C2028 1.391 . S
C2030 C2031 1.400 . S
C2031 C2025 1.491 . S
C2031 C2030 1.400 . S
C2031 C2032 1.398 . S
C2032 H2020 0.950 . S
C2032 C2031 1.398 . S
C2032 C2033 1.391 . S
C2033 H2021 0.950 . S
C2033 C2029 1.393 . S
C2033 C2032 1.391 . S
C963 C147 1.451 . S
C969 C265 1.397 . S
C983 C158 1.471 . S
C989 C349 1.438 . S
C1003 C136 1.443 . S
C1009 C429 1.445 . S
C1023 C125 1.423 . S
C1029 C345 1.418 1_556 S
C1049 C433 1.375 . S
C1043 C103 1.437 . S
C1063 C114 1.407 . S
C1069 C261 1.404 1_556 S
C1089 C254 1.457 . S
C1083 C131 1.499 . S
C1109 C338 1.483 . S
C1103 C109 1.520 . S
C1123 C120 1.522 . S
C1129 C440 1.478 1_556 S
C1143 C153 1.495 . S
C1149 C356 1.456 . S
C1163 C164 1.477 . S
C1169 C422 1.405 . S
C1189 C272 1.438 . S
C1183 C142 1.464 . S
C1209 C517 1.410 . S
C1203 C15 1.446 . S
C1223 C26 1.472 . S
C1229 C601 1.431 . S
C1243 C4 1.451 . S
C1249 C681 1.443 . S
C1263 C191 1.431 . S
C1269 C597 1.424 . S
C1283 C169 1.430 . S
C1289 C685 1.383 . S
C1303 C180 1.405 . S
C1309 C513 1.405 . S
C1323 C197 1.505 . S
C1329 C506 1.429 . S
C1343 C175 1.531 . S
C1349 C590 1.456 . S
C1369 C692 1.489 . S
C1363 C186 1.525 . S
C1383 C21 1.486 . S
C1389 C608 1.440 . S
C1409 C674 1.415 . S
C1403 C32 1.472 . S
C1423 C10 1.461 . S
C1429 C524 1.430 . S
C1449 C769 1.407 . S
C1443 C81 1.446 . S
C1463 C92 1.475 . S
C1469 C853 1.436 . S
C1489 C933 1.447 . S
C1483 C70 1.445 . S
C1509 C849 1.417 . S
C1503 C59 1.430 . S
C1529 C937 1.378 . S
C1523 C37 1.436 . S
C1543 C48 1.407 . S
C1549 C765 1.405 . S
C1563 C65 1.505 . S
C1569 C758 1.447 . S
C1583 C43 1.531 . S
C1589 C842 1.457 . S
C1609 C944 1.486 . S
C1603 C54 1.525 . S
C1623 C87 1.482 . S
C1629 C860 1.454 . S
C1643 C98 1.479 . S
C1649 C926 1.402 . S
C1663 C76 1.461 . S
C1669 C776 1.423 . S
C1683 C170 1.548 . S
C1689 C268 1.449 . S
C1709 C352 1.482 . S
C1703 C181 1.622 . S
C1723 C192 1.563 . S
C1729 C424 1.406 . S
C1743 C71 1.581 . S
C1749 C340 1.380 . S
C1763 C82 1.583 . S
C1769 C436 1.441 . S
C1789 C256 1.362 . S
C1783 C93 1.519 . S
C1803 C38 1.557 . S
C1809 C520 1.420 . S
C1823 C49 1.610 . S
C1829 C604 1.477 . S
C1843 C60 1.563 . S
C1849 C676 1.364 . S
C1863 C137 1.584 . S
C1869 C592 1.374 . S
C1889 C688 1.447 . S
C1883 C148 1.570 . S
C1903 C159 1.520 . S
C1909 C508 1.349 . S
C1923 C104 1.559 . S
C1929 C772 1.450 . S
C1943 C115 1.614 . S
C1949 C856 1.458 . S
C1969 C928 1.387 . S
C1963 C126 1.570 . S
C1983 C5 1.587 . S
C1989 C844 1.378 . S
C2003 C16 1.575 . S
C2009 C940 1.426 . S
C2023 C27 1.526 . S
C2029 C760 1.342 . S
