# Generated by pormake.
# Topology zzz, (3,6)-cn, num edge types: 1
# Building blocks:
#     Node 0, Type 0, BuildingBlock: PAMTOO_clean_linker_0, # of connection points: 3
#     Node 1, Type 0, BuildingBlock: PAMTOO_clean_linker_0, # of connection points: 3
#     Node 2, Type 0, BuildingBlock: PAMTOO_clean_linker_0, # of connection points: 3
#     Node 3, Type 0, BuildingBlock: PAMTOO_clean_linker_0, # of connection points: 3
#     Node 4, Type 0, BuildingBlock: PAMTOO_clean_linker_0, # of connection points: 3
#     Node 5, Type 0, BuildingBlock: PAMTOO_clean_linker_0, # of connection points: 3
#     Node 6, Type 0, BuildingBlock: PAMTOO_clean_linker_0, # of connection points: 3
#     Node 7, Type 0, BuildingBlock: PAMTOO_clean_linker_0, # of connection points: 3
#     Node 8, Type 1, BuildingBlock: BETDEL_clean_sbu_0, # of connection points: 6
#     Node 9, Type 1, BuildingBlock: BETDEL_clean_sbu_0, # of connection points: 6
#     Node 10, Type 1, BuildingBlock: BETDEL_clean_sbu_0, # of connection points: 6
#     Node 11, Type 1, BuildingBlock: BETDEL_clean_sbu_0, # of connection points: 6
#     Edge 12, Type (0, 1), BuildingBlock: MIFKUJ_clean_linker_0, # of connection points: 2
#     Edge 13, Type (0, 1), BuildingBlock: MIFKUJ_clean_linker_0, # of connection points: 2
#     Edge 14, Type (0, 1), BuildingBlock: MIFKUJ_clean_linker_0, # of connection points: 2
#     Edge 15, Type (0, 1), BuildingBlock: MIFKUJ_clean_linker_0, # of connection points: 2
#     Edge 16, Type (0, 1), BuildingBlock: MIFKUJ_clean_linker_0, # of connection points: 2
#     Edge 17, Type (0, 1), BuildingBlock: MIFKUJ_clean_linker_0, # of connection points: 2
#     Edge 18, Type (0, 1), BuildingBlock: MIFKUJ_clean_linker_0, # of connection points: 2
#     Edge 19, Type (0, 1), BuildingBlock: MIFKUJ_clean_linker_0, # of connection points: 2
#     Edge 20, Type (0, 1), BuildingBlock: MIFKUJ_clean_linker_0, # of connection points: 2
#     Edge 21, Type (0, 1), BuildingBlock: MIFKUJ_clean_linker_0, # of connection points: 2
#     Edge 22, Type (0, 1), BuildingBlock: MIFKUJ_clean_linker_0, # of connection points: 2
#     Edge 23, Type (0, 1), BuildingBlock: MIFKUJ_clean_linker_0, # of connection points: 2
#     Edge 24, Type (0, 1), BuildingBlock: MIFKUJ_clean_linker_0, # of connection points: 2
#     Edge 25, Type (0, 1), BuildingBlock: MIFKUJ_clean_linker_0, # of connection points: 2
#     Edge 26, Type (0, 1), BuildingBlock: MIFKUJ_clean_linker_0, # of connection points: 2
#     Edge 27, Type (0, 1), BuildingBlock: MIFKUJ_clean_linker_0, # of connection points: 2
#     Edge 28, Type (0, 1), BuildingBlock: MIFKUJ_clean_linker_0, # of connection points: 2
#     Edge 29, Type (0, 1), BuildingBlock: MIFKUJ_clean_linker_0, # of connection points: 2
#     Edge 30, Type (0, 1), BuildingBlock: MIFKUJ_clean_linker_0, # of connection points: 2
#     Edge 31, Type (0, 1), BuildingBlock: MIFKUJ_clean_linker_0, # of connection points: 2
#     Edge 32, Type (0, 1), BuildingBlock: MIFKUJ_clean_linker_0, # of connection points: 2
#     Edge 33, Type (0, 1), BuildingBlock: MIFKUJ_clean_linker_0, # of connection points: 2
#     Edge 34, Type (0, 1), BuildingBlock: MIFKUJ_clean_linker_0, # of connection points: 2
#     Edge 35, Type (0, 1), BuildingBlock: MIFKUJ_clean_linker_0, # of connection points: 2
# Relax obj value: 0.148
# Max RMSD: 0.172
# Mean RMSD: 0.111
data_MOF--net-zzz--node1-BETDEL_clean_sbu_0--node2-PAMTOO_clean_linker_0--edge1-MIFKUJ_clean_linker_0
_symmetry_space_group_name_H-M    P1
_symmetry_Int_Tables_number       1
_symmetry_cell_setting            triclinic
loop_
_symmetry_equiv_pos_as_xyz
'x, y, z'
_cell_length_a     64.587242
_cell_length_b     65.937278
_cell_length_c     19.298613
_cell_angle_alpha  91.538025
_cell_angle_beta   88.478761
_cell_angle_gamma 95.062106
loop_
_atom_site_label
_atom_site_type_symbol
_atom_site_fract_x
_atom_site_fract_y
_atom_site_fract_z
_atom_type_partial_charge
H0 H 0.80317 0.52647 0.09382 0.0
H1 H 0.74342 0.5222 0.99909 0.0
H2 H 0.748 0.50982 0.21618 0.0
H3 H 0.70413 0.48756 0.13991 0.0
C4 C 0.71092 0.49508 0.09264 0.0
O5 O 0.72207 0.51314 0.1123 0.0
H6 H 0.72127 0.48426 0.06732 0.0
C7 C 0.78635 0.52405 0.09834 0.0
C8 C 0.7772 0.51841 0.16217 0.0
C9 C 0.7744 0.52522 0.0393 0.0
C10 C 0.75277 0.5214 0.04458 0.0
C11 C 0.74313 0.51607 0.10826 0.0
C12 C 0.75539 0.51421 0.16717 0.0
H13 H 0.02889 0.80193 0.08924 0.0
H14 H 0.01007 0.74938 0.96252 0.0
H15 H 0.98712 0.75402 0.17298 0.0
H16 H 0.9957 0.70936 0.13798 0.0
C17 C 1.00105 0.71326 0.08436 0.0
O18 O 0.99055 0.72941 0.06377 0.0
H19 H 0.01814 0.71749 0.08541 0.0
C20 C 0.02027 0.78735 0.08307 0.0
C21 C 0.00727 0.77989 0.13841 0.0
C22 C 0.02028 0.77725 0.0175 0.0
C23 C 0.00989 0.75771 0.01165 0.0
C24 C 0.99905 0.7489 0.0689 0.0
C25 C 0.99682 0.76037 0.13086 0.0
H26 H 0.6997 0.97009 0.10748 0.0
H27 H 0.75732 0.96603 0.99266 0.0
H28 H 0.75733 0.97556 0.21457 0.0
H29 H 0.79895 0.99493 0.14364 0.0
C30 C 0.79334 0.98926 0.09211 0.0
O31 O 0.78085 0.9713 0.10073 0.0
H32 H 0.78433 1.00133 0.07134 0.0
C33 C 0.71645 0.96956 0.10608 0.0
C34 C 0.72704 0.97259 0.16806 0.0
C35 C 0.72703 0.96707 0.0425 0.0
C36 C 0.74881 0.96759 0.04139 0.0
C37 C 0.75979 0.97055 0.10325 0.0
C38 C 0.74887 0.973 0.16696 0.0
H39 H 0.53265 0.7079 0.08986 0.0
H40 H 0.53019 0.76623 0.99868 0.0
H41 H 0.53465 0.76191 0.22059 0.0
H42 H 0.5127 0.80352 0.16912 0.0
C43 C 0.51595 0.79805 0.11528 0.0
O44 O 0.5334 0.78725 0.11518 0.0
H45 H 0.50196 0.7881 0.0992 0.0
C46 C 0.53294 0.72435 0.09588 0.0
C47 C 0.53413 0.73329 0.16223 0.0
C48 C 0.53141 0.73601 0.03721 0.0
C49 C 0.5313 0.75714 0.04416 0.0
C50 C 0.53255 0.76662 0.11011 0.0
C51 C 0.53368 0.75464 0.16966 0.0
H52 H 0.20896 0.48995 0.04812 0.0
H53 H 0.26534 0.49 0.16104 0.0
H54 H 0.26713 0.48647 0.93734 0.0
H55 H 0.29623 0.51722 0.07701 0.0
C56 C 0.30399 0.50354 0.0589 0.0
O57 O 0.28967 0.4867 0.05199 0.0
H58 H 0.31109 0.50703 0.00703 0.0
C59 C 0.22563 0.48915 0.04864 0.0
C60 C 0.23655 0.48799 0.98548 0.0
C61 C 0.23578 0.49005 0.11196 0.0
C62 C 0.25738 0.48939 0.11227 0.0
C63 C 0.26881 0.48801 0.04969 0.0
C64 C 0.25838 0.48746 0.98576 0.0
H65 H 0.00896 0.20954 0.05786 0.0
H66 H 0.00899 0.2663 0.17189 0.0
H67 H 0.01049 0.26551 0.94803 0.0
H68 H 0.03281 0.30732 0.01227 0.0
C69 C 0.02882 0.30147 0.06487 0.0
O70 O 0.01048 0.28899 0.06183 0.0
H71 H 0.04197 0.29287 0.08058 0.0
C72 C 0.00918 0.22601 0.05831 0.0
C73 C 0.00962 0.23609 0.99564 0.0
C74 C 0.00898 0.2367 0.12163 0.0
C75 C 0.00918 0.25793 0.12285 0.0
C76 C 0.00995 0.26841 0.06021 0.0
C77 C 0.01005 0.25746 0.9963 0.0
H78 H 0.30923 0.02685 0.05034 0.0
H79 H 0.25181 0.0317 0.1638 0.0
H80 H 0.25513 0.04155 0.94327 0.0
H81 H 0.22073 0.00955 0.06181 0.0
C82 C 0.21474 0.0245 0.05173 0.0
O83 O 0.23042 0.04021 0.05665 0.0
H84 H 0.20904 0.02383 0.9978 0.0
C85 C 0.2929 0.02966 0.05106 0.0
C86 C 0.28375 0.03441 0.98963 0.0
C87 C 0.28151 0.02852 0.11342 0.0
C88 C 0.26061 0.03252 0.11529 0.0
C89 C 0.25089 0.03698 0.05396 0.0
C90 C 0.26253 0.03802 0.99065 0.0
H91 H 0.48095 0.30285 0.05368 0.0
H92 H 0.48834 0.24907 0.1677 0.0
H93 H 0.49844 0.2488 0.94581 0.0
H94 H 0.47987 0.20469 0.00446 0.0
C95 C 0.48172 0.21035 0.05892 0.0
O96 O 0.49711 0.2264 0.05971 0.0
H97 H 0.4665 0.21553 0.07708 0.0
C98 C 0.48387 0.2869 0.0541 0.0
C99 C 0.48956 0.2772 0.99217 0.0
C100 C 0.48351 0.27697 0.11727 0.0
C101 C 0.48819 0.25667 0.11868 0.0
C102 C 0.49286 0.24618 0.05681 0.0
C103 C 0.49393 0.25657 0.99324 0.0
Dy104 Dy 0.016 0.99669 0.6462 0.0
C105 C 1.00088 0.04505 0.41623 0.0
C106 C 0.0215 0.96639 0.73495 0.0
Dy107 Dy 0.99781 0.0172 0.51745 0.0
O108 O 0.03636 0.97873 0.70926 0.0
O109 O 1.00366 0.97181 0.71657 0.0
O110 O 0.0473 0.0125 0.61944 0.0
O111 O 0.02652 1.00377 0.54016 0.0
C112 C 0.04399 0.01308 0.55332 0.0
C113 C 0.96737 0.00768 0.6122 0.0
O114 O 0.9966 0.98536 0.47281 0.0
O115 O 1.00643 0.97047 0.57405 0.0
O116 O 0.98435 0.03276 0.42894 0.0
O117 O 0.01581 0.04126 0.45638 0.0
O118 O 0.96396 0.01537 0.55246 0.0
O119 O 0.98651 0.00547 0.61474 0.0
O120 O 0.01055 0.02637 0.69832 0.0
O121 O 1.00533 0.04285 0.59508 0.0
C122 C 0.99987 0.96913 0.50935 0.0
C123 C 0.00803 0.04296 0.66313 0.0
Dy124 Dy 0.49265 0.99445 0.55275 0.0
C125 C 0.55961 0.03169 0.70653 0.0
C126 C 0.45418 0.99089 0.50056 0.0
Dy127 Dy 0.52395 0.01954 0.6387 0.0
O128 O 0.46951 0.98115 0.47497 0.0
O129 O 0.4597 1.00104 0.55625 0.0
O130 O 0.51643 0.97576 0.50269 0.0
O131 O 0.52484 0.00635 0.534 0.0
C132 C 0.53171 0.98992 0.51114 0.0
C133 C 0.48434 0.02287 0.67796 0.0
O134 O 0.51916 0.04397 0.56278 0.0
O135 O 0.4944 0.02443 0.49924 0.0
O136 O 0.54155 0.02731 0.73618 0.0
O137 O 0.55788 0.03022 0.6398 0.0
O138 O 0.49862 0.03806 0.68194 0.0
O139 O 0.49235 0.00685 0.65812 0.0
O140 O 0.49579 0.97043 0.62946 0.0
O141 O 0.52568 0.98717 0.67557 0.0
C142 C 0.50566 0.04181 0.51181 0.0
C143 C 0.512 0.97086 0.67028 0.0
Dy144 Dy 0.49794 0.51607 0.64871 0.0
C145 C 0.51378 0.4692 0.40839 0.0
C146 C 0.49757 0.54363 0.75621 0.0
Dy147 Dy 0.51377 0.4951 0.52076 0.0
O148 O 0.48104 0.53423 0.72916 0.0
O149 O 0.51406 0.53722 0.72632 0.0
O150 O 0.46503 0.50462 0.62413 0.0
O151 O 0.48665 0.51168 0.5433 0.0
C152 C 0.46829 0.50442 0.55721 0.0
C153 C 0.54356 0.50664 0.6119 0.0
O154 O 0.51695 0.5266 0.47776 0.0
O155 O 0.50973 0.54272 0.58279 0.0
O156 O 0.53002 0.47501 0.44461 0.0
O157 O 0.49787 0.47798 0.43274 0.0
O158 O 0.54679 0.50607 0.54498 0.0
O159 O 0.52515 0.49956 0.62597 0.0
O160 O 0.49793 0.48505 0.6936 0.0
O161 O 0.50038 0.46863 0.58632 0.0
C162 C 0.51537 0.54342 0.5162 0.0
C163 C 0.4972 0.46814 0.65463 0.0
Dy164 Dy 0.99353 0.49413 0.65109 0.0
C165 C 0.05024 0.51459 0.43424 0.0
C166 C 0.96314 0.4912 0.75168 0.0
Dy167 Dy 0.01797 0.51125 0.52777 0.0
O168 O 0.96747 0.47658 0.70875 0.0
O169 O 0.97632 0.50694 0.74208 0.0
O170 O 1.0045 0.46325 0.62954 0.0
O171 O 0.99996 0.48252 0.54679 0.0
C172 C 1.00658 0.46585 0.56295 0.0
C173 C 1.00484 0.53965 0.61561 0.0
O174 O 0.98706 0.50736 0.47594 0.0
O175 O 0.96893 0.50378 0.58071 0.0
O176 O 0.03914 0.5294 0.45329 0.0
O177 O 0.04256 0.49782 0.46226 0.0
O178 O 0.00695 0.54209 0.54902 0.0
O179 O 0.01152 0.523 0.63187 0.0
O180 O 0.02437 0.49421 0.70115 0.0
O181 O 0.04296 0.50444 0.6015 0.0
C182 C 0.96929 0.50624 0.5126 0.0
C183 C 0.04217 0.49836 0.66655 0.0
H184 H 0.21641 0.03745 0.18949 0.0
H185 H 0.18763 0.03841 0.27447 0.0
H186 H 0.14427 0.01741 0.11642 0.0
H187 H 0.17299 0.01678 0.03124 0.0
H188 H 0.12842 0.04616 0.19519 0.0
H189 H 0.16148 0.98513 0.23833 0.0
H190 H 0.1909 0.96539 0.2645 0.0
H191 H 0.19976 0.99907 0.45651 0.0
H192 H 0.17056 0.01922 0.43102 0.0
H193 H 0.04222 0.00882 0.41149 0.0
H194 H 0.07098 0.01423 0.32657 0.0
H195 H 0.11248 0.03405 0.49128 0.0
H196 H 0.08384 0.02856 0.57611 0.0
H197 H 0.12981 0.00721 0.411 0.0
H198 H 0.09826 0.06867 0.36933 0.0
H199 H 0.07114 0.091 0.34144 0.0
H200 H 0.06017 0.05778 0.14955 0.0
H201 H 0.0874 0.03534 0.17612 0.0
C202 C 0.20072 0.03335 0.17262 0.0
C203 C 0.19697 0.0274 0.1032 0.0
C204 C 0.18425 0.03373 0.22144 0.0
C205 C 0.16369 0.02776 0.20229 0.0
C206 C 0.15992 0.02214 0.1327 0.0
C207 C 0.17636 0.02182 0.08394 0.0
C208 C 0.14612 0.02694 0.25462 0.0
C209 C 0.12864 0.03742 0.24195 0.0
C210 C 0.14651 0.01602 0.31681 0.0
C211 C 0.16397 1.00382 0.33241 0.0
C212 C 0.16979 0.98843 0.2859 0.0
C213 C 0.18642 0.97715 0.30064 0.0
C214 C 0.19723 0.98102 0.36203 0.0
C215 C 0.19139 0.99612 0.40892 0.0
C216 C 0.1748 0.00746 0.39438 0.0
C217 C 0.05741 0.01461 0.42943 0.0
C218 C 0.06074 0.01821 0.50061 0.0
C219 C 0.07387 0.01777 0.38076 0.0
C220 C 0.09402 0.02464 0.40218 0.0
C221 C 0.09718 0.0287 0.47319 0.0
C222 C 0.08074 0.0256 0.52172 0.0
C223 C 0.11202 0.02639 0.35149 0.0
C224 C 0.12958 0.016 0.36436 0.0
C225 C 0.11175 0.03746 0.28966 0.0
C226 C 0.09469 0.05022 0.27505 0.0
C227 C 0.08991 0.066 0.32154 0.0
C228 C 0.07461 0.07875 0.30574 0.0
C229 C 0.06389 0.07578 0.24381 0.0
C230 C 0.06847 0.06005 0.19752 0.0
C231 C 0.08389 0.04737 0.21279 0.0
H232 H 0.05207 0.08569 0.23153 0.0
H233 H 0.2101 0.97228 0.37335 0.0
H234 H 0.49076 0.21232 0.1981 0.0
H235 H 0.4948 0.18405 0.27563 0.0
H236 H 0.48693 0.14151 0.10267 0.0
H237 H 0.48275 0.16967 0.02561 0.0
H238 H 0.46331 0.12899 0.21042 0.0
H239 H 0.53493 0.15388 0.1774 0.0
H240 H 0.56477 0.17993 0.17925 0.0
H241 H 0.5551 0.18967 0.39817 0.0
H242 H 0.52502 0.16386 0.39746 0.0
H243 H 0.49348 0.03964 0.37714 0.0
H244 H 0.48828 0.06757 0.30064 0.0
H245 H 0.50433 0.11077 0.4668 0.0
H246 H 0.51086 0.08283 0.5419 0.0
H247 H 0.52276 0.12388 0.36302 0.0
H248 H 0.45254 0.09082 0.40314 0.0
H249 H 0.41402 0.0697 0.40354 0.0
H250 H 0.42315 0.07818 0.11392 0.0
H251 H 0.45966 0.09659 0.15387 0.0
C252 C 0.4903 0.19697 0.17655 0.0
C253 C 0.4868 0.1933 0.10547 0.0
C254 C 0.49258 0.18078 0.2209 0.0
C255 C 0.49132 0.16052 0.1952 0.0
C256 C 0.48799 0.15692 0.12405 0.0
C257 C 0.48575 0.17307 0.07982 0.0
C258 C 0.49267 0.14296 0.24227 0.0
C259 C 0.47652 0.12726 0.24254 0.0
C260 C 0.50949 0.14159 0.28667 0.0
C261 C 0.52759 0.15709 0.28722 0.0
C262 C 0.53907 0.16169 0.22583 0.0
C263 C 0.55604 0.17639 0.22669 0.0
C264 C 0.56179 0.18649 0.28875 0.0
C265 C 0.55061 0.18186 0.35012 0.0
C266 C 0.5336 0.16719 0.34952 0.0
C267 C 0.49594 0.05513 0.39734 0.0
C268 C 0.5028 0.05902 0.46557 0.0
C269 C 0.49264 0.07113 0.35362 0.0
C270 C 0.49546 0.09147 0.37764 0.0
C271 C 0.50204 0.0953 0.44634 0.0
C272 C 0.50588 0.07931 0.48946 0.0
C273 C 0.49339 0.10886 0.33038 0.0
C274 C 0.5095 0.12482 0.33027 0.0
C275 C 0.47664 0.10992 0.28427 0.0
C276 C 0.45831 0.09444 0.27851 0.0
C277 C 0.44564 0.08669 0.35374 0.0
C278 C 0.42117 0.07403 0.35345 0.0
C279 C 0.40809 0.06909 0.22643 0.0
C280 C 0.42637 0.07912 0.16868 0.0
C281 C 0.44947 0.09058 0.19523 0.0
H282 H 0.39361 0.06197 0.20513 0.0
H283 H 0.57494 0.19786 0.28931 0.0
H284 H 0.34566 0.4994 0.03362 0.0
H285 H 0.37305 0.49712 0.11767 0.0
H286 H 0.3273 0.49718 0.28468 0.0
H287 H 0.30001 0.50013 0.2005 0.0
H288 H 0.35868 0.52215 0.31803 0.0
H289 H 0.35276 0.45359 0.22981 0.0
H290 H 0.35194 0.4256 0.14236 0.0
H291 H 0.41446 0.44487 0.07664 0.0
H292 H 0.41553 0.47322 0.1629 0.0
H293 H 0.4265 0.49605 0.58167 0.0
H294 H 0.39859 0.4938 0.49733 0.0
H295 H 0.44395 0.5047 0.3316 0.0
H296 H 0.47188 0.50742 0.41588 0.0
H297 H 0.41278 0.47323 0.29938 0.0
H298 H 0.41773 0.54245 0.38581 0.0
H299 H 0.41863 0.56962 0.47626 0.0
H300 H 0.35743 0.54772 0.54807 0.0
H301 H 0.35629 0.52021 0.45859 0.0
C302 C 0.34142 0.49866 0.08822 0.0
C303 C 0.32061 0.49983 0.11035 0.0
C304 C 0.35711 0.49727 0.13641 0.0
C305 C 0.35238 0.49675 0.20803 0.0
C306 C 0.33149 0.49753 0.22998 0.0
C307 C 0.31582 0.49905 0.18178 0.0
C308 C 0.36925 0.49647 0.26004 0.0
C309 C 0.37025 0.51117 0.31434 0.0
C310 C 0.38483 0.48254 0.25498 0.0
C311 C 0.38413 0.46568 0.20235 0.0
C312 C 0.36626 0.452 0.19622 0.0
C313 C 0.36576 0.43604 0.14693 0.0
C314 C 0.38311 0.4335 0.10381 0.0
C315 C 0.40101 0.4469 0.10995 0.0
C316 C 0.40157 0.46291 0.15904 0.0
C317 C 0.43055 0.49787 0.52724 0.0
C318 C 0.45145 0.50185 0.50557 0.0
C319 C 0.41456 0.49662 0.47903 0.0
C320 C 0.4191 0.49917 0.40795 0.0
C321 C 0.44001 0.50262 0.38601 0.0
C322 C 0.45599 0.50414 0.43431 0.0
C323 C 0.40202 0.4988 0.35688 0.0
C324 C 0.40107 0.48406 0.30288 0.0
C325 C 0.38641 0.51259 0.36232 0.0
C326 C 0.38702 0.52914 0.416 0.0
C327 C 0.40454 0.54332 0.42127 0.0
C328 C 0.40508 0.5588 0.47229 0.0
C329 C 0.38812 0.56036 0.51802 0.0
C330 C 0.37057 0.54647 0.51269 0.0
C331 C 0.36996 0.53094 0.4618 0.0
H332 H 0.38857 0.57236 0.55747 0.0
H333 H 0.3827 0.42112 0.06577 0.0
H334 H 0.02745 0.30002 0.20645 0.0
H335 H 0.02436 0.32811 0.29099 0.0
H336 H 0.02194 0.36994 0.12388 0.0
H337 H 0.02502 0.34182 0.03931 0.0
H338 H 0.04812 0.38556 0.22522 0.0
H339 H 0.97839 0.35427 0.21247 0.0
H340 H 0.9507 0.32605 0.21606 0.0
H341 H 0.96471 0.3151 0.42736 0.0
H342 H 0.99271 0.34308 0.42471 0.0
H343 H 0.00885 0.46792 0.4218 0.0
H344 H 0.01381 0.44013 0.33779 0.0
H345 H 0.01815 0.39883 0.50535 0.0
H346 H 0.01332 0.42659 0.58959 0.0
H347 H 0.99141 0.38309 0.40418 0.0
H348 H 0.06076 0.41488 0.4178 0.0
H349 H 0.08761 0.44387 0.41537 0.0
H350 H 0.07399 0.45434 0.2034 0.0
H351 H 0.04678 0.42561 0.20491 0.0
C352 C 0.02615 0.31521 0.18796 0.0
C353 C 0.02649 0.31878 0.11651 0.0
C354 C 0.0244 0.33124 0.23617 0.0
C355 C 0.02284 0.35115 0.21382 0.0
C356 C 0.0232 0.35474 0.14235 0.0
C357 C 0.02486 0.33867 0.09412 0.0
C358 C 0.02074 0.36819 0.26502 0.0
C359 C 0.03557 0.38513 0.2638 0.0
C360 C 1.00463 0.36748 0.31637 0.0
C361 C 0.9878 0.35063 0.31813 0.0
C362 C 0.9757 0.34573 0.25951 0.0
C363 C 0.95992 0.3298 0.26141 0.0
C364 C 0.95599 0.31875 0.32183 0.0
C365 C 0.9678 0.32365 0.38055 0.0
C366 C 0.98361 0.33955 0.37889 0.0
C367 C 0.01104 0.45295 0.44068 0.0
C368 C 0.01071 0.4494 0.51221 0.0
C369 C 0.0139 0.4371 0.39267 0.0
C370 C 0.01641 0.41741 0.41531 0.0
C371 C 0.0162 0.41389 0.48676 0.0
C372 C 0.01352 0.42977 0.53479 0.0
C373 C 0.01878 0.40039 0.36445 0.0
C374 C 1.00399 0.38348 0.3657 0.0
C375 C 0.03492 0.40115 0.31324 0.0
C376 C 0.05157 0.41819 0.31167 0.0
C377 C 0.06338 0.42344 0.37079 0.0
C378 C 0.07868 0.43982 0.36958 0.0
C379 C 0.08247 0.45097 0.30932 0.0
C380 C 0.07102 0.4457 0.25007 0.0
C381 C 0.05566 0.42936 0.25105 0.0
H382 H 0.09431 0.46365 0.30848 0.0
H383 H 0.94376 0.30643 0.32321 0.0
H384 H 0.83232 0.97932 0.12449 0.0
H385 H 0.86293 0.97764 0.04705 0.0
H386 H 0.82605 0.99042 0.87287 0.0
H387 H 0.79538 0.99173 0.95026 0.0
H388 H 0.85286 0.96295 0.83583 0.0
H389 H 0.85736 0.02823 0.95662 0.0
H390 H 0.85828 0.05115 0.05984 0.0
H391 H 0.91245 0.02507 0.12947 0.0
H392 H 0.91168 1.0018 0.02704 0.0
H393 H 0.92592 0.00762 0.59673 0.0
H394 H 0.89807 0.99984 0.682 0.0
H395 H 0.94316 0.9872 0.83238 0.0
H396 H 0.97139 0.99533 0.74645 0.0
H397 H 0.91433 0.01097 0.88803 0.0
H398 H 0.91216 0.94834 0.75904 0.0
H399 H 0.91153 0.92625 0.65386 0.0
H400 H 0.85339 0.94748 0.59817 0.0
H401 H 0.8538 0.96993 0.70255 0.0
C402 C 0.83076 0.98156 0.06954 0.0
C403 C 0.81162 0.98606 0.04349 0.0
C404 C 0.84826 0.98069 0.02534 0.0
C405 C 0.84699 0.98435 0.95415 0.0
C406 C 0.82754 0.98769 0.92755 0.0
C407 C 0.81003 0.9885 0.97175 0.0
C408 C 0.86601 0.9857 0.90799 0.0
C409 C 0.86623 0.97354 0.84707 0.0
C410 C 0.88379 0.99911 0.92326 0.0
C411 C 0.88432 0.01313 0.98464 0.0
C412 C 0.86937 0.02729 0.99423 0.0
C413 C 0.86988 0.04035 0.05253 0.0
C414 C 0.88538 0.03952 0.10129 0.0
C415 C 0.90044 0.02567 0.09173 0.0
C416 C 0.89998 0.01255 0.03355 0.0
C417 C 0.92997 1.00302 0.64777 0.0
C418 C 0.95086 1.00191 0.66469 0.0
C419 C 0.91397 0.99847 0.69648 0.0
C420 C 0.9184 0.9926 0.76349 0.0
C421 C 0.93932 0.99154 0.78086 0.0
C422 C 0.95543 0.99607 0.73172 0.0
C423 C 0.90107 0.98844 0.81541 0.0
C424 C 0.90111 1.00013 0.87729 0.0
C425 C 0.88355 0.97461 0.80095 0.0
C426 C 0.88308 0.96092 0.7385 0.0
C427 C 0.89929 0.9484 0.72418 0.0
C428 C 0.89897 0.93579 0.66471 0.0
C429 C 0.88245 0.93549 0.61931 0.0
C430 C 0.86618 0.94774 0.6334 0.0
C431 C 0.86643 0.96038 0.69278 0.0
H432 H 0.88223 0.92573 0.57327 0.0
H433 H 0.88575 0.04965 0.14641 0.0
H434 H 0.51167 0.79793 0.97392 0.0
H435 H 0.51393 0.82708 0.89689 0.0
H436 H 0.52978 0.86754 0.07054 0.0
H437 H 0.52733 0.83836 0.14754 0.0
H438 H 0.50092 0.88259 0.99972 0.0
H439 H 0.56584 0.85723 0.94092 0.0
H440 H 0.59051 0.83227 0.90466 0.0
H441 H 0.55988 0.82233 0.71035 0.0
H442 H 0.53483 0.84704 0.74584 0.0
H443 H 0.53305 0.96966 0.79138 0.0
H444 H 0.53577 0.94026 0.86487 0.0
H445 H 0.50024 0.90175 0.71905 0.0
H446 H 0.49688 0.93119 0.64625 0.0
H447 H 0.54034 0.88654 0.77559 0.0
H448 H 0.47432 0.91192 0.84257 0.0
H449 H 0.4519 0.93868 0.8808 0.0
H450 H 0.48782 0.95018 0.06404 0.0
H451 H 0.51068 0.92369 0.02621 0.0
C452 C 0.51587 0.81303 0.99535 0.0
C453 C 0.51916 0.81588 0.06681 0.0
C454 C 0.51723 0.82972 0.95128 0.0
C455 C 0.52208 0.84965 0.97755 0.0
C456 C 0.52591 0.8524 0.04878 0.0
C457 C 0.52459 0.83571 0.09279 0.0
C458 C 0.52215 0.86764 0.93164 0.0
C459 C 0.50982 0.88349 0.95125 0.0
C460 C 0.53348 0.86892 0.86763 0.0
C461 C 0.5483 0.85381 0.84641 0.0
C462 C 0.56422 0.84956 0.89076 0.0
C463 C 0.5783 0.8355 0.87027 0.0
C464 C 0.57672 0.82567 0.80534 0.0
C465 C 0.56106 0.82992 0.7607 0.0
C466 C 0.54692 0.84397 0.78096 0.0
C467 C 0.5259 0.95492 0.77468 0.0
C468 C 0.51468 0.95281 0.71295 0.0
C469 C 0.52746 0.93813 0.81682 0.0
C470 C 0.51821 0.9188 0.79747 0.0
C471 C 0.50753 0.91651 0.73492 0.0
C472 C 0.50555 0.93338 0.69354 0.0
C473 C 0.51905 0.90116 0.84379 0.0
C474 C 0.53153 0.88549 0.82421 0.0
C475 C 0.50811 0.90014 0.90824 0.0
C476 C 0.49437 0.91602 0.93112 0.0
C477 C 0.47758 0.92032 0.89062 0.0
C478 C 0.46476 0.9354 0.9123 0.0
C479 C 0.46848 0.94618 0.9747 0.0
C480 C 0.48499 0.94185 0.01563 0.0
C481 C 0.49788 0.9268 0.99411 0.0
H482 H 0.45852 0.95784 0.99143 0.0
H483 H 0.58766 0.81481 0.78953 0.0
H484 H 0.71263 0.49597 0.95018 0.0
H485 H 0.68431 0.49992 0.8707 0.0
H486 H 0.64234 0.5073 0.04541 0.0
H487 H 0.67065 0.50305 0.12482 0.0
H488 H 0.62449 0.48134 0.95144 0.0
H489 H 0.66145 0.54796 0.94352 0.0
H490 H 0.69224 0.5724 0.92709 0.0
H491 H 0.69982 0.55047 0.71723 0.0
H492 H 0.66923 0.5257 0.73269 0.0
H493 H 0.54017 0.50768 0.75375 0.0
H494 H 0.56814 0.50842 0.83712 0.0
H495 H 0.61331 0.50797 0.66829 0.0
H496 H 0.58546 0.50855 0.5852 0.0
H497 H 0.62927 0.53113 0.76242 0.0
H498 H 0.59387 0.46386 0.76862 0.0
H499 H 0.56373 0.43847 0.78279 0.0
H500 H 0.55413 0.4599 0.99223 0.0
H501 H 0.58401 0.48565 0.97897 0.0
C502 C 0.69738 0.49858 0.97147 0.0
C503 C 0.69378 0.499 0.04365 0.0
C504 C 0.68119 0.50091 0.92605 0.0
C505 C 0.66107 0.50401 0.95177 0.0
C506 C 0.65762 0.50485 0.02404 0.0
C507 C 0.67382 0.50251 0.06944 0.0
C508 C 0.64354 0.50578 0.90353 0.0
C509 C 0.62543 0.49244 0.91073 0.0
C510 C 0.64485 0.51985 0.849 0.0
C511 C 0.66315 0.53486 0.83948 0.0
C512 C 0.66976 0.54826 0.89402 0.0
C513 C 0.68717 0.56218 0.88485 0.0
C514 C 0.69801 0.56296 0.82121 0.0
C515 C 0.69142 0.54984 0.76652 0.0
C516 C 0.67404 0.53587 0.77544 0.0
C517 C 0.55609 0.508 0.7345 0.0
C518 C 0.56057 0.50806 0.6628 0.0
C519 C 0.57213 0.50818 0.78227 0.0
C520 C 0.593 0.50774 0.7595 0.0
C521 C 0.59745 0.50824 0.68774 0.0
C522 C 0.58146 0.50852 0.64006 0.0
C523 C 0.61018 0.50659 0.80987 0.0
C524 C 0.62825 0.52004 0.80313 0.0
C525 C 0.60893 0.49243 0.86434 0.0
C526 C 0.59107 0.47682 0.87256 0.0
C527 C 0.58526 0.46324 0.81756 0.0
C528 C 0.56822 0.44878 0.82544 0.0
C529 C 0.557 0.44761 0.88833 0.0
C530 C 0.56282 0.46086 0.94352 0.0
C531 C 0.5798 0.47538 0.93586 0.0
H532 H 0.54384 0.4364 0.8944 0.0
H533 H 0.71149 0.57375 0.81423 0.0
H534 H 0.9991 0.71209 0.94144 0.0
H535 H 0.99697 0.68198 0.86369 0.0
H536 H 0.9945 0.64311 0.04048 0.0
H537 H 0.99661 0.67316 0.11821 0.0
H538 H 0.02307 0.63251 0.94267 0.0
H539 H 0.95134 0.64726 0.94801 0.0
H540 H 0.92244 0.66887 0.93579 0.0
H541 H 0.93962 0.67776 0.72157 0.0
H542 H 0.96881 0.65643 0.73276 0.0
H543 H 1.00455 0.53904 0.75748 0.0
H544 H 1.00059 0.56759 0.83897 0.0
H545 H 0.99469 0.60723 0.6675 0.0
H546 H 0.99749 0.57848 0.58627 0.0
H547 H 0.96938 0.61715 0.76521 0.0
H548 H 0.04152 0.60469 0.75753 0.0
H549 H 0.07144 0.58416 0.76608 0.0
H550 H 0.05527 0.57264 0.97953 0.0
H551 H 0.02506 0.59286 0.97196 0.0
C552 C 0.99764 0.69711 0.96366 0.0
C553 C 0.99743 0.69496 0.03598 0.0
C554 C 0.99647 0.67991 0.91922 0.0
C555 C 0.99533 0.66025 0.94626 0.0
C556 C 0.99523 0.6581 0.01843 0.0
C557 C 0.99629 0.67527 0.06279 0.0
C558 C 0.99517 0.64193 0.89942 0.0
C559 C 0.01116 0.62898 0.90454 0.0
C560 C 0.97998 0.63764 0.84829 0.0
C561 C 0.96238 0.6504 0.84142 0.0
C562 C 0.94906 0.65395 0.89844 0.0
C563 C 0.9326 0.66613 0.89167 0.0
C564 C 0.92922 0.67472 0.82799 0.0
C565 C 0.94227 0.67111 0.77089 0.0
C566 C 0.95876 0.65897 0.7774 0.0
C567 C 1.00206 0.55376 0.7373 0.0
C568 C 1.00135 0.55652 0.6655 0.0
C569 C 1.00002 0.57016 0.78388 0.0
C570 C 0.99777 0.58975 0.75952 0.0
C571 C 0.99647 0.59234 0.68779 0.0
C572 C 0.99816 0.57589 0.64132 0.0
C573 C 0.99733 0.60767 0.80827 0.0
C574 C 0.98127 0.6206 0.80347 0.0
C575 C 0.01264 0.61213 0.8591 0.0
C576 C 0.03091 0.60011 0.86396 0.0
C577 C 0.04427 0.59767 0.80616 0.0
C578 C 0.06129 0.5861 0.81084 0.0
C579 C 0.06522 0.57705 0.87325 0.0
C580 C 0.05218 0.57962 0.93119 0.0
C581 C 0.03512 0.59114 0.92674 0.0
H582 H 0.0784 0.5681 0.87677 0.0
H583 H 0.91648 0.68414 0.82285 0.0
H584 H 0.04192 0.22189 0.17849 0.0
H585 H 0.04009 0.19066 0.24491 0.0
H586 H 0.97354 0.19154 0.26615 0.0
H587 H 0.97538 0.22277 0.19905 0.0
H588 H 0.99474 0.17427 0.38403 0.0
H589 H 0.98687 0.16755 0.13444 0.0
H590 H 0.99626 0.17286 0.01113 0.0
H591 H 0.05538 0.14967 0.04062 0.0
H592 H 0.04636 0.14432 0.16427 0.0
H593 H 0.96755 0.06517 0.38283 0.0
H594 H 0.9686 0.10079 0.34741 0.0
H595 H 0.03554 0.10424 0.33673 0.0
H596 H 0.03462 0.06886 0.37363 0.0
H597 H 0.01325 0.11962 0.21758 0.0
H598 H 0.02075 0.12426 0.46431 0.0
H599 H 0.01188 0.11851 0.58767 0.0
H600 H 0.95436 0.14544 0.56549 0.0
H601 H 0.96268 0.15098 0.44153 0.0
C602 C 0.02709 0.21604 0.20086 0.0
C603 C 0.00881 0.2247 0.18463 0.0
C604 C 0.02602 0.19812 0.238 0.0
C605 C 1.00665 0.18872 0.25921 0.0
C606 C 0.98861 0.19865 0.25015 0.0
C607 C 0.98968 0.21655 0.21251 0.0
C608 C 1.00497 0.16724 0.27979 0.0
C609 C 0.99852 0.16225 0.34761 0.0
C610 C 0.01023 0.15169 0.23223 0.0
C611 C 0.01604 0.15577 0.15873 0.0
C612 C 1.00197 0.16382 0.1148 0.0
C613 C 0.00717 0.1667 0.04474 0.0
C614 C 0.02641 0.16161 0.01807 0.0
C615 C 0.0405 0.15364 0.06139 0.0
C616 C 0.03534 0.15065 0.13141 0.0
C617 C 0.98244 0.0734 0.37118 0.0
C618 C 1.00104 0.06432 0.37998 0.0
C619 C 0.98302 0.09375 0.35204 0.0
C620 C 1.00218 0.10503 0.34054 0.0
C621 C 0.02068 0.09566 0.34575 0.0
C622 C 0.02012 0.07549 0.36603 0.0
C623 C 1.00308 0.12659 0.32184 0.0
C624 C 0.00938 0.13159 0.2541 0.0
C625 C 0.99772 0.14204 0.36961 0.0
C626 C 0.99219 0.13775 0.44325 0.0
C627 C 1.00602 0.12861 0.48533 0.0
C628 C 1.00115 0.12549 0.55551 0.0
C629 C 0.98257 0.13161 0.58437 0.0
C630 C 0.96874 0.14069 0.54301 0.0
C631 C 0.97351 0.14381 0.47279 0.0
H632 H 0.97893 0.12946 0.63884 0.0
H633 H 0.03039 0.16373 0.96382 0.0
H634 H 0.29774 0.99309 0.13358 0.0
H635 H 0.32544 0.98795 0.2125 0.0
H636 H 0.31845 0.04691 0.30901 0.0
H637 H 0.29099 0.05232 0.22746 0.0
H638 H 0.35683 0.04412 0.26823 0.0
H639 H 0.30894 1.00211 0.4014 0.0
H640 H 0.28082 0.97527 0.42537 0.0
H641 H 0.31837 0.93003 0.33765 0.0
H642 H 0.34663 0.95663 0.3122 0.0
H643 H 0.43158 0.02287 0.52485 0.0
H644 H 0.40251 0.03253 0.4592 0.0
H645 H 0.40699 0.97978 0.32406 0.0
H646 H 0.43681 0.97031 0.38869 0.0
H647 H 0.3695 0.9813 0.38836 0.0
H648 H 0.42418 0.02724 0.28525 0.0
H649 H 0.45312 0.05795 0.24737 0.0
H650 H 0.38772 0.107 0.31327 0.0
H651 H 0.36909 0.07047 0.34476 0.0
C652 C 0.30156 1.00455 0.17363 0.0
C653 C 0.2923 0.02301 0.17518 0.0
C654 C 0.3174 1.00165 0.21867 0.0
C655 C 0.32401 0.01704 0.26678 0.0
C656 C 0.31357 0.03487 0.27215 0.0
C657 C 0.29774 0.03784 0.22644 0.0
C658 C 0.34336 0.01537 0.30466 0.0
C659 C 0.35954 0.03093 0.29795 0.0
C660 C 0.34684 0.99753 0.3396 0.0
C661 C 0.32986 0.98141 0.35442 0.0
C662 C 0.31114 0.98646 0.38668 0.0
C663 C 0.29519 0.97128 0.40064 0.0
C664 C 0.29779 0.95097 0.38293 0.0
C665 C 0.31638 0.94578 0.35132 0.0
C666 C 0.33238 0.9609 0.3372 0.0
C667 C 0.42644 0.01333 0.4809 0.0
C668 C 0.43605 0.99557 0.46234 0.0
C669 C 0.4101 0.01913 0.44276 0.0
C670 C 0.40279 0.00696 0.38671 0.0
C671 C 0.4126 0.98939 0.36722 0.0
C672 C 0.42934 0.98384 0.40443 0.0
C673 C 0.38302 0.01068 0.35564 0.0
C674 C 0.36678 0.99516 0.36236 0.0
C675 C 0.37929 0.02934 0.32553 0.0
C676 C 0.39519 0.0472 0.31845 0.0
C677 C 0.41989 0.04267 0.29082 0.0
C678 C 0.43776 0.06206 0.26494 0.0
C679 C 0.42147 0.09699 0.27513 0.0
C680 C 0.39647 0.09383 0.30612 0.0
C681 C 0.38501 0.07049 0.3259 0.0
H682 H 0.42764 0.11254 0.2633 0.0
H683 H 0.28542 0.93924 0.3938 0.0
H684 H 0.51324 0.28821 0.20946 0.0
H685 H 0.51476 0.31978 0.27828 0.0
H686 H 0.45053 0.32635 0.23412 0.0
H687 H 0.44937 0.29507 0.16282 0.0
H688 H 0.47273 0.35594 0.18366 0.0
H689 H 0.46867 0.32834 0.40334 0.0
H690 H 0.47407 0.30774 0.50479 0.0
H691 H 0.53802 0.33168 0.50969 0.0
H692 H 0.53315 0.3522 0.40749 0.0
H693 H 0.47955 0.45397 0.34016 0.0
H694 H 0.4731 0.41944 0.2931 0.0
H695 H 0.53701 0.40871 0.3267 0.0
H696 H 0.5434 0.44328 0.37571 0.0
H697 H 0.51196 0.38154 0.38934 0.0
H698 H 0.51685 0.40626 0.16091 0.0
H699 H 0.51089 0.42709 0.06036 0.0
H700 H 0.44557 0.40822 0.07289 0.0
H701 H 0.45113 0.38731 0.17371 0.0
C702 C 0.49914 0.29579 0.21785 0.0
C703 C 0.48123 0.2894 0.18094 0.0
C704 C 0.49998 0.3139 0.25721 0.0
C705 C 0.48282 0.32563 0.2607 0.0
C706 C 0.46401 0.31765 0.23167 0.0
C707 C 0.46327 0.2997 0.19148 0.0
C708 C 0.48609 0.34764 0.279 0.0
C709 C 0.48108 0.36148 0.22922 0.0
C710 C 0.49712 0.35498 0.33811 0.0
C711 C 0.50058 0.34166 0.39693 0.0
C712 C 0.484 0.32894 0.42509 0.0
C713 C 0.48694 0.31735 0.48307 0.0
C714 C 0.50639 0.31835 0.51355 0.0
C715 C 0.52297 0.33089 0.48596 0.0
C716 C 0.52012 0.34252 0.42799 0.0
C717 C 0.49241 0.44447 0.33539 0.0
C718 C 0.51191 0.45113 0.36216 0.0
C719 C 0.48872 0.42474 0.30823 0.0
C720 C 0.50456 0.41145 0.30666 0.0
C721 C 0.52456 0.41871 0.32781 0.0
C722 C 0.52824 0.43847 0.35532 0.0
C723 C 0.49938 0.38945 0.29261 0.0
C724 C 0.50386 0.37576 0.34352 0.0
C725 C 0.48798 0.38218 0.2343 0.0
C726 C 0.48438 0.39541 0.1755 0.0
C727 C 0.50117 0.40677 0.14287 0.0
C728 C 0.49788 0.4185 0.08554 0.0
C729 C 0.47786 0.41903 0.06038 0.0
C730 C 0.46108 0.40781 0.09245 0.0
C731 C 0.4643 0.39597 0.1496 0.0
H732 H 0.47535 0.4281 0.01594 0.0
H733 H 0.5086 0.30945 0.55865 0.0
H734 H 0.20019 0.46852 0.15489 0.0
H735 H 0.17347 0.48188 0.23082 0.0
H736 H 0.21651 0.5326 0.29081 0.0
H737 H 0.24314 0.51981 0.2118 0.0
H738 H 0.18465 0.51388 0.39756 0.0
H739 H 0.197 0.54456 0.18437 0.0
H740 H 0.20952 0.55046 0.05249 0.0
H741 H 0.1278 0.51509 0.01186 0.0
H742 H 0.12735 0.51274 0.15284 0.0
H743 H 0.07041 0.54898 0.37976 0.0
H744 H 0.10772 0.55468 0.35037 0.0
H745 H 0.11601 0.49298 0.40552 0.0
H746 H 0.07897 0.48708 0.43312 0.0
H747 H 0.12833 0.5345 0.25204 0.0
H748 H 0.16694 0.49473 0.48611 0.0
H749 H 0.16614 0.49652 0.61348 0.0
H750 H 0.13232 0.54965 0.61113 0.0
H751 H 0.13406 0.5491 0.48361 0.0
C752 C 0.20416 0.48219 0.18588 0.0
C753 C 0.22342 0.49352 0.17599 0.0
C754 C 0.18889 0.48984 0.22887 0.0
C755 C 0.19284 0.5087 0.26319 0.0
C756 C 0.21311 0.51831 0.26266 0.0
C757 C 0.22833 0.5109 0.21815 0.0
C758 C 0.17521 0.5188 0.29415 0.0
C759 C 0.1722 0.5183 0.36617 0.0
C760 C 0.15973 0.52589 0.25236 0.0
C761 C 0.16237 0.52806 0.17591 0.0
C762 C 0.186 0.53892 0.14586 0.0
C763 C 0.19406 0.54332 0.06261 0.0
C764 C 0.17808 0.53715 0.99467 0.0
C765 C 0.14185 0.52089 0.039 0.0
C766 C 0.14132 0.51952 0.12754 0.0
C767 C 0.08022 0.53661 0.38469 0.0
C768 C 0.07181 0.51753 0.40766 0.0
C769 C 0.1015 0.53997 0.36901 0.0
C770 C 0.11467 0.52442 0.37769 0.0
C771 C 0.10622 0.50535 0.40028 0.0
C772 C 0.08497 0.50188 0.41469 0.0
C773 C 0.13669 0.52684 0.35435 0.0
C774 C 0.1407 0.53001 0.28365 0.0
C775 C 0.15301 0.52225 0.39738 0.0
C776 C 0.15056 0.52181 0.47443 0.0
C777 C 0.15946 0.50695 0.51238 0.0
C778 C 0.15902 0.50785 0.58484 0.0
C779 C 0.14924 0.52321 0.62038 0.0
C780 C 0.1399 0.53774 0.58349 0.0
C781 C 0.14068 0.53718 0.51097 0.0
H782 H 0.14884 0.5238 0.6765 0.0
H783 H 0.18432 0.54069 0.94279 0.0
H784 H 0.05882 0.79752 0.99018 0.0
H785 H 0.06513 0.82651 0.91265 0.0
H786 H 1.00553 0.81134 0.82167 0.0
H787 H 0.99892 0.78271 0.89971 0.0
H788 H 0.03995 0.8354 0.73594 0.0
H789 H 0.99949 0.8305 0.93966 0.0
H790 H 0.9892 0.81489 0.06115 0.0
H791 H 0.04312 0.88088 0.14627 0.0
H792 H 0.04848 0.88639 0.00735 0.0
H793 H 0.99412 0.93305 0.72231 0.0
H794 H 1.00051 0.89763 0.74136 0.0
H795 H 0.06214 0.9172 0.81077 0.0
H796 H 0.05615 0.95279 0.78914 0.0
H797 H 0.02858 0.89244 0.90194 0.0
H798 H 0.06495 0.89535 0.68269 0.0
H799 H 0.06841 0.90173 0.55765 0.0
H800 H 0.02047 0.85404 0.51659 0.0
H801 H 0.01587 0.84798 0.64206 0.0
C802 C 0.04738 0.79989 0.95187 0.0
C803 C 0.02785 0.78863 0.95412 0.0
C804 C 0.05102 0.81649 0.90729 0.0
C805 C 0.035 0.82213 0.86598 0.0
C806 C 0.01766 0.80797 0.85616 0.0
C807 C 0.01387 0.79154 0.90115 0.0
C808 C 0.03462 0.8437 0.84327 0.0
C809 C 0.03749 0.84783 0.77234 0.0
C810 C 0.03105 0.86026 0.89072 0.0
C811 C 0.02519 0.85776 0.96494 0.0
C812 C 0.00806 0.83737 0.98247 0.0
C813 C 1.00069 0.82783 0.05963 0.0
C814 C 0.00959 0.83839 0.13465 0.0
C815 C 0.03443 0.8698 0.11236 0.0
C816 C 0.03773 0.87393 0.02458 0.0
C817 C 0.009 0.92983 0.74207 0.0
C818 C 0.02456 0.94562 0.75563 0.0
C819 C 0.01274 0.90959 0.75147 0.0
C820 C 0.03195 0.90489 0.77559 0.0
C821 C 0.04739 0.92062 0.79048 0.0
C822 C 0.04385 0.94087 0.77938 0.0
C823 C 0.03454 0.88393 0.79604 0.0
C824 C 0.03167 0.87998 0.86629 0.0
C825 C 0.03729 0.86778 0.74786 0.0
C826 C 0.03987 0.8714 0.67225 0.0
C827 C 0.05482 0.88647 0.64735 0.0
C828 C 0.05697 0.89003 0.57632 0.0
C829 C 0.0445 0.87841 0.52935 0.0
C830 C 0.0299 0.86316 0.55331 0.0
C831 C 0.02749 0.85969 0.62441 0.0
H832 H 0.04622 0.88115 0.47435 0.0
H833 H 0.0166 0.8471 0.13896 0.0
H834 H 0.68993 0.94551 0.01815 0.0
H835 H 0.66406 0.9559 0.94202 0.0
H836 H 0.71074 0.99645 0.83956 0.0
H837 H 0.73621 0.9879 0.92284 0.0
H838 H 0.68366 0.01761 0.87299 0.0
H839 H 0.67623 0.95417 0.75363 0.0
H840 H 0.6727 0.91706 0.73104 0.0
H841 H 0.61571 0.91173 0.85148 0.0
H842 H 0.61902 0.94877 0.87558 0.0
H843 H 0.59848 0.03894 0.65008 0.0
H844 H 0.63061 0.02853 0.69768 0.0
H845 H 0.59737 0.01096 0.88641 0.0
H846 H 0.5653 0.02171 0.83988 0.0
H847 H 0.61836 0.97926 0.79797 0.0
H848 H 0.62975 0.04524 0.91288 0.0
H849 H 0.63363 0.0828 0.9161 0.0
H850 H 0.68543 0.08247 0.77203 0.0
H851 H 0.68167 0.04489 0.76726 0.0
C852 C 0.69482 0.9563 0.97828 0.0
C853 C 0.71485 0.96652 0.97835 0.0
C854 C 0.67998 0.96205 0.93354 0.0
C855 C 0.68518 0.97727 0.88495 0.0
C856 C 0.70613 0.98504 0.87763 0.0
C857 C 0.72083 0.9799 0.92459 0.0
C858 C 0.66838 0.98755 0.85238 0.0
C859 C 0.66976 0.00902 0.85421 0.0
C860 C 0.64979 0.97668 0.8294 0.0
C861 C 0.64799 0.95427 0.81687 0.0
C862 C 0.66307 0.94507 0.77594 0.0
C863 C 0.66107 0.92404 0.76269 0.0
C864 C 0.64402 0.91205 0.78993 0.0
C865 C 0.62892 0.92104 0.83046 0.0
C866 C 0.63084 0.94206 0.84387 0.0
C867 C 0.59823 0.03361 0.70274 0.0
C868 C 0.57947 0.03107 0.74137 0.0
C869 C 0.61653 0.02762 0.72967 0.0
C870 C 0.61619 0.01894 0.7952 0.0
C871 C 0.59781 0.01769 0.83572 0.0
C872 C 0.57959 0.02394 0.80926 0.0
C873 C 0.63419 0.00876 0.81745 0.0
C874 C 0.63273 0.98746 0.81471 0.0
C875 C 0.65298 0.01972 0.83609 0.0
C876 C 0.65528 0.04228 0.83911 0.0
C877 C 0.64183 0.05319 0.88135 0.0
C878 C 0.64404 0.07447 0.8836 0.0
C879 C 0.65973 0.08502 0.84413 0.0
C880 C 0.67327 0.07429 0.80249 0.0
C881 C 0.67112 0.053 0.80005 0.0
H882 H 0.66141 0.1015 0.84594 0.0
H883 H 0.64249 0.89578 0.77952 0.0
H884 H 0.5594 0.71497 0.96623 0.0
H885 H 0.55013 0.68494 0.89352 0.0
H886 H 0.48671 0.70072 0.89047 0.0
H887 H 0.49605 0.73073 0.96451 0.0
H888 H 0.4897 0.66538 0.95177 0.0
H889 H 0.51663 0.69578 0.74499 0.0
H890 H 0.54259 0.71541 0.67242 0.0
H891 H 0.58401 0.66829 0.68414 0.0
H892 H 0.55908 0.64905 0.76167 0.0
H893 H 0.46507 0.5664 0.78707 0.0
H894 H 0.46793 0.60259 0.82156 0.0
H895 H 0.53408 0.60114 0.84379 0.0
H896 H 0.53133 0.56512 0.80941 0.0
H897 H 0.52437 0.63072 0.75561 0.0
H898 H 0.50444 0.60701 0.98343 0.0
H899 H 0.48231 0.58824 0.07063 0.0
H900 H 0.43117 0.62244 0.0229 0.0
H901 H 0.45292 0.64123 0.93457 0.0
C902 C 0.54379 0.71265 0.94647 0.0
C903 C 0.5284 0.72501 0.97058 0.0
C904 C 0.53845 0.69543 0.9052 0.0
C905 C 0.51766 0.69049 0.88717 0.0
C906 C 0.50281 0.70427 0.90407 0.0
C907 C 0.50818 0.72152 0.94553 0.0
C908 C 0.51099 0.66939 0.8641 0.0
C909 C 0.49686 0.65795 0.90757 0.0
C910 C 0.52093 0.65957 0.80795 0.0
C911 C 0.53588 0.67094 0.75977 0.0
C912 C 0.53135 0.68965 0.73294 0.0
C913 C 0.54592 0.70074 0.69081 0.0
C914 C 0.56481 0.69299 0.67279 0.0
C915 C 0.56932 0.67425 0.69784 0.0
C916 C 0.55502 0.6633 0.74142 0.0
C917 C 0.48009 0.57367 0.80159 0.0
C918 C 0.49801 0.56308 0.79528 0.0
C919 C 0.48172 0.59434 0.82075 0.0
C920 C 0.50127 0.60454 0.83401 0.0
C921 C 0.51891 0.59356 0.83277 0.0
C922 C 0.51728 0.57296 0.81383 0.0
C923 C 0.50373 0.62688 0.84461 0.0
C924 C 0.51696 0.63841 0.79871 0.0
C925 C 0.49339 0.63678 0.89931 0.0
C926 C 0.48021 0.62532 0.95169 0.0
C927 C 0.4884 0.61037 0.99095 0.0
C928 C 0.47596 0.59977 0.04076 0.0
C929 C 0.45534 0.6041 0.05217 0.0
C930 C 0.44713 0.61907 0.01387 0.0
C931 C 0.45951 0.6297 0.96394 0.0
H932 H 0.44573 0.5959 0.09082 0.0
H933 H 0.57599 0.70156 0.63967 0.0
H934 H 0.77101 0.49926 0.92797 0.0
H935 H 0.79952 0.49432 0.84511 0.0
H936 H 0.83218 0.55022 0.9196 0.0
H937 H 0.80355 0.55539 0.00122 0.0
H938 H 0.84522 0.5401 0.78712 0.0
H939 H 0.83569 0.50904 0.01347 0.0
H940 H 0.81585 0.48855 0.10189 0.0
H941 H 0.8101 0.43733 0.95942 0.0
H942 H 0.82995 0.45759 0.87006 0.0
H943 H 0.9498 0.52319 0.82659 0.0
H944 H 0.91361 0.52936 0.85276 0.0
H945 H 0.89351 0.4695 0.77106 0.0
H946 H 0.92972 0.46311 0.74582 0.0
H947 H 0.8719 0.47908 0.8868 0.0
H948 H 0.89149 0.51163 0.67048 0.0
H949 H 0.91334 0.53461 0.59401 0.0
H950 H 0.9022 0.58556 0.72842 0.0
H951 H 0.88041 0.56297 0.80607 0.0
C952 C 0.78366 0.51112 0.9235 0.0
C953 C 0.78543 0.52745 0.97175 0.0
C954 C 0.80001 0.50821 0.87652 0.0
C955 C 0.8182 0.52155 0.87816 0.0
C956 C 0.81837 0.53964 0.91808 0.0
C957 C 0.80201 0.54259 0.96474 0.0
C958 C 0.83829 0.51455 0.85345 0.0
C959 C 0.85105 0.52668 0.80827 0.0
C960 C 0.84587 0.49709 0.88154 0.0
C961 C 0.83405 0.48485 0.935 0.0
C962 C 0.83009 0.49344 0.00097 0.0
C963 C 0.81886 0.48187 0.05124 0.0
C964 C 0.8116 0.46169 0.03619 0.0
C965 C 0.81567 0.45299 0.97093 0.0
C966 C 0.82694 0.46448 0.92049 0.0
C967 C 0.93769 0.51115 0.81596 0.0
C968 C 0.94248 0.49271 0.784 0.0
C969 C 0.91704 0.51481 0.82988 0.0
C970 C 0.90091 0.50013 0.81156 0.0
C971 C 0.90576 0.48112 0.78451 0.0
C972 C 0.92643 0.47742 0.77078 0.0
C973 C 0.879 0.50467 0.8206 0.0
C974 C 0.86593 0.49212 0.86351 0.0
C975 C 0.87139 0.52198 0.79142 0.0
C976 C 0.88439 0.53557 0.74434 0.0
C977 C 0.89378 0.52771 0.68396 0.0
C978 C 0.90613 0.54066 0.64035 0.0
C979 C 0.90918 0.56147 0.65641 0.0
C980 C 0.89982 0.56943 0.71603 0.0
C981 C 0.88743 0.55658 0.75977 0.0
H982 H 0.91878 0.57144 0.6226 0.0
H983 H 0.80289 0.45277 0.07517 0.0
H984 H 0.04281 0.22127 0.93021 0.0
H985 H 0.04172 0.1901 0.85857 0.0
H986 H 0.97488 0.18886 0.85268 0.0
H987 H 0.97607 0.21997 0.92545 0.0
H988 H 0.9848 0.15481 0.89934 0.0
H989 H 1.00676 0.19298 0.70139 0.0
H990 H 0.02786 0.21829 0.63162 0.0
H991 H 0.08212 0.18656 0.66069 0.0
H992 H 0.0614 0.16118 0.73141 0.0
H993 H 0.97609 0.06672 0.66939 0.0
H994 H 0.97583 0.10126 0.71964 0.0
H995 H 0.03899 0.09898 0.78411 0.0
H996 H 0.03889 0.06387 0.73668 0.0
H997 H 0.0298 0.13482 0.70143 0.0
H998 H 1.00684 0.09764 0.9054 0.0
H999 H 0.98457 0.07215 0.97091 0.0
H1000 H 0.93066 0.10253 0.9244 0.0
H1001 H 0.9526 0.12806 0.85777 0.0
C1002 C 0.02803 0.21495 0.91026 0.0
C1003 C 0.00957 0.22325 0.93178 0.0
C1004 C 0.02736 0.19701 0.86964 0.0
C1005 C 0.0082 0.18701 0.85004 0.0
C1006 C 0.98985 0.19624 0.86709 0.0
C1007 C 0.99054 0.21419 0.90772 0.0
C1008 C 0.00717 0.16575 0.82089 0.0
C1009 C 0.9944 0.1506 0.85523 0.0
C1010 C 0.01998 0.15998 0.76429 0.0
C1011 C 0.03256 0.17528 0.72227 0.0
C1012 C 0.02323 0.1915 0.69345 0.0
C1013 C 0.03512 0.20583 0.65359 0.0
C1014 C 0.05633 0.20406 0.64187 0.0
C1015 C 0.06569 0.18792 0.66987 0.0
C1016 C 0.05388 0.17354 0.70977 0.0
C1017 C 0.98976 0.0735 0.69551 0.0
C1018 C 0.00743 0.06271 0.70008 0.0
C1019 C 0.98964 0.09323 0.72372 0.0
C1020 C 0.00745 0.10273 0.75496 0.0
C1021 C 0.02512 0.09189 0.76002 0.0
C1022 C 0.02501 0.07187 0.73354 0.0
C1023 C 0.00767 0.12417 0.78046 0.0
C1024 C 0.02022 0.13924 0.74536 0.0
C1025 C 0.99455 0.12993 0.83591 0.0
C1026 C 0.98133 0.11461 0.87591 0.0
C1027 C 0.99021 0.09876 0.90855 0.0
C1028 C 0.97766 0.08434 0.94603 0.0
C1029 C 0.9562 0.08568 0.95162 0.0
C1030 C 0.94727 0.10149 0.91991 0.0
C1031 C 0.95976 0.11595 0.88234 0.0
H1032 H 0.94651 0.0745 0.98065 0.0
H1033 H 0.0655 0.21518 0.61098 0.0
H1034 H 0.29329 1.00255 0.90738 0.0
H1035 H 0.32629 1.0006 0.84346 0.0
H1036 H 0.3402 0.06537 0.87398 0.0
H1037 H 0.30732 0.06714 0.93942 0.0
H1038 H 0.34768 0.0145 0.73649 0.0
H1039 H 0.39174 0.07522 0.9167 0.0
H1040 H 0.38766 0.09006 0.03454 0.0
H1041 H 0.35056 0.03611 0.09732 0.0
H1042 H 0.35476 0.02078 0.98039 0.0
H1043 H 0.46098 0.05551 0.68048 0.0
H1044 H 0.42459 0.05661 0.72042 0.0
H1045 H 0.42256 0.9936 0.77592 0.0
H1046 H 0.45827 0.99201 0.73132 0.0
H1047 H 0.40904 0.04208 0.86944 0.0
H1048 H 0.39443 0.98001 0.71691 0.0
H1049 H 0.39495 0.96043 0.60656 0.0
H1050 H 0.36804 0.00862 0.50512 0.0
H1051 H 0.36927 0.02921 0.61341 0.0
C1052 C 0.30289 0.01652 0.89715 0.0
C1053 C 0.29754 0.03506 0.92707 0.0
C1054 C 0.32194 0.01537 0.86146 0.0
C1055 C 0.33609 0.03274 0.85535 0.0
C1056 C 0.3298 0.05166 0.87917 0.0
C1057 C 0.31077 0.05277 0.91521 0.0
C1058 C 0.35787 0.03068 0.82948 0.0
C1059 C 0.36106 0.02052 0.76581 0.0
C1060 C 0.37547 0.0381 0.86819 0.0
C1061 C 0.37333 0.04699 0.93933 0.0
C1062 C 0.3828 0.06649 0.95571 0.0
C1063 C 0.38046 0.07498 0.02236 0.0
C1064 C 0.36873 0.06409 0.07317 0.0
C1065 C 0.35953 0.04458 0.05776 0.0
C1066 C 0.36189 0.03598 0.99129 0.0
C1067 C 0.45261 0.04181 0.70016 0.0
C1068 C 0.46238 0.02362 0.70215 0.0
C1069 C 0.43181 0.04243 0.72276 0.0
C1070 C 0.42048 0.02497 0.74881 0.0
C1071 C 0.43048 0.00697 0.75271 0.0
C1072 C 0.45104 0.00617 0.72817 0.0
C1073 C 0.39876 0.02608 0.77619 0.0
C1074 C 0.39562 0.03616 0.84019 0.0
C1075 C 0.38116 0.01785 0.73929 0.0
C1076 C 0.38291 0.00655 0.67253 0.0
C1077 C 0.38971 0.98688 0.67029 0.0
C1078 C 0.38957 0.97552 0.6081 0.0
C1079 C 0.38189 0.98338 0.54843 0.0
C1080 C 0.37443 1.00266 0.55082 0.0
C1081 C 0.37517 0.01433 0.61232 0.0
H1082 H 0.38152 0.97441 0.50068 0.0
H1083 H 0.36678 0.07078 0.1245 0.0
H1084 H 0.52511 0.29846 0.94843 0.0
H1085 H 0.52725 0.32937 0.87974 0.0
H1086 H 0.46218 0.31818 0.83477 0.0
H1087 H 0.46003 0.28735 0.90416 0.0
H1088 H 0.48698 0.33642 0.72258 0.0
H1089 H 0.47652 0.3441 0.96964 0.0
H1090 H 0.48675 0.33933 0.08934 0.0
H1091 H 0.54205 0.37937 0.05707 0.0
H1092 H 0.53298 0.38312 0.93503 0.0
H1093 H 0.46696 0.43681 0.63839 0.0
H1094 H 0.46518 0.40304 0.68958 0.0
H1095 H 0.52308 0.41987 0.79181 0.0
H1096 H 0.52369 0.45419 0.74567 0.0
H1097 H 0.50206 0.39781 0.87339 0.0
H1098 H 0.51548 0.38889 0.62873 0.0
H1099 H 0.50757 0.39335 0.50629 0.0
H1100 H 0.44979 0.35651 0.53227 0.0
H1101 H 0.45701 0.35246 0.65577 0.0
C1102 C 0.51155 0.30203 0.92086 0.0
C1103 C 0.49252 0.29021 0.93031 0.0
C1104 C 0.5127 0.31987 0.88235 0.0
C1105 C 0.49481 0.32632 0.85271 0.0
C1106 C 0.47621 0.31355 0.85691 0.0
C1107 C 0.47502 0.29579 0.896 0.0
C1108 C 0.4948 0.34737 0.82532 0.0
C1109 C 0.49017 0.34986 0.75557 0.0
C1110 C 0.49931 0.365 0.86804 0.0
C1111 C 0.50424 0.36356 0.9425 0.0
C1112 C 0.49101 0.35168 0.98757 0.0
C1113 C 0.49663 0.34914 0.05597 0.0
C1114 C 0.51501 0.35908 0.08101 0.0
C1115 C 0.52786 0.37157 0.03751 0.0
C1116 C 0.52258 0.37377 0.96848 0.0
C1117 C 0.47911 0.4333 0.67262 0.0
C1118 C 0.49541 0.44808 0.68828 0.0
C1119 C 0.47827 0.41387 0.70129 0.0
C1120 C 0.49434 0.40838 0.74333 0.0
C1121 C 0.51046 0.42344 0.75972 0.0
C1122 C 0.51086 0.44309 0.73318 0.0
C1123 C 0.49456 0.38708 0.76977 0.0
C1124 C 0.49909 0.38448 0.83978 0.0
C1125 C 0.49036 0.36935 0.72695 0.0
C1126 C 0.48666 0.37062 0.65174 0.0
C1127 C 0.50107 0.38176 0.60836 0.0
C1128 C 0.49667 0.38427 0.53879 0.0
C1129 C 0.47811 0.37532 0.51159 0.0
C1130 C 0.46407 0.36357 0.55361 0.0
C1131 C 0.4683 0.36119 0.62344 0.0
H1132 H 0.47457 0.37746 0.45796 0.0
H1133 H 0.51927 0.35716 0.13416 0.0
H1134 H 0.22709 0.52043 0.91166 0.0
H1135 H 0.19571 0.52157 0.84321 0.0
H1136 H 0.18375 0.45645 0.85706 0.0
H1137 H 0.21536 0.45529 0.92368 0.0
H1138 H 0.16861 0.4686 0.73949 0.0
H1139 H 0.17142 0.48644 0.97734 0.0
H1140 H 0.17959 0.5036 0.10372 0.0
H1141 H 0.14132 0.56923 0.99645 0.0
H1142 H 0.13973 0.54362 0.88569 0.0
H1143 H 0.05469 0.46686 0.74072 0.0
H1144 H 0.08982 0.46361 0.78423 0.0
H1145 H 0.10969 0.52379 0.71308 0.0
H1146 H 0.07516 0.52664 0.66672 0.0
H1147 H 0.11975 0.51243 0.8597 0.0
H1148 H 0.11925 0.48849 0.62063 0.0
H1149 H 0.10846 0.46558 0.52356 0.0
H1150 H 0.13038 0.41517 0.62767 0.0
H1151 H 0.14115 0.4378 0.72633 0.0
C1152 C 0.2184 0.50626 0.89668 0.0
C1153 C 0.22392 0.48772 0.92201 0.0
C1154 C 0.20019 0.50696 0.85881 0.0
C1155 C 0.18687 0.48921 0.84699 0.0
C1156 C 0.19359 0.47042 0.86574 0.0
C1157 C 0.21182 0.46971 0.90335 0.0
C1158 C 0.16506 0.49036 0.82335 0.0
C1159 C 0.15799 0.47824 0.76597 0.0
C1160 C 0.1509 0.50276 0.85837 0.0
C1161 C 0.15572 0.51433 0.92412 0.0
C1162 C 0.16758 0.50189 0.9866 0.0
C1163 C 0.17219 0.51264 0.06682 0.0
C1164 C 0.15847 0.54878 0.07657 0.0
C1165 C 0.14771 0.5547 0.00049 0.0
C1166 C 0.14681 0.53821 0.93106 0.0
C1167 C 0.06656 0.47941 0.7351 0.0
C1168 C 0.06225 0.49702 0.70063 0.0
C1169 C 0.0866 0.4775 0.75948 0.0
C1170 C 0.10243 0.49338 0.7512 0.0
C1171 C 0.0978 0.51129 0.71948 0.0
C1172 C 0.07806 0.51293 0.69324 0.0
C1173 C 0.12392 0.49154 0.77497 0.0
C1174 C 0.13075 0.5033 0.83278 0.0
C1175 C 0.13759 0.47855 0.74147 0.0
C1176 C 0.13097 0.46495 0.68166 0.0
C1177 C 0.12166 0.47254 0.6236 0.0
C1178 C 0.11557 0.45957 0.56795 0.0
C1179 C 0.11869 0.43891 0.56946 0.0
C1180 C 0.12797 0.43119 0.62656 0.0
C1181 C 0.13412 0.44411 0.68234 0.0
H1182 H 0.11394 0.42888 0.52634 0.0
H1183 H 0.15834 0.56009 0.1191 0.0
H1184 H 0.971 0.79693 0.17024 0.0
H1185 H 0.96658 0.82675 0.24683 0.0
H1186 H 0.02773 0.82271 0.32595 0.0
H1187 H 0.03314 0.79442 0.24339 0.0
H1188 H 0.97747 0.83696 0.40893 0.0
H1189 H 0.04525 0.84959 0.26607 0.0
H1190 H 0.06072 0.83045 0.14999 0.0
H1191 H 0.99387 0.86846 0.02756 0.0
H1192 H 0.98688 0.88151 0.16628 0.0
H1193 H 0.00721 0.93337 0.56868 0.0
H1194 H 1.00399 0.89928 0.51763 0.0
H1195 H 0.98212 0.92276 0.32895 0.0
H1196 H 0.98573 0.95737 0.37947 0.0
H1197 H 0.01089 0.89932 0.29951 0.0
H1198 H 0.95076 0.89385 0.44329 0.0
H1199 H 0.9297 0.89645 0.5509 0.0
H1200 H 0.96277 0.85062 0.64231 0.0
H1201 H 0.98409 0.84778 0.53552 0.0
C1202 C 0.98342 0.80224 0.20463 0.0
C1203 C 1.0027 0.79372 0.199 0.0
C1204 C 0.98087 0.81934 0.24853 0.0
C1205 C 0.99734 0.8279 0.28922 0.0
C1206 C 0.01528 0.81727 0.2919 0.0
C1207 C 0.01829 0.80088 0.24534 0.0
C1208 C 0.99649 0.84867 0.3234 0.0
C1209 C 0.98507 0.85056 0.38589 0.0
C1210 C 1.00563 0.86683 0.29224 0.0
C1211 C 0.01582 0.86644 0.22363 0.0
C1212 C 0.03758 0.85174 0.21807 0.0
C1213 C 0.04744 0.83913 0.14455 0.0
C1214 C 0.03648 0.84027 0.06179 0.0
C1215 C 1.00407 0.86389 0.06758 0.0
C1216 C 1.00019 0.87304 0.15452 0.0
C1217 C 1.00157 0.93143 0.51636 0.0
C1218 C 0.99685 0.94828 0.47796 0.0
C1219 C 0.99957 0.91176 0.48747 0.0
C1220 C 0.99261 0.90832 0.41969 0.0
C1221 C 0.98749 0.92502 0.38152 0.0
C1222 C 0.98958 0.94482 0.41035 0.0
C1223 C 0.99248 0.88763 0.38669 0.0
C1224 C 1.00354 0.88579 0.32388 0.0
C1225 C 0.98277 0.86982 0.41777 0.0
C1226 C 0.96947 0.87098 0.48166 0.0
C1227 C 0.95374 0.88447 0.48653 0.0
C1228 C 0.94166 0.88593 0.54737 0.0
C1229 C 0.94499 0.87382 0.60359 0.0
C1230 C 0.96028 0.86008 0.59885 0.0
C1231 C 0.97238 0.85855 0.5381 0.0
H1232 H 0.93565 0.875 0.65069 0.0
H1233 H 0.04411 0.83287 0.01983 0.0
H1234 H 0.71038 0.94482 0.26017 0.0
H1235 H 0.67866 0.94829 0.33093 0.0
H1236 H 0.68085 0.01172 0.28004 0.0
H1237 H 0.71258 0.00825 0.20992 0.0
H1238 H 0.66385 0.97251 0.44066 0.0
H1239 H 0.63221 0.01966 0.22416 0.0
H1240 H 0.63744 0.02452 0.09823 0.0
H1241 H 0.65771 0.9644 0.07401 0.0
H1242 H 0.65252 0.95917 0.19934 0.0
H1243 H 0.56534 0.01844 0.51622 0.0
H1244 H 0.6007 0.01519 0.46998 0.0
H1245 H 0.58138 0.95524 0.38845 0.0
H1246 H 0.54634 0.9579 0.43817 0.0
H1247 H 0.60662 0.99129 0.29486 0.0
H1248 H 0.60579 0.94565 0.48731 0.0
H1249 H 0.60021 0.93575 0.60908 0.0
H1250 H 0.64382 0.98517 0.67361 0.0
H1251 H 0.64913 0.99569 0.55251 0.0
C1252 C 0.70471 0.95973 0.2674 0.0
C1253 C 0.71418 0.97638 0.23096 0.0
C1254 C 0.68644 0.96166 0.30709 0.0
C1255 C 0.67717 0.98019 0.30989 0.0
C1256 C 0.68761 0.99724 0.27825 0.0
C1257 C 0.70593 0.99535 0.23911 0.0
C1258 C 0.65563 0.98113 0.33885 0.0
C1259 C 0.6514 0.97673 0.40881 0.0
C1260 C 0.63916 0.98611 0.29698 0.0
C1261 C 0.6422 0.98914 0.22131 0.0
C1262 C 0.63777 0.00749 0.19188 0.0
C1263 C 0.64076 0.01031 0.12058 0.0
C1264 C 0.64803 0.99483 0.07811 0.0
C1265 C 0.65225 0.97646 0.10687 0.0
C1266 C 0.64932 0.97357 0.17807 0.0
C1267 C 0.56871 1.00442 0.48979 0.0
C1268 C 0.55309 0.9883 0.48216 0.0
C1269 C 0.58888 1.00264 0.46284 0.0
C1270 C 0.59369 0.98492 0.42619 0.0
C1271 C 0.57803 0.969 0.41697 0.0
C1272 C 0.55802 0.97055 0.44545 0.0
C1273 C 0.61502 0.98312 0.39692 0.0
C1274 C 0.61917 0.98735 0.32681 0.0
C1275 C 0.63127 0.97746 0.43804 0.0
C1276 C 0.62754 0.97168 0.51112 0.0
C1277 C 0.61384 0.95465 0.52768 0.0
C1278 C 0.61077 0.94888 0.59656 0.0
C1279 C 0.62152 0.95988 0.64919 0.0
C1280 C 0.63533 0.97673 0.63307 0.0
C1281 C 0.63836 0.98263 0.56429 0.0
H1282 H 0.61919 0.95521 0.70224 0.0
H1283 H 0.65033 0.99703 0.02294 0.0
H1284 H 0.50563 0.72436 0.26756 0.0
H1285 H 0.50324 0.69349 0.33757 0.0
H1286 H 0.56237 0.67821 0.25205 0.0
H1287 H 0.5649 0.70902 0.18337 0.0
H1288 H 0.52851 0.64724 0.23365 0.0
H1289 H 0.55941 0.69171 0.41675 0.0
H1290 H 0.55871 0.72305 0.48919 0.0
H1291 H 0.49885 0.70163 0.57378 0.0
H1292 H 0.49905 0.67029 0.50106 0.0
H1293 H 0.5406 0.55552 0.40484 0.0
H1294 H 0.54523 0.58933 0.35403 0.0
H1295 H 0.49994 0.6107 0.50092 0.0
H1296 H 0.49654 0.57749 0.55455 0.0
H1297 H 0.52573 0.63963 0.48866 0.0
H1298 H 0.49117 0.59786 0.31544 0.0
H1299 H 0.48422 0.56912 0.23246 0.0
H1300 H 0.54155 0.58624 0.12285 0.0
H1301 H 0.549 0.61493 0.20576 0.0
C1302 C 0.51851 0.71489 0.2663 0.0
C1303 C 0.53558 0.71926 0.22076 0.0
C1304 C 0.51703 0.6971 0.30555 0.0
C1305 C 0.53254 0.68337 0.29949 0.0
C1306 C 0.55016 0.68845 0.25735 0.0
C1307 C 0.55173 0.70622 0.21884 0.0
C1308 C 0.52988 0.66303 0.33252 0.0
C1309 C 0.52819 0.64549 0.28943 0.0
C1310 C 0.52846 0.66078 0.40515 0.0
C1311 C 0.52914 0.67878 0.45289 0.0
C1312 C 0.54609 0.6937 0.45076 0.0
C1313 C 0.54575 0.71149 0.49167 0.0
C1314 C 0.52861 0.71445 0.53521 0.0
C1315 C 0.51201 0.6994 0.53941 0.0
C1316 C 0.51226 0.6816 0.49851 0.0
C1317 C 0.53169 0.56748 0.42624 0.0
C1318 C 0.51822 0.56377 0.48373 0.0
C1319 C 0.53418 0.58684 0.39677 0.0
C1320 C 0.52263 0.60278 0.42227 0.0
C1321 C 0.50917 0.59894 0.47988 0.0
C1322 C 0.50716 0.57982 0.51053 0.0
C1323 C 0.52459 0.6234 0.38974 0.0
C1324 C 0.52609 0.6411 0.43281 0.0
C1325 C 0.52501 0.62583 0.31674 0.0
C1326 C 0.52078 0.60839 0.26741 0.0
C1327 C 0.50241 0.59537 0.27407 0.0
C1328 C 0.49836 0.57911 0.22699 0.0
C1329 C 0.5125 0.57579 0.17267 0.0
C1330 C 0.53067 0.58878 0.16514 0.0
C1331 C 0.5348 0.60505 0.21215 0.0
H1332 H 0.50932 0.56322 0.13619 0.0
H1333 H 0.52825 0.72836 0.56615 0.0
H1334 H 0.78818 0.48344 0.21837 0.0
H1335 H 0.81923 0.47998 0.2867 0.0
H1336 H 0.83121 0.54537 0.29746 0.0
H1337 H 0.80027 0.54873 0.22965 0.0
H1338 H 0.85857 0.49084 0.24861 0.0
H1339 H 0.85905 0.56015 0.44095 0.0
H1340 H 0.83422 0.57917 0.5102 0.0
H1341 H 0.79006 0.52653 0.50968 0.0
H1342 H 0.81473 0.5071 0.44131 0.0
H1343 H 0.96145 0.51585 0.37737 0.0
H1344 H 0.92738 0.51692 0.32434 0.0
H1345 H 0.89697 0.49844 0.51701 0.0
H1346 H 0.93056 0.49772 0.57016 0.0
H1347 H 0.87784 0.5276 0.46825 0.0
H1348 H 0.90102 0.46531 0.37374 0.0
H1349 H 0.92498 0.44371 0.31109 0.0
H1350 H 0.91981 0.47767 0.12649 0.0
H1351 H 0.89605 0.49967 0.18837 0.0
C1352 C 0.79695 0.49704 0.2381 0.0
C1353 C 0.7915 0.51636 0.22029 0.0
C1354 C 0.81492 0.49508 0.27611 0.0
C1355 C 0.82769 0.51241 0.29759 0.0
C1356 C 0.82159 0.53174 0.28266 0.0
C1357 C 0.80377 0.53368 0.24435 0.0
C1358 C 0.84807 0.5104 0.33105 0.0
C1359 C 0.86273 0.49885 0.29676 0.0
C1360 C 0.85364 0.5207 0.39416 0.0
C1361 C 0.83867 0.53225 0.43531 0.0
C1362 C 0.84406 0.55262 0.45576 0.0
C1363 C 0.83001 0.56347 0.49486 0.0
C1364 C 0.81054 0.55409 0.51412 0.0
C1365 C 0.80511 0.53381 0.49447 0.0
C1366 C 0.81911 0.52288 0.45542 0.0
C1367 C 0.9475 0.512 0.40833 0.0
C1368 C 0.94888 0.50681 0.47823 0.0
C1369 C 0.92798 0.51253 0.37788 0.0
C1370 C 0.90943 0.50765 0.41641 0.0
C1371 C 0.9109 0.50236 0.48595 0.0
C1372 C 0.93027 0.50193 0.51635 0.0
C1373 C 0.88844 0.50824 0.38543 0.0
C1374 C 0.87369 0.5196 0.42007 0.0
C1375 C 0.88269 0.4975 0.32327 0.0
C1376 C 0.89693 0.48427 0.28591 0.0
C1377 C 0.90513 0.46827 0.31995 0.0
C1378 C 0.91865 0.45594 0.28455 0.0
C1379 C 0.92396 0.45935 0.21491 0.0
C1380 C 0.91571 0.47507 0.18047 0.0
C1381 C 0.90221 0.48747 0.21567 0.0
H1382 H 0.93443 0.44978 0.1876 0.0
H1383 H 0.79969 0.56252 0.54439 0.0
loop_
_geom_bond_atom_site_label_1
_geom_bond_atom_site_label_2
_geom_bond_distance
_geom_bond_site_symmetry_2
_ccdc_geom_bond_type
H0 C7 0.929 . S
H1 C10 0.930 1_556 S
H2 C12 0.929 . S
H3 C4 0.969 1_556 S
C4 H3 0.969 1_554 S
C4 O5 1.550 . S
C4 H6 0.973 1_554 S
O5 C4 1.550 . S
O5 C11 1.412 . S
H6 C4 0.973 1_556 S
C7 H0 0.929 . S
C7 C8 1.400 . S
C7 C9 1.364 . S
C8 C7 1.400 . S
C8 C12 1.377 . S
C9 C7 1.364 . S
C9 C10 1.374 . S
C10 H1 0.930 1_554 S
C10 C9 1.374 . S
C10 C11 1.383 . S
C11 O5 1.412 . S
C11 C10 1.383 . S
C11 C12 1.394 . S
C12 H2 0.929 . S
C12 C8 1.377 . S
C12 C11 1.394 . S
H13 C20 0.927 . S
H14 C23 0.930 . S
H15 C25 0.930 1_655 S
H16 C17 0.969 . S
C17 H16 0.969 . S
C17 O18 1.550 1_456 S
C17 H19 0.973 1_455 S
O18 C17 1.550 1_654 S
O18 C24 1.408 1_655 S
H19 C17 0.973 1_655 S
C20 H13 0.927 . S
C20 C21 1.399 1_655 S
C20 C22 1.364 1_654 S
C21 C20 1.399 1_455 S
C21 C25 1.378 . S
C22 C20 1.364 1_456 S
C22 C23 1.375 1_455 S
C23 H14 0.930 . S
C23 C22 1.375 1_655 S
C23 C24 1.380 1_656 S
C24 O18 1.408 1_455 S
C24 C23 1.380 1_454 S
C24 C25 1.394 . S
C25 H15 0.930 1_455 S
C25 C21 1.378 . S
C25 C24 1.394 . S
H26 C33 0.929 . S
H27 C36 0.930 . S
H28 C38 0.929 . S
H29 C30 0.969 . S
C30 H29 0.969 . S
C30 O31 1.550 1_556 S
C30 H32 0.973 . S
O31 C30 1.550 1_554 S
O31 C37 1.412 . S
H32 C30 0.973 . S
C33 H26 0.929 . S
C33 C34 1.400 . S
C33 C35 1.364 1_554 S
C34 C33 1.400 . S
C34 C38 1.377 . S
C35 C33 1.364 1_556 S
C35 C36 1.374 . S
C36 H27 0.930 . S
C36 C35 1.374 . S
C36 C37 1.383 1_556 S
C37 O31 1.412 . S
C37 C36 1.383 1_554 S
C37 C38 1.394 . S
C38 H28 0.929 . S
C38 C34 1.377 . S
C38 C37 1.394 . S
H39 C46 0.929 . S
H40 C49 0.930 . S
H41 C51 0.929 . S
H42 C43 0.969 . S
C43 H42 0.969 . S
C43 O44 1.550 . S
C43 H45 0.973 . S
O44 C43 1.550 . S
O44 C50 1.412 . S
H45 C43 0.973 . S
C46 H39 0.929 . S
C46 C47 1.400 . S
C46 C48 1.364 . S
C47 C46 1.400 . S
C47 C51 1.377 . S
C48 C46 1.364 . S
C48 C49 1.374 . S
C49 H40 0.930 . S
C49 C48 1.374 . S
C49 C50 1.383 . S
C50 O44 1.412 . S
C50 C49 1.383 . S
C50 C51 1.394 . S
C51 H41 0.929 . S
C51 C47 1.377 . S
C51 C50 1.394 . S
H52 C59 0.929 . S
H53 C62 0.930 . S
H54 C64 0.929 1_556 S
H55 C56 0.969 . S
C56 H55 0.969 . S
C56 O57 1.550 . S
C56 H58 0.973 . S
O57 C56 1.550 . S
O57 C63 1.412 . S
H58 C56 0.973 . S
C59 H52 0.929 . S
C59 C60 1.400 . S
C59 C61 1.364 . S
C60 C59 1.400 . S
C60 C64 1.377 . S
C61 C59 1.364 . S
C61 C62 1.374 . S
C62 H53 0.930 . S
C62 C61 1.374 . S
C62 C63 1.383 . S
C63 O57 1.412 . S
C63 C62 1.383 . S
C63 C64 1.394 . S
C64 H54 0.929 1_554 S
C64 C60 1.377 . S
C64 C63 1.394 . S
H65 C72 0.929 1_655 S
H66 C75 0.929 . S
H67 C77 0.927 1_655 S
H68 C69 0.969 . S
C69 H68 0.969 . S
C69 O70 1.550 1_455 S
C69 H71 0.973 1_455 S
O70 C69 1.550 1_655 S
O70 C76 1.399 1_655 S
H71 C69 0.973 1_655 S
C72 H65 0.929 1_455 S
C72 C73 1.401 . S
C72 C74 1.364 . S
C73 C72 1.401 . S
C73 C77 1.376 . S
C74 C72 1.364 . S
C74 C75 1.374 1_455 S
C75 H66 0.929 . S
C75 C74 1.374 1_655 S
C75 C76 1.385 1_655 S
C76 O70 1.399 1_455 S
C76 C75 1.385 1_455 S
C76 C77 1.394 . S
C77 H67 0.927 1_455 S
C77 C73 1.376 . S
C77 C76 1.394 . S
H78 C85 0.929 . S
H79 C88 0.930 . S
H80 C90 0.929 . S
H81 C82 0.969 . S
C82 H81 0.969 . S
C82 O83 1.550 . S
C82 H84 0.973 . S
O83 C82 1.550 . S
O83 C89 1.412 . S
H84 C82 0.973 . S
C85 H78 0.929 . S
C85 C86 1.400 . S
C85 C87 1.364 . S
C86 C85 1.400 . S
C86 C90 1.377 . S
C87 C85 1.364 . S
C87 C88 1.374 . S
C88 H79 0.930 . S
C88 C87 1.374 . S
C88 C89 1.383 . S
C89 O83 1.412 . S
C89 C88 1.383 . S
C89 C90 1.394 . S
C90 H80 0.929 . S
C90 C86 1.377 . S
C90 C89 1.394 . S
H91 C98 0.929 . S
H92 C101 0.930 . S
H93 C103 0.929 . S
H94 C95 0.969 . S
C95 H94 0.969 . S
C95 O96 1.550 . S
C95 H97 0.973 . S
O96 C95 1.550 . S
O96 C102 1.412 . S
H97 C95 0.973 . S
C98 H91 0.929 . S
C98 C99 1.400 1_554 S
C98 C100 1.364 . S
C99 C98 1.400 1_556 S
C99 C103 1.377 . S
C100 C98 1.364 . S
C100 C101 1.374 . S
C101 H92 0.930 . S
C101 C100 1.374 . S
C101 C102 1.383 . S
C102 O96 1.412 . S
C102 C101 1.383 . S
C102 C103 1.394 1_554 S
C103 H93 0.929 . S
C103 C99 1.377 . S
C103 C102 1.394 1_556 S
Dy104 O108 2.398 . S
Dy104 O109 2.491 1_455 S
Dy104 O110 2.403 . S
Dy104 O111 2.664 1_565 S
Dy104 O115 2.326 . S
Dy104 O119 2.310 1_455 S
Dy104 O120 2.351 1_565 S
C105 O116 1.185 . S
C105 O117 1.355 1_655 S
C106 O108 1.185 . S
C106 O109 1.355 1_455 S
Dy107 O111 2.310 1_655 S
Dy107 O114 2.351 1_545 S
Dy107 O116 2.398 . S
Dy107 O117 2.491 1_655 S
Dy107 O118 2.403 . S
Dy107 O119 2.664 1_545 S
Dy107 O121 2.326 . S
O108 Dy104 2.398 . S
O108 C106 1.185 . S
O109 Dy104 2.491 1_655 S
O109 C106 1.355 1_655 S
O110 Dy104 2.403 . S
O110 C112 1.254 1_565 S
O111 Dy104 2.664 1_545 S
O111 Dy107 2.310 1_455 S
O111 C112 1.268 . S
C112 O110 1.254 1_545 S
C112 O111 1.268 . S
C113 O118 1.254 1_565 S
C113 O119 1.268 . S
O114 Dy107 2.351 1_565 S
O114 C122 1.249 . S
O115 Dy104 2.326 . S
O115 C122 1.267 1_455 S
O116 C105 1.185 . S
O116 Dy107 2.398 . S
O117 C105 1.355 1_455 S
O117 Dy107 2.491 1_455 S
O118 Dy107 2.403 . S
O118 C113 1.254 1_545 S
O119 Dy104 2.310 1_655 S
O119 Dy107 2.664 1_565 S
O119 C113 1.268 . S
O120 Dy104 2.351 1_545 S
O120 C123 1.249 . S
O121 Dy107 2.326 . S
O121 C123 1.267 1_655 S
C122 O114 1.249 . S
C122 O115 1.267 1_655 S
C123 O120 1.249 . S
C123 O121 1.267 1_455 S
Dy124 O128 2.398 . S
Dy124 O129 2.491 1_565 S
Dy124 O130 2.403 . S
Dy124 O131 2.664 . S
Dy124 O135 2.326 1_565 S
Dy124 O139 2.310 1_565 S
Dy124 O140 2.351 . S
C125 O136 1.176 1_565 S
C125 O137 1.358 . S
C126 O128 1.185 1_545 S
C126 O129 1.355 . S
Dy127 O131 2.310 1_545 S
Dy127 O134 2.351 . S
Dy127 O136 2.398 . S
Dy127 O137 2.491 1_545 S
Dy127 O138 2.403 . S
Dy127 O139 2.664 . S
Dy127 O141 2.326 1_545 S
O128 Dy124 2.398 . S
O128 C126 1.185 1_565 S
O129 Dy124 2.491 1_545 S
O129 C126 1.355 . S
O130 Dy124 2.403 . S
O130 C132 1.254 . S
O131 Dy124 2.664 . S
O131 Dy127 2.310 1_565 S
O131 C132 1.268 . S
C132 O130 1.254 . S
C132 O131 1.268 . S
C133 O138 1.254 . S
C133 O139 1.268 . S
O134 Dy127 2.351 . S
O134 C142 1.249 . S
O135 Dy124 2.326 1_545 S
O135 C142 1.267 . S
O136 C125 1.176 1_545 S
O136 Dy127 2.398 . S
O137 C125 1.358 . S
O137 Dy127 2.491 1_565 S
O138 Dy127 2.403 . S
O138 C133 1.254 . S
O139 Dy124 2.310 1_545 S
O139 Dy127 2.664 . S
O139 C133 1.268 . S
O140 Dy124 2.351 . S
O140 C143 1.249 . S
O141 Dy127 2.326 1_565 S
O141 C143 1.267 . S
C142 O134 1.249 . S
C142 O135 1.267 . S
C143 O140 1.249 . S
C143 O141 1.267 . S
Dy144 O148 2.398 . S
Dy144 O149 2.491 . S
Dy144 O150 2.403 . S
Dy144 O151 2.664 . S
Dy144 O155 2.326 . S
Dy144 O159 2.310 . S
Dy144 O160 2.351 . S
C145 O156 1.185 . S
C145 O157 1.355 . S
C146 O148 1.185 . S
C146 O149 1.355 . S
Dy147 O151 2.310 . S
Dy147 O154 2.351 . S
Dy147 O156 2.398 . S
Dy147 O157 2.491 . S
Dy147 O158 2.403 . S
Dy147 O159 2.664 . S
Dy147 O161 2.326 . S
O148 Dy144 2.398 . S
O148 C146 1.185 . S
O149 Dy144 2.491 . S
O149 C146 1.355 . S
O150 Dy144 2.403 . S
O150 C152 1.254 . S
O151 Dy144 2.664 . S
O151 Dy147 2.310 . S
O151 C152 1.268 . S
C152 O150 1.254 . S
C152 O151 1.268 . S
C153 O158 1.254 . S
C153 O159 1.268 . S
O154 Dy147 2.351 . S
O154 C162 1.249 . S
O155 Dy144 2.326 . S
O155 C162 1.267 . S
O156 C145 1.185 . S
O156 Dy147 2.398 . S
O157 C145 1.355 . S
O157 Dy147 2.491 . S
O158 Dy147 2.403 . S
O158 C153 1.254 . S
O159 Dy144 2.310 . S
O159 Dy147 2.664 . S
O159 C153 1.268 . S
O160 Dy144 2.351 . S
O160 C163 1.249 . S
O161 Dy147 2.326 . S
O161 C163 1.267 . S
C162 O154 1.249 . S
C162 O155 1.267 . S
C163 O160 1.249 . S
C163 O161 1.267 . S
Dy164 O168 2.398 . S
Dy164 O169 2.491 . S
Dy164 O170 2.403 . S
Dy164 O171 2.664 1_655 S
Dy164 O175 2.326 . S
Dy164 O179 2.310 . S
Dy164 O180 2.351 1_655 S
C165 O176 1.185 . S
C165 O177 1.355 . S
C166 O168 1.185 . S
C166 O169 1.355 . S
Dy167 O171 2.310 . S
Dy167 O174 2.351 1_455 S
Dy167 O176 2.398 . S
Dy167 O177 2.491 . S
Dy167 O178 2.403 . S
Dy167 O179 2.664 1_455 S
Dy167 O181 2.326 . S
O168 Dy164 2.398 . S
O168 C166 1.185 . S
O169 Dy164 2.491 . S
O169 C166 1.355 . S
O170 Dy164 2.403 . S
O170 C172 1.254 . S
O171 Dy164 2.664 1_455 S
O171 Dy167 2.310 . S
O171 C172 1.268 1_455 S
C172 O170 1.254 . S
C172 O171 1.268 1_655 S
C173 O178 1.254 . S
C173 O179 1.268 1_455 S
O174 Dy167 2.351 1_655 S
O174 C182 1.249 . S
O175 Dy164 2.326 . S
O175 C182 1.267 . S
O176 C165 1.185 . S
O176 Dy167 2.398 . S
O177 C165 1.355 . S
O177 Dy167 2.491 . S
O178 Dy167 2.403 . S
O178 C173 1.254 . S
O179 Dy164 2.310 . S
O179 Dy167 2.664 1_655 S
O179 C173 1.268 1_655 S
O180 Dy164 2.351 1_455 S
O180 C183 1.249 . S
O181 Dy167 2.326 . S
O181 C183 1.267 . S
C182 O174 1.249 . S
C182 O175 1.267 . S
C183 O180 1.249 . S
C183 O181 1.267 . S
H184 C202 0.951 . S
H185 C204 0.951 . S
H186 C206 0.950 . S
H187 C207 0.950 . S
H188 C209 0.950 . S
H189 C212 0.950 . S
H190 C213 0.950 . S
H191 C215 0.950 . S
H192 C216 0.950 . S
H193 C217 0.951 . S
H194 C219 0.951 . S
H195 C221 0.950 . S
H196 C222 0.950 . S
H197 C224 0.950 . S
H198 C227 0.950 . S
H199 C228 0.950 . S
H200 C230 0.950 . S
H201 C231 0.950 . S
C202 H184 0.951 . S
C202 C203 1.366 . S
C202 C204 1.388 . S
C203 C202 1.366 . S
C203 C207 1.385 . S
C204 H185 0.951 . S
C204 C202 1.388 . S
C204 C205 1.366 . S
C205 C204 1.366 . S
C205 C206 1.414 . S
C205 C208 1.499 . S
C206 H186 0.950 . S
C206 C205 1.414 . S
C206 C207 1.374 . S
C207 H187 0.950 . S
C207 C203 1.385 . S
C207 C206 1.374 . S
C208 C205 1.499 . S
C208 C209 1.373 . S
C208 C210 1.389 . S
C209 H188 0.950 . S
C209 C208 1.373 . S
C209 C225 1.377 . S
C210 C208 1.389 . S
C210 C211 1.524 . S
C210 C224 1.377 . S
C211 C210 1.524 . S
C211 C212 1.397 1_545 S
C211 C216 1.363 . S
C212 H189 0.950 . S
C212 C211 1.397 1_565 S
C212 C213 1.334 . S
C213 H190 0.950 . S
C213 C212 1.334 . S
C213 C214 1.287 . S
C214 C213 1.287 . S
C214 C215 1.524 . S
C214 H233 0.913 . S
C215 H191 0.950 . S
C215 C214 1.524 . S
C215 C216 1.415 1_565 S
C216 H192 0.950 . S
C216 C211 1.363 . S
C216 C215 1.415 1_545 S
C217 H193 0.951 . S
C217 C218 1.366 . S
C217 C219 1.388 . S
C218 C217 1.366 . S
C218 C222 1.385 . S
C219 H194 0.951 . S
C219 C217 1.388 . S
C219 C220 1.366 . S
C220 C219 1.366 . S
C220 C221 1.414 . S
C220 C223 1.499 . S
C221 H195 0.950 . S
C221 C220 1.414 . S
C221 C222 1.374 . S
C222 H196 0.950 . S
C222 C218 1.385 . S
C222 C221 1.374 . S
C223 C220 1.499 . S
C223 C224 1.373 . S
C223 C225 1.389 . S
C224 H197 0.950 . S
C224 C210 1.377 . S
C224 C223 1.373 . S
C225 C209 1.377 . S
C225 C223 1.389 . S
C225 C226 1.524 . S
C226 C225 1.524 . S
C226 C227 1.397 . S
C226 C231 1.363 . S
C227 H198 0.950 . S
C227 C226 1.397 . S
C227 C228 1.334 . S
C228 H199 0.950 . S
C228 C227 1.334 . S
C228 C229 1.287 . S
C229 C228 1.287 . S
C229 C230 1.524 . S
C229 H232 0.999 . S
C230 H200 0.950 . S
C230 C229 1.524 . S
C230 C231 1.415 . S
C231 H201 0.950 . S
C231 C226 1.363 . S
C231 C230 1.415 . S
H232 C229 0.999 . S
H233 C214 0.913 . S
H234 C252 0.951 . S
H235 C254 0.951 . S
H236 C256 0.950 . S
H237 C257 0.950 . S
H238 C259 0.950 . S
H239 C262 0.950 . S
H240 C263 0.950 . S
H241 C265 0.950 . S
H242 C266 0.950 . S
H243 C267 0.951 . S
H244 C269 0.951 . S
H245 C271 0.950 . S
H246 C272 0.950 . S
H247 C274 0.950 . S
H248 C277 0.950 . S
H249 C278 0.950 . S
H250 C280 0.950 . S
H251 C281 0.950 . S
C252 H234 0.951 . S
C252 C253 1.366 . S
C252 C254 1.388 . S
C253 C252 1.366 . S
C253 C257 1.385 . S
C254 H235 0.951 . S
C254 C252 1.388 . S
C254 C255 1.366 . S
C255 C254 1.366 . S
C255 C256 1.414 . S
C255 C258 1.499 . S
C256 H236 0.950 . S
C256 C255 1.414 . S
C256 C257 1.374 . S
C257 H237 0.950 . S
C257 C253 1.385 . S
C257 C256 1.374 . S
C258 C255 1.499 . S
C258 C259 1.373 . S
C258 C260 1.389 . S
C259 H238 0.950 . S
C259 C258 1.373 . S
C259 C275 1.377 . S
C260 C258 1.389 . S
C260 C261 1.524 . S
C260 C274 1.377 . S
C261 C260 1.524 . S
C261 C262 1.397 . S
C261 C266 1.363 . S
C262 H239 0.950 . S
C262 C261 1.397 . S
C262 C263 1.334 . S
C263 H240 0.950 . S
C263 C262 1.334 . S
C263 C264 1.287 . S
C264 C263 1.287 . S
C264 C265 1.524 . S
C264 H283 0.913 . S
C265 H241 0.950 . S
C265 C264 1.524 . S
C265 C266 1.415 . S
C266 H242 0.950 . S
C266 C261 1.363 . S
C266 C265 1.415 . S
C267 H243 0.951 . S
C267 C268 1.366 . S
C267 C269 1.388 . S
C268 C267 1.366 . S
C268 C272 1.385 . S
C269 H244 0.951 . S
C269 C267 1.388 . S
C269 C270 1.366 . S
C270 C269 1.366 . S
C270 C271 1.414 . S
C270 C273 1.499 . S
C271 H245 0.950 . S
C271 C270 1.414 . S
C271 C272 1.374 . S
C272 H246 0.950 . S
C272 C268 1.385 . S
C272 C271 1.374 . S
C273 C270 1.499 . S
C273 C274 1.373 . S
C273 C275 1.389 . S
C274 H247 0.950 . S
C274 C260 1.377 . S
C274 C273 1.373 . S
C275 C259 1.377 . S
C275 C273 1.389 . S
C275 C276 1.524 . S
C276 C275 1.524 . S
C276 C277 1.397 . S
C276 C281 1.363 . S
C277 H248 0.950 . S
C277 C276 1.397 . S
C277 C278 1.334 . S
C278 H249 0.950 . S
C278 C277 1.334 . S
C278 C279 1.287 . S
C279 C278 1.287 . S
C279 C280 1.524 . S
C279 H282 0.999 . S
C280 H250 0.950 . S
C280 C279 1.524 . S
C280 C281 1.415 . S
C281 H251 0.950 . S
C281 C276 1.363 . S
C281 C280 1.415 . S
H282 C279 0.999 . S
H283 C264 0.913 . S
H284 C302 0.951 . S
H285 C304 0.951 . S
H286 C306 0.950 . S
H287 C307 0.950 . S
H288 C309 0.950 . S
H289 C312 0.950 . S
H290 C313 0.950 . S
H291 C315 0.950 . S
H292 C316 0.950 . S
H293 C317 0.951 . S
H294 C319 0.951 . S
H295 C321 0.950 . S
H296 C322 0.950 . S
H297 C324 0.950 . S
H298 C327 0.950 . S
H299 C328 0.950 . S
H300 C330 0.950 . S
H301 C331 0.950 . S
C302 H284 0.951 . S
C302 C303 1.366 . S
C302 C304 1.388 . S
C303 C302 1.366 . S
C303 C307 1.385 . S
C304 H285 0.951 . S
C304 C302 1.388 . S
C304 C305 1.366 . S
C305 C304 1.366 . S
C305 C306 1.414 . S
C305 C308 1.499 . S
C306 H286 0.950 . S
C306 C305 1.414 . S
C306 C307 1.374 . S
C307 H287 0.950 . S
C307 C303 1.385 . S
C307 C306 1.374 . S
C308 C305 1.499 . S
C308 C309 1.373 . S
C308 C310 1.389 . S
C309 H288 0.950 . S
C309 C308 1.373 . S
C309 C325 1.377 . S
C310 C308 1.389 . S
C310 C311 1.524 . S
C310 C324 1.377 . S
C311 C310 1.524 . S
C311 C312 1.397 . S
C311 C316 1.363 . S
C312 H289 0.950 . S
C312 C311 1.397 . S
C312 C313 1.334 . S
C313 H290 0.950 . S
C313 C312 1.334 . S
C313 C314 1.287 . S
C314 C313 1.287 . S
C314 C315 1.524 . S
C314 H333 0.913 . S
C315 H291 0.950 . S
C315 C314 1.524 . S
C315 C316 1.415 . S
C316 H292 0.950 . S
C316 C311 1.363 . S
C316 C315 1.415 . S
C317 H293 0.951 . S
C317 C318 1.366 . S
C317 C319 1.388 . S
C318 C317 1.366 . S
C318 C322 1.385 . S
C319 H294 0.951 . S
C319 C317 1.388 . S
C319 C320 1.366 . S
C320 C319 1.366 . S
C320 C321 1.414 . S
C320 C323 1.499 . S
C321 H295 0.950 . S
C321 C320 1.414 . S
C321 C322 1.374 . S
C322 H296 0.950 . S
C322 C318 1.385 . S
C322 C321 1.374 . S
C323 C320 1.499 . S
C323 C324 1.373 . S
C323 C325 1.389 . S
C324 H297 0.950 . S
C324 C310 1.377 . S
C324 C323 1.373 . S
C325 C309 1.377 . S
C325 C323 1.389 . S
C325 C326 1.524 . S
C326 C325 1.524 . S
C326 C327 1.397 . S
C326 C331 1.363 . S
C327 H298 0.950 . S
C327 C326 1.397 . S
C327 C328 1.334 . S
C328 H299 0.950 . S
C328 C327 1.334 . S
C328 C329 1.287 . S
C329 C328 1.287 . S
C329 C330 1.524 . S
C329 H332 0.999 . S
C330 H300 0.950 . S
C330 C329 1.524 . S
C330 C331 1.415 . S
C331 H301 0.950 . S
C331 C326 1.363 . S
C331 C330 1.415 . S
H332 C329 0.999 . S
H333 C314 0.913 . S
H334 C352 0.951 . S
H335 C354 0.951 . S
H336 C356 0.950 . S
H337 C357 0.950 . S
H338 C359 0.950 . S
H339 C362 0.950 . S
H340 C363 0.950 . S
H341 C365 0.950 . S
H342 C366 0.950 . S
H343 C367 0.951 . S
H344 C369 0.951 . S
H345 C371 0.950 . S
H346 C372 0.950 . S
H347 C374 0.950 . S
H348 C377 0.950 . S
H349 C378 0.950 . S
H350 C380 0.950 . S
H351 C381 0.950 . S
C352 H334 0.951 . S
C352 C353 1.366 1_655 S
C352 C354 1.388 . S
C353 C352 1.366 1_455 S
C353 C357 1.384 . S
C354 H335 0.951 . S
C354 C352 1.388 . S
C354 C355 1.366 . S
C355 C354 1.366 . S
C355 C356 1.414 1_655 S
C355 C358 1.499 . S
C356 H336 0.950 . S
C356 C355 1.414 1_455 S
C356 C357 1.374 . S
C357 H337 0.950 . S
C357 C353 1.384 . S
C357 C356 1.374 . S
C358 C355 1.499 . S
C358 C359 1.373 1_655 S
C358 C360 1.389 . S
C359 H338 0.950 . S
C359 C358 1.373 1_455 S
C359 C375 1.377 . S
C360 C358 1.389 . S
C360 C361 1.524 . S
C360 C374 1.377 . S
C361 C360 1.524 . S
C361 C362 1.397 . S
C361 C366 1.363 . S
C362 H339 0.950 . S
C362 C361 1.397 . S
C362 C363 1.334 . S
C363 H340 0.950 . S
C363 C362 1.334 . S
C363 C364 1.287 . S
C364 C363 1.287 . S
C364 C365 1.524 . S
C364 H383 0.913 . S
C365 H341 0.950 . S
C365 C364 1.524 . S
C365 C366 1.415 . S
C366 H342 0.950 . S
C366 C361 1.363 . S
C366 C365 1.415 . S
C367 H343 0.951 . S
C367 C368 1.366 1_455 S
C367 C369 1.388 . S
C368 C367 1.366 1_655 S
C368 C372 1.385 . S
C369 H344 0.951 . S
C369 C367 1.388 . S
C369 C370 1.367 . S
C370 C369 1.367 . S
C370 C371 1.412 1_455 S
C370 C373 1.498 . S
C371 H345 0.950 . S
C371 C370 1.412 1_655 S
C371 C372 1.374 . S
C372 H346 0.950 . S
C372 C368 1.385 . S
C372 C371 1.374 . S
C373 C370 1.498 . S
C373 C374 1.362 1_455 S
C373 C375 1.401 . S
C374 H347 0.950 . S
C374 C360 1.377 . S
C374 C373 1.362 1_655 S
C375 C359 1.377 . S
C375 C373 1.401 . S
C375 C376 1.524 . S
C376 C375 1.524 . S
C376 C377 1.397 . S
C376 C381 1.363 . S
C377 H348 0.950 . S
C377 C376 1.397 . S
C377 C378 1.334 . S
C378 H349 0.950 . S
C378 C377 1.334 . S
C378 C379 1.287 . S
C379 C378 1.287 . S
C379 C380 1.524 . S
C379 H382 0.999 . S
C380 H350 0.950 . S
C380 C379 1.524 . S
C380 C381 1.415 . S
C381 H351 0.950 . S
C381 C376 1.363 . S
C381 C380 1.415 . S
H382 C379 0.999 . S
H383 C364 0.913 . S
H384 C402 0.951 1_554 S
H385 C404 0.951 . S
H386 C406 0.950 . S
H387 C407 0.950 . S
H388 C409 0.950 . S
H389 C412 0.950 . S
H390 C413 0.950 . S
H391 C415 0.950 . S
H392 C416 0.950 . S
H393 C417 0.951 1_545 S
H394 C419 0.951 . S
H395 C421 0.950 . S
H396 C422 0.950 . S
H397 C424 0.950 . S
H398 C427 0.950 . S
H399 C428 0.950 . S
H400 C430 0.950 . S
H401 C431 0.950 . S
C402 H384 0.951 1_556 S
C402 C403 1.366 . S
C402 C404 1.388 . S
C403 C402 1.366 . S
C403 C407 1.385 . S
C404 H385 0.951 . S
C404 C402 1.388 . S
C404 C405 1.366 . S
C405 C404 1.366 . S
C405 C406 1.414 . S
C405 C408 1.499 . S
C406 H386 0.950 . S
C406 C405 1.414 . S
C406 C407 1.374 . S
C407 H387 0.950 . S
C407 C403 1.385 . S
C407 C406 1.374 . S
C408 C405 1.499 . S
C408 C409 1.373 . S
C408 C410 1.389 . S
C409 H388 0.950 . S
C409 C408 1.373 . S
C409 C425 1.377 . S
C410 C408 1.389 . S
C410 C411 1.524 . S
C410 C424 1.377 . S
C411 C410 1.524 . S
C411 C412 1.397 1_565 S
C411 C416 1.363 . S
C412 H389 0.950 . S
C412 C411 1.397 1_545 S
C412 C413 1.334 1_556 S
C413 H390 0.950 . S
C413 C412 1.334 1_554 S
C413 C414 1.287 . S
C414 C413 1.287 . S
C414 C415 1.524 1_545 S
C414 H433 0.913 . S
C415 H391 0.950 . S
C415 C414 1.524 1_565 S
C415 C416 1.415 1_554 S
C416 H392 0.950 . S
C416 C411 1.363 . S
C416 C415 1.415 1_556 S
C417 H393 0.951 1_565 S
C417 C418 1.366 . S
C417 C419 1.388 . S
C418 C417 1.366 . S
C418 C422 1.385 . S
C419 H394 0.951 . S
C419 C417 1.388 . S
C419 C420 1.366 . S
C420 C419 1.366 . S
C420 C421 1.414 . S
C420 C423 1.499 . S
C421 H395 0.950 . S
C421 C420 1.414 . S
C421 C422 1.374 . S
C422 H396 0.950 . S
C422 C418 1.385 . S
C422 C421 1.374 . S
C423 C420 1.499 . S
C423 C424 1.373 . S
C423 C425 1.389 . S
C424 H397 0.950 . S
C424 C410 1.377 . S
C424 C423 1.373 . S
C425 C409 1.377 . S
C425 C423 1.389 . S
C425 C426 1.524 . S
C426 C425 1.524 . S
C426 C427 1.397 . S
C426 C431 1.363 . S
C427 H398 0.950 . S
C427 C426 1.397 . S
C427 C428 1.334 . S
C428 H399 0.950 . S
C428 C427 1.334 . S
C428 C429 1.287 . S
C429 C428 1.287 . S
C429 C430 1.524 . S
C429 H432 0.999 . S
C430 H400 0.950 . S
C430 C429 1.524 . S
C430 C431 1.415 . S
C431 H401 0.950 . S
C431 C426 1.363 . S
C431 C430 1.415 . S
H432 C429 0.999 . S
H433 C414 0.913 . S
H434 C452 0.951 . S
H435 C454 0.951 . S
H436 C456 0.950 . S
H437 C457 0.950 . S
H438 C459 0.950 . S
H439 C462 0.950 . S
H440 C463 0.950 . S
H441 C465 0.950 . S
H442 C466 0.950 . S
H443 C467 0.951 . S
H444 C469 0.951 . S
H445 C471 0.950 . S
H446 C472 0.950 . S
H447 C474 0.950 . S
H448 C477 0.950 . S
H449 C478 0.950 . S
H450 C480 0.950 1_554 S
H451 C481 0.950 . S
C452 H434 0.951 . S
C452 C453 1.366 1_556 S
C452 C454 1.388 . S
C453 C452 1.366 1_554 S
C453 C457 1.385 . S
C454 H435 0.951 . S
C454 C452 1.388 . S
C454 C455 1.366 . S
C455 C454 1.366 . S
C455 C456 1.414 1_556 S
C455 C458 1.499 . S
C456 H436 0.950 . S
C456 C455 1.414 1_554 S
C456 C457 1.374 . S
C457 H437 0.950 . S
C457 C453 1.385 . S
C457 C456 1.374 . S
C458 C455 1.499 . S
C458 C459 1.373 . S
C458 C460 1.389 . S
C459 H438 0.950 . S
C459 C458 1.373 . S
C459 C475 1.377 . S
C460 C458 1.389 . S
C460 C461 1.524 . S
C460 C474 1.377 . S
C461 C460 1.524 . S
C461 C462 1.397 . S
C461 C466 1.363 . S
C462 H439 0.950 . S
C462 C461 1.397 . S
C462 C463 1.334 . S
C463 H440 0.950 . S
C463 C462 1.334 . S
C463 C464 1.287 . S
C464 C463 1.287 . S
C464 C465 1.524 . S
C464 H483 0.913 . S
C465 H441 0.950 . S
C465 C464 1.524 . S
C465 C466 1.415 . S
C466 H442 0.950 . S
C466 C461 1.363 . S
C466 C465 1.415 . S
C467 H443 0.951 . S
C467 C468 1.366 . S
C467 C469 1.388 . S
C468 C467 1.366 . S
C468 C472 1.385 . S
C469 H444 0.951 . S
C469 C467 1.388 . S
C469 C470 1.366 . S
C470 C469 1.366 . S
C470 C471 1.414 . S
C470 C473 1.499 . S
C471 H445 0.950 . S
C471 C470 1.414 . S
C471 C472 1.374 . S
C472 H446 0.950 . S
C472 C468 1.385 . S
C472 C471 1.374 . S
C473 C470 1.499 . S
C473 C474 1.373 . S
C473 C475 1.389 . S
C474 H447 0.950 . S
C474 C460 1.377 . S
C474 C473 1.373 . S
C475 C459 1.377 . S
C475 C473 1.389 . S
C475 C476 1.524 . S
C476 C475 1.524 . S
C476 C477 1.397 . S
C476 C481 1.363 . S
C477 H448 0.950 . S
C477 C476 1.397 . S
C477 C478 1.334 . S
C478 H449 0.950 . S
C478 C477 1.334 . S
C478 C479 1.287 . S
C479 C478 1.287 . S
C479 C480 1.524 . S
C479 H482 0.999 . S
C480 H450 0.950 1_556 S
C480 C479 1.524 . S
C480 C481 1.415 . S
C481 H451 0.950 . S
C481 C476 1.363 . S
C481 C480 1.415 . S
H482 C479 0.999 . S
H483 C464 0.913 . S
H484 C502 0.951 . S
H485 C504 0.951 . S
H486 C506 0.950 . S
H487 C507 0.950 . S
H488 C509 0.950 . S
H489 C512 0.950 . S
H490 C513 0.950 . S
H491 C515 0.950 . S
H492 C516 0.950 . S
H493 C517 0.951 . S
H494 C519 0.951 . S
H495 C521 0.950 . S
H496 C522 0.950 . S
H497 C524 0.950 . S
H498 C527 0.950 . S
H499 C528 0.950 . S
H500 C530 0.950 1_554 S
H501 C531 0.950 . S
C502 H484 0.951 . S
C502 C503 1.366 . S
C502 C504 1.388 . S
C503 C502 1.366 . S
C503 C507 1.385 1_556 S
C504 H485 0.951 . S
C504 C502 1.388 . S
C504 C505 1.366 . S
C505 C504 1.366 . S
C505 C506 1.414 . S
C505 C508 1.499 . S
C506 H486 0.950 . S
C506 C505 1.414 . S
C506 C507 1.374 1_556 S
C507 H487 0.950 . S
C507 C503 1.385 1_554 S
C507 C506 1.374 1_554 S
C508 C505 1.499 . S
C508 C509 1.373 . S
C508 C510 1.389 . S
C509 H488 0.950 . S
C509 C508 1.373 . S
C509 C525 1.377 . S
C510 C508 1.389 . S
C510 C511 1.524 . S
C510 C524 1.377 . S
C511 C510 1.524 . S
C511 C512 1.397 . S
C511 C516 1.363 . S
C512 H489 0.950 . S
C512 C511 1.397 . S
C512 C513 1.334 . S
C513 H490 0.950 . S
C513 C512 1.334 . S
C513 C514 1.287 . S
C514 C513 1.287 . S
C514 C515 1.524 . S
C514 H533 0.913 . S
C515 H491 0.950 . S
C515 C514 1.524 . S
C515 C516 1.415 . S
C516 H492 0.950 . S
C516 C511 1.363 . S
C516 C515 1.415 . S
C517 H493 0.951 . S
C517 C518 1.366 . S
C517 C519 1.388 . S
C518 C517 1.366 . S
C518 C522 1.385 . S
C519 H494 0.951 . S
C519 C517 1.388 . S
C519 C520 1.366 . S
C520 C519 1.366 . S
C520 C521 1.414 . S
C520 C523 1.499 . S
C521 H495 0.950 . S
C521 C520 1.414 . S
C521 C522 1.374 . S
C522 H496 0.950 . S
C522 C518 1.385 . S
C522 C521 1.374 . S
C523 C520 1.499 . S
C523 C524 1.373 . S
C523 C525 1.389 . S
C524 H497 0.950 . S
C524 C510 1.377 . S
C524 C523 1.373 . S
C525 C509 1.377 . S
C525 C523 1.389 . S
C525 C526 1.524 . S
C526 C525 1.524 . S
C526 C527 1.397 . S
C526 C531 1.363 . S
C527 H498 0.950 . S
C527 C526 1.397 . S
C527 C528 1.334 . S
C528 H499 0.950 . S
C528 C527 1.334 . S
C528 C529 1.287 . S
C529 C528 1.287 . S
C529 C530 1.524 . S
C529 H532 0.999 . S
C530 H500 0.950 1_556 S
C530 C529 1.524 . S
C530 C531 1.415 . S
C531 H501 0.950 . S
C531 C526 1.363 . S
C531 C530 1.415 . S
H532 C529 0.999 . S
H533 C514 0.913 . S
H534 C552 0.953 . S
H535 C554 0.951 1_455 S
H536 C556 0.950 . S
H537 C557 0.950 . S
H538 C559 0.950 . S
H539 C562 0.950 . S
H540 C563 0.950 . S
H541 C565 0.950 . S
H542 C566 0.950 . S
H543 C567 0.953 . S
H544 C569 0.951 . S
H545 C571 0.950 . S
H546 C572 0.950 . S
H547 C574 0.950 . S
H548 C577 0.950 . S
H549 C578 0.950 . S
H550 C580 0.950 . S
H551 C581 0.950 . S
C552 H534 0.953 . S
C552 C553 1.366 1_455 S
C552 C554 1.388 1_455 S
C553 C552 1.366 1_655 S
C553 C557 1.387 1_556 S
C554 H535 0.951 1_655 S
C554 C552 1.388 1_655 S
C554 C555 1.369 . S
C555 C554 1.369 . S
C555 C556 1.413 . S
C555 C558 1.498 . S
C556 H536 0.950 . S
C556 C555 1.413 . S
C556 C557 1.374 1_556 S
C557 H537 0.950 . S
C557 C553 1.387 1_554 S
C557 C556 1.374 1_554 S
C558 C555 1.498 . S
C558 C559 1.338 1_655 S
C558 C560 1.419 . S
C559 H538 0.950 . S
C559 C558 1.338 1_455 S
C559 C575 1.377 . S
C560 C558 1.419 . S
C560 C561 1.524 . S
C560 C574 1.377 . S
C561 C560 1.524 . S
C561 C562 1.397 . S
C561 C566 1.363 . S
C562 H539 0.950 . S
C562 C561 1.397 . S
C562 C563 1.334 . S
C563 H540 0.950 . S
C563 C562 1.334 . S
C563 C564 1.287 . S
C564 C563 1.287 . S
C564 C565 1.524 . S
C564 H583 0.913 . S
C565 H541 0.950 . S
C565 C564 1.524 . S
C565 C566 1.415 . S
C566 H542 0.950 . S
C566 C561 1.363 . S
C566 C565 1.415 . S
C567 H543 0.953 . S
C567 C568 1.365 . S
C567 C569 1.387 . S
C568 C567 1.365 . S
C568 C572 1.385 . S
C569 H544 0.951 . S
C569 C567 1.387 . S
C569 C570 1.366 . S
C570 C569 1.366 . S
C570 C571 1.414 . S
C570 C573 1.499 . S
C571 H545 0.950 . S
C571 C570 1.414 . S
C571 C572 1.374 . S
C572 H546 0.950 . S
C572 C568 1.385 . S
C572 C571 1.374 . S
C573 C570 1.499 . S
C573 C574 1.373 1_455 S
C573 C575 1.389 . S
C574 H547 0.950 . S
C574 C560 1.377 . S
C574 C573 1.373 1_655 S
C575 C559 1.377 . S
C575 C573 1.389 . S
C575 C576 1.524 . S
C576 C575 1.524 . S
C576 C577 1.397 . S
C576 C581 1.363 . S
C577 H548 0.950 . S
C577 C576 1.397 . S
C577 C578 1.334 . S
C578 H549 0.950 . S
C578 C577 1.334 . S
C578 C579 1.287 . S
C579 C578 1.287 . S
C579 C580 1.524 . S
C579 H582 0.999 . S
C580 H550 0.950 . S
C580 C579 1.524 . S
C580 C581 1.415 . S
C581 H551 0.950 . S
C581 C576 1.363 . S
C581 C580 1.415 . S
H582 C579 0.999 . S
H583 C564 0.913 . S
H584 C602 0.951 . S
H585 C604 0.951 . S
H586 C606 0.950 . S
H587 C607 0.950 . S
H588 C609 0.950 . S
H589 C612 0.950 1_655 S
H590 C613 0.950 . S
H591 C615 0.950 . S
H592 C616 0.950 . S
H593 C617 0.951 . S
H594 C619 0.951 . S
H595 C621 0.950 . S
H596 C622 0.950 . S
H597 C624 0.950 . S
H598 C627 0.963 . S
H599 C628 0.950 . S
H600 C630 0.950 . S
H601 C631 0.950 . S
C602 H584 0.951 . S
C602 C603 1.369 . S
C602 C604 1.388 . S
C603 C602 1.369 . S
C603 C607 1.381 1_455 S
C604 H585 0.951 . S
C604 C602 1.388 . S
C604 C605 1.366 1_455 S
C605 C604 1.366 1_655 S
C605 C606 1.414 . S
C605 C608 1.499 . S
C606 H586 0.950 . S
C606 C605 1.414 . S
C606 C607 1.374 . S
C607 H587 0.950 . S
C607 C603 1.381 1_655 S
C607 C606 1.374 . S
C608 C605 1.499 . S
C608 C609 1.373 . S
C608 C610 1.389 1_655 S
C609 H588 0.950 . S
C609 C608 1.373 . S
C609 C625 1.377 . S
C610 C608 1.389 1_455 S
C610 C611 1.524 . S
C610 C624 1.377 . S
C611 C610 1.524 . S
C611 C612 1.397 . S
C611 C616 1.363 . S
C612 H589 0.950 1_455 S
C612 C611 1.397 . S
C612 C613 1.334 . S
C613 H590 0.950 . S
C613 C612 1.334 . S
C613 C614 1.287 . S
C614 C613 1.287 . S
C614 C615 1.524 . S
C614 H633 0.913 . S
C615 H591 0.950 . S
C615 C614 1.524 . S
C615 C616 1.415 . S
C616 H592 0.950 . S
C616 C611 1.363 . S
C616 C615 1.415 . S
C617 H593 0.951 . S
C617 C618 1.366 . S
C617 C619 1.388 . S
C618 C617 1.366 . S
C618 C622 1.385 1_655 S
C619 H594 0.951 . S
C619 C617 1.388 . S
C619 C620 1.366 . S
C620 C619 1.366 . S
C620 C621 1.414 1_655 S
C620 C623 1.499 . S
C621 H595 0.950 . S
C621 C620 1.414 1_455 S
C621 C622 1.374 . S
C622 H596 0.950 . S
C622 C618 1.385 1_455 S
C622 C621 1.374 . S
C623 C620 1.499 . S
C623 C624 1.373 1_655 S
C623 C625 1.389 . S
C624 H597 0.950 . S
C624 C610 1.377 . S
C624 C623 1.373 1_455 S
C625 C609 1.377 . S
C625 C623 1.389 . S
C625 C626 1.524 . S
C626 C625 1.524 . S
C626 C627 1.397 . S
C626 C631 1.363 . S
C627 H598 0.963 . S
C627 C626 1.397 . S
C627 C628 1.334 . S
C628 H599 0.950 . S
C628 C627 1.334 . S
C628 C629 1.287 . S
C629 C628 1.287 . S
C629 C630 1.524 . S
C629 H632 0.999 . S
C630 H600 0.950 . S
C630 C629 1.524 . S
C630 C631 1.415 . S
C631 H601 0.950 . S
C631 C626 1.363 . S
C631 C630 1.415 . S
H632 C629 0.999 . S
H633 C614 0.913 . S
H634 C652 0.951 . S
H635 C654 0.951 . S
H636 C656 0.950 . S
H637 C657 0.950 . S
H638 C659 0.950 . S
H639 C662 0.950 1_545 S
H640 C663 0.950 . S
H641 C665 0.950 . S
H642 C666 0.950 . S
H643 C667 0.951 . S
H644 C669 0.951 . S
H645 C671 0.950 1_565 S
H646 C672 0.950 . S
H647 C674 0.950 1_565 S
H648 C677 0.950 . S
H649 C678 0.950 . S
H650 C680 0.950 . S
H651 C681 0.950 . S
C652 H634 0.951 . S
C652 C653 1.366 . S
C652 C654 1.388 . S
C653 C652 1.366 . S
C653 C657 1.385 . S
C654 H635 0.951 . S
C654 C652 1.388 . S
C654 C655 1.366 . S
C655 C654 1.366 . S
C655 C656 1.414 . S
C655 C658 1.499 . S
C656 H636 0.950 . S
C656 C655 1.414 . S
C656 C657 1.374 . S
C657 H637 0.950 . S
C657 C653 1.385 . S
C657 C656 1.374 . S
C658 C655 1.499 . S
C658 C659 1.373 . S
C658 C660 1.389 . S
C659 H638 0.950 . S
C659 C658 1.373 . S
C659 C675 1.377 . S
C660 C658 1.389 . S
C660 C661 1.524 1_545 S
C660 C674 1.377 . S
C661 C660 1.524 1_565 S
C661 C662 1.397 . S
C661 C666 1.363 . S
C662 H639 0.950 1_565 S
C662 C661 1.397 . S
C662 C663 1.334 . S
C663 H640 0.950 . S
C663 C662 1.334 . S
C663 C664 1.287 . S
C664 C663 1.287 . S
C664 C665 1.524 . S
C664 H683 0.913 . S
C665 H641 0.950 . S
C665 C664 1.524 . S
C665 C666 1.415 . S
C666 H642 0.950 . S
C666 C661 1.363 . S
C666 C665 1.415 . S
C667 H643 0.951 . S
C667 C668 1.366 . S
C667 C669 1.388 . S
C668 C667 1.366 . S
C668 C672 1.385 1_545 S
C669 H644 0.951 . S
C669 C667 1.388 . S
C669 C670 1.366 . S
C670 C669 1.366 . S
C670 C671 1.414 . S
C670 C673 1.499 . S
C671 H645 0.950 1_545 S
C671 C670 1.414 . S
C671 C672 1.374 1_545 S
C672 H646 0.950 . S
C672 C668 1.385 1_565 S
C672 C671 1.374 1_565 S
C673 C670 1.499 . S
C673 C674 1.373 . S
C673 C675 1.389 . S
C674 H647 0.950 1_545 S
C674 C660 1.377 . S
C674 C673 1.373 . S
C675 C659 1.377 . S
C675 C673 1.389 . S
C675 C676 1.524 . S
C676 C675 1.524 . S
C676 C677 1.397 . S
C676 C681 1.363 . S
C677 H648 0.950 . S
C677 C676 1.397 . S
C677 C678 1.334 . S
C678 H649 0.950 . S
C678 C677 1.334 . S
C678 C679 1.287 . S
C679 C678 1.287 . S
C679 C680 1.524 . S
C679 H682 0.999 . S
C680 H650 0.950 . S
C680 C679 1.524 . S
C680 C681 1.415 . S
C681 H651 0.950 . S
C681 C676 1.363 . S
C681 C680 1.415 . S
H682 C679 0.999 . S
H683 C664 0.913 . S
H684 C702 0.951 . S
H685 C704 0.951 . S
H686 C706 0.950 . S
H687 C707 0.950 . S
H688 C709 0.950 . S
H689 C712 0.950 . S
H690 C713 0.950 . S
H691 C715 0.950 . S
H692 C716 0.950 . S
H693 C717 0.951 . S
H694 C719 0.951 . S
H695 C721 0.950 . S
H696 C722 0.950 . S
H697 C724 0.950 . S
H698 C727 0.950 . S
H699 C728 0.950 . S
H700 C730 0.950 . S
H701 C731 0.950 . S
C702 H684 0.951 . S
C702 C703 1.366 . S
C702 C704 1.388 . S
C703 C702 1.366 . S
C703 C707 1.385 . S
C704 H685 0.951 . S
C704 C702 1.388 . S
C704 C705 1.366 . S
C705 C704 1.366 . S
C705 C706 1.414 . S
C705 C708 1.499 . S
C706 H686 0.950 . S
C706 C705 1.414 . S
C706 C707 1.374 . S
C707 H687 0.950 . S
C707 C703 1.385 . S
C707 C706 1.374 . S
C708 C705 1.499 . S
C708 C709 1.373 . S
C708 C710 1.389 . S
C709 H688 0.950 . S
C709 C708 1.373 . S
C709 C725 1.377 . S
C710 C708 1.389 . S
C710 C711 1.524 . S
C710 C724 1.377 . S
C711 C710 1.524 . S
C711 C712 1.397 . S
C711 C716 1.363 . S
C712 H689 0.950 . S
C712 C711 1.397 . S
C712 C713 1.334 . S
C713 H690 0.950 . S
C713 C712 1.334 . S
C713 C714 1.287 . S
C714 C713 1.287 . S
C714 C715 1.524 . S
C714 H733 0.913 . S
C715 H691 0.950 . S
C715 C714 1.524 . S
C715 C716 1.415 . S
C716 H692 0.950 . S
C716 C711 1.363 . S
C716 C715 1.415 . S
C717 H693 0.951 . S
C717 C718 1.366 . S
C717 C719 1.388 . S
C718 C717 1.366 . S
C718 C722 1.385 . S
C719 H694 0.951 . S
C719 C717 1.388 . S
C719 C720 1.366 . S
C720 C719 1.366 . S
C720 C721 1.414 . S
C720 C723 1.499 . S
C721 H695 0.950 . S
C721 C720 1.414 . S
C721 C722 1.374 . S
C722 H696 0.950 . S
C722 C718 1.385 . S
C722 C721 1.374 . S
C723 C720 1.499 . S
C723 C724 1.373 . S
C723 C725 1.389 . S
C724 H697 0.950 . S
C724 C710 1.377 . S
C724 C723 1.373 . S
C725 C709 1.377 . S
C725 C723 1.389 . S
C725 C726 1.524 . S
C726 C725 1.524 . S
C726 C727 1.397 . S
C726 C731 1.363 . S
C727 H698 0.950 . S
C727 C726 1.397 . S
C727 C728 1.334 . S
C728 H699 0.950 . S
C728 C727 1.334 . S
C728 C729 1.287 . S
C729 C728 1.287 . S
C729 C730 1.524 . S
C729 H732 0.999 . S
C730 H700 0.950 . S
C730 C729 1.524 . S
C730 C731 1.415 . S
C731 H701 0.950 . S
C731 C726 1.363 . S
C731 C730 1.415 . S
H732 C729 0.999 . S
H733 C714 0.913 . S
H734 C752 0.951 . S
H735 C754 0.951 . S
H736 C756 0.950 . S
H737 C757 0.950 . S
H738 C759 0.950 . S
H739 C762 0.950 . S
H740 C763 0.950 . S
H741 C765 0.950 . S
H742 C766 0.950 . S
H743 C767 0.951 . S
H744 C769 0.951 . S
H745 C771 0.950 . S
H746 C772 0.950 . S
H747 C774 0.950 . S
H748 C777 0.950 . S
H749 C778 0.950 . S
H750 C780 0.950 . S
H751 C781 0.950 . S
C752 H734 0.951 . S
C752 C753 1.366 . S
C752 C754 1.388 . S
C753 C752 1.366 . S
C753 C757 1.385 . S
C754 H735 0.951 . S
C754 C752 1.388 . S
C754 C755 1.366 . S
C755 C754 1.366 . S
C755 C756 1.414 . S
C755 C758 1.499 . S
C756 H736 0.950 . S
C756 C755 1.414 . S
C756 C757 1.374 . S
C757 H737 0.950 . S
C757 C753 1.385 . S
C757 C756 1.374 . S
C758 C755 1.499 . S
C758 C759 1.373 . S
C758 C760 1.389 . S
C759 H738 0.950 . S
C759 C758 1.373 . S
C759 C775 1.377 . S
C760 C758 1.389 . S
C760 C761 1.524 . S
C760 C774 1.377 . S
C761 C760 1.524 . S
C761 C762 1.397 . S
C761 C766 1.363 . S
C762 H739 0.950 . S
C762 C761 1.397 . S
C762 C763 1.334 . S
C763 H740 0.950 . S
C763 C762 1.334 . S
C763 C764 1.287 . S
C764 C763 1.287 . S
C764 C765 1.524 . S
C764 H783 0.913 1_554 S
C765 H741 0.950 . S
C765 C764 1.524 . S
C765 C766 1.415 . S
C766 H742 0.950 . S
C766 C761 1.363 . S
C766 C765 1.415 . S
C767 H743 0.951 . S
C767 C768 1.366 . S
C767 C769 1.388 . S
C768 C767 1.366 . S
C768 C772 1.385 . S
C769 H744 0.951 . S
C769 C767 1.388 . S
C769 C770 1.366 . S
C770 C769 1.366 . S
C770 C771 1.414 . S
C770 C773 1.499 . S
C771 H745 0.950 . S
C771 C770 1.414 . S
C771 C772 1.374 . S
C772 H746 0.950 . S
C772 C768 1.385 . S
C772 C771 1.374 . S
C773 C770 1.499 . S
C773 C774 1.373 . S
C773 C775 1.389 . S
C774 H747 0.950 . S
C774 C760 1.377 . S
C774 C773 1.373 . S
C775 C759 1.377 . S
C775 C773 1.389 . S
C775 C776 1.524 . S
C776 C775 1.524 . S
C776 C777 1.397 . S
C776 C781 1.363 . S
C777 H748 0.950 . S
C777 C776 1.397 . S
C777 C778 1.334 . S
C778 H749 0.950 . S
C778 C777 1.334 . S
C778 C779 1.287 . S
C779 C778 1.287 . S
C779 C780 1.524 . S
C779 H782 0.999 . S
C780 H750 0.950 . S
C780 C779 1.524 . S
C780 C781 1.415 . S
C781 H751 0.950 . S
C781 C776 1.363 . S
C781 C780 1.415 . S
H782 C779 0.999 . S
H783 C764 0.913 1_556 S
H784 C802 0.951 . S
H785 C804 0.951 . S
H786 C806 0.950 . S
H787 C807 0.950 . S
H788 C809 0.950 . S
H789 C812 0.950 . S
H790 C813 0.933 1_655 S
H791 C815 0.950 . S
H792 C816 0.950 1_556 S
H793 C817 0.951 . S
H794 C819 0.951 . S
H795 C821 0.950 . S
H796 C822 0.950 . S
H797 C824 0.950 . S
H798 C827 0.950 . S
H799 C828 0.950 . S
H800 C830 0.950 . S
H801 C831 0.950 . S
C802 H784 0.951 . S
C802 C803 1.363 1_455 S
C802 C804 1.388 . S
C803 C802 1.363 1_655 S
C803 C807 1.388 . S
C804 H785 0.951 . S
C804 C802 1.388 . S
C804 C805 1.366 . S
C805 C804 1.366 . S
C805 C806 1.414 1_455 S
C805 C808 1.499 . S
C806 H786 0.950 . S
C806 C805 1.414 1_655 S
C806 C807 1.374 . S
C807 H787 0.950 . S
C807 C803 1.388 . S
C807 C806 1.374 . S
C808 C805 1.499 . S
C808 C809 1.373 1_455 S
C808 C810 1.389 . S
C809 H788 0.950 . S
C809 C808 1.373 1_655 S
C809 C825 1.377 1_655 S
C810 C808 1.389 . S
C810 C811 1.524 . S
C810 C824 1.377 . S
C811 C810 1.524 . S
C811 C812 1.397 1_456 S
C811 C816 1.363 1_556 S
C812 H789 0.950 . S
C812 C811 1.397 1_654 S
C812 C813 1.331 1_655 S
C813 H790 0.933 1_455 S
C813 C812 1.331 1_455 S
C813 C814 1.308 . S
C814 C813 1.308 . S
C814 C815 1.524 . S
C814 H833 0.913 . S
C815 H791 0.950 . S
C815 C814 1.524 . S
C815 C816 1.415 . S
C816 H792 0.950 1_554 S
C816 C811 1.363 1_554 S
C816 C815 1.415 . S
C817 H793 0.951 . S
C817 C818 1.366 1_655 S
C817 C819 1.388 . S
C818 C817 1.366 1_455 S
C818 C822 1.385 . S
C819 H794 0.951 . S
C819 C817 1.388 . S
C819 C820 1.366 1_655 S
C820 C819 1.366 1_455 S
C820 C821 1.414 . S
C820 C823 1.499 . S
C821 H795 0.950 . S
C821 C820 1.414 . S
C821 C822 1.374 . S
C822 H796 0.950 . S
C822 C818 1.385 . S
C822 C821 1.374 . S
C823 C820 1.499 . S
C823 C824 1.373 . S
C823 C825 1.389 . S
C824 H797 0.950 . S
C824 C810 1.377 . S
C824 C823 1.373 . S
C825 C809 1.377 1_455 S
C825 C823 1.389 . S
C825 C826 1.524 1_455 S
C826 C825 1.524 1_655 S
C826 C827 1.397 1_655 S
C826 C831 1.363 . S
C827 H798 0.950 . S
C827 C826 1.397 1_455 S
C827 C828 1.334 . S
C828 H799 0.950 . S
C828 C827 1.334 . S
C828 C829 1.287 1_455 S
C829 C828 1.287 1_655 S
C829 C830 1.524 . S
C829 H832 0.999 . S
C830 H800 0.950 . S
C830 C829 1.524 . S
C830 C831 1.415 . S
C831 H801 0.950 . S
C831 C826 1.363 . S
C831 C830 1.415 . S
H832 C829 0.999 . S
H833 C814 0.913 . S
H834 C852 0.951 1_554 S
H835 C854 0.951 . S
H836 C856 0.950 . S
H837 C857 0.950 . S
H838 C859 0.950 . S
H839 C862 0.950 . S
H840 C863 0.950 . S
H841 C865 0.950 . S
H842 C866 0.950 . S
H843 C867 0.951 . S
H844 C869 0.947 1_545 S
H845 C871 0.950 . S
H846 C872 0.950 . S
H847 C874 0.950 . S
H848 C877 0.950 . S
H849 C878 0.950 . S
H850 C880 0.950 . S
H851 C881 0.950 . S
C852 H834 0.951 1_556 S
C852 C853 1.366 . S
C852 C854 1.388 . S
C853 C852 1.366 . S
C853 C857 1.385 . S
C854 H835 0.951 . S
C854 C852 1.388 . S
C854 C855 1.366 . S
C855 C854 1.366 . S
C855 C856 1.414 . S
C855 C858 1.499 . S
C856 H836 0.950 . S
C856 C855 1.414 . S
C856 C857 1.374 . S
C857 H837 0.950 . S
C857 C853 1.385 . S
C857 C856 1.374 . S
C858 C855 1.499 . S
C858 C859 1.373 . S
C858 C860 1.389 . S
C859 H838 0.950 . S
C859 C858 1.373 . S
C859 C875 1.377 . S
C860 C858 1.389 . S
C860 C861 1.524 . S
C860 C874 1.377 . S
C861 C860 1.524 . S
C861 C862 1.397 . S
C861 C866 1.363 . S
C862 H839 0.950 . S
C862 C861 1.397 . S
C862 C863 1.334 . S
C863 H840 0.950 . S
C863 C862 1.334 . S
C863 C864 1.287 . S
C864 C863 1.287 . S
C864 C865 1.524 . S
C864 H883 0.913 . S
C865 H841 0.950 . S
C865 C864 1.524 . S
C865 C866 1.415 . S
C866 H842 0.950 . S
C866 C861 1.363 . S
C866 C865 1.415 . S
C867 H843 0.951 . S
C867 C868 1.366 1_545 S
C867 C869 1.388 1_545 S
C868 C867 1.366 1_565 S
C868 C872 1.385 . S
C869 H844 0.947 1_565 S
C869 C867 1.388 1_565 S
C869 C870 1.366 . S
C870 C869 1.366 . S
C870 C871 1.414 . S
C870 C873 1.499 . S
C871 H845 0.950 . S
C871 C870 1.414 . S
C871 C872 1.374 . S
C872 H846 0.950 . S
C872 C868 1.385 . S
C872 C871 1.374 . S
C873 C870 1.499 . S
C873 C874 1.373 . S
C873 C875 1.389 . S
C874 H847 0.950 . S
C874 C860 1.377 . S
C874 C873 1.373 . S
C875 C859 1.377 . S
C875 C873 1.389 . S
C875 C876 1.524 1_565 S
C876 C875 1.524 1_545 S
C876 C877 1.397 . S
C876 C881 1.363 . S
C877 H848 0.950 . S
C877 C876 1.397 . S
C877 C878 1.334 . S
C878 H849 0.950 . S
C878 C877 1.334 . S
C878 C879 1.287 . S
C879 C878 1.287 . S
C879 C880 1.524 . S
C879 H882 0.999 . S
C880 H850 0.950 . S
C880 C879 1.524 . S
C880 C881 1.415 . S
C881 H851 0.950 . S
C881 C876 1.363 . S
C881 C880 1.415 . S
H882 C879 0.999 . S
H883 C864 0.913 . S
H884 C902 0.951 1_554 S
H885 C904 0.951 . S
H886 C906 0.950 . S
H887 C907 0.950 . S
H888 C909 0.950 . S
H889 C912 0.950 . S
H890 C913 0.950 . S
H891 C915 0.950 . S
H892 C916 0.950 . S
H893 C917 0.951 . S
H894 C919 0.951 . S
H895 C921 0.950 . S
H896 C922 0.950 . S
H897 C924 0.950 . S
H898 C927 0.950 . S
H899 C928 0.950 . S
H900 C930 0.950 . S
H901 C931 0.950 . S
C902 H884 0.951 1_556 S
C902 C903 1.366 1_556 S
C902 C904 1.388 . S
C903 C902 1.366 1_554 S
C903 C907 1.385 . S
C904 H885 0.951 . S
C904 C902 1.388 . S
C904 C905 1.366 . S
C905 C904 1.366 . S
C905 C906 1.414 . S
C905 C908 1.499 . S
C906 H886 0.950 . S
C906 C905 1.414 . S
C906 C907 1.374 1_556 S
C907 H887 0.950 . S
C907 C903 1.385 . S
C907 C906 1.374 1_554 S
C908 C905 1.499 . S
C908 C909 1.373 . S
C908 C910 1.389 . S
C909 H888 0.950 . S
C909 C908 1.373 . S
C909 C925 1.377 . S
C910 C908 1.389 . S
C910 C911 1.524 . S
C910 C924 1.377 . S
C911 C910 1.524 . S
C911 C912 1.397 . S
C911 C916 1.363 . S
C912 H889 0.950 . S
C912 C911 1.397 . S
C912 C913 1.334 . S
C913 H890 0.950 . S
C913 C912 1.334 . S
C913 C914 1.287 . S
C914 C913 1.287 . S
C914 C915 1.524 . S
C914 H933 0.913 . S
C915 H891 0.950 . S
C915 C914 1.524 . S
C915 C916 1.415 . S
C916 H892 0.950 . S
C916 C911 1.363 . S
C916 C915 1.415 . S
C917 H893 0.951 . S
C917 C918 1.366 . S
C917 C919 1.388 . S
C918 C917 1.366 . S
C918 C922 1.385 . S
C919 H894 0.951 . S
C919 C917 1.388 . S
C919 C920 1.366 . S
C920 C919 1.366 . S
C920 C921 1.414 . S
C920 C923 1.499 . S
C921 H895 0.950 . S
C921 C920 1.414 . S
C921 C922 1.374 . S
C922 H896 0.950 . S
C922 C918 1.385 . S
C922 C921 1.374 . S
C923 C920 1.499 . S
C923 C924 1.373 . S
C923 C925 1.389 . S
C924 H897 0.950 . S
C924 C910 1.377 . S
C924 C923 1.373 . S
C925 C909 1.377 . S
C925 C923 1.389 . S
C925 C926 1.524 . S
C926 C925 1.524 . S
C926 C927 1.397 . S
C926 C931 1.363 . S
C927 H898 0.950 . S
C927 C926 1.397 . S
C927 C928 1.334 . S
C928 H899 0.950 . S
C928 C927 1.334 . S
C928 C929 1.287 1_556 S
C929 C928 1.287 1_554 S
C929 C930 1.524 . S
C929 H932 0.999 . S
C930 H900 0.950 . S
C930 C929 1.524 . S
C930 C931 1.415 1_554 S
C931 H901 0.950 . S
C931 C926 1.363 . S
C931 C930 1.415 1_556 S
H932 C929 0.999 . S
H933 C914 0.913 . S
H934 C952 0.951 . S
H935 C954 0.951 . S
H936 C956 0.950 . S
H937 C957 0.950 . S
H938 C959 0.950 . S
H939 C962 0.950 1_554 S
H940 C963 0.950 . S
H941 C965 0.950 . S
H942 C966 0.950 . S
H943 C967 0.951 . S
H944 C969 0.951 . S
H945 C971 0.950 . S
H946 C972 0.950 . S
H947 C974 0.950 . S
H948 C977 0.950 . S
H949 C978 0.950 . S
H950 C980 0.950 . S
H951 C981 0.950 . S
C952 H934 0.951 . S
C952 C953 1.366 . S
C952 C954 1.388 . S
C953 C952 1.366 . S
C953 C957 1.385 1_556 S
C954 H935 0.951 . S
C954 C952 1.388 . S
C954 C955 1.366 . S
C955 C954 1.366 . S
C955 C956 1.414 . S
C955 C958 1.499 . S
C956 H936 0.950 . S
C956 C955 1.414 . S
C956 C957 1.374 1_556 S
C957 H937 0.950 . S
C957 C953 1.385 1_554 S
C957 C956 1.374 1_554 S
C958 C955 1.499 . S
C958 C959 1.373 . S
C958 C960 1.389 . S
C959 H938 0.950 . S
C959 C958 1.373 . S
C959 C975 1.377 . S
C960 C958 1.389 . S
C960 C961 1.524 . S
C960 C974 1.377 . S
C961 C960 1.524 . S
C961 C962 1.397 . S
C961 C966 1.363 . S
C962 H939 0.950 1_556 S
C962 C961 1.397 . S
C962 C963 1.334 1_556 S
C963 H940 0.950 . S
C963 C962 1.334 1_554 S
C963 C964 1.287 1_554 S
C964 C963 1.287 1_556 S
C964 C965 1.524 . S
C964 H983 0.913 . S
C965 H941 0.950 . S
C965 C964 1.524 . S
C965 C966 1.415 . S
C966 H942 0.950 . S
C966 C961 1.363 . S
C966 C965 1.415 . S
C967 H943 0.951 . S
C967 C968 1.366 . S
C967 C969 1.388 . S
C968 C967 1.366 . S
C968 C972 1.385 . S
C969 H944 0.951 . S
C969 C967 1.388 . S
C969 C970 1.366 . S
C970 C969 1.366 . S
C970 C971 1.414 . S
C970 C973 1.499 . S
C971 H945 0.950 . S
C971 C970 1.414 . S
C971 C972 1.374 . S
C972 H946 0.950 . S
C972 C968 1.385 . S
C972 C971 1.374 . S
C973 C970 1.499 . S
C973 C974 1.373 . S
C973 C975 1.389 . S
C974 H947 0.950 . S
C974 C960 1.377 . S
C974 C973 1.373 . S
C975 C959 1.377 . S
C975 C973 1.389 . S
C975 C976 1.524 . S
C976 C975 1.524 . S
C976 C977 1.397 . S
C976 C981 1.363 . S
C977 H948 0.950 . S
C977 C976 1.397 . S
C977 C978 1.334 . S
C978 H949 0.950 . S
C978 C977 1.334 . S
C978 C979 1.287 . S
C979 C978 1.287 . S
C979 C980 1.524 . S
C979 H982 0.999 . S
C980 H950 0.950 . S
C980 C979 1.524 . S
C980 C981 1.415 . S
C981 H951 0.950 . S
C981 C976 1.363 . S
C981 C980 1.415 . S
H982 C979 0.999 . S
H983 C964 0.913 . S
H984 C1002 0.951 . S
H985 C1004 0.951 . S
H986 C1006 0.950 . S
H987 C1007 0.950 . S
H988 C1009 0.950 . S
H989 C1012 0.950 . S
H990 C1013 0.950 . S
H991 C1015 0.950 . S
H992 C1016 0.950 . S
H993 C1017 0.951 . S
H994 C1019 0.951 . S
H995 C1021 0.950 . S
H996 C1022 0.950 . S
H997 C1024 0.950 . S
H998 C1027 0.950 1_455 S
H999 C1028 0.950 . S
H1000 C1030 0.950 . S
H1001 C1031 0.950 . S
C1002 H984 0.951 . S
C1002 C1003 1.389 . S
C1002 C1004 1.388 . S
C1003 C1002 1.389 . S
C1003 C1007 1.363 1_455 S
C1004 H985 0.951 . S
C1004 C1002 1.388 . S
C1004 C1005 1.366 . S
C1005 C1004 1.366 . S
C1005 C1006 1.414 1_455 S
C1005 C1008 1.499 . S
C1006 H986 0.950 . S
C1006 C1005 1.414 1_655 S
C1006 C1007 1.374 . S
C1007 H987 0.950 . S
C1007 C1003 1.363 1_655 S
C1007 C1006 1.374 . S
C1008 C1005 1.499 . S
C1008 C1009 1.373 1_455 S
C1008 C1010 1.389 . S
C1009 H988 0.950 . S
C1009 C1008 1.373 1_655 S
C1009 C1025 1.377 . S
C1010 C1008 1.389 . S
C1010 C1011 1.524 . S
C1010 C1024 1.377 . S
C1011 C1010 1.524 . S
C1011 C1012 1.397 . S
C1011 C1016 1.363 . S
C1012 H989 0.950 . S
C1012 C1011 1.397 . S
C1012 C1013 1.334 . S
C1013 H990 0.950 . S
C1013 C1012 1.334 . S
C1013 C1014 1.287 . S
C1014 C1013 1.287 . S
C1014 C1015 1.524 . S
C1014 H1033 0.913 . S
C1015 H991 0.950 . S
C1015 C1014 1.524 . S
C1015 C1016 1.415 . S
C1016 H992 0.950 . S
C1016 C1011 1.363 . S
C1016 C1015 1.415 . S
C1017 H993 0.951 . S
C1017 C1018 1.366 1_655 S
C1017 C1019 1.388 . S
C1018 C1017 1.366 1_455 S
C1018 C1022 1.385 . S
C1019 H994 0.951 . S
C1019 C1017 1.388 . S
C1019 C1020 1.366 1_655 S
C1020 C1019 1.366 1_455 S
C1020 C1021 1.414 . S
C1020 C1023 1.499 . S
C1021 H995 0.950 . S
C1021 C1020 1.414 . S
C1021 C1022 1.374 . S
C1022 H996 0.950 . S
C1022 C1018 1.385 . S
C1022 C1021 1.374 . S
C1023 C1020 1.499 . S
C1023 C1024 1.373 . S
C1023 C1025 1.389 1_455 S
C1024 H997 0.950 . S
C1024 C1010 1.377 . S
C1024 C1023 1.373 . S
C1025 C1009 1.377 . S
C1025 C1023 1.389 1_655 S
C1025 C1026 1.524 . S
C1026 C1025 1.524 . S
C1026 C1027 1.397 . S
C1026 C1031 1.363 . S
C1027 H998 0.950 1_655 S
C1027 C1026 1.397 . S
C1027 C1028 1.334 . S
C1028 H999 0.950 . S
C1028 C1027 1.334 . S
C1028 C1029 1.287 . S
C1029 C1028 1.287 . S
C1029 C1030 1.524 . S
C1029 H1032 0.999 . S
C1030 H1000 0.950 . S
C1030 C1029 1.524 . S
C1030 C1031 1.415 . S
C1031 H1001 0.950 . S
C1031 C1026 1.363 . S
C1031 C1030 1.415 . S
H1032 C1029 0.999 . S
H1033 C1014 0.913 . S
H1034 C1052 0.951 . S
H1035 C1054 0.951 . S
H1036 C1056 0.950 . S
H1037 C1057 0.950 . S
H1038 C1059 0.950 . S
H1039 C1062 0.950 . S
H1040 C1063 0.950 . S
H1041 C1065 0.950 . S
H1042 C1066 0.950 . S
H1043 C1067 0.951 . S
H1044 C1069 0.951 . S
H1045 C1071 0.950 . S
H1046 C1072 0.950 . S
H1047 C1074 0.950 . S
H1048 C1077 0.950 . S
H1049 C1078 0.950 . S
H1050 C1080 0.961 . S
H1051 C1081 0.950 . S
C1052 H1034 0.951 . S
C1052 C1053 1.366 . S
C1052 C1054 1.388 . S
C1053 C1052 1.366 . S
C1053 C1057 1.385 1_554 S
C1054 H1035 0.951 . S
C1054 C1052 1.388 . S
C1054 C1055 1.366 1_554 S
C1055 C1054 1.366 1_556 S
C1055 C1056 1.414 . S
C1055 C1058 1.499 . S
C1056 H1036 0.950 . S
C1056 C1055 1.414 . S
C1056 C1057 1.374 . S
C1057 H1037 0.950 . S
C1057 C1053 1.385 1_556 S
C1057 C1056 1.374 . S
C1058 C1055 1.499 . S
C1058 C1059 1.373 . S
C1058 C1060 1.389 . S
C1059 H1038 0.950 . S
C1059 C1058 1.373 . S
C1059 C1075 1.377 . S
C1060 C1058 1.389 . S
C1060 C1061 1.524 . S
C1060 C1074 1.377 . S
C1061 C1060 1.524 . S
C1061 C1062 1.397 . S
C1061 C1066 1.363 1_556 S
C1062 H1039 0.950 . S
C1062 C1061 1.397 . S
C1062 C1063 1.334 1_556 S
C1063 H1040 0.950 . S
C1063 C1062 1.334 1_554 S
C1063 C1064 1.287 . S
C1064 C1063 1.287 . S
C1064 C1065 1.524 . S
C1064 H1083 0.913 . S
C1065 H1041 0.950 . S
C1065 C1064 1.524 . S
C1065 C1066 1.415 . S
C1066 H1042 0.950 . S
C1066 C1061 1.363 1_554 S
C1066 C1065 1.415 . S
C1067 H1043 0.951 . S
C1067 C1068 1.366 . S
C1067 C1069 1.388 . S
C1068 C1067 1.366 . S
C1068 C1072 1.385 . S
C1069 H1044 0.951 . S
C1069 C1067 1.388 . S
C1069 C1070 1.366 . S
C1070 C1069 1.366 . S
C1070 C1071 1.414 . S
C1070 C1073 1.499 . S
C1071 H1045 0.950 . S
C1071 C1070 1.414 . S
C1071 C1072 1.374 . S
C1072 H1046 0.950 . S
C1072 C1068 1.385 . S
C1072 C1071 1.374 . S
C1073 C1070 1.499 . S
C1073 C1074 1.373 . S
C1073 C1075 1.389 . S
C1074 H1047 0.950 . S
C1074 C1060 1.377 . S
C1074 C1073 1.373 . S
C1075 C1059 1.377 . S
C1075 C1073 1.389 . S
C1075 C1076 1.524 . S
C1076 C1075 1.524 . S
C1076 C1077 1.397 1_545 S
C1076 C1081 1.363 . S
C1077 H1048 0.950 . S
C1077 C1076 1.397 1_565 S
C1077 C1078 1.334 . S
C1078 H1049 0.950 . S
C1078 C1077 1.334 . S
C1078 C1079 1.287 . S
C1079 C1078 1.287 . S
C1079 C1080 1.494 1_565 S
C1079 H1082 0.999 . S
C1080 H1050 0.961 . S
C1080 C1079 1.494 1_545 S
C1080 C1081 1.433 . S
C1081 H1051 0.950 . S
C1081 C1076 1.363 . S
C1081 C1080 1.433 . S
H1082 C1079 0.999 . S
H1083 C1064 0.913 . S
H1084 C1102 0.951 . S
H1085 C1104 0.951 . S
H1086 C1106 0.950 . S
H1087 C1107 0.950 . S
H1088 C1109 0.950 . S
H1089 C1112 0.950 . S
H1090 C1113 0.950 . S
H1091 C1115 0.950 . S
H1092 C1116 0.950 . S
H1093 C1117 0.951 . S
H1094 C1119 0.951 . S
H1095 C1121 0.950 . S
H1096 C1122 0.950 . S
H1097 C1124 0.950 . S
H1098 C1127 0.950 . S
H1099 C1128 0.950 . S
H1100 C1130 0.950 . S
H1101 C1131 0.950 . S
C1102 H1084 0.951 . S
C1102 C1103 1.366 . S
C1102 C1104 1.388 . S
C1103 C1102 1.366 . S
C1103 C1107 1.385 . S
C1104 H1085 0.951 . S
C1104 C1102 1.388 . S
C1104 C1105 1.366 . S
C1105 C1104 1.366 . S
C1105 C1106 1.414 . S
C1105 C1108 1.499 . S
C1106 H1086 0.950 . S
C1106 C1105 1.414 . S
C1106 C1107 1.374 . S
C1107 H1087 0.950 . S
C1107 C1103 1.385 . S
C1107 C1106 1.374 . S
C1108 C1105 1.499 . S
C1108 C1109 1.373 . S
C1108 C1110 1.389 . S
C1109 H1088 0.950 . S
C1109 C1108 1.373 . S
C1109 C1125 1.377 . S
C1110 C1108 1.389 . S
C1110 C1111 1.524 . S
C1110 C1124 1.377 . S
C1111 C1110 1.524 . S
C1111 C1112 1.397 . S
C1111 C1116 1.363 . S
C1112 H1089 0.950 . S
C1112 C1111 1.397 . S
C1112 C1113 1.334 1_556 S
C1113 H1090 0.950 . S
C1113 C1112 1.334 1_554 S
C1113 C1114 1.287 . S
C1114 C1113 1.287 . S
C1114 C1115 1.524 . S
C1114 H1133 0.913 . S
C1115 H1091 0.950 . S
C1115 C1114 1.524 . S
C1115 C1116 1.415 1_554 S
C1116 H1092 0.950 . S
C1116 C1111 1.363 . S
C1116 C1115 1.415 1_556 S
C1117 H1093 0.951 . S
C1117 C1118 1.366 . S
C1117 C1119 1.388 . S
C1118 C1117 1.366 . S
C1118 C1122 1.385 . S
C1119 H1094 0.951 . S
C1119 C1117 1.388 . S
C1119 C1120 1.366 . S
C1120 C1119 1.366 . S
C1120 C1121 1.414 . S
C1120 C1123 1.499 . S
C1121 H1095 0.950 . S
C1121 C1120 1.414 . S
C1121 C1122 1.374 . S
C1122 H1096 0.950 . S
C1122 C1118 1.385 . S
C1122 C1121 1.374 . S
C1123 C1120 1.499 . S
C1123 C1124 1.373 . S
C1123 C1125 1.389 . S
C1124 H1097 0.950 . S
C1124 C1110 1.377 . S
C1124 C1123 1.373 . S
C1125 C1109 1.377 . S
C1125 C1123 1.389 . S
C1125 C1126 1.524 . S
C1126 C1125 1.524 . S
C1126 C1127 1.397 . S
C1126 C1131 1.363 . S
C1127 H1098 0.950 . S
C1127 C1126 1.397 . S
C1127 C1128 1.334 . S
C1128 H1099 0.950 . S
C1128 C1127 1.334 . S
C1128 C1129 1.287 . S
C1129 C1128 1.287 . S
C1129 C1130 1.524 . S
C1129 H1132 0.999 . S
C1130 H1100 0.950 . S
C1130 C1129 1.524 . S
C1130 C1131 1.415 . S
C1131 H1101 0.950 . S
C1131 C1126 1.363 . S
C1131 C1130 1.415 . S
H1132 C1129 0.999 . S
H1133 C1114 0.913 . S
H1134 C1152 0.951 . S
H1135 C1154 0.951 . S
H1136 C1156 0.950 . S
H1137 C1157 0.950 . S
H1138 C1159 0.950 . S
H1139 C1162 0.950 1_556 S
H1140 C1163 0.950 . S
H1141 C1165 0.950 . S
H1142 C1166 0.950 . S
H1143 C1167 0.951 . S
H1144 C1169 0.951 . S
H1145 C1171 0.950 . S
H1146 C1172 0.950 . S
H1147 C1174 0.950 . S
H1148 C1177 0.950 . S
H1149 C1178 0.950 . S
H1150 C1180 0.950 . S
H1151 C1181 0.950 . S
C1152 H1134 0.951 . S
C1152 C1153 1.366 . S
C1152 C1154 1.388 . S
C1153 C1152 1.366 . S
C1153 C1157 1.385 . S
C1154 H1135 0.951 . S
C1154 C1152 1.388 . S
C1154 C1155 1.366 . S
C1155 C1154 1.366 . S
C1155 C1156 1.414 . S
C1155 C1158 1.499 . S
C1156 H1136 0.950 . S
C1156 C1155 1.414 . S
C1156 C1157 1.374 . S
C1157 H1137 0.950 . S
C1157 C1153 1.385 . S
C1157 C1156 1.374 . S
C1158 C1155 1.499 . S
C1158 C1159 1.373 . S
C1158 C1160 1.389 . S
C1159 H1138 0.950 . S
C1159 C1158 1.373 . S
C1159 C1175 1.377 . S
C1160 C1158 1.389 . S
C1160 C1161 1.524 . S
C1160 C1174 1.377 . S
C1161 C1160 1.524 . S
C1161 C1162 1.397 1_556 S
C1161 C1166 1.363 . S
C1162 H1139 0.950 1_554 S
C1162 C1161 1.397 1_554 S
C1162 C1163 1.334 . S
C1163 H1140 0.950 . S
C1163 C1162 1.334 . S
C1163 C1164 1.287 . S
C1164 C1163 1.287 . S
C1164 C1165 1.524 . S
C1164 H1183 0.913 . S
C1165 H1141 0.950 . S
C1165 C1164 1.524 . S
C1165 C1166 1.415 1_554 S
C1166 H1142 0.950 . S
C1166 C1161 1.363 . S
C1166 C1165 1.415 1_556 S
C1167 H1143 0.951 . S
C1167 C1168 1.366 . S
C1167 C1169 1.388 . S
C1168 C1167 1.366 . S
C1168 C1172 1.385 . S
C1169 H1144 0.951 . S
C1169 C1167 1.388 . S
C1169 C1170 1.366 . S
C1170 C1169 1.366 . S
C1170 C1171 1.414 . S
C1170 C1173 1.499 . S
C1171 H1145 0.950 . S
C1171 C1170 1.414 . S
C1171 C1172 1.374 . S
C1172 H1146 0.950 . S
C1172 C1168 1.385 . S
C1172 C1171 1.374 . S
C1173 C1170 1.499 . S
C1173 C1174 1.373 . S
C1173 C1175 1.389 . S
C1174 H1147 0.950 . S
C1174 C1160 1.377 . S
C1174 C1173 1.373 . S
C1175 C1159 1.377 . S
C1175 C1173 1.389 . S
C1175 C1176 1.524 . S
C1176 C1175 1.524 . S
C1176 C1177 1.397 . S
C1176 C1181 1.363 . S
C1177 H1148 0.950 . S
C1177 C1176 1.397 . S
C1177 C1178 1.334 . S
C1178 H1149 0.950 . S
C1178 C1177 1.334 . S
C1178 C1179 1.287 . S
C1179 C1178 1.287 . S
C1179 C1180 1.524 . S
C1179 H1182 0.999 . S
C1180 H1150 0.950 . S
C1180 C1179 1.524 . S
C1180 C1181 1.415 . S
C1181 H1151 0.950 . S
C1181 C1176 1.363 . S
C1181 C1180 1.415 . S
H1182 C1179 0.999 . S
H1183 C1164 0.913 . S
H1184 C1202 0.951 . S
H1185 C1204 0.951 . S
H1186 C1206 0.950 . S
H1187 C1207 0.950 . S
H1188 C1209 0.950 . S
H1189 C1212 0.950 . S
H1190 C1213 0.950 . S
H1191 C1215 0.950 . S
H1192 C1216 0.950 1_655 S
H1193 C1217 0.951 . S
H1194 C1219 0.951 . S
H1195 C1221 0.950 . S
H1196 C1222 0.950 . S
H1197 C1224 0.950 . S
H1198 C1227 0.950 . S
H1199 C1228 0.950 . S
H1200 C1230 0.950 . S
H1201 C1231 0.950 . S
C1202 H1184 0.951 . S
C1202 C1203 1.380 . S
C1202 C1204 1.388 . S
C1203 C1202 1.380 . S
C1203 C1207 1.373 1_655 S
C1204 H1185 0.951 . S
C1204 C1202 1.388 . S
C1204 C1205 1.388 . S
C1205 C1204 1.388 . S
C1205 C1206 1.390 1_655 S
C1205 C1208 1.504 . S
C1206 H1186 0.950 . S
C1206 C1205 1.390 1_455 S
C1206 C1207 1.374 . S
C1207 H1187 0.950 . S
C1207 C1203 1.373 1_455 S
C1207 C1206 1.374 . S
C1208 C1205 1.504 . S
C1208 C1209 1.373 . S
C1208 C1210 1.389 1_655 S
C1209 H1188 0.950 . S
C1209 C1208 1.373 . S
C1209 C1225 1.377 . S
C1210 C1208 1.389 1_455 S
C1210 C1211 1.524 . S
C1210 C1224 1.377 . S
C1211 C1210 1.524 . S
C1211 C1212 1.397 . S
C1211 C1216 1.363 . S
C1212 H1189 0.950 . S
C1212 C1211 1.397 . S
C1212 C1213 1.334 . S
C1213 H1190 0.950 . S
C1213 C1212 1.334 . S
C1213 C1214 1.287 . S
C1214 C1213 1.287 . S
C1214 C1215 1.524 . S
C1214 H1233 0.913 . S
C1215 H1191 0.950 . S
C1215 C1214 1.524 . S
C1215 C1216 1.415 . S
C1216 H1192 0.950 1_455 S
C1216 C1211 1.363 . S
C1216 C1215 1.415 . S
C1217 H1193 0.951 . S
C1217 C1218 1.366 1_455 S
C1217 C1219 1.388 . S
C1218 C1217 1.366 1_655 S
C1218 C1222 1.385 . S
C1219 H1194 0.951 . S
C1219 C1217 1.388 . S
C1219 C1220 1.366 1_455 S
C1220 C1219 1.366 1_655 S
C1220 C1221 1.414 . S
C1220 C1223 1.499 . S
C1221 H1195 0.950 . S
C1221 C1220 1.414 . S
C1221 C1222 1.374 . S
C1222 H1196 0.950 . S
C1222 C1218 1.385 . S
C1222 C1221 1.374 . S
C1223 C1220 1.499 . S
C1223 C1224 1.373 1_655 S
C1223 C1225 1.389 . S
C1224 H1197 0.950 . S
C1224 C1210 1.377 . S
C1224 C1223 1.373 1_455 S
C1225 C1209 1.377 . S
C1225 C1223 1.389 . S
C1225 C1226 1.524 . S
C1226 C1225 1.524 . S
C1226 C1227 1.397 . S
C1226 C1231 1.363 . S
C1227 H1198 0.950 . S
C1227 C1226 1.397 . S
C1227 C1228 1.334 . S
C1228 H1199 0.950 . S
C1228 C1227 1.334 . S
C1228 C1229 1.287 . S
C1229 C1228 1.287 . S
C1229 C1230 1.524 . S
C1229 H1232 0.999 . S
C1230 H1200 0.950 . S
C1230 C1229 1.524 . S
C1230 C1231 1.415 . S
C1231 H1201 0.950 . S
C1231 C1226 1.363 . S
C1231 C1230 1.415 . S
H1232 C1229 0.999 . S
H1233 C1214 0.913 . S
H1234 C1252 0.951 . S
H1235 C1254 0.951 . S
H1236 C1256 0.950 . S
H1237 C1257 0.950 . S
H1238 C1259 0.950 . S
H1239 C1262 0.950 1_545 S
H1240 C1263 0.950 . S
H1241 C1265 0.950 . S
H1242 C1266 0.950 . S
H1243 C1267 0.951 1_545 S
H1244 C1269 0.951 . S
H1245 C1271 0.950 . S
H1246 C1272 0.950 . S
H1247 C1274 0.950 . S
H1248 C1277 0.950 . S
H1249 C1278 0.950 . S
H1250 C1280 0.950 . S
H1251 C1281 0.950 . S
C1252 H1234 0.951 . S
C1252 C1253 1.366 . S
C1252 C1254 1.388 . S
C1253 C1252 1.366 . S
C1253 C1257 1.385 . S
C1254 H1235 0.951 . S
C1254 C1252 1.388 . S
C1254 C1255 1.366 . S
C1255 C1254 1.366 . S
C1255 C1256 1.414 . S
C1255 C1258 1.499 . S
C1256 H1236 0.950 . S
C1256 C1255 1.414 . S
C1256 C1257 1.374 . S
C1257 H1237 0.950 . S
C1257 C1253 1.385 . S
C1257 C1256 1.374 . S
C1258 C1255 1.499 . S
C1258 C1259 1.373 . S
C1258 C1260 1.389 . S
C1259 H1238 0.950 . S
C1259 C1258 1.373 . S
C1259 C1275 1.377 . S
C1260 C1258 1.389 . S
C1260 C1261 1.524 . S
C1260 C1274 1.377 . S
C1261 C1260 1.524 . S
C1261 C1262 1.397 . S
C1261 C1266 1.363 . S
C1262 H1239 0.950 1_565 S
C1262 C1261 1.397 . S
C1262 C1263 1.334 1_565 S
C1263 H1240 0.950 . S
C1263 C1262 1.334 1_545 S
C1263 C1264 1.287 . S
C1264 C1263 1.287 . S
C1264 C1265 1.524 1_545 S
C1264 H1283 0.913 1_554 S
C1265 H1241 0.950 . S
C1265 C1264 1.524 1_565 S
C1265 C1266 1.415 . S
C1266 H1242 0.950 . S
C1266 C1261 1.363 . S
C1266 C1265 1.415 . S
C1267 H1243 0.951 1_565 S
C1267 C1268 1.366 . S
C1267 C1269 1.388 . S
C1268 C1267 1.366 . S
C1268 C1272 1.385 . S
C1269 H1244 0.951 . S
C1269 C1267 1.388 . S
C1269 C1270 1.366 . S
C1270 C1269 1.366 . S
C1270 C1271 1.414 . S
C1270 C1273 1.499 . S
C1271 H1245 0.950 . S
C1271 C1270 1.414 . S
C1271 C1272 1.374 . S
C1272 H1246 0.950 . S
C1272 C1268 1.385 . S
C1272 C1271 1.374 . S
C1273 C1270 1.499 . S
C1273 C1274 1.373 . S
C1273 C1275 1.389 . S
C1274 H1247 0.950 . S
C1274 C1260 1.377 . S
C1274 C1273 1.373 . S
C1275 C1259 1.377 . S
C1275 C1273 1.389 . S
C1275 C1276 1.524 . S
C1276 C1275 1.524 . S
C1276 C1277 1.397 . S
C1276 C1281 1.363 . S
C1277 H1248 0.950 . S
C1277 C1276 1.397 . S
C1277 C1278 1.334 . S
C1278 H1249 0.950 . S
C1278 C1277 1.334 . S
C1278 C1279 1.287 . S
C1279 C1278 1.287 . S
C1279 C1280 1.524 . S
C1279 H1282 0.999 . S
C1280 H1250 0.950 . S
C1280 C1279 1.524 . S
C1280 C1281 1.415 . S
C1281 H1251 0.950 . S
C1281 C1276 1.363 . S
C1281 C1280 1.415 . S
H1282 C1279 0.999 . S
H1283 C1264 0.913 1_556 S
H1284 C1302 0.951 . S
H1285 C1304 0.951 . S
H1286 C1306 0.950 . S
H1287 C1307 0.950 . S
H1288 C1309 0.950 . S
H1289 C1312 0.950 . S
H1290 C1313 0.950 . S
H1291 C1315 0.950 . S
H1292 C1316 0.950 . S
H1293 C1317 0.951 . S
H1294 C1319 0.951 . S
H1295 C1321 0.950 . S
H1296 C1322 0.950 . S
H1297 C1324 0.950 . S
H1298 C1327 0.950 . S
H1299 C1328 0.950 . S
H1300 C1330 0.950 . S
H1301 C1331 0.950 . S
C1302 H1284 0.951 . S
C1302 C1303 1.366 . S
C1302 C1304 1.388 . S
C1303 C1302 1.366 . S
C1303 C1307 1.385 . S
C1304 H1285 0.951 . S
C1304 C1302 1.388 . S
C1304 C1305 1.366 . S
C1305 C1304 1.366 . S
C1305 C1306 1.414 . S
C1305 C1308 1.499 . S
C1306 H1286 0.950 . S
C1306 C1305 1.414 . S
C1306 C1307 1.374 . S
C1307 H1287 0.950 . S
C1307 C1303 1.385 . S
C1307 C1306 1.374 . S
C1308 C1305 1.499 . S
C1308 C1309 1.373 . S
C1308 C1310 1.389 . S
C1309 H1288 0.950 . S
C1309 C1308 1.373 . S
C1309 C1325 1.377 . S
C1310 C1308 1.389 . S
C1310 C1311 1.524 . S
C1310 C1324 1.377 . S
C1311 C1310 1.524 . S
C1311 C1312 1.397 . S
C1311 C1316 1.363 . S
C1312 H1289 0.950 . S
C1312 C1311 1.397 . S
C1312 C1313 1.334 . S
C1313 H1290 0.950 . S
C1313 C1312 1.334 . S
C1313 C1314 1.287 . S
C1314 C1313 1.287 . S
C1314 C1315 1.524 . S
C1314 H1333 0.913 . S
C1315 H1291 0.950 . S
C1315 C1314 1.524 . S
C1315 C1316 1.415 . S
C1316 H1292 0.950 . S
C1316 C1311 1.363 . S
C1316 C1315 1.415 . S
C1317 H1293 0.951 . S
C1317 C1318 1.366 . S
C1317 C1319 1.388 . S
C1318 C1317 1.366 . S
C1318 C1322 1.385 . S
C1319 H1294 0.951 . S
C1319 C1317 1.388 . S
C1319 C1320 1.366 . S
C1320 C1319 1.366 . S
C1320 C1321 1.414 . S
C1320 C1323 1.499 . S
C1321 H1295 0.950 . S
C1321 C1320 1.414 . S
C1321 C1322 1.374 . S
C1322 H1296 0.950 . S
C1322 C1318 1.385 . S
C1322 C1321 1.374 . S
C1323 C1320 1.499 . S
C1323 C1324 1.373 . S
C1323 C1325 1.389 . S
C1324 H1297 0.950 . S
C1324 C1310 1.377 . S
C1324 C1323 1.373 . S
C1325 C1309 1.377 . S
C1325 C1323 1.389 . S
C1325 C1326 1.524 . S
C1326 C1325 1.524 . S
C1326 C1327 1.397 . S
C1326 C1331 1.363 . S
C1327 H1298 0.950 . S
C1327 C1326 1.397 . S
C1327 C1328 1.334 . S
C1328 H1299 0.950 . S
C1328 C1327 1.334 . S
C1328 C1329 1.287 . S
C1329 C1328 1.287 . S
C1329 C1330 1.524 . S
C1329 H1332 0.999 . S
C1330 H1300 0.950 . S
C1330 C1329 1.524 . S
C1330 C1331 1.415 . S
C1331 H1301 0.950 . S
C1331 C1326 1.363 . S
C1331 C1330 1.415 . S
H1332 C1329 0.999 . S
H1333 C1314 0.913 . S
H1334 C1352 0.951 . S
H1335 C1354 0.951 . S
H1336 C1356 0.950 . S
H1337 C1357 0.950 . S
H1338 C1359 0.950 . S
H1339 C1362 0.950 . S
H1340 C1363 0.950 . S
H1341 C1365 0.950 . S
H1342 C1366 0.950 . S
H1343 C1367 0.951 . S
H1344 C1369 0.951 . S
H1345 C1371 0.950 . S
H1346 C1372 0.950 . S
H1347 C1374 0.950 . S
H1348 C1377 0.950 . S
H1349 C1378 0.950 . S
H1350 C1380 0.950 . S
H1351 C1381 0.950 . S
C1352 H1334 0.951 . S
C1352 C1353 1.366 . S
C1352 C1354 1.388 . S
C1353 C1352 1.366 . S
C1353 C1357 1.385 . S
C1354 H1335 0.951 . S
C1354 C1352 1.388 . S
C1354 C1355 1.366 . S
C1355 C1354 1.366 . S
C1355 C1356 1.414 . S
C1355 C1358 1.499 . S
C1356 H1336 0.950 . S
C1356 C1355 1.414 . S
C1356 C1357 1.374 . S
C1357 H1337 0.950 . S
C1357 C1353 1.385 . S
C1357 C1356 1.374 . S
C1358 C1355 1.499 . S
C1358 C1359 1.373 . S
C1358 C1360 1.389 . S
C1359 H1338 0.950 . S
C1359 C1358 1.373 . S
C1359 C1375 1.377 . S
C1360 C1358 1.389 . S
C1360 C1361 1.524 . S
C1360 C1374 1.377 . S
C1361 C1360 1.524 . S
C1361 C1362 1.397 . S
C1361 C1366 1.363 . S
C1362 H1339 0.950 . S
C1362 C1361 1.397 . S
C1362 C1363 1.334 . S
C1363 H1340 0.950 . S
C1363 C1362 1.334 . S
C1363 C1364 1.287 . S
C1364 C1363 1.287 . S
C1364 C1365 1.524 . S
C1364 H1383 0.913 . S
C1365 H1341 0.950 . S
C1365 C1364 1.524 . S
C1365 C1366 1.415 . S
C1366 H1342 0.950 . S
C1366 C1361 1.363 . S
C1366 C1365 1.415 . S
C1367 H1343 0.951 . S
C1367 C1368 1.366 . S
C1367 C1369 1.388 . S
C1368 C1367 1.366 . S
C1368 C1372 1.385 . S
C1369 H1344 0.951 . S
C1369 C1367 1.388 . S
C1369 C1370 1.366 . S
C1370 C1369 1.366 . S
C1370 C1371 1.414 . S
C1370 C1373 1.499 . S
C1371 H1345 0.950 . S
C1371 C1370 1.414 . S
C1371 C1372 1.374 . S
C1372 H1346 0.950 . S
C1372 C1368 1.385 . S
C1372 C1371 1.374 . S
C1373 C1370 1.499 . S
C1373 C1374 1.373 . S
C1373 C1375 1.389 . S
C1374 H1347 0.950 . S
C1374 C1360 1.377 . S
C1374 C1373 1.373 . S
C1375 C1359 1.377 . S
C1375 C1373 1.389 . S
C1375 C1376 1.524 . S
C1376 C1375 1.524 . S
C1376 C1377 1.397 . S
C1376 C1381 1.363 . S
C1377 H1348 0.950 . S
C1377 C1376 1.397 . S
C1377 C1378 1.334 . S
C1378 H1349 0.950 . S
C1378 C1377 1.334 . S
C1378 C1379 1.287 . S
C1379 C1378 1.287 . S
C1379 C1380 1.524 . S
C1379 H1382 0.999 . S
C1380 H1350 0.950 . S
C1380 C1379 1.524 . S
C1380 C1381 1.415 . S
C1381 H1351 0.950 . S
C1381 C1376 1.363 . S
C1381 C1380 1.415 . S
H1382 C1379 0.999 . S
H1383 C1364 0.913 . S
C203 C82 1.615 . S
C218 C112 1.703 . S
C268 C142 1.819 . S
C253 C95 1.688 . S
C318 C152 1.435 . S
C303 C56 1.312 . S
C368 C172 1.282 . S
C353 C69 1.187 . S
C418 C113 1.708 . S
C403 C30 1.571 . S
C453 C43 1.646 . S
C468 C143 1.819 . S
C503 C4 1.303 1_556 S
C518 C153 1.435 . S
C553 C17 1.187 1_655 S
C568 C173 1.285 . S
C618 C105 0.683 . S
C603 C74 0.690 . S
C668 C126 0.288 . S
C653 C87 0.425 . S
C718 C145 0.878 . S
C703 C100 0.871 . S
C753 C61 0.567 . S
C768 C165 0.546 . S
C803 C22 0.689 1_655 S
C818 C106 0.682 . S
C868 C125 0.296 . S
C853 C35 0.431 . S
C918 C146 0.878 . S
C903 C48 0.870 . S
C953 C9 0.567 1_556 S
C968 C166 0.557 . S
C1003 C73 1.484 1_556 S
C1018 C123 1.545 . S
C1053 C86 1.314 . S
C1068 C133 1.377 . S
C1118 C163 1.777 . S
C1103 C99 1.693 . S
C1168 C183 1.785 . S
C1153 C60 1.708 1_556 S
C1203 C21 1.484 1_655 S
C1218 C122 1.546 . S
C1268 C132 1.378 . S
C1253 C34 1.310 . S
C1318 C162 1.777 . S
C1303 C47 1.688 . S
C1353 C8 1.711 . S
C1368 C182 1.791 . S
