# Generated by pormake.
# Topology tbo, (3,4)-cn, num edge types: 1
# Building blocks:
#     Node 0, Type 0, BuildingBlock: WUSLED_clean_sbu_0, # of connection points: 3
#     Node 1, Type 0, BuildingBlock: WUSLED_clean_sbu_0, # of connection points: 3
#     Node 2, Type 0, BuildingBlock: WUSLED_clean_sbu_0, # of connection points: 3
#     Node 3, Type 0, BuildingBlock: WUSLED_clean_sbu_0, # of connection points: 3
#     Node 4, Type 0, BuildingBlock: WUSLED_clean_sbu_0, # of connection points: 3
#     Node 5, Type 0, BuildingBlock: WUSLED_clean_sbu_0, # of connection points: 3
#     Node 6, Type 0, BuildingBlock: WUSLED_clean_sbu_0, # of connection points: 3
#     Node 7, Type 0, BuildingBlock: WUSLED_clean_sbu_0, # of connection points: 3
#     Node 8, Type 0, BuildingBlock: WUSLED_clean_sbu_0, # of connection points: 3
#     Node 9, Type 0, BuildingBlock: WUSLED_clean_sbu_0, # of connection points: 3
#     Node 10, Type 0, BuildingBlock: WUSLED_clean_sbu_0, # of connection points: 3
#     Node 11, Type 0, BuildingBlock: WUSLED_clean_sbu_0, # of connection points: 3
#     Node 12, Type 0, BuildingBlock: WUSLED_clean_sbu_0, # of connection points: 3
#     Node 13, Type 0, BuildingBlock: WUSLED_clean_sbu_0, # of connection points: 3
#     Node 14, Type 0, BuildingBlock: WUSLED_clean_sbu_0, # of connection points: 3
#     Node 15, Type 0, BuildingBlock: WUSLED_clean_sbu_0, # of connection points: 3
#     Node 16, Type 0, BuildingBlock: WUSLED_clean_sbu_0, # of connection points: 3
#     Node 17, Type 0, BuildingBlock: WUSLED_clean_sbu_0, # of connection points: 3
#     Node 18, Type 0, BuildingBlock: WUSLED_clean_sbu_0, # of connection points: 3
#     Node 19, Type 0, BuildingBlock: WUSLED_clean_sbu_0, # of connection points: 3
#     Node 20, Type 0, BuildingBlock: WUSLED_clean_sbu_0, # of connection points: 3
#     Node 21, Type 0, BuildingBlock: WUSLED_clean_sbu_0, # of connection points: 3
#     Node 22, Type 0, BuildingBlock: WUSLED_clean_sbu_0, # of connection points: 3
#     Node 23, Type 0, BuildingBlock: WUSLED_clean_sbu_0, # of connection points: 3
#     Node 24, Type 0, BuildingBlock: WUSLED_clean_sbu_0, # of connection points: 3
#     Node 25, Type 0, BuildingBlock: WUSLED_clean_sbu_0, # of connection points: 3
#     Node 26, Type 0, BuildingBlock: WUSLED_clean_sbu_0, # of connection points: 3
#     Node 27, Type 0, BuildingBlock: WUSLED_clean_sbu_0, # of connection points: 3
#     Node 28, Type 0, BuildingBlock: WUSLED_clean_sbu_0, # of connection points: 3
#     Node 29, Type 0, BuildingBlock: WUSLED_clean_sbu_0, # of connection points: 3
#     Node 30, Type 0, BuildingBlock: WUSLED_clean_sbu_0, # of connection points: 3
#     Node 31, Type 0, BuildingBlock: WUSLED_clean_sbu_0, # of connection points: 3
#     Node 32, Type 1, BuildingBlock: NAWXER_clean_linker_0, # of connection points: 4
#     Node 33, Type 1, BuildingBlock: NAWXER_clean_linker_0, # of connection points: 4
#     Node 34, Type 1, BuildingBlock: NAWXER_clean_linker_0, # of connection points: 4
#     Node 35, Type 1, BuildingBlock: NAWXER_clean_linker_0, # of connection points: 4
#     Node 36, Type 1, BuildingBlock: NAWXER_clean_linker_0, # of connection points: 4
#     Node 37, Type 1, BuildingBlock: NAWXER_clean_linker_0, # of connection points: 4
#     Node 38, Type 1, BuildingBlock: NAWXER_clean_linker_0, # of connection points: 4
#     Node 39, Type 1, BuildingBlock: NAWXER_clean_linker_0, # of connection points: 4
#     Node 40, Type 1, BuildingBlock: NAWXER_clean_linker_0, # of connection points: 4
#     Node 41, Type 1, BuildingBlock: NAWXER_clean_linker_0, # of connection points: 4
#     Node 42, Type 1, BuildingBlock: NAWXER_clean_linker_0, # of connection points: 4
#     Node 43, Type 1, BuildingBlock: NAWXER_clean_linker_0, # of connection points: 4
#     Node 44, Type 1, BuildingBlock: NAWXER_clean_linker_0, # of connection points: 4
#     Node 45, Type 1, BuildingBlock: NAWXER_clean_linker_0, # of connection points: 4
#     Node 46, Type 1, BuildingBlock: NAWXER_clean_linker_0, # of connection points: 4
#     Node 47, Type 1, BuildingBlock: NAWXER_clean_linker_0, # of connection points: 4
#     Node 48, Type 1, BuildingBlock: NAWXER_clean_linker_0, # of connection points: 4
#     Node 49, Type 1, BuildingBlock: NAWXER_clean_linker_0, # of connection points: 4
#     Node 50, Type 1, BuildingBlock: NAWXER_clean_linker_0, # of connection points: 4
#     Node 51, Type 1, BuildingBlock: NAWXER_clean_linker_0, # of connection points: 4
#     Node 52, Type 1, BuildingBlock: NAWXER_clean_linker_0, # of connection points: 4
#     Node 53, Type 1, BuildingBlock: NAWXER_clean_linker_0, # of connection points: 4
#     Node 54, Type 1, BuildingBlock: NAWXER_clean_linker_0, # of connection points: 4
#     Node 55, Type 1, BuildingBlock: NAWXER_clean_linker_0, # of connection points: 4
#     Edge 56, Type (0, 1), BuildingBlock: EZIPEK_clean_linker_0, # of connection points: 2
#     Edge 57, Type (0, 1), BuildingBlock: EZIPEK_clean_linker_0, # of connection points: 2
#     Edge 58, Type (0, 1), BuildingBlock: EZIPEK_clean_linker_0, # of connection points: 2
#     Edge 59, Type (0, 1), BuildingBlock: EZIPEK_clean_linker_0, # of connection points: 2
#     Edge 60, Type (0, 1), BuildingBlock: EZIPEK_clean_linker_0, # of connection points: 2
#     Edge 61, Type (0, 1), BuildingBlock: EZIPEK_clean_linker_0, # of connection points: 2
#     Edge 62, Type (0, 1), BuildingBlock: EZIPEK_clean_linker_0, # of connection points: 2
#     Edge 63, Type (0, 1), BuildingBlock: EZIPEK_clean_linker_0, # of connection points: 2
#     Edge 64, Type (0, 1), BuildingBlock: EZIPEK_clean_linker_0, # of connection points: 2
#     Edge 65, Type (0, 1), BuildingBlock: EZIPEK_clean_linker_0, # of connection points: 2
#     Edge 66, Type (0, 1), BuildingBlock: EZIPEK_clean_linker_0, # of connection points: 2
#     Edge 67, Type (0, 1), BuildingBlock: EZIPEK_clean_linker_0, # of connection points: 2
#     Edge 68, Type (0, 1), BuildingBlock: EZIPEK_clean_linker_0, # of connection points: 2
#     Edge 69, Type (0, 1), BuildingBlock: EZIPEK_clean_linker_0, # of connection points: 2
#     Edge 70, Type (0, 1), BuildingBlock: EZIPEK_clean_linker_0, # of connection points: 2
#     Edge 71, Type (0, 1), BuildingBlock: EZIPEK_clean_linker_0, # of connection points: 2
#     Edge 72, Type (0, 1), BuildingBlock: EZIPEK_clean_linker_0, # of connection points: 2
#     Edge 73, Type (0, 1), BuildingBlock: EZIPEK_clean_linker_0, # of connection points: 2
#     Edge 74, Type (0, 1), BuildingBlock: EZIPEK_clean_linker_0, # of connection points: 2
#     Edge 75, Type (0, 1), BuildingBlock: EZIPEK_clean_linker_0, # of connection points: 2
#     Edge 76, Type (0, 1), BuildingBlock: EZIPEK_clean_linker_0, # of connection points: 2
#     Edge 77, Type (0, 1), BuildingBlock: EZIPEK_clean_linker_0, # of connection points: 2
#     Edge 78, Type (0, 1), BuildingBlock: EZIPEK_clean_linker_0, # of connection points: 2
#     Edge 79, Type (0, 1), BuildingBlock: EZIPEK_clean_linker_0, # of connection points: 2
#     Edge 80, Type (0, 1), BuildingBlock: EZIPEK_clean_linker_0, # of connection points: 2
#     Edge 81, Type (0, 1), BuildingBlock: EZIPEK_clean_linker_0, # of connection points: 2
#     Edge 82, Type (0, 1), BuildingBlock: EZIPEK_clean_linker_0, # of connection points: 2
#     Edge 83, Type (0, 1), BuildingBlock: EZIPEK_clean_linker_0, # of connection points: 2
#     Edge 84, Type (0, 1), BuildingBlock: EZIPEK_clean_linker_0, # of connection points: 2
#     Edge 85, Type (0, 1), BuildingBlock: EZIPEK_clean_linker_0, # of connection points: 2
#     Edge 86, Type (0, 1), BuildingBlock: EZIPEK_clean_linker_0, # of connection points: 2
#     Edge 87, Type (0, 1), BuildingBlock: EZIPEK_clean_linker_0, # of connection points: 2
#     Edge 88, Type (0, 1), BuildingBlock: EZIPEK_clean_linker_0, # of connection points: 2
#     Edge 89, Type (0, 1), BuildingBlock: EZIPEK_clean_linker_0, # of connection points: 2
#     Edge 90, Type (0, 1), BuildingBlock: EZIPEK_clean_linker_0, # of connection points: 2
#     Edge 91, Type (0, 1), BuildingBlock: EZIPEK_clean_linker_0, # of connection points: 2
#     Edge 92, Type (0, 1), BuildingBlock: EZIPEK_clean_linker_0, # of connection points: 2
#     Edge 93, Type (0, 1), BuildingBlock: EZIPEK_clean_linker_0, # of connection points: 2
#     Edge 94, Type (0, 1), BuildingBlock: EZIPEK_clean_linker_0, # of connection points: 2
#     Edge 95, Type (0, 1), BuildingBlock: EZIPEK_clean_linker_0, # of connection points: 2
#     Edge 96, Type (0, 1), BuildingBlock: EZIPEK_clean_linker_0, # of connection points: 2
#     Edge 97, Type (0, 1), BuildingBlock: EZIPEK_clean_linker_0, # of connection points: 2
#     Edge 98, Type (0, 1), BuildingBlock: EZIPEK_clean_linker_0, # of connection points: 2
#     Edge 99, Type (0, 1), BuildingBlock: EZIPEK_clean_linker_0, # of connection points: 2
#     Edge 100, Type (0, 1), BuildingBlock: EZIPEK_clean_linker_0, # of connection points: 2
#     Edge 101, Type (0, 1), BuildingBlock: EZIPEK_clean_linker_0, # of connection points: 2
#     Edge 102, Type (0, 1), BuildingBlock: EZIPEK_clean_linker_0, # of connection points: 2
#     Edge 103, Type (0, 1), BuildingBlock: EZIPEK_clean_linker_0, # of connection points: 2
#     Edge 104, Type (0, 1), BuildingBlock: EZIPEK_clean_linker_0, # of connection points: 2
#     Edge 105, Type (0, 1), BuildingBlock: EZIPEK_clean_linker_0, # of connection points: 2
#     Edge 106, Type (0, 1), BuildingBlock: EZIPEK_clean_linker_0, # of connection points: 2
#     Edge 107, Type (0, 1), BuildingBlock: EZIPEK_clean_linker_0, # of connection points: 2
#     Edge 108, Type (0, 1), BuildingBlock: EZIPEK_clean_linker_0, # of connection points: 2
#     Edge 109, Type (0, 1), BuildingBlock: EZIPEK_clean_linker_0, # of connection points: 2
#     Edge 110, Type (0, 1), BuildingBlock: EZIPEK_clean_linker_0, # of connection points: 2
#     Edge 111, Type (0, 1), BuildingBlock: EZIPEK_clean_linker_0, # of connection points: 2
#     Edge 112, Type (0, 1), BuildingBlock: EZIPEK_clean_linker_0, # of connection points: 2
#     Edge 113, Type (0, 1), BuildingBlock: EZIPEK_clean_linker_0, # of connection points: 2
#     Edge 114, Type (0, 1), BuildingBlock: EZIPEK_clean_linker_0, # of connection points: 2
#     Edge 115, Type (0, 1), BuildingBlock: EZIPEK_clean_linker_0, # of connection points: 2
#     Edge 116, Type (0, 1), BuildingBlock: EZIPEK_clean_linker_0, # of connection points: 2
#     Edge 117, Type (0, 1), BuildingBlock: EZIPEK_clean_linker_0, # of connection points: 2
#     Edge 118, Type (0, 1), BuildingBlock: EZIPEK_clean_linker_0, # of connection points: 2
#     Edge 119, Type (0, 1), BuildingBlock: EZIPEK_clean_linker_0, # of connection points: 2
#     Edge 120, Type (0, 1), BuildingBlock: EZIPEK_clean_linker_0, # of connection points: 2
#     Edge 121, Type (0, 1), BuildingBlock: EZIPEK_clean_linker_0, # of connection points: 2
#     Edge 122, Type (0, 1), BuildingBlock: EZIPEK_clean_linker_0, # of connection points: 2
#     Edge 123, Type (0, 1), BuildingBlock: EZIPEK_clean_linker_0, # of connection points: 2
#     Edge 124, Type (0, 1), BuildingBlock: EZIPEK_clean_linker_0, # of connection points: 2
#     Edge 125, Type (0, 1), BuildingBlock: EZIPEK_clean_linker_0, # of connection points: 2
#     Edge 126, Type (0, 1), BuildingBlock: EZIPEK_clean_linker_0, # of connection points: 2
#     Edge 127, Type (0, 1), BuildingBlock: EZIPEK_clean_linker_0, # of connection points: 2
#     Edge 128, Type (0, 1), BuildingBlock: EZIPEK_clean_linker_0, # of connection points: 2
#     Edge 129, Type (0, 1), BuildingBlock: EZIPEK_clean_linker_0, # of connection points: 2
#     Edge 130, Type (0, 1), BuildingBlock: EZIPEK_clean_linker_0, # of connection points: 2
#     Edge 131, Type (0, 1), BuildingBlock: EZIPEK_clean_linker_0, # of connection points: 2
#     Edge 132, Type (0, 1), BuildingBlock: EZIPEK_clean_linker_0, # of connection points: 2
#     Edge 133, Type (0, 1), BuildingBlock: EZIPEK_clean_linker_0, # of connection points: 2
#     Edge 134, Type (0, 1), BuildingBlock: EZIPEK_clean_linker_0, # of connection points: 2
#     Edge 135, Type (0, 1), BuildingBlock: EZIPEK_clean_linker_0, # of connection points: 2
#     Edge 136, Type (0, 1), BuildingBlock: EZIPEK_clean_linker_0, # of connection points: 2
#     Edge 137, Type (0, 1), BuildingBlock: EZIPEK_clean_linker_0, # of connection points: 2
#     Edge 138, Type (0, 1), BuildingBlock: EZIPEK_clean_linker_0, # of connection points: 2
#     Edge 139, Type (0, 1), BuildingBlock: EZIPEK_clean_linker_0, # of connection points: 2
#     Edge 140, Type (0, 1), BuildingBlock: EZIPEK_clean_linker_0, # of connection points: 2
#     Edge 141, Type (0, 1), BuildingBlock: EZIPEK_clean_linker_0, # of connection points: 2
#     Edge 142, Type (0, 1), BuildingBlock: EZIPEK_clean_linker_0, # of connection points: 2
#     Edge 143, Type (0, 1), BuildingBlock: EZIPEK_clean_linker_0, # of connection points: 2
#     Edge 144, Type (0, 1), BuildingBlock: EZIPEK_clean_linker_0, # of connection points: 2
#     Edge 145, Type (0, 1), BuildingBlock: EZIPEK_clean_linker_0, # of connection points: 2
#     Edge 146, Type (0, 1), BuildingBlock: EZIPEK_clean_linker_0, # of connection points: 2
#     Edge 147, Type (0, 1), BuildingBlock: EZIPEK_clean_linker_0, # of connection points: 2
#     Edge 148, Type (0, 1), BuildingBlock: EZIPEK_clean_linker_0, # of connection points: 2
#     Edge 149, Type (0, 1), BuildingBlock: EZIPEK_clean_linker_0, # of connection points: 2
#     Edge 150, Type (0, 1), BuildingBlock: EZIPEK_clean_linker_0, # of connection points: 2
#     Edge 151, Type (0, 1), BuildingBlock: EZIPEK_clean_linker_0, # of connection points: 2
# Relax obj value: 0.000
# Max RMSD: 0.011
# Mean RMSD: 0.006
data_MOF--net-tbo--node1-WUSLED_clean_sbu_0--node2-NAWXER_clean_linker_0--edge1-EZIPEK_clean_linker_0
_symmetry_space_group_name_H-M    P1
_symmetry_Int_Tables_number       1
_symmetry_cell_setting            triclinic
loop_
_symmetry_equiv_pos_as_xyz
'x, y, z'
_cell_length_a     87.642312
_cell_length_b     88.043913
_cell_length_c     87.805521
_cell_angle_alpha  89.724459
_cell_angle_beta   90.258798
_cell_angle_gamma 90.568299
loop_
_atom_site_label
_atom_site_type_symbol
_atom_site_fract_x
_atom_site_fract_y
_atom_site_fract_z
_atom_type_partial_charge
C0 C 0.19333 0.15079 0.21391 0.0
C1 C 0.2063 0.14636 0.20577 0.0
C2 C 0.20977 0.1249 0.22301 0.0
C3 C 0.21449 0.13349 0.21031 0.0
C4 C 0.19683 0.12938 0.23112 0.0
C5 C 0.18867 0.14222 0.2266 0.0
U6 U 0.18526 0.1849 0.18766 0.0
O7 O 0.16325 0.1935 0.17927 0.0
O8 O 0.17787 0.20795 0.19359 0.0
C9 C 0.1646 0.20636 0.18672 0.0
C10 C 0.18445 0.16421 0.20936 0.0
C11 C 0.15117 0.2109 0.19558 0.0
C12 C 0.13374 0.20744 0.21686 0.0
C13 C 0.14659 0.20285 0.20867 0.0
C14 C 0.12995 0.22813 0.19898 0.0
C15 C 0.12533 0.22011 0.21204 0.0
C16 C 0.14277 0.22356 0.19082 0.0
C17 C 0.21142 0.19275 0.15328 0.0
C18 C 0.20737 0.21289 0.13465 0.0
C19 C 0.22937 0.19658 0.13255 0.0
C20 C 0.22475 0.18866 0.14561 0.0
C21 C 0.22071 0.20872 0.12695 0.0
C22 C 0.20275 0.20495 0.14776 0.0
C23 C 0.20676 0.18403 0.16688 0.0
O24 O 0.19145 0.17739 0.21081 0.0
O25 O 0.17676 0.16298 0.19654 0.0
O26 O 0.19379 0.17649 0.16576 0.0
O27 O 0.20843 0.191 0.17999 0.0
H28 H 0.21006 0.15284 0.19593 0.0
H29 H 0.22446 0.1302 0.20392 0.0
H30 H 0.19303 0.12289 0.24094 0.0
H31 H 0.17869 0.14547 0.23301 0.0
H32 H 0.13034 0.20113 0.22692 0.0
H33 H 0.15295 0.19305 0.21251 0.0
H34 H 0.12361 0.23793 0.1951 0.0
H35 H 0.14613 0.22991 0.18076 0.0
H36 H 0.20054 0.22222 0.13047 0.0
H37 H 0.23967 0.19319 0.12675 0.0
H38 H 0.23157 0.17927 0.14971 0.0
H39 H 0.19241 0.20826 0.15354 0.0
C40 C 0.82014 0.19281 0.15244 0.0
C41 C 0.82885 0.20531 0.14736 0.0
C42 C 0.81124 0.20897 0.12618 0.0
C43 C 0.82442 0.21334 0.13428 0.0
C44 C 0.80256 0.1965 0.13131 0.0
C45 C 0.80699 0.18849 0.14436 0.0
U46 U 0.84615 0.1855 0.18692 0.0
O47 O 0.83991 0.17839 0.21022 0.0
O48 O 0.85457 0.16396 0.19629 0.0
C49 C 0.84668 0.1652 0.20893 0.0
C50 C 0.82453 0.18416 0.16612 0.0
C51 C 0.83763 0.15173 0.2136 0.0
C52 C 0.82652 0.13643 0.23394 0.0
C53 C 0.83441 0.14946 0.22909 0.0
C54 C 0.82477 0.12778 0.20783 0.0
C55 C 0.82179 0.12545 0.22336 0.0
C56 C 0.83258 0.14087 0.20296 0.0
C57 C 0.88084 0.21149 0.19459 0.0
C58 C 0.90708 0.22078 0.19488 0.0
C59 C 0.89377 0.21652 0.21868 0.0
C60 C 0.8808 0.21166 0.21061 0.0
C61 C 0.90696 0.22115 0.21085 0.0
C62 C 0.8941 0.21602 0.18682 0.0
C63 C 0.86721 0.2069 0.1857 0.0
O64 O 0.83736 0.17662 0.16517 0.0
O65 O 0.82303 0.1913 0.17913 0.0
O66 O 0.85391 0.2087 0.1923 0.0
O67 O 0.86825 0.194 0.17833 0.0
H68 H 0.83904 0.2088 0.15349 0.0
H69 H 0.83126 0.22292 0.13044 0.0
H70 H 0.79238 0.19298 0.12518 0.0
H71 H 0.80014 0.17888 0.14813 0.0
H72 H 0.82431 0.13478 0.24597 0.0
H73 H 0.8382 0.15768 0.23748 0.0
H74 H 0.82118 0.1194 0.19952 0.0
H75 H 0.83484 0.14238 0.19092 0.0
H76 H 0.91717 0.22432 0.18868 0.0
H77 H 0.89352 0.21673 0.23101 0.0
H78 H 0.87075 0.20814 0.21689 0.0
H79 H 0.89438 0.21597 0.17449 0.0
C80 C 0.82114 0.83932 0.15232 0.0
C81 C 0.83005 0.8272 0.14721 0.0
C82 C 0.8124 0.823 0.1261 0.0
C83 C 0.8257 0.81908 0.13415 0.0
C84 C 0.80351 0.83508 0.13128 0.0
C85 C 0.80786 0.84317 0.14429 0.0
U86 U 0.84681 0.8478 0.18707 0.0
O87 O 0.85477 0.86987 0.19587 0.0
O88 O 0.84026 0.85517 0.21005 0.0
C89 C 0.84706 0.86847 0.20862 0.0
C90 C 0.82547 0.84817 0.16591 0.0
C91 C 0.83806 0.88176 0.21307 0.0
C92 C 0.81742 0.8996 0.20872 0.0
C93 C 0.82558 0.88671 0.20433 0.0
C94 C 0.83409 0.90261 0.23063 0.0
C95 C 0.82166 0.90765 0.22189 0.0
C96 C 0.84221 0.88976 0.22625 0.0
C97 C 0.88171 0.82264 0.19583 0.0
C98 C 0.90851 0.81553 0.19638 0.0
C99 C 0.89383 0.81498 0.21968 0.0
C100 C 0.88095 0.81998 0.21164 0.0
C101 C 0.90766 0.81263 0.21207 0.0
C102 C 0.89564 0.82045 0.18833 0.0
C103 C 0.8681 0.82697 0.18678 0.0
O104 O 0.82386 0.84117 0.17906 0.0
O105 O 0.83827 0.85601 0.16493 0.0
O106 O 0.86915 0.83978 0.1791 0.0
O107 O 0.8547 0.82493 0.19321 0.0
H108 H 0.84035 0.82407 0.15328 0.0
H109 H 0.83271 0.80981 0.13029 0.0
H110 H 0.79324 0.83827 0.1252 0.0
H111 H 0.80085 0.85249 0.14807 0.0
H112 H 0.80789 0.90336 0.20183 0.0
H113 H 0.82222 0.88067 0.19411 0.0
H114 H 0.83753 0.90868 0.2408 0.0
H115 H 0.85181 0.88612 0.23312 0.0
H116 H 0.91908 0.81377 0.19033 0.0
H117 H 0.89299 0.8128 0.2318 0.0
H118 H 0.87039 0.82157 0.21777 0.0
H119 H 0.8965 0.82235 0.17616 0.0
C120 C 0.15259 0.81958 0.19513 0.0
C121 C 0.14822 0.82756 0.20819 0.0
C122 C 0.1266 0.81033 0.21164 0.0
C123 C 0.13529 0.82295 0.21641 0.0
C124 C 0.13104 0.80235 0.19862 0.0
C125 C 0.14394 0.80695 0.19043 0.0
U126 U 0.18684 0.84595 0.18723 0.0
O127 O 0.20998 0.84024 0.1796 0.0
O128 O 0.19546 0.85473 0.16537 0.0
C129 C 0.20833 0.84726 0.16646 0.0
C130 C 0.16605 0.82424 0.18622 0.0
C131 C 0.21266 0.83853 0.15291 0.0
C132 C 0.20793 0.81831 0.13464 0.0
C133 C 0.20365 0.82632 0.14768 0.0
C134 C 0.23026 0.83458 0.13203 0.0
C135 C 0.22126 0.82241 0.12673 0.0
C136 C 0.22598 0.84257 0.14502 0.0
C137 C 0.19504 0.87985 0.21349 0.0
C138 C 0.21617 0.89759 0.2097 0.0
C139 C 0.19877 0.90107 0.23076 0.0
C140 C 0.19056 0.88814 0.22628 0.0
C141 C 0.21161 0.90591 0.22249 0.0
C142 C 0.20792 0.88463 0.20521 0.0
C143 C 0.18609 0.86637 0.20896 0.0
O144 O 0.16483 0.83714 0.17873 0.0
O145 O 0.1793 0.82273 0.1931 0.0
O146 O 0.19302 0.85327 0.21041 0.0
O147 O 0.17842 0.86762 0.19612 0.0
H148 H 0.15478 0.83735 0.21198 0.0
H149 H 0.13202 0.82922 0.22645 0.0
H150 H 0.12447 0.7926 0.19478 0.0
H151 H 0.14716 0.80067 0.18038 0.0
H152 H 0.20085 0.80897 0.13068 0.0
H153 H 0.19332 0.82305 0.15364 0.0
H154 H 0.24056 0.8379 0.12605 0.0
H155 H 0.23305 0.85196 0.1489 0.0
H156 H 0.22606 0.90117 0.2032 0.0
H157 H 0.1951 0.90735 0.24065 0.0
H158 H 0.18065 0.88461 0.2328 0.0
H159 H 0.21155 0.87836 0.1953 0.0
C160 C 0.15259 0.81956 0.8403 0.0
C161 C 0.14823 0.82763 0.82716 0.0
C162 C 0.12655 0.81051 0.82365 0.0
C163 C 0.13528 0.82311 0.81887 0.0
C164 C 0.13096 0.80246 0.83676 0.0
C165 C 0.14389 0.80696 0.84502 0.0
U166 U 0.18688 0.8458 0.8478 0.0
O167 O 0.19593 0.85475 0.86938 0.0
O168 O 0.21017 0.84004 0.85532 0.0
C169 C 0.20864 0.84701 0.86842 0.0
C170 C 0.16612 0.8241 0.8492 0.0
C171 C 0.21316 0.83824 0.88209 0.0
C172 C 0.23332 0.82704 0.89749 0.0
C173 C 0.22862 0.83486 0.88441 0.0
C174 C 0.20713 0.82578 0.90618 0.0
C175 C 0.22262 0.82257 0.90851 0.0
C176 C 0.20241 0.83351 0.89303 0.0
C177 C 0.19448 0.87961 0.82105 0.0
C178 C 0.21495 0.89804 0.82505 0.0
C179 C 0.19813 0.90048 0.80319 0.0
C180 C 0.19016 0.88742 0.80779 0.0
C181 C 0.21054 0.9059 0.8118 0.0
C182 C 0.20696 0.88495 0.82965 0.0
C183 C 0.18569 0.8661 0.8258 0.0
O184 O 0.17929 0.82256 0.8423 0.0
O185 O 0.16502 0.83699 0.85658 0.0
O186 O 0.17821 0.86737 0.83866 0.0
O187 O 0.19268 0.85304 0.82448 0.0
H188 H 0.15483 0.83739 0.82336 0.0
H189 H 0.13203 0.82943 0.80878 0.0
H190 H 0.12435 0.79271 0.84059 0.0
H191 H 0.14709 0.80062 0.85512 0.0
H192 H 0.24532 0.82465 0.89914 0.0
H193 H 0.2371 0.83839 0.87613 0.0
H194 H 0.19874 0.82239 0.91459 0.0
H195 H 0.1904 0.8359 0.8915 0.0
H196 H 0.22448 0.90211 0.83184 0.0
H197 H 0.19457 0.90642 0.79296 0.0
H198 H 0.18055 0.88346 0.80103 0.0
H199 H 0.21044 0.87905 0.83993 0.0
C200 C 0.15163 0.19201 0.8217 0.0
C201 C 0.14709 0.20477 0.83002 0.0
C202 C 0.12555 0.20837 0.81279 0.0
C203 C 0.13411 0.21291 0.82559 0.0
C204 C 0.13014 0.19563 0.8045 0.0
C205 C 0.14308 0.18752 0.80892 0.0
U206 U 0.18609 0.18389 0.84768 0.0
O207 O 0.19472 0.16196 0.85603 0.0
O208 O 0.20916 0.17645 0.84157 0.0
C209 C 0.20758 0.16325 0.84848 0.0
C210 C 0.16512 0.18315 0.82616 0.0
C211 C 0.21208 0.14985 0.83964 0.0
C212 C 0.20879 0.13274 0.81815 0.0
C213 C 0.20423 0.14556 0.82632 0.0
C214 C 0.22902 0.12839 0.83653 0.0
C215 C 0.22121 0.12406 0.82323 0.0
C216 C 0.22448 0.14118 0.84466 0.0
C217 C 0.19444 0.20982 0.88199 0.0
C218 C 0.2159 0.20656 0.89935 0.0
C219 C 0.19786 0.22679 0.90352 0.0
C220 C 0.18963 0.22224 0.89062 0.0
C221 C 0.21104 0.21899 0.908 0.0
C222 C 0.20764 0.20199 0.88641 0.0
C223 C 0.18548 0.20528 0.86849 0.0
O224 O 0.17838 0.19008 0.82459 0.0
O225 O 0.16398 0.1755 0.839 0.0
O226 O 0.17786 0.1924 0.86968 0.0
O227 O 0.19235 0.20692 0.8553 0.0
H228 H 0.15355 0.20839 0.83993 0.0
H229 H 0.13071 0.2227 0.83214 0.0
H230 H 0.12366 0.19195 0.79462 0.0
H231 H 0.1464 0.1777 0.80238 0.0
H232 H 0.20265 0.12956 0.8079 0.0
H233 H 0.19462 0.15212 0.82228 0.0
H234 H 0.23862 0.12184 0.84061 0.0
H235 H 0.23066 0.14432 0.85491 0.0
H236 H 0.22606 0.20042 0.90263 0.0
H237 H 0.19395 0.2364 0.91005 0.0
H238 H 0.17948 0.22841 0.88737 0.0
H239 H 0.21151 0.19237 0.87988 0.0
C240 C 0.82097 0.15062 0.84069 0.0
C241 C 0.82933 0.14622 0.82785 0.0
C242 C 0.8124 0.12441 0.82434 0.0
C243 C 0.82506 0.13317 0.81972 0.0
C244 C 0.80407 0.12886 0.83716 0.0
C245 C 0.80833 0.14187 0.84526 0.0
U246 U 0.84681 0.18519 0.84855 0.0
O247 O 0.8407 0.20824 0.85576 0.0
O248 O 0.8552 0.19418 0.87043 0.0
C249 C 0.84761 0.20691 0.86901 0.0
C250 C 0.82528 0.1642 0.84951 0.0
C251 C 0.8387 0.21145 0.88239 0.0
C252 C 0.8169 0.20841 0.89924 0.0
C253 C 0.82514 0.20383 0.88643 0.0
C254 C 0.83568 0.22822 0.90406 0.0
C255 C 0.82214 0.22063 0.90815 0.0
C256 C 0.84389 0.22366 0.89128 0.0
C257 C 0.88117 0.19328 0.82256 0.0
C258 C 0.89946 0.21384 0.82671 0.0
C259 C 0.90212 0.19731 0.8049 0.0
C260 C 0.88909 0.18918 0.80939 0.0
C261 C 0.90742 0.20967 0.81354 0.0
C262 C 0.88639 0.2057 0.8312 0.0
C263 C 0.86764 0.18435 0.82712 0.0
O264 O 0.83812 0.16328 0.85723 0.0
O265 O 0.82368 0.17729 0.84244 0.0
O266 O 0.85444 0.19111 0.82539 0.0
O267 O 0.8688 0.17694 0.8401 0.0
H268 H 0.83913 0.15284 0.82417 0.0
H269 H 0.83163 0.12987 0.80987 0.0
H270 H 0.7943 0.12222 0.84089 0.0
H271 H 0.80177 0.1451 0.85514 0.0
H272 H 0.80646 0.20244 0.90223 0.0
H273 H 0.82097 0.19437 0.8797 0.0
H274 H 0.8399 0.23766 0.91079 0.0
H275 H 0.85433 0.22967 0.88833 0.0
H276 H 0.90342 0.22333 0.83352 0.0
H277 H 0.90813 0.19392 0.79474 0.0
H278 H 0.88523 0.17964 0.8026 0.0
H279 H 0.88041 0.20902 0.84141 0.0
C280 C 0.83935 0.88116 0.82133 0.0
C281 C 0.82607 0.8852 0.82918 0.0
C282 C 0.82272 0.90696 0.81228 0.0
C283 C 0.81779 0.89803 0.82467 0.0
C284 C 0.83599 0.90288 0.80447 0.0
C285 C 0.84423 0.89008 0.80897 0.0
U286 U 0.84768 0.84686 0.8473 0.0
O287 O 0.85518 0.82391 0.84115 0.0
O288 O 0.86978 0.83831 0.85553 0.0
C289 C 0.86847 0.8255 0.84799 0.0
C290 C 0.84829 0.86775 0.82578 0.0
C291 C 0.88191 0.82103 0.83909 0.0
C292 C 0.89902 0.8243 0.81753 0.0
C293 C 0.88617 0.82884 0.82576 0.0
C294 C 0.90343 0.80415 0.83589 0.0
C295 C 0.90774 0.81192 0.82257 0.0
C296 C 0.89062 0.80868 0.84408 0.0
C297 C 0.82171 0.83855 0.88174 0.0
C298 C 0.82562 0.81791 0.89985 0.0
C299 C 0.80418 0.83481 0.90285 0.0
C300 C 0.80871 0.84287 0.88984 0.0
C301 C 0.8126 0.8223 0.90797 0.0
C302 C 0.83015 0.826 0.8868 0.0
C303 C 0.82626 0.84741 0.86819 0.0
O304 O 0.85601 0.86891 0.8386 0.0
O305 O 0.84136 0.85453 0.82425 0.0
O306 O 0.82459 0.84054 0.85503 0.0
O307 O 0.8392 0.85501 0.86933 0.0
H308 H 0.82213 0.87844 0.83875 0.0
H309 H 0.80756 0.901 0.83081 0.0
H310 H 0.83995 0.90962 0.7949 0.0
H311 H 0.85445 0.88714 0.80278 0.0
H312 H 0.90218 0.83041 0.80727 0.0
H313 H 0.87957 0.83841 0.82174 0.0
H314 H 0.91002 0.79458 0.83994 0.0
H315 H 0.88751 0.80252 0.85434 0.0
H316 H 0.83227 0.8083 0.90367 0.0
H317 H 0.79414 0.83837 0.90898 0.0
H318 H 0.80207 0.85253 0.88611 0.0
H319 H 0.84023 0.82251 0.88069 0.0
C320 C 0.19399 0.65167 0.71355 0.0
C321 C 0.207 0.64725 0.70547 0.0
C322 C 0.21054 0.62591 0.72287 0.0
C323 C 0.21524 0.63444 0.71012 0.0
C324 C 0.19756 0.63039 0.73092 0.0
C325 C 0.18935 0.64317 0.72629 0.0
U326 U 0.18568 0.68569 0.68717 0.0
O327 O 0.16359 0.69413 0.67883 0.0
O328 O 0.17814 0.70869 0.69308 0.0
C329 C 0.16487 0.70701 0.68624 0.0
C330 C 0.18506 0.66503 0.70892 0.0
C331 C 0.15141 0.71154 0.69509 0.0
C332 C 0.13396 0.70808 0.71635 0.0
C333 C 0.14684 0.7035 0.70818 0.0
C334 C 0.13015 0.72873 0.69842 0.0
C335 C 0.12552 0.72072 0.71149 0.0
C336 C 0.14299 0.72417 0.69029 0.0
C337 C 0.21175 0.69365 0.6527 0.0
C338 C 0.20727 0.71326 0.63359 0.0
C339 C 0.23 0.69786 0.6323 0.0
C340 C 0.22543 0.69001 0.64541 0.0
C341 C 0.22095 0.70951 0.62626 0.0
C342 C 0.2027 0.70537 0.64676 0.0
C343 C 0.20715 0.68495 0.66634 0.0
O344 O 0.19198 0.67827 0.71032 0.0
O345 O 0.17737 0.66372 0.6961 0.0
O346 O 0.19422 0.67733 0.66525 0.0
O347 O 0.20879 0.69196 0.67943 0.0
H348 H 0.21075 0.65368 0.6956 0.0
H349 H 0.22524 0.63115 0.70378 0.0
H350 H 0.19376 0.62396 0.74078 0.0
H351 H 0.17934 0.64641 0.73266 0.0
H352 H 0.13055 0.70178 0.72642 0.0
H353 H 0.15321 0.69372 0.71206 0.0
H354 H 0.12379 0.7385 0.69451 0.0
H355 H 0.14635 0.7305 0.68022 0.0
H356 H 0.20013 0.7222 0.62907 0.0
H357 H 0.24057 0.69481 0.62679 0.0
H358 H 0.23256 0.681 0.64983 0.0
H359 H 0.19209 0.70835 0.65224 0.0
C360 C 0.81989 0.69267 0.65326 0.0
C361 C 0.82808 0.70564 0.64855 0.0
C362 C 0.81071 0.70885 0.62711 0.0
C363 C 0.8235 0.7137 0.63554 0.0
C364 C 0.80252 0.69591 0.63187 0.0
C365 C 0.80709 0.68787 0.64486 0.0
U366 U 0.84648 0.68592 0.68724 0.0
O367 O 0.84108 0.67857 0.71062 0.0
O368 O 0.85574 0.66456 0.69631 0.0
C369 C 0.84833 0.66566 0.70923 0.0
C370 C 0.82456 0.68397 0.66681 0.0
C371 C 0.83979 0.65199 0.71399 0.0
C372 C 0.81954 0.6333 0.71008 0.0
C373 C 0.82737 0.64647 0.70542 0.0
C374 C 0.83642 0.63115 0.73193 0.0
C375 C 0.82405 0.62556 0.72336 0.0
C376 C 0.84424 0.64427 0.72727 0.0
C377 C 0.88019 0.71289 0.69448 0.0
C378 C 0.89788 0.70944 0.7156 0.0
C379 C 0.90156 0.73035 0.69787 0.0
C380 C 0.88858 0.7257 0.68976 0.0
C381 C 0.90632 0.72223 0.71081 0.0
C382 C 0.88489 0.70478 0.70746 0.0
C383 C 0.86669 0.7081 0.68566 0.0
O384 O 0.83758 0.67678 0.66565 0.0
O385 O 0.82302 0.69095 0.6799 0.0
O386 O 0.85354 0.70934 0.69266 0.0
O387 O 0.86802 0.69525 0.67825 0.0
H388 H 0.838 0.70949 0.65491 0.0
H389 H 0.82993 0.72367 0.63201 0.0
H390 H 0.79263 0.69202 0.6255 0.0
H391 H 0.80065 0.67789 0.64834 0.0
H392 H 0.81003 0.62912 0.70333 0.0
H393 H 0.8238 0.6523 0.69513 0.0
H394 H 0.84005 0.6253 0.74219 0.0
H395 H 0.8538 0.64838 0.734 0.0
H396 H 0.90141 0.70306 0.72556 0.0
H397 H 0.90795 0.74023 0.69403 0.0
H398 H 0.88511 0.73208 0.67976 0.0
H399 H 0.87853 0.69485 0.71125 0.0
C400 C 0.8219 0.33853 0.65218 0.0
C401 C 0.82972 0.32526 0.64827 0.0
C402 C 0.81293 0.32169 0.62637 0.0
C403 C 0.82525 0.31688 0.63543 0.0
C404 C 0.80515 0.33495 0.63032 0.0
C405 C 0.80961 0.3433 0.64312 0.0
U406 U 0.84745 0.34715 0.68695 0.0
O407 O 0.85568 0.36915 0.69563 0.0
O408 O 0.84079 0.35483 0.70983 0.0
C409 C 0.84758 0.36811 0.70817 0.0
C410 C 0.82625 0.34754 0.66564 0.0
C411 C 0.83855 0.38159 0.71247 0.0
C412 C 0.82485 0.39546 0.732 0.0
C413 C 0.83259 0.38249 0.72727 0.0
C414 C 0.82877 0.40692 0.70718 0.0
C415 C 0.82302 0.40782 0.72204 0.0
C416 C 0.83644 0.39391 0.7024 0.0
C417 C 0.88166 0.32133 0.69598 0.0
C418 C 0.89898 0.32482 0.71746 0.0
C419 C 0.90305 0.3043 0.69967 0.0
C420 C 0.89021 0.3088 0.69135 0.0
C421 C 0.90755 0.31228 0.71276 0.0
C422 C 0.8861 0.32933 0.7091 0.0
C423 C 0.86827 0.32582 0.68687 0.0
O424 O 0.82446 0.34076 0.67889 0.0
O425 O 0.83917 0.35518 0.66464 0.0
O426 O 0.86963 0.33862 0.67923 0.0
O427 O 0.85495 0.32423 0.69354 0.0
H428 H 0.83924 0.32141 0.65514 0.0
H429 H 0.83136 0.30666 0.63255 0.0
H430 H 0.79563 0.33882 0.62347 0.0
H431 H 0.80345 0.3535 0.64597 0.0
H432 H 0.82052 0.39597 0.74352 0.0
H433 H 0.83413 0.37321 0.73526 0.0
H434 H 0.82746 0.41638 0.69936 0.0
H435 H 0.8409 0.3936 0.69093 0.0
H436 H 0.90228 0.3311 0.72755 0.0
H437 H 0.90952 0.29461 0.69588 0.0
H438 H 0.88696 0.3025 0.68125 0.0
H439 H 0.87963 0.33905 0.71284 0.0
C440 C 0.15349 0.31872 0.69551 0.0
C441 C 0.14912 0.32678 0.70852 0.0
C442 C 0.12748 0.3096 0.71209 0.0
C443 C 0.1362 0.32223 0.71678 0.0
C444 C 0.13193 0.30151 0.69913 0.0
C445 C 0.14484 0.30605 0.69091 0.0
U446 U 0.18694 0.34581 0.68697 0.0
O447 O 0.21018 0.34077 0.67915 0.0
O448 O 0.19505 0.35463 0.66493 0.0
C449 C 0.20817 0.34759 0.66596 0.0
C450 C 0.16682 0.32346 0.68644 0.0
C451 C 0.21267 0.33888 0.65244 0.0
C452 C 0.2083 0.31855 0.63421 0.0
C453 C 0.20389 0.3265 0.64724 0.0
C454 C 0.23034 0.3352 0.63156 0.0
C455 C 0.22155 0.32288 0.62627 0.0
C456 C 0.22592 0.34313 0.64455 0.0
C457 C 0.19332 0.38059 0.71323 0.0
C458 C 0.20434 0.40544 0.70767 0.0
C459 C 0.20067 0.39766 0.73368 0.0
C460 C 0.195 0.38361 0.72875 0.0
C461 C 0.20389 0.40962 0.72326 0.0
C462 C 0.19871 0.39134 0.7027 0.0
C463 C 0.1855 0.36644 0.70844 0.0
O464 O 0.16522 0.33614 0.67866 0.0
O465 O 0.18014 0.32248 0.6933 0.0
O466 O 0.19318 0.35378 0.71 0.0
O467 O 0.17761 0.36711 0.69569 0.0
H468 H 0.15566 0.33662 0.71222 0.0
H469 H 0.13292 0.3286 0.72675 0.0
H470 H 0.12535 0.29175 0.69535 0.0
H471 H 0.14803 0.29971 0.68089 0.0
H472 H 0.20138 0.30909 0.63026 0.0
H473 H 0.19362 0.32306 0.65321 0.0
H474 H 0.24057 0.3387 0.62557 0.0
H475 H 0.23283 0.35265 0.6484 0.0
H476 H 0.20913 0.41281 0.69906 0.0
H477 H 0.20249 0.39885 0.74577 0.0
H478 H 0.19175 0.37512 0.73715 0.0
H479 H 0.19845 0.38892 0.69062 0.0
C480 C 0.15154 0.32138 0.34171 0.0
C481 C 0.13871 0.3159 0.3496 0.0
C482 C 0.1255 0.31116 0.32567 0.0
C483 C 0.12577 0.31086 0.34164 0.0
C484 C 0.13825 0.31675 0.31773 0.0
C485 C 0.15117 0.3219 0.32569 0.0
U486 U 0.1862 0.34757 0.34802 0.0
O487 O 0.1957 0.35697 0.36926 0.0
O488 O 0.20958 0.34197 0.3552 0.0
C489 C 0.20845 0.34933 0.36812 0.0
C490 C 0.1652 0.3262 0.35039 0.0
C491 C 0.21306 0.34083 0.38183 0.0
C492 C 0.2091 0.32037 0.40015 0.0
C493 C 0.20454 0.32825 0.38702 0.0
C494 C 0.23073 0.33753 0.40296 0.0
C495 C 0.22223 0.32497 0.40819 0.0
C496 C 0.22617 0.3454 0.38987 0.0
C497 C 0.1933 0.38022 0.31921 0.0
C498 C 0.21709 0.39311 0.31279 0.0
C499 C 0.19319 0.40384 0.30487 0.0
C500 C 0.18535 0.39196 0.31209 0.0
C501 C 0.20932 0.40391 0.30363 0.0
C502 C 0.20924 0.3812 0.32008 0.0
C503 C 0.18471 0.36708 0.32534 0.0
O504 O 0.17841 0.32418 0.34368 0.0
O505 O 0.16428 0.33935 0.35734 0.0
O506 O 0.17776 0.36911 0.3384 0.0
O507 O 0.19133 0.35378 0.32432 0.0
H508 H 0.13875 0.31542 0.36193 0.0
H509 H 0.11601 0.30658 0.34793 0.0
H510 H 0.1382 0.31709 0.3054 0.0
H511 H 0.16089 0.32617 0.31935 0.0
H512 H 0.20241 0.31072 0.40405 0.0
H513 H 0.19438 0.32458 0.38095 0.0
H514 H 0.24087 0.34124 0.40905 0.0
H515 H 0.23286 0.35508 0.38602 0.0
H516 H 0.22923 0.3937 0.31471 0.0
H517 H 0.18631 0.41296 0.30044 0.0
H518 H 0.17298 0.39191 0.31203 0.0
H519 H 0.21564 0.37275 0.32636 0.0
C520 C 0.15167 0.6921 0.32118 0.0
C521 C 0.14732 0.70503 0.32934 0.0
C522 C 0.12554 0.70843 0.31236 0.0
C523 C 0.13431 0.71316 0.32495 0.0
C524 C 0.12995 0.69552 0.30423 0.0
C525 C 0.14291 0.68743 0.30861 0.0
U526 U 0.18659 0.68431 0.34668 0.0
O527 O 0.19522 0.66266 0.35557 0.0
O528 O 0.20947 0.67639 0.34016 0.0
C529 C 0.20789 0.66349 0.34763 0.0
C530 C 0.1652 0.68326 0.32558 0.0
C531 C 0.21236 0.64955 0.33954 0.0
C532 C 0.20617 0.62551 0.32733 0.0
C533 C 0.20158 0.63948 0.33331 0.0
C534 C 0.23237 0.63211 0.33239 0.0
C535 C 0.22157 0.62072 0.32827 0.0
C536 C 0.22782 0.64604 0.33838 0.0
C537 C 0.19561 0.71078 0.38044 0.0
C538 C 0.21684 0.70723 0.39803 0.0
C539 C 0.19928 0.72796 0.40177 0.0
C540 C 0.19106 0.72344 0.38885 0.0
C541 C 0.2122 0.71987 0.40649 0.0
C542 C 0.20858 0.70269 0.38508 0.0
C543 C 0.18651 0.70613 0.36706 0.0
O544 O 0.17846 0.69008 0.32362 0.0
O545 O 0.16426 0.67589 0.3386 0.0
O546 O 0.17871 0.69339 0.36856 0.0
O547 O 0.19328 0.70741 0.35378 0.0
H548 H 0.15394 0.7088 0.33908 0.0
H549 H 0.13105 0.72307 0.33137 0.0
H550 H 0.12331 0.6917 0.29451 0.0
H551 H 0.14609 0.67748 0.30219 0.0
H552 H 0.19742 0.61875 0.32189 0.0
H553 H 0.18959 0.64236 0.33316 0.0
H554 H 0.24447 0.63054 0.33105 0.0
H555 H 0.23645 0.65403 0.34229 0.0
H556 H 0.22679 0.70086 0.40151 0.0
H557 H 0.19553 0.73773 0.40815 0.0
H558 H 0.18107 0.7298 0.38545 0.0
H559 H 0.21225 0.69286 0.37873 0.0
C560 C 0.82068 0.65044 0.34092 0.0
C561 C 0.82898 0.64601 0.32806 0.0
C562 C 0.81189 0.62434 0.32451 0.0
C563 C 0.8246 0.63302 0.3199 0.0
C564 C 0.80362 0.62881 0.33735 0.0
C565 C 0.80798 0.64177 0.34549 0.0
U566 U 0.84678 0.68479 0.34872 0.0
O567 O 0.84089 0.70787 0.35607 0.0
O568 O 0.85544 0.69365 0.37054 0.0
C569 C 0.84792 0.70644 0.36925 0.0
C570 C 0.82512 0.66395 0.34978 0.0
C571 C 0.83918 0.71098 0.38273 0.0
C572 C 0.81816 0.7073 0.40044 0.0
C573 C 0.82618 0.70279 0.38746 0.0
C574 C 0.83602 0.72819 0.40402 0.0
C575 C 0.82306 0.72002 0.4088 0.0
C576 C 0.84401 0.72369 0.39108 0.0
C577 C 0.88098 0.69275 0.32251 0.0
C578 C 0.89944 0.71316 0.32667 0.0
C579 C 0.90183 0.69674 0.30473 0.0
C580 C 0.88878 0.68868 0.30926 0.0
C581 C 0.90727 0.70901 0.31341 0.0
C582 C 0.88635 0.70507 0.33119 0.0
C583 C 0.86743 0.68388 0.32712 0.0
O584 O 0.83801 0.66292 0.35741 0.0
O585 O 0.82355 0.67708 0.34278 0.0
O586 O 0.85426 0.69074 0.32552 0.0
O587 O 0.86864 0.67641 0.34005 0.0
H588 H 0.83883 0.65257 0.32439 0.0
H589 H 0.83113 0.6297 0.31003 0.0
H590 H 0.7938 0.62224 0.34108 0.0
H591 H 0.80146 0.64502 0.35539 0.0
H592 H 0.8082 0.70085 0.40399 0.0
H593 H 0.82229 0.69293 0.38115 0.0
H594 H 0.83997 0.73801 0.41036 0.0
H595 H 0.85402 0.73013 0.38761 0.0
H596 H 0.90351 0.72258 0.33351 0.0
H597 H 0.90774 0.69338 0.29449 0.0
H598 H 0.8848 0.6792 0.30243 0.0
H599 H 0.88046 0.70836 0.34147 0.0
C600 C 0.83804 0.38124 0.32111 0.0
C601 C 0.82534 0.38579 0.3296 0.0
C602 C 0.82127 0.40696 0.31212 0.0
C603 C 0.81699 0.39859 0.32511 0.0
C604 C 0.83393 0.40233 0.30364 0.0
C605 C 0.84224 0.38957 0.30811 0.0
U606 U 0.84694 0.34712 0.34719 0.0
O607 O 0.85492 0.32432 0.34119 0.0
O608 O 0.86927 0.33911 0.35546 0.0
C609 C 0.86828 0.32634 0.34781 0.0
C610 C 0.84717 0.36798 0.32563 0.0
C611 C 0.88194 0.32207 0.33897 0.0
C612 C 0.90865 0.31467 0.33888 0.0
C613 C 0.89575 0.31957 0.34673 0.0
C614 C 0.89424 0.31478 0.31528 0.0
C615 C 0.90795 0.31211 0.32314 0.0
C616 C 0.88133 0.31976 0.32312 0.0
C617 C 0.82113 0.33826 0.38158 0.0
C618 C 0.82488 0.31704 0.39903 0.0
C619 C 0.80403 0.33444 0.40302 0.0
C620 C 0.80847 0.34272 0.39012 0.0
C621 C 0.8122 0.32156 0.40759 0.0
C622 C 0.82933 0.32536 0.38609 0.0
C623 C 0.8255 0.34725 0.36806 0.0
O624 O 0.85483 0.36931 0.33846 0.0
O625 O 0.84047 0.35465 0.32411 0.0
O626 O 0.82397 0.34037 0.35488 0.0
O627 O 0.83828 0.3551 0.36921 0.0
H628 H 0.82193 0.37949 0.33967 0.0
H629 H 0.80725 0.402 0.33178 0.0
H630 H 0.83739 0.40865 0.2936 0.0
H631 H 0.85201 0.38623 0.30144 0.0
H632 H 0.91914 0.31266 0.34512 0.0
H633 H 0.8965 0.32121 0.35893 0.0
H634 H 0.89351 0.31286 0.30312 0.0
H635 H 0.87086 0.32161 0.31681 0.0
H636 H 0.83131 0.30712 0.40239 0.0
H637 H 0.79423 0.33809 0.40947 0.0
H638 H 0.802 0.35264 0.3868 0.0
H639 H 0.83914 0.32175 0.37963 0.0
C640 C 0.69432 0.15095 0.71333 0.0
C641 C 0.70738 0.14673 0.70523 0.0
C642 C 0.71106 0.12523 0.72239 0.0
C643 C 0.71572 0.13394 0.70975 0.0
C644 C 0.69802 0.12952 0.73047 0.0
C645 C 0.68972 0.14227 0.72597 0.0
U646 U 0.68574 0.18536 0.68751 0.0
O647 O 0.66365 0.19382 0.67928 0.0
O648 O 0.678 0.2082 0.69396 0.0
C649 C 0.66466 0.20641 0.68726 0.0
C650 C 0.68531 0.16431 0.70888 0.0
C651 C 0.65109 0.21072 0.69627 0.0
C652 C 0.63757 0.22999 0.71064 0.0
C653 C 0.65062 0.22519 0.70295 0.0
C654 C 0.62517 0.20591 0.70522 0.0
C655 C 0.62471 0.22044 0.7117 0.0
C656 C 0.63824 0.20106 0.69759 0.0
C657 C 0.71178 0.19411 0.65317 0.0
C658 C 0.70814 0.21508 0.63539 0.0
C659 C 0.72919 0.1978 0.63196 0.0
C660 C 0.72462 0.18965 0.6449 0.0
C661 C 0.72099 0.21055 0.62709 0.0
C662 C 0.70355 0.2069 0.64837 0.0
C663 C 0.70721 0.18517 0.66666 0.0
O664 O 0.69213 0.17756 0.71051 0.0
O665 O 0.67764 0.16315 0.69603 0.0
O666 O 0.69434 0.17748 0.66542 0.0
O667 O 0.70878 0.19198 0.67987 0.0
H668 H 0.7111 0.15331 0.69544 0.0
H669 H 0.72576 0.1308 0.70339 0.0
H670 H 0.69426 0.12295 0.74024 0.0
H671 H 0.67968 0.14536 0.73236 0.0
H672 H 0.6374 0.24125 0.71553 0.0
H673 H 0.66028 0.2329 0.70201 0.0
H674 H 0.61532 0.1984 0.70592 0.0
H675 H 0.63818 0.18986 0.69254 0.0
H676 H 0.70169 0.2249 0.6318 0.0
H677 H 0.73912 0.19414 0.62571 0.0
H678 H 0.7311 0.17982 0.64843 0.0
H679 H 0.6936 0.2105 0.65462 0.0
C680 C 0.31942 0.19318 0.65237 0.0
C681 C 0.32797 0.20579 0.64733 0.0
C682 C 0.31032 0.20933 0.62617 0.0
C683 C 0.32345 0.21383 0.63428 0.0
C684 C 0.30178 0.19675 0.63126 0.0
C685 C 0.30631 0.18873 0.64427 0.0
U686 U 0.34574 0.18624 0.68661 0.0
O687 O 0.33991 0.17891 0.70993 0.0
O688 O 0.35477 0.16487 0.69582 0.0
C689 C 0.34698 0.1659 0.70854 0.0
C690 C 0.32399 0.18449 0.66597 0.0
C691 C 0.33826 0.15223 0.71325 0.0
C692 C 0.32765 0.13665 0.73364 0.0
C693 C 0.33536 0.14977 0.72878 0.0
C694 C 0.32548 0.12824 0.70748 0.0
C695 C 0.32278 0.12575 0.72304 0.0
C696 C 0.33311 0.14143 0.70259 0.0
C697 C 0.37965 0.21312 0.69395 0.0
C698 C 0.39817 0.20915 0.71427 0.0
C699 C 0.40047 0.23116 0.6977 0.0
C700 C 0.3874 0.22649 0.68975 0.0
C701 C 0.40597 0.2225 0.70997 0.0
C702 C 0.38506 0.20448 0.7063 0.0
C703 C 0.36612 0.20829 0.68519 0.0
O704 O 0.33696 0.17721 0.66491 0.0
O705 O 0.3224 0.19151 0.67903 0.0
O706 O 0.35296 0.2096 0.69216 0.0
O707 O 0.36742 0.19542 0.67781 0.0
H708 H 0.33813 0.20938 0.65346 0.0
H709 H 0.33018 0.2235 0.63048 0.0
H710 H 0.29165 0.19312 0.62512 0.0
H711 H 0.29958 0.17902 0.648 0.0
H712 H 0.32566 0.13488 0.74569 0.0
H713 H 0.33922 0.15795 0.73718 0.0
H714 H 0.32177 0.11992 0.69916 0.0
H715 H 0.33511 0.14308 0.69053 0.0
H716 H 0.40228 0.20233 0.7237 0.0
H717 H 0.40637 0.24147 0.69423 0.0
H718 H 0.38339 0.23328 0.68024 0.0
H719 H 0.3792 0.19412 0.70969 0.0
C720 C 0.32077 0.83937 0.65172 0.0
C721 C 0.32973 0.82739 0.64639 0.0
C722 C 0.31177 0.82306 0.62556 0.0
C723 C 0.32526 0.81929 0.63336 0.0
C724 C 0.30281 0.83499 0.63098 0.0
C725 C 0.30728 0.84307 0.64396 0.0
U726 U 0.34689 0.84769 0.68611 0.0
O727 O 0.35528 0.86968 0.69475 0.0
O728 O 0.34078 0.85521 0.70916 0.0
C729 C 0.34774 0.86841 0.7076 0.0
C730 C 0.32529 0.84826 0.66522 0.0
C731 C 0.33894 0.88182 0.71215 0.0
C732 C 0.31832 0.89976 0.70813 0.0
C733 C 0.32634 0.88683 0.70362 0.0
C734 C 0.33538 0.90272 0.72974 0.0
C735 C 0.32282 0.90779 0.72123 0.0
C736 C 0.34337 0.88983 0.72523 0.0
C737 C 0.38129 0.82195 0.69432 0.0
C738 C 0.39933 0.82589 0.71513 0.0
C739 C 0.40244 0.80463 0.69802 0.0
C740 C 0.38944 0.80908 0.68992 0.0
C741 C 0.4075 0.813 0.71067 0.0
C742 C 0.38629 0.83034 0.707 0.0
C743 C 0.36773 0.8264 0.68545 0.0
O744 O 0.32374 0.84134 0.67843 0.0
O745 O 0.33816 0.85597 0.66408 0.0
O746 O 0.36891 0.83926 0.67785 0.0
O747 O 0.35454 0.82473 0.69234 0.0
H748 H 0.34019 0.82438 0.65224 0.0
H749 H 0.33233 0.81013 0.62932 0.0
H750 H 0.29239 0.83807 0.6251 0.0
H751 H 0.30022 0.85228 0.6479 0.0
H752 H 0.30868 0.90354 0.70141 0.0
H753 H 0.32276 0.88078 0.69347 0.0
H754 H 0.33903 0.90878 0.73985 0.0
H755 H 0.35307 0.88615 0.73194 0.0
H756 H 0.40309 0.8325 0.72485 0.0
H757 H 0.40861 0.79468 0.69441 0.0
H758 H 0.38577 0.80247 0.68017 0.0
H759 H 0.38013 0.84032 0.71056 0.0
C760 C 0.65307 0.81856 0.69545 0.0
C761 C 0.64816 0.82727 0.70783 0.0
C762 C 0.62668 0.80995 0.71167 0.0
C763 C 0.63502 0.82298 0.7159 0.0
C764 C 0.63169 0.80121 0.69938 0.0
C765 C 0.64479 0.80549 0.69133 0.0
U766 U 0.68704 0.84507 0.68679 0.0
O767 O 0.71014 0.8397 0.67892 0.0
O768 O 0.69513 0.85358 0.66455 0.0
C769 C 0.70807 0.84622 0.66557 0.0
C770 C 0.6665 0.82309 0.68643 0.0
C771 C 0.71242 0.83734 0.65202 0.0
C772 C 0.72088 0.83705 0.62565 0.0
C773 C 0.71618 0.84507 0.6385 0.0
C774 C 0.71809 0.81338 0.63958 0.0
C775 C 0.72198 0.82118 0.62615 0.0
C776 C 0.71329 0.82139 0.65242 0.0
C777 C 0.69424 0.87984 0.71285 0.0
C778 C 0.70573 0.90447 0.70718 0.0
C779 C 0.7021 0.89679 0.73322 0.0
C780 C 0.69611 0.88284 0.72835 0.0
C781 C 0.70546 0.90867 0.72277 0.0
C782 C 0.69977 0.89048 0.70227 0.0
C783 C 0.6861 0.86584 0.70814 0.0
O784 O 0.66512 0.83577 0.67861 0.0
O785 O 0.67979 0.8219 0.6933 0.0
O786 O 0.69352 0.85303 0.70974 0.0
O787 O 0.67818 0.86662 0.69541 0.0
H788 H 0.6544 0.83742 0.71113 0.0
H789 H 0.63128 0.82987 0.72534 0.0
H790 H 0.62537 0.79114 0.69595 0.0
H791 H 0.64839 0.79866 0.68179 0.0
H792 H 0.72384 0.84324 0.61537 0.0
H793 H 0.7156 0.85734 0.63793 0.0
H794 H 0.71886 0.80111 0.64013 0.0
H795 H 0.71039 0.81512 0.66267 0.0
H796 H 0.71062 0.91172 0.69853 0.0
H797 H 0.70404 0.89796 0.7453 0.0
H798 H 0.69277 0.87443 0.73678 0.0
H799 H 0.69938 0.88804 0.69019 0.0
C800 C 0.65309 0.81834 0.34116 0.0
C801 C 0.64825 0.8264 0.3282 0.0
C802 C 0.62674 0.80897 0.32518 0.0
C803 C 0.63514 0.82173 0.32025 0.0
C804 C 0.63164 0.80091 0.33811 0.0
C805 C 0.64473 0.80557 0.34604 0.0
U806 U 0.68703 0.84521 0.34794 0.0
O807 O 0.69625 0.85428 0.36943 0.0
O808 O 0.71055 0.84005 0.35498 0.0
C809 C 0.70921 0.84704 0.36809 0.0
C810 C 0.66674 0.8231 0.34977 0.0
C811 C 0.71404 0.83832 0.38158 0.0
C812 C 0.71065 0.81726 0.39931 0.0
C813 C 0.70593 0.82531 0.38634 0.0
C814 C 0.73159 0.83512 0.40282 0.0
C815 C 0.72349 0.82215 0.40765 0.0
C816 C 0.72689 0.84315 0.38988 0.0
C817 C 0.69358 0.87917 0.32122 0.0
C818 C 0.71394 0.89776 0.32503 0.0
C819 C 0.69685 0.90009 0.30336 0.0
C820 C 0.68904 0.88696 0.30803 0.0
C821 C 0.70932 0.9056 0.31184 0.0
C822 C 0.70611 0.8846 0.32969 0.0
C823 C 0.68502 0.86552 0.32602 0.0
O824 O 0.67978 0.82182 0.34258 0.0
O825 O 0.66555 0.83596 0.35719 0.0
O826 O 0.67776 0.86662 0.33902 0.0
O827 O 0.69218 0.85257 0.32451 0.0
H828 H 0.65458 0.8363 0.32429 0.0
H829 H 0.63151 0.82807 0.31029 0.0
H830 H 0.62529 0.79105 0.34206 0.0
H831 H 0.64831 0.79923 0.35602 0.0
H832 H 0.70427 0.80727 0.40288 0.0
H833 H 0.69598 0.82144 0.38006 0.0
H834 H 0.74151 0.83905 0.40913 0.0
H835 H 0.73326 0.85316 0.38636 0.0
H836 H 0.72352 0.90189 0.33171 0.0
H837 H 0.69314 0.90602 0.29318 0.0
H838 H 0.6794 0.88293 0.30136 0.0
H839 H 0.70976 0.8787 0.33992 0.0
C840 C 0.65207 0.19307 0.32123 0.0
C841 C 0.64789 0.20613 0.32929 0.0
C842 C 0.62636 0.20986 0.31208 0.0
C843 C 0.63511 0.21449 0.32473 0.0
C844 C 0.63061 0.19684 0.30404 0.0
C845 C 0.64336 0.18852 0.30859 0.0
U846 U 0.68609 0.18447 0.3476 0.0
O847 O 0.69427 0.16241 0.35608 0.0
O848 O 0.70911 0.17667 0.34179 0.0
C849 C 0.70724 0.1635 0.34868 0.0
C850 C 0.66537 0.184 0.32583 0.0
C851 C 0.71158 0.15002 0.33987 0.0
C852 C 0.70845 0.13322 0.31812 0.0
C853 C 0.70401 0.14608 0.32629 0.0
C854 C 0.72798 0.12811 0.33704 0.0
C855 C 0.72047 0.12414 0.32346 0.0
C856 C 0.72357 0.14095 0.34517 0.0
C857 C 0.69436 0.21038 0.38195 0.0
C858 C 0.71527 0.20664 0.39988 0.0
C859 C 0.69786 0.22756 0.4033 0.0
C860 C 0.68979 0.22309 0.39027 0.0
C861 C 0.71064 0.21937 0.40821 0.0
C862 C 0.70716 0.20216 0.3868 0.0
C863 C 0.68554 0.20592 0.36834 0.0
O864 O 0.67875 0.19072 0.32441 0.0
O865 O 0.66396 0.17639 0.33866 0.0
O866 O 0.67772 0.19315 0.36946 0.0
O867 O 0.69261 0.20742 0.35524 0.0
H868 H 0.65449 0.20981 0.33909 0.0
H869 H 0.632 0.22451 0.33105 0.0
H870 H 0.624 0.19311 0.29427 0.0
H871 H 0.64642 0.17848 0.30225 0.0
H872 H 0.70253 0.13033 0.30765 0.0
H873 H 0.69473 0.15296 0.32203 0.0
H874 H 0.73727 0.12125 0.34132 0.0
H875 H 0.72953 0.14381 0.35562 0.0
H876 H 0.72508 0.20017 0.40353 0.0
H877 H 0.69412 0.23739 0.4096 0.0
H878 H 0.67994 0.22956 0.3867 0.0
H879 H 0.71084 0.1923 0.38052 0.0
C880 C 0.3185 0.15258 0.33933 0.0
C881 C 0.32694 0.14792 0.32664 0.0
C882 C 0.30981 0.12625 0.32323 0.0
C883 C 0.32261 0.13481 0.31863 0.0
C884 C 0.30135 0.13101 0.33584 0.0
C885 C 0.30567 0.14408 0.34382 0.0
U886 U 0.34515 0.18645 0.34773 0.0
O887 O 0.33978 0.20949 0.35551 0.0
O888 O 0.35378 0.19461 0.36989 0.0
C889 C 0.34636 0.20748 0.36885 0.0
C890 C 0.32308 0.166 0.34826 0.0
C891 C 0.33751 0.21189 0.38243 0.0
C892 C 0.33734 0.21951 0.40906 0.0
C893 C 0.34527 0.2147 0.39618 0.0
C894 C 0.31367 0.21874 0.39471 0.0
C895 C 0.32152 0.22168 0.40837 0.0
C896 C 0.32159 0.21383 0.38184 0.0
C897 C 0.38 0.19352 0.32154 0.0
C898 C 0.40463 0.20522 0.32715 0.0
C899 C 0.39711 0.20109 0.30114 0.0
C900 C 0.38311 0.19512 0.30602 0.0
C901 C 0.40896 0.20469 0.3116 0.0
C902 C 0.39058 0.19928 0.33208 0.0
C903 C 0.36595 0.18543 0.3263 0.0
O904 O 0.33585 0.16467 0.35604 0.0
O905 O 0.32186 0.1792 0.34133 0.0
O906 O 0.35308 0.19282 0.32471 0.0
O907 O 0.36677 0.17761 0.33907 0.0
H908 H 0.33692 0.15433 0.32305 0.0
H909 H 0.32929 0.13127 0.30895 0.0
H910 H 0.29146 0.12452 0.33955 0.0
H911 H 0.29905 0.14749 0.3536 0.0
H912 H 0.34357 0.22173 0.41951 0.0
H913 H 0.35752 0.21331 0.39692 0.0
H914 H 0.30145 0.22035 0.39401 0.0
H915 H 0.31528 0.21171 0.37142 0.0
H916 H 0.41182 0.21028 0.33576 0.0
H917 H 0.39837 0.20281 0.28903 0.0
H918 H 0.37473 0.19159 0.2976 0.0
H919 H 0.38805 0.1991 0.34415 0.0
C920 C 0.33961 0.88141 0.32142 0.0
C921 C 0.32628 0.88532 0.32926 0.0
C922 C 0.32291 0.90723 0.31256 0.0
C923 C 0.31797 0.89816 0.32485 0.0
C924 C 0.33622 0.90327 0.30476 0.0
C925 C 0.3445 0.89047 0.30916 0.0
U926 U 0.34815 0.84652 0.34669 0.0
O927 O 0.35634 0.82399 0.33974 0.0
O928 O 0.37024 0.83816 0.35499 0.0
C929 C 0.36954 0.82578 0.34669 0.0
C930 C 0.34861 0.868 0.32575 0.0
C931 C 0.38319 0.82259 0.33749 0.0
C932 C 0.40376 0.83103 0.32086 0.0
C933 C 0.39044 0.83411 0.32898 0.0
C934 C 0.40256 0.80479 0.32928 0.0
C935 C 0.40997 0.81637 0.32103 0.0
C936 C 0.38928 0.8079 0.33748 0.0
C937 C 0.3219 0.83713 0.3808 0.0
C938 C 0.32596 0.81664 0.39905 0.0
C939 C 0.30423 0.8332 0.40175 0.0
C940 C 0.30874 0.84125 0.38873 0.0
C941 C 0.31281 0.82087 0.40703 0.0
C942 C 0.33049 0.82473 0.38599 0.0
C943 C 0.32653 0.84616 0.36739 0.0
O944 O 0.35613 0.86896 0.33869 0.0
O945 O 0.34186 0.85475 0.32381 0.0
O946 O 0.32516 0.83944 0.35411 0.0
O947 O 0.3393 0.85398 0.36881 0.0
H948 H 0.32234 0.87845 0.33876 0.0
H949 H 0.30772 0.90104 0.33099 0.0
H950 H 0.3402 0.91012 0.29527 0.0
H951 H 0.35475 0.88763 0.30298 0.0
H952 H 0.40933 0.8401 0.31456 0.0
H953 H 0.3859 0.84551 0.32878 0.0
H954 H 0.4072 0.79344 0.32956 0.0
H955 H 0.38384 0.79886 0.34396 0.0
H956 H 0.33275 0.80718 0.403 0.0
H957 H 0.29408 0.83665 0.40777 0.0
H958 H 0.30199 0.8508 0.38492 0.0
H959 H 0.34071 0.8214 0.38002 0.0
C960 C 0.69417 0.65193 0.21395 0.0
C961 C 0.70724 0.64762 0.20591 0.0
C962 C 0.71058 0.62601 0.223 0.0
C963 C 0.71542 0.63473 0.21043 0.0
C964 C 0.69753 0.63038 0.23101 0.0
C965 C 0.68939 0.64324 0.22651 0.0
U966 U 0.686 0.68612 0.1878 0.0
O967 O 0.66394 0.69472 0.17955 0.0
O968 O 0.6786 0.70913 0.19386 0.0
C969 C 0.66528 0.70753 0.18709 0.0
C970 C 0.6853 0.66537 0.20944 0.0
C971 C 0.6519 0.71192 0.19611 0.0
C972 C 0.63469 0.70815 0.21751 0.0
C973 C 0.64752 0.70375 0.20919 0.0
C974 C 0.63053 0.72891 0.19979 0.0
C975 C 0.6261 0.72075 0.21283 0.0
C976 C 0.64333 0.72452 0.19149 0.0
C977 C 0.71202 0.69404 0.15328 0.0
C978 C 0.70766 0.71377 0.13428 0.0
C979 C 0.73021 0.69813 0.1328 0.0
C980 C 0.72562 0.69027 0.14591 0.0
C981 C 0.72126 0.70991 0.12686 0.0
C982 C 0.70307 0.70588 0.14743 0.0
C983 C 0.7074 0.68533 0.1669 0.0
O984 O 0.69232 0.67855 0.21089 0.0
O985 O 0.67756 0.66417 0.19664 0.0
O986 O 0.69442 0.67779 0.16582 0.0
O987 O 0.70911 0.69229 0.18002 0.0
H988 H 0.71109 0.6542 0.19618 0.0
H989 H 0.72547 0.63152 0.20412 0.0
H990 H 0.69364 0.6238 0.24072 0.0
H991 H 0.67933 0.6464 0.23284 0.0
H992 H 0.63143 0.70174 0.22756 0.0
H993 H 0.65401 0.69399 0.21292 0.0
H994 H 0.62405 0.73865 0.19601 0.0
H995 H 0.64654 0.73095 0.18143 0.0
H996 H 0.7006 0.72281 0.12983 0.0
H997 H 0.74071 0.69499 0.12723 0.0
H998 H 0.73267 0.68117 0.15025 0.0
H999 H 0.69253 0.70895 0.15299 0.0
C1000 C 0.31792 0.69445 0.1555 0.0
C1001 C 0.30237 0.69736 0.15315 0.0
C1002 C 0.30805 0.70966 0.12896 0.0
C1003 C 0.29747 0.70495 0.13999 0.0
C1004 C 0.32363 0.70696 0.13136 0.0
C1005 C 0.32856 0.69947 0.14458 0.0
U1006 U 0.34521 0.68703 0.18897 0.0
O1007 O 0.34033 0.67975 0.21249 0.0
O1008 O 0.35428 0.66548 0.19774 0.0
C1009 C 0.34729 0.6667 0.21088 0.0
C1010 C 0.32271 0.68579 0.16915 0.0
C1011 C 0.33869 0.65315 0.21591 0.0
C1012 C 0.31832 0.63451 0.21241 0.0
C1013 C 0.32609 0.64765 0.20758 0.0
C1014 C 0.33557 0.63237 0.23397 0.0
C1015 C 0.32305 0.62677 0.22561 0.0
C1016 C 0.34332 0.64547 0.22914 0.0
C1017 C 0.38013 0.71356 0.19421 0.0
C1018 C 0.40432 0.70802 0.20655 0.0
C1019 C 0.39798 0.73385 0.20048 0.0
C1020 C 0.38387 0.72901 0.1947 0.0
C1021 C 0.4093 0.72334 0.20502 0.0
C1022 C 0.39016 0.70314 0.20082 0.0
C1023 C 0.36591 0.70868 0.18655 0.0
O1024 O 0.33529 0.67789 0.16786 0.0
O1025 O 0.32171 0.69292 0.18222 0.0
O1026 O 0.35323 0.71025 0.1943 0.0
O1027 O 0.3665 0.69582 0.17903 0.0
H1028 H 0.29399 0.6936 0.16141 0.0
H1029 H 0.2854 0.70694 0.13829 0.0
H1030 H 0.33195 0.71055 0.12296 0.0
H1031 H 0.34064 0.69745 0.14615 0.0
H1032 H 0.3087 0.63032 0.20582 0.0
H1033 H 0.32237 0.65345 0.19733 0.0
H1034 H 0.33937 0.62652 0.24416 0.0
H1035 H 0.35302 0.64956 0.23569 0.0
H1036 H 0.41111 0.69957 0.21228 0.0
H1037 H 0.39968 0.74596 0.20138 0.0
H1038 H 0.37588 0.73738 0.1905 0.0
H1039 H 0.38711 0.6912 0.20148 0.0
C1040 C 0.32171 0.3393 0.15181 0.0
C1041 C 0.33059 0.32724 0.14652 0.0
C1042 C 0.31245 0.32276 0.12589 0.0
C1043 C 0.32599 0.31902 0.13362 0.0
C1044 C 0.30356 0.33476 0.13127 0.0
C1045 C 0.30816 0.34296 0.14413 0.0
U1046 U 0.34806 0.34777 0.18598 0.0
O1047 O 0.35676 0.36977 0.19427 0.0
O1048 O 0.34212 0.3557 0.20893 0.0
C1049 C 0.3492 0.36881 0.20713 0.0
C1050 C 0.32639 0.34833 0.16516 0.0
C1051 C 0.3405 0.38238 0.21139 0.0
C1052 C 0.32047 0.40078 0.20658 0.0
C1053 C 0.32841 0.38772 0.20233 0.0
C1054 C 0.33655 0.4032 0.22899 0.0
C1055 C 0.32451 0.40861 0.21995 0.0
C1056 C 0.34447 0.39019 0.22474 0.0
C1057 C 0.3821 0.32154 0.19435 0.0
C1058 C 0.39994 0.32492 0.21542 0.0
C1059 C 0.40327 0.30419 0.19772 0.0
C1060 C 0.39034 0.30883 0.18964 0.0
C1061 C 0.40818 0.31219 0.21066 0.0
C1062 C 0.38696 0.32958 0.20731 0.0
C1063 C 0.36857 0.32616 0.18552 0.0
O1064 O 0.3248 0.34163 0.17847 0.0
O1065 O 0.33935 0.35585 0.16386 0.0
O1066 O 0.36992 0.33891 0.17777 0.0
O1067 O 0.35539 0.32479 0.1925 0.0
H1068 H 0.34109 0.32425 0.15232 0.0
H1069 H 0.333 0.30981 0.12961 0.0
H1070 H 0.2931 0.33782 0.12544 0.0
H1071 H 0.30117 0.35223 0.14804 0.0
H1072 H 0.31122 0.40481 0.19946 0.0
H1073 H 0.32519 0.38183 0.19199 0.0
H1074 H 0.33983 0.4091 0.23932 0.0
H1075 H 0.35376 0.38624 0.23186 0.0
H1076 H 0.4036 0.33125 0.22536 0.0
H1077 H 0.4095 0.29436 0.19388 0.0
H1078 H 0.38676 0.3025 0.17967 0.0
H1079 H 0.38075 0.33943 0.2111 0.0
C1080 C 0.65256 0.3192 0.19417 0.0
C1081 C 0.64777 0.32782 0.20666 0.0
C1082 C 0.62622 0.31058 0.21049 0.0
C1083 C 0.63467 0.32354 0.21478 0.0
C1084 C 0.63109 0.30195 0.19806 0.0
C1085 C 0.64417 0.30623 0.18996 0.0
U1086 U 0.68666 0.34558 0.186 0.0
O1087 O 0.70986 0.34009 0.17839 0.0
O1088 O 0.69516 0.3543 0.16406 0.0
C1089 C 0.70814 0.34702 0.1652 0.0
C1090 C 0.66607 0.32367 0.18523 0.0
C1091 C 0.71265 0.33831 0.1517 0.0
C1092 C 0.70851 0.31775 0.13366 0.0
C1093 C 0.70405 0.32574 0.14666 0.0
C1094 C 0.73022 0.33478 0.1307 0.0
C1095 C 0.72163 0.32225 0.12559 0.0
C1096 C 0.72575 0.34274 0.14366 0.0
C1097 C 0.69355 0.38014 0.21238 0.0
C1098 C 0.70513 0.40477 0.20694 0.0
C1099 C 0.70109 0.39705 0.2329 0.0
C1100 C 0.69517 0.38311 0.22792 0.0
C1101 C 0.7046 0.40895 0.22252 0.0
C1102 C 0.69925 0.39079 0.20191 0.0
C1103 C 0.68546 0.36617 0.20752 0.0
O1104 O 0.66483 0.33639 0.17746 0.0
O1105 O 0.6793 0.32238 0.1922 0.0
O1106 O 0.69286 0.35334 0.2091 0.0
O1107 O 0.67769 0.36704 0.1947 0.0
H1108 H 0.65411 0.33789 0.21005 0.0
H1109 H 0.63105 0.33035 0.22432 0.0
H1110 H 0.6247 0.29195 0.19458 0.0
H1111 H 0.64768 0.29946 0.18035 0.0
H1112 H 0.70174 0.30813 0.12985 0.0
H1113 H 0.69389 0.32216 0.15274 0.0
H1114 H 0.74034 0.33842 0.1246 0.0
H1115 H 0.73252 0.35241 0.14738 0.0
H1116 H 0.71014 0.41205 0.19838 0.0
H1117 H 0.70284 0.3982 0.24501 0.0
H1118 H 0.69169 0.37468 0.23628 0.0
H1119 H 0.69906 0.38838 0.18982 0.0
C1120 C 0.65222 0.31988 0.84013 0.0
C1121 C 0.65008 0.3045 0.83646 0.0
C1122 C 0.62575 0.31018 0.82448 0.0
C1123 C 0.63697 0.29968 0.82865 0.0
C1124 C 0.6279 0.32559 0.82797 0.0
C1125 C 0.64108 0.33043 0.83568 0.0
U1126 U 0.68641 0.34645 0.84774 0.0
O1127 O 0.69559 0.35514 0.86941 0.0
O1128 O 0.70985 0.34096 0.85486 0.0
C1129 C 0.70852 0.34784 0.86803 0.0
C1130 C 0.66592 0.32452 0.84888 0.0
C1131 C 0.71332 0.33905 0.88148 0.0
C1132 C 0.70937 0.31854 0.89974 0.0
C1133 C 0.70472 0.32654 0.88671 0.0
C1134 C 0.73125 0.33541 0.90232 0.0
C1135 C 0.72264 0.32297 0.90764 0.0
C1136 C 0.72661 0.34339 0.88933 0.0
C1137 C 0.69347 0.38076 0.82162 0.0
C1138 C 0.71401 0.39906 0.82583 0.0
C1139 C 0.6973 0.40173 0.80392 0.0
C1140 C 0.68923 0.38869 0.8084 0.0
C1141 C 0.70972 0.40701 0.8126 0.0
C1142 C 0.70593 0.38599 0.83031 0.0
C1143 C 0.68473 0.36714 0.82615 0.0
O1144 O 0.67903 0.3232 0.84182 0.0
O1145 O 0.66491 0.33713 0.85677 0.0
O1146 O 0.67739 0.36809 0.83912 0.0
O1147 O 0.69178 0.35415 0.82448 0.0
H1148 H 0.65852 0.29618 0.83977 0.0
H1149 H 0.63546 0.28774 0.82605 0.0
H1150 H 0.61933 0.33382 0.8248 0.0
H1151 H 0.64246 0.34238 0.83829 0.0
H1152 H 0.70258 0.30898 0.90372 0.0
H1153 H 0.69441 0.32305 0.88078 0.0
H1154 H 0.74151 0.33898 0.9083 0.0
H1155 H 0.73336 0.35302 0.88545 0.0
H1156 H 0.72356 0.40301 0.83267 0.0
H1157 H 0.69383 0.40774 0.7937 0.0
H1158 H 0.67965 0.38481 0.80157 0.0
H1159 H 0.70936 0.37998 0.84055 0.0
C1160 C 0.65108 0.69384 0.82171 0.0
C1161 C 0.64716 0.70705 0.82965 0.0
C1162 C 0.62527 0.71064 0.81285 0.0
C1163 C 0.63432 0.71542 0.82523 0.0
C1164 C 0.62925 0.69746 0.80494 0.0
C1165 C 0.64205 0.68913 0.80934 0.0
U1166 U 0.68549 0.6849 0.84756 0.0
O1167 O 0.69362 0.66264 0.85568 0.0
O1168 O 0.70838 0.67703 0.8414 0.0
C1169 C 0.70639 0.66368 0.84793 0.0
C1170 C 0.66443 0.68474 0.82612 0.0
C1171 C 0.71062 0.65012 0.83898 0.0
C1172 C 0.71708 0.62326 0.83857 0.0
C1173 C 0.7122 0.63608 0.84648 0.0
C1174 C 0.71883 0.63821 0.8154 0.0
C1175 C 0.72056 0.62427 0.82302 0.0
C1176 C 0.71387 0.65104 0.8233 0.0
C1177 C 0.69446 0.71052 0.88202 0.0
C1178 C 0.7161 0.70715 0.89914 0.0
C1179 C 0.69807 0.72732 0.90366 0.0
C1180 C 0.68972 0.72285 0.8908 0.0
C1181 C 0.71131 0.71951 0.90794 0.0
C1182 C 0.70771 0.70267 0.88625 0.0
C1183 C 0.68542 0.70615 0.86852 0.0
O1184 O 0.6778 0.69143 0.82456 0.0
O1185 O 0.66316 0.67706 0.83893 0.0
O1186 O 0.67757 0.6934 0.86968 0.0
O1187 O 0.69227 0.70774 0.85532 0.0
H1188 H 0.654 0.71084 0.83923 0.0
H1189 H 0.63142 0.72557 0.83145 0.0
H1190 H 0.62241 0.69361 0.79538 0.0
H1191 H 0.64489 0.67896 0.8031 0.0
H1192 H 0.71837 0.6126 0.84463 0.0
H1193 H 0.70986 0.63509 0.85855 0.0
H1194 H 0.72147 0.63917 0.8034 0.0
H1195 H 0.71278 0.66168 0.81717 0.0
H1196 H 0.7263 0.70101 0.90227 0.0
H1197 H 0.69421 0.73687 0.9103 0.0
H1198 H 0.67954 0.72905 0.88771 0.0
H1199 H 0.71154 0.69312 0.87959 0.0
C1200 C 0.32312 0.64865 0.84026 0.0
C1201 C 0.32501 0.64864 0.82444 0.0
C1202 C 0.31963 0.62117 0.82336 0.0
C1203 C 0.32281 0.63527 0.81608 0.0
C1204 C 0.31622 0.62189 0.83912 0.0
C1205 C 0.31829 0.63527 0.84745 0.0
U1206 U 0.34596 0.68479 0.84935 0.0
O1207 O 0.33838 0.7074 0.85658 0.0
O1208 O 0.35338 0.69405 0.87144 0.0
C1209 C 0.34522 0.70641 0.8699 0.0
C1210 C 0.32586 0.66245 0.84945 0.0
C1211 C 0.33611 0.7107 0.88323 0.0
C1212 C 0.31408 0.70749 0.89975 0.0
C1213 C 0.32243 0.70313 0.88692 0.0
C1214 C 0.33304 0.72694 0.90529 0.0
C1215 C 0.31937 0.71942 0.90903 0.0
C1216 C 0.34134 0.72261 0.89249 0.0
C1217 C 0.38094 0.69464 0.82433 0.0
C1218 C 0.40774 0.69594 0.81721 0.0
C1219 C 0.39257 0.71879 0.81684 0.0
C1220 C 0.37984 0.7104 0.82179 0.0
C1221 C 0.40656 0.71158 0.81443 0.0
C1222 C 0.39503 0.68754 0.82208 0.0
C1223 C 0.36755 0.68521 0.82866 0.0
O1224 O 0.33834 0.66238 0.8578 0.0
O1225 O 0.32352 0.67556 0.84261 0.0
O1226 O 0.35398 0.69112 0.82645 0.0
O1227 O 0.36869 0.67772 0.84159 0.0
H1228 H 0.32805 0.65902 0.81845 0.0
H1229 H 0.32329 0.63651 0.80391 0.0
H1230 H 0.31167 0.61221 0.84525 0.0
H1231 H 0.31603 0.63515 0.85958 0.0
H1232 H 0.30354 0.70157 0.90247 0.0
H1233 H 0.31824 0.69388 0.87991 0.0
H1234 H 0.33729 0.73616 0.91231 0.0
H1235 H 0.35188 0.72856 0.88983 0.0
H1236 H 0.41846 0.6902 0.8154 0.0
H1237 H 0.39149 0.73087 0.81474 0.0
H1238 H 0.36914 0.7162 0.82344 0.0
H1239 H 0.39614 0.67542 0.82391 0.0
C1240 C 0.33793 0.38129 0.82208 0.0
C1241 C 0.3456 0.39505 0.81901 0.0
C1242 C 0.32163 0.40711 0.8123 0.0
C1243 C 0.33752 0.40786 0.81421 0.0
C1244 C 0.31388 0.39345 0.81552 0.0
C1245 C 0.32195 0.38063 0.82041 0.0
U1246 U 0.34653 0.34648 0.8475 0.0
O1247 O 0.35416 0.32364 0.84105 0.0
O1248 O 0.36863 0.33794 0.85567 0.0
C1249 C 0.36739 0.32519 0.84801 0.0
C1250 C 0.34693 0.36777 0.82639 0.0
C1251 C 0.38091 0.32074 0.83923 0.0
C1252 C 0.3999 0.32551 0.81958 0.0
C1253 C 0.38685 0.32997 0.82754 0.0
C1254 C 0.40109 0.30254 0.83484 0.0
C1255 C 0.40712 0.31177 0.82322 0.0
C1256 C 0.38809 0.30699 0.84277 0.0
C1257 C 0.32056 0.33769 0.88184 0.0
C1258 C 0.32453 0.31692 0.89977 0.0
C1259 C 0.30322 0.33391 0.90308 0.0
C1260 C 0.30765 0.34202 0.89008 0.0
C1261 C 0.31163 0.32133 0.90805 0.0
C1262 C 0.32898 0.32506 0.88672 0.0
C1263 C 0.32508 0.34669 0.86837 0.0
O1264 O 0.35477 0.36876 0.83916 0.0
O1265 O 0.34032 0.35442 0.82452 0.0
O1266 O 0.32346 0.33994 0.85513 0.0
O1267 O 0.33798 0.35433 0.8696 0.0
H1268 H 0.35789 0.39584 0.82017 0.0
H1269 H 0.34368 0.41831 0.81177 0.0
H1270 H 0.30161 0.39269 0.81412 0.0
H1271 H 0.31571 0.37021 0.82272 0.0
H1272 H 0.40443 0.33279 0.81067 0.0
H1273 H 0.38145 0.34063 0.82464 0.0
H1274 H 0.40651 0.29192 0.83782 0.0
H1275 H 0.38367 0.29972 0.85175 0.0
H1276 H 0.33117 0.30726 0.90347 0.0
H1277 H 0.29326 0.33748 0.90934 0.0
H1278 H 0.30103 0.35174 0.88649 0.0
H1279 H 0.33899 0.32158 0.8805 0.0
C1280 C 0.25868 0.23985 0.06997 0.0
C1281 C 0.24285 0.2386 0.07208 0.0
C1282 C 0.26456 0.24657 0.05673 0.0
C1283 C 0.2547 0.25229 0.04544 0.0
C1284 C 0.23298 0.24414 0.06076 0.0
C1285 C 0.23886 0.25084 0.0475 0.0
C1286 C 0.26079 0.2593 0.03124 0.0
C1287 C 0.27468 0.29028 0.06955 0.0
C1288 C 0.2905 0.29172 0.07169 0.0
C1289 C 0.2688 0.28335 0.05644 0.0
C1290 C 0.27865 0.27759 0.0453 0.0
C1291 C 0.30037 0.28613 0.06053 0.0
C1292 C 0.29449 0.27921 0.0474 0.0
C1293 C 0.27253 0.27048 0.03119 0.0
C1294 C 0.27429 0.29046 0.96547 0.0
C1295 C 0.29009 0.29118 0.96301 0.0
C1296 C 0.26848 0.28376 0.97875 0.0
C1297 C 0.27838 0.27754 0.98973 0.0
C1298 C 0.30001 0.28513 0.97402 0.0
C1299 C 0.2942 0.27846 0.98733 0.0
C1300 C 0.27235 0.27052 1.00393 0.0
C1301 C 0.25699 0.24113 0.96495 0.0
C1302 C 0.24109 0.24074 0.96291 0.0
C1303 C 0.26337 0.24707 0.97832 0.0
C1304 C 0.25395 0.25282 0.98984 0.0
C1305 C 0.23167 0.24614 0.97454 0.0
C1306 C 0.23804 0.25205 0.98793 0.0
C1307 C 0.26054 0.25943 1.00399 0.0
H1308 H 0.26646 0.23553 0.07853 0.0
H1309 H 0.27681 0.24716 0.05527 0.0
H1310 H 0.22073 0.24321 0.06217 0.0
H1311 H 0.23103 0.25502 0.03891 0.0
H1312 H 0.26689 0.29464 0.07798 0.0
H1313 H 0.25654 0.28267 0.05493 0.0
H1314 H 0.31262 0.28722 0.06196 0.0
H1315 H 0.30232 0.27502 0.03892 0.0
H1316 H 0.26647 0.29517 0.95716 0.0
H1317 H 0.25626 0.28355 0.98048 0.0
H1318 H 0.31224 0.28565 0.97234 0.0
H1319 H 0.30206 0.27388 0.99569 0.0
H1320 H 0.26443 0.23688 0.95615 0.0
H1321 H 0.27566 0.24715 0.97967 0.0
H1322 H 0.21937 0.24586 0.97319 0.0
H1323 H 0.23055 0.25627 0.99669 0.0
N1324 N 0.25519 0.25433 0.01764 0.0
N1325 N 0.27792 0.27553 0.01753 0.0
C1326 C 0.77626 0.24276 0.96435 0.0
C1327 C 0.79216 0.24229 0.96259 0.0
C1328 C 0.76992 0.24864 0.97766 0.0
C1329 C 0.77939 0.25427 0.98938 0.0
C1330 C 0.80163 0.24757 0.97441 0.0
C1331 C 0.7953 0.25343 0.98772 0.0
C1332 C 0.77287 0.26077 1.00348 0.0
C1333 C 0.75982 0.29203 0.96508 0.0
C1334 C 0.74404 0.29281 0.96248 0.0
C1335 C 0.76546 0.28523 0.97835 0.0
C1336 C 0.7554 0.27894 0.98917 0.0
C1337 C 0.73396 0.28672 0.97334 0.0
C1338 C 0.7396 0.27993 0.98664 0.0
C1339 C 0.76124 0.27182 1.00336 0.0
C1340 C 0.75896 0.29111 0.06902 0.0
C1341 C 0.74315 0.29215 0.07114 0.0
C1342 C 0.76478 0.2844 0.05588 0.0
C1343 C 0.75487 0.27849 0.04469 0.0
C1344 C 0.73322 0.28639 0.05993 0.0
C1345 C 0.73904 0.27972 0.04675 0.0
C1346 C 0.76094 0.27156 0.03059 0.0
C1347 C 0.77411 0.24056 0.06914 0.0
C1348 C 0.78991 0.23952 0.07152 0.0
C1349 C 0.76841 0.24739 0.0559 0.0
C1350 C 0.77842 0.25341 0.0449 0.0
C1351 C 0.79993 0.2454 0.06051 0.0
C1352 C 0.79423 0.25219 0.04724 0.0
C1353 C 0.77251 0.26047 0.0307 0.0
H1354 H 0.76879 0.23861 0.9554 0.0
H1355 H 0.75763 0.24876 0.97881 0.0
H1356 H 0.81392 0.24722 0.97327 0.0
H1357 H 0.80283 0.25755 0.99664 0.0
H1358 H 0.76775 0.29679 0.95687 0.0
H1359 H 0.77768 0.28499 0.98022 0.0
H1360 H 0.72175 0.28729 0.97154 0.0
H1361 H 0.73163 0.2753 0.99488 0.0
H1362 H 0.76679 0.2956 0.07749 0.0
H1363 H 0.77703 0.28397 0.0544 0.0
H1364 H 0.72098 0.28716 0.06135 0.0
H1365 H 0.73118 0.27539 0.03823 0.0
H1366 H 0.76622 0.23597 0.07747 0.0
H1367 H 0.75617 0.24782 0.0542 0.0
H1368 H 0.81216 0.24463 0.06215 0.0
H1369 H 0.80216 0.25663 0.03886 0.0
N1370 N 0.77809 0.2556 0.01715 0.0
N1371 N 0.75568 0.27671 0.01692 0.0
C1372 C 0.77513 0.79104 0.06922 0.0
C1373 C 0.79095 0.79235 0.07148 0.0
C1374 C 0.7693 0.78418 0.05605 0.0
C1375 C 0.77919 0.77835 0.04498 0.0
C1376 C 0.80086 0.78671 0.06038 0.0
C1377 C 0.79502 0.77986 0.04719 0.0
C1378 C 0.7731 0.77121 0.03087 0.0
C1379 C 0.75921 0.74079 0.06977 0.0
C1380 C 0.74338 0.73944 0.0718 0.0
C1381 C 0.76511 0.74744 0.05651 0.0
C1382 C 0.75527 0.75303 0.04512 0.0
C1383 C 0.73353 0.74482 0.06038 0.0
C1384 C 0.73943 0.75147 0.04711 0.0
C1385 C 0.76139 0.76002 0.03092 0.0
C1386 C 0.7576 0.74178 0.96463 0.0
C1387 C 0.7417 0.74131 0.96264 0.0
C1388 C 0.76399 0.74778 0.97798 0.0
C1389 C 0.75458 0.75349 0.98952 0.0
C1390 C 0.73229 0.74668 0.97429 0.0
C1391 C 0.73867 0.75264 0.98765 0.0
C1392 C 0.76117 0.76012 1.00366 0.0
C1393 C 0.77495 0.79116 0.96513 0.0
C1394 C 0.79076 0.79203 0.96276 0.0
C1395 C 0.76912 0.78441 0.97837 0.0
C1396 C 0.77901 0.77827 0.98942 0.0
C1397 C 0.80067 0.78606 0.97384 0.0
C1398 C 0.79483 0.77933 0.9871 0.0
C1399 C 0.77295 0.77123 1.00361 0.0
H1400 H 0.76731 0.79544 0.0776 0.0
H1401 H 0.75704 0.78356 0.05446 0.0
H1402 H 0.8131 0.78769 0.06191 0.0
H1403 H 0.80287 0.7756 0.03877 0.0
H1404 H 0.76698 0.73659 0.0784 0.0
H1405 H 0.77737 0.74809 0.0551 0.0
H1406 H 0.72128 0.7438 0.06174 0.0
H1407 H 0.73161 0.75554 0.03845 0.0
H1408 H 0.76504 0.73757 0.95582 0.0
H1409 H 0.77629 0.74792 0.9793 0.0
H1410 H 0.71999 0.74633 0.97298 0.0
H1411 H 0.73118 0.75682 0.99643 0.0
H1412 H 0.76714 0.79581 0.95677 0.0
H1413 H 0.75688 0.78412 0.98004 0.0
H1414 H 0.81291 0.78669 0.97223 0.0
H1415 H 0.80268 0.77482 0.99551 0.0
N1416 N 0.7785 0.77627 0.01721 0.0
N1417 N 0.75581 0.75503 0.01732 0.0
C1418 C 0.27384 0.74162 0.96553 0.0
C1419 C 0.28972 0.74069 0.96379 0.0
C1420 C 0.26767 0.74756 0.97889 0.0
C1421 C 0.27729 0.75279 0.99067 0.0
C1422 C 0.29932 0.74552 0.97569 0.0
C1423 C 0.29315 0.75144 0.98905 0.0
C1424 C 0.27093 0.75949 1.00475 0.0
C1425 C 0.25939 0.79143 0.96638 0.0
C1426 C 0.24368 0.79262 0.96359 0.0
C1427 C 0.26466 0.78439 0.97969 0.0
C1428 C 0.25429 0.77834 0.99035 0.0
C1429 C 0.23329 0.78677 0.97428 0.0
C1430 C 0.23857 0.77977 0.98761 0.0
C1431 C 0.25975 0.77098 1.00457 0.0
C1432 C 0.25776 0.79028 0.07021 0.0
C1433 C 0.24199 0.79188 0.07224 0.0
C1434 C 0.2634 0.78339 0.05709 0.0
C1435 C 0.25335 0.77785 0.04584 0.0
C1436 C 0.23192 0.78651 0.06096 0.0
C1437 C 0.23757 0.77965 0.04781 0.0
C1438 C 0.25923 0.7707 0.03178 0.0
C1439 C 0.2709 0.73949 0.07057 0.0
C1440 C 0.28662 0.73822 0.07326 0.0
C1441 C 0.26557 0.74625 0.05714 0.0
C1442 C 0.2759 0.75194 0.04624 0.0
C1443 C 0.29696 0.74369 0.06233 0.0
C1444 C 0.29163 0.7504 0.04886 0.0
C1445 C 0.27036 0.75917 0.03197 0.0
H1446 H 0.26626 0.73781 0.95652 0.0
H1447 H 0.25539 0.74808 0.98001 0.0
H1448 H 0.3116 0.74481 0.97456 0.0
H1449 H 0.30079 0.75526 0.99802 0.0
H1450 H 0.26754 0.79599 0.95829 0.0
H1451 H 0.27684 0.78379 0.98171 0.0
H1452 H 0.22112 0.78769 0.97231 0.0
H1453 H 0.23037 0.77533 0.99573 0.0
H1454 H 0.2657 0.79447 0.07874 0.0
H1455 H 0.27563 0.78253 0.05568 0.0
H1456 H 0.21972 0.78771 0.06232 0.0
H1457 H 0.22961 0.77561 0.03923 0.0
H1458 H 0.26278 0.73522 0.07885 0.0
H1459 H 0.25338 0.74695 0.05523 0.0
H1460 H 0.30914 0.74271 0.06422 0.0
H1461 H 0.29979 0.75458 0.04058 0.0
N1462 N 0.27586 0.75411 0.01846 0.0
N1463 N 0.25428 0.77606 0.01808 0.0
C1464 C 0.96384 0.24198 0.25704 0.0
C1465 C 0.96172 0.24301 0.24122 0.0
C1466 C 0.97725 0.24759 0.26375 0.0
C1467 C 0.98867 0.25443 0.25476 0.0
C1468 C 0.9732 0.24958 0.23219 0.0
C1469 C 0.98663 0.25515 0.2389 0.0
C1470 C 1.00291 0.26051 0.26173 0.0
C1471 C 0.96449 0.28958 0.27821 0.0
C1472 C 0.96221 0.28882 0.294 0.0
C1473 C 0.97775 0.28367 0.27178 0.0
C1474 C 0.98888 0.27677 0.28104 0.0
C1475 C 0.97341 0.2822 0.3033 0.0
C1476 C 0.98668 0.27631 0.29688 0.0
C1477 C 1.003 0.2704 0.27438 0.0
C1478 C 0.06919 0.28901 0.2794 0.0
C1479 C 0.07128 0.28807 0.29522 0.0
C1480 C 0.05588 0.2832 0.27266 0.0
C1481 C 0.04451 0.27626 0.28165 0.0
C1482 C 0.05986 0.28136 0.30424 0.0
C1483 C 0.04653 0.2756 0.29751 0.0
C1484 C 0.03029 0.27013 0.27469 0.0
C1485 C 0.06886 0.24137 0.258 0.0
C1486 C 0.07098 0.24198 0.24217 0.0
C1487 C 0.05561 0.24722 0.2645 0.0
C1488 C 0.04432 0.25393 0.2553 0.0
C1489 C 0.05959 0.24837 0.23293 0.0
C1490 C 0.04634 0.25422 0.23943 0.0
C1491 C 0.0302 0.26024 0.26202 0.0
H1492 H 0.95511 0.23686 0.26415 0.0
H1493 H 0.97871 0.24654 0.27597 0.0
H1494 H 0.97175 0.25039 0.21995 0.0
H1495 H 0.99533 0.26023 0.23172 0.0
H1496 H 0.956 0.29474 0.27088 0.0
H1497 H 0.97933 0.28456 0.25958 0.0
H1498 H 0.97185 0.28157 0.31552 0.0
H1499 H 0.99515 0.27119 0.30427 0.0
H1500 H 0.07787 0.29424 0.27229 0.0
H1501 H 0.05443 0.28421 0.26044 0.0
H1502 H 0.06129 0.28061 0.31648 0.0
H1503 H 0.03787 0.27044 0.30468 0.0
H1504 H 0.07747 0.23635 0.26529 0.0
H1505 H 0.05417 0.24642 0.27672 0.0
H1506 H 0.061 0.24887 0.22069 0.0
H1507 H 0.03775 0.25917 0.23207 0.0
N1508 N 0.01651 0.25592 0.25598 0.0
N1509 N 0.01669 0.27472 0.28042 0.0
C1510 C 0.73993 0.96338 0.27461 0.0
C1511 C 0.73897 0.96083 0.29037 0.0
C1512 C 0.74666 0.97672 0.26898 0.0
C1513 C 0.75266 0.98767 0.27902 0.0
C1514 C 0.74479 0.97182 0.30043 0.0
C1515 C 0.75149 0.98519 0.29479 0.0
C1516 C 0.75974 1.00192 0.27318 0.0
C1517 C 0.79046 0.96389 0.25928 0.0
C1518 C 0.79147 0.96185 0.24347 0.0
C1519 C 0.78377 0.97695 0.26519 0.0
C1520 C 0.77786 0.98816 0.2554 0.0
C1521 C 0.78572 0.97308 0.23366 0.0
C1522 C 0.77907 0.98619 0.23958 0.0
C1523 C 0.7709 1.00216 0.26159 0.0
C1524 C 0.79169 0.0675 0.26095 0.0
C1525 C 0.7923 0.07033 0.24523 0.0
C1526 C 0.78484 0.05417 0.26648 0.0
C1527 C 0.77838 0.04354 0.25637 0.0
C1528 C 0.78604 0.05967 0.2351 0.0
C1529 C 0.77922 0.04631 0.24063 0.0
C1530 C 0.77119 0.02931 0.2621 0.0
C1531 C 0.7422 0.06809 0.27752 0.0
C1532 C 0.74169 0.06972 0.2934 0.0
C1533 C 0.74802 0.05485 0.27107 0.0
C1534 C 0.75357 0.04307 0.2804 0.0
C1535 C 0.74686 0.05783 0.30274 0.0
C1536 C 0.75267 0.04459 0.29629 0.0
C1537 C 0.76008 0.02907 0.27375 0.0
H1538 H 0.73538 0.95507 0.2667 0.0
H1539 H 0.74705 0.97853 0.25678 0.0
H1540 H 0.74408 0.97006 0.31262 0.0
H1541 H 0.75591 0.99352 0.30275 0.0
H1542 H 0.79495 0.95541 0.26702 0.0
H1543 H 0.78337 0.97836 0.27743 0.0
H1544 H 0.78646 0.97173 0.22143 0.0
H1545 H 0.77473 0.99472 0.23181 0.0
H1546 H 0.79658 0.07557 0.26891 0.0
H1547 H 0.78469 0.05213 0.27865 0.0
H1548 H 0.78651 0.06166 0.22292 0.0
H1549 H 0.77446 0.03821 0.23262 0.0
H1550 H 0.73815 0.07709 0.27014 0.0
H1551 H 0.74818 0.05381 0.25878 0.0
H1552 H 0.74648 0.05886 0.31502 0.0
H1553 H 0.75672 0.03563 0.30373 0.0
N1554 N 0.75487 0.01537 0.27889 0.0
N1555 N 0.7761 0.01586 0.25642 0.0
C1556 C 0.06965 0.78874 0.25753 0.0
C1557 C 0.07158 0.78881 0.24167 0.0
C1558 C 0.0562 0.78292 0.26394 0.0
C1559 C 0.04452 0.77699 0.2546 0.0
C1560 C 0.05981 0.7832 0.23231 0.0
C1561 C 0.04635 0.77742 0.23872 0.0
C1562 C 0.03028 0.77058 0.26123 0.0
C1563 C 0.06822 0.73942 0.27523 0.0
C1564 C 0.07092 0.73894 0.29099 0.0
C1565 C 0.05503 0.7462 0.26943 0.0
C1566 C 0.04435 0.75274 0.27929 0.0
C1567 C 0.0602 0.74531 0.30088 0.0
C1568 C 0.04697 0.75205 0.29508 0.0
C1569 C 0.03022 0.7598 0.27323 0.0
C1570 C 0.96433 0.74004 0.27571 0.0
C1571 C 0.96209 0.73934 0.29151 0.0
C1572 C 0.97756 0.74675 0.26976 0.0
C1573 C 0.9887 0.75304 0.27951 0.0
C1574 C 0.97326 0.74545 0.30129 0.0
C1575 C 0.98651 0.75216 0.29533 0.0
C1576 C 1.00292 0.75994 0.27331 0.0
C1577 C 0.96406 0.78923 0.25762 0.0
C1578 C 0.96203 0.78942 0.24176 0.0
C1579 C 0.97739 0.78326 0.26403 0.0
C1580 C 0.98884 0.77727 0.25468 0.0
C1581 C 0.97355 0.78372 0.23239 0.0
C1582 C 0.98688 0.77779 0.2388 0.0
C1583 C 1.00299 0.77072 0.26129 0.0
H1584 H 0.07856 0.79315 0.26491 0.0
H1585 H 0.05492 0.78309 0.2762 0.0
H1586 H 0.06108 0.78324 0.22004 0.0
H1587 H 0.03746 0.77305 0.23128 0.0
H1588 H 0.0763 0.73446 0.26744 0.0
H1589 H 0.05311 0.74621 0.25724 0.0
H1590 H 0.06206 0.74498 0.31308 0.0
H1591 H 0.03884 0.75687 0.30291 0.0
H1592 H 0.95589 0.73526 0.26801 0.0
H1593 H 0.97916 0.74686 0.25753 0.0
H1594 H 0.97174 0.74493 0.31352 0.0
H1595 H 0.995 0.75677 0.30307 0.0
H1596 H 0.95532 0.79366 0.265 0.0
H1597 H 0.97876 0.78336 0.2763 0.0
H1598 H 0.97217 0.78383 0.22012 0.0
H1599 H 0.99558 0.77337 0.23134 0.0
N1600 N 0.01667 0.77552 0.25567 0.0
N1601 N 0.01654 0.75499 0.27887 0.0
C1602 C 0.25721 0.96359 0.24348 0.0
C1603 C 0.24138 0.96105 0.24382 0.0
C1604 C 0.26347 0.97705 0.24935 0.0
C1605 C 0.25399 0.9881 0.25577 0.0
C1606 C 0.23188 0.97221 0.24989 0.0
C1607 C 0.23813 0.98567 0.25573 0.0
C1608 C 0.26044 1.00232 0.2623 0.0
C1609 C 0.27669 0.96359 0.29145 0.0
C1610 C 0.29257 0.96175 0.29129 0.0
C1611 C 0.27016 0.97687 0.28565 0.0
C1612 C 0.27941 0.98848 0.27942 0.0
C1613 C 0.30185 0.97347 0.28545 0.0
C1614 C 0.29533 0.98676 0.27964 0.0
C1615 C 0.27263 1.00252 0.27294 0.0
C1616 C 0.27354 0.06773 0.29341 0.0
C1617 C 0.28928 0.07079 0.2937 0.0
C1618 C 0.26792 0.05436 0.28681 0.0
C1619 C 0.27794 0.04389 0.28024 0.0
C1620 C 0.29934 0.06027 0.28735 0.0
C1621 C 0.29371 0.04687 0.28077 0.0
C1622 C 0.27205 0.02967 0.27321 0.0
C1623 C 0.25584 0.0685 0.24425 0.0
C1624 C 0.23994 0.07026 0.2443 0.0
C1625 C 0.26238 0.05522 0.25003 0.0
C1626 C 0.25314 0.04351 0.25606 0.0
C1627 C 0.23067 0.05846 0.24999 0.0
C1628 C 0.23721 0.04516 0.25573 0.0
C1629 C 0.25994 0.02947 0.2625 0.0
H1630 H 0.2647 0.95515 0.23871 0.0
H1631 H 0.27571 0.97881 0.24887 0.0
H1632 H 0.21963 0.97047 0.25017 0.0
H1633 H 0.23059 0.99408 0.26048 0.0
H1634 H 0.26936 0.95472 0.29604 0.0
H1635 H 0.25788 0.97808 0.28602 0.0
H1636 H 0.31414 0.97228 0.28531 0.0
H1637 H 0.3027 0.99559 0.27507 0.0
H1638 H 0.26563 0.07566 0.29837 0.0
H1639 H 0.25574 0.05216 0.28693 0.0
H1640 H 0.31153 0.06243 0.28754 0.0
H1641 H 0.30166 0.03891 0.27591 0.0
H1642 H 0.26316 0.07744 0.23978 0.0
H1643 H 0.27467 0.05409 0.24977 0.0
H1644 H 0.21837 0.05959 0.25005 0.0
H1645 H 0.22984 0.03625 0.26018 0.0
N1646 N 0.25453 0.0158 0.25758 0.0
N1647 N 0.27801 0.0162 0.2779 0.0
C1648 C 0.96376 0.74285 0.75664 0.0
C1649 C 0.96153 0.74351 0.74081 0.0
C1650 C 0.97723 0.74856 0.76313 0.0
C1651 C 0.98861 0.75515 0.7539 0.0
C1652 C 0.97301 0.74978 0.73156 0.0
C1653 C 0.98649 0.75547 0.73805 0.0
C1654 C 1.00288 0.76143 0.76063 0.0
C1655 C 0.96429 0.79047 0.77673 0.0
C1656 C 0.96221 0.79016 0.79257 0.0
C1657 C 0.97758 0.7846 0.77032 0.0
C1658 C 0.98893 0.77813 0.77964 0.0
C1659 C 0.97367 0.78406 0.80192 0.0
C1660 C 0.98695 0.77817 0.79551 0.0
C1661 C 1.00303 0.77166 0.77302 0.0
C1662 C 0.06948 0.7899 0.77728 0.0
C1663 C 0.07161 0.78932 0.79312 0.0
C1664 C 0.05603 0.78418 0.77073 0.0
C1665 C 0.04458 0.77766 0.77993 0.0
C1666 C 0.06006 0.78314 0.80234 0.0
C1667 C 0.04661 0.77743 0.7958 0.0
C1668 C 0.03032 0.77142 0.77316 0.0
C1669 C 0.06882 0.74221 0.75711 0.0
C1670 C 0.07098 0.74261 0.74129 0.0
C1671 C 0.05554 0.74813 0.7635 0.0
C1672 C 0.04426 0.75469 0.75417 0.0
C1673 C 0.05959 0.74883 0.73193 0.0
C1674 C 0.04631 0.75474 0.73831 0.0
C1675 C 0.03017 0.76118 0.76077 0.0
H1676 H 0.95507 0.73793 0.76393 0.0
H1677 H 0.97877 0.74781 0.77536 0.0
H1678 H 0.9715 0.7503 0.71931 0.0
H1679 H 0.99516 0.76035 0.7307 0.0
H1680 H 0.95563 0.79526 0.76935 0.0
H1681 H 0.97899 0.78514 0.75809 0.0
H1682 H 0.97229 0.7838 0.81417 0.0
H1683 H 0.99559 0.77342 0.80295 0.0
H1684 H 0.07823 0.79476 0.77001 0.0
H1685 H 0.05457 0.78488 0.75849 0.0
H1686 H 0.06149 0.78269 0.81459 0.0
H1687 H 0.03788 0.77262 0.80312 0.0
H1688 H 0.07742 0.73733 0.7645 0.0
H1689 H 0.05407 0.74753 0.77573 0.0
H1690 H 0.06103 0.74916 0.71968 0.0
H1691 H 0.03773 0.75958 0.73086 0.0
N1692 N 0.01644 0.75669 0.75494 0.0
N1693 N 0.01675 0.77615 0.77885 0.0
C1694 C 0.24148 0.9635 0.77464 0.0
C1695 C 0.24053 0.96098 0.7904 0.0
C1696 C 0.24822 0.97682 0.76898 0.0
C1697 C 0.25425 0.98778 0.779 0.0
C1698 C 0.24639 0.97196 0.80043 0.0
C1699 C 0.2531 0.98531 0.79477 0.0
C1700 C 0.2613 1.00203 0.77314 0.0
C1701 C 0.29197 0.96403 0.75905 0.0
C1702 C 0.29291 0.96201 0.74323 0.0
C1703 C 0.28531 0.97709 0.76501 0.0
C1704 C 0.27935 0.98831 0.75526 0.0
C1705 C 0.28711 0.97325 0.73347 0.0
C1706 C 0.28049 0.98635 0.73943 0.0
C1707 C 0.27241 1.0023 0.76149 0.0
C1708 C 0.29302 0.0677 0.76073 0.0
C1709 C 0.29358 0.07051 0.74501 0.0
C1710 C 0.28622 0.05436 0.7663 0.0
C1711 C 0.27977 0.04369 0.75622 0.0
C1712 C 0.28733 0.05981 0.7349 0.0
C1713 C 0.28056 0.04644 0.74047 0.0
C1714 C 0.27264 0.02945 0.76199 0.0
C1715 C 0.24339 0.06807 0.77739 0.0
C1716 C 0.24297 0.06977 0.79327 0.0
C1717 C 0.24932 0.05486 0.77096 0.0
C1718 C 0.25503 0.04318 0.78032 0.0
C1719 C 0.24833 0.05798 0.80263 0.0
C1720 C 0.25422 0.04477 0.79621 0.0
C1721 C 0.26157 0.02919 0.77368 0.0
H1722 H 0.2369 0.95519 0.76674 0.0
H1723 H 0.24859 0.97862 0.75678 0.0
H1724 H 0.24568 0.97022 0.81263 0.0
H1725 H 0.25754 0.99366 0.80271 0.0
H1726 H 0.29649 0.95553 0.76676 0.0
H1727 H 0.28496 0.97848 0.77725 0.0
H1728 H 0.2878 0.97191 0.72123 0.0
H1729 H 0.27612 0.99489 0.73169 0.0
H1730 H 0.2979 0.0758 0.76867 0.0
H1731 H 0.2861 0.05234 0.77848 0.0
H1732 H 0.28776 0.06179 0.72273 0.0
H1733 H 0.27581 0.03831 0.73249 0.0
H1734 H 0.23919 0.07699 0.76999 0.0
H1735 H 0.24941 0.05377 0.75869 0.0
H1736 H 0.24802 0.05907 0.81491 0.0
H1737 H 0.25841 0.03587 0.80366 0.0
N1738 N 0.25641 0.01548 0.77885 0.0
N1739 N 0.27755 0.016 0.7563 0.0
C1740 C 0.07024 0.28884 0.75801 0.0
C1741 C 0.07215 0.28887 0.74214 0.0
C1742 C 0.05673 0.28322 0.76446 0.0
C1743 C 0.04495 0.27744 0.75514 0.0
C1744 C 0.06027 0.28343 0.73281 0.0
C1745 C 0.04675 0.27785 0.73926 0.0
C1746 C 0.03066 0.27116 0.7618 0.0
C1747 C 0.06841 0.23969 0.77563 0.0
C1748 C 0.07109 0.2391 0.79139 0.0
C1749 C 0.05526 0.24657 0.76987 0.0
C1750 C 0.04461 0.25312 0.77976 0.0
C1751 C 0.06041 0.24547 0.80131 0.0
C1752 C 0.04722 0.25232 0.79554 0.0
C1753 C 0.03053 0.2603 0.77375 0.0
C1754 C 0.96457 0.24089 0.77608 0.0
C1755 C 0.96228 0.24011 0.79187 0.0
C1756 C 0.97784 0.24759 0.7702 0.0
C1757 C 0.98899 0.25378 0.78001 0.0
C1758 C 0.97344 0.24613 0.80171 0.0
C1759 C 0.98674 0.25282 0.79582 0.0
C1760 C 1.00325 0.26066 0.77389 0.0
C1761 C 0.96451 0.29022 0.75862 0.0
C1762 C 0.96236 0.29049 0.74277 0.0
C1763 C 0.97787 0.2842 0.76492 0.0
C1764 C 0.98925 0.27824 0.75546 0.0
C1765 C 0.97386 0.28488 0.7333 0.0
C1766 C 0.98722 0.2789 0.73959 0.0
C1767 C 1.00337 0.27154 0.76196 0.0
H1768 H 0.07924 0.29312 0.76537 0.0
H1769 H 0.05549 0.2834 0.77672 0.0
H1770 H 0.06151 0.28345 0.72054 0.0
H1771 H 0.03778 0.2736 0.73184 0.0
H1772 H 0.07647 0.23474 0.76781 0.0
H1773 H 0.05334 0.24665 0.75767 0.0
H1774 H 0.06226 0.24505 0.81351 0.0
H1775 H 0.03912 0.25714 0.8034 0.0
H1776 H 0.95614 0.23618 0.76833 0.0
H1777 H 0.97947 0.24778 0.75798 0.0
H1778 H 0.97189 0.24555 0.81393 0.0
H1779 H 0.99523 0.25736 0.80362 0.0
H1780 H 0.95582 0.29462 0.76609 0.0
H1781 H 0.97931 0.28421 0.77718 0.0
H1782 H 0.97242 0.28507 0.72104 0.0
H1783 H 0.99587 0.27452 0.73206 0.0
N1784 N 0.01708 0.27626 0.75632 0.0
N1785 N 0.01683 0.25556 0.77938 0.0
C1786 C 0.75258 0.96334 0.7448 0.0
C1787 C 0.73656 0.96279 0.7448 0.0
C1788 C 0.76034 0.9762 0.75036 0.0
C1789 C 0.75218 0.98853 0.7563 0.0
C1790 C 0.72844 0.97519 0.75043 0.0
C1791 C 0.73616 0.98792 0.75609 0.0
C1792 C 0.75996 1.00242 0.76219 0.0
C1793 C 0.77646 0.96344 0.7913 0.0
C1794 C 0.7923 0.96129 0.79062 0.0
C1795 C 0.76998 0.97674 0.78545 0.0
C1796 C 0.77922 0.98801 0.77863 0.0
C1797 C 0.80157 0.97268 0.78416 0.0
C1798 C 0.79509 0.98595 0.77828 0.0
C1799 C 0.77258 1.0022 0.77234 0.0
C1800 C 0.77541 0.06705 0.79351 0.0
C1801 C 0.7912 0.06979 0.79373 0.0
C1802 C 0.76946 0.05394 0.78669 0.0
C1803 C 0.77919 0.04339 0.77982 0.0
C1804 C 0.80098 0.05919 0.78707 0.0
C1805 C 0.79502 0.04603 0.78026 0.0
C1806 C 0.7729 0.0294 0.77266 0.0
C1807 C 0.75707 0.0688 0.74413 0.0
C1808 C 0.74119 0.07076 0.7441 0.0
C1809 C 0.76342 0.05544 0.74996 0.0
C1810 C 0.754 0.04386 0.75597 0.0
C1811 C 0.73175 0.05911 0.74981 0.0
C1812 C 0.7381 0.04574 0.75561 0.0
C1813 C 0.76055 0.02961 0.76225 0.0
H1814 H 0.75903 0.95391 0.7404 0.0
H1815 H 0.77268 0.97653 0.74991 0.0
H1816 H 0.71608 0.97498 0.75047 0.0
H1817 H 0.72958 0.99729 0.76044 0.0
H1818 H 0.76915 0.95483 0.79637 0.0
H1819 H 0.75776 0.97823 0.78629 0.0
H1820 H 0.81381 0.97125 0.78361 0.0
H1821 H 0.80247 0.99455 0.77328 0.0
H1822 H 0.7677 0.07504 0.7987 0.0
H1823 H 0.75724 0.05199 0.78689 0.0
H1824 H 0.81321 0.0611 0.78719 0.0
H1825 H 0.80276 0.038 0.7752 0.0
H1826 H 0.76452 0.07762 0.73964 0.0
H1827 H 0.77569 0.05413 0.7497 0.0
H1828 H 0.71947 0.0604 0.74981 0.0
H1829 H 0.73058 0.03694 0.76003 0.0
N1830 N 0.75449 0.01612 0.75759 0.0
N1831 N 0.77855 0.01572 0.77713 0.0
C1832 C 0.25886 0.74055 0.56921 0.0
C1833 C 0.24304 0.7391 0.5712 0.0
C1834 C 0.26477 0.74721 0.55596 0.0
C1835 C 0.25494 0.75272 0.54453 0.0
C1836 C 0.23319 0.74438 0.55973 0.0
C1837 C 0.2391 0.75106 0.54647 0.0
C1838 C 0.26107 0.75974 0.53035 0.0
C1839 C 0.27452 0.79084 0.5687 0.0
C1840 C 0.29033 0.79232 0.57097 0.0
C1841 C 0.26877 0.78391 0.55553 0.0
C1842 C 0.27874 0.77818 0.54447 0.0
C1843 C 0.30031 0.7868 0.55988 0.0
C1844 C 0.29455 0.77987 0.54669 0.0
C1845 C 0.27275 0.77099 0.53033 0.0
C1846 C 0.27503 0.79057 0.46447 0.0
C1847 C 0.29086 0.79128 0.46213 0.0
C1848 C 0.26911 0.78399 0.47775 0.0
C1849 C 0.27892 0.77788 0.48889 0.0
C1850 C 0.30068 0.78536 0.4733 0.0
C1851 C 0.29476 0.77881 0.48662 0.0
C1852 C 0.27277 0.77093 0.50307 0.0
C1853 C 0.25772 0.74146 0.46404 0.0
C1854 C 0.24184 0.74121 0.46182 0.0
C1855 C 0.264 0.74735 0.47749 0.0
C1856 C 0.2545 0.75317 0.48891 0.0
C1857 C 0.23233 0.74667 0.47335 0.0
C1858 C 0.23861 0.75251 0.48682 0.0
C1859 C 0.26099 0.75981 0.50309 0.0
H1860 H 0.26663 0.73641 0.57788 0.0
H1861 H 0.27703 0.74794 0.5546 0.0
H1862 H 0.22095 0.74328 0.56103 0.0
H1863 H 0.23129 0.75506 0.53777 0.0
H1864 H 0.26665 0.79515 0.57707 0.0
H1865 H 0.25653 0.78317 0.55392 0.0
H1866 H 0.31254 0.78792 0.56141 0.0
H1867 H 0.30246 0.77571 0.53827 0.0
H1868 H 0.26728 0.79519 0.45603 0.0
H1869 H 0.25687 0.78379 0.47938 0.0
H1870 H 0.31293 0.78588 0.47173 0.0
H1871 H 0.30255 0.77431 0.49509 0.0
H1872 H 0.26522 0.73718 0.45532 0.0
H1873 H 0.27627 0.74736 0.47897 0.0
H1874 H 0.22006 0.74648 0.47187 0.0
H1875 H 0.23105 0.75679 0.4955 0.0
N1876 N 0.25557 0.75472 0.51672 0.0
N1877 N 0.27822 0.77602 0.51669 0.0
C1878 C 0.79067 0.75483 0.57003 0.0
C1879 C 0.78977 0.73903 0.57211 0.0
C1880 C 0.78508 0.76148 0.55665 0.0
C1881 C 0.77837 0.75244 0.54522 0.0
C1882 C 0.78339 0.72996 0.56059 0.0
C1883 C 0.77781 0.73661 0.5472 0.0
C1884 C 0.77226 0.75934 0.53103 0.0
C1885 C 0.74319 0.77564 0.56963 0.0
C1886 C 0.74411 0.7914 0.57187 0.0
C1887 C 0.74893 0.76921 0.55631 0.0
C1888 C 0.75582 0.77842 0.54509 0.0
C1889 C 0.7507 0.80064 0.56057 0.0
C1890 C 0.75641 0.79421 0.54724 0.0
C1891 C 0.76215 0.77177 0.53097 0.0
C1892 C 0.74429 0.77638 0.46463 0.0
C1893 C 0.74484 0.7922 0.46261 0.0
C1894 C 0.74995 0.76981 0.47802 0.0
C1895 C 0.75634 0.77895 0.48955 0.0
C1896 C 0.75093 0.80136 0.47422 0.0
C1897 C 0.75655 0.7948 0.48762 0.0
C1898 C 0.76251 0.77213 0.50375 0.0
C1899 C 0.79319 0.75749 0.46583 0.0
C1900 C 0.79311 0.74177 0.46325 0.0
C1901 C 0.78657 0.76338 0.47898 0.0
C1902 C 0.77962 0.75365 0.48972 0.0
C1903 C 0.78634 0.73202 0.47401 0.0
C1904 C 0.77974 0.73791 0.4872 0.0
C1905 C 0.77273 0.75979 0.50381 0.0
H1906 H 0.79569 0.76197 0.57876 0.0
H1907 H 0.78604 0.77368 0.55522 0.0
H1908 H 0.78268 0.71774 0.56199 0.0
H1909 H 0.77285 0.72941 0.53848 0.0
H1910 H 0.73806 0.76836 0.57821 0.0
H1911 H 0.74798 0.75704 0.55477 0.0
H1912 H 0.75144 0.81283 0.5621 0.0
H1913 H 0.76153 0.80156 0.53871 0.0
H1914 H 0.73951 0.76916 0.45584 0.0
H1915 H 0.74927 0.75759 0.47939 0.0
H1916 H 0.75136 0.8136 0.47286 0.0
H1917 H 0.76128 0.80208 0.4964 0.0
H1918 H 0.79847 0.76518 0.45771 0.0
H1919 H 0.78702 0.77552 0.48083 0.0
H1920 H 0.78624 0.71985 0.47223 0.0
H1921 H 0.77459 0.73017 0.49537 0.0
N1922 N 0.77709 0.75379 0.51745 0.0
N1923 N 0.75774 0.77772 0.51733 0.0
C1924 C 0.7907 0.27548 0.46457 0.0
C1925 C 0.79072 0.29129 0.46247 0.0
C1926 C 0.78484 0.26903 0.47795 0.0
C1927 C 0.77879 0.2783 0.48942 0.0
C1928 C 0.785 0.30058 0.47403 0.0
C1929 C 0.77917 0.29414 0.48743 0.0
C1930 C 0.77236 0.27162 0.50362 0.0
C1931 C 0.74136 0.25703 0.46537 0.0
C1932 C 0.74096 0.24129 0.46293 0.0
C1933 C 0.74808 0.26297 0.47857 0.0
C1934 C 0.75466 0.25328 0.4895 0.0
C1935 C 0.74737 0.23156 0.47389 0.0
C1936 C 0.75406 0.23751 0.48713 0.0
C1937 C 0.76166 0.25947 0.50364 0.0
C1938 C 0.74287 0.25585 0.56965 0.0
C1939 C 0.74305 0.24008 0.57203 0.0
C1940 C 0.74888 0.26216 0.55627 0.0
C1941 C 0.75528 0.25279 0.54508 0.0
C1942 C 0.74911 0.23068 0.56073 0.0
C1943 C 0.75509 0.23698 0.54733 0.0
C1944 C 0.76187 0.25933 0.5309 0.0
C1945 C 0.79122 0.27534 0.5699 0.0
C1946 C 0.79121 0.29116 0.57186 0.0
C1947 C 0.78528 0.2689 0.55655 0.0
C1948 C 0.77909 0.27816 0.54502 0.0
C1949 C 0.78538 0.30044 0.56021 0.0
C1950 C 0.77944 0.294 0.54688 0.0
C1951 C 0.77253 0.27152 0.53087 0.0
H1952 H 0.79519 0.26814 0.45582 0.0
H1953 H 0.78507 0.25681 0.47936 0.0
H1954 H 0.78499 0.31281 0.47264 0.0
H1955 H 0.77473 0.30152 0.49615 0.0
H1956 H 0.73637 0.2647 0.45709 0.0
H1957 H 0.748 0.27514 0.48029 0.0
H1958 H 0.7471 0.21938 0.47223 0.0
H1959 H 0.75891 0.2298 0.49545 0.0
H1960 H 0.73812 0.26326 0.57818 0.0
H1961 H 0.74849 0.27435 0.55464 0.0
H1962 H 0.74927 0.21848 0.56234 0.0
H1963 H 0.7598 0.22952 0.53882 0.0
H1964 H 0.79579 0.26802 0.57871 0.0
H1965 H 0.78555 0.25668 0.55524 0.0
H1966 H 0.78536 0.31267 0.5615 0.0
H1967 H 0.7749 0.30139 0.5381 0.0
N1968 N 0.77726 0.27723 0.51723 0.0
N1969 N 0.75694 0.25373 0.51728 0.0
C1970 C 0.25942 0.29382 0.46554 0.0
C1971 C 0.24364 0.29458 0.46293 0.0
C1972 C 0.26507 0.2869 0.47875 0.0
C1973 C 0.25502 0.28049 0.4895 0.0
C1974 C 0.23357 0.28835 0.47373 0.0
C1975 C 0.23923 0.28145 0.48696 0.0
C1976 C 0.26088 0.27325 0.50363 0.0
C1977 C 0.2761 0.24448 0.46443 0.0
C1978 C 0.292 0.24415 0.4627 0.0
C1979 C 0.2697 0.25025 0.47776 0.0
C1980 C 0.27911 0.2559 0.48951 0.0
C1981 C 0.30142 0.24951 0.47451 0.0
C1982 C 0.29503 0.25524 0.48785 0.0
C1983 C 0.27252 0.26222 0.50366 0.0
C1984 C 0.27335 0.24121 0.56909 0.0
C1985 C 0.28912 0.24011 0.57157 0.0
C1986 C 0.26775 0.24819 0.55589 0.0
C1987 C 0.27785 0.2543 0.54501 0.0
C1988 C 0.29924 0.24606 0.56067 0.0
C1989 C 0.29364 0.25301 0.54744 0.0
C1990 C 0.27205 0.26157 0.53088 0.0
C1991 C 0.25861 0.29183 0.56951 0.0
C1992 C 0.2428 0.29301 0.57159 0.0
C1993 C 0.26439 0.28521 0.55631 0.0
C1994 C 0.25446 0.27952 0.54502 0.0
C1995 C 0.23285 0.28747 0.56029 0.0
C1996 C 0.23864 0.28088 0.54706 0.0
C1997 C 0.26051 0.2727 0.53086 0.0
H1998 H 0.26734 0.29867 0.45738 0.0
H1999 H 0.27729 0.28668 0.48062 0.0
H2000 H 0.22136 0.2889 0.47192 0.0
H2001 H 0.23126 0.27672 0.49516 0.0
H2002 H 0.26868 0.2403 0.45546 0.0
H2003 H 0.2574 0.25027 0.4789 0.0
H2004 H 0.31372 0.24928 0.47337 0.0
H2005 H 0.30251 0.2594 0.49679 0.0
H2006 H 0.26538 0.23657 0.57733 0.0
H2007 H 0.25553 0.24868 0.55411 0.0
H2008 H 0.31145 0.24525 0.56239 0.0
H2009 H 0.30164 0.25751 0.53916 0.0
H2010 H 0.26646 0.29615 0.57805 0.0
H2011 H 0.27664 0.28469 0.55486 0.0
H2012 H 0.22062 0.28835 0.56168 0.0
H2013 H 0.23076 0.27672 0.53846 0.0
N2014 N 0.25529 0.278 0.51723 0.0
N2015 N 0.27768 0.25688 0.51729 0.0
C2016 C 0.74186 0.46401 0.77561 0.0
C2017 C 0.74065 0.46163 0.79137 0.0
C2018 C 0.74883 0.47722 0.76994 0.0
C2019 C 0.75483 0.4882 0.77996 0.0
C2020 C 0.74649 0.47263 0.8014 0.0
C2021 C 0.75344 0.48586 0.79573 0.0
C2022 C 0.76201 0.50237 0.77409 0.0
C2023 C 0.79269 0.4642 0.76043 0.0
C2024 C 0.79392 0.46219 0.74465 0.0
C2025 C 0.78594 0.47727 0.76628 0.0
C2026 C 0.78017 0.4885 0.75641 0.0
C2027 C 0.78835 0.47345 0.73477 0.0
C2028 C 0.78162 0.48654 0.74061 0.0
C2029 C 0.77319 0.50253 0.7625 0.0
C2030 C 0.79352 0.56807 0.76096 0.0
C2031 C 0.79427 0.57056 0.74518 0.0
C2032 C 0.78677 0.5548 0.76673 0.0
C2033 C 0.7805 0.54388 0.7568 0.0
C2034 C 0.78822 0.55959 0.73524 0.0
C2035 C 0.78147 0.54631 0.74101 0.0
C2036 C 0.77341 0.5297 0.76277 0.0
C2037 C 0.74409 0.56841 0.77794 0.0
C2038 C 0.74369 0.57019 0.7938 0.0
C2039 C 0.75003 0.55518 0.77158 0.0
C2040 C 0.7558 0.54357 0.781 0.0
C2041 C 0.74915 0.55852 0.80323 0.0
C2042 C 0.75506 0.54527 0.79688 0.0
C2043 C 0.76233 0.52953 0.77445 0.0
H2044 H 0.73731 0.45569 0.76771 0.0
H2045 H 0.74938 0.47892 0.75773 0.0
H2046 H 0.74559 0.47099 0.8136 0.0
H2047 H 0.75784 0.49422 0.80367 0.0
H2048 H 0.79706 0.45569 0.76822 0.0
H2049 H 0.78538 0.47866 0.77851 0.0
H2050 H 0.78929 0.47211 0.72255 0.0
H2051 H 0.77741 0.49509 0.73278 0.0
H2052 H 0.79825 0.57637 0.76878 0.0
H2053 H 0.78655 0.55302 0.77894 0.0
H2054 H 0.78877 0.56131 0.72303 0.0
H2055 H 0.77686 0.53798 0.73314 0.0
H2056 H 0.73985 0.57728 0.7705 0.0
H2057 H 0.7501 0.55401 0.75931 0.0
H2058 H 0.74887 0.55969 0.8155 0.0
H2059 H 0.75929 0.53645 0.80437 0.0
N2060 N 0.75713 0.51587 0.77968 0.0
N2061 N 0.77834 0.5162 0.75722 0.0
C2062 C 0.25065 0.46432 0.74478 0.0
C2063 C 0.23464 0.46386 0.74526 0.0
C2064 C 0.25867 0.47703 0.75028 0.0
C2065 C 0.25081 0.48933 0.75665 0.0
C2066 C 0.22679 0.47625 0.7513 0.0
C2067 C 0.23478 0.48886 0.75691 0.0
C2068 C 0.25894 0.50305 0.76247 0.0
C2069 C 0.27591 0.46376 0.79097 0.0
C2070 C 0.29164 0.46127 0.7896 0.0
C2071 C 0.26945 0.47712 0.78525 0.0
C2072 C 0.2786 0.48814 0.77794 0.0
C2073 C 0.30083 0.47234 0.78252 0.0
C2074 C 0.29438 0.4857 0.77683 0.0
C2075 C 0.27202 0.5025 0.77199 0.0
C2076 C 0.27952 0.56737 0.79261 0.0
C2077 C 0.29549 0.56854 0.79246 0.0
C2078 C 0.27215 0.55486 0.78593 0.0
C2079 C 0.28066 0.54342 0.77883 0.0
C2080 C 0.304 0.55712 0.78547 0.0
C2081 C 0.29665 0.54464 0.77878 0.0
C2082 C 0.27312 0.5297 0.77231 0.0
C2083 C 0.2565 0.56937 0.74435 0.0
C2084 C 0.24067 0.57155 0.74493 0.0
C2085 C 0.26291 0.556 0.75013 0.0
C2086 C 0.2536 0.54465 0.75672 0.0
C2087 C 0.23133 0.56014 0.75127 0.0
C2088 C 0.23773 0.54679 0.75703 0.0
C2089 C 0.26015 0.53026 0.76268 0.0
H2090 H 0.25689 0.45491 0.74004 0.0
H2091 H 0.27099 0.47727 0.74942 0.0
H2092 H 0.21444 0.47613 0.75171 0.0
H2093 H 0.22842 0.49822 0.76159 0.0
H2094 H 0.26867 0.45537 0.79649 0.0
H2095 H 0.25732 0.47889 0.78664 0.0
H2096 H 0.31299 0.47063 0.78142 0.0
H2097 H 0.3017 0.49409 0.7714 0.0
H2098 H 0.2728 0.57601 0.79811 0.0
H2099 H 0.25984 0.55401 0.78657 0.0
H2100 H 0.31635 0.5578 0.78534 0.0
H2101 H 0.30347 0.53591 0.77355 0.0
H2102 H 0.26387 0.57799 0.73938 0.0
H2103 H 0.27513 0.55448 0.7493 0.0
H2104 H 0.21909 0.5616 0.75173 0.0
H2105 H 0.23029 0.53816 0.76188 0.0
N2106 N 0.25353 0.51692 0.75828 0.0
N2107 N 0.2786 0.51585 0.77643 0.0
C2108 C 0.24183 0.46265 0.26762 0.0
C2109 C 0.23912 0.459 0.28294 0.0
C2110 C 0.24866 0.4765 0.26367 0.0
C2111 C 0.25328 0.48684 0.27499 0.0
C2112 C 0.24327 0.46946 0.29429 0.0
C2113 C 0.25027 0.4833 0.29033 0.0
C2114 C 0.26086 0.50144 0.27082 0.0
C2115 C 0.29264 0.46443 0.25722 0.0
C2116 C 0.29448 0.46297 0.24143 0.0
C2117 C 0.28568 0.47729 0.26325 0.0
C2118 C 0.28031 0.48888 0.25358 0.0
C2119 C 0.28937 0.47463 0.23175 0.0
C2120 C 0.28245 0.48754 0.2378 0.0
C2121 C 0.2727 0.50245 0.25995 0.0
C2122 C 0.29269 0.56801 0.26222 0.0
C2123 C 0.29342 0.5713 0.24658 0.0
C2124 C 0.28591 0.55446 0.26732 0.0
C2125 C 0.2796 0.54409 0.25684 0.0
C2126 C 0.28729 0.56089 0.23611 0.0
C2127 C 0.28052 0.54735 0.2412 0.0
C2128 C 0.27262 0.52954 0.26196 0.0
C2129 C 0.24425 0.56748 0.28117 0.0
C2130 C 0.24308 0.56706 0.29711 0.0
C2131 C 0.24994 0.55494 0.27328 0.0
C2132 C 0.25483 0.54192 0.28125 0.0
C2133 C 0.24755 0.55394 0.30501 0.0
C2134 C 0.25332 0.5415 0.29717 0.0
C2135 C 0.26119 0.52851 0.2733 0.0
H2136 H 0.23856 0.45478 0.25871 0.0
H2137 H 0.2503 0.47912 0.25172 0.0
H2138 H 0.24117 0.46685 0.30617 0.0
H2139 H 0.25353 0.49115 0.29926 0.0
H2140 H 0.29661 0.45561 0.26487 0.0
H2141 H 0.28452 0.4782 0.27548 0.0
H2142 H 0.29075 0.47372 0.21954 0.0
H2143 H 0.27853 0.49637 0.23013 0.0
H2144 H 0.29748 0.57587 0.27044 0.0
H2145 H 0.2857 0.55203 0.27942 0.0
H2146 H 0.28784 0.56322 0.22399 0.0
H2147 H 0.27589 0.53945 0.23291 0.0
H2148 H 0.24075 0.57748 0.27488 0.0
H2149 H 0.2505 0.55543 0.26097 0.0
H2150 H 0.24667 0.55339 0.31731 0.0
H2151 H 0.25684 0.53158 0.30359 0.0
N2152 N 0.25576 0.51448 0.27723 0.0
N2153 N 0.27792 0.51646 0.25577 0.0
C2154 C 0.75148 0.46364 0.2448 0.0
C2155 C 0.73546 0.46309 0.24478 0.0
C2156 C 0.75924 0.47648 0.25037 0.0
C2157 C 0.75109 0.48882 0.25631 0.0
C2158 C 0.72734 0.47549 0.25041 0.0
C2159 C 0.73506 0.48822 0.25608 0.0
C2160 C 0.75888 0.50269 0.2622 0.0
C2161 C 0.77524 0.46377 0.29147 0.0
C2162 C 0.79104 0.46144 0.29056 0.0
C2163 C 0.76882 0.47709 0.2856 0.0
C2164 C 0.77809 0.48822 0.2786 0.0
C2165 C 0.80033 0.47267 0.28387 0.0
C2166 C 0.79392 0.48599 0.27802 0.0
C2167 C 0.77151 0.50244 0.27233 0.0
C2168 C 0.77458 0.56723 0.2936 0.0
C2169 C 0.79038 0.56991 0.29379 0.0
C2170 C 0.76857 0.55415 0.28677 0.0
C2171 C 0.77826 0.54359 0.27985 0.0
C2172 C 0.80011 0.5593 0.28708 0.0
C2173 C 0.7941 0.54618 0.28026 0.0
C2174 C 0.77191 0.52963 0.27269 0.0
C2175 C 0.75615 0.56915 0.24434 0.0
C2176 C 0.74029 0.57117 0.24437 0.0
C2177 C 0.76247 0.55573 0.25008 0.0
C2178 C 0.75302 0.54416 0.25606 0.0
C2179 C 0.73082 0.55952 0.25003 0.0
C2180 C 0.73712 0.5461 0.25574 0.0
C2181 C 0.75954 0.52988 0.2623 0.0
H2182 H 0.75793 0.4542 0.2404 0.0
H2183 H 0.77158 0.4768 0.24992 0.0
H2184 H 0.71498 0.47529 0.25043 0.0
H2185 H 0.72848 0.4976 0.26042 0.0
H2186 H 0.76792 0.45528 0.29671 0.0
H2187 H 0.75664 0.47872 0.28658 0.0
H2188 H 0.81255 0.4711 0.28315 0.0
H2189 H 0.80132 0.49447 0.27286 0.0
H2190 H 0.76691 0.57523 0.29882 0.0
H2191 H 0.75635 0.55223 0.28699 0.0
H2192 H 0.81235 0.56117 0.28719 0.0
H2193 H 0.80179 0.53813 0.27516 0.0
H2194 H 0.76363 0.57797 0.23989 0.0
H2195 H 0.77473 0.55438 0.24978 0.0
H2196 H 0.71854 0.56086 0.25007 0.0
H2197 H 0.72959 0.53731 0.26014 0.0
N2198 N 0.75343 0.51642 0.25763 0.0
N2199 N 0.77753 0.51593 0.27713 0.0
C2200 C 0.56818 0.25878 0.74229 0.0
C2201 C 0.57003 0.24306 0.7407 0.0
C2202 C 0.55503 0.26453 0.74906 0.0
C2203 C 0.54356 0.25463 0.7545 0.0
C2204 C 0.55853 0.23315 0.74593 0.0
C2205 C 0.54536 0.2389 0.75268 0.0
C2206 C 0.52945 0.26061 0.76156 0.0
C2207 C 0.56804 0.27282 0.79319 0.0
C2208 C 0.57061 0.28851 0.79457 0.0
C2209 C 0.55474 0.26735 0.78618 0.0
C2210 C 0.54386 0.2775 0.78034 0.0
C2211 C 0.55971 0.29866 0.78892 0.0
C2212 C 0.54637 0.29319 0.78195 0.0
C2213 C 0.52961 0.27183 0.77305 0.0
C2214 C 0.4635 0.27422 0.7919 0.0
C2215 C 0.46175 0.28997 0.79347 0.0
C2216 C 0.47665 0.26837 0.78523 0.0
C2217 C 0.48822 0.27818 0.77983 0.0
C2218 C 0.47335 0.29978 0.78829 0.0
C2219 C 0.48652 0.29393 0.78161 0.0
C2220 C 0.50232 0.27212 0.77284 0.0
C2221 C 0.4636 0.25958 0.74147 0.0
C2222 C 0.4611 0.24387 0.74017 0.0
C2223 C 0.47694 0.26515 0.74835 0.0
C2224 C 0.48791 0.25509 0.75417 0.0
C2225 C 0.47211 0.23381 0.74579 0.0
C2226 C 0.48547 0.23938 0.75265 0.0
C2227 C 0.50216 0.26086 0.76138 0.0
H2228 H 0.57689 0.26659 0.7382 0.0
H2229 H 0.55376 0.27672 0.74991 0.0
H2230 H 0.55974 0.22099 0.7447 0.0
H2231 H 0.53663 0.23105 0.75663 0.0
H2232 H 0.57631 0.26484 0.79761 0.0
H2233 H 0.5529 0.2552 0.78544 0.0
H2234 H 0.5615 0.3108 0.78999 0.0
H2235 H 0.53808 0.30122 0.77767 0.0
H2236 H 0.45472 0.26648 0.79596 0.0
H2237 H 0.47784 0.25617 0.78442 0.0
H2238 H 0.47222 0.31196 0.78948 0.0
H2239 H 0.49532 0.30172 0.7777 0.0
H2240 H 0.45527 0.2675 0.73708 0.0
H2241 H 0.47872 0.27732 0.74901 0.0
H2242 H 0.47038 0.22165 0.74481 0.0
H2243 H 0.49383 0.23142 0.75691 0.0
N2244 N 0.51572 0.25549 0.75627 0.0
N2245 N 0.51606 0.27721 0.77814 0.0
C2246 C 0.46421 0.77533 0.74181 0.0
C2247 C 0.46204 0.79109 0.74117 0.0
C2248 C 0.47733 0.76935 0.74859 0.0
C2249 C 0.48847 0.77904 0.75501 0.0
C2250 C 0.47321 0.80081 0.7474 0.0
C2251 C 0.48637 0.79483 0.75417 0.0
C2252 C 0.50254 0.77281 0.76208 0.0
C2253 C 0.46312 0.75753 0.79119 0.0
C2254 C 0.46094 0.74172 0.79143 0.0
C2255 C 0.47659 0.76384 0.78529 0.0
C2256 C 0.48802 0.75443 0.77942 0.0
C2257 C 0.47243 0.7323 0.78584 0.0
C2258 C 0.4859 0.7386 0.77998 0.0
C2259 C 0.50232 0.76091 0.77298 0.0
C2260 C 0.56884 0.75685 0.79142 0.0
C2261 C 0.57056 0.74102 0.79167 0.0
C2262 C 0.5555 0.7633 0.78555 0.0
C2263 C 0.5437 0.75401 0.77973 0.0
C2264 C 0.55865 0.73172 0.78623 0.0
C2265 C 0.5453 0.73816 0.78039 0.0
C2266 C 0.52961 0.76067 0.77311 0.0
C2267 C 0.56818 0.77391 0.74217 0.0
C2268 C 0.5711 0.7896 0.74152 0.0
C2269 C 0.55477 0.76834 0.74884 0.0
C2270 C 0.54412 0.77836 0.75513 0.0
C2271 C 0.5604 0.79965 0.7476 0.0
C2272 C 0.54697 0.79407 0.75426 0.0
C2273 C 0.52983 0.77253 0.76217 0.0
H2274 H 0.45577 0.76766 0.73695 0.0
H2275 H 0.47885 0.75716 0.7487 0.0
H2276 H 0.47176 0.813 0.74695 0.0
H2277 H 0.49485 0.80253 0.75889 0.0
H2278 H 0.45439 0.76495 0.79554 0.0
H2279 H 0.47808 0.77607 0.78535 0.0
H2280 H 0.47094 0.72007 0.786 0.0
H2281 H 0.49459 0.73111 0.77565 0.0
H2282 H 0.57786 0.7642 0.79569 0.0
H2283 H 0.5544 0.77554 0.78556 0.0
H2284 H 0.55975 0.71948 0.78642 0.0
H2285 H 0.53633 0.73076 0.77611 0.0
H2286 H 0.57625 0.766 0.73743 0.0
H2287 H 0.55268 0.7562 0.74898 0.0
H2288 H 0.56244 0.8118 0.74712 0.0
H2289 H 0.53886 0.80201 0.75888 0.0
N2290 N 0.51629 0.77821 0.75718 0.0
N2291 N 0.51586 0.75526 0.77798 0.0
C2292 C 0.46612 0.79408 0.27498 0.0
C2293 C 0.46455 0.79665 0.29083 0.0
C2294 C 0.4785 0.78604 0.26915 0.0
C2295 C 0.48912 0.77919 0.27893 0.0
C2296 C 0.47458 0.78844 0.30046 0.0
C2297 C 0.48683 0.78025 0.29465 0.0
C2298 C 0.50306 0.77172 0.27303 0.0
C2299 C 0.46335 0.74551 0.2524 0.0
C2300 C 0.46341 0.74511 0.23642 0.0
C2301 C 0.47619 0.75088 0.26039 0.0
C2302 C 0.48914 0.75619 0.25247 0.0
C2303 C 0.4764 0.75018 0.22855 0.0
C2304 C 0.48913 0.75564 0.23648 0.0
C2305 C 0.50311 0.76161 0.26051 0.0
C2306 C 0.56906 0.74142 0.25864 0.0
C2307 C 0.57145 0.74197 0.24284 0.0
C2308 C 0.55568 0.74728 0.26488 0.0
C2309 C 0.54455 0.75393 0.25544 0.0
C2310 C 0.5602 0.74827 0.23338 0.0
C2311 C 0.54684 0.75413 0.23961 0.0
C2312 C 0.53038 0.76047 0.26185 0.0
C2313 C 0.56949 0.78879 0.27924 0.0
C2314 C 0.57145 0.78793 0.29509 0.0
C2315 C 0.5561 0.78325 0.27246 0.0
C2316 C 0.54451 0.77663 0.28141 0.0
C2317 C 0.55976 0.78166 0.30408 0.0
C2318 C 0.54635 0.77613 0.29729 0.0
C2319 C 0.53033 0.77058 0.27431 0.0
H2320 H 0.45795 0.79789 0.2667 0.0
H2321 H 0.47979 0.78534 0.25692 0.0
H2322 H 0.47308 0.78818 0.31267 0.0
H2323 H 0.49456 0.77468 0.30251 0.0
H2324 H 0.45345 0.74153 0.25865 0.0
H2325 H 0.47604 0.75072 0.27272 0.0
H2326 H 0.47666 0.7499 0.21621 0.0
H2327 H 0.49898 0.75952 0.23009 0.0
H2328 H 0.57756 0.73648 0.2661 0.0
H2329 H 0.55404 0.74659 0.27708 0.0
H2330 H 0.56182 0.74871 0.22116 0.0
H2331 H 0.53838 0.75905 0.23208 0.0
H2332 H 0.57835 0.79372 0.27215 0.0
H2333 H 0.55479 0.78416 0.26022 0.0
H2334 H 0.56106 0.78099 0.31634 0.0
H2335 H 0.5375 0.77125 0.30443 0.0
N2336 N 0.51669 0.77568 0.27947 0.0
N2337 N 0.51679 0.7565 0.25542 0.0
C2338 C 0.46493 0.27382 0.24104 0.0
C2339 C 0.46243 0.28955 0.24114 0.0
C2340 C 0.47807 0.2678 0.24778 0.0
C2341 C 0.48885 0.2774 0.25488 0.0
C2342 C 0.47324 0.29917 0.24808 0.0
C2343 C 0.48639 0.29314 0.2548 0.0
C2344 C 0.50305 0.27121 0.26172 0.0
C2345 C 0.46368 0.25154 0.28894 0.0
C2346 C 0.46328 0.2356 0.28937 0.0
C2347 C 0.47661 0.25925 0.28338 0.0
C2348 C 0.48919 0.25109 0.27789 0.0
C2349 C 0.47591 0.22749 0.28416 0.0
C2350 C 0.48872 0.23515 0.27851 0.0
C2351 C 0.50319 0.25882 0.27208 0.0
C2352 C 0.56984 0.25594 0.29047 0.0
C2353 C 0.57175 0.24013 0.29053 0.0
C2354 C 0.55643 0.26231 0.28464 0.0
C2355 C 0.54476 0.25295 0.27867 0.0
C2356 C 0.56 0.23077 0.28488 0.0
C2357 C 0.54659 0.23712 0.27908 0.0
C2358 C 0.5305 0.25949 0.2723 0.0
C2359 C 0.5684 0.27399 0.24123 0.0
C2360 C 0.5711 0.28972 0.24083 0.0
C2361 C 0.55517 0.26813 0.24798 0.0
C2362 C 0.54448 0.27788 0.25463 0.0
C2363 C 0.56036 0.29951 0.24724 0.0
C2364 C 0.5471 0.29363 0.254 0.0
C2365 C 0.53037 0.27167 0.26174 0.0
H2366 H 0.45677 0.26624 0.23563 0.0
H2367 H 0.47988 0.25566 0.24729 0.0
H2368 H 0.47153 0.31133 0.2482 0.0
H2369 H 0.49462 0.30078 0.26004 0.0
H2370 H 0.45407 0.25798 0.29302 0.0
H2371 H 0.47681 0.27154 0.28351 0.0
H2372 H 0.47581 0.21519 0.28445 0.0
H2373 H 0.49827 0.22857 0.2745 0.0
H2374 H 0.57874 0.26334 0.29491 0.0
H2375 H 0.55517 0.27453 0.28484 0.0
H2376 H 0.56124 0.21854 0.28491 0.0
H2377 H 0.53772 0.22966 0.27469 0.0
H2378 H 0.5765 0.26628 0.23622 0.0
H2379 H 0.55324 0.25596 0.24791 0.0
H2380 H 0.56224 0.31169 0.24696 0.0
H2381 H 0.53895 0.30138 0.25888 0.0
N2382 N 0.51666 0.27716 0.25701 0.0
N2383 N 0.51692 0.25349 0.2769 0.0
C2384 C 0.23295 0.23126 0.11381 0.0
C2385 C 0.2256 0.21684 0.11283 0.0
C2386 C 0.23022 0.21637 0.08527 0.0
C2387 C 0.23662 0.23122 0.08609 0.0
N2388 N 0.24178 0.25392 0.10055 0.0
N2389 N 0.2147 0.19688 0.09743 0.0
C2390 C 0.23732 0.239 0.10021 0.0
C2391 C 0.22348 0.20976 0.09848 0.0
N2392 N 0.23623 0.2373 0.12778 0.0
N2393 N 0.2311 0.20834 0.07202 0.0
H2394 H 0.20962 0.19169 0.10686 0.0
H2395 H 0.21135 0.19207 0.08712 0.0
H2396 H 0.23594 0.21277 0.06209 0.0
H2397 H 0.22821 0.19688 0.07117 0.0
H2398 H 0.24308 0.2469 0.12932 0.0
H2399 H 0.23305 0.23207 0.13798 0.0
H2400 H 0.241 0.26071 0.11018 0.0
H2401 H 0.24512 0.25994 0.09083 0.0
C2402 C 0.80893 0.21055 0.0977 0.0
C2403 C 0.80653 0.21727 0.11214 0.0
C2404 C 0.79498 0.23944 0.09975 0.0
C2405 C 0.79593 0.23199 0.08549 0.0
N2406 N 0.80171 0.20954 0.07104 0.0
N2407 N 0.79557 0.23712 0.12729 0.0
C2408 C 0.80239 0.2173 0.08449 0.0
C2409 C 0.79912 0.23148 0.11328 0.0
N2410 N 0.81778 0.19791 0.09659 0.0
N2411 N 0.79049 0.25425 0.10031 0.0
H2412 H 0.79857 0.23171 0.13745 0.0
H2413 H 0.78866 0.24652 0.12887 0.0
H2414 H 0.78733 0.26043 0.09065 0.0
H2415 H 0.79109 0.26083 0.11013 0.0
H2416 H 0.82133 0.19343 0.08625 0.0
H2417 H 0.82274 0.19263 0.10603 0.0
H2418 H 0.80466 0.19817 0.07002 0.0
H2419 H 0.79699 0.21407 0.06111 0.0
C2420 C 0.80056 0.80018 0.1132 0.0
C2421 C 0.80776 0.81466 0.11205 0.0
C2422 C 0.8034 0.81478 0.0844 0.0
C2423 C 0.79711 0.79989 0.08541 0.0
N2424 N 0.79204 0.7773 0.10024 0.0
N2425 N 0.81861 0.83456 0.09645 0.0
C2426 C 0.79637 0.79226 0.09968 0.0
C2427 C 0.80995 0.82161 0.0976 0.0
N2428 N 0.79722 0.79425 0.12723 0.0
N2429 N 0.80257 0.82266 0.07097 0.0
H2430 H 0.82355 0.83989 0.10586 0.0
H2431 H 0.82201 0.83929 0.0861 0.0
H2432 H 0.79788 0.81807 0.06104 0.0
H2433 H 0.80537 0.83413 0.06993 0.0
H2434 H 0.79045 0.7846 0.12885 0.0
H2435 H 0.80026 0.79962 0.13738 0.0
H2436 H 0.7928 0.77063 0.11003 0.0
H2437 H 0.78884 0.77116 0.09059 0.0
C2438 C 0.22378 0.82116 0.09826 0.0
C2439 C 0.22581 0.81416 0.11271 0.0
C2440 C 0.2366 0.79174 0.10038 0.0
C2441 C 0.23606 0.79942 0.08613 0.0
N2442 N 0.23124 0.82229 0.07172 0.0
N2443 N 0.23592 0.79369 0.12792 0.0
C2444 C 0.23017 0.81436 0.08511 0.0
C2445 C 0.23267 0.79966 0.11388 0.0
N2446 N 0.21541 0.83414 0.09706 0.0
N2447 N 0.24051 0.77675 0.10093 0.0
H2448 H 0.23308 0.79908 0.13806 0.0
H2449 H 0.24246 0.78401 0.12955 0.0
H2450 H 0.24348 0.77059 0.09129 0.0
H2451 H 0.23957 0.77006 0.1107 0.0
H2452 H 0.21212 0.8389 0.08669 0.0
H2453 H 0.21057 0.83946 0.10644 0.0
H2454 H 0.22873 0.83378 0.07071 0.0
H2455 H 0.23585 0.81773 0.06184 0.0
C2456 C 0.22869 0.79876 0.92317 0.0
C2457 C 0.22775 0.81484 0.92271 0.0
C2458 C 0.2361 0.81623 0.94941 0.0
C2459 C 0.23809 0.80026 0.94952 0.0
N2460 N 0.23813 0.77635 0.93628 0.0
N2461 N 0.23211 0.83917 0.93452 0.0
C2462 C 0.23487 0.79151 0.93633 0.0
C2463 C 0.23188 0.82367 0.93561 0.0
N2464 N 0.22337 0.79042 0.91113 0.0
N2465 N 0.23791 0.82424 0.96262 0.0
H2466 H 0.22862 0.84503 0.92477 0.0
H2467 H 0.23669 0.84627 0.94285 0.0
H2468 H 0.24137 0.81925 0.97285 0.0
H2469 H 0.23498 0.8356 0.96378 0.0
H2470 H 0.22212 0.77866 0.91135 0.0
H2471 H 0.21916 0.79536 0.90116 0.0
H2472 H 0.23769 0.76963 0.92656 0.0
H2473 H 0.24232 0.7706 0.94581 0.0
C2474 C 0.22875 0.23737 0.92124 0.0
C2475 C 0.21966 0.22395 0.92182 0.0
C2476 C 0.2266 0.22039 0.94872 0.0
C2477 C 0.23422 0.2347 0.94858 0.0
N2478 N 0.24105 0.2578 0.93527 0.0
N2479 N 0.20828 0.20357 0.93645 0.0
C2480 C 0.23496 0.24344 0.93496 0.0
C2481 C 0.21818 0.21565 0.93565 0.0
N2482 N 0.23173 0.24412 0.9075 0.0
N2483 N 0.22776 0.21116 0.96123 0.0
H2484 H 0.20202 0.19966 0.92711 0.0
H2485 H 0.20537 0.19816 0.94661 0.0
H2486 H 0.23384 0.21425 0.97099 0.0
H2487 H 0.22385 0.19996 0.96146 0.0
H2488 H 0.23957 0.25297 0.90609 0.0
H2489 H 0.22735 0.24 0.89723 0.0
H2490 H 0.24039 0.26538 0.92615 0.0
H2491 H 0.24575 0.26265 0.94506 0.0
C2492 C 0.80498 0.2392 0.92119 0.0
C2493 C 0.81354 0.2256 0.92182 0.0
C2494 C 0.80606 0.22185 0.94851 0.0
C2495 C 0.79899 0.23629 0.94835 0.0
N2496 N 0.79322 0.25966 0.93518 0.0
N2497 N 0.82389 0.20483 0.93646 0.0
C2498 C 0.79879 0.24521 0.93484 0.0
C2499 C 0.81448 0.21711 0.93558 0.0
N2500 N 0.80249 0.24617 0.90747 0.0
N2501 N 0.80438 0.21252 0.96089 0.0
H2502 H 0.83013 0.20091 0.92722 0.0
H2503 H 0.82643 0.19923 0.94661 0.0
H2504 H 0.7983 0.21562 0.97055 0.0
H2505 H 0.80785 0.20124 0.96108 0.0
H2506 H 0.79502 0.25518 0.90598 0.0
H2507 H 0.80687 0.24209 0.89726 0.0
H2508 H 0.79431 0.26734 0.92619 0.0
H2509 H 0.78852 0.26445 0.94491 0.0
C2510 C 0.79995 0.79989 0.92095 0.0
C2511 C 0.80782 0.81402 0.92204 0.0
C2512 C 0.80388 0.81407 0.94972 0.0
C2513 C 0.79694 0.79946 0.94876 0.0
N2514 N 0.79065 0.77726 0.93396 0.0
N2515 N 0.81978 0.83328 0.93758 0.0
C2516 C 0.79564 0.79201 0.9345 0.0
C2517 C 0.81053 0.82073 0.93649 0.0
N2518 N 0.79614 0.79425 0.90694 0.0
N2519 N 0.80358 0.82187 0.96315 0.0
H2520 H 0.82481 0.83848 0.92814 0.0
H2521 H 0.82355 0.83774 0.94791 0.0
H2522 H 0.7988 0.81742 0.97309 0.0
H2523 H 0.8069 0.83321 0.96415 0.0
H2524 H 0.78891 0.78492 0.90537 0.0
H2525 H 0.79926 0.79958 0.89678 0.0
H2526 H 0.79097 0.77065 0.92417 0.0
H2527 H 0.78736 0.77115 0.94364 0.0
C2528 C 0.09755 0.21715 0.21888 0.0
C2529 C 0.11162 0.2251 0.2206 0.0
C2530 C 0.099 0.24434 0.23618 0.0
C2531 C 0.08513 0.23592 0.23519 0.0
N2532 N 0.07177 0.21294 0.22809 0.0
N2533 N 0.1265 0.2446 0.23306 0.0
C2534 C 0.08458 0.2219 0.22726 0.0
C2535 C 0.11256 0.23822 0.22992 0.0
N2536 N 0.09642 0.20541 0.20879 0.0
N2537 N 0.09908 0.25846 0.24261 0.0
H2538 H 0.13666 0.24044 0.22864 0.0
H2539 H 0.12817 0.25317 0.24105 0.0
H2540 H 0.08942 0.2633 0.24742 0.0
H2541 H 0.10838 0.26589 0.24216 0.0
H2542 H 0.08611 0.20029 0.2057 0.0
H2543 H 0.10568 0.20148 0.20257 0.0
H2544 H 0.07121 0.20189 0.22396 0.0
H2545 H 0.06206 0.21607 0.23409 0.0
C2546 C 0.82312 0.0984 0.23245 0.0
C2547 C 0.81415 0.11123 0.22865 0.0
C2548 C 0.79093 0.09751 0.23648 0.0
C2549 C 0.79979 0.08439 0.23937 0.0
N2550 N 0.82386 0.07145 0.23833 0.0
N2551 N 0.78953 0.12266 0.22508 0.0
C2552 C 0.81578 0.08459 0.23685 0.0
C2553 C 0.79803 0.11068 0.2301 0.0
N2554 N 0.8387 0.09957 0.23219 0.0
N2555 N 0.77579 0.09747 0.24022 0.0
H2556 H 0.79438 0.13263 0.22072 0.0
H2557 H 0.77768 0.12238 0.22422 0.0
H2558 H 0.77014 0.08792 0.24457 0.0
H2559 H 0.76904 0.10712 0.24002 0.0
H2560 H 0.84593 0.09129 0.23652 0.0
H2561 H 0.84449 0.10933 0.22856 0.0
H2562 H 0.83518 0.07036 0.23501 0.0
H2563 H 0.81894 0.0612 0.2419 0.0
C2564 C 0.92297 0.79086 0.22249 0.0
C2565 C 0.92123 0.80676 0.22042 0.0
C2566 C 0.94637 0.81132 0.23212 0.0
C2567 C 0.94776 0.79549 0.23487 0.0
N2568 N 0.93656 0.77039 0.23506 0.0
N2569 N 0.92992 0.83234 0.22523 0.0
C2570 C 0.93579 0.78531 0.23075 0.0
C2571 C 0.93255 0.81706 0.22584 0.0
N2572 N 0.91258 0.78105 0.21613 0.0
N2573 N 0.95846 0.8208 0.23511 0.0
H2574 H 0.92005 0.83693 0.22047 0.0
H2575 H 0.9369 0.84042 0.23044 0.0
H2576 H 0.96861 0.81706 0.24003 0.0
H2577 H 0.95889 0.83216 0.23179 0.0
H2578 H 0.91409 0.76935 0.21566 0.0
H2579 H 0.90286 0.78468 0.21033 0.0
H2580 H 0.92753 0.76271 0.23391 0.0
H2581 H 0.94588 0.76588 0.24092 0.0
C2582 C 0.2181 0.93367 0.21925 0.0
C2583 C 0.22015 0.91981 0.22729 0.0
C2584 C 0.236 0.93298 0.24632 0.0
C2585 C 0.23464 0.94666 0.23781 0.0
N2586 N 0.22701 0.95947 0.21472 0.0
N2587 N 0.23327 0.90552 0.24673 0.0
C2588 C 0.22646 0.94683 0.22382 0.0
C2589 C 0.22979 0.91925 0.24031 0.0
N2590 N 0.20771 0.93441 0.20761 0.0
N2591 N 0.2427 0.93323 0.26042 0.0
H2592 H 0.22889 0.89525 0.24265 0.0
H2593 H 0.24149 0.90417 0.25522 0.0
H2594 H 0.24744 0.94302 0.2652 0.0
H2595 H 0.24252 0.92402 0.26791 0.0
H2596 H 0.2044 0.94455 0.20247 0.0
H2597 H 0.20147 0.92501 0.20382 0.0
H2598 H 0.22265 0.95978 0.20368 0.0
H2599 H 0.23304 0.9693 0.2177 0.0
C2600 C 0.11328 0.7926 0.80562 0.0
C2601 C 0.11271 0.80566 0.81501 0.0
C2602 C 0.08581 0.80921 0.80812 0.0
C2603 C 0.08594 0.79523 0.80015 0.0
N2604 N 0.09919 0.77257 0.7927 0.0
N2605 N 0.09813 0.82546 0.8268 0.0
C2606 C 0.09954 0.78665 0.79921 0.0
C2607 C 0.0989 0.81376 0.81665 0.0
N2608 N 0.12703 0.78609 0.80257 0.0
N2609 N 0.07329 0.81832 0.80719 0.0
H2610 H 0.1075 0.82923 0.83315 0.0
H2611 H 0.08797 0.83067 0.82982 0.0
H2612 H 0.0635 0.81535 0.80105 0.0
H2613 H 0.07307 0.82936 0.81138 0.0
H2614 H 0.12844 0.77756 0.79454 0.0
H2615 H 0.13731 0.79012 0.80712 0.0
H2616 H 0.10827 0.76505 0.79318 0.0
H2617 H 0.08938 0.76786 0.78778 0.0
C2618 C 0.23975 0.1111 0.80589 0.0
C2619 C 0.2262 0.1104 0.81467 0.0
C2620 C 0.22254 0.08367 0.8075 0.0
C2621 C 0.23696 0.08393 0.80018 0.0
N2622 N 0.2603 0.09729 0.79399 0.0
N2623 N 0.20559 0.09562 0.82551 0.0
C2624 C 0.24582 0.09751 0.79975 0.0
C2625 C 0.21779 0.09658 0.81589 0.0
N2626 N 0.24662 0.12485 0.80314 0.0
N2627 N 0.21322 0.07121 0.80608 0.0
H2628 H 0.20167 0.10484 0.83174 0.0
H2629 H 0.20008 0.08544 0.82824 0.0
H2630 H 0.21631 0.06156 0.80002 0.0
H2631 H 0.20194 0.07091 0.80975 0.0
H2632 H 0.25558 0.12637 0.79552 0.0
H2633 H 0.2425 0.13502 0.80748 0.0
H2634 H 0.26795 0.10636 0.79491 0.0
H2635 H 0.26515 0.0876 0.78935 0.0
C2636 C 0.92045 0.23223 0.80127 0.0
C2637 C 0.92152 0.21798 0.80882 0.0
C2638 C 0.94922 0.21796 0.80474 0.0
C2639 C 0.94829 0.23265 0.79808 0.0
N2640 N 0.93358 0.25495 0.79228 0.0
N2641 N 0.93703 0.19854 0.8203 0.0
C2642 C 0.93405 0.24014 0.79701 0.0
C2643 C 0.93596 0.21122 0.81132 0.0
N2644 N 0.90643 0.23794 0.79769 0.0
N2645 N 0.96263 0.21018 0.80423 0.0
H2646 H 0.92757 0.19327 0.82527 0.0
H2647 H 0.94737 0.19401 0.82391 0.0
H2648 H 0.9726 0.21471 0.79953 0.0
H2649 H 0.9636 0.1988 0.80732 0.0
H2650 H 0.90486 0.24737 0.79068 0.0
H2651 H 0.89623 0.23258 0.80079 0.0
H2652 H 0.92381 0.26156 0.79277 0.0
H2653 H 0.94329 0.26107 0.78901 0.0
C2654 C 0.81547 0.93438 0.81563 0.0
C2655 C 0.81403 0.92062 0.80735 0.0
C2656 C 0.79853 0.93356 0.78794 0.0
C2657 C 0.79927 0.9471 0.79665 0.0
N2658 N 0.80598 0.95979 0.82003 0.0
N2659 N 0.80202 0.90626 0.78722 0.0
C2660 C 0.80701 0.94732 0.81089 0.0
C2661 C 0.80489 0.91997 0.79397 0.0
N2662 N 0.82537 0.93525 0.82768 0.0
N2663 N 0.79221 0.93384 0.77367 0.0
H2664 H 0.80653 0.89609 0.7913 0.0
H2665 H 0.79417 0.90474 0.77842 0.0
H2666 H 0.78727 0.94351 0.76894 0.0
H2667 H 0.79288 0.92485 0.76605 0.0
H2668 H 0.82826 0.94538 0.83309 0.0
H2669 H 0.83162 0.92599 0.8316 0.0
H2670 H 0.80996 0.96008 0.83122 0.0
H2671 H 0.79997 0.96949 0.81689 0.0
C2672 C 0.2165 0.09734 0.21973 0.0
C2673 C 0.2183 0.11113 0.22789 0.0
C2674 C 0.23395 0.09805 0.24708 0.0
C2675 C 0.23292 0.0845 0.23841 0.0
N2676 N 0.22578 0.07192 0.21509 0.0
N2677 N 0.23096 0.12542 0.24768 0.0
C2678 C 0.22494 0.08435 0.22431 0.0
C2679 C 0.22771 0.11172 0.24109 0.0
N2680 N 0.20629 0.0965 0.20794 0.0
N2681 N 0.24037 0.09774 0.26131 0.0
H2682 H 0.22656 0.13564 0.24362 0.0
H2683 H 0.23902 0.12684 0.25632 0.0
H2684 H 0.24509 0.08798 0.2661 0.0
H2685 H 0.23996 0.1068 0.26887 0.0
H2686 H 0.20316 0.08636 0.20267 0.0
H2687 H 0.19999 0.10578 0.20415 0.0
H2688 H 0.22159 0.0717 0.20397 0.0
H2689 H 0.23187 0.06221 0.21805 0.0
C2690 C 0.21172 0.93432 0.80942 0.0
C2691 C 0.21866 0.92005 0.80701 0.0
C2692 C 0.24078 0.93281 0.79537 0.0
C2693 C 0.23312 0.9469 0.79639 0.0
N2694 N 0.21038 0.9609 0.80227 0.0
N2695 N 0.23883 0.9053 0.79601 0.0
C2696 C 0.21834 0.94762 0.80288 0.0
C2697 C 0.23296 0.91917 0.79955 0.0
N2698 N 0.19897 0.93519 0.81829 0.0
N2699 N 0.25567 0.93253 0.79079 0.0
H2700 H 0.23353 0.89508 0.79905 0.0
H2701 H 0.2483 0.90389 0.78907 0.0
H2702 H 0.26174 0.94228 0.78759 0.0
H2703 H 0.2624 0.92286 0.79134 0.0
H2704 H 0.19432 0.94541 0.82185 0.0
H2705 H 0.19377 0.92568 0.82323 0.0
H2706 H 0.19894 0.96172 0.80525 0.0
H2707 H 0.21482 0.9709 0.79757 0.0
C2708 C 0.11293 0.23072 0.80003 0.0
C2709 C 0.11159 0.21676 0.80809 0.0
C2710 C 0.08378 0.2171 0.80463 0.0
C2711 C 0.08502 0.23156 0.79749 0.0
N2712 N 0.10038 0.2534 0.79065 0.0
N2713 N 0.09574 0.19799 0.82055 0.0
C2714 C 0.0995 0.23875 0.79584 0.0
C2715 C 0.09699 0.21035 0.81113 0.0
N2716 N 0.12703 0.23605 0.7959 0.0
N2717 N 0.07007 0.20954 0.80467 0.0
H2718 H 0.10517 0.19271 0.82547 0.0
H2719 H 0.08536 0.19377 0.82454 0.0
H2720 H 0.06013 0.21407 0.80001 0.0
H2721 H 0.06879 0.19828 0.80815 0.0
H2722 H 0.12871 0.24521 0.78853 0.0
H2723 H 0.13713 0.2306 0.79891 0.0
H2724 H 0.1104 0.25984 0.7907 0.0
H2725 H 0.0908 0.25962 0.78745 0.0
C2726 C 0.79964 0.11155 0.802 0.0
C2727 C 0.80785 0.11041 0.81593 0.0
C2728 C 0.8048 0.08266 0.81554 0.0
C2729 C 0.79744 0.08373 0.80114 0.0
N2730 N 0.79019 0.0988 0.77934 0.0
N2731 N 0.82077 0.09494 0.83457 0.0
C2732 C 0.79555 0.09808 0.79397 0.0
C2733 C 0.81119 0.09596 0.82228 0.0
N2734 N 0.79527 0.12549 0.79673 0.0
N2735 N 0.80514 0.06904 0.82307 0.0
H2736 H 0.82561 0.10444 0.83984 0.0
H2737 H 0.82497 0.0847 0.83873 0.0
H2738 H 0.80059 0.05903 0.81854 0.0
H2739 H 0.80877 0.06785 0.83432 0.0
H2740 H 0.78779 0.127 0.78761 0.0
H2741 H 0.79821 0.13561 0.80218 0.0
H2742 H 0.79004 0.10876 0.7729 0.0
H2743 H 0.78706 0.08919 0.77312 0.0
C2744 C 0.92064 0.79362 0.80498 0.0
C2745 C 0.92145 0.80696 0.81398 0.0
C2746 C 0.94839 0.81041 0.80702 0.0
C2747 C 0.948 0.7962 0.79945 0.0
N2748 N 0.93433 0.77331 0.7926 0.0
N2749 N 0.93641 0.8272 0.82514 0.0
C2750 C 0.93425 0.78756 0.79874 0.0
C2751 C 0.93541 0.81518 0.81538 0.0
N2752 N 0.90677 0.78694 0.80212 0.0
N2753 N 0.96106 0.81953 0.80589 0.0
H2754 H 0.92713 0.83115 0.83132 0.0
H2755 H 0.94666 0.83256 0.82801 0.0
H2756 H 0.97078 0.81639 0.7999 0.0
H2757 H 0.96148 0.83069 0.80974 0.0
H2758 H 0.90516 0.77816 0.79436 0.0
H2759 H 0.89659 0.79104 0.80654 0.0
H2760 H 0.92514 0.76575 0.79329 0.0
H2761 H 0.94402 0.76852 0.7878 0.0
C2762 C 0.79906 0.92032 0.23396 0.0
C2763 C 0.81337 0.92158 0.22651 0.0
C2764 C 0.8136 0.94914 0.23067 0.0
C2765 C 0.79884 0.94803 0.23724 0.0
N2766 N 0.77633 0.93308 0.24276 0.0
N2767 N 0.83295 0.93731 0.21517 0.0
C2768 C 0.79122 0.93375 0.23818 0.0
C2769 C 0.82024 0.93605 0.22408 0.0
N2770 N 0.79324 0.90629 0.23749 0.0
N2771 N 0.82154 0.96258 0.2313 0.0
H2772 H 0.83815 0.92797 0.21018 0.0
H2773 H 0.83754 0.94768 0.21161 0.0
H2774 H 0.81711 0.97242 0.23606 0.0
H2775 H 0.83297 0.96368 0.22828 0.0
H2776 H 0.78377 0.90459 0.24444 0.0
H2777 H 0.79854 0.89621 0.23441 0.0
H2778 H 0.76962 0.92327 0.24218 0.0
H2779 H 0.77023 0.94266 0.24595 0.0
C2780 C 0.09895 0.81356 0.21849 0.0
C2781 C 0.11275 0.80539 0.22018 0.0
C2782 C 0.09951 0.78613 0.23569 0.0
C2783 C 0.08594 0.79478 0.23476 0.0
N2784 N 0.07342 0.8181 0.22789 0.0
N2785 N 0.127 0.78557 0.2326 0.0
C2786 C 0.08587 0.80892 0.22693 0.0
C2787 C 0.11327 0.79216 0.22946 0.0
N2788 N 0.09818 0.8254 0.2084 0.0
N2789 N 0.09911 0.7719 0.242 0.0
H2790 H 0.13729 0.78966 0.2282 0.0
H2791 H 0.12838 0.77689 0.24057 0.0
H2792 H 0.08928 0.76708 0.24672 0.0
H2793 H 0.10817 0.76436 0.24149 0.0
H2794 H 0.08803 0.83068 0.20536 0.0
H2795 H 0.10754 0.82923 0.2021 0.0
H2796 H 0.07327 0.82922 0.2238 0.0
H2797 H 0.06365 0.81509 0.23399 0.0
C2798 C 0.92228 0.24229 0.22275 0.0
C2799 C 0.92067 0.22661 0.21932 0.0
C2800 C 0.9461 0.2217 0.22998 0.0
C2801 C 0.94741 0.23725 0.23405 0.0
N2802 N 0.93609 0.26193 0.2366 0.0
N2803 N 0.92975 0.20095 0.22149 0.0
C2804 C 0.93529 0.24743 0.2311 0.0
C2805 C 0.93221 0.21618 0.22349 0.0
N2806 N 0.91156 0.25232 0.21765 0.0
N2807 N 0.95833 0.21235 0.2319 0.0
H2808 H 0.91987 0.19654 0.21643 0.0
H2809 H 0.93692 0.1926 0.22579 0.0
H2810 H 0.96855 0.2159 0.23696 0.0
H2811 H 0.9588 0.20136 0.22762 0.0
H2812 H 0.9129 0.26406 0.21816 0.0
H2813 H 0.90164 0.24892 0.21194 0.0
H2814 H 0.92701 0.26945 0.23632 0.0
H2815 H 0.94556 0.26617 0.24252 0.0
C2816 C 0.23258 0.73223 0.61288 0.0
C2817 C 0.22579 0.71754 0.61206 0.0
C2818 C 0.23091 0.71671 0.5846 0.0
C2819 C 0.23679 0.73178 0.58523 0.0
N2820 N 0.24094 0.7549 0.59931 0.0
N2821 N 0.21594 0.69688 0.5969 0.0
C2822 C 0.23696 0.73985 0.5992 0.0
C2823 C 0.2242 0.7101 0.59782 0.0
N2824 N 0.23534 0.73867 0.62677 0.0
N2825 N 0.23227 0.7085 0.5715 0.0
H2826 H 0.2109 0.69169 0.60634 0.0
H2827 H 0.21296 0.69175 0.58663 0.0
H2828 H 0.23706 0.71294 0.56156 0.0
H2829 H 0.2298 0.69693 0.57081 0.0
H2830 H 0.2418 0.74854 0.62825 0.0
H2831 H 0.23212 0.73353 0.63701 0.0
H2832 H 0.23975 0.76185 0.60878 0.0
H2833 H 0.2443 0.76082 0.58954 0.0
C2834 C 0.79283 0.72671 0.61375 0.0
C2835 C 0.80583 0.71724 0.61319 0.0
C2836 C 0.80943 0.72378 0.58624 0.0
C2837 C 0.79553 0.73191 0.5864 0.0
N2838 N 0.77286 0.73961 0.59968 0.0
N2839 N 0.82545 0.70507 0.5986 0.0
C2840 C 0.78693 0.73302 0.60001 0.0
C2841 C 0.81388 0.71534 0.59935 0.0
N2842 N 0.78636 0.72996 0.62748 0.0
N2843 N 0.81857 0.72447 0.57367 0.0
H2844 H 0.82914 0.69877 0.60799 0.0
H2845 H 0.8306 0.70189 0.58846 0.0
H2846 H 0.81567 0.73053 0.56385 0.0
H2847 H 0.82958 0.72016 0.57342 0.0
H2848 H 0.7779 0.73805 0.62886 0.0
H2849 H 0.79034 0.72549 0.63776 0.0
H2850 H 0.76531 0.73926 0.60879 0.0
H2851 H 0.76818 0.74444 0.58987 0.0
C2852 C 0.79455 0.30383 0.61332 0.0
C2853 C 0.80802 0.31291 0.61269 0.0
C2854 C 0.81163 0.30571 0.58597 0.0
C2855 C 0.79728 0.29809 0.58613 0.0
N2856 N 0.77413 0.29125 0.59935 0.0
N2857 N 0.82855 0.32402 0.59809 0.0
C2858 C 0.7885 0.29745 0.59967 0.0
C2859 C 0.81639 0.31421 0.59893 0.0
N2860 N 0.78774 0.30106 0.62704 0.0
N2861 N 0.82088 0.3045 0.57354 0.0
H2862 H 0.8325 0.33031 0.60737 0.0
H2863 H 0.83403 0.32682 0.58794 0.0
H2864 H 0.81776 0.29839 0.56384 0.0
H2865 H 0.83213 0.30841 0.57332 0.0
H2866 H 0.77886 0.29326 0.62854 0.0
H2867 H 0.79183 0.30559 0.63725 0.0
H2868 H 0.76649 0.29197 0.60835 0.0
H2869 H 0.76934 0.28636 0.58962 0.0
C2870 C 0.23337 0.30039 0.6133 0.0
C2871 C 0.2262 0.31475 0.61221 0.0
C2872 C 0.23048 0.31514 0.58459 0.0
C2873 C 0.23671 0.30034 0.58554 0.0
N2874 N 0.24173 0.27772 0.60024 0.0
N2875 N 0.21531 0.33455 0.59666 0.0
C2876 C 0.23746 0.29262 0.59975 0.0
C2877 C 0.22397 0.32175 0.59779 0.0
N2878 N 0.23676 0.29443 0.62731 0.0
N2879 N 0.23134 0.32315 0.57123 0.0
H2880 H 0.21038 0.33972 0.60607 0.0
H2881 H 0.21189 0.33926 0.58631 0.0
H2882 H 0.23603 0.31874 0.56132 0.0
H2883 H 0.22858 0.33459 0.57028 0.0
H2884 H 0.24351 0.28488 0.62889 0.0
H2885 H 0.2338 0.2997 0.63748 0.0
H2886 H 0.24097 0.27098 0.60998 0.0
H2887 H 0.24483 0.27168 0.59056 0.0
C2888 C 0.23469 0.30267 0.42113 0.0
C2889 C 0.22709 0.31679 0.42225 0.0
C2890 C 0.23103 0.31671 0.44994 0.0
C2891 C 0.23766 0.30211 0.44894 0.0
N2892 N 0.24352 0.27997 0.43409 0.0
N2893 N 0.21555 0.336 0.43777 0.0
C2894 C 0.23883 0.29473 0.43466 0.0
C2895 C 0.22453 0.32344 0.43669 0.0
N2896 N 0.2384 0.29712 0.40713 0.0
N2897 N 0.23147 0.32441 0.46343 0.0
H2898 H 0.21063 0.34127 0.42831 0.0
H2899 H 0.21188 0.34042 0.44809 0.0
H2900 H 0.23613 0.31987 0.47339 0.0
H2901 H 0.22839 0.33574 0.46449 0.0
H2902 H 0.24544 0.2878 0.40557 0.0
H2903 H 0.23542 0.30253 0.39696 0.0
H2904 H 0.24306 0.27342 0.42426 0.0
H2905 H 0.24669 0.27381 0.44376 0.0
C2906 C 0.2189 0.71646 0.43425 0.0
C2907 C 0.22071 0.7247 0.42042 0.0
C2908 C 0.23615 0.74397 0.43377 0.0
C2909 C 0.23508 0.73525 0.44738 0.0
N2910 N 0.22807 0.71183 0.45995 0.0
N2911 N 0.23335 0.74463 0.40626 0.0
C2912 C 0.22723 0.72107 0.44743 0.0
C2913 C 0.23005 0.73797 0.41996 0.0
N2914 N 0.20876 0.70458 0.43495 0.0
N2915 N 0.24246 0.75823 0.43414 0.0
H2916 H 0.22907 0.74056 0.39594 0.0
H2917 H 0.24136 0.75335 0.40495 0.0
H2918 H 0.24707 0.76303 0.44399 0.0
H2919 H 0.24205 0.7658 0.425 0.0
H2920 H 0.20561 0.69924 0.44509 0.0
H2921 H 0.20253 0.70077 0.42555 0.0
H2922 H 0.22398 0.70069 0.46013 0.0
H2923 H 0.2341 0.71481 0.46979 0.0
C2924 C 0.82122 0.7216 0.4373 0.0
C2925 C 0.81482 0.72479 0.42277 0.0
C2926 C 0.79318 0.73735 0.43494 0.0
C2927 C 0.8004 0.73555 0.44934 0.0
N2928 N 0.82232 0.72794 0.46412 0.0
N2929 N 0.79576 0.73726 0.40744 0.0
C2930 C 0.81469 0.72816 0.45051 0.0
C2931 C 0.80104 0.73305 0.42149 0.0
N2932 N 0.83334 0.71201 0.4385 0.0
N2933 N 0.77863 0.7428 0.43417 0.0
H2934 H 0.80109 0.73416 0.39733 0.0
H2935 H 0.78678 0.74476 0.40578 0.0
H2936 H 0.77255 0.74609 0.44377 0.0
H2937 H 0.77212 0.74289 0.42423 0.0
H2938 H 0.8375 0.70793 0.44885 0.0
H2939 H 0.83846 0.70704 0.42907 0.0
H2940 H 0.83352 0.72427 0.46533 0.0
H2941 H 0.81794 0.73262 0.47406 0.0
C2942 C 0.81555 0.31462 0.43528 0.0
C2943 C 0.80736 0.31289 0.4214 0.0
C2944 C 0.78807 0.29721 0.43447 0.0
C2945 C 0.79672 0.29822 0.44815 0.0
N2946 N 0.8201 0.3053 0.46094 0.0
N2947 N 0.78754 0.30028 0.40699 0.0
C2948 C 0.8109 0.30617 0.44836 0.0
C2949 C 0.79412 0.30348 0.42076 0.0
N2950 N 0.82741 0.32478 0.43614 0.0
N2951 N 0.7738 0.29077 0.43469 0.0
H2952 H 0.79165 0.3047 0.39673 0.0
H2953 H 0.77887 0.29224 0.40554 0.0
H2954 H 0.76897 0.28602 0.44447 0.0
H2955 H 0.76625 0.2912 0.42551 0.0
H2956 H 0.8327 0.32786 0.44633 0.0
H2957 H 0.83126 0.33108 0.4268 0.0
H2958 H 0.83126 0.30948 0.46123 0.0
H2959 H 0.81709 0.2992 0.4707 0.0
C2960 C 0.09772 0.71772 0.71825 0.0
C2961 C 0.11177 0.7257 0.72001 0.0
C2962 C 0.09905 0.74497 0.73548 0.0
C2963 C 0.08519 0.73652 0.73443 0.0
N2964 N 0.07192 0.71349 0.72737 0.0
N2965 N 0.12657 0.74524 0.73249 0.0
C2966 C 0.0847 0.72248 0.72656 0.0
C2967 C 0.11265 0.73884 0.7293 0.0
N2968 N 0.09666 0.70594 0.7082 0.0
N2969 N 0.09908 0.7591 0.74186 0.0
H2970 H 0.13675 0.74108 0.72813 0.0
H2971 H 0.12819 0.75383 0.74046 0.0
H2972 H 0.08939 0.76395 0.7466 0.0
H2973 H 0.10839 0.76653 0.74144 0.0
H2974 H 0.08637 0.7008 0.70508 0.0
H2975 H 0.10595 0.70201 0.70203 0.0
H2976 H 0.0714 0.70242 0.72328 0.0
H2977 H 0.06218 0.71661 0.73334 0.0
C2978 C 0.80168 0.6123 0.7357 0.0
C2979 C 0.816 0.61142 0.72828 0.0
C2980 C 0.81642 0.58387 0.73261 0.0
C2981 C 0.80164 0.5846 0.73908 0.0
N2982 N 0.77902 0.59892 0.74453 0.0
N2983 N 0.8358 0.59628 0.71718 0.0
C2984 C 0.79391 0.59866 0.73997 0.0
C2985 C 0.82302 0.59716 0.726 0.0
N2986 N 0.79576 0.62617 0.73913 0.0
N2987 N 0.8244 0.57061 0.7333 0.0
H2988 H 0.84098 0.60578 0.71219 0.0
H2989 H 0.84051 0.58605 0.71372 0.0
H2990 H 0.81995 0.56062 0.73801 0.0
H2991 H 0.83585 0.56979 0.73034 0.0
H2992 H 0.78626 0.62759 0.74603 0.0
H2993 H 0.80102 0.63639 0.73603 0.0
H2994 H 0.77224 0.60855 0.74387 0.0
H2995 H 0.77299 0.58918 0.74782 0.0
C2996 C 0.93528 0.31558 0.71992 0.0
C2997 C 0.92133 0.30739 0.72145 0.0
C2998 C 0.93429 0.28796 0.73681 0.0
C2999 C 0.94804 0.2966 0.73599 0.0
N3000 N 0.96098 0.31998 0.7294 0.0
N3001 N 0.90676 0.28746 0.73365 0.0
C3002 C 0.94833 0.31083 0.72832 0.0
C3003 C 0.9206 0.29407 0.73061 0.0
N3004 N 0.93621 0.32756 0.70999 0.0
N3005 N 0.93443 0.27367 0.74297 0.0
H3006 H 0.89652 0.29162 0.72928 0.0
H3007 H 0.90526 0.2787 0.74152 0.0
H3008 H 0.94419 0.2688 0.74767 0.0
H3009 H 0.9252 0.26615 0.74237 0.0
H3010 H 0.94645 0.33288 0.70704 0.0
H3011 H 0.92688 0.33149 0.70375 0.0
H3012 H 0.96135 0.33115 0.72545 0.0
H3013 H 0.97074 0.31688 0.73547 0.0
C3014 C 0.20808 0.42946 0.74445 0.0
C3015 C 0.2082 0.42561 0.72875 0.0
C3016 C 0.22284 0.44901 0.72366 0.0
C3017 C 0.22583 0.45052 0.73949 0.0
N3018 N 0.2214 0.44173 0.76521 0.0
N3019 N 0.20477 0.43936 0.70525 0.0
C3020 C 0.21845 0.44063 0.74997 0.0
C3021 C 0.21259 0.43745 0.71857 0.0
N3022 N 0.19638 0.42456 0.75347 0.0
N3023 N 0.2296 0.45866 0.71345 0.0
H3024 H 0.19491 0.43306 0.70284 0.0
H3025 H 0.20651 0.44858 0.69795 0.0
H3026 H 0.23664 0.4677 0.71671 0.0
H3027 H 0.22898 0.45696 0.70171 0.0
H3028 H 0.19498 0.42816 0.76466 0.0
H3029 H 0.18694 0.4188 0.74894 0.0
H3030 H 0.21727 0.4338 0.77307 0.0
H3031 H 0.22898 0.44973 0.76977 0.0
C3032 C 0.09991 0.31549 0.31346 0.0
C3033 C 0.11187 0.30539 0.31727 0.0
C3034 C 0.09793 0.28435 0.30506 0.0
C3035 C 0.08543 0.29416 0.30243 0.0
N3036 N 0.07363 0.31859 0.30522 0.0
N3037 N 0.12197 0.28003 0.31816 0.0
C3038 C 0.08619 0.30963 0.30689 0.0
C3039 C 0.11081 0.28976 0.31344 0.0
N3040 N 0.1018 0.33072 0.31589 0.0
N3041 N 0.09759 0.26996 0.29925 0.0
H3042 H 0.13182 0.28365 0.32385 0.0
H3043 H 0.12108 0.26827 0.31735 0.0
H3044 H 0.08822 0.26552 0.29334 0.0
H3045 H 0.10694 0.26277 0.29927 0.0
H3046 H 0.09431 0.33892 0.31186 0.0
H3047 H 0.11151 0.33536 0.32107 0.0
H3048 H 0.07276 0.32942 0.30979 0.0
H3049 H 0.06354 0.31481 0.30006 0.0
C3050 C 0.24213 0.60027 0.32463 0.0
C3051 C 0.22662 0.60477 0.32361 0.0
C3052 C 0.22144 0.58239 0.30769 0.0
C3053 C 0.23735 0.58031 0.30583 0.0
N3054 N 0.26314 0.58773 0.31241 0.0
N3055 N 0.20236 0.59174 0.32484 0.0
C3056 C 0.24779 0.58936 0.31429 0.0
C3057 C 0.21621 0.59359 0.31802 0.0
N3058 N 0.25065 0.60427 0.33704 0.0
N3059 N 0.21125 0.57362 0.29977 0.0
H3060 H 0.19968 0.59747 0.33484 0.0
H3061 H 0.19479 0.58293 0.32217 0.0
H3062 H 0.21456 0.5649 0.29254 0.0
H3063 H 0.19957 0.5758 0.29963 0.0
H3064 H 0.26159 0.60016 0.33908 0.0
H3065 H 0.24582 0.6098 0.34632 0.0
H3066 H 0.27111 0.5951 0.31735 0.0
H3067 H 0.2678 0.57987 0.30493 0.0
C3068 C 0.9358 0.71044 0.31097 0.0
C3069 C 0.92138 0.71728 0.30864 0.0
C3070 C 0.93391 0.73947 0.29691 0.0
C3071 C 0.94812 0.73191 0.2978 0.0
N3072 N 0.96243 0.70935 0.30372 0.0
N3073 N 0.9063 0.7374 0.29779 0.0
C3074 C 0.94904 0.71717 0.30435 0.0
C3075 C 0.92032 0.73159 0.30121 0.0
N3076 N 0.93688 0.69767 0.31983 0.0
N3077 N 0.93348 0.75432 0.29229 0.0
H3078 H 0.8961 0.73207 0.30092 0.0
H3079 H 0.90471 0.7469 0.29087 0.0
H3080 H 0.94319 0.76042 0.28899 0.0
H3081 H 0.92376 0.76098 0.29292 0.0
H3082 H 0.94722 0.69306 0.32333 0.0
H3083 H 0.92742 0.6924 0.32483 0.0
H3084 H 0.96338 0.69795 0.30672 0.0
H3085 H 0.97239 0.7139 0.29901 0.0
C3086 C 0.81484 0.43464 0.31508 0.0
C3087 C 0.81262 0.42068 0.3073 0.0
C3088 C 0.79643 0.43347 0.28836 0.0
C3089 C 0.79795 0.44722 0.29663 0.0
N3090 N 0.8061 0.46033 0.31933 0.0
N3091 N 0.79914 0.40606 0.28831 0.0
C3092 C 0.80642 0.44763 0.31045 0.0
C3093 C 0.80274 0.41988 0.29446 0.0
N3094 N 0.82544 0.43563 0.32652 0.0
N3095 N 0.78947 0.43351 0.27439 0.0
H3096 H 0.80358 0.39589 0.29246 0.0
H3097 H 0.79078 0.40451 0.27999 0.0
H3098 H 0.78462 0.44319 0.26958 0.0
H3099 H 0.78952 0.42427 0.26703 0.0
H3100 H 0.82886 0.44585 0.33144 0.0
H3101 H 0.83172 0.42635 0.33034 0.0
H3102 H 0.81068 0.4608 0.33029 0.0
H3103 H 0.80008 0.47006 0.31629 0.0
C3104 C 0.22855 0.613 0.74108 0.0
C3105 C 0.21913 0.61222 0.7279 0.0
C3106 C 0.22575 0.58538 0.7247 0.0
C3107 C 0.23375 0.58574 0.73879 0.0
N3108 N 0.24134 0.59931 0.76143 0.0
N3109 N 0.20715 0.59734 0.70812 0.0
C3110 C 0.23483 0.59942 0.74725 0.0
C3111 C 0.21734 0.59833 0.71992 0.0
N3112 N 0.23177 0.62679 0.74749 0.0
N3113 N 0.2265 0.57277 0.71572 0.0
H3114 H 0.20089 0.60659 0.70418 0.0
H3115 H 0.20401 0.58714 0.70298 0.0
H3116 H 0.23252 0.56308 0.71887 0.0
H3117 H 0.2223 0.57237 0.70461 0.0
H3118 H 0.23983 0.62835 0.75611 0.0
H3119 H 0.22735 0.63695 0.7433 0.0
H3120 H 0.24093 0.60846 0.76888 0.0
H3121 H 0.24617 0.58964 0.76629 0.0
C3122 C 0.20972 0.42704 0.28554 0.0
C3123 C 0.21773 0.41608 0.29429 0.0
C3124 C 0.24087 0.43184 0.2919 0.0
C3125 C 0.23181 0.44419 0.28688 0.0
N3126 N 0.20718 0.45352 0.27889 0.0
N3127 N 0.24244 0.40452 0.29278 0.0
C3128 C 0.21612 0.44177 0.28361 0.0
C3129 C 0.23391 0.41732 0.29401 0.0
N3130 N 0.19743 0.42268 0.27698 0.0
N3131 N 0.25612 0.43385 0.29453 0.0
H3132 H 0.23735 0.39391 0.29093 0.0
H3133 H 0.25421 0.40471 0.29115 0.0
H3134 H 0.26184 0.44409 0.29242 0.0
H3135 H 0.26283 0.42558 0.29973 0.0
H3136 H 0.19199 0.42992 0.2693 0.0
H3137 H 0.19423 0.41127 0.27601 0.0
H3138 H 0.19537 0.45246 0.27774 0.0
H3139 H 0.21138 0.46456 0.27737 0.0
C3140 C 0.11282 0.73066 0.29944 0.0
C3141 C 0.11155 0.7168 0.3077 0.0
C3142 C 0.0837 0.71713 0.30448 0.0
C3143 C 0.08489 0.73149 0.29712 0.0
N3144 N 0.1002 0.75324 0.28991 0.0
N3145 N 0.09578 0.69825 0.32059 0.0
C3146 C 0.09936 0.73865 0.29528 0.0
C3147 C 0.09697 0.71046 0.31097 0.0
N3148 N 0.12689 0.73591 0.29511 0.0
N3149 N 0.07 0.70956 0.30471 0.0
H3150 H 0.10525 0.69305 0.32553 0.0
H3151 H 0.08543 0.69411 0.32474 0.0
H3152 H 0.06003 0.71401 0.30004 0.0
H3153 H 0.06876 0.69835 0.30836 0.0
H3154 H 0.1285 0.74497 0.2876 0.0
H3155 H 0.137 0.73048 0.29809 0.0
H3156 H 0.11024 0.75966 0.2898 0.0
H3157 H 0.0906 0.75943 0.28675 0.0
C3158 C 0.81052 0.5959 0.32239 0.0
C3159 C 0.80724 0.61039 0.31608 0.0
C3160 C 0.79486 0.59819 0.2941 0.0
C3161 C 0.79668 0.5838 0.30123 0.0
N3162 N 0.80432 0.56901 0.32312 0.0
N3163 N 0.79473 0.62559 0.29693 0.0
C3164 C 0.80405 0.58266 0.31562 0.0
C3165 C 0.79903 0.61161 0.30216 0.0
N3166 N 0.8201 0.5948 0.33467 0.0
N3167 N 0.78948 0.59897 0.27948 0.0
H3168 H 0.79773 0.63568 0.3024 0.0
H3169 H 0.78725 0.62716 0.28783 0.0
H3170 H 0.78629 0.58938 0.27324 0.0
H3171 H 0.78936 0.60894 0.27306 0.0
H3172 H 0.82425 0.58453 0.3388 0.0
H3173 H 0.825 0.60426 0.33996 0.0
H3174 H 0.80796 0.56778 0.33436 0.0
H3175 H 0.79972 0.55904 0.31857 0.0
C3176 C 0.9331 0.31649 0.31003 0.0
C3177 C 0.92154 0.30623 0.315 0.0
C3178 C 0.93585 0.28483 0.30455 0.0
C3179 C 0.94803 0.29492 0.30087 0.0
N3180 N 0.95921 0.32003 0.30145 0.0
N3181 N 0.91244 0.28055 0.31867 0.0
C3182 C 0.9469 0.31069 0.30393 0.0
C3183 C 0.92304 0.29037 0.31268 0.0
N3184 N 0.93072 0.33179 0.31086 0.0
N3185 N 0.93638 0.27003 0.29993 0.0
H3186 H 0.90272 0.28418 0.32437 0.0
H3187 H 0.91375 0.26882 0.31896 0.0
H3188 H 0.94565 0.26554 0.29413 0.0
H3189 H 0.9272 0.26249 0.30075 0.0
H3190 H 0.93792 0.33989 0.30594 0.0
H3191 H 0.92087 0.33642 0.31549 0.0
H3192 H 0.95978 0.33128 0.30502 0.0
H3193 H 0.96938 0.31624 0.29674 0.0
C3194 C 0.79938 0.42296 0.72716 0.0
C3195 C 0.81553 0.42192 0.72742 0.0
C3196 C 0.81749 0.44783 0.73757 0.0
C3197 C 0.80134 0.44839 0.73848 0.0
N3198 N 0.77681 0.43602 0.73598 0.0
N3199 N 0.84005 0.43238 0.73455 0.0
C3200 C 0.79224 0.43582 0.73375 0.0
C3201 C 0.82462 0.43411 0.73307 0.0
N3202 N 0.7909 0.4118 0.72029 0.0
N3203 N 0.82599 0.46057 0.74064 0.0
H3204 H 0.84573 0.42265 0.73106 0.0
H3205 H 0.84712 0.44009 0.74021 0.0
H3206 H 0.82119 0.47074 0.74422 0.0
H3207 H 0.83765 0.46148 0.73857 0.0
H3208 H 0.77924 0.41261 0.7182 0.0
H3209 H 0.79573 0.40211 0.71559 0.0
H3210 H 0.7697 0.42662 0.73439 0.0
H3211 H 0.77117 0.44534 0.74052 0.0
C3212 C 0.11388 0.29161 0.7299 0.0
C3213 C 0.11355 0.30482 0.72059 0.0
C3214 C 0.08672 0.30873 0.72733 0.0
C3215 C 0.08659 0.29462 0.73521 0.0
N3216 N 0.09943 0.27156 0.74247 0.0
N3217 N 0.09923 0.32497 0.70872 0.0
C3218 C 0.10003 0.28578 0.73614 0.0
C3219 C 0.09985 0.31316 0.71887 0.0
N3220 N 0.12751 0.28484 0.73307 0.0
N3221 N 0.07441 0.3181 0.72828 0.0
H3222 H 0.10862 0.32863 0.70238 0.0
H3223 H 0.08915 0.33036 0.70567 0.0
H3224 H 0.0646 0.31525 0.7344 0.0
H3225 H 0.07441 0.32921 0.72416 0.0
H3226 H 0.12876 0.27616 0.74106 0.0
H3227 H 0.13786 0.28878 0.72867 0.0
H3228 H 0.10839 0.2639 0.74198 0.0
H3229 H 0.08954 0.26689 0.7472 0.0
C3230 C 0.91973 0.74012 0.72877 0.0
C3231 C 0.92027 0.72715 0.71924 0.0
C3232 C 0.94729 0.72374 0.72571 0.0
C3233 C 0.94716 0.73762 0.73385 0.0
N3234 N 0.93387 0.76012 0.74168 0.0
N3235 N 0.93484 0.70764 0.70697 0.0
C3236 C 0.93352 0.7461 0.73504 0.0
C3237 C 0.93412 0.71919 0.71729 0.0
N3238 N 0.90599 0.74648 0.73209 0.0
N3239 N 0.95987 0.71469 0.72637 0.0
H3240 H 0.92543 0.70389 0.70068 0.0
H3241 H 0.945 0.70256 0.70375 0.0
H3242 H 0.96972 0.71765 0.73243 0.0
H3243 H 0.9601 0.70371 0.72205 0.0
H3244 H 0.90463 0.75492 0.74023 0.0
H3245 H 0.89567 0.74243 0.72765 0.0
H3246 H 0.92472 0.76758 0.74139 0.0
H3247 H 0.94371 0.76487 0.74648 0.0
C3248 C 0.71801 0.21697 0.59922 0.0
C3249 C 0.72595 0.21904 0.61321 0.0
C3250 C 0.74531 0.23466 0.60016 0.0
C3251 C 0.73689 0.23331 0.58637 0.0
N3252 N 0.7138 0.22575 0.57332 0.0
N3253 N 0.74543 0.23207 0.6277 0.0
C3254 C 0.7228 0.22522 0.58607 0.0
C3255 C 0.73909 0.22857 0.61388 0.0
N3256 N 0.70625 0.20668 0.59837 0.0
N3257 N 0.75951 0.24124 0.60005 0.0
H3258 H 0.74119 0.22779 0.63796 0.0
H3259 H 0.75401 0.24022 0.62913 0.0
H3260 H 0.76444 0.24588 0.59027 0.0
H3261 H 0.76692 0.24106 0.60935 0.0
H3262 H 0.70117 0.20336 0.58816 0.0
H3263 H 0.7023 0.20054 0.60777 0.0
H3264 H 0.70269 0.22146 0.57292 0.0
H3265 H 0.71692 0.23169 0.56349 0.0
C3266 C 0.29806 0.2318 0.61334 0.0
C3267 C 0.30554 0.21762 0.61216 0.0
C3268 C 0.30152 0.21781 0.58448 0.0
C3269 C 0.29504 0.23248 0.58553 0.0
N3270 N 0.28944 0.25463 0.60047 0.0
N3271 N 0.31691 0.19839 0.59654 0.0
C3272 C 0.29397 0.23983 0.59984 0.0
C3273 C 0.30802 0.211 0.59769 0.0
N3274 N 0.29439 0.23732 0.62737 0.0
N3275 N 0.30094 0.21013 0.57099 0.0
H3276 H 0.32184 0.19306 0.60597 0.0
H3277 H 0.32052 0.19398 0.58619 0.0
H3278 H 0.29625 0.21471 0.56106 0.0
H3279 H 0.30391 0.19877 0.56991 0.0
H3280 H 0.28743 0.24669 0.62896 0.0
H3281 H 0.29733 0.23185 0.63751 0.0
H3282 H 0.28996 0.26114 0.61034 0.0
H3283 H 0.28633 0.26087 0.59083 0.0
C3284 C 0.3001 0.80016 0.61267 0.0
C3285 C 0.30704 0.81476 0.61152 0.0
C3286 C 0.3024 0.81494 0.58391 0.0
C3287 C 0.2964 0.79993 0.5849 0.0
N3288 N 0.29182 0.77721 0.59968 0.0
N3289 N 0.31734 0.83495 0.59591 0.0
C3290 C 0.29592 0.79223 0.59914 0.0
C3291 C 0.30894 0.82183 0.59708 0.0
N3292 N 0.29701 0.7941 0.6267 0.0
N3293 N 0.30132 0.82285 0.57051 0.0
H3294 H 0.32226 0.84034 0.6053 0.0
H3295 H 0.32054 0.83979 0.58555 0.0
H3296 H 0.29664 0.81821 0.56061 0.0
H3297 H 0.30388 0.83438 0.5695 0.0
H3298 H 0.29043 0.78433 0.62834 0.0
H3299 H 0.30006 0.79948 0.63684 0.0
H3300 H 0.2928 0.7705 0.60942 0.0
H3301 H 0.28862 0.77106 0.59003 0.0
C3302 C 0.71702 0.80837 0.60104 0.0
C3303 C 0.72751 0.81279 0.61259 0.0
C3304 C 0.7485 0.80142 0.59828 0.0
C3305 C 0.73825 0.79829 0.58611 0.0
N3306 N 0.71313 0.79995 0.575 0.0
N3307 N 0.75338 0.81504 0.62181 0.0
C3308 C 0.72258 0.80203 0.58726 0.0
C3309 C 0.7433 0.80969 0.61112 0.0
N3310 N 0.7017 0.80998 0.60339 0.0
N3311 N 0.76313 0.79618 0.59768 0.0
H3312 H 0.74996 0.82075 0.63158 0.0
H3313 H 0.76517 0.81476 0.62054 0.0
H3314 H 0.76739 0.79029 0.58836 0.0
H3315 H 0.77071 0.79659 0.60683 0.0
H3316 H 0.69334 0.8055 0.59621 0.0
H3317 H 0.69726 0.81486 0.61321 0.0
H3318 H 0.70203 0.804 0.57442 0.0
H3319 H 0.71672 0.795 0.56487 0.0
C3320 C 0.72044 0.81564 0.43541 0.0
C3321 C 0.72847 0.8138 0.42155 0.0
C3322 C 0.74755 0.7982 0.43469 0.0
C3323 C 0.73898 0.79924 0.44832 0.0
N3324 N 0.71586 0.80643 0.46108 0.0
N3325 N 0.748 0.80122 0.40721 0.0
C3326 C 0.725 0.80723 0.44851 0.0
C3327 C 0.74155 0.80444 0.42096 0.0
N3328 N 0.70881 0.82583 0.4362 0.0
N3329 N 0.76169 0.79175 0.43498 0.0
H3330 H 0.74393 0.80564 0.39694 0.0
H3331 H 0.75652 0.79319 0.40582 0.0
H3332 H 0.76646 0.78701 0.44479 0.0
H3333 H 0.7692 0.79215 0.42584 0.0
H3334 H 0.70367 0.82896 0.44637 0.0
H3335 H 0.70504 0.83211 0.42683 0.0
H3336 H 0.70481 0.81063 0.46134 0.0
H3337 H 0.71882 0.80036 0.47088 0.0
C3338 C 0.71246 0.22106 0.43673 0.0
C3339 C 0.71898 0.22414 0.42226 0.0
C3340 C 0.74089 0.23667 0.43464 0.0
C3341 C 0.73357 0.23501 0.44896 0.0
N3342 N 0.7114 0.2276 0.46349 0.0
N3343 N 0.7384 0.23645 0.4071 0.0
C3344 C 0.7191 0.22768 0.44998 0.0
C3345 C 0.73297 0.23234 0.42111 0.0
N3346 N 0.70011 0.21152 0.43783 0.0
N3347 N 0.75557 0.24203 0.43402 0.0
H3348 H 0.73303 0.23332 0.39695 0.0
H3349 H 0.74756 0.2439 0.40553 0.0
H3350 H 0.76172 0.24534 0.44368 0.0
H3351 H 0.76212 0.24202 0.42416 0.0
H3352 H 0.69583 0.20751 0.44815 0.0
H3353 H 0.69492 0.2065 0.42837 0.0
H3354 H 0.70011 0.22397 0.46457 0.0
H3355 H 0.71584 0.23234 0.47345 0.0
C3356 C 0.31118 0.24321 0.42383 0.0
C3357 C 0.31326 0.22736 0.42196 0.0
C3358 C 0.30161 0.22249 0.44692 0.0
C3359 C 0.29888 0.23827 0.44846 0.0
N3360 N 0.29872 0.26345 0.4376 0.0
N3361 N 0.30857 0.20166 0.43037 0.0
C3362 C 0.30298 0.24858 0.43666 0.0
C3363 C 0.3079 0.21691 0.43312 0.0
N3364 N 0.31744 0.25316 0.41354 0.0
N3365 N 0.2986 0.2129 0.45886 0.0
H3366 H 0.31338 0.19719 0.42053 0.0
H3367 H 0.30338 0.19345 0.43722 0.0
H3368 H 0.29364 0.21651 0.46898 0.0
H3369 H 0.30191 0.20158 0.45921 0.0
H3370 H 0.31792 0.26486 0.41514 0.0
H3371 H 0.32314 0.24966 0.40378 0.0
H3372 H 0.29984 0.27121 0.42869 0.0
H3373 H 0.29295 0.26784 0.44694 0.0
C3374 C 0.31082 0.81957 0.43556 0.0
C3375 C 0.30809 0.81271 0.42119 0.0
C3376 C 0.29582 0.79089 0.43389 0.0
C3377 C 0.29713 0.79851 0.44806 0.0
N3378 N 0.30387 0.82104 0.4622 0.0
N3379 N 0.29644 0.79277 0.40631 0.0
C3380 C 0.30414 0.8131 0.44886 0.0
C3381 C 0.3002 0.79858 0.42025 0.0
N3382 N 0.3201 0.83212 0.43651 0.0
N3383 N 0.29075 0.77616 0.43352 0.0
H3384 H 0.29966 0.79794 0.39609 0.0
H3385 H 0.28919 0.78345 0.40482 0.0
H3386 H 0.2874 0.77019 0.44326 0.0
H3387 H 0.29103 0.76943 0.42381 0.0
H3388 H 0.32387 0.83669 0.44679 0.0
H3389 H 0.32514 0.83721 0.427 0.0
H3390 H 0.30724 0.83238 0.46309 0.0
H3391 H 0.29908 0.81672 0.47219 0.0
C3392 C 0.59871 0.23222 0.71011 0.0
C3393 C 0.61056 0.22592 0.71915 0.0
C3394 C 0.59623 0.23163 0.74239 0.0
C3395 C 0.58395 0.23698 0.73329 0.0
N3396 N 0.57237 0.24038 0.70858 0.0
N3397 N 0.61992 0.21757 0.7436 0.0
C3398 C 0.58488 0.23671 0.71716 0.0
C3399 C 0.60912 0.22504 0.73523 0.0
N3400 N 0.60088 0.23432 0.69482 0.0
N3401 N 0.59574 0.23328 0.75786 0.0
H3402 H 0.62962 0.21285 0.73876 0.0
H3403 H 0.61875 0.21505 0.75513 0.0
H3404 H 0.5864 0.23784 0.7635 0.0
H3405 H 0.60498 0.2312 0.76503 0.0
H3406 H 0.59347 0.24044 0.68788 0.0
H3407 H 0.61071 0.2309 0.68919 0.0
H3408 H 0.57169 0.23879 0.69685 0.0
H3409 H 0.56212 0.24393 0.71333 0.0
C3410 C 0.29912 0.11093 0.73001 0.0
C3411 C 0.31522 0.11149 0.72833 0.0
C3412 C 0.31695 0.0848 0.73637 0.0
C3413 C 0.301 0.0846 0.73911 0.0
N3414 N 0.27702 0.09767 0.74035 0.0
N3415 N 0.3398 0.0998 0.73143 0.0
C3416 C 0.2921 0.09773 0.73641 0.0
C3417 C 0.32424 0.09863 0.73192 0.0
N3418 N 0.29055 0.12294 0.72518 0.0
N3419 N 0.32505 0.07165 0.73769 0.0
H3420 H 0.34554 0.10957 0.72776 0.0
H3421 H 0.34711 0.09149 0.7356 0.0
H3422 H 0.32018 0.0614 0.7413 0.0
H3423 H 0.33632 0.07057 0.73422 0.0
H3424 H 0.27869 0.12267 0.72448 0.0
H3425 H 0.29534 0.13293 0.72081 0.0
H3426 H 0.27026 0.10732 0.7403 0.0
H3427 H 0.27141 0.08809 0.74471 0.0
C3428 C 0.42029 0.80043 0.73316 0.0
C3429 C 0.42152 0.80826 0.71904 0.0
C3430 C 0.44923 0.80436 0.71914 0.0
C3431 C 0.44814 0.7974 0.73372 0.0
N3432 N 0.43314 0.79117 0.75588 0.0
N3433 N 0.43728 0.82022 0.69992 0.0
C3434 C 0.4338 0.79613 0.74111 0.0
C3435 C 0.43605 0.81099 0.71243 0.0
N3436 N 0.40621 0.79662 0.73871 0.0
N3437 N 0.46274 0.80409 0.71141 0.0
H3438 H 0.42787 0.82524 0.69469 0.0
H3439 H 0.44768 0.82398 0.69553 0.0
H3440 H 0.47265 0.79934 0.71591 0.0
H3441 H 0.46385 0.80742 0.70008 0.0
H3442 H 0.40454 0.78942 0.74801 0.0
H3443 H 0.39607 0.79972 0.73332 0.0
H3444 H 0.42329 0.7915 0.76245 0.0
H3445 H 0.44278 0.78789 0.76204 0.0
C3446 C 0.71471 0.93634 0.71804 0.0
C3447 C 0.71007 0.92459 0.72823 0.0
C3448 C 0.72042 0.93954 0.74947 0.0
C3449 C 0.72797 0.94932 0.739 0.0
N3450 N 0.73212 0.95724 0.71296 0.0
N3451 N 0.69814 0.92376 0.7529 0.0
C3452 C 0.72511 0.94776 0.72316 0.0
C3453 C 0.70994 0.92848 0.74392 0.0
N3454 N 0.70698 0.93837 0.70469 0.0
N3455 N 0.72329 0.94067 0.76472 0.0
H3456 H 0.68864 0.91811 0.74835 0.0
H3457 H 0.69673 0.9274 0.76408 0.0
H3458 H 0.73094 0.94861 0.76928 0.0
H3459 H 0.71902 0.93282 0.77259 0.0
H3460 H 0.70892 0.94754 0.69738 0.0
H3461 H 0.69698 0.93228 0.70228 0.0
H3462 H 0.73155 0.9555 0.70123 0.0
H3463 H 0.73933 0.96614 0.71624 0.0
C3464 C 0.59889 0.81198 0.31891 0.0
C3465 C 0.61272 0.804 0.3169 0.0
C3466 C 0.59937 0.78509 0.30114 0.0
C3467 C 0.58577 0.79363 0.30232 0.0
N3468 N 0.57313 0.81657 0.30991 0.0
N3469 N 0.6269 0.78459 0.30405 0.0
C3470 C 0.58569 0.80749 0.31052 0.0
C3471 C 0.61319 0.79102 0.30739 0.0
N3472 N 0.59823 0.82351 0.32926 0.0
N3473 N 0.59895 0.77107 0.2945 0.0
H3474 H 0.63724 0.78859 0.30848 0.0
H3475 H 0.62821 0.77615 0.29591 0.0
H3476 H 0.58908 0.76636 0.28973 0.0
H3477 H 0.60806 0.76357 0.29478 0.0
H3478 H 0.58809 0.82861 0.33252 0.0
H3479 H 0.60767 0.82723 0.33553 0.0
H3480 H 0.57295 0.82755 0.31425 0.0
H3481 H 0.56325 0.81365 0.30388 0.0
C3482 C 0.73912 0.11096 0.30644 0.0
C3483 C 0.72534 0.11046 0.31488 0.0
C3484 C 0.72126 0.0839 0.30732 0.0
C3485 C 0.73584 0.08393 0.30033 0.0
N3486 N 0.75959 0.09683 0.29478 0.0
N3487 N 0.70413 0.09606 0.32502 0.0
C3488 C 0.74501 0.09731 0.30025 0.0
C3489 C 0.71659 0.09683 0.31573 0.0
N3490 N 0.74637 0.12458 0.30403 0.0
N3491 N 0.71172 0.07164 0.30558 0.0
H3492 H 0.70026 0.10531 0.33124 0.0
H3493 H 0.69831 0.08599 0.32751 0.0
H3494 H 0.71477 0.06197 0.29953 0.0
H3495 H 0.70036 0.07154 0.30899 0.0
H3496 H 0.75554 0.12599 0.29664 0.0
H3497 H 0.7424 0.13479 0.30842 0.0
H3498 H 0.76744 0.10571 0.29597 0.0
H3499 H 0.7643 0.08709 0.29008 0.0
C3500 C 0.42898 0.2089 0.2905 0.0
C3501 C 0.42496 0.20928 0.30615 0.0
C3502 C 0.44808 0.22451 0.31111 0.0
C3503 C 0.44976 0.22707 0.29523 0.0
N3504 N 0.44133 0.22185 0.26954 0.0
N3505 N 0.43866 0.20674 0.32985 0.0
C3506 C 0.44008 0.21929 0.28484 0.0
C3507 C 0.43666 0.21418 0.31634 0.0
N3508 N 0.42438 0.19695 0.28171 0.0
N3509 N 0.45747 0.23176 0.32124 0.0
H3510 H 0.4326 0.19679 0.3324 0.0
H3511 H 0.44781 0.20888 0.33718 0.0
H3512 H 0.46638 0.23896 0.31789 0.0
H3513 H 0.45564 0.2314 0.33296 0.0
H3514 H 0.42813 0.19537 0.27059 0.0
H3515 H 0.41872 0.18755 0.28641 0.0
H3516 H 0.43354 0.21741 0.26169 0.0
H3517 H 0.4493 0.22941 0.26489 0.0
C3518 C 0.31566 0.93461 0.31614 0.0
C3519 C 0.31423 0.92092 0.30774 0.0
C3520 C 0.29884 0.93405 0.28837 0.0
C3521 C 0.29957 0.94752 0.2972 0.0
N3522 N 0.30611 0.95995 0.32077 0.0
N3523 N 0.30226 0.90675 0.28747 0.0
C3524 C 0.30723 0.94759 0.31148 0.0
C3525 C 0.30514 0.92039 0.29432 0.0
N3526 N 0.32551 0.93538 0.32823 0.0
N3527 N 0.29263 0.93446 0.27406 0.0
H3528 H 0.30673 0.89653 0.29149 0.0
H3529 H 0.29443 0.90531 0.27862 0.0
H3530 H 0.28781 0.9442 0.26933 0.0
H3531 H 0.29329 0.92551 0.26639 0.0
H3532 H 0.32841 0.94546 0.33372 0.0
H3533 H 0.33174 0.92608 0.33211 0.0
H3534 H 0.31003 0.96011 0.33198 0.0
H3535 H 0.30007 0.96966 0.31772 0.0
C3536 C 0.72906 0.11223 0.74053 0.0
C3537 C 0.71973 0.11155 0.72729 0.0
C3538 C 0.7265 0.08479 0.72385 0.0
C3539 C 0.73434 0.08501 0.73803 0.0
N3540 N 0.74167 0.09838 0.76088 0.0
N3541 N 0.70796 0.09683 0.70726 0.0
C3542 C 0.73531 0.09861 0.74663 0.0
C3543 C 0.71806 0.09774 0.71914 0.0
N3544 N 0.73222 0.12597 0.74708 0.0
N3545 N 0.72744 0.07232 0.7147 0.0
H3546 H 0.70169 0.10609 0.70336 0.0
H3547 H 0.70491 0.08666 0.702 0.0
H3548 H 0.73354 0.06264 0.71775 0.0
H3549 H 0.72335 0.07204 0.70355 0.0
H3550 H 0.74021 0.12747 0.75577 0.0
H3551 H 0.72781 0.13616 0.74294 0.0
H3552 H 0.74119 0.10747 0.76839 0.0
H3553 H 0.74642 0.08867 0.76573 0.0
C3554 C 0.7316 0.91898 0.29946 0.0
C3555 C 0.71732 0.91978 0.30697 0.0
C3556 C 0.71686 0.94736 0.30286 0.0
C3557 C 0.73163 0.94671 0.29633 0.0
N3558 N 0.75423 0.93244 0.29066 0.0
N3559 N 0.69759 0.93483 0.31832 0.0
C3560 C 0.73935 0.93266 0.29527 0.0
C3561 C 0.71031 0.93402 0.30941 0.0
N3562 N 0.7375 0.90515 0.29586 0.0
N3563 N 0.70884 0.9606 0.30227 0.0
H3564 H 0.69245 0.92529 0.32328 0.0
H3565 H 0.69291 0.94503 0.32189 0.0
H3566 H 0.71322 0.97062 0.29756 0.0
H3567 H 0.69739 0.96136 0.30528 0.0
H3568 H 0.74697 0.90379 0.28889 0.0
H3569 H 0.73225 0.89489 0.29888 0.0
H3570 H 0.761 0.92281 0.29118 0.0
H3571 H 0.76025 0.94222 0.28746 0.0
C3572 C 0.5988 0.21699 0.31541 0.0
C3573 C 0.61265 0.21854 0.3072 0.0
C3574 C 0.59967 0.2341 0.28789 0.0
C3575 C 0.58605 0.23327 0.29656 0.0
N3576 N 0.57336 0.22654 0.31998 0.0
N3577 N 0.62712 0.23081 0.28729 0.0
C3578 C 0.58583 0.22548 0.31076 0.0
C3579 C 0.61333 0.22779 0.29392 0.0
N3580 N 0.59786 0.20696 0.32732 0.0
N3581 N 0.59941 0.24039 0.27362 0.0
H3582 H 0.63734 0.22635 0.29139 0.0
H3583 H 0.62864 0.23873 0.27857 0.0
H3584 H 0.58967 0.24519 0.26881 0.0
H3585 H 0.6085 0.23982 0.26605 0.0
H3586 H 0.58765 0.20402 0.33264 0.0
H3587 H 0.60712 0.20063 0.33117 0.0
H3588 H 0.5731 0.22249 0.33113 0.0
H3589 H 0.56367 0.23268 0.31695 0.0
C3590 C 0.30876 0.09777 0.32182 0.0
C3591 C 0.30535 0.11205 0.31513 0.0
C3592 C 0.2932 0.09916 0.29341 0.0
C3593 C 0.2952 0.08498 0.3009 0.0
N3594 N 0.3029 0.07083 0.32319 0.0
N3595 N 0.29278 0.12663 0.29554 0.0
C3596 C 0.3025 0.08428 0.31535 0.0
C3597 C 0.29718 0.11283 0.30115 0.0
N3598 N 0.31828 0.09709 0.33418 0.0
N3599 N 0.28785 0.09952 0.27876 0.0
H3600 H 0.29568 0.13688 0.30076 0.0
H3601 H 0.28532 0.1279 0.28637 0.0
H3602 H 0.28479 0.08975 0.27276 0.0
H3603 H 0.28762 0.10933 0.2721 0.0
H3604 H 0.32254 0.08697 0.33858 0.0
H3605 H 0.32302 0.10673 0.33927 0.0
H3606 H 0.3065 0.06991 0.33447 0.0
H3607 H 0.29845 0.06069 0.31886 0.0
C3608 C 0.4385 0.81288 0.32126 0.0
C3609 C 0.42456 0.81339 0.31296 0.0
C3610 C 0.43898 0.81116 0.28928 0.0
C3611 C 0.45198 0.80645 0.29768 0.0
N3612 N 0.46605 0.81455 0.31981 0.0
N3613 N 0.41152 0.81292 0.28864 0.0
C3614 C 0.45241 0.81066 0.31329 0.0
C3615 C 0.42479 0.81251 0.29684 0.0
N3616 N 0.43849 0.81431 0.33675 0.0
N3617 N 0.44071 0.81744 0.27518 0.0
H3618 H 0.40084 0.81399 0.2937 0.0
H3619 H 0.41121 0.81099 0.27693 0.0
H3620 H 0.45149 0.82055 0.27113 0.0
H3621 H 0.43168 0.82209 0.26901 0.0
H3622 H 0.44806 0.81222 0.34349 0.0
H3623 H 0.42868 0.81672 0.34294 0.0
H3624 H 0.4671 0.8191 0.3307 0.0
H3625 H 0.4761 0.81506 0.31346 0.0
C3626 C 0.32149 0.9362 0.72356 0.0
C3627 C 0.31462 0.92173 0.72601 0.0
C3628 C 0.2926 0.9339 0.73793 0.0
C3629 C 0.30023 0.94818 0.73694 0.0
N3630 N 0.32289 0.9627 0.73085 0.0
N3631 N 0.2946 0.90644 0.73719 0.0
C3632 C 0.31493 0.94929 0.73025 0.0
C3633 C 0.3004 0.92048 0.73361 0.0
N3634 N 0.33411 0.93747 0.71453 0.0
N3635 N 0.27775 0.93324 0.74263 0.0
H3636 H 0.29987 0.89636 0.73407 0.0
H3637 H 0.2852 0.90475 0.74423 0.0
H3638 H 0.27169 0.94282 0.74589 0.0
H3639 H 0.27103 0.92343 0.74209 0.0
H3640 H 0.33868 0.94784 0.71095 0.0
H3641 H 0.33925 0.92814 0.70946 0.0
H3642 H 0.3343 0.96379 0.72774 0.0
H3643 H 0.31853 0.97254 0.73569 0.0
C3644 C 0.61325 0.79789 0.73408 0.0
C3645 C 0.61242 0.80553 0.71982 0.0
C3646 C 0.58457 0.80223 0.71952 0.0
C3647 C 0.5853 0.79547 0.73422 0.0
N3648 N 0.59987 0.78911 0.75667 0.0
N3649 N 0.59731 0.81749 0.70024 0.0
C3650 C 0.59953 0.79396 0.74185 0.0
C3651 C 0.59807 0.80846 0.71293 0.0
N3652 N 0.62715 0.79394 0.73993 0.0
N3653 N 0.5711 0.80217 0.71161 0.0
H3654 H 0.60696 0.82219 0.69504 0.0
H3655 H 0.58711 0.82141 0.69562 0.0
H3656 H 0.56096 0.79774 0.71604 0.0
H3657 H 0.57019 0.80534 0.70021 0.0
H3658 H 0.62849 0.78686 0.74936 0.0
H3659 H 0.63744 0.79682 0.73468 0.0
H3660 H 0.60968 0.78928 0.7634 0.0
H3661 H 0.59007 0.78608 0.7627 0.0
C3662 C 0.41916 0.23451 0.73251 0.0
C3663 C 0.42012 0.22737 0.71809 0.0
C3664 C 0.4478 0.23182 0.71777 0.0
C3665 C 0.447 0.23797 0.73266 0.0
N3666 N 0.43246 0.24293 0.75531 0.0
N3667 N 0.43547 0.2167 0.69817 0.0
C3668 C 0.43282 0.23867 0.74036 0.0
C3669 C 0.4345 0.22528 0.71106 0.0
N3670 N 0.40519 0.23779 0.73846 0.0
N3671 N 0.46116 0.23275 0.70981 0.0
H3672 H 0.42596 0.21176 0.6929 0.0
H3673 H 0.44577 0.21338 0.69343 0.0
H3674 H 0.47116 0.23746 0.71431 0.0
H3675 H 0.46204 0.23003 0.69832 0.0
H3676 H 0.40371 0.24451 0.74806 0.0
H3677 H 0.39495 0.23478 0.73312 0.0
H3678 H 0.42273 0.24213 0.76204 0.0
H3679 H 0.44221 0.2461 0.76141 0.0
C3680 C 0.72436 0.71056 0.09842 0.0
C3681 C 0.72611 0.71793 0.11267 0.0
C3682 C 0.73746 0.74016 0.09984 0.0
C3683 C 0.73713 0.73215 0.08584 0.0
N3684 N 0.73229 0.70896 0.07205 0.0
N3685 N 0.73598 0.73889 0.12742 0.0
C3686 C 0.73108 0.71714 0.08518 0.0
C3687 C 0.73307 0.73254 0.11351 0.0
N3688 N 0.71594 0.69744 0.09748 0.0
N3689 N 0.74161 0.75517 0.09999 0.0
H3690 H 0.73276 0.73376 0.13765 0.0
H3691 H 0.74257 0.74868 0.1289 0.0
H3692 H 0.74498 0.76109 0.09023 0.0
H3693 H 0.74054 0.7621 0.1095 0.0
H3694 H 0.71285 0.69238 0.08721 0.0
H3695 H 0.71088 0.69227 0.10693 0.0
H3696 H 0.72969 0.69742 0.07134 0.0
H3697 H 0.7371 0.71337 0.06211 0.0
C3698 C 0.3016 0.73309 0.11384 0.0
C3699 C 0.30274 0.71704 0.11463 0.0
C3700 C 0.29441 0.71499 0.08796 0.0
C3701 C 0.29227 0.73094 0.0875 0.0
N3702 N 0.292 0.75513 0.10022 0.0
N3703 N 0.29871 0.69242 0.10332 0.0
C3704 C 0.29537 0.74 0.10051 0.0
C3705 C 0.29872 0.7079 0.10192 0.0
N3706 N 0.30676 0.74174 0.12573 0.0
N3707 N 0.29265 0.70668 0.07494 0.0
H3708 H 0.3023 0.68681 0.11318 0.0
H3709 H 0.29421 0.68509 0.09515 0.0
H3710 H 0.28908 0.71141 0.06462 0.0
H3711 H 0.29569 0.69533 0.07401 0.0
H3712 H 0.30788 0.75351 0.12527 0.0
H3713 H 0.31097 0.73705 0.13582 0.0
H3714 H 0.29234 0.76207 0.10978 0.0
H3715 H 0.2878 0.76064 0.09054 0.0
C3716 C 0.30063 0.29979 0.11325 0.0
C3717 C 0.3076 0.31437 0.11195 0.0
C3718 C 0.30275 0.31438 0.08438 0.0
C3719 C 0.29671 0.29939 0.08552 0.0
N3720 N 0.29219 0.27678 0.10048 0.0
N3721 N 0.31785 0.33441 0.09612 0.0
C3722 C 0.29632 0.29178 0.09981 0.0
C3723 C 0.30941 0.32133 0.09745 0.0
N3724 N 0.29764 0.29384 0.12735 0.0
N3725 N 0.30157 0.32221 0.07094 0.0
H3726 H 0.32287 0.33985 0.10544 0.0
H3727 H 0.32099 0.33917 0.08571 0.0
H3728 H 0.29679 0.31752 0.06111 0.0
H3729 H 0.30416 0.33372 0.06984 0.0
H3730 H 0.29105 0.28409 0.12911 0.0
H3731 H 0.30078 0.29927 0.13743 0.0
H3732 H 0.29321 0.27013 0.11026 0.0
H3733 H 0.28889 0.27058 0.09089 0.0
C3734 C 0.73382 0.29986 0.11282 0.0
C3735 C 0.72636 0.31405 0.1116 0.0
C3736 C 0.7305 0.31421 0.08396 0.0
C3737 C 0.73702 0.29954 0.08504 0.0
N3738 N 0.74252 0.2772 0.09998 0.0
N3739 N 0.715 0.33345 0.09588 0.0
C3740 C 0.73799 0.29201 0.09934 0.0
C3741 C 0.72392 0.32084 0.09711 0.0
N3742 N 0.73742 0.29414 0.12687 0.0
N3743 N 0.73114 0.32208 0.07051 0.0
H3744 H 0.71002 0.33863 0.10526 0.0
H3745 H 0.71143 0.33798 0.0855 0.0
H3746 H 0.73589 0.31766 0.06063 0.0
H3747 H 0.72815 0.33346 0.06944 0.0
H3748 H 0.74438 0.28475 0.12853 0.0
H3749 H 0.73442 0.29947 0.137 0.0
H3750 H 0.74195 0.27056 0.1098 0.0
H3751 H 0.74567 0.27109 0.09035 0.0
C3752 C 0.72503 0.3216 0.93612 0.0
C3753 C 0.72747 0.31482 0.92172 0.0
C3754 C 0.73914 0.29278 0.93423 0.0
C3755 C 0.73808 0.30027 0.94846 0.0
N3756 N 0.73212 0.32272 0.96281 0.0
N3757 N 0.73853 0.29495 0.90667 0.0
C3758 C 0.73155 0.31493 0.94938 0.0
C3759 C 0.73496 0.30064 0.92066 0.0
N3760 N 0.71615 0.33424 0.93715 0.0
N3761 N 0.74377 0.278 0.93375 0.0
H3762 H 0.73549 0.30029 0.89649 0.0
H3763 H 0.74549 0.28557 0.90513 0.0
H3764 H 0.74699 0.2719 0.94344 0.0
H3765 H 0.74325 0.27137 0.92397 0.0
H3766 H 0.71256 0.33876 0.94745 0.0
H3767 H 0.71122 0.33948 0.92767 0.0
H3768 H 0.72913 0.33409 0.96379 0.0
H3769 H 0.73679 0.31824 0.97279 0.0
C3770 C 0.71878 0.7161 0.9355 0.0
C3771 C 0.72009 0.72443 0.92167 0.0
C3772 C 0.73541 0.74397 0.93472 0.0
C3773 C 0.73481 0.73522 0.94833 0.0
N3774 N 0.72857 0.71164 0.96101 0.0
N3775 N 0.73197 0.74466 0.90728 0.0
C3776 C 0.72727 0.72087 0.94851 0.0
C3777 C 0.72913 0.73789 0.92104 0.0
N3778 N 0.70896 0.70396 0.93636 0.0
N3779 N 0.74145 0.75836 0.93499 0.0
H3780 H 0.72753 0.74052 0.89705 0.0
H3781 H 0.73976 0.75354 0.90582 0.0
H3782 H 0.74621 0.76321 0.94475 0.0
H3783 H 0.74068 0.76594 0.92589 0.0
H3784 H 0.70616 0.69851 0.94654 0.0
H3785 H 0.70266 0.70002 0.92706 0.0
H3786 H 0.72472 0.70041 0.96126 0.0
H3787 H 0.73471 0.71475 0.97073 0.0
C3788 C 0.30248 0.73801 0.92234 0.0
C3789 C 0.31068 0.72419 0.92272 0.0
C3790 C 0.30302 0.72012 0.94931 0.0
C3791 C 0.29638 0.73475 0.94944 0.0
N3792 N 0.2913 0.75853 0.93671 0.0
N3793 N 0.3204 0.70285 0.93696 0.0
C3794 C 0.29645 0.74393 0.93609 0.0
C3795 C 0.31134 0.7154 0.9363 0.0
N3796 N 0.30019 0.7453 0.90875 0.0
N3797 N 0.30106 0.71059 0.9615 0.0
H3798 H 0.32654 0.69894 0.92765 0.0
H3799 H 0.32275 0.69698 0.947 0.0
H3800 H 0.29505 0.71368 0.97122 0.0
H3801 H 0.30421 0.69922 0.96148 0.0
H3802 H 0.29297 0.75454 0.90744 0.0
H3803 H 0.30445 0.74129 0.89847 0.0
H3804 H 0.29263 0.76635 0.92787 0.0
H3805 H 0.28673 0.76328 0.94653 0.0
C3806 C 0.29894 0.299 0.92111 0.0
C3807 C 0.30697 0.31304 0.92215 0.0
C3808 C 0.30338 0.31307 0.94987 0.0
C3809 C 0.29624 0.29855 0.94896 0.0
N3810 N 0.28953 0.27644 0.93419 0.0
N3811 N 0.31937 0.33211 0.93759 0.0
C3812 C 0.29469 0.29114 0.9347 0.0
C3813 C 0.30995 0.31967 0.93658 0.0
N3814 N 0.2949 0.29343 0.90714 0.0
N3815 N 0.30333 0.32085 0.96332 0.0
H3816 H 0.32435 0.33727 0.92809 0.0
H3817 H 0.32332 0.33649 0.94789 0.0
H3818 H 0.2986 0.31644 0.97331 0.0
H3819 H 0.3068 0.33214 0.96431 0.0
H3820 H 0.28755 0.28419 0.90563 0.0
H3821 H 0.29798 0.29874 0.89695 0.0
H3822 H 0.28964 0.26986 0.92438 0.0
H3823 H 0.28629 0.27035 0.94389 0.0
C3824 C 0.59838 0.7174 0.21974 0.0
C3825 C 0.61236 0.7255 0.22149 0.0
C3826 C 0.59954 0.7445 0.23721 0.0
C3827 C 0.58575 0.73597 0.2361 0.0
N3828 N 0.57264 0.71289 0.22892 0.0
N3829 N 0.62705 0.74505 0.23409 0.0
C3830 C 0.58536 0.72198 0.22814 0.0
C3831 C 0.61317 0.73855 0.23091 0.0
N3832 N 0.59739 0.70568 0.20961 0.0
N3833 N 0.59949 0.75856 0.24376 0.0
H3834 H 0.63725 0.74102 0.22964 0.0
H3835 H 0.62864 0.75358 0.24214 0.0
H3836 H 0.58978 0.76327 0.24861 0.0
H3837 H 0.60872 0.76608 0.24339 0.0
H3838 H 0.58713 0.70047 0.2065 0.0
H3839 H 0.60669 0.70188 0.20337 0.0
H3840 H 0.57219 0.70185 0.22474 0.0
H3841 H 0.5629 0.71589 0.23494 0.0
C3842 C 0.3222 0.59834 0.22809 0.0
C3843 C 0.31517 0.61255 0.2306 0.0
C3844 C 0.29321 0.5996 0.24234 0.0
C3845 C 0.3009 0.58554 0.2411 0.0
N3846 N 0.32364 0.57168 0.23496 0.0
N3847 N 0.29504 0.62712 0.2419 0.0
C3848 C 0.31566 0.58495 0.23454 0.0
C3849 C 0.30093 0.6133 0.2382 0.0
N3850 N 0.33491 0.59759 0.21916 0.0
N3851 N 0.27837 0.59978 0.24707 0.0
H3852 H 0.30028 0.63739 0.23891 0.0
H3853 H 0.28561 0.62844 0.24892 0.0
H3854 H 0.27238 0.58999 0.25031 0.0
H3855 H 0.27158 0.60942 0.24664 0.0
H3856 H 0.33961 0.58742 0.21552 0.0
H3857 H 0.34006 0.60716 0.21427 0.0
H3858 H 0.33507 0.57091 0.23192 0.0
H3859 H 0.31923 0.56162 0.23956 0.0
C3860 C 0.43672 0.31023 0.21273 0.0
C3861 C 0.42211 0.30721 0.21904 0.0
C3862 C 0.43413 0.29432 0.24082 0.0
C3863 C 0.44857 0.29595 0.23369 0.0
N3864 N 0.46348 0.30357 0.21188 0.0
N3865 N 0.40658 0.2948 0.23807 0.0
C3866 C 0.44985 0.30344 0.21939 0.0
C3867 C 0.42072 0.29886 0.23285 0.0
N3868 N 0.43807 0.31989 0.20056 0.0
N3869 N 0.4333 0.28879 0.25537 0.0
H3870 H 0.3965 0.29808 0.23266 0.0
H3871 H 0.4048 0.28727 0.24707 0.0
H3872 H 0.44286 0.28529 0.26153 0.0
H3873 H 0.42336 0.28883 0.26182 0.0
H3874 H 0.4485 0.32386 0.19644 0.0
H3875 H 0.42871 0.32503 0.19536 0.0
H3876 H 0.46475 0.30732 0.20069 0.0
H3877 H 0.47337 0.29875 0.21638 0.0
C3878 C 0.71375 0.43666 0.2179 0.0
C3879 C 0.70911 0.42488 0.22805 0.0
C3880 C 0.71932 0.43982 0.24935 0.0
C3881 C 0.72688 0.44964 0.23893 0.0
N3882 N 0.73108 0.45764 0.21292 0.0
N3883 N 0.69706 0.42399 0.25266 0.0
C3884 C 0.72407 0.44811 0.22308 0.0
C3885 C 0.7089 0.42874 0.24375 0.0
N3886 N 0.70608 0.43866 0.2045 0.0
N3887 N 0.72213 0.44093 0.26462 0.0
H3888 H 0.68758 0.41836 0.24804 0.0
H3889 H 0.6956 0.42761 0.26384 0.0
H3890 H 0.72973 0.44888 0.26923 0.0
H3891 H 0.71785 0.43305 0.27246 0.0
H3892 H 0.70801 0.44785 0.19722 0.0
H3893 H 0.69615 0.43249 0.20201 0.0
H3894 H 0.73057 0.45593 0.20119 0.0
H3895 H 0.73823 0.46658 0.21625 0.0
C3896 C 0.61087 0.30435 0.80062 0.0
C3897 C 0.61152 0.30491 0.81677 0.0
C3898 C 0.58495 0.29591 0.81827 0.0
C3899 C 0.58468 0.29429 0.8022 0.0
N3900 N 0.59762 0.29517 0.77805 0.0
N3901 N 0.60008 0.29975 0.84119 0.0
C3902 C 0.59771 0.29804 0.79335 0.0
C3903 C 0.59879 0.30029 0.82566 0.0
N3904 N 0.62273 0.31012 0.79226 0.0
N3905 N 0.57185 0.29362 0.82641 0.0
H3906 H 0.60984 0.30335 0.84703 0.0
H3907 H 0.59191 0.29481 0.84828 0.0
H3908 H 0.5616 0.29007 0.82143 0.0
H3909 H 0.57078 0.29624 0.8379 0.0
H3910 H 0.62233 0.31164 0.78051 0.0
H3911 H 0.63271 0.31442 0.79721 0.0
H3912 H 0.60725 0.29602 0.7712 0.0
H3913 H 0.58808 0.29089 0.7723 0.0
C3914 C 0.71604 0.59973 0.80904 0.0
C3915 C 0.72644 0.61075 0.81485 0.0
C3916 C 0.74798 0.59605 0.80515 0.0
C3917 C 0.73767 0.58437 0.80063 0.0
N3918 N 0.71209 0.57412 0.79953 0.0
N3919 N 0.75229 0.61883 0.82008 0.0
C3920 C 0.72173 0.58596 0.80287 0.0
C3921 C 0.74242 0.60877 0.81332 0.0
N3922 N 0.70074 0.6026 0.80914 0.0
N3923 N 0.76305 0.59512 0.80132 0.0
H3924 H 0.74866 0.62847 0.82585 0.0
H3925 H 0.76399 0.61712 0.82094 0.0
H3926 H 0.76756 0.58587 0.79554 0.0
H3927 H 0.77087 0.60397 0.80277 0.0
H3928 H 0.69263 0.59585 0.80362 0.0
H3929 H 0.69617 0.61244 0.81379 0.0
H3930 H 0.7006 0.57384 0.80248 0.0
H3931 H 0.7158 0.56402 0.7947 0.0
C3932 C 0.42184 0.72245 0.7927 0.0
C3933 C 0.42 0.72027 0.80863 0.0
C3934 C 0.44503 0.73217 0.81334 0.0
C3935 C 0.44656 0.73493 0.79747 0.0
N3936 N 0.43557 0.73518 0.77227 0.0
N3937 N 0.4284 0.7251 0.83432 0.0
C3938 C 0.43468 0.73081 0.78721 0.0
C3939 C 0.43118 0.72577 0.81902 0.0
N3940 N 0.41154 0.71608 0.78281 0.0
N3941 N 0.45702 0.73523 0.8229 0.0
H3942 H 0.41849 0.72027 0.83886 0.0
H3943 H 0.43529 0.73034 0.84247 0.0
H3944 H 0.46719 0.74026 0.8192 0.0
H3945 H 0.45736 0.73191 0.83428 0.0
H3946 H 0.41314 0.71568 0.77108 0.0
H3947 H 0.40179 0.71021 0.7864 0.0
H3948 H 0.4266 0.73401 0.76454 0.0
H3949 H 0.44491 0.74112 0.76781 0.0
C3950 C 0.3086 0.43199 0.81699 0.0
C3951 C 0.3132 0.42063 0.80661 0.0
C3952 C 0.30189 0.43505 0.78542 0.0
C3953 C 0.29859 0.44705 0.79559 0.0
N3954 N 0.30016 0.4579 0.8207 0.0
N3955 N 0.31583 0.41185 0.7808 0.0
C3956 C 0.30226 0.44576 0.81131 0.0
C3957 C 0.31024 0.42228 0.79077 0.0
N3958 N 0.31002 0.42947 0.83231 0.0
N3959 N 0.29668 0.43571 0.77073 0.0
H3960 H 0.32166 0.40215 0.78431 0.0
H3961 H 0.31566 0.41327 0.76903 0.0
H3962 H 0.29067 0.44495 0.76638 0.0
H3963 H 0.29723 0.42667 0.76317 0.0
H3964 H 0.30539 0.4365 0.84055 0.0
H3965 H 0.31487 0.41965 0.83684 0.0
H3966 H 0.30418 0.45836 0.83187 0.0
H3967 H 0.29531 0.46805 0.81702 0.0
C3968 C 0.71735 0.59848 0.21959 0.0
C3969 C 0.71908 0.61221 0.22786 0.0
C3970 C 0.73449 0.59901 0.24715 0.0
C3971 C 0.73349 0.58549 0.23842 0.0
N3972 N 0.72659 0.57303 0.21496 0.0
N3973 N 0.73154 0.62637 0.24786 0.0
C3974 C 0.72569 0.58544 0.22422 0.0
C3975 C 0.72835 0.61272 0.24116 0.0
N3976 N 0.7073 0.59774 0.20766 0.0
N3977 N 0.74079 0.59861 0.26143 0.0
H3978 H 0.72721 0.63663 0.2438 0.0
H3979 H 0.7395 0.62774 0.2566 0.0
H3980 H 0.74548 0.58882 0.2662 0.0
H3981 H 0.74033 0.60763 0.26903 0.0
H3982 H 0.70421 0.58764 0.2023 0.0
H3983 H 0.70109 0.60706 0.20383 0.0
H3984 H 0.72254 0.57288 0.2038 0.0
H3985 H 0.7326 0.56329 0.21796 0.0
C3986 C 0.71124 0.43541 0.81008 0.0
C3987 C 0.71806 0.42105 0.80785 0.0
C3988 C 0.74052 0.43351 0.79656 0.0
C3989 C 0.733 0.44768 0.79735 0.0
N3990 N 0.71032 0.46197 0.80276 0.0
N3991 N 0.73823 0.40603 0.79724 0.0
C3992 C 0.71812 0.44861 0.80358 0.0
C3993 C 0.73248 0.41998 0.80065 0.0
N3994 N 0.69836 0.43647 0.81874 0.0
N3995 N 0.7555 0.43303 0.79229 0.0
H3996 H 0.73275 0.39587 0.80018 0.0
H3997 H 0.74781 0.4045 0.79047 0.0
H3998 H 0.76174 0.4427 0.78917 0.0
H3999 H 0.76211 0.4233 0.79304 0.0
H4000 H 0.69377 0.44677 0.82215 0.0
H4001 H 0.69298 0.42705 0.82366 0.0
H4002 H 0.69884 0.46293 0.80553 0.0
H4003 H 0.71496 0.47189 0.79809 0.0
C4004 C 0.61208 0.72838 0.79462 0.0
C4005 C 0.61155 0.71936 0.80806 0.0
C4006 C 0.58483 0.72654 0.81191 0.0
C4007 C 0.58488 0.73408 0.79759 0.0
N4008 N 0.59793 0.74073 0.77432 0.0
N4009 N 0.59702 0.70826 0.82863 0.0
C4010 C 0.59837 0.73467 0.78869 0.0
C4011 C 0.59782 0.71805 0.81652 0.0
N4012 N 0.62578 0.73119 0.78772 0.0
N4013 N 0.5725 0.72781 0.82128 0.0
H4014 H 0.60631 0.70196 0.83245 0.0
H4015 H 0.58688 0.70547 0.83416 0.0
H4016 H 0.5628 0.73394 0.81829 0.0
H4017 H 0.57238 0.72396 0.83251 0.0
H4018 H 0.62721 0.73895 0.77885 0.0
H4019 H 0.63604 0.72673 0.79174 0.0
H4020 H 0.60689 0.73997 0.76663 0.0
H4021 H 0.58814 0.74551 0.76958 0.0
C4022 C 0.31619 0.59213 0.82259 0.0
C4023 C 0.31812 0.60615 0.81472 0.0
C4024 C 0.30874 0.594 0.7914 0.0
C4025 C 0.30351 0.58139 0.8001 0.0
N4026 N 0.30288 0.56795 0.82413 0.0
N4027 N 0.32832 0.61328 0.79027 0.0
C4028 C 0.30752 0.58024 0.81574 0.0
C4029 C 0.31778 0.60539 0.79858 0.0
N4030 N 0.32448 0.58945 0.83551 0.0
N4031 N 0.30513 0.59519 0.77631 0.0
H4032 H 0.33757 0.61872 0.79554 0.0
H4033 H 0.32939 0.61219 0.77851 0.0
H4034 H 0.29873 0.58696 0.77053 0.0
H4035 H 0.30759 0.60493 0.76993 0.0
H4036 H 0.32472 0.57895 0.84102 0.0
H4037 H 0.33266 0.59722 0.83942 0.0
H4038 H 0.30409 0.5674 0.83593 0.0
H4039 H 0.29689 0.55879 0.81944 0.0
C4040 C 0.43556 0.30836 0.82261 0.0
C4041 C 0.42122 0.30703 0.81514 0.0
C4042 C 0.43377 0.29625 0.79273 0.0
C4043 C 0.44783 0.29615 0.80082 0.0
N4044 N 0.46183 0.30008 0.8242 0.0
N4045 N 0.40618 0.29806 0.7939 0.0
C4046 C 0.44867 0.3017 0.81596 0.0
C4047 C 0.42018 0.30057 0.80038 0.0
N4048 N 0.43672 0.31633 0.8359 0.0
N4049 N 0.43347 0.29258 0.77761 0.0
H4050 H 0.396 0.30125 0.79905 0.0
H4051 H 0.40452 0.29183 0.78397 0.0
H4052 H 0.44316 0.28928 0.77167 0.0
H4053 H 0.42394 0.29398 0.77065 0.0
H4054 H 0.44708 0.31912 0.84107 0.0
H4055 H 0.42736 0.32132 0.84113 0.0
H4056 H 0.46265 0.30231 0.83581 0.0
H4057 H 0.47169 0.29531 0.81974 0.0
C4058 C 0.32359 0.43701 0.22273 0.0
C4059 C 0.31632 0.42264 0.2245 0.0
C4060 C 0.29386 0.43505 0.2353 0.0
C4061 C 0.30183 0.44917 0.23509 0.0
N4062 N 0.32509 0.46335 0.2306 0.0
N4063 N 0.29536 0.40758 0.2342 0.0
C4064 C 0.31691 0.45011 0.22929 0.0
C4065 C 0.30163 0.42155 0.23121 0.0
N4066 N 0.33674 0.43819 0.21446 0.0
N4067 N 0.27873 0.43462 0.23903 0.0
H4068 H 0.30062 0.39744 0.23125 0.0
H4069 H 0.28552 0.40597 0.24064 0.0
H4070 H 0.27266 0.44427 0.24207 0.0
H4071 H 0.27186 0.42497 0.23787 0.0
H4072 H 0.34172 0.44853 0.21136 0.0
H4073 H 0.34196 0.42885 0.2095 0.0
H4074 H 0.33668 0.46426 0.22817 0.0
H4075 H 0.32062 0.47318 0.23534 0.0
C4076 C 0.59763 0.30904 0.2121 0.0
C4077 C 0.61208 0.3061 0.21879 0.0
C4078 C 0.59948 0.29437 0.24091 0.0
C4079 C 0.58516 0.29587 0.23346 0.0
N4080 N 0.57065 0.30272 0.21109 0.0
N4081 N 0.62707 0.29443 0.23865 0.0
C4082 C 0.58423 0.30275 0.21883 0.0
C4083 C 0.6131 0.29839 0.23299 0.0
N4084 N 0.5967 0.31815 0.19948 0.0
N4085 N 0.60002 0.28944 0.2557 0.0
H4086 H 0.63729 0.29735 0.23328 0.0
H4087 H 0.62854 0.2873 0.24802 0.0
H4088 H 0.59029 0.28635 0.26182 0.0
H4089 H 0.60991 0.2896 0.26231 0.0
H4090 H 0.58643 0.32208 0.19501 0.0
H4091 H 0.60627 0.3229 0.1942 0.0
H4092 H 0.56959 0.30597 0.19973 0.0
H4093 H 0.56057 0.29827 0.21564 0.0
C4094 C 0.43 0.74404 0.20874 0.0
C4095 C 0.4254 0.72855 0.2096 0.0
C4096 C 0.44795 0.72349 0.22546 0.0
C4097 C 0.45004 0.73934 0.22761 0.0
N4098 N 0.44265 0.76499 0.22135 0.0
N4099 N 0.43818 0.70453 0.20816 0.0
C4100 C 0.44096 0.74971 0.21924 0.0
C4101 C 0.43659 0.71827 0.21506 0.0
N4102 N 0.42612 0.75255 0.19632 0.0
N4103 N 0.45684 0.71337 0.23318 0.0
H4104 H 0.4321 0.70179 0.19828 0.0
H4105 H 0.44701 0.69707 0.21069 0.0
H4106 H 0.46573 0.71669 0.24041 0.0
H4107 H 0.45464 0.70171 0.23316 0.0
H4108 H 0.43033 0.76352 0.19444 0.0
H4109 H 0.42064 0.74772 0.18691 0.0
H4110 H 0.43527 0.77286 0.21642 0.0
H4111 H 0.45053 0.76966 0.22899 0.0
loop_
_geom_bond_atom_site_label_1
_geom_bond_atom_site_label_2
_geom_bond_distance
_geom_bond_site_symmetry_2
_ccdc_geom_bond_type
C0 C1 1.264 . S
C0 C5 1.479 . S
C0 C10 1.465 . S
C1 C0 1.264 . S
C1 C3 1.339 . S
C1 H28 0.931 . S
C2 C3 1.395 . S
C2 C4 1.320 . S
C3 C1 1.339 . S
C3 C2 1.395 . S
C3 H29 0.929 . S
C4 C2 1.320 . S
C4 C5 1.405 . S
C4 H30 0.930 . S
C5 C0 1.479 . S
C5 C4 1.405 . S
C5 H31 0.931 . S
U6 O7 2.454 . S
U6 O8 2.458 . S
U6 C9 2.984 . S
U6 C10 2.847 . S
U6 C23 2.882 . S
U6 O24 2.441 . S
U6 O25 2.420 . S
U6 O26 2.455 . S
U6 O27 2.449 . S
O7 U6 2.454 . S
O7 C9 1.353 . S
O8 U6 2.458 . S
O8 C9 1.286 . S
C9 U6 2.984 . S
C9 O7 1.353 . S
C9 O8 1.286 . S
C9 C11 1.363 . S
C10 C0 1.465 . S
C10 U6 2.847 . S
C10 O24 1.249 . S
C10 O25 1.202 . S
C11 C9 1.363 . S
C11 C13 1.408 . S
C11 C16 1.342 . S
C12 C13 1.310 . S
C12 C15 1.461 . S
C12 H32 0.932 . S
C13 C11 1.408 . S
C13 C12 1.310 . S
C13 H33 0.930 . S
C14 C15 1.474 . S
C14 C16 1.285 . S
C14 H34 0.929 . S
C15 C12 1.461 . S
C15 C14 1.474 . S
C16 C11 1.342 . S
C16 C14 1.285 . S
C16 H35 0.930 . S
C17 C20 1.424 . S
C17 C22 1.245 . S
C17 C23 1.428 . S
C18 C21 1.260 . S
C18 C22 1.477 . S
C18 H36 0.932 . S
C19 C20 1.384 . S
C19 C21 1.479 . S
C19 H37 0.929 . S
C20 C17 1.424 . S
C20 C19 1.384 . S
C20 H38 0.928 . S
C21 C18 1.260 . S
C21 C19 1.479 . S
C22 C17 1.245 . S
C22 C18 1.477 . S
C22 H39 0.932 . S
C23 U6 2.882 . S
C23 C17 1.428 . S
C23 O26 1.301 . S
C23 O27 1.282 . S
O24 U6 2.441 . S
O24 C10 1.249 . S
O25 U6 2.420 . S
O25 C10 1.202 . S
O26 U6 2.455 . S
O26 C23 1.301 . S
O27 U6 2.449 . S
O27 C23 1.282 . S
H28 C1 0.931 . S
H29 C3 0.929 . S
H30 C4 0.930 . S
H31 C5 0.931 . S
H32 C12 0.932 . S
H33 C13 0.930 . S
H34 C14 0.929 . S
H35 C16 0.930 . S
H36 C18 0.932 . S
H37 C19 0.929 . S
H38 C20 0.928 . S
H39 C22 0.932 . S
C40 C41 1.264 . S
C40 C45 1.479 . S
C40 C50 1.465 . S
C41 C40 1.264 . S
C41 C43 1.339 . S
C41 H68 0.931 . S
C42 C43 1.395 . S
C42 C44 1.320 . S
C43 C41 1.339 . S
C43 C42 1.395 . S
C43 H69 0.929 . S
C44 C42 1.320 . S
C44 C45 1.405 . S
C44 H70 0.930 . S
C45 C40 1.479 . S
C45 C44 1.405 . S
C45 H71 0.931 . S
U46 O47 2.454 . S
U46 O48 2.458 . S
U46 C49 2.984 . S
U46 C50 2.847 . S
U46 C63 2.882 . S
U46 O64 2.441 . S
U46 O65 2.420 . S
U46 O66 2.455 . S
U46 O67 2.449 . S
O47 U46 2.454 . S
O47 C49 1.353 . S
O48 U46 2.458 . S
O48 C49 1.286 . S
C49 U46 2.984 . S
C49 O47 1.353 . S
C49 O48 1.286 . S
C49 C51 1.363 . S
C50 C40 1.465 . S
C50 U46 2.847 . S
C50 O64 1.249 . S
C50 O65 1.202 . S
C51 C49 1.363 . S
C51 C53 1.408 . S
C51 C56 1.342 . S
C52 C53 1.310 . S
C52 C55 1.461 . S
C52 H72 0.932 . S
C53 C51 1.408 . S
C53 C52 1.310 . S
C53 H73 0.930 . S
C54 C55 1.474 . S
C54 C56 1.285 . S
C54 H74 0.929 . S
C55 C52 1.461 . S
C55 C54 1.474 . S
C56 C51 1.342 . S
C56 C54 1.285 . S
C56 H75 0.930 . S
C57 C60 1.424 . S
C57 C62 1.245 . S
C57 C63 1.428 . S
C58 C61 1.260 . S
C58 C62 1.477 . S
C58 H76 0.932 . S
C59 C60 1.384 . S
C59 C61 1.479 . S
C59 H77 0.929 . S
C60 C57 1.424 . S
C60 C59 1.384 . S
C60 H78 0.928 . S
C61 C58 1.260 . S
C61 C59 1.479 . S
C62 C57 1.245 . S
C62 C58 1.477 . S
C62 H79 0.932 . S
C63 U46 2.882 . S
C63 C57 1.428 . S
C63 O66 1.301 . S
C63 O67 1.282 . S
O64 U46 2.441 . S
O64 C50 1.249 . S
O65 U46 2.420 . S
O65 C50 1.202 . S
O66 U46 2.455 . S
O66 C63 1.301 . S
O67 U46 2.449 . S
O67 C63 1.282 . S
H68 C41 0.931 . S
H69 C43 0.929 . S
H70 C44 0.930 . S
H71 C45 0.931 . S
H72 C52 0.932 . S
H73 C53 0.930 . S
H74 C54 0.929 . S
H75 C56 0.930 . S
H76 C58 0.932 . S
H77 C59 0.929 . S
H78 C60 0.928 . S
H79 C62 0.932 . S
C80 C81 1.264 . S
C80 C85 1.479 . S
C80 C90 1.465 . S
C81 C80 1.264 . S
C81 C83 1.339 . S
C81 H108 0.931 . S
C82 C83 1.395 . S
C82 C84 1.320 . S
C83 C81 1.339 . S
C83 C82 1.395 . S
C83 H109 0.929 . S
C84 C82 1.320 . S
C84 C85 1.405 . S
C84 H110 0.930 . S
C85 C80 1.479 . S
C85 C84 1.405 . S
C85 H111 0.931 . S
U86 O87 2.454 . S
U86 O88 2.458 . S
U86 C89 2.984 . S
U86 C90 2.847 . S
U86 C103 2.882 . S
U86 O104 2.441 . S
U86 O105 2.420 . S
U86 O106 2.455 . S
U86 O107 2.449 . S
O87 U86 2.454 . S
O87 C89 1.353 . S
O88 U86 2.458 . S
O88 C89 1.286 . S
C89 U86 2.984 . S
C89 O87 1.353 . S
C89 O88 1.286 . S
C89 C91 1.363 . S
C90 C80 1.465 . S
C90 U86 2.847 . S
C90 O104 1.249 . S
C90 O105 1.202 . S
C91 C89 1.363 . S
C91 C93 1.408 . S
C91 C96 1.342 . S
C92 C93 1.310 . S
C92 C95 1.461 . S
C92 H112 0.932 . S
C93 C91 1.408 . S
C93 C92 1.310 . S
C93 H113 0.930 . S
C94 C95 1.474 . S
C94 C96 1.285 . S
C94 H114 0.929 . S
C95 C92 1.461 . S
C95 C94 1.474 . S
C96 C91 1.342 . S
C96 C94 1.285 . S
C96 H115 0.930 . S
C97 C100 1.424 . S
C97 C102 1.245 . S
C97 C103 1.428 . S
C98 C101 1.260 . S
C98 C102 1.477 . S
C98 H116 0.932 . S
C99 C100 1.384 . S
C99 C101 1.479 . S
C99 H117 0.929 . S
C100 C97 1.424 . S
C100 C99 1.384 . S
C100 H118 0.928 . S
C101 C98 1.260 . S
C101 C99 1.479 . S
C102 C97 1.245 . S
C102 C98 1.477 . S
C102 H119 0.932 . S
C103 U86 2.882 . S
C103 C97 1.428 . S
C103 O106 1.301 . S
C103 O107 1.282 . S
O104 U86 2.441 . S
O104 C90 1.249 . S
O105 U86 2.420 . S
O105 C90 1.202 . S
O106 U86 2.455 . S
O106 C103 1.301 . S
O107 U86 2.449 . S
O107 C103 1.282 . S
H108 C81 0.931 . S
H109 C83 0.929 . S
H110 C84 0.930 . S
H111 C85 0.931 . S
H112 C92 0.932 . S
H113 C93 0.930 . S
H114 C94 0.929 . S
H115 C96 0.930 . S
H116 C98 0.932 . S
H117 C99 0.929 . S
H118 C100 0.928 . S
H119 C102 0.932 . S
C120 C121 1.264 . S
C120 C125 1.479 . S
C120 C130 1.465 . S
C121 C120 1.264 . S
C121 C123 1.339 . S
C121 H148 0.931 . S
C122 C123 1.395 . S
C122 C124 1.320 . S
C123 C121 1.339 . S
C123 C122 1.395 . S
C123 H149 0.929 . S
C124 C122 1.320 . S
C124 C125 1.405 . S
C124 H150 0.930 . S
C125 C120 1.479 . S
C125 C124 1.405 . S
C125 H151 0.931 . S
U126 O127 2.454 . S
U126 O128 2.458 . S
U126 C129 2.984 . S
U126 C130 2.847 . S
U126 C143 2.882 . S
U126 O144 2.441 . S
U126 O145 2.420 . S
U126 O146 2.455 . S
U126 O147 2.449 . S
O127 U126 2.454 . S
O127 C129 1.353 . S
O128 U126 2.458 . S
O128 C129 1.286 . S
C129 U126 2.984 . S
C129 O127 1.353 . S
C129 O128 1.286 . S
C129 C131 1.363 . S
C130 C120 1.465 . S
C130 U126 2.847 . S
C130 O144 1.249 . S
C130 O145 1.202 . S
C131 C129 1.363 . S
C131 C133 1.408 . S
C131 C136 1.342 . S
C132 C133 1.310 . S
C132 C135 1.461 . S
C132 H152 0.932 . S
C133 C131 1.408 . S
C133 C132 1.310 . S
C133 H153 0.930 . S
C134 C135 1.474 . S
C134 C136 1.285 . S
C134 H154 0.929 . S
C135 C132 1.461 . S
C135 C134 1.474 . S
C136 C131 1.342 . S
C136 C134 1.285 . S
C136 H155 0.930 . S
C137 C140 1.424 . S
C137 C142 1.245 . S
C137 C143 1.428 . S
C138 C141 1.260 . S
C138 C142 1.477 . S
C138 H156 0.932 . S
C139 C140 1.384 . S
C139 C141 1.479 . S
C139 H157 0.929 . S
C140 C137 1.424 . S
C140 C139 1.384 . S
C140 H158 0.928 . S
C141 C138 1.260 . S
C141 C139 1.479 . S
C142 C137 1.245 . S
C142 C138 1.477 . S
C142 H159 0.932 . S
C143 U126 2.882 . S
C143 C137 1.428 . S
C143 O146 1.301 . S
C143 O147 1.282 . S
O144 U126 2.441 . S
O144 C130 1.249 . S
O145 U126 2.420 . S
O145 C130 1.202 . S
O146 U126 2.455 . S
O146 C143 1.301 . S
O147 U126 2.449 . S
O147 C143 1.282 . S
H148 C121 0.931 . S
H149 C123 0.929 . S
H150 C124 0.930 . S
H151 C125 0.931 . S
H152 C132 0.932 . S
H153 C133 0.930 . S
H154 C134 0.929 . S
H155 C136 0.930 . S
H156 C138 0.932 . S
H157 C139 0.929 . S
H158 C140 0.928 . S
H159 C142 0.932 . S
C160 C161 1.264 . S
C160 C165 1.479 . S
C160 C170 1.465 . S
C161 C160 1.264 . S
C161 C163 1.339 . S
C161 H188 0.931 . S
C162 C163 1.395 . S
C162 C164 1.320 . S
C163 C161 1.339 . S
C163 C162 1.395 . S
C163 H189 0.929 . S
C164 C162 1.320 . S
C164 C165 1.405 . S
C164 H190 0.930 . S
C165 C160 1.479 . S
C165 C164 1.405 . S
C165 H191 0.931 . S
U166 O167 2.454 . S
U166 O168 2.458 . S
U166 C169 2.984 . S
U166 C170 2.847 . S
U166 C183 2.882 . S
U166 O184 2.441 . S
U166 O185 2.420 . S
U166 O186 2.455 . S
U166 O187 2.449 . S
O167 U166 2.454 . S
O167 C169 1.353 . S
O168 U166 2.458 . S
O168 C169 1.286 . S
C169 U166 2.984 . S
C169 O167 1.353 . S
C169 O168 1.286 . S
C169 C171 1.363 . S
C170 C160 1.465 . S
C170 U166 2.847 . S
C170 O184 1.249 . S
C170 O185 1.202 . S
C171 C169 1.363 . S
C171 C173 1.408 . S
C171 C176 1.342 . S
C172 C173 1.310 . S
C172 C175 1.461 . S
C172 H192 0.932 . S
C173 C171 1.408 . S
C173 C172 1.310 . S
C173 H193 0.930 . S
C174 C175 1.474 . S
C174 C176 1.285 . S
C174 H194 0.929 . S
C175 C172 1.461 . S
C175 C174 1.474 . S
C176 C171 1.342 . S
C176 C174 1.285 . S
C176 H195 0.930 . S
C177 C180 1.424 . S
C177 C182 1.245 . S
C177 C183 1.428 . S
C178 C181 1.260 . S
C178 C182 1.477 . S
C178 H196 0.932 . S
C179 C180 1.384 . S
C179 C181 1.479 . S
C179 H197 0.929 . S
C180 C177 1.424 . S
C180 C179 1.384 . S
C180 H198 0.928 . S
C181 C178 1.260 . S
C181 C179 1.479 . S
C182 C177 1.245 . S
C182 C178 1.477 . S
C182 H199 0.932 . S
C183 U166 2.882 . S
C183 C177 1.428 . S
C183 O186 1.301 . S
C183 O187 1.282 . S
O184 U166 2.441 . S
O184 C170 1.249 . S
O185 U166 2.420 . S
O185 C170 1.202 . S
O186 U166 2.455 . S
O186 C183 1.301 . S
O187 U166 2.449 . S
O187 C183 1.282 . S
H188 C161 0.931 . S
H189 C163 0.929 . S
H190 C164 0.930 . S
H191 C165 0.931 . S
H192 C172 0.932 . S
H193 C173 0.930 . S
H194 C174 0.929 . S
H195 C176 0.930 . S
H196 C178 0.932 . S
H197 C179 0.929 . S
H198 C180 0.928 . S
H199 C182 0.932 . S
C200 C201 1.264 . S
C200 C205 1.479 . S
C200 C210 1.465 . S
C201 C200 1.264 . S
C201 C203 1.339 . S
C201 H228 0.931 . S
C202 C203 1.395 . S
C202 C204 1.320 . S
C203 C201 1.339 . S
C203 C202 1.395 . S
C203 H229 0.929 . S
C204 C202 1.320 . S
C204 C205 1.405 . S
C204 H230 0.930 . S
C205 C200 1.479 . S
C205 C204 1.405 . S
C205 H231 0.931 . S
U206 O207 2.454 . S
U206 O208 2.458 . S
U206 C209 2.984 . S
U206 C210 2.847 . S
U206 C223 2.882 . S
U206 O224 2.441 . S
U206 O225 2.420 . S
U206 O226 2.455 . S
U206 O227 2.449 . S
O207 U206 2.454 . S
O207 C209 1.353 . S
O208 U206 2.458 . S
O208 C209 1.286 . S
C209 U206 2.984 . S
C209 O207 1.353 . S
C209 O208 1.286 . S
C209 C211 1.363 . S
C210 C200 1.465 . S
C210 U206 2.847 . S
C210 O224 1.249 . S
C210 O225 1.202 . S
C211 C209 1.363 . S
C211 C213 1.408 . S
C211 C216 1.342 . S
C212 C213 1.310 . S
C212 C215 1.461 . S
C212 H232 0.932 . S
C213 C211 1.408 . S
C213 C212 1.310 . S
C213 H233 0.930 . S
C214 C215 1.474 . S
C214 C216 1.285 . S
C214 H234 0.929 . S
C215 C212 1.461 . S
C215 C214 1.474 . S
C216 C211 1.342 . S
C216 C214 1.285 . S
C216 H235 0.930 . S
C217 C220 1.424 . S
C217 C222 1.245 . S
C217 C223 1.428 . S
C218 C221 1.260 . S
C218 C222 1.477 . S
C218 H236 0.932 . S
C219 C220 1.384 . S
C219 C221 1.479 . S
C219 H237 0.929 . S
C220 C217 1.424 . S
C220 C219 1.384 . S
C220 H238 0.928 . S
C221 C218 1.260 . S
C221 C219 1.479 . S
C222 C217 1.245 . S
C222 C218 1.477 . S
C222 H239 0.932 . S
C223 U206 2.882 . S
C223 C217 1.428 . S
C223 O226 1.301 . S
C223 O227 1.282 . S
O224 U206 2.441 . S
O224 C210 1.249 . S
O225 U206 2.420 . S
O225 C210 1.202 . S
O226 U206 2.455 . S
O226 C223 1.301 . S
O227 U206 2.449 . S
O227 C223 1.282 . S
H228 C201 0.931 . S
H229 C203 0.929 . S
H230 C204 0.930 . S
H231 C205 0.931 . S
H232 C212 0.932 . S
H233 C213 0.930 . S
H234 C214 0.929 . S
H235 C216 0.930 . S
H236 C218 0.932 . S
H237 C219 0.929 . S
H238 C220 0.928 . S
H239 C222 0.932 . S
C240 C241 1.264 . S
C240 C245 1.479 . S
C240 C250 1.465 . S
C241 C240 1.264 . S
C241 C243 1.339 . S
C241 H268 0.931 . S
C242 C243 1.395 . S
C242 C244 1.320 . S
C243 C241 1.339 . S
C243 C242 1.395 . S
C243 H269 0.929 . S
C244 C242 1.320 . S
C244 C245 1.405 . S
C244 H270 0.930 . S
C245 C240 1.479 . S
C245 C244 1.405 . S
C245 H271 0.931 . S
U246 O247 2.454 . S
U246 O248 2.458 . S
U246 C249 2.984 . S
U246 C250 2.847 . S
U246 C263 2.882 . S
U246 O264 2.441 . S
U246 O265 2.420 . S
U246 O266 2.455 . S
U246 O267 2.449 . S
O247 U246 2.454 . S
O247 C249 1.353 . S
O248 U246 2.458 . S
O248 C249 1.286 . S
C249 U246 2.984 . S
C249 O247 1.353 . S
C249 O248 1.286 . S
C249 C251 1.363 . S
C250 C240 1.465 . S
C250 U246 2.847 . S
C250 O264 1.249 . S
C250 O265 1.202 . S
C251 C249 1.363 . S
C251 C253 1.408 . S
C251 C256 1.342 . S
C252 C253 1.310 . S
C252 C255 1.461 . S
C252 H272 0.932 . S
C253 C251 1.408 . S
C253 C252 1.310 . S
C253 H273 0.930 . S
C254 C255 1.474 . S
C254 C256 1.285 . S
C254 H274 0.929 . S
C255 C252 1.461 . S
C255 C254 1.474 . S
C256 C251 1.342 . S
C256 C254 1.285 . S
C256 H275 0.930 . S
C257 C260 1.424 . S
C257 C262 1.245 . S
C257 C263 1.428 . S
C258 C261 1.260 . S
C258 C262 1.477 . S
C258 H276 0.932 . S
C259 C260 1.384 . S
C259 C261 1.479 . S
C259 H277 0.929 . S
C260 C257 1.424 . S
C260 C259 1.384 . S
C260 H278 0.928 . S
C261 C258 1.260 . S
C261 C259 1.479 . S
C262 C257 1.245 . S
C262 C258 1.477 . S
C262 H279 0.932 . S
C263 U246 2.882 . S
C263 C257 1.428 . S
C263 O266 1.301 . S
C263 O267 1.282 . S
O264 U246 2.441 . S
O264 C250 1.249 . S
O265 U246 2.420 . S
O265 C250 1.202 . S
O266 U246 2.455 . S
O266 C263 1.301 . S
O267 U246 2.449 . S
O267 C263 1.282 . S
H268 C241 0.931 . S
H269 C243 0.929 . S
H270 C244 0.930 . S
H271 C245 0.931 . S
H272 C252 0.932 . S
H273 C253 0.930 . S
H274 C254 0.929 . S
H275 C256 0.930 . S
H276 C258 0.932 . S
H277 C259 0.929 . S
H278 C260 0.928 . S
H279 C262 0.932 . S
C280 C281 1.264 . S
C280 C285 1.479 . S
C280 C290 1.465 . S
C281 C280 1.264 . S
C281 C283 1.339 . S
C281 H308 0.931 . S
C282 C283 1.395 . S
C282 C284 1.320 . S
C283 C281 1.339 . S
C283 C282 1.395 . S
C283 H309 0.929 . S
C284 C282 1.320 . S
C284 C285 1.405 . S
C284 H310 0.930 . S
C285 C280 1.479 . S
C285 C284 1.405 . S
C285 H311 0.931 . S
U286 O287 2.454 . S
U286 O288 2.458 . S
U286 C289 2.984 . S
U286 C290 2.847 . S
U286 C303 2.882 . S
U286 O304 2.441 . S
U286 O305 2.420 . S
U286 O306 2.455 . S
U286 O307 2.449 . S
O287 U286 2.454 . S
O287 C289 1.353 . S
O288 U286 2.458 . S
O288 C289 1.286 . S
C289 U286 2.984 . S
C289 O287 1.353 . S
C289 O288 1.286 . S
C289 C291 1.363 . S
C290 C280 1.465 . S
C290 U286 2.847 . S
C290 O304 1.249 . S
C290 O305 1.202 . S
C291 C289 1.363 . S
C291 C293 1.408 . S
C291 C296 1.342 . S
C292 C293 1.310 . S
C292 C295 1.461 . S
C292 H312 0.932 . S
C293 C291 1.408 . S
C293 C292 1.310 . S
C293 H313 0.930 . S
C294 C295 1.474 . S
C294 C296 1.285 . S
C294 H314 0.929 . S
C295 C292 1.461 . S
C295 C294 1.474 . S
C296 C291 1.342 . S
C296 C294 1.285 . S
C296 H315 0.930 . S
C297 C300 1.424 . S
C297 C302 1.245 . S
C297 C303 1.428 . S
C298 C301 1.260 . S
C298 C302 1.477 . S
C298 H316 0.932 . S
C299 C300 1.384 . S
C299 C301 1.479 . S
C299 H317 0.929 . S
C300 C297 1.424 . S
C300 C299 1.384 . S
C300 H318 0.928 . S
C301 C298 1.260 . S
C301 C299 1.479 . S
C302 C297 1.245 . S
C302 C298 1.477 . S
C302 H319 0.932 . S
C303 U286 2.882 . S
C303 C297 1.428 . S
C303 O306 1.301 . S
C303 O307 1.282 . S
O304 U286 2.441 . S
O304 C290 1.249 . S
O305 U286 2.420 . S
O305 C290 1.202 . S
O306 U286 2.455 . S
O306 C303 1.301 . S
O307 U286 2.449 . S
O307 C303 1.282 . S
H308 C281 0.931 . S
H309 C283 0.929 . S
H310 C284 0.930 . S
H311 C285 0.931 . S
H312 C292 0.932 . S
H313 C293 0.930 . S
H314 C294 0.929 . S
H315 C296 0.930 . S
H316 C298 0.932 . S
H317 C299 0.929 . S
H318 C300 0.928 . S
H319 C302 0.932 . S
C320 C321 1.264 . S
C320 C325 1.479 . S
C320 C330 1.465 . S
C321 C320 1.264 . S
C321 C323 1.339 . S
C321 H348 0.931 . S
C322 C323 1.395 . S
C322 C324 1.320 . S
C323 C321 1.339 . S
C323 C322 1.395 . S
C323 H349 0.929 . S
C324 C322 1.320 . S
C324 C325 1.405 . S
C324 H350 0.930 . S
C325 C320 1.479 . S
C325 C324 1.405 . S
C325 H351 0.931 . S
U326 O327 2.454 . S
U326 O328 2.458 . S
U326 C329 2.984 . S
U326 C330 2.847 . S
U326 C343 2.882 . S
U326 O344 2.441 . S
U326 O345 2.420 . S
U326 O346 2.455 . S
U326 O347 2.449 . S
O327 U326 2.454 . S
O327 C329 1.353 . S
O328 U326 2.458 . S
O328 C329 1.286 . S
C329 U326 2.984 . S
C329 O327 1.353 . S
C329 O328 1.286 . S
C329 C331 1.363 . S
C330 C320 1.465 . S
C330 U326 2.847 . S
C330 O344 1.249 . S
C330 O345 1.202 . S
C331 C329 1.363 . S
C331 C333 1.408 . S
C331 C336 1.342 . S
C332 C333 1.310 . S
C332 C335 1.461 . S
C332 H352 0.932 . S
C333 C331 1.408 . S
C333 C332 1.310 . S
C333 H353 0.930 . S
C334 C335 1.474 . S
C334 C336 1.285 . S
C334 H354 0.929 . S
C335 C332 1.461 . S
C335 C334 1.474 . S
C336 C331 1.342 . S
C336 C334 1.285 . S
C336 H355 0.930 . S
C337 C340 1.424 . S
C337 C342 1.245 . S
C337 C343 1.428 . S
C338 C341 1.260 . S
C338 C342 1.477 . S
C338 H356 0.932 . S
C339 C340 1.384 . S
C339 C341 1.479 . S
C339 H357 0.929 . S
C340 C337 1.424 . S
C340 C339 1.384 . S
C340 H358 0.928 . S
C341 C338 1.260 . S
C341 C339 1.479 . S
C342 C337 1.245 . S
C342 C338 1.477 . S
C342 H359 0.932 . S
C343 U326 2.882 . S
C343 C337 1.428 . S
C343 O346 1.301 . S
C343 O347 1.282 . S
O344 U326 2.441 . S
O344 C330 1.249 . S
O345 U326 2.420 . S
O345 C330 1.202 . S
O346 U326 2.455 . S
O346 C343 1.301 . S
O347 U326 2.449 . S
O347 C343 1.282 . S
H348 C321 0.931 . S
H349 C323 0.929 . S
H350 C324 0.930 . S
H351 C325 0.931 . S
H352 C332 0.932 . S
H353 C333 0.930 . S
H354 C334 0.929 . S
H355 C336 0.930 . S
H356 C338 0.932 . S
H357 C339 0.929 . S
H358 C340 0.928 . S
H359 C342 0.932 . S
C360 C361 1.264 . S
C360 C365 1.479 . S
C360 C370 1.465 . S
C361 C360 1.264 . S
C361 C363 1.339 . S
C361 H388 0.931 . S
C362 C363 1.395 . S
C362 C364 1.320 . S
C363 C361 1.339 . S
C363 C362 1.395 . S
C363 H389 0.929 . S
C364 C362 1.320 . S
C364 C365 1.405 . S
C364 H390 0.930 . S
C365 C360 1.479 . S
C365 C364 1.405 . S
C365 H391 0.931 . S
U366 O367 2.454 . S
U366 O368 2.458 . S
U366 C369 2.984 . S
U366 C370 2.847 . S
U366 C383 2.882 . S
U366 O384 2.441 . S
U366 O385 2.420 . S
U366 O386 2.455 . S
U366 O387 2.449 . S
O367 U366 2.454 . S
O367 C369 1.353 . S
O368 U366 2.458 . S
O368 C369 1.286 . S
C369 U366 2.984 . S
C369 O367 1.353 . S
C369 O368 1.286 . S
C369 C371 1.363 . S
C370 C360 1.465 . S
C370 U366 2.847 . S
C370 O384 1.249 . S
C370 O385 1.202 . S
C371 C369 1.363 . S
C371 C373 1.408 . S
C371 C376 1.342 . S
C372 C373 1.310 . S
C372 C375 1.461 . S
C372 H392 0.932 . S
C373 C371 1.408 . S
C373 C372 1.310 . S
C373 H393 0.930 . S
C374 C375 1.474 . S
C374 C376 1.285 . S
C374 H394 0.929 . S
C375 C372 1.461 . S
C375 C374 1.474 . S
C376 C371 1.342 . S
C376 C374 1.285 . S
C376 H395 0.930 . S
C377 C380 1.424 . S
C377 C382 1.245 . S
C377 C383 1.428 . S
C378 C381 1.260 . S
C378 C382 1.477 . S
C378 H396 0.932 . S
C379 C380 1.384 . S
C379 C381 1.479 . S
C379 H397 0.929 . S
C380 C377 1.424 . S
C380 C379 1.384 . S
C380 H398 0.928 . S
C381 C378 1.260 . S
C381 C379 1.479 . S
C382 C377 1.245 . S
C382 C378 1.477 . S
C382 H399 0.932 . S
C383 U366 2.882 . S
C383 C377 1.428 . S
C383 O386 1.301 . S
C383 O387 1.282 . S
O384 U366 2.441 . S
O384 C370 1.249 . S
O385 U366 2.420 . S
O385 C370 1.202 . S
O386 U366 2.455 . S
O386 C383 1.301 . S
O387 U366 2.449 . S
O387 C383 1.282 . S
H388 C361 0.931 . S
H389 C363 0.929 . S
H390 C364 0.930 . S
H391 C365 0.931 . S
H392 C372 0.932 . S
H393 C373 0.930 . S
H394 C374 0.929 . S
H395 C376 0.930 . S
H396 C378 0.932 . S
H397 C379 0.929 . S
H398 C380 0.928 . S
H399 C382 0.932 . S
C400 C401 1.264 . S
C400 C405 1.479 . S
C400 C410 1.465 . S
C401 C400 1.264 . S
C401 C403 1.339 . S
C401 H428 0.931 . S
C402 C403 1.395 . S
C402 C404 1.320 . S
C403 C401 1.339 . S
C403 C402 1.395 . S
C403 H429 0.929 . S
C404 C402 1.320 . S
C404 C405 1.405 . S
C404 H430 0.930 . S
C405 C400 1.479 . S
C405 C404 1.405 . S
C405 H431 0.931 . S
U406 O407 2.454 . S
U406 O408 2.458 . S
U406 C409 2.984 . S
U406 C410 2.847 . S
U406 C423 2.882 . S
U406 O424 2.441 . S
U406 O425 2.420 . S
U406 O426 2.455 . S
U406 O427 2.449 . S
O407 U406 2.454 . S
O407 C409 1.353 . S
O408 U406 2.458 . S
O408 C409 1.286 . S
C409 U406 2.984 . S
C409 O407 1.353 . S
C409 O408 1.286 . S
C409 C411 1.363 . S
C410 C400 1.465 . S
C410 U406 2.847 . S
C410 O424 1.249 . S
C410 O425 1.202 . S
C411 C409 1.363 . S
C411 C413 1.408 . S
C411 C416 1.342 . S
C412 C413 1.310 . S
C412 C415 1.461 . S
C412 H432 0.932 . S
C413 C411 1.408 . S
C413 C412 1.310 . S
C413 H433 0.930 . S
C414 C415 1.474 . S
C414 C416 1.285 . S
C414 H434 0.929 . S
C415 C412 1.461 . S
C415 C414 1.474 . S
C416 C411 1.342 . S
C416 C414 1.285 . S
C416 H435 0.930 . S
C417 C420 1.424 . S
C417 C422 1.245 . S
C417 C423 1.428 . S
C418 C421 1.260 . S
C418 C422 1.477 . S
C418 H436 0.932 . S
C419 C420 1.384 . S
C419 C421 1.479 . S
C419 H437 0.929 . S
C420 C417 1.424 . S
C420 C419 1.384 . S
C420 H438 0.928 . S
C421 C418 1.260 . S
C421 C419 1.479 . S
C422 C417 1.245 . S
C422 C418 1.477 . S
C422 H439 0.932 . S
C423 U406 2.882 . S
C423 C417 1.428 . S
C423 O426 1.301 . S
C423 O427 1.282 . S
O424 U406 2.441 . S
O424 C410 1.249 . S
O425 U406 2.420 . S
O425 C410 1.202 . S
O426 U406 2.455 . S
O426 C423 1.301 . S
O427 U406 2.449 . S
O427 C423 1.282 . S
H428 C401 0.931 . S
H429 C403 0.929 . S
H430 C404 0.930 . S
H431 C405 0.931 . S
H432 C412 0.932 . S
H433 C413 0.930 . S
H434 C414 0.929 . S
H435 C416 0.930 . S
H436 C418 0.932 . S
H437 C419 0.929 . S
H438 C420 0.928 . S
H439 C422 0.932 . S
C440 C441 1.264 . S
C440 C445 1.479 . S
C440 C450 1.465 . S
C441 C440 1.264 . S
C441 C443 1.339 . S
C441 H468 0.931 . S
C442 C443 1.395 . S
C442 C444 1.320 . S
C443 C441 1.339 . S
C443 C442 1.395 . S
C443 H469 0.929 . S
C444 C442 1.320 . S
C444 C445 1.405 . S
C444 H470 0.930 . S
C445 C440 1.479 . S
C445 C444 1.405 . S
C445 H471 0.931 . S
U446 O447 2.454 . S
U446 O448 2.458 . S
U446 C449 2.984 . S
U446 C450 2.847 . S
U446 C463 2.882 . S
U446 O464 2.441 . S
U446 O465 2.420 . S
U446 O466 2.455 . S
U446 O467 2.449 . S
O447 U446 2.454 . S
O447 C449 1.353 . S
O448 U446 2.458 . S
O448 C449 1.286 . S
C449 U446 2.984 . S
C449 O447 1.353 . S
C449 O448 1.286 . S
C449 C451 1.363 . S
C450 C440 1.465 . S
C450 U446 2.847 . S
C450 O464 1.249 . S
C450 O465 1.202 . S
C451 C449 1.363 . S
C451 C453 1.408 . S
C451 C456 1.342 . S
C452 C453 1.310 . S
C452 C455 1.461 . S
C452 H472 0.932 . S
C453 C451 1.408 . S
C453 C452 1.310 . S
C453 H473 0.930 . S
C454 C455 1.474 . S
C454 C456 1.285 . S
C454 H474 0.929 . S
C455 C452 1.461 . S
C455 C454 1.474 . S
C456 C451 1.342 . S
C456 C454 1.285 . S
C456 H475 0.930 . S
C457 C460 1.424 . S
C457 C462 1.245 . S
C457 C463 1.428 . S
C458 C461 1.260 . S
C458 C462 1.477 . S
C458 H476 0.932 . S
C459 C460 1.384 . S
C459 C461 1.479 . S
C459 H477 0.929 . S
C460 C457 1.424 . S
C460 C459 1.384 . S
C460 H478 0.928 . S
C461 C458 1.260 . S
C461 C459 1.479 . S
C462 C457 1.245 . S
C462 C458 1.477 . S
C462 H479 0.932 . S
C463 U446 2.882 . S
C463 C457 1.428 . S
C463 O466 1.301 . S
C463 O467 1.282 . S
O464 U446 2.441 . S
O464 C450 1.249 . S
O465 U446 2.420 . S
O465 C450 1.202 . S
O466 U446 2.455 . S
O466 C463 1.301 . S
O467 U446 2.449 . S
O467 C463 1.282 . S
H468 C441 0.931 . S
H469 C443 0.929 . S
H470 C444 0.930 . S
H471 C445 0.931 . S
H472 C452 0.932 . S
H473 C453 0.930 . S
H474 C454 0.929 . S
H475 C456 0.930 . S
H476 C458 0.932 . S
H477 C459 0.929 . S
H478 C460 0.928 . S
H479 C462 0.932 . S
C480 C481 1.264 . S
C480 C485 1.479 . S
C480 C490 1.465 . S
C481 C480 1.264 . S
C481 C483 1.339 . S
C481 H508 0.931 . S
C482 C483 1.395 . S
C482 C484 1.320 . S
C483 C481 1.339 . S
C483 C482 1.395 . S
C483 H509 0.929 . S
C484 C482 1.320 . S
C484 C485 1.405 . S
C484 H510 0.930 . S
C485 C480 1.479 . S
C485 C484 1.405 . S
C485 H511 0.931 . S
U486 O487 2.454 . S
U486 O488 2.458 . S
U486 C489 2.984 . S
U486 C490 2.847 . S
U486 C503 2.882 . S
U486 O504 2.441 . S
U486 O505 2.420 . S
U486 O506 2.455 . S
U486 O507 2.449 . S
O487 U486 2.454 . S
O487 C489 1.353 . S
O488 U486 2.458 . S
O488 C489 1.286 . S
C489 U486 2.984 . S
C489 O487 1.353 . S
C489 O488 1.286 . S
C489 C491 1.363 . S
C490 C480 1.465 . S
C490 U486 2.847 . S
C490 O504 1.249 . S
C490 O505 1.202 . S
C491 C489 1.363 . S
C491 C493 1.408 . S
C491 C496 1.342 . S
C492 C493 1.310 . S
C492 C495 1.461 . S
C492 H512 0.932 . S
C493 C491 1.408 . S
C493 C492 1.310 . S
C493 H513 0.930 . S
C494 C495 1.474 . S
C494 C496 1.285 . S
C494 H514 0.929 . S
C495 C492 1.461 . S
C495 C494 1.474 . S
C496 C491 1.342 . S
C496 C494 1.285 . S
C496 H515 0.930 . S
C497 C500 1.424 . S
C497 C502 1.245 . S
C497 C503 1.428 . S
C498 C501 1.260 . S
C498 C502 1.477 . S
C498 H516 0.932 . S
C499 C500 1.384 . S
C499 C501 1.479 . S
C499 H517 0.929 . S
C500 C497 1.424 . S
C500 C499 1.384 . S
C500 H518 0.928 . S
C501 C498 1.260 . S
C501 C499 1.479 . S
C502 C497 1.245 . S
C502 C498 1.477 . S
C502 H519 0.932 . S
C503 U486 2.882 . S
C503 C497 1.428 . S
C503 O506 1.301 . S
C503 O507 1.282 . S
O504 U486 2.441 . S
O504 C490 1.249 . S
O505 U486 2.420 . S
O505 C490 1.202 . S
O506 U486 2.455 . S
O506 C503 1.301 . S
O507 U486 2.449 . S
O507 C503 1.282 . S
H508 C481 0.931 . S
H509 C483 0.929 . S
H510 C484 0.930 . S
H511 C485 0.931 . S
H512 C492 0.932 . S
H513 C493 0.930 . S
H514 C494 0.929 . S
H515 C496 0.930 . S
H516 C498 0.932 . S
H517 C499 0.929 . S
H518 C500 0.928 . S
H519 C502 0.932 . S
C520 C521 1.264 . S
C520 C525 1.479 . S
C520 C530 1.465 . S
C521 C520 1.264 . S
C521 C523 1.339 . S
C521 H548 0.931 . S
C522 C523 1.395 . S
C522 C524 1.320 . S
C523 C521 1.339 . S
C523 C522 1.395 . S
C523 H549 0.929 . S
C524 C522 1.320 . S
C524 C525 1.405 . S
C524 H550 0.930 . S
C525 C520 1.479 . S
C525 C524 1.405 . S
C525 H551 0.931 . S
U526 O527 2.454 . S
U526 O528 2.458 . S
U526 C529 2.984 . S
U526 C530 2.847 . S
U526 C543 2.882 . S
U526 O544 2.441 . S
U526 O545 2.420 . S
U526 O546 2.455 . S
U526 O547 2.449 . S
O527 U526 2.454 . S
O527 C529 1.353 . S
O528 U526 2.458 . S
O528 C529 1.286 . S
C529 U526 2.984 . S
C529 O527 1.353 . S
C529 O528 1.286 . S
C529 C531 1.363 . S
C530 C520 1.465 . S
C530 U526 2.847 . S
C530 O544 1.249 . S
C530 O545 1.202 . S
C531 C529 1.363 . S
C531 C533 1.408 . S
C531 C536 1.342 . S
C532 C533 1.310 . S
C532 C535 1.461 . S
C532 H552 0.932 . S
C533 C531 1.408 . S
C533 C532 1.310 . S
C533 H553 0.930 . S
C534 C535 1.474 . S
C534 C536 1.285 . S
C534 H554 0.929 . S
C535 C532 1.461 . S
C535 C534 1.474 . S
C536 C531 1.342 . S
C536 C534 1.285 . S
C536 H555 0.930 . S
C537 C540 1.424 . S
C537 C542 1.245 . S
C537 C543 1.428 . S
C538 C541 1.260 . S
C538 C542 1.477 . S
C538 H556 0.932 . S
C539 C540 1.384 . S
C539 C541 1.479 . S
C539 H557 0.929 . S
C540 C537 1.424 . S
C540 C539 1.384 . S
C540 H558 0.928 . S
C541 C538 1.260 . S
C541 C539 1.479 . S
C542 C537 1.245 . S
C542 C538 1.477 . S
C542 H559 0.932 . S
C543 U526 2.882 . S
C543 C537 1.428 . S
C543 O546 1.301 . S
C543 O547 1.282 . S
O544 U526 2.441 . S
O544 C530 1.249 . S
O545 U526 2.420 . S
O545 C530 1.202 . S
O546 U526 2.455 . S
O546 C543 1.301 . S
O547 U526 2.449 . S
O547 C543 1.282 . S
H548 C521 0.931 . S
H549 C523 0.929 . S
H550 C524 0.930 . S
H551 C525 0.931 . S
H552 C532 0.932 . S
H553 C533 0.930 . S
H554 C534 0.929 . S
H555 C536 0.930 . S
H556 C538 0.932 . S
H557 C539 0.929 . S
H558 C540 0.928 . S
H559 C542 0.932 . S
C560 C561 1.264 . S
C560 C565 1.479 . S
C560 C570 1.465 . S
C561 C560 1.264 . S
C561 C563 1.339 . S
C561 H588 0.931 . S
C562 C563 1.395 . S
C562 C564 1.320 . S
C563 C561 1.339 . S
C563 C562 1.395 . S
C563 H589 0.929 . S
C564 C562 1.320 . S
C564 C565 1.405 . S
C564 H590 0.930 . S
C565 C560 1.479 . S
C565 C564 1.405 . S
C565 H591 0.931 . S
U566 O567 2.454 . S
U566 O568 2.458 . S
U566 C569 2.984 . S
U566 C570 2.847 . S
U566 C583 2.882 . S
U566 O584 2.441 . S
U566 O585 2.420 . S
U566 O586 2.455 . S
U566 O587 2.449 . S
O567 U566 2.454 . S
O567 C569 1.353 . S
O568 U566 2.458 . S
O568 C569 1.286 . S
C569 U566 2.984 . S
C569 O567 1.353 . S
C569 O568 1.286 . S
C569 C571 1.363 . S
C570 C560 1.465 . S
C570 U566 2.847 . S
C570 O584 1.249 . S
C570 O585 1.202 . S
C571 C569 1.363 . S
C571 C573 1.408 . S
C571 C576 1.342 . S
C572 C573 1.310 . S
C572 C575 1.461 . S
C572 H592 0.932 . S
C573 C571 1.408 . S
C573 C572 1.310 . S
C573 H593 0.930 . S
C574 C575 1.474 . S
C574 C576 1.285 . S
C574 H594 0.929 . S
C575 C572 1.461 . S
C575 C574 1.474 . S
C576 C571 1.342 . S
C576 C574 1.285 . S
C576 H595 0.930 . S
C577 C580 1.424 . S
C577 C582 1.245 . S
C577 C583 1.428 . S
C578 C581 1.260 . S
C578 C582 1.477 . S
C578 H596 0.932 . S
C579 C580 1.384 . S
C579 C581 1.479 . S
C579 H597 0.929 . S
C580 C577 1.424 . S
C580 C579 1.384 . S
C580 H598 0.928 . S
C581 C578 1.260 . S
C581 C579 1.479 . S
C582 C577 1.245 . S
C582 C578 1.477 . S
C582 H599 0.932 . S
C583 U566 2.882 . S
C583 C577 1.428 . S
C583 O586 1.301 . S
C583 O587 1.282 . S
O584 U566 2.441 . S
O584 C570 1.249 . S
O585 U566 2.420 . S
O585 C570 1.202 . S
O586 U566 2.455 . S
O586 C583 1.301 . S
O587 U566 2.449 . S
O587 C583 1.282 . S
H588 C561 0.931 . S
H589 C563 0.929 . S
H590 C564 0.930 . S
H591 C565 0.931 . S
H592 C572 0.932 . S
H593 C573 0.930 . S
H594 C574 0.929 . S
H595 C576 0.930 . S
H596 C578 0.932 . S
H597 C579 0.929 . S
H598 C580 0.928 . S
H599 C582 0.932 . S
C600 C601 1.264 . S
C600 C605 1.479 . S
C600 C610 1.465 . S
C601 C600 1.264 . S
C601 C603 1.339 . S
C601 H628 0.931 . S
C602 C603 1.395 . S
C602 C604 1.320 . S
C603 C601 1.339 . S
C603 C602 1.395 . S
C603 H629 0.929 . S
C604 C602 1.320 . S
C604 C605 1.405 . S
C604 H630 0.930 . S
C605 C600 1.479 . S
C605 C604 1.405 . S
C605 H631 0.931 . S
U606 O607 2.454 . S
U606 O608 2.458 . S
U606 C609 2.984 . S
U606 C610 2.847 . S
U606 C623 2.882 . S
U606 O624 2.441 . S
U606 O625 2.420 . S
U606 O626 2.455 . S
U606 O627 2.449 . S
O607 U606 2.454 . S
O607 C609 1.353 . S
O608 U606 2.458 . S
O608 C609 1.286 . S
C609 U606 2.984 . S
C609 O607 1.353 . S
C609 O608 1.286 . S
C609 C611 1.363 . S
C610 C600 1.465 . S
C610 U606 2.847 . S
C610 O624 1.249 . S
C610 O625 1.202 . S
C611 C609 1.363 . S
C611 C613 1.408 . S
C611 C616 1.342 . S
C612 C613 1.310 . S
C612 C615 1.461 . S
C612 H632 0.932 . S
C613 C611 1.408 . S
C613 C612 1.310 . S
C613 H633 0.930 . S
C614 C615 1.474 . S
C614 C616 1.285 . S
C614 H634 0.929 . S
C615 C612 1.461 . S
C615 C614 1.474 . S
C616 C611 1.342 . S
C616 C614 1.285 . S
C616 H635 0.930 . S
C617 C620 1.424 . S
C617 C622 1.245 . S
C617 C623 1.428 . S
C618 C621 1.260 . S
C618 C622 1.477 . S
C618 H636 0.932 . S
C619 C620 1.384 . S
C619 C621 1.479 . S
C619 H637 0.929 . S
C620 C617 1.424 . S
C620 C619 1.384 . S
C620 H638 0.928 . S
C621 C618 1.260 . S
C621 C619 1.479 . S
C622 C617 1.245 . S
C622 C618 1.477 . S
C622 H639 0.932 . S
C623 U606 2.882 . S
C623 C617 1.428 . S
C623 O626 1.301 . S
C623 O627 1.282 . S
O624 U606 2.441 . S
O624 C610 1.249 . S
O625 U606 2.420 . S
O625 C610 1.202 . S
O626 U606 2.455 . S
O626 C623 1.301 . S
O627 U606 2.449 . S
O627 C623 1.282 . S
H628 C601 0.931 . S
H629 C603 0.929 . S
H630 C604 0.930 . S
H631 C605 0.931 . S
H632 C612 0.932 . S
H633 C613 0.930 . S
H634 C614 0.929 . S
H635 C616 0.930 . S
H636 C618 0.932 . S
H637 C619 0.929 . S
H638 C620 0.928 . S
H639 C622 0.932 . S
C640 C641 1.264 . S
C640 C645 1.479 . S
C640 C650 1.465 . S
C641 C640 1.264 . S
C641 C643 1.339 . S
C641 H668 0.931 . S
C642 C643 1.395 . S
C642 C644 1.320 . S
C643 C641 1.339 . S
C643 C642 1.395 . S
C643 H669 0.929 . S
C644 C642 1.320 . S
C644 C645 1.405 . S
C644 H670 0.930 . S
C645 C640 1.479 . S
C645 C644 1.405 . S
C645 H671 0.931 . S
U646 O647 2.454 . S
U646 O648 2.458 . S
U646 C649 2.984 . S
U646 C650 2.847 . S
U646 C663 2.882 . S
U646 O664 2.441 . S
U646 O665 2.420 . S
U646 O666 2.455 . S
U646 O667 2.449 . S
O647 U646 2.454 . S
O647 C649 1.353 . S
O648 U646 2.458 . S
O648 C649 1.286 . S
C649 U646 2.984 . S
C649 O647 1.353 . S
C649 O648 1.286 . S
C649 C651 1.363 . S
C650 C640 1.465 . S
C650 U646 2.847 . S
C650 O664 1.249 . S
C650 O665 1.202 . S
C651 C649 1.363 . S
C651 C653 1.408 . S
C651 C656 1.342 . S
C652 C653 1.310 . S
C652 C655 1.461 . S
C652 H672 0.932 . S
C653 C651 1.408 . S
C653 C652 1.310 . S
C653 H673 0.930 . S
C654 C655 1.474 . S
C654 C656 1.285 . S
C654 H674 0.929 . S
C655 C652 1.461 . S
C655 C654 1.474 . S
C656 C651 1.342 . S
C656 C654 1.285 . S
C656 H675 0.930 . S
C657 C660 1.424 . S
C657 C662 1.245 . S
C657 C663 1.428 . S
C658 C661 1.260 . S
C658 C662 1.477 . S
C658 H676 0.932 . S
C659 C660 1.384 . S
C659 C661 1.479 . S
C659 H677 0.929 . S
C660 C657 1.424 . S
C660 C659 1.384 . S
C660 H678 0.928 . S
C661 C658 1.260 . S
C661 C659 1.479 . S
C662 C657 1.245 . S
C662 C658 1.477 . S
C662 H679 0.932 . S
C663 U646 2.882 . S
C663 C657 1.428 . S
C663 O666 1.301 . S
C663 O667 1.282 . S
O664 U646 2.441 . S
O664 C650 1.249 . S
O665 U646 2.420 . S
O665 C650 1.202 . S
O666 U646 2.455 . S
O666 C663 1.301 . S
O667 U646 2.449 . S
O667 C663 1.282 . S
H668 C641 0.931 . S
H669 C643 0.929 . S
H670 C644 0.930 . S
H671 C645 0.931 . S
H672 C652 0.932 . S
H673 C653 0.930 . S
H674 C654 0.929 . S
H675 C656 0.930 . S
H676 C658 0.932 . S
H677 C659 0.929 . S
H678 C660 0.928 . S
H679 C662 0.932 . S
C680 C681 1.264 . S
C680 C685 1.479 . S
C680 C690 1.465 . S
C681 C680 1.264 . S
C681 C683 1.339 . S
C681 H708 0.931 . S
C682 C683 1.395 . S
C682 C684 1.320 . S
C683 C681 1.339 . S
C683 C682 1.395 . S
C683 H709 0.929 . S
C684 C682 1.320 . S
C684 C685 1.405 . S
C684 H710 0.930 . S
C685 C680 1.479 . S
C685 C684 1.405 . S
C685 H711 0.931 . S
U686 O687 2.454 . S
U686 O688 2.458 . S
U686 C689 2.984 . S
U686 C690 2.847 . S
U686 C703 2.882 . S
U686 O704 2.441 . S
U686 O705 2.420 . S
U686 O706 2.455 . S
U686 O707 2.449 . S
O687 U686 2.454 . S
O687 C689 1.353 . S
O688 U686 2.458 . S
O688 C689 1.286 . S
C689 U686 2.984 . S
C689 O687 1.353 . S
C689 O688 1.286 . S
C689 C691 1.363 . S
C690 C680 1.465 . S
C690 U686 2.847 . S
C690 O704 1.249 . S
C690 O705 1.202 . S
C691 C689 1.363 . S
C691 C693 1.408 . S
C691 C696 1.342 . S
C692 C693 1.310 . S
C692 C695 1.461 . S
C692 H712 0.932 . S
C693 C691 1.408 . S
C693 C692 1.310 . S
C693 H713 0.930 . S
C694 C695 1.474 . S
C694 C696 1.285 . S
C694 H714 0.929 . S
C695 C692 1.461 . S
C695 C694 1.474 . S
C696 C691 1.342 . S
C696 C694 1.285 . S
C696 H715 0.930 . S
C697 C700 1.424 . S
C697 C702 1.245 . S
C697 C703 1.428 . S
C698 C701 1.260 . S
C698 C702 1.477 . S
C698 H716 0.932 . S
C699 C700 1.384 . S
C699 C701 1.479 . S
C699 H717 0.929 . S
C700 C697 1.424 . S
C700 C699 1.384 . S
C700 H718 0.928 . S
C701 C698 1.260 . S
C701 C699 1.479 . S
C702 C697 1.245 . S
C702 C698 1.477 . S
C702 H719 0.932 . S
C703 U686 2.882 . S
C703 C697 1.428 . S
C703 O706 1.301 . S
C703 O707 1.282 . S
O704 U686 2.441 . S
O704 C690 1.249 . S
O705 U686 2.420 . S
O705 C690 1.202 . S
O706 U686 2.455 . S
O706 C703 1.301 . S
O707 U686 2.449 . S
O707 C703 1.282 . S
H708 C681 0.931 . S
H709 C683 0.929 . S
H710 C684 0.930 . S
H711 C685 0.931 . S
H712 C692 0.932 . S
H713 C693 0.930 . S
H714 C694 0.929 . S
H715 C696 0.930 . S
H716 C698 0.932 . S
H717 C699 0.929 . S
H718 C700 0.928 . S
H719 C702 0.932 . S
C720 C721 1.264 . S
C720 C725 1.479 . S
C720 C730 1.465 . S
C721 C720 1.264 . S
C721 C723 1.339 . S
C721 H748 0.931 . S
C722 C723 1.395 . S
C722 C724 1.320 . S
C723 C721 1.339 . S
C723 C722 1.395 . S
C723 H749 0.929 . S
C724 C722 1.320 . S
C724 C725 1.405 . S
C724 H750 0.930 . S
C725 C720 1.479 . S
C725 C724 1.405 . S
C725 H751 0.931 . S
U726 O727 2.454 . S
U726 O728 2.458 . S
U726 C729 2.984 . S
U726 C730 2.847 . S
U726 C743 2.882 . S
U726 O744 2.441 . S
U726 O745 2.420 . S
U726 O746 2.455 . S
U726 O747 2.449 . S
O727 U726 2.454 . S
O727 C729 1.353 . S
O728 U726 2.458 . S
O728 C729 1.286 . S
C729 U726 2.984 . S
C729 O727 1.353 . S
C729 O728 1.286 . S
C729 C731 1.363 . S
C730 C720 1.465 . S
C730 U726 2.847 . S
C730 O744 1.249 . S
C730 O745 1.202 . S
C731 C729 1.363 . S
C731 C733 1.408 . S
C731 C736 1.342 . S
C732 C733 1.310 . S
C732 C735 1.461 . S
C732 H752 0.932 . S
C733 C731 1.408 . S
C733 C732 1.310 . S
C733 H753 0.930 . S
C734 C735 1.474 . S
C734 C736 1.285 . S
C734 H754 0.929 . S
C735 C732 1.461 . S
C735 C734 1.474 . S
C736 C731 1.342 . S
C736 C734 1.285 . S
C736 H755 0.930 . S
C737 C740 1.424 . S
C737 C742 1.245 . S
C737 C743 1.428 . S
C738 C741 1.260 . S
C738 C742 1.477 . S
C738 H756 0.932 . S
C739 C740 1.384 . S
C739 C741 1.479 . S
C739 H757 0.929 . S
C740 C737 1.424 . S
C740 C739 1.384 . S
C740 H758 0.928 . S
C741 C738 1.260 . S
C741 C739 1.479 . S
C742 C737 1.245 . S
C742 C738 1.477 . S
C742 H759 0.932 . S
C743 U726 2.882 . S
C743 C737 1.428 . S
C743 O746 1.301 . S
C743 O747 1.282 . S
O744 U726 2.441 . S
O744 C730 1.249 . S
O745 U726 2.420 . S
O745 C730 1.202 . S
O746 U726 2.455 . S
O746 C743 1.301 . S
O747 U726 2.449 . S
O747 C743 1.282 . S
H748 C721 0.931 . S
H749 C723 0.929 . S
H750 C724 0.930 . S
H751 C725 0.931 . S
H752 C732 0.932 . S
H753 C733 0.930 . S
H754 C734 0.929 . S
H755 C736 0.930 . S
H756 C738 0.932 . S
H757 C739 0.929 . S
H758 C740 0.928 . S
H759 C742 0.932 . S
C760 C761 1.264 . S
C760 C765 1.479 . S
C760 C770 1.465 . S
C761 C760 1.264 . S
C761 C763 1.339 . S
C761 H788 0.931 . S
C762 C763 1.395 . S
C762 C764 1.320 . S
C763 C761 1.339 . S
C763 C762 1.395 . S
C763 H789 0.929 . S
C764 C762 1.320 . S
C764 C765 1.405 . S
C764 H790 0.930 . S
C765 C760 1.479 . S
C765 C764 1.405 . S
C765 H791 0.931 . S
U766 O767 2.454 . S
U766 O768 2.458 . S
U766 C769 2.984 . S
U766 C770 2.847 . S
U766 C783 2.882 . S
U766 O784 2.441 . S
U766 O785 2.420 . S
U766 O786 2.455 . S
U766 O787 2.449 . S
O767 U766 2.454 . S
O767 C769 1.353 . S
O768 U766 2.458 . S
O768 C769 1.286 . S
C769 U766 2.984 . S
C769 O767 1.353 . S
C769 O768 1.286 . S
C769 C771 1.363 . S
C770 C760 1.465 . S
C770 U766 2.847 . S
C770 O784 1.249 . S
C770 O785 1.202 . S
C771 C769 1.363 . S
C771 C773 1.408 . S
C771 C776 1.342 . S
C772 C773 1.310 . S
C772 C775 1.461 . S
C772 H792 0.932 . S
C773 C771 1.408 . S
C773 C772 1.310 . S
C773 H793 0.930 . S
C774 C775 1.474 . S
C774 C776 1.285 . S
C774 H794 0.929 . S
C775 C772 1.461 . S
C775 C774 1.474 . S
C776 C771 1.342 . S
C776 C774 1.285 . S
C776 H795 0.930 . S
C777 C780 1.424 . S
C777 C782 1.245 . S
C777 C783 1.428 . S
C778 C781 1.260 . S
C778 C782 1.477 . S
C778 H796 0.932 . S
C779 C780 1.384 . S
C779 C781 1.479 . S
C779 H797 0.929 . S
C780 C777 1.424 . S
C780 C779 1.384 . S
C780 H798 0.928 . S
C781 C778 1.260 . S
C781 C779 1.479 . S
C782 C777 1.245 . S
C782 C778 1.477 . S
C782 H799 0.932 . S
C783 U766 2.882 . S
C783 C777 1.428 . S
C783 O786 1.301 . S
C783 O787 1.282 . S
O784 U766 2.441 . S
O784 C770 1.249 . S
O785 U766 2.420 . S
O785 C770 1.202 . S
O786 U766 2.455 . S
O786 C783 1.301 . S
O787 U766 2.449 . S
O787 C783 1.282 . S
H788 C761 0.931 . S
H789 C763 0.929 . S
H790 C764 0.930 . S
H791 C765 0.931 . S
H792 C772 0.932 . S
H793 C773 0.930 . S
H794 C774 0.929 . S
H795 C776 0.930 . S
H796 C778 0.932 . S
H797 C779 0.929 . S
H798 C780 0.928 . S
H799 C782 0.932 . S
C800 C801 1.264 . S
C800 C805 1.479 . S
C800 C810 1.465 . S
C801 C800 1.264 . S
C801 C803 1.339 . S
C801 H828 0.931 . S
C802 C803 1.395 . S
C802 C804 1.320 . S
C803 C801 1.339 . S
C803 C802 1.395 . S
C803 H829 0.929 . S
C804 C802 1.320 . S
C804 C805 1.405 . S
C804 H830 0.930 . S
C805 C800 1.479 . S
C805 C804 1.405 . S
C805 H831 0.931 . S
U806 O807 2.454 . S
U806 O808 2.458 . S
U806 C809 2.984 . S
U806 C810 2.847 . S
U806 C823 2.882 . S
U806 O824 2.441 . S
U806 O825 2.420 . S
U806 O826 2.455 . S
U806 O827 2.449 . S
O807 U806 2.454 . S
O807 C809 1.353 . S
O808 U806 2.458 . S
O808 C809 1.286 . S
C809 U806 2.984 . S
C809 O807 1.353 . S
C809 O808 1.286 . S
C809 C811 1.363 . S
C810 C800 1.465 . S
C810 U806 2.847 . S
C810 O824 1.249 . S
C810 O825 1.202 . S
C811 C809 1.363 . S
C811 C813 1.408 . S
C811 C816 1.342 . S
C812 C813 1.310 . S
C812 C815 1.461 . S
C812 H832 0.932 . S
C813 C811 1.408 . S
C813 C812 1.310 . S
C813 H833 0.930 . S
C814 C815 1.474 . S
C814 C816 1.285 . S
C814 H834 0.929 . S
C815 C812 1.461 . S
C815 C814 1.474 . S
C816 C811 1.342 . S
C816 C814 1.285 . S
C816 H835 0.930 . S
C817 C820 1.424 . S
C817 C822 1.245 . S
C817 C823 1.428 . S
C818 C821 1.260 . S
C818 C822 1.477 . S
C818 H836 0.932 . S
C819 C820 1.384 . S
C819 C821 1.479 . S
C819 H837 0.929 . S
C820 C817 1.424 . S
C820 C819 1.384 . S
C820 H838 0.928 . S
C821 C818 1.260 . S
C821 C819 1.479 . S
C822 C817 1.245 . S
C822 C818 1.477 . S
C822 H839 0.932 . S
C823 U806 2.882 . S
C823 C817 1.428 . S
C823 O826 1.301 . S
C823 O827 1.282 . S
O824 U806 2.441 . S
O824 C810 1.249 . S
O825 U806 2.420 . S
O825 C810 1.202 . S
O826 U806 2.455 . S
O826 C823 1.301 . S
O827 U806 2.449 . S
O827 C823 1.282 . S
H828 C801 0.931 . S
H829 C803 0.929 . S
H830 C804 0.930 . S
H831 C805 0.931 . S
H832 C812 0.932 . S
H833 C813 0.930 . S
H834 C814 0.929 . S
H835 C816 0.930 . S
H836 C818 0.932 . S
H837 C819 0.929 . S
H838 C820 0.928 . S
H839 C822 0.932 . S
C840 C841 1.264 . S
C840 C845 1.479 . S
C840 C850 1.465 . S
C841 C840 1.264 . S
C841 C843 1.339 . S
C841 H868 0.931 . S
C842 C843 1.395 . S
C842 C844 1.320 . S
C843 C841 1.339 . S
C843 C842 1.395 . S
C843 H869 0.929 . S
C844 C842 1.320 . S
C844 C845 1.405 . S
C844 H870 0.930 . S
C845 C840 1.479 . S
C845 C844 1.405 . S
C845 H871 0.931 . S
U846 O847 2.454 . S
U846 O848 2.458 . S
U846 C849 2.984 . S
U846 C850 2.847 . S
U846 C863 2.882 . S
U846 O864 2.441 . S
U846 O865 2.420 . S
U846 O866 2.455 . S
U846 O867 2.449 . S
O847 U846 2.454 . S
O847 C849 1.353 . S
O848 U846 2.458 . S
O848 C849 1.286 . S
C849 U846 2.984 . S
C849 O847 1.353 . S
C849 O848 1.286 . S
C849 C851 1.363 . S
C850 C840 1.465 . S
C850 U846 2.847 . S
C850 O864 1.249 . S
C850 O865 1.202 . S
C851 C849 1.363 . S
C851 C853 1.408 . S
C851 C856 1.342 . S
C852 C853 1.310 . S
C852 C855 1.461 . S
C852 H872 0.932 . S
C853 C851 1.408 . S
C853 C852 1.310 . S
C853 H873 0.930 . S
C854 C855 1.474 . S
C854 C856 1.285 . S
C854 H874 0.929 . S
C855 C852 1.461 . S
C855 C854 1.474 . S
C856 C851 1.342 . S
C856 C854 1.285 . S
C856 H875 0.930 . S
C857 C860 1.424 . S
C857 C862 1.245 . S
C857 C863 1.428 . S
C858 C861 1.260 . S
C858 C862 1.477 . S
C858 H876 0.932 . S
C859 C860 1.384 . S
C859 C861 1.479 . S
C859 H877 0.929 . S
C860 C857 1.424 . S
C860 C859 1.384 . S
C860 H878 0.928 . S
C861 C858 1.260 . S
C861 C859 1.479 . S
C862 C857 1.245 . S
C862 C858 1.477 . S
C862 H879 0.932 . S
C863 U846 2.882 . S
C863 C857 1.428 . S
C863 O866 1.301 . S
C863 O867 1.282 . S
O864 U846 2.441 . S
O864 C850 1.249 . S
O865 U846 2.420 . S
O865 C850 1.202 . S
O866 U846 2.455 . S
O866 C863 1.301 . S
O867 U846 2.449 . S
O867 C863 1.282 . S
H868 C841 0.931 . S
H869 C843 0.929 . S
H870 C844 0.930 . S
H871 C845 0.931 . S
H872 C852 0.932 . S
H873 C853 0.930 . S
H874 C854 0.929 . S
H875 C856 0.930 . S
H876 C858 0.932 . S
H877 C859 0.929 . S
H878 C860 0.928 . S
H879 C862 0.932 . S
C880 C881 1.264 . S
C880 C885 1.479 . S
C880 C890 1.465 . S
C881 C880 1.264 . S
C881 C883 1.339 . S
C881 H908 0.931 . S
C882 C883 1.395 . S
C882 C884 1.320 . S
C883 C881 1.339 . S
C883 C882 1.395 . S
C883 H909 0.929 . S
C884 C882 1.320 . S
C884 C885 1.405 . S
C884 H910 0.930 . S
C885 C880 1.479 . S
C885 C884 1.405 . S
C885 H911 0.931 . S
U886 O887 2.454 . S
U886 O888 2.458 . S
U886 C889 2.984 . S
U886 C890 2.847 . S
U886 C903 2.882 . S
U886 O904 2.441 . S
U886 O905 2.420 . S
U886 O906 2.455 . S
U886 O907 2.449 . S
O887 U886 2.454 . S
O887 C889 1.353 . S
O888 U886 2.458 . S
O888 C889 1.286 . S
C889 U886 2.984 . S
C889 O887 1.353 . S
C889 O888 1.286 . S
C889 C891 1.363 . S
C890 C880 1.465 . S
C890 U886 2.847 . S
C890 O904 1.249 . S
C890 O905 1.202 . S
C891 C889 1.363 . S
C891 C893 1.408 . S
C891 C896 1.342 . S
C892 C893 1.310 . S
C892 C895 1.461 . S
C892 H912 0.932 . S
C893 C891 1.408 . S
C893 C892 1.310 . S
C893 H913 0.930 . S
C894 C895 1.474 . S
C894 C896 1.285 . S
C894 H914 0.929 . S
C895 C892 1.461 . S
C895 C894 1.474 . S
C896 C891 1.342 . S
C896 C894 1.285 . S
C896 H915 0.930 . S
C897 C900 1.424 . S
C897 C902 1.245 . S
C897 C903 1.428 . S
C898 C901 1.260 . S
C898 C902 1.477 . S
C898 H916 0.932 . S
C899 C900 1.384 . S
C899 C901 1.479 . S
C899 H917 0.929 . S
C900 C897 1.424 . S
C900 C899 1.384 . S
C900 H918 0.928 . S
C901 C898 1.260 . S
C901 C899 1.479 . S
C902 C897 1.245 . S
C902 C898 1.477 . S
C902 H919 0.932 . S
C903 U886 2.882 . S
C903 C897 1.428 . S
C903 O906 1.301 . S
C903 O907 1.282 . S
O904 U886 2.441 . S
O904 C890 1.249 . S
O905 U886 2.420 . S
O905 C890 1.202 . S
O906 U886 2.455 . S
O906 C903 1.301 . S
O907 U886 2.449 . S
O907 C903 1.282 . S
H908 C881 0.931 . S
H909 C883 0.929 . S
H910 C884 0.930 . S
H911 C885 0.931 . S
H912 C892 0.932 . S
H913 C893 0.930 . S
H914 C894 0.929 . S
H915 C896 0.930 . S
H916 C898 0.932 . S
H917 C899 0.929 . S
H918 C900 0.928 . S
H919 C902 0.932 . S
C920 C921 1.264 . S
C920 C925 1.479 . S
C920 C930 1.465 . S
C921 C920 1.264 . S
C921 C923 1.339 . S
C921 H948 0.931 . S
C922 C923 1.395 . S
C922 C924 1.320 . S
C923 C921 1.339 . S
C923 C922 1.395 . S
C923 H949 0.929 . S
C924 C922 1.320 . S
C924 C925 1.405 . S
C924 H950 0.930 . S
C925 C920 1.479 . S
C925 C924 1.405 . S
C925 H951 0.931 . S
U926 O927 2.454 . S
U926 O928 2.458 . S
U926 C929 2.984 . S
U926 C930 2.847 . S
U926 C943 2.882 . S
U926 O944 2.441 . S
U926 O945 2.420 . S
U926 O946 2.455 . S
U926 O947 2.449 . S
O927 U926 2.454 . S
O927 C929 1.353 . S
O928 U926 2.458 . S
O928 C929 1.286 . S
C929 U926 2.984 . S
C929 O927 1.353 . S
C929 O928 1.286 . S
C929 C931 1.363 . S
C930 C920 1.465 . S
C930 U926 2.847 . S
C930 O944 1.249 . S
C930 O945 1.202 . S
C931 C929 1.363 . S
C931 C933 1.408 . S
C931 C936 1.342 . S
C932 C933 1.310 . S
C932 C935 1.461 . S
C932 H952 0.932 . S
C933 C931 1.408 . S
C933 C932 1.310 . S
C933 H953 0.930 . S
C934 C935 1.474 . S
C934 C936 1.285 . S
C934 H954 0.929 . S
C935 C932 1.461 . S
C935 C934 1.474 . S
C936 C931 1.342 . S
C936 C934 1.285 . S
C936 H955 0.930 . S
C937 C940 1.424 . S
C937 C942 1.245 . S
C937 C943 1.428 . S
C938 C941 1.260 . S
C938 C942 1.477 . S
C938 H956 0.932 . S
C939 C940 1.384 . S
C939 C941 1.479 . S
C939 H957 0.929 . S
C940 C937 1.424 . S
C940 C939 1.384 . S
C940 H958 0.928 . S
C941 C938 1.260 . S
C941 C939 1.479 . S
C942 C937 1.245 . S
C942 C938 1.477 . S
C942 H959 0.932 . S
C943 U926 2.882 . S
C943 C937 1.428 . S
C943 O946 1.301 . S
C943 O947 1.282 . S
O944 U926 2.441 . S
O944 C930 1.249 . S
O945 U926 2.420 . S
O945 C930 1.202 . S
O946 U926 2.455 . S
O946 C943 1.301 . S
O947 U926 2.449 . S
O947 C943 1.282 . S
H948 C921 0.931 . S
H949 C923 0.929 . S
H950 C924 0.930 . S
H951 C925 0.931 . S
H952 C932 0.932 . S
H953 C933 0.930 . S
H954 C934 0.929 . S
H955 C936 0.930 . S
H956 C938 0.932 . S
H957 C939 0.929 . S
H958 C940 0.928 . S
H959 C942 0.932 . S
C960 C961 1.264 . S
C960 C965 1.479 . S
C960 C970 1.465 . S
C961 C960 1.264 . S
C961 C963 1.339 . S
C961 H988 0.931 . S
C962 C963 1.395 . S
C962 C964 1.320 . S
C963 C961 1.339 . S
C963 C962 1.395 . S
C963 H989 0.929 . S
C964 C962 1.320 . S
C964 C965 1.405 . S
C964 H990 0.930 . S
C965 C960 1.479 . S
C965 C964 1.405 . S
C965 H991 0.931 . S
U966 O967 2.454 . S
U966 O968 2.458 . S
U966 C969 2.984 . S
U966 C970 2.847 . S
U966 C983 2.882 . S
U966 O984 2.441 . S
U966 O985 2.420 . S
U966 O986 2.455 . S
U966 O987 2.449 . S
O967 U966 2.454 . S
O967 C969 1.353 . S
O968 U966 2.458 . S
O968 C969 1.286 . S
C969 U966 2.984 . S
C969 O967 1.353 . S
C969 O968 1.286 . S
C969 C971 1.363 . S
C970 C960 1.465 . S
C970 U966 2.847 . S
C970 O984 1.249 . S
C970 O985 1.202 . S
C971 C969 1.363 . S
C971 C973 1.408 . S
C971 C976 1.342 . S
C972 C973 1.310 . S
C972 C975 1.461 . S
C972 H992 0.932 . S
C973 C971 1.408 . S
C973 C972 1.310 . S
C973 H993 0.930 . S
C974 C975 1.474 . S
C974 C976 1.285 . S
C974 H994 0.929 . S
C975 C972 1.461 . S
C975 C974 1.474 . S
C976 C971 1.342 . S
C976 C974 1.285 . S
C976 H995 0.930 . S
C977 C980 1.424 . S
C977 C982 1.245 . S
C977 C983 1.428 . S
C978 C981 1.260 . S
C978 C982 1.477 . S
C978 H996 0.932 . S
C979 C980 1.384 . S
C979 C981 1.479 . S
C979 H997 0.929 . S
C980 C977 1.424 . S
C980 C979 1.384 . S
C980 H998 0.928 . S
C981 C978 1.260 . S
C981 C979 1.479 . S
C982 C977 1.245 . S
C982 C978 1.477 . S
C982 H999 0.932 . S
C983 U966 2.882 . S
C983 C977 1.428 . S
C983 O986 1.301 . S
C983 O987 1.282 . S
O984 U966 2.441 . S
O984 C970 1.249 . S
O985 U966 2.420 . S
O985 C970 1.202 . S
O986 U966 2.455 . S
O986 C983 1.301 . S
O987 U966 2.449 . S
O987 C983 1.282 . S
H988 C961 0.931 . S
H989 C963 0.929 . S
H990 C964 0.930 . S
H991 C965 0.931 . S
H992 C972 0.932 . S
H993 C973 0.930 . S
H994 C974 0.929 . S
H995 C976 0.930 . S
H996 C978 0.932 . S
H997 C979 0.929 . S
H998 C980 0.928 . S
H999 C982 0.932 . S
C1000 C1001 1.264 . S
C1000 C1005 1.479 . S
C1000 C1010 1.465 . S
C1001 C1000 1.264 . S
C1001 C1003 1.339 . S
C1001 H1028 0.931 . S
C1002 C1003 1.395 . S
C1002 C1004 1.320 . S
C1003 C1001 1.339 . S
C1003 C1002 1.395 . S
C1003 H1029 0.929 . S
C1004 C1002 1.320 . S
C1004 C1005 1.405 . S
C1004 H1030 0.930 . S
C1005 C1000 1.479 . S
C1005 C1004 1.405 . S
C1005 H1031 0.931 . S
U1006 O1007 2.454 . S
U1006 O1008 2.458 . S
U1006 C1009 2.984 . S
U1006 C1010 2.847 . S
U1006 C1023 2.882 . S
U1006 O1024 2.441 . S
U1006 O1025 2.420 . S
U1006 O1026 2.455 . S
U1006 O1027 2.449 . S
O1007 U1006 2.454 . S
O1007 C1009 1.353 . S
O1008 U1006 2.458 . S
O1008 C1009 1.286 . S
C1009 U1006 2.984 . S
C1009 O1007 1.353 . S
C1009 O1008 1.286 . S
C1009 C1011 1.363 . S
C1010 C1000 1.465 . S
C1010 U1006 2.847 . S
C1010 O1024 1.249 . S
C1010 O1025 1.202 . S
C1011 C1009 1.363 . S
C1011 C1013 1.408 . S
C1011 C1016 1.342 . S
C1012 C1013 1.310 . S
C1012 C1015 1.461 . S
C1012 H1032 0.932 . S
C1013 C1011 1.408 . S
C1013 C1012 1.310 . S
C1013 H1033 0.930 . S
C1014 C1015 1.474 . S
C1014 C1016 1.285 . S
C1014 H1034 0.929 . S
C1015 C1012 1.461 . S
C1015 C1014 1.474 . S
C1016 C1011 1.342 . S
C1016 C1014 1.285 . S
C1016 H1035 0.930 . S
C1017 C1020 1.424 . S
C1017 C1022 1.245 . S
C1017 C1023 1.428 . S
C1018 C1021 1.260 . S
C1018 C1022 1.477 . S
C1018 H1036 0.932 . S
C1019 C1020 1.384 . S
C1019 C1021 1.479 . S
C1019 H1037 0.929 . S
C1020 C1017 1.424 . S
C1020 C1019 1.384 . S
C1020 H1038 0.928 . S
C1021 C1018 1.260 . S
C1021 C1019 1.479 . S
C1022 C1017 1.245 . S
C1022 C1018 1.477 . S
C1022 H1039 0.932 . S
C1023 U1006 2.882 . S
C1023 C1017 1.428 . S
C1023 O1026 1.301 . S
C1023 O1027 1.282 . S
O1024 U1006 2.441 . S
O1024 C1010 1.249 . S
O1025 U1006 2.420 . S
O1025 C1010 1.202 . S
O1026 U1006 2.455 . S
O1026 C1023 1.301 . S
O1027 U1006 2.449 . S
O1027 C1023 1.282 . S
H1028 C1001 0.931 . S
H1029 C1003 0.929 . S
H1030 C1004 0.930 . S
H1031 C1005 0.931 . S
H1032 C1012 0.932 . S
H1033 C1013 0.930 . S
H1034 C1014 0.929 . S
H1035 C1016 0.930 . S
H1036 C1018 0.932 . S
H1037 C1019 0.929 . S
H1038 C1020 0.928 . S
H1039 C1022 0.932 . S
C1040 C1041 1.264 . S
C1040 C1045 1.479 . S
C1040 C1050 1.465 . S
C1041 C1040 1.264 . S
C1041 C1043 1.339 . S
C1041 H1068 0.931 . S
C1042 C1043 1.395 . S
C1042 C1044 1.320 . S
C1043 C1041 1.339 . S
C1043 C1042 1.395 . S
C1043 H1069 0.929 . S
C1044 C1042 1.320 . S
C1044 C1045 1.405 . S
C1044 H1070 0.930 . S
C1045 C1040 1.479 . S
C1045 C1044 1.405 . S
C1045 H1071 0.931 . S
U1046 O1047 2.454 . S
U1046 O1048 2.458 . S
U1046 C1049 2.984 . S
U1046 C1050 2.847 . S
U1046 C1063 2.882 . S
U1046 O1064 2.441 . S
U1046 O1065 2.420 . S
U1046 O1066 2.455 . S
U1046 O1067 2.449 . S
O1047 U1046 2.454 . S
O1047 C1049 1.353 . S
O1048 U1046 2.458 . S
O1048 C1049 1.286 . S
C1049 U1046 2.984 . S
C1049 O1047 1.353 . S
C1049 O1048 1.286 . S
C1049 C1051 1.363 . S
C1050 C1040 1.465 . S
C1050 U1046 2.847 . S
C1050 O1064 1.249 . S
C1050 O1065 1.202 . S
C1051 C1049 1.363 . S
C1051 C1053 1.408 . S
C1051 C1056 1.342 . S
C1052 C1053 1.310 . S
C1052 C1055 1.461 . S
C1052 H1072 0.932 . S
C1053 C1051 1.408 . S
C1053 C1052 1.310 . S
C1053 H1073 0.930 . S
C1054 C1055 1.474 . S
C1054 C1056 1.285 . S
C1054 H1074 0.929 . S
C1055 C1052 1.461 . S
C1055 C1054 1.474 . S
C1056 C1051 1.342 . S
C1056 C1054 1.285 . S
C1056 H1075 0.930 . S
C1057 C1060 1.424 . S
C1057 C1062 1.245 . S
C1057 C1063 1.428 . S
C1058 C1061 1.260 . S
C1058 C1062 1.477 . S
C1058 H1076 0.932 . S
C1059 C1060 1.384 . S
C1059 C1061 1.479 . S
C1059 H1077 0.929 . S
C1060 C1057 1.424 . S
C1060 C1059 1.384 . S
C1060 H1078 0.928 . S
C1061 C1058 1.260 . S
C1061 C1059 1.479 . S
C1062 C1057 1.245 . S
C1062 C1058 1.477 . S
C1062 H1079 0.932 . S
C1063 U1046 2.882 . S
C1063 C1057 1.428 . S
C1063 O1066 1.301 . S
C1063 O1067 1.282 . S
O1064 U1046 2.441 . S
O1064 C1050 1.249 . S
O1065 U1046 2.420 . S
O1065 C1050 1.202 . S
O1066 U1046 2.455 . S
O1066 C1063 1.301 . S
O1067 U1046 2.449 . S
O1067 C1063 1.282 . S
H1068 C1041 0.931 . S
H1069 C1043 0.929 . S
H1070 C1044 0.930 . S
H1071 C1045 0.931 . S
H1072 C1052 0.932 . S
H1073 C1053 0.930 . S
H1074 C1054 0.929 . S
H1075 C1056 0.930 . S
H1076 C1058 0.932 . S
H1077 C1059 0.929 . S
H1078 C1060 0.928 . S
H1079 C1062 0.932 . S
C1080 C1081 1.264 . S
C1080 C1085 1.479 . S
C1080 C1090 1.465 . S
C1081 C1080 1.264 . S
C1081 C1083 1.339 . S
C1081 H1108 0.931 . S
C1082 C1083 1.395 . S
C1082 C1084 1.320 . S
C1083 C1081 1.339 . S
C1083 C1082 1.395 . S
C1083 H1109 0.929 . S
C1084 C1082 1.320 . S
C1084 C1085 1.405 . S
C1084 H1110 0.930 . S
C1085 C1080 1.479 . S
C1085 C1084 1.405 . S
C1085 H1111 0.931 . S
U1086 O1087 2.454 . S
U1086 O1088 2.458 . S
U1086 C1089 2.984 . S
U1086 C1090 2.847 . S
U1086 C1103 2.882 . S
U1086 O1104 2.441 . S
U1086 O1105 2.420 . S
U1086 O1106 2.455 . S
U1086 O1107 2.449 . S
O1087 U1086 2.454 . S
O1087 C1089 1.353 . S
O1088 U1086 2.458 . S
O1088 C1089 1.286 . S
C1089 U1086 2.984 . S
C1089 O1087 1.353 . S
C1089 O1088 1.286 . S
C1089 C1091 1.363 . S
C1090 C1080 1.465 . S
C1090 U1086 2.847 . S
C1090 O1104 1.249 . S
C1090 O1105 1.202 . S
C1091 C1089 1.363 . S
C1091 C1093 1.408 . S
C1091 C1096 1.342 . S
C1092 C1093 1.310 . S
C1092 C1095 1.461 . S
C1092 H1112 0.932 . S
C1093 C1091 1.408 . S
C1093 C1092 1.310 . S
C1093 H1113 0.930 . S
C1094 C1095 1.474 . S
C1094 C1096 1.285 . S
C1094 H1114 0.929 . S
C1095 C1092 1.461 . S
C1095 C1094 1.474 . S
C1096 C1091 1.342 . S
C1096 C1094 1.285 . S
C1096 H1115 0.930 . S
C1097 C1100 1.424 . S
C1097 C1102 1.245 . S
C1097 C1103 1.428 . S
C1098 C1101 1.260 . S
C1098 C1102 1.477 . S
C1098 H1116 0.932 . S
C1099 C1100 1.384 . S
C1099 C1101 1.479 . S
C1099 H1117 0.929 . S
C1100 C1097 1.424 . S
C1100 C1099 1.384 . S
C1100 H1118 0.928 . S
C1101 C1098 1.260 . S
C1101 C1099 1.479 . S
C1102 C1097 1.245 . S
C1102 C1098 1.477 . S
C1102 H1119 0.932 . S
C1103 U1086 2.882 . S
C1103 C1097 1.428 . S
C1103 O1106 1.301 . S
C1103 O1107 1.282 . S
O1104 U1086 2.441 . S
O1104 C1090 1.249 . S
O1105 U1086 2.420 . S
O1105 C1090 1.202 . S
O1106 U1086 2.455 . S
O1106 C1103 1.301 . S
O1107 U1086 2.449 . S
O1107 C1103 1.282 . S
H1108 C1081 0.931 . S
H1109 C1083 0.929 . S
H1110 C1084 0.930 . S
H1111 C1085 0.931 . S
H1112 C1092 0.932 . S
H1113 C1093 0.930 . S
H1114 C1094 0.929 . S
H1115 C1096 0.930 . S
H1116 C1098 0.932 . S
H1117 C1099 0.929 . S
H1118 C1100 0.928 . S
H1119 C1102 0.932 . S
C1120 C1121 1.264 . S
C1120 C1125 1.479 . S
C1120 C1130 1.465 . S
C1121 C1120 1.264 . S
C1121 C1123 1.339 . S
C1121 H1148 0.931 . S
C1122 C1123 1.395 . S
C1122 C1124 1.320 . S
C1123 C1121 1.339 . S
C1123 C1122 1.395 . S
C1123 H1149 0.929 . S
C1124 C1122 1.320 . S
C1124 C1125 1.405 . S
C1124 H1150 0.930 . S
C1125 C1120 1.479 . S
C1125 C1124 1.405 . S
C1125 H1151 0.931 . S
U1126 O1127 2.454 . S
U1126 O1128 2.458 . S
U1126 C1129 2.984 . S
U1126 C1130 2.847 . S
U1126 C1143 2.882 . S
U1126 O1144 2.441 . S
U1126 O1145 2.420 . S
U1126 O1146 2.455 . S
U1126 O1147 2.449 . S
O1127 U1126 2.454 . S
O1127 C1129 1.353 . S
O1128 U1126 2.458 . S
O1128 C1129 1.286 . S
C1129 U1126 2.984 . S
C1129 O1127 1.353 . S
C1129 O1128 1.286 . S
C1129 C1131 1.363 . S
C1130 C1120 1.465 . S
C1130 U1126 2.847 . S
C1130 O1144 1.249 . S
C1130 O1145 1.202 . S
C1131 C1129 1.363 . S
C1131 C1133 1.408 . S
C1131 C1136 1.342 . S
C1132 C1133 1.310 . S
C1132 C1135 1.461 . S
C1132 H1152 0.932 . S
C1133 C1131 1.408 . S
C1133 C1132 1.310 . S
C1133 H1153 0.930 . S
C1134 C1135 1.474 . S
C1134 C1136 1.285 . S
C1134 H1154 0.929 . S
C1135 C1132 1.461 . S
C1135 C1134 1.474 . S
C1136 C1131 1.342 . S
C1136 C1134 1.285 . S
C1136 H1155 0.930 . S
C1137 C1140 1.424 . S
C1137 C1142 1.245 . S
C1137 C1143 1.428 . S
C1138 C1141 1.260 . S
C1138 C1142 1.477 . S
C1138 H1156 0.932 . S
C1139 C1140 1.384 . S
C1139 C1141 1.479 . S
C1139 H1157 0.929 . S
C1140 C1137 1.424 . S
C1140 C1139 1.384 . S
C1140 H1158 0.928 . S
C1141 C1138 1.260 . S
C1141 C1139 1.479 . S
C1142 C1137 1.245 . S
C1142 C1138 1.477 . S
C1142 H1159 0.932 . S
C1143 U1126 2.882 . S
C1143 C1137 1.428 . S
C1143 O1146 1.301 . S
C1143 O1147 1.282 . S
O1144 U1126 2.441 . S
O1144 C1130 1.249 . S
O1145 U1126 2.420 . S
O1145 C1130 1.202 . S
O1146 U1126 2.455 . S
O1146 C1143 1.301 . S
O1147 U1126 2.449 . S
O1147 C1143 1.282 . S
H1148 C1121 0.931 . S
H1149 C1123 0.929 . S
H1150 C1124 0.930 . S
H1151 C1125 0.931 . S
H1152 C1132 0.932 . S
H1153 C1133 0.930 . S
H1154 C1134 0.929 . S
H1155 C1136 0.930 . S
H1156 C1138 0.932 . S
H1157 C1139 0.929 . S
H1158 C1140 0.928 . S
H1159 C1142 0.932 . S
C1160 C1161 1.264 . S
C1160 C1165 1.479 . S
C1160 C1170 1.465 . S
C1161 C1160 1.264 . S
C1161 C1163 1.339 . S
C1161 H1188 0.931 . S
C1162 C1163 1.395 . S
C1162 C1164 1.320 . S
C1163 C1161 1.339 . S
C1163 C1162 1.395 . S
C1163 H1189 0.929 . S
C1164 C1162 1.320 . S
C1164 C1165 1.405 . S
C1164 H1190 0.930 . S
C1165 C1160 1.479 . S
C1165 C1164 1.405 . S
C1165 H1191 0.931 . S
U1166 O1167 2.454 . S
U1166 O1168 2.458 . S
U1166 C1169 2.984 . S
U1166 C1170 2.847 . S
U1166 C1183 2.882 . S
U1166 O1184 2.441 . S
U1166 O1185 2.420 . S
U1166 O1186 2.455 . S
U1166 O1187 2.449 . S
O1167 U1166 2.454 . S
O1167 C1169 1.353 . S
O1168 U1166 2.458 . S
O1168 C1169 1.286 . S
C1169 U1166 2.984 . S
C1169 O1167 1.353 . S
C1169 O1168 1.286 . S
C1169 C1171 1.363 . S
C1170 C1160 1.465 . S
C1170 U1166 2.847 . S
C1170 O1184 1.249 . S
C1170 O1185 1.202 . S
C1171 C1169 1.363 . S
C1171 C1173 1.408 . S
C1171 C1176 1.342 . S
C1172 C1173 1.310 . S
C1172 C1175 1.461 . S
C1172 H1192 0.932 . S
C1173 C1171 1.408 . S
C1173 C1172 1.310 . S
C1173 H1193 0.930 . S
C1174 C1175 1.474 . S
C1174 C1176 1.285 . S
C1174 H1194 0.929 . S
C1175 C1172 1.461 . S
C1175 C1174 1.474 . S
C1176 C1171 1.342 . S
C1176 C1174 1.285 . S
C1176 H1195 0.930 . S
C1177 C1180 1.424 . S
C1177 C1182 1.245 . S
C1177 C1183 1.428 . S
C1178 C1181 1.260 . S
C1178 C1182 1.477 . S
C1178 H1196 0.932 . S
C1179 C1180 1.384 . S
C1179 C1181 1.479 . S
C1179 H1197 0.929 . S
C1180 C1177 1.424 . S
C1180 C1179 1.384 . S
C1180 H1198 0.928 . S
C1181 C1178 1.260 . S
C1181 C1179 1.479 . S
C1182 C1177 1.245 . S
C1182 C1178 1.477 . S
C1182 H1199 0.932 . S
C1183 U1166 2.882 . S
C1183 C1177 1.428 . S
C1183 O1186 1.301 . S
C1183 O1187 1.282 . S
O1184 U1166 2.441 . S
O1184 C1170 1.249 . S
O1185 U1166 2.420 . S
O1185 C1170 1.202 . S
O1186 U1166 2.455 . S
O1186 C1183 1.301 . S
O1187 U1166 2.449 . S
O1187 C1183 1.282 . S
H1188 C1161 0.931 . S
H1189 C1163 0.929 . S
H1190 C1164 0.930 . S
H1191 C1165 0.931 . S
H1192 C1172 0.932 . S
H1193 C1173 0.930 . S
H1194 C1174 0.929 . S
H1195 C1176 0.930 . S
H1196 C1178 0.932 . S
H1197 C1179 0.929 . S
H1198 C1180 0.928 . S
H1199 C1182 0.932 . S
C1200 C1201 1.264 . S
C1200 C1205 1.479 . S
C1200 C1210 1.465 . S
C1201 C1200 1.264 . S
C1201 C1203 1.339 . S
C1201 H1228 0.931 . S
C1202 C1203 1.395 . S
C1202 C1204 1.320 . S
C1203 C1201 1.339 . S
C1203 C1202 1.395 . S
C1203 H1229 0.929 . S
C1204 C1202 1.320 . S
C1204 C1205 1.405 . S
C1204 H1230 0.930 . S
C1205 C1200 1.479 . S
C1205 C1204 1.405 . S
C1205 H1231 0.931 . S
U1206 O1207 2.454 . S
U1206 O1208 2.458 . S
U1206 C1209 2.984 . S
U1206 C1210 2.847 . S
U1206 C1223 2.882 . S
U1206 O1224 2.441 . S
U1206 O1225 2.420 . S
U1206 O1226 2.455 . S
U1206 O1227 2.449 . S
O1207 U1206 2.454 . S
O1207 C1209 1.353 . S
O1208 U1206 2.458 . S
O1208 C1209 1.286 . S
C1209 U1206 2.984 . S
C1209 O1207 1.353 . S
C1209 O1208 1.286 . S
C1209 C1211 1.363 . S
C1210 C1200 1.465 . S
C1210 U1206 2.847 . S
C1210 O1224 1.249 . S
C1210 O1225 1.202 . S
C1211 C1209 1.363 . S
C1211 C1213 1.408 . S
C1211 C1216 1.342 . S
C1212 C1213 1.310 . S
C1212 C1215 1.461 . S
C1212 H1232 0.932 . S
C1213 C1211 1.408 . S
C1213 C1212 1.310 . S
C1213 H1233 0.930 . S
C1214 C1215 1.474 . S
C1214 C1216 1.285 . S
C1214 H1234 0.929 . S
C1215 C1212 1.461 . S
C1215 C1214 1.474 . S
C1216 C1211 1.342 . S
C1216 C1214 1.285 . S
C1216 H1235 0.930 . S
C1217 C1220 1.424 . S
C1217 C1222 1.245 . S
C1217 C1223 1.428 . S
C1218 C1221 1.260 . S
C1218 C1222 1.477 . S
C1218 H1236 0.932 . S
C1219 C1220 1.384 . S
C1219 C1221 1.479 . S
C1219 H1237 0.929 . S
C1220 C1217 1.424 . S
C1220 C1219 1.384 . S
C1220 H1238 0.928 . S
C1221 C1218 1.260 . S
C1221 C1219 1.479 . S
C1222 C1217 1.245 . S
C1222 C1218 1.477 . S
C1222 H1239 0.932 . S
C1223 U1206 2.882 . S
C1223 C1217 1.428 . S
C1223 O1226 1.301 . S
C1223 O1227 1.282 . S
O1224 U1206 2.441 . S
O1224 C1210 1.249 . S
O1225 U1206 2.420 . S
O1225 C1210 1.202 . S
O1226 U1206 2.455 . S
O1226 C1223 1.301 . S
O1227 U1206 2.449 . S
O1227 C1223 1.282 . S
H1228 C1201 0.931 . S
H1229 C1203 0.929 . S
H1230 C1204 0.930 . S
H1231 C1205 0.931 . S
H1232 C1212 0.932 . S
H1233 C1213 0.930 . S
H1234 C1214 0.929 . S
H1235 C1216 0.930 . S
H1236 C1218 0.932 . S
H1237 C1219 0.929 . S
H1238 C1220 0.928 . S
H1239 C1222 0.932 . S
C1240 C1241 1.264 . S
C1240 C1245 1.479 . S
C1240 C1250 1.465 . S
C1241 C1240 1.264 . S
C1241 C1243 1.339 . S
C1241 H1268 0.931 . S
C1242 C1243 1.395 . S
C1242 C1244 1.320 . S
C1243 C1241 1.339 . S
C1243 C1242 1.395 . S
C1243 H1269 0.929 . S
C1244 C1242 1.320 . S
C1244 C1245 1.405 . S
C1244 H1270 0.930 . S
C1245 C1240 1.479 . S
C1245 C1244 1.405 . S
C1245 H1271 0.931 . S
U1246 O1247 2.454 . S
U1246 O1248 2.458 . S
U1246 C1249 2.984 . S
U1246 C1250 2.847 . S
U1246 C1263 2.882 . S
U1246 O1264 2.441 . S
U1246 O1265 2.420 . S
U1246 O1266 2.455 . S
U1246 O1267 2.449 . S
O1247 U1246 2.454 . S
O1247 C1249 1.353 . S
O1248 U1246 2.458 . S
O1248 C1249 1.286 . S
C1249 U1246 2.984 . S
C1249 O1247 1.353 . S
C1249 O1248 1.286 . S
C1249 C1251 1.363 . S
C1250 C1240 1.465 . S
C1250 U1246 2.847 . S
C1250 O1264 1.249 . S
C1250 O1265 1.202 . S
C1251 C1249 1.363 . S
C1251 C1253 1.408 . S
C1251 C1256 1.342 . S
C1252 C1253 1.310 . S
C1252 C1255 1.461 . S
C1252 H1272 0.932 . S
C1253 C1251 1.408 . S
C1253 C1252 1.310 . S
C1253 H1273 0.930 . S
C1254 C1255 1.474 . S
C1254 C1256 1.285 . S
C1254 H1274 0.929 . S
C1255 C1252 1.461 . S
C1255 C1254 1.474 . S
C1256 C1251 1.342 . S
C1256 C1254 1.285 . S
C1256 H1275 0.930 . S
C1257 C1260 1.424 . S
C1257 C1262 1.245 . S
C1257 C1263 1.428 . S
C1258 C1261 1.260 . S
C1258 C1262 1.477 . S
C1258 H1276 0.932 . S
C1259 C1260 1.384 . S
C1259 C1261 1.479 . S
C1259 H1277 0.929 . S
C1260 C1257 1.424 . S
C1260 C1259 1.384 . S
C1260 H1278 0.928 . S
C1261 C1258 1.260 . S
C1261 C1259 1.479 . S
C1262 C1257 1.245 . S
C1262 C1258 1.477 . S
C1262 H1279 0.932 . S
C1263 U1246 2.882 . S
C1263 C1257 1.428 . S
C1263 O1266 1.301 . S
C1263 O1267 1.282 . S
O1264 U1246 2.441 . S
O1264 C1250 1.249 . S
O1265 U1246 2.420 . S
O1265 C1250 1.202 . S
O1266 U1246 2.455 . S
O1266 C1263 1.301 . S
O1267 U1246 2.449 . S
O1267 C1263 1.282 . S
H1268 C1241 0.931 . S
H1269 C1243 0.929 . S
H1270 C1244 0.930 . S
H1271 C1245 0.931 . S
H1272 C1252 0.932 . S
H1273 C1253 0.930 . S
H1274 C1254 0.929 . S
H1275 C1256 0.930 . S
H1276 C1258 0.932 . S
H1277 C1259 0.929 . S
H1278 C1260 0.928 . S
H1279 C1262 0.932 . S
C1280 C1281 1.384 . S
C1280 C1282 1.384 . S
C1280 H1308 0.931 . S
C1281 C1280 1.384 . S
C1281 C1284 1.382 . S
C1282 C1280 1.384 . S
C1282 C1283 1.381 . S
C1282 H1309 0.930 . S
C1283 C1282 1.381 . S
C1283 C1285 1.381 . S
C1283 C1286 1.487 . S
C1284 C1281 1.382 . S
C1284 C1285 1.387 . S
C1284 H1310 0.930 . S
C1285 C1283 1.381 . S
C1285 C1284 1.387 . S
C1285 H1311 0.931 . S
C1286 C1283 1.487 . S
C1286 C1293 1.399 . S
C1286 N1324 1.343 . S
C1287 C1288 1.384 . S
C1287 C1289 1.384 . S
C1287 H1312 0.931 . S
C1288 C1287 1.384 . S
C1288 C1291 1.382 . S
C1289 C1287 1.384 . S
C1289 C1290 1.381 . S
C1289 H1313 0.930 . S
C1290 C1289 1.381 . S
C1290 C1292 1.381 . S
C1290 C1293 1.487 . S
C1291 C1288 1.382 . S
C1291 C1292 1.387 . S
C1291 H1314 0.930 . S
C1292 C1290 1.381 . S
C1292 C1291 1.387 . S
C1292 H1315 0.931 . S
C1293 C1286 1.399 . S
C1293 C1290 1.487 . S
C1293 N1325 1.343 . S
C1294 C1295 1.384 . S
C1294 C1296 1.384 . S
C1294 H1316 0.931 . S
C1295 C1294 1.384 . S
C1295 C1298 1.382 . S
C1296 C1294 1.384 . S
C1296 C1297 1.381 . S
C1296 H1317 0.930 . S
C1297 C1296 1.381 . S
C1297 C1299 1.381 . S
C1297 C1300 1.487 . S
C1298 C1295 1.382 . S
C1298 C1299 1.387 . S
C1298 H1318 0.930 . S
C1299 C1297 1.381 . S
C1299 C1298 1.387 . S
C1299 H1319 0.931 . S
C1300 C1297 1.487 . S
C1300 C1307 1.399 . S
C1300 N1325 1.343 1_556 S
C1301 C1302 1.384 . S
C1301 C1303 1.384 . S
C1301 H1320 0.931 . S
C1302 C1301 1.384 . S
C1302 C1305 1.382 . S
C1303 C1301 1.384 . S
C1303 C1304 1.381 . S
C1303 H1321 0.930 . S
C1304 C1303 1.381 . S
C1304 C1306 1.381 . S
C1304 C1307 1.487 . S
C1305 C1302 1.382 . S
C1305 C1306 1.387 . S
C1305 H1322 0.930 . S
C1306 C1304 1.381 . S
C1306 C1305 1.387 . S
C1306 H1323 0.931 . S
C1307 C1300 1.399 . S
C1307 C1304 1.487 . S
C1307 N1324 1.343 1_556 S
H1308 C1280 0.931 . S
H1309 C1282 0.930 . S
H1310 C1284 0.930 . S
H1311 C1285 0.931 . S
H1312 C1287 0.931 . S
H1313 C1289 0.930 . S
H1314 C1291 0.930 . S
H1315 C1292 0.931 . S
H1316 C1294 0.931 . S
H1317 C1296 0.930 . S
H1318 C1298 0.930 . S
H1319 C1299 0.931 . S
H1320 C1301 0.931 . S
H1321 C1303 0.930 . S
H1322 C1305 0.930 . S
H1323 C1306 0.931 . S
N1324 C1286 1.343 . S
N1324 C1307 1.343 1_554 S
N1325 C1293 1.343 . S
N1325 C1300 1.343 1_554 S
C1326 C1327 1.384 . S
C1326 C1328 1.384 . S
C1326 H1354 0.931 . S
C1327 C1326 1.384 . S
C1327 C1330 1.382 . S
C1328 C1326 1.384 . S
C1328 C1329 1.381 . S
C1328 H1355 0.930 . S
C1329 C1328 1.381 . S
C1329 C1331 1.381 . S
C1329 C1332 1.487 . S
C1330 C1327 1.382 . S
C1330 C1331 1.387 . S
C1330 H1356 0.930 . S
C1331 C1329 1.381 . S
C1331 C1330 1.387 . S
C1331 H1357 0.931 . S
C1332 C1329 1.487 . S
C1332 C1339 1.399 . S
C1332 N1370 1.343 1_556 S
C1333 C1334 1.384 . S
C1333 C1335 1.384 . S
C1333 H1358 0.931 . S
C1334 C1333 1.384 . S
C1334 C1337 1.382 . S
C1335 C1333 1.384 . S
C1335 C1336 1.381 . S
C1335 H1359 0.930 . S
C1336 C1335 1.381 . S
C1336 C1338 1.381 . S
C1336 C1339 1.487 . S
C1337 C1334 1.382 . S
C1337 C1338 1.387 . S
C1337 H1360 0.930 . S
C1338 C1336 1.381 . S
C1338 C1337 1.387 . S
C1338 H1361 0.931 . S
C1339 C1332 1.399 . S
C1339 C1336 1.487 . S
C1339 N1371 1.343 1_556 S
C1340 C1341 1.384 . S
C1340 C1342 1.384 . S
C1340 H1362 0.931 . S
C1341 C1340 1.384 . S
C1341 C1344 1.382 . S
C1342 C1340 1.384 . S
C1342 C1343 1.381 . S
C1342 H1363 0.930 . S
C1343 C1342 1.381 . S
C1343 C1345 1.381 . S
C1343 C1346 1.487 . S
C1344 C1341 1.382 . S
C1344 C1345 1.387 . S
C1344 H1364 0.930 . S
C1345 C1343 1.381 . S
C1345 C1344 1.387 . S
C1345 H1365 0.931 . S
C1346 C1343 1.487 . S
C1346 C1353 1.399 . S
C1346 N1371 1.343 . S
C1347 C1348 1.384 . S
C1347 C1349 1.384 . S
C1347 H1366 0.931 . S
C1348 C1347 1.384 . S
C1348 C1351 1.382 . S
C1349 C1347 1.384 . S
C1349 C1350 1.381 . S
C1349 H1367 0.930 . S
C1350 C1349 1.381 . S
C1350 C1352 1.381 . S
C1350 C1353 1.487 . S
C1351 C1348 1.382 . S
C1351 C1352 1.387 . S
C1351 H1368 0.930 . S
C1352 C1350 1.381 . S
C1352 C1351 1.387 . S
C1352 H1369 0.931 . S
C1353 C1346 1.399 . S
C1353 C1350 1.487 . S
C1353 N1370 1.343 . S
H1354 C1326 0.931 . S
H1355 C1328 0.930 . S
H1356 C1330 0.930 . S
H1357 C1331 0.931 . S
H1358 C1333 0.931 . S
H1359 C1335 0.930 . S
H1360 C1337 0.930 . S
H1361 C1338 0.931 . S
H1362 C1340 0.931 . S
H1363 C1342 0.930 . S
H1364 C1344 0.930 . S
H1365 C1345 0.931 . S
H1366 C1347 0.931 . S
H1367 C1349 0.930 . S
H1368 C1351 0.930 . S
H1369 C1352 0.931 . S
N1370 C1332 1.343 1_554 S
N1370 C1353 1.343 . S
N1371 C1339 1.343 1_554 S
N1371 C1346 1.343 . S
C1372 C1373 1.384 . S
C1372 C1374 1.384 . S
C1372 H1400 0.931 . S
C1373 C1372 1.384 . S
C1373 C1376 1.382 . S
C1374 C1372 1.384 . S
C1374 C1375 1.381 . S
C1374 H1401 0.930 . S
C1375 C1374 1.381 . S
C1375 C1377 1.381 . S
C1375 C1378 1.487 . S
C1376 C1373 1.382 . S
C1376 C1377 1.387 . S
C1376 H1402 0.930 . S
C1377 C1375 1.381 . S
C1377 C1376 1.387 . S
C1377 H1403 0.931 . S
C1378 C1375 1.487 . S
C1378 C1385 1.399 . S
C1378 N1416 1.343 . S
C1379 C1380 1.384 . S
C1379 C1381 1.384 . S
C1379 H1404 0.931 . S
C1380 C1379 1.384 . S
C1380 C1383 1.382 . S
C1381 C1379 1.384 . S
C1381 C1382 1.381 . S
C1381 H1405 0.930 . S
C1382 C1381 1.381 . S
C1382 C1384 1.381 . S
C1382 C1385 1.487 . S
C1383 C1380 1.382 . S
C1383 C1384 1.387 . S
C1383 H1406 0.930 . S
C1384 C1382 1.381 . S
C1384 C1383 1.387 . S
C1384 H1407 0.931 . S
C1385 C1378 1.399 . S
C1385 C1382 1.487 . S
C1385 N1417 1.343 . S
C1386 C1387 1.384 . S
C1386 C1388 1.384 . S
C1386 H1408 0.931 . S
C1387 C1386 1.384 . S
C1387 C1390 1.382 . S
C1388 C1386 1.384 . S
C1388 C1389 1.381 . S
C1388 H1409 0.930 . S
C1389 C1388 1.381 . S
C1389 C1391 1.381 . S
C1389 C1392 1.487 . S
C1390 C1387 1.382 . S
C1390 C1391 1.387 . S
C1390 H1410 0.930 . S
C1391 C1389 1.381 . S
C1391 C1390 1.387 . S
C1391 H1411 0.931 . S
C1392 C1389 1.487 . S
C1392 C1399 1.399 . S
C1392 N1417 1.343 1_556 S
C1393 C1394 1.384 . S
C1393 C1395 1.384 . S
C1393 H1412 0.931 . S
C1394 C1393 1.384 . S
C1394 C1397 1.382 . S
C1395 C1393 1.384 . S
C1395 C1396 1.381 . S
C1395 H1413 0.930 . S
C1396 C1395 1.381 . S
C1396 C1398 1.381 . S
C1396 C1399 1.487 . S
C1397 C1394 1.382 . S
C1397 C1398 1.387 . S
C1397 H1414 0.930 . S
C1398 C1396 1.381 . S
C1398 C1397 1.387 . S
C1398 H1415 0.931 . S
C1399 C1392 1.399 . S
C1399 C1396 1.487 . S
C1399 N1416 1.343 1_556 S
H1400 C1372 0.931 . S
H1401 C1374 0.930 . S
H1402 C1376 0.930 . S
H1403 C1377 0.931 . S
H1404 C1379 0.931 . S
H1405 C1381 0.930 . S
H1406 C1383 0.930 . S
H1407 C1384 0.931 . S
H1408 C1386 0.931 . S
H1409 C1388 0.930 . S
H1410 C1390 0.930 . S
H1411 C1391 0.931 . S
H1412 C1393 0.931 . S
H1413 C1395 0.930 . S
H1414 C1397 0.930 . S
H1415 C1398 0.931 . S
N1416 C1378 1.343 . S
N1416 C1399 1.343 1_554 S
N1417 C1385 1.343 . S
N1417 C1392 1.343 1_554 S
C1418 C1419 1.384 . S
C1418 C1420 1.384 . S
C1418 H1446 0.931 . S
C1419 C1418 1.384 . S
C1419 C1422 1.382 . S
C1420 C1418 1.384 . S
C1420 C1421 1.381 . S
C1420 H1447 0.930 . S
C1421 C1420 1.381 . S
C1421 C1423 1.381 . S
C1421 C1424 1.487 . S
C1422 C1419 1.382 . S
C1422 C1423 1.387 . S
C1422 H1448 0.930 . S
C1423 C1421 1.381 . S
C1423 C1422 1.387 . S
C1423 H1449 0.931 . S
C1424 C1421 1.487 . S
C1424 C1431 1.399 . S
C1424 N1462 1.343 1_556 S
C1425 C1426 1.384 . S
C1425 C1427 1.384 . S
C1425 H1450 0.931 . S
C1426 C1425 1.384 . S
C1426 C1429 1.382 . S
C1427 C1425 1.384 . S
C1427 C1428 1.381 . S
C1427 H1451 0.930 . S
C1428 C1427 1.381 . S
C1428 C1430 1.381 . S
C1428 C1431 1.487 . S
C1429 C1426 1.382 . S
C1429 C1430 1.387 . S
C1429 H1452 0.930 . S
C1430 C1428 1.381 . S
C1430 C1429 1.387 . S
C1430 H1453 0.931 . S
C1431 C1424 1.399 . S
C1431 C1428 1.487 . S
C1431 N1463 1.343 1_556 S
C1432 C1433 1.384 . S
C1432 C1434 1.384 . S
C1432 H1454 0.931 . S
C1433 C1432 1.384 . S
C1433 C1436 1.382 . S
C1434 C1432 1.384 . S
C1434 C1435 1.381 . S
C1434 H1455 0.930 . S
C1435 C1434 1.381 . S
C1435 C1437 1.381 . S
C1435 C1438 1.487 . S
C1436 C1433 1.382 . S
C1436 C1437 1.387 . S
C1436 H1456 0.930 . S
C1437 C1435 1.381 . S
C1437 C1436 1.387 . S
C1437 H1457 0.931 . S
C1438 C1435 1.487 . S
C1438 C1445 1.399 . S
C1438 N1463 1.343 . S
C1439 C1440 1.384 . S
C1439 C1441 1.384 . S
C1439 H1458 0.931 . S
C1440 C1439 1.384 . S
C1440 C1443 1.382 . S
C1441 C1439 1.384 . S
C1441 C1442 1.381 . S
C1441 H1459 0.930 . S
C1442 C1441 1.381 . S
C1442 C1444 1.381 . S
C1442 C1445 1.487 . S
C1443 C1440 1.382 . S
C1443 C1444 1.387 . S
C1443 H1460 0.930 . S
C1444 C1442 1.381 . S
C1444 C1443 1.387 . S
C1444 H1461 0.931 . S
C1445 C1438 1.399 . S
C1445 C1442 1.487 . S
C1445 N1462 1.343 . S
H1446 C1418 0.931 . S
H1447 C1420 0.930 . S
H1448 C1422 0.930 . S
H1449 C1423 0.931 . S
H1450 C1425 0.931 . S
H1451 C1427 0.930 . S
H1452 C1429 0.930 . S
H1453 C1430 0.931 . S
H1454 C1432 0.931 . S
H1455 C1434 0.930 . S
H1456 C1436 0.930 . S
H1457 C1437 0.931 . S
H1458 C1439 0.931 . S
H1459 C1441 0.930 . S
H1460 C1443 0.930 . S
H1461 C1444 0.931 . S
N1462 C1424 1.343 1_554 S
N1462 C1445 1.343 . S
N1463 C1431 1.343 1_554 S
N1463 C1438 1.343 . S
C1464 C1465 1.384 . S
C1464 C1466 1.384 . S
C1464 H1492 0.931 . S
C1465 C1464 1.384 . S
C1465 C1468 1.382 . S
C1466 C1464 1.384 . S
C1466 C1467 1.381 . S
C1466 H1493 0.930 . S
C1467 C1466 1.381 . S
C1467 C1469 1.381 . S
C1467 C1470 1.487 . S
C1468 C1465 1.382 . S
C1468 C1469 1.387 . S
C1468 H1494 0.930 . S
C1469 C1467 1.381 . S
C1469 C1468 1.387 . S
C1469 H1495 0.931 . S
C1470 C1467 1.487 . S
C1470 C1477 1.399 . S
C1470 N1508 1.343 1_655 S
C1471 C1472 1.384 . S
C1471 C1473 1.384 . S
C1471 H1496 0.931 . S
C1472 C1471 1.384 . S
C1472 C1475 1.382 . S
C1473 C1471 1.384 . S
C1473 C1474 1.381 . S
C1473 H1497 0.930 . S
C1474 C1473 1.381 . S
C1474 C1476 1.381 . S
C1474 C1477 1.487 . S
C1475 C1472 1.382 . S
C1475 C1476 1.387 . S
C1475 H1498 0.930 . S
C1476 C1474 1.381 . S
C1476 C1475 1.387 . S
C1476 H1499 0.931 . S
C1477 C1470 1.399 . S
C1477 C1474 1.487 . S
C1477 N1509 1.343 1_655 S
C1478 C1479 1.384 . S
C1478 C1480 1.384 . S
C1478 H1500 0.931 . S
C1479 C1478 1.384 . S
C1479 C1482 1.382 . S
C1480 C1478 1.384 . S
C1480 C1481 1.381 . S
C1480 H1501 0.930 . S
C1481 C1480 1.381 . S
C1481 C1483 1.381 . S
C1481 C1484 1.487 . S
C1482 C1479 1.382 . S
C1482 C1483 1.387 . S
C1482 H1502 0.930 . S
C1483 C1481 1.381 . S
C1483 C1482 1.387 . S
C1483 H1503 0.931 . S
C1484 C1481 1.487 . S
C1484 C1491 1.399 . S
C1484 N1509 1.343 . S
C1485 C1486 1.384 . S
C1485 C1487 1.384 . S
C1485 H1504 0.931 . S
C1486 C1485 1.384 . S
C1486 C1489 1.382 . S
C1487 C1485 1.384 . S
C1487 C1488 1.381 . S
C1487 H1505 0.930 . S
C1488 C1487 1.381 . S
C1488 C1490 1.381 . S
C1488 C1491 1.487 . S
C1489 C1486 1.382 . S
C1489 C1490 1.387 . S
C1489 H1506 0.930 . S
C1490 C1488 1.381 . S
C1490 C1489 1.387 . S
C1490 H1507 0.931 . S
C1491 C1484 1.399 . S
C1491 C1488 1.487 . S
C1491 N1508 1.343 . S
H1492 C1464 0.931 . S
H1493 C1466 0.930 . S
H1494 C1468 0.930 . S
H1495 C1469 0.931 . S
H1496 C1471 0.931 . S
H1497 C1473 0.930 . S
H1498 C1475 0.930 . S
H1499 C1476 0.931 . S
H1500 C1478 0.931 . S
H1501 C1480 0.930 . S
H1502 C1482 0.930 . S
H1503 C1483 0.931 . S
H1504 C1485 0.931 . S
H1505 C1487 0.930 . S
H1506 C1489 0.930 . S
H1507 C1490 0.931 . S
N1508 C1470 1.343 1_455 S
N1508 C1491 1.343 . S
N1509 C1477 1.343 1_455 S
N1509 C1484 1.343 . S
C1510 C1511 1.384 . S
C1510 C1512 1.384 . S
C1510 H1538 0.931 . S
C1511 C1510 1.384 . S
C1511 C1514 1.382 . S
C1512 C1510 1.384 . S
C1512 C1513 1.381 . S
C1512 H1539 0.930 . S
C1513 C1512 1.381 . S
C1513 C1515 1.381 . S
C1513 C1516 1.487 . S
C1514 C1511 1.382 . S
C1514 C1515 1.387 . S
C1514 H1540 0.930 . S
C1515 C1513 1.381 . S
C1515 C1514 1.387 . S
C1515 H1541 0.931 . S
C1516 C1513 1.487 . S
C1516 C1523 1.399 . S
C1516 N1554 1.305 1_565 S
C1517 C1518 1.384 . S
C1517 C1519 1.384 . S
C1517 H1542 0.931 . S
C1518 C1517 1.384 . S
C1518 C1521 1.382 . S
C1519 C1517 1.384 . S
C1519 C1520 1.381 . S
C1519 H1543 0.930 . S
C1520 C1519 1.381 . S
C1520 C1522 1.381 . S
C1520 C1523 1.487 . S
C1521 C1518 1.382 . S
C1521 C1522 1.387 . S
C1521 H1544 0.930 . S
C1522 C1520 1.381 . S
C1522 C1521 1.387 . S
C1522 H1545 0.931 . S
C1523 C1516 1.399 . S
C1523 C1520 1.487 . S
C1523 N1555 1.343 1_565 S
C1524 C1525 1.384 . S
C1524 C1526 1.384 . S
C1524 H1546 0.931 . S
C1525 C1524 1.384 . S
C1525 C1528 1.382 . S
C1526 C1524 1.384 . S
C1526 C1527 1.381 . S
C1526 H1547 0.930 . S
C1527 C1526 1.381 . S
C1527 C1529 1.381 . S
C1527 C1530 1.487 . S
C1528 C1525 1.382 . S
C1528 C1529 1.387 . S
C1528 H1548 0.930 . S
C1529 C1527 1.381 . S
C1529 C1528 1.387 . S
C1529 H1549 0.931 . S
C1530 C1527 1.487 . S
C1530 C1537 1.399 . S
C1530 N1555 1.343 . S
C1531 C1532 1.384 . S
C1531 C1533 1.384 . S
C1531 H1550 0.931 . S
C1532 C1531 1.384 . S
C1532 C1535 1.382 . S
C1533 C1531 1.384 . S
C1533 C1534 1.381 . S
C1533 H1551 0.930 . S
C1534 C1533 1.381 . S
C1534 C1536 1.381 . S
C1534 C1537 1.487 . S
C1535 C1532 1.382 . S
C1535 C1536 1.387 . S
C1535 H1552 0.930 . S
C1536 C1534 1.381 . S
C1536 C1535 1.387 . S
C1536 H1553 0.931 . S
C1537 C1530 1.399 . S
C1537 C1534 1.487 . S
C1537 N1554 1.382 . S
H1538 C1510 0.931 . S
H1539 C1512 0.930 . S
H1540 C1514 0.930 . S
H1541 C1515 0.931 . S
H1542 C1517 0.931 . S
H1543 C1519 0.930 . S
H1544 C1521 0.930 . S
H1545 C1522 0.931 . S
H1546 C1524 0.931 . S
H1547 C1526 0.930 . S
H1548 C1528 0.930 . S
H1549 C1529 0.931 . S
H1550 C1531 0.931 . S
H1551 C1533 0.930 . S
H1552 C1535 0.930 . S
H1553 C1536 0.931 . S
N1554 C1516 1.305 1_545 S
N1554 C1537 1.382 . S
N1555 C1523 1.343 1_545 S
N1555 C1530 1.343 . S
C1556 C1557 1.384 . S
C1556 C1558 1.384 . S
C1556 H1584 0.931 . S
C1557 C1556 1.384 . S
C1557 C1560 1.382 . S
C1558 C1556 1.384 . S
C1558 C1559 1.381 . S
C1558 H1585 0.930 . S
C1559 C1558 1.381 . S
C1559 C1561 1.381 . S
C1559 C1562 1.487 . S
C1560 C1557 1.382 . S
C1560 C1561 1.387 . S
C1560 H1586 0.930 . S
C1561 C1559 1.381 . S
C1561 C1560 1.387 . S
C1561 H1587 0.931 . S
C1562 C1559 1.487 . S
C1562 C1569 1.399 . S
C1562 N1600 1.343 . S
C1563 C1564 1.384 . S
C1563 C1565 1.384 . S
C1563 H1588 0.931 . S
C1564 C1563 1.384 . S
C1564 C1567 1.382 . S
C1565 C1563 1.384 . S
C1565 C1566 1.381 . S
C1565 H1589 0.930 . S
C1566 C1565 1.381 . S
C1566 C1568 1.381 . S
C1566 C1569 1.487 . S
C1567 C1564 1.382 . S
C1567 C1568 1.387 . S
C1567 H1590 0.930 . S
C1568 C1566 1.381 . S
C1568 C1567 1.387 . S
C1568 H1591 0.931 . S
C1569 C1562 1.399 . S
C1569 C1566 1.487 . S
C1569 N1601 1.403 . S
C1570 C1571 1.384 . S
C1570 C1572 1.384 . S
C1570 H1592 0.931 . S
C1571 C1570 1.384 . S
C1571 C1574 1.382 . S
C1572 C1570 1.384 . S
C1572 C1573 1.381 . S
C1572 H1593 0.930 . S
C1573 C1572 1.381 . S
C1573 C1575 1.381 . S
C1573 C1576 1.487 . S
C1574 C1571 1.382 . S
C1574 C1575 1.387 . S
C1574 H1594 0.930 . S
C1575 C1573 1.381 . S
C1575 C1574 1.387 . S
C1575 H1595 0.931 . S
C1576 C1573 1.487 . S
C1576 C1583 1.399 . S
C1576 N1601 1.284 1_655 S
C1577 C1578 1.384 . S
C1577 C1579 1.384 . S
C1577 H1596 0.931 . S
C1578 C1577 1.384 . S
C1578 C1581 1.382 . S
C1579 C1577 1.384 . S
C1579 C1580 1.381 . S
C1579 H1597 0.930 . S
C1580 C1579 1.381 . S
C1580 C1582 1.381 . S
C1580 C1583 1.487 . S
C1581 C1578 1.382 . S
C1581 C1582 1.387 . S
C1581 H1598 0.930 . S
C1582 C1580 1.381 . S
C1582 C1581 1.387 . S
C1582 H1599 0.931 . S
C1583 C1576 1.399 . S
C1583 C1580 1.487 . S
C1583 N1600 1.343 1_655 S
H1584 C1556 0.931 . S
H1585 C1558 0.930 . S
H1586 C1560 0.930 . S
H1587 C1561 0.931 . S
H1588 C1563 0.931 . S
H1589 C1565 0.930 . S
H1590 C1567 0.930 . S
H1591 C1568 0.931 . S
H1592 C1570 0.931 . S
H1593 C1572 0.930 . S
H1594 C1574 0.930 . S
H1595 C1575 0.931 . S
H1596 C1577 0.931 . S
H1597 C1579 0.930 . S
H1598 C1581 0.930 . S
H1599 C1582 0.931 . S
N1600 C1562 1.343 . S
N1600 C1583 1.343 1_455 S
N1601 C1569 1.403 . S
N1601 C1576 1.284 1_455 S
C1602 C1603 1.384 . S
C1602 C1604 1.384 . S
C1602 H1630 0.931 . S
C1603 C1602 1.384 . S
C1603 C1606 1.382 . S
C1604 C1602 1.384 . S
C1604 C1605 1.381 . S
C1604 H1631 0.930 . S
C1605 C1604 1.381 . S
C1605 C1607 1.381 . S
C1605 C1608 1.487 . S
C1606 C1603 1.382 . S
C1606 C1607 1.387 . S
C1606 H1632 0.930 . S
C1607 C1605 1.381 . S
C1607 C1606 1.387 . S
C1607 H1633 0.931 . S
C1608 C1605 1.487 . S
C1608 C1615 1.399 . S
C1608 N1646 1.343 1_565 S
C1609 C1610 1.384 . S
C1609 C1611 1.384 . S
C1609 H1634 0.931 . S
C1610 C1609 1.384 . S
C1610 C1613 1.382 . S
C1611 C1609 1.384 . S
C1611 C1612 1.381 . S
C1611 H1635 0.930 . S
C1612 C1611 1.381 . S
C1612 C1614 1.381 . S
C1612 C1615 1.487 . S
C1613 C1610 1.382 . S
C1613 C1614 1.387 . S
C1613 H1636 0.930 . S
C1614 C1612 1.381 . S
C1614 C1613 1.387 . S
C1614 H1637 0.931 . S
C1615 C1608 1.399 . S
C1615 C1612 1.487 . S
C1615 N1647 1.343 1_565 S
C1616 C1617 1.384 . S
C1616 C1618 1.384 . S
C1616 H1638 0.931 . S
C1617 C1616 1.384 . S
C1617 C1620 1.382 . S
C1618 C1616 1.384 . S
C1618 C1619 1.381 . S
C1618 H1639 0.930 . S
C1619 C1618 1.381 . S
C1619 C1621 1.381 . S
C1619 C1622 1.487 . S
C1620 C1617 1.382 . S
C1620 C1621 1.387 . S
C1620 H1640 0.930 . S
C1621 C1619 1.381 . S
C1621 C1620 1.387 . S
C1621 H1641 0.931 . S
C1622 C1619 1.487 . S
C1622 C1629 1.399 . S
C1622 N1647 1.343 . S
C1623 C1624 1.384 . S
C1623 C1625 1.384 . S
C1623 H1642 0.931 . S
C1624 C1623 1.384 . S
C1624 C1627 1.382 . S
C1625 C1623 1.384 . S
C1625 C1626 1.381 . S
C1625 H1643 0.930 . S
C1626 C1625 1.381 . S
C1626 C1628 1.381 . S
C1626 C1629 1.487 . S
C1627 C1624 1.382 . S
C1627 C1628 1.387 . S
C1627 H1644 0.930 . S
C1628 C1626 1.381 . S
C1628 C1627 1.387 . S
C1628 H1645 0.931 . S
C1629 C1622 1.399 . S
C1629 C1626 1.487 . S
C1629 N1646 1.343 . S
H1630 C1602 0.931 . S
H1631 C1604 0.930 . S
H1632 C1606 0.930 . S
H1633 C1607 0.931 . S
H1634 C1609 0.931 . S
H1635 C1611 0.930 . S
H1636 C1613 0.930 . S
H1637 C1614 0.931 . S
H1638 C1616 0.931 . S
H1639 C1618 0.930 . S
H1640 C1620 0.930 . S
H1641 C1621 0.931 . S
H1642 C1623 0.931 . S
H1643 C1625 0.930 . S
H1644 C1627 0.930 . S
H1645 C1628 0.931 . S
N1646 C1608 1.343 1_545 S
N1646 C1629 1.343 . S
N1647 C1615 1.343 1_545 S
N1647 C1622 1.343 . S
C1648 C1649 1.384 . S
C1648 C1650 1.384 . S
C1648 H1676 0.931 . S
C1649 C1648 1.384 . S
C1649 C1652 1.382 . S
C1650 C1648 1.384 . S
C1650 C1651 1.381 . S
C1650 H1677 0.930 . S
C1651 C1650 1.381 . S
C1651 C1653 1.381 . S
C1651 C1654 1.487 . S
C1652 C1649 1.382 . S
C1652 C1653 1.387 . S
C1652 H1678 0.930 . S
C1653 C1651 1.381 . S
C1653 C1652 1.387 . S
C1653 H1679 0.931 . S
C1654 C1651 1.487 . S
C1654 C1661 1.399 . S
C1654 N1692 1.343 1_655 S
C1655 C1656 1.384 . S
C1655 C1657 1.384 . S
C1655 H1680 0.931 . S
C1656 C1655 1.384 . S
C1656 C1659 1.382 . S
C1657 C1655 1.384 . S
C1657 C1658 1.381 . S
C1657 H1681 0.930 . S
C1658 C1657 1.381 . S
C1658 C1660 1.381 . S
C1658 C1661 1.487 . S
C1659 C1656 1.382 . S
C1659 C1660 1.387 . S
C1659 H1682 0.930 . S
C1660 C1658 1.381 . S
C1660 C1659 1.387 . S
C1660 H1683 0.931 . S
C1661 C1654 1.399 . S
C1661 C1658 1.487 . S
C1661 N1693 1.343 1_655 S
C1662 C1663 1.384 . S
C1662 C1664 1.384 . S
C1662 H1684 0.931 . S
C1663 C1662 1.384 . S
C1663 C1666 1.382 . S
C1664 C1662 1.384 . S
C1664 C1665 1.381 . S
C1664 H1685 0.930 . S
C1665 C1664 1.381 . S
C1665 C1667 1.381 . S
C1665 C1668 1.487 . S
C1666 C1663 1.382 . S
C1666 C1667 1.387 . S
C1666 H1686 0.930 . S
C1667 C1665 1.381 . S
C1667 C1666 1.387 . S
C1667 H1687 0.931 . S
C1668 C1665 1.487 . S
C1668 C1675 1.399 . S
C1668 N1693 1.343 . S
C1669 C1670 1.384 . S
C1669 C1671 1.384 . S
C1669 H1688 0.931 . S
C1670 C1669 1.384 . S
C1670 C1673 1.382 . S
C1671 C1669 1.384 . S
C1671 C1672 1.381 . S
C1671 H1689 0.930 . S
C1672 C1671 1.381 . S
C1672 C1674 1.381 . S
C1672 C1675 1.487 . S
C1673 C1670 1.382 . S
C1673 C1674 1.387 . S
C1673 H1690 0.930 . S
C1674 C1672 1.381 . S
C1674 C1673 1.387 . S
C1674 H1691 0.931 . S
C1675 C1668 1.399 . S
C1675 C1672 1.487 . S
C1675 N1692 1.343 . S
H1676 C1648 0.931 . S
H1677 C1650 0.930 . S
H1678 C1652 0.930 . S
H1679 C1653 0.931 . S
H1680 C1655 0.931 . S
H1681 C1657 0.930 . S
H1682 C1659 0.930 . S
H1683 C1660 0.931 . S
H1684 C1662 0.931 . S
H1685 C1664 0.930 . S
H1686 C1666 0.930 . S
H1687 C1667 0.931 . S
H1688 C1669 0.931 . S
H1689 C1671 0.930 . S
H1690 C1673 0.930 . S
H1691 C1674 0.931 . S
N1692 C1654 1.343 1_455 S
N1692 C1675 1.343 . S
N1693 C1661 1.343 1_455 S
N1693 C1668 1.343 . S
C1694 C1695 1.384 . S
C1694 C1696 1.384 . S
C1694 H1722 0.931 . S
C1695 C1694 1.384 . S
C1695 C1698 1.382 . S
C1696 C1694 1.384 . S
C1696 C1697 1.381 . S
C1696 H1723 0.930 . S
C1697 C1696 1.381 . S
C1697 C1699 1.381 . S
C1697 C1700 1.487 . S
C1698 C1695 1.382 . S
C1698 C1699 1.387 . S
C1698 H1724 0.930 . S
C1699 C1697 1.381 . S
C1699 C1698 1.387 . S
C1699 H1725 0.931 . S
C1700 C1697 1.487 . S
C1700 C1707 1.399 . S
C1700 N1738 1.304 1_565 S
C1701 C1702 1.384 . S
C1701 C1703 1.384 . S
C1701 H1726 0.931 . S
C1702 C1701 1.384 . S
C1702 C1705 1.382 . S
C1703 C1701 1.384 . S
C1703 C1704 1.381 . S
C1703 H1727 0.930 . S
C1704 C1703 1.381 . S
C1704 C1706 1.381 . S
C1704 C1707 1.487 . S
C1705 C1702 1.382 . S
C1705 C1706 1.387 . S
C1705 H1728 0.930 . S
C1706 C1704 1.381 . S
C1706 C1705 1.387 . S
C1706 H1729 0.931 . S
C1707 C1700 1.399 . S
C1707 C1704 1.487 . S
C1707 N1739 1.343 1_565 S
C1708 C1709 1.384 . S
C1708 C1710 1.384 . S
C1708 H1730 0.931 . S
C1709 C1708 1.384 . S
C1709 C1712 1.382 . S
C1710 C1708 1.384 . S
C1710 C1711 1.381 . S
C1710 H1731 0.930 . S
C1711 C1710 1.381 . S
C1711 C1713 1.381 . S
C1711 C1714 1.487 . S
C1712 C1709 1.382 . S
C1712 C1713 1.387 . S
C1712 H1732 0.930 . S
C1713 C1711 1.381 . S
C1713 C1712 1.387 . S
C1713 H1733 0.931 . S
C1714 C1711 1.487 . S
C1714 C1721 1.399 . S
C1714 N1739 1.343 . S
C1715 C1716 1.384 . S
C1715 C1717 1.384 . S
C1715 H1734 0.931 . S
C1716 C1715 1.384 . S
C1716 C1719 1.382 . S
C1717 C1715 1.384 . S
C1717 C1718 1.381 . S
C1717 H1735 0.930 . S
C1718 C1717 1.381 . S
C1718 C1720 1.381 . S
C1718 C1721 1.487 . S
C1719 C1716 1.382 . S
C1719 C1720 1.387 . S
C1719 H1736 0.930 . S
C1720 C1718 1.381 . S
C1720 C1719 1.387 . S
C1720 H1737 0.931 . S
C1721 C1714 1.399 . S
C1721 C1718 1.487 . S
C1721 N1738 1.382 . S
H1722 C1694 0.931 . S
H1723 C1696 0.930 . S
H1724 C1698 0.930 . S
H1725 C1699 0.931 . S
H1726 C1701 0.931 . S
H1727 C1703 0.930 . S
H1728 C1705 0.930 . S
H1729 C1706 0.931 . S
H1730 C1708 0.931 . S
H1731 C1710 0.930 . S
H1732 C1712 0.930 . S
H1733 C1713 0.931 . S
H1734 C1715 0.931 . S
H1735 C1717 0.930 . S
H1736 C1719 0.930 . S
H1737 C1720 0.931 . S
N1738 C1700 1.304 1_545 S
N1738 C1721 1.382 . S
N1739 C1707 1.343 1_545 S
N1739 C1714 1.343 . S
C1740 C1741 1.384 . S
C1740 C1742 1.384 . S
C1740 H1768 0.931 . S
C1741 C1740 1.384 . S
C1741 C1744 1.382 . S
C1742 C1740 1.384 . S
C1742 C1743 1.381 . S
C1742 H1769 0.930 . S
C1743 C1742 1.381 . S
C1743 C1745 1.381 . S
C1743 C1746 1.487 . S
C1744 C1741 1.382 . S
C1744 C1745 1.387 . S
C1744 H1770 0.930 . S
C1745 C1743 1.381 . S
C1745 C1744 1.387 . S
C1745 H1771 0.931 . S
C1746 C1743 1.487 . S
C1746 C1753 1.399 . S
C1746 N1784 1.343 . S
C1747 C1748 1.384 . S
C1747 C1749 1.384 . S
C1747 H1772 0.931 . S
C1748 C1747 1.384 . S
C1748 C1751 1.382 . S
C1749 C1747 1.384 . S
C1749 C1750 1.381 . S
C1749 H1773 0.930 . S
C1750 C1749 1.381 . S
C1750 C1752 1.381 . S
C1750 C1753 1.487 . S
C1751 C1748 1.382 . S
C1751 C1752 1.387 . S
C1751 H1774 0.930 . S
C1752 C1750 1.381 . S
C1752 C1751 1.387 . S
C1752 H1775 0.931 . S
C1753 C1746 1.399 . S
C1753 C1750 1.487 . S
C1753 N1785 1.404 . S
C1754 C1755 1.384 . S
C1754 C1756 1.384 . S
C1754 H1776 0.931 . S
C1755 C1754 1.384 . S
C1755 C1758 1.382 . S
C1756 C1754 1.384 . S
C1756 C1757 1.381 . S
C1756 H1777 0.930 . S
C1757 C1756 1.381 . S
C1757 C1759 1.381 . S
C1757 C1760 1.487 . S
C1758 C1755 1.382 . S
C1758 C1759 1.387 . S
C1758 H1778 0.930 . S
C1759 C1757 1.381 . S
C1759 C1758 1.387 . S
C1759 H1779 0.931 . S
C1760 C1757 1.487 . S
C1760 C1767 1.399 . S
C1760 N1785 1.283 1_655 S
C1761 C1762 1.384 . S
C1761 C1763 1.384 . S
C1761 H1780 0.931 . S
C1762 C1761 1.384 . S
C1762 C1765 1.382 . S
C1763 C1761 1.384 . S
C1763 C1764 1.381 . S
C1763 H1781 0.930 . S
C1764 C1763 1.381 . S
C1764 C1766 1.381 . S
C1764 C1767 1.487 . S
C1765 C1762 1.382 . S
C1765 C1766 1.387 . S
C1765 H1782 0.930 . S
C1766 C1764 1.381 . S
C1766 C1765 1.387 . S
C1766 H1783 0.931 . S
C1767 C1760 1.399 . S
C1767 C1764 1.487 . S
C1767 N1784 1.343 1_655 S
H1768 C1740 0.931 . S
H1769 C1742 0.930 . S
H1770 C1744 0.930 . S
H1771 C1745 0.931 . S
H1772 C1747 0.931 . S
H1773 C1749 0.930 . S
H1774 C1751 0.930 . S
H1775 C1752 0.931 . S
H1776 C1754 0.931 . S
H1777 C1756 0.930 . S
H1778 C1758 0.930 . S
H1779 C1759 0.931 . S
H1780 C1761 0.931 . S
H1781 C1763 0.930 . S
H1782 C1765 0.930 . S
H1783 C1766 0.931 . S
N1784 C1746 1.343 . S
N1784 C1767 1.343 1_455 S
N1785 C1753 1.404 . S
N1785 C1760 1.283 1_455 S
C1786 C1787 1.384 . S
C1786 C1788 1.384 . S
C1786 H1814 0.931 . S
C1787 C1786 1.384 . S
C1787 C1790 1.382 . S
C1788 C1786 1.384 . S
C1788 C1789 1.381 . S
C1788 H1815 0.930 . S
C1789 C1788 1.381 . S
C1789 C1791 1.381 . S
C1789 C1792 1.487 . S
C1790 C1787 1.382 . S
C1790 C1791 1.387 . S
C1790 H1816 0.930 . S
C1791 C1789 1.381 . S
C1791 C1790 1.387 . S
C1791 H1817 0.931 . S
C1792 C1789 1.487 . S
C1792 C1799 1.399 . S
C1792 N1830 1.343 1_565 S
C1793 C1794 1.384 . S
C1793 C1795 1.384 . S
C1793 H1818 0.931 . S
C1794 C1793 1.384 . S
C1794 C1797 1.382 . S
C1795 C1793 1.384 . S
C1795 C1796 1.381 . S
C1795 H1819 0.930 . S
C1796 C1795 1.381 . S
C1796 C1798 1.381 . S
C1796 C1799 1.487 . S
C1797 C1794 1.382 . S
C1797 C1798 1.387 . S
C1797 H1820 0.930 . S
C1798 C1796 1.381 . S
C1798 C1797 1.387 . S
C1798 H1821 0.931 . S
C1799 C1792 1.399 . S
C1799 C1796 1.487 . S
C1799 N1831 1.343 1_565 S
C1800 C1801 1.384 . S
C1800 C1802 1.384 . S
C1800 H1822 0.931 . S
C1801 C1800 1.384 . S
C1801 C1804 1.382 . S
C1802 C1800 1.384 . S
C1802 C1803 1.381 . S
C1802 H1823 0.930 . S
C1803 C1802 1.381 . S
C1803 C1805 1.381 . S
C1803 C1806 1.487 . S
C1804 C1801 1.382 . S
C1804 C1805 1.387 . S
C1804 H1824 0.930 . S
C1805 C1803 1.381 . S
C1805 C1804 1.387 . S
C1805 H1825 0.931 . S
C1806 C1803 1.487 . S
C1806 C1813 1.399 . S
C1806 N1831 1.343 . S
C1807 C1808 1.384 . S
C1807 C1809 1.384 . S
C1807 H1826 0.931 . S
C1808 C1807 1.384 . S
C1808 C1811 1.382 . S
C1809 C1807 1.384 . S
C1809 C1810 1.381 . S
C1809 H1827 0.930 . S
C1810 C1809 1.381 . S
C1810 C1812 1.381 . S
C1810 C1813 1.487 . S
C1811 C1808 1.382 . S
C1811 C1812 1.387 . S
C1811 H1828 0.930 . S
C1812 C1810 1.381 . S
C1812 C1811 1.387 . S
C1812 H1829 0.931 . S
C1813 C1806 1.399 . S
C1813 C1810 1.487 . S
C1813 N1830 1.343 . S
H1814 C1786 0.931 . S
H1815 C1788 0.930 . S
H1816 C1790 0.930 . S
H1817 C1791 0.931 . S
H1818 C1793 0.931 . S
H1819 C1795 0.930 . S
H1820 C1797 0.930 . S
H1821 C1798 0.931 . S
H1822 C1800 0.931 . S
H1823 C1802 0.930 . S
H1824 C1804 0.930 . S
H1825 C1805 0.931 . S
H1826 C1807 0.931 . S
H1827 C1809 0.930 . S
H1828 C1811 0.930 . S
H1829 C1812 0.931 . S
N1830 C1792 1.343 1_545 S
N1830 C1813 1.343 . S
N1831 C1799 1.343 1_545 S
N1831 C1806 1.343 . S
C1832 C1833 1.384 . S
C1832 C1834 1.384 . S
C1832 H1860 0.931 . S
C1833 C1832 1.384 . S
C1833 C1836 1.382 . S
C1834 C1832 1.384 . S
C1834 C1835 1.381 . S
C1834 H1861 0.930 . S
C1835 C1834 1.381 . S
C1835 C1837 1.381 . S
C1835 C1838 1.487 . S
C1836 C1833 1.382 . S
C1836 C1837 1.387 . S
C1836 H1862 0.930 . S
C1837 C1835 1.381 . S
C1837 C1836 1.387 . S
C1837 H1863 0.931 . S
C1838 C1835 1.487 . S
C1838 C1845 1.399 . S
C1838 N1876 1.343 . S
C1839 C1840 1.384 . S
C1839 C1841 1.384 . S
C1839 H1864 0.931 . S
C1840 C1839 1.384 . S
C1840 C1843 1.382 . S
C1841 C1839 1.384 . S
C1841 C1842 1.381 . S
C1841 H1865 0.930 . S
C1842 C1841 1.381 . S
C1842 C1844 1.381 . S
C1842 C1845 1.487 . S
C1843 C1840 1.382 . S
C1843 C1844 1.387 . S
C1843 H1866 0.930 . S
C1844 C1842 1.381 . S
C1844 C1843 1.387 . S
C1844 H1867 0.931 . S
C1845 C1838 1.399 . S
C1845 C1842 1.487 . S
C1845 N1877 1.343 . S
C1846 C1847 1.384 . S
C1846 C1848 1.384 . S
C1846 H1868 0.931 . S
C1847 C1846 1.384 . S
C1847 C1850 1.382 . S
C1848 C1846 1.384 . S
C1848 C1849 1.381 . S
C1848 H1869 0.930 . S
C1849 C1848 1.381 . S
C1849 C1851 1.381 . S
C1849 C1852 1.487 . S
C1850 C1847 1.382 . S
C1850 C1851 1.387 . S
C1850 H1870 0.930 . S
C1851 C1849 1.381 . S
C1851 C1850 1.387 . S
C1851 H1871 0.931 . S
C1852 C1849 1.487 . S
C1852 C1859 1.399 . S
C1852 N1877 1.343 . S
C1853 C1854 1.384 . S
C1853 C1855 1.384 . S
C1853 H1872 0.931 . S
C1854 C1853 1.384 . S
C1854 C1857 1.382 . S
C1855 C1853 1.384 . S
C1855 C1856 1.381 . S
C1855 H1873 0.930 . S
C1856 C1855 1.381 . S
C1856 C1858 1.381 . S
C1856 C1859 1.487 . S
C1857 C1854 1.382 . S
C1857 C1858 1.387 . S
C1857 H1874 0.930 . S
C1858 C1856 1.381 . S
C1858 C1857 1.387 . S
C1858 H1875 0.931 . S
C1859 C1852 1.399 . S
C1859 C1856 1.487 . S
C1859 N1876 1.343 . S
H1860 C1832 0.931 . S
H1861 C1834 0.930 . S
H1862 C1836 0.930 . S
H1863 C1837 0.931 . S
H1864 C1839 0.931 . S
H1865 C1841 0.930 . S
H1866 C1843 0.930 . S
H1867 C1844 0.931 . S
H1868 C1846 0.931 . S
H1869 C1848 0.930 . S
H1870 C1850 0.930 . S
H1871 C1851 0.931 . S
H1872 C1853 0.931 . S
H1873 C1855 0.930 . S
H1874 C1857 0.930 . S
H1875 C1858 0.931 . S
N1876 C1838 1.343 . S
N1876 C1859 1.343 . S
N1877 C1845 1.343 . S
N1877 C1852 1.343 . S
C1878 C1879 1.384 . S
C1878 C1880 1.384 . S
C1878 H1906 0.931 . S
C1879 C1878 1.384 . S
C1879 C1882 1.382 . S
C1880 C1878 1.384 . S
C1880 C1881 1.381 . S
C1880 H1907 0.930 . S
C1881 C1880 1.381 . S
C1881 C1883 1.381 . S
C1881 C1884 1.487 . S
C1882 C1879 1.382 . S
C1882 C1883 1.387 . S
C1882 H1908 0.930 . S
C1883 C1881 1.381 . S
C1883 C1882 1.387 . S
C1883 H1909 0.931 . S
C1884 C1881 1.487 . S
C1884 C1891 1.399 . S
C1884 N1922 1.343 . S
C1885 C1886 1.384 . S
C1885 C1887 1.384 . S
C1885 H1910 0.931 . S
C1886 C1885 1.384 . S
C1886 C1889 1.382 . S
C1887 C1885 1.384 . S
C1887 C1888 1.381 . S
C1887 H1911 0.930 . S
C1888 C1887 1.381 . S
C1888 C1890 1.381 . S
C1888 C1891 1.487 . S
C1889 C1886 1.382 . S
C1889 C1890 1.387 . S
C1889 H1912 0.930 . S
C1890 C1888 1.381 . S
C1890 C1889 1.387 . S
C1890 H1913 0.931 . S
C1891 C1884 1.399 . S
C1891 C1888 1.487 . S
C1891 N1923 1.343 . S
C1892 C1893 1.384 . S
C1892 C1894 1.384 . S
C1892 H1914 0.931 . S
C1893 C1892 1.384 . S
C1893 C1896 1.382 . S
C1894 C1892 1.384 . S
C1894 C1895 1.381 . S
C1894 H1915 0.930 . S
C1895 C1894 1.381 . S
C1895 C1897 1.381 . S
C1895 C1898 1.487 . S
C1896 C1893 1.382 . S
C1896 C1897 1.387 . S
C1896 H1916 0.930 . S
C1897 C1895 1.381 . S
C1897 C1896 1.387 . S
C1897 H1917 0.931 . S
C1898 C1895 1.487 . S
C1898 C1905 1.399 . S
C1898 N1923 1.343 . S
C1899 C1900 1.384 . S
C1899 C1901 1.384 . S
C1899 H1918 0.931 . S
C1900 C1899 1.384 . S
C1900 C1903 1.382 . S
C1901 C1899 1.384 . S
C1901 C1902 1.381 . S
C1901 H1919 0.930 . S
C1902 C1901 1.381 . S
C1902 C1904 1.381 . S
C1902 C1905 1.487 . S
C1903 C1900 1.382 . S
C1903 C1904 1.387 . S
C1903 H1920 0.930 . S
C1904 C1902 1.381 . S
C1904 C1903 1.387 . S
C1904 H1921 0.931 . S
C1905 C1898 1.399 . S
C1905 C1902 1.487 . S
C1905 N1922 1.343 . S
H1906 C1878 0.931 . S
H1907 C1880 0.930 . S
H1908 C1882 0.930 . S
H1909 C1883 0.931 . S
H1910 C1885 0.931 . S
H1911 C1887 0.930 . S
H1912 C1889 0.930 . S
H1913 C1890 0.931 . S
H1914 C1892 0.931 . S
H1915 C1894 0.930 . S
H1916 C1896 0.930 . S
H1917 C1897 0.931 . S
H1918 C1899 0.931 . S
H1919 C1901 0.930 . S
H1920 C1903 0.930 . S
H1921 C1904 0.931 . S
N1922 C1884 1.343 . S
N1922 C1905 1.343 . S
N1923 C1891 1.343 . S
N1923 C1898 1.343 . S
C1924 C1925 1.384 . S
C1924 C1926 1.384 . S
C1924 H1952 0.931 . S
C1925 C1924 1.384 . S
C1925 C1928 1.382 . S
C1926 C1924 1.384 . S
C1926 C1927 1.381 . S
C1926 H1953 0.930 . S
C1927 C1926 1.381 . S
C1927 C1929 1.381 . S
C1927 C1930 1.487 . S
C1928 C1925 1.382 . S
C1928 C1929 1.387 . S
C1928 H1954 0.930 . S
C1929 C1927 1.381 . S
C1929 C1928 1.387 . S
C1929 H1955 0.931 . S
C1930 C1927 1.487 . S
C1930 C1937 1.399 . S
C1930 N1968 1.343 . S
C1931 C1932 1.384 . S
C1931 C1933 1.384 . S
C1931 H1956 0.931 . S
C1932 C1931 1.384 . S
C1932 C1935 1.382 . S
C1933 C1931 1.384 . S
C1933 C1934 1.381 . S
C1933 H1957 0.930 . S
C1934 C1933 1.381 . S
C1934 C1936 1.381 . S
C1934 C1937 1.487 . S
C1935 C1932 1.382 . S
C1935 C1936 1.387 . S
C1935 H1958 0.930 . S
C1936 C1934 1.381 . S
C1936 C1935 1.387 . S
C1936 H1959 0.931 . S
C1937 C1930 1.399 . S
C1937 C1934 1.487 . S
C1937 N1969 1.343 . S
C1938 C1939 1.384 . S
C1938 C1940 1.384 . S
C1938 H1960 0.931 . S
C1939 C1938 1.384 . S
C1939 C1942 1.382 . S
C1940 C1938 1.384 . S
C1940 C1941 1.381 . S
C1940 H1961 0.930 . S
C1941 C1940 1.381 . S
C1941 C1943 1.381 . S
C1941 C1944 1.487 . S
C1942 C1939 1.382 . S
C1942 C1943 1.387 . S
C1942 H1962 0.930 . S
C1943 C1941 1.381 . S
C1943 C1942 1.387 . S
C1943 H1963 0.931 . S
C1944 C1941 1.487 . S
C1944 C1951 1.399 . S
C1944 N1969 1.343 . S
C1945 C1946 1.384 . S
C1945 C1947 1.384 . S
C1945 H1964 0.931 . S
C1946 C1945 1.384 . S
C1946 C1949 1.382 . S
C1947 C1945 1.384 . S
C1947 C1948 1.381 . S
C1947 H1965 0.930 . S
C1948 C1947 1.381 . S
C1948 C1950 1.381 . S
C1948 C1951 1.487 . S
C1949 C1946 1.382 . S
C1949 C1950 1.387 . S
C1949 H1966 0.930 . S
C1950 C1948 1.381 . S
C1950 C1949 1.387 . S
C1950 H1967 0.931 . S
C1951 C1944 1.399 . S
C1951 C1948 1.487 . S
C1951 N1968 1.343 . S
H1952 C1924 0.931 . S
H1953 C1926 0.930 . S
H1954 C1928 0.930 . S
H1955 C1929 0.931 . S
H1956 C1931 0.931 . S
H1957 C1933 0.930 . S
H1958 C1935 0.930 . S
H1959 C1936 0.931 . S
H1960 C1938 0.931 . S
H1961 C1940 0.930 . S
H1962 C1942 0.930 . S
H1963 C1943 0.931 . S
H1964 C1945 0.931 . S
H1965 C1947 0.930 . S
H1966 C1949 0.930 . S
H1967 C1950 0.931 . S
N1968 C1930 1.343 . S
N1968 C1951 1.343 . S
N1969 C1937 1.343 . S
N1969 C1944 1.343 . S
C1970 C1971 1.384 . S
C1970 C1972 1.384 . S
C1970 H1998 0.931 . S
C1971 C1970 1.384 . S
C1971 C1974 1.382 . S
C1972 C1970 1.384 . S
C1972 C1973 1.381 . S
C1972 H1999 0.930 . S
C1973 C1972 1.381 . S
C1973 C1975 1.381 . S
C1973 C1976 1.487 . S
C1974 C1971 1.382 . S
C1974 C1975 1.387 . S
C1974 H2000 0.930 . S
C1975 C1973 1.381 . S
C1975 C1974 1.387 . S
C1975 H2001 0.931 . S
C1976 C1973 1.487 . S
C1976 C1983 1.399 . S
C1976 N2014 1.343 . S
C1977 C1978 1.384 . S
C1977 C1979 1.384 . S
C1977 H2002 0.931 . S
C1978 C1977 1.384 . S
C1978 C1981 1.382 . S
C1979 C1977 1.384 . S
C1979 C1980 1.381 . S
C1979 H2003 0.930 . S
C1980 C1979 1.381 . S
C1980 C1982 1.381 . S
C1980 C1983 1.487 . S
C1981 C1978 1.382 . S
C1981 C1982 1.387 . S
C1981 H2004 0.930 . S
C1982 C1980 1.381 . S
C1982 C1981 1.387 . S
C1982 H2005 0.931 . S
C1983 C1976 1.399 . S
C1983 C1980 1.487 . S
C1983 N2015 1.343 . S
C1984 C1985 1.384 . S
C1984 C1986 1.384 . S
C1984 H2006 0.931 . S
C1985 C1984 1.384 . S
C1985 C1988 1.382 . S
C1986 C1984 1.384 . S
C1986 C1987 1.381 . S
C1986 H2007 0.930 . S
C1987 C1986 1.381 . S
C1987 C1989 1.381 . S
C1987 C1990 1.487 . S
C1988 C1985 1.382 . S
C1988 C1989 1.387 . S
C1988 H2008 0.930 . S
C1989 C1987 1.381 . S
C1989 C1988 1.387 . S
C1989 H2009 0.931 . S
C1990 C1987 1.487 . S
C1990 C1997 1.399 . S
C1990 N2015 1.343 . S
C1991 C1992 1.384 . S
C1991 C1993 1.384 . S
C1991 H2010 0.931 . S
C1992 C1991 1.384 . S
C1992 C1995 1.382 . S
C1993 C1991 1.384 . S
C1993 C1994 1.381 . S
C1993 H2011 0.930 . S
C1994 C1993 1.381 . S
C1994 C1996 1.381 . S
C1994 C1997 1.487 . S
C1995 C1992 1.382 . S
C1995 C1996 1.387 . S
C1995 H2012 0.930 . S
C1996 C1994 1.381 . S
C1996 C1995 1.387 . S
C1996 H2013 0.931 . S
C1997 C1990 1.399 . S
C1997 C1994 1.487 . S
C1997 N2014 1.343 . S
H1998 C1970 0.931 . S
H1999 C1972 0.930 . S
H2000 C1974 0.930 . S
H2001 C1975 0.931 . S
H2002 C1977 0.931 . S
H2003 C1979 0.930 . S
H2004 C1981 0.930 . S
H2005 C1982 0.931 . S
H2006 C1984 0.931 . S
H2007 C1986 0.930 . S
H2008 C1988 0.930 . S
H2009 C1989 0.931 . S
H2010 C1991 0.931 . S
H2011 C1993 0.930 . S
H2012 C1995 0.930 . S
H2013 C1996 0.931 . S
N2014 C1976 1.343 . S
N2014 C1997 1.343 . S
N2015 C1983 1.343 . S
N2015 C1990 1.343 . S
C2016 C2017 1.384 . S
C2016 C2018 1.384 . S
C2016 H2044 0.931 . S
C2017 C2016 1.384 . S
C2017 C2020 1.382 . S
C2018 C2016 1.384 . S
C2018 C2019 1.381 . S
C2018 H2045 0.930 . S
C2019 C2018 1.381 . S
C2019 C2021 1.381 . S
C2019 C2022 1.487 . S
C2020 C2017 1.382 . S
C2020 C2021 1.387 . S
C2020 H2046 0.930 . S
C2021 C2019 1.381 . S
C2021 C2020 1.387 . S
C2021 H2047 0.931 . S
C2022 C2019 1.487 . S
C2022 C2029 1.399 . S
C2022 N2060 1.343 . S
C2023 C2024 1.384 . S
C2023 C2025 1.384 . S
C2023 H2048 0.931 . S
C2024 C2023 1.384 . S
C2024 C2027 1.382 . S
C2025 C2023 1.384 . S
C2025 C2026 1.381 . S
C2025 H2049 0.930 . S
C2026 C2025 1.381 . S
C2026 C2028 1.381 . S
C2026 C2029 1.487 . S
C2027 C2024 1.382 . S
C2027 C2028 1.387 . S
C2027 H2050 0.930 . S
C2028 C2026 1.381 . S
C2028 C2027 1.387 . S
C2028 H2051 0.931 . S
C2029 C2022 1.399 . S
C2029 C2026 1.487 . S
C2029 N2061 1.343 . S
C2030 C2031 1.384 . S
C2030 C2032 1.384 . S
C2030 H2052 0.931 . S
C2031 C2030 1.384 . S
C2031 C2034 1.382 . S
C2032 C2030 1.384 . S
C2032 C2033 1.381 . S
C2032 H2053 0.930 . S
C2033 C2032 1.381 . S
C2033 C2035 1.381 . S
C2033 C2036 1.487 . S
C2034 C2031 1.382 . S
C2034 C2035 1.387 . S
C2034 H2054 0.930 . S
C2035 C2033 1.381 . S
C2035 C2034 1.387 . S
C2035 H2055 0.931 . S
C2036 C2033 1.487 . S
C2036 C2043 1.399 . S
C2036 N2061 1.343 . S
C2037 C2038 1.384 . S
C2037 C2039 1.384 . S
C2037 H2056 0.931 . S
C2038 C2037 1.384 . S
C2038 C2041 1.382 . S
C2039 C2037 1.384 . S
C2039 C2040 1.381 . S
C2039 H2057 0.930 . S
C2040 C2039 1.381 . S
C2040 C2042 1.381 . S
C2040 C2043 1.487 . S
C2041 C2038 1.382 . S
C2041 C2042 1.387 . S
C2041 H2058 0.930 . S
C2042 C2040 1.381 . S
C2042 C2041 1.387 . S
C2042 H2059 0.931 . S
C2043 C2036 1.399 . S
C2043 C2040 1.487 . S
C2043 N2060 1.343 . S
H2044 C2016 0.931 . S
H2045 C2018 0.930 . S
H2046 C2020 0.930 . S
H2047 C2021 0.931 . S
H2048 C2023 0.931 . S
H2049 C2025 0.930 . S
H2050 C2027 0.930 . S
H2051 C2028 0.931 . S
H2052 C2030 0.931 . S
H2053 C2032 0.930 . S
H2054 C2034 0.930 . S
H2055 C2035 0.931 . S
H2056 C2037 0.931 . S
H2057 C2039 0.930 . S
H2058 C2041 0.930 . S
H2059 C2042 0.931 . S
N2060 C2022 1.343 . S
N2060 C2043 1.343 . S
N2061 C2029 1.343 . S
N2061 C2036 1.343 . S
C2062 C2063 1.384 . S
C2062 C2064 1.384 . S
C2062 H2090 0.931 . S
C2063 C2062 1.384 . S
C2063 C2066 1.382 . S
C2064 C2062 1.384 . S
C2064 C2065 1.381 . S
C2064 H2091 0.930 . S
C2065 C2064 1.381 . S
C2065 C2067 1.381 . S
C2065 C2068 1.487 . S
C2066 C2063 1.382 . S
C2066 C2067 1.387 . S
C2066 H2092 0.930 . S
C2067 C2065 1.381 . S
C2067 C2066 1.387 . S
C2067 H2093 0.931 . S
C2068 C2065 1.487 . S
C2068 C2075 1.399 . S
C2068 N2106 1.343 . S
C2069 C2070 1.384 . S
C2069 C2071 1.384 . S
C2069 H2094 0.931 . S
C2070 C2069 1.384 . S
C2070 C2073 1.382 . S
C2071 C2069 1.384 . S
C2071 C2072 1.381 . S
C2071 H2095 0.930 . S
C2072 C2071 1.381 . S
C2072 C2074 1.381 . S
C2072 C2075 1.487 . S
C2073 C2070 1.382 . S
C2073 C2074 1.387 . S
C2073 H2096 0.930 . S
C2074 C2072 1.381 . S
C2074 C2073 1.387 . S
C2074 H2097 0.931 . S
C2075 C2068 1.399 . S
C2075 C2072 1.487 . S
C2075 N2107 1.343 . S
C2076 C2077 1.384 . S
C2076 C2078 1.384 . S
C2076 H2098 0.931 . S
C2077 C2076 1.384 . S
C2077 C2080 1.382 . S
C2078 C2076 1.384 . S
C2078 C2079 1.381 . S
C2078 H2099 0.930 . S
C2079 C2078 1.381 . S
C2079 C2081 1.381 . S
C2079 C2082 1.487 . S
C2080 C2077 1.382 . S
C2080 C2081 1.387 . S
C2080 H2100 0.930 . S
C2081 C2079 1.381 . S
C2081 C2080 1.387 . S
C2081 H2101 0.931 . S
C2082 C2079 1.487 . S
C2082 C2089 1.399 . S
C2082 N2107 1.343 . S
C2083 C2084 1.384 . S
C2083 C2085 1.384 . S
C2083 H2102 0.931 . S
C2084 C2083 1.384 . S
C2084 C2087 1.382 . S
C2085 C2083 1.384 . S
C2085 C2086 1.381 . S
C2085 H2103 0.930 . S
C2086 C2085 1.381 . S
C2086 C2088 1.381 . S
C2086 C2089 1.487 . S
C2087 C2084 1.382 . S
C2087 C2088 1.387 . S
C2087 H2104 0.930 . S
C2088 C2086 1.381 . S
C2088 C2087 1.387 . S
C2088 H2105 0.931 . S
C2089 C2082 1.399 . S
C2089 C2086 1.487 . S
C2089 N2106 1.343 . S
H2090 C2062 0.931 . S
H2091 C2064 0.930 . S
H2092 C2066 0.930 . S
H2093 C2067 0.931 . S
H2094 C2069 0.931 . S
H2095 C2071 0.930 . S
H2096 C2073 0.930 . S
H2097 C2074 0.931 . S
H2098 C2076 0.931 . S
H2099 C2078 0.930 . S
H2100 C2080 0.930 . S
H2101 C2081 0.931 . S
H2102 C2083 0.931 . S
H2103 C2085 0.930 . S
H2104 C2087 0.930 . S
H2105 C2088 0.931 . S
N2106 C2068 1.343 . S
N2106 C2089 1.343 . S
N2107 C2075 1.343 . S
N2107 C2082 1.343 . S
C2108 C2109 1.384 . S
C2108 C2110 1.384 . S
C2108 H2136 0.931 . S
C2109 C2108 1.384 . S
C2109 C2112 1.382 . S
C2110 C2108 1.384 . S
C2110 C2111 1.381 . S
C2110 H2137 0.930 . S
C2111 C2110 1.381 . S
C2111 C2113 1.381 . S
C2111 C2114 1.487 . S
C2112 C2109 1.382 . S
C2112 C2113 1.387 . S
C2112 H2138 0.930 . S
C2113 C2111 1.381 . S
C2113 C2112 1.387 . S
C2113 H2139 0.931 . S
C2114 C2111 1.487 . S
C2114 C2121 1.399 . S
C2114 N2152 1.343 . S
C2115 C2116 1.384 . S
C2115 C2117 1.384 . S
C2115 H2140 0.931 . S
C2116 C2115 1.384 . S
C2116 C2119 1.382 . S
C2117 C2115 1.384 . S
C2117 C2118 1.381 . S
C2117 H2141 0.930 . S
C2118 C2117 1.381 . S
C2118 C2120 1.381 . S
C2118 C2121 1.487 . S
C2119 C2116 1.382 . S
C2119 C2120 1.387 . S
C2119 H2142 0.930 . S
C2120 C2118 1.381 . S
C2120 C2119 1.387 . S
C2120 H2143 0.931 . S
C2121 C2114 1.399 . S
C2121 C2118 1.487 . S
C2121 N2153 1.343 . S
C2122 C2123 1.384 . S
C2122 C2124 1.384 . S
C2122 H2144 0.931 . S
C2123 C2122 1.384 . S
C2123 C2126 1.382 . S
C2124 C2122 1.384 . S
C2124 C2125 1.381 . S
C2124 H2145 0.930 . S
C2125 C2124 1.381 . S
C2125 C2127 1.381 . S
C2125 C2128 1.487 . S
C2126 C2123 1.382 . S
C2126 C2127 1.387 . S
C2126 H2146 0.930 . S
C2127 C2125 1.381 . S
C2127 C2126 1.387 . S
C2127 H2147 0.931 . S
C2128 C2125 1.487 . S
C2128 C2135 1.399 . S
C2128 N2153 1.343 . S
C2129 C2130 1.384 . S
C2129 C2131 1.384 . S
C2129 H2148 0.931 . S
C2130 C2129 1.384 . S
C2130 C2133 1.382 . S
C2131 C2129 1.384 . S
C2131 C2132 1.381 . S
C2131 H2149 0.930 . S
C2132 C2131 1.381 . S
C2132 C2134 1.381 . S
C2132 C2135 1.487 . S
C2133 C2130 1.382 . S
C2133 C2134 1.387 . S
C2133 H2150 0.930 . S
C2134 C2132 1.381 . S
C2134 C2133 1.387 . S
C2134 H2151 0.931 . S
C2135 C2128 1.399 . S
C2135 C2132 1.487 . S
C2135 N2152 1.343 . S
H2136 C2108 0.931 . S
H2137 C2110 0.930 . S
H2138 C2112 0.930 . S
H2139 C2113 0.931 . S
H2140 C2115 0.931 . S
H2141 C2117 0.930 . S
H2142 C2119 0.930 . S
H2143 C2120 0.931 . S
H2144 C2122 0.931 . S
H2145 C2124 0.930 . S
H2146 C2126 0.930 . S
H2147 C2127 0.931 . S
H2148 C2129 0.931 . S
H2149 C2131 0.930 . S
H2150 C2133 0.930 . S
H2151 C2134 0.931 . S
N2152 C2114 1.343 . S
N2152 C2135 1.343 . S
N2153 C2121 1.343 . S
N2153 C2128 1.343 . S
C2154 C2155 1.384 . S
C2154 C2156 1.384 . S
C2154 H2182 0.931 . S
C2155 C2154 1.384 . S
C2155 C2158 1.382 . S
C2156 C2154 1.384 . S
C2156 C2157 1.381 . S
C2156 H2183 0.930 . S
C2157 C2156 1.381 . S
C2157 C2159 1.381 . S
C2157 C2160 1.487 . S
C2158 C2155 1.382 . S
C2158 C2159 1.387 . S
C2158 H2184 0.930 . S
C2159 C2157 1.381 . S
C2159 C2158 1.387 . S
C2159 H2185 0.931 . S
C2160 C2157 1.487 . S
C2160 C2167 1.399 . S
C2160 N2198 1.343 . S
C2161 C2162 1.384 . S
C2161 C2163 1.384 . S
C2161 H2186 0.931 . S
C2162 C2161 1.384 . S
C2162 C2165 1.382 . S
C2163 C2161 1.384 . S
C2163 C2164 1.381 . S
C2163 H2187 0.930 . S
C2164 C2163 1.381 . S
C2164 C2166 1.381 . S
C2164 C2167 1.487 . S
C2165 C2162 1.382 . S
C2165 C2166 1.387 . S
C2165 H2188 0.930 . S
C2166 C2164 1.381 . S
C2166 C2165 1.387 . S
C2166 H2189 0.931 . S
C2167 C2160 1.399 . S
C2167 C2164 1.487 . S
C2167 N2199 1.343 . S
C2168 C2169 1.384 . S
C2168 C2170 1.384 . S
C2168 H2190 0.931 . S
C2169 C2168 1.384 . S
C2169 C2172 1.382 . S
C2170 C2168 1.384 . S
C2170 C2171 1.381 . S
C2170 H2191 0.930 . S
C2171 C2170 1.381 . S
C2171 C2173 1.381 . S
C2171 C2174 1.487 . S
C2172 C2169 1.382 . S
C2172 C2173 1.387 . S
C2172 H2192 0.930 . S
C2173 C2171 1.381 . S
C2173 C2172 1.387 . S
C2173 H2193 0.931 . S
C2174 C2171 1.487 . S
C2174 C2181 1.399 . S
C2174 N2199 1.343 . S
C2175 C2176 1.384 . S
C2175 C2177 1.384 . S
C2175 H2194 0.931 . S
C2176 C2175 1.384 . S
C2176 C2179 1.382 . S
C2177 C2175 1.384 . S
C2177 C2178 1.381 . S
C2177 H2195 0.930 . S
C2178 C2177 1.381 . S
C2178 C2180 1.381 . S
C2178 C2181 1.487 . S
C2179 C2176 1.382 . S
C2179 C2180 1.387 . S
C2179 H2196 0.930 . S
C2180 C2178 1.381 . S
C2180 C2179 1.387 . S
C2180 H2197 0.931 . S
C2181 C2174 1.399 . S
C2181 C2178 1.487 . S
C2181 N2198 1.343 . S
H2182 C2154 0.931 . S
H2183 C2156 0.930 . S
H2184 C2158 0.930 . S
H2185 C2159 0.931 . S
H2186 C2161 0.931 . S
H2187 C2163 0.930 . S
H2188 C2165 0.930 . S
H2189 C2166 0.931 . S
H2190 C2168 0.931 . S
H2191 C2170 0.930 . S
H2192 C2172 0.930 . S
H2193 C2173 0.931 . S
H2194 C2175 0.931 . S
H2195 C2177 0.930 . S
H2196 C2179 0.930 . S
H2197 C2180 0.931 . S
N2198 C2160 1.343 . S
N2198 C2181 1.343 . S
N2199 C2167 1.343 . S
N2199 C2174 1.343 . S
C2200 C2201 1.384 . S
C2200 C2202 1.384 . S
C2200 H2228 0.931 . S
C2201 C2200 1.384 . S
C2201 C2204 1.382 . S
C2202 C2200 1.384 . S
C2202 C2203 1.381 . S
C2202 H2229 0.930 . S
C2203 C2202 1.381 . S
C2203 C2205 1.381 . S
C2203 C2206 1.487 . S
C2204 C2201 1.382 . S
C2204 C2205 1.387 . S
C2204 H2230 0.930 . S
C2205 C2203 1.381 . S
C2205 C2204 1.387 . S
C2205 H2231 0.931 . S
C2206 C2203 1.487 . S
C2206 C2213 1.399 . S
C2206 N2244 1.343 . S
C2207 C2208 1.384 . S
C2207 C2209 1.384 . S
C2207 H2232 0.931 . S
C2208 C2207 1.384 . S
C2208 C2211 1.382 . S
C2209 C2207 1.384 . S
C2209 C2210 1.381 . S
C2209 H2233 0.930 . S
C2210 C2209 1.381 . S
C2210 C2212 1.381 . S
C2210 C2213 1.487 . S
C2211 C2208 1.382 . S
C2211 C2212 1.387 . S
C2211 H2234 0.930 . S
C2212 C2210 1.381 . S
C2212 C2211 1.387 . S
C2212 H2235 0.931 . S
C2213 C2206 1.399 . S
C2213 C2210 1.487 . S
C2213 N2245 1.343 . S
C2214 C2215 1.384 . S
C2214 C2216 1.384 . S
C2214 H2236 0.931 . S
C2215 C2214 1.384 . S
C2215 C2218 1.382 . S
C2216 C2214 1.384 . S
C2216 C2217 1.381 . S
C2216 H2237 0.930 . S
C2217 C2216 1.381 . S
C2217 C2219 1.381 . S
C2217 C2220 1.487 . S
C2218 C2215 1.382 . S
C2218 C2219 1.387 . S
C2218 H2238 0.930 . S
C2219 C2217 1.381 . S
C2219 C2218 1.387 . S
C2219 H2239 0.931 . S
C2220 C2217 1.487 . S
C2220 C2227 1.399 . S
C2220 N2245 1.343 . S
C2221 C2222 1.384 . S
C2221 C2223 1.384 . S
C2221 H2240 0.931 . S
C2222 C2221 1.384 . S
C2222 C2225 1.382 . S
C2223 C2221 1.384 . S
C2223 C2224 1.381 . S
C2223 H2241 0.930 . S
C2224 C2223 1.381 . S
C2224 C2226 1.381 . S
C2224 C2227 1.487 . S
C2225 C2222 1.382 . S
C2225 C2226 1.387 . S
C2225 H2242 0.930 . S
C2226 C2224 1.381 . S
C2226 C2225 1.387 . S
C2226 H2243 0.931 . S
C2227 C2220 1.399 . S
C2227 C2224 1.487 . S
C2227 N2244 1.343 . S
H2228 C2200 0.931 . S
H2229 C2202 0.930 . S
H2230 C2204 0.930 . S
H2231 C2205 0.931 . S
H2232 C2207 0.931 . S
H2233 C2209 0.930 . S
H2234 C2211 0.930 . S
H2235 C2212 0.931 . S
H2236 C2214 0.931 . S
H2237 C2216 0.930 . S
H2238 C2218 0.930 . S
H2239 C2219 0.931 . S
H2240 C2221 0.931 . S
H2241 C2223 0.930 . S
H2242 C2225 0.930 . S
H2243 C2226 0.931 . S
N2244 C2206 1.343 . S
N2244 C2227 1.343 . S
N2245 C2213 1.343 . S
N2245 C2220 1.343 . S
C2246 C2247 1.384 . S
C2246 C2248 1.384 . S
C2246 H2274 0.931 . S
C2247 C2246 1.384 . S
C2247 C2250 1.382 . S
C2248 C2246 1.384 . S
C2248 C2249 1.381 . S
C2248 H2275 0.930 . S
C2249 C2248 1.381 . S
C2249 C2251 1.381 . S
C2249 C2252 1.487 . S
C2250 C2247 1.382 . S
C2250 C2251 1.387 . S
C2250 H2276 0.930 . S
C2251 C2249 1.381 . S
C2251 C2250 1.387 . S
C2251 H2277 0.931 . S
C2252 C2249 1.487 . S
C2252 C2259 1.399 . S
C2252 N2290 1.343 . S
C2253 C2254 1.384 . S
C2253 C2255 1.384 . S
C2253 H2278 0.931 . S
C2254 C2253 1.384 . S
C2254 C2257 1.382 . S
C2255 C2253 1.384 . S
C2255 C2256 1.381 . S
C2255 H2279 0.930 . S
C2256 C2255 1.381 . S
C2256 C2258 1.381 . S
C2256 C2259 1.487 . S
C2257 C2254 1.382 . S
C2257 C2258 1.387 . S
C2257 H2280 0.930 . S
C2258 C2256 1.381 . S
C2258 C2257 1.387 . S
C2258 H2281 0.931 . S
C2259 C2252 1.399 . S
C2259 C2256 1.487 . S
C2259 N2291 1.343 . S
C2260 C2261 1.384 . S
C2260 C2262 1.384 . S
C2260 H2282 0.931 . S
C2261 C2260 1.384 . S
C2261 C2264 1.382 . S
C2262 C2260 1.384 . S
C2262 C2263 1.381 . S
C2262 H2283 0.930 . S
C2263 C2262 1.381 . S
C2263 C2265 1.381 . S
C2263 C2266 1.487 . S
C2264 C2261 1.382 . S
C2264 C2265 1.387 . S
C2264 H2284 0.930 . S
C2265 C2263 1.381 . S
C2265 C2264 1.387 . S
C2265 H2285 0.931 . S
C2266 C2263 1.487 . S
C2266 C2273 1.399 . S
C2266 N2291 1.343 . S
C2267 C2268 1.384 . S
C2267 C2269 1.384 . S
C2267 H2286 0.931 . S
C2268 C2267 1.384 . S
C2268 C2271 1.382 . S
C2269 C2267 1.384 . S
C2269 C2270 1.381 . S
C2269 H2287 0.930 . S
C2270 C2269 1.381 . S
C2270 C2272 1.381 . S
C2270 C2273 1.487 . S
C2271 C2268 1.382 . S
C2271 C2272 1.387 . S
C2271 H2288 0.930 . S
C2272 C2270 1.381 . S
C2272 C2271 1.387 . S
C2272 H2289 0.931 . S
C2273 C2266 1.399 . S
C2273 C2270 1.487 . S
C2273 N2290 1.343 . S
H2274 C2246 0.931 . S
H2275 C2248 0.930 . S
H2276 C2250 0.930 . S
H2277 C2251 0.931 . S
H2278 C2253 0.931 . S
H2279 C2255 0.930 . S
H2280 C2257 0.930 . S
H2281 C2258 0.931 . S
H2282 C2260 0.931 . S
H2283 C2262 0.930 . S
H2284 C2264 0.930 . S
H2285 C2265 0.931 . S
H2286 C2267 0.931 . S
H2287 C2269 0.930 . S
H2288 C2271 0.930 . S
H2289 C2272 0.931 . S
N2290 C2252 1.343 . S
N2290 C2273 1.343 . S
N2291 C2259 1.343 . S
N2291 C2266 1.343 . S
C2292 C2293 1.384 . S
C2292 C2294 1.384 . S
C2292 H2320 0.931 . S
C2293 C2292 1.384 . S
C2293 C2296 1.382 . S
C2294 C2292 1.384 . S
C2294 C2295 1.381 . S
C2294 H2321 0.930 . S
C2295 C2294 1.381 . S
C2295 C2297 1.381 . S
C2295 C2298 1.487 . S
C2296 C2293 1.382 . S
C2296 C2297 1.387 . S
C2296 H2322 0.930 . S
C2297 C2295 1.381 . S
C2297 C2296 1.387 . S
C2297 H2323 0.931 . S
C2298 C2295 1.487 . S
C2298 C2305 1.399 . S
C2298 N2336 1.343 . S
C2299 C2300 1.384 . S
C2299 C2301 1.384 . S
C2299 H2324 0.931 . S
C2300 C2299 1.384 . S
C2300 C2303 1.382 . S
C2301 C2299 1.384 . S
C2301 C2302 1.381 . S
C2301 H2325 0.930 . S
C2302 C2301 1.381 . S
C2302 C2304 1.381 . S
C2302 C2305 1.487 . S
C2303 C2300 1.382 . S
C2303 C2304 1.387 . S
C2303 H2326 0.930 . S
C2304 C2302 1.381 . S
C2304 C2303 1.387 . S
C2304 H2327 0.931 . S
C2305 C2298 1.399 . S
C2305 C2302 1.487 . S
C2305 N2337 1.343 . S
C2306 C2307 1.384 . S
C2306 C2308 1.384 . S
C2306 H2328 0.931 . S
C2307 C2306 1.384 . S
C2307 C2310 1.382 . S
C2308 C2306 1.384 . S
C2308 C2309 1.381 . S
C2308 H2329 0.930 . S
C2309 C2308 1.381 . S
C2309 C2311 1.381 . S
C2309 C2312 1.487 . S
C2310 C2307 1.382 . S
C2310 C2311 1.387 . S
C2310 H2330 0.930 . S
C2311 C2309 1.381 . S
C2311 C2310 1.387 . S
C2311 H2331 0.931 . S
C2312 C2309 1.487 . S
C2312 C2319 1.399 . S
C2312 N2337 1.343 . S
C2313 C2314 1.384 . S
C2313 C2315 1.384 . S
C2313 H2332 0.931 . S
C2314 C2313 1.384 . S
C2314 C2317 1.382 . S
C2315 C2313 1.384 . S
C2315 C2316 1.381 . S
C2315 H2333 0.930 . S
C2316 C2315 1.381 . S
C2316 C2318 1.381 . S
C2316 C2319 1.487 . S
C2317 C2314 1.382 . S
C2317 C2318 1.387 . S
C2317 H2334 0.930 . S
C2318 C2316 1.381 . S
C2318 C2317 1.387 . S
C2318 H2335 0.931 . S
C2319 C2312 1.399 . S
C2319 C2316 1.487 . S
C2319 N2336 1.343 . S
H2320 C2292 0.931 . S
H2321 C2294 0.930 . S
H2322 C2296 0.930 . S
H2323 C2297 0.931 . S
H2324 C2299 0.931 . S
H2325 C2301 0.930 . S
H2326 C2303 0.930 . S
H2327 C2304 0.931 . S
H2328 C2306 0.931 . S
H2329 C2308 0.930 . S
H2330 C2310 0.930 . S
H2331 C2311 0.931 . S
H2332 C2313 0.931 . S
H2333 C2315 0.930 . S
H2334 C2317 0.930 . S
H2335 C2318 0.931 . S
N2336 C2298 1.343 . S
N2336 C2319 1.343 . S
N2337 C2305 1.343 . S
N2337 C2312 1.343 . S
C2338 C2339 1.384 . S
C2338 C2340 1.384 . S
C2338 H2366 0.931 . S
C2339 C2338 1.384 . S
C2339 C2342 1.382 . S
C2340 C2338 1.384 . S
C2340 C2341 1.381 . S
C2340 H2367 0.930 . S
C2341 C2340 1.381 . S
C2341 C2343 1.381 . S
C2341 C2344 1.487 . S
C2342 C2339 1.382 . S
C2342 C2343 1.387 . S
C2342 H2368 0.930 . S
C2343 C2341 1.381 . S
C2343 C2342 1.387 . S
C2343 H2369 0.931 . S
C2344 C2341 1.487 . S
C2344 C2351 1.399 . S
C2344 N2382 1.343 . S
C2345 C2346 1.384 . S
C2345 C2347 1.384 . S
C2345 H2370 0.931 . S
C2346 C2345 1.384 . S
C2346 C2349 1.382 . S
C2347 C2345 1.384 . S
C2347 C2348 1.381 . S
C2347 H2371 0.930 . S
C2348 C2347 1.381 . S
C2348 C2350 1.381 . S
C2348 C2351 1.487 . S
C2349 C2346 1.382 . S
C2349 C2350 1.387 . S
C2349 H2372 0.930 . S
C2350 C2348 1.381 . S
C2350 C2349 1.387 . S
C2350 H2373 0.931 . S
C2351 C2344 1.399 . S
C2351 C2348 1.487 . S
C2351 N2383 1.343 . S
C2352 C2353 1.384 . S
C2352 C2354 1.384 . S
C2352 H2374 0.931 . S
C2353 C2352 1.384 . S
C2353 C2356 1.382 . S
C2354 C2352 1.384 . S
C2354 C2355 1.381 . S
C2354 H2375 0.930 . S
C2355 C2354 1.381 . S
C2355 C2357 1.381 . S
C2355 C2358 1.487 . S
C2356 C2353 1.382 . S
C2356 C2357 1.387 . S
C2356 H2376 0.930 . S
C2357 C2355 1.381 . S
C2357 C2356 1.387 . S
C2357 H2377 0.931 . S
C2358 C2355 1.487 . S
C2358 C2365 1.399 . S
C2358 N2383 1.343 . S
C2359 C2360 1.384 . S
C2359 C2361 1.384 . S
C2359 H2378 0.931 . S
C2360 C2359 1.384 . S
C2360 C2363 1.382 . S
C2361 C2359 1.384 . S
C2361 C2362 1.381 . S
C2361 H2379 0.930 . S
C2362 C2361 1.381 . S
C2362 C2364 1.381 . S
C2362 C2365 1.487 . S
C2363 C2360 1.382 . S
C2363 C2364 1.387 . S
C2363 H2380 0.930 . S
C2364 C2362 1.381 . S
C2364 C2363 1.387 . S
C2364 H2381 0.931 . S
C2365 C2358 1.399 . S
C2365 C2362 1.487 . S
C2365 N2382 1.343 . S
H2366 C2338 0.931 . S
H2367 C2340 0.930 . S
H2368 C2342 0.930 . S
H2369 C2343 0.931 . S
H2370 C2345 0.931 . S
H2371 C2347 0.930 . S
H2372 C2349 0.930 . S
H2373 C2350 0.931 . S
H2374 C2352 0.931 . S
H2375 C2354 0.930 . S
H2376 C2356 0.930 . S
H2377 C2357 0.931 . S
H2378 C2359 0.931 . S
H2379 C2361 0.930 . S
H2380 C2363 0.930 . S
H2381 C2364 0.931 . S
N2382 C2344 1.343 . S
N2382 C2365 1.343 . S
N2383 C2351 1.343 . S
N2383 C2358 1.343 . S
C2384 C2385 1.363 . S
C2384 C2390 1.379 . S
C2384 N2392 1.356 . S
C2385 C2384 1.363 . S
C2385 C2391 1.363 . S
C2386 C2387 1.363 . S
C2386 C2391 1.379 . S
C2386 N2393 1.356 . S
C2387 C2386 1.363 . S
C2387 C2390 1.363 . S
N2388 C2390 1.356 . S
N2388 H2400 0.984 . S
N2388 H2401 0.985 . S
N2389 C2391 1.356 . S
N2389 H2394 0.984 . S
N2389 H2395 0.985 . S
C2390 C2384 1.379 . S
C2390 C2387 1.363 . S
C2390 N2388 1.356 . S
C2391 C2385 1.363 . S
C2391 C2386 1.379 . S
C2391 N2389 1.356 . S
N2392 C2384 1.356 . S
N2392 H2398 0.984 . S
N2392 H2399 0.984 . S
N2393 C2386 1.356 . S
N2393 H2396 0.984 . S
N2393 H2397 0.985 . S
H2394 N2389 0.984 . S
H2395 N2389 0.985 . S
H2396 N2393 0.984 . S
H2397 N2393 0.985 . S
H2398 N2392 0.984 . S
H2399 N2392 0.984 . S
H2400 N2388 0.984 . S
H2401 N2388 0.985 . S
C2402 C2403 1.363 . S
C2402 C2408 1.379 . S
C2402 N2410 1.356 . S
C2403 C2402 1.363 . S
C2403 C2409 1.363 . S
C2404 C2405 1.363 . S
C2404 C2409 1.379 . S
C2404 N2411 1.356 . S
C2405 C2404 1.363 . S
C2405 C2408 1.363 . S
N2406 C2408 1.356 . S
N2406 H2418 0.984 . S
N2406 H2419 0.985 . S
N2407 C2409 1.356 . S
N2407 H2412 0.984 . S
N2407 H2413 0.985 . S
C2408 C2402 1.379 . S
C2408 C2405 1.363 . S
C2408 N2406 1.356 . S
C2409 C2403 1.363 . S
C2409 C2404 1.379 . S
C2409 N2407 1.356 . S
N2410 C2402 1.356 . S
N2410 H2416 0.984 . S
N2410 H2417 0.984 . S
N2411 C2404 1.356 . S
N2411 H2414 0.984 . S
N2411 H2415 0.985 . S
H2412 N2407 0.984 . S
H2413 N2407 0.985 . S
H2414 N2411 0.984 . S
H2415 N2411 0.985 . S
H2416 N2410 0.984 . S
H2417 N2410 0.984 . S
H2418 N2406 0.984 . S
H2419 N2406 0.985 . S
C2420 C2421 1.363 . S
C2420 C2426 1.379 . S
C2420 N2428 1.356 . S
C2421 C2420 1.363 . S
C2421 C2427 1.363 . S
C2422 C2423 1.363 . S
C2422 C2427 1.379 . S
C2422 N2429 1.356 . S
C2423 C2422 1.363 . S
C2423 C2426 1.363 . S
N2424 C2426 1.356 . S
N2424 H2436 0.984 . S
N2424 H2437 0.985 . S
N2425 C2427 1.356 . S
N2425 H2430 0.984 . S
N2425 H2431 0.985 . S
C2426 C2420 1.379 . S
C2426 C2423 1.363 . S
C2426 N2424 1.356 . S
C2427 C2421 1.363 . S
C2427 C2422 1.379 . S
C2427 N2425 1.356 . S
N2428 C2420 1.356 . S
N2428 H2434 0.984 . S
N2428 H2435 0.984 . S
N2429 C2422 1.356 . S
N2429 H2432 0.984 . S
N2429 H2433 0.985 . S
H2430 N2425 0.984 . S
H2431 N2425 0.985 . S
H2432 N2429 0.984 . S
H2433 N2429 0.985 . S
H2434 N2428 0.984 . S
H2435 N2428 0.984 . S
H2436 N2424 0.984 . S
H2437 N2424 0.985 . S
C2438 C2439 1.363 . S
C2438 C2444 1.379 . S
C2438 N2446 1.356 . S
C2439 C2438 1.363 . S
C2439 C2445 1.363 . S
C2440 C2441 1.363 . S
C2440 C2445 1.379 . S
C2440 N2447 1.356 . S
C2441 C2440 1.363 . S
C2441 C2444 1.363 . S
N2442 C2444 1.356 . S
N2442 H2454 0.984 . S
N2442 H2455 0.985 . S
N2443 C2445 1.356 . S
N2443 H2448 0.984 . S
N2443 H2449 0.985 . S
C2444 C2438 1.379 . S
C2444 C2441 1.363 . S
C2444 N2442 1.356 . S
C2445 C2439 1.363 . S
C2445 C2440 1.379 . S
C2445 N2443 1.356 . S
N2446 C2438 1.356 . S
N2446 H2452 0.984 . S
N2446 H2453 0.984 . S
N2447 C2440 1.356 . S
N2447 H2450 0.984 . S
N2447 H2451 0.985 . S
H2448 N2443 0.984 . S
H2449 N2443 0.985 . S
H2450 N2447 0.984 . S
H2451 N2447 0.985 . S
H2452 N2446 0.984 . S
H2453 N2446 0.984 . S
H2454 N2442 0.984 . S
H2455 N2442 0.985 . S
C2456 C2457 1.363 . S
C2456 C2462 1.379 . S
C2456 N2464 1.356 . S
C2457 C2456 1.363 . S
C2457 C2463 1.363 . S
C2458 C2459 1.363 . S
C2458 C2463 1.379 . S
C2458 N2465 1.356 . S
C2459 C2458 1.363 . S
C2459 C2462 1.363 . S
N2460 C2462 1.356 . S
N2460 H2472 0.984 . S
N2460 H2473 0.985 . S
N2461 C2463 1.356 . S
N2461 H2466 0.984 . S
N2461 H2467 0.985 . S
C2462 C2456 1.379 . S
C2462 C2459 1.363 . S
C2462 N2460 1.356 . S
C2463 C2457 1.363 . S
C2463 C2458 1.379 . S
C2463 N2461 1.356 . S
N2464 C2456 1.356 . S
N2464 H2470 0.984 . S
N2464 H2471 0.984 . S
N2465 C2458 1.356 . S
N2465 H2468 0.984 . S
N2465 H2469 0.985 . S
H2466 N2461 0.984 . S
H2467 N2461 0.985 . S
H2468 N2465 0.984 . S
H2469 N2465 0.985 . S
H2470 N2464 0.984 . S
H2471 N2464 0.984 . S
H2472 N2460 0.984 . S
H2473 N2460 0.985 . S
C2474 C2475 1.363 . S
C2474 C2480 1.379 . S
C2474 N2482 1.356 . S
C2475 C2474 1.363 . S
C2475 C2481 1.363 . S
C2476 C2477 1.363 . S
C2476 C2481 1.379 . S
C2476 N2483 1.356 . S
C2477 C2476 1.363 . S
C2477 C2480 1.363 . S
N2478 C2480 1.356 . S
N2478 H2490 0.984 . S
N2478 H2491 0.985 . S
N2479 C2481 1.356 . S
N2479 H2484 0.984 . S
N2479 H2485 0.985 . S
C2480 C2474 1.379 . S
C2480 C2477 1.363 . S
C2480 N2478 1.356 . S
C2481 C2475 1.363 . S
C2481 C2476 1.379 . S
C2481 N2479 1.356 . S
N2482 C2474 1.356 . S
N2482 H2488 0.984 . S
N2482 H2489 0.984 . S
N2483 C2476 1.356 . S
N2483 H2486 0.984 . S
N2483 H2487 0.985 . S
H2484 N2479 0.984 . S
H2485 N2479 0.985 . S
H2486 N2483 0.984 . S
H2487 N2483 0.985 . S
H2488 N2482 0.984 . S
H2489 N2482 0.984 . S
H2490 N2478 0.984 . S
H2491 N2478 0.985 . S
C2492 C2493 1.363 . S
C2492 C2498 1.379 . S
C2492 N2500 1.356 . S
C2493 C2492 1.363 . S
C2493 C2499 1.363 . S
C2494 C2495 1.363 . S
C2494 C2499 1.379 . S
C2494 N2501 1.356 . S
C2495 C2494 1.363 . S
C2495 C2498 1.363 . S
N2496 C2498 1.356 . S
N2496 H2508 0.984 . S
N2496 H2509 0.985 . S
N2497 C2499 1.356 . S
N2497 H2502 0.984 . S
N2497 H2503 0.985 . S
C2498 C2492 1.379 . S
C2498 C2495 1.363 . S
C2498 N2496 1.356 . S
C2499 C2493 1.363 . S
C2499 C2494 1.379 . S
C2499 N2497 1.356 . S
N2500 C2492 1.356 . S
N2500 H2506 0.984 . S
N2500 H2507 0.984 . S
N2501 C2494 1.356 . S
N2501 H2504 0.984 . S
N2501 H2505 0.985 . S
H2502 N2497 0.984 . S
H2503 N2497 0.985 . S
H2504 N2501 0.984 . S
H2505 N2501 0.985 . S
H2506 N2500 0.984 . S
H2507 N2500 0.984 . S
H2508 N2496 0.984 . S
H2509 N2496 0.985 . S
C2510 C2511 1.363 . S
C2510 C2516 1.379 . S
C2510 N2518 1.356 . S
C2511 C2510 1.363 . S
C2511 C2517 1.363 . S
C2512 C2513 1.363 . S
C2512 C2517 1.379 . S
C2512 N2519 1.356 . S
C2513 C2512 1.363 . S
C2513 C2516 1.363 . S
N2514 C2516 1.356 . S
N2514 H2526 0.984 . S
N2514 H2527 0.985 . S
N2515 C2517 1.356 . S
N2515 H2520 0.984 . S
N2515 H2521 0.985 . S
C2516 C2510 1.379 . S
C2516 C2513 1.363 . S
C2516 N2514 1.356 . S
C2517 C2511 1.363 . S
C2517 C2512 1.379 . S
C2517 N2515 1.356 . S
N2518 C2510 1.356 . S
N2518 H2524 0.984 . S
N2518 H2525 0.984 . S
N2519 C2512 1.356 . S
N2519 H2522 0.984 . S
N2519 H2523 0.985 . S
H2520 N2515 0.984 . S
H2521 N2515 0.985 . S
H2522 N2519 0.984 . S
H2523 N2519 0.985 . S
H2524 N2518 0.984 . S
H2525 N2518 0.984 . S
H2526 N2514 0.984 . S
H2527 N2514 0.985 . S
C2528 C2529 1.363 . S
C2528 C2534 1.379 . S
C2528 N2536 1.356 . S
C2529 C2528 1.363 . S
C2529 C2535 1.363 . S
C2530 C2531 1.363 . S
C2530 C2535 1.379 . S
C2530 N2537 1.356 . S
C2531 C2530 1.363 . S
C2531 C2534 1.363 . S
N2532 C2534 1.356 . S
N2532 H2544 0.984 . S
N2532 H2545 0.985 . S
N2533 C2535 1.356 . S
N2533 H2538 0.984 . S
N2533 H2539 0.985 . S
C2534 C2528 1.379 . S
C2534 C2531 1.363 . S
C2534 N2532 1.356 . S
C2535 C2529 1.363 . S
C2535 C2530 1.379 . S
C2535 N2533 1.356 . S
N2536 C2528 1.356 . S
N2536 H2542 0.984 . S
N2536 H2543 0.984 . S
N2537 C2530 1.356 . S
N2537 H2540 0.984 . S
N2537 H2541 0.985 . S
H2538 N2533 0.984 . S
H2539 N2533 0.985 . S
H2540 N2537 0.984 . S
H2541 N2537 0.985 . S
H2542 N2536 0.984 . S
H2543 N2536 0.984 . S
H2544 N2532 0.984 . S
H2545 N2532 0.985 . S
C2546 C2547 1.363 . S
C2546 C2552 1.379 . S
C2546 N2554 1.356 . S
C2547 C2546 1.363 . S
C2547 C2553 1.363 . S
C2548 C2549 1.363 . S
C2548 C2553 1.379 . S
C2548 N2555 1.356 . S
C2549 C2548 1.363 . S
C2549 C2552 1.363 . S
N2550 C2552 1.356 . S
N2550 H2562 0.984 . S
N2550 H2563 0.985 . S
N2551 C2553 1.356 . S
N2551 H2556 0.984 . S
N2551 H2557 0.985 . S
C2552 C2546 1.379 . S
C2552 C2549 1.363 . S
C2552 N2550 1.356 . S
C2553 C2547 1.363 . S
C2553 C2548 1.379 . S
C2553 N2551 1.356 . S
N2554 C2546 1.356 . S
N2554 H2560 0.984 . S
N2554 H2561 0.984 . S
N2555 C2548 1.356 . S
N2555 H2558 0.984 . S
N2555 H2559 0.985 . S
H2556 N2551 0.984 . S
H2557 N2551 0.985 . S
H2558 N2555 0.984 . S
H2559 N2555 0.985 . S
H2560 N2554 0.984 . S
H2561 N2554 0.984 . S
H2562 N2550 0.984 . S
H2563 N2550 0.985 . S
C2564 C2565 1.363 . S
C2564 C2570 1.379 . S
C2564 N2572 1.356 . S
C2565 C2564 1.363 . S
C2565 C2571 1.363 . S
C2566 C2567 1.363 . S
C2566 C2571 1.379 . S
C2566 N2573 1.356 . S
C2567 C2566 1.363 . S
C2567 C2570 1.363 . S
N2568 C2570 1.356 . S
N2568 H2580 0.984 . S
N2568 H2581 0.985 . S
N2569 C2571 1.356 . S
N2569 H2574 0.984 . S
N2569 H2575 0.985 . S
C2570 C2564 1.379 . S
C2570 C2567 1.363 . S
C2570 N2568 1.356 . S
C2571 C2565 1.363 . S
C2571 C2566 1.379 . S
C2571 N2569 1.356 . S
N2572 C2564 1.356 . S
N2572 H2578 0.984 . S
N2572 H2579 0.984 . S
N2573 C2566 1.356 . S
N2573 H2576 0.984 . S
N2573 H2577 0.985 . S
H2574 N2569 0.984 . S
H2575 N2569 0.985 . S
H2576 N2573 0.984 . S
H2577 N2573 0.985 . S
H2578 N2572 0.984 . S
H2579 N2572 0.984 . S
H2580 N2568 0.984 . S
H2581 N2568 0.985 . S
C2582 C2583 1.363 . S
C2582 C2588 1.379 . S
C2582 N2590 1.356 . S
C2583 C2582 1.363 . S
C2583 C2589 1.363 . S
C2584 C2585 1.363 . S
C2584 C2589 1.379 . S
C2584 N2591 1.356 . S
C2585 C2584 1.363 . S
C2585 C2588 1.363 . S
N2586 C2588 1.356 . S
N2586 H2598 0.984 . S
N2586 H2599 0.985 . S
N2587 C2589 1.356 . S
N2587 H2592 0.984 . S
N2587 H2593 0.985 . S
C2588 C2582 1.379 . S
C2588 C2585 1.363 . S
C2588 N2586 1.356 . S
C2589 C2583 1.363 . S
C2589 C2584 1.379 . S
C2589 N2587 1.356 . S
N2590 C2582 1.356 . S
N2590 H2596 0.984 . S
N2590 H2597 0.984 . S
N2591 C2584 1.356 . S
N2591 H2594 0.984 . S
N2591 H2595 0.985 . S
H2592 N2587 0.984 . S
H2593 N2587 0.985 . S
H2594 N2591 0.984 . S
H2595 N2591 0.985 . S
H2596 N2590 0.984 . S
H2597 N2590 0.984 . S
H2598 N2586 0.984 . S
H2599 N2586 0.985 . S
C2600 C2601 1.363 . S
C2600 C2606 1.379 . S
C2600 N2608 1.356 . S
C2601 C2600 1.363 . S
C2601 C2607 1.363 . S
C2602 C2603 1.363 . S
C2602 C2607 1.379 . S
C2602 N2609 1.356 . S
C2603 C2602 1.363 . S
C2603 C2606 1.363 . S
N2604 C2606 1.356 . S
N2604 H2616 0.984 . S
N2604 H2617 0.985 . S
N2605 C2607 1.356 . S
N2605 H2610 0.984 . S
N2605 H2611 0.985 . S
C2606 C2600 1.379 . S
C2606 C2603 1.363 . S
C2606 N2604 1.356 . S
C2607 C2601 1.363 . S
C2607 C2602 1.379 . S
C2607 N2605 1.356 . S
N2608 C2600 1.356 . S
N2608 H2614 0.984 . S
N2608 H2615 0.984 . S
N2609 C2602 1.356 . S
N2609 H2612 0.984 . S
N2609 H2613 0.985 . S
H2610 N2605 0.984 . S
H2611 N2605 0.985 . S
H2612 N2609 0.984 . S
H2613 N2609 0.985 . S
H2614 N2608 0.984 . S
H2615 N2608 0.984 . S
H2616 N2604 0.984 . S
H2617 N2604 0.985 . S
C2618 C2619 1.363 . S
C2618 C2624 1.379 . S
C2618 N2626 1.356 . S
C2619 C2618 1.363 . S
C2619 C2625 1.363 . S
C2620 C2621 1.363 . S
C2620 C2625 1.379 . S
C2620 N2627 1.356 . S
C2621 C2620 1.363 . S
C2621 C2624 1.363 . S
N2622 C2624 1.356 . S
N2622 H2634 0.984 . S
N2622 H2635 0.985 . S
N2623 C2625 1.356 . S
N2623 H2628 0.984 . S
N2623 H2629 0.985 . S
C2624 C2618 1.379 . S
C2624 C2621 1.363 . S
C2624 N2622 1.356 . S
C2625 C2619 1.363 . S
C2625 C2620 1.379 . S
C2625 N2623 1.356 . S
N2626 C2618 1.356 . S
N2626 H2632 0.984 . S
N2626 H2633 0.984 . S
N2627 C2620 1.356 . S
N2627 H2630 0.984 . S
N2627 H2631 0.985 . S
H2628 N2623 0.984 . S
H2629 N2623 0.985 . S
H2630 N2627 0.984 . S
H2631 N2627 0.985 . S
H2632 N2626 0.984 . S
H2633 N2626 0.984 . S
H2634 N2622 0.984 . S
H2635 N2622 0.985 . S
C2636 C2637 1.363 . S
C2636 C2642 1.379 . S
C2636 N2644 1.356 . S
C2637 C2636 1.363 . S
C2637 C2643 1.363 . S
C2638 C2639 1.363 . S
C2638 C2643 1.379 . S
C2638 N2645 1.356 . S
C2639 C2638 1.363 . S
C2639 C2642 1.363 . S
N2640 C2642 1.356 . S
N2640 H2652 0.984 . S
N2640 H2653 0.985 . S
N2641 C2643 1.356 . S
N2641 H2646 0.984 . S
N2641 H2647 0.985 . S
C2642 C2636 1.379 . S
C2642 C2639 1.363 . S
C2642 N2640 1.356 . S
C2643 C2637 1.363 . S
C2643 C2638 1.379 . S
C2643 N2641 1.356 . S
N2644 C2636 1.356 . S
N2644 H2650 0.984 . S
N2644 H2651 0.984 . S
N2645 C2638 1.356 . S
N2645 H2648 0.984 . S
N2645 H2649 0.985 . S
H2646 N2641 0.984 . S
H2647 N2641 0.985 . S
H2648 N2645 0.984 . S
H2649 N2645 0.985 . S
H2650 N2644 0.984 . S
H2651 N2644 0.984 . S
H2652 N2640 0.984 . S
H2653 N2640 0.985 . S
C2654 C2655 1.363 . S
C2654 C2660 1.379 . S
C2654 N2662 1.356 . S
C2655 C2654 1.363 . S
C2655 C2661 1.363 . S
C2656 C2657 1.363 . S
C2656 C2661 1.379 . S
C2656 N2663 1.356 . S
C2657 C2656 1.363 . S
C2657 C2660 1.363 . S
N2658 C2660 1.356 . S
N2658 H2670 0.984 . S
N2658 H2671 0.985 . S
N2659 C2661 1.356 . S
N2659 H2664 0.984 . S
N2659 H2665 0.985 . S
C2660 C2654 1.379 . S
C2660 C2657 1.363 . S
C2660 N2658 1.356 . S
C2661 C2655 1.363 . S
C2661 C2656 1.379 . S
C2661 N2659 1.356 . S
N2662 C2654 1.356 . S
N2662 H2668 0.984 . S
N2662 H2669 0.984 . S
N2663 C2656 1.356 . S
N2663 H2666 0.984 . S
N2663 H2667 0.985 . S
H2664 N2659 0.984 . S
H2665 N2659 0.985 . S
H2666 N2663 0.984 . S
H2667 N2663 0.985 . S
H2668 N2662 0.984 . S
H2669 N2662 0.984 . S
H2670 N2658 0.984 . S
H2671 N2658 0.985 . S
C2672 C2673 1.363 . S
C2672 C2678 1.379 . S
C2672 N2680 1.356 . S
C2673 C2672 1.363 . S
C2673 C2679 1.363 . S
C2674 C2675 1.363 . S
C2674 C2679 1.379 . S
C2674 N2681 1.356 . S
C2675 C2674 1.363 . S
C2675 C2678 1.363 . S
N2676 C2678 1.356 . S
N2676 H2688 0.984 . S
N2676 H2689 0.985 . S
N2677 C2679 1.356 . S
N2677 H2682 0.984 . S
N2677 H2683 0.985 . S
C2678 C2672 1.379 . S
C2678 C2675 1.363 . S
C2678 N2676 1.356 . S
C2679 C2673 1.363 . S
C2679 C2674 1.379 . S
C2679 N2677 1.356 . S
N2680 C2672 1.356 . S
N2680 H2686 0.984 . S
N2680 H2687 0.984 . S
N2681 C2674 1.356 . S
N2681 H2684 0.984 . S
N2681 H2685 0.985 . S
H2682 N2677 0.984 . S
H2683 N2677 0.985 . S
H2684 N2681 0.984 . S
H2685 N2681 0.985 . S
H2686 N2680 0.984 . S
H2687 N2680 0.984 . S
H2688 N2676 0.984 . S
H2689 N2676 0.985 . S
C2690 C2691 1.363 . S
C2690 C2696 1.379 . S
C2690 N2698 1.356 . S
C2691 C2690 1.363 . S
C2691 C2697 1.363 . S
C2692 C2693 1.363 . S
C2692 C2697 1.379 . S
C2692 N2699 1.356 . S
C2693 C2692 1.363 . S
C2693 C2696 1.363 . S
N2694 C2696 1.356 . S
N2694 H2706 0.984 . S
N2694 H2707 0.985 . S
N2695 C2697 1.356 . S
N2695 H2700 0.984 . S
N2695 H2701 0.985 . S
C2696 C2690 1.379 . S
C2696 C2693 1.363 . S
C2696 N2694 1.356 . S
C2697 C2691 1.363 . S
C2697 C2692 1.379 . S
C2697 N2695 1.356 . S
N2698 C2690 1.356 . S
N2698 H2704 0.984 . S
N2698 H2705 0.984 . S
N2699 C2692 1.356 . S
N2699 H2702 0.984 . S
N2699 H2703 0.985 . S
H2700 N2695 0.984 . S
H2701 N2695 0.985 . S
H2702 N2699 0.984 . S
H2703 N2699 0.985 . S
H2704 N2698 0.984 . S
H2705 N2698 0.984 . S
H2706 N2694 0.984 . S
H2707 N2694 0.985 . S
C2708 C2709 1.363 . S
C2708 C2714 1.379 . S
C2708 N2716 1.356 . S
C2709 C2708 1.363 . S
C2709 C2715 1.363 . S
C2710 C2711 1.363 . S
C2710 C2715 1.379 . S
C2710 N2717 1.356 . S
C2711 C2710 1.363 . S
C2711 C2714 1.363 . S
N2712 C2714 1.356 . S
N2712 H2724 0.984 . S
N2712 H2725 0.985 . S
N2713 C2715 1.356 . S
N2713 H2718 0.984 . S
N2713 H2719 0.985 . S
C2714 C2708 1.379 . S
C2714 C2711 1.363 . S
C2714 N2712 1.356 . S
C2715 C2709 1.363 . S
C2715 C2710 1.379 . S
C2715 N2713 1.356 . S
N2716 C2708 1.356 . S
N2716 H2722 0.984 . S
N2716 H2723 0.984 . S
N2717 C2710 1.356 . S
N2717 H2720 0.984 . S
N2717 H2721 0.985 . S
H2718 N2713 0.984 . S
H2719 N2713 0.985 . S
H2720 N2717 0.984 . S
H2721 N2717 0.985 . S
H2722 N2716 0.984 . S
H2723 N2716 0.984 . S
H2724 N2712 0.984 . S
H2725 N2712 0.985 . S
C2726 C2727 1.363 . S
C2726 C2732 1.379 . S
C2726 N2734 1.356 . S
C2727 C2726 1.363 . S
C2727 C2733 1.363 . S
C2728 C2729 1.363 . S
C2728 C2733 1.379 . S
C2728 N2735 1.356 . S
C2729 C2728 1.363 . S
C2729 C2732 1.363 . S
N2730 C2732 1.356 . S
N2730 H2742 0.984 . S
N2730 H2743 0.985 . S
N2731 C2733 1.356 . S
N2731 H2736 0.984 . S
N2731 H2737 0.985 . S
C2732 C2726 1.379 . S
C2732 C2729 1.363 . S
C2732 N2730 1.356 . S
C2733 C2727 1.363 . S
C2733 C2728 1.379 . S
C2733 N2731 1.356 . S
N2734 C2726 1.356 . S
N2734 H2740 0.984 . S
N2734 H2741 0.984 . S
N2735 C2728 1.356 . S
N2735 H2738 0.984 . S
N2735 H2739 0.985 . S
H2736 N2731 0.984 . S
H2737 N2731 0.985 . S
H2738 N2735 0.984 . S
H2739 N2735 0.985 . S
H2740 N2734 0.984 . S
H2741 N2734 0.984 . S
H2742 N2730 0.984 . S
H2743 N2730 0.985 . S
C2744 C2745 1.363 . S
C2744 C2750 1.379 . S
C2744 N2752 1.356 . S
C2745 C2744 1.363 . S
C2745 C2751 1.363 . S
C2746 C2747 1.363 . S
C2746 C2751 1.379 . S
C2746 N2753 1.356 . S
C2747 C2746 1.363 . S
C2747 C2750 1.363 . S
N2748 C2750 1.356 . S
N2748 H2760 0.984 . S
N2748 H2761 0.985 . S
N2749 C2751 1.356 . S
N2749 H2754 0.984 . S
N2749 H2755 0.985 . S
C2750 C2744 1.379 . S
C2750 C2747 1.363 . S
C2750 N2748 1.356 . S
C2751 C2745 1.363 . S
C2751 C2746 1.379 . S
C2751 N2749 1.356 . S
N2752 C2744 1.356 . S
N2752 H2758 0.984 . S
N2752 H2759 0.984 . S
N2753 C2746 1.356 . S
N2753 H2756 0.984 . S
N2753 H2757 0.985 . S
H2754 N2749 0.984 . S
H2755 N2749 0.985 . S
H2756 N2753 0.984 . S
H2757 N2753 0.985 . S
H2758 N2752 0.984 . S
H2759 N2752 0.984 . S
H2760 N2748 0.984 . S
H2761 N2748 0.985 . S
C2762 C2763 1.363 . S
C2762 C2768 1.379 . S
C2762 N2770 1.356 . S
C2763 C2762 1.363 . S
C2763 C2769 1.363 . S
C2764 C2765 1.363 . S
C2764 C2769 1.379 . S
C2764 N2771 1.356 . S
C2765 C2764 1.363 . S
C2765 C2768 1.363 . S
N2766 C2768 1.356 . S
N2766 H2778 0.984 . S
N2766 H2779 0.985 . S
N2767 C2769 1.356 . S
N2767 H2772 0.984 . S
N2767 H2773 0.985 . S
C2768 C2762 1.379 . S
C2768 C2765 1.363 . S
C2768 N2766 1.356 . S
C2769 C2763 1.363 . S
C2769 C2764 1.379 . S
C2769 N2767 1.356 . S
N2770 C2762 1.356 . S
N2770 H2776 0.984 . S
N2770 H2777 0.984 . S
N2771 C2764 1.356 . S
N2771 H2774 0.984 . S
N2771 H2775 0.985 . S
H2772 N2767 0.984 . S
H2773 N2767 0.985 . S
H2774 N2771 0.984 . S
H2775 N2771 0.985 . S
H2776 N2770 0.984 . S
H2777 N2770 0.984 . S
H2778 N2766 0.984 . S
H2779 N2766 0.985 . S
C2780 C2781 1.363 . S
C2780 C2786 1.379 . S
C2780 N2788 1.356 . S
C2781 C2780 1.363 . S
C2781 C2787 1.363 . S
C2782 C2783 1.363 . S
C2782 C2787 1.379 . S
C2782 N2789 1.356 . S
C2783 C2782 1.363 . S
C2783 C2786 1.363 . S
N2784 C2786 1.356 . S
N2784 H2796 0.984 . S
N2784 H2797 0.985 . S
N2785 C2787 1.356 . S
N2785 H2790 0.984 . S
N2785 H2791 0.985 . S
C2786 C2780 1.379 . S
C2786 C2783 1.363 . S
C2786 N2784 1.356 . S
C2787 C2781 1.363 . S
C2787 C2782 1.379 . S
C2787 N2785 1.356 . S
N2788 C2780 1.356 . S
N2788 H2794 0.984 . S
N2788 H2795 0.984 . S
N2789 C2782 1.356 . S
N2789 H2792 0.984 . S
N2789 H2793 0.985 . S
H2790 N2785 0.984 . S
H2791 N2785 0.985 . S
H2792 N2789 0.984 . S
H2793 N2789 0.985 . S
H2794 N2788 0.984 . S
H2795 N2788 0.984 . S
H2796 N2784 0.984 . S
H2797 N2784 0.985 . S
C2798 C2799 1.363 . S
C2798 C2804 1.379 . S
C2798 N2806 1.356 . S
C2799 C2798 1.363 . S
C2799 C2805 1.363 . S
C2800 C2801 1.363 . S
C2800 C2805 1.379 . S
C2800 N2807 1.356 . S
C2801 C2800 1.363 . S
C2801 C2804 1.363 . S
N2802 C2804 1.356 . S
N2802 H2814 0.984 . S
N2802 H2815 0.985 . S
N2803 C2805 1.356 . S
N2803 H2808 0.984 . S
N2803 H2809 0.985 . S
C2804 C2798 1.379 . S
C2804 C2801 1.363 . S
C2804 N2802 1.356 . S
C2805 C2799 1.363 . S
C2805 C2800 1.379 . S
C2805 N2803 1.356 . S
N2806 C2798 1.356 . S
N2806 H2812 0.984 . S
N2806 H2813 0.984 . S
N2807 C2800 1.356 . S
N2807 H2810 0.984 . S
N2807 H2811 0.985 . S
H2808 N2803 0.984 . S
H2809 N2803 0.985 . S
H2810 N2807 0.984 . S
H2811 N2807 0.985 . S
H2812 N2806 0.984 . S
H2813 N2806 0.984 . S
H2814 N2802 0.984 . S
H2815 N2802 0.985 . S
C2816 C2817 1.363 . S
C2816 C2822 1.379 . S
C2816 N2824 1.356 . S
C2817 C2816 1.363 . S
C2817 C2823 1.363 . S
C2818 C2819 1.363 . S
C2818 C2823 1.379 . S
C2818 N2825 1.356 . S
C2819 C2818 1.363 . S
C2819 C2822 1.363 . S
N2820 C2822 1.356 . S
N2820 H2832 0.984 . S
N2820 H2833 0.985 . S
N2821 C2823 1.356 . S
N2821 H2826 0.984 . S
N2821 H2827 0.985 . S
C2822 C2816 1.379 . S
C2822 C2819 1.363 . S
C2822 N2820 1.356 . S
C2823 C2817 1.363 . S
C2823 C2818 1.379 . S
C2823 N2821 1.356 . S
N2824 C2816 1.356 . S
N2824 H2830 0.984 . S
N2824 H2831 0.984 . S
N2825 C2818 1.356 . S
N2825 H2828 0.984 . S
N2825 H2829 0.985 . S
H2826 N2821 0.984 . S
H2827 N2821 0.985 . S
H2828 N2825 0.984 . S
H2829 N2825 0.985 . S
H2830 N2824 0.984 . S
H2831 N2824 0.984 . S
H2832 N2820 0.984 . S
H2833 N2820 0.985 . S
C2834 C2835 1.363 . S
C2834 C2840 1.379 . S
C2834 N2842 1.356 . S
C2835 C2834 1.363 . S
C2835 C2841 1.363 . S
C2836 C2837 1.363 . S
C2836 C2841 1.379 . S
C2836 N2843 1.356 . S
C2837 C2836 1.363 . S
C2837 C2840 1.363 . S
N2838 C2840 1.356 . S
N2838 H2850 0.984 . S
N2838 H2851 0.985 . S
N2839 C2841 1.356 . S
N2839 H2844 0.984 . S
N2839 H2845 0.985 . S
C2840 C2834 1.379 . S
C2840 C2837 1.363 . S
C2840 N2838 1.356 . S
C2841 C2835 1.363 . S
C2841 C2836 1.379 . S
C2841 N2839 1.356 . S
N2842 C2834 1.356 . S
N2842 H2848 0.984 . S
N2842 H2849 0.984 . S
N2843 C2836 1.356 . S
N2843 H2846 0.984 . S
N2843 H2847 0.985 . S
H2844 N2839 0.984 . S
H2845 N2839 0.985 . S
H2846 N2843 0.984 . S
H2847 N2843 0.985 . S
H2848 N2842 0.984 . S
H2849 N2842 0.984 . S
H2850 N2838 0.984 . S
H2851 N2838 0.985 . S
C2852 C2853 1.363 . S
C2852 C2858 1.379 . S
C2852 N2860 1.356 . S
C2853 C2852 1.363 . S
C2853 C2859 1.363 . S
C2854 C2855 1.363 . S
C2854 C2859 1.379 . S
C2854 N2861 1.356 . S
C2855 C2854 1.363 . S
C2855 C2858 1.363 . S
N2856 C2858 1.356 . S
N2856 H2868 0.984 . S
N2856 H2869 0.985 . S
N2857 C2859 1.356 . S
N2857 H2862 0.984 . S
N2857 H2863 0.985 . S
C2858 C2852 1.379 . S
C2858 C2855 1.363 . S
C2858 N2856 1.356 . S
C2859 C2853 1.363 . S
C2859 C2854 1.379 . S
C2859 N2857 1.356 . S
N2860 C2852 1.356 . S
N2860 H2866 0.984 . S
N2860 H2867 0.984 . S
N2861 C2854 1.356 . S
N2861 H2864 0.984 . S
N2861 H2865 0.985 . S
H2862 N2857 0.984 . S
H2863 N2857 0.985 . S
H2864 N2861 0.984 . S
H2865 N2861 0.985 . S
H2866 N2860 0.984 . S
H2867 N2860 0.984 . S
H2868 N2856 0.984 . S
H2869 N2856 0.985 . S
C2870 C2871 1.363 . S
C2870 C2876 1.379 . S
C2870 N2878 1.356 . S
C2871 C2870 1.363 . S
C2871 C2877 1.363 . S
C2872 C2873 1.363 . S
C2872 C2877 1.379 . S
C2872 N2879 1.356 . S
C2873 C2872 1.363 . S
C2873 C2876 1.363 . S
N2874 C2876 1.356 . S
N2874 H2886 0.984 . S
N2874 H2887 0.985 . S
N2875 C2877 1.356 . S
N2875 H2880 0.984 . S
N2875 H2881 0.985 . S
C2876 C2870 1.379 . S
C2876 C2873 1.363 . S
C2876 N2874 1.356 . S
C2877 C2871 1.363 . S
C2877 C2872 1.379 . S
C2877 N2875 1.356 . S
N2878 C2870 1.356 . S
N2878 H2884 0.984 . S
N2878 H2885 0.984 . S
N2879 C2872 1.356 . S
N2879 H2882 0.984 . S
N2879 H2883 0.985 . S
H2880 N2875 0.984 . S
H2881 N2875 0.985 . S
H2882 N2879 0.984 . S
H2883 N2879 0.985 . S
H2884 N2878 0.984 . S
H2885 N2878 0.984 . S
H2886 N2874 0.984 . S
H2887 N2874 0.985 . S
C2888 C2889 1.363 . S
C2888 C2894 1.379 . S
C2888 N2896 1.356 . S
C2889 C2888 1.363 . S
C2889 C2895 1.363 . S
C2890 C2891 1.363 . S
C2890 C2895 1.379 . S
C2890 N2897 1.356 . S
C2891 C2890 1.363 . S
C2891 C2894 1.363 . S
N2892 C2894 1.356 . S
N2892 H2904 0.984 . S
N2892 H2905 0.985 . S
N2893 C2895 1.356 . S
N2893 H2898 0.984 . S
N2893 H2899 0.985 . S
C2894 C2888 1.379 . S
C2894 C2891 1.363 . S
C2894 N2892 1.356 . S
C2895 C2889 1.363 . S
C2895 C2890 1.379 . S
C2895 N2893 1.356 . S
N2896 C2888 1.356 . S
N2896 H2902 0.984 . S
N2896 H2903 0.984 . S
N2897 C2890 1.356 . S
N2897 H2900 0.984 . S
N2897 H2901 0.985 . S
H2898 N2893 0.984 . S
H2899 N2893 0.985 . S
H2900 N2897 0.984 . S
H2901 N2897 0.985 . S
H2902 N2896 0.984 . S
H2903 N2896 0.984 . S
H2904 N2892 0.984 . S
H2905 N2892 0.985 . S
C2906 C2907 1.363 . S
C2906 C2912 1.379 . S
C2906 N2914 1.356 . S
C2907 C2906 1.363 . S
C2907 C2913 1.363 . S
C2908 C2909 1.363 . S
C2908 C2913 1.379 . S
C2908 N2915 1.356 . S
C2909 C2908 1.363 . S
C2909 C2912 1.363 . S
N2910 C2912 1.356 . S
N2910 H2922 0.984 . S
N2910 H2923 0.985 . S
N2911 C2913 1.356 . S
N2911 H2916 0.984 . S
N2911 H2917 0.985 . S
C2912 C2906 1.379 . S
C2912 C2909 1.363 . S
C2912 N2910 1.356 . S
C2913 C2907 1.363 . S
C2913 C2908 1.379 . S
C2913 N2911 1.356 . S
N2914 C2906 1.356 . S
N2914 H2920 0.984 . S
N2914 H2921 0.984 . S
N2915 C2908 1.356 . S
N2915 H2918 0.984 . S
N2915 H2919 0.985 . S
H2916 N2911 0.984 . S
H2917 N2911 0.985 . S
H2918 N2915 0.984 . S
H2919 N2915 0.985 . S
H2920 N2914 0.984 . S
H2921 N2914 0.984 . S
H2922 N2910 0.984 . S
H2923 N2910 0.985 . S
C2924 C2925 1.363 . S
C2924 C2930 1.379 . S
C2924 N2932 1.356 . S
C2925 C2924 1.363 . S
C2925 C2931 1.363 . S
C2926 C2927 1.363 . S
C2926 C2931 1.379 . S
C2926 N2933 1.356 . S
C2927 C2926 1.363 . S
C2927 C2930 1.363 . S
N2928 C2930 1.356 . S
N2928 H2940 0.984 . S
N2928 H2941 0.985 . S
N2929 C2931 1.356 . S
N2929 H2934 0.984 . S
N2929 H2935 0.985 . S
C2930 C2924 1.379 . S
C2930 C2927 1.363 . S
C2930 N2928 1.356 . S
C2931 C2925 1.363 . S
C2931 C2926 1.379 . S
C2931 N2929 1.356 . S
N2932 C2924 1.356 . S
N2932 H2938 0.984 . S
N2932 H2939 0.984 . S
N2933 C2926 1.356 . S
N2933 H2936 0.984 . S
N2933 H2937 0.985 . S
H2934 N2929 0.984 . S
H2935 N2929 0.985 . S
H2936 N2933 0.984 . S
H2937 N2933 0.985 . S
H2938 N2932 0.984 . S
H2939 N2932 0.984 . S
H2940 N2928 0.984 . S
H2941 N2928 0.985 . S
C2942 C2943 1.363 . S
C2942 C2948 1.379 . S
C2942 N2950 1.356 . S
C2943 C2942 1.363 . S
C2943 C2949 1.363 . S
C2944 C2945 1.363 . S
C2944 C2949 1.379 . S
C2944 N2951 1.356 . S
C2945 C2944 1.363 . S
C2945 C2948 1.363 . S
N2946 C2948 1.356 . S
N2946 H2958 0.984 . S
N2946 H2959 0.985 . S
N2947 C2949 1.356 . S
N2947 H2952 0.984 . S
N2947 H2953 0.985 . S
C2948 C2942 1.379 . S
C2948 C2945 1.363 . S
C2948 N2946 1.356 . S
C2949 C2943 1.363 . S
C2949 C2944 1.379 . S
C2949 N2947 1.356 . S
N2950 C2942 1.356 . S
N2950 H2956 0.984 . S
N2950 H2957 0.984 . S
N2951 C2944 1.356 . S
N2951 H2954 0.984 . S
N2951 H2955 0.985 . S
H2952 N2947 0.984 . S
H2953 N2947 0.985 . S
H2954 N2951 0.984 . S
H2955 N2951 0.985 . S
H2956 N2950 0.984 . S
H2957 N2950 0.984 . S
H2958 N2946 0.984 . S
H2959 N2946 0.985 . S
C2960 C2961 1.363 . S
C2960 C2966 1.379 . S
C2960 N2968 1.356 . S
C2961 C2960 1.363 . S
C2961 C2967 1.363 . S
C2962 C2963 1.363 . S
C2962 C2967 1.379 . S
C2962 N2969 1.356 . S
C2963 C2962 1.363 . S
C2963 C2966 1.363 . S
N2964 C2966 1.356 . S
N2964 H2976 0.984 . S
N2964 H2977 0.985 . S
N2965 C2967 1.356 . S
N2965 H2970 0.984 . S
N2965 H2971 0.985 . S
C2966 C2960 1.379 . S
C2966 C2963 1.363 . S
C2966 N2964 1.356 . S
C2967 C2961 1.363 . S
C2967 C2962 1.379 . S
C2967 N2965 1.356 . S
N2968 C2960 1.356 . S
N2968 H2974 0.984 . S
N2968 H2975 0.984 . S
N2969 C2962 1.356 . S
N2969 H2972 0.984 . S
N2969 H2973 0.985 . S
H2970 N2965 0.984 . S
H2971 N2965 0.985 . S
H2972 N2969 0.984 . S
H2973 N2969 0.985 . S
H2974 N2968 0.984 . S
H2975 N2968 0.984 . S
H2976 N2964 0.984 . S
H2977 N2964 0.985 . S
C2978 C2979 1.363 . S
C2978 C2984 1.379 . S
C2978 N2986 1.356 . S
C2979 C2978 1.363 . S
C2979 C2985 1.363 . S
C2980 C2981 1.363 . S
C2980 C2985 1.379 . S
C2980 N2987 1.356 . S
C2981 C2980 1.363 . S
C2981 C2984 1.363 . S
N2982 C2984 1.356 . S
N2982 H2994 0.984 . S
N2982 H2995 0.985 . S
N2983 C2985 1.356 . S
N2983 H2988 0.984 . S
N2983 H2989 0.985 . S
C2984 C2978 1.379 . S
C2984 C2981 1.363 . S
C2984 N2982 1.356 . S
C2985 C2979 1.363 . S
C2985 C2980 1.379 . S
C2985 N2983 1.356 . S
N2986 C2978 1.356 . S
N2986 H2992 0.984 . S
N2986 H2993 0.984 . S
N2987 C2980 1.356 . S
N2987 H2990 0.984 . S
N2987 H2991 0.985 . S
H2988 N2983 0.984 . S
H2989 N2983 0.985 . S
H2990 N2987 0.984 . S
H2991 N2987 0.985 . S
H2992 N2986 0.984 . S
H2993 N2986 0.984 . S
H2994 N2982 0.984 . S
H2995 N2982 0.985 . S
C2996 C2997 1.363 . S
C2996 C3002 1.379 . S
C2996 N3004 1.356 . S
C2997 C2996 1.363 . S
C2997 C3003 1.363 . S
C2998 C2999 1.363 . S
C2998 C3003 1.379 . S
C2998 N3005 1.356 . S
C2999 C2998 1.363 . S
C2999 C3002 1.363 . S
N3000 C3002 1.356 . S
N3000 H3012 0.984 . S
N3000 H3013 0.985 . S
N3001 C3003 1.356 . S
N3001 H3006 0.984 . S
N3001 H3007 0.985 . S
C3002 C2996 1.379 . S
C3002 C2999 1.363 . S
C3002 N3000 1.356 . S
C3003 C2997 1.363 . S
C3003 C2998 1.379 . S
C3003 N3001 1.356 . S
N3004 C2996 1.356 . S
N3004 H3010 0.984 . S
N3004 H3011 0.984 . S
N3005 C2998 1.356 . S
N3005 H3008 0.984 . S
N3005 H3009 0.985 . S
H3006 N3001 0.984 . S
H3007 N3001 0.985 . S
H3008 N3005 0.984 . S
H3009 N3005 0.985 . S
H3010 N3004 0.984 . S
H3011 N3004 0.984 . S
H3012 N3000 0.984 . S
H3013 N3000 0.985 . S
C3014 C3015 1.363 . S
C3014 C3020 1.379 . S
C3014 N3022 1.356 . S
C3015 C3014 1.363 . S
C3015 C3021 1.363 . S
C3016 C3017 1.363 . S
C3016 C3021 1.379 . S
C3016 N3023 1.356 . S
C3017 C3016 1.363 . S
C3017 C3020 1.363 . S
N3018 C3020 1.356 . S
N3018 H3030 0.984 . S
N3018 H3031 0.985 . S
N3019 C3021 1.356 . S
N3019 H3024 0.984 . S
N3019 H3025 0.985 . S
C3020 C3014 1.379 . S
C3020 C3017 1.363 . S
C3020 N3018 1.356 . S
C3021 C3015 1.363 . S
C3021 C3016 1.379 . S
C3021 N3019 1.356 . S
N3022 C3014 1.356 . S
N3022 H3028 0.984 . S
N3022 H3029 0.984 . S
N3023 C3016 1.356 . S
N3023 H3026 0.984 . S
N3023 H3027 0.985 . S
H3024 N3019 0.984 . S
H3025 N3019 0.985 . S
H3026 N3023 0.984 . S
H3027 N3023 0.985 . S
H3028 N3022 0.984 . S
H3029 N3022 0.984 . S
H3030 N3018 0.984 . S
H3031 N3018 0.985 . S
C3032 C3033 1.363 . S
C3032 C3038 1.379 . S
C3032 N3040 1.356 . S
C3033 C3032 1.363 . S
C3033 C3039 1.363 . S
C3034 C3035 1.363 . S
C3034 C3039 1.379 . S
C3034 N3041 1.356 . S
C3035 C3034 1.363 . S
C3035 C3038 1.363 . S
N3036 C3038 1.356 . S
N3036 H3048 0.984 . S
N3036 H3049 0.985 . S
N3037 C3039 1.356 . S
N3037 H3042 0.984 . S
N3037 H3043 0.985 . S
C3038 C3032 1.379 . S
C3038 C3035 1.363 . S
C3038 N3036 1.356 . S
C3039 C3033 1.363 . S
C3039 C3034 1.379 . S
C3039 N3037 1.356 . S
N3040 C3032 1.356 . S
N3040 H3046 0.984 . S
N3040 H3047 0.984 . S
N3041 C3034 1.356 . S
N3041 H3044 0.984 . S
N3041 H3045 0.985 . S
H3042 N3037 0.984 . S
H3043 N3037 0.985 . S
H3044 N3041 0.984 . S
H3045 N3041 0.985 . S
H3046 N3040 0.984 . S
H3047 N3040 0.984 . S
H3048 N3036 0.984 . S
H3049 N3036 0.985 . S
C3050 C3051 1.363 . S
C3050 C3056 1.379 . S
C3050 N3058 1.356 . S
C3051 C3050 1.363 . S
C3051 C3057 1.363 . S
C3052 C3053 1.363 . S
C3052 C3057 1.379 . S
C3052 N3059 1.356 . S
C3053 C3052 1.363 . S
C3053 C3056 1.363 . S
N3054 C3056 1.356 . S
N3054 H3066 0.984 . S
N3054 H3067 0.985 . S
N3055 C3057 1.356 . S
N3055 H3060 0.984 . S
N3055 H3061 0.985 . S
C3056 C3050 1.379 . S
C3056 C3053 1.363 . S
C3056 N3054 1.356 . S
C3057 C3051 1.363 . S
C3057 C3052 1.379 . S
C3057 N3055 1.356 . S
N3058 C3050 1.356 . S
N3058 H3064 0.984 . S
N3058 H3065 0.984 . S
N3059 C3052 1.356 . S
N3059 H3062 0.984 . S
N3059 H3063 0.985 . S
H3060 N3055 0.984 . S
H3061 N3055 0.985 . S
H3062 N3059 0.984 . S
H3063 N3059 0.985 . S
H3064 N3058 0.984 . S
H3065 N3058 0.984 . S
H3066 N3054 0.984 . S
H3067 N3054 0.985 . S
C3068 C3069 1.363 . S
C3068 C3074 1.379 . S
C3068 N3076 1.356 . S
C3069 C3068 1.363 . S
C3069 C3075 1.363 . S
C3070 C3071 1.363 . S
C3070 C3075 1.379 . S
C3070 N3077 1.356 . S
C3071 C3070 1.363 . S
C3071 C3074 1.363 . S
N3072 C3074 1.356 . S
N3072 H3084 0.984 . S
N3072 H3085 0.985 . S
N3073 C3075 1.356 . S
N3073 H3078 0.984 . S
N3073 H3079 0.985 . S
C3074 C3068 1.379 . S
C3074 C3071 1.363 . S
C3074 N3072 1.356 . S
C3075 C3069 1.363 . S
C3075 C3070 1.379 . S
C3075 N3073 1.356 . S
N3076 C3068 1.356 . S
N3076 H3082 0.984 . S
N3076 H3083 0.984 . S
N3077 C3070 1.356 . S
N3077 H3080 0.984 . S
N3077 H3081 0.985 . S
H3078 N3073 0.984 . S
H3079 N3073 0.985 . S
H3080 N3077 0.984 . S
H3081 N3077 0.985 . S
H3082 N3076 0.984 . S
H3083 N3076 0.984 . S
H3084 N3072 0.984 . S
H3085 N3072 0.985 . S
C3086 C3087 1.363 . S
C3086 C3092 1.379 . S
C3086 N3094 1.356 . S
C3087 C3086 1.363 . S
C3087 C3093 1.363 . S
C3088 C3089 1.363 . S
C3088 C3093 1.379 . S
C3088 N3095 1.356 . S
C3089 C3088 1.363 . S
C3089 C3092 1.363 . S
N3090 C3092 1.356 . S
N3090 H3102 0.984 . S
N3090 H3103 0.985 . S
N3091 C3093 1.356 . S
N3091 H3096 0.984 . S
N3091 H3097 0.985 . S
C3092 C3086 1.379 . S
C3092 C3089 1.363 . S
C3092 N3090 1.356 . S
C3093 C3087 1.363 . S
C3093 C3088 1.379 . S
C3093 N3091 1.356 . S
N3094 C3086 1.356 . S
N3094 H3100 0.984 . S
N3094 H3101 0.984 . S
N3095 C3088 1.356 . S
N3095 H3098 0.984 . S
N3095 H3099 0.985 . S
H3096 N3091 0.984 . S
H3097 N3091 0.985 . S
H3098 N3095 0.984 . S
H3099 N3095 0.985 . S
H3100 N3094 0.984 . S
H3101 N3094 0.984 . S
H3102 N3090 0.984 . S
H3103 N3090 0.985 . S
C3104 C3105 1.363 . S
C3104 C3110 1.379 . S
C3104 N3112 1.356 . S
C3105 C3104 1.363 . S
C3105 C3111 1.363 . S
C3106 C3107 1.363 . S
C3106 C3111 1.379 . S
C3106 N3113 1.356 . S
C3107 C3106 1.363 . S
C3107 C3110 1.363 . S
N3108 C3110 1.356 . S
N3108 H3120 0.984 . S
N3108 H3121 0.985 . S
N3109 C3111 1.356 . S
N3109 H3114 0.984 . S
N3109 H3115 0.985 . S
C3110 C3104 1.379 . S
C3110 C3107 1.363 . S
C3110 N3108 1.356 . S
C3111 C3105 1.363 . S
C3111 C3106 1.379 . S
C3111 N3109 1.356 . S
N3112 C3104 1.356 . S
N3112 H3118 0.984 . S
N3112 H3119 0.984 . S
N3113 C3106 1.356 . S
N3113 H3116 0.984 . S
N3113 H3117 0.985 . S
H3114 N3109 0.984 . S
H3115 N3109 0.985 . S
H3116 N3113 0.984 . S
H3117 N3113 0.985 . S
H3118 N3112 0.984 . S
H3119 N3112 0.984 . S
H3120 N3108 0.984 . S
H3121 N3108 0.985 . S
C3122 C3123 1.363 . S
C3122 C3128 1.379 . S
C3122 N3130 1.356 . S
C3123 C3122 1.363 . S
C3123 C3129 1.363 . S
C3124 C3125 1.363 . S
C3124 C3129 1.379 . S
C3124 N3131 1.356 . S
C3125 C3124 1.363 . S
C3125 C3128 1.363 . S
N3126 C3128 1.356 . S
N3126 H3138 0.984 . S
N3126 H3139 0.985 . S
N3127 C3129 1.356 . S
N3127 H3132 0.984 . S
N3127 H3133 0.985 . S
C3128 C3122 1.379 . S
C3128 C3125 1.363 . S
C3128 N3126 1.356 . S
C3129 C3123 1.363 . S
C3129 C3124 1.379 . S
C3129 N3127 1.356 . S
N3130 C3122 1.356 . S
N3130 H3136 0.984 . S
N3130 H3137 0.984 . S
N3131 C3124 1.356 . S
N3131 H3134 0.984 . S
N3131 H3135 0.985 . S
H3132 N3127 0.984 . S
H3133 N3127 0.985 . S
H3134 N3131 0.984 . S
H3135 N3131 0.985 . S
H3136 N3130 0.984 . S
H3137 N3130 0.984 . S
H3138 N3126 0.984 . S
H3139 N3126 0.985 . S
C3140 C3141 1.363 . S
C3140 C3146 1.379 . S
C3140 N3148 1.356 . S
C3141 C3140 1.363 . S
C3141 C3147 1.363 . S
C3142 C3143 1.363 . S
C3142 C3147 1.379 . S
C3142 N3149 1.356 . S
C3143 C3142 1.363 . S
C3143 C3146 1.363 . S
N3144 C3146 1.356 . S
N3144 H3156 0.984 . S
N3144 H3157 0.985 . S
N3145 C3147 1.356 . S
N3145 H3150 0.984 . S
N3145 H3151 0.985 . S
C3146 C3140 1.379 . S
C3146 C3143 1.363 . S
C3146 N3144 1.356 . S
C3147 C3141 1.363 . S
C3147 C3142 1.379 . S
C3147 N3145 1.356 . S
N3148 C3140 1.356 . S
N3148 H3154 0.984 . S
N3148 H3155 0.984 . S
N3149 C3142 1.356 . S
N3149 H3152 0.984 . S
N3149 H3153 0.985 . S
H3150 N3145 0.984 . S
H3151 N3145 0.985 . S
H3152 N3149 0.984 . S
H3153 N3149 0.985 . S
H3154 N3148 0.984 . S
H3155 N3148 0.984 . S
H3156 N3144 0.984 . S
H3157 N3144 0.985 . S
C3158 C3159 1.363 . S
C3158 C3164 1.379 . S
C3158 N3166 1.356 . S
C3159 C3158 1.363 . S
C3159 C3165 1.363 . S
C3160 C3161 1.363 . S
C3160 C3165 1.379 . S
C3160 N3167 1.356 . S
C3161 C3160 1.363 . S
C3161 C3164 1.363 . S
N3162 C3164 1.356 . S
N3162 H3174 0.984 . S
N3162 H3175 0.985 . S
N3163 C3165 1.356 . S
N3163 H3168 0.984 . S
N3163 H3169 0.985 . S
C3164 C3158 1.379 . S
C3164 C3161 1.363 . S
C3164 N3162 1.356 . S
C3165 C3159 1.363 . S
C3165 C3160 1.379 . S
C3165 N3163 1.356 . S
N3166 C3158 1.356 . S
N3166 H3172 0.984 . S
N3166 H3173 0.984 . S
N3167 C3160 1.356 . S
N3167 H3170 0.984 . S
N3167 H3171 0.985 . S
H3168 N3163 0.984 . S
H3169 N3163 0.985 . S
H3170 N3167 0.984 . S
H3171 N3167 0.985 . S
H3172 N3166 0.984 . S
H3173 N3166 0.984 . S
H3174 N3162 0.984 . S
H3175 N3162 0.985 . S
C3176 C3177 1.363 . S
C3176 C3182 1.379 . S
C3176 N3184 1.356 . S
C3177 C3176 1.363 . S
C3177 C3183 1.363 . S
C3178 C3179 1.363 . S
C3178 C3183 1.379 . S
C3178 N3185 1.356 . S
C3179 C3178 1.363 . S
C3179 C3182 1.363 . S
N3180 C3182 1.356 . S
N3180 H3192 0.984 . S
N3180 H3193 0.985 . S
N3181 C3183 1.356 . S
N3181 H3186 0.984 . S
N3181 H3187 0.985 . S
C3182 C3176 1.379 . S
C3182 C3179 1.363 . S
C3182 N3180 1.356 . S
C3183 C3177 1.363 . S
C3183 C3178 1.379 . S
C3183 N3181 1.356 . S
N3184 C3176 1.356 . S
N3184 H3190 0.984 . S
N3184 H3191 0.984 . S
N3185 C3178 1.356 . S
N3185 H3188 0.984 . S
N3185 H3189 0.985 . S
H3186 N3181 0.984 . S
H3187 N3181 0.985 . S
H3188 N3185 0.984 . S
H3189 N3185 0.985 . S
H3190 N3184 0.984 . S
H3191 N3184 0.984 . S
H3192 N3180 0.984 . S
H3193 N3180 0.985 . S
C3194 C3195 1.363 . S
C3194 C3200 1.379 . S
C3194 N3202 1.356 . S
C3195 C3194 1.363 . S
C3195 C3201 1.363 . S
C3196 C3197 1.363 . S
C3196 C3201 1.379 . S
C3196 N3203 1.356 . S
C3197 C3196 1.363 . S
C3197 C3200 1.363 . S
N3198 C3200 1.356 . S
N3198 H3210 0.984 . S
N3198 H3211 0.985 . S
N3199 C3201 1.356 . S
N3199 H3204 0.984 . S
N3199 H3205 0.985 . S
C3200 C3194 1.379 . S
C3200 C3197 1.363 . S
C3200 N3198 1.356 . S
C3201 C3195 1.363 . S
C3201 C3196 1.379 . S
C3201 N3199 1.356 . S
N3202 C3194 1.356 . S
N3202 H3208 0.984 . S
N3202 H3209 0.984 . S
N3203 C3196 1.356 . S
N3203 H3206 0.984 . S
N3203 H3207 0.985 . S
H3204 N3199 0.984 . S
H3205 N3199 0.985 . S
H3206 N3203 0.984 . S
H3207 N3203 0.985 . S
H3208 N3202 0.984 . S
H3209 N3202 0.984 . S
H3210 N3198 0.984 . S
H3211 N3198 0.985 . S
C3212 C3213 1.363 . S
C3212 C3218 1.379 . S
C3212 N3220 1.356 . S
C3213 C3212 1.363 . S
C3213 C3219 1.363 . S
C3214 C3215 1.363 . S
C3214 C3219 1.379 . S
C3214 N3221 1.356 . S
C3215 C3214 1.363 . S
C3215 C3218 1.363 . S
N3216 C3218 1.356 . S
N3216 H3228 0.984 . S
N3216 H3229 0.985 . S
N3217 C3219 1.356 . S
N3217 H3222 0.984 . S
N3217 H3223 0.985 . S
C3218 C3212 1.379 . S
C3218 C3215 1.363 . S
C3218 N3216 1.356 . S
C3219 C3213 1.363 . S
C3219 C3214 1.379 . S
C3219 N3217 1.356 . S
N3220 C3212 1.356 . S
N3220 H3226 0.984 . S
N3220 H3227 0.984 . S
N3221 C3214 1.356 . S
N3221 H3224 0.984 . S
N3221 H3225 0.985 . S
H3222 N3217 0.984 . S
H3223 N3217 0.985 . S
H3224 N3221 0.984 . S
H3225 N3221 0.985 . S
H3226 N3220 0.984 . S
H3227 N3220 0.984 . S
H3228 N3216 0.984 . S
H3229 N3216 0.985 . S
C3230 C3231 1.363 . S
C3230 C3236 1.379 . S
C3230 N3238 1.356 . S
C3231 C3230 1.363 . S
C3231 C3237 1.363 . S
C3232 C3233 1.363 . S
C3232 C3237 1.379 . S
C3232 N3239 1.356 . S
C3233 C3232 1.363 . S
C3233 C3236 1.363 . S
N3234 C3236 1.356 . S
N3234 H3246 0.984 . S
N3234 H3247 0.985 . S
N3235 C3237 1.356 . S
N3235 H3240 0.984 . S
N3235 H3241 0.985 . S
C3236 C3230 1.379 . S
C3236 C3233 1.363 . S
C3236 N3234 1.356 . S
C3237 C3231 1.363 . S
C3237 C3232 1.379 . S
C3237 N3235 1.356 . S
N3238 C3230 1.356 . S
N3238 H3244 0.984 . S
N3238 H3245 0.984 . S
N3239 C3232 1.356 . S
N3239 H3242 0.984 . S
N3239 H3243 0.985 . S
H3240 N3235 0.984 . S
H3241 N3235 0.985 . S
H3242 N3239 0.984 . S
H3243 N3239 0.985 . S
H3244 N3238 0.984 . S
H3245 N3238 0.984 . S
H3246 N3234 0.984 . S
H3247 N3234 0.985 . S
C3248 C3249 1.363 . S
C3248 C3254 1.379 . S
C3248 N3256 1.356 . S
C3249 C3248 1.363 . S
C3249 C3255 1.363 . S
C3250 C3251 1.363 . S
C3250 C3255 1.379 . S
C3250 N3257 1.356 . S
C3251 C3250 1.363 . S
C3251 C3254 1.363 . S
N3252 C3254 1.356 . S
N3252 H3264 0.984 . S
N3252 H3265 0.985 . S
N3253 C3255 1.356 . S
N3253 H3258 0.984 . S
N3253 H3259 0.985 . S
C3254 C3248 1.379 . S
C3254 C3251 1.363 . S
C3254 N3252 1.356 . S
C3255 C3249 1.363 . S
C3255 C3250 1.379 . S
C3255 N3253 1.356 . S
N3256 C3248 1.356 . S
N3256 H3262 0.984 . S
N3256 H3263 0.984 . S
N3257 C3250 1.356 . S
N3257 H3260 0.984 . S
N3257 H3261 0.985 . S
H3258 N3253 0.984 . S
H3259 N3253 0.985 . S
H3260 N3257 0.984 . S
H3261 N3257 0.985 . S
H3262 N3256 0.984 . S
H3263 N3256 0.984 . S
H3264 N3252 0.984 . S
H3265 N3252 0.985 . S
C3266 C3267 1.363 . S
C3266 C3272 1.379 . S
C3266 N3274 1.356 . S
C3267 C3266 1.363 . S
C3267 C3273 1.363 . S
C3268 C3269 1.363 . S
C3268 C3273 1.379 . S
C3268 N3275 1.356 . S
C3269 C3268 1.363 . S
C3269 C3272 1.363 . S
N3270 C3272 1.356 . S
N3270 H3282 0.984 . S
N3270 H3283 0.985 . S
N3271 C3273 1.356 . S
N3271 H3276 0.984 . S
N3271 H3277 0.985 . S
C3272 C3266 1.379 . S
C3272 C3269 1.363 . S
C3272 N3270 1.356 . S
C3273 C3267 1.363 . S
C3273 C3268 1.379 . S
C3273 N3271 1.356 . S
N3274 C3266 1.356 . S
N3274 H3280 0.984 . S
N3274 H3281 0.984 . S
N3275 C3268 1.356 . S
N3275 H3278 0.984 . S
N3275 H3279 0.985 . S
H3276 N3271 0.984 . S
H3277 N3271 0.985 . S
H3278 N3275 0.984 . S
H3279 N3275 0.985 . S
H3280 N3274 0.984 . S
H3281 N3274 0.984 . S
H3282 N3270 0.984 . S
H3283 N3270 0.985 . S
C3284 C3285 1.363 . S
C3284 C3290 1.379 . S
C3284 N3292 1.356 . S
C3285 C3284 1.363 . S
C3285 C3291 1.363 . S
C3286 C3287 1.363 . S
C3286 C3291 1.379 . S
C3286 N3293 1.356 . S
C3287 C3286 1.363 . S
C3287 C3290 1.363 . S
N3288 C3290 1.356 . S
N3288 H3300 0.984 . S
N3288 H3301 0.985 . S
N3289 C3291 1.356 . S
N3289 H3294 0.984 . S
N3289 H3295 0.985 . S
C3290 C3284 1.379 . S
C3290 C3287 1.363 . S
C3290 N3288 1.356 . S
C3291 C3285 1.363 . S
C3291 C3286 1.379 . S
C3291 N3289 1.356 . S
N3292 C3284 1.356 . S
N3292 H3298 0.984 . S
N3292 H3299 0.984 . S
N3293 C3286 1.356 . S
N3293 H3296 0.984 . S
N3293 H3297 0.985 . S
H3294 N3289 0.984 . S
H3295 N3289 0.985 . S
H3296 N3293 0.984 . S
H3297 N3293 0.985 . S
H3298 N3292 0.984 . S
H3299 N3292 0.984 . S
H3300 N3288 0.984 . S
H3301 N3288 0.985 . S
C3302 C3303 1.363 . S
C3302 C3308 1.379 . S
C3302 N3310 1.356 . S
C3303 C3302 1.363 . S
C3303 C3309 1.363 . S
C3304 C3305 1.363 . S
C3304 C3309 1.379 . S
C3304 N3311 1.356 . S
C3305 C3304 1.363 . S
C3305 C3308 1.363 . S
N3306 C3308 1.356 . S
N3306 H3318 0.984 . S
N3306 H3319 0.985 . S
N3307 C3309 1.356 . S
N3307 H3312 0.984 . S
N3307 H3313 0.985 . S
C3308 C3302 1.379 . S
C3308 C3305 1.363 . S
C3308 N3306 1.356 . S
C3309 C3303 1.363 . S
C3309 C3304 1.379 . S
C3309 N3307 1.356 . S
N3310 C3302 1.356 . S
N3310 H3316 0.984 . S
N3310 H3317 0.984 . S
N3311 C3304 1.356 . S
N3311 H3314 0.984 . S
N3311 H3315 0.985 . S
H3312 N3307 0.984 . S
H3313 N3307 0.985 . S
H3314 N3311 0.984 . S
H3315 N3311 0.985 . S
H3316 N3310 0.984 . S
H3317 N3310 0.984 . S
H3318 N3306 0.984 . S
H3319 N3306 0.985 . S
C3320 C3321 1.363 . S
C3320 C3326 1.379 . S
C3320 N3328 1.356 . S
C3321 C3320 1.363 . S
C3321 C3327 1.363 . S
C3322 C3323 1.363 . S
C3322 C3327 1.379 . S
C3322 N3329 1.356 . S
C3323 C3322 1.363 . S
C3323 C3326 1.363 . S
N3324 C3326 1.356 . S
N3324 H3336 0.984 . S
N3324 H3337 0.985 . S
N3325 C3327 1.356 . S
N3325 H3330 0.984 . S
N3325 H3331 0.985 . S
C3326 C3320 1.379 . S
C3326 C3323 1.363 . S
C3326 N3324 1.356 . S
C3327 C3321 1.363 . S
C3327 C3322 1.379 . S
C3327 N3325 1.356 . S
N3328 C3320 1.356 . S
N3328 H3334 0.984 . S
N3328 H3335 0.984 . S
N3329 C3322 1.356 . S
N3329 H3332 0.984 . S
N3329 H3333 0.985 . S
H3330 N3325 0.984 . S
H3331 N3325 0.985 . S
H3332 N3329 0.984 . S
H3333 N3329 0.985 . S
H3334 N3328 0.984 . S
H3335 N3328 0.984 . S
H3336 N3324 0.984 . S
H3337 N3324 0.985 . S
C3338 C3339 1.363 . S
C3338 C3344 1.379 . S
C3338 N3346 1.356 . S
C3339 C3338 1.363 . S
C3339 C3345 1.363 . S
C3340 C3341 1.363 . S
C3340 C3345 1.379 . S
C3340 N3347 1.356 . S
C3341 C3340 1.363 . S
C3341 C3344 1.363 . S
N3342 C3344 1.356 . S
N3342 H3354 0.984 . S
N3342 H3355 0.985 . S
N3343 C3345 1.356 . S
N3343 H3348 0.984 . S
N3343 H3349 0.985 . S
C3344 C3338 1.379 . S
C3344 C3341 1.363 . S
C3344 N3342 1.356 . S
C3345 C3339 1.363 . S
C3345 C3340 1.379 . S
C3345 N3343 1.356 . S
N3346 C3338 1.356 . S
N3346 H3352 0.984 . S
N3346 H3353 0.984 . S
N3347 C3340 1.356 . S
N3347 H3350 0.984 . S
N3347 H3351 0.985 . S
H3348 N3343 0.984 . S
H3349 N3343 0.985 . S
H3350 N3347 0.984 . S
H3351 N3347 0.985 . S
H3352 N3346 0.984 . S
H3353 N3346 0.984 . S
H3354 N3342 0.984 . S
H3355 N3342 0.985 . S
C3356 C3357 1.363 . S
C3356 C3362 1.379 . S
C3356 N3364 1.356 . S
C3357 C3356 1.363 . S
C3357 C3363 1.363 . S
C3358 C3359 1.363 . S
C3358 C3363 1.379 . S
C3358 N3365 1.356 . S
C3359 C3358 1.363 . S
C3359 C3362 1.363 . S
N3360 C3362 1.356 . S
N3360 H3372 0.984 . S
N3360 H3373 0.985 . S
N3361 C3363 1.356 . S
N3361 H3366 0.984 . S
N3361 H3367 0.985 . S
C3362 C3356 1.379 . S
C3362 C3359 1.363 . S
C3362 N3360 1.356 . S
C3363 C3357 1.363 . S
C3363 C3358 1.379 . S
C3363 N3361 1.356 . S
N3364 C3356 1.356 . S
N3364 H3370 0.984 . S
N3364 H3371 0.984 . S
N3365 C3358 1.356 . S
N3365 H3368 0.984 . S
N3365 H3369 0.985 . S
H3366 N3361 0.984 . S
H3367 N3361 0.985 . S
H3368 N3365 0.984 . S
H3369 N3365 0.985 . S
H3370 N3364 0.984 . S
H3371 N3364 0.984 . S
H3372 N3360 0.984 . S
H3373 N3360 0.985 . S
C3374 C3375 1.363 . S
C3374 C3380 1.379 . S
C3374 N3382 1.356 . S
C3375 C3374 1.363 . S
C3375 C3381 1.363 . S
C3376 C3377 1.363 . S
C3376 C3381 1.379 . S
C3376 N3383 1.356 . S
C3377 C3376 1.363 . S
C3377 C3380 1.363 . S
N3378 C3380 1.356 . S
N3378 H3390 0.984 . S
N3378 H3391 0.985 . S
N3379 C3381 1.356 . S
N3379 H3384 0.984 . S
N3379 H3385 0.985 . S
C3380 C3374 1.379 . S
C3380 C3377 1.363 . S
C3380 N3378 1.356 . S
C3381 C3375 1.363 . S
C3381 C3376 1.379 . S
C3381 N3379 1.356 . S
N3382 C3374 1.356 . S
N3382 H3388 0.984 . S
N3382 H3389 0.984 . S
N3383 C3376 1.356 . S
N3383 H3386 0.984 . S
N3383 H3387 0.985 . S
H3384 N3379 0.984 . S
H3385 N3379 0.985 . S
H3386 N3383 0.984 . S
H3387 N3383 0.985 . S
H3388 N3382 0.984 . S
H3389 N3382 0.984 . S
H3390 N3378 0.984 . S
H3391 N3378 0.985 . S
C3392 C3393 1.363 . S
C3392 C3398 1.379 . S
C3392 N3400 1.356 . S
C3393 C3392 1.363 . S
C3393 C3399 1.363 . S
C3394 C3395 1.363 . S
C3394 C3399 1.379 . S
C3394 N3401 1.356 . S
C3395 C3394 1.363 . S
C3395 C3398 1.363 . S
N3396 C3398 1.356 . S
N3396 H3408 0.984 . S
N3396 H3409 0.985 . S
N3397 C3399 1.356 . S
N3397 H3402 0.984 . S
N3397 H3403 0.985 . S
C3398 C3392 1.379 . S
C3398 C3395 1.363 . S
C3398 N3396 1.356 . S
C3399 C3393 1.363 . S
C3399 C3394 1.379 . S
C3399 N3397 1.356 . S
N3400 C3392 1.356 . S
N3400 H3406 0.984 . S
N3400 H3407 0.984 . S
N3401 C3394 1.356 . S
N3401 H3404 0.984 . S
N3401 H3405 0.985 . S
H3402 N3397 0.984 . S
H3403 N3397 0.985 . S
H3404 N3401 0.984 . S
H3405 N3401 0.985 . S
H3406 N3400 0.984 . S
H3407 N3400 0.984 . S
H3408 N3396 0.984 . S
H3409 N3396 0.985 . S
C3410 C3411 1.363 . S
C3410 C3416 1.379 . S
C3410 N3418 1.356 . S
C3411 C3410 1.363 . S
C3411 C3417 1.363 . S
C3412 C3413 1.363 . S
C3412 C3417 1.379 . S
C3412 N3419 1.356 . S
C3413 C3412 1.363 . S
C3413 C3416 1.363 . S
N3414 C3416 1.356 . S
N3414 H3426 0.984 . S
N3414 H3427 0.985 . S
N3415 C3417 1.356 . S
N3415 H3420 0.984 . S
N3415 H3421 0.985 . S
C3416 C3410 1.379 . S
C3416 C3413 1.363 . S
C3416 N3414 1.356 . S
C3417 C3411 1.363 . S
C3417 C3412 1.379 . S
C3417 N3415 1.356 . S
N3418 C3410 1.356 . S
N3418 H3424 0.984 . S
N3418 H3425 0.984 . S
N3419 C3412 1.356 . S
N3419 H3422 0.984 . S
N3419 H3423 0.985 . S
H3420 N3415 0.984 . S
H3421 N3415 0.985 . S
H3422 N3419 0.984 . S
H3423 N3419 0.985 . S
H3424 N3418 0.984 . S
H3425 N3418 0.984 . S
H3426 N3414 0.984 . S
H3427 N3414 0.985 . S
C3428 C3429 1.363 . S
C3428 C3434 1.379 . S
C3428 N3436 1.356 . S
C3429 C3428 1.363 . S
C3429 C3435 1.363 . S
C3430 C3431 1.363 . S
C3430 C3435 1.379 . S
C3430 N3437 1.356 . S
C3431 C3430 1.363 . S
C3431 C3434 1.363 . S
N3432 C3434 1.356 . S
N3432 H3444 0.984 . S
N3432 H3445 0.985 . S
N3433 C3435 1.356 . S
N3433 H3438 0.984 . S
N3433 H3439 0.985 . S
C3434 C3428 1.379 . S
C3434 C3431 1.363 . S
C3434 N3432 1.356 . S
C3435 C3429 1.363 . S
C3435 C3430 1.379 . S
C3435 N3433 1.356 . S
N3436 C3428 1.356 . S
N3436 H3442 0.984 . S
N3436 H3443 0.984 . S
N3437 C3430 1.356 . S
N3437 H3440 0.984 . S
N3437 H3441 0.985 . S
H3438 N3433 0.984 . S
H3439 N3433 0.985 . S
H3440 N3437 0.984 . S
H3441 N3437 0.985 . S
H3442 N3436 0.984 . S
H3443 N3436 0.984 . S
H3444 N3432 0.984 . S
H3445 N3432 0.985 . S
C3446 C3447 1.363 . S
C3446 C3452 1.379 . S
C3446 N3454 1.356 . S
C3447 C3446 1.363 . S
C3447 C3453 1.363 . S
C3448 C3449 1.363 . S
C3448 C3453 1.379 . S
C3448 N3455 1.356 . S
C3449 C3448 1.363 . S
C3449 C3452 1.363 . S
N3450 C3452 1.356 . S
N3450 H3462 0.984 . S
N3450 H3463 0.985 . S
N3451 C3453 1.356 . S
N3451 H3456 0.984 . S
N3451 H3457 0.985 . S
C3452 C3446 1.379 . S
C3452 C3449 1.363 . S
C3452 N3450 1.356 . S
C3453 C3447 1.363 . S
C3453 C3448 1.379 . S
C3453 N3451 1.356 . S
N3454 C3446 1.356 . S
N3454 H3460 0.984 . S
N3454 H3461 0.984 . S
N3455 C3448 1.356 . S
N3455 H3458 0.984 . S
N3455 H3459 0.985 . S
H3456 N3451 0.984 . S
H3457 N3451 0.985 . S
H3458 N3455 0.984 . S
H3459 N3455 0.985 . S
H3460 N3454 0.984 . S
H3461 N3454 0.984 . S
H3462 N3450 0.984 . S
H3463 N3450 0.985 . S
C3464 C3465 1.363 . S
C3464 C3470 1.379 . S
C3464 N3472 1.356 . S
C3465 C3464 1.363 . S
C3465 C3471 1.363 . S
C3466 C3467 1.363 . S
C3466 C3471 1.379 . S
C3466 N3473 1.356 . S
C3467 C3466 1.363 . S
C3467 C3470 1.363 . S
N3468 C3470 1.356 . S
N3468 H3480 0.984 . S
N3468 H3481 0.985 . S
N3469 C3471 1.356 . S
N3469 H3474 0.984 . S
N3469 H3475 0.985 . S
C3470 C3464 1.379 . S
C3470 C3467 1.363 . S
C3470 N3468 1.356 . S
C3471 C3465 1.363 . S
C3471 C3466 1.379 . S
C3471 N3469 1.356 . S
N3472 C3464 1.356 . S
N3472 H3478 0.984 . S
N3472 H3479 0.984 . S
N3473 C3466 1.356 . S
N3473 H3476 0.984 . S
N3473 H3477 0.985 . S
H3474 N3469 0.984 . S
H3475 N3469 0.985 . S
H3476 N3473 0.984 . S
H3477 N3473 0.985 . S
H3478 N3472 0.984 . S
H3479 N3472 0.984 . S
H3480 N3468 0.984 . S
H3481 N3468 0.985 . S
C3482 C3483 1.363 . S
C3482 C3488 1.379 . S
C3482 N3490 1.356 . S
C3483 C3482 1.363 . S
C3483 C3489 1.363 . S
C3484 C3485 1.363 . S
C3484 C3489 1.379 . S
C3484 N3491 1.356 . S
C3485 C3484 1.363 . S
C3485 C3488 1.363 . S
N3486 C3488 1.356 . S
N3486 H3498 0.984 . S
N3486 H3499 0.985 . S
N3487 C3489 1.356 . S
N3487 H3492 0.984 . S
N3487 H3493 0.985 . S
C3488 C3482 1.379 . S
C3488 C3485 1.363 . S
C3488 N3486 1.356 . S
C3489 C3483 1.363 . S
C3489 C3484 1.379 . S
C3489 N3487 1.356 . S
N3490 C3482 1.356 . S
N3490 H3496 0.984 . S
N3490 H3497 0.984 . S
N3491 C3484 1.356 . S
N3491 H3494 0.984 . S
N3491 H3495 0.985 . S
H3492 N3487 0.984 . S
H3493 N3487 0.985 . S
H3494 N3491 0.984 . S
H3495 N3491 0.985 . S
H3496 N3490 0.984 . S
H3497 N3490 0.984 . S
H3498 N3486 0.984 . S
H3499 N3486 0.985 . S
C3500 C3501 1.363 . S
C3500 C3506 1.379 . S
C3500 N3508 1.356 . S
C3501 C3500 1.363 . S
C3501 C3507 1.363 . S
C3502 C3503 1.363 . S
C3502 C3507 1.379 . S
C3502 N3509 1.356 . S
C3503 C3502 1.363 . S
C3503 C3506 1.363 . S
N3504 C3506 1.356 . S
N3504 H3516 0.984 . S
N3504 H3517 0.985 . S
N3505 C3507 1.356 . S
N3505 H3510 0.984 . S
N3505 H3511 0.985 . S
C3506 C3500 1.379 . S
C3506 C3503 1.363 . S
C3506 N3504 1.356 . S
C3507 C3501 1.363 . S
C3507 C3502 1.379 . S
C3507 N3505 1.356 . S
N3508 C3500 1.356 . S
N3508 H3514 0.984 . S
N3508 H3515 0.984 . S
N3509 C3502 1.356 . S
N3509 H3512 0.984 . S
N3509 H3513 0.985 . S
H3510 N3505 0.984 . S
H3511 N3505 0.985 . S
H3512 N3509 0.984 . S
H3513 N3509 0.985 . S
H3514 N3508 0.984 . S
H3515 N3508 0.984 . S
H3516 N3504 0.984 . S
H3517 N3504 0.985 . S
C3518 C3519 1.363 . S
C3518 C3524 1.379 . S
C3518 N3526 1.356 . S
C3519 C3518 1.363 . S
C3519 C3525 1.363 . S
C3520 C3521 1.363 . S
C3520 C3525 1.379 . S
C3520 N3527 1.356 . S
C3521 C3520 1.363 . S
C3521 C3524 1.363 . S
N3522 C3524 1.356 . S
N3522 H3534 0.984 . S
N3522 H3535 0.985 . S
N3523 C3525 1.356 . S
N3523 H3528 0.984 . S
N3523 H3529 0.985 . S
C3524 C3518 1.379 . S
C3524 C3521 1.363 . S
C3524 N3522 1.356 . S
C3525 C3519 1.363 . S
C3525 C3520 1.379 . S
C3525 N3523 1.356 . S
N3526 C3518 1.356 . S
N3526 H3532 0.984 . S
N3526 H3533 0.984 . S
N3527 C3520 1.356 . S
N3527 H3530 0.984 . S
N3527 H3531 0.985 . S
H3528 N3523 0.984 . S
H3529 N3523 0.985 . S
H3530 N3527 0.984 . S
H3531 N3527 0.985 . S
H3532 N3526 0.984 . S
H3533 N3526 0.984 . S
H3534 N3522 0.984 . S
H3535 N3522 0.985 . S
C3536 C3537 1.363 . S
C3536 C3542 1.379 . S
C3536 N3544 1.356 . S
C3537 C3536 1.363 . S
C3537 C3543 1.363 . S
C3538 C3539 1.363 . S
C3538 C3543 1.379 . S
C3538 N3545 1.356 . S
C3539 C3538 1.363 . S
C3539 C3542 1.363 . S
N3540 C3542 1.356 . S
N3540 H3552 0.984 . S
N3540 H3553 0.985 . S
N3541 C3543 1.356 . S
N3541 H3546 0.984 . S
N3541 H3547 0.985 . S
C3542 C3536 1.379 . S
C3542 C3539 1.363 . S
C3542 N3540 1.356 . S
C3543 C3537 1.363 . S
C3543 C3538 1.379 . S
C3543 N3541 1.356 . S
N3544 C3536 1.356 . S
N3544 H3550 0.984 . S
N3544 H3551 0.984 . S
N3545 C3538 1.356 . S
N3545 H3548 0.984 . S
N3545 H3549 0.985 . S
H3546 N3541 0.984 . S
H3547 N3541 0.985 . S
H3548 N3545 0.984 . S
H3549 N3545 0.985 . S
H3550 N3544 0.984 . S
H3551 N3544 0.984 . S
H3552 N3540 0.984 . S
H3553 N3540 0.985 . S
C3554 C3555 1.363 . S
C3554 C3560 1.379 . S
C3554 N3562 1.356 . S
C3555 C3554 1.363 . S
C3555 C3561 1.363 . S
C3556 C3557 1.363 . S
C3556 C3561 1.379 . S
C3556 N3563 1.356 . S
C3557 C3556 1.363 . S
C3557 C3560 1.363 . S
N3558 C3560 1.356 . S
N3558 H3570 0.984 . S
N3558 H3571 0.985 . S
N3559 C3561 1.356 . S
N3559 H3564 0.984 . S
N3559 H3565 0.985 . S
C3560 C3554 1.379 . S
C3560 C3557 1.363 . S
C3560 N3558 1.356 . S
C3561 C3555 1.363 . S
C3561 C3556 1.379 . S
C3561 N3559 1.356 . S
N3562 C3554 1.356 . S
N3562 H3568 0.984 . S
N3562 H3569 0.984 . S
N3563 C3556 1.356 . S
N3563 H3566 0.984 . S
N3563 H3567 0.985 . S
H3564 N3559 0.984 . S
H3565 N3559 0.985 . S
H3566 N3563 0.984 . S
H3567 N3563 0.985 . S
H3568 N3562 0.984 . S
H3569 N3562 0.984 . S
H3570 N3558 0.984 . S
H3571 N3558 0.985 . S
C3572 C3573 1.363 . S
C3572 C3578 1.379 . S
C3572 N3580 1.356 . S
C3573 C3572 1.363 . S
C3573 C3579 1.363 . S
C3574 C3575 1.363 . S
C3574 C3579 1.379 . S
C3574 N3581 1.356 . S
C3575 C3574 1.363 . S
C3575 C3578 1.363 . S
N3576 C3578 1.356 . S
N3576 H3588 0.984 . S
N3576 H3589 0.985 . S
N3577 C3579 1.356 . S
N3577 H3582 0.984 . S
N3577 H3583 0.985 . S
C3578 C3572 1.379 . S
C3578 C3575 1.363 . S
C3578 N3576 1.356 . S
C3579 C3573 1.363 . S
C3579 C3574 1.379 . S
C3579 N3577 1.356 . S
N3580 C3572 1.356 . S
N3580 H3586 0.984 . S
N3580 H3587 0.984 . S
N3581 C3574 1.356 . S
N3581 H3584 0.984 . S
N3581 H3585 0.985 . S
H3582 N3577 0.984 . S
H3583 N3577 0.985 . S
H3584 N3581 0.984 . S
H3585 N3581 0.985 . S
H3586 N3580 0.984 . S
H3587 N3580 0.984 . S
H3588 N3576 0.984 . S
H3589 N3576 0.985 . S
C3590 C3591 1.363 . S
C3590 C3596 1.379 . S
C3590 N3598 1.356 . S
C3591 C3590 1.363 . S
C3591 C3597 1.363 . S
C3592 C3593 1.363 . S
C3592 C3597 1.379 . S
C3592 N3599 1.356 . S
C3593 C3592 1.363 . S
C3593 C3596 1.363 . S
N3594 C3596 1.356 . S
N3594 H3606 0.984 . S
N3594 H3607 0.985 . S
N3595 C3597 1.356 . S
N3595 H3600 0.984 . S
N3595 H3601 0.985 . S
C3596 C3590 1.379 . S
C3596 C3593 1.363 . S
C3596 N3594 1.356 . S
C3597 C3591 1.363 . S
C3597 C3592 1.379 . S
C3597 N3595 1.356 . S
N3598 C3590 1.356 . S
N3598 H3604 0.984 . S
N3598 H3605 0.984 . S
N3599 C3592 1.356 . S
N3599 H3602 0.984 . S
N3599 H3603 0.985 . S
H3600 N3595 0.984 . S
H3601 N3595 0.985 . S
H3602 N3599 0.984 . S
H3603 N3599 0.985 . S
H3604 N3598 0.984 . S
H3605 N3598 0.984 . S
H3606 N3594 0.984 . S
H3607 N3594 0.985 . S
C3608 C3609 1.363 . S
C3608 C3614 1.379 . S
C3608 N3616 1.356 . S
C3609 C3608 1.363 . S
C3609 C3615 1.363 . S
C3610 C3611 1.363 . S
C3610 C3615 1.379 . S
C3610 N3617 1.356 . S
C3611 C3610 1.363 . S
C3611 C3614 1.363 . S
N3612 C3614 1.356 . S
N3612 H3624 0.984 . S
N3612 H3625 0.985 . S
N3613 C3615 1.356 . S
N3613 H3618 0.984 . S
N3613 H3619 0.985 . S
C3614 C3608 1.379 . S
C3614 C3611 1.363 . S
C3614 N3612 1.356 . S
C3615 C3609 1.363 . S
C3615 C3610 1.379 . S
C3615 N3613 1.356 . S
N3616 C3608 1.356 . S
N3616 H3622 0.984 . S
N3616 H3623 0.984 . S
N3617 C3610 1.356 . S
N3617 H3620 0.984 . S
N3617 H3621 0.985 . S
H3618 N3613 0.984 . S
H3619 N3613 0.985 . S
H3620 N3617 0.984 . S
H3621 N3617 0.985 . S
H3622 N3616 0.984 . S
H3623 N3616 0.984 . S
H3624 N3612 0.984 . S
H3625 N3612 0.985 . S
C3626 C3627 1.363 . S
C3626 C3632 1.379 . S
C3626 N3634 1.356 . S
C3627 C3626 1.363 . S
C3627 C3633 1.363 . S
C3628 C3629 1.363 . S
C3628 C3633 1.379 . S
C3628 N3635 1.356 . S
C3629 C3628 1.363 . S
C3629 C3632 1.363 . S
N3630 C3632 1.356 . S
N3630 H3642 0.984 . S
N3630 H3643 0.985 . S
N3631 C3633 1.356 . S
N3631 H3636 0.984 . S
N3631 H3637 0.985 . S
C3632 C3626 1.379 . S
C3632 C3629 1.363 . S
C3632 N3630 1.356 . S
C3633 C3627 1.363 . S
C3633 C3628 1.379 . S
C3633 N3631 1.356 . S
N3634 C3626 1.356 . S
N3634 H3640 0.984 . S
N3634 H3641 0.984 . S
N3635 C3628 1.356 . S
N3635 H3638 0.984 . S
N3635 H3639 0.985 . S
H3636 N3631 0.984 . S
H3637 N3631 0.985 . S
H3638 N3635 0.984 . S
H3639 N3635 0.985 . S
H3640 N3634 0.984 . S
H3641 N3634 0.984 . S
H3642 N3630 0.984 . S
H3643 N3630 0.985 . S
C3644 C3645 1.363 . S
C3644 C3650 1.379 . S
C3644 N3652 1.356 . S
C3645 C3644 1.363 . S
C3645 C3651 1.363 . S
C3646 C3647 1.363 . S
C3646 C3651 1.379 . S
C3646 N3653 1.356 . S
C3647 C3646 1.363 . S
C3647 C3650 1.363 . S
N3648 C3650 1.356 . S
N3648 H3660 0.984 . S
N3648 H3661 0.985 . S
N3649 C3651 1.356 . S
N3649 H3654 0.984 . S
N3649 H3655 0.985 . S
C3650 C3644 1.379 . S
C3650 C3647 1.363 . S
C3650 N3648 1.356 . S
C3651 C3645 1.363 . S
C3651 C3646 1.379 . S
C3651 N3649 1.356 . S
N3652 C3644 1.356 . S
N3652 H3658 0.984 . S
N3652 H3659 0.984 . S
N3653 C3646 1.356 . S
N3653 H3656 0.984 . S
N3653 H3657 0.985 . S
H3654 N3649 0.984 . S
H3655 N3649 0.985 . S
H3656 N3653 0.984 . S
H3657 N3653 0.985 . S
H3658 N3652 0.984 . S
H3659 N3652 0.984 . S
H3660 N3648 0.984 . S
H3661 N3648 0.985 . S
C3662 C3663 1.363 . S
C3662 C3668 1.379 . S
C3662 N3670 1.356 . S
C3663 C3662 1.363 . S
C3663 C3669 1.363 . S
C3664 C3665 1.363 . S
C3664 C3669 1.379 . S
C3664 N3671 1.356 . S
C3665 C3664 1.363 . S
C3665 C3668 1.363 . S
N3666 C3668 1.356 . S
N3666 H3678 0.984 . S
N3666 H3679 0.985 . S
N3667 C3669 1.356 . S
N3667 H3672 0.984 . S
N3667 H3673 0.985 . S
C3668 C3662 1.379 . S
C3668 C3665 1.363 . S
C3668 N3666 1.356 . S
C3669 C3663 1.363 . S
C3669 C3664 1.379 . S
C3669 N3667 1.356 . S
N3670 C3662 1.356 . S
N3670 H3676 0.984 . S
N3670 H3677 0.984 . S
N3671 C3664 1.356 . S
N3671 H3674 0.984 . S
N3671 H3675 0.985 . S
H3672 N3667 0.984 . S
H3673 N3667 0.985 . S
H3674 N3671 0.984 . S
H3675 N3671 0.985 . S
H3676 N3670 0.984 . S
H3677 N3670 0.984 . S
H3678 N3666 0.984 . S
H3679 N3666 0.985 . S
C3680 C3681 1.363 . S
C3680 C3686 1.379 . S
C3680 N3688 1.356 . S
C3681 C3680 1.363 . S
C3681 C3687 1.363 . S
C3682 C3683 1.363 . S
C3682 C3687 1.379 . S
C3682 N3689 1.356 . S
C3683 C3682 1.363 . S
C3683 C3686 1.363 . S
N3684 C3686 1.356 . S
N3684 H3696 0.984 . S
N3684 H3697 0.985 . S
N3685 C3687 1.356 . S
N3685 H3690 0.984 . S
N3685 H3691 0.985 . S
C3686 C3680 1.379 . S
C3686 C3683 1.363 . S
C3686 N3684 1.356 . S
C3687 C3681 1.363 . S
C3687 C3682 1.379 . S
C3687 N3685 1.356 . S
N3688 C3680 1.356 . S
N3688 H3694 0.984 . S
N3688 H3695 0.984 . S
N3689 C3682 1.356 . S
N3689 H3692 0.984 . S
N3689 H3693 0.985 . S
H3690 N3685 0.984 . S
H3691 N3685 0.985 . S
H3692 N3689 0.984 . S
H3693 N3689 0.985 . S
H3694 N3688 0.984 . S
H3695 N3688 0.984 . S
H3696 N3684 0.984 . S
H3697 N3684 0.985 . S
C3698 C3699 1.363 . S
C3698 C3704 1.379 . S
C3698 N3706 1.356 . S
C3699 C3698 1.363 . S
C3699 C3705 1.363 . S
C3700 C3701 1.363 . S
C3700 C3705 1.379 . S
C3700 N3707 1.356 . S
C3701 C3700 1.363 . S
C3701 C3704 1.363 . S
N3702 C3704 1.356 . S
N3702 H3714 0.984 . S
N3702 H3715 0.985 . S
N3703 C3705 1.356 . S
N3703 H3708 0.984 . S
N3703 H3709 0.985 . S
C3704 C3698 1.379 . S
C3704 C3701 1.363 . S
C3704 N3702 1.356 . S
C3705 C3699 1.363 . S
C3705 C3700 1.379 . S
C3705 N3703 1.356 . S
N3706 C3698 1.356 . S
N3706 H3712 0.984 . S
N3706 H3713 0.984 . S
N3707 C3700 1.356 . S
N3707 H3710 0.984 . S
N3707 H3711 0.985 . S
H3708 N3703 0.984 . S
H3709 N3703 0.985 . S
H3710 N3707 0.984 . S
H3711 N3707 0.985 . S
H3712 N3706 0.984 . S
H3713 N3706 0.984 . S
H3714 N3702 0.984 . S
H3715 N3702 0.985 . S
C3716 C3717 1.363 . S
C3716 C3722 1.379 . S
C3716 N3724 1.356 . S
C3717 C3716 1.363 . S
C3717 C3723 1.363 . S
C3718 C3719 1.363 . S
C3718 C3723 1.379 . S
C3718 N3725 1.356 . S
C3719 C3718 1.363 . S
C3719 C3722 1.363 . S
N3720 C3722 1.356 . S
N3720 H3732 0.984 . S
N3720 H3733 0.985 . S
N3721 C3723 1.356 . S
N3721 H3726 0.984 . S
N3721 H3727 0.985 . S
C3722 C3716 1.379 . S
C3722 C3719 1.363 . S
C3722 N3720 1.356 . S
C3723 C3717 1.363 . S
C3723 C3718 1.379 . S
C3723 N3721 1.356 . S
N3724 C3716 1.356 . S
N3724 H3730 0.984 . S
N3724 H3731 0.984 . S
N3725 C3718 1.356 . S
N3725 H3728 0.984 . S
N3725 H3729 0.985 . S
H3726 N3721 0.984 . S
H3727 N3721 0.985 . S
H3728 N3725 0.984 . S
H3729 N3725 0.985 . S
H3730 N3724 0.984 . S
H3731 N3724 0.984 . S
H3732 N3720 0.984 . S
H3733 N3720 0.985 . S
C3734 C3735 1.363 . S
C3734 C3740 1.379 . S
C3734 N3742 1.356 . S
C3735 C3734 1.363 . S
C3735 C3741 1.363 . S
C3736 C3737 1.363 . S
C3736 C3741 1.379 . S
C3736 N3743 1.356 . S
C3737 C3736 1.363 . S
C3737 C3740 1.363 . S
N3738 C3740 1.356 . S
N3738 H3750 0.984 . S
N3738 H3751 0.985 . S
N3739 C3741 1.356 . S
N3739 H3744 0.984 . S
N3739 H3745 0.985 . S
C3740 C3734 1.379 . S
C3740 C3737 1.363 . S
C3740 N3738 1.356 . S
C3741 C3735 1.363 . S
C3741 C3736 1.379 . S
C3741 N3739 1.356 . S
N3742 C3734 1.356 . S
N3742 H3748 0.984 . S
N3742 H3749 0.984 . S
N3743 C3736 1.356 . S
N3743 H3746 0.984 . S
N3743 H3747 0.985 . S
H3744 N3739 0.984 . S
H3745 N3739 0.985 . S
H3746 N3743 0.984 . S
H3747 N3743 0.985 . S
H3748 N3742 0.984 . S
H3749 N3742 0.984 . S
H3750 N3738 0.984 . S
H3751 N3738 0.985 . S
C3752 C3753 1.363 . S
C3752 C3758 1.379 . S
C3752 N3760 1.356 . S
C3753 C3752 1.363 . S
C3753 C3759 1.363 . S
C3754 C3755 1.363 . S
C3754 C3759 1.379 . S
C3754 N3761 1.356 . S
C3755 C3754 1.363 . S
C3755 C3758 1.363 . S
N3756 C3758 1.356 . S
N3756 H3768 0.984 . S
N3756 H3769 0.985 . S
N3757 C3759 1.356 . S
N3757 H3762 0.984 . S
N3757 H3763 0.985 . S
C3758 C3752 1.379 . S
C3758 C3755 1.363 . S
C3758 N3756 1.356 . S
C3759 C3753 1.363 . S
C3759 C3754 1.379 . S
C3759 N3757 1.356 . S
N3760 C3752 1.356 . S
N3760 H3766 0.984 . S
N3760 H3767 0.984 . S
N3761 C3754 1.356 . S
N3761 H3764 0.984 . S
N3761 H3765 0.985 . S
H3762 N3757 0.984 . S
H3763 N3757 0.985 . S
H3764 N3761 0.984 . S
H3765 N3761 0.985 . S
H3766 N3760 0.984 . S
H3767 N3760 0.984 . S
H3768 N3756 0.984 . S
H3769 N3756 0.985 . S
C3770 C3771 1.363 . S
C3770 C3776 1.379 . S
C3770 N3778 1.356 . S
C3771 C3770 1.363 . S
C3771 C3777 1.363 . S
C3772 C3773 1.363 . S
C3772 C3777 1.379 . S
C3772 N3779 1.356 . S
C3773 C3772 1.363 . S
C3773 C3776 1.363 . S
N3774 C3776 1.356 . S
N3774 H3786 0.984 . S
N3774 H3787 0.985 . S
N3775 C3777 1.356 . S
N3775 H3780 0.984 . S
N3775 H3781 0.985 . S
C3776 C3770 1.379 . S
C3776 C3773 1.363 . S
C3776 N3774 1.356 . S
C3777 C3771 1.363 . S
C3777 C3772 1.379 . S
C3777 N3775 1.356 . S
N3778 C3770 1.356 . S
N3778 H3784 0.984 . S
N3778 H3785 0.984 . S
N3779 C3772 1.356 . S
N3779 H3782 0.984 . S
N3779 H3783 0.985 . S
H3780 N3775 0.984 . S
H3781 N3775 0.985 . S
H3782 N3779 0.984 . S
H3783 N3779 0.985 . S
H3784 N3778 0.984 . S
H3785 N3778 0.984 . S
H3786 N3774 0.984 . S
H3787 N3774 0.985 . S
C3788 C3789 1.363 . S
C3788 C3794 1.379 . S
C3788 N3796 1.356 . S
C3789 C3788 1.363 . S
C3789 C3795 1.363 . S
C3790 C3791 1.363 . S
C3790 C3795 1.379 . S
C3790 N3797 1.356 . S
C3791 C3790 1.363 . S
C3791 C3794 1.363 . S
N3792 C3794 1.356 . S
N3792 H3804 0.984 . S
N3792 H3805 0.985 . S
N3793 C3795 1.356 . S
N3793 H3798 0.984 . S
N3793 H3799 0.985 . S
C3794 C3788 1.379 . S
C3794 C3791 1.363 . S
C3794 N3792 1.356 . S
C3795 C3789 1.363 . S
C3795 C3790 1.379 . S
C3795 N3793 1.356 . S
N3796 C3788 1.356 . S
N3796 H3802 0.984 . S
N3796 H3803 0.984 . S
N3797 C3790 1.356 . S
N3797 H3800 0.984 . S
N3797 H3801 0.985 . S
H3798 N3793 0.984 . S
H3799 N3793 0.985 . S
H3800 N3797 0.984 . S
H3801 N3797 0.985 . S
H3802 N3796 0.984 . S
H3803 N3796 0.984 . S
H3804 N3792 0.984 . S
H3805 N3792 0.985 . S
C3806 C3807 1.363 . S
C3806 C3812 1.379 . S
C3806 N3814 1.356 . S
C3807 C3806 1.363 . S
C3807 C3813 1.363 . S
C3808 C3809 1.363 . S
C3808 C3813 1.379 . S
C3808 N3815 1.356 . S
C3809 C3808 1.363 . S
C3809 C3812 1.363 . S
N3810 C3812 1.356 . S
N3810 H3822 0.984 . S
N3810 H3823 0.985 . S
N3811 C3813 1.356 . S
N3811 H3816 0.984 . S
N3811 H3817 0.985 . S
C3812 C3806 1.379 . S
C3812 C3809 1.363 . S
C3812 N3810 1.356 . S
C3813 C3807 1.363 . S
C3813 C3808 1.379 . S
C3813 N3811 1.356 . S
N3814 C3806 1.356 . S
N3814 H3820 0.984 . S
N3814 H3821 0.984 . S
N3815 C3808 1.356 . S
N3815 H3818 0.984 . S
N3815 H3819 0.985 . S
H3816 N3811 0.984 . S
H3817 N3811 0.985 . S
H3818 N3815 0.984 . S
H3819 N3815 0.985 . S
H3820 N3814 0.984 . S
H3821 N3814 0.984 . S
H3822 N3810 0.984 . S
H3823 N3810 0.985 . S
C3824 C3825 1.363 . S
C3824 C3830 1.379 . S
C3824 N3832 1.356 . S
C3825 C3824 1.363 . S
C3825 C3831 1.363 . S
C3826 C3827 1.363 . S
C3826 C3831 1.379 . S
C3826 N3833 1.356 . S
C3827 C3826 1.363 . S
C3827 C3830 1.363 . S
N3828 C3830 1.356 . S
N3828 H3840 0.984 . S
N3828 H3841 0.985 . S
N3829 C3831 1.356 . S
N3829 H3834 0.984 . S
N3829 H3835 0.985 . S
C3830 C3824 1.379 . S
C3830 C3827 1.363 . S
C3830 N3828 1.356 . S
C3831 C3825 1.363 . S
C3831 C3826 1.379 . S
C3831 N3829 1.356 . S
N3832 C3824 1.356 . S
N3832 H3838 0.984 . S
N3832 H3839 0.984 . S
N3833 C3826 1.356 . S
N3833 H3836 0.984 . S
N3833 H3837 0.985 . S
H3834 N3829 0.984 . S
H3835 N3829 0.985 . S
H3836 N3833 0.984 . S
H3837 N3833 0.985 . S
H3838 N3832 0.984 . S
H3839 N3832 0.984 . S
H3840 N3828 0.984 . S
H3841 N3828 0.985 . S
C3842 C3843 1.363 . S
C3842 C3848 1.379 . S
C3842 N3850 1.356 . S
C3843 C3842 1.363 . S
C3843 C3849 1.363 . S
C3844 C3845 1.363 . S
C3844 C3849 1.379 . S
C3844 N3851 1.356 . S
C3845 C3844 1.363 . S
C3845 C3848 1.363 . S
N3846 C3848 1.356 . S
N3846 H3858 0.984 . S
N3846 H3859 0.985 . S
N3847 C3849 1.356 . S
N3847 H3852 0.984 . S
N3847 H3853 0.985 . S
C3848 C3842 1.379 . S
C3848 C3845 1.363 . S
C3848 N3846 1.356 . S
C3849 C3843 1.363 . S
C3849 C3844 1.379 . S
C3849 N3847 1.356 . S
N3850 C3842 1.356 . S
N3850 H3856 0.984 . S
N3850 H3857 0.984 . S
N3851 C3844 1.356 . S
N3851 H3854 0.984 . S
N3851 H3855 0.985 . S
H3852 N3847 0.984 . S
H3853 N3847 0.985 . S
H3854 N3851 0.984 . S
H3855 N3851 0.985 . S
H3856 N3850 0.984 . S
H3857 N3850 0.984 . S
H3858 N3846 0.984 . S
H3859 N3846 0.985 . S
C3860 C3861 1.363 . S
C3860 C3866 1.379 . S
C3860 N3868 1.356 . S
C3861 C3860 1.363 . S
C3861 C3867 1.363 . S
C3862 C3863 1.363 . S
C3862 C3867 1.379 . S
C3862 N3869 1.356 . S
C3863 C3862 1.363 . S
C3863 C3866 1.363 . S
N3864 C3866 1.356 . S
N3864 H3876 0.984 . S
N3864 H3877 0.985 . S
N3865 C3867 1.356 . S
N3865 H3870 0.984 . S
N3865 H3871 0.985 . S
C3866 C3860 1.379 . S
C3866 C3863 1.363 . S
C3866 N3864 1.356 . S
C3867 C3861 1.363 . S
C3867 C3862 1.379 . S
C3867 N3865 1.356 . S
N3868 C3860 1.356 . S
N3868 H3874 0.984 . S
N3868 H3875 0.984 . S
N3869 C3862 1.356 . S
N3869 H3872 0.984 . S
N3869 H3873 0.985 . S
H3870 N3865 0.984 . S
H3871 N3865 0.985 . S
H3872 N3869 0.984 . S
H3873 N3869 0.985 . S
H3874 N3868 0.984 . S
H3875 N3868 0.984 . S
H3876 N3864 0.984 . S
H3877 N3864 0.985 . S
C3878 C3879 1.363 . S
C3878 C3884 1.379 . S
C3878 N3886 1.356 . S
C3879 C3878 1.363 . S
C3879 C3885 1.363 . S
C3880 C3881 1.363 . S
C3880 C3885 1.379 . S
C3880 N3887 1.356 . S
C3881 C3880 1.363 . S
C3881 C3884 1.363 . S
N3882 C3884 1.356 . S
N3882 H3894 0.984 . S
N3882 H3895 0.985 . S
N3883 C3885 1.356 . S
N3883 H3888 0.984 . S
N3883 H3889 0.985 . S
C3884 C3878 1.379 . S
C3884 C3881 1.363 . S
C3884 N3882 1.356 . S
C3885 C3879 1.363 . S
C3885 C3880 1.379 . S
C3885 N3883 1.356 . S
N3886 C3878 1.356 . S
N3886 H3892 0.984 . S
N3886 H3893 0.984 . S
N3887 C3880 1.356 . S
N3887 H3890 0.984 . S
N3887 H3891 0.985 . S
H3888 N3883 0.984 . S
H3889 N3883 0.985 . S
H3890 N3887 0.984 . S
H3891 N3887 0.985 . S
H3892 N3886 0.984 . S
H3893 N3886 0.984 . S
H3894 N3882 0.984 . S
H3895 N3882 0.985 . S
C3896 C3897 1.363 . S
C3896 C3902 1.379 . S
C3896 N3904 1.356 . S
C3897 C3896 1.363 . S
C3897 C3903 1.363 . S
C3898 C3899 1.363 . S
C3898 C3903 1.379 . S
C3898 N3905 1.356 . S
C3899 C3898 1.363 . S
C3899 C3902 1.363 . S
N3900 C3902 1.356 . S
N3900 H3912 0.984 . S
N3900 H3913 0.985 . S
N3901 C3903 1.356 . S
N3901 H3906 0.984 . S
N3901 H3907 0.985 . S
C3902 C3896 1.379 . S
C3902 C3899 1.363 . S
C3902 N3900 1.356 . S
C3903 C3897 1.363 . S
C3903 C3898 1.379 . S
C3903 N3901 1.356 . S
N3904 C3896 1.356 . S
N3904 H3910 0.984 . S
N3904 H3911 0.984 . S
N3905 C3898 1.356 . S
N3905 H3908 0.984 . S
N3905 H3909 0.985 . S
H3906 N3901 0.984 . S
H3907 N3901 0.985 . S
H3908 N3905 0.984 . S
H3909 N3905 0.985 . S
H3910 N3904 0.984 . S
H3911 N3904 0.984 . S
H3912 N3900 0.984 . S
H3913 N3900 0.985 . S
C3914 C3915 1.363 . S
C3914 C3920 1.379 . S
C3914 N3922 1.356 . S
C3915 C3914 1.363 . S
C3915 C3921 1.363 . S
C3916 C3917 1.363 . S
C3916 C3921 1.379 . S
C3916 N3923 1.356 . S
C3917 C3916 1.363 . S
C3917 C3920 1.363 . S
N3918 C3920 1.356 . S
N3918 H3930 0.984 . S
N3918 H3931 0.985 . S
N3919 C3921 1.356 . S
N3919 H3924 0.984 . S
N3919 H3925 0.985 . S
C3920 C3914 1.379 . S
C3920 C3917 1.363 . S
C3920 N3918 1.356 . S
C3921 C3915 1.363 . S
C3921 C3916 1.379 . S
C3921 N3919 1.356 . S
N3922 C3914 1.356 . S
N3922 H3928 0.984 . S
N3922 H3929 0.984 . S
N3923 C3916 1.356 . S
N3923 H3926 0.984 . S
N3923 H3927 0.985 . S
H3924 N3919 0.984 . S
H3925 N3919 0.985 . S
H3926 N3923 0.984 . S
H3927 N3923 0.985 . S
H3928 N3922 0.984 . S
H3929 N3922 0.984 . S
H3930 N3918 0.984 . S
H3931 N3918 0.985 . S
C3932 C3933 1.363 . S
C3932 C3938 1.379 . S
C3932 N3940 1.356 . S
C3933 C3932 1.363 . S
C3933 C3939 1.363 . S
C3934 C3935 1.363 . S
C3934 C3939 1.379 . S
C3934 N3941 1.356 . S
C3935 C3934 1.363 . S
C3935 C3938 1.363 . S
N3936 C3938 1.356 . S
N3936 H3948 0.984 . S
N3936 H3949 0.985 . S
N3937 C3939 1.356 . S
N3937 H3942 0.984 . S
N3937 H3943 0.985 . S
C3938 C3932 1.379 . S
C3938 C3935 1.363 . S
C3938 N3936 1.356 . S
C3939 C3933 1.363 . S
C3939 C3934 1.379 . S
C3939 N3937 1.356 . S
N3940 C3932 1.356 . S
N3940 H3946 0.984 . S
N3940 H3947 0.984 . S
N3941 C3934 1.356 . S
N3941 H3944 0.984 . S
N3941 H3945 0.985 . S
H3942 N3937 0.984 . S
H3943 N3937 0.985 . S
H3944 N3941 0.984 . S
H3945 N3941 0.985 . S
H3946 N3940 0.984 . S
H3947 N3940 0.984 . S
H3948 N3936 0.984 . S
H3949 N3936 0.985 . S
C3950 C3951 1.363 . S
C3950 C3956 1.379 . S
C3950 N3958 1.356 . S
C3951 C3950 1.363 . S
C3951 C3957 1.363 . S
C3952 C3953 1.363 . S
C3952 C3957 1.379 . S
C3952 N3959 1.356 . S
C3953 C3952 1.363 . S
C3953 C3956 1.363 . S
N3954 C3956 1.356 . S
N3954 H3966 0.984 . S
N3954 H3967 0.985 . S
N3955 C3957 1.356 . S
N3955 H3960 0.984 . S
N3955 H3961 0.985 . S
C3956 C3950 1.379 . S
C3956 C3953 1.363 . S
C3956 N3954 1.356 . S
C3957 C3951 1.363 . S
C3957 C3952 1.379 . S
C3957 N3955 1.356 . S
N3958 C3950 1.356 . S
N3958 H3964 0.984 . S
N3958 H3965 0.984 . S
N3959 C3952 1.356 . S
N3959 H3962 0.984 . S
N3959 H3963 0.985 . S
H3960 N3955 0.984 . S
H3961 N3955 0.985 . S
H3962 N3959 0.984 . S
H3963 N3959 0.985 . S
H3964 N3958 0.984 . S
H3965 N3958 0.984 . S
H3966 N3954 0.984 . S
H3967 N3954 0.985 . S
C3968 C3969 1.363 . S
C3968 C3974 1.379 . S
C3968 N3976 1.356 . S
C3969 C3968 1.363 . S
C3969 C3975 1.363 . S
C3970 C3971 1.363 . S
C3970 C3975 1.379 . S
C3970 N3977 1.356 . S
C3971 C3970 1.363 . S
C3971 C3974 1.363 . S
N3972 C3974 1.356 . S
N3972 H3984 0.984 . S
N3972 H3985 0.985 . S
N3973 C3975 1.356 . S
N3973 H3978 0.984 . S
N3973 H3979 0.985 . S
C3974 C3968 1.379 . S
C3974 C3971 1.363 . S
C3974 N3972 1.356 . S
C3975 C3969 1.363 . S
C3975 C3970 1.379 . S
C3975 N3973 1.356 . S
N3976 C3968 1.356 . S
N3976 H3982 0.984 . S
N3976 H3983 0.984 . S
N3977 C3970 1.356 . S
N3977 H3980 0.984 . S
N3977 H3981 0.985 . S
H3978 N3973 0.984 . S
H3979 N3973 0.985 . S
H3980 N3977 0.984 . S
H3981 N3977 0.985 . S
H3982 N3976 0.984 . S
H3983 N3976 0.984 . S
H3984 N3972 0.984 . S
H3985 N3972 0.985 . S
C3986 C3987 1.363 . S
C3986 C3992 1.379 . S
C3986 N3994 1.356 . S
C3987 C3986 1.363 . S
C3987 C3993 1.363 . S
C3988 C3989 1.363 . S
C3988 C3993 1.379 . S
C3988 N3995 1.356 . S
C3989 C3988 1.363 . S
C3989 C3992 1.363 . S
N3990 C3992 1.356 . S
N3990 H4002 0.984 . S
N3990 H4003 0.985 . S
N3991 C3993 1.356 . S
N3991 H3996 0.984 . S
N3991 H3997 0.985 . S
C3992 C3986 1.379 . S
C3992 C3989 1.363 . S
C3992 N3990 1.356 . S
C3993 C3987 1.363 . S
C3993 C3988 1.379 . S
C3993 N3991 1.356 . S
N3994 C3986 1.356 . S
N3994 H4000 0.984 . S
N3994 H4001 0.984 . S
N3995 C3988 1.356 . S
N3995 H3998 0.984 . S
N3995 H3999 0.985 . S
H3996 N3991 0.984 . S
H3997 N3991 0.985 . S
H3998 N3995 0.984 . S
H3999 N3995 0.985 . S
H4000 N3994 0.984 . S
H4001 N3994 0.984 . S
H4002 N3990 0.984 . S
H4003 N3990 0.985 . S
C4004 C4005 1.363 . S
C4004 C4010 1.379 . S
C4004 N4012 1.356 . S
C4005 C4004 1.363 . S
C4005 C4011 1.363 . S
C4006 C4007 1.363 . S
C4006 C4011 1.379 . S
C4006 N4013 1.356 . S
C4007 C4006 1.363 . S
C4007 C4010 1.363 . S
N4008 C4010 1.356 . S
N4008 H4020 0.984 . S
N4008 H4021 0.985 . S
N4009 C4011 1.356 . S
N4009 H4014 0.984 . S
N4009 H4015 0.985 . S
C4010 C4004 1.379 . S
C4010 C4007 1.363 . S
C4010 N4008 1.356 . S
C4011 C4005 1.363 . S
C4011 C4006 1.379 . S
C4011 N4009 1.356 . S
N4012 C4004 1.356 . S
N4012 H4018 0.984 . S
N4012 H4019 0.984 . S
N4013 C4006 1.356 . S
N4013 H4016 0.984 . S
N4013 H4017 0.985 . S
H4014 N4009 0.984 . S
H4015 N4009 0.985 . S
H4016 N4013 0.984 . S
H4017 N4013 0.985 . S
H4018 N4012 0.984 . S
H4019 N4012 0.984 . S
H4020 N4008 0.984 . S
H4021 N4008 0.985 . S
C4022 C4023 1.363 . S
C4022 C4028 1.379 . S
C4022 N4030 1.356 . S
C4023 C4022 1.363 . S
C4023 C4029 1.363 . S
C4024 C4025 1.363 . S
C4024 C4029 1.379 . S
C4024 N4031 1.356 . S
C4025 C4024 1.363 . S
C4025 C4028 1.363 . S
N4026 C4028 1.356 . S
N4026 H4038 0.984 . S
N4026 H4039 0.985 . S
N4027 C4029 1.356 . S
N4027 H4032 0.984 . S
N4027 H4033 0.985 . S
C4028 C4022 1.379 . S
C4028 C4025 1.363 . S
C4028 N4026 1.356 . S
C4029 C4023 1.363 . S
C4029 C4024 1.379 . S
C4029 N4027 1.356 . S
N4030 C4022 1.356 . S
N4030 H4036 0.984 . S
N4030 H4037 0.984 . S
N4031 C4024 1.356 . S
N4031 H4034 0.984 . S
N4031 H4035 0.985 . S
H4032 N4027 0.984 . S
H4033 N4027 0.985 . S
H4034 N4031 0.984 . S
H4035 N4031 0.985 . S
H4036 N4030 0.984 . S
H4037 N4030 0.984 . S
H4038 N4026 0.984 . S
H4039 N4026 0.985 . S
C4040 C4041 1.363 . S
C4040 C4046 1.379 . S
C4040 N4048 1.356 . S
C4041 C4040 1.363 . S
C4041 C4047 1.363 . S
C4042 C4043 1.363 . S
C4042 C4047 1.379 . S
C4042 N4049 1.356 . S
C4043 C4042 1.363 . S
C4043 C4046 1.363 . S
N4044 C4046 1.356 . S
N4044 H4056 0.984 . S
N4044 H4057 0.985 . S
N4045 C4047 1.356 . S
N4045 H4050 0.984 . S
N4045 H4051 0.985 . S
C4046 C4040 1.379 . S
C4046 C4043 1.363 . S
C4046 N4044 1.356 . S
C4047 C4041 1.363 . S
C4047 C4042 1.379 . S
C4047 N4045 1.356 . S
N4048 C4040 1.356 . S
N4048 H4054 0.984 . S
N4048 H4055 0.984 . S
N4049 C4042 1.356 . S
N4049 H4052 0.984 . S
N4049 H4053 0.985 . S
H4050 N4045 0.984 . S
H4051 N4045 0.985 . S
H4052 N4049 0.984 . S
H4053 N4049 0.985 . S
H4054 N4048 0.984 . S
H4055 N4048 0.984 . S
H4056 N4044 0.984 . S
H4057 N4044 0.985 . S
C4058 C4059 1.363 . S
C4058 C4064 1.379 . S
C4058 N4066 1.356 . S
C4059 C4058 1.363 . S
C4059 C4065 1.363 . S
C4060 C4061 1.363 . S
C4060 C4065 1.379 . S
C4060 N4067 1.356 . S
C4061 C4060 1.363 . S
C4061 C4064 1.363 . S
N4062 C4064 1.356 . S
N4062 H4074 0.984 . S
N4062 H4075 0.985 . S
N4063 C4065 1.356 . S
N4063 H4068 0.984 . S
N4063 H4069 0.985 . S
C4064 C4058 1.379 . S
C4064 C4061 1.363 . S
C4064 N4062 1.356 . S
C4065 C4059 1.363 . S
C4065 C4060 1.379 . S
C4065 N4063 1.356 . S
N4066 C4058 1.356 . S
N4066 H4072 0.984 . S
N4066 H4073 0.984 . S
N4067 C4060 1.356 . S
N4067 H4070 0.984 . S
N4067 H4071 0.985 . S
H4068 N4063 0.984 . S
H4069 N4063 0.985 . S
H4070 N4067 0.984 . S
H4071 N4067 0.985 . S
H4072 N4066 0.984 . S
H4073 N4066 0.984 . S
H4074 N4062 0.984 . S
H4075 N4062 0.985 . S
C4076 C4077 1.363 . S
C4076 C4082 1.379 . S
C4076 N4084 1.356 . S
C4077 C4076 1.363 . S
C4077 C4083 1.363 . S
C4078 C4079 1.363 . S
C4078 C4083 1.379 . S
C4078 N4085 1.356 . S
C4079 C4078 1.363 . S
C4079 C4082 1.363 . S
N4080 C4082 1.356 . S
N4080 H4092 0.984 . S
N4080 H4093 0.985 . S
N4081 C4083 1.356 . S
N4081 H4086 0.984 . S
N4081 H4087 0.985 . S
C4082 C4076 1.379 . S
C4082 C4079 1.363 . S
C4082 N4080 1.356 . S
C4083 C4077 1.363 . S
C4083 C4078 1.379 . S
C4083 N4081 1.356 . S
N4084 C4076 1.356 . S
N4084 H4090 0.984 . S
N4084 H4091 0.984 . S
N4085 C4078 1.356 . S
N4085 H4088 0.984 . S
N4085 H4089 0.985 . S
H4086 N4081 0.984 . S
H4087 N4081 0.985 . S
H4088 N4085 0.984 . S
H4089 N4085 0.985 . S
H4090 N4084 0.984 . S
H4091 N4084 0.984 . S
H4092 N4080 0.984 . S
H4093 N4080 0.985 . S
C4094 C4095 1.363 . S
C4094 C4100 1.379 . S
C4094 N4102 1.356 . S
C4095 C4094 1.363 . S
C4095 C4101 1.363 . S
C4096 C4097 1.363 . S
C4096 C4101 1.379 . S
C4096 N4103 1.356 . S
C4097 C4096 1.363 . S
C4097 C4100 1.363 . S
N4098 C4100 1.356 . S
N4098 H4110 0.984 . S
N4098 H4111 0.985 . S
N4099 C4101 1.356 . S
N4099 H4104 0.984 . S
N4099 H4105 0.985 . S
C4100 C4094 1.379 . S
C4100 C4097 1.363 . S
C4100 N4098 1.356 . S
C4101 C4095 1.363 . S
C4101 C4096 1.379 . S
C4101 N4099 1.356 . S
N4102 C4094 1.356 . S
N4102 H4108 0.984 . S
N4102 H4109 0.984 . S
N4103 C4096 1.356 . S
N4103 H4106 0.984 . S
N4103 H4107 0.985 . S
H4104 N4099 0.984 . S
H4105 N4099 0.985 . S
H4106 N4103 0.984 . S
H4107 N4103 0.985 . S
H4108 N4102 0.984 . S
H4109 N4102 0.984 . S
H4110 N4098 0.984 . S
H4111 N4098 0.985 . S
C2387 C1281 1.544 . S
C2385 C21 1.537 . S
C2405 C1348 1.442 . S
C2403 C42 1.430 . S
C2421 C82 1.518 . S
C2423 C1373 1.527 . S
C2441 C1433 1.495 . S
C2439 C135 1.495 . S
C2457 C175 1.433 . S
C2459 C1426 1.430 . S
C2475 C221 1.535 . S
C2477 C1302 1.540 . S
C2493 C255 1.485 . S
C2495 C1327 1.486 . S
C2513 C1394 1.557 . S
C2511 C301 1.539 . S
C2531 C1486 1.517 . S
C2529 C15 1.517 . S
C2547 C55 1.441 . S
C2549 C1525 1.441 . S
C2565 C101 1.542 . S
C2567 C1578 1.548 . S
C2585 C1603 1.503 . S
C2583 C141 1.488 . S
C2601 C162 1.451 . S
C2603 C1663 1.460 . S
C2621 C1716 1.516 . S
C2619 C215 1.516 . S
C2637 C261 1.490 . S
C2639 C1755 1.506 . S
C2657 C1794 1.523 . S
C2655 C282 1.503 . S
C2673 C2 1.518 . S
C2675 C1624 1.530 . S
C2691 C181 1.436 . S
C2693 C1695 1.445 . S
C2711 C1748 1.541 . S
C2709 C202 1.532 . S
C2727 C242 1.490 . S
C2729 C1801 1.508 . S
C2747 C1656 1.512 . S
C2745 C295 1.512 . S
C2765 C1518 1.520 . S
C2763 C95 1.520 . S
C2781 C122 1.482 . S
C2783 C1557 1.500 . S
C2801 C1465 1.454 . S
C2799 C61 1.442 . S
C2819 C1833 1.544 . S
C2817 C341 1.538 . S
C2835 C362 1.429 . S
C2837 C1879 1.441 . S
C2853 C402 1.518 . S
C2855 C1946 1.527 . S
C2873 C1992 1.494 . S
C2871 C455 1.495 . S
C2889 C495 1.433 . S
C2891 C1971 1.431 . S
C2907 C541 1.535 . S
C2909 C1854 1.540 . S
C2925 C575 1.486 . S
C2927 C1900 1.484 . S
C2943 C621 1.538 . S
C2945 C1925 1.555 . S
C2963 C1670 1.517 . S
C2961 C335 1.517 . S
C2979 C375 1.441 . S
C2981 C2031 1.440 . S
C2999 C1762 1.548 . S
C2997 C421 1.543 . S
C3015 C461 1.488 . S
C3017 C2063 1.502 . S
C3033 C482 1.451 . S
C3035 C1479 1.460 . S
C3053 C2130 1.516 . S
C3051 C535 1.516 . S
C3069 C581 1.490 . S
C3071 C1571 1.506 . S
C3089 C2162 1.523 . S
C3087 C602 1.503 . S
C3105 C322 1.518 . S
C3107 C2084 1.530 . S
C3125 C2109 1.445 . S
C3123 C501 1.436 . S
C3141 C522 1.532 . S
C3143 C1564 1.541 . S
C3161 C2169 1.508 . S
C3159 C562 1.490 . S
C3177 C615 1.512 . S
C3179 C1472 1.512 . S
C3195 C415 1.521 . S
C3197 C2024 1.520 . S
C3213 C442 1.482 . S
C3215 C1741 1.500 . S
C3231 C381 1.442 . S
C3233 C1649 1.454 . S
C3249 C661 1.538 . S
C3251 C1939 1.545 . S
C3269 C1985 1.442 . S
C3267 C682 1.429 . S
C3285 C722 1.518 . S
C3287 C1840 1.528 . S
C3303 C775 1.495 . S
C3305 C1886 1.496 . S
C3321 C815 1.433 . S
C3323 C1893 1.433 . S
C3339 C861 1.535 . S
C3341 C1932 1.541 . S
C3359 C1978 1.486 . S
C3357 C895 1.485 . S
C3375 C941 1.538 . S
C3377 C1847 1.557 . S
C3395 C2201 1.517 . S
C3393 C655 1.517 . S
C3411 C695 1.441 . S
C3413 C1709 1.440 . S
C3431 C2247 1.549 . S
C3429 C741 1.543 . S
C3447 C781 1.488 . S
C3449 C1787 1.502 . S
C3465 C802 1.451 . S
C3467 C2314 1.460 . S
C3483 C855 1.516 . S
C3485 C1532 1.516 . S
C3503 C2346 1.506 . S
C3501 C901 1.490 . S
C3519 C922 1.503 . S
C3521 C1610 1.523 . S
C3539 C1808 1.530 . S
C3537 C642 1.518 . S
C3557 C1511 1.445 . S
C3555 C821 1.436 . S
C3573 C842 1.532 . S
C3575 C2353 1.541 . S
C3591 C882 1.490 . S
C3593 C1617 1.508 . S
C3611 C2293 1.512 . S
C3609 C935 1.512 . S
C3629 C1702 1.520 . S
C3627 C735 1.521 . S
C3647 C2268 1.499 . S
C3645 C762 1.482 . S
C3665 C2222 1.453 . S
C3663 C701 1.442 . S
C3681 C981 1.538 . S
C3683 C1380 1.544 . S
C3699 C1002 1.429 . S
C3701 C1440 1.442 . S
C3719 C1288 1.527 . S
C3717 C1042 1.518 . S
C3737 C1341 1.494 . S
C3735 C1095 1.495 . S
C3755 C1334 1.431 . S
C3753 C1135 1.433 . S
C3773 C1387 1.540 . S
C3771 C1181 1.535 . S
C3791 C1419 1.486 . S
C3789 C1215 1.485 . S
C3807 C1261 1.538 . S
C3809 C1295 1.557 . S
C3825 C975 1.517 . S
C3827 C2307 1.518 . S
C3845 C2123 1.440 . S
C3843 C1015 1.441 . S
C3863 C2339 1.549 . S
C3861 C1061 1.543 . S
C3881 C2155 1.502 . S
C3879 C1101 1.488 . S
C3897 C1122 1.451 . S
C3899 C2208 1.461 . S
C3917 C2038 1.516 . S
C3915 C1175 1.516 . S
C3935 C2254 1.505 . S
C3933 C1221 1.490 . S
C3951 C1242 1.503 . S
C3953 C2070 1.523 . S
C3971 C2176 1.530 . S
C3969 C962 1.518 . S
C3989 C2017 1.445 . S
C3987 C1141 1.436 . S
C4007 C2261 1.541 . S
C4005 C1162 1.532 . S
C4023 C1202 1.490 . S
C4025 C2077 1.508 . S
C4041 C1255 1.512 . S
C4043 C2215 1.514 . S
C4059 C1055 1.521 . S
C4061 C2116 1.520 . S
C4077 C1082 1.482 . S
C4079 C2360 1.499 . S
C4097 C2300 1.454 . S
C4095 C1021 1.442 . S
