# Generated by pormake.
# Topology ptr, (4,4)-cn, num edge types: 1
# Building blocks:
#     Node 0, Type 0, BuildingBlock: GALJAG_clean_sbu_0, # of connection points: 4
#     Node 1, Type 0, BuildingBlock: GALJAG_clean_sbu_0, # of connection points: 4
#     Node 2, Type 0, BuildingBlock: GALJAG_clean_sbu_0, # of connection points: 4
#     Node 3, Type 0, BuildingBlock: GALJAG_clean_sbu_0, # of connection points: 4
#     Node 4, Type 0, BuildingBlock: GALJAG_clean_sbu_0, # of connection points: 4
#     Node 5, Type 0, BuildingBlock: GALJAG_clean_sbu_0, # of connection points: 4
#     Node 6, Type 0, BuildingBlock: GALJAG_clean_sbu_0, # of connection points: 4
#     Node 7, Type 0, BuildingBlock: GALJAG_clean_sbu_0, # of connection points: 4
#     Node 8, Type 0, BuildingBlock: GALJAG_clean_sbu_0, # of connection points: 4
#     Node 9, Type 0, BuildingBlock: GALJAG_clean_sbu_0, # of connection points: 4
#     Node 10, Type 0, BuildingBlock: GALJAG_clean_sbu_0, # of connection points: 4
#     Node 11, Type 0, BuildingBlock: GALJAG_clean_sbu_0, # of connection points: 4
#     Node 12, Type 0, BuildingBlock: GALJAG_clean_sbu_0, # of connection points: 4
#     Node 13, Type 0, BuildingBlock: GALJAG_clean_sbu_0, # of connection points: 4
#     Node 14, Type 0, BuildingBlock: GALJAG_clean_sbu_0, # of connection points: 4
#     Node 15, Type 0, BuildingBlock: GALJAG_clean_sbu_0, # of connection points: 4
#     Node 16, Type 0, BuildingBlock: GALJAG_clean_sbu_0, # of connection points: 4
#     Node 17, Type 0, BuildingBlock: GALJAG_clean_sbu_0, # of connection points: 4
#     Node 18, Type 1, BuildingBlock: MUDLON_clean_linker_0, # of connection points: 4
#     Node 19, Type 1, BuildingBlock: MUDLON_clean_linker_0, # of connection points: 4
#     Node 20, Type 1, BuildingBlock: MUDLON_clean_linker_0, # of connection points: 4
#     Node 21, Type 1, BuildingBlock: MUDLON_clean_linker_0, # of connection points: 4
#     Node 22, Type 1, BuildingBlock: MUDLON_clean_linker_0, # of connection points: 4
#     Node 23, Type 1, BuildingBlock: MUDLON_clean_linker_0, # of connection points: 4
#     Node 24, Type 1, BuildingBlock: MUDLON_clean_linker_0, # of connection points: 4
#     Node 25, Type 1, BuildingBlock: MUDLON_clean_linker_0, # of connection points: 4
#     Node 26, Type 1, BuildingBlock: MUDLON_clean_linker_0, # of connection points: 4
#     Node 27, Type 1, BuildingBlock: MUDLON_clean_linker_0, # of connection points: 4
#     Node 28, Type 1, BuildingBlock: MUDLON_clean_linker_0, # of connection points: 4
#     Node 29, Type 1, BuildingBlock: MUDLON_clean_linker_0, # of connection points: 4
#     Node 30, Type 1, BuildingBlock: MUDLON_clean_linker_0, # of connection points: 4
#     Node 31, Type 1, BuildingBlock: MUDLON_clean_linker_0, # of connection points: 4
#     Node 32, Type 1, BuildingBlock: MUDLON_clean_linker_0, # of connection points: 4
#     Node 33, Type 1, BuildingBlock: MUDLON_clean_linker_0, # of connection points: 4
#     Node 34, Type 1, BuildingBlock: MUDLON_clean_linker_0, # of connection points: 4
#     Node 35, Type 1, BuildingBlock: MUDLON_clean_linker_0, # of connection points: 4
#     Edge 36, Type (0, 1), BuildingBlock: EZIPEK_clean_linker_0, # of connection points: 2
#     Edge 37, Type (0, 1), BuildingBlock: EZIPEK_clean_linker_0, # of connection points: 2
#     Edge 38, Type (0, 1), BuildingBlock: EZIPEK_clean_linker_0, # of connection points: 2
#     Edge 39, Type (0, 1), BuildingBlock: EZIPEK_clean_linker_0, # of connection points: 2
#     Edge 40, Type (0, 1), BuildingBlock: EZIPEK_clean_linker_0, # of connection points: 2
#     Edge 41, Type (0, 1), BuildingBlock: EZIPEK_clean_linker_0, # of connection points: 2
#     Edge 42, Type (0, 1), BuildingBlock: EZIPEK_clean_linker_0, # of connection points: 2
#     Edge 43, Type (0, 1), BuildingBlock: EZIPEK_clean_linker_0, # of connection points: 2
#     Edge 44, Type (0, 1), BuildingBlock: EZIPEK_clean_linker_0, # of connection points: 2
#     Edge 45, Type (0, 1), BuildingBlock: EZIPEK_clean_linker_0, # of connection points: 2
#     Edge 46, Type (0, 1), BuildingBlock: EZIPEK_clean_linker_0, # of connection points: 2
#     Edge 47, Type (0, 1), BuildingBlock: EZIPEK_clean_linker_0, # of connection points: 2
#     Edge 48, Type (0, 1), BuildingBlock: EZIPEK_clean_linker_0, # of connection points: 2
#     Edge 49, Type (0, 1), BuildingBlock: EZIPEK_clean_linker_0, # of connection points: 2
#     Edge 50, Type (0, 1), BuildingBlock: EZIPEK_clean_linker_0, # of connection points: 2
#     Edge 51, Type (0, 1), BuildingBlock: EZIPEK_clean_linker_0, # of connection points: 2
#     Edge 52, Type (0, 1), BuildingBlock: EZIPEK_clean_linker_0, # of connection points: 2
#     Edge 53, Type (0, 1), BuildingBlock: EZIPEK_clean_linker_0, # of connection points: 2
#     Edge 54, Type (0, 1), BuildingBlock: EZIPEK_clean_linker_0, # of connection points: 2
#     Edge 55, Type (0, 1), BuildingBlock: EZIPEK_clean_linker_0, # of connection points: 2
#     Edge 56, Type (0, 1), BuildingBlock: EZIPEK_clean_linker_0, # of connection points: 2
#     Edge 57, Type (0, 1), BuildingBlock: EZIPEK_clean_linker_0, # of connection points: 2
#     Edge 58, Type (0, 1), BuildingBlock: EZIPEK_clean_linker_0, # of connection points: 2
#     Edge 59, Type (0, 1), BuildingBlock: EZIPEK_clean_linker_0, # of connection points: 2
#     Edge 60, Type (0, 1), BuildingBlock: EZIPEK_clean_linker_0, # of connection points: 2
#     Edge 61, Type (0, 1), BuildingBlock: EZIPEK_clean_linker_0, # of connection points: 2
#     Edge 62, Type (0, 1), BuildingBlock: EZIPEK_clean_linker_0, # of connection points: 2
#     Edge 63, Type (0, 1), BuildingBlock: EZIPEK_clean_linker_0, # of connection points: 2
#     Edge 64, Type (0, 1), BuildingBlock: EZIPEK_clean_linker_0, # of connection points: 2
#     Edge 65, Type (0, 1), BuildingBlock: EZIPEK_clean_linker_0, # of connection points: 2
#     Edge 66, Type (0, 1), BuildingBlock: EZIPEK_clean_linker_0, # of connection points: 2
#     Edge 67, Type (0, 1), BuildingBlock: EZIPEK_clean_linker_0, # of connection points: 2
#     Edge 68, Type (0, 1), BuildingBlock: EZIPEK_clean_linker_0, # of connection points: 2
#     Edge 69, Type (0, 1), BuildingBlock: EZIPEK_clean_linker_0, # of connection points: 2
#     Edge 70, Type (0, 1), BuildingBlock: EZIPEK_clean_linker_0, # of connection points: 2
#     Edge 71, Type (0, 1), BuildingBlock: EZIPEK_clean_linker_0, # of connection points: 2
#     Edge 72, Type (0, 1), BuildingBlock: EZIPEK_clean_linker_0, # of connection points: 2
#     Edge 73, Type (0, 1), BuildingBlock: EZIPEK_clean_linker_0, # of connection points: 2
#     Edge 74, Type (0, 1), BuildingBlock: EZIPEK_clean_linker_0, # of connection points: 2
#     Edge 75, Type (0, 1), BuildingBlock: EZIPEK_clean_linker_0, # of connection points: 2
#     Edge 76, Type (0, 1), BuildingBlock: EZIPEK_clean_linker_0, # of connection points: 2
#     Edge 77, Type (0, 1), BuildingBlock: EZIPEK_clean_linker_0, # of connection points: 2
#     Edge 78, Type (0, 1), BuildingBlock: EZIPEK_clean_linker_0, # of connection points: 2
#     Edge 79, Type (0, 1), BuildingBlock: EZIPEK_clean_linker_0, # of connection points: 2
#     Edge 80, Type (0, 1), BuildingBlock: EZIPEK_clean_linker_0, # of connection points: 2
#     Edge 81, Type (0, 1), BuildingBlock: EZIPEK_clean_linker_0, # of connection points: 2
#     Edge 82, Type (0, 1), BuildingBlock: EZIPEK_clean_linker_0, # of connection points: 2
#     Edge 83, Type (0, 1), BuildingBlock: EZIPEK_clean_linker_0, # of connection points: 2
#     Edge 84, Type (0, 1), BuildingBlock: EZIPEK_clean_linker_0, # of connection points: 2
#     Edge 85, Type (0, 1), BuildingBlock: EZIPEK_clean_linker_0, # of connection points: 2
#     Edge 86, Type (0, 1), BuildingBlock: EZIPEK_clean_linker_0, # of connection points: 2
#     Edge 87, Type (0, 1), BuildingBlock: EZIPEK_clean_linker_0, # of connection points: 2
#     Edge 88, Type (0, 1), BuildingBlock: EZIPEK_clean_linker_0, # of connection points: 2
#     Edge 89, Type (0, 1), BuildingBlock: EZIPEK_clean_linker_0, # of connection points: 2
#     Edge 90, Type (0, 1), BuildingBlock: EZIPEK_clean_linker_0, # of connection points: 2
#     Edge 91, Type (0, 1), BuildingBlock: EZIPEK_clean_linker_0, # of connection points: 2
#     Edge 92, Type (0, 1), BuildingBlock: EZIPEK_clean_linker_0, # of connection points: 2
#     Edge 93, Type (0, 1), BuildingBlock: EZIPEK_clean_linker_0, # of connection points: 2
#     Edge 94, Type (0, 1), BuildingBlock: EZIPEK_clean_linker_0, # of connection points: 2
#     Edge 95, Type (0, 1), BuildingBlock: EZIPEK_clean_linker_0, # of connection points: 2
#     Edge 96, Type (0, 1), BuildingBlock: EZIPEK_clean_linker_0, # of connection points: 2
#     Edge 97, Type (0, 1), BuildingBlock: EZIPEK_clean_linker_0, # of connection points: 2
#     Edge 98, Type (0, 1), BuildingBlock: EZIPEK_clean_linker_0, # of connection points: 2
#     Edge 99, Type (0, 1), BuildingBlock: EZIPEK_clean_linker_0, # of connection points: 2
#     Edge 100, Type (0, 1), BuildingBlock: EZIPEK_clean_linker_0, # of connection points: 2
#     Edge 101, Type (0, 1), BuildingBlock: EZIPEK_clean_linker_0, # of connection points: 2
#     Edge 102, Type (0, 1), BuildingBlock: EZIPEK_clean_linker_0, # of connection points: 2
#     Edge 103, Type (0, 1), BuildingBlock: EZIPEK_clean_linker_0, # of connection points: 2
#     Edge 104, Type (0, 1), BuildingBlock: EZIPEK_clean_linker_0, # of connection points: 2
#     Edge 105, Type (0, 1), BuildingBlock: EZIPEK_clean_linker_0, # of connection points: 2
#     Edge 106, Type (0, 1), BuildingBlock: EZIPEK_clean_linker_0, # of connection points: 2
#     Edge 107, Type (0, 1), BuildingBlock: EZIPEK_clean_linker_0, # of connection points: 2
# Relax obj value: 0.049
# Max RMSD: 0.093
# Mean RMSD: 0.082
data_MOF--net-ptr--node1-GALJAG_clean_sbu_0--node2-MUDLON_clean_linker_0--edge1-EZIPEK_clean_linker_0
_symmetry_space_group_name_H-M    P1
_symmetry_Int_Tables_number       1
_symmetry_cell_setting            triclinic
loop_
_symmetry_equiv_pos_as_xyz
'x, y, z'
_cell_length_a     83.470201
_cell_length_b     83.601835
_cell_length_c     52.989051
_cell_angle_alpha  89.968544
_cell_angle_beta   90.035313
_cell_angle_gamma 120.12941
loop_
_atom_site_label
_atom_site_type_symbol
_atom_site_fract_x
_atom_site_fract_y
_atom_site_fract_z
_atom_type_partial_charge
In0 In 0.01109 0.37234 0.01269 0.0
O1 O 0.9962 0.37558 0.04672 0.0
O2 O 0.02323 0.39778 0.03821 0.0
C3 C 0.98246 0.34165 0.99237 0.0
C4 C 0.03439 0.36213 0.03269 0.0
C5 C 0.01764 0.39465 0.97254 0.0
O6 O 0.98027 0.35037 0.01018 0.0
O7 O 0.99896 0.34805 0.98526 0.0
O8 O 0.02786 0.388 0.97792 0.0
O9 O 0.00459 0.39066 0.98784 0.0
C10 C 0.00938 0.39135 0.05272 0.0
O11 O 0.0394 0.37421 0.0156 0.0
O12 O 0.01769 0.35499 0.03933 0.0
In13 In 0.65131 0.65167 0.01399 0.0
O14 O 0.64769 0.63122 0.04518 0.0
O15 O 0.62764 0.63984 0.04227 0.0
C16 C 0.68458 0.66064 0.99386 0.0
C17 C 0.65896 0.6849 0.03241 0.0
C18 C 0.62877 0.63112 0.97628 0.0
O19 O 0.67953 0.653 0.01523 0.0
O20 O 0.67298 0.66376 0.98305 0.0
O21 O 0.63081 0.64671 0.98211 0.0
O22 O 0.63751 0.62571 0.98994 0.0
C23 C 0.63321 0.63038 0.05395 0.0
O24 O 0.64936 0.67816 0.01267 0.0
O25 O 0.66484 0.67508 0.0422 0.0
In26 In 0.37336 0.01618 0.01539 0.0
O27 O 0.38245 0.04696 0.01458 0.0
O28 O 0.35941 0.02879 0.99191 0.0
C29 C 0.39513 0.0213 0.05604 0.0
C30 C 0.38713 0.00951 0.9733 0.0
C31 C 0.342 0.98759 0.03464 0.0
O32 O 0.38217 0.02492 0.05634 0.0
O33 O 0.39765 0.01593 0.03497 0.0
O34 O 0.35475 0.98554 0.0253 0.0
O35 O 0.34466 0.00381 0.03343 0.0
C36 C 0.37027 0.04517 0.99892 0.0
O37 O 0.37045 0.9993 0.97991 0.0
O38 O 0.39677 0.02293 0.98779 0.0
In39 In 0.00686 0.6509 0.01783 0.0
O40 O 0.02164 0.64764 0.98355 0.0
O41 O 0.99546 0.62479 0.99398 0.0
C42 C 0.03381 0.68317 0.03718 0.0
C43 C 0.98248 0.65908 0.99653 0.0
C44 C 0.00233 0.62969 0.05857 0.0
O45 O 0.0372 0.67398 0.02137 0.0
O46 O 0.01694 0.67638 0.04276 0.0
O47 O 0.9903 0.63384 0.0521 0.0
O48 O 0.01613 0.6356 0.04408 0.0
C49 C 0.00886 0.63138 0.97871 0.0
O50 O 0.97822 0.64839 0.0153 0.0
O51 O 0.99893 0.66583 0.98894 0.0
In52 In 0.37218 0.36906 0.0194 0.0
O53 O 0.37226 0.3784 0.97877 0.0
O54 O 0.39787 0.39085 0.99832 0.0
C55 C 0.34016 0.36482 0.03869 0.0
C56 C 0.36744 0.33593 0.0047 0.0
C57 C 0.39509 0.38674 0.05825 0.0
O58 O 0.34957 0.37701 0.02251 0.0
O59 O 0.34644 0.3544 0.04444 0.0
O60 O 0.39301 0.37176 0.04947 0.0
O61 O 0.38607 0.39306 0.04711 0.0
C62 C 0.38945 0.38964 0.97803 0.0
O63 O 0.37571 0.34384 0.0248 0.0
O64 O 0.36108 0.34441 0.99237 0.0
In65 In 0.65347 0.01317 0.01677 0.0
O66 O 0.64879 0.02802 0.04975 0.0
O67 O 0.62769 1.00042 0.04152 0.0
C68 C 0.68683 0.04104 0.00173 0.0
C69 C 0.66077 0.98782 0.03706 0.0
C70 C 0.63291 0.00944 0.97548 0.0
O71 O 0.67748 0.04297 0.01891 0.0
O72 O 0.67946 0.02509 0.99218 0.0
O73 O 0.63956 0.99907 0.97965 0.0
O74 O 0.63647 0.02158 0.99209 0.0
C75 C 0.63327 0.01437 0.05563 0.0
O76 O 0.64912 0.9838 0.01953 0.0
O77 O 0.66889 0.00451 0.04389 0.0
In78 In 0.6798 0.70375 0.34622 0.0
O79 O 0.66806 0.70851 0.38255 0.0
O80 O 0.69349 0.73071 0.36867 0.0
C81 C 0.64963 0.67216 0.33057 0.0
C82 C 0.70344 0.69364 0.36539 0.0
C83 C 0.6857 0.72517 0.30527 0.0
O84 O 0.64847 0.68397 0.34403 0.0
O85 O 0.6659 0.67603 0.32533 0.0
O86 O 0.69645 0.71925 0.31125 0.0
O87 O 0.67218 0.72049 0.31993 0.0
C88 C 0.68125 0.72484 0.38565 0.0
O89 O 0.70671 0.70257 0.34497 0.0
O90 O 0.68815 0.68944 0.3755 0.0
In91 In 0.31675 0.98508 0.34914 0.0
O92 O 0.31541 0.96609 0.3809 0.0
O93 O 0.29388 0.97287 0.37848 0.0
C94 C 0.34955 0.99114 0.33093 0.0
C95 C 0.32259 0.01773 0.36773 0.0
C96 C 0.29506 0.96514 0.30977 0.0
O97 O 0.34131 0.97979 0.34859 0.0
O98 O 0.34152 0.9995 0.32302 0.0
O99 O 0.30591 0.98237 0.30857 0.0
O100 O 0.29416 0.9583 0.33123 0.0
C101 C 0.30063 0.96438 0.39009 0.0
O102 O 0.31102 0.0093 0.3503 0.0
O103 O 0.33125 0.00985 0.37516 0.0
In104 In 0.03876 0.34645 0.3482 0.0
O105 O 0.04982 0.37755 0.34211 0.0
O106 O 0.02417 0.35828 0.32516 0.0
C107 C 0.05871 0.35094 0.39048 0.0
C108 C 0.05456 0.34069 0.30736 0.0
C109 C 0.00658 0.31872 0.36669 0.0
O110 O 0.0488 0.35832 0.38778 0.0
O111 O 0.05913 0.34206 0.3715 0.0
O112 O 0.01737 0.3156 0.35363 0.0
O113 O 0.01176 0.33556 0.36982 0.0
C114 C 0.03636 0.37496 0.32834 0.0
O115 O 0.03725 0.33398 0.30921 0.0
O116 O 0.06369 0.34965 0.32645 0.0
In117 In 0.67667 0.98318 0.3482 0.0
O118 O 0.69354 0.98354 0.31406 0.0
O119 O 0.66877 0.9584 0.32252 0.0
C120 C 0.70195 0.01564 0.36933 0.0
C121 C 0.64991 0.98789 0.32699 0.0
C122 C 0.67264 0.96122 0.38797 0.0
O123 O 0.70634 0.00692 0.35408 0.0
O124 O 0.68479 0.00844 0.37323 0.0
O125 O 0.66 0.9644 0.38125 0.0
O126 O 0.68683 0.96844 0.37413 0.0
C127 C 0.68247 0.96696 0.308 0.0
O128 O 0.64676 0.97721 0.34551 0.0
O129 O 0.66654 0.99661 0.31975 0.0
In130 In 0.03876 0.70287 0.35104 0.0
O131 O 0.03964 0.71285 0.31053 0.0
O132 O 0.06495 0.72442 0.33076 0.0
C133 C 0.0054 0.69589 0.36866 0.0
C134 C 0.03623 0.67062 0.33668 0.0
C135 C 0.05939 0.72191 0.39095 0.0
O136 O 0.01404 0.70791 0.3519 0.0
O137 O 0.01328 0.68724 0.37601 0.0
O138 O 0.05749 0.70652 0.38441 0.0
O139 O 0.05119 0.72791 0.37718 0.0
C140 C 0.05694 0.72368 0.31027 0.0
O141 O 0.0457 0.67979 0.35543 0.0
O142 O 0.02767 0.67742 0.32557 0.0
In143 In 0.31703 0.34793 0.34961 0.0
O144 O 0.31183 0.31824 0.35243 0.0
O145 O 0.33271 0.33895 0.37567 0.0
C146 C 0.29605 0.34557 0.30958 0.0
C147 C 0.29819 0.35083 0.38897 0.0
C148 C 0.35017 0.37321 0.33014 0.0
O149 O 0.29988 0.3331 0.3147 0.0
O150 O 0.30226 0.35886 0.32499 0.0
O151 O 0.34397 0.37611 0.35033 0.0
O152 O 0.33984 0.3576 0.32029 0.0
C153 C 0.32398 0.32217 0.36926 0.0
O154 O 0.31387 0.364 0.38246 0.0
O155 O 0.29183 0.33664 0.3752 0.0
In156 In 0.34848 0.04139 0.6803 0.0
O157 O 0.37577 0.04078 0.67902 0.0
O158 O 0.35756 0.02786 0.70979 0.0
C159 C 0.35344 0.06435 0.64167 0.0
C160 C 0.34564 0.06035 0.7195 0.0
C161 C 0.32206 0.00885 0.66046 0.0
O162 O 0.36619 0.06165 0.64944 0.0
O163 O 0.33836 0.05587 0.65364 0.0
O164 O 0.31961 0.01521 0.68076 0.0
O165 O 0.33774 0.01874 0.65056 0.0
C166 C 0.37278 0.03206 0.69954 0.0
O167 O 0.33248 0.04472 0.71291 0.0
O168 O 0.36003 0.06663 0.7061 0.0
In169 In 0.9856 0.32167 0.68143 0.0
O170 O 0.97877 0.34496 0.67921 0.0
O171 O 1.00014 0.34845 0.70434 0.0
C172 C 0.9662 0.3031 0.63987 0.0
C173 C 0.96593 0.30257 0.72204 0.0
C174 C 0.01869 0.32503 0.66983 0.0
O175 O 0.97704 0.32036 0.64008 0.0
O176 O 0.96502 0.29523 0.66064 0.0
O177 O 0.00759 0.31304 0.6852 0.0
O178 O 0.01325 0.33539 0.66066 0.0
C179 C 0.99059 0.35497 0.69551 0.0
O180 O 0.98247 0.30643 0.71857 0.0
O181 O 0.95928 0.30809 0.70498 0.0
In182 In 0.7038 0.6742 0.68026 0.0
O183 O 0.71233 0.70374 0.66864 0.0
O184 O 0.68503 0.68247 0.6595 0.0
C185 C 0.7264 0.68268 0.72065 0.0
C186 C 0.71832 0.66722 0.63907 0.0
C187 C 0.67329 0.64734 0.70343 0.0
O188 O 0.71787 0.69122 0.71575 0.0
O189 O 0.72395 0.67033 0.705 0.0
O190 O 0.6844 0.64402 0.6915 0.0
O191 O 0.67712 0.66398 0.70278 0.0
C192 C 0.69713 0.69939 0.65801 0.0
O193 O 0.70182 0.6565 0.64597 0.0
O194 O 0.72745 0.68115 0.65295 0.0
In195 In 0.34123 0.31622 0.68016 0.0
O196 O 0.3594 0.31874 0.6464 0.0
O197 O 0.33479 0.29284 0.65284 0.0
C198 C 0.36821 0.34902 0.69791 0.0
C199 C 0.31215 0.31783 0.66057 0.0
C200 C 0.33867 0.29582 0.72137 0.0
O201 O 0.37172 0.33767 0.68713 0.0
O202 O 0.35129 0.34422 0.69885 0.0
O203 O 0.33494 0.30867 0.72207 0.0
O204 O 0.34238 0.29245 0.69968 0.0
C205 C 0.34881 0.30229 0.63915 0.0
O206 O 0.31017 0.30684 0.67825 0.0
O207 O 0.32861 0.32822 0.6535 0.0
In208 In 0.70439 0.03956 0.68222 0.0
O209 O 0.70459 0.05711 0.64882 0.0
O210 O 0.72856 0.05478 0.65545 0.0
C211 C 0.67217 0.03419 0.70158 0.0
C212 C 0.70009 0.00807 0.66151 0.0
C213 C 0.72576 0.05655 0.72306 0.0
O214 O 0.68138 0.04688 0.68583 0.0
O215 O 0.6789 0.02408 0.70694 0.0
O216 O 0.7153 0.03926 0.72174 0.0
O217 O 0.72595 0.06518 0.70345 0.0
C218 C 0.72066 0.06112 0.64173 0.0
O219 O 0.71302 0.01773 0.67673 0.0
O220 O 0.68901 0.01389 0.65741 0.0
In221 In 0.9827 0.67718 0.68138 0.0
O222 O 0.97438 0.64698 0.6887 0.0
O223 O 0.99796 0.66779 0.70809 0.0
C224 C 0.96086 0.67142 0.64073 0.0
C225 C 0.96709 0.68498 0.72062 0.0
C226 C 0.01555 0.70153 0.66027 0.0
O227 O 0.96536 0.65983 0.64796 0.0
O228 O 0.96696 0.6857 0.65428 0.0
O229 O 0.00776 0.70629 0.6766 0.0
O230 O 0.00701 0.68454 0.65488 0.0
C231 C 0.98717 0.65076 0.70437 0.0
O232 O 0.98335 0.69601 0.71316 0.0
O233 O 0.9585 0.67035 0.70785 0.0
H234 H 0.27334 0.3903 0.18016 0.0
N235 N 0.24553 0.3675 0.1505 0.0
H236 H 0.2837 0.38269 0.21948 0.0
H237 H 0.22887 0.33382 0.17409 0.0
H238 H 0.23923 0.32619 0.21356 0.0
H239 H 0.24385 0.33592 0.13268 0.0
H240 H 0.26538 0.33456 0.10237 0.0
H241 H 0.2701 0.39486 0.12169 0.0
H242 H 0.29174 0.39351 0.09145 0.0
H243 H 0.22798 0.38077 0.17734 0.0
H244 H 0.21918 0.3424 0.11723 0.0
H245 H 0.19555 0.37229 0.17531 0.0
H246 H 0.18717 0.33482 0.11384 0.0
H247 H 0.10424 0.35864 0.15943 0.0
H248 H 0.0905 0.36 0.19936 0.0
H249 H 0.09113 0.31141 0.22525 0.0
H250 H 0.10375 0.30921 0.18427 0.0
H251 H 0.0786 0.30766 0.12339 0.0
H252 H 0.06093 0.31496 0.09295 0.0
H253 H 0.10674 0.37073 0.08697 0.0
H254 H 0.12436 0.36358 0.11713 0.0
H255 H 0.1403 0.36542 0.15491 0.0
H256 H 0.17303 0.37473 0.15378 0.0
H257 H 0.1583 0.31904 0.13233 0.0
N258 N 0.11103 0.33107 0.14417 0.0
H259 H 0.1257 0.31042 0.13163 0.0
C260 C 0.25037 0.3627 0.17433 0.0
C261 C 0.26573 0.37633 0.1875 0.0
C262 C 0.27162 0.372 0.20981 0.0
C263 C 0.26218 0.35392 0.21934 0.0
C264 C 0.24661 0.34023 0.20646 0.0
C265 C 0.24074 0.34457 0.18402 0.0
C266 C 0.25532 0.36556 0.12934 0.0
C267 C 0.25389 0.34848 0.12326 0.0
C268 C 0.26615 0.34768 0.10598 0.0
C269 C 0.28009 0.36394 0.09472 0.0
C270 C 0.28097 0.38082 0.09983 0.0
C271 C 0.26863 0.38159 0.11697 0.0
C272 C 0.22624 0.3623 0.14765 0.0
C273 C 0.2191 0.37067 0.16348 0.0
C274 C 0.20051 0.36591 0.16207 0.0
C275 C 0.18852 0.35288 0.14429 0.0
C276 C 0.19576 0.34466 0.12812 0.0
C277 C 0.21432 0.34915 0.12992 0.0
C278 C 0.10464 0.33346 0.1685 0.0
C279 C 0.10131 0.34811 0.17342 0.0
C280 C 0.09352 0.34897 0.19633 0.0
C281 C 0.08958 0.33569 0.21519 0.0
C282 C 0.09385 0.32167 0.21085 0.0
C283 C 0.1011 0.32045 0.18759 0.0
C284 C 0.10281 0.33493 0.12266 0.0
C285 C 0.08504 0.32129 0.11493 0.0
C286 C 0.07498 0.32545 0.09767 0.0
C287 C 0.08257 0.34337 0.08784 0.0
C288 C 0.10073 0.35679 0.09432 0.0
C289 C 0.11081 0.35264 0.11157 0.0
C290 C 0.13056 0.33726 0.14287 0.0
C291 C 0.14418 0.35537 0.14938 0.0
C292 C 0.16295 0.36057 0.14913 0.0
C293 C 0.16854 0.34766 0.14307 0.0
C294 C 0.15476 0.32954 0.13658 0.0
C295 C 0.13605 0.3245 0.13633 0.0
H296 H 0.7197 0.78552 0.16289 0.0
N297 N 0.69405 0.7924 0.14478 0.0
H298 H 0.71884 0.77015 0.20294 0.0
H299 H 0.66802 0.78239 0.18212 0.0
H300 H 0.66724 0.76722 0.22203 0.0
H301 H 0.66132 0.75933 0.14501 0.0
H302 H 0.65217 0.73451 0.11408 0.0
H303 H 0.7084 0.79541 0.09897 0.0
H304 H 0.6985 0.77089 0.06709 0.0
H305 H 0.72267 0.82605 0.13839 0.0
H306 H 0.66338 0.79619 0.14647 0.0
H307 H 0.72268 0.85517 0.13653 0.0
H308 H 0.66319 0.82541 0.14674 0.0
H309 H 0.72075 0.94455 0.16845 0.0
H310 H 0.71726 0.95668 0.20908 0.0
H311 H 0.66355 0.90806 0.21891 0.0
H312 H 0.66714 0.89588 0.17825 0.0
H313 H 0.66037 0.9043 0.13666 0.0
H314 H 0.65023 0.92006 0.10715 0.0
H315 H 0.70643 0.95381 0.08108 0.0
H316 H 0.7165 0.9377 0.11027 0.0
H317 H 0.72119 0.90541 0.16253 0.0
H318 H 0.71983 0.87566 0.16233 0.0
H319 H 0.66676 0.85119 0.1245 0.0
N320 N 0.69629 0.91349 0.14573 0.0
H321 H 0.66774 0.88077 0.12641 0.0
C322 C 0.69408 0.78526 0.16956 0.0
C323 C 0.70839 0.78184 0.17593 0.0
C324 C 0.70788 0.77308 0.19864 0.0
C325 C 0.69299 0.76761 0.21533 0.0
C326 C 0.67888 0.77145 0.20938 0.0
C327 C 0.67939 0.78019 0.18664 0.0
C328 C 0.68591 0.77912 0.12461 0.0
C329 C 0.66946 0.7621 0.12802 0.0
C330 C 0.66415 0.74793 0.11028 0.0
C331 C 0.67486 0.75076 0.08851 0.0
C332 C 0.69018 0.76837 0.0839 0.0
C333 C 0.69579 0.78234 0.10199 0.0
C334 C 0.69315 0.8091 0.14311 0.0
C335 C 0.70966 0.82589 0.14007 0.0
C336 C 0.7096 0.84254 0.1393 0.0
C337 C 0.69297 0.84285 0.14208 0.0
C338 C 0.67628 0.82583 0.14448 0.0
C339 C 0.67635 0.80908 0.14471 0.0
C340 C 0.69425 0.9194 0.17044 0.0
C341 C 0.70834 0.93644 0.17954 0.0
C342 C 0.70635 0.94332 0.20259 0.0
C343 C 0.69018 0.93323 0.21688 0.0
C344 C 0.67615 0.91597 0.2081 0.0
C345 C 0.67817 0.90907 0.18497 0.0
C346 C 0.68924 0.91973 0.12546 0.0
C347 C 0.67042 0.91462 0.12403 0.0
C348 C 0.66463 0.92366 0.10727 0.0
C349 C 0.67761 0.93815 0.09206 0.0
C350 C 0.69621 0.94262 0.09261 0.0
C351 C 0.70194 0.93343 0.10914 0.0
C352 C 0.69479 0.89553 0.14429 0.0
C353 C 0.70927 0.8936 0.1542 0.0
C354 C 0.7085 0.87654 0.15383 0.0
C355 C 0.6933 0.8609 0.14301 0.0
C356 C 0.67864 0.8628 0.13319 0.0
C357 C 0.67927 0.87989 0.13403 0.0
H358 H 0.11147 0.75522 0.16439 0.0
N359 N 0.11691 0.78885 0.14833 0.0
H360 H 0.0975 0.74007 0.20445 0.0
H361 H 0.10978 0.8037 0.18812 0.0
H362 H 0.09688 0.78893 0.22903 0.0
H363 H 0.08351 0.77921 0.13077 0.0
H364 H 0.06481 0.75425 0.10084 0.0
H365 H 0.12934 0.76988 0.1192 0.0
H366 H 0.11076 0.74525 0.0891 0.0
H367 H 0.14722 0.78488 0.15525 0.0
H368 H 0.12998 0.82416 0.13718 0.0
H369 H 0.17962 0.80926 0.15249 0.0
H370 H 0.16219 0.84903 0.13647 0.0
H371 H 0.28172 0.90496 0.1739 0.0
H372 H 0.29111 0.92325 0.21286 0.0
H373 H 0.23738 0.9187 0.21749 0.0
H374 H 0.22839 0.90136 0.17758 0.0
H375 H 0.24814 0.92154 0.13328 0.0
H376 H 0.26886 0.94421 0.10195 0.0
H377 H 0.29281 0.91004 0.0863 0.0
H378 H 0.27212 0.88741 0.11772 0.0
H379 H 0.23459 0.85946 0.17434 0.0
H380 H 0.20259 0.83423 0.17324 0.0
H381 H 0.19022 0.86374 0.1165 0.0
N382 N 0.24969 0.89134 0.14954 0.0
H383 H 0.22178 0.8894 0.11932 0.0
C384 C 0.11127 0.78052 0.173 0.0
C385 C 0.10835 0.76273 0.17828 0.0
C386 C 0.10043 0.75408 0.20121 0.0
C387 C 0.09593 0.76328 0.2196 0.0
C388 C 0.10006 0.78152 0.215 0.0
C389 C 0.10746 0.78995 0.19178 0.0
C390 C 0.10784 0.77658 0.12727 0.0
C391 C 0.08971 0.77218 0.12126 0.0
C392 C 0.07906 0.75795 0.1043 0.0
C393 C 0.08644 0.74795 0.09287 0.0
C394 C 0.1049 0.75292 0.0977 0.0
C395 C 0.11552 0.76706 0.11488 0.0
C396 C 0.13621 0.80269 0.14583 0.0
C397 C 0.15046 0.79878 0.15045 0.0
C398 C 0.16903 0.81288 0.14931 0.0
C399 C 0.17379 0.83134 0.14429 0.0
C400 C 0.15934 0.83507 0.13977 0.0
C401 C 0.14083 0.82088 0.14034 0.0
C402 C 0.25431 0.90152 0.17302 0.0
C403 C 0.27199 0.90795 0.18328 0.0
C404 C 0.27733 0.9184 0.20541 0.0
C405 C 0.26493 0.92231 0.21811 0.0
C406 C 0.24717 0.91587 0.20795 0.0
C407 C 0.242 0.90585 0.18531 0.0
C408 C 0.25865 0.90278 0.12779 0.0
C409 C 0.25745 0.91867 0.12257 0.0
C410 C 0.26924 0.93157 0.10474 0.0
C411 C 0.28233 0.92876 0.0919 0.0
C412 C 0.2827 0.91236 0.09593 0.0
C413 C 0.27093 0.89948 0.11376 0.0
C414 C 0.23077 0.87634 0.14693 0.0
C415 C 0.22492 0.86043 0.16167 0.0
C416 C 0.20658 0.8459 0.16078 0.0
C417 C 0.19358 0.84671 0.14467 0.0
C418 C 0.19959 0.8626 0.12953 0.0
C419 C 0.21786 0.87734 0.13089 0.0
H420 H 0.38585 0.2814 0.85664 0.0
N421 N 0.36654 0.24965 0.88115 0.0
H422 H 0.37709 0.29145 0.81811 0.0
H423 H 0.33371 0.2301 0.85517 0.0
H424 H 0.32533 0.23978 0.81592 0.0
H425 H 0.33597 0.24913 0.90037 0.0
H426 H 0.33479 0.26566 0.93677 0.0
H427 H 0.39408 0.27047 0.91214 0.0
H428 H 0.39352 0.28725 0.94844 0.0
H429 H 0.38801 0.23732 0.86305 0.0
H430 H 0.33646 0.21947 0.90198 0.0
H431 H 0.38241 0.20566 0.86376 0.0
H432 H 0.33106 0.18797 0.90377 0.0
H433 H 0.37161 0.13212 0.85047 0.0
H434 H 0.37234 0.11828 0.80992 0.0
H435 H 0.31459 0.07735 0.81836 0.0
H436 H 0.31402 0.09083 0.8594 0.0
H437 H 0.32117 0.09853 0.92065 0.0
H438 H 0.32938 0.08447 0.95399 0.0
H439 H 0.38471 0.10872 0.92301 0.0
H440 H 0.3761 0.12245 0.89013 0.0
H441 H 0.3757 0.15076 0.88956 0.0
H442 H 0.38146 0.18237 0.89049 0.0
H443 H 0.32317 0.16193 0.87783 0.0
N444 N 0.34202 0.11915 0.88278 0.0
H445 H 0.3175 0.13025 0.87792 0.0
C446 C 0.36066 0.25494 0.85858 0.0
C447 C 0.37257 0.2723 0.84794 0.0
C448 C 0.36756 0.27802 0.82606 0.0
C449 C 0.35059 0.26633 0.81413 0.0
C450 C 0.33848 0.249 0.82487 0.0
C451 C 0.34334 0.24344 0.84716 0.0
C452 C 0.36498 0.2579 0.90422 0.0
C453 C 0.34833 0.25672 0.91172 0.0
C454 C 0.34768 0.266 0.93334 0.0
C455 C 0.36348 0.27616 0.94893 0.0
C456 C 0.38033 0.27801 0.93992 0.0
C457 C 0.38093 0.26871 0.91837 0.0
C458 C 0.3628 0.23083 0.88258 0.0
C459 C 0.37558 0.22657 0.87199 0.0
C460 C 0.37239 0.20847 0.8726 0.0
C461 C 0.35631 0.19418 0.88395 0.0
C462 C 0.34349 0.19853 0.89461 0.0
C463 C 0.34665 0.21663 0.89383 0.0
C464 C 0.34275 0.11228 0.85812 0.0
C465 C 0.35912 0.12015 0.84371 0.0
C466 C 0.35952 0.11236 0.82052 0.0
C467 C 0.34352 0.09683 0.81125 0.0
C468 C 0.32704 0.08936 0.82523 0.0
C469 C 0.32673 0.09699 0.84855 0.0
C470 C 0.34815 0.11234 0.90353 0.0
C471 C 0.33536 0.10151 0.922 0.0
C472 C 0.34044 0.09385 0.94176 0.0
C473 C 0.35887 0.09749 0.94457 0.0
C474 C 0.3712 0.10733 0.92453 0.0
C475 C 0.36609 0.11496 0.90476 0.0
C476 C 0.34605 0.13805 0.88392 0.0
C477 C 0.36413 0.15301 0.88723 0.0
C478 C 0.36743 0.17118 0.88753 0.0
C479 C 0.35279 0.17481 0.88426 0.0
C480 C 0.33475 0.15974 0.88088 0.0
C481 C 0.33147 0.14162 0.88077 0.0
H482 H 0.7542 0.10613 0.87117 0.0
N483 N 0.78915 0.11484 0.88719 0.0
H484 H 0.73982 0.09201 0.83101 0.0
H485 H 0.80432 0.10708 0.84839 0.0
H486 H 0.79018 0.09397 0.80726 0.0
H487 H 0.78192 0.08495 0.91348 0.0
H488 H 0.76047 0.0709 0.94793 0.0
H489 H 0.76813 0.12794 0.90894 0.0
H490 H 0.74667 0.11431 0.94256 0.0
H491 H 0.78454 0.14371 0.87284 0.0
H492 H 0.82457 0.12965 0.89981 0.0
H493 H 0.80828 0.17633 0.87198 0.0
H494 H 0.84889 0.16208 0.89717 0.0
H495 H 0.89296 0.27724 0.84695 0.0
H496 H 0.91245 0.28879 0.80902 0.0
H497 H 0.92497 0.24478 0.81511 0.0
H498 H 0.90544 0.23322 0.85313 0.0
H499 H 0.91792 0.24861 0.89435 0.0
H500 H 0.9398 0.26996 0.92577 0.0
H501 H 0.90464 0.29333 0.93749 0.0
H502 H 0.88277 0.27203 0.90582 0.0
H503 H 0.85751 0.23058 0.84749 0.0
H504 H 0.83369 0.19809 0.85 0.0
H505 H 0.86176 0.19135 0.91425 0.0
N506 N 0.88744 0.24908 0.8761 0.0
H507 H 0.88607 0.22334 0.91048 0.0
C508 C 0.78035 0.10733 0.86316 0.0
C509 C 0.76219 0.10336 0.85767 0.0
C510 C 0.75395 0.09536 0.8346 0.0
C511 C 0.76387 0.09179 0.81622 0.0
C512 C 0.78222 0.09644 0.82127 0.0
C513 C 0.79028 0.10393 0.84464 0.0
C514 C 0.77743 0.10798 0.90926 0.0
C515 C 0.77484 0.09184 0.92079 0.0
C516 C 0.76268 0.08403 0.94115 0.0
C517 C 0.75305 0.09247 0.95147 0.0
C518 C 0.75499 0.10816 0.93843 0.0
C519 C 0.76726 0.11601 0.91819 0.0
C520 C 0.80276 0.13429 0.88692 0.0
C521 C 0.79846 0.1477 0.87875 0.0
C522 C 0.81221 0.16637 0.87784 0.0
C523 C 0.83069 0.17205 0.88443 0.0
C524 C 0.83485 0.15847 0.89246 0.0
C525 C 0.821 0.13986 0.89383 0.0
C526 C 0.89768 0.25438 0.85272 0.0
C527 C 0.89972 0.26996 0.8399 0.0
C528 C 0.91083 0.27655 0.81841 0.0
C529 C 0.92009 0.26761 0.80938 0.0
C530 C 0.91787 0.2518 0.82185 0.0
C531 C 0.90674 0.24522 0.84345 0.0
C532 C 0.89869 0.25879 0.89771 0.0
C533 C 0.91469 0.25802 0.90403 0.0
C534 C 0.92715 0.27015 0.92198 0.0
C535 C 0.92379 0.28318 0.93385 0.0
C536 C 0.90737 0.28328 0.92859 0.0
C537 C 0.89492 0.27116 0.91063 0.0
C538 C 0.87373 0.22964 0.87858 0.0
C539 C 0.85858 0.22202 0.86198 0.0
C540 C 0.84482 0.20343 0.86368 0.0
C541 C 0.84557 0.19192 0.88248 0.0
C542 C 0.86075 0.19958 0.89923 0.0
C543 C 0.87474 0.21812 0.89718 0.0
H544 H 0.78375 0.72241 0.86403 0.0
N545 N 0.79462 0.70012 0.88358 0.0
H546 H 0.76788 0.71892 0.82354 0.0
H547 H 0.78766 0.674 0.84733 0.0
H548 H 0.77221 0.67078 0.80671 0.0
H549 H 0.76325 0.66587 0.88482 0.0
H550 H 0.73774 0.65588 0.91497 0.0
H551 H 0.79544 0.71606 0.92738 0.0
H552 H 0.77023 0.70557 0.95839 0.0
H553 H 0.82909 0.72746 0.87781 0.0
H554 H 0.7969 0.66902 0.89281 0.0
H555 H 0.85753 0.72596 0.87922 0.0
H556 H 0.82542 0.66738 0.8951 0.0
H557 H 0.90752 0.66656 0.86015 0.0
H558 H 0.92 0.66417 0.81935 0.0
H559 H 0.94395 0.72287 0.80812 0.0
H560 H 0.93172 0.72535 0.84934 0.0
H561 H 0.89697 0.66413 0.90456 0.0
H562 H 0.91143 0.65288 0.93492 0.0
H563 H 0.96029 0.707 0.93662 0.0
H564 H 0.94589 0.71818 0.90622 0.0
H565 H 0.90674 0.72283 0.90516 0.0
H566 H 0.87718 0.72212 0.90792 0.0
H567 H 0.85032 0.66947 0.86929 0.0
N568 N 0.91363 0.69857 0.88296 0.0
H569 H 0.87989 0.67001 0.86762 0.0
C570 C 0.78705 0.69864 0.85862 0.0
C571 C 0.7815 0.71127 0.85143 0.0
C572 C 0.77246 0.70928 0.82844 0.0
C573 C 0.76895 0.69464 0.81218 0.0
C574 C 0.7749 0.68222 0.819 0.0
C575 C 0.78378 0.68411 0.84213 0.0
C576 C 0.78112 0.692 0.90356 0.0
C577 C 0.76503 0.67456 0.90093 0.0
C578 C 0.75048 0.66879 0.91819 0.0
C579 C 0.75199 0.68012 0.93869 0.0
C580 C 0.76874 0.69671 0.94258 0.0
C581 C 0.7831 0.70267 0.92499 0.0
C582 C 0.81097 0.69847 0.88541 0.0
C583 C 0.82824 0.71433 0.8817 0.0
C584 C 0.84447 0.71344 0.8827 0.0
C585 C 0.84384 0.69658 0.88758 0.0
C586 C 0.82643 0.68057 0.89119 0.0
C587 C 0.81012 0.6815 0.89008 0.0
C588 C 0.91887 0.69625 0.85788 0.0
C589 C 0.91528 0.67891 0.84891 0.0
C590 C 0.92236 0.67751 0.82562 0.0
C591 C 0.9329 0.69335 0.81088 0.0
C592 C 0.9358 0.71051 0.81928 0.0
C593 C 0.92886 0.71193 0.84268 0.0
C594 C 0.92044 0.69205 0.90317 0.0
C595 C 0.91064 0.67365 0.91179 0.0
C596 C 0.91886 0.66724 0.92907 0.0
C597 C 0.93691 0.67914 0.9379 0.0
C598 C 0.94634 0.69766 0.93006 0.0
C599 C 0.93816 0.70402 0.91281 0.0
C600 C 0.89561 0.69668 0.88593 0.0
C601 C 0.89441 0.71106 0.89758 0.0
C602 C 0.87751 0.71067 0.89892 0.0
C603 C 0.86137 0.69589 0.8884 0.0
C604 C 0.86243 0.68104 0.87765 0.0
C605 C 0.87939 0.68139 0.87651 0.0
H606 H 0.73865 0.63246 0.49363 0.0
N607 N 0.77305 0.65404 0.47715 0.0
H608 H 0.72518 0.63499 0.53365 0.0
H609 H 0.79187 0.67771 0.51625 0.0
H610 H 0.77857 0.6797 0.55659 0.0
H611 H 0.77374 0.68718 0.47803 0.0
H612 H 0.75843 0.69717 0.44757 0.0
H613 H 0.7605 0.63977 0.4316 0.0
H614 H 0.74611 0.65039 0.40029 0.0
H615 H 0.78102 0.62733 0.48266 0.0
H616 H 0.80622 0.68582 0.46895 0.0
H617 H 0.81136 0.62973 0.48106 0.0
H618 H 0.83678 0.68837 0.46634 0.0
H619 H 0.92104 0.69098 0.49987 0.0
H620 H 0.93586 0.69358 0.54083 0.0
H621 H 0.90122 0.63484 0.55213 0.0
H622 H 0.88657 0.63215 0.51077 0.0
H623 H 0.91362 0.69317 0.45524 0.0
H624 H 0.93983 0.70412 0.42563 0.0
H625 H 0.9333 0.64959 0.42443 0.0
H626 H 0.90728 0.63875 0.45411 0.0
H627 H 0.86413 0.63429 0.4547 0.0
H628 H 0.83491 0.63429 0.45232 0.0
H629 H 0.86026 0.68691 0.49103 0.0
N630 N 0.89524 0.65886 0.47707 0.0
H631 H 0.88968 0.6871 0.4922 0.0
C632 C 0.76626 0.65467 0.502 0.0
C633 C 0.74749 0.64263 0.50744 0.0
C634 C 0.73982 0.64409 0.53015 0.0
C635 C 0.75092 0.65747 0.54804 0.0
C636 C 0.76984 0.66921 0.54304 0.0
C637 C 0.77744 0.668 0.52006 0.0
C638 C 0.76782 0.6624 0.45734 0.0
C639 C 0.76793 0.67914 0.46103 0.0
C640 C 0.75925 0.68489 0.44361 0.0
C641 C 0.75085 0.67434 0.42189 0.0
C642 C 0.75233 0.65861 0.41707 0.0
C643 C 0.76056 0.65259 0.43482 0.0
C644 C 0.79132 0.65627 0.47568 0.0
C645 C 0.79316 0.64067 0.47904 0.0
C646 C 0.81053 0.64209 0.4779 0.0
C647 C 0.82659 0.65922 0.4732 0.0
C648 C 0.82476 0.67498 0.47008 0.0
C649 C 0.80728 0.67353 0.47137 0.0
C650 C 0.90276 0.66126 0.50218 0.0
C651 C 0.91647 0.67867 0.51117 0.0
C652 C 0.92491 0.68018 0.53454 0.0
C653 C 0.91962 0.66439 0.54936 0.0
C654 C 0.90542 0.64716 0.54091 0.0
C655 C 0.8971 0.64563 0.51744 0.0
C656 C 0.90857 0.66511 0.45686 0.0
C657 C 0.9176 0.68351 0.44822 0.0
C658 C 0.9325 0.68974 0.43135 0.0
C659 C 0.93846 0.67763 0.42294 0.0
C660 C 0.92885 0.65909 0.43065 0.0
C661 C 0.91405 0.65291 0.44749 0.0
C662 C 0.87896 0.66049 0.47389 0.0
C663 C 0.8634 0.64593 0.46232 0.0
C664 C 0.84668 0.6459 0.46124 0.0
C665 C 0.84505 0.66042 0.47197 0.0
C666 C 0.86096 0.6755 0.48253 0.0
C667 C 0.87781 0.67559 0.48338 0.0
H668 H 0.38371 0.1219 0.49738 0.0
N669 N 0.35656 0.12622 0.4785 0.0
H670 H 0.38427 0.10848 0.53852 0.0
H671 H 0.33101 0.11653 0.51628 0.0
H672 H 0.33158 0.1032 0.55725 0.0
H673 H 0.32632 0.09122 0.48258 0.0
H674 H 0.31741 0.06613 0.45237 0.0
H675 H 0.36778 0.1293 0.43064 0.0
H676 H 0.3578 0.1043 0.39951 0.0
H677 H 0.38522 0.15936 0.46892 0.0
H678 H 0.32633 0.13066 0.48112 0.0
H679 H 0.38568 0.18869 0.46609 0.0
H680 H 0.32667 0.16014 0.48041 0.0
H681 H 0.38601 0.27995 0.49722 0.0
H682 H 0.38367 0.29297 0.53776 0.0
H683 H 0.33046 0.24444 0.55103 0.0
H684 H 0.33286 0.2314 0.51045 0.0
H685 H 0.32493 0.23947 0.46914 0.0
H686 H 0.31421 0.25494 0.44002 0.0
H687 H 0.36962 0.2875 0.41065 0.0
H688 H 0.38025 0.27165 0.43943 0.0
H689 H 0.3861 0.24008 0.49153 0.0
H690 H 0.38423 0.2101 0.4917 0.0
H691 H 0.32988 0.18554 0.45753 0.0
N692 N 0.36096 0.24833 0.47624 0.0
H693 H 0.33144 0.2154 0.45905 0.0
C694 C 0.35742 0.1203 0.50379 0.0
C695 C 0.37248 0.11817 0.51058 0.0
C696 C 0.37279 0.11055 0.53394 0.0
C697 C 0.35797 0.10491 0.55084 0.0
C698 C 0.34318 0.1076 0.54448 0.0
C699 C 0.3429 0.11527 0.52113 0.0
C700 C 0.34814 0.1122 0.45918 0.0
C701 C 0.33326 0.09438 0.46452 0.0
C702 C 0.32806 0.07999 0.44718 0.0
C703 C 0.33717 0.08326 0.42385 0.0
C704 C 0.35075 0.10142 0.41752 0.0
C705 C 0.35637 0.11568 0.43521 0.0
C706 C 0.35588 0.14298 0.47572 0.0
C707 C 0.3724 0.1595 0.47121 0.0
C708 C 0.37261 0.17628 0.4699 0.0
C709 C 0.35628 0.17701 0.47362 0.0
C710 C 0.33954 0.16024 0.47739 0.0
C711 C 0.33932 0.14334 0.47817 0.0
C712 C 0.35968 0.25478 0.50094 0.0
C713 C 0.37396 0.27206 0.50904 0.0
C714 C 0.37262 0.27946 0.53203 0.0
C715 C 0.35691 0.26963 0.54726 0.0
C716 C 0.3427 0.25216 0.53947 0.0
C717 C 0.34405 0.24475 0.5164 0.0
C718 C 0.35343 0.2543 0.45625 0.0
C719 C 0.33465 0.24943 0.45586 0.0
C720 C 0.32854 0.25831 0.43933 0.0
C721 C 0.34116 0.27242 0.42331 0.0
C722 C 0.35968 0.27661 0.42281 0.0
C723 C 0.36572 0.26756 0.43911 0.0
C724 C 0.35912 0.23021 0.47507 0.0
C725 C 0.37379 0.22821 0.48408 0.0
C726 C 0.37272 0.21101 0.48391 0.0
C727 C 0.357 0.19526 0.47423 0.0
C728 C 0.34216 0.19724 0.46532 0.0
C729 C 0.34312 0.21448 0.46595 0.0
H730 H 0.78679 0.0814 0.51475 0.0
N731 N 0.79518 0.1102 0.48521 0.0
H732 H 0.76769 0.07205 0.55315 0.0
H733 H 0.78 0.12903 0.50763 0.0
H734 H 0.76096 0.11973 0.54624 0.0
H735 H 0.76477 0.11108 0.46751 0.0
H736 H 0.74243 0.08964 0.43655 0.0
H737 H 0.79984 0.08776 0.45443 0.0
H738 H 0.77769 0.06661 0.42291 0.0
H739 H 0.82652 0.12574 0.51126 0.0
H740 H 0.79757 0.13753 0.45341 0.0
H741 H 0.852 0.15751 0.50933 0.0
H742 H 0.82358 0.16888 0.44979 0.0
H743 H 0.93318 0.24661 0.49522 0.0
H744 H 0.94875 0.26102 0.53485 0.0
H745 H 0.90095 0.26409 0.55859 0.0
H746 H 0.88579 0.25076 0.51803 0.0
H747 H 0.91087 0.27477 0.45866 0.0
H748 H 0.93609 0.29137 0.42817 0.0
H749 H 0.94225 0.2434 0.4211 0.0
H750 H 0.91733 0.22689 0.45165 0.0
H751 H 0.90245 0.21118 0.48903 0.0
H752 H 0.87737 0.17911 0.48786 0.0
H753 H 0.83893 0.19758 0.46802 0.0
N754 N 0.89975 0.24183 0.47891 0.0
H755 H 0.86455 0.22944 0.46715 0.0
C756 C 0.78491 0.10591 0.50852 0.0
C757 C 0.78133 0.08991 0.52166 0.0
C758 C 0.77044 0.08458 0.54341 0.0
C759 C 0.76298 0.09523 0.5524 0.0
C760 C 0.76667 0.1114 0.53951 0.0
C761 C 0.77753 0.1167 0.51761 0.0
C762 C 0.78392 0.10085 0.46345 0.0
C763 C 0.76792 0.10172 0.45752 0.0
C764 C 0.7552 0.08954 0.43982 0.0
C765 C 0.75844 0.07656 0.42757 0.0
C766 C 0.77503 0.07662 0.43212 0.0
C767 C 0.78764 0.08865 0.45 0.0
C768 C 0.81013 0.12908 0.4825 0.0
C769 C 0.82581 0.13515 0.49785 0.0
C770 C 0.84051 0.15334 0.49646 0.0
C771 C 0.84013 0.16597 0.47921 0.0
C772 C 0.82439 0.15979 0.46363 0.0
C773 C 0.80946 0.14165 0.46547 0.0
C774 C 0.9084 0.24801 0.50335 0.0
C775 C 0.926 0.2504 0.50879 0.0
C776 C 0.93489 0.25856 0.5315 0.0
C777 C 0.9261 0.26383 0.54956 0.0
C778 C 0.90805 0.2603 0.54482 0.0
C779 C 0.89939 0.25267 0.52179 0.0
C780 C 0.91205 0.24959 0.45752 0.0
C781 C 0.9173 0.26766 0.45002 0.0
C782 C 0.93167 0.27711 0.43272 0.0
C783 C 0.94096 0.26856 0.42247 0.0
C784 C 0.93512 0.25013 0.42875 0.0
C785 C 0.92081 0.24071 0.44622 0.0
C786 C 0.88539 0.22267 0.4776 0.0
C787 C 0.8887 0.20824 0.48378 0.0
C788 C 0.87418 0.18986 0.48354 0.0
C789 C 0.85589 0.18551 0.47794 0.0
C790 C 0.85275 0.20013 0.47187 0.0
C791 C 0.86736 0.21843 0.47153 0.0
H792 H 0.05175 0.61121 0.18284 0.0
N793 N 0.03231 0.58272 0.2133 0.0
H794 H 0.04069 0.62024 0.14545 0.0
H795 H 0.99688 0.56486 0.19482 0.0
H796 H 0.9858 0.57383 0.15719 0.0
H797 H 0.00274 0.58207 0.23643 0.0
H798 H 0.00353 0.59951 0.2729 0.0
H799 H 0.06166 0.60526 0.24058 0.0
H800 H 0.06304 0.62298 0.27687 0.0
H801 H 0.04812 0.56811 0.18544 0.0
H802 H 0.00738 0.55444 0.24392 0.0
H803 H 0.04222 0.53646 0.18591 0.0
H804 H 0.00244 0.52328 0.24606 0.0
H805 H 0.03793 0.45392 0.19251 0.0
H806 H 0.03849 0.44009 0.15189 0.0
H807 H 0.98068 0.42198 0.14085 0.0
H808 H 0.98004 0.43563 0.18174 0.0
H809 H 0.98564 0.41993 0.23741 0.0
H810 H 0.99466 0.40351 0.26758 0.0
H811 H 0.0504 0.44987 0.26852 0.0
H812 H 0.04155 0.46616 0.2382 0.0
H813 H 0.04055 0.48343 0.20504 0.0
H814 H 0.04672 0.51508 0.20681 0.0
H815 H 0.98944 0.49487 0.22691 0.0
N816 N 0.00745 0.452 0.21495 0.0
H817 H 0.98398 0.46333 0.22718 0.0
C818 C 0.02521 0.58739 0.19144 0.0
C819 C 0.03735 0.603 0.17732 0.0
C820 C 0.03106 0.60812 0.15611 0.0
C821 C 0.01248 0.59765 0.14864 0.0
C822 C 1.00019 0.58201 0.16272 0.0
C823 C 0.0065 0.57692 0.1841 0.0
C824 C 0.03209 0.59174 0.2364 0.0
C825 C 0.01582 0.59037 0.24601 0.0
C826 C 0.01634 0.60017 0.2677 0.0
C827 C 0.03304 0.61114 0.28123 0.0
C828 C 0.04942 0.61322 0.27006 0.0
C829 C 0.04884 0.60336 0.24846 0.0
C830 C 0.02844 0.56384 0.21473 0.0
C831 C 0.03808 0.55832 0.19865 0.0
C832 C 0.0348 0.5402 0.19919 0.0
C833 C 0.02196 0.52713 0.21626 0.0
C834 C 0.01225 0.53273 0.23239 0.0
C835 C 0.01525 0.55078 0.23141 0.0
C836 C 0.00883 0.44567 0.19019 0.0
C837 C 0.02542 0.44718 0.18129 0.0
C838 C 0.02577 0.43932 0.15814 0.0
C839 C 0.00963 0.43004 0.14351 0.0
C840 C 0.99326 0.42914 0.15192 0.0
C841 C 0.99289 0.43688 0.17512 0.0
C842 C 0.01277 0.44429 0.23554 0.0
C843 C 0.99969 0.42672 0.24454 0.0
C844 C 0.00483 0.41737 0.26165 0.0
C845 C 0.02317 0.42552 0.27019 0.0
C846 C 0.03615 0.44344 0.26218 0.0
C847 C 0.03104 0.45274 0.24485 0.0
C848 C 0.01186 0.47099 0.21662 0.0
C849 C 0.02947 0.48583 0.21053 0.0
C850 C 0.03286 0.50401 0.21107 0.0
C851 C 0.01859 0.50777 0.21693 0.0
C852 C 1.00096 0.49277 0.22287 0.0
C853 C 0.99772 0.47465 0.22288 0.0
H854 H 0.61324 0.57801 0.19955 0.0
N855 N 0.58011 0.56733 0.21917 0.0
H856 H 0.62525 0.5927 0.15831 0.0
H857 H 0.56108 0.57479 0.18339 0.0
H858 H 0.57298 0.58921 0.14194 0.0
H859 H 0.5733 0.59597 0.22273 0.0
H860 H 0.58482 0.61964 0.25414 0.0
H861 H 0.59979 0.56968 0.2597 0.0
H862 H 0.61138 0.59309 0.29198 0.0
H863 H 0.57275 0.53394 0.20509 0.0
H864 H 0.54672 0.56326 0.23483 0.0
H865 H 0.54307 0.50528 0.20534 0.0
H866 H 0.51717 0.53443 0.237 0.0
H867 H 0.4564 0.41673 0.2003 0.0
H868 H 0.44226 0.40202 0.15974 0.0
H869 H 0.43272 0.44699 0.14269 0.0
H870 H 0.44691 0.46169 0.18292 0.0
H871 H 0.42652 0.44757 0.21981 0.0
H872 H 0.40117 0.431 0.24984 0.0
H873 H 0.43627 0.41837 0.29533 0.0
H874 H 0.4613 0.43391 0.26424 0.0
H875 H 0.49285 0.45308 0.22921 0.0
H876 H 0.52186 0.48247 0.2311 0.0
H877 H 0.49202 0.5113 0.21525 0.0
N878 N 0.4593 0.44746 0.2196 0.0
H879 H 0.4629 0.48172 0.21566 0.0
C880 C 0.58632 0.57525 0.19444 0.0
C881 C 0.60437 0.58033 0.18699 0.0
C882 C 0.61117 0.58865 0.16357 0.0
C883 C 0.59994 0.59192 0.14716 0.0
C884 C 0.58177 0.58667 0.15437 0.0
C885 C 0.57501 0.57848 0.17795 0.0
C886 C 0.58508 0.58058 0.23937 0.0
C887 C 0.58095 0.59488 0.23849 0.0
C888 C 0.58729 0.60837 0.25741 0.0
C889 C 0.59725 0.6076 0.27865 0.0
C890 C 0.60206 0.59356 0.27828 0.0
C891 C 0.59577 0.58015 0.2593 0.0
C892 C 0.56215 0.55071 0.22027 0.0
C893 C 0.56063 0.5341 0.21206 0.0
C894 C 0.54361 0.51766 0.21248 0.0
C895 C 0.52758 0.51729 0.22164 0.0
C896 C 0.52908 0.53407 0.22965 0.0
C897 C 0.54612 0.55065 0.2287 0.0
C898 C 0.45276 0.44028 0.19464 0.0
C899 C 0.45155 0.42354 0.18759 0.0
C900 C 0.4435 0.41519 0.16457 0.0
C901 C 0.43645 0.42344 0.14834 0.0
C902 C 0.43815 0.44047 0.15498 0.0
C903 C 0.44629 0.44887 0.17793 0.0
C904 C 0.44571 0.44155 0.23946 0.0
C905 C 0.42889 0.44139 0.23626 0.0
C906 C 0.41442 0.432 0.25349 0.0
C907 C 0.41672 0.42316 0.27459 0.0
C908 C 0.43412 0.4249 0.27902 0.0
C909 C 0.4484 0.4338 0.2614 0.0
C910 C 0.47587 0.46521 0.22176 0.0
C911 C 0.49264 0.46581 0.22638 0.0
C912 C 0.50924 0.48267 0.22713 0.0
C913 C 0.50953 0.49943 0.2227 0.0
C914 C 0.49249 0.4988 0.2188 0.0
C915 C 0.47578 0.48184 0.21863 0.0
H916 H 0.56273 0.96613 0.18104 0.0
N917 N 0.55594 0.98767 0.21062 0.0
H918 H 0.58186 0.97506 0.14267 0.0
H919 H 0.57262 0.02174 0.18806 0.0
H920 H 0.59162 0.03064 0.14945 0.0
H921 H 0.5862 0.01871 0.22921 0.0
H922 H 0.60821 0.01928 0.26048 0.0
H923 H 0.55163 0.95988 0.23973 0.0
H924 H 0.57363 0.96047 0.27116 0.0
H925 H 0.52579 0.97557 0.18235 0.0
H926 H 0.55408 0.01156 0.24529 0.0
H927 H 0.50178 0.98389 0.1847 0.0
H928 H 0.52951 0.01884 0.24902 0.0
H929 H 0.42452 0.99504 0.20005 0.0
H930 H 0.41052 0.99567 0.15982 0.0
H931 H 0.45821 0.04865 0.14254 0.0
H932 H 0.47187 0.0485 0.18366 0.0
H933 H 0.44819 0.04502 0.24371 0.0
H934 H 0.42295 0.03615 0.27427 0.0
H935 H 0.41181 0.97994 0.27279 0.0
H936 H 0.43684 0.98865 0.24242 0.0
H937 H 0.45267 0.98926 0.20568 0.0
H938 H 0.47628 0.98031 0.20587 0.0
H939 H 0.51663 0.03511 0.23191 0.0
N940 N 0.45724 0.02285 0.21963 0.0
H941 H 0.49237 0.04326 0.23359 0.0
C942 C 0.56618 0.99319 0.18725 0.0
C943 C 0.56885 0.98018 0.1741 0.0
C944 C 0.57974 0.98526 0.15235 0.0
C945 C 0.58808 0.00347 0.14335 0.0
C946 C 0.58522 0.01651 0.15617 0.0
C947 C 0.5744 0.01144 0.1781 0.0
C948 C 0.56724 0.98917 0.23214 0.0
C949 C 0.58312 0.00601 0.23868 0.0
C950 C 0.59565 0.00636 0.25653 0.0
C951 C 0.59249 0.98992 0.26805 0.0
C952 C 0.5762 0.9733 0.26254 0.0
C953 C 0.56367 0.97296 0.24472 0.0
C954 C 0.54187 0.99285 0.21344 0.0
C955 C 0.52672 0.98512 0.19687 0.0
C956 C 0.51284 0.98976 0.19848 0.0
C957 C 0.51347 0.002 0.21719 0.0
C958 C 0.5286 0.00963 0.23404 0.0
C959 C 0.54272 0.00529 0.23204 0.0
C960 C 0.44917 0.02199 0.19517 0.0
C961 C 0.43198 0.00689 0.18784 0.0
C962 C 0.42399 0.0072 0.16479 0.0
C963 C 0.43323 0.02229 0.14832 0.0
C964 C 0.45076 0.03696 0.1551 0.0
C965 C 0.45856 0.03686 0.17843 0.0
C966 C 0.44454 0.01765 0.24067 0.0
C967 C 0.44063 0.03089 0.25048 0.0
C968 C 0.42627 0.02585 0.26784 0.0
C969 C 0.41557 0.0074 0.27568 0.0
C970 C 0.42002 0.99426 0.267 0.0
C971 C 0.43438 0.9993 0.24961 0.0
C972 C 0.47071 0.01686 0.22016 0.0
C973 C 0.46649 0.99917 0.21203 0.0
C974 C 0.48018 0.9942 0.21173 0.0
C975 C 0.49857 0.00696 0.21881 0.0
C976 C 0.50266 0.02469 0.22683 0.0
C977 C 0.48884 0.02948 0.22765 0.0
H978 H 0.41011 0.97118 0.8325 0.0
N979 N 0.44311 0.99511 0.81363 0.0
H980 H 0.39629 0.97388 0.87213 0.0
H981 H 0.46037 0.02206 0.84949 0.0
H982 H 0.44659 0.02471 0.88913 0.0
H983 H 0.44479 0.02873 0.81139 0.0
H984 H 0.42933 0.0378 0.78001 0.0
H985 H 0.42952 0.97895 0.76932 0.0
H986 H 0.415 0.98864 0.73695 0.0
H987 H 0.45075 0.96836 0.82094 0.0
H988 H 0.47644 0.02661 0.80505 0.0
H989 H 0.48097 0.97046 0.82028 0.0
H990 H 0.5069 0.02885 0.80338 0.0
H991 H 0.58974 0.03127 0.8387 0.0
H992 H 0.60545 0.03361 0.8788 0.0
H993 H 0.57438 0.97428 0.88653 0.0
H994 H 0.55867 0.97191 0.84618 0.0
H995 H 0.58415 0.034 0.79444 0.0
H996 H 0.60983 0.04486 0.76397 0.0
H997 H 0.60077 0.98948 0.75832 0.0
H998 H 0.57537 0.97875 0.78901 0.0
H999 H 0.53351 0.97417 0.79386 0.0
H1000 H 0.50433 0.97427 0.79165 0.0
H1001 H 0.53027 0.02752 0.82871 0.0
N1002 N 0.56504 0.99923 0.81467 0.0
H1003 H 0.55962 0.02759 0.82974 0.0
C1004 C 0.43625 0.99628 0.83815 0.0
C1005 C 0.41823 0.98274 0.84497 0.0
C1006 C 0.41036 0.98431 0.86743 0.0
C1007 C 0.42046 0.99949 0.88342 0.0
C1008 C 0.43866 0.01288 0.87698 0.0
C1009 C 0.44652 0.01132 0.85446 0.0
C1010 C 0.43783 0.00282 0.79303 0.0
C1011 C 0.43848 0.01993 0.79517 0.0
C1012 C 0.42974 0.02518 0.77718 0.0
C1013 C 0.42072 0.01372 0.7564 0.0
C1014 C 0.42169 0.99756 0.753 0.0
C1015 C 0.42999 0.99206 0.77136 0.0
C1016 C 0.46132 0.9972 0.81281 0.0
C1017 C 0.46298 0.98159 0.81707 0.0
C1018 C 0.48028 0.98283 0.81648 0.0
C1019 C 0.49644 0.99979 0.8114 0.0
C1020 C 0.49479 0.01558 0.80743 0.0
C1021 C 0.47738 0.01432 0.8082 0.0
C1022 C 0.57298 0.00133 0.83945 0.0
C1023 C 0.58607 0.01877 0.8491 0.0
C1024 C 0.59506 0.02012 0.87195 0.0
C1025 C 0.59107 0.00411 0.88549 0.0
C1026 C 0.57759 0.98677 0.87631 0.0
C1027 C 0.56864 0.98542 0.85344 0.0
C1028 C 0.57797 0.00555 0.79402 0.0
C1029 C 0.58749 0.02417 0.78631 0.0
C1030 C 0.60206 0.03033 0.76893 0.0
C1031 C 0.60712 0.01792 0.75899 0.0
C1032 C 0.59698 0.9992 0.76572 0.0
C1033 C 0.58254 0.99309 0.78314 0.0
C1034 C 0.54862 1.00066 0.81224 0.0
C1035 C 0.53289 0.98593 0.80125 0.0
C1036 C 0.5162 0.98597 0.80024 0.0
C1037 C 0.51478 1.00075 0.81046 0.0
C1038 C 0.53082 0.01593 0.82061 0.0
C1039 C 0.54763 0.01593 0.82139 0.0
H1040 H 0.96429 0.56228 0.85014 0.0
N1041 N 0.98751 0.55744 0.82135 0.0
H1042 H 0.97141 0.58031 0.88936 0.0
H1043 H 0.02073 0.57384 0.84654 0.0
H1044 H 0.02779 0.59175 0.88586 0.0
H1045 H 0.01824 0.59001 0.80742 0.0
H1046 H 0.01891 0.61215 0.77645 0.0
H1047 H 0.96134 0.55172 0.78803 0.0
H1048 H 0.96216 0.5738 0.7566 0.0
H1049 H 0.96759 0.5224 0.83539 0.0
H1050 H 0.01926 0.56114 0.80018 0.0
H1051 H 0.97561 0.49812 0.83199 0.0
H1052 H 0.02712 0.53682 0.79562 0.0
H1053 H 0.99225 0.44062 0.84292 0.0
H1054 H 0.99238 0.4259 0.88293 0.0
H1055 H 0.05034 0.44428 0.8729 0.0
H1056 H 0.05005 0.45849 0.83231 0.0
H1057 H 0.04198 0.45976 0.77104 0.0
H1058 H 0.03408 0.4379 0.73736 0.0
H1059 H 0.9795 0.4045 0.76985 0.0
H1060 H 0.98794 0.42635 0.80342 0.0
H1061 H 0.98681 0.45403 0.80275 0.0
H1062 H 0.97899 0.47838 0.80352 0.0
H1063 H 0.03622 0.51863 0.81927 0.0
N1064 N 0.02139 0.45821 0.81004 0.0
H1065 H 0.04404 0.49411 0.81729 0.0
C1066 C 0.99186 0.5666 0.84553 0.0
C1067 C 0.9781 0.56845 0.85804 0.0
C1068 C 0.98216 0.57872 0.88029 0.0
C1069 C 1.00009 0.58727 0.89041 0.0
C1070 C 0.01386 0.58514 0.87831 0.0
C1071 C 0.0098 0.5749 0.85595 0.0
C1072 C 0.98961 0.5692 0.80017 0.0
C1073 C 0.00605 0.58615 0.7961 0.0
C1074 C 0.00647 0.59879 0.77842 0.0
C1075 C 0.99058 0.59458 0.76437 0.0
C1076 C 0.97457 0.57722 0.76723 0.0
C1077 C 0.9741 0.56466 0.78507 0.0
C1078 C 0.99266 0.54349 0.81789 0.0
C1079 C 0.98057 0.52556 0.8266 0.0
C1080 C 0.98515 0.51168 0.82446 0.0
C1081 C 0.00199 0.5154 0.81336 0.0
C1082 C 0.01412 0.53345 0.80453 0.0
C1083 C 0.00957 0.54739 0.80689 0.0
C1084 C 0.02115 0.45045 0.83444 0.0
C1085 C 0.00497 0.44144 0.84918 0.0
C1086 C 0.00505 0.43314 0.87206 0.0
C1087 C 0.02136 0.434 0.88074 0.0
C1088 C 0.03764 0.4435 0.86646 0.0
C1089 C 0.03748 0.45155 0.84341 0.0
C1090 C 0.01538 0.44536 0.78917 0.0
C1091 C 0.028 0.44809 0.77005 0.0
C1092 C 0.02306 0.43554 0.75005 0.0
C1093 C 0.00486 0.42019 0.74769 0.0
C1094 C 0.99277 0.417 0.76829 0.0
C1095 C 0.99778 0.42947 0.78834 0.0
C1096 C 0.01616 0.47226 0.8097 0.0
C1097 C 0.99776 0.46806 0.80605 0.0
C1098 C 0.99325 0.48207 0.80676 0.0
C1099 C 0.00694 0.50057 0.81151 0.0
C1100 C 0.02533 0.50466 0.81512 0.0
C1101 C 0.02984 0.49066 0.81417 0.0
H1102 H 0.44069 0.41978 0.83036 0.0
N1103 N 0.44655 0.45351 0.81387 0.0
H1104 H 0.42721 0.40511 0.8708 0.0
H1105 H 0.43865 0.46828 0.85305 0.0
H1106 H 0.42617 0.45395 0.89432 0.0
H1107 H 0.414 0.44434 0.79349 0.0
H1108 H 0.3965 0.41991 0.7623 0.0
H1109 H 0.4597 0.43424 0.78679 0.0
H1110 H 0.44232 0.41011 0.7556 0.0
H1111 H 0.47617 0.44891 0.82377 0.0
H1112 H 0.46066 0.48887 0.80187 0.0
H1113 H 0.50877 0.4728 0.82273 0.0
H1114 H 0.49309 0.51331 0.80276 0.0
H1115 H 0.60839 0.5612 0.85195 0.0
H1116 H 0.61765 0.58026 0.89035 0.0
H1117 H 0.57073 0.5882 0.88197 0.0
H1118 H 0.56155 0.56925 0.84333 0.0
H1119 H 0.57926 0.58379 0.80309 0.0
H1120 H 0.60058 0.60585 0.77181 0.0
H1121 H 0.62525 0.57179 0.76089 0.0
H1122 H 0.60395 0.5497 0.79238 0.0
H1123 H 0.56325 0.5222 0.84722 0.0
H1124 H 0.53102 0.49766 0.84465 0.0
H1125 H 0.52195 0.52728 0.78453 0.0
N1126 N 0.58019 0.55362 0.82149 0.0
H1127 H 0.55372 0.55229 0.78861 0.0
C1128 C 0.44029 0.44506 0.83839 0.0
C1129 C 0.43749 0.42736 0.84402 0.0
C1130 C 0.42986 0.41898 0.86719 0.0
C1131 C 0.4255 0.42836 0.88547 0.0
C1132 C 0.42925 0.44641 0.88039 0.0
C1133 C 0.43639 0.45458 0.85695 0.0
C1134 C 0.43818 0.44128 0.79255 0.0
C1135 C 0.42044 0.43723 0.78486 0.0
C1136 C 0.41048 0.42331 0.76715 0.0
C1137 C 0.41814 0.41323 0.75675 0.0
C1138 C 0.43623 0.41782 0.76339 0.0
C1139 C 0.44617 0.43168 0.78123 0.0
C1140 C 0.466 0.46708 0.81235 0.0
C1141 C 0.47983 0.46285 0.8185 0.0
C1142 C 0.49852 0.47668 0.81834 0.0
C1143 C 0.5038 0.4952 0.81276 0.0
C1144 C 0.48981 0.49927 0.80661 0.0
C1145 C 0.47118 0.48534 0.80624 0.0
C1146 C 0.5843 0.56373 0.84492 0.0
C1147 C 0.60001 0.56689 0.85855 0.0
C1148 C 0.60528 0.57774 0.88034 0.0
C1149 C 0.59484 0.58556 0.88889 0.0
C1150 C 0.57888 0.58219 0.87561 0.0
C1151 C 0.57367 0.5714 0.85366 0.0
C1152 C 0.59005 0.56505 0.80008 0.0
C1153 C 0.58895 0.58082 0.79361 0.0
C1154 C 0.60108 0.5934 0.77576 0.0
C1155 C 0.61445 0.59041 0.76413 0.0
C1156 C 0.61494 0.57424 0.7696 0.0
C1157 C 0.60281 0.56167 0.78746 0.0
C1158 C 0.56111 0.53914 0.8182 0.0
C1159 C 0.55426 0.52337 0.83351 0.0
C1160 C 0.5358 0.50922 0.83178 0.0
C1161 C 0.52367 0.51025 0.81423 0.0
C1162 C 0.53065 0.52601 0.7986 0.0
C1163 C 0.54905 0.54038 0.80075 0.0
H1164 H 0.72197 0.94541 0.51457 0.0
N1165 N 0.70286 0.9166 0.54465 0.0
H1166 H 0.71112 0.95332 0.47594 0.0
H1167 H 0.66884 0.89585 0.52267 0.0
H1168 H 0.65799 0.90367 0.48381 0.0
H1169 H 0.67095 0.91366 0.5633 0.0
H1170 H 0.66924 0.93429 0.59484 0.0
H1171 H 0.72988 0.93972 0.57513 0.0
H1172 H 0.7281 0.96002 0.60719 0.0
H1173 H 0.72754 0.9083 0.52761 0.0
H1174 H 0.67554 0.88512 0.56706 0.0
H1175 H 0.72649 0.87867 0.52975 0.0
H1176 H 0.67463 0.85539 0.57041 0.0
H1177 H 0.72647 0.79888 0.51229 0.0
H1178 H 0.72077 0.78208 0.47211 0.0
H1179 H 0.66192 0.75798 0.48299 0.0
H1180 H 0.66762 0.77449 0.52325 0.0
H1181 H 0.66927 0.77143 0.5685 0.0
H1182 H 0.66593 0.74757 0.59884 0.0
H1183 H 0.72518 0.77082 0.59912 0.0
H1184 H 0.72842 0.79438 0.56851 0.0
H1185 H 0.72985 0.82965 0.55452 0.0
H1186 H 0.72984 0.85879 0.55763 0.0
H1187 H 0.67047 0.8293 0.54655 0.0
N1188 N 0.70129 0.79633 0.54525 0.0
H1189 H 0.67065 0.80013 0.545 0.0
C1190 C 0.6963 0.92006 0.5213 0.0
C1191 C 0.70806 0.93618 0.50781 0.0
C1192 C 0.70187 0.94067 0.48592 0.0
C1193 C 0.6838 0.92905 0.47713 0.0
C1194 C 0.67201 0.91274 0.49036 0.0
C1195 C 0.67819 0.90829 0.51242 0.0
C1196 C 0.70064 0.92535 0.56672 0.0
C1197 C 0.68341 0.92341 0.5732 0.0
C1198 C 0.68241 0.93514 0.5912 0.0
C1199 C 0.69856 0.94868 0.60321 0.0
C1200 C 0.7155 0.94959 0.59817 0.0
C1201 C 0.71652 0.93804 0.57997 0.0
C1202 C 0.70179 0.89895 0.54736 0.0
C1203 C 0.71601 0.89679 0.53707 0.0
C1204 C 0.71542 0.87985 0.53853 0.0
C1205 C 0.70059 0.86459 0.55058 0.0
C1206 C 0.68622 0.86677 0.56087 0.0
C1207 C 0.68677 0.88379 0.55918 0.0
C1208 C 0.69753 0.78806 0.52059 0.0
C1209 C 0.71238 0.79022 0.50575 0.0
C1210 C 0.70913 0.78067 0.48296 0.0
C1211 C 0.69094 0.76889 0.47467 0.0
C1212 C 0.67604 0.76714 0.48907 0.0
C1213 C 0.67931 0.7766 0.51199 0.0
C1214 C 0.69912 0.78456 0.56628 0.0
C1215 C 0.68153 0.77159 0.57549 0.0
C1216 C 0.67963 0.75804 0.59277 0.0
C1217 C 0.69533 0.75749 0.60111 0.0
C1218 C 0.71295 0.77111 0.59296 0.0
C1219 C 0.7148 0.78452 0.57562 0.0
C1220 C 0.70036 0.81285 0.54913 0.0
C1221 C 0.71684 0.82952 0.55312 0.0
C1222 C 0.71678 0.84616 0.55462 0.0
C1223 C 0.70019 0.84654 0.55179 0.0
C1224 C 0.68351 0.82961 0.54886 0.0
C1225 C 0.68358 0.81289 0.5477 0.0
H1226 H 0.27843 0.90873 0.5351 0.0
N1227 N 0.24506 0.89912 0.55312 0.0
H1228 H 0.29188 0.92385 0.49452 0.0
H1229 H 0.22695 0.9058 0.51489 0.0
H1230 H 0.24021 0.92039 0.47427 0.0
H1231 H 0.24514 0.93192 0.55194 0.0
H1232 H 0.26209 0.95775 0.58122 0.0
H1233 H 0.25783 0.8974 0.5985 0.0
H1234 H 0.2738 0.92293 0.6287 0.0
H1235 H 0.24025 0.86561 0.55947 0.0
H1236 H 0.21044 0.89505 0.55325 0.0
H1237 H 0.21115 0.83634 0.56186 0.0
H1238 H 0.181 0.86568 0.5535 0.0
H1239 H 0.12023 0.74687 0.5294 0.0
H1240 H 0.10437 0.73472 0.48887 0.0
H1241 H 0.09792 0.78249 0.48038 0.0
H1242 H 0.11399 0.79473 0.52092 0.0
H1243 H 0.09918 0.78598 0.5625 0.0
H1244 H 0.07307 0.76931 0.59154 0.0
H1245 H 0.09618 0.73603 0.61645 0.0
H1246 H 0.12251 0.75295 0.5876 0.0
H1247 H 0.1593 0.78607 0.53556 0.0
H1248 H 0.18765 0.81595 0.53612 0.0
H1249 H 0.15889 0.83952 0.57532 0.0
N1250 N 0.12622 0.77743 0.55278 0.0
H1251 H 0.13027 0.80978 0.57304 0.0
C1252 C 0.25166 0.9059 0.52799 0.0
C1253 C 0.26993 0.91096 0.52172 0.0
C1254 C 0.27758 0.9196 0.4987 0.0
C1255 C 0.26698 0.92314 0.48149 0.0
C1256 C 0.24852 0.91762 0.48732 0.0
C1257 C 0.24094 0.9092 0.51049 0.0
C1258 C 0.25063 0.91282 0.57277 0.0
C1259 C 0.25109 0.92971 0.5688 0.0
C1260 C 0.26072 0.94445 0.58555 0.0
C1261 C 0.26949 0.94234 0.6069 0.0
C1262 C 0.2673 0.92489 0.6122 0.0
C1263 C 0.25815 0.91033 0.59508 0.0
C1264 C 0.22748 0.88236 0.55564 0.0
C1265 C 0.22732 0.86565 0.55838 0.0
C1266 C 0.21061 0.84892 0.55944 0.0
C1267 C 0.19354 0.84843 0.55723 0.0
C1268 C 0.19376 0.86538 0.55531 0.0
C1269 C 0.21059 0.88221 0.55482 0.0
C1270 C 0.11824 0.77161 0.52806 0.0
C1271 C 0.1156 0.75481 0.51861 0.0
C1272 C 0.10658 0.74791 0.49562 0.0
C1273 C 0.10003 0.75774 0.48175 0.0
C1274 C 0.10295 0.77478 0.49087 0.0
C1275 C 0.11206 0.78171 0.51392 0.0
C1276 C 0.11293 0.77079 0.57308 0.0
C1277 C 0.09901 0.77556 0.57478 0.0
C1278 C 0.08406 0.766 0.59126 0.0
C1279 C 0.08269 0.7514 0.60601 0.0
C1280 C 0.09704 0.74729 0.60527 0.0
C1281 C 0.11205 0.75696 0.58895 0.0
C1282 C 0.14266 0.79547 0.55443 0.0
C1283 C 0.15914 0.79771 0.54426 0.0
C1284 C 0.17541 0.81484 0.54486 0.0
C1285 C 0.17581 0.83027 0.55618 0.0
C1286 C 0.15919 0.82807 0.56627 0.0
C1287 C 0.14273 0.8109 0.5652 0.0
H1288 H 0.22747 0.30012 0.51177 0.0
N1289 N 0.22009 0.32026 0.54326 0.0
H1290 H 0.24727 0.31073 0.47404 0.0
H1291 H 0.23751 0.35539 0.52391 0.0
H1292 H 0.25722 0.366 0.48593 0.0
H1293 H 0.24988 0.35018 0.56483 0.0
H1294 H 0.27066 0.34905 0.5967 0.0
H1295 H 0.21465 0.29102 0.56999 0.0
H1296 H 0.23547 0.2899 0.60196 0.0
H1297 H 0.18986 0.30797 0.51512 0.0
H1298 H 0.21797 0.34374 0.57828 0.0
H1299 H 0.16552 0.31584 0.51793 0.0
H1300 H 0.19311 0.35058 0.58248 0.0
H1301 H 0.08426 0.32815 0.54013 0.0
H1302 H 0.07008 0.32864 0.50017 0.0
H1303 H 0.12154 0.37562 0.47594 0.0
H1304 H 0.13557 0.37596 0.51688 0.0
H1305 H 0.11295 0.37526 0.58412 0.0
H1306 H 0.09178 0.36698 0.61918 0.0
H1307 H 0.07768 0.30982 0.61021 0.0
H1308 H 0.09878 0.31853 0.57602 0.0
H1309 H 0.11587 0.32023 0.54027 0.0
H1310 H 0.13991 0.31181 0.53933 0.0
H1311 H 0.17981 0.36659 0.56595 0.0
N1312 N 0.11984 0.35323 0.55584 0.0
H1313 H 0.15518 0.37416 0.56877 0.0
C1314 C 0.23094 0.32689 0.52048 0.0
C1315 C 0.23381 0.31448 0.50611 0.0
C1316 C 0.24508 0.32052 0.48473 0.0
C1317 C 0.25364 0.33911 0.47731 0.0
C1318 C 0.25067 0.35159 0.49142 0.0
C1319 C 0.23945 0.34555 0.51299 0.0
C1320 C 0.23066 0.3206 0.56504 0.0
C1321 C 0.24637 0.33702 0.57325 0.0
C1322 C 0.2582 0.3364 0.59145 0.0
C1323 C 0.25454 0.3194 0.60164 0.0
C1324 C 0.23841 0.30315 0.59442 0.0
C1325 C 0.22657 0.30378 0.57627 0.0
C1326 C 0.20581 0.32512 0.54637 0.0
C1327 C 0.19066 0.31735 0.52981 0.0
C1328 C 0.17661 0.32174 0.53166 0.0
C1329 C 0.1771 0.3338 0.55058 0.0
C1330 C 0.19227 0.3415 0.56736 0.0
C1331 C 0.20656 0.3374 0.56512 0.0
C1332 C 0.11106 0.35232 0.53189 0.0
C1333 C 0.09258 0.33876 0.52658 0.0
C1334 C 0.08442 0.33896 0.50362 0.0
C1335 C 0.0947 0.35224 0.48513 0.0
C1336 C 0.1133 0.36536 0.49002 0.0
C1337 C 0.1213 0.36551 0.51329 0.0
C1338 C 0.10816 0.34778 0.578 0.0
C1339 C 0.10579 0.36107 0.59068 0.0
C1340 C 0.09379 0.35619 0.61131 0.0
C1341 C 0.08406 0.33782 0.62067 0.0
C1342 C 0.08589 0.3244 0.60663 0.0
C1343 C 0.098 0.32934 0.58611 0.0
C1344 C 0.1337 0.34774 0.55513 0.0
C1345 C 0.1297 0.33024 0.54647 0.0
C1346 C 0.14363 0.32558 0.54552 0.0
C1347 C 0.16201 0.33848 0.55253 0.0
C1348 C 0.16587 0.35606 0.56095 0.0
C1349 C 0.15184 0.36052 0.5624 0.0
C1350 C 0.01143 0.41916 0.07401 0.0
C1351 C 0.00908 0.40116 0.07585 0.0
C1352 C 0.00563 0.40164 0.1218 0.0
C1353 C 0.00951 0.42019 0.12014 0.0
N1354 N 0.01839 0.4476 0.09548 0.0
N1355 N 0.00704 0.37638 0.10169 0.0
C1356 C 0.0131 0.42926 0.09645 0.0
C1357 C 0.00693 0.39264 0.09979 0.0
N1358 N 0.01124 0.42628 0.05083 0.0
N1359 N 1.00038 0.3925 0.14438 0.0
H1360 H 0.00799 0.36927 0.08614 0.0
H1361 H 0.00781 0.37068 0.1188 0.0
H1362 H 0.99986 0.39877 0.16114 0.0
H1363 H 0.9952 0.37834 0.14622 0.0
H1364 H 0.01096 0.43848 0.04828 0.0
H1365 H 0.00971 0.41916 0.03402 0.0
H1366 H 0.02322 0.45557 0.07917 0.0
H1367 H 0.01926 0.45526 0.11148 0.0
C1368 C 0.62534 0.63063 0.09945 0.0
C1369 C 0.62428 0.62038 0.07753 0.0
C1370 C 0.60747 0.59137 0.10131 0.0
C1371 C 0.60763 0.60158 0.12282 0.0
N1372 N 0.6143 0.63048 0.14183 0.0
N1373 N 0.61223 0.59117 0.0561 0.0
C1374 C 0.61581 0.62109 0.12169 0.0
C1375 C 0.6148 0.60077 0.07804 0.0
N1376 N 0.63618 0.64949 0.09935 0.0
N1377 N 0.60059 0.57273 0.1033 0.0
H1378 H 0.61749 0.59764 0.03878 0.0
H1379 H 0.60376 0.5769 0.05457 0.0
H1380 H 0.59439 0.56528 0.11971 0.0
H1381 H 0.60197 0.56479 0.08928 0.0
H1382 H 0.63928 0.65765 0.11546 0.0
H1383 H 0.64342 0.65704 0.08349 0.0
H1384 H 0.61798 0.64435 0.14118 0.0
H1385 H 0.6081 0.6241 0.15884 0.0
C1386 C 0.41235 0.03742 0.09569 0.0
C1387 C 0.40569 0.02206 0.07907 0.0
C1388 C 0.42013 0.00879 0.10569 0.0
C1389 C 0.42439 0.0227 0.12405 0.0
N1390 N 0.42108 0.0483 0.13855 0.0
N1391 N 0.39949 0.99083 0.07196 0.0
C1392 C 0.41956 0.03651 0.11963 0.0
C1393 C 0.4086 0.00711 0.08498 0.0
N1394 N 0.41248 0.05315 0.08834 0.0
N1395 N 0.42739 0.99739 0.1077 0.0
H1396 H 0.38986 0.98835 0.05779 0.0
H1397 H 0.39985 0.97901 0.07725 0.0
H1398 H 0.43628 0.99847 0.1223 0.0
H1399 H 0.42614 0.9882 0.0935 0.0
H1400 H 0.41882 0.06533 0.09884 0.0
H1401 H 0.40811 0.05471 0.07054 0.0
H1402 H 0.41595 0.05734 0.13702 0.0
H1403 H 0.42576 0.04778 0.15662 0.0
C1404 C 0.39056 0.01047 0.92629 0.0
C1405 C 0.39498 0.00612 0.95025 0.0
C1406 C 0.41496 0.99606 0.93022 0.0
C1407 C 0.41165 0.00171 0.90648 0.0
N1408 N 0.39826 0.01629 0.88178 0.0
N1409 N 0.41244 0.99638 0.97584 0.0
C1410 C 0.39991 0.0094 0.90445 0.0
C1411 C 0.40752 0.99939 0.95245 0.0
N1412 N 0.37739 0.01557 0.92443 0.0
N1413 N 0.42479 0.98701 0.93136 0.0
H1414 H 0.40647 0.99761 0.99248 0.0
H1415 H 0.42314 0.99364 0.97898 0.0
H1416 H 0.4307 0.98461 0.91551 0.0
H1417 H 0.42604 0.9807 0.94758 0.0
H1418 H 0.37196 0.01688 0.90737 0.0
H1419 H 0.37089 0.01737 0.94008 0.0
H1420 H 0.39164 0.02394 0.87951 0.0
H1421 H 0.4047 0.01554 0.86532 0.0
C1422 C 0.02302 0.4235 0.95053 0.0
C1423 C 0.01983 0.40518 0.94903 0.0
C1424 C 0.01956 0.40656 0.90274 0.0
C1425 C 0.02118 0.42426 0.90431 0.0
N1426 N 0.02291 0.44918 0.92925 0.0
N1427 N 0.01271 0.3782 0.92414 0.0
C1428 C 0.02246 0.43262 0.92811 0.0
C1429 C 0.01764 0.39647 0.92525 0.0
N1430 N 0.02732 0.43242 0.9733 0.0
N1431 N 0.01994 0.39941 0.87967 0.0
H1432 H 0.01133 0.37027 0.94003 0.0
H1433 H 0.00853 0.37039 0.90765 0.0
H1434 H 0.02018 0.40579 0.86265 0.0
H1435 H 0.02124 0.38775 0.87732 0.0
H1436 H 0.03162 0.44637 0.97545 0.0
H1437 H 0.02811 0.42624 0.99 0.0
H1438 H 0.02161 0.455 0.94593 0.0
H1439 H 0.02345 0.4567 0.91323 0.0
C1440 C 0.62383 0.62787 0.92936 0.0
C1441 C 0.61808 0.6204 0.95396 0.0
C1442 C 0.59577 0.59027 0.93585 0.0
C1443 C 0.60127 0.59787 0.91131 0.0
N1444 N 0.61744 0.62455 0.8844 0.0
N1445 N 0.59618 0.59595 0.98087 0.0
C1446 C 0.61425 0.61693 0.90801 0.0
C1447 C 0.60329 0.60201 0.95727 0.0
N1448 N 0.63921 0.64494 0.92627 0.0
N1449 N 0.5838 0.57172 0.93864 0.0
H1450 H 0.60124 0.60432 0.99686 0.0
H1451 H 0.58429 0.58331 0.98438 0.0
H1452 H 0.57747 0.56288 0.92337 0.0
H1453 H 0.58092 0.56488 0.95591 0.0
H1454 H 0.6454 0.65015 0.90884 0.0
H1455 H 0.6468 0.65343 0.94127 0.0
H1456 H 0.62519 0.63872 0.88104 0.0
H1457 H 0.61102 0.61684 0.86825 0.0
C1458 C 0.00925 0.62817 0.93157 0.0
C1459 C 0.0089 0.62102 0.95603 0.0
C1460 C 0.00346 0.59182 0.93744 0.0
C1461 C 0.00451 0.59924 0.91303 0.0
N1462 N 0.01212 0.6255 0.88643 0.0
N1463 N 0.00967 0.59784 0.98223 0.0
C1464 C 0.00864 0.61778 0.90999 0.0
C1465 C 0.00717 0.60334 0.95896 0.0
N1466 N 0.00904 0.64433 0.92887 0.0
N1467 N 0.99838 0.5736 0.94006 0.0
H1468 H 0.01283 0.60615 0.99824 0.0
H1469 H 0.01034 0.58589 0.98529 0.0
H1470 H 0.99612 0.56492 0.9247 0.0
H1471 H 0.99524 0.56677 0.95736 0.0
H1472 H 0.00693 0.64901 0.91166 0.0
H1473 H 0.00943 0.65244 0.94405 0.0
H1474 H 0.01721 0.63953 0.88322 0.0
H1475 H 0.01146 0.6182 0.87013 0.0
C1476 C 0.39108 0.40854 0.94004 0.0
C1477 C 0.39905 0.40016 0.95485 0.0
C1478 C 0.42582 0.41306 0.92635 0.0
C1479 C 0.41657 0.41905 0.90969 0.0
N1480 N 0.38832 0.41867 0.89837 0.0
N1481 N 0.42219 0.39087 0.95828 0.0
C1482 C 0.39859 0.41572 0.91586 0.0
C1483 C 0.41597 0.40147 0.94705 0.0
N1484 N 0.37684 0.41039 0.94937 0.0
N1485 N 0.44414 0.41878 0.92284 0.0
H1486 H 0.41488 0.3812 0.97235 0.0
H1487 H 0.43352 0.39011 0.95157 0.0
H1488 H 0.45198 0.42769 0.90828 0.0
H1489 H 0.45194 0.41624 0.93588 0.0
H1490 H 0.37174 0.41795 0.94017 0.0
H1491 H 0.37155 0.40627 0.96753 0.0
H1492 H 0.37445 0.4147 0.90119 0.0
H1493 H 0.39297 0.42327 0.88008 0.0
C1494 C 0.6035 0.00386 0.9547 0.0
C1495 C 0.6221 0.00784 0.95248 0.0
C1496 C 0.61972 0.00777 0.90634 0.0
C1497 C 0.60173 0.00543 0.90863 0.0
N1498 N 0.57732 0.00384 0.93469 0.0
N1499 N 0.64909 0.01682 0.92661 0.0
C1500 C 0.59384 0.00422 0.93275 0.0
C1501 C 0.63053 0.01062 0.9284 0.0
N1502 N 0.59482 0.99897 0.97762 0.0
N1503 N 0.62631 0.00681 0.88309 0.0
H1504 H 0.65758 0.01933 0.94231 0.0
H1505 H 0.65644 0.02108 0.90974 0.0
H1506 H 0.61893 0.00501 0.86643 0.0
H1507 H 0.63841 0.0063 0.88047 0.0
H1508 H 0.58073 0.99407 0.98005 0.0
H1509 H 0.60133 0.99821 0.994 0.0
H1510 H 0.57183 0.00502 0.95176 0.0
H1511 H 0.56974 0.00379 0.919 0.0
C1512 C 0.63021 0.01616 0.10261 0.0
C1513 C 0.62259 0.01422 0.07806 0.0
C1514 C 0.59254 0.00648 0.09634 0.0
C1515 C 0.60027 0.00879 0.12083 0.0
N1516 N 0.62706 0.01933 0.14758 0.0
N1517 N 0.59809 0.01175 0.05133 0.0
C1518 C 0.61934 0.01483 0.12403 0.0
C1519 C 0.60419 0.01062 0.07486 0.0
N1520 N 0.6474 0.01814 0.10559 0.0
N1521 N 0.57396 0.99986 0.09365 0.0
H1522 H 0.60647 0.01522 0.03533 0.0
H1523 H 0.58545 0.01099 0.04792 0.0
H1524 H 0.56515 0.9974 0.10895 0.0
H1525 H 0.56705 0.99574 0.07643 0.0
H1526 H 0.65271 0.01723 0.12296 0.0
H1527 H 0.65594 0.0193 0.09054 0.0
H1528 H 0.64125 0.02576 0.15088 0.0
H1529 H 0.61941 0.01804 0.16379 0.0
C1530 C 0.00255 0.60317 0.07999 0.0
C1531 C 1.00105 0.61929 0.08189 0.0
C1532 C 1.00165 0.61753 0.12809 0.0
C1533 C 0.00619 0.60337 0.12591 0.0
N1534 N 0.01164 0.58286 0.10009 0.0
N1535 N 1.00031 0.64276 0.10769 0.0
C1536 C 0.00663 0.59607 0.10194 0.0
C1537 C 1.00057 0.62657 0.10594 0.0
N1538 N 0.99963 0.59444 0.05722 0.0
N1539 N 0.9984 0.62231 0.1514 0.0
H1540 H 0.99941 0.64985 0.0921 0.0
H1541 H 0.00237 0.64996 0.12452 0.0
H1542 H 0.99934 0.61611 0.16799 0.0
H1543 H 0.99317 0.63117 0.15416 0.0
H1544 H 0.99886 0.58171 0.0549 0.0
H1545 H 0.99614 0.59907 0.04097 0.0
H1546 H 0.01443 0.57858 0.08302 0.0
H1547 H 0.0141 0.57688 0.11582 0.0
C1548 C 0.39881 0.38808 0.10514 0.0
C1549 C 0.40623 0.39561 0.08109 0.0
C1550 C 0.43439 0.42021 0.10104 0.0
C1551 C 0.42621 0.4137 0.1251 0.0
N1552 N 0.39949 0.39337 0.15018 0.0
N1553 N 0.43006 0.41969 0.05566 0.0
C1554 C 0.40813 0.39809 0.12721 0.0
C1555 C 0.42373 0.41196 0.0789 0.0
N1556 N 0.38289 0.3713 0.10693 0.0
N1557 N 0.45254 0.43389 0.09942 0.0
H1558 H 0.42304 0.41355 0.03896 0.0
H1559 H 0.44166 0.4327 0.05299 0.0
H1560 H 0.46073 0.44021 0.11525 0.0
H1561 H 0.45993 0.43797 0.08256 0.0
H1562 H 0.37795 0.36412 0.12383 0.0
H1563 H 0.37529 0.36378 0.09125 0.0
H1564 H 0.38557 0.3835 0.15253 0.0
H1565 H 0.40576 0.40042 0.16681 0.0
C1566 C 0.68496 0.7295 0.43246 0.0
C1567 C 0.68296 0.73584 0.40844 0.0
C1568 C 0.68681 0.76427 0.42769 0.0
C1569 C 0.68756 0.75733 0.45184 0.0
N1570 N 0.68455 0.73232 0.47795 0.0
N1571 N 0.67913 0.75772 0.38327 0.0
C1572 C 0.68573 0.7396 0.45443 0.0
C1573 C 0.68314 0.75284 0.40605 0.0
N1574 N 0.68717 0.71439 0.43418 0.0
N1575 N 0.68995 0.78191 0.42546 0.0
H1576 H 0.67624 0.74961 0.3671 0.0
H1577 H 0.67717 0.76896 0.38075 0.0
H1578 H 0.69202 0.7904 0.44099 0.0
H1579 H 0.69172 0.78859 0.40824 0.0
H1580 H 0.69085 0.71037 0.45078 0.0
H1581 H 0.68697 0.70672 0.41857 0.0
H1582 H 0.681 0.71863 0.48108 0.0
H1583 H 0.68574 0.73953 0.49455 0.0
C1584 C 0.29206 0.96329 0.43554 0.0
C1585 C 0.29214 0.95376 0.41344 0.0
C1586 C 0.27681 0.92426 0.43636 0.0
C1587 C 0.27557 0.93363 0.45795 0.0
N1588 N 0.28011 0.96158 0.47779 0.0
N1589 N 0.28267 0.9252 0.39134 0.0
C1590 C 0.28262 0.95302 0.45742 0.0
C1591 C 0.28408 0.93424 0.41346 0.0
N1592 N 0.30172 0.98222 0.43594 0.0
N1593 N 0.27123 0.90586 0.43789 0.0
H1594 H 0.28788 0.93205 0.37424 0.0
H1595 H 0.27517 0.91088 0.3894 0.0
H1596 H 0.26509 0.89794 0.45399 0.0
H1597 H 0.27371 0.89866 0.42388 0.0
H1598 H 0.30397 0.99005 0.45219 0.0
H1599 H 0.30884 0.99025 0.42033 0.0
H1600 H 0.28282 0.97516 0.47752 0.0
H1601 H 0.27415 0.95476 0.49467 0.0
C1602 C 0.06742 0.33519 0.42386 0.0
C1603 C 0.06815 0.35152 0.4146 0.0
C1604 C 0.08449 0.3678 0.45313 0.0
C1605 C 0.08594 0.35224 0.46057 0.0
N1606 N 0.08262 0.32273 0.44931 0.0
N1607 N 0.0813 0.38462 0.41818 0.0
C1608 C 0.07858 0.33641 0.4448 0.0
C1609 C 0.07779 0.36821 0.4286 0.0
N1610 N 0.05533 0.3183 0.41376 0.0
N1611 N 0.08881 0.38189 0.46975 0.0
H1612 H 0.07751 0.38574 0.39981 0.0
H1613 H 0.08979 0.39735 0.42678 0.0
H1614 H 0.09316 0.38187 0.48819 0.0
H1615 H 0.08624 0.39264 0.46603 0.0
H1616 H 0.05318 0.30592 0.42156 0.0
H1617 H 0.04584 0.31638 0.39963 0.0
H1618 H 0.07898 0.31176 0.4369 0.0
H1619 H 0.09129 0.32337 0.46395 0.0
C1620 C 0.08001 0.35479 0.27487 0.0
C1621 C 0.06364 0.33912 0.28407 0.0
C1622 C 0.06324 0.32168 0.24664 0.0
C1623 C 0.08087 0.33652 0.23937 0.0
N1624 N 0.10804 0.36543 0.25053 0.0
N1625 N 0.0423 0.30619 0.28135 0.0
C1626 C 0.08989 0.35253 0.25473 0.0
C1627 C 0.05597 0.32212 0.27072 0.0
N1628 N 0.08563 0.37206 0.28419 0.0
N1629 N 0.05304 0.30754 0.23026 0.0
H1630 H 0.03723 0.30564 0.2995 0.0
H1631 H 0.0375 0.29321 0.27327 0.0
H1632 H 0.05748 0.307 0.21206 0.0
H1633 H 0.03937 0.29738 0.23382 0.0
H1634 H 0.09653 0.38402 0.27634 0.0
H1635 H 0.07816 0.37476 0.29758 0.0
H1636 H 0.11567 0.37648 0.26273 0.0
H1637 H 0.11597 0.36399 0.23649 0.0
C1638 C 0.6842 0.72742 0.25831 0.0
C1639 C 0.6883 0.73623 0.28224 0.0
C1640 C 0.69697 0.76595 0.26211 0.0
C1641 C 0.6916 0.75688 0.23841 0.0
N1642 N 0.67787 0.7288 0.21389 0.0
N1643 N 0.69685 0.76321 0.30776 0.0
C1644 C 0.68468 0.73756 0.23647 0.0
C1645 C 0.69416 0.75532 0.28439 0.0
N1646 N 0.67985 0.70936 0.25649 0.0
N1647 N 0.70526 0.7848 0.26316 0.0
H1648 H 0.69593 0.75614 0.32441 0.0
H1649 H 0.69897 0.77643 0.31086 0.0
H1650 H 0.7073 0.79297 0.24726 0.0
H1651 H 0.71132 0.79253 0.27937 0.0
H1652 H 0.67887 0.70275 0.23945 0.0
H1653 H 0.67833 0.70115 0.27215 0.0
H1654 H 0.67069 0.71449 0.21173 0.0
H1655 H 0.67817 0.73576 0.1974 0.0
C1656 C 0.27763 0.95956 0.26868 0.0
C1657 C 0.28586 0.95357 0.28712 0.0
C1658 C 0.27593 0.9252 0.2628 0.0
C1659 C 0.27063 0.9326 0.2425 0.0
N1660 N 0.26937 0.95856 0.22467 0.0
N1661 N 0.29692 0.93253 0.29774 0.0
C1662 C 0.2722 0.95025 0.24503 0.0
C1663 C 0.28605 0.93683 0.28324 0.0
N1664 N 0.27446 0.97372 0.27395 0.0
N1665 N 0.27118 0.907 0.26271 0.0
H1666 H 0.306 0.94128 0.31149 0.0
H1667 H 0.29869 0.92128 0.29389 0.0
H1668 H 0.26331 0.89789 0.24835 0.0
H1669 H 0.27332 0.90059 0.2782 0.0
H1670 H 0.26697 0.97748 0.26201 0.0
H1671 H 0.2775 0.98036 0.29142 0.0
H1672 H 0.27222 0.9722 0.22493 0.0
H1673 H 0.26585 0.95247 0.20686 0.0
C1674 C 0.68289 0.96496 0.26081 0.0
C1675 C 0.68474 0.95843 0.28479 0.0
C1676 C 0.69076 0.93563 0.26424 0.0
C1677 C 0.68765 0.94135 0.24042 0.0
N1678 N 0.67769 0.95906 0.21589 0.0
N1679 N 0.6887 0.93656 0.30987 0.0
C1680 C 0.68288 0.95538 0.23867 0.0
C1681 C 0.68807 0.94339 0.28665 0.0
N1682 N 0.68126 0.98042 0.25913 0.0
N1683 N 0.69696 0.92329 0.26535 0.0
H1684 H 0.68818 0.94271 0.32673 0.0
H1685 H 0.68878 0.92427 0.31254 0.0
H1686 H 0.69881 0.91714 0.24934 0.0
H1687 H 0.70149 0.92005 0.28185 0.0
H1688 H 0.68214 0.98714 0.24221 0.0
H1689 H 0.68026 0.98739 0.27479 0.0
H1690 H 0.67199 0.96756 0.21375 0.0
H1691 H 0.67755 0.95236 0.19922 0.0
C1692 C 0.05997 0.74321 0.27232 0.0
C1693 C 0.06714 0.73419 0.2874 0.0
C1694 C 0.09456 0.74675 0.26011 0.0
C1695 C 0.08616 0.75353 0.2432 0.0
N1696 N 0.05864 0.75416 0.2306 0.0
N1697 N 0.08929 0.72368 0.29152 0.0
C1698 C 0.06821 0.75061 0.24854 0.0
C1699 C 0.08394 0.73496 0.28023 0.0
N1700 N 0.04582 0.74546 0.28104 0.0
N1701 N 0.1128 0.75191 0.25739 0.0
H1702 H 0.08138 0.71385 0.30512 0.0
H1703 H 0.10052 0.72256 0.28524 0.0
H1704 H 0.1212 0.76092 0.24328 0.0
H1705 H 0.12001 0.74875 0.27068 0.0
H1706 H 0.04133 0.75346 0.27168 0.0
H1707 H 0.04002 0.74117 0.29892 0.0
H1708 H 0.04481 0.75054 0.2328 0.0
H1709 H 0.06379 0.75888 0.21253 0.0
C1710 C 0.26941 0.34595 0.2883 0.0
C1711 C 0.28607 0.34539 0.28633 0.0
C1712 C 0.28446 0.34632 0.24016 0.0
C1713 C 0.26928 0.34937 0.24233 0.0
N1714 N 0.24791 0.35353 0.26822 0.0
N1715 N 0.31091 0.34737 0.26061 0.0
C1716 C 0.26183 0.34947 0.26635 0.0
C1717 C 0.2939 0.34598 0.2623 0.0
N1718 N 0.26057 0.34256 0.31105 0.0
N1719 N 0.28976 0.34362 0.21688 0.0
H1720 H 0.31846 0.34738 0.27627 0.0
H1721 H 0.31829 0.35008 0.2438 0.0
H1722 H 0.28331 0.34403 0.20021 0.0
H1723 H 0.29942 0.33936 0.2142 0.0
H1724 H 0.24749 0.34103 0.31335 0.0
H1725 H 0.26557 0.33952 0.32733 0.0
H1726 H 0.24335 0.35596 0.2853 0.0
H1727 H 0.24168 0.35566 0.2525 0.0
C1728 C 0.29567 0.35234 0.43612 0.0
C1729 C 0.28813 0.35133 0.41173 0.0
C1730 C 0.25842 0.34425 0.43053 0.0
C1731 C 0.26597 0.34531 0.45487 0.0
N1732 N 0.29256 0.35419 0.48142 0.0
N1733 N 0.26422 0.35083 0.38575 0.0
C1734 C 0.2849 0.35068 0.45782 0.0
C1735 C 0.27004 0.34867 0.40897 0.0
N1736 N 0.31263 0.35372 0.43858 0.0
N1737 N 0.23999 0.33845 0.42801 0.0
H1738 H 0.27265 0.35451 0.36978 0.0
H1739 H 0.25185 0.35073 0.3827 0.0
H1740 H 0.23124 0.33581 0.44343 0.0
H1741 H 0.23311 0.33523 0.41074 0.0
H1742 H 0.31783 0.35209 0.45565 0.0
H1743 H 0.32112 0.35522 0.42329 0.0
H1744 H 0.3067 0.36003 0.48473 0.0
H1745 H 0.28496 0.35269 0.49775 0.0
C1746 C 0.6754 0.93573 0.40827 0.0
C1747 C 0.67153 0.95036 0.41074 0.0
C1748 C 0.67045 0.94681 0.45681 0.0
C1749 C 0.67735 0.93448 0.4543 0.0
N1750 N 0.68701 0.91735 0.42802 0.0
N1751 N 0.66623 0.97068 0.43752 0.0
C1752 C 0.67982 0.92882 0.43011 0.0
C1753 C 0.66893 0.95593 0.43504 0.0
N1754 N 0.67435 0.92815 0.38504 0.0
N1755 N 0.66537 0.94979 0.48009 0.0
H1756 H 0.66473 0.97768 0.42227 0.0
H1757 H 0.66675 0.97691 0.45474 0.0
H1758 H 0.66665 0.9436 0.49647 0.0
H1759 H 0.6584 0.95706 0.48291 0.0
H1760 H 0.6754 0.91639 0.38216 0.0
H1761 H 0.67055 0.93255 0.36883 0.0
H1762 H 0.69126 0.9145 0.41098 0.0
H1763 H 0.68974 0.91147 0.44362 0.0
C1764 C 0.08733 0.74773 0.41203 0.0
C1765 C 0.06957 0.73167 0.41402 0.0
C1766 C 0.07076 0.73469 0.4601 0.0
C1767 C 0.08927 0.74955 0.45826 0.0
N1768 N 0.11609 0.76921 0.43303 0.0
N1769 N 0.04485 0.70859 0.43963 0.0
C1770 C 0.09779 0.7559 0.43435 0.0
C1771 C 0.06142 0.72477 0.43799 0.0
N1772 N 0.09416 0.75517 0.38881 0.0
N1773 N 0.06194 0.73044 0.48296 0.0
H1774 H 0.03718 0.70127 0.42388 0.0
H1775 H 0.03924 0.7017 0.45654 0.0
H1776 H 0.06834 0.73744 0.49956 0.0
H1777 H 0.04786 0.72111 0.48521 0.0
H1778 H 0.10605 0.76797 0.38618 0.0
H1779 H 0.08726 0.74911 0.37201 0.0
H1780 H 0.12372 0.773 0.41638 0.0
H1781 H 0.1241 0.77567 0.44896 0.0
C1782 C 0.34786 0.06356 0.76647 0.0
C1783 C 0.34499 0.06972 0.74284 0.0
C1784 C 0.3426 0.09462 0.76382 0.0
C1785 C 0.34422 0.08767 0.78757 0.0
N1786 N 0.34666 0.06468 0.81213 0.0
N1787 N 0.33787 0.08969 0.71853 0.0
C1788 C 0.34634 0.07187 0.78906 0.0
C1789 C 0.34194 0.08493 0.74136 0.0
N1790 N 0.35277 0.05021 0.76723 0.0
N1791 N 0.34191 0.11062 0.7628 0.0
H1792 H 0.33752 0.083 0.70175 0.0
H1793 H 0.33363 0.09937 0.71628 0.0
H1794 H 0.34159 0.11763 0.77889 0.0
H1795 H 0.34277 0.1176 0.74615 0.0
H1796 H 0.35722 0.0466 0.78348 0.0
H1797 H 0.35374 0.04357 0.75116 0.0
H1798 H 0.34577 0.0519 0.81458 0.0
H1799 H 0.34671 0.07095 0.82916 0.0
C1800 C 0.96107 0.30064 0.76897 0.0
C1801 C 0.95507 0.29266 0.74469 0.0
C1802 C 0.92618 0.26785 0.76286 0.0
C1803 C 0.93259 0.27535 0.78724 0.0
N1804 N 0.95744 0.29651 0.81433 0.0
N1805 N 0.9339 0.26682 0.71899 0.0
C1806 C 0.95049 0.291 0.79054 0.0
C1807 C 0.93818 0.2757 0.74177 0.0
N1808 N 0.97628 0.3179 0.77133 0.0
N1809 N 0.90842 0.25362 0.75976 0.0
H1810 H 0.94251 0.27203 0.70323 0.0
H1811 H 0.92275 0.25353 0.71626 0.0
H1812 H 0.89937 0.24725 0.77483 0.0
H1813 H 0.90221 0.24898 0.7422 0.0
H1814 H 0.98007 0.32532 0.78816 0.0
H1815 H 0.98432 0.32557 0.75602 0.0
H1816 H 0.97112 0.30658 0.81796 0.0
H1817 H 0.94999 0.28988 0.83057 0.0
C1818 C 0.75498 0.70206 0.74645 0.0
C1819 C 0.73736 0.68589 0.74398 0.0
C1820 C 0.73978 0.67649 0.78699 0.0
C1821 C 0.75811 0.69171 0.78862 0.0
N1822 N 0.78435 0.71749 0.76874 0.0
N1823 N 0.71405 0.65618 0.76012 0.0
C1824 C 0.76604 0.70415 0.76805 0.0
C1825 C 0.7301 0.67261 0.76369 0.0
N1826 N 0.76114 0.7154 0.72818 0.0
N1827 N 0.73129 0.6662 0.80802 0.0
H1828 H 0.70619 0.65294 0.74365 0.0
H1829 H 0.70922 0.64514 0.7727 0.0
H1830 H 0.73779 0.66875 0.82557 0.0
H1831 H 0.71728 0.65626 0.80871 0.0
H1832 H 0.77289 0.7284 0.73018 0.0
H1833 H 0.75381 0.71395 0.71158 0.0
H1834 H 0.79149 0.72574 0.75335 0.0
H1835 H 0.7929 0.71933 0.78414 0.0
C1836 C 0.72986 0.67642 0.59487 0.0
C1837 C 0.72625 0.66436 0.61566 0.0
C1838 C 0.73792 0.64716 0.59174 0.0
C1839 C 0.74243 0.65982 0.57142 0.0
N1840 N 0.74391 0.68711 0.55364 0.0
N1841 N 0.72854 0.6397 0.63559 0.0
C1842 C 0.73875 0.67464 0.57301 0.0
C1843 C 0.73062 0.65002 0.61451 0.0
N1844 N 0.72416 0.68917 0.59575 0.0
N1845 N 0.74053 0.63235 0.58915 0.0
H1846 H 0.72308 0.64131 0.65248 0.0
H1847 H 0.7333 0.63038 0.6371 0.0
H1848 H 0.74688 0.63042 0.57343 0.0
H1849 H 0.73556 0.6214 0.60186 0.0
H1850 H 0.72428 0.69695 0.58035 0.0
H1851 H 0.71812 0.69127 0.61167 0.0
H1852 H 0.74385 0.6995 0.55474 0.0
H1853 H 0.74921 0.68558 0.53657 0.0
C1854 C 0.35869 0.09346 0.62047 0.0
C1855 C 0.35531 0.0751 0.61858 0.0
C1856 C 0.35248 0.07594 0.5726 0.0
C1857 C 0.35721 0.09476 0.57427 0.0
N1858 N 0.36726 0.12236 0.59902 0.0
N1859 N 0.35152 0.04954 0.59305 0.0
C1860 C 0.36097 0.1038 0.59803 0.0
C1861 C 0.35302 0.06657 0.59468 0.0
N1862 N 0.35946 0.1009 0.64373 0.0
N1863 N 0.34669 0.0668 0.55007 0.0
H1864 H 0.35116 0.04189 0.60881 0.0
H1865 H 0.35201 0.04353 0.57608 0.0
H1866 H 0.34607 0.07314 0.53344 0.0
H1867 H 0.34102 0.05257 0.54818 0.0
H1868 H 0.3598 0.11339 0.64647 0.0
H1869 H 0.35859 0.09397 0.66052 0.0
H1870 H 0.37209 0.13021 0.61542 0.0
H1871 H 0.36896 0.13029 0.58296 0.0
C1872 C 0.94705 0.30024 0.60151 0.0
C1873 C 0.95569 0.29286 0.61699 0.0
C1874 C 0.94244 0.26514 0.5903 0.0
C1875 C 0.93611 0.27371 0.57299 0.0
N1876 N 0.93652 0.30155 0.5595 0.0
N1877 N 0.96516 0.27001 0.62217 0.0
C1878 C 0.93961 0.2919 0.57781 0.0
C1879 C 0.95436 0.27575 0.61036 0.0
N1880 N 0.94512 0.31466 0.6098 0.0
N1881 N 0.93672 0.24676 0.58807 0.0
H1882 H 0.97499 0.27784 0.63583 0.0
H1883 H 0.9659 0.2585 0.61629 0.0
H1884 H 0.92757 0.23838 0.57406 0.0
H1885 H 0.93954 0.23949 0.60166 0.0
H1886 H 0.9374 0.31934 0.60009 0.0
H1887 H 0.94929 0.3205 0.62768 0.0
H1888 H 0.94056 0.31549 0.56137 0.0
H1889 H 0.93178 0.29629 0.54147 0.0
C1890 C 0.35646 0.2804 0.61713 0.0
C1891 C 0.352 0.29469 0.61568 0.0
C1892 C 0.34955 0.29161 0.56959 0.0
C1893 C 0.35508 0.27811 0.57092 0.0
N1894 N 0.36631 0.26134 0.59508 0.0
N1895 N 0.34666 0.31575 0.59076 0.0
C1896 C 0.35921 0.27294 0.59448 0.0
C1897 C 0.34935 0.30091 0.59195 0.0
N1898 N 0.35794 0.2739 0.6402 0.0
N1899 N 0.34379 0.29499 0.54705 0.0
H1900 H 0.34555 0.32244 0.60668 0.0
H1901 H 0.34677 0.3223 0.574 0.0
H1902 H 0.34387 0.28856 0.53023 0.0
H1903 H 0.33756 0.30304 0.54523 0.0
H1904 H 0.35889 0.26205 0.64264 0.0
H1905 H 0.35725 0.27982 0.65719 0.0
H1906 H 0.37153 0.25856 0.6113 0.0
H1907 H 0.36824 0.25541 0.57888 0.0
C1908 C 0.74791 0.08781 0.62125 0.0
C1909 C 0.72985 0.07222 0.61887 0.0
C1910 C 0.73207 0.07554 0.57278 0.0
C1911 C 0.75108 0.08902 0.57523 0.0
N1912 N 0.7776 0.10783 0.60143 0.0
N1913 N 0.70476 0.05048 0.59233 0.0
C1914 C 0.75911 0.09527 0.59939 0.0
C1915 C 0.72176 0.06606 0.59464 0.0
N1916 N 0.75413 0.09571 0.64443 0.0
N1917 N 0.7239 0.07184 0.5495 0.0
H1918 H 0.69654 0.04321 0.60769 0.0
H1919 H 0.69925 0.04394 0.57518 0.0
H1920 H 0.73117 0.07835 0.53309 0.0
H1921 H 0.70969 0.0636 0.54667 0.0
H1922 H 0.76647 0.10809 0.64719 0.0
H1923 H 0.74603 0.09083 0.66069 0.0
H1924 H 0.78478 0.11125 0.61847 0.0
H1925 H 0.78608 0.11408 0.58581 0.0
C1926 C 0.93329 0.66966 0.61888 0.0
C1927 C 0.94986 0.66883 0.61751 0.0
C1928 C 0.9454 0.66317 0.57188 0.0
C1929 C 0.92985 0.66572 0.57295 0.0
N1930 N 0.91 0.67344 0.59654 0.0
N1931 N 0.97326 0.66748 0.59226 0.0
C1932 C 0.92409 0.66958 0.59621 0.0
C1933 C 0.95629 0.66618 0.59391 0.0
N1934 N 0.92589 0.66964 0.64191 0.0
N1935 N 0.94965 0.65763 0.54982 0.0
H1936 H 0.98173 0.66957 0.60781 0.0
H1937 H 0.97972 0.66803 0.57522 0.0
H1938 H 0.94251 0.65602 0.53298 0.0
H1939 H 0.95935 0.65332 0.54856 0.0
H1940 H 0.91291 0.66834 0.64426 0.0
H1941 H 0.93196 0.6692 0.65892 0.0
H1942 H 0.90653 0.67845 0.61236 0.0
H1943 H 0.90254 0.67288 0.58043 0.0
C1944 C 0.94166 0.68779 0.74163 0.0
C1945 C 0.95895 0.68842 0.74342 0.0
C1946 C 0.9601 0.69469 0.78886 0.0
C1947 C 0.94199 0.69213 0.78745 0.0
N1948 N 0.91456 0.68446 0.76339 0.0
N1949 N 0.98356 0.68992 0.76927 0.0
C1950 C 0.93248 0.68817 0.76407 0.0
C1951 C 0.96799 0.69135 0.76714 0.0
N1952 N 0.93442 0.68763 0.71841 0.0
N1953 N 0.96986 0.70049 0.81095 0.0
H1954 H 0.98995 0.68755 0.75401 0.0
H1955 H 0.98936 0.68953 0.7865 0.0
H1956 H 0.96433 0.70238 0.82757 0.0
H1957 H 0.98389 0.70479 0.81238 0.0
H1958 H 0.92282 0.68901 0.71571 0.0
H1959 H 0.94101 0.68786 0.70158 0.0
H1960 H 0.90613 0.67937 0.74751 0.0
H1961 H 0.90764 0.68525 0.77931 0.0
C1962 C 0.32736 0.28103 0.76411 0.0
C1963 C 0.34077 0.28697 0.74454 0.0
C1964 C 0.35786 0.27534 0.76868 0.0
C1965 C 0.34616 0.27213 0.78973 0.0
N1966 N 0.32125 0.27467 0.80877 0.0
N1967 N 0.37145 0.29387 0.7315 0.0
C1968 C 0.33124 0.27566 0.78782 0.0
C1969 C 0.35672 0.28516 0.74759 0.0
N1970 N 0.31069 0.27992 0.75987 0.0
N1971 N 0.36995 0.26882 0.76863 0.0
H1972 H 0.37209 0.3025 0.71687 0.0
H1973 H 0.38402 0.29435 0.73458 0.0
H1974 H 0.37089 0.26116 0.78352 0.0
H1975 H 0.37753 0.2693 0.75273 0.0
H1976 H 0.29977 0.27403 0.7727 0.0
H1977 H 0.30707 0.28309 0.74251 0.0
H1978 H 0.31153 0.27901 0.80895 0.0
H1979 H 0.32382 0.27108 0.82654 0.0
C1980 C 0.74545 0.05851 0.7603 0.0
C1981 C 0.73628 0.06603 0.74628 0.0
C1982 C 0.74828 0.09215 0.77572 0.0
C1983 C 0.75493 0.08315 0.79172 0.0
N1984 N 0.75623 0.05557 0.80145 0.0
N1985 N 0.72535 0.08797 0.7447 0.0
C1986 C 0.75252 0.06569 0.78465 0.0
C1987 C 0.73672 0.08234 0.75501 0.0
N1988 N 0.74814 0.04503 0.75008 0.0
N1989 N 0.75331 0.1102 0.77989 0.0
H1990 H 0.71564 0.08064 0.73068 0.0
H1991 H 0.72401 0.09877 0.75218 0.0
H1992 H 0.76223 0.11806 0.79443 0.0
H1993 H 0.75022 0.11786 0.76731 0.0
H1994 H 0.75624 0.04034 0.75872 0.0
H1995 H 0.74414 0.04009 0.73175 0.0
H1996 H 0.75294 0.04198 0.79797 0.0
H1997 H 0.7608 0.05997 0.81982 0.0
C1998 C 0.05213 0.3638 0.0715 0.0
C1999 C 0.04755 0.35809 0.04605 0.0
C2000 C 0.06777 0.34463 0.04698 0.0
C2001 C 0.07076 0.34865 0.07315 0.0
N2002 N 0.0638 0.35968 0.11137 0.0
N2003 N 0.04935 0.34164 0.00986 0.0
C2004 C 0.06239 0.35759 0.08571 0.0
C2005 C 0.055 0.34819 0.03378 0.0
N2006 N 0.0473 0.3758 0.08179 0.0
N2007 N 0.07743 0.33775 0.03473 0.0
H2008 H 0.04022 0.34422 0.99958 0.0
H2009 H 0.05266 0.33262 1.00082 0.0
H2010 H 0.08664 0.33473 0.04397 0.0
H2011 H 0.07739 0.3363 0.01522 0.0
H2012 H 0.05186 0.38197 0.09939 0.0
H2013 H 0.04021 0.38105 0.07172 0.0
H2014 H 0.05622 0.36411 0.12189 0.0
H2015 H 0.0714 0.35558 0.12251 0.0
C2016 C 0.68142 0.71486 0.05289 0.0
C2017 C 0.66325 0.70291 0.04371 0.0
C2018 C 0.65391 0.7247 0.05925 0.0
C2019 C 0.67111 0.7348 0.07201 0.0
N2020 N 0.69978 0.73671 0.08524 0.0
N2021 N 0.6311 0.69506 0.04219 0.0
C2022 C 0.68453 0.72917 0.06995 0.0
C2023 C 0.64917 0.70749 0.04774 0.0
N2024 N 0.69588 0.71285 0.04488 0.0
N2025 N 0.6422 0.73164 0.05782 0.0
H2026 H 0.62674 0.68196 0.03483 0.0
H2027 H 0.62017 0.69705 0.04729 0.0
H2028 H 0.64537 0.74432 0.06574 0.0
H2029 H 0.6303 0.72572 0.04669 0.0
H2030 H 0.70964 0.7223 0.04929 0.0
H2031 H 0.69436 0.70305 0.03151 0.0
H2032 H 0.70893 0.73166 0.0861 0.0
H2033 H 0.70225 0.74657 0.09904 0.0
C2034 C 0.32655 0.97357 0.07577 0.0
C2035 C 0.32637 0.97269 0.04899 0.0
C2036 C 0.2964 0.94373 0.05016 0.0
C2037 C 0.29727 0.94399 0.07691 0.0
N2038 N 0.31435 0.95738 0.11531 0.0
N2039 N 0.31242 0.95632 0.01044 0.0
C2040 C 0.31264 0.95847 0.08976 0.0
C2041 C 0.31167 0.95755 0.03609 0.0
N2042 N 0.34002 0.98888 0.0879 0.0
N2043 N 0.28076 0.93055 0.03831 0.0
H2044 H 0.32297 0.96658 0.9995 0.0
H2045 H 0.30327 0.94471 1.00007 0.0
H2046 H 0.26948 0.92016 0.04809 0.0
H2047 H 0.27834 0.93058 0.01905 0.0
H2048 H 0.33958 0.99144 0.10704 0.0
H2049 H 0.35117 0.99975 0.07862 0.0
H2050 H 0.32625 0.96624 0.1254 0.0
H2051 H 0.30442 0.94667 0.12638 0.0
C2052 C 0.38391 0.0757 0.97623 0.0
C2053 C 0.36885 0.0611 0.98941 0.0
C2054 C 0.35154 0.07747 0.98464 0.0
C2055 C 0.36438 0.08893 0.96601 0.0
N2056 N 0.39756 0.10764 0.96366 0.0
N2057 N 0.33866 0.04901 0.00857 0.0
C2058 C 0.38218 0.09076 0.96725 0.0
C2059 C 0.35275 0.06228 0.99445 0.0
N2060 N 0.39956 0.07493 0.97119 0.0
N2061 N 0.34036 0.0829 0.9959 0.0
H2062 H 0.33947 0.03832 0.0175 0.0
H2063 H 0.32584 0.04823 0.01032 0.0
H2064 H 0.34169 0.09576 0.99195 0.0
H2065 H 0.33188 0.07607 0.01128 0.0
H2066 H 0.41004 0.08449 0.95947 0.0
H2067 H 0.40139 0.06403 0.97697 0.0
H2068 H 0.41097 0.11014 0.96659 0.0
H2069 H 0.39656 0.11952 0.96127 0.0
C2070 C 0.95648 0.30869 0.98871 0.0
C2071 C 0.96672 0.32673 0.97835 0.0
C2072 C 0.94957 0.3159 0.93864 0.0
C2073 C 0.93846 0.29811 0.94946 0.0
N2074 N 0.92935 0.27798 0.98565 0.0
N2075 N 0.97036 0.34856 0.94594 0.0
C2076 C 0.94134 0.29461 0.97479 0.0
C2077 C 0.9625 0.33064 0.95401 0.0
N2078 N 0.9616 0.30493 0.01146 0.0
N2079 N 0.9482 0.31858 0.91344 0.0
H2080 H 0.97956 0.35978 0.95696 0.0
H2081 H 0.96642 0.35245 0.92945 0.0
H2082 H 0.93886 0.30818 0.90144 0.0
H2083 H 0.95742 0.33066 0.90394 0.0
H2084 H 0.95604 0.29166 0.01886 0.0
H2085 H 0.97238 0.31503 0.02229 0.0
H2086 H 0.92949 0.27517 0.00476 0.0
H2087 H 0.91829 0.26734 0.97584 0.0
C2088 C 0.71292 0.68364 0.9704 0.0
C2089 C 0.70282 0.66605 0.98215 0.0
C2090 C 0.72707 0.65923 0.96942 0.0
C2091 C 0.73545 0.67552 0.95448 0.0
N2092 N 0.73368 0.70121 0.93657 0.0
N2093 N 0.69884 0.63563 0.98901 0.0
C2094 C 0.72767 0.68721 0.95384 0.0
C2095 C 0.70954 0.65344 0.98083 0.0
N2096 N 0.70884 0.69721 0.97563 0.0
N2097 N 0.73596 0.64945 0.97306 0.0
H2098 H 0.68562 0.63049 0.99652 0.0
H2099 H 0.70232 0.62544 0.98601 0.0
H2100 H 0.74888 0.6534 0.96519 0.0
H2101 H 0.73136 0.63851 0.98579 0.0
H2102 H 0.71697 0.71079 0.96937 0.0
H2103 H 0.69867 0.69549 0.98853 0.0
H2104 H 0.7271 0.70886 0.93371 0.0
H2105 H 0.74393 0.70394 0.92326 0.0
C2106 C 0.96135 0.67242 0.99417 0.0
C2107 C 0.96889 0.66229 0.98279 0.0
C2108 C 0.95475 0.66245 0.9423 0.0
C2109 C 0.94669 0.67207 0.95382 0.0
N2110 N 0.93922 0.68316 0.9914 0.0
N2111 N 0.96907 0.64368 0.94819 0.0
C2112 C 0.94901 0.67608 0.98004 0.0
C2113 C 0.96446 0.6561 0.95748 0.0
N2114 N 0.96665 0.67926 0.01805 0.0
N2115 N 0.95378 0.66004 0.91671 0.0
H2116 H 0.97577 0.63836 0.95902 0.0
H2117 H 0.96468 0.63725 0.93071 0.0
H2118 H 0.94659 0.66424 0.90488 0.0
H2119 H 0.96126 0.65514 0.90692 0.0
H2120 H 0.96334 0.6885 0.02638 0.0
H2121 H 0.97549 0.67668 0.02902 0.0
H2122 H 0.93884 0.68471 0.01084 0.0
H2123 H 0.93019 0.6861 0.98148 0.0
C2124 C 0.38151 0.31623 0.99396 0.0
C2125 C 0.36561 0.31822 0.99592 0.0
C2126 C 0.34661 0.28657 0.9798 0.0
C2127 C 0.363 0.2869 0.97197 0.0
N2128 N 0.39148 0.29374 0.99238 0.0
N2129 N 0.33224 0.30396 0.99398 0.0
C2130 C 0.37936 0.29928 0.98514 0.0
C2131 C 0.34786 0.30294 0.98997 0.0
N2132 N 0.39881 0.33065 0.99906 0.0
N2133 N 0.33049 0.27005 0.98128 0.0
H2134 H 0.33236 0.31496 0.00341 0.0
H2135 H 0.31928 0.29413 0.98709 0.0
H2136 H 0.33019 0.2576 0.97779 0.0
H2137 H 0.31832 0.2685 0.98903 0.0
H2138 H 0.41075 0.32996 0.99555 0.0
H2139 H 0.40141 0.34371 0.00452 0.0
H2140 H 0.40284 0.30171 0.00401 0.0
H2141 H 0.38854 0.28017 0.98948 0.0
C2142 C 0.70766 0.07346 0.98587 0.0
C2143 C 0.70534 0.05621 0.99388 0.0
C2144 C 0.73851 0.06824 0.9867 0.0
C2145 C 0.73936 0.08328 0.97314 0.0
N2146 N 0.73027 0.10578 0.98229 0.0
N2147 N 0.71936 0.03796 0.00532 0.0
C2148 C 0.72554 0.08779 0.97892 0.0
C2149 C 0.72106 0.05386 0.99553 0.0
N2150 N 0.69286 0.07613 0.98393 0.0
N2151 N 0.7546 0.06904 0.99383 0.0
H2152 H 0.70727 0.02778 0.01391 0.0
H2153 H 0.72978 0.0346 0.00405 0.0
H2154 H 0.76746 0.0807 0.99011 0.0
H2155 H 0.75517 0.05943 0.00575 0.0
H2156 H 0.69401 0.0881 0.97604 0.0
H2157 H 0.67932 0.06592 0.98813 0.0
H2158 H 0.72089 0.10969 0.98858 0.0
H2159 H 0.74413 0.11629 0.98275 0.0
C2160 C 0.6696 0.96301 0.03725 0.0
C2161 C 0.6636 0.97384 0.05045 0.0
C2162 C 0.66747 0.9618 0.09073 0.0
C2163 C 0.67216 0.94993 0.07756 0.0
N2164 N 0.67433 0.93663 0.03826 0.0
N2165 N 0.65198 0.97965 0.08897 0.0
C2166 C 0.6722 0.94974 0.05076 0.0
C2167 C 0.6611 0.97208 0.07698 0.0
N2168 N 0.67365 0.96598 0.0121 0.0
N2169 N 0.66983 0.9639 0.1163 0.0
H2170 H 0.64631 0.98654 0.07935 0.0
H2171 H 0.64821 0.97731 0.10794 0.0
H2172 H 0.67483 0.95694 0.12718 0.0
H2173 H 0.66853 0.97388 0.12638 0.0
H2174 H 0.68 0.95996 0.00209 0.0
H2175 H 0.67206 0.97565 0.00161 0.0
H2176 H 0.67262 0.93458 0.01884 0.0
H2177 H 0.67622 0.92671 0.0476 0.0
C2178 C 0.05174 0.69784 0.07657 0.0
C2179 C 0.04858 0.69949 0.0506 0.0
C2180 C 0.07107 0.7328 0.05185 0.0
C2181 C 0.07418 0.73115 0.07782 0.0
N2182 N 0.06962 0.71221 0.11447 0.0
N2183 N 0.05676 0.71743 0.01233 0.0
C2184 C 0.06514 0.71367 0.09004 0.0
C2185 C 0.0588 0.71665 0.03784 0.0
N2186 N 0.04172 0.68109 0.08836 0.0
N2187 N 0.0795 0.74992 0.04085 0.0
H2188 H 0.04739 0.70602 0.00172 0.0
H2189 H 0.06503 0.72897 1.00128 0.0
H2190 H 0.08909 0.76188 0.05032 0.0
H2191 H 0.07643 0.75256 0.02284 0.0
H2192 H 0.04139 0.6792 0.10779 0.0
H2193 H 0.03309 0.66888 0.07868 0.0
H2194 H 0.06516 0.69974 0.12381 0.0
H2195 H 0.07879 0.72357 0.12531 0.0
C2196 C 0.32674 0.36875 0.07882 0.0
C2197 C 0.3246 0.3645 0.05266 0.0
C2198 C 0.29355 0.36096 0.05355 0.0
C2199 C 0.29516 0.3637 0.08007 0.0
N2200 N 0.312 0.36746 0.11874 0.0
N2201 N 0.30546 0.35444 0.01544 0.0
C2202 C 0.31137 0.36674 0.09294 0.0
C2203 C 0.30787 0.36008 0.04005 0.0
N2204 N 0.34375 0.37567 0.08994 0.0
N2205 N 0.27849 0.35955 0.04127 0.0
H2206 H 0.3157 0.35374 0.00503 0.0
H2207 H 0.29294 0.34917 0.00584 0.0
H2208 H 0.26754 0.35959 0.05071 0.0
H2209 H 0.27734 0.35956 0.02171 0.0
H2210 H 0.34668 0.38094 0.10822 0.0
H2211 H 0.3555 0.37786 0.08016 0.0
H2212 H 0.32249 0.3674 0.12929 0.0
H2213 H 0.3013 0.36665 0.12982 0.0
C2214 C 0.73536 0.70166 0.38088 0.0
C2215 C 0.71635 0.68837 0.37704 0.0
C2216 C 0.71984 0.66629 0.40351 0.0
C2217 C 0.73918 0.6789 0.40545 0.0
N2218 N 0.76597 0.70692 0.39101 0.0
N2219 N 0.69215 0.65635 0.37865 0.0
C2220 C 0.74715 0.69607 0.39252 0.0
C2221 C 0.7091 0.67015 0.38649 0.0
N2222 N 0.742 0.71982 0.37491 0.0
N2223 N 0.71146 0.65109 0.4188 0.0
H2224 H 0.68431 0.65845 0.36513 0.0
H2225 H 0.68695 0.64249 0.38328 0.0
H2226 H 0.71857 0.64807 0.43244 0.0
H2227 H 0.69713 0.64255 0.41978 0.0
H2228 H 0.75525 0.7303 0.37985 0.0
H2229 H 0.73382 0.72478 0.36728 0.0
H2230 H 0.77252 0.71872 0.37975 0.0
H2231 H 0.775 0.70313 0.39901 0.0
C2232 C 0.34462 0.04931 0.38444 0.0
C2233 C 0.32609 0.03553 0.37898 0.0
C2234 C 0.31541 0.05539 0.39774 0.0
C2235 C 0.33352 0.0674 0.40711 0.0
N2236 N 0.36468 0.07312 0.41363 0.0
N2237 N 0.29333 0.02424 0.38464 0.0
C2238 C 0.348 0.06369 0.40156 0.0
C2239 C 0.31128 0.03826 0.38654 0.0
N2240 N 0.35906 0.04896 0.37283 0.0
N2241 N 0.3022 0.06044 0.39921 0.0
H2242 H 0.28954 0.01115 0.37773 0.0
H2243 H 0.28226 0.02503 0.39234 0.0
H2244 H 0.30486 0.07305 0.40682 0.0
H2245 H 0.28929 0.05299 0.39055 0.0
H2246 H 0.37275 0.05962 0.37461 0.0
H2247 H 0.35716 0.03922 0.35911 0.0
H2248 H 0.37495 0.06956 0.41193 0.0
H2249 H 0.36756 0.08308 0.42744 0.0
C2250 C 0.99128 0.30264 0.40684 0.0
C2251 C 0.99031 0.30405 0.38023 0.0
C2252 C 0.9571 0.28109 0.3809 0.0
C2253 C 0.9581 0.27969 0.40749 0.0
N2254 N 0.97634 0.28629 0.44542 0.0
N2255 N 0.97357 0.29278 0.3412 0.0
C2256 C 0.9753 0.28959 0.42034 0.0
C2257 C 0.9736 0.2926 0.36701 0.0
N2258 N 0.00745 0.31411 0.41925 0.0
N2259 N 0.94025 0.27188 0.36915 0.0
H2260 H 0.9853 0.30142 0.33058 0.0
H2261 H 0.96237 0.28357 0.33022 0.0
H2262 H 0.92805 0.26291 0.37869 0.0
H2263 H 0.9381 0.27379 0.35031 0.0
H2264 H 0.00856 0.31558 0.43877 0.0
H2265 H 0.0198 0.32297 0.40996 0.0
H2266 H 0.98871 0.29143 0.45534 0.0
H2267 H 0.96484 0.27725 0.45615 0.0
C2268 C 0.03821 0.39088 0.28761 0.0
C2269 C 0.03578 0.38996 0.31421 0.0
C2270 C 0.02679 0.41375 0.31236 0.0
C2271 C 0.02898 0.41449 0.28573 0.0
N2272 N 0.03971 0.40645 0.24822 0.0
N2273 N 0.03102 0.40234 0.35263 0.0
C2274 C 0.03566 0.4039 0.27344 0.0
C2275 C 0.03119 0.40207 0.32684 0.0
N2276 N 0.04256 0.37896 0.27588 0.0
N2277 N 0.01991 0.42377 0.3236 0.0
H2278 H 0.03369 0.39361 0.36368 0.0
H2279 H 0.02949 0.41196 0.36322 0.0
H2280 H 0.01724 0.43295 0.31365 0.0
H2281 H 0.01598 0.42242 0.34245 0.0
H2282 H 0.04221 0.37712 0.25643 0.0
H2283 H 0.04586 0.37019 0.2857 0.0
H2284 H 0.04649 0.40074 0.23855 0.0
H2285 H 0.03742 0.41536 0.23702 0.0
C2286 C 0.62025 0.65596 0.30514 0.0
C2287 C 0.63313 0.65499 0.32167 0.0
C2288 C 0.61452 0.62116 0.32032 0.0
C2289 C 0.60492 0.62252 0.29908 0.0
N2290 N 0.58875 0.63895 0.29031 0.0
N2291 N 0.64122 0.63645 0.34788 0.0
C2292 C 0.60475 0.6393 0.29657 0.0
C2293 C 0.62979 0.6375 0.33033 0.0
N2294 N 0.62299 0.67262 0.29685 0.0
N2295 N 0.60749 0.6047 0.33274 0.0
H2296 H 0.65169 0.64808 0.35695 0.0
H2297 H 0.64072 0.62411 0.35258 0.0
H2298 H 0.5949 0.59326 0.32736 0.0
H2299 H 0.61279 0.60307 0.34973 0.0
H2300 H 0.61474 0.67367 0.28291 0.0
H2301 H 0.63424 0.68524 0.30244 0.0
H2302 H 0.58748 0.65074 0.29028 0.0
H2303 H 0.57621 0.62647 0.28915 0.0
C2304 C 0.36476 0.98768 0.29257 0.0
C2305 C 0.36624 0.99317 0.31818 0.0
C2306 C 0.39971 0.00487 0.31712 0.0
C2307 C 0.3985 0.00156 0.29073 0.0
N2308 N 0.38027 0.99174 0.25251 0.0
N2309 N 0.38496 0.00809 0.35478 0.0
C2310 C 0.38111 0.99337 0.27824 0.0
C2311 C 0.38365 0.0019 0.33057 0.0
N2312 N 0.34766 0.97658 0.28216 0.0
N2313 N 0.41615 0.01062 0.3293 0.0
H2314 H 0.37345 0.00588 0.36526 0.0
H2315 H 0.39749 0.01641 0.36395 0.0
H2316 H 0.42816 0.01309 0.31988 0.0
H2317 H 0.41758 0.01154 0.34884 0.0
H2318 H 0.34567 0.97052 0.26442 0.0
H2319 H 0.33536 0.97193 0.29221 0.0
H2320 H 0.3683 0.98795 0.24212 0.0
H2321 H 0.39188 0.99556 0.24123 0.0
C2322 C 0.62453 0.99573 0.32324 0.0
C2323 C 0.63488 0.98821 0.3125 0.0
C2324 C 0.61861 0.98351 0.27228 0.0
C2325 C 0.60723 0.98966 0.28351 0.0
N2326 N 0.5975 0.99943 0.32031 0.0
N2327 N 0.63898 0.97112 0.2789 0.0
C2328 C 0.60966 0.99516 0.30921 0.0
C2329 C 0.63118 0.98106 0.28757 0.0
N2330 N 0.6293 0.00393 0.34646 0.0
N2331 N 0.61776 0.98043 0.24683 0.0
H2332 H 0.64771 0.96841 0.28987 0.0
H2333 H 0.63534 0.96396 0.26185 0.0
H2334 H 0.60864 0.98192 0.2349 0.0
H2335 H 0.62719 0.97799 0.23718 0.0
H2336 H 0.62362 0.0114 0.35425 0.0
H2337 H 0.63998 0.0044 0.35727 0.0
H2338 H 0.59726 0.00166 0.3396 0.0
H2339 H 0.58669 0.99946 0.31043 0.0
C2340 C 0.05186 0.65282 0.32345 0.0
C2341 C 0.03532 0.65327 0.32814 0.0
C2342 C 0.01728 0.62079 0.31489 0.0
C2343 C 0.0336 0.62231 0.30437 0.0
N2344 N 0.06419 0.63231 0.32025 0.0
N2345 N 0.00192 0.63651 0.33183 0.0
C2346 C 0.05051 0.63615 0.31485 0.0
C2347 C 0.01787 0.63684 0.3251 0.0
N2348 N 0.06886 0.66833 0.32582 0.0
N2349 N 0.00219 0.60368 0.31844 0.0
H2350 H 0.00181 0.64736 0.34139 0.0
H2351 H 0.9888 0.62568 0.3271 0.0
H2352 H 0.00267 0.59169 0.3144 0.0
H2353 H 0.99035 0.60135 0.32813 0.0
H2354 H 0.08101 0.66864 0.32031 0.0
H2355 H 0.07074 0.68117 0.33108 0.0
H2356 H 0.07622 0.64148 0.32997 0.0
H2357 H 0.06208 0.61896 0.31814 0.0
C2358 C 0.3798 0.38029 0.30889 0.0
C2359 C 0.36824 0.38676 0.31862 0.0
C2360 C 0.39075 0.41804 0.30404 0.0
C2361 C 0.40049 0.41083 0.29074 0.0
N2362 N 0.40151 0.38389 0.27627 0.0
N2363 N 0.36131 0.41157 0.3214 0.0
C2364 C 0.3943 0.39162 0.29203 0.0
C2365 C 0.37337 0.40563 0.31531 0.0
N2366 N 0.37732 0.36353 0.31631 0.0
N2367 N 0.39822 0.43673 0.30629 0.0
H2368 H 0.3481 0.40291 0.32861 0.0
H2369 H 0.3637 0.42472 0.31687 0.0
H2370 H 0.41107 0.44621 0.29865 0.0
H2371 H 0.39256 0.44272 0.31783 0.0
H2372 H 0.38646 0.35897 0.31142 0.0
H2373 H 0.3675 0.35522 0.32972 0.0
H2374 H 0.39608 0.36965 0.27488 0.0
H2375 H 0.4115 0.39141 0.26264 0.0
C2376 C 0.33202 0.2968 0.36894 0.0
C2377 C 0.32673 0.30808 0.38244 0.0
C2378 C 0.33151 0.29645 0.4225 0.0
C2379 C 0.33551 0.28416 0.40909 0.0
N2380 N 0.33621 0.27008 0.36974 0.0
N2381 N 0.31656 0.31483 0.42157 0.0
C2382 C 0.33473 0.28355 0.38232 0.0
C2383 C 0.32502 0.30676 0.40909 0.0
N2384 N 0.33531 0.29932 0.34358 0.0
N2385 N 0.33467 0.29892 0.44791 0.0
H2386 H 0.31087 0.32182 0.41226 0.0
H2387 H 0.31335 0.31283 0.44072 0.0
H2388 H 0.33981 0.29197 0.45852 0.0
H2389 H 0.33389 0.30918 0.45804 0.0
H2390 H 0.34115 0.29295 0.33322 0.0
H2391 H 0.33359 0.30895 0.33317 0.0
H2392 H 0.33389 0.26775 0.35043 0.0
H2393 H 0.33816 0.26017 0.37899 0.0
C2394 C 0.71773 0.02922 0.41046 0.0
C2395 C 0.71601 0.03156 0.3842 0.0
C2396 C 0.74124 0.06391 0.38668 0.0
C2397 C 0.74347 0.06131 0.41264 0.0
N2398 N 0.73481 0.04178 0.44949 0.0
N2399 N 0.72652 0.0502 0.34657 0.0
C2400 C 0.73188 0.04406 0.42463 0.0
C2401 C 0.72789 0.04867 0.37209 0.0
N2402 N 0.70588 0.0127 0.42176 0.0
N2403 N 0.75169 0.08107 0.37619 0.0
H2404 H 0.71631 0.03966 0.33559 0.0
H2405 H 0.7359 0.0615 0.33592 0.0
H2406 H 0.7619 0.09233 0.38621 0.0
H2407 H 0.74969 0.08459 0.35811 0.0
H2408 H 0.70462 0.01056 0.44116 0.0
H2409 H 0.69666 1.00092 0.41171 0.0
H2410 H 0.72848 0.02916 0.45887 0.0
H2411 H 0.74432 0.05254 0.46089 0.0
C2412 C 0.9711 0.68424 0.36857 0.0
C2413 C 0.98844 0.69348 0.38113 0.0
C2414 C 0.97314 0.69343 0.42062 0.0
C2415 C 0.95578 0.68453 0.40801 0.0
N2416 N 0.93833 0.67454 0.36934 0.0
N2417 N 0.00659 0.71095 0.41692 0.0
C2418 C 0.95481 0.68093 0.38171 0.0
C2419 C 0.98963 0.69934 0.40651 0.0
N2420 N 0.97013 0.67796 0.34449 0.0
N2421 N 0.97381 0.69552 0.44627 0.0
H2422 H 0.01894 0.71583 0.40692 0.0
H2423 H 0.00837 0.7172 0.43449 0.0
H2424 H 0.96211 0.69168 0.45734 0.0
H2425 H 0.9858 0.69982 0.45687 0.0
H2426 H 0.95774 0.66931 0.33521 0.0
H2427 H 0.98184 0.6805 0.33421 0.0
H2428 H 0.93696 0.67327 0.34981 0.0
H2429 H 0.92619 0.67189 0.37853 0.0
C2430 C 0.40499 0.03999 0.71374 0.0
C2431 C 0.38579 0.02688 0.7111 0.0
C2432 C 0.38946 0.00548 0.7388 0.0
C2433 C 0.40889 0.01783 0.73962 0.0
N2434 N 0.4356 0.04489 0.72286 0.0
N2435 N 0.36126 0.99508 0.71502 0.0
C2436 C 0.41681 0.03448 0.72544 0.0
C2437 C 0.3785 0.00897 0.72171 0.0
N2438 N 0.41182 0.05799 0.70667 0.0
N2439 N 0.38122 0.99095 0.75524 0.0
H2440 H 0.35309 0.99682 0.70164 0.0
H2441 H 0.35603 0.98137 0.72051 0.0
H2442 H 0.3885 0.98827 0.769 0.0
H2443 H 0.36689 0.98272 0.75698 0.0
H2444 H 0.4253 0.06841 0.71071 0.0
H2445 H 0.40367 0.06298 0.69908 0.0
H2446 H 0.44204 0.05621 0.71074 0.0
H2447 H 0.44464 0.04111 0.7309 0.0
C2448 C 0.97805 0.37367 0.71572 0.0
C2449 C 0.99295 0.37292 0.70396 0.0
C2450 C 0.01208 0.40653 0.70852 0.0
C2451 C 0.99917 0.40618 0.72619 0.0
N2452 N 0.96622 0.39369 0.7278 0.0
N2453 N 0.02402 0.38923 0.68692 0.0
C2454 C 0.98087 0.39097 0.72434 0.0
C2455 C 0.00995 0.38954 0.69962 0.0
N2456 N 0.96157 0.35787 0.72002 0.0
N2457 N 0.02407 0.4227 0.69679 0.0
H2458 H 0.02266 0.37729 0.67866 0.0
H2459 H 0.03729 0.40076 0.68575 0.0
H2460 H 0.02306 0.43457 0.69925 0.0
H2461 H 0.03275 0.42357 0.68209 0.0
H2462 H 0.95107 0.35767 0.73092 0.0
H2463 H 0.95892 0.3448 0.71445 0.0
H2464 H 0.95254 0.38349 0.72442 0.0
H2465 H 0.96819 0.4069 0.73092 0.0
C2466 C 0.65804 0.63505 0.74539 0.0
C2467 C 0.65777 0.63306 0.71871 0.0
C2468 C 0.62811 0.60382 0.72161 0.0
C2469 C 0.62921 0.60514 0.74831 0.0
N2470 N 0.64637 0.62031 0.78595 0.0
N2471 N 0.64347 0.61515 0.68122 0.0
C2472 C 0.64445 0.62034 0.76029 0.0
C2473 C 0.64308 0.61727 0.70676 0.0
N2474 N 0.67125 0.651 0.75662 0.0
N2475 N 0.61248 0.58999 0.7105 0.0
H2476 H 0.65342 0.62529 0.66949 0.0
H2477 H 0.63449 0.60302 0.67168 0.0
H2478 H 0.60141 0.57983 0.72086 0.0
H2479 H 0.60982 0.58924 0.69123 0.0
H2480 H 0.67073 0.65423 0.77546 0.0
H2481 H 0.68225 0.6617 0.74691 0.0
H2482 H 0.65827 0.62974 0.79559 0.0
H2483 H 0.63665 0.60993 0.79763 0.0
C2484 C 0.69018 0.71078 0.61774 0.0
C2485 C 0.69414 0.71313 0.64405 0.0
C2486 C 0.69519 0.74308 0.64283 0.0
C2487 C 0.6934 0.74163 0.61621 0.0
N2488 N 0.69061 0.72508 0.5777 0.0
N2489 N 0.70019 0.73115 0.68206 0.0
C2490 C 0.69107 0.72565 0.60353 0.0
C2491 C 0.69654 0.72919 0.65673 0.0
N2492 N 0.68564 0.69441 0.60619 0.0
N2493 N 0.69524 0.75761 0.65476 0.0
H2494 H 0.69959 0.72061 0.69329 0.0
H2495 H 0.7044 0.74337 0.69195 0.0
H2496 H 0.69447 0.76805 0.64502 0.0
H2497 H 0.69473 0.75877 0.67425 0.0
H2498 H 0.68031 0.69104 0.58797 0.0
H2499 H 0.68594 0.68349 0.61515 0.0
H2500 H 0.69153 0.7151 0.5671 0.0
H2501 H 0.69055 0.73535 0.56657 0.0
C2502 C 0.31366 0.97892 0.63905 0.0
C2503 C 0.30794 0.99103 0.64894 0.0
C2504 C 0.27611 0.96927 0.63531 0.0
C2505 C 0.28253 0.95881 0.6221 0.0
N2506 N 0.30861 0.95651 0.60679 0.0
N2507 N 0.28402 0.99923 0.65219 0.0
C2508 C 0.30164 0.96439 0.6227 0.0
C2509 C 0.2892 0.98659 0.6461 0.0
N2510 N 0.33033 0.98084 0.64587 0.0
N2511 N 0.25753 0.96254 0.63796 0.0
H2512 H 0.29321 0.01241 0.659 0.0
H2513 H 0.27097 0.99733 0.64801 0.0
H2514 H 0.24757 0.94981 0.63059 0.0
H2515 H 0.25208 0.96874 0.6495 0.0
H2516 H 0.33432 0.97127 0.64095 0.0
H2517 H 0.3392 0.9907 0.65883 0.0
H2518 H 0.32276 0.96146 0.60485 0.0
H2519 H 0.30055 0.94643 0.59354 0.0
C2520 C 0.0534 0.34447 0.66681 0.0
C2521 C 0.03693 0.32713 0.66325 0.0
C2522 C 0.05568 0.31464 0.64653 0.0
C2523 C 0.07047 0.33287 0.64253 0.0
N2524 N 0.08706 0.36132 0.66548 0.0
N2525 N 0.0226 0.29514 0.64979 0.0
C2526 C 0.07052 0.34685 0.65771 0.0
C2527 C 0.03811 0.31195 0.65347 0.0
N2528 N 0.05267 0.35866 0.67846 0.0
N2529 N 0.05908 0.30037 0.64831 0.0
H2530 H 0.00928 0.29245 0.65403 0.0
H2531 H 0.02303 0.28433 0.64058 0.0
H2532 H 0.07262 0.3028 0.64923 0.0
H2533 H 0.04889 0.28697 0.65316 0.0
H2534 H 0.06373 0.3722 0.67871 0.0
H2535 H 0.04074 0.35701 0.68722 0.0
H2536 H 0.08829 0.37127 0.67837 0.0
H2537 H 0.09957 0.36201 0.66096 0.0
C2538 C 0.29376 0.31122 0.62092 0.0
C2539 C 0.29635 0.31693 0.64653 0.0
C2540 C 0.26991 0.32208 0.64368 0.0
C2541 C 0.26872 0.31834 0.6174 0.0
N2542 N 0.28107 0.31186 0.58009 0.0
N2543 N 0.2882 0.32932 0.6821 0.0
C2544 C 0.28107 0.31358 0.60577 0.0
C2545 C 0.28469 0.32266 0.65796 0.0
N2546 N 0.30292 0.30285 0.61133 0.0
N2547 N 0.25673 0.32477 0.65498 0.0
H2548 H 0.29873 0.32968 0.69313 0.0
H2549 H 0.28155 0.33561 0.69064 0.0
H2550 H 0.24597 0.32476 0.64494 0.0
H2551 H 0.25564 0.32567 0.67443 0.0
H2552 H 0.30023 0.29668 0.59359 0.0
H2553 H 0.31193 0.30038 0.62206 0.0
H2554 H 0.2912 0.31061 0.5703 0.0
H2555 H 0.27182 0.31319 0.56824 0.0
C2556 C 0.69531 0.97589 0.65899 0.0
C2557 C 0.69949 0.99268 0.64681 0.0
C2558 C 0.70308 0.98057 0.60623 0.0
C2559 C 0.69829 0.96355 0.61826 0.0
N2560 N 0.68815 0.94395 0.65495 0.0
N2561 N 0.70695 0.0113 0.60913 0.0
C2562 C 0.69394 0.96091 0.64437 0.0
C2563 C 0.7032 0.99506 0.62047 0.0
N2564 N 0.69285 0.97439 0.68459 0.0
N2565 N 0.70799 0.98299 0.58126 0.0
H2566 H 0.70913 0.02293 0.61919 0.0
H2567 H 0.70741 0.0133 0.58972 0.0
H2568 H 0.70709 0.97243 0.5698 0.0
H2569 H 0.71373 0.99558 0.57183 0.0
H2570 H 0.69165 0.96339 0.69523 0.0
H2571 H 0.69289 0.98473 0.69564 0.0
H2572 H 0.68302 0.94033 0.67321 0.0
H2573 H 0.68749 0.93291 0.64488 0.0
C2574 C 0.04935 0.7261 0.66032 0.0
C2575 C 0.03264 0.71505 0.64683 0.0
C2576 C 0.04901 0.72703 0.60679 0.0
C2577 C 0.0654 0.73919 0.62024 0.0
N2578 N 0.08049 0.75268 0.65972 0.0
N2579 N 0.01557 0.7086 0.60784 0.0
C2580 C 0.06537 0.73944 0.64703 0.0
C2581 C 0.03218 0.71653 0.62022 0.0
N2582 N 0.05013 0.72334 0.68562 0.0
N2583 N 0.04961 0.72497 0.58127 0.0
H2584 H 0.00289 0.70161 0.6172 0.0
H2585 H 0.0143 0.71072 0.58874 0.0
H2586 H 0.06169 0.73219 0.57065 0.0
H2587 H 0.03851 0.71483 0.57099 0.0
H2588 H 0.0624 0.72955 0.69595 0.0
H2589 H 0.03873 0.71366 0.69595 0.0
H2590 H 0.08063 0.7548 0.6791 0.0
H2591 H 0.09243 0.76262 0.65056 0.0
C2592 C 0.98266 0.63405 0.74526 0.0
C2593 C 0.98808 0.63632 0.7195 0.0
C2594 C 0.99604 0.61184 0.72337 0.0
C2595 C 0.98998 0.6091 0.74884 0.0
N2596 N 0.97624 0.61623 0.78393 0.0
N2597 N 0.99812 0.6266 0.68296 0.0
C2598 C 0.98299 0.61989 0.75979 0.0
C2599 C 0.99424 0.62496 0.70823 0.0
N2600 N 0.97719 0.64548 0.75579 0.0
N2601 N 0.00387 0.60212 0.71392 0.0
H2602 H 0.99767 0.63657 0.6716 0.0
H2603 H 1.0008 0.61756 0.67282 0.0
H2604 H 0.00489 0.59206 0.72429 0.0
H2605 H 0.01035 0.60466 0.69642 0.0
H2606 H 0.97534 0.64636 0.77504 0.0
H2607 H 0.97506 0.65479 0.74526 0.0
H2608 H 0.969 0.62196 0.79224 0.0
H2609 H 0.97703 0.6066 0.79561 0.0
C2610 C 0.38819 0.36305 0.73589 0.0
C2611 C 0.38243 0.36546 0.71167 0.0
C2612 C 0.40233 0.39912 0.7155 0.0
C2613 C 0.40652 0.39677 0.74073 0.0
N2614 N 0.40147 0.37678 0.77637 0.0
N2615 N 0.38258 0.38545 0.67884 0.0
C2616 C 0.39904 0.3788 0.75127 0.0
C2617 C 0.38912 0.38342 0.70156 0.0
N2618 N 0.38323 0.34568 0.74426 0.0
N2619 N 0.41135 0.4163 0.70475 0.0
H2620 H 0.37355 0.37423 0.66766 0.0
H2621 H 0.38521 0.39814 0.67169 0.0
H2622 H 0.42106 0.42804 0.71448 0.0
H2623 H 0.41035 0.41875 0.68571 0.0
H2624 H 0.38875 0.34317 0.76039 0.0
H2625 H 0.37464 0.3337 0.7341 0.0
H2626 H 0.39457 0.3642 0.78587 0.0
H2627 H 0.40924 0.38792 0.7884 0.0
C2628 C 0.65763 0.03634 0.74154 0.0
C2629 C 0.65595 0.0325 0.71529 0.0
C2630 C 0.623 0.02315 0.71696 0.0
C2631 C 0.62421 0.02462 0.74366 0.0
N2632 N 0.64219 0.03128 0.7819 0.0
N2633 N 0.63723 0.02156 0.67774 0.0
C2634 C 0.64144 0.03101 0.7561 0.0
C2635 C 0.63872 0.02593 0.70282 0.0
N2636 N 0.67481 0.04551 0.75241 0.0
N2637 N 0.60683 0.01922 0.70524 0.0
H2638 H 0.64854 0.02373 0.66679 0.0
H2639 H 0.62469 0.01477 0.66808 0.0
H2640 H 0.59507 0.01692 0.71518 0.0
H2641 H 0.60545 0.01965 0.68577 0.0
H2642 H 0.67716 0.05047 0.77085 0.0
H2643 H 0.687 0.04972 0.74229 0.0
H2644 H 0.6538 0.03353 0.79209 0.0
H2645 H 0.63077 0.02802 0.79331 0.0
loop_
_geom_bond_atom_site_label_1
_geom_bond_atom_site_label_2
_geom_bond_distance
_geom_bond_site_symmetry_2
_ccdc_geom_bond_type
In0 O1 2.273 1_455 S
In0 O2 2.326 . S
In0 O6 2.266 1_455 S
In0 O7 2.321 1_554 S
In0 O8 2.266 1_554 S
In0 O9 2.326 1_454 S
In0 O11 2.294 . S
In0 O12 2.326 . S
O1 In0 2.273 1_655 S
O1 C10 1.222 1_655 S
O2 In0 2.326 . S
O2 C10 1.252 . S
C3 O6 1.252 1_556 S
C3 O7 1.206 1_655 S
C4 O11 1.240 . S
C4 O12 1.252 . S
C5 O8 1.252 . S
C5 O9 1.260 1_455 S
O6 In0 2.266 1_655 S
O6 C3 1.252 1_554 S
O7 In0 2.321 1_556 S
O7 C3 1.206 1_455 S
O8 In0 2.266 1_556 S
O8 C5 1.252 . S
O9 In0 2.326 1_656 S
O9 C5 1.260 1_655 S
C10 O1 1.222 1_455 S
C10 O2 1.252 . S
O11 In0 2.294 . S
O11 C4 1.240 . S
O12 In0 2.326 . S
O12 C4 1.252 . S
In13 O14 2.294 . S
In13 O15 2.326 . S
In13 O19 2.266 . S
In13 O20 2.326 1_554 S
In13 O21 2.266 1_554 S
In13 O22 2.326 1_554 S
In13 O24 2.294 . S
In13 O25 2.326 . S
O14 In13 2.294 . S
O14 C23 1.240 . S
O15 In13 2.326 . S
O15 C23 1.252 . S
C16 O19 1.252 1_556 S
C16 O20 1.260 . S
C17 O24 1.240 . S
C17 O25 1.252 . S
C18 O21 1.252 . S
C18 O22 1.260 . S
O19 In13 2.266 . S
O19 C16 1.252 1_554 S
O20 In13 2.326 1_556 S
O20 C16 1.260 . S
O21 In13 2.266 1_556 S
O21 C18 1.252 . S
O22 In13 2.326 1_556 S
O22 C18 1.260 . S
C23 O14 1.240 . S
C23 O15 1.252 . S
O24 In13 2.294 . S
O24 C17 1.240 . S
O25 In13 2.326 . S
O25 C17 1.252 . S
In26 O27 2.294 . S
In26 O28 2.326 1_554 S
In26 O32 2.266 . S
In26 O33 2.326 1_545 S
In26 O34 2.266 1_545 S
In26 O35 2.326 . S
In26 O37 2.290 1_554 S
In26 O38 2.326 1_554 S
O27 In26 2.294 . S
O27 C36 1.240 1_554 S
O28 In26 2.326 1_556 S
O28 C36 1.252 . S
C29 O32 1.252 . S
C29 O33 1.260 1_545 S
C30 O37 1.237 . S
C30 O38 1.252 . S
C31 O34 1.252 . S
C31 O35 1.260 1_565 S
O32 In26 2.266 . S
O32 C29 1.252 . S
O33 In26 2.326 1_565 S
O33 C29 1.260 1_565 S
O34 In26 2.266 1_565 S
O34 C31 1.252 . S
O35 In26 2.326 . S
O35 C31 1.260 1_545 S
C36 O27 1.240 1_556 S
C36 O28 1.252 . S
O37 In26 2.290 1_556 S
O37 C30 1.237 . S
O38 In26 2.326 1_556 S
O38 C30 1.252 . S
In39 O40 2.294 1_554 S
In39 O41 2.326 1_454 S
In39 O45 2.266 . S
In39 O46 2.326 . S
In39 O47 2.262 1_455 S
In39 O48 2.326 . S
In39 O50 2.294 1_455 S
In39 O51 2.324 1_554 S
O40 In39 2.294 1_556 S
O40 C49 1.240 . S
O41 In39 2.326 1_656 S
O41 C49 1.252 1_655 S
C42 O45 1.252 . S
C42 O46 1.260 . S
C43 O50 1.240 1_556 S
C43 O51 1.255 1_655 S
C44 O47 1.216 1_455 S
C44 O48 1.260 . S
O45 In39 2.266 . S
O45 C42 1.252 . S
O46 In39 2.326 . S
O46 C42 1.260 . S
O47 In39 2.262 1_655 S
O47 C44 1.216 1_655 S
O48 In39 2.326 . S
O48 C44 1.260 . S
C49 O40 1.240 . S
C49 O41 1.252 1_455 S
O50 In39 2.294 1_655 S
O50 C43 1.240 1_554 S
O51 In39 2.324 1_556 S
O51 C43 1.255 1_455 S
In52 O53 2.294 1_554 S
In52 O54 2.326 1_554 S
In52 O58 2.266 . S
In52 O59 2.326 . S
In52 O60 2.266 . S
In52 O61 2.326 . S
In52 O63 2.294 . S
In52 O64 2.326 1_554 S
O53 In52 2.294 1_556 S
O53 C62 1.240 . S
O54 In52 2.326 1_556 S
O54 C62 1.252 . S
C55 O58 1.252 . S
C55 O59 1.260 . S
C56 O63 1.240 1_556 S
C56 O64 1.252 . S
C57 O60 1.252 . S
C57 O61 1.260 . S
O58 In52 2.266 . S
O58 C55 1.252 . S
O59 In52 2.326 . S
O59 C55 1.260 . S
O60 In52 2.266 . S
O60 C57 1.252 . S
O61 In52 2.326 . S
O61 C57 1.260 . S
C62 O53 1.240 . S
C62 O54 1.252 . S
O63 In52 2.294 . S
O63 C56 1.240 1_554 S
O64 In52 2.326 1_556 S
O64 C56 1.252 . S
In65 O66 2.294 . S
In65 O67 2.326 1_545 S
In65 O71 2.266 . S
In65 O72 2.326 1_554 S
In65 O73 2.265 1_544 S
In65 O74 2.326 1_554 S
In65 O76 2.294 1_545 S
In65 O77 2.340 . S
O66 In65 2.294 . S
O66 C75 1.240 . S
O67 In65 2.326 1_565 S
O67 C75 1.252 1_565 S
C68 O71 1.252 1_556 S
C68 O72 1.260 . S
C69 O76 1.240 . S
C69 O77 1.233 1_565 S
C70 O73 1.245 1_545 S
C70 O74 1.260 . S
O71 In65 2.266 . S
O71 C68 1.252 1_554 S
O72 In65 2.326 1_556 S
O72 C68 1.260 . S
O73 In65 2.265 1_566 S
O73 C70 1.245 1_565 S
O74 In65 2.326 1_556 S
O74 C70 1.260 . S
C75 O66 1.240 . S
C75 O67 1.252 1_545 S
O76 In65 2.294 1_565 S
O76 C69 1.240 . S
O77 In65 2.340 . S
O77 C69 1.233 1_545 S
In78 O79 2.294 . S
In78 O80 2.326 . S
In78 O84 2.266 . S
In78 O85 2.326 . S
In78 O86 2.266 . S
In78 O87 2.326 . S
In78 O89 2.294 . S
In78 O90 2.326 . S
O79 In78 2.294 . S
O79 C88 1.240 . S
O80 In78 2.326 . S
O80 C88 1.252 . S
C81 O84 1.252 . S
C81 O85 1.260 . S
C82 O89 1.240 . S
C82 O90 1.252 . S
C83 O86 1.252 . S
C83 O87 1.260 . S
O84 In78 2.266 . S
O84 C81 1.252 . S
O85 In78 2.326 . S
O85 C81 1.260 . S
O86 In78 2.266 . S
O86 C83 1.252 . S
O87 In78 2.326 . S
O87 C83 1.260 . S
C88 O79 1.240 . S
C88 O80 1.252 . S
O89 In78 2.294 . S
O89 C82 1.240 . S
O90 In78 2.326 . S
O90 C82 1.252 . S
In91 O92 2.294 . S
In91 O93 2.326 . S
In91 O97 2.266 . S
In91 O98 2.326 . S
In91 O99 2.266 . S
In91 O100 2.326 . S
In91 O102 2.294 1_565 S
In91 O103 2.326 1_565 S
O92 In91 2.294 . S
O92 C101 1.240 . S
O93 In91 2.326 . S
O93 C101 1.252 . S
C94 O97 1.252 . S
C94 O98 1.260 . S
C95 O102 1.240 . S
C95 O103 1.252 . S
C96 O99 1.252 . S
C96 O100 1.260 . S
O97 In91 2.266 . S
O97 C94 1.252 . S
O98 In91 2.326 . S
O98 C94 1.260 . S
O99 In91 2.266 . S
O99 C96 1.252 . S
O100 In91 2.326 . S
O100 C96 1.260 . S
C101 O92 1.240 . S
C101 O93 1.252 . S
O102 In91 2.294 1_545 S
O102 C95 1.240 . S
O103 In91 2.326 1_545 S
O103 C95 1.252 . S
In104 O105 2.294 . S
In104 O106 2.326 . S
In104 O110 2.266 . S
In104 O111 2.326 . S
In104 O112 2.266 . S
In104 O113 2.326 . S
In104 O115 2.294 . S
In104 O116 2.326 . S
O105 In104 2.294 . S
O105 C114 1.240 . S
O106 In104 2.326 . S
O106 C114 1.252 . S
C107 O110 1.252 . S
C107 O111 1.260 . S
C108 O115 1.240 . S
C108 O116 1.252 . S
C109 O112 1.252 . S
C109 O113 1.260 . S
O110 In104 2.266 . S
O110 C107 1.252 . S
O111 In104 2.326 . S
O111 C107 1.260 . S
O112 In104 2.266 . S
O112 C109 1.252 . S
O113 In104 2.326 . S
O113 C109 1.260 . S
C114 O105 1.240 . S
C114 O106 1.252 . S
O115 In104 2.294 . S
O115 C108 1.240 . S
O116 In104 2.326 . S
O116 C108 1.252 . S
In117 O118 2.294 . S
In117 O119 2.326 . S
In117 O123 2.266 1_565 S
In117 O124 2.326 1_565 S
In117 O125 2.266 . S
In117 O126 2.326 . S
In117 O128 2.294 . S
In117 O129 2.326 . S
O118 In117 2.294 . S
O118 C127 1.240 . S
O119 In117 2.326 . S
O119 C127 1.252 . S
C120 O123 1.252 . S
C120 O124 1.260 . S
C121 O128 1.240 . S
C121 O129 1.252 . S
C122 O125 1.252 . S
C122 O126 1.260 . S
O123 In117 2.266 1_545 S
O123 C120 1.252 . S
O124 In117 2.326 1_545 S
O124 C120 1.260 . S
O125 In117 2.266 . S
O125 C122 1.252 . S
O126 In117 2.326 . S
O126 C122 1.260 . S
C127 O118 1.240 . S
C127 O119 1.252 . S
O128 In117 2.294 . S
O128 C121 1.240 . S
O129 In117 2.326 . S
O129 C121 1.252 . S
In130 O131 2.294 . S
In130 O132 2.326 . S
In130 O136 2.266 . S
In130 O137 2.326 . S
In130 O138 2.266 . S
In130 O139 2.326 . S
In130 O141 2.294 . S
In130 O142 2.326 . S
O131 In130 2.294 . S
O131 C140 1.240 . S
O132 In130 2.326 . S
O132 C140 1.252 . S
C133 O136 1.252 . S
C133 O137 1.260 . S
C134 O141 1.240 . S
C134 O142 1.252 . S
C135 O138 1.252 . S
C135 O139 1.260 . S
O136 In130 2.266 . S
O136 C133 1.252 . S
O137 In130 2.326 . S
O137 C133 1.260 . S
O138 In130 2.266 . S
O138 C135 1.252 . S
O139 In130 2.326 . S
O139 C135 1.260 . S
C140 O131 1.240 . S
C140 O132 1.252 . S
O141 In130 2.294 . S
O141 C134 1.240 . S
O142 In130 2.326 . S
O142 C134 1.252 . S
In143 O144 2.294 . S
In143 O145 2.326 . S
In143 O149 2.266 . S
In143 O150 2.326 . S
In143 O151 2.266 . S
In143 O152 2.326 . S
In143 O154 2.294 . S
In143 O155 2.326 . S
O144 In143 2.294 . S
O144 C153 1.240 . S
O145 In143 2.326 . S
O145 C153 1.252 . S
C146 O149 1.252 . S
C146 O150 1.260 . S
C147 O154 1.240 . S
C147 O155 1.252 . S
C148 O151 1.252 . S
C148 O152 1.260 . S
O149 In143 2.266 . S
O149 C146 1.252 . S
O150 In143 2.326 . S
O150 C146 1.260 . S
O151 In143 2.266 . S
O151 C148 1.252 . S
O152 In143 2.326 . S
O152 C148 1.260 . S
C153 O144 1.240 . S
C153 O145 1.252 . S
O154 In143 2.294 . S
O154 C147 1.240 . S
O155 In143 2.326 . S
O155 C147 1.252 . S
In156 O157 2.294 . S
In156 O158 2.326 . S
In156 O162 2.266 . S
In156 O163 2.326 . S
In156 O164 2.266 . S
In156 O165 2.326 . S
In156 O167 2.294 . S
In156 O168 2.326 . S
O157 In156 2.294 . S
O157 C166 1.240 . S
O158 In156 2.326 . S
O158 C166 1.252 . S
C159 O162 1.252 . S
C159 O163 1.260 . S
C160 O167 1.240 . S
C160 O168 1.252 . S
C161 O164 1.252 . S
C161 O165 1.260 . S
O162 In156 2.266 . S
O162 C159 1.252 . S
O163 In156 2.326 . S
O163 C159 1.260 . S
O164 In156 2.266 . S
O164 C161 1.252 . S
O165 In156 2.326 . S
O165 C161 1.260 . S
C166 O157 1.240 . S
C166 O158 1.252 . S
O167 In156 2.294 . S
O167 C160 1.240 . S
O168 In156 2.326 . S
O168 C160 1.252 . S
In169 O170 2.294 . S
In169 O171 2.326 . S
In169 O175 2.266 . S
In169 O176 2.326 . S
In169 O177 2.266 1_655 S
In169 O178 2.326 1_655 S
In169 O180 2.294 . S
In169 O181 2.326 . S
O170 In169 2.294 . S
O170 C179 1.240 . S
O171 In169 2.326 . S
O171 C179 1.252 . S
C172 O175 1.252 . S
C172 O176 1.260 . S
C173 O180 1.240 . S
C173 O181 1.252 . S
C174 O177 1.252 . S
C174 O178 1.260 . S
O175 In169 2.266 . S
O175 C172 1.252 . S
O176 In169 2.326 . S
O176 C172 1.260 . S
O177 In169 2.266 1_455 S
O177 C174 1.252 . S
O178 In169 2.326 1_455 S
O178 C174 1.260 . S
C179 O170 1.240 . S
C179 O171 1.252 . S
O180 In169 2.294 . S
O180 C173 1.240 . S
O181 In169 2.326 . S
O181 C173 1.252 . S
In182 O183 2.294 . S
In182 O184 2.326 . S
In182 O188 2.266 . S
In182 O189 2.326 . S
In182 O190 2.266 . S
In182 O191 2.326 . S
In182 O193 2.294 . S
In182 O194 2.326 . S
O183 In182 2.294 . S
O183 C192 1.240 . S
O184 In182 2.326 . S
O184 C192 1.252 . S
C185 O188 1.252 . S
C185 O189 1.260 . S
C186 O193 1.240 . S
C186 O194 1.252 . S
C187 O190 1.252 . S
C187 O191 1.260 . S
O188 In182 2.266 . S
O188 C185 1.252 . S
O189 In182 2.326 . S
O189 C185 1.260 . S
O190 In182 2.266 . S
O190 C187 1.252 . S
O191 In182 2.326 . S
O191 C187 1.260 . S
C192 O183 1.240 . S
C192 O184 1.252 . S
O193 In182 2.294 . S
O193 C186 1.240 . S
O194 In182 2.326 . S
O194 C186 1.252 . S
In195 O196 2.294 . S
In195 O197 2.326 . S
In195 O201 2.266 . S
In195 O202 2.326 . S
In195 O203 2.266 . S
In195 O204 2.326 . S
In195 O206 2.294 . S
In195 O207 2.326 . S
O196 In195 2.294 . S
O196 C205 1.240 . S
O197 In195 2.326 . S
O197 C205 1.252 . S
C198 O201 1.252 . S
C198 O202 1.260 . S
C199 O206 1.240 . S
C199 O207 1.252 . S
C200 O203 1.252 . S
C200 O204 1.260 . S
O201 In195 2.266 . S
O201 C198 1.252 . S
O202 In195 2.326 . S
O202 C198 1.260 . S
O203 In195 2.266 . S
O203 C200 1.252 . S
O204 In195 2.326 . S
O204 C200 1.260 . S
C205 O196 1.240 . S
C205 O197 1.252 . S
O206 In195 2.294 . S
O206 C199 1.240 . S
O207 In195 2.326 . S
O207 C199 1.252 . S
In208 O209 2.294 . S
In208 O210 2.326 . S
In208 O214 2.266 . S
In208 O215 2.326 . S
In208 O216 2.266 . S
In208 O217 2.326 . S
In208 O219 2.294 . S
In208 O220 2.326 . S
O209 In208 2.294 . S
O209 C218 1.240 . S
O210 In208 2.326 . S
O210 C218 1.252 . S
C211 O214 1.252 . S
C211 O215 1.260 . S
C212 O219 1.240 . S
C212 O220 1.252 . S
C213 O216 1.252 . S
C213 O217 1.260 . S
O214 In208 2.266 . S
O214 C211 1.252 . S
O215 In208 2.326 . S
O215 C211 1.260 . S
O216 In208 2.266 . S
O216 C213 1.252 . S
O217 In208 2.326 . S
O217 C213 1.260 . S
C218 O209 1.240 . S
C218 O210 1.252 . S
O219 In208 2.294 . S
O219 C212 1.240 . S
O220 In208 2.326 . S
O220 C212 1.252 . S
In221 O222 2.294 . S
In221 O223 2.326 . S
In221 O227 2.266 . S
In221 O228 2.326 . S
In221 O229 2.266 1_655 S
In221 O230 2.326 1_655 S
In221 O232 2.294 . S
In221 O233 2.326 . S
O222 In221 2.294 . S
O222 C231 1.240 . S
O223 In221 2.326 . S
O223 C231 1.252 . S
C224 O227 1.252 . S
C224 O228 1.260 . S
C225 O232 1.240 . S
C225 O233 1.252 . S
C226 O229 1.252 . S
C226 O230 1.260 . S
O227 In221 2.266 . S
O227 C224 1.252 . S
O228 In221 2.326 . S
O228 C224 1.260 . S
O229 In221 2.266 1_455 S
O229 C226 1.252 . S
O230 In221 2.326 1_455 S
O230 C226 1.260 . S
C231 O222 1.240 . S
C231 O223 1.252 . S
O232 In221 2.294 . S
O232 C225 1.240 . S
O233 In221 2.326 . S
O233 C225 1.252 . S
H234 C261 0.929 . S
N235 C260 1.433 . S
N235 C266 1.435 . S
N235 C272 1.423 . S
H236 C262 0.930 . S
H237 C265 0.931 . S
H238 C264 0.929 . S
H239 C267 0.930 . S
H240 C268 0.932 . S
H241 C271 0.929 . S
H242 C270 0.931 . S
H243 C273 0.929 . S
H244 C277 0.932 . S
H245 C274 0.931 . S
H246 C276 0.929 . S
H247 C279 0.929 . S
H248 C280 0.930 . S
H249 C282 0.929 . S
H250 C283 0.931 . S
H251 C285 0.930 . S
H252 C286 0.932 . S
H253 C288 0.931 . S
H254 C289 0.929 . S
H255 C291 0.929 . S
H256 C292 0.931 . S
H257 C294 0.929 . S
N258 C278 1.433 . S
N258 C284 1.435 . S
N258 C290 1.423 . S
H259 C295 0.932 . S
C260 N235 1.433 . S
C260 C261 1.363 . S
C260 C265 1.370 . S
C261 H234 0.929 . S
C261 C260 1.363 . S
C261 C262 1.385 . S
C262 H236 0.930 . S
C262 C261 1.385 . S
C262 C263 1.357 . S
C263 C262 1.357 . S
C263 C264 1.406 . S
C264 H238 0.929 . S
C264 C263 1.406 . S
C264 C265 1.391 . S
C265 H237 0.931 . S
C265 C260 1.370 . S
C265 C264 1.391 . S
C266 N235 1.435 . S
C266 C267 1.358 . S
C266 C271 1.371 . S
C267 H239 0.930 . S
C267 C266 1.358 . S
C267 C268 1.405 . S
C268 H240 0.932 . S
C268 C267 1.405 . S
C268 C269 1.383 . S
C269 C268 1.383 . S
C269 C270 1.393 . S
C270 H242 0.931 . S
C270 C269 1.393 . S
C270 C271 1.382 . S
C271 H241 0.929 . S
C271 C266 1.371 . S
C271 C270 1.382 . S
C272 N235 1.423 . S
C272 C273 1.362 . S
C272 C277 1.388 . S
C273 H243 0.929 . S
C273 C272 1.362 . S
C273 C274 1.376 . S
C274 H245 0.931 . S
C274 C273 1.376 . S
C274 C275 1.396 . S
C275 C274 1.396 . S
C275 C276 1.348 . S
C275 C293 1.472 . S
C276 H246 0.929 . S
C276 C275 1.348 . S
C276 C277 1.443 . S
C277 H244 0.932 . S
C277 C272 1.388 . S
C277 C276 1.443 . S
C278 N258 1.433 . S
C278 C279 1.363 . S
C278 C283 1.370 . S
C279 H247 0.929 . S
C279 C278 1.363 . S
C279 C280 1.385 . S
C280 H248 0.930 . S
C280 C279 1.385 . S
C280 C281 1.357 . S
C281 C280 1.357 . S
C281 C282 1.406 . S
C282 H249 0.929 . S
C282 C281 1.406 . S
C282 C283 1.391 . S
C283 H250 0.931 . S
C283 C278 1.370 . S
C283 C282 1.391 . S
C284 N258 1.435 . S
C284 C285 1.358 . S
C284 C289 1.371 . S
C285 H251 0.930 . S
C285 C284 1.358 . S
C285 C286 1.405 . S
C286 H252 0.932 . S
C286 C285 1.405 . S
C286 C287 1.383 . S
C287 C286 1.383 . S
C287 C288 1.393 . S
C288 H253 0.931 . S
C288 C287 1.393 . S
C288 C289 1.382 . S
C289 H254 0.929 . S
C289 C284 1.371 . S
C289 C288 1.382 . S
C290 N258 1.423 . S
C290 C291 1.362 . S
C290 C295 1.388 . S
C291 H255 0.929 . S
C291 C290 1.362 . S
C291 C292 1.376 . S
C292 H256 0.931 . S
C292 C291 1.376 . S
C292 C293 1.396 . S
C293 C275 1.472 . S
C293 C292 1.396 . S
C293 C294 1.348 . S
C294 H257 0.929 . S
C294 C293 1.348 . S
C294 C295 1.443 . S
C295 H259 0.932 . S
C295 C290 1.388 . S
C295 C294 1.443 . S
H296 C323 0.929 . S
N297 C322 1.433 . S
N297 C328 1.435 . S
N297 C334 1.423 . S
H298 C324 0.930 . S
H299 C327 0.931 . S
H300 C326 0.929 . S
H301 C329 0.930 . S
H302 C330 0.932 . S
H303 C333 0.929 . S
H304 C332 0.931 . S
H305 C335 0.929 . S
H306 C339 0.932 . S
H307 C336 0.931 . S
H308 C338 0.929 . S
H309 C341 0.929 . S
H310 C342 0.930 . S
H311 C344 0.929 . S
H312 C345 0.931 . S
H313 C347 0.930 . S
H314 C348 0.932 . S
H315 C350 0.931 . S
H316 C351 0.929 . S
H317 C353 0.929 . S
H318 C354 0.931 . S
H319 C356 0.929 . S
N320 C340 1.433 . S
N320 C346 1.435 . S
N320 C352 1.423 . S
H321 C357 0.932 . S
C322 N297 1.433 . S
C322 C323 1.363 . S
C322 C327 1.370 . S
C323 H296 0.929 . S
C323 C322 1.363 . S
C323 C324 1.385 . S
C324 H298 0.930 . S
C324 C323 1.385 . S
C324 C325 1.357 . S
C325 C324 1.357 . S
C325 C326 1.406 . S
C326 H300 0.929 . S
C326 C325 1.406 . S
C326 C327 1.391 . S
C327 H299 0.931 . S
C327 C322 1.370 . S
C327 C326 1.391 . S
C328 N297 1.435 . S
C328 C329 1.358 . S
C328 C333 1.371 . S
C329 H301 0.930 . S
C329 C328 1.358 . S
C329 C330 1.405 . S
C330 H302 0.932 . S
C330 C329 1.405 . S
C330 C331 1.383 . S
C331 C330 1.383 . S
C331 C332 1.393 . S
C332 H304 0.931 . S
C332 C331 1.393 . S
C332 C333 1.382 . S
C333 H303 0.929 . S
C333 C328 1.371 . S
C333 C332 1.382 . S
C334 N297 1.423 . S
C334 C335 1.362 . S
C334 C339 1.388 . S
C335 H305 0.929 . S
C335 C334 1.362 . S
C335 C336 1.376 . S
C336 H307 0.931 . S
C336 C335 1.376 . S
C336 C337 1.396 . S
C337 C336 1.396 . S
C337 C338 1.348 . S
C337 C355 1.472 . S
C338 H308 0.929 . S
C338 C337 1.348 . S
C338 C339 1.443 . S
C339 H306 0.932 . S
C339 C334 1.388 . S
C339 C338 1.443 . S
C340 N320 1.433 . S
C340 C341 1.363 . S
C340 C345 1.370 . S
C341 H309 0.929 . S
C341 C340 1.363 . S
C341 C342 1.385 . S
C342 H310 0.930 . S
C342 C341 1.385 . S
C342 C343 1.357 . S
C343 C342 1.357 . S
C343 C344 1.406 . S
C344 H311 0.929 . S
C344 C343 1.406 . S
C344 C345 1.391 . S
C345 H312 0.931 . S
C345 C340 1.370 . S
C345 C344 1.391 . S
C346 N320 1.435 . S
C346 C347 1.358 . S
C346 C351 1.371 . S
C347 H313 0.930 . S
C347 C346 1.358 . S
C347 C348 1.405 . S
C348 H314 0.932 . S
C348 C347 1.405 . S
C348 C349 1.383 . S
C349 C348 1.383 . S
C349 C350 1.393 . S
C350 H315 0.931 . S
C350 C349 1.393 . S
C350 C351 1.382 . S
C351 H316 0.929 . S
C351 C346 1.371 . S
C351 C350 1.382 . S
C352 N320 1.423 . S
C352 C353 1.362 . S
C352 C357 1.388 . S
C353 H317 0.929 . S
C353 C352 1.362 . S
C353 C354 1.376 . S
C354 H318 0.931 . S
C354 C353 1.376 . S
C354 C355 1.396 . S
C355 C337 1.472 . S
C355 C354 1.396 . S
C355 C356 1.348 . S
C356 H319 0.929 . S
C356 C355 1.348 . S
C356 C357 1.443 . S
C357 H321 0.932 . S
C357 C352 1.388 . S
C357 C356 1.443 . S
H358 C385 0.929 . S
N359 C384 1.433 . S
N359 C390 1.435 . S
N359 C396 1.423 . S
H360 C386 0.930 . S
H361 C389 0.931 . S
H362 C388 0.929 . S
H363 C391 0.930 . S
H364 C392 0.932 . S
H365 C395 0.929 . S
H366 C394 0.931 . S
H367 C397 0.929 . S
H368 C401 0.932 . S
H369 C398 0.931 . S
H370 C400 0.929 . S
H371 C403 0.929 . S
H372 C404 0.930 . S
H373 C406 0.929 . S
H374 C407 0.931 . S
H375 C409 0.930 . S
H376 C410 0.932 . S
H377 C412 0.931 . S
H378 C413 0.929 . S
H379 C415 0.929 . S
H380 C416 0.931 . S
H381 C418 0.929 . S
N382 C402 1.433 . S
N382 C408 1.435 . S
N382 C414 1.423 . S
H383 C419 0.932 . S
C384 N359 1.433 . S
C384 C385 1.363 . S
C384 C389 1.370 . S
C385 H358 0.929 . S
C385 C384 1.363 . S
C385 C386 1.385 . S
C386 H360 0.930 . S
C386 C385 1.385 . S
C386 C387 1.357 . S
C387 C386 1.357 . S
C387 C388 1.406 . S
C388 H362 0.929 . S
C388 C387 1.406 . S
C388 C389 1.391 . S
C389 H361 0.931 . S
C389 C384 1.370 . S
C389 C388 1.391 . S
C390 N359 1.435 . S
C390 C391 1.358 . S
C390 C395 1.371 . S
C391 H363 0.930 . S
C391 C390 1.358 . S
C391 C392 1.405 . S
C392 H364 0.932 . S
C392 C391 1.405 . S
C392 C393 1.383 . S
C393 C392 1.383 . S
C393 C394 1.393 . S
C394 H366 0.931 . S
C394 C393 1.393 . S
C394 C395 1.382 . S
C395 H365 0.929 . S
C395 C390 1.371 . S
C395 C394 1.382 . S
C396 N359 1.423 . S
C396 C397 1.362 . S
C396 C401 1.388 . S
C397 H367 0.929 . S
C397 C396 1.362 . S
C397 C398 1.376 . S
C398 H369 0.931 . S
C398 C397 1.376 . S
C398 C399 1.396 . S
C399 C398 1.396 . S
C399 C400 1.348 . S
C399 C417 1.472 . S
C400 H370 0.929 . S
C400 C399 1.348 . S
C400 C401 1.443 . S
C401 H368 0.932 . S
C401 C396 1.388 . S
C401 C400 1.443 . S
C402 N382 1.433 . S
C402 C403 1.363 . S
C402 C407 1.370 . S
C403 H371 0.929 . S
C403 C402 1.363 . S
C403 C404 1.385 . S
C404 H372 0.930 . S
C404 C403 1.385 . S
C404 C405 1.357 . S
C405 C404 1.357 . S
C405 C406 1.406 . S
C406 H373 0.929 . S
C406 C405 1.406 . S
C406 C407 1.391 . S
C407 H374 0.931 . S
C407 C402 1.370 . S
C407 C406 1.391 . S
C408 N382 1.435 . S
C408 C409 1.358 . S
C408 C413 1.371 . S
C409 H375 0.930 . S
C409 C408 1.358 . S
C409 C410 1.405 . S
C410 H376 0.932 . S
C410 C409 1.405 . S
C410 C411 1.383 . S
C411 C410 1.383 . S
C411 C412 1.393 . S
C412 H377 0.931 . S
C412 C411 1.393 . S
C412 C413 1.382 . S
C413 H378 0.929 . S
C413 C408 1.371 . S
C413 C412 1.382 . S
C414 N382 1.423 . S
C414 C415 1.362 . S
C414 C419 1.388 . S
C415 H379 0.929 . S
C415 C414 1.362 . S
C415 C416 1.376 . S
C416 H380 0.931 . S
C416 C415 1.376 . S
C416 C417 1.396 . S
C417 C399 1.472 . S
C417 C416 1.396 . S
C417 C418 1.348 . S
C418 H381 0.929 . S
C418 C417 1.348 . S
C418 C419 1.443 . S
C419 H383 0.932 . S
C419 C414 1.388 . S
C419 C418 1.443 . S
H420 C447 0.929 . S
N421 C446 1.433 . S
N421 C452 1.435 . S
N421 C458 1.423 . S
H422 C448 0.930 . S
H423 C451 0.931 . S
H424 C450 0.929 . S
H425 C453 0.930 . S
H426 C454 0.932 . S
H427 C457 0.929 . S
H428 C456 0.931 . S
H429 C459 0.929 . S
H430 C463 0.932 . S
H431 C460 0.931 . S
H432 C462 0.929 . S
H433 C465 0.929 . S
H434 C466 0.930 . S
H435 C468 0.929 . S
H436 C469 0.931 . S
H437 C471 0.930 . S
H438 C472 0.932 . S
H439 C474 0.931 . S
H440 C475 0.929 . S
H441 C477 0.929 . S
H442 C478 0.931 . S
H443 C480 0.929 . S
N444 C464 1.433 . S
N444 C470 1.435 . S
N444 C476 1.423 . S
H445 C481 0.932 . S
C446 N421 1.433 . S
C446 C447 1.363 . S
C446 C451 1.370 . S
C447 H420 0.929 . S
C447 C446 1.363 . S
C447 C448 1.385 . S
C448 H422 0.930 . S
C448 C447 1.385 . S
C448 C449 1.357 . S
C449 C448 1.357 . S
C449 C450 1.406 . S
C450 H424 0.929 . S
C450 C449 1.406 . S
C450 C451 1.391 . S
C451 H423 0.931 . S
C451 C446 1.370 . S
C451 C450 1.391 . S
C452 N421 1.435 . S
C452 C453 1.358 . S
C452 C457 1.371 . S
C453 H425 0.930 . S
C453 C452 1.358 . S
C453 C454 1.405 . S
C454 H426 0.932 . S
C454 C453 1.405 . S
C454 C455 1.383 . S
C455 C454 1.383 . S
C455 C456 1.393 . S
C456 H428 0.931 . S
C456 C455 1.393 . S
C456 C457 1.382 . S
C457 H427 0.929 . S
C457 C452 1.371 . S
C457 C456 1.382 . S
C458 N421 1.423 . S
C458 C459 1.362 . S
C458 C463 1.388 . S
C459 H429 0.929 . S
C459 C458 1.362 . S
C459 C460 1.376 . S
C460 H431 0.931 . S
C460 C459 1.376 . S
C460 C461 1.396 . S
C461 C460 1.396 . S
C461 C462 1.348 . S
C461 C479 1.472 . S
C462 H432 0.929 . S
C462 C461 1.348 . S
C462 C463 1.443 . S
C463 H430 0.932 . S
C463 C458 1.388 . S
C463 C462 1.443 . S
C464 N444 1.433 . S
C464 C465 1.363 . S
C464 C469 1.370 . S
C465 H433 0.929 . S
C465 C464 1.363 . S
C465 C466 1.385 . S
C466 H434 0.930 . S
C466 C465 1.385 . S
C466 C467 1.357 . S
C467 C466 1.357 . S
C467 C468 1.406 . S
C468 H435 0.929 . S
C468 C467 1.406 . S
C468 C469 1.391 . S
C469 H436 0.931 . S
C469 C464 1.370 . S
C469 C468 1.391 . S
C470 N444 1.435 . S
C470 C471 1.358 . S
C470 C475 1.371 . S
C471 H437 0.930 . S
C471 C470 1.358 . S
C471 C472 1.405 . S
C472 H438 0.932 . S
C472 C471 1.405 . S
C472 C473 1.383 . S
C473 C472 1.383 . S
C473 C474 1.393 . S
C474 H439 0.931 . S
C474 C473 1.393 . S
C474 C475 1.382 . S
C475 H440 0.929 . S
C475 C470 1.371 . S
C475 C474 1.382 . S
C476 N444 1.423 . S
C476 C477 1.362 . S
C476 C481 1.388 . S
C477 H441 0.929 . S
C477 C476 1.362 . S
C477 C478 1.376 . S
C478 H442 0.931 . S
C478 C477 1.376 . S
C478 C479 1.396 . S
C479 C461 1.472 . S
C479 C478 1.396 . S
C479 C480 1.348 . S
C480 H443 0.929 . S
C480 C479 1.348 . S
C480 C481 1.443 . S
C481 H445 0.932 . S
C481 C476 1.388 . S
C481 C480 1.443 . S
H482 C509 0.929 . S
N483 C508 1.433 . S
N483 C514 1.435 . S
N483 C520 1.423 . S
H484 C510 0.930 . S
H485 C513 0.931 . S
H486 C512 0.929 . S
H487 C515 0.930 . S
H488 C516 0.932 . S
H489 C519 0.929 . S
H490 C518 0.931 . S
H491 C521 0.929 . S
H492 C525 0.932 . S
H493 C522 0.931 . S
H494 C524 0.929 . S
H495 C527 0.929 . S
H496 C528 0.930 . S
H497 C530 0.929 . S
H498 C531 0.931 . S
H499 C533 0.930 . S
H500 C534 0.932 . S
H501 C536 0.931 . S
H502 C537 0.929 . S
H503 C539 0.929 . S
H504 C540 0.931 . S
H505 C542 0.929 . S
N506 C526 1.433 . S
N506 C532 1.435 . S
N506 C538 1.423 . S
H507 C543 0.932 . S
C508 N483 1.433 . S
C508 C509 1.363 . S
C508 C513 1.370 . S
C509 H482 0.929 . S
C509 C508 1.363 . S
C509 C510 1.385 . S
C510 H484 0.930 . S
C510 C509 1.385 . S
C510 C511 1.357 . S
C511 C510 1.357 . S
C511 C512 1.406 . S
C512 H486 0.929 . S
C512 C511 1.406 . S
C512 C513 1.391 . S
C513 H485 0.931 . S
C513 C508 1.370 . S
C513 C512 1.391 . S
C514 N483 1.435 . S
C514 C515 1.358 . S
C514 C519 1.371 . S
C515 H487 0.930 . S
C515 C514 1.358 . S
C515 C516 1.405 . S
C516 H488 0.932 . S
C516 C515 1.405 . S
C516 C517 1.383 . S
C517 C516 1.383 . S
C517 C518 1.393 . S
C518 H490 0.931 . S
C518 C517 1.393 . S
C518 C519 1.382 . S
C519 H489 0.929 . S
C519 C514 1.371 . S
C519 C518 1.382 . S
C520 N483 1.423 . S
C520 C521 1.362 . S
C520 C525 1.388 . S
C521 H491 0.929 . S
C521 C520 1.362 . S
C521 C522 1.376 . S
C522 H493 0.931 . S
C522 C521 1.376 . S
C522 C523 1.396 . S
C523 C522 1.396 . S
C523 C524 1.348 . S
C523 C541 1.472 . S
C524 H494 0.929 . S
C524 C523 1.348 . S
C524 C525 1.443 . S
C525 H492 0.932 . S
C525 C520 1.388 . S
C525 C524 1.443 . S
C526 N506 1.433 . S
C526 C527 1.363 . S
C526 C531 1.370 . S
C527 H495 0.929 . S
C527 C526 1.363 . S
C527 C528 1.385 . S
C528 H496 0.930 . S
C528 C527 1.385 . S
C528 C529 1.357 . S
C529 C528 1.357 . S
C529 C530 1.406 . S
C530 H497 0.929 . S
C530 C529 1.406 . S
C530 C531 1.391 . S
C531 H498 0.931 . S
C531 C526 1.370 . S
C531 C530 1.391 . S
C532 N506 1.435 . S
C532 C533 1.358 . S
C532 C537 1.371 . S
C533 H499 0.930 . S
C533 C532 1.358 . S
C533 C534 1.405 . S
C534 H500 0.932 . S
C534 C533 1.405 . S
C534 C535 1.383 . S
C535 C534 1.383 . S
C535 C536 1.393 . S
C536 H501 0.931 . S
C536 C535 1.393 . S
C536 C537 1.382 . S
C537 H502 0.929 . S
C537 C532 1.371 . S
C537 C536 1.382 . S
C538 N506 1.423 . S
C538 C539 1.362 . S
C538 C543 1.388 . S
C539 H503 0.929 . S
C539 C538 1.362 . S
C539 C540 1.376 . S
C540 H504 0.931 . S
C540 C539 1.376 . S
C540 C541 1.396 . S
C541 C523 1.472 . S
C541 C540 1.396 . S
C541 C542 1.348 . S
C542 H505 0.929 . S
C542 C541 1.348 . S
C542 C543 1.443 . S
C543 H507 0.932 . S
C543 C538 1.388 . S
C543 C542 1.443 . S
H544 C571 0.929 . S
N545 C570 1.433 . S
N545 C576 1.435 . S
N545 C582 1.423 . S
H546 C572 0.930 . S
H547 C575 0.931 . S
H548 C574 0.929 . S
H549 C577 0.930 . S
H550 C578 0.932 . S
H551 C581 0.929 . S
H552 C580 0.931 . S
H553 C583 0.929 . S
H554 C587 0.932 . S
H555 C584 0.931 . S
H556 C586 0.929 . S
H557 C589 0.929 . S
H558 C590 0.930 . S
H559 C592 0.929 . S
H560 C593 0.931 . S
H561 C595 0.930 . S
H562 C596 0.932 . S
H563 C598 0.931 . S
H564 C599 0.929 . S
H565 C601 0.929 . S
H566 C602 0.931 . S
H567 C604 0.929 . S
N568 C588 1.433 . S
N568 C594 1.435 . S
N568 C600 1.423 . S
H569 C605 0.932 . S
C570 N545 1.433 . S
C570 C571 1.363 . S
C570 C575 1.370 . S
C571 H544 0.929 . S
C571 C570 1.363 . S
C571 C572 1.385 . S
C572 H546 0.930 . S
C572 C571 1.385 . S
C572 C573 1.357 . S
C573 C572 1.357 . S
C573 C574 1.406 . S
C574 H548 0.929 . S
C574 C573 1.406 . S
C574 C575 1.391 . S
C575 H547 0.931 . S
C575 C570 1.370 . S
C575 C574 1.391 . S
C576 N545 1.435 . S
C576 C577 1.358 . S
C576 C581 1.371 . S
C577 H549 0.930 . S
C577 C576 1.358 . S
C577 C578 1.405 . S
C578 H550 0.932 . S
C578 C577 1.405 . S
C578 C579 1.383 . S
C579 C578 1.383 . S
C579 C580 1.393 . S
C580 H552 0.931 . S
C580 C579 1.393 . S
C580 C581 1.382 . S
C581 H551 0.929 . S
C581 C576 1.371 . S
C581 C580 1.382 . S
C582 N545 1.423 . S
C582 C583 1.362 . S
C582 C587 1.388 . S
C583 H553 0.929 . S
C583 C582 1.362 . S
C583 C584 1.376 . S
C584 H555 0.931 . S
C584 C583 1.376 . S
C584 C585 1.396 . S
C585 C584 1.396 . S
C585 C586 1.348 . S
C585 C603 1.472 . S
C586 H556 0.929 . S
C586 C585 1.348 . S
C586 C587 1.443 . S
C587 H554 0.932 . S
C587 C582 1.388 . S
C587 C586 1.443 . S
C588 N568 1.433 . S
C588 C589 1.363 . S
C588 C593 1.370 . S
C589 H557 0.929 . S
C589 C588 1.363 . S
C589 C590 1.385 . S
C590 H558 0.930 . S
C590 C589 1.385 . S
C590 C591 1.357 . S
C591 C590 1.357 . S
C591 C592 1.406 . S
C592 H559 0.929 . S
C592 C591 1.406 . S
C592 C593 1.391 . S
C593 H560 0.931 . S
C593 C588 1.370 . S
C593 C592 1.391 . S
C594 N568 1.435 . S
C594 C595 1.358 . S
C594 C599 1.371 . S
C595 H561 0.930 . S
C595 C594 1.358 . S
C595 C596 1.405 . S
C596 H562 0.932 . S
C596 C595 1.405 . S
C596 C597 1.383 . S
C597 C596 1.383 . S
C597 C598 1.393 . S
C598 H563 0.931 . S
C598 C597 1.393 . S
C598 C599 1.382 . S
C599 H564 0.929 . S
C599 C594 1.371 . S
C599 C598 1.382 . S
C600 N568 1.423 . S
C600 C601 1.362 . S
C600 C605 1.388 . S
C601 H565 0.929 . S
C601 C600 1.362 . S
C601 C602 1.376 . S
C602 H566 0.931 . S
C602 C601 1.376 . S
C602 C603 1.396 . S
C603 C585 1.472 . S
C603 C602 1.396 . S
C603 C604 1.348 . S
C604 H567 0.929 . S
C604 C603 1.348 . S
C604 C605 1.443 . S
C605 H569 0.932 . S
C605 C600 1.388 . S
C605 C604 1.443 . S
H606 C633 0.929 . S
N607 C632 1.433 . S
N607 C638 1.435 . S
N607 C644 1.423 . S
H608 C634 0.930 . S
H609 C637 0.931 . S
H610 C636 0.929 . S
H611 C639 0.930 . S
H612 C640 0.932 . S
H613 C643 0.929 . S
H614 C642 0.931 . S
H615 C645 0.929 . S
H616 C649 0.932 . S
H617 C646 0.931 . S
H618 C648 0.929 . S
H619 C651 0.929 . S
H620 C652 0.930 . S
H621 C654 0.929 . S
H622 C655 0.931 . S
H623 C657 0.930 . S
H624 C658 0.932 . S
H625 C660 0.931 . S
H626 C661 0.929 . S
H627 C663 0.929 . S
H628 C664 0.931 . S
H629 C666 0.929 . S
N630 C650 1.433 . S
N630 C656 1.435 . S
N630 C662 1.423 . S
H631 C667 0.932 . S
C632 N607 1.433 . S
C632 C633 1.363 . S
C632 C637 1.370 . S
C633 H606 0.929 . S
C633 C632 1.363 . S
C633 C634 1.385 . S
C634 H608 0.930 . S
C634 C633 1.385 . S
C634 C635 1.357 . S
C635 C634 1.357 . S
C635 C636 1.406 . S
C636 H610 0.929 . S
C636 C635 1.406 . S
C636 C637 1.391 . S
C637 H609 0.931 . S
C637 C632 1.370 . S
C637 C636 1.391 . S
C638 N607 1.435 . S
C638 C639 1.358 . S
C638 C643 1.371 . S
C639 H611 0.930 . S
C639 C638 1.358 . S
C639 C640 1.405 . S
C640 H612 0.932 . S
C640 C639 1.405 . S
C640 C641 1.383 . S
C641 C640 1.383 . S
C641 C642 1.393 . S
C642 H614 0.931 . S
C642 C641 1.393 . S
C642 C643 1.382 . S
C643 H613 0.929 . S
C643 C638 1.371 . S
C643 C642 1.382 . S
C644 N607 1.423 . S
C644 C645 1.362 . S
C644 C649 1.388 . S
C645 H615 0.929 . S
C645 C644 1.362 . S
C645 C646 1.376 . S
C646 H617 0.931 . S
C646 C645 1.376 . S
C646 C647 1.396 . S
C647 C646 1.396 . S
C647 C648 1.348 . S
C647 C665 1.472 . S
C648 H618 0.929 . S
C648 C647 1.348 . S
C648 C649 1.443 . S
C649 H616 0.932 . S
C649 C644 1.388 . S
C649 C648 1.443 . S
C650 N630 1.433 . S
C650 C651 1.363 . S
C650 C655 1.370 . S
C651 H619 0.929 . S
C651 C650 1.363 . S
C651 C652 1.385 . S
C652 H620 0.930 . S
C652 C651 1.385 . S
C652 C653 1.357 . S
C653 C652 1.357 . S
C653 C654 1.406 . S
C654 H621 0.929 . S
C654 C653 1.406 . S
C654 C655 1.391 . S
C655 H622 0.931 . S
C655 C650 1.370 . S
C655 C654 1.391 . S
C656 N630 1.435 . S
C656 C657 1.358 . S
C656 C661 1.371 . S
C657 H623 0.930 . S
C657 C656 1.358 . S
C657 C658 1.405 . S
C658 H624 0.932 . S
C658 C657 1.405 . S
C658 C659 1.383 . S
C659 C658 1.383 . S
C659 C660 1.393 . S
C660 H625 0.931 . S
C660 C659 1.393 . S
C660 C661 1.382 . S
C661 H626 0.929 . S
C661 C656 1.371 . S
C661 C660 1.382 . S
C662 N630 1.423 . S
C662 C663 1.362 . S
C662 C667 1.388 . S
C663 H627 0.929 . S
C663 C662 1.362 . S
C663 C664 1.376 . S
C664 H628 0.931 . S
C664 C663 1.376 . S
C664 C665 1.396 . S
C665 C647 1.472 . S
C665 C664 1.396 . S
C665 C666 1.348 . S
C666 H629 0.929 . S
C666 C665 1.348 . S
C666 C667 1.443 . S
C667 H631 0.932 . S
C667 C662 1.388 . S
C667 C666 1.443 . S
H668 C695 0.929 . S
N669 C694 1.433 . S
N669 C700 1.435 . S
N669 C706 1.423 . S
H670 C696 0.930 . S
H671 C699 0.931 . S
H672 C698 0.929 . S
H673 C701 0.930 . S
H674 C702 0.932 . S
H675 C705 0.929 . S
H676 C704 0.931 . S
H677 C707 0.929 . S
H678 C711 0.932 . S
H679 C708 0.931 . S
H680 C710 0.929 . S
H681 C713 0.929 . S
H682 C714 0.930 . S
H683 C716 0.929 . S
H684 C717 0.931 . S
H685 C719 0.930 . S
H686 C720 0.932 . S
H687 C722 0.931 . S
H688 C723 0.929 . S
H689 C725 0.929 . S
H690 C726 0.931 . S
H691 C728 0.929 . S
N692 C712 1.433 . S
N692 C718 1.435 . S
N692 C724 1.423 . S
H693 C729 0.932 . S
C694 N669 1.433 . S
C694 C695 1.363 . S
C694 C699 1.370 . S
C695 H668 0.929 . S
C695 C694 1.363 . S
C695 C696 1.385 . S
C696 H670 0.930 . S
C696 C695 1.385 . S
C696 C697 1.357 . S
C697 C696 1.357 . S
C697 C698 1.406 . S
C698 H672 0.929 . S
C698 C697 1.406 . S
C698 C699 1.391 . S
C699 H671 0.931 . S
C699 C694 1.370 . S
C699 C698 1.391 . S
C700 N669 1.435 . S
C700 C701 1.358 . S
C700 C705 1.371 . S
C701 H673 0.930 . S
C701 C700 1.358 . S
C701 C702 1.405 . S
C702 H674 0.932 . S
C702 C701 1.405 . S
C702 C703 1.383 . S
C703 C702 1.383 . S
C703 C704 1.393 . S
C704 H676 0.931 . S
C704 C703 1.393 . S
C704 C705 1.382 . S
C705 H675 0.929 . S
C705 C700 1.371 . S
C705 C704 1.382 . S
C706 N669 1.423 . S
C706 C707 1.362 . S
C706 C711 1.388 . S
C707 H677 0.929 . S
C707 C706 1.362 . S
C707 C708 1.376 . S
C708 H679 0.931 . S
C708 C707 1.376 . S
C708 C709 1.396 . S
C709 C708 1.396 . S
C709 C710 1.348 . S
C709 C727 1.472 . S
C710 H680 0.929 . S
C710 C709 1.348 . S
C710 C711 1.443 . S
C711 H678 0.932 . S
C711 C706 1.388 . S
C711 C710 1.443 . S
C712 N692 1.433 . S
C712 C713 1.363 . S
C712 C717 1.370 . S
C713 H681 0.929 . S
C713 C712 1.363 . S
C713 C714 1.385 . S
C714 H682 0.930 . S
C714 C713 1.385 . S
C714 C715 1.357 . S
C715 C714 1.357 . S
C715 C716 1.406 . S
C716 H683 0.929 . S
C716 C715 1.406 . S
C716 C717 1.391 . S
C717 H684 0.931 . S
C717 C712 1.370 . S
C717 C716 1.391 . S
C718 N692 1.435 . S
C718 C719 1.358 . S
C718 C723 1.371 . S
C719 H685 0.930 . S
C719 C718 1.358 . S
C719 C720 1.405 . S
C720 H686 0.932 . S
C720 C719 1.405 . S
C720 C721 1.383 . S
C721 C720 1.383 . S
C721 C722 1.393 . S
C722 H687 0.931 . S
C722 C721 1.393 . S
C722 C723 1.382 . S
C723 H688 0.929 . S
C723 C718 1.371 . S
C723 C722 1.382 . S
C724 N692 1.423 . S
C724 C725 1.362 . S
C724 C729 1.388 . S
C725 H689 0.929 . S
C725 C724 1.362 . S
C725 C726 1.376 . S
C726 H690 0.931 . S
C726 C725 1.376 . S
C726 C727 1.396 . S
C727 C709 1.472 . S
C727 C726 1.396 . S
C727 C728 1.348 . S
C728 H691 0.929 . S
C728 C727 1.348 . S
C728 C729 1.443 . S
C729 H693 0.932 . S
C729 C724 1.388 . S
C729 C728 1.443 . S
H730 C757 0.929 . S
N731 C756 1.433 . S
N731 C762 1.435 . S
N731 C768 1.423 . S
H732 C758 0.930 . S
H733 C761 0.931 . S
H734 C760 0.929 . S
H735 C763 0.930 . S
H736 C764 0.932 . S
H737 C767 0.929 . S
H738 C766 0.931 . S
H739 C769 0.929 . S
H740 C773 0.932 . S
H741 C770 0.931 . S
H742 C772 0.929 . S
H743 C775 0.929 . S
H744 C776 0.930 . S
H745 C778 0.929 . S
H746 C779 0.931 . S
H747 C781 0.930 . S
H748 C782 0.932 . S
H749 C784 0.931 . S
H750 C785 0.929 . S
H751 C787 0.929 . S
H752 C788 0.931 . S
H753 C790 0.929 . S
N754 C774 1.433 . S
N754 C780 1.435 . S
N754 C786 1.423 . S
H755 C791 0.932 . S
C756 N731 1.433 . S
C756 C757 1.363 . S
C756 C761 1.370 . S
C757 H730 0.929 . S
C757 C756 1.363 . S
C757 C758 1.385 . S
C758 H732 0.930 . S
C758 C757 1.385 . S
C758 C759 1.357 . S
C759 C758 1.357 . S
C759 C760 1.406 . S
C760 H734 0.929 . S
C760 C759 1.406 . S
C760 C761 1.391 . S
C761 H733 0.931 . S
C761 C756 1.370 . S
C761 C760 1.391 . S
C762 N731 1.435 . S
C762 C763 1.358 . S
C762 C767 1.371 . S
C763 H735 0.930 . S
C763 C762 1.358 . S
C763 C764 1.405 . S
C764 H736 0.932 . S
C764 C763 1.405 . S
C764 C765 1.383 . S
C765 C764 1.383 . S
C765 C766 1.393 . S
C766 H738 0.931 . S
C766 C765 1.393 . S
C766 C767 1.382 . S
C767 H737 0.929 . S
C767 C762 1.371 . S
C767 C766 1.382 . S
C768 N731 1.423 . S
C768 C769 1.362 . S
C768 C773 1.388 . S
C769 H739 0.929 . S
C769 C768 1.362 . S
C769 C770 1.376 . S
C770 H741 0.931 . S
C770 C769 1.376 . S
C770 C771 1.396 . S
C771 C770 1.396 . S
C771 C772 1.348 . S
C771 C789 1.472 . S
C772 H742 0.929 . S
C772 C771 1.348 . S
C772 C773 1.443 . S
C773 H740 0.932 . S
C773 C768 1.388 . S
C773 C772 1.443 . S
C774 N754 1.433 . S
C774 C775 1.363 . S
C774 C779 1.370 . S
C775 H743 0.929 . S
C775 C774 1.363 . S
C775 C776 1.385 . S
C776 H744 0.930 . S
C776 C775 1.385 . S
C776 C777 1.357 . S
C777 C776 1.357 . S
C777 C778 1.406 . S
C778 H745 0.929 . S
C778 C777 1.406 . S
C778 C779 1.391 . S
C779 H746 0.931 . S
C779 C774 1.370 . S
C779 C778 1.391 . S
C780 N754 1.435 . S
C780 C781 1.358 . S
C780 C785 1.371 . S
C781 H747 0.930 . S
C781 C780 1.358 . S
C781 C782 1.405 . S
C782 H748 0.932 . S
C782 C781 1.405 . S
C782 C783 1.383 . S
C783 C782 1.383 . S
C783 C784 1.393 . S
C784 H749 0.931 . S
C784 C783 1.393 . S
C784 C785 1.382 . S
C785 H750 0.929 . S
C785 C780 1.371 . S
C785 C784 1.382 . S
C786 N754 1.423 . S
C786 C787 1.362 . S
C786 C791 1.388 . S
C787 H751 0.929 . S
C787 C786 1.362 . S
C787 C788 1.376 . S
C788 H752 0.931 . S
C788 C787 1.376 . S
C788 C789 1.396 . S
C789 C771 1.472 . S
C789 C788 1.396 . S
C789 C790 1.348 . S
C790 H753 0.929 . S
C790 C789 1.348 . S
C790 C791 1.443 . S
C791 H755 0.932 . S
C791 C786 1.388 . S
C791 C790 1.443 . S
H792 C819 0.929 . S
N793 C818 1.433 . S
N793 C824 1.435 . S
N793 C830 1.423 . S
H794 C820 0.930 . S
H795 C823 0.931 . S
H796 C822 0.929 . S
H797 C825 0.930 . S
H798 C826 0.932 . S
H799 C829 0.929 . S
H800 C828 0.931 . S
H801 C831 0.929 . S
H802 C835 0.932 . S
H803 C832 0.931 . S
H804 C834 0.929 . S
H805 C837 0.929 . S
H806 C838 0.930 . S
H807 C840 0.929 . S
H808 C841 0.931 . S
H809 C843 0.930 . S
H810 C844 0.932 . S
H811 C846 0.931 . S
H812 C847 0.929 . S
H813 C849 0.929 . S
H814 C850 0.931 . S
H815 C852 0.929 . S
N816 C836 1.433 . S
N816 C842 1.435 . S
N816 C848 1.423 . S
H817 C853 0.932 . S
C818 N793 1.433 . S
C818 C819 1.363 . S
C818 C823 1.370 . S
C819 H792 0.929 . S
C819 C818 1.363 . S
C819 C820 1.385 . S
C820 H794 0.930 . S
C820 C819 1.385 . S
C820 C821 1.357 . S
C821 C820 1.357 . S
C821 C822 1.406 . S
C822 H796 0.929 . S
C822 C821 1.406 . S
C822 C823 1.391 . S
C823 H795 0.931 . S
C823 C818 1.370 . S
C823 C822 1.391 . S
C824 N793 1.435 . S
C824 C825 1.358 . S
C824 C829 1.371 . S
C825 H797 0.930 . S
C825 C824 1.358 . S
C825 C826 1.405 . S
C826 H798 0.932 . S
C826 C825 1.405 . S
C826 C827 1.383 . S
C827 C826 1.383 . S
C827 C828 1.393 . S
C828 H800 0.931 . S
C828 C827 1.393 . S
C828 C829 1.382 . S
C829 H799 0.929 . S
C829 C824 1.371 . S
C829 C828 1.382 . S
C830 N793 1.423 . S
C830 C831 1.362 . S
C830 C835 1.388 . S
C831 H801 0.929 . S
C831 C830 1.362 . S
C831 C832 1.376 . S
C832 H803 0.931 . S
C832 C831 1.376 . S
C832 C833 1.396 . S
C833 C832 1.396 . S
C833 C834 1.348 . S
C833 C851 1.472 . S
C834 H804 0.929 . S
C834 C833 1.348 . S
C834 C835 1.443 . S
C835 H802 0.932 . S
C835 C830 1.388 . S
C835 C834 1.443 . S
C836 N816 1.433 . S
C836 C837 1.363 . S
C836 C841 1.370 . S
C837 H805 0.929 . S
C837 C836 1.363 . S
C837 C838 1.385 . S
C838 H806 0.930 . S
C838 C837 1.385 . S
C838 C839 1.357 . S
C839 C838 1.357 . S
C839 C840 1.406 . S
C840 H807 0.929 . S
C840 C839 1.406 . S
C840 C841 1.391 . S
C841 H808 0.931 . S
C841 C836 1.370 . S
C841 C840 1.391 . S
C842 N816 1.435 . S
C842 C843 1.358 . S
C842 C847 1.371 . S
C843 H809 0.930 . S
C843 C842 1.358 . S
C843 C844 1.405 . S
C844 H810 0.932 . S
C844 C843 1.405 . S
C844 C845 1.383 . S
C845 C844 1.383 . S
C845 C846 1.393 . S
C846 H811 0.931 . S
C846 C845 1.393 . S
C846 C847 1.382 . S
C847 H812 0.929 . S
C847 C842 1.371 . S
C847 C846 1.382 . S
C848 N816 1.423 . S
C848 C849 1.362 . S
C848 C853 1.388 . S
C849 H813 0.929 . S
C849 C848 1.362 . S
C849 C850 1.376 . S
C850 H814 0.931 . S
C850 C849 1.376 . S
C850 C851 1.396 . S
C851 C833 1.472 . S
C851 C850 1.396 . S
C851 C852 1.348 . S
C852 H815 0.929 . S
C852 C851 1.348 . S
C852 C853 1.443 . S
C853 H817 0.932 . S
C853 C848 1.388 . S
C853 C852 1.443 . S
H854 C881 0.929 . S
N855 C880 1.433 . S
N855 C886 1.435 . S
N855 C892 1.423 . S
H856 C882 0.930 . S
H857 C885 0.931 . S
H858 C884 0.929 . S
H859 C887 0.930 . S
H860 C888 0.932 . S
H861 C891 0.929 . S
H862 C890 0.931 . S
H863 C893 0.929 . S
H864 C897 0.932 . S
H865 C894 0.931 . S
H866 C896 0.929 . S
H867 C899 0.929 . S
H868 C900 0.930 . S
H869 C902 0.929 . S
H870 C903 0.931 . S
H871 C905 0.930 . S
H872 C906 0.932 . S
H873 C908 0.931 . S
H874 C909 0.929 . S
H875 C911 0.929 . S
H876 C912 0.931 . S
H877 C914 0.929 . S
N878 C898 1.433 . S
N878 C904 1.435 . S
N878 C910 1.423 . S
H879 C915 0.932 . S
C880 N855 1.433 . S
C880 C881 1.363 . S
C880 C885 1.370 . S
C881 H854 0.929 . S
C881 C880 1.363 . S
C881 C882 1.385 . S
C882 H856 0.930 . S
C882 C881 1.385 . S
C882 C883 1.357 . S
C883 C882 1.357 . S
C883 C884 1.406 . S
C884 H858 0.929 . S
C884 C883 1.406 . S
C884 C885 1.391 . S
C885 H857 0.931 . S
C885 C880 1.370 . S
C885 C884 1.391 . S
C886 N855 1.435 . S
C886 C887 1.358 . S
C886 C891 1.371 . S
C887 H859 0.930 . S
C887 C886 1.358 . S
C887 C888 1.405 . S
C888 H860 0.932 . S
C888 C887 1.405 . S
C888 C889 1.383 . S
C889 C888 1.383 . S
C889 C890 1.393 . S
C890 H862 0.931 . S
C890 C889 1.393 . S
C890 C891 1.382 . S
C891 H861 0.929 . S
C891 C886 1.371 . S
C891 C890 1.382 . S
C892 N855 1.423 . S
C892 C893 1.362 . S
C892 C897 1.388 . S
C893 H863 0.929 . S
C893 C892 1.362 . S
C893 C894 1.376 . S
C894 H865 0.931 . S
C894 C893 1.376 . S
C894 C895 1.396 . S
C895 C894 1.396 . S
C895 C896 1.348 . S
C895 C913 1.472 . S
C896 H866 0.929 . S
C896 C895 1.348 . S
C896 C897 1.443 . S
C897 H864 0.932 . S
C897 C892 1.388 . S
C897 C896 1.443 . S
C898 N878 1.433 . S
C898 C899 1.363 . S
C898 C903 1.370 . S
C899 H867 0.929 . S
C899 C898 1.363 . S
C899 C900 1.385 . S
C900 H868 0.930 . S
C900 C899 1.385 . S
C900 C901 1.357 . S
C901 C900 1.357 . S
C901 C902 1.406 . S
C902 H869 0.929 . S
C902 C901 1.406 . S
C902 C903 1.391 . S
C903 H870 0.931 . S
C903 C898 1.370 . S
C903 C902 1.391 . S
C904 N878 1.435 . S
C904 C905 1.358 . S
C904 C909 1.371 . S
C905 H871 0.930 . S
C905 C904 1.358 . S
C905 C906 1.405 . S
C906 H872 0.932 . S
C906 C905 1.405 . S
C906 C907 1.383 . S
C907 C906 1.383 . S
C907 C908 1.393 . S
C908 H873 0.931 . S
C908 C907 1.393 . S
C908 C909 1.382 . S
C909 H874 0.929 . S
C909 C904 1.371 . S
C909 C908 1.382 . S
C910 N878 1.423 . S
C910 C911 1.362 . S
C910 C915 1.388 . S
C911 H875 0.929 . S
C911 C910 1.362 . S
C911 C912 1.376 . S
C912 H876 0.931 . S
C912 C911 1.376 . S
C912 C913 1.396 . S
C913 C895 1.472 . S
C913 C912 1.396 . S
C913 C914 1.348 . S
C914 H877 0.929 . S
C914 C913 1.348 . S
C914 C915 1.443 . S
C915 H879 0.932 . S
C915 C910 1.388 . S
C915 C914 1.443 . S
H916 C943 0.929 . S
N917 C942 1.433 . S
N917 C948 1.435 . S
N917 C954 1.423 . S
H918 C944 0.930 . S
H919 C947 0.931 . S
H920 C946 0.929 . S
H921 C949 0.930 . S
H922 C950 0.932 . S
H923 C953 0.929 . S
H924 C952 0.931 . S
H925 C955 0.929 . S
H926 C959 0.932 1_545 S
H927 C956 0.931 . S
H928 C958 0.929 . S
H929 C961 0.929 . S
H930 C962 0.930 . S
H931 C964 0.929 . S
H932 C965 0.931 . S
H933 C967 0.930 . S
H934 C968 0.932 . S
H935 C970 0.931 . S
H936 C971 0.929 . S
H937 C973 0.929 . S
H938 C974 0.931 . S
H939 C976 0.929 . S
N940 C960 1.433 . S
N940 C966 1.435 . S
N940 C972 1.423 . S
H941 C977 0.932 1_545 S
C942 N917 1.433 . S
C942 C943 1.363 . S
C942 C947 1.370 1_565 S
C943 H916 0.929 . S
C943 C942 1.363 . S
C943 C944 1.385 . S
C944 H918 0.930 . S
C944 C943 1.385 . S
C944 C945 1.357 1_565 S
C945 C944 1.357 1_545 S
C945 C946 1.406 . S
C946 H920 0.929 . S
C946 C945 1.406 . S
C946 C947 1.391 . S
C947 H919 0.931 . S
C947 C942 1.370 1_545 S
C947 C946 1.391 . S
C948 N917 1.435 . S
C948 C949 1.358 1_565 S
C948 C953 1.371 . S
C949 H921 0.930 . S
C949 C948 1.358 1_545 S
C949 C950 1.405 . S
C950 H922 0.932 . S
C950 C949 1.405 . S
C950 C951 1.383 1_545 S
C951 C950 1.383 1_565 S
C951 C952 1.393 . S
C952 H924 0.931 . S
C952 C951 1.393 . S
C952 C953 1.382 . S
C953 H923 0.929 . S
C953 C948 1.371 . S
C953 C952 1.382 . S
C954 N917 1.423 . S
C954 C955 1.362 . S
C954 C959 1.388 . S
C955 H925 0.929 . S
C955 C954 1.362 . S
C955 C956 1.376 . S
C956 H927 0.931 . S
C956 C955 1.376 . S
C956 C957 1.396 . S
C957 C956 1.396 . S
C957 C958 1.348 . S
C957 C975 1.472 . S
C958 H928 0.929 . S
C958 C957 1.348 . S
C958 C959 1.443 . S
C959 H926 0.932 1_565 S
C959 C954 1.388 . S
C959 C958 1.443 . S
C960 N940 1.433 . S
C960 C961 1.363 . S
C960 C965 1.370 1_565 S
C961 H929 0.929 . S
C961 C960 1.363 . S
C961 C962 1.385 . S
C962 H930 0.930 . S
C962 C961 1.385 . S
C962 C963 1.357 1_565 S
C963 C962 1.357 1_545 S
C963 C964 1.406 . S
C964 H931 0.929 . S
C964 C963 1.406 . S
C964 C965 1.391 . S
C965 H932 0.931 . S
C965 C960 1.370 1_545 S
C965 C964 1.391 . S
C966 N940 1.435 . S
C966 C967 1.358 1_565 S
C966 C971 1.371 . S
C967 H933 0.930 . S
C967 C966 1.358 1_545 S
C967 C968 1.405 . S
C968 H934 0.932 . S
C968 C967 1.405 . S
C968 C969 1.383 1_545 S
C969 C968 1.383 1_565 S
C969 C970 1.393 . S
C970 H935 0.931 . S
C970 C969 1.393 . S
C970 C971 1.382 . S
C971 H936 0.929 . S
C971 C966 1.371 . S
C971 C970 1.382 . S
C972 N940 1.423 . S
C972 C973 1.362 . S
C972 C977 1.388 . S
C973 H937 0.929 . S
C973 C972 1.362 . S
C973 C974 1.376 . S
C974 H938 0.931 . S
C974 C973 1.376 . S
C974 C975 1.396 . S
C975 C957 1.472 . S
C975 C974 1.396 . S
C975 C976 1.348 . S
C976 H939 0.929 . S
C976 C975 1.348 . S
C976 C977 1.443 . S
C977 H941 0.932 1_565 S
C977 C972 1.388 . S
C977 C976 1.443 . S
H978 C1005 0.928 1_565 S
N979 C1004 1.433 . S
N979 C1010 1.435 . S
N979 C1016 1.423 . S
H980 C1006 0.929 . S
H981 C1009 0.931 . S
H982 C1008 0.929 . S
H983 C1011 0.930 . S
H984 C1012 0.932 . S
H985 C1015 0.998 . S
H986 C1014 0.931 . S
H987 C1017 0.929 . S
H988 C1021 0.932 . S
H989 C1018 0.931 . S
H990 C1020 0.929 . S
H991 C1023 0.913 1_565 S
H992 C1024 0.926 . S
H993 C1026 0.929 . S
H994 C1027 0.931 . S
H995 C1029 0.930 . S
H996 C1030 0.932 . S
H997 C1032 0.931 . S
H998 C1033 0.942 . S
H999 C1035 0.929 . S
H1000 C1036 0.931 . S
H1001 C1038 0.929 . S
N1002 C1022 1.433 . S
N1002 C1028 1.435 . S
N1002 C1034 1.423 . S
H1003 C1039 0.932 . S
C1004 N979 1.433 . S
C1004 C1005 1.363 . S
C1004 C1009 1.370 . S
C1005 H978 0.928 1_545 S
C1005 C1004 1.363 . S
C1005 C1006 1.385 . S
C1006 H980 0.929 . S
C1006 C1005 1.385 . S
C1006 C1007 1.357 . S
C1007 C1006 1.357 . S
C1007 C1008 1.406 . S
C1008 H982 0.929 . S
C1008 C1007 1.406 . S
C1008 C1009 1.391 . S
C1009 H981 0.931 . S
C1009 C1004 1.370 . S
C1009 C1008 1.391 . S
C1010 N979 1.435 . S
C1010 C1011 1.358 . S
C1010 C1015 1.371 . S
C1011 H983 0.930 . S
C1011 C1010 1.358 . S
C1011 C1012 1.405 . S
C1012 H984 0.932 . S
C1012 C1011 1.405 . S
C1012 C1013 1.383 . S
C1013 C1012 1.383 . S
C1013 C1014 1.393 . S
C1014 H986 0.931 . S
C1014 C1013 1.393 . S
C1014 C1015 1.382 . S
C1015 H985 0.998 . S
C1015 C1010 1.371 . S
C1015 C1014 1.382 . S
C1016 N979 1.423 . S
C1016 C1017 1.362 1_545 S
C1016 C1021 1.388 . S
C1017 H987 0.929 . S
C1017 C1016 1.362 1_565 S
C1017 C1018 1.376 . S
C1018 H989 0.931 . S
C1018 C1017 1.376 . S
C1018 C1019 1.396 1_565 S
C1019 C1018 1.396 1_545 S
C1019 C1020 1.348 . S
C1019 C1037 1.472 . S
C1020 H990 0.929 . S
C1020 C1019 1.348 . S
C1020 C1021 1.443 . S
C1021 H988 0.932 . S
C1021 C1016 1.388 . S
C1021 C1020 1.443 . S
C1022 N1002 1.433 . S
C1022 C1023 1.363 . S
C1022 C1027 1.370 . S
C1023 H991 0.913 1_545 S
C1023 C1022 1.363 . S
C1023 C1024 1.385 . S
C1024 H992 0.926 . S
C1024 C1023 1.385 . S
C1024 C1025 1.357 . S
C1025 C1024 1.357 . S
C1025 C1026 1.406 . S
C1026 H993 0.929 . S
C1026 C1025 1.406 . S
C1026 C1027 1.391 . S
C1027 H994 0.931 . S
C1027 C1022 1.370 . S
C1027 C1026 1.391 . S
C1028 N1002 1.435 . S
C1028 C1029 1.358 . S
C1028 C1033 1.371 . S
C1029 H995 0.930 . S
C1029 C1028 1.358 . S
C1029 C1030 1.405 . S
C1030 H996 0.932 . S
C1030 C1029 1.405 . S
C1030 C1031 1.383 . S
C1031 C1030 1.383 . S
C1031 C1032 1.393 . S
C1032 H997 0.931 . S
C1032 C1031 1.393 . S
C1032 C1033 1.382 . S
C1033 H998 0.942 . S
C1033 C1028 1.371 . S
C1033 C1032 1.382 . S
C1034 N1002 1.423 . S
C1034 C1035 1.362 1_545 S
C1034 C1039 1.388 . S
C1035 H999 0.929 . S
C1035 C1034 1.362 1_565 S
C1035 C1036 1.376 . S
C1036 H1000 0.931 . S
C1036 C1035 1.376 . S
C1036 C1037 1.396 1_565 S
C1037 C1019 1.472 . S
C1037 C1036 1.396 1_545 S
C1037 C1038 1.348 . S
C1038 H1001 0.929 . S
C1038 C1037 1.348 . S
C1038 C1039 1.443 . S
C1039 H1003 0.932 . S
C1039 C1034 1.388 . S
C1039 C1038 1.443 . S
H1040 C1067 0.929 . S
N1041 C1066 1.433 . S
N1041 C1072 1.435 . S
N1041 C1078 1.423 . S
H1042 C1068 0.930 . S
H1043 C1071 0.931 . S
H1044 C1070 0.929 . S
H1045 C1073 0.930 . S
H1046 C1074 0.932 . S
H1047 C1077 0.929 . S
H1048 C1076 0.931 . S
H1049 C1079 0.929 . S
H1050 C1083 0.932 1_455 S
H1051 C1080 0.931 . S
H1052 C1082 0.929 . S
H1053 C1085 0.929 . S
H1054 C1086 0.930 . S
H1055 C1088 0.929 . S
H1056 C1089 0.931 . S
H1057 C1091 0.930 . S
H1058 C1092 0.932 . S
H1059 C1094 0.931 . S
H1060 C1095 0.929 . S
H1061 C1097 0.929 . S
H1062 C1098 0.931 . S
H1063 C1100 0.929 . S
N1064 C1084 1.433 . S
N1064 C1090 1.435 . S
N1064 C1096 1.423 . S
H1065 C1101 0.932 1_455 S
C1066 N1041 1.433 . S
C1066 C1067 1.363 . S
C1066 C1071 1.370 1_655 S
C1067 H1040 0.929 . S
C1067 C1066 1.363 . S
C1067 C1068 1.385 . S
C1068 H1042 0.930 . S
C1068 C1067 1.385 . S
C1068 C1069 1.357 1_655 S
C1069 C1068 1.357 1_455 S
C1069 C1070 1.406 . S
C1070 H1044 0.929 . S
C1070 C1069 1.406 . S
C1070 C1071 1.391 . S
C1071 H1043 0.931 . S
C1071 C1066 1.370 1_455 S
C1071 C1070 1.391 . S
C1072 N1041 1.435 . S
C1072 C1073 1.358 1_655 S
C1072 C1077 1.371 . S
C1073 H1045 0.930 . S
C1073 C1072 1.358 1_455 S
C1073 C1074 1.405 . S
C1074 H1046 0.932 . S
C1074 C1073 1.405 . S
C1074 C1075 1.383 1_455 S
C1075 C1074 1.383 1_655 S
C1075 C1076 1.393 . S
C1076 H1048 0.931 . S
C1076 C1075 1.393 . S
C1076 C1077 1.382 . S
C1077 H1047 0.929 . S
C1077 C1072 1.371 . S
C1077 C1076 1.382 . S
C1078 N1041 1.423 . S
C1078 C1079 1.362 . S
C1078 C1083 1.388 . S
C1079 H1049 0.929 . S
C1079 C1078 1.362 . S
C1079 C1080 1.376 . S
C1080 H1051 0.931 . S
C1080 C1079 1.376 . S
C1080 C1081 1.396 . S
C1081 C1080 1.396 . S
C1081 C1082 1.348 . S
C1081 C1099 1.472 . S
C1082 H1052 0.929 . S
C1082 C1081 1.348 . S
C1082 C1083 1.443 . S
C1083 H1050 0.932 1_655 S
C1083 C1078 1.388 . S
C1083 C1082 1.443 . S
C1084 N1064 1.433 . S
C1084 C1085 1.363 . S
C1084 C1089 1.370 1_655 S
C1085 H1053 0.929 . S
C1085 C1084 1.363 . S
C1085 C1086 1.385 . S
C1086 H1054 0.930 . S
C1086 C1085 1.385 . S
C1086 C1087 1.357 1_655 S
C1087 C1086 1.357 1_455 S
C1087 C1088 1.406 . S
C1088 H1055 0.929 . S
C1088 C1087 1.406 . S
C1088 C1089 1.391 . S
C1089 H1056 0.931 . S
C1089 C1084 1.370 1_455 S
C1089 C1088 1.391 . S
C1090 N1064 1.435 . S
C1090 C1091 1.358 1_655 S
C1090 C1095 1.371 . S
C1091 H1057 0.930 . S
C1091 C1090 1.358 1_455 S
C1091 C1092 1.405 . S
C1092 H1058 0.932 . S
C1092 C1091 1.405 . S
C1092 C1093 1.383 1_455 S
C1093 C1092 1.383 1_655 S
C1093 C1094 1.393 . S
C1094 H1059 0.931 . S
C1094 C1093 1.393 . S
C1094 C1095 1.382 . S
C1095 H1060 0.929 . S
C1095 C1090 1.371 . S
C1095 C1094 1.382 . S
C1096 N1064 1.423 . S
C1096 C1097 1.362 . S
C1096 C1101 1.388 . S
C1097 H1061 0.929 . S
C1097 C1096 1.362 . S
C1097 C1098 1.376 . S
C1098 H1062 0.931 . S
C1098 C1097 1.376 . S
C1098 C1099 1.396 . S
C1099 C1081 1.472 . S
C1099 C1098 1.396 . S
C1099 C1100 1.348 . S
C1100 H1063 0.929 . S
C1100 C1099 1.348 . S
C1100 C1101 1.443 . S
C1101 H1065 0.932 1_655 S
C1101 C1096 1.388 . S
C1101 C1100 1.443 . S
H1102 C1129 0.929 . S
N1103 C1128 1.433 . S
N1103 C1134 1.435 . S
N1103 C1140 1.423 . S
H1104 C1130 0.930 . S
H1105 C1133 0.931 . S
H1106 C1132 0.929 . S
H1107 C1135 0.930 . S
H1108 C1136 0.932 . S
H1109 C1139 0.929 . S
H1110 C1138 0.931 . S
H1111 C1141 0.929 . S
H1112 C1145 0.932 . S
H1113 C1142 0.931 . S
H1114 C1144 0.929 . S
H1115 C1147 0.929 . S
H1116 C1148 0.930 . S
H1117 C1150 0.929 . S
H1118 C1151 0.931 . S
H1119 C1153 0.930 . S
H1120 C1154 0.932 . S
H1121 C1156 0.931 . S
H1122 C1157 0.929 . S
H1123 C1159 0.929 . S
H1124 C1160 0.931 . S
H1125 C1162 0.929 . S
N1126 C1146 1.433 . S
N1126 C1152 1.435 . S
N1126 C1158 1.423 . S
H1127 C1163 0.932 . S
C1128 N1103 1.433 . S
C1128 C1129 1.363 . S
C1128 C1133 1.370 . S
C1129 H1102 0.929 . S
C1129 C1128 1.363 . S
C1129 C1130 1.385 . S
C1130 H1104 0.930 . S
C1130 C1129 1.385 . S
C1130 C1131 1.357 . S
C1131 C1130 1.357 . S
C1131 C1132 1.406 . S
C1132 H1106 0.929 . S
C1132 C1131 1.406 . S
C1132 C1133 1.391 . S
C1133 H1105 0.931 . S
C1133 C1128 1.370 . S
C1133 C1132 1.391 . S
C1134 N1103 1.435 . S
C1134 C1135 1.358 . S
C1134 C1139 1.371 . S
C1135 H1107 0.930 . S
C1135 C1134 1.358 . S
C1135 C1136 1.405 . S
C1136 H1108 0.932 . S
C1136 C1135 1.405 . S
C1136 C1137 1.383 . S
C1137 C1136 1.383 . S
C1137 C1138 1.393 . S
C1138 H1110 0.931 . S
C1138 C1137 1.393 . S
C1138 C1139 1.382 . S
C1139 H1109 0.929 . S
C1139 C1134 1.371 . S
C1139 C1138 1.382 . S
C1140 N1103 1.423 . S
C1140 C1141 1.362 . S
C1140 C1145 1.388 . S
C1141 H1111 0.929 . S
C1141 C1140 1.362 . S
C1141 C1142 1.376 . S
C1142 H1113 0.931 . S
C1142 C1141 1.376 . S
C1142 C1143 1.396 . S
C1143 C1142 1.396 . S
C1143 C1144 1.348 . S
C1143 C1161 1.472 . S
C1144 H1114 0.929 . S
C1144 C1143 1.348 . S
C1144 C1145 1.443 . S
C1145 H1112 0.932 . S
C1145 C1140 1.388 . S
C1145 C1144 1.443 . S
C1146 N1126 1.433 . S
C1146 C1147 1.363 . S
C1146 C1151 1.370 . S
C1147 H1115 0.929 . S
C1147 C1146 1.363 . S
C1147 C1148 1.385 . S
C1148 H1116 0.930 . S
C1148 C1147 1.385 . S
C1148 C1149 1.357 . S
C1149 C1148 1.357 . S
C1149 C1150 1.406 . S
C1150 H1117 0.929 . S
C1150 C1149 1.406 . S
C1150 C1151 1.391 . S
C1151 H1118 0.931 . S
C1151 C1146 1.370 . S
C1151 C1150 1.391 . S
C1152 N1126 1.435 . S
C1152 C1153 1.358 . S
C1152 C1157 1.371 . S
C1153 H1119 0.930 . S
C1153 C1152 1.358 . S
C1153 C1154 1.405 . S
C1154 H1120 0.932 . S
C1154 C1153 1.405 . S
C1154 C1155 1.383 . S
C1155 C1154 1.383 . S
C1155 C1156 1.393 . S
C1156 H1121 0.931 . S
C1156 C1155 1.393 . S
C1156 C1157 1.382 . S
C1157 H1122 0.929 . S
C1157 C1152 1.371 . S
C1157 C1156 1.382 . S
C1158 N1126 1.423 . S
C1158 C1159 1.362 . S
C1158 C1163 1.388 . S
C1159 H1123 0.929 . S
C1159 C1158 1.362 . S
C1159 C1160 1.376 . S
C1160 H1124 0.931 . S
C1160 C1159 1.376 . S
C1160 C1161 1.396 . S
C1161 C1143 1.472 . S
C1161 C1160 1.396 . S
C1161 C1162 1.348 . S
C1162 H1125 0.929 . S
C1162 C1161 1.348 . S
C1162 C1163 1.443 . S
C1163 H1127 0.932 . S
C1163 C1158 1.388 . S
C1163 C1162 1.443 . S
H1164 C1191 0.929 . S
N1165 C1190 1.433 . S
N1165 C1196 1.435 . S
N1165 C1202 1.423 . S
H1166 C1192 0.930 . S
H1167 C1195 0.931 . S
H1168 C1194 0.929 . S
H1169 C1197 0.930 . S
H1170 C1198 0.932 . S
H1171 C1201 0.929 . S
H1172 C1200 0.931 . S
H1173 C1203 0.929 . S
H1174 C1207 0.932 . S
H1175 C1204 0.931 . S
H1176 C1206 0.929 . S
H1177 C1209 0.929 . S
H1178 C1210 0.930 . S
H1179 C1212 0.929 . S
H1180 C1213 0.931 . S
H1181 C1215 0.930 . S
H1182 C1216 0.932 . S
H1183 C1218 0.931 . S
H1184 C1219 0.929 . S
H1185 C1221 0.929 . S
H1186 C1222 0.931 . S
H1187 C1224 0.929 . S
N1188 C1208 1.433 . S
N1188 C1214 1.435 . S
N1188 C1220 1.423 . S
H1189 C1225 0.932 . S
C1190 N1165 1.433 . S
C1190 C1191 1.363 . S
C1190 C1195 1.370 . S
C1191 H1164 0.929 . S
C1191 C1190 1.363 . S
C1191 C1192 1.385 . S
C1192 H1166 0.930 . S
C1192 C1191 1.385 . S
C1192 C1193 1.357 . S
C1193 C1192 1.357 . S
C1193 C1194 1.406 . S
C1194 H1168 0.929 . S
C1194 C1193 1.406 . S
C1194 C1195 1.391 . S
C1195 H1167 0.931 . S
C1195 C1190 1.370 . S
C1195 C1194 1.391 . S
C1196 N1165 1.435 . S
C1196 C1197 1.358 . S
C1196 C1201 1.371 . S
C1197 H1169 0.930 . S
C1197 C1196 1.358 . S
C1197 C1198 1.405 . S
C1198 H1170 0.932 . S
C1198 C1197 1.405 . S
C1198 C1199 1.383 . S
C1199 C1198 1.383 . S
C1199 C1200 1.393 . S
C1200 H1172 0.931 . S
C1200 C1199 1.393 . S
C1200 C1201 1.382 . S
C1201 H1171 0.929 . S
C1201 C1196 1.371 . S
C1201 C1200 1.382 . S
C1202 N1165 1.423 . S
C1202 C1203 1.362 . S
C1202 C1207 1.388 . S
C1203 H1173 0.929 . S
C1203 C1202 1.362 . S
C1203 C1204 1.376 . S
C1204 H1175 0.931 . S
C1204 C1203 1.376 . S
C1204 C1205 1.396 . S
C1205 C1204 1.396 . S
C1205 C1206 1.348 . S
C1205 C1223 1.472 . S
C1206 H1176 0.929 . S
C1206 C1205 1.348 . S
C1206 C1207 1.443 . S
C1207 H1174 0.932 . S
C1207 C1202 1.388 . S
C1207 C1206 1.443 . S
C1208 N1188 1.433 . S
C1208 C1209 1.363 . S
C1208 C1213 1.370 . S
C1209 H1177 0.929 . S
C1209 C1208 1.363 . S
C1209 C1210 1.385 . S
C1210 H1178 0.930 . S
C1210 C1209 1.385 . S
C1210 C1211 1.357 . S
C1211 C1210 1.357 . S
C1211 C1212 1.406 . S
C1212 H1179 0.929 . S
C1212 C1211 1.406 . S
C1212 C1213 1.391 . S
C1213 H1180 0.931 . S
C1213 C1208 1.370 . S
C1213 C1212 1.391 . S
C1214 N1188 1.435 . S
C1214 C1215 1.358 . S
C1214 C1219 1.371 . S
C1215 H1181 0.930 . S
C1215 C1214 1.358 . S
C1215 C1216 1.405 . S
C1216 H1182 0.932 . S
C1216 C1215 1.405 . S
C1216 C1217 1.383 . S
C1217 C1216 1.383 . S
C1217 C1218 1.393 . S
C1218 H1183 0.931 . S
C1218 C1217 1.393 . S
C1218 C1219 1.382 . S
C1219 H1184 0.929 . S
C1219 C1214 1.371 . S
C1219 C1218 1.382 . S
C1220 N1188 1.423 . S
C1220 C1221 1.362 . S
C1220 C1225 1.388 . S
C1221 H1185 0.929 . S
C1221 C1220 1.362 . S
C1221 C1222 1.376 . S
C1222 H1186 0.931 . S
C1222 C1221 1.376 . S
C1222 C1223 1.396 . S
C1223 C1205 1.472 . S
C1223 C1222 1.396 . S
C1223 C1224 1.348 . S
C1224 H1187 0.929 . S
C1224 C1223 1.348 . S
C1224 C1225 1.443 . S
C1225 H1189 0.932 . S
C1225 C1220 1.388 . S
C1225 C1224 1.443 . S
H1226 C1253 0.929 . S
N1227 C1252 1.433 . S
N1227 C1258 1.435 . S
N1227 C1264 1.423 . S
H1228 C1254 0.930 . S
H1229 C1257 0.931 . S
H1230 C1256 0.929 . S
H1231 C1259 0.930 . S
H1232 C1260 0.932 . S
H1233 C1263 0.929 . S
H1234 C1262 0.931 . S
H1235 C1265 0.929 . S
H1236 C1269 0.932 . S
H1237 C1266 0.931 . S
H1238 C1268 0.929 . S
H1239 C1271 0.929 . S
H1240 C1272 0.930 . S
H1241 C1274 0.929 . S
H1242 C1275 0.931 . S
H1243 C1277 0.930 . S
H1244 C1278 0.932 . S
H1245 C1280 0.931 . S
H1246 C1281 0.929 . S
H1247 C1283 0.929 . S
H1248 C1284 0.931 . S
H1249 C1286 0.929 . S
N1250 C1270 1.433 . S
N1250 C1276 1.435 . S
N1250 C1282 1.423 . S
H1251 C1287 0.932 . S
C1252 N1227 1.433 . S
C1252 C1253 1.363 . S
C1252 C1257 1.370 . S
C1253 H1226 0.929 . S
C1253 C1252 1.363 . S
C1253 C1254 1.385 . S
C1254 H1228 0.930 . S
C1254 C1253 1.385 . S
C1254 C1255 1.357 . S
C1255 C1254 1.357 . S
C1255 C1256 1.406 . S
C1256 H1230 0.929 . S
C1256 C1255 1.406 . S
C1256 C1257 1.391 . S
C1257 H1229 0.931 . S
C1257 C1252 1.370 . S
C1257 C1256 1.391 . S
C1258 N1227 1.435 . S
C1258 C1259 1.358 . S
C1258 C1263 1.371 . S
C1259 H1231 0.930 . S
C1259 C1258 1.358 . S
C1259 C1260 1.405 . S
C1260 H1232 0.932 . S
C1260 C1259 1.405 . S
C1260 C1261 1.383 . S
C1261 C1260 1.383 . S
C1261 C1262 1.393 . S
C1262 H1234 0.931 . S
C1262 C1261 1.393 . S
C1262 C1263 1.382 . S
C1263 H1233 0.929 . S
C1263 C1258 1.371 . S
C1263 C1262 1.382 . S
C1264 N1227 1.423 . S
C1264 C1265 1.362 . S
C1264 C1269 1.388 . S
C1265 H1235 0.929 . S
C1265 C1264 1.362 . S
C1265 C1266 1.376 . S
C1266 H1237 0.931 . S
C1266 C1265 1.376 . S
C1266 C1267 1.396 . S
C1267 C1266 1.396 . S
C1267 C1268 1.348 . S
C1267 C1285 1.472 . S
C1268 H1238 0.929 . S
C1268 C1267 1.348 . S
C1268 C1269 1.443 . S
C1269 H1236 0.932 . S
C1269 C1264 1.388 . S
C1269 C1268 1.443 . S
C1270 N1250 1.433 . S
C1270 C1271 1.363 . S
C1270 C1275 1.370 . S
C1271 H1239 0.929 . S
C1271 C1270 1.363 . S
C1271 C1272 1.385 . S
C1272 H1240 0.930 . S
C1272 C1271 1.385 . S
C1272 C1273 1.357 . S
C1273 C1272 1.357 . S
C1273 C1274 1.406 . S
C1274 H1241 0.929 . S
C1274 C1273 1.406 . S
C1274 C1275 1.391 . S
C1275 H1242 0.931 . S
C1275 C1270 1.370 . S
C1275 C1274 1.391 . S
C1276 N1250 1.435 . S
C1276 C1277 1.358 . S
C1276 C1281 1.371 . S
C1277 H1243 0.930 . S
C1277 C1276 1.358 . S
C1277 C1278 1.405 . S
C1278 H1244 0.932 . S
C1278 C1277 1.405 . S
C1278 C1279 1.383 . S
C1279 C1278 1.383 . S
C1279 C1280 1.393 . S
C1280 H1245 0.931 . S
C1280 C1279 1.393 . S
C1280 C1281 1.382 . S
C1281 H1246 0.929 . S
C1281 C1276 1.371 . S
C1281 C1280 1.382 . S
C1282 N1250 1.423 . S
C1282 C1283 1.362 . S
C1282 C1287 1.388 . S
C1283 H1247 0.929 . S
C1283 C1282 1.362 . S
C1283 C1284 1.376 . S
C1284 H1248 0.931 . S
C1284 C1283 1.376 . S
C1284 C1285 1.396 . S
C1285 C1267 1.472 . S
C1285 C1284 1.396 . S
C1285 C1286 1.348 . S
C1286 H1249 0.929 . S
C1286 C1285 1.348 . S
C1286 C1287 1.443 . S
C1287 H1251 0.932 . S
C1287 C1282 1.388 . S
C1287 C1286 1.443 . S
H1288 C1315 0.929 . S
N1289 C1314 1.433 . S
N1289 C1320 1.435 . S
N1289 C1326 1.423 . S
H1290 C1316 0.930 . S
H1291 C1319 0.931 . S
H1292 C1318 0.929 . S
H1293 C1321 0.930 . S
H1294 C1322 0.932 . S
H1295 C1325 0.929 . S
H1296 C1324 0.931 . S
H1297 C1327 0.929 . S
H1298 C1331 0.932 . S
H1299 C1328 0.931 . S
H1300 C1330 0.929 . S
H1301 C1333 0.929 . S
H1302 C1334 0.930 . S
H1303 C1336 0.929 . S
H1304 C1337 0.931 . S
H1305 C1339 0.930 . S
H1306 C1340 0.932 . S
H1307 C1342 0.931 . S
H1308 C1343 0.929 . S
H1309 C1345 0.929 . S
H1310 C1346 0.931 . S
H1311 C1348 0.929 . S
N1312 C1332 1.433 . S
N1312 C1338 1.435 . S
N1312 C1344 1.423 . S
H1313 C1349 0.932 . S
C1314 N1289 1.433 . S
C1314 C1315 1.363 . S
C1314 C1319 1.370 . S
C1315 H1288 0.929 . S
C1315 C1314 1.363 . S
C1315 C1316 1.385 . S
C1316 H1290 0.930 . S
C1316 C1315 1.385 . S
C1316 C1317 1.357 . S
C1317 C1316 1.357 . S
C1317 C1318 1.406 . S
C1318 H1292 0.929 . S
C1318 C1317 1.406 . S
C1318 C1319 1.391 . S
C1319 H1291 0.931 . S
C1319 C1314 1.370 . S
C1319 C1318 1.391 . S
C1320 N1289 1.435 . S
C1320 C1321 1.358 . S
C1320 C1325 1.371 . S
C1321 H1293 0.930 . S
C1321 C1320 1.358 . S
C1321 C1322 1.405 . S
C1322 H1294 0.932 . S
C1322 C1321 1.405 . S
C1322 C1323 1.383 . S
C1323 C1322 1.383 . S
C1323 C1324 1.393 . S
C1324 H1296 0.931 . S
C1324 C1323 1.393 . S
C1324 C1325 1.382 . S
C1325 H1295 0.929 . S
C1325 C1320 1.371 . S
C1325 C1324 1.382 . S
C1326 N1289 1.423 . S
C1326 C1327 1.362 . S
C1326 C1331 1.388 . S
C1327 H1297 0.929 . S
C1327 C1326 1.362 . S
C1327 C1328 1.376 . S
C1328 H1299 0.931 . S
C1328 C1327 1.376 . S
C1328 C1329 1.396 . S
C1329 C1328 1.396 . S
C1329 C1330 1.348 . S
C1329 C1347 1.472 . S
C1330 H1300 0.929 . S
C1330 C1329 1.348 . S
C1330 C1331 1.443 . S
C1331 H1298 0.932 . S
C1331 C1326 1.388 . S
C1331 C1330 1.443 . S
C1332 N1312 1.433 . S
C1332 C1333 1.363 . S
C1332 C1337 1.370 . S
C1333 H1301 0.929 . S
C1333 C1332 1.363 . S
C1333 C1334 1.385 . S
C1334 H1302 0.930 . S
C1334 C1333 1.385 . S
C1334 C1335 1.357 . S
C1335 C1334 1.357 . S
C1335 C1336 1.406 . S
C1336 H1303 0.929 . S
C1336 C1335 1.406 . S
C1336 C1337 1.391 . S
C1337 H1304 0.931 . S
C1337 C1332 1.370 . S
C1337 C1336 1.391 . S
C1338 N1312 1.435 . S
C1338 C1339 1.358 . S
C1338 C1343 1.371 . S
C1339 H1305 0.930 . S
C1339 C1338 1.358 . S
C1339 C1340 1.405 . S
C1340 H1306 0.932 . S
C1340 C1339 1.405 . S
C1340 C1341 1.383 . S
C1341 C1340 1.383 . S
C1341 C1342 1.393 . S
C1342 H1307 0.931 . S
C1342 C1341 1.393 . S
C1342 C1343 1.382 . S
C1343 H1308 0.929 . S
C1343 C1338 1.371 . S
C1343 C1342 1.382 . S
C1344 N1312 1.423 . S
C1344 C1345 1.362 . S
C1344 C1349 1.388 . S
C1345 H1309 0.929 . S
C1345 C1344 1.362 . S
C1345 C1346 1.376 . S
C1346 H1310 0.931 . S
C1346 C1345 1.376 . S
C1346 C1347 1.396 . S
C1347 C1329 1.472 . S
C1347 C1346 1.396 . S
C1347 C1348 1.348 . S
C1348 H1311 0.929 . S
C1348 C1347 1.348 . S
C1348 C1349 1.443 . S
C1349 H1313 0.932 . S
C1349 C1344 1.388 . S
C1349 C1348 1.443 . S
C1350 C1351 1.363 . S
C1350 C1356 1.379 . S
C1350 N1358 1.356 . S
C1351 C1350 1.363 . S
C1351 C1357 1.362 1_455 S
C1352 C1353 1.363 1_655 S
C1352 C1357 1.379 . S
C1352 N1359 1.355 . S
C1353 C1352 1.363 1_455 S
C1353 C1356 1.363 . S
N1354 C1356 1.356 . S
N1354 H1366 0.984 . S
N1354 H1367 0.985 . S
N1355 C1357 1.356 . S
N1355 H1360 0.984 . S
N1355 H1361 0.985 . S
C1356 C1350 1.379 . S
C1356 C1353 1.363 . S
C1356 N1354 1.356 . S
C1357 C1351 1.362 1_655 S
C1357 C1352 1.379 . S
C1357 N1355 1.356 . S
N1358 C1350 1.356 . S
N1358 H1364 0.984 . S
N1358 H1365 0.984 . S
N1359 C1352 1.355 . S
N1359 H1362 0.984 . S
N1359 H1363 0.985 . S
H1360 N1355 0.984 . S
H1361 N1355 0.985 . S
H1362 N1359 0.984 . S
H1363 N1359 0.985 . S
H1364 N1358 0.984 . S
H1365 N1358 0.984 . S
H1366 N1354 0.984 . S
H1367 N1354 0.985 . S
C1368 C1369 1.363 . S
C1368 C1374 1.379 . S
C1368 N1376 1.356 . S
C1369 C1368 1.363 . S
C1369 C1375 1.363 . S
C1370 C1371 1.363 . S
C1370 C1375 1.379 . S
C1370 N1377 1.356 . S
C1371 C1370 1.363 . S
C1371 C1374 1.363 . S
N1372 C1374 1.356 . S
N1372 H1384 0.984 . S
N1372 H1385 0.985 . S
N1373 C1375 1.356 . S
N1373 H1378 0.984 . S
N1373 H1379 0.985 . S
C1374 C1368 1.379 . S
C1374 C1371 1.363 . S
C1374 N1372 1.356 . S
C1375 C1369 1.363 . S
C1375 C1370 1.379 . S
C1375 N1373 1.356 . S
N1376 C1368 1.356 . S
N1376 H1382 0.984 . S
N1376 H1383 0.984 . S
N1377 C1370 1.356 . S
N1377 H1380 0.984 . S
N1377 H1381 0.985 . S
H1378 N1373 0.984 . S
H1379 N1373 0.985 . S
H1380 N1377 0.984 . S
H1381 N1377 0.985 . S
H1382 N1376 0.984 . S
H1383 N1376 0.984 . S
H1384 N1372 0.984 . S
H1385 N1372 0.985 . S
C1386 C1387 1.363 . S
C1386 C1392 1.379 . S
C1386 N1394 1.356 . S
C1387 C1386 1.363 . S
C1387 C1393 1.363 1_545 S
C1388 C1389 1.363 1_565 S
C1388 C1393 1.379 . S
C1388 N1395 1.356 . S
C1389 C1388 1.363 1_545 S
C1389 C1392 1.363 . S
N1390 C1392 1.356 . S
N1390 H1402 0.984 . S
N1390 H1403 0.985 . S
N1391 C1393 1.356 . S
N1391 H1396 0.984 . S
N1391 H1397 0.985 . S
C1392 C1386 1.379 . S
C1392 C1389 1.363 . S
C1392 N1390 1.356 . S
C1393 C1387 1.363 1_565 S
C1393 C1388 1.379 . S
C1393 N1391 1.356 . S
N1394 C1386 1.356 . S
N1394 H1400 0.984 . S
N1394 H1401 0.984 . S
N1395 C1388 1.356 . S
N1395 H1398 0.984 . S
N1395 H1399 0.985 . S
H1396 N1391 0.984 . S
H1397 N1391 0.985 . S
H1398 N1395 0.984 . S
H1399 N1395 0.985 . S
H1400 N1394 0.984 . S
H1401 N1394 0.984 . S
H1402 N1390 0.984 . S
H1403 N1390 0.985 . S
C1404 C1405 1.363 . S
C1404 C1410 1.379 . S
C1404 N1412 1.356 . S
C1405 C1404 1.363 . S
C1405 C1411 1.363 . S
C1406 C1407 1.363 . S
C1406 C1411 1.379 . S
C1406 N1413 1.356 1_545 S
C1407 C1406 1.363 . S
C1407 C1410 1.363 . S
N1408 C1410 1.356 . S
N1408 H1420 0.984 . S
N1408 H1421 0.985 . S
N1409 C1411 1.356 1_565 S
N1409 H1414 0.984 . S
N1409 H1415 0.985 . S
C1410 C1404 1.379 . S
C1410 C1407 1.363 . S
C1410 N1408 1.356 . S
C1411 C1405 1.363 . S
C1411 C1406 1.379 . S
C1411 N1409 1.356 1_545 S
N1412 C1404 1.356 . S
N1412 H1418 0.984 . S
N1412 H1419 0.984 . S
N1413 C1406 1.356 1_565 S
N1413 H1416 0.984 . S
N1413 H1417 0.985 . S
H1414 N1409 0.984 . S
H1415 N1409 0.985 . S
H1416 N1413 0.984 . S
H1417 N1413 0.985 . S
H1418 N1412 0.984 . S
H1419 N1412 0.984 . S
H1420 N1408 0.984 . S
H1421 N1408 0.985 . S
C1422 C1423 1.363 . S
C1422 C1428 1.379 . S
C1422 N1430 1.356 1_455 S
C1423 C1422 1.363 . S
C1423 C1429 1.363 . S
C1424 C1425 1.363 . S
C1424 C1429 1.379 . S
C1424 N1431 1.356 . S
C1425 C1424 1.363 . S
C1425 C1428 1.363 . S
N1426 C1428 1.356 1_655 S
N1426 H1438 0.984 . S
N1426 H1439 0.983 . S
N1427 C1429 1.356 . S
N1427 H1432 0.984 . S
N1427 H1433 0.985 . S
C1428 C1422 1.379 . S
C1428 C1425 1.363 . S
C1428 N1426 1.356 1_455 S
C1429 C1423 1.363 . S
C1429 C1424 1.379 . S
C1429 N1427 1.356 . S
N1430 C1422 1.356 1_655 S
N1430 H1436 0.984 . S
N1430 H1437 0.990 . S
N1431 C1424 1.356 . S
N1431 H1434 0.984 . S
N1431 H1435 0.985 . S
H1432 N1427 0.984 . S
H1433 N1427 0.985 . S
H1434 N1431 0.984 . S
H1435 N1431 0.985 . S
H1436 N1430 0.984 . S
H1437 N1430 0.990 . S
H1438 N1426 0.984 . S
H1439 N1426 0.983 . S
C1440 C1441 1.363 . S
C1440 C1446 1.379 . S
C1440 N1448 1.356 . S
C1441 C1440 1.363 . S
C1441 C1447 1.363 . S
C1442 C1443 1.363 . S
C1442 C1447 1.379 . S
C1442 N1449 1.356 . S
C1443 C1442 1.363 . S
C1443 C1446 1.363 . S
N1444 C1446 1.356 . S
N1444 H1456 0.984 . S
N1444 H1457 0.985 . S
N1445 C1447 1.356 . S
N1445 H1450 0.984 . S
N1445 H1451 0.985 . S
C1446 C1440 1.379 . S
C1446 C1443 1.363 . S
C1446 N1444 1.356 . S
C1447 C1441 1.363 . S
C1447 C1442 1.379 . S
C1447 N1445 1.356 . S
N1448 C1440 1.356 . S
N1448 H1454 0.984 . S
N1448 H1455 0.984 . S
N1449 C1442 1.356 . S
N1449 H1452 0.984 . S
N1449 H1453 0.985 . S
H1450 N1445 0.984 . S
H1451 N1445 0.985 . S
H1452 N1449 0.984 . S
H1453 N1449 0.985 . S
H1454 N1448 0.984 . S
H1455 N1448 0.984 . S
H1456 N1444 0.984 . S
H1457 N1444 0.985 . S
C1458 C1459 1.363 . S
C1458 C1464 1.379 . S
C1458 N1466 1.356 . S
C1459 C1458 1.363 . S
C1459 C1465 1.363 . S
C1460 C1461 1.363 . S
C1460 C1465 1.379 . S
C1460 N1467 1.356 . S
C1461 C1460 1.363 . S
C1461 C1464 1.363 . S
N1462 C1464 1.356 . S
N1462 H1474 1.000 . S
N1462 H1475 0.985 . S
N1463 C1465 1.356 . S
N1463 H1468 0.984 . S
N1463 H1469 0.985 . S
C1464 C1458 1.379 . S
C1464 C1461 1.363 . S
C1464 N1462 1.356 . S
C1465 C1459 1.363 . S
C1465 C1460 1.379 . S
C1465 N1463 1.356 . S
N1466 C1458 1.356 . S
N1466 H1472 0.999 . S
N1466 H1473 0.984 . S
N1467 C1460 1.356 . S
N1467 H1470 0.984 . S
N1467 H1471 0.985 . S
H1468 N1463 0.984 . S
H1469 N1463 0.985 . S
H1470 N1467 0.984 . S
H1471 N1467 0.985 . S
H1472 N1466 0.999 . S
H1473 N1466 0.984 . S
H1474 N1462 1.000 . S
H1475 N1462 0.985 . S
C1476 C1477 1.363 . S
C1476 C1482 1.379 . S
C1476 N1484 1.356 . S
C1477 C1476 1.363 . S
C1477 C1483 1.363 . S
C1478 C1479 1.363 . S
C1478 C1483 1.379 . S
C1478 N1485 1.356 . S
C1479 C1478 1.363 . S
C1479 C1482 1.363 . S
N1480 C1482 1.356 . S
N1480 H1492 0.984 . S
N1480 H1493 0.985 . S
N1481 C1483 1.356 . S
N1481 H1486 0.984 . S
N1481 H1487 0.985 . S
C1482 C1476 1.379 . S
C1482 C1479 1.363 . S
C1482 N1480 1.356 . S
C1483 C1477 1.363 . S
C1483 C1478 1.379 . S
C1483 N1481 1.356 . S
N1484 C1476 1.356 . S
N1484 H1490 0.984 . S
N1484 H1491 0.984 . S
N1485 C1478 1.356 . S
N1485 H1488 0.984 . S
N1485 H1489 0.985 . S
H1486 N1481 0.984 . S
H1487 N1481 0.985 . S
H1488 N1485 0.984 . S
H1489 N1485 0.985 . S
H1490 N1484 0.984 . S
H1491 N1484 0.984 . S
H1492 N1480 0.984 . S
H1493 N1480 0.985 . S
C1494 C1495 1.363 . S
C1494 C1500 1.379 . S
C1494 N1502 1.356 . S
C1495 C1494 1.363 . S
C1495 C1501 1.363 . S
C1496 C1497 1.363 . S
C1496 C1501 1.379 . S
C1496 N1503 1.356 1_545 S
C1497 C1496 1.363 . S
C1497 C1500 1.363 . S
N1498 C1500 1.356 . S
N1498 H1510 0.984 . S
N1498 H1511 0.985 . S
N1499 C1501 1.356 1_565 S
N1499 H1504 0.984 . S
N1499 H1505 0.985 . S
C1500 C1494 1.379 . S
C1500 C1497 1.363 . S
C1500 N1498 1.356 . S
C1501 C1495 1.363 . S
C1501 C1496 1.379 . S
C1501 N1499 1.356 1_545 S
N1502 C1494 1.356 . S
N1502 H1508 0.984 . S
N1502 H1509 0.984 . S
N1503 C1496 1.356 1_565 S
N1503 H1506 0.984 . S
N1503 H1507 0.985 . S
H1504 N1499 0.984 . S
H1505 N1499 0.985 . S
H1506 N1503 0.984 . S
H1507 N1503 0.985 . S
H1508 N1502 0.984 . S
H1509 N1502 0.984 . S
H1510 N1498 0.984 . S
H1511 N1498 0.985 . S
C1512 C1513 1.363 . S
C1512 C1518 1.379 . S
C1512 N1520 1.356 . S
C1513 C1512 1.363 . S
C1513 C1519 1.363 1_545 S
C1514 C1515 1.363 1_565 S
C1514 C1519 1.379 . S
C1514 N1521 1.356 . S
C1515 C1514 1.363 1_545 S
C1515 C1518 1.363 . S
N1516 C1518 1.356 . S
N1516 H1528 0.984 . S
N1516 H1529 0.985 . S
N1517 C1519 1.356 . S
N1517 H1522 0.984 . S
N1517 H1523 0.985 . S
C1518 C1512 1.379 . S
C1518 C1515 1.363 . S
C1518 N1516 1.356 . S
C1519 C1513 1.363 1_565 S
C1519 C1514 1.379 . S
C1519 N1517 1.356 . S
N1520 C1512 1.356 . S
N1520 H1526 0.984 . S
N1520 H1527 0.984 . S
N1521 C1514 1.356 . S
N1521 H1524 0.984 . S
N1521 H1525 0.985 . S
H1522 N1517 0.984 . S
H1523 N1517 0.985 . S
H1524 N1521 0.984 . S
H1525 N1521 0.985 . S
H1526 N1520 0.984 . S
H1527 N1520 0.984 . S
H1528 N1516 0.984 . S
H1529 N1516 0.985 . S
C1530 C1531 1.363 . S
C1530 C1536 1.379 . S
C1530 N1538 1.356 1_455 S
C1531 C1530 1.363 . S
C1531 C1537 1.363 . S
C1532 C1533 1.363 . S
C1532 C1537 1.379 . S
C1532 N1539 1.356 . S
C1533 C1532 1.363 . S
C1533 C1536 1.363 . S
N1534 C1536 1.356 1_655 S
N1534 H1546 0.984 . S
N1534 H1547 0.978 1_655 S
N1535 C1537 1.356 . S
N1535 H1540 0.984 . S
N1535 H1541 0.985 . S
C1536 C1530 1.379 . S
C1536 C1533 1.363 . S
C1536 N1534 1.356 1_455 S
C1537 C1531 1.363 . S
C1537 C1532 1.379 . S
C1537 N1535 1.356 . S
N1538 C1530 1.356 1_655 S
N1538 H1544 0.984 . S
N1538 H1545 0.988 1_655 S
N1539 C1532 1.356 . S
N1539 H1542 0.984 . S
N1539 H1543 0.985 . S
H1540 N1535 0.984 . S
H1541 N1535 0.985 . S
H1542 N1539 0.984 . S
H1543 N1539 0.985 . S
H1544 N1538 0.984 . S
H1545 N1538 0.988 1_455 S
H1546 N1534 0.984 . S
H1547 N1534 0.978 1_455 S
C1548 C1549 1.363 . S
C1548 C1554 1.379 . S
C1548 N1556 1.356 . S
C1549 C1548 1.363 . S
C1549 C1555 1.363 . S
C1550 C1551 1.363 . S
C1550 C1555 1.379 . S
C1550 N1557 1.356 . S
C1551 C1550 1.363 . S
C1551 C1554 1.363 . S
N1552 C1554 1.356 . S
N1552 H1564 0.984 . S
N1552 H1565 0.985 . S
N1553 C1555 1.356 . S
N1553 H1558 0.984 . S
N1553 H1559 0.985 . S
C1554 C1548 1.379 . S
C1554 C1551 1.363 . S
C1554 N1552 1.356 . S
C1555 C1549 1.363 . S
C1555 C1550 1.379 . S
C1555 N1553 1.356 . S
N1556 C1548 1.356 . S
N1556 H1562 0.984 . S
N1556 H1563 0.984 . S
N1557 C1550 1.356 . S
N1557 H1560 0.984 . S
N1557 H1561 0.985 . S
H1558 N1553 0.984 . S
H1559 N1553 0.985 . S
H1560 N1557 0.984 . S
H1561 N1557 0.985 . S
H1562 N1556 0.984 . S
H1563 N1556 0.984 . S
H1564 N1552 0.984 . S
H1565 N1552 0.985 . S
C1566 C1567 1.363 . S
C1566 C1572 1.379 . S
C1566 N1574 1.356 . S
C1567 C1566 1.363 . S
C1567 C1573 1.363 . S
C1568 C1569 1.363 . S
C1568 C1573 1.379 . S
C1568 N1575 1.356 . S
C1569 C1568 1.363 . S
C1569 C1572 1.363 . S
N1570 C1572 1.356 . S
N1570 H1582 0.984 . S
N1570 H1583 0.985 . S
N1571 C1573 1.356 . S
N1571 H1576 0.984 . S
N1571 H1577 0.985 . S
C1572 C1566 1.379 . S
C1572 C1569 1.363 . S
C1572 N1570 1.356 . S
C1573 C1567 1.363 . S
C1573 C1568 1.379 . S
C1573 N1571 1.356 . S
N1574 C1566 1.356 . S
N1574 H1580 0.984 . S
N1574 H1581 0.984 . S
N1575 C1568 1.356 . S
N1575 H1578 0.984 . S
N1575 H1579 0.985 . S
H1576 N1571 0.984 . S
H1577 N1571 0.985 . S
H1578 N1575 0.984 . S
H1579 N1575 0.985 . S
H1580 N1574 0.984 . S
H1581 N1574 0.984 . S
H1582 N1570 0.984 . S
H1583 N1570 0.985 . S
C1584 C1585 1.363 . S
C1584 C1590 1.379 . S
C1584 N1592 1.356 . S
C1585 C1584 1.363 . S
C1585 C1591 1.363 . S
C1586 C1587 1.363 . S
C1586 C1591 1.379 . S
C1586 N1593 1.356 . S
C1587 C1586 1.363 . S
C1587 C1590 1.363 . S
N1588 C1590 1.356 . S
N1588 H1600 0.984 . S
N1588 H1601 0.985 . S
N1589 C1591 1.356 . S
N1589 H1594 0.984 . S
N1589 H1595 0.985 . S
C1590 C1584 1.379 . S
C1590 C1587 1.363 . S
C1590 N1588 1.356 . S
C1591 C1585 1.363 . S
C1591 C1586 1.379 . S
C1591 N1589 1.356 . S
N1592 C1584 1.356 . S
N1592 H1598 0.984 . S
N1592 H1599 0.984 . S
N1593 C1586 1.356 . S
N1593 H1596 0.984 . S
N1593 H1597 0.985 . S
H1594 N1589 0.984 . S
H1595 N1589 0.985 . S
H1596 N1593 0.984 . S
H1597 N1593 0.985 . S
H1598 N1592 0.984 . S
H1599 N1592 0.984 . S
H1600 N1588 0.984 . S
H1601 N1588 0.985 . S
C1602 C1603 1.363 . S
C1602 C1608 1.379 . S
C1602 N1610 1.356 . S
C1603 C1602 1.363 . S
C1603 C1609 1.363 . S
C1604 C1605 1.363 . S
C1604 C1609 1.379 . S
C1604 N1611 1.356 . S
C1605 C1604 1.363 . S
C1605 C1608 1.363 . S
N1606 C1608 1.356 . S
N1606 H1618 0.984 . S
N1606 H1619 0.985 . S
N1607 C1609 1.356 . S
N1607 H1612 0.984 . S
N1607 H1613 0.985 . S
C1608 C1602 1.379 . S
C1608 C1605 1.363 . S
C1608 N1606 1.356 . S
C1609 C1603 1.363 . S
C1609 C1604 1.379 . S
C1609 N1607 1.356 . S
N1610 C1602 1.356 . S
N1610 H1616 0.984 . S
N1610 H1617 0.984 . S
N1611 C1604 1.356 . S
N1611 H1614 0.984 . S
N1611 H1615 0.985 . S
H1612 N1607 0.984 . S
H1613 N1607 0.985 . S
H1614 N1611 0.984 . S
H1615 N1611 0.985 . S
H1616 N1610 0.984 . S
H1617 N1610 0.984 . S
H1618 N1606 0.984 . S
H1619 N1606 0.985 . S
C1620 C1621 1.363 . S
C1620 C1626 1.379 . S
C1620 N1628 1.356 . S
C1621 C1620 1.363 . S
C1621 C1627 1.363 . S
C1622 C1623 1.363 . S
C1622 C1627 1.379 . S
C1622 N1629 1.356 . S
C1623 C1622 1.363 . S
C1623 C1626 1.363 . S
N1624 C1626 1.356 . S
N1624 H1636 0.984 . S
N1624 H1637 0.985 . S
N1625 C1627 1.356 . S
N1625 H1630 0.984 . S
N1625 H1631 0.985 . S
C1626 C1620 1.379 . S
C1626 C1623 1.363 . S
C1626 N1624 1.356 . S
C1627 C1621 1.363 . S
C1627 C1622 1.379 . S
C1627 N1625 1.356 . S
N1628 C1620 1.356 . S
N1628 H1634 0.984 . S
N1628 H1635 0.984 . S
N1629 C1622 1.356 . S
N1629 H1632 0.984 . S
N1629 H1633 0.985 . S
H1630 N1625 0.984 . S
H1631 N1625 0.985 . S
H1632 N1629 0.984 . S
H1633 N1629 0.985 . S
H1634 N1628 0.984 . S
H1635 N1628 0.984 . S
H1636 N1624 0.984 . S
H1637 N1624 0.985 . S
C1638 C1639 1.363 . S
C1638 C1644 1.379 . S
C1638 N1646 1.356 . S
C1639 C1638 1.363 . S
C1639 C1645 1.363 . S
C1640 C1641 1.363 . S
C1640 C1645 1.379 . S
C1640 N1647 1.356 . S
C1641 C1640 1.363 . S
C1641 C1644 1.363 . S
N1642 C1644 1.356 . S
N1642 H1654 0.984 . S
N1642 H1655 0.985 . S
N1643 C1645 1.356 . S
N1643 H1648 0.984 . S
N1643 H1649 0.985 . S
C1644 C1638 1.379 . S
C1644 C1641 1.363 . S
C1644 N1642 1.356 . S
C1645 C1639 1.363 . S
C1645 C1640 1.379 . S
C1645 N1643 1.356 . S
N1646 C1638 1.356 . S
N1646 H1652 0.984 . S
N1646 H1653 0.984 . S
N1647 C1640 1.356 . S
N1647 H1650 0.984 . S
N1647 H1651 0.985 . S
H1648 N1643 0.984 . S
H1649 N1643 0.985 . S
H1650 N1647 0.984 . S
H1651 N1647 0.985 . S
H1652 N1646 0.984 . S
H1653 N1646 0.984 . S
H1654 N1642 0.984 . S
H1655 N1642 0.985 . S
C1656 C1657 1.363 . S
C1656 C1662 1.379 . S
C1656 N1664 1.356 . S
C1657 C1656 1.363 . S
C1657 C1663 1.363 . S
C1658 C1659 1.363 . S
C1658 C1663 1.379 . S
C1658 N1665 1.356 . S
C1659 C1658 1.363 . S
C1659 C1662 1.363 . S
N1660 C1662 1.356 . S
N1660 H1672 0.984 . S
N1660 H1673 0.985 . S
N1661 C1663 1.356 . S
N1661 H1666 0.984 . S
N1661 H1667 0.985 . S
C1662 C1656 1.379 . S
C1662 C1659 1.363 . S
C1662 N1660 1.356 . S
C1663 C1657 1.363 . S
C1663 C1658 1.379 . S
C1663 N1661 1.356 . S
N1664 C1656 1.356 . S
N1664 H1670 0.984 . S
N1664 H1671 0.984 . S
N1665 C1658 1.356 . S
N1665 H1668 0.984 . S
N1665 H1669 0.985 . S
H1666 N1661 0.984 . S
H1667 N1661 0.985 . S
H1668 N1665 0.984 . S
H1669 N1665 0.985 . S
H1670 N1664 0.984 . S
H1671 N1664 0.984 . S
H1672 N1660 0.984 . S
H1673 N1660 0.985 . S
C1674 C1675 1.363 . S
C1674 C1680 1.379 . S
C1674 N1682 1.356 . S
C1675 C1674 1.363 . S
C1675 C1681 1.363 . S
C1676 C1677 1.363 . S
C1676 C1681 1.379 . S
C1676 N1683 1.356 . S
C1677 C1676 1.363 . S
C1677 C1680 1.363 . S
N1678 C1680 1.356 . S
N1678 H1690 0.984 . S
N1678 H1691 0.985 . S
N1679 C1681 1.356 . S
N1679 H1684 0.984 . S
N1679 H1685 0.985 . S
C1680 C1674 1.379 . S
C1680 C1677 1.363 . S
C1680 N1678 1.356 . S
C1681 C1675 1.363 . S
C1681 C1676 1.379 . S
C1681 N1679 1.356 . S
N1682 C1674 1.356 . S
N1682 H1688 0.984 . S
N1682 H1689 0.984 . S
N1683 C1676 1.356 . S
N1683 H1686 0.984 . S
N1683 H1687 0.985 . S
H1684 N1679 0.984 . S
H1685 N1679 0.985 . S
H1686 N1683 0.984 . S
H1687 N1683 0.985 . S
H1688 N1682 0.984 . S
H1689 N1682 0.984 . S
H1690 N1678 0.984 . S
H1691 N1678 0.985 . S
C1692 C1693 1.363 . S
C1692 C1698 1.379 . S
C1692 N1700 1.356 . S
C1693 C1692 1.363 . S
C1693 C1699 1.363 . S
C1694 C1695 1.363 . S
C1694 C1699 1.379 . S
C1694 N1701 1.356 . S
C1695 C1694 1.363 . S
C1695 C1698 1.363 . S
N1696 C1698 1.356 . S
N1696 H1708 0.984 . S
N1696 H1709 0.985 . S
N1697 C1699 1.356 . S
N1697 H1702 0.984 . S
N1697 H1703 0.985 . S
C1698 C1692 1.379 . S
C1698 C1695 1.363 . S
C1698 N1696 1.356 . S
C1699 C1693 1.363 . S
C1699 C1694 1.379 . S
C1699 N1697 1.356 . S
N1700 C1692 1.356 . S
N1700 H1706 0.984 . S
N1700 H1707 0.984 . S
N1701 C1694 1.356 . S
N1701 H1704 0.984 . S
N1701 H1705 0.985 . S
H1702 N1697 0.984 . S
H1703 N1697 0.985 . S
H1704 N1701 0.984 . S
H1705 N1701 0.985 . S
H1706 N1700 0.984 . S
H1707 N1700 0.984 . S
H1708 N1696 0.984 . S
H1709 N1696 0.985 . S
C1710 C1711 1.363 . S
C1710 C1716 1.379 . S
C1710 N1718 1.356 . S
C1711 C1710 1.363 . S
C1711 C1717 1.363 . S
C1712 C1713 1.363 . S
C1712 C1717 1.379 . S
C1712 N1719 1.356 . S
C1713 C1712 1.363 . S
C1713 C1716 1.363 . S
N1714 C1716 1.356 . S
N1714 H1726 0.984 . S
N1714 H1727 0.985 . S
N1715 C1717 1.356 . S
N1715 H1720 0.984 . S
N1715 H1721 0.985 . S
C1716 C1710 1.379 . S
C1716 C1713 1.363 . S
C1716 N1714 1.356 . S
C1717 C1711 1.363 . S
C1717 C1712 1.379 . S
C1717 N1715 1.356 . S
N1718 C1710 1.356 . S
N1718 H1724 0.984 . S
N1718 H1725 0.984 . S
N1719 C1712 1.356 . S
N1719 H1722 0.984 . S
N1719 H1723 0.985 . S
H1720 N1715 0.984 . S
H1721 N1715 0.985 . S
H1722 N1719 0.984 . S
H1723 N1719 0.985 . S
H1724 N1718 0.984 . S
H1725 N1718 0.984 . S
H1726 N1714 0.984 . S
H1727 N1714 0.985 . S
C1728 C1729 1.363 . S
C1728 C1734 1.379 . S
C1728 N1736 1.356 . S
C1729 C1728 1.363 . S
C1729 C1735 1.363 . S
C1730 C1731 1.363 . S
C1730 C1735 1.379 . S
C1730 N1737 1.356 . S
C1731 C1730 1.363 . S
C1731 C1734 1.363 . S
N1732 C1734 1.356 . S
N1732 H1744 0.984 . S
N1732 H1745 0.985 . S
N1733 C1735 1.356 . S
N1733 H1738 0.984 . S
N1733 H1739 0.985 . S
C1734 C1728 1.379 . S
C1734 C1731 1.363 . S
C1734 N1732 1.356 . S
C1735 C1729 1.363 . S
C1735 C1730 1.379 . S
C1735 N1733 1.356 . S
N1736 C1728 1.356 . S
N1736 H1742 0.984 . S
N1736 H1743 0.984 . S
N1737 C1730 1.356 . S
N1737 H1740 0.984 . S
N1737 H1741 0.985 . S
H1738 N1733 0.984 . S
H1739 N1733 0.985 . S
H1740 N1737 0.984 . S
H1741 N1737 0.985 . S
H1742 N1736 0.984 . S
H1743 N1736 0.984 . S
H1744 N1732 0.984 . S
H1745 N1732 0.985 . S
C1746 C1747 1.363 . S
C1746 C1752 1.379 . S
C1746 N1754 1.356 . S
C1747 C1746 1.363 . S
C1747 C1753 1.363 . S
C1748 C1749 1.363 . S
C1748 C1753 1.379 . S
C1748 N1755 1.356 . S
C1749 C1748 1.363 . S
C1749 C1752 1.363 . S
N1750 C1752 1.356 . S
N1750 H1762 0.984 . S
N1750 H1763 0.985 . S
N1751 C1753 1.356 . S
N1751 H1756 0.984 . S
N1751 H1757 0.985 . S
C1752 C1746 1.379 . S
C1752 C1749 1.363 . S
C1752 N1750 1.356 . S
C1753 C1747 1.363 . S
C1753 C1748 1.379 . S
C1753 N1751 1.356 . S
N1754 C1746 1.356 . S
N1754 H1760 0.984 . S
N1754 H1761 0.984 . S
N1755 C1748 1.356 . S
N1755 H1758 0.984 . S
N1755 H1759 0.985 . S
H1756 N1751 0.984 . S
H1757 N1751 0.985 . S
H1758 N1755 0.984 . S
H1759 N1755 0.985 . S
H1760 N1754 0.984 . S
H1761 N1754 0.984 . S
H1762 N1750 0.984 . S
H1763 N1750 0.985 . S
C1764 C1765 1.363 . S
C1764 C1770 1.379 . S
C1764 N1772 1.356 . S
C1765 C1764 1.363 . S
C1765 C1771 1.363 . S
C1766 C1767 1.363 . S
C1766 C1771 1.379 . S
C1766 N1773 1.356 . S
C1767 C1766 1.363 . S
C1767 C1770 1.363 . S
N1768 C1770 1.356 . S
N1768 H1780 0.984 . S
N1768 H1781 0.985 . S
N1769 C1771 1.356 . S
N1769 H1774 0.984 . S
N1769 H1775 0.985 . S
C1770 C1764 1.379 . S
C1770 C1767 1.363 . S
C1770 N1768 1.356 . S
C1771 C1765 1.363 . S
C1771 C1766 1.379 . S
C1771 N1769 1.356 . S
N1772 C1764 1.356 . S
N1772 H1778 0.984 . S
N1772 H1779 0.984 . S
N1773 C1766 1.356 . S
N1773 H1776 0.984 . S
N1773 H1777 0.985 . S
H1774 N1769 0.984 . S
H1775 N1769 0.985 . S
H1776 N1773 0.984 . S
H1777 N1773 0.985 . S
H1778 N1772 0.984 . S
H1779 N1772 0.984 . S
H1780 N1768 0.984 . S
H1781 N1768 0.985 . S
C1782 C1783 1.363 . S
C1782 C1788 1.379 . S
C1782 N1790 1.356 . S
C1783 C1782 1.363 . S
C1783 C1789 1.363 . S
C1784 C1785 1.363 . S
C1784 C1789 1.379 . S
C1784 N1791 1.356 . S
C1785 C1784 1.363 . S
C1785 C1788 1.363 . S
N1786 C1788 1.356 . S
N1786 H1798 0.984 . S
N1786 H1799 0.985 . S
N1787 C1789 1.356 . S
N1787 H1792 0.984 . S
N1787 H1793 0.985 . S
C1788 C1782 1.379 . S
C1788 C1785 1.363 . S
C1788 N1786 1.356 . S
C1789 C1783 1.363 . S
C1789 C1784 1.379 . S
C1789 N1787 1.356 . S
N1790 C1782 1.356 . S
N1790 H1796 0.984 . S
N1790 H1797 0.984 . S
N1791 C1784 1.356 . S
N1791 H1794 0.984 . S
N1791 H1795 0.985 . S
H1792 N1787 0.984 . S
H1793 N1787 0.985 . S
H1794 N1791 0.984 . S
H1795 N1791 0.985 . S
H1796 N1790 0.984 . S
H1797 N1790 0.984 . S
H1798 N1786 0.984 . S
H1799 N1786 0.985 . S
C1800 C1801 1.363 . S
C1800 C1806 1.379 . S
C1800 N1808 1.356 . S
C1801 C1800 1.363 . S
C1801 C1807 1.363 . S
C1802 C1803 1.363 . S
C1802 C1807 1.379 . S
C1802 N1809 1.356 . S
C1803 C1802 1.363 . S
C1803 C1806 1.363 . S
N1804 C1806 1.356 . S
N1804 H1816 0.984 . S
N1804 H1817 0.985 . S
N1805 C1807 1.356 . S
N1805 H1810 0.984 . S
N1805 H1811 0.985 . S
C1806 C1800 1.379 . S
C1806 C1803 1.363 . S
C1806 N1804 1.356 . S
C1807 C1801 1.363 . S
C1807 C1802 1.379 . S
C1807 N1805 1.356 . S
N1808 C1800 1.356 . S
N1808 H1814 0.984 . S
N1808 H1815 0.984 . S
N1809 C1802 1.356 . S
N1809 H1812 0.984 . S
N1809 H1813 0.985 . S
H1810 N1805 0.984 . S
H1811 N1805 0.985 . S
H1812 N1809 0.984 . S
H1813 N1809 0.985 . S
H1814 N1808 0.984 . S
H1815 N1808 0.984 . S
H1816 N1804 0.984 . S
H1817 N1804 0.985 . S
C1818 C1819 1.363 . S
C1818 C1824 1.379 . S
C1818 N1826 1.356 . S
C1819 C1818 1.363 . S
C1819 C1825 1.363 . S
C1820 C1821 1.363 . S
C1820 C1825 1.379 . S
C1820 N1827 1.356 . S
C1821 C1820 1.363 . S
C1821 C1824 1.363 . S
N1822 C1824 1.356 . S
N1822 H1834 0.984 . S
N1822 H1835 0.985 . S
N1823 C1825 1.356 . S
N1823 H1828 0.984 . S
N1823 H1829 0.985 . S
C1824 C1818 1.379 . S
C1824 C1821 1.363 . S
C1824 N1822 1.356 . S
C1825 C1819 1.363 . S
C1825 C1820 1.379 . S
C1825 N1823 1.356 . S
N1826 C1818 1.356 . S
N1826 H1832 0.984 . S
N1826 H1833 0.984 . S
N1827 C1820 1.356 . S
N1827 H1830 0.984 . S
N1827 H1831 0.985 . S
H1828 N1823 0.984 . S
H1829 N1823 0.985 . S
H1830 N1827 0.984 . S
H1831 N1827 0.985 . S
H1832 N1826 0.984 . S
H1833 N1826 0.984 . S
H1834 N1822 0.984 . S
H1835 N1822 0.985 . S
C1836 C1837 1.363 . S
C1836 C1842 1.379 . S
C1836 N1844 1.356 . S
C1837 C1836 1.363 . S
C1837 C1843 1.363 . S
C1838 C1839 1.363 . S
C1838 C1843 1.379 . S
C1838 N1845 1.356 . S
C1839 C1838 1.363 . S
C1839 C1842 1.363 . S
N1840 C1842 1.356 . S
N1840 H1852 0.984 . S
N1840 H1853 0.985 . S
N1841 C1843 1.356 . S
N1841 H1846 0.984 . S
N1841 H1847 0.985 . S
C1842 C1836 1.379 . S
C1842 C1839 1.363 . S
C1842 N1840 1.356 . S
C1843 C1837 1.363 . S
C1843 C1838 1.379 . S
C1843 N1841 1.356 . S
N1844 C1836 1.356 . S
N1844 H1850 0.984 . S
N1844 H1851 0.984 . S
N1845 C1838 1.356 . S
N1845 H1848 0.984 . S
N1845 H1849 0.985 . S
H1846 N1841 0.984 . S
H1847 N1841 0.985 . S
H1848 N1845 0.984 . S
H1849 N1845 0.985 . S
H1850 N1844 0.984 . S
H1851 N1844 0.984 . S
H1852 N1840 0.984 . S
H1853 N1840 0.985 . S
C1854 C1855 1.363 . S
C1854 C1860 1.379 . S
C1854 N1862 1.356 . S
C1855 C1854 1.363 . S
C1855 C1861 1.363 . S
C1856 C1857 1.363 . S
C1856 C1861 1.379 . S
C1856 N1863 1.356 . S
C1857 C1856 1.363 . S
C1857 C1860 1.363 . S
N1858 C1860 1.356 . S
N1858 H1870 0.984 . S
N1858 H1871 0.985 . S
N1859 C1861 1.356 . S
N1859 H1864 0.984 . S
N1859 H1865 0.985 . S
C1860 C1854 1.379 . S
C1860 C1857 1.363 . S
C1860 N1858 1.356 . S
C1861 C1855 1.363 . S
C1861 C1856 1.379 . S
C1861 N1859 1.356 . S
N1862 C1854 1.356 . S
N1862 H1868 0.984 . S
N1862 H1869 0.984 . S
N1863 C1856 1.356 . S
N1863 H1866 0.984 . S
N1863 H1867 0.985 . S
H1864 N1859 0.984 . S
H1865 N1859 0.985 . S
H1866 N1863 0.984 . S
H1867 N1863 0.985 . S
H1868 N1862 0.984 . S
H1869 N1862 0.984 . S
H1870 N1858 0.984 . S
H1871 N1858 0.985 . S
C1872 C1873 1.363 . S
C1872 C1878 1.379 . S
C1872 N1880 1.356 . S
C1873 C1872 1.363 . S
C1873 C1879 1.363 . S
C1874 C1875 1.363 . S
C1874 C1879 1.379 . S
C1874 N1881 1.356 . S
C1875 C1874 1.363 . S
C1875 C1878 1.363 . S
N1876 C1878 1.356 . S
N1876 H1888 0.984 . S
N1876 H1889 0.985 . S
N1877 C1879 1.356 . S
N1877 H1882 0.984 . S
N1877 H1883 0.985 . S
C1878 C1872 1.379 . S
C1878 C1875 1.363 . S
C1878 N1876 1.356 . S
C1879 C1873 1.363 . S
C1879 C1874 1.379 . S
C1879 N1877 1.356 . S
N1880 C1872 1.356 . S
N1880 H1886 0.984 . S
N1880 H1887 0.984 . S
N1881 C1874 1.356 . S
N1881 H1884 0.984 . S
N1881 H1885 0.985 . S
H1882 N1877 0.984 . S
H1883 N1877 0.985 . S
H1884 N1881 0.984 . S
H1885 N1881 0.985 . S
H1886 N1880 0.984 . S
H1887 N1880 0.984 . S
H1888 N1876 0.984 . S
H1889 N1876 0.985 . S
C1890 C1891 1.363 . S
C1890 C1896 1.379 . S
C1890 N1898 1.356 . S
C1891 C1890 1.363 . S
C1891 C1897 1.363 . S
C1892 C1893 1.363 . S
C1892 C1897 1.379 . S
C1892 N1899 1.356 . S
C1893 C1892 1.363 . S
C1893 C1896 1.363 . S
N1894 C1896 1.356 . S
N1894 H1906 0.984 . S
N1894 H1907 0.985 . S
N1895 C1897 1.356 . S
N1895 H1900 0.984 . S
N1895 H1901 0.985 . S
C1896 C1890 1.379 . S
C1896 C1893 1.363 . S
C1896 N1894 1.356 . S
C1897 C1891 1.363 . S
C1897 C1892 1.379 . S
C1897 N1895 1.356 . S
N1898 C1890 1.356 . S
N1898 H1904 0.984 . S
N1898 H1905 0.984 . S
N1899 C1892 1.356 . S
N1899 H1902 0.984 . S
N1899 H1903 0.985 . S
H1900 N1895 0.984 . S
H1901 N1895 0.985 . S
H1902 N1899 0.984 . S
H1903 N1899 0.985 . S
H1904 N1898 0.984 . S
H1905 N1898 0.984 . S
H1906 N1894 0.984 . S
H1907 N1894 0.985 . S
C1908 C1909 1.363 . S
C1908 C1914 1.379 . S
C1908 N1916 1.356 . S
C1909 C1908 1.363 . S
C1909 C1915 1.363 . S
C1910 C1911 1.363 . S
C1910 C1915 1.379 . S
C1910 N1917 1.356 . S
C1911 C1910 1.363 . S
C1911 C1914 1.363 . S
N1912 C1914 1.356 . S
N1912 H1924 0.984 . S
N1912 H1925 0.985 . S
N1913 C1915 1.356 . S
N1913 H1918 0.984 . S
N1913 H1919 0.985 . S
C1914 C1908 1.379 . S
C1914 C1911 1.363 . S
C1914 N1912 1.356 . S
C1915 C1909 1.363 . S
C1915 C1910 1.379 . S
C1915 N1913 1.356 . S
N1916 C1908 1.356 . S
N1916 H1922 0.984 . S
N1916 H1923 0.984 . S
N1917 C1910 1.356 . S
N1917 H1920 0.984 . S
N1917 H1921 0.985 . S
H1918 N1913 0.984 . S
H1919 N1913 0.985 . S
H1920 N1917 0.984 . S
H1921 N1917 0.985 . S
H1922 N1916 0.984 . S
H1923 N1916 0.984 . S
H1924 N1912 0.984 . S
H1925 N1912 0.985 . S
C1926 C1927 1.363 . S
C1926 C1932 1.379 . S
C1926 N1934 1.356 . S
C1927 C1926 1.363 . S
C1927 C1933 1.363 . S
C1928 C1929 1.363 . S
C1928 C1933 1.379 . S
C1928 N1935 1.356 . S
C1929 C1928 1.363 . S
C1929 C1932 1.363 . S
N1930 C1932 1.356 . S
N1930 H1942 0.984 . S
N1930 H1943 0.985 . S
N1931 C1933 1.356 . S
N1931 H1936 0.984 . S
N1931 H1937 0.985 . S
C1932 C1926 1.379 . S
C1932 C1929 1.363 . S
C1932 N1930 1.356 . S
C1933 C1927 1.363 . S
C1933 C1928 1.379 . S
C1933 N1931 1.356 . S
N1934 C1926 1.356 . S
N1934 H1940 0.984 . S
N1934 H1941 0.984 . S
N1935 C1928 1.356 . S
N1935 H1938 0.984 . S
N1935 H1939 0.985 . S
H1936 N1931 0.984 . S
H1937 N1931 0.985 . S
H1938 N1935 0.984 . S
H1939 N1935 0.985 . S
H1940 N1934 0.984 . S
H1941 N1934 0.984 . S
H1942 N1930 0.984 . S
H1943 N1930 0.985 . S
C1944 C1945 1.363 . S
C1944 C1950 1.379 . S
C1944 N1952 1.356 . S
C1945 C1944 1.363 . S
C1945 C1951 1.363 . S
C1946 C1947 1.363 . S
C1946 C1951 1.379 . S
C1946 N1953 1.356 . S
C1947 C1946 1.363 . S
C1947 C1950 1.363 . S
N1948 C1950 1.356 . S
N1948 H1960 0.984 . S
N1948 H1961 0.985 . S
N1949 C1951 1.356 . S
N1949 H1954 0.984 . S
N1949 H1955 0.985 . S
C1950 C1944 1.379 . S
C1950 C1947 1.363 . S
C1950 N1948 1.356 . S
C1951 C1945 1.363 . S
C1951 C1946 1.379 . S
C1951 N1949 1.356 . S
N1952 C1944 1.356 . S
N1952 H1958 0.984 . S
N1952 H1959 0.984 . S
N1953 C1946 1.356 . S
N1953 H1956 0.984 . S
N1953 H1957 0.985 . S
H1954 N1949 0.984 . S
H1955 N1949 0.985 . S
H1956 N1953 0.984 . S
H1957 N1953 0.985 . S
H1958 N1952 0.984 . S
H1959 N1952 0.984 . S
H1960 N1948 0.984 . S
H1961 N1948 0.985 . S
C1962 C1963 1.363 . S
C1962 C1968 1.379 . S
C1962 N1970 1.356 . S
C1963 C1962 1.363 . S
C1963 C1969 1.363 . S
C1964 C1965 1.363 . S
C1964 C1969 1.379 . S
C1964 N1971 1.356 . S
C1965 C1964 1.363 . S
C1965 C1968 1.363 . S
N1966 C1968 1.356 . S
N1966 H1978 0.984 . S
N1966 H1979 0.985 . S
N1967 C1969 1.356 . S
N1967 H1972 0.984 . S
N1967 H1973 0.985 . S
C1968 C1962 1.379 . S
C1968 C1965 1.363 . S
C1968 N1966 1.356 . S
C1969 C1963 1.363 . S
C1969 C1964 1.379 . S
C1969 N1967 1.356 . S
N1970 C1962 1.356 . S
N1970 H1976 0.984 . S
N1970 H1977 0.984 . S
N1971 C1964 1.356 . S
N1971 H1974 0.984 . S
N1971 H1975 0.985 . S
H1972 N1967 0.984 . S
H1973 N1967 0.985 . S
H1974 N1971 0.984 . S
H1975 N1971 0.985 . S
H1976 N1970 0.984 . S
H1977 N1970 0.984 . S
H1978 N1966 0.984 . S
H1979 N1966 0.985 . S
C1980 C1981 1.363 . S
C1980 C1986 1.379 . S
C1980 N1988 1.356 . S
C1981 C1980 1.363 . S
C1981 C1987 1.363 . S
C1982 C1983 1.363 . S
C1982 C1987 1.379 . S
C1982 N1989 1.356 . S
C1983 C1982 1.363 . S
C1983 C1986 1.363 . S
N1984 C1986 1.356 . S
N1984 H1996 0.984 . S
N1984 H1997 0.985 . S
N1985 C1987 1.356 . S
N1985 H1990 0.984 . S
N1985 H1991 0.985 . S
C1986 C1980 1.379 . S
C1986 C1983 1.363 . S
C1986 N1984 1.356 . S
C1987 C1981 1.363 . S
C1987 C1982 1.379 . S
C1987 N1985 1.356 . S
N1988 C1980 1.356 . S
N1988 H1994 0.984 . S
N1988 H1995 0.984 . S
N1989 C1982 1.356 . S
N1989 H1992 0.984 . S
N1989 H1993 0.985 . S
H1990 N1985 0.984 . S
H1991 N1985 0.985 . S
H1992 N1989 0.984 . S
H1993 N1989 0.985 . S
H1994 N1988 0.984 . S
H1995 N1988 0.984 . S
H1996 N1984 0.984 . S
H1997 N1984 0.985 . S
C1998 C1999 1.363 . S
C1998 C2004 1.379 . S
C1998 N2006 1.356 . S
C1999 C1998 1.363 . S
C1999 C2005 1.363 . S
C2000 C2001 1.363 . S
C2000 C2005 1.379 . S
C2000 N2007 1.356 . S
C2001 C2000 1.363 . S
C2001 C2004 1.363 . S
N2002 C2004 1.356 . S
N2002 H2014 0.984 . S
N2002 H2015 0.985 . S
N2003 C2005 1.356 . S
N2003 H2008 0.984 . S
N2003 H2009 0.985 1_554 S
C2004 C1998 1.379 . S
C2004 C2001 1.363 . S
C2004 N2002 1.356 . S
C2005 C1999 1.363 . S
C2005 C2000 1.379 . S
C2005 N2003 1.356 . S
N2006 C1998 1.356 . S
N2006 H2012 0.984 . S
N2006 H2013 0.984 . S
N2007 C2000 1.356 . S
N2007 H2010 0.984 . S
N2007 H2011 0.985 . S
H2008 N2003 0.984 . S
H2009 N2003 0.985 1_556 S
H2010 N2007 0.984 . S
H2011 N2007 0.985 . S
H2012 N2006 0.984 . S
H2013 N2006 0.984 . S
H2014 N2002 0.984 . S
H2015 N2002 0.985 . S
C2016 C2017 1.363 . S
C2016 C2022 1.379 . S
C2016 N2024 1.356 . S
C2017 C2016 1.363 . S
C2017 C2023 1.363 . S
C2018 C2019 1.363 . S
C2018 C2023 1.379 . S
C2018 N2025 1.356 . S
C2019 C2018 1.363 . S
C2019 C2022 1.363 . S
N2020 C2022 1.356 . S
N2020 H2032 0.984 . S
N2020 H2033 0.985 . S
N2021 C2023 1.356 . S
N2021 H2026 0.984 . S
N2021 H2027 0.985 . S
C2022 C2016 1.379 . S
C2022 C2019 1.363 . S
C2022 N2020 1.356 . S
C2023 C2017 1.363 . S
C2023 C2018 1.379 . S
C2023 N2021 1.356 . S
N2024 C2016 1.356 . S
N2024 H2030 0.984 . S
N2024 H2031 0.984 . S
N2025 C2018 1.356 . S
N2025 H2028 0.984 . S
N2025 H2029 0.985 . S
H2026 N2021 0.984 . S
H2027 N2021 0.985 . S
H2028 N2025 0.984 . S
H2029 N2025 0.985 . S
H2030 N2024 0.984 . S
H2031 N2024 0.984 . S
H2032 N2020 0.984 . S
H2033 N2020 0.985 . S
C2034 C2035 1.363 . S
C2034 C2040 1.379 . S
C2034 N2042 1.356 . S
C2035 C2034 1.363 . S
C2035 C2041 1.363 . S
C2036 C2037 1.363 . S
C2036 C2041 1.379 . S
C2036 N2043 1.356 . S
C2037 C2036 1.363 . S
C2037 C2040 1.363 . S
N2038 C2040 1.356 . S
N2038 H2050 0.984 . S
N2038 H2051 0.985 . S
N2039 C2041 1.356 . S
N2039 H2044 0.984 . S
N2039 H2045 0.985 1_554 S
C2040 C2034 1.379 . S
C2040 C2037 1.363 . S
C2040 N2038 1.356 . S
C2041 C2035 1.363 . S
C2041 C2036 1.379 . S
C2041 N2039 1.356 . S
N2042 C2034 1.356 . S
N2042 H2048 0.984 . S
N2042 H2049 0.984 . S
N2043 C2036 1.356 . S
N2043 H2046 0.984 . S
N2043 H2047 0.985 . S
H2044 N2039 0.984 . S
H2045 N2039 0.985 1_556 S
H2046 N2043 0.984 . S
H2047 N2043 0.985 . S
H2048 N2042 0.984 . S
H2049 N2042 0.984 . S
H2050 N2038 0.984 . S
H2051 N2038 0.985 . S
C2052 C2053 1.363 . S
C2052 C2058 1.379 . S
C2052 N2060 1.356 1_556 S
C2053 C2052 1.363 . S
C2053 C2059 1.363 . S
C2054 C2055 1.363 . S
C2054 C2059 1.379 . S
C2054 N2061 1.356 . S
C2055 C2054 1.363 . S
C2055 C2058 1.363 . S
N2056 C2058 1.356 . S
N2056 H2068 0.984 . S
N2056 H2069 0.985 . S
N2057 C2059 1.356 . S
N2057 H2062 0.984 . S
N2057 H2063 0.985 . S
C2058 C2052 1.379 . S
C2058 C2055 1.363 . S
C2058 N2056 1.356 . S
C2059 C2053 1.363 . S
C2059 C2054 1.379 . S
C2059 N2057 1.356 . S
N2060 C2052 1.356 1_554 S
N2060 H2066 0.984 . S
N2060 H2067 0.984 . S
N2061 C2054 1.356 . S
N2061 H2064 0.984 . S
N2061 H2065 0.985 . S
H2062 N2057 0.984 . S
H2063 N2057 0.985 . S
H2064 N2061 0.984 . S
H2065 N2061 0.985 . S
H2066 N2060 0.984 . S
H2067 N2060 0.984 . S
H2068 N2056 0.984 . S
H2069 N2056 0.985 . S
C2070 C2071 1.363 . S
C2070 C2076 1.379 . S
C2070 N2078 1.356 1_556 S
C2071 C2070 1.363 . S
C2071 C2077 1.363 . S
C2072 C2073 1.363 . S
C2072 C2077 1.379 . S
C2072 N2079 1.356 . S
C2073 C2072 1.363 . S
C2073 C2076 1.363 . S
N2074 C2076 1.356 . S
N2074 H2086 0.984 1_556 S
N2074 H2087 0.985 . S
N2075 C2077 1.356 . S
N2075 H2080 0.984 . S
N2075 H2081 0.985 . S
C2076 C2070 1.379 . S
C2076 C2073 1.363 . S
C2076 N2074 1.356 . S
C2077 C2071 1.363 . S
C2077 C2072 1.379 . S
C2077 N2075 1.356 . S
N2078 C2070 1.356 1_554 S
N2078 H2084 0.984 . S
N2078 H2085 0.984 . S
N2079 C2072 1.356 . S
N2079 H2082 0.984 . S
N2079 H2083 0.985 . S
H2080 N2075 0.984 . S
H2081 N2075 0.985 . S
H2082 N2079 0.984 . S
H2083 N2079 0.985 . S
H2084 N2078 0.984 . S
H2085 N2078 0.984 . S
H2086 N2074 0.984 1_554 S
H2087 N2074 0.985 . S
C2088 C2089 1.363 . S
C2088 C2094 1.379 . S
C2088 N2096 1.356 . S
C2089 C2088 1.363 . S
C2089 C2095 1.363 . S
C2090 C2091 1.363 . S
C2090 C2095 1.379 . S
C2090 N2097 1.356 . S
C2091 C2090 1.363 . S
C2091 C2094 1.363 . S
N2092 C2094 1.356 . S
N2092 H2104 0.984 . S
N2092 H2105 0.985 . S
N2093 C2095 1.356 1_554 S
N2093 H2098 0.984 . S
N2093 H2099 0.985 . S
C2094 C2088 1.379 . S
C2094 C2091 1.363 . S
C2094 N2092 1.356 . S
C2095 C2089 1.363 . S
C2095 C2090 1.379 . S
C2095 N2093 1.356 1_556 S
N2096 C2088 1.356 . S
N2096 H2102 0.984 . S
N2096 H2103 0.984 . S
N2097 C2090 1.356 . S
N2097 H2100 0.984 . S
N2097 H2101 0.985 1_556 S
H2098 N2093 0.984 . S
H2099 N2093 0.985 . S
H2100 N2097 0.984 . S
H2101 N2097 0.985 1_554 S
H2102 N2096 0.984 . S
H2103 N2096 0.984 . S
H2104 N2092 0.984 . S
H2105 N2092 0.985 . S
C2106 C2107 1.363 . S
C2106 C2112 1.379 . S
C2106 N2114 1.356 1_556 S
C2107 C2106 1.363 . S
C2107 C2113 1.363 . S
C2108 C2109 1.363 . S
C2108 C2113 1.379 . S
C2108 N2115 1.356 . S
C2109 C2108 1.363 . S
C2109 C2112 1.363 . S
N2110 C2112 1.356 . S
N2110 H2122 0.984 1_556 S
N2110 H2123 0.985 . S
N2111 C2113 1.356 . S
N2111 H2116 0.984 . S
N2111 H2117 0.985 . S
C2112 C2106 1.379 . S
C2112 C2109 1.363 . S
C2112 N2110 1.356 . S
C2113 C2107 1.363 . S
C2113 C2108 1.379 . S
C2113 N2111 1.356 . S
N2114 C2106 1.356 1_554 S
N2114 H2120 0.984 . S
N2114 H2121 0.984 . S
N2115 C2108 1.356 . S
N2115 H2118 0.984 . S
N2115 H2119 0.985 . S
H2116 N2111 0.984 . S
H2117 N2111 0.985 . S
H2118 N2115 0.984 . S
H2119 N2115 0.985 . S
H2120 N2114 0.984 . S
H2121 N2114 0.984 . S
H2122 N2110 0.984 1_554 S
H2123 N2110 0.985 . S
C2124 C2125 1.363 . S
C2124 C2130 1.379 . S
C2124 N2132 1.356 1_556 S
C2125 C2124 1.363 . S
C2125 C2131 1.363 . S
C2126 C2127 1.363 . S
C2126 C2131 1.379 . S
C2126 N2133 1.356 . S
C2127 C2126 1.363 . S
C2127 C2130 1.363 . S
N2128 C2130 1.356 . S
N2128 H2140 0.984 . S
N2128 H2141 0.985 . S
N2129 C2131 1.356 . S
N2129 H2134 0.984 . S
N2129 H2135 0.985 . S
C2130 C2124 1.379 . S
C2130 C2127 1.363 . S
C2130 N2128 1.356 . S
C2131 C2125 1.363 . S
C2131 C2126 1.379 . S
C2131 N2129 1.356 . S
N2132 C2124 1.356 1_554 S
N2132 H2138 0.984 . S
N2132 H2139 0.984 . S
N2133 C2126 1.356 . S
N2133 H2136 0.984 . S
N2133 H2137 0.985 . S
H2134 N2129 0.984 . S
H2135 N2129 0.985 . S
H2136 N2133 0.984 . S
H2137 N2133 0.985 . S
H2138 N2132 0.984 . S
H2139 N2132 0.984 . S
H2140 N2128 0.984 . S
H2141 N2128 0.985 . S
C2142 C2143 1.363 . S
C2142 C2148 1.379 . S
C2142 N2150 1.356 1_556 S
C2143 C2142 1.363 . S
C2143 C2149 1.363 . S
C2144 C2145 1.363 . S
C2144 C2149 1.379 . S
C2144 N2151 1.356 . S
C2145 C2144 1.363 . S
C2145 C2148 1.363 . S
N2146 C2148 1.356 . S
N2146 H2158 0.984 1_556 S
N2146 H2159 0.985 . S
N2147 C2149 1.356 . S
N2147 H2152 0.984 . S
N2147 H2153 0.985 . S
C2148 C2142 1.379 . S
C2148 C2145 1.363 . S
C2148 N2146 1.356 . S
C2149 C2143 1.363 . S
C2149 C2144 1.379 . S
C2149 N2147 1.356 . S
N2150 C2142 1.356 1_554 S
N2150 H2156 0.984 . S
N2150 H2157 0.984 . S
N2151 C2144 1.356 . S
N2151 H2154 0.984 . S
N2151 H2155 0.985 . S
H2152 N2147 0.984 . S
H2153 N2147 0.985 . S
H2154 N2151 0.984 . S
H2155 N2151 0.985 . S
H2156 N2150 0.984 . S
H2157 N2150 0.984 . S
H2158 N2146 0.984 1_554 S
H2159 N2146 0.985 . S
C2160 C2161 1.363 . S
C2160 C2166 1.379 . S
C2160 N2168 1.356 . S
C2161 C2160 1.363 . S
C2161 C2167 1.363 . S
C2162 C2163 1.363 . S
C2162 C2167 1.379 . S
C2162 N2169 1.356 . S
C2163 C2162 1.363 . S
C2163 C2166 1.363 . S
N2164 C2166 1.356 . S
N2164 H2176 0.984 . S
N2164 H2177 0.985 . S
N2165 C2167 1.356 . S
N2165 H2170 0.984 . S
N2165 H2171 0.985 . S
C2166 C2160 1.379 . S
C2166 C2163 1.363 . S
C2166 N2164 1.356 . S
C2167 C2161 1.363 . S
C2167 C2162 1.379 . S
C2167 N2165 1.356 . S
N2168 C2160 1.356 . S
N2168 H2174 0.984 1_554 S
N2168 H2175 0.984 . S
N2169 C2162 1.356 . S
N2169 H2172 0.984 . S
N2169 H2173 0.985 . S
H2170 N2165 0.984 . S
H2171 N2165 0.985 . S
H2172 N2169 0.984 . S
H2173 N2169 0.985 . S
H2174 N2168 0.984 1_556 S
H2175 N2168 0.984 . S
H2176 N2164 0.984 . S
H2177 N2164 0.985 . S
C2178 C2179 1.363 . S
C2178 C2184 1.379 . S
C2178 N2186 1.356 . S
C2179 C2178 1.363 . S
C2179 C2185 1.363 . S
C2180 C2181 1.363 . S
C2180 C2185 1.379 . S
C2180 N2187 1.356 . S
C2181 C2180 1.363 . S
C2181 C2184 1.363 . S
N2182 C2184 1.356 . S
N2182 H2194 0.984 . S
N2182 H2195 0.985 . S
N2183 C2185 1.356 . S
N2183 H2188 0.984 . S
N2183 H2189 0.985 1_554 S
C2184 C2178 1.379 . S
C2184 C2181 1.363 . S
C2184 N2182 1.356 . S
C2185 C2179 1.363 . S
C2185 C2180 1.379 . S
C2185 N2183 1.356 . S
N2186 C2178 1.356 . S
N2186 H2192 0.984 . S
N2186 H2193 0.984 . S
N2187 C2180 1.356 . S
N2187 H2190 0.984 . S
N2187 H2191 0.985 . S
H2188 N2183 0.984 . S
H2189 N2183 0.985 1_556 S
H2190 N2187 0.984 . S
H2191 N2187 0.985 . S
H2192 N2186 0.984 . S
H2193 N2186 0.984 . S
H2194 N2182 0.984 . S
H2195 N2182 0.985 . S
C2196 C2197 1.363 . S
C2196 C2202 1.379 . S
C2196 N2204 1.356 . S
C2197 C2196 1.363 . S
C2197 C2203 1.363 . S
C2198 C2199 1.363 . S
C2198 C2203 1.379 . S
C2198 N2205 1.356 . S
C2199 C2198 1.363 . S
C2199 C2202 1.363 . S
N2200 C2202 1.356 . S
N2200 H2212 0.984 . S
N2200 H2213 0.985 . S
N2201 C2203 1.356 . S
N2201 H2206 0.984 . S
N2201 H2207 0.985 . S
C2202 C2196 1.379 . S
C2202 C2199 1.363 . S
C2202 N2200 1.356 . S
C2203 C2197 1.363 . S
C2203 C2198 1.379 . S
C2203 N2201 1.356 . S
N2204 C2196 1.356 . S
N2204 H2210 0.984 . S
N2204 H2211 0.984 . S
N2205 C2198 1.356 . S
N2205 H2208 0.984 . S
N2205 H2209 0.985 . S
H2206 N2201 0.984 . S
H2207 N2201 0.985 . S
H2208 N2205 0.984 . S
H2209 N2205 0.985 . S
H2210 N2204 0.984 . S
H2211 N2204 0.984 . S
H2212 N2200 0.984 . S
H2213 N2200 0.985 . S
C2214 C2215 1.363 . S
C2214 C2220 1.379 . S
C2214 N2222 1.356 . S
C2215 C2214 1.363 . S
C2215 C2221 1.363 . S
C2216 C2217 1.363 . S
C2216 C2221 1.379 . S
C2216 N2223 1.356 . S
C2217 C2216 1.363 . S
C2217 C2220 1.363 . S
N2218 C2220 1.356 . S
N2218 H2230 0.984 . S
N2218 H2231 0.985 . S
N2219 C2221 1.356 . S
N2219 H2224 0.984 . S
N2219 H2225 0.985 . S
C2220 C2214 1.379 . S
C2220 C2217 1.363 . S
C2220 N2218 1.356 . S
C2221 C2215 1.363 . S
C2221 C2216 1.379 . S
C2221 N2219 1.356 . S
N2222 C2214 1.356 . S
N2222 H2228 0.984 . S
N2222 H2229 0.984 . S
N2223 C2216 1.356 . S
N2223 H2226 0.984 . S
N2223 H2227 0.985 . S
H2224 N2219 0.984 . S
H2225 N2219 0.985 . S
H2226 N2223 0.984 . S
H2227 N2223 0.985 . S
H2228 N2222 0.984 . S
H2229 N2222 0.984 . S
H2230 N2218 0.984 . S
H2231 N2218 0.985 . S
C2232 C2233 1.363 . S
C2232 C2238 1.379 . S
C2232 N2240 1.356 . S
C2233 C2232 1.363 . S
C2233 C2239 1.363 . S
C2234 C2235 1.363 . S
C2234 C2239 1.379 . S
C2234 N2241 1.356 . S
C2235 C2234 1.363 . S
C2235 C2238 1.363 . S
N2236 C2238 1.356 . S
N2236 H2248 0.984 . S
N2236 H2249 0.985 . S
N2237 C2239 1.356 . S
N2237 H2242 0.984 . S
N2237 H2243 0.985 . S
C2238 C2232 1.379 . S
C2238 C2235 1.363 . S
C2238 N2236 1.356 . S
C2239 C2233 1.363 . S
C2239 C2234 1.379 . S
C2239 N2237 1.356 . S
N2240 C2232 1.356 . S
N2240 H2246 0.984 . S
N2240 H2247 0.984 . S
N2241 C2234 1.356 . S
N2241 H2244 0.984 . S
N2241 H2245 0.985 . S
H2242 N2237 0.984 . S
H2243 N2237 0.985 . S
H2244 N2241 0.984 . S
H2245 N2241 0.985 . S
H2246 N2240 0.984 . S
H2247 N2240 0.984 . S
H2248 N2236 0.984 . S
H2249 N2236 0.985 . S
C2250 C2251 1.363 . S
C2250 C2256 1.379 . S
C2250 N2258 1.356 1_655 S
C2251 C2250 1.363 . S
C2251 C2257 1.363 . S
C2252 C2253 1.363 . S
C2252 C2257 1.379 . S
C2252 N2259 1.356 . S
C2253 C2252 1.363 . S
C2253 C2256 1.363 . S
N2254 C2256 1.356 . S
N2254 H2266 0.984 . S
N2254 H2267 0.985 . S
N2255 C2257 1.356 . S
N2255 H2260 0.984 . S
N2255 H2261 0.985 . S
C2256 C2250 1.379 . S
C2256 C2253 1.363 . S
C2256 N2254 1.356 . S
C2257 C2251 1.363 . S
C2257 C2252 1.379 . S
C2257 N2255 1.356 . S
N2258 C2250 1.356 1_455 S
N2258 H2264 0.984 . S
N2258 H2265 0.984 . S
N2259 C2252 1.356 . S
N2259 H2262 0.984 . S
N2259 H2263 0.985 . S
H2260 N2255 0.984 . S
H2261 N2255 0.985 . S
H2262 N2259 0.984 . S
H2263 N2259 0.985 . S
H2264 N2258 0.984 . S
H2265 N2258 0.984 . S
H2266 N2254 0.984 . S
H2267 N2254 0.985 . S
C2268 C2269 1.363 . S
C2268 C2274 1.379 . S
C2268 N2276 1.356 . S
C2269 C2268 1.363 . S
C2269 C2275 1.363 . S
C2270 C2271 1.363 . S
C2270 C2275 1.379 . S
C2270 N2277 1.356 . S
C2271 C2270 1.363 . S
C2271 C2274 1.363 . S
N2272 C2274 1.356 . S
N2272 H2284 0.984 . S
N2272 H2285 0.985 . S
N2273 C2275 1.356 . S
N2273 H2278 0.984 . S
N2273 H2279 0.985 . S
C2274 C2268 1.379 . S
C2274 C2271 1.363 . S
C2274 N2272 1.356 . S
C2275 C2269 1.363 . S
C2275 C2270 1.379 . S
C2275 N2273 1.356 . S
N2276 C2268 1.356 . S
N2276 H2282 0.984 . S
N2276 H2283 0.984 . S
N2277 C2270 1.356 . S
N2277 H2280 0.984 . S
N2277 H2281 0.985 . S
H2278 N2273 0.984 . S
H2279 N2273 0.985 . S
H2280 N2277 0.984 . S
H2281 N2277 0.985 . S
H2282 N2276 0.984 . S
H2283 N2276 0.984 . S
H2284 N2272 0.984 . S
H2285 N2272 0.985 . S
C2286 C2287 1.363 . S
C2286 C2292 1.379 . S
C2286 N2294 1.356 . S
C2287 C2286 1.363 . S
C2287 C2293 1.363 . S
C2288 C2289 1.363 . S
C2288 C2293 1.379 . S
C2288 N2295 1.356 . S
C2289 C2288 1.363 . S
C2289 C2292 1.363 . S
N2290 C2292 1.356 . S
N2290 H2302 0.984 . S
N2290 H2303 0.985 . S
N2291 C2293 1.356 . S
N2291 H2296 0.984 . S
N2291 H2297 0.985 . S
C2292 C2286 1.379 . S
C2292 C2289 1.363 . S
C2292 N2290 1.356 . S
C2293 C2287 1.363 . S
C2293 C2288 1.379 . S
C2293 N2291 1.356 . S
N2294 C2286 1.356 . S
N2294 H2300 0.984 . S
N2294 H2301 0.984 . S
N2295 C2288 1.356 . S
N2295 H2298 0.984 . S
N2295 H2299 0.985 . S
H2296 N2291 0.984 . S
H2297 N2291 0.985 . S
H2298 N2295 0.984 . S
H2299 N2295 0.985 . S
H2300 N2294 0.984 . S
H2301 N2294 0.984 . S
H2302 N2290 0.984 . S
H2303 N2290 0.985 . S
C2304 C2305 1.363 . S
C2304 C2310 1.379 . S
C2304 N2312 1.356 . S
C2305 C2304 1.363 . S
C2305 C2311 1.363 . S
C2306 C2307 1.370 . S
C2306 C2311 1.373 . S
C2306 N2313 1.358 1_565 S
C2307 C2306 1.370 . S
C2307 C2310 1.363 . S
N2308 C2310 1.356 . S
N2308 H2320 0.984 . S
N2308 H2321 0.985 . S
N2309 C2311 1.356 1_545 S
N2309 H2314 0.968 . S
N2309 H2315 0.985 . S
C2310 C2304 1.379 . S
C2310 C2307 1.363 . S
C2310 N2308 1.356 . S
C2311 C2305 1.363 . S
C2311 C2306 1.373 . S
C2311 N2309 1.356 1_565 S
N2312 C2304 1.356 . S
N2312 H2318 0.984 . S
N2312 H2319 0.984 . S
N2313 C2306 1.358 1_545 S
N2313 H2316 0.984 . S
N2313 H2317 0.985 . S
H2314 N2309 0.968 . S
H2315 N2309 0.985 . S
H2316 N2313 0.984 . S
H2317 N2313 0.985 . S
H2318 N2312 0.984 . S
H2319 N2312 0.984 . S
H2320 N2308 0.984 . S
H2321 N2308 0.985 . S
C2322 C2323 1.363 1_545 S
C2322 C2328 1.379 . S
C2322 N2330 1.356 . S
C2323 C2322 1.363 1_565 S
C2323 C2329 1.363 . S
C2324 C2325 1.363 . S
C2324 C2329 1.379 . S
C2324 N2331 1.356 . S
C2325 C2324 1.363 . S
C2325 C2328 1.363 1_565 S
N2326 C2328 1.356 . S
N2326 H2338 0.984 . S
N2326 H2339 0.985 . S
N2327 C2329 1.356 . S
N2327 H2332 0.984 . S
N2327 H2333 0.985 . S
C2328 C2322 1.379 . S
C2328 C2325 1.363 1_545 S
C2328 N2326 1.356 . S
C2329 C2323 1.363 . S
C2329 C2324 1.379 . S
C2329 N2327 1.356 . S
N2330 C2322 1.356 . S
N2330 H2336 0.984 . S
N2330 H2337 0.984 . S
N2331 C2324 1.356 . S
N2331 H2334 0.984 . S
N2331 H2335 0.985 . S
H2332 N2327 0.984 . S
H2333 N2327 0.985 . S
H2334 N2331 0.984 . S
H2335 N2331 0.985 . S
H2336 N2330 0.984 . S
H2337 N2330 0.984 . S
H2338 N2326 0.984 . S
H2339 N2326 0.985 . S
C2340 C2341 1.363 . S
C2340 C2346 1.379 . S
C2340 N2348 1.356 . S
C2341 C2340 1.363 . S
C2341 C2347 1.363 . S
C2342 C2343 1.363 . S
C2342 C2347 1.379 . S
C2342 N2349 1.356 . S
C2343 C2342 1.363 . S
C2343 C2346 1.363 . S
N2344 C2346 1.356 . S
N2344 H2356 0.984 . S
N2344 H2357 0.985 . S
N2345 C2347 1.356 . S
N2345 H2350 0.984 . S
N2345 H2351 0.985 . S
C2346 C2340 1.379 . S
C2346 C2343 1.363 . S
C2346 N2344 1.356 . S
C2347 C2341 1.363 . S
C2347 C2342 1.379 . S
C2347 N2345 1.356 . S
N2348 C2340 1.356 . S
N2348 H2354 0.984 . S
N2348 H2355 0.984 . S
N2349 C2342 1.356 . S
N2349 H2352 0.984 . S
N2349 H2353 0.985 . S
H2350 N2345 0.984 . S
H2351 N2345 0.985 . S
H2352 N2349 0.984 . S
H2353 N2349 0.985 . S
H2354 N2348 0.984 . S
H2355 N2348 0.984 . S
H2356 N2344 0.984 . S
H2357 N2344 0.985 . S
C2358 C2359 1.363 . S
C2358 C2364 1.379 . S
C2358 N2366 1.356 . S
C2359 C2358 1.363 . S
C2359 C2365 1.363 . S
C2360 C2361 1.363 . S
C2360 C2365 1.379 . S
C2360 N2367 1.356 . S
C2361 C2360 1.363 . S
C2361 C2364 1.363 . S
N2362 C2364 1.356 . S
N2362 H2374 0.984 . S
N2362 H2375 0.985 . S
N2363 C2365 1.356 . S
N2363 H2368 0.984 . S
N2363 H2369 0.985 . S
C2364 C2358 1.379 . S
C2364 C2361 1.363 . S
C2364 N2362 1.356 . S
C2365 C2359 1.363 . S
C2365 C2360 1.379 . S
C2365 N2363 1.356 . S
N2366 C2358 1.356 . S
N2366 H2372 0.984 . S
N2366 H2373 0.984 . S
N2367 C2360 1.356 . S
N2367 H2370 0.984 . S
N2367 H2371 0.985 . S
H2368 N2363 0.984 . S
H2369 N2363 0.985 . S
H2370 N2367 0.984 . S
H2371 N2367 0.985 . S
H2372 N2366 0.984 . S
H2373 N2366 0.984 . S
H2374 N2362 0.984 . S
H2375 N2362 0.985 . S
C2376 C2377 1.363 . S
C2376 C2382 1.379 . S
C2376 N2384 1.356 . S
C2377 C2376 1.363 . S
C2377 C2383 1.363 . S
C2378 C2379 1.363 . S
C2378 C2383 1.379 . S
C2378 N2385 1.356 . S
C2379 C2378 1.363 . S
C2379 C2382 1.363 . S
N2380 C2382 1.356 . S
N2380 H2392 0.984 . S
N2380 H2393 0.985 . S
N2381 C2383 1.356 . S
N2381 H2386 0.984 . S
N2381 H2387 0.985 . S
C2382 C2376 1.379 . S
C2382 C2379 1.363 . S
C2382 N2380 1.356 . S
C2383 C2377 1.363 . S
C2383 C2378 1.379 . S
C2383 N2381 1.356 . S
N2384 C2376 1.356 . S
N2384 H2390 0.984 . S
N2384 H2391 0.984 . S
N2385 C2378 1.356 . S
N2385 H2388 0.984 . S
N2385 H2389 0.985 . S
H2386 N2381 0.984 . S
H2387 N2381 0.985 . S
H2388 N2385 0.984 . S
H2389 N2385 0.985 . S
H2390 N2384 0.984 . S
H2391 N2384 0.984 . S
H2392 N2380 0.984 . S
H2393 N2380 0.985 . S
C2394 C2395 1.363 . S
C2394 C2400 1.379 . S
C2394 N2402 1.356 . S
C2395 C2394 1.363 . S
C2395 C2401 1.363 . S
C2396 C2397 1.363 . S
C2396 C2401 1.379 . S
C2396 N2403 1.356 . S
C2397 C2396 1.363 . S
C2397 C2400 1.363 . S
N2398 C2400 1.356 . S
N2398 H2410 0.984 . S
N2398 H2411 0.985 . S
N2399 C2401 1.356 . S
N2399 H2404 0.984 . S
N2399 H2405 0.985 . S
C2400 C2394 1.379 . S
C2400 C2397 1.363 . S
C2400 N2398 1.356 . S
C2401 C2395 1.363 . S
C2401 C2396 1.379 . S
C2401 N2399 1.356 . S
N2402 C2394 1.356 . S
N2402 H2408 0.984 . S
N2402 H2409 0.984 . S
N2403 C2396 1.356 . S
N2403 H2406 0.984 . S
N2403 H2407 0.985 . S
H2404 N2399 0.984 . S
H2405 N2399 0.985 . S
H2406 N2403 0.984 . S
H2407 N2403 0.985 . S
H2408 N2402 0.984 . S
H2409 N2402 0.984 . S
H2410 N2398 0.984 . S
H2411 N2398 0.985 . S
C2412 C2413 1.363 . S
C2412 C2418 1.379 . S
C2412 N2420 1.356 . S
C2413 C2412 1.363 . S
C2413 C2419 1.363 . S
C2414 C2415 1.363 . S
C2414 C2419 1.379 . S
C2414 N2421 1.356 . S
C2415 C2414 1.363 . S
C2415 C2418 1.363 . S
N2416 C2418 1.356 . S
N2416 H2428 0.984 . S
N2416 H2429 0.985 . S
N2417 C2419 1.342 1_455 S
N2417 H2422 0.997 . S
N2417 H2423 0.980 . S
C2418 C2412 1.379 . S
C2418 C2415 1.363 . S
C2418 N2416 1.356 . S
C2419 C2413 1.363 . S
C2419 C2414 1.379 . S
C2419 N2417 1.342 1_655 S
N2420 C2412 1.356 . S
N2420 H2426 0.984 . S
N2420 H2427 0.984 . S
N2421 C2414 1.356 . S
N2421 H2424 0.984 . S
N2421 H2425 0.985 . S
H2422 N2417 0.997 . S
H2423 N2417 0.980 . S
H2424 N2421 0.984 . S
H2425 N2421 0.985 . S
H2426 N2420 0.984 . S
H2427 N2420 0.984 . S
H2428 N2416 0.984 . S
H2429 N2416 0.985 . S
C2430 C2431 1.363 . S
C2430 C2436 1.379 . S
C2430 N2438 1.356 . S
C2431 C2430 1.363 . S
C2431 C2437 1.363 . S
C2432 C2433 1.363 . S
C2432 C2437 1.379 . S
C2432 N2439 1.356 . S
C2433 C2432 1.363 . S
C2433 C2436 1.363 . S
N2434 C2436 1.356 . S
N2434 H2446 0.984 . S
N2434 H2447 0.985 . S
N2435 C2437 1.356 . S
N2435 H2440 0.984 . S
N2435 H2441 0.985 1_545 S
C2436 C2430 1.379 . S
C2436 C2433 1.363 . S
C2436 N2434 1.356 . S
C2437 C2431 1.363 . S
C2437 C2432 1.379 . S
C2437 N2435 1.356 . S
N2438 C2430 1.356 . S
N2438 H2444 0.984 . S
N2438 H2445 0.984 . S
N2439 C2432 1.356 . S
N2439 H2442 0.984 . S
N2439 H2443 0.985 1_545 S
H2440 N2435 0.984 . S
H2441 N2435 0.985 1_565 S
H2442 N2439 0.984 . S
H2443 N2439 0.985 1_565 S
H2444 N2438 0.984 . S
H2445 N2438 0.984 . S
H2446 N2434 0.984 . S
H2447 N2434 0.985 . S
C2448 C2449 1.363 . S
C2448 C2454 1.379 . S
C2448 N2456 1.356 . S
C2449 C2448 1.363 . S
C2449 C2455 1.363 1_655 S
C2450 C2451 1.363 1_455 S
C2450 C2455 1.379 . S
C2450 N2457 1.356 . S
C2451 C2450 1.363 1_655 S
C2451 C2454 1.363 . S
N2452 C2454 1.356 . S
N2452 H2464 0.984 . S
N2452 H2465 0.985 . S
N2453 C2455 1.356 . S
N2453 H2458 0.984 . S
N2453 H2459 0.985 . S
C2454 C2448 1.379 . S
C2454 C2451 1.363 . S
C2454 N2452 1.356 . S
C2455 C2449 1.363 1_455 S
C2455 C2450 1.379 . S
C2455 N2453 1.356 . S
N2456 C2448 1.356 . S
N2456 H2462 0.984 . S
N2456 H2463 0.984 . S
N2457 C2450 1.356 . S
N2457 H2460 0.984 . S
N2457 H2461 0.985 . S
H2458 N2453 0.984 . S
H2459 N2453 0.985 . S
H2460 N2457 0.984 . S
H2461 N2457 0.985 . S
H2462 N2456 0.984 . S
H2463 N2456 0.984 . S
H2464 N2452 0.984 . S
H2465 N2452 0.985 . S
C2466 C2467 1.363 . S
C2466 C2472 1.379 . S
C2466 N2474 1.356 . S
C2467 C2466 1.363 . S
C2467 C2473 1.363 . S
C2468 C2469 1.363 . S
C2468 C2473 1.379 . S
C2468 N2475 1.356 . S
C2469 C2468 1.363 . S
C2469 C2472 1.363 . S
N2470 C2472 1.356 . S
N2470 H2482 0.984 . S
N2470 H2483 0.985 . S
N2471 C2473 1.356 . S
N2471 H2476 0.984 . S
N2471 H2477 0.985 . S
C2472 C2466 1.379 . S
C2472 C2469 1.363 . S
C2472 N2470 1.356 . S
C2473 C2467 1.363 . S
C2473 C2468 1.379 . S
C2473 N2471 1.356 . S
N2474 C2466 1.356 . S
N2474 H2480 0.984 . S
N2474 H2481 0.984 . S
N2475 C2468 1.356 . S
N2475 H2478 0.984 . S
N2475 H2479 0.985 . S
H2476 N2471 0.984 . S
H2477 N2471 0.985 . S
H2478 N2475 0.984 . S
H2479 N2475 0.985 . S
H2480 N2474 0.984 . S
H2481 N2474 0.984 . S
H2482 N2470 0.984 . S
H2483 N2470 0.985 . S
C2484 C2485 1.363 . S
C2484 C2490 1.379 . S
C2484 N2492 1.356 . S
C2485 C2484 1.363 . S
C2485 C2491 1.363 . S
C2486 C2487 1.363 . S
C2486 C2491 1.379 . S
C2486 N2493 1.356 . S
C2487 C2486 1.363 . S
C2487 C2490 1.363 . S
N2488 C2490 1.356 . S
N2488 H2500 0.984 . S
N2488 H2501 0.985 . S
N2489 C2491 1.356 . S
N2489 H2494 0.984 . S
N2489 H2495 0.985 . S
C2490 C2484 1.379 . S
C2490 C2487 1.363 . S
C2490 N2488 1.356 . S
C2491 C2485 1.363 . S
C2491 C2486 1.379 . S
C2491 N2489 1.356 . S
N2492 C2484 1.356 . S
N2492 H2498 0.984 . S
N2492 H2499 0.984 . S
N2493 C2486 1.356 . S
N2493 H2496 0.984 . S
N2493 H2497 0.985 . S
H2494 N2489 0.984 . S
H2495 N2489 0.985 . S
H2496 N2493 0.984 . S
H2497 N2493 0.985 . S
H2498 N2492 0.984 . S
H2499 N2492 0.984 . S
H2500 N2488 0.984 . S
H2501 N2488 0.985 . S
C2502 C2503 1.363 . S
C2502 C2508 1.379 . S
C2502 N2510 1.356 . S
C2503 C2502 1.363 . S
C2503 C2509 1.363 . S
C2504 C2505 1.363 . S
C2504 C2509 1.379 . S
C2504 N2511 1.356 . S
C2505 C2504 1.363 . S
C2505 C2508 1.363 . S
N2506 C2508 1.356 . S
N2506 H2518 0.984 . S
N2506 H2519 0.985 . S
N2507 C2509 1.359 1_545 S
N2507 H2512 0.984 . S
N2507 H2513 0.976 . S
C2508 C2502 1.379 . S
C2508 C2505 1.363 . S
C2508 N2506 1.356 . S
C2509 C2503 1.363 . S
C2509 C2504 1.379 . S
C2509 N2507 1.359 1_565 S
N2510 C2502 1.356 . S
N2510 H2516 0.984 . S
N2510 H2517 0.978 1_565 S
N2511 C2504 1.356 . S
N2511 H2514 0.984 . S
N2511 H2515 0.985 . S
H2512 N2507 0.984 . S
H2513 N2507 0.976 . S
H2514 N2511 0.984 . S
H2515 N2511 0.985 . S
H2516 N2510 0.984 . S
H2517 N2510 0.978 1_545 S
H2518 N2506 0.984 . S
H2519 N2506 0.985 . S
C2520 C2521 1.363 . S
C2520 C2526 1.379 . S
C2520 N2528 1.356 . S
C2521 C2520 1.363 . S
C2521 C2527 1.363 . S
C2522 C2523 1.363 . S
C2522 C2527 1.379 . S
C2522 N2529 1.356 . S
C2523 C2522 1.363 . S
C2523 C2526 1.363 . S
N2524 C2526 1.356 . S
N2524 H2536 0.984 . S
N2524 H2537 0.985 . S
N2525 C2527 1.356 . S
N2525 H2530 0.984 . S
N2525 H2531 0.985 . S
C2526 C2520 1.379 . S
C2526 C2523 1.363 . S
C2526 N2524 1.356 . S
C2527 C2521 1.363 . S
C2527 C2522 1.379 . S
C2527 N2525 1.356 . S
N2528 C2520 1.356 . S
N2528 H2534 0.984 . S
N2528 H2535 0.984 . S
N2529 C2522 1.356 . S
N2529 H2532 0.984 . S
N2529 H2533 0.985 . S
H2530 N2525 0.984 . S
H2531 N2525 0.985 . S
H2532 N2529 0.984 . S
H2533 N2529 0.985 . S
H2534 N2528 0.984 . S
H2535 N2528 0.984 . S
H2536 N2524 0.984 . S
H2537 N2524 0.985 . S
C2538 C2539 1.363 . S
C2538 C2544 1.379 . S
C2538 N2546 1.356 . S
C2539 C2538 1.363 . S
C2539 C2545 1.363 . S
C2540 C2541 1.363 . S
C2540 C2545 1.379 . S
C2540 N2547 1.356 . S
C2541 C2540 1.363 . S
C2541 C2544 1.363 . S
N2542 C2544 1.356 . S
N2542 H2554 0.984 . S
N2542 H2555 0.985 . S
N2543 C2545 1.356 . S
N2543 H2548 0.984 . S
N2543 H2549 0.985 . S
C2544 C2538 1.379 . S
C2544 C2541 1.363 . S
C2544 N2542 1.356 . S
C2545 C2539 1.363 . S
C2545 C2540 1.379 . S
C2545 N2543 1.356 . S
N2546 C2538 1.356 . S
N2546 H2552 0.984 . S
N2546 H2553 0.984 . S
N2547 C2540 1.356 . S
N2547 H2550 0.984 . S
N2547 H2551 0.985 . S
H2548 N2543 0.984 . S
H2549 N2543 0.985 . S
H2550 N2547 0.984 . S
H2551 N2547 0.985 . S
H2552 N2546 0.984 . S
H2553 N2546 0.984 . S
H2554 N2542 0.984 . S
H2555 N2542 0.985 . S
C2556 C2557 1.363 . S
C2556 C2562 1.379 . S
C2556 N2564 1.356 . S
C2557 C2556 1.363 . S
C2557 C2563 1.363 . S
C2558 C2559 1.363 . S
C2558 C2563 1.379 . S
C2558 N2565 1.356 . S
C2559 C2558 1.363 . S
C2559 C2562 1.363 . S
N2560 C2562 1.356 . S
N2560 H2572 0.984 . S
N2560 H2573 0.985 . S
N2561 C2563 1.356 . S
N2561 H2566 0.984 1_565 S
N2561 H2567 0.985 . S
C2562 C2556 1.379 . S
C2562 C2559 1.363 . S
C2562 N2560 1.356 . S
C2563 C2557 1.363 . S
C2563 C2558 1.379 . S
C2563 N2561 1.356 . S
N2564 C2556 1.356 . S
N2564 H2570 0.984 . S
N2564 H2571 0.984 1_565 S
N2565 C2558 1.356 . S
N2565 H2568 0.984 . S
N2565 H2569 0.985 . S
H2566 N2561 0.984 1_545 S
H2567 N2561 0.985 . S
H2568 N2565 0.984 . S
H2569 N2565 0.985 . S
H2570 N2564 0.984 . S
H2571 N2564 0.984 1_545 S
H2572 N2560 0.984 . S
H2573 N2560 0.985 . S
C2574 C2575 1.363 . S
C2574 C2580 1.379 . S
C2574 N2582 1.356 . S
C2575 C2574 1.363 . S
C2575 C2581 1.363 . S
C2576 C2577 1.363 . S
C2576 C2581 1.379 . S
C2576 N2583 1.356 . S
C2577 C2576 1.363 . S
C2577 C2580 1.363 . S
N2578 C2580 1.356 . S
N2578 H2590 0.984 . S
N2578 H2591 0.985 . S
N2579 C2581 1.356 . S
N2579 H2584 0.984 . S
N2579 H2585 0.985 . S
C2580 C2574 1.379 . S
C2580 C2577 1.363 . S
C2580 N2578 1.356 . S
C2581 C2575 1.363 . S
C2581 C2576 1.379 . S
C2581 N2579 1.356 . S
N2582 C2574 1.356 . S
N2582 H2588 0.984 . S
N2582 H2589 0.984 . S
N2583 C2576 1.356 . S
N2583 H2586 0.984 . S
N2583 H2587 0.985 . S
H2584 N2579 0.984 . S
H2585 N2579 0.985 . S
H2586 N2583 0.984 . S
H2587 N2583 0.985 . S
H2588 N2582 0.984 . S
H2589 N2582 0.984 . S
H2590 N2578 0.984 . S
H2591 N2578 0.985 . S
C2592 C2593 1.363 . S
C2592 C2598 1.411 . S
C2592 N2600 1.356 1_655 S
C2593 C2592 1.363 . S
C2593 C2599 1.363 . S
C2594 C2595 1.363 . S
C2594 C2599 1.379 . S
C2594 N2601 1.356 . S
C2595 C2594 1.363 . S
C2595 C2598 1.361 . S
N2596 C2598 1.324 1_455 S
N2596 H2608 0.984 . S
N2596 H2609 0.985 . S
N2597 C2599 1.356 . S
N2597 H2602 0.984 . S
N2597 H2603 0.985 . S
C2598 C2592 1.411 . S
C2598 C2595 1.361 . S
C2598 N2596 1.324 1_655 S
C2599 C2593 1.363 . S
C2599 C2594 1.379 . S
C2599 N2597 1.356 . S
N2600 C2592 1.356 1_455 S
N2600 H2606 0.984 . S
N2600 H2607 0.989 1_455 S
N2601 C2594 1.356 . S
N2601 H2604 0.984 . S
N2601 H2605 0.985 . S
H2602 N2597 0.984 . S
H2603 N2597 0.985 . S
H2604 N2601 0.984 . S
H2605 N2601 0.985 . S
H2606 N2600 0.984 . S
H2607 N2600 0.989 1_655 S
H2608 N2596 0.984 . S
H2609 N2596 0.985 . S
C2610 C2611 1.363 . S
C2610 C2616 1.379 . S
C2610 N2618 1.356 . S
C2611 C2610 1.363 . S
C2611 C2617 1.363 . S
C2612 C2613 1.363 . S
C2612 C2617 1.379 . S
C2612 N2619 1.356 . S
C2613 C2612 1.363 . S
C2613 C2616 1.363 . S
N2614 C2616 1.356 . S
N2614 H2626 0.984 . S
N2614 H2627 0.985 . S
N2615 C2617 1.356 . S
N2615 H2620 0.984 . S
N2615 H2621 0.985 . S
C2616 C2610 1.379 . S
C2616 C2613 1.363 . S
C2616 N2614 1.356 . S
C2617 C2611 1.363 . S
C2617 C2612 1.379 . S
C2617 N2615 1.356 . S
N2618 C2610 1.356 . S
N2618 H2624 0.984 . S
N2618 H2625 0.984 . S
N2619 C2612 1.356 . S
N2619 H2622 0.984 . S
N2619 H2623 0.985 . S
H2620 N2615 0.984 . S
H2621 N2615 0.985 . S
H2622 N2619 0.984 . S
H2623 N2619 0.985 . S
H2624 N2618 0.984 . S
H2625 N2618 0.984 . S
H2626 N2614 0.984 . S
H2627 N2614 0.985 . S
C2628 C2629 1.363 . S
C2628 C2634 1.379 . S
C2628 N2636 1.356 . S
C2629 C2628 1.363 . S
C2629 C2635 1.363 . S
C2630 C2631 1.363 . S
C2630 C2635 1.379 . S
C2630 N2637 1.356 . S
C2631 C2630 1.363 . S
C2631 C2634 1.363 . S
N2632 C2634 1.356 . S
N2632 H2644 0.984 . S
N2632 H2645 0.985 . S
N2633 C2635 1.356 . S
N2633 H2638 0.984 . S
N2633 H2639 0.985 . S
C2634 C2628 1.379 . S
C2634 C2631 1.363 . S
C2634 N2632 1.356 . S
C2635 C2629 1.363 . S
C2635 C2630 1.379 . S
C2635 N2633 1.356 . S
N2636 C2628 1.356 . S
N2636 H2642 0.984 . S
N2636 H2643 0.984 . S
N2637 C2630 1.356 . S
N2637 H2640 0.984 . S
N2637 H2641 0.985 . S
H2638 N2633 0.984 . S
H2639 N2633 0.985 . S
H2640 N2637 0.984 . S
H2641 N2637 0.985 . S
H2642 N2636 0.984 . S
H2643 N2636 0.984 . S
H2644 N2632 0.984 . S
H2645 N2632 0.985 . S
C1351 C10 1.694 . S
C1353 C839 1.654 . S
C1369 C23 1.684 . S
C1371 C883 1.658 . S
C1389 C963 1.655 . S
C1387 C29 1.696 . S
C1405 C30 1.691 . S
C1407 C1007 1.665 . S
C1423 C5 1.700 . S
C1425 C1087 1.663 . S
C1441 C18 1.691 . S
C1443 C1149 1.652 . S
C1459 C49 1.694 . S
C1461 C1069 1.653 . S
C1479 C1131 1.646 . S
C1477 C62 1.684 . S
C1497 C1025 1.667 . S
C1495 C70 1.693 . S
C1513 C75 1.691 . S
C1515 C945 1.651 . S
C1533 C821 1.660 . S
C1531 C44 1.700 . S
C1549 C57 1.690 . S
C1551 C901 1.664 . S
C1567 C88 1.694 . S
C1569 C1211 1.654 . S
C1585 C101 1.684 . S
C1587 C1255 1.658 . S
C1605 C1335 1.654 . S
C1603 C107 1.693 . S
C1621 C108 1.691 . S
C1623 C281 1.652 . S
C1639 C83 1.700 . S
C1641 C325 1.674 . S
C1657 C96 1.690 . S
C1659 C405 1.652 . S
C1675 C127 1.694 . S
C1677 C343 1.668 . S
C1693 C140 1.684 . S
C1695 C387 1.646 . S
C1713 C263 1.654 . S
C1711 C146 1.693 . S
C1731 C1317 1.652 . S
C1729 C147 1.691 . S
C1749 C1193 1.661 . S
C1747 C122 1.700 . S
C1767 C1273 1.664 . S
C1765 C135 1.691 . S
C1783 C160 1.694 . S
C1785 C467 1.655 . S
C1801 C173 1.684 . S
C1803 C529 1.646 . S
C1819 C185 1.693 . S
C1821 C573 1.667 . S
C1837 C186 1.691 . S
C1839 C635 1.665 . S
C1857 C697 1.675 . S
C1855 C159 1.700 . S
C1875 C777 1.652 . S
C1873 C172 1.691 . S
C1893 C715 1.668 . S
C1891 C205 1.694 . S
C1911 C759 1.646 . S
C1909 C218 1.684 . S
C1927 C224 1.693 . S
C1929 C653 1.668 . S
C1947 C591 1.665 . S
C1945 C225 1.691 . S
C1963 C200 1.700 . S
C1965 C449 1.660 . S
C1983 C511 1.652 . S
C1981 C213 1.691 . S
C2001 C287 1.445 . S
C1999 C4 1.515 . S
C2017 C17 1.509 . S
C2019 C331 1.441 . S
C2037 C411 1.446 . S
C2035 C31 1.517 . S
C2055 C473 1.443 . S
C2053 C36 1.514 . S
C2073 C535 1.451 . S
C2071 C3 1.522 . S
C2091 C579 1.447 . S
C2089 C16 1.516 . S
C2107 C43 1.515 . S
C2109 C597 1.447 . S
C2125 C56 1.509 . S
C2127 C455 1.439 . S
C2143 C68 1.517 . S
C2145 C517 1.446 . S
C2161 C69 1.514 . S
C2163 C349 1.446 . S
C2181 C393 1.450 . S
C2179 C42 1.522 . S
C2197 C55 1.516 . S
C2199 C269 1.445 . S
C2217 C641 1.446 . S
C2215 C82 1.515 . S
C2233 C95 1.509 . S
C2235 C703 1.442 . S
C2251 C109 1.517 1_655 S
C2253 C783 1.446 . S
C2271 C845 1.443 . S
C2269 C114 1.514 . S
C2287 C81 1.522 . S
C2289 C889 1.452 . S
C2305 C94 1.516 . S
C2307 C969 1.448 . S
C2323 C121 1.515 . S
C2325 C951 1.441 . S
C2341 C134 1.509 . S
C2343 C827 1.439 . S
C2361 C907 1.448 . S
C2359 C148 1.517 . S
C2377 C153 1.514 . S
C2379 C721 1.445 . S
C2395 C120 1.522 . S
C2397 C765 1.450 . S
C2415 C659 1.447 . S
C2413 C133 1.516 1_655 S
C2433 C1013 1.446 . S
C2431 C166 1.515 . S
C2449 C179 1.509 . S
C2451 C1093 1.442 . S
C2467 C187 1.517 . S
C2469 C1155 1.446 . S
C2487 C1217 1.443 . S
C2485 C192 1.514 . S
C2505 C1261 1.452 . S
C2503 C161 1.522 1_565 S
C2521 C174 1.516 . S
C2523 C1341 1.445 . S
C2539 C199 1.515 . S
C2541 C1323 1.445 . S
C2557 C212 1.509 1_565 S
C2559 C1199 1.439 . S
C2577 C1279 1.448 . S
C2575 C226 1.517 . S
C2595 C1075 1.443 . S
C2593 C231 1.509 . S
C2613 C1137 1.451 . S
C2611 C198 1.522 . S
C2629 C211 1.516 . S
C2631 C1031 1.447 . S
