# Generated by pormake.
# Topology llk, (3,12)-cn, num edge types: 1
# Building blocks:
#     Node 0, Type 0, BuildingBlock: CUQRIR_clean_linker_1, # of connection points: 3
#     Node 1, Type 0, BuildingBlock: CUQRIR_clean_linker_1, # of connection points: 3
#     Node 2, Type 0, BuildingBlock: CUQRIR_clean_linker_1, # of connection points: 3
#     Node 3, Type 0, BuildingBlock: CUQRIR_clean_linker_1, # of connection points: 3
#     Node 4, Type 0, BuildingBlock: CUQRIR_clean_linker_1, # of connection points: 3
#     Node 5, Type 0, BuildingBlock: CUQRIR_clean_linker_1, # of connection points: 3
#     Node 6, Type 0, BuildingBlock: CUQRIR_clean_linker_1, # of connection points: 3
#     Node 7, Type 0, BuildingBlock: CUQRIR_clean_linker_1, # of connection points: 3
#     Node 8, Type 0, BuildingBlock: CUQRIR_clean_linker_1, # of connection points: 3
#     Node 9, Type 0, BuildingBlock: CUQRIR_clean_linker_1, # of connection points: 3
#     Node 10, Type 0, BuildingBlock: CUQRIR_clean_linker_1, # of connection points: 3
#     Node 11, Type 0, BuildingBlock: CUQRIR_clean_linker_1, # of connection points: 3
#     Node 12, Type 0, BuildingBlock: CUQRIR_clean_linker_1, # of connection points: 3
#     Node 13, Type 0, BuildingBlock: CUQRIR_clean_linker_1, # of connection points: 3
#     Node 14, Type 0, BuildingBlock: CUQRIR_clean_linker_1, # of connection points: 3
#     Node 15, Type 0, BuildingBlock: CUQRIR_clean_linker_1, # of connection points: 3
#     Node 16, Type 0, BuildingBlock: CUQRIR_clean_linker_1, # of connection points: 3
#     Node 17, Type 0, BuildingBlock: CUQRIR_clean_linker_1, # of connection points: 3
#     Node 18, Type 0, BuildingBlock: CUQRIR_clean_linker_1, # of connection points: 3
#     Node 19, Type 0, BuildingBlock: CUQRIR_clean_linker_1, # of connection points: 3
#     Node 20, Type 0, BuildingBlock: CUQRIR_clean_linker_1, # of connection points: 3
#     Node 21, Type 0, BuildingBlock: CUQRIR_clean_linker_1, # of connection points: 3
#     Node 22, Type 0, BuildingBlock: CUQRIR_clean_linker_1, # of connection points: 3
#     Node 23, Type 0, BuildingBlock: CUQRIR_clean_linker_1, # of connection points: 3
#     Node 24, Type 1, BuildingBlock: QEWDON_clean_sbu_0, # of connection points: 12
#     Node 25, Type 1, BuildingBlock: QEWDON_clean_sbu_0, # of connection points: 12
#     Node 26, Type 1, BuildingBlock: QEWDON_clean_sbu_0, # of connection points: 12
#     Node 27, Type 1, BuildingBlock: QEWDON_clean_sbu_0, # of connection points: 12
#     Node 28, Type 1, BuildingBlock: QEWDON_clean_sbu_0, # of connection points: 12
#     Node 29, Type 1, BuildingBlock: QEWDON_clean_sbu_0, # of connection points: 12
#     Edge 30, Type (0, 1), BuildingBlock: UVAHIK_clean_linker_0, # of connection points: 2
#     Edge 31, Type (0, 1), BuildingBlock: UVAHIK_clean_linker_0, # of connection points: 2
#     Edge 32, Type (0, 1), BuildingBlock: UVAHIK_clean_linker_0, # of connection points: 2
#     Edge 33, Type (0, 1), BuildingBlock: UVAHIK_clean_linker_0, # of connection points: 2
#     Edge 34, Type (0, 1), BuildingBlock: UVAHIK_clean_linker_0, # of connection points: 2
#     Edge 35, Type (0, 1), BuildingBlock: UVAHIK_clean_linker_0, # of connection points: 2
#     Edge 36, Type (0, 1), BuildingBlock: UVAHIK_clean_linker_0, # of connection points: 2
#     Edge 37, Type (0, 1), BuildingBlock: UVAHIK_clean_linker_0, # of connection points: 2
#     Edge 38, Type (0, 1), BuildingBlock: UVAHIK_clean_linker_0, # of connection points: 2
#     Edge 39, Type (0, 1), BuildingBlock: UVAHIK_clean_linker_0, # of connection points: 2
#     Edge 40, Type (0, 1), BuildingBlock: UVAHIK_clean_linker_0, # of connection points: 2
#     Edge 41, Type (0, 1), BuildingBlock: UVAHIK_clean_linker_0, # of connection points: 2
#     Edge 42, Type (0, 1), BuildingBlock: UVAHIK_clean_linker_0, # of connection points: 2
#     Edge 43, Type (0, 1), BuildingBlock: UVAHIK_clean_linker_0, # of connection points: 2
#     Edge 44, Type (0, 1), BuildingBlock: UVAHIK_clean_linker_0, # of connection points: 2
#     Edge 45, Type (0, 1), BuildingBlock: UVAHIK_clean_linker_0, # of connection points: 2
#     Edge 46, Type (0, 1), BuildingBlock: UVAHIK_clean_linker_0, # of connection points: 2
#     Edge 47, Type (0, 1), BuildingBlock: UVAHIK_clean_linker_0, # of connection points: 2
#     Edge 48, Type (0, 1), BuildingBlock: UVAHIK_clean_linker_0, # of connection points: 2
#     Edge 49, Type (0, 1), BuildingBlock: UVAHIK_clean_linker_0, # of connection points: 2
#     Edge 50, Type (0, 1), BuildingBlock: UVAHIK_clean_linker_0, # of connection points: 2
#     Edge 51, Type (0, 1), BuildingBlock: UVAHIK_clean_linker_0, # of connection points: 2
#     Edge 52, Type (0, 1), BuildingBlock: UVAHIK_clean_linker_0, # of connection points: 2
#     Edge 53, Type (0, 1), BuildingBlock: UVAHIK_clean_linker_0, # of connection points: 2
#     Edge 54, Type (0, 1), BuildingBlock: UVAHIK_clean_linker_0, # of connection points: 2
#     Edge 55, Type (0, 1), BuildingBlock: UVAHIK_clean_linker_0, # of connection points: 2
#     Edge 56, Type (0, 1), BuildingBlock: UVAHIK_clean_linker_0, # of connection points: 2
#     Edge 57, Type (0, 1), BuildingBlock: UVAHIK_clean_linker_0, # of connection points: 2
#     Edge 58, Type (0, 1), BuildingBlock: UVAHIK_clean_linker_0, # of connection points: 2
#     Edge 59, Type (0, 1), BuildingBlock: UVAHIK_clean_linker_0, # of connection points: 2
#     Edge 60, Type (0, 1), BuildingBlock: UVAHIK_clean_linker_0, # of connection points: 2
#     Edge 61, Type (0, 1), BuildingBlock: UVAHIK_clean_linker_0, # of connection points: 2
#     Edge 62, Type (0, 1), BuildingBlock: UVAHIK_clean_linker_0, # of connection points: 2
#     Edge 63, Type (0, 1), BuildingBlock: UVAHIK_clean_linker_0, # of connection points: 2
#     Edge 64, Type (0, 1), BuildingBlock: UVAHIK_clean_linker_0, # of connection points: 2
#     Edge 65, Type (0, 1), BuildingBlock: UVAHIK_clean_linker_0, # of connection points: 2
#     Edge 66, Type (0, 1), BuildingBlock: UVAHIK_clean_linker_0, # of connection points: 2
#     Edge 67, Type (0, 1), BuildingBlock: UVAHIK_clean_linker_0, # of connection points: 2
#     Edge 68, Type (0, 1), BuildingBlock: UVAHIK_clean_linker_0, # of connection points: 2
#     Edge 69, Type (0, 1), BuildingBlock: UVAHIK_clean_linker_0, # of connection points: 2
#     Edge 70, Type (0, 1), BuildingBlock: UVAHIK_clean_linker_0, # of connection points: 2
#     Edge 71, Type (0, 1), BuildingBlock: UVAHIK_clean_linker_0, # of connection points: 2
#     Edge 72, Type (0, 1), BuildingBlock: UVAHIK_clean_linker_0, # of connection points: 2
#     Edge 73, Type (0, 1), BuildingBlock: UVAHIK_clean_linker_0, # of connection points: 2
#     Edge 74, Type (0, 1), BuildingBlock: UVAHIK_clean_linker_0, # of connection points: 2
#     Edge 75, Type (0, 1), BuildingBlock: UVAHIK_clean_linker_0, # of connection points: 2
#     Edge 76, Type (0, 1), BuildingBlock: UVAHIK_clean_linker_0, # of connection points: 2
#     Edge 77, Type (0, 1), BuildingBlock: UVAHIK_clean_linker_0, # of connection points: 2
#     Edge 78, Type (0, 1), BuildingBlock: UVAHIK_clean_linker_0, # of connection points: 2
#     Edge 79, Type (0, 1), BuildingBlock: UVAHIK_clean_linker_0, # of connection points: 2
#     Edge 80, Type (0, 1), BuildingBlock: UVAHIK_clean_linker_0, # of connection points: 2
#     Edge 81, Type (0, 1), BuildingBlock: UVAHIK_clean_linker_0, # of connection points: 2
#     Edge 82, Type (0, 1), BuildingBlock: UVAHIK_clean_linker_0, # of connection points: 2
#     Edge 83, Type (0, 1), BuildingBlock: UVAHIK_clean_linker_0, # of connection points: 2
#     Edge 84, Type (0, 1), BuildingBlock: UVAHIK_clean_linker_0, # of connection points: 2
#     Edge 85, Type (0, 1), BuildingBlock: UVAHIK_clean_linker_0, # of connection points: 2
#     Edge 86, Type (0, 1), BuildingBlock: UVAHIK_clean_linker_0, # of connection points: 2
#     Edge 87, Type (0, 1), BuildingBlock: UVAHIK_clean_linker_0, # of connection points: 2
#     Edge 88, Type (0, 1), BuildingBlock: UVAHIK_clean_linker_0, # of connection points: 2
#     Edge 89, Type (0, 1), BuildingBlock: UVAHIK_clean_linker_0, # of connection points: 2
#     Edge 90, Type (0, 1), BuildingBlock: UVAHIK_clean_linker_0, # of connection points: 2
#     Edge 91, Type (0, 1), BuildingBlock: UVAHIK_clean_linker_0, # of connection points: 2
#     Edge 92, Type (0, 1), BuildingBlock: UVAHIK_clean_linker_0, # of connection points: 2
#     Edge 93, Type (0, 1), BuildingBlock: UVAHIK_clean_linker_0, # of connection points: 2
#     Edge 94, Type (0, 1), BuildingBlock: UVAHIK_clean_linker_0, # of connection points: 2
#     Edge 95, Type (0, 1), BuildingBlock: UVAHIK_clean_linker_0, # of connection points: 2
#     Edge 96, Type (0, 1), BuildingBlock: UVAHIK_clean_linker_0, # of connection points: 2
#     Edge 97, Type (0, 1), BuildingBlock: UVAHIK_clean_linker_0, # of connection points: 2
#     Edge 98, Type (0, 1), BuildingBlock: UVAHIK_clean_linker_0, # of connection points: 2
#     Edge 99, Type (0, 1), BuildingBlock: UVAHIK_clean_linker_0, # of connection points: 2
#     Edge 100, Type (0, 1), BuildingBlock: UVAHIK_clean_linker_0, # of connection points: 2
#     Edge 101, Type (0, 1), BuildingBlock: UVAHIK_clean_linker_0, # of connection points: 2
# Relax obj value: 0.112
# Max RMSD: 0.218
# Mean RMSD: 0.172
data_MOF--net-llk--node1-QEWDON_clean_sbu_0--node2-CUQRIR_clean_linker_1--edge1-UVAHIK_clean_linker_0
_symmetry_space_group_name_H-M    P1
_symmetry_Int_Tables_number       1
_symmetry_cell_setting            triclinic
loop_
_symmetry_equiv_pos_as_xyz
'x, y, z'
_cell_length_a     56.091274
_cell_length_b     57.27387
_cell_length_c     54.680499
_cell_angle_alpha  90.016601
_cell_angle_beta   89.984385
_cell_angle_gamma 89.688786
loop_
_atom_site_label
_atom_site_type_symbol
_atom_site_fract_x
_atom_site_fract_y
_atom_site_fract_z
_atom_type_partial_charge
C0 C 0.07957 0.25955 0.26981 0.0
N1 N 0.07716 0.28304 0.27186 0.0
N2 N 0.08227 0.24959 0.29217 0.0
C3 C 0.07689 0.24623 0.24631 0.0
C4 C 0.08119 0.2679 0.30783 0.0
N5 N 0.07793 0.28815 0.29554 0.0
C6 C 0.08116 0.26564 0.33528 0.0
H7 H 0.05827 0.24808 0.2397 0.0
H8 H 0.0812 0.22745 0.24875 0.0
H9 H 0.08877 0.25364 0.23213 0.0
H10 H 0.09549 0.25355 0.34128 0.0
H11 H 0.06388 0.25823 0.34125 0.0
H12 H 0.08389 0.28271 0.3444 0.0
C13 C 0.75778 0.09555 0.24376 0.0
N14 N 0.73506 0.09395 0.23546 0.0
N15 N 0.75811 0.0992 0.26822 0.0
C16 C 0.7798 0.09342 0.22825 0.0
C17 C 0.73479 0.09967 0.27458 0.0
N18 N 0.72078 0.09669 0.25469 0.0
C19 C 0.72572 0.09955 0.30056 0.0
H20 H 0.78597 0.07498 0.22824 0.0
H21 H 0.79432 0.10426 0.23597 0.0
H22 H 0.77615 0.09888 0.20914 0.0
H23 H 0.71739 0.11673 0.3046 0.0
H24 H 0.74008 0.09631 0.31406 0.0
H25 H 0.71183 0.08599 0.30285 0.0
C26 C 0.01543 0.76433 0.24512 0.0
N27 N 0.0224 0.7663 0.26877 0.0
N28 N 0.02028 0.74263 0.23654 0.0
C29 C 0.00464 0.78368 0.23017 0.0
C30 C 0.03031 0.73145 0.25581 0.0
N31 N 0.03182 0.7459 0.27531 0.0
C32 C 0.03617 0.70575 0.25639 0.0
H33 H 0.985 0.78349 0.23258 0.0
H34 H 0.00865 0.78121 0.21046 0.0
H35 H 0.01137 0.8009 0.23627 0.0
H36 H 0.05543 0.70337 0.25243 0.0
H37 H 0.02579 0.69596 0.24254 0.0
H38 H 0.03248 0.69821 0.27468 0.0
C39 C 0.23813 0.03043 0.22147 0.0
N40 N 0.26032 0.02854 0.23112 0.0
N41 N 0.22229 0.03709 0.23885 0.0
C42 C 0.23197 0.02669 0.19502 0.0
C43 C 0.23555 0.03885 0.25946 0.0
N44 N 0.25869 0.03402 0.25467 0.0
C45 C 0.22543 0.04252 0.28474 0.0
H46 H 0.21558 0.03652 0.19002 0.0
H47 H 0.22872 0.00784 0.1919 0.0
H48 H 0.24689 0.0322 0.18305 0.0
H49 H 0.20731 0.03499 0.28627 0.0
H50 H 0.22416 0.06154 0.2884 0.0
H51 H 0.23688 0.03444 0.29897 0.0
C52 C 0.0086 0.76186 0.76552 0.0
N53 N 0.00581 0.73854 0.76864 0.0
N54 N 0.00055 0.76851 0.74318 0.0
C55 C 0.02066 0.7778 0.78343 0.0
C56 C 0.99251 0.74851 0.73303 0.0
N57 N 0.99571 0.73038 0.74842 0.0
C58 C 0.98185 0.74656 0.70783 0.0
H59 H 0.00695 0.78559 0.79562 0.0
H60 H 0.02991 0.7922 0.77379 0.0
H61 H 0.03366 0.76803 0.79486 0.0
H62 H 0.99604 0.74135 0.69475 0.0
H63 H 0.97402 0.76343 0.70182 0.0
H64 H 0.96783 0.73299 0.70733 0.0
C65 C 0.28208 0.93856 0.7681 0.0
N66 N 0.30526 0.93529 0.77419 0.0
N67 N 0.27873 0.93433 0.74396 0.0
C68 C 0.26282 0.9463 0.78539 0.0
C69 C 0.30073 0.92871 0.73559 0.0
N70 N 0.31683 0.92919 0.75397 0.0
C71 C 0.30685 0.92618 0.70888 0.0
H72 H 0.24524 0.93963 0.77935 0.0
H73 H 0.26197 0.96566 0.78553 0.0
H74 H 0.26666 0.94017 0.80424 0.0
H75 H 0.30051 0.94181 0.69875 0.0
H76 H 0.29742 0.91083 0.70129 0.0
H77 H 0.32624 0.92388 0.70574 0.0
C78 C 0.01474 0.26426 0.75607 0.0
N79 N 0.01899 0.26352 0.73168 0.0
N80 N 0.01797 0.28619 0.76471 0.0
C81 C 0.00866 0.24348 0.77153 0.0
C82 C 0.02426 0.29871 0.74478 0.0
N83 N 0.02503 0.28491 0.72476 0.0
C84 C 0.02852 0.32463 0.74477 0.0
H85 H 0.98949 0.23943 0.7691 0.0
H86 H 0.01206 0.24696 0.79118 0.0
H87 H 0.01913 0.228 0.76555 0.0
H88 H 0.04791 0.32782 0.74683 0.0
H89 H 0.01909 0.33326 0.76018 0.0
H90 H 0.02255 0.33257 0.7273 0.0
C91 C 0.77866 0.09949 0.7844 0.0
N92 N 0.75505 0.09963 0.77921 0.0
N93 N 0.79152 0.10598 0.76461 0.0
C94 C 0.78936 0.09277 0.8086 0.0
C95 C 0.77487 0.10989 0.74711 0.0
N96 N 0.75268 0.10626 0.75604 0.0
C97 C 0.78034 0.11396 0.72045 0.0
H98 H 0.80674 0.10159 0.81129 0.0
H99 H 0.79251 0.07363 0.80889 0.0
H100 H 0.77712 0.09736 0.82383 0.0
H101 H 0.79929 0.11047 0.71596 0.0
H102 H 0.77615 0.1324 0.71588 0.0
H103 H 0.76902 0.1027 0.70877 0.0
C104 C 0.24959 0.25362 0.01866 0.0
N105 N 0.27288 0.25466 0.02516 0.0
N106 N 0.23872 0.27444 0.02263 0.0
C107 C 0.2377 0.23284 0.00734 0.0
C108 C 0.2562 0.28813 0.03173 0.0
N109 N 0.27692 0.27611 0.03339 0.0
C110 C 0.25373 0.31398 0.03623 0.0
H111 H 0.23949 0.23394 0.98716 0.0
H112 H 0.21842 0.23269 0.01188 0.0
H113 H 0.24617 0.21637 0.01366 0.0
H114 H 0.23481 0.3197 0.03614 0.0
H115 H 0.2636 0.32358 0.02184 0.0
H116 H 0.26168 0.3186 0.05412 0.0
C117 C 0.23185 0.77489 0.05468 0.0
N118 N 0.25584 0.77595 0.05746 0.0
N119 N 0.22362 0.75367 0.06165 0.0
C120 C 0.21646 0.79454 0.04549 0.0
C121 C 0.24353 0.74183 0.0684 0.0
N122 N 0.26301 0.75547 0.06623 0.0
C123 C 0.24429 0.71598 0.07382 0.0
H124 H 0.19787 0.79267 0.05212 0.0
H125 H 0.21634 0.79422 0.02521 0.0
H126 H 0.2237 0.81161 0.05147 0.0
H127 H 0.23072 0.70649 0.06299 0.0
H128 H 0.2404 0.71327 0.09351 0.0
H129 H 0.26197 0.70817 0.06974 0.0
C130 C 0.77266 0.24978 0.99618 0.0
N131 N 0.78536 0.26965 0.99816 0.0
N132 N 0.78738 0.23108 0.99443 0.0
C133 C 0.74586 0.24861 0.99699 0.0
C134 C 0.80956 0.24028 0.99551 0.0
N135 N 0.80833 0.26388 0.99748 0.0
C136 C 0.83223 0.22618 0.99566 0.0
H137 H 0.74006 0.24825 0.01639 0.0
H138 H 0.73907 0.2327 0.98788 0.0
H139 H 0.73783 0.26425 0.98821 0.0
H140 H 0.82898 0.2079 0.00138 0.0
H141 H 0.84555 0.23422 0.00802 0.0
H142 H 0.83976 0.22589 0.9769 0.0
C143 C 0.73836 0.72226 0.89595 0.0
N144 N 0.75351 0.70492 0.90257 0.0
N145 N 0.75052 0.74198 0.89061 0.0
C146 C 0.71156 0.72105 0.89813 0.0
C147 C 0.77363 0.73609 0.89469 0.0
N148 N 0.77545 0.71352 0.90193 0.0
C149 C 0.79426 0.75245 0.89173 0.0
H150 H 0.70395 0.71735 0.87981 0.0
H151 H 0.70404 0.7379 0.90462 0.0
H152 H 0.70579 0.70716 0.91089 0.0
H153 H 0.79004 0.76612 0.87799 0.0
H154 H 0.81054 0.74274 0.88612 0.0
H155 H 0.79786 0.76115 0.90947 0.0
C156 C 0.55116 0.73973 0.74731 0.0
N157 N 0.55306 0.76331 0.74794 0.0
N158 N 0.5549 0.73057 0.76988 0.0
C159 C 0.5464 0.72563 0.72471 0.0
C160 C 0.55884 0.74944 0.78423 0.0
N161 N 0.55797 0.76926 0.77086 0.0
C162 C 0.56116 0.74867 0.81167 0.0
H163 H 0.52685 0.72449 0.72192 0.0
H164 H 0.55367 0.70766 0.72662 0.0
H165 H 0.55431 0.73413 0.70841 0.0
H166 H 0.58018 0.74584 0.81646 0.0
H167 H 0.55066 0.73409 0.81944 0.0
H168 H 0.55514 0.76525 0.82021 0.0
C169 C 0.31023 0.559 0.74623 0.0
N170 N 0.28635 0.56169 0.74343 0.0
N171 N 0.31611 0.55897 0.77027 0.0
C172 C 0.32762 0.55504 0.72573 0.0
C173 C 0.29498 0.56182 0.78193 0.0
N174 N 0.27694 0.56356 0.76565 0.0
C175 C 0.29172 0.56078 0.80923 0.0
H176 H 0.32986 0.53598 0.72286 0.0
H177 H 0.3453 0.56239 0.73032 0.0
H178 H 0.32104 0.56301 0.7085 0.0
H179 H 0.30867 0.56426 0.81899 0.0
H180 H 0.28528 0.54315 0.81433 0.0
H181 H 0.27817 0.5737 0.81528 0.0
C182 C 0.45549 0.24392 0.75057 0.0
N183 N 0.45741 0.24503 0.77529 0.0
N184 N 0.44883 0.22227 0.74338 0.0
C185 C 0.46005 0.26381 0.73334 0.0
C186 C 0.44706 0.21014 0.76455 0.0
N187 N 0.45203 0.22399 0.78397 0.0
C188 C 0.44374 0.18405 0.76598 0.0
H189 H 0.45589 0.28079 0.74218 0.0
H190 H 0.44923 0.26187 0.71647 0.0
H191 H 0.47915 0.26365 0.72804 0.0
H192 H 0.45567 0.17632 0.78002 0.0
H193 H 0.44739 0.17534 0.74825 0.0
H194 H 0.42505 0.18037 0.77131 0.0
C195 C 0.70317 0.55477 0.75961 0.0
N196 N 0.72679 0.55842 0.76321 0.0
N197 N 0.69086 0.55805 0.78074 0.0
C198 C 0.69212 0.5485 0.73551 0.0
C199 C 0.70794 0.56347 0.79732 0.0
N200 N 0.72963 0.56399 0.78659 0.0
C201 C 0.70385 0.56521 0.82453 0.0
H202 H 0.70229 0.55637 0.72021 0.0
H203 H 0.67327 0.55442 0.73473 0.0
H204 H 0.6926 0.52924 0.73329 0.0
H205 H 0.6891 0.55366 0.8304 0.0
H206 H 0.699 0.58348 0.82918 0.0
H207 H 0.72004 0.56038 0.83504 0.0
C208 C 0.49707 0.27135 0.26455 0.0
N209 N 0.5024 0.24826 0.26655 0.0
N210 N 0.49649 0.27788 0.24069 0.0
C211 C 0.49204 0.28733 0.2857 0.0
C212 C 0.50176 0.25807 0.22835 0.0
N213 N 0.50535 0.24018 0.24398 0.0
C214 C 0.50328 0.25621 0.20094 0.0
H215 H 0.47285 0.28619 0.29043 0.0
H216 H 0.49608 0.30571 0.28094 0.0
H217 H 0.50258 0.28198 0.30195 0.0
H218 H 0.50982 0.27275 0.19286 0.0
H219 H 0.48519 0.2528 0.19358 0.0
H220 H 0.5152 0.24164 0.19532 0.0
C221 C 0.73913 0.4657 0.27352 0.0
N222 N 0.7617 0.47344 0.27669 0.0
N223 N 0.73464 0.46217 0.24946 0.0
C224 C 0.72126 0.46261 0.2937 0.0
C225 C 0.75507 0.46839 0.23813 0.0
N226 N 0.77147 0.47527 0.25466 0.0
C227 C 0.7587 0.46844 0.21088 0.0
H228 H 0.70276 0.46257 0.28653 0.0
H229 H 0.72321 0.47665 0.30753 0.0
H230 H 0.7247 0.44566 0.30289 0.0
H231 H 0.75386 0.48594 0.20365 0.0
H232 H 0.74722 0.45532 0.20183 0.0
H233 H 0.77763 0.46486 0.20624 0.0
C234 C 0.58227 0.76118 0.29739 0.0
N235 N 0.58338 0.76036 0.27264 0.0
N236 N 0.58743 0.78291 0.30559 0.0
C237 C 0.5763 0.74085 0.31355 0.0
C238 C 0.59136 0.79534 0.2849 0.0
N239 N 0.5892 0.78157 0.26491 0.0
C240 C 0.59413 0.82152 0.2841 0.0
H241 H 0.55664 0.73969 0.3154 0.0
H242 H 0.58409 0.74316 0.33205 0.0
H243 H 0.58292 0.72429 0.3054 0.0
H244 H 0.61341 0.82574 0.28439 0.0
H245 H 0.58551 0.83003 0.30005 0.0
H246 H 0.58627 0.82902 0.26722 0.0
C247 C 0.30264 0.61377 0.26671 0.0
N248 N 0.27889 0.61676 0.26325 0.0
N249 N 0.31462 0.61607 0.2453 0.0
C250 C 0.31412 0.60851 0.29091 0.0
C251 C 0.2972 0.62031 0.22866 0.0
N252 N 0.27556 0.62098 0.2396 0.0
C253 C 0.30106 0.62021 0.20133 0.0
H254 H 0.33288 0.61458 0.29114 0.0
H255 H 0.31402 0.58937 0.29401 0.0
H256 H 0.30401 0.61696 0.30599 0.0
H257 H 0.31517 0.60749 0.19615 0.0
H258 H 0.30692 0.63783 0.19553 0.0
H259 H 0.28464 0.61576 0.19112 0.0
C260 C 0.77679 0.77512 0.45884 0.0
N261 N 0.8005 0.77514 0.46405 0.0
N262 N 0.76863 0.79724 0.45554 0.0
C263 C 0.76185 0.75367 0.45551 0.0
C264 C 0.78807 0.81068 0.459 0.0
N265 N 0.80737 0.79732 0.46399 0.0
C266 C 0.7879 0.83698 0.45883 0.0
H267 H 0.74655 0.75727 0.44319 0.0
H268 H 0.75471 0.74826 0.47355 0.0
H269 H 0.77268 0.73909 0.44795 0.0
H270 H 0.80151 0.84406 0.4715 0.0
H271 H 0.77012 0.84397 0.46402 0.0
H272 H 0.79214 0.8431 0.44009 0.0
C273 C 0.74957 0.25578 0.52149 0.0
N274 N 0.77364 0.25584 0.51882 0.0
N275 N 0.74148 0.23362 0.524 0.0
C276 C 0.73421 0.27728 0.52344 0.0
C277 C 0.7614 0.22027 0.52248 0.0
N278 N 0.78088 0.23375 0.5197 0.0
C279 C 0.76169 0.19396 0.52167 0.0
H280 H 0.71792 0.27374 0.53432 0.0
H281 H 0.72872 0.28277 0.50481 0.0
H282 H 0.74422 0.29182 0.53198 0.0
H283 H 0.74494 0.18713 0.51368 0.0
H284 H 0.76353 0.18712 0.54056 0.0
H285 H 0.77696 0.18737 0.51071 0.0
C286 C 0.22719 0.74875 0.57123 0.0
N287 N 0.23914 0.76818 0.56459 0.0
N288 N 0.24206 0.73014 0.57253 0.0
C289 C 0.20064 0.74748 0.57508 0.0
C290 C 0.26362 0.73896 0.56633 0.0
N291 N 0.26191 0.7622 0.56183 0.0
C292 C 0.28586 0.72461 0.56284 0.0
H293 H 0.19311 0.76479 0.58006 0.0
H294 H 0.19634 0.73477 0.5897 0.0
H295 H 0.1921 0.74139 0.55794 0.0
H296 H 0.28181 0.70573 0.56138 0.0
H297 H 0.29776 0.72725 0.57879 0.0
H298 H 0.29553 0.73045 0.54624 0.0
C299 C 0.22817 0.25894 0.53812 0.0
N300 N 0.2406 0.23865 0.53899 0.0
N301 N 0.24214 0.27647 0.52995 0.0
C302 C 0.20172 0.26114 0.54255 0.0
C303 C 0.26342 0.26605 0.52537 0.0
N304 N 0.26249 0.243 0.53089 0.0
C305 C 0.28511 0.27853 0.51615 0.0
H306 H 0.19394 0.27616 0.53249 0.0
H307 H 0.19858 0.26381 0.56239 0.0
H308 H 0.1923 0.24505 0.53684 0.0
H309 H 0.28435 0.29734 0.52099 0.0
H310 H 0.28578 0.27699 0.49594 0.0
H311 H 0.30158 0.27057 0.52378 0.0
Zn312 Zn 0.96239 0.99403 0.46132 0.0
Zn313 Zn 0.97251 0.04819 0.47531 0.0
O314 O 0.98785 0.01649 0.47319 0.0
H315 H 0.00231 0.0119 0.48151 0.0
C316 C 0.9761 0.958 0.55009 0.0
O317 O 0.99043 0.96968 0.53561 0.0
Zn318 Zn 0.07201 0.03366 0.54297 0.0
Zn319 Zn 0.05738 0.9801 0.54766 0.0
O320 O 0.04368 0.01275 0.54525 0.0
H321 H 0.02884 0.01598 0.53696 0.0
Zn322 Zn 0.9826 1.00041 0.57771 0.0
O323 O 0.98313 0.02259 0.54868 0.0
Zn324 Zn 0.99211 0.05309 0.56339 0.0
H325 H 0.98375 0.01818 0.53163 0.0
Zn326 Zn 0.0682 0.98424 0.45157 0.0
O327 O 0.05474 0.00839 0.47448 0.0
H328 H 0.04616 0.00539 0.48947 0.0
Zn329 Zn 0.05623 0.03857 0.45648 0.0
C330 C 0.09372 0.95755 0.48793 0.0
O331 O 0.07542 0.96499 0.50081 0.0
O332 O 0.93201 0.01096 0.44971 0.0
O333 O 0.93872 0.04746 0.46157 0.0
O334 O 0.09231 0.97987 0.55877 0.0
O335 O 0.10132 0.01761 0.55787 0.0
O336 O 0.97402 0.0171 0.61024 0.0
O337 O 0.98119 0.05374 0.59894 0.0
C338 C 0.01166 0.06732 0.44772 0.0
O339 O 0.06923 0.99525 0.41572 0.0
O340 O 0.06339 0.03352 0.42033 0.0
O341 O 0.03709 0.95591 0.56615 0.0
C342 C 0.92548 0.03224 0.45138 0.0
O343 O 0.97176 0.9648 0.44074 0.0
C344 C 0.04452 0.06925 0.56747 0.0
O345 O 0.97007 0.96702 0.57044 0.0
C346 C 0.10683 0.99644 0.56275 0.0
O347 O 0.09511 0.96316 0.46549 0.0
C348 C 0.97011 0.07715 0.52222 0.0
O349 O 0.98972 0.07 0.45268 0.0
O350 O 0.0234 0.05213 0.45969 0.0
C351 C 0.97461 0.03891 0.615 0.0
O352 O 0.06574 0.06363 0.56169 0.0
O353 O 0.02783 0.05588 0.56042 0.0
C354 C 0.08488 0.05678 0.49547 0.0
O355 O 0.97559 0.07893 0.54469 0.0
O356 O 0.97578 0.05865 0.51067 0.0
C357 C 0.06729 0.01574 0.40678 0.0
O358 O 0.08057 0.0594 0.47281 0.0
O359 O 0.07452 0.04046 0.50694 0.0
C360 C 0.0275 0.96192 0.58627 0.0
O361 O 0.02956 0.98364 0.59371 0.0
C362 C 0.99288 0.95784 0.4363 0.0
O363 O 0.01097 0.96921 0.44573 0.0
Zn364 Zn 0.48518 0.05013 0.04316 0.0
Zn365 Zn 0.48729 0.04754 0.98492 0.0
O366 O 0.48863 0.0275 0.01481 0.0
H367 H 0.49616 0.01232 0.016 0.0
C368 C 0.54809 0.0557 0.08102 0.0
O369 O 0.53053 0.04673 0.06828 0.0
Zn370 Zn 0.55972 0.96321 0.9539 0.0
Zn371 Zn 0.59141 0.9583 0.0025 0.0
O372 O 0.56269 0.97459 0.98836 0.0
H373 H 0.55088 0.98349 0.9973 0.0
Zn374 Zn 0.57994 0.03895 0.04038 0.0
O375 O 0.55593 0.03541 0.01289 0.0
Zn376 Zn 0.57318 0.04246 0.98172 0.0
H377 H 0.54091 0.02732 0.01419 0.0
Zn378 Zn 0.49203 0.94804 0.03097 0.0
O379 O 0.50685 0.95282 0.99777 0.0
H380 H 0.52171 0.94536 0.9933 0.0
Zn381 Zn 0.47953 0.96075 0.97567 0.0
C382 C 0.51564 0.93222 0.07639 0.0
O383 O 0.50786 0.95236 0.08481 0.0
O384 O 0.47017 0.08144 0.03254 0.0
O385 O 0.46939 0.07796 0.99207 0.0
O386 O 0.60494 0.93277 0.9802 0.0
O387 O 0.58024 0.9337 0.94833 0.0
O388 O 0.61324 0.04902 0.0288 0.0
O389 O 0.60712 0.05321 0.98888 0.0
C390 C 0.46712 0.00812 0.9585 0.0
O391 O 0.4565 0.93986 0.02824 0.0
O392 O 0.44881 0.94551 0.98874 0.0
O393 O 0.61429 0.97655 0.02516 0.0
C394 C 0.46433 0.08924 0.01155 0.0
O395 O 0.47006 0.0372 0.07489 0.0
C396 C 0.57764 0.00811 0.93918 0.0
O397 O 0.56927 0.05431 0.07289 0.0
C398 C 0.59808 0.9248 0.95962 0.0
O399 O 0.5114 0.92675 0.05432 0.0
C400 C 0.53297 0.06929 0.96492 0.0
O401 O 0.46925 0.03021 0.95853 0.0
O402 O 0.47769 0.99604 0.97472 0.0
C403 C 0.62067 0.05455 0.00759 0.0
O404 O 0.57286 0.98785 0.93115 0.0
O405 O 0.57174 0.01321 0.96102 0.0
C406 C 0.50926 0.94942 0.93491 0.0
O407 O 0.55562 0.06828 0.96444 0.0
O408 O 0.52173 0.05313 0.97587 0.0
C409 C 0.44232 0.93885 0.01007 0.0
O410 O 0.48754 0.9487 0.94165 0.0
O411 O 0.5242 0.95845 0.94955 0.0
C412 C 0.60564 0.98858 0.04257 0.0
O413 O 0.58241 0.98912 0.04566 0.0
C414 C 0.45899 0.0179 0.07491 0.0
O415 O 0.4588 0.0052 0.0549 0.0
Zn416 Zn 0.95908 0.49272 0.96745 0.0
Zn417 Zn 0.96871 0.54723 0.9752 0.0
O418 O 0.98558 0.5162 0.97407 0.0
H419 H 0.00086 0.51263 0.98138 0.0
C420 C 0.96845 0.45186 0.03256 0.0
O421 O 0.96901 0.46863 0.0162 0.0
Zn422 Zn 0.05502 0.5532 0.04268 0.0
Zn423 Zn 0.06856 0.50289 0.06403 0.0
O424 O 0.04078 0.52172 0.05007 0.0
H425 H 0.02661 0.51533 0.04262 0.0
Zn426 Zn 0.9799 0.49105 0.06471 0.0
O427 O 0.96748 0.51518 0.04056 0.0
Zn428 Zn 0.96927 0.54448 0.05999 0.0
H429 H 0.956 0.51215 0.02779 0.0
Zn430 Zn 0.05914 0.48895 0.94378 0.0
O431 O 0.06049 0.51265 0.97163 0.0
H432 H 0.05731 0.50968 0.98871 0.0
Zn433 Zn 0.05622 0.54299 0.95429 0.0
C434 C 0.07507 0.44883 0.9729 0.0
O435 O 0.07549 0.46491 0.99002 0.0
O436 O 0.9294 0.50821 0.95214 0.0
O437 O 0.93705 0.54592 0.95739 0.0
O438 O 0.09544 0.5237 0.07711 0.0
O439 O 0.08609 0.55814 0.06092 0.0
O440 O 0.97063 0.50031 0.10014 0.0
O441 O 0.96027 0.53762 0.09518 0.0
C442 C 0.01011 0.56989 0.95234 0.0
O443 O 0.07107 0.50265 0.91098 0.0
O444 O 0.06905 0.54054 0.91963 0.0
O445 O 0.06374 0.47124 0.08233 0.0
C446 C 0.92374 0.52962 0.94941 0.0
O447 O 0.96715 0.45982 0.9533 0.0
C448 C 0.01165 0.57576 0.05935 0.0
O449 O 0.97344 0.45658 0.0547 0.0
C450 C 0.09966 0.54534 0.07405 0.0
O451 O 0.06839 0.45447 0.95148 0.0
C452 C 0.94828 0.5686 0.02131 0.0
O453 O 0.98836 0.57172 0.95847 0.0
O454 O 0.02127 0.55099 0.95679 0.0
C455 C 0.96235 0.51947 0.10862 0.0
O456 O 0.03341 0.57887 0.05417 0.0
O457 O 0.00283 0.55556 0.05663 0.0
C458 C 0.07282 0.5698 0.99477 0.0
O459 O 0.94706 0.56787 0.0445 0.0
O460 O 0.96339 0.55539 0.01068 0.0
C461 C 0.07415 0.52392 0.90493 0.0
O462 O 0.07471 0.56781 0.97174 0.0
O463 O 0.05967 0.5556 0.00635 0.0
C464 C 0.04689 0.46761 0.09741 0.0
O465 O 0.03072 0.48397 0.10083 0.0
C466 C 0.98727 0.44958 0.95463 0.0
O467 O 0.00491 0.45988 0.96611 0.0
Zn468 Zn 0.48742 0.47731 0.99909 0.0
Zn469 Zn 0.49 0.48061 0.05503 0.0
O470 O 0.48684 0.50172 0.02604 0.0
H471 H 0.47783 0.51613 0.02539 0.0
C472 C 0.55321 0.41012 0.94693 0.0
O473 O 0.56948 0.40189 0.96197 0.0
Zn474 Zn 0.55938 0.54527 0.06013 0.0
Zn475 Zn 0.54002 0.54178 0.00536 0.0
O476 O 0.53309 0.53084 0.0403 0.0
H477 H 0.52647 0.51582 0.04439 0.0
Zn478 Zn 0.56502 0.45232 0.97441 0.0
O479 O 0.54683 0.46533 0.00364 0.0
Zn480 Zn 0.56863 0.46328 0.03265 0.0
H481 H 0.53189 0.47377 0.00307 0.0
Zn482 Zn 0.48613 0.57048 0.0014 0.0
O483 O 0.51229 0.56967 0.02739 0.0
H484 H 0.5018 0.57021 0.01342 0.0
Zn485 Zn 0.49424 0.56673 0.05872 0.0
C486 C 0.51543 0.57807 0.9568 0.0
O487 O 0.53264 0.57986 0.97296 0.0
O488 O 0.4711 0.44684 0.01052 0.0
O489 O 0.46831 0.45279 0.05068 0.0
O490 O 0.57238 0.55743 0.00117 0.0
O491 O 0.58619 0.55834 0.03913 0.0
O492 O 0.59988 0.44382 0.983 0.0
O493 O 0.60127 0.45011 0.02325 0.0
C494 C 0.482 0.52117 0.08671 0.0
O495 O 0.4568 0.5886 0.01421 0.0
O496 O 0.46305 0.5849 0.05421 0.0
O497 O 0.52993 0.52542 0.9731 0.0
C498 C 0.46388 0.44059 0.03167 0.0
O499 O 0.48139 0.48849 0.96318 0.0
C500 C 0.57622 0.49883 0.07033 0.0
O501 O 0.5475 0.43161 0.94835 0.0
C502 C 0.58878 0.56223 0.01633 0.0
O503 O 0.49439 0.57388 0.9642 0.0
C504 C 0.53232 0.449 0.06424 0.0
O505 O 0.48159 0.49894 0.08558 0.0
O506 O 0.48894 0.53249 0.0679 0.0
C507 C 0.61112 0.44355 0.00328 0.0
O508 O 0.57351 0.5191 0.07936 0.0
O509 O 0.57076 0.49512 0.04809 0.0
C510 C 0.53336 0.58334 0.09383 0.0
O511 O 0.55304 0.44273 0.05745 0.0
O512 O 0.52348 0.46761 0.05512 0.0
C513 C 0.45075 0.59267 0.03629 0.0
O514 O 0.51221 0.58294 0.08545 0.0
O515 O 0.54993 0.57049 0.08499 0.0
C516 C 0.54672 0.51284 0.96463 0.0
O517 O 0.56495 0.5082 0.97896 0.0
C518 C 0.47453 0.50935 0.95922 0.0
O519 O 0.47209 0.52366 0.97784 0.0
Zn520 Zn 0.97899 0.50405 0.47775 0.0
Zn521 Zn 0.9701 0.559 0.48003 0.0
O522 O 0.99559 0.53475 0.48371 0.0
H523 H 0.00867 0.53626 0.49506 0.0
C524 C 0.91654 0.46096 0.52993 0.0
O525 O 0.91023 0.48044 0.51895 0.0
Zn526 Zn 0.05042 0.54593 0.55427 0.0
Zn527 Zn 0.06904 0.49534 0.54398 0.0
O528 O 0.03817 0.51361 0.5497 0.0
H529 H 0.02246 0.50951 0.54391 0.0
Zn530 Zn 0.94375 0.4932 0.56164 0.0
O531 O 0.94994 0.52061 0.53896 0.0
Zn532 Zn 0.95745 0.54613 0.56299 0.0
H533 H 0.94372 0.52231 0.52257 0.0
Zn534 Zn 0.06948 0.50831 0.44716 0.0
O535 O 0.05342 0.52698 0.47393 0.0
H536 H 0.04918 0.52094 0.48983 0.0
Zn537 Zn 0.05414 0.56073 0.46426 0.0
C538 C 0.09562 0.47436 0.47816 0.0
O539 O 0.08858 0.48829 0.49587 0.0
O540 O 0.94466 0.50799 0.46521 0.0
O541 O 0.94164 0.54652 0.46066 0.0
O542 O 0.09846 0.51112 0.55946 0.0
O543 O 0.08297 0.54521 0.57084 0.0
O544 O 0.92788 0.50392 0.59362 0.0
O545 O 0.93878 0.54113 0.59506 0.0
C546 C 0.00643 0.58938 0.46006 0.0
O547 O 0.08459 0.52946 0.42128 0.0
O548 O 0.07242 0.56519 0.4316 0.0
O549 O 0.06784 0.45974 0.55014 0.0
C550 C 0.93324 0.52597 0.45793 0.0
O551 O 0.99796 0.47803 0.45989 0.0
C552 C 0.00508 0.56215 0.57817 0.0
O553 O 0.93112 0.46183 0.54771 0.0
C554 C 0.10033 0.5307 0.57036 0.0
O555 O 0.08933 0.47884 0.45632 0.0
C556 C 0.94857 0.58067 0.52673 0.0
O557 O 0.98419 0.58797 0.46459 0.0
O558 O 0.01961 0.57189 0.4652 0.0
C559 C 0.92755 0.52377 0.60412 0.0
O560 O 0.02759 0.56428 0.57598 0.0
O561 O 0.99377 0.54763 0.56507 0.0
C562 C 0.07119 0.57271 0.51289 0.0
O563 O 0.94566 0.57692 0.5494 0.0
O564 O 0.95954 0.56519 0.5144 0.0
C565 C 0.08414 0.55142 0.41752 0.0
O566 O 0.07336 0.57682 0.49017 0.0
O567 O 0.05431 0.55978 0.52041 0.0
C568 C 0.05198 0.44606 0.54194 0.0
O569 O 0.03507 0.45443 0.52776 0.0
C570 C 0.0134 0.48284 0.44366 0.0
O571 O 0.01834 0.50481 0.4391 0.0
Zn572 Zn 0.46877 0.99167 0.47154 0.0
Zn573 Zn 0.45626 0.04568 0.48341 0.0
O574 O 0.48298 0.02227 0.48318 0.0
H575 H 0.49764 0.02374 0.4923 0.0
C576 C 0.4344 0.94166 0.52385 0.0
O577 O 0.4304 0.95927 0.50898 0.0
Zn578 Zn 0.54867 0.04852 0.53532 0.0
Zn579 Zn 0.5589 0.99623 0.5565 0.0
O580 O 0.53562 0.01583 0.53673 0.0
H581 H 0.52305 0.00971 0.52654 0.0
Zn582 Zn 0.47159 0.9727 0.54705 0.0
O583 O 0.46153 0.00422 0.5331 0.0
Zn584 Zn 0.46715 0.02767 0.55977 0.0
H585 H 0.46579 0.98846 0.53764 0.0
Zn586 Zn 0.54415 0.99386 0.43773 0.0
O587 O 0.54081 0.01788 0.46523 0.0
H588 H 0.54268 0.00516 0.45377 0.0
Zn589 Zn 0.53444 0.04893 0.4494 0.0
C590 C 0.57824 0.95652 0.42585 0.0
O591 O 0.57832 0.96822 0.40519 0.0
O592 O 0.43646 0.99651 0.4542 0.0
O593 O 0.42813 0.03341 0.46394 0.0
O594 O 0.58522 0.01609 0.57204 0.0
O595 O 0.57866 0.05142 0.5564 0.0
O596 O 0.47927 0.97501 0.58382 0.0
O597 O 0.46904 0.01162 0.59297 0.0
C598 C 0.48675 0.07637 0.45576 0.0
O599 O 0.54514 0.00927 0.40344 0.0
O600 O 0.53936 0.04676 0.41261 0.0
O601 O 0.54725 0.96812 0.57756 0.0
C602 C 0.42282 0.01436 0.45312 0.0
O603 O 0.49136 0.96637 0.45674 0.0
C604 C 0.50435 0.06451 0.5565 0.0
O605 O 0.4507 0.94334 0.5399 0.0
C606 C 0.59057 0.03761 0.57017 0.0
O607 O 0.56501 0.9637 0.44323 0.0
C608 C 0.43697 0.05949 0.53662 0.0
O609 O 0.46658 0.07532 0.46636 0.0
O610 O 0.50092 0.05908 0.45837 0.0
C611 C 0.47556 0.99111 0.59948 0.0
O612 O 0.5249 0.07105 0.54976 0.0
O613 O 0.49832 0.04341 0.55292 0.0
C614 C 0.56055 0.07296 0.4865 0.0
O615 O 0.44131 0.05214 0.55811 0.0
O616 O 0.44839 0.04996 0.51915 0.0
C617 C 0.54322 0.0306 0.39699 0.0
O618 O 0.55652 0.07285 0.46365 0.0
O619 O 0.55233 0.05633 0.49939 0.0
C620 C 0.54962 0.9471 0.57045 0.0
O621 O 0.55837 0.94299 0.54856 0.0
C622 C 0.50007 0.94955 0.46908 0.0
O623 O 0.49517 0.94805 0.49252 0.0
C624 C 0.23181 0.19894 0.52459 0.0
C625 C 0.23064 0.21588 0.54306 0.0
C626 C 0.21866 0.1784 0.52658 0.0
C627 C 0.16229 0.16002 0.55152 0.0
H628 H 0.18133 0.09912 0.52708 0.0
C629 C 0.09924 0.09717 0.50253 0.0
C630 C 0.10056 0.07331 0.50814 0.0
C631 C 0.11521 0.1128 0.51307 0.0
C632 C 0.17583 0.11591 0.53435 0.0
H633 H 0.21641 0.22425 0.57874 0.0
H634 H 0.19287 0.18839 0.58215 0.0
H635 H 0.21164 0.12882 0.53479 0.0
H636 H 0.11964 0.04691 0.52863 0.0
H637 H 0.14792 0.07431 0.54706 0.0
H638 H 0.12639 0.14753 0.54987 0.0
C639 C 0.20392 0.19098 0.56614 0.0
C640 C 0.19313 0.13291 0.5386 0.0
C641 C 0.21732 0.21139 0.56424 0.0
C642 C 0.11793 0.06532 0.52463 0.0
C643 C 0.13421 0.08092 0.5349 0.0
C644 C 0.145 0.14313 0.54699 0.0
C645 C 0.20392 0.17462 0.54698 0.0
C646 C 0.18645 0.15532 0.54661 0.0
C647 C 0.1331 0.10478 0.52903 0.0
C648 C 0.15155 0.12115 0.53774 0.0
H649 H 0.24174 0.20224 0.50798 0.0
H650 H 0.21879 0.16625 0.5114 0.0
H651 H 0.15658 0.1772 0.55747 0.0
H652 H 0.08602 0.10367 0.48975 0.0
H653 H 0.11417 0.13105 0.50797 0.0
C654 C 0.81749 0.22708 0.49572 0.0
C655 C 0.80495 0.22534 0.51783 0.0
C656 C 0.83853 0.21418 0.49225 0.0
C657 C 0.86223 0.15864 0.51224 0.0
H658 H 0.92348 0.17737 0.48611 0.0
C659 C 0.93431 0.09026 0.49933 0.0
C660 C 0.95578 0.09579 0.51094 0.0
C661 C 0.91781 0.10778 0.49372 0.0
C662 C 0.90638 0.17193 0.49326 0.0
H663 H 0.805 0.21077 0.55421 0.0
H664 H 0.8418 0.18836 0.54841 0.0
H665 H 0.89149 0.20657 0.49107 0.0
H666 H 0.97743 0.12385 0.52519 0.0
H667 H 0.94843 0.15459 0.51578 0.0
H668 H 0.87682 0.12435 0.51515 0.0
C669 C 0.83539 0.19931 0.53363 0.0
C670 C 0.88815 0.18858 0.49603 0.0
C671 C 0.81452 0.21215 0.53704 0.0
C672 C 0.96108 0.11926 0.51583 0.0
C673 C 0.94454 0.13683 0.51033 0.0
C674 C 0.88022 0.14209 0.50929 0.0
C675 C 0.84702 0.19942 0.51088 0.0
C676 C 0.86612 0.1821 0.5061 0.0
C677 C 0.92231 0.13113 0.50015 0.0
C678 C 0.90263 0.14854 0.50012 0.0
H679 H 0.81015 0.23714 0.48071 0.0
H680 H 0.84722 0.21453 0.47456 0.0
H681 H 0.84526 0.15313 0.51969 0.0
H682 H 0.92926 0.07226 0.49673 0.0
H683 H 0.90084 0.10285 0.48586 0.0
C684 C 0.84465 0.81741 0.4541 0.0
C685 C 0.83031 0.80594 0.47118 0.0
C686 C 0.86496 0.82938 0.46171 0.0
C687 C 0.90407 0.84144 0.51591 0.0
H688 H 0.91157 0.90104 0.48325 0.0
C689 C 0.95116 0.92241 0.55741 0.0
C690 C 0.96512 0.93602 0.54156 0.0
C691 C 0.93857 0.90318 0.54848 0.0
C692 C 0.90998 0.88431 0.49234 0.0
H693 H 0.82581 0.7971 0.50922 0.0
H694 H 0.86083 0.81877 0.52301 0.0
H695 H 0.88259 0.87341 0.46799 0.0
H696 H 0.97789 0.93932 0.50425 0.0
H697 H 0.95576 0.90596 0.48873 0.0
H698 H 0.93082 0.85327 0.54107 0.0
C699 C 0.85704 0.81806 0.50361 0.0
C700 C 0.8934 0.86834 0.48352 0.0
C701 C 0.83697 0.8057 0.49585 0.0
C702 C 0.96718 0.92931 0.51692 0.0
C703 C 0.95444 0.91025 0.50798 0.0
C704 C 0.9205 0.85764 0.52495 0.0
C705 C 0.87093 0.83065 0.48671 0.0
C706 C 0.89005 0.84672 0.49524 0.0
C707 C 0.93955 0.89733 0.52353 0.0
C708 C 0.92349 0.8793 0.51331 0.0
H709 H 0.83961 0.8177 0.43499 0.0
H710 H 0.87551 0.83829 0.44805 0.0
H711 H 0.90226 0.82488 0.52524 0.0
H712 H 0.9494 0.92703 0.57654 0.0
H713 H 0.92716 0.89359 0.56086 0.0
C714 C 0.23468 0.81095 0.56913 0.0
C715 C 0.22848 0.79003 0.55746 0.0
C716 C 0.22259 0.83172 0.56335 0.0
C717 C 0.1644 0.85094 0.54267 0.0
H718 H 0.19359 0.90882 0.52174 0.0
C719 C 0.10776 0.93222 0.52232 0.0
C720 C 0.1118 0.94204 0.49915 0.0
C721 C 0.12399 0.91626 0.53224 0.0
C722 C 0.18527 0.89278 0.52771 0.0
H723 H 0.2064 0.77437 0.52961 0.0
H724 H 0.18483 0.81037 0.51991 0.0
H725 H 0.21892 0.87542 0.53325 0.0
H726 H 0.13658 0.94372 0.46874 0.0
H727 H 0.16494 0.91579 0.48614 0.0
H728 H 0.13085 0.86784 0.5368 0.0
C729 C 0.19873 0.81079 0.53367 0.0
C730 C 0.19972 0.8738 0.5344 0.0
C731 C 0.21096 0.79027 0.5392 0.0
C732 C 0.1329 0.93632 0.48656 0.0
C733 C 0.14924 0.92051 0.49661 0.0
C734 C 0.15004 0.86991 0.53634 0.0
C735 C 0.20407 0.83159 0.54602 0.0
C736 C 0.18933 0.85258 0.5414 0.0
C737 C 0.14468 0.90996 0.51931 0.0
C738 C 0.16028 0.89088 0.52837 0.0
H739 H 0.24832 0.81102 0.58314 0.0
H740 H 0.22704 0.84761 0.57302 0.0
H741 H 0.15601 0.83478 0.54819 0.0
H742 H 0.09174 0.93633 0.53254 0.0
H743 H 0.12015 0.90854 0.54988 0.0
C744 C 0.53306 0.20824 0.23453 0.0
C745 C 0.50964 0.21637 0.23709 0.0
C746 C 0.53763 0.1869 0.22309 0.0
C747 C 0.50912 0.13354 0.19695 0.0
H748 H 0.56114 0.13831 0.15055 0.0
C749 C 0.52008 0.07521 0.11061 0.0
C750 C 0.54342 0.06899 0.10374 0.0
C751 C 0.51615 0.08996 0.13065 0.0
C752 C 0.5468 0.13646 0.16367 0.0
H753 H 0.47257 0.209 0.23033 0.0
H754 H 0.48031 0.17178 0.20963 0.0
H755 H 0.55423 0.16964 0.17947 0.0
H756 H 0.58079 0.07198 0.11352 0.0
H757 H 0.5739 0.09746 0.1484 0.0
H758 H 0.50128 0.10056 0.18018 0.0
C759 C 0.49522 0.18135 0.21712 0.0
C760 C 0.54286 0.15444 0.18038 0.0
C761 C 0.49071 0.2026 0.22888 0.0
C762 C 0.5626 0.07674 0.11807 0.0
C763 C 0.55868 0.09139 0.13805 0.0
C764 C 0.513 0.11553 0.18006 0.0
C765 C 0.51881 0.17361 0.21338 0.0
C766 C 0.5239 0.15333 0.19715 0.0
C767 C 0.53549 0.0987 0.14416 0.0
C768 C 0.53182 0.1169 0.16315 0.0
H769 H 0.54785 0.21901 0.24025 0.0
H770 H 0.55598 0.1813 0.22091 0.0
H771 H 0.49447 0.13204 0.20975 0.0
H772 H 0.50492 0.06943 0.09998 0.0
H773 H 0.49807 0.09538 0.13485 0.0
C774 C 0.81491 0.46986 0.25759 0.0
C775 C 0.79527 0.48296 0.24953 0.0
C776 C 0.83796 0.47596 0.25033 0.0
C777 C 0.87415 0.52284 0.22239 0.0
H778 H 0.90594 0.47199 0.1886 0.0
C779 C 0.93521 0.5369 0.14006 0.0
C780 C 0.9519 0.51962 0.13348 0.0
C781 C 0.92135 0.53436 0.16109 0.0
C782 C 0.89785 0.48637 0.19849 0.0
H783 H 0.78387 0.51328 0.22913 0.0
H784 H 0.82417 0.52419 0.21638 0.0
H785 H 0.87133 0.46398 0.2137 0.0
H786 H 0.96909 0.48754 0.14527 0.0
H787 H 0.94552 0.48355 0.18246 0.0
H788 H 0.90034 0.54535 0.20669 0.0
C789 C 0.82193 0.50924 0.22826 0.0
C790 C 0.87787 0.48172 0.21286 0.0
C791 C 0.79893 0.50295 0.23529 0.0
C792 C 0.95606 0.50094 0.14962 0.0
C793 C 0.94242 0.49858 0.17086 0.0
C794 C 0.89435 0.52748 0.20824 0.0
C795 C 0.84163 0.49547 0.23519 0.0
C796 C 0.86531 0.5 0.22421 0.0
C797 C 0.92409 0.51466 0.17624 0.0
C798 C 0.90591 0.50941 0.19532 0.0
H799 H 0.81226 0.45442 0.26866 0.0
H800 H 0.85284 0.46512 0.256 0.0
H801 H 0.86494 0.53721 0.23124 0.0
H802 H 0.93161 0.55157 0.12809 0.0
H803 H 0.90735 0.54706 0.16443 0.0
C804 C 0.56514 0.78864 0.22814 0.0
C805 C 0.58715 0.78982 0.24017 0.0
C806 C 0.56141 0.80099 0.20646 0.0
C807 C 0.58248 0.85439 0.17721 0.0
H808 H 0.53946 0.83565 0.1254 0.0
C809 C 0.53162 0.92071 0.11747 0.0
C810 C 0.52807 0.91547 0.09265 0.0
C811 C 0.54218 0.90433 0.13307 0.0
C812 C 0.55178 0.84109 0.13952 0.0
H813 H 0.62299 0.80328 0.23858 0.0
H814 H 0.61673 0.8248 0.20031 0.0
H815 H 0.55276 0.80693 0.15544 0.0
H816 H 0.5335 0.88916 0.06457 0.0
H817 H 0.55206 0.8607 0.09178 0.0
H818 H 0.58131 0.88858 0.16147 0.0
C819 C 0.60222 0.81462 0.20774 0.0
C820 C 0.55923 0.82466 0.15685 0.0
C821 C 0.60591 0.80221 0.22943 0.0
C822 C 0.53584 0.89371 0.08364 0.0
C823 C 0.54638 0.87734 0.09924 0.0
C824 C 0.57502 0.87079 0.1599 0.0
C825 C 0.57966 0.81481 0.19649 0.0
C826 C 0.57429 0.83124 0.17618 0.0
C827 C 0.54945 0.88236 0.12419 0.0
C828 C 0.5592 0.86445 0.14116 0.0
H829 H 0.55037 0.77945 0.23642 0.0
H830 H 0.54375 0.80094 0.19846 0.0
H831 H 0.59386 0.86013 0.192 0.0
H832 H 0.52583 0.93729 0.125 0.0
H833 H 0.544 0.90865 0.15227 0.0
C834 C 0.24521 0.637 0.21159 0.0
C835 C 0.25314 0.61907 0.22707 0.0
C836 C 0.22573 0.6334 0.1961 0.0
C837 C 0.17568 0.59268 0.18376 0.0
H838 H 0.18657 0.60893 0.11578 0.0
C839 C 0.13092 0.54319 0.10643 0.0
C840 C 0.11884 0.55633 0.08857 0.0
C841 C 0.14615 0.55403 0.12296 0.0
C842 C 0.18315 0.60459 0.13474 0.0
H843 H 0.24701 0.58375 0.23923 0.0
H844 H 0.21292 0.57733 0.21256 0.0
H845 H 0.21375 0.62327 0.14731 0.0
H846 H 0.11457 0.59102 0.07304 0.0
H847 H 0.14173 0.60992 0.10191 0.0
H848 H 0.14577 0.57313 0.17105 0.0
C849 C 0.2213 0.59432 0.21246 0.0
C850 C 0.1986 0.61287 0.15282 0.0
C851 C 0.24076 0.59793 0.22779 0.0
C852 C 0.1235 0.5804 0.08668 0.0
C853 C 0.13901 0.59125 0.10317 0.0
C854 C 0.16042 0.58427 0.16572 0.0
C855 C 0.21391 0.61179 0.19599 0.0
C856 C 0.19541 0.60643 0.17745 0.0
C857 C 0.14985 0.57822 0.12191 0.0
C858 C 0.16442 0.58959 0.14099 0.0
H859 H 0.25479 0.65335 0.21077 0.0
H860 H 0.22032 0.64725 0.18378 0.0
H861 H 0.17244 0.58781 0.20261 0.0
H862 H 0.12792 0.52461 0.10836 0.0
H863 H 0.15473 0.54353 0.13693 0.0
C864 C 0.53548 0.80495 0.78022 0.0
C865 C 0.55704 0.79258 0.78044 0.0
C866 C 0.53354 0.82636 0.79227 0.0
C867 C 0.56255 0.85928 0.84234 0.0
H868 H 0.51476 0.90557 0.82493 0.0
C869 C 0.54073 0.93804 0.9043 0.0
C870 C 0.51679 0.93789 0.91188 0.0
C871 C 0.54819 0.92445 0.88446 0.0
C872 C 0.52831 0.89287 0.82986 0.0
H873 H 0.59382 0.79289 0.79193 0.0
H874 H 0.59101 0.83097 0.81221 0.0
H875 H 0.52439 0.87424 0.79625 0.0
H876 H 0.48146 0.92508 0.90302 0.0
H877 H 0.49442 0.90184 0.86808 0.0
H878 H 0.56638 0.87808 0.87596 0.0
C879 C 0.57527 0.82396 0.80349 0.0
C880 C 0.53372 0.8748 0.81357 0.0
C881 C 0.57704 0.80232 0.79176 0.0
C882 C 0.50012 0.92536 0.89793 0.0
C883 C 0.50749 0.91213 0.87783 0.0
C884 C 0.55745 0.87761 0.8584 0.0
C885 C 0.5533 0.83598 0.80451 0.0
C886 C 0.55033 0.85728 0.81994 0.0
C887 C 0.53169 0.91099 0.87139 0.0
C888 C 0.53977 0.89412 0.85262 0.0
H889 H 0.51987 0.79745 0.77169 0.0
H890 H 0.5162 0.83473 0.79294 0.0
H891 H 0.57517 0.84606 0.84817 0.0
H892 H 0.55381 0.94821 0.91394 0.0
H893 H 0.56691 0.92412 0.87958 0.0
C894 C 0.23989 0.579 0.78386 0.0
C895 C 0.25204 0.56124 0.77133 0.0
C896 C 0.21648 0.57557 0.79181 0.0
C897 C 0.17778 0.52771 0.81051 0.0
H898 H 0.12923 0.57602 0.8144 0.0
C899 C 0.09285 0.51142 0.86534 0.0
C900 C 0.0868 0.52933 0.88183 0.0
C901 C 0.10868 0.51562 0.84612 0.0
C902 C 0.14261 0.56235 0.81349 0.0
H903 H 0.24939 0.5266 0.75602 0.0
H904 H 0.20825 0.52049 0.76962 0.0
H905 H 0.16573 0.58308 0.79114 0.0
H906 H 0.09109 0.56622 0.88975 0.0
H907 H 0.11908 0.57336 0.85675 0.0
H908 H 0.15547 0.50733 0.83366 0.0
C909 C 0.2168 0.53696 0.77365 0.0
C910 C 0.16349 0.5664 0.80015 0.0
C911 C 0.24018 0.54045 0.76574 0.0
C912 C 0.09548 0.55195 0.87751 0.0
C913 C 0.11148 0.5561 0.85842 0.0
C914 C 0.15703 0.52371 0.82391 0.0
C915 C 0.20489 0.55426 0.78733 0.0
C916 C 0.1815 0.54926 0.79891 0.0
C917 C 0.11898 0.53778 0.84306 0.0
C918 C 0.13937 0.54112 0.82599 0.0
H919 H 0.24884 0.5952 0.78813 0.0
H920 H 0.2079 0.58916 0.80247 0.0
H921 H 0.19144 0.51427 0.81029 0.0
H922 H 0.08622 0.49386 0.8679 0.0
H923 H 0.11358 0.50125 0.83423 0.0
C924 C 0.47926 0.21864 0.81884 0.0
C925 C 0.45663 0.21581 0.80845 0.0
C926 C 0.48527 0.20711 0.84046 0.0
C927 C 0.46166 0.16906 0.89071 0.0
H928 H 0.52561 0.14325 0.88716 0.0
C929 C 0.49748 0.08744 0.94392 0.0
C930 C 0.52074 0.08929 0.95323 0.0
C931 C 0.48751 0.1057 0.93018 0.0
C932 C 0.5078 0.15054 0.88862 0.0
H933 H 0.42202 0.20007 0.8131 0.0
H934 H 0.43278 0.17874 0.85024 0.0
H935 H 0.51241 0.17062 0.85627 0.0
H936 H 0.55127 0.11216 0.95666 0.0
H937 H 0.53404 0.14372 0.93261 0.0
H938 H 0.45703 0.14768 0.92269 0.0
C939 C 0.44579 0.19031 0.84217 0.0
C940 C 0.50023 0.16642 0.87096 0.0
C941 C 0.43963 0.20233 0.8208 0.0
C942 C 0.53339 0.11009 0.94952 0.0
C943 C 0.52354 0.12819 0.93578 0.0
C944 C 0.46921 0.15282 0.90832 0.0
C945 C 0.46901 0.19189 0.85178 0.0
C946 C 0.47709 0.17598 0.87173 0.0
C947 C 0.50081 0.12593 0.92537 0.0
C948 C 0.49241 0.14349 0.90741 0.0
H949 H 0.49277 0.22872 0.80953 0.0
H950 H 0.50309 0.20933 0.84768 0.0
H951 H 0.44377 0.17614 0.89199 0.0
H952 H 0.48749 0.07149 0.94613 0.0
H953 H 0.47001 0.10346 0.92219 0.0
C954 C 0.75828 0.58451 0.81293 0.0
C955 C 0.75205 0.56479 0.79922 0.0
C956 C 0.77855 0.58407 0.82779 0.0
C957 C 0.8336 0.54959 0.84083 0.0
H958 H 0.82596 0.5743 0.90647 0.0
C959 C 0.89153 0.5184 0.92026 0.0
C960 C 0.90261 0.53566 0.93448 0.0
C961 C 0.87365 0.52438 0.9037 0.0
C962 C 0.8284 0.56756 0.88812 0.0
H963 H 0.76177 0.52944 0.78969 0.0
H964 H 0.79705 0.52833 0.81571 0.0
H965 H 0.79479 0.58107 0.87603 0.0
H966 H 0.90264 0.57258 0.94341 0.0
H967 H 0.87084 0.58293 0.91463 0.0
H968 H 0.86674 0.53527 0.85328 0.0
C969 C 0.7868 0.54438 0.81475 0.0
C970 C 0.81065 0.57152 0.87063 0.0
C971 C 0.76664 0.54492 0.79986 0.0
C972 C 0.89454 0.55891 0.93263 0.0
C973 C 0.87637 0.56485 0.91622 0.0
C974 C 0.85115 0.54542 0.85835 0.0
C975 C 0.79278 0.56381 0.82924 0.0
C976 C 0.81283 0.56214 0.84691 0.0
C977 C 0.86624 0.5477 0.90117 0.0
C978 C 0.84848 0.55394 0.88228 0.0
H979 H 0.74705 0.59994 0.81259 0.0
H980 H 0.78282 0.59942 0.83846 0.0
H981 H 0.83612 0.54259 0.8226 0.0
H982 H 0.89724 0.50032 0.92123 0.0
H983 H 0.86579 0.51077 0.89258 0.0
C984 C 0.73249 0.6674 0.90231 0.0
C985 C 0.74667 0.68367 0.91458 0.0
C986 C 0.72177 0.64923 0.91522 0.0
C987 C 0.69941 0.63866 0.97694 0.0
H988 H 0.68145 0.5789 0.94943 0.0
C989 C 0.6292 0.57987 0.023 0.0
C990 C 0.61132 0.57213 0.00697 0.0
C991 C 0.65017 0.58967 0.01382 0.0
C992 C 0.6864 0.59551 0.95738 0.0
H993 H 0.76221 0.69322 0.9493 0.0
H994 H 0.74416 0.661 0.97192 0.0
H995 H 0.71195 0.60227 0.92918 0.0
H996 H 0.60175 0.56804 0.9687 0.0
H997 H 0.63804 0.58524 0.95286 0.0
H998 H 0.67329 0.63233 0.0046 0.0
C999 C 0.7409 0.66241 0.95246 0.0
C1000 C 0.70384 0.60888 0.9458 0.0
C1001 C 0.75145 0.68065 0.93954 0.0
C1002 C 0.61509 0.5739 0.98161 0.0
C1003 C 0.63603 0.58354 0.97248 0.0
C1004 C 0.68205 0.62527 0.98854 0.0
C1005 C 0.72517 0.64705 0.94063 0.0
C1006 C 0.71 0.63093 0.95503 0.0
C1007 C 0.65371 0.59172 0.98845 0.0
C1008 C 0.67483 0.60391 0.97846 0.0
H1009 H 0.7286 0.66965 0.88306 0.0
H1010 H 0.70959 0.63789 0.90556 0.0
H1011 H 0.70343 0.65571 0.98438 0.0
H1012 H 0.6269 0.57864 0.04263 0.0
H1013 H 0.66356 0.59575 0.02655 0.0
C1014 C 0.29963 0.74437 0.04469 0.0
C1015 C 0.28718 0.74713 0.0667 0.0
C1016 C 0.32028 0.73068 0.04385 0.0
C1017 C 0.34589 0.68045 0.07648 0.0
H1018 H 0.39768 0.68835 0.03032 0.0
C1019 C 0.42388 0.61418 0.0654 0.0
C1020 C 0.43078 0.60904 0.04124 0.0
C1021 C 0.40727 0.6319 0.07016 0.0
C1022 C 0.38324 0.68587 0.0432 0.0
H1023 H 0.28709 0.73966 0.10537 0.0
H1024 H 0.32376 0.7162 0.10431 0.0
H1025 H 0.36926 0.72017 0.03677 0.0
H1026 H 0.42484 0.61791 0.0031 0.0
H1027 H 0.39582 0.64864 0.01147 0.0
H1028 H 0.35982 0.64607 0.08273 0.0
C1029 C 0.31737 0.72409 0.08753 0.0
C1030 C 0.367 0.70411 0.04694 0.0
C1031 C 0.29664 0.7377 0.08828 0.0
C1032 C 0.42001 0.62141 0.02193 0.0
C1033 C 0.40355 0.6392 0.02671 0.0
C1034 C 0.36223 0.66228 0.07285 0.0
C1035 C 0.32885 0.71958 0.06511 0.0
C1036 C 0.34787 0.70147 0.06331 0.0
C1037 C 0.39734 0.64492 0.05088 0.0
C1038 C 0.38081 0.66465 0.05585 0.0
H1039 H 0.29231 0.7513 0.02785 0.0
H1040 H 0.32849 0.72747 0.02624 0.0
H1041 H 0.33114 0.67761 0.08889 0.0
H1042 H 0.43182 0.605 0.08072 0.0
H1043 H 0.40281 0.63593 0.08898 0.0
C1044 C 0.3067 0.29775 0.05746 0.0
C1045 C 0.30008 0.28648 0.03577 0.0
C1046 C 0.32777 0.31067 0.05844 0.0
C1047 C 0.36625 0.3433 0.01682 0.0
H1048 H 0.40801 0.34918 0.07297 0.0
C1049 C 0.44615 0.40455 0.01358 0.0
C1050 C 0.44932 0.41923 0.0339 0.0
C1051 C 0.43086 0.38549 0.01489 0.0
C1052 C 0.39641 0.34778 0.0572 0.0
H1053 H 0.3104 0.27858 0.99861 0.0
H1054 H 0.34758 0.30057 0.00033 0.0
H1055 H 0.37597 0.32029 0.07347 0.0
H1056 H 0.43987 0.42461 0.072 0.0
H1057 H 0.41267 0.39158 0.07409 0.0
H1058 H 0.38602 0.37104 0.00073 0.0
C1059 C 0.33642 0.29989 0.01648 0.0
C1060 C 0.37812 0.33124 0.05749 0.0
C1061 C 0.31535 0.28714 0.01552 0.0
C1062 C 0.43768 0.41376 0.05594 0.0
C1063 C 0.42222 0.39471 0.0572 0.0
C1064 C 0.38441 0.35978 0.01655 0.0
C1065 C 0.34249 0.31242 0.03768 0.0
C1066 C 0.36281 0.3289 0.03729 0.0
C1067 C 0.41821 0.38071 0.03649 0.0
C1068 C 0.39968 0.36229 0.03674 0.0
H1069 H 0.29513 0.2972 0.07329 0.0
H1070 H 0.33189 0.32019 0.075 0.0
H1071 H 0.35441 0.34236 0.0012 0.0
H1072 H 0.45514 0.40801 0.99643 0.0
H1073 H 0.42859 0.37472 0.99878 0.0
C1074 C 0.77806 0.30876 0.98104 0.0
C1075 C 0.77567 0.29282 0.0003 0.0
C1076 C 0.76571 0.33004 0.98165 0.0
C1077 C 0.73238 0.37096 0.02152 0.0
H1078 H 0.69138 0.37916 0.96511 0.0
C1079 C 0.64461 0.42358 0.02537 0.0
C1080 C 0.63546 0.43349 0.00381 0.0
C1081 C 0.66595 0.41084 0.02494 0.0
C1082 C 0.70305 0.37766 0.9808 0.0
H1083 H 0.76003 0.28668 0.03577 0.0
H1084 H 0.73857 0.32404 0.03716 0.0
H1085 H 0.72213 0.34923 0.96447 0.0
H1086 H 0.64251 0.43958 0.96536 0.0
H1087 H 0.68018 0.41833 0.96479 0.0
H1088 H 0.71315 0.39924 0.038 0.0
C1089 C 0.74987 0.32023 0.02158 0.0
C1090 C 0.72068 0.36038 0.98041 0.0
C1091 C 0.76195 0.29887 0.02078 0.0
C1092 C 0.64891 0.43182 0.9822 0.0
C1093 C 0.67045 0.41947 0.98186 0.0
C1094 C 0.71492 0.38851 0.0218 0.0
C1095 C 0.75109 0.33575 0.00172 0.0
C1096 C 0.73512 0.35645 0.00098 0.0
C1097 C 0.67884 0.40807 0.003 0.0
C1098 C 0.69958 0.39169 0.00168 0.0
H1099 H 0.7886 0.30422 0.96512 0.0
H1100 H 0.76703 0.34175 0.96616 0.0
H1101 H 0.74343 0.36841 0.03755 0.0
H1102 H 0.63463 0.42454 0.04232 0.0
H1103 H 0.67161 0.40218 0.04156 0.0
C1104 C 0.00959 0.69372 0.73051 0.0
C1105 C 0.99155 0.7064 0.7423 0.0
C1106 C 0.00439 0.6728 0.7187 0.0
C1107 C 0.98734 0.62466 0.70094 0.0
H1108 H 0.94934 0.64085 0.64405 0.0
C1109 C 0.98265 0.56453 0.6171 0.0
C1110 C 0.99262 0.5759 0.59685 0.0
C1111 C 0.97487 0.5774 0.63731 0.0
C1112 C 0.95953 0.6359 0.66008 0.0
H1113 H 0.95406 0.70762 0.75118 0.0
H1114 H 0.94453 0.67114 0.72942 0.0
H1115 H 0.95082 0.66759 0.679 0.0
H1116 H 0.00159 0.60932 0.58105 0.0
H1117 H 0.98745 0.63204 0.61622 0.0
H1118 H 0.99705 0.59355 0.68154 0.0
C1119 C 0.96286 0.67693 0.73028 0.0
C1120 C 0.96026 0.65107 0.68008 0.0
C1121 C 0.96828 0.69757 0.74277 0.0
C1122 C 0.99365 0.60032 0.59644 0.0
C1123 C 0.98549 0.61323 0.61645 0.0
C1124 C 0.98623 0.60927 0.68116 0.0
C1125 C 0.98084 0.66472 0.71768 0.0
C1126 C 0.97497 0.64599 0.7002 0.0
C1127 C 0.97676 0.60183 0.63737 0.0
C1128 C 0.97313 0.61526 0.66016 0.0
H1129 H 0.02736 0.70086 0.72902 0.0
H1130 H 0.01844 0.66396 0.70864 0.0
H1131 H 0.99893 0.62053 0.71621 0.0
H1132 H 0.98221 0.54563 0.61788 0.0
H1133 H 0.96831 0.56827 0.65328 0.0
C1134 C 0.35206 0.95396 0.7508 0.0
C1135 C 0.34207 0.93164 0.75073 0.0
C1136 C 0.3758 0.95707 0.74413 0.0
C1137 C 0.41886 0.92857 0.70384 0.0
H1138 H 0.45509 0.98426 0.71875 0.0
C1139 C 0.482 0.9619 0.63279 0.0
C1140 C 0.47527 0.9846 0.62567 0.0
C1141 C 0.47603 0.95345 0.6559 0.0
C1142 C 0.44539 0.96845 0.71459 0.0
H1143 H 0.34884 0.89485 0.74578 0.0
H1144 H 0.3909 0.89995 0.73462 0.0
H1145 H 0.42405 0.97128 0.74694 0.0
H1146 H 0.45968 0.01717 0.63832 0.0
H1147 H 0.44855 0.00223 0.67831 0.0
H1148 H 0.43915 0.92629 0.67103 0.0
C1149 C 0.38034 0.91521 0.73924 0.0
C1150 C 0.42754 0.96105 0.73065 0.0
C1151 C 0.35642 0.91219 0.74565 0.0
C1152 C 0.46488 0.99952 0.64311 0.0
C1153 C 0.45867 0.99097 0.66618 0.0
C1154 C 0.43678 0.93581 0.68798 0.0
C1155 C 0.39005 0.9378 0.73739 0.0
C1156 C 0.41316 0.94177 0.72473 0.0
C1157 C 0.46291 0.96743 0.67222 0.0
C1158 C 0.44937 0.95652 0.6925 0.0
H1159 H 0.34102 0.96909 0.75471 0.0
H1160 H 0.38237 0.97475 0.74262 0.0
H1161 H 0.40813 0.91378 0.69843 0.0
H1162 H 0.49024 0.95 0.6199 0.0
H1163 H 0.48 0.93539 0.66023 0.0
C1164 C 0.01174 0.2894 0.68213 0.0
C1165 C 0.02936 0.29228 0.70003 0.0
C1166 C 0.01461 0.29924 0.65892 0.0
C1167 C 0.01748 0.33943 0.62266 0.0
H1168 H 0.07827 0.34453 0.58936 0.0
C1169 C 0.03062 0.40803 0.54757 0.0
C1170 C 0.05097 0.42181 0.55119 0.0
C1171 C 0.02828 0.38663 0.55966 0.0
C1172 C 0.06114 0.34324 0.5984 0.0
H1173 H 0.06431 0.30607 0.70769 0.0
H1174 H 0.06948 0.32349 0.66719 0.0
H1175 H 0.07367 0.31645 0.62262 0.0
H1176 H 0.08566 0.42308 0.56869 0.0
H1177 H 0.08144 0.38622 0.59 0.0
H1178 H 0.00527 0.36705 0.59955 0.0
C1179 C 0.05346 0.31362 0.67087 0.0
C1180 C 0.05852 0.32714 0.61741 0.0
C1181 C 0.05048 0.3039 0.69408 0.0
C1182 C 0.06962 0.41301 0.56572 0.0
C1183 C 0.06729 0.39169 0.57778 0.0
C1184 C 0.02013 0.3556 0.60376 0.0
C1185 C 0.03527 0.31195 0.65325 0.0
C1186 C 0.03689 0.32563 0.63027 0.0
C1187 C 0.04628 0.37858 0.57555 0.0
C1188 C 0.04224 0.35829 0.59198 0.0
H1189 H 0.99533 0.28045 0.68651 0.0
H1190 H 0.00039 0.29751 0.64566 0.0
H1191 H 0.00066 0.33887 0.63236 0.0
H1192 H 0.01602 0.41423 0.5363 0.0
H1193 H 0.01203 0.37677 0.55724 0.0
C1194 C 0.72319 0.12136 0.72655 0.0
C1195 C 0.7317 0.10312 0.74131 0.0
C1196 C 0.70562 0.11714 0.70896 0.0
C1197 C 0.66128 0.07304 0.68863 0.0
H1198 H 0.67332 0.09858 0.62409 0.0
C1199 C 0.62083 0.03214 0.60322 0.0
C1200 C 0.60905 0.04712 0.58676 0.0
C1201 C 0.63524 0.04113 0.62167 0.0
C1202 C 0.6696 0.09155 0.64207 0.0
H1203 H 0.72851 0.06647 0.74987 0.0
H1204 H 0.69781 0.05892 0.71939 0.0
H1205 H 0.6978 0.11095 0.65869 0.0
H1206 H 0.60447 0.08333 0.57591 0.0
H1207 H 0.63011 0.09903 0.60816 0.0
H1208 H 0.63363 0.05308 0.67185 0.0
C1209 C 0.70422 0.0766 0.7215 0.0
C1210 C 0.68351 0.09869 0.66193 0.0
C1211 C 0.72174 0.08086 0.73902 0.0
C1212 C 0.61323 0.07129 0.58831 0.0
C1213 C 0.62787 0.08031 0.60677 0.0
C1214 C 0.64755 0.0658 0.66879 0.0
C1215 C 0.69633 0.09456 0.70585 0.0
C1216 C 0.67981 0.08916 0.68536 0.0
C1217 C 0.63839 0.06531 0.62407 0.0
C1218 C 0.65188 0.0746 0.64523 0.0
H1219 H 0.73082 0.13862 0.72807 0.0
H1220 H 0.69971 0.13142 0.69745 0.0
H1221 H 0.65761 0.06572 0.70649 0.0
H1222 H 0.61825 0.01342 0.60249 0.0
H1223 H 0.64358 0.02914 0.63442 0.0
C1224 C 0.05131 0.3121 0.3209 0.0
C1225 C 0.07165 0.3103 0.30617 0.0
C1226 C 0.04585 0.33296 0.33278 0.0
C1227 C 0.07364 0.38666 0.35578 0.0
H1228 H 0.00767 0.40444 0.36664 0.0
C1229 C 0.04136 0.46874 0.41086 0.0
C1230 C 0.02331 0.46406 0.42803 0.0
C1231 C 0.04889 0.45141 0.39446 0.0
C1232 C 0.02617 0.39966 0.36377 0.0
H1233 H 0.10169 0.32879 0.29109 0.0
H1234 H 0.09207 0.36588 0.31176 0.0
H1235 H 0.017 0.37255 0.33872 0.0
H1236 H -0.00029 0.4373 0.44206 0.0
H1237 H 0.01264 0.40733 0.41334 0.0
H1238 H 0.08263 0.41398 0.38102 0.0
C1239 C 0.08057 0.35098 0.31452 0.0
C1240 C 0.03154 0.38138 0.34782 0.0
C1241 C 0.08603 0.32995 0.30261 0.0
C1242 C 0.01356 0.44154 0.42902 0.0
C1243 C 0.02085 0.4244 0.41248 0.0
C1244 C 0.06825 0.40519 0.37161 0.0
C1245 C 0.06054 0.35262 0.32999 0.0
C1246 C 0.05528 0.37419 0.34417 0.0
C1247 C 0.03824 0.42928 0.39476 0.0
C1248 C 0.04442 0.41139 0.37623 0.0
H1249 H 0.03991 0.29711 0.32356 0.0
H1250 H 0.03049 0.33342 0.34477 0.0
H1251 H 0.0921 0.38147 0.3535 0.0
H1252 H 0.0493 0.4859 0.40973 0.0
H1253 H 0.06239 0.45556 0.381 0.0
C1254 C 0.68805 0.06879 0.24879 0.0
C1255 C 0.69581 0.09112 0.25551 0.0
C1256 C 0.66474 0.06184 0.25382 0.0
C1257 C 0.60606 0.08212 0.27912 0.0
H1258 H 0.60912 0.02266 0.31279 0.0
C1259 C 0.55297 0.06056 0.36525 0.0
C1260 C 0.54891 0.03708 0.37144 0.0
C1261 C 0.56381 0.06627 0.34307 0.0
C1262 C 0.60751 0.03899 0.30294 0.0
H1263 H 0.68533 0.1242 0.27118 0.0
H1264 H 0.64477 0.11196 0.28094 0.0
H1265 H 0.64209 0.0346 0.28751 0.0
H1266 H 0.55016 0.00149 0.35786 0.0
H1267 H 0.5686 0.01152 0.31896 0.0
H1268 H 0.57186 0.08693 0.29597 0.0
C1269 C 0.65632 0.0999 0.27125 0.0
C1270 C 0.62656 0.04589 0.28834 0.0
C1271 C 0.67956 0.1069 0.26593 0.0
C1272 C 0.55349 0.01971 0.35387 0.0
C1273 C 0.56414 0.02545 0.33159 0.0
C1274 C 0.58692 0.07519 0.29381 0.0
C1275 C 0.64892 0.07697 0.26612 0.0
C1276 C 0.6265 0.06791 0.27699 0.0
C1277 C 0.57063 0.04863 0.32654 0.0
C1278 C 0.58785 0.05391 0.30664 0.0
H1279 H 0.70041 0.05629 0.24095 0.0
H1280 H 0.65951 0.0442 0.24926 0.0
H1281 H 0.60528 0.09902 0.27027 0.0
H1282 H 0.54941 0.07443 0.37825 0.0
H1283 H 0.56857 0.08431 0.33987 0.0
C1284 C 0.01917 0.73949 0.31771 0.0
C1285 C 0.03713 0.73884 0.29995 0.0
C1286 C 0.02262 0.72866 0.34029 0.0
C1287 C 0.05621 0.67926 0.36549 0.0
H1288 H 0.02153 0.69635 0.42424 0.0
C1289 C 0.0404 0.61347 0.44372 0.0
C1290 C 0.01594 0.61075 0.44841 0.0
C1291 C 0.04861 0.63268 0.43039 0.0
C1292 C 0.03153 0.69146 0.40805 0.0
H1293 H 0.07324 0.72804 0.29201 0.0
H1294 H 0.07968 0.70929 0.33182 0.0
H1295 H 0.02677 0.72512 0.39176 0.0
H1296 H 0.98113 0.62716 0.4445 0.0
H1297 H 0.99543 0.66061 0.42173 0.0
H1298 H 0.06021 0.64535 0.38148 0.0
C1299 C 0.06275 0.71779 0.32824 0.0
C1300 C 0.03445 0.70788 0.38942 0.0
C1301 C 0.0592 0.72858 0.30559 0.0
C1302 C 9e-05 0.62848 0.441 0.0
C1303 C 0.00829 0.64781 0.42808 0.0
C1304 C 0.05347 0.66292 0.38424 0.0
C1305 C 0.04418 0.71698 0.34555 0.0
C1306 C 0.04588 0.70165 0.36745 0.0
C1307 C 0.03253 0.64984 0.42211 0.0
C1308 C 0.0402 0.66857 0.40521 0.0
H1309 H 0.00193 0.74707 0.31349 0.0
H1310 H 0.00776 0.72812 0.35293 0.0
H1311 H 0.06493 0.67372 0.34879 0.0
H1312 H 0.05314 0.60066 0.45001 0.0
H1313 H 0.06744 0.63398 0.42625 0.0
C1314 C 0.28884 0.01057 0.27647 0.0
C1315 C 0.2774 0.03205 0.27252 0.0
C1316 C 0.30451 0.00781 0.29616 0.0
C1317 C 0.31666 0.0329 0.35685 0.0
H1318 H 0.37587 0.99793 0.35259 0.0
C1319 C 0.38874 0.03444 0.43207 0.0
C1320 C 0.40209 0.01399 0.43634 0.0
C1321 C 0.37191 0.03527 0.41326 0.0
C1322 C 0.35919 0.00742 0.35418 0.0
H1323 H 0.27392 0.06773 0.28481 0.0
H1324 H 0.30156 0.06317 0.31916 0.0
H1325 H 0.35116 0.00271 0.31621 0.0
H1326 H 0.40698 0.97787 0.42522 0.0
H1327 H 0.37735 0.97929 0.39268 0.0
H1328 H 0.3247 0.03772 0.39477 0.0
C1329 C 0.29817 0.04831 0.30744 0.0
C1330 C 0.3451 0.01023 0.33331 0.0
C1331 C 0.28258 0.05102 0.28776 0.0
C1332 C 0.39717 0.99398 0.42233 0.0
C1333 C 0.38032 0.99483 0.40353 0.0
C1334 C 0.33072 0.03006 0.37772 0.0
C1335 C 0.30889 0.02652 0.3122 0.0
C1336 C 0.32379 0.02318 0.33436 0.0
C1337 C 0.36799 0.01567 0.39835 0.0
C1338 C 0.35224 0.01744 0.37659 0.0
H1339 H 0.2848 0.99571 0.26498 0.0
H1340 H 0.31239 0.99079 0.29941 0.0
H1341 H 0.30007 0.04256 0.35838 0.0
H1342 H 0.39202 0.05018 0.4425 0.0
H1343 H 0.36281 0.05164 0.40969 0.0
C1344 C 0.05704 0.21478 0.29488 0.0
C1345 C 0.07907 0.22553 0.29892 0.0
C1346 C 0.05168 0.19363 0.3063 0.0
C1347 C 0.07627 0.14466 0.34394 0.0
H1348 H 0.01378 0.1479 0.37407 0.0
C1349 C 0.04596 0.0873 0.42653 0.0
C1350 C 0.02194 0.08054 0.42702 0.0
C1351 C 0.05442 0.10188 0.40785 0.0
C1352 C 0.03113 0.14641 0.3655 0.0
H1353 H 0.11344 0.22208 0.31635 0.0
H1354 H 0.10406 0.18521 0.33685 0.0
H1355 H 0.02582 0.17815 0.34584 0.0
H1356 H 0.98833 0.08247 0.40752 0.0
H1357 H 0.00303 0.10737 0.37498 0.0
H1358 H 0.08158 0.11298 0.36432 0.0
C1359 C 0.09094 0.19288 0.3247 0.0
C1360 C 0.03805 0.16381 0.34921 0.0
C1361 C 0.09632 0.21399 0.31309 0.0
C1362 C 0.00687 0.08769 0.4079 0.0
C1363 C 0.01528 0.10202 0.38924 0.0
C1364 C 0.0693 0.12713 0.36034 0.0
C1365 C 0.06819 0.18294 0.32222 0.0
C1366 C 0.06069 0.16324 0.33822 0.0
C1367 C 0.03896 0.1099 0.38934 0.0
C1368 C 0.04662 0.12786 0.37134 0.0
H1369 H 0.04347 0.22351 0.28411 0.0
H1370 H 0.03417 0.1862 0.30356 0.0
H1371 H 0.09382 0.14367 0.33574 0.0
H1372 H 0.05789 0.08227 0.4411 0.0
H1373 H 0.07274 0.10773 0.40855 0.0
C1374 C 0.78483 0.11261 0.301 0.0
C1375 C 0.77776 0.09523 0.28453 0.0
C1376 C 0.80138 0.10749 0.31941 0.0
C1377 C 0.84572 0.06248 0.33906 0.0
H1378 H 0.83355 0.08753 0.40384 0.0
C1379 C 0.89146 0.02397 0.42317 0.0
C1380 C 0.9041 0.04003 0.43761 0.0
C1381 C 0.87481 0.03173 0.40602 0.0
C1382 C 0.83718 0.08053 0.38581 0.0
H1383 H 0.78215 0.05916 0.27393 0.0
H1384 H 0.81081 0.04992 0.30607 0.0
H1385 H 0.80855 0.09983 0.36949 0.0
H1386 H 0.90756 0.07676 0.44674 0.0
H1387 H 0.87803 0.09022 0.41698 0.0
H1388 H 0.8739 0.04271 0.35553 0.0
C1389 C 0.80423 0.06768 0.30464 0.0
C1390 C 0.82301 0.08767 0.36608 0.0
C1391 C 0.78786 0.07288 0.2862 0.0
C1392 C 0.89821 0.06391 0.43589 0.0
C1393 C 0.88133 0.07165 0.41883 0.0
C1394 C 0.85963 0.05515 0.35878 0.0
C1395 C 0.81095 0.0848 0.32175 0.0
C1396 C 0.82697 0.07855 0.34248 0.0
C1397 C 0.8702 0.05568 0.4031 0.0
C1398 C 0.85536 0.06391 0.38238 0.0
H1399 H 0.77694 0.12988 0.30002 0.0
H1400 H 0.80639 0.12119 0.33202 0.0
H1401 H 0.84967 0.05548 0.3211 0.0
H1402 H 0.89534 0.00545 0.4241 0.0
H1403 H 0.86611 0.01903 0.39441 0.0
C1404 C 0.04024 0.79474 0.29705 0.0
C1405 C 0.02024 0.78639 0.28447 0.0
C1406 C 0.03811 0.81363 0.31312 0.0
C1407 C 0.99794 0.86307 0.32943 0.0
H1408 H 0.0334 0.8624 0.39033 0.0
C1409 C 0.97743 0.92707 0.40797 0.0
C1410 C 0.99687 0.93778 0.4196 0.0
C1411 C 0.98103 0.90879 0.39145 0.0
C1412 C 0.02357 0.86294 0.37328 0.0
H1413 H 0.98232 0.7906 0.27907 0.0
H1414 H 0.97833 0.82352 0.3073 0.0
H1415 H 0.0381 0.83022 0.36142 0.0
H1416 H 0.03539 0.93737 0.42324 0.0
H1417 H 0.04165 0.90523 0.39441 0.0
H1418 H 0.98312 0.8956 0.34153 0.0
C1419 C 0.99583 0.81596 0.30438 0.0
C1420 C 0.02629 0.84453 0.35667 0.0
C1421 C 0.99804 0.79715 0.28822 0.0
C1422 C 0.02002 0.9295 0.41461 0.0
C1423 C 0.02361 0.91104 0.39817 0.0
C1424 C 0.99512 0.88138 0.3461 0.0
C1425 C 0.01585 0.82444 0.31709 0.0
C1426 C 0.01341 0.84429 0.33457 0.0
C1427 C 0.00415 0.90064 0.38624 0.0
C1428 C 0.00779 0.88147 0.36828 0.0
H1429 H 0.05751 0.78662 0.29433 0.0
H1430 H 0.05396 0.81985 0.32229 0.0
H1431 H 0.9881 0.86375 0.31241 0.0
H1432 H 0.95935 0.93294 0.41142 0.0
H1433 H 0.96565 0.90091 0.38285 0.0
C1434 C 0.1839 0.01795 0.23156 0.0
C1435 C 0.19674 0.03807 0.23752 0.0
C1436 C 0.15992 0.01613 0.23821 0.0
C1437 C 0.11069 0.04717 0.27217 0.0
H1438 H 0.11183 0.99001 0.31001 0.0
C1439 C 0.07702 0.0408 0.37062 0.0
C1440 C 0.07061 0.01895 0.38018 0.0
C1441 C 0.0835 0.04295 0.34604 0.0
C1442 C 0.11058 0.00581 0.29923 0.0
H1443 H 0.19433 0.07316 0.25172 0.0
H1444 H 0.15282 0.06996 0.26411 0.0
H1445 H 0.13897 0.99443 0.27634 0.0
H1446 H 0.0633 0.98285 0.37098 0.0
H1447 H 0.07393 0.98674 0.32803 0.0
H1448 H 0.08314 0.059 0.29646 0.0
C1449 C 0.16078 0.05557 0.25415 0.0
C1450 C 0.12625 0.00835 0.27968 0.0
C1451 C 0.18463 0.05743 0.24721 0.0
C1452 C 0.06877 0.9998 0.36427 0.0
C1453 C 0.07486 0.00203 0.33964 0.0
C1454 C 0.09492 0.04461 0.29184 0.0
C1455 C 0.14866 0.03429 0.25129 0.0
C1456 C 0.12735 0.02948 0.26665 0.0
C1457 C 0.08337 0.02336 0.33048 0.0
C1458 C 0.0955 0.0243 0.3063 0.0
H1459 H 0.19297 0.00285 0.224 0.0
H1460 H 0.15089 0.99972 0.23514 0.0
H1461 H 0.11077 0.06352 0.26223 0.0
H1462 H 0.07838 0.05595 0.3824 0.0
H1463 H 0.0901 0.05964 0.33973 0.0
C1464 C 0.99151 0.8107 0.74075 0.0
C1465 C 0.00275 0.79072 0.73123 0.0
C1466 C 0.99081 0.83139 0.72706 0.0
C1467 C 0.98951 0.85027 0.66402 0.0
H1468 H 0.0153 0.90967 0.68486 0.0
C1469 C 0.01765 0.92043 0.59576 0.0
C1470 C 0.01701 0.94407 0.6025 0.0
C1471 C 0.01104 0.90318 0.6124 0.0
C1472 C 0.00746 0.89339 0.67891 0.0
H1473 H 0.02344 0.77685 0.70116 0.0
H1474 H 0.02182 0.81272 0.67697 0.0
H1475 H 0.01406 0.87699 0.71361 0.0
H1476 H 0.00715 0.96832 0.63132 0.0
H1477 H 0.99513 0.93815 0.66026 0.0
H1478 H 0.98289 0.86631 0.62941 0.0
C1479 C 0.01336 0.81241 0.69478 0.0
C1480 C 0.0069 0.8747 0.69537 0.0
C1481 C 0.01434 0.792 0.70856 0.0
C1482 C 0.00814 0.95021 0.62569 0.0
C1483 C 0.00139 0.93291 0.64233 0.0
C1484 C 0.98974 0.86897 0.64771 0.0
C1485 C 0.00112 0.8321 0.70364 0.0
C1486 C 0.99862 0.85282 0.68777 0.0
C1487 C 0.0034 0.90915 0.63612 0.0
C1488 C 0.99947 0.89055 0.65466 0.0
H1489 H 0.98246 0.80994 0.75822 0.0
H1490 H 0.9814 0.84646 0.73425 0.0
H1491 H 0.98271 0.83358 0.65791 0.0
H1492 H 0.02424 0.91511 0.57798 0.0
H1493 H 0.01308 0.88509 0.60697 0.0
C1494 C 0.24837 0.92333 0.7138 0.0
C1495 C 0.25853 0.94026 0.72902 0.0
C1496 C 0.23175 0.92976 0.69598 0.0
C1497 C 0.21447 0.98009 0.65817 0.0
H1498 H 0.15901 0.94267 0.64313 0.0
C1499 C 0.14055 0.00868 0.58995 0.0
C1500 C 0.12883 0.9911 0.57671 0.0
C1501 C 0.15795 0.00284 0.60729 0.0
C1502 C 0.17464 0.95313 0.64681 0.0
H1503 H 0.2592 0.97693 0.73819 0.0
H1504 H 0.22971 0.98834 0.70723 0.0
H1505 H 0.18442 0.93187 0.67743 0.0
H1506 H 0.12772 0.95385 0.56971 0.0
H1507 H 0.15849 0.94378 0.59924 0.0
H1508 H 0.20475 0.00128 0.62742 0.0
C1509 C 0.23467 0.97011 0.70892 0.0
C1510 C 0.18912 0.94699 0.66658 0.0
C1511 C 0.25121 0.96361 0.72683 0.0
C1512 C 0.13621 0.96779 0.57978 0.0
C1513 C 0.15369 0.96199 0.59693 0.0
C1514 C 0.20001 0.9862 0.6383 0.0
C1515 C 0.22513 0.95331 0.69295 0.0
C1516 C 0.20922 0.96036 0.67248 0.0
C1517 C 0.16409 0.97934 0.61159 0.0
C1518 C 0.17995 0.97274 0.63232 0.0
H1519 H 0.25405 0.90528 0.71515 0.0
H1520 H 0.22489 0.91642 0.68386 0.0
H1521 H 0.23006 0.99054 0.66201 0.0
H1522 H 0.13527 0.02681 0.58806 0.0
H1523 H 0.16557 0.01666 0.61826 0.0
C1524 C 0.00018 0.22966 0.71161 0.0
C1525 C 0.0204 0.24319 0.7163 0.0
C1526 C 0.00141 0.211 0.69507 0.0
C1527 C 0.03914 0.18826 0.6441 0.0
H1528 H 0.00411 0.13095 0.65463 0.0
C1529 C 0.05959 0.10294 0.59209 0.0
C1530 C 0.04015 0.09023 0.58288 0.0
C1531 C 0.05594 0.12211 0.60747 0.0
C1532 C 0.0138 0.14696 0.65136 0.0
H1533 H 0.05777 0.24778 0.7084 0.0
H1534 H 0.06039 0.21482 0.68022 0.0
H1535 H 0.00027 0.16295 0.68397 0.0
H1536 H 0.00163 0.08879 0.58181 0.0
H1537 H 0.99523 0.12171 0.60932 0.0
H1538 H 0.0532 0.17194 0.6119 0.0
C1539 C 0.04333 0.21882 0.68853 0.0
C1540 C 0.01158 0.16534 0.66812 0.0
C1541 C 0.04197 0.23755 0.7048 0.0
C1542 C 0.01697 0.09757 0.58906 0.0
C1543 C 0.0133 0.11656 0.60476 0.0
C1544 C 0.04157 0.16982 0.62757 0.0
C1545 C 0.02299 0.20548 0.6831 0.0
C1546 C 0.02443 0.18616 0.66485 0.0
C1547 C 0.03277 0.12896 0.61419 0.0
C1548 C 0.02911 0.14891 0.63112 0.0
H1549 H 0.98333 0.234 0.72021 0.0
H1550 H 0.98532 0.20132 0.6912 0.0
H1551 H 0.04882 0.20421 0.64055 0.0
H1552 H 0.07774 0.09794 0.58767 0.0
H1553 H 0.07131 0.13128 0.61454 0.0
C1554 C 0.82625 0.08002 0.76082 0.0
C1555 C 0.81661 0.10264 0.76065 0.0
C1556 C 0.84924 0.07591 0.75195 0.0
C1557 C 0.88986 0.10132 0.70687 0.0
H1558 H 0.93038 0.0493 0.72574 0.0
C1559 C 0.96566 0.07159 0.64416 0.0
C1560 C 0.96513 0.0476 0.63865 0.0
C1561 C 0.95321 0.0804 0.66431 0.0
C1562 C 0.91929 0.06394 0.72031 0.0
H1563 H 0.8235 0.1389 0.75285 0.0
H1564 H 0.86417 0.13201 0.73788 0.0
H1565 H 0.89795 0.06173 0.75272 0.0
H1566 H 0.95267 0.01385 0.65119 0.0
H1567 H 0.93071 0.02926 0.68608 0.0
H1568 H 0.9105 0.10307 0.67414 0.0
C1569 C 0.85389 0.11732 0.74438 0.0
C1570 C 0.9007 0.07105 0.73574 0.0
C1571 C 0.8308 0.12136 0.75312 0.0
C1572 C 0.95335 0.03244 0.65479 0.0
C1573 C 0.94086 0.04127 0.67493 0.0
C1574 C 0.90845 0.09429 0.69155 0.0
C1575 C 0.86305 0.09441 0.74279 0.0
C1576 C 0.88531 0.08939 0.72885 0.0
C1577 C 0.93994 0.06544 0.6794 0.0
C1578 C 0.92296 0.0751 0.69773 0.0
H1579 H 0.81535 0.06537 0.76628 0.0
H1580 H 0.85549 0.05803 0.75075 0.0
H1581 H 0.87818 0.11523 0.70069 0.0
H1582 H 0.97486 0.08375 0.63234 0.0
H1583 H 0.95324 0.09907 0.66754 0.0
C1584 C 0.28366 0.00224 0.20444 0.0
C1585 C 0.28204 0.02266 0.2185 0.0
C1586 C 0.30464 0.99691 0.19176 0.0
C1587 C 0.36891 0.01126 0.18802 0.0
H1588 H 0.36192 0.99439 0.11974 0.0
C1589 C 0.44152 0.02698 0.11593 0.0
C1590 C 0.4433 0.01191 0.09572 0.0
C1591 C 0.424 0.02353 0.13368 0.0
C1592 C 0.36429 0.99856 0.13891 0.0
H1593 H 0.30082 0.05329 0.2309 0.0
H1594 H 0.33759 0.04413 0.20877 0.0
H1595 H 0.32674 0.99744 0.14557 0.0
H1596 H 0.42929 0.98034 0.07928 0.0
H1597 H 0.39887 0.97417 0.11048 0.0
H1598 H 0.40645 0.01298 0.18115 0.0
C1599 C 0.32283 0.03206 0.20766 0.0
C1600 C 0.34408 1.00037 0.15371 0.0
C1601 C 0.30183 0.03739 0.22022 0.0
C1602 C 0.42823 0.99241 0.0945 0.0
C1603 C 0.41071 0.98895 0.1123 0.0
C1604 C 0.38916 0.00939 0.17322 0.0
C1605 C 0.3244 0.01188 0.19308 0.0
C1606 C 0.34611 0.00728 0.17827 0.0
C1607 C 0.40791 0.00489 0.13168 0.0
C1608 C 0.38702 0.00356 0.14834 0.0
H1609 H 0.26871 0.99043 0.20332 0.0
H1610 H 0.30541 0.98109 0.18091 0.0
H1611 H 0.37107 0.01622 0.207 0.0
H1612 H 0.45293 0.04211 0.1175 0.0
H1613 H 0.42227 0.03627 0.14823 0.0
C1614 C 0.08852 0.30353 0.23403 0.0
C1615 C 0.07183 0.29937 0.25257 0.0
C1616 C 0.08391 0.32024 0.21595 0.0
C1617 C 0.04838 0.37345 0.20459 0.0
H1618 H 0.06553 0.3626 0.13683 0.0
C1619 C 0.02876 0.44225 0.12989 0.0
C1620 C 0.04693 0.44619 0.11269 0.0
C1621 C 0.0299 0.42305 0.14571 0.0
C1622 C 0.06081 0.36601 0.1557 0.0
H1623 H 0.03712 0.30879 0.26671 0.0
H1624 H 0.02895 0.33822 0.23523 0.0
H1625 H 0.07133 0.33161 0.16688 0.0
H1626 H 0.08023 0.43258 0.09819 0.0
H1627 H 0.08241 0.39943 0.12591 0.0
H1628 H 0.03832 0.40797 0.19362 0.0
C1629 C 0.04571 0.32876 0.23469 0.0
C1630 C 0.06413 0.34822 0.17293 0.0
C1631 C 0.05031 0.31195 0.25265 0.0
C1632 C 0.0659 0.43009 0.11119 0.0
C1633 C 0.06708 0.41095 0.12704 0.0
C1634 C 0.04515 0.39128 0.1874 0.0
C1635 C 0.06253 0.33322 0.21618 0.0
C1636 C 0.05811 0.35178 0.19762 0.0
C1637 C 0.04928 0.40735 0.14475 0.0
C1638 C 0.05149 0.38787 0.16275 0.0
H1639 H 0.10535 0.29417 0.2339 0.0
H1640 H 0.09738 0.32344 0.20218 0.0
H1641 H 0.04387 0.3769 0.22352 0.0
H1642 H 0.01381 0.45421 0.13145 0.0
H1643 H 0.01565 0.42061 0.15881 0.0
C1644 C 0.73704 0.06768 0.19967 0.0
C1645 C 0.72721 0.08731 0.21133 0.0
C1646 C 0.72717 0.05928 0.17796 0.0
C1647 C 0.68137 0.07259 0.12965 0.0
H1648 H 0.67996 0.00506 0.12447 0.0
C1649 C 0.61186 0.01503 0.07843 0.0
C1650 C 0.6215 0.00167 0.05922 0.0
C1651 C 0.62674 0.02749 0.09413 0.0
C1652 C 0.68046 0.02394 0.12561 0.0
H1653 H 0.69993 0.11399 0.2092 0.0
H1654 H 0.68163 0.09865 0.17216 0.0
H1655 H 0.70262 0.02318 0.15722 0.0
H1656 H 0.65441 0.99068 0.04163 0.0
H1657 H 0.68047 0.0116 0.07002 0.0
H1658 H 0.65764 0.07283 0.09878 0.0
C1659 C 0.69749 0.09009 0.1791 0.0
C1660 C 0.69361 0.03442 0.14424 0.0
C1661 C 0.70778 0.09881 0.20048 0.0
C1662 C 0.6464 0.00083 0.05622 0.0
C1663 C 0.66132 0.01282 0.07234 0.0
C1664 C 0.66778 0.06201 0.11132 0.0
C1665 C 0.70675 0.06988 0.16778 0.0
C1666 C 0.69413 0.05892 0.14669 0.0
C1667 C 0.65155 0.02625 0.09133 0.0
C1668 C 0.66716 0.03763 0.10933 0.0
H1669 H 0.75166 0.05814 0.20791 0.0
H1670 H 0.73522 0.04403 0.16958 0.0
H1671 H 0.68165 0.09146 0.13057 0.0
H1672 H 0.59281 0.01569 0.08149 0.0
H1673 H 0.61892 0.03753 0.10893 0.0
C1674 C 0.99048 0.73136 0.20558 0.0
C1675 C 0.01432 0.73263 0.21322 0.0
C1676 C 0.98441 0.71854 0.18469 0.0
C1677 C 0.01052 0.68989 0.12962 0.0
H1678 H 0.95831 0.64632 0.13686 0.0
C1679 C 0.00054 0.61764 0.05965 0.0
C1680 C 0.99816 0.59536 0.06997 0.0
C1681 C 0.99501 0.63755 0.07331 0.0
C1682 C 0.9729 0.65842 0.13448 0.0
H1683 H 0.05055 0.72256 0.20492 0.0
H1684 H 0.0402 0.70009 0.16853 0.0
H1685 H 0.96491 0.67605 0.16808 0.0
H1686 H 0.98667 0.57618 0.10185 0.0
H1687 H 0.97756 0.61081 0.12606 0.0
H1688 H 0.01967 0.67146 0.09709 0.0
C1689 C 0.0261 0.70909 0.17831 0.0
C1690 C 0.97652 0.67566 0.15226 0.0
C1691 C 0.03209 0.72182 0.19916 0.0
C1692 C 0.98817 0.59318 0.09335 0.0
C1693 C 0.98306 0.61313 0.10724 0.0
C1694 C 0.00699 0.67264 0.11198 0.0
C1695 C 0.00213 0.70689 0.17106 0.0
C1696 C 0.99585 0.69113 0.1504 0.0
C1697 C 0.98767 0.63558 0.09783 0.0
C1698 C 0.98854 0.65623 0.11447 0.0
H1699 H 0.97652 0.73944 0.21639 0.0
H1700 H 0.96583 0.71737 0.17949 0.0
H1701 H 0.02532 0.70176 0.1274 0.0
H1702 H 0.00827 0.6197 0.04162 0.0
H1703 H 0.99808 0.65451 0.06517 0.0
C1704 C 0.33285 0.92286 0.80646 0.0
C1705 C 0.31681 0.93954 0.79725 0.0
C1706 C 0.34793 0.92835 0.82587 0.0
C1707 C 0.3583 0.96862 0.8768 0.0
H1708 H 0.42528 0.95665 0.86357 0.0
C1709 C 0.4322 0.98351 0.94859 0.0
C1710 C 0.45145 0.99698 0.94051 0.0
C1711 C 0.41564 0.97482 0.93188 0.0
C1712 C 0.40664 0.96005 0.8675 0.0
H1713 H 0.30327 0.97473 0.80145 0.0
H1714 H 0.32915 0.98423 0.83619 0.0
H1715 H 0.39514 0.94451 0.83393 0.0
H1716 H 0.46874 0.01211 0.90896 0.0
H1717 H 0.43998 0.99646 0.87944 0.0
H1718 H 0.36987 0.98427 0.91035 0.0
C1719 C 0.33003 0.96688 0.82834 0.0
C1720 C 0.38941 0.95297 0.85067 0.0
C1721 C 0.3151 0.96143 0.80866 0.0
C1722 C 0.45415 0.00147 0.91547 0.0
C1723 C 0.43777 0.9925 0.89867 0.0
C1724 C 0.37553 0.9754 0.89382 0.0
C1725 C 0.34708 0.9506 0.83661 0.0
C1726 C 0.36509 0.95731 0.85509 0.0
C1727 C 0.41816 0.9794 0.90679 0.0
C1728 C 0.39987 0.97134 0.88922 0.0
H1729 H 0.33441 0.90591 0.79781 0.0
H1730 H 0.36072 0.91541 0.83207 0.0
H1731 H 0.33967 0.97213 0.88063 0.0
H1732 H 0.42934 0.98065 0.96792 0.0
H1733 H 0.4007 0.96476 0.93861 0.0
C1734 C 0.99367 0.29865 0.79984 0.0
C1735 C 0.0161 0.29474 0.78931 0.0
C1736 C 0.99166 0.31118 0.82175 0.0
C1737 C 0.02518 0.3554 0.85688 0.0
H1738 H 0.97451 0.34717 0.90428 0.0
C1739 C 0.01432 0.41816 0.93835 0.0
C1740 C 0.99122 0.42735 0.94129 0.0
C1741 C 0.01831 0.39873 0.92335 0.0
C1742 C 0.98876 0.34966 0.89118 0.0
H1743 H 0.054 0.29947 0.79349 0.0
H1744 H 0.05083 0.32051 0.83232 0.0
H1745 H 0.98002 0.31839 0.87171 0.0
H1746 H 0.95396 0.42234 0.9321 0.0
H1747 H 0.96093 0.38851 0.90596 0.0
H1748 H 0.03374 0.38677 0.8761 0.0
C1749 C 0.03466 0.31457 0.82354 0.0
C1750 C 0.99188 0.33322 0.87247 0.0
C1751 C 0.03658 0.30231 0.80154 0.0
C1752 C 0.97203 0.41586 0.93003 0.0
C1753 C 0.97599 0.39635 0.91518 0.0
C1754 C 0.02217 0.37169 0.87565 0.0
C1755 C 0.01213 0.31989 0.83354 0.0
C1756 C 0.00993 0.33606 0.85484 0.0
C1757 C 0.99925 0.38793 0.91116 0.0
C1758 C 0.00372 0.36923 0.89281 0.0
H1759 H 0.97771 0.29316 0.79036 0.0
H1760 H 0.97401 0.31511 0.82867 0.0
H1761 H 0.03895 0.35855 0.84342 0.0
H1762 H 0.02943 0.42642 0.94699 0.0
H1763 H 0.0364 0.39242 0.92091 0.0
C1764 C 0.71623 0.10717 0.79895 0.0
C1765 C 0.73587 0.0924 0.79495 0.0
C1766 C 0.69778 0.10034 0.8146 0.0
C1767 C 0.68533 0.05905 0.86516 0.0
H1768 H 0.61907 0.07293 0.85076 0.0
C1769 C 0.61237 0.03428 0.93344 0.0
C1770 C 0.59179 0.02403 0.92384 0.0
C1771 C 0.6284 0.04588 0.91821 0.0
C1772 C 0.63748 0.06885 0.85501 0.0
H1773 H 0.75114 0.05851 0.80273 0.0
H1774 H 0.71899 0.04634 0.82993 0.0
H1775 H 0.65016 0.08563 0.8225 0.0
H1776 H 0.57182 0.01752 0.8907 0.0
H1777 H 0.60002 0.03742 0.8638 0.0
H1778 H 0.67281 0.04149 0.89703 0.0
C1779 C 0.71805 0.06352 0.82172 0.0
C1780 C 0.65533 0.07634 0.83893 0.0
C1781 C 0.73648 0.07042 0.80619 0.0
C1782 C 0.58732 0.02581 0.89864 0.0
C1783 C 0.60345 0.03727 0.88328 0.0
C1784 C 0.66754 0.05151 0.88112 0.0
C1785 C 0.69859 0.07849 0.82638 0.0
C1786 C 0.67948 0.07133 0.84372 0.0
C1787 C 0.62452 0.04696 0.89282 0.0
C1788 C 0.64336 0.0562 0.87624 0.0
H1789 H 0.71545 0.12415 0.79028 0.0
H1790 H 0.68315 0.11237 0.81785 0.0
H1791 H 0.70373 0.05519 0.86966 0.0
H1792 H 0.61707 0.03171 0.95237 0.0
H1793 H 0.64435 0.05316 0.92625 0.0
C1794 C 0.00141 0.73032 0.81259 0.0
C1795 C 0.01176 0.72495 0.78995 0.0
C1796 C 0.00616 0.71646 0.83308 0.0
C1797 C 0.04599 0.66838 0.85619 0.0
H1798 H 0.99193 0.65623 0.89837 0.0
C1799 C 0.03278 0.58647 0.91723 0.0
C1800 C 0.02118 0.58975 0.9397 0.0
C1801 C 0.03714 0.60554 0.90187 0.0
C1802 C 0.00736 0.65973 0.88704 0.0
H1803 H 0.03658 0.70214 0.77127 0.0
H1804 H 0.0437 0.67689 0.80633 0.0
H1805 H 0.98806 0.68456 0.86569 0.0
H1806 H 0.00636 0.61543 0.96456 0.0
H1807 H 0.014 0.64873 0.93784 0.0
H1808 H 0.0647 0.64229 0.87702 0.0
C1809 C 0.03214 0.69192 0.80862 0.0
C1810 C 0.00517 0.67608 0.86826 0.0
C1811 C 0.02765 0.70605 0.78829 0.0
C1812 C 0.01551 0.61251 0.94736 0.0
C1813 C 0.01974 0.63151 0.93203 0.0
C1814 C 0.04804 0.65172 0.87482 0.0
C1815 C 0.02119 0.69672 0.83125 0.0
C1816 C 0.02436 0.68051 0.85239 0.0
C1817 C 0.02962 0.62809 0.90868 0.0
C1818 C 0.02867 0.64714 0.89033 0.0
H1819 H 0.98929 0.74502 0.81426 0.0
H1820 H 0.99784 0.72111 0.85028 0.0
H1821 H 0.0613 0.67158 0.84464 0.0
H1822 H 0.0363 0.56907 0.91046 0.0
H1823 H 0.04451 0.60235 0.88386 0.0
C1824 C 0.21587 0.29739 0.993 0.0
C1825 C 0.21624 0.28241 0.01321 0.0
C1826 C 0.19502 0.30927 0.98665 0.0
C1827 C 0.14027 0.33127 0.01601 0.0
H1828 H 0.12933 0.35557 0.95082 0.0
C1829 C 0.09628 0.42035 0.99998 0.0
C1830 C 0.08425 0.42504 0.97799 0.0
C1831 C 0.10709 0.39866 0.00392 0.0
C1832 C 0.13165 0.34869 0.9691 0.0
H1833 H 0.19526 0.26673 0.04183 0.0
H1834 H 0.15816 0.28689 0.03033 0.0
H1835 H 0.15705 0.32341 0.95664 0.0
H1836 H 0.07297 0.41016 0.94344 0.0
H1837 H 0.09106 0.37199 0.95066 0.0
H1838 H 0.11462 0.35633 0.02843 0.0
C1839 C 0.17408 0.28995 0.01963 0.0
C1840 C 0.14789 0.33039 0.97249 0.0
C1841 C 0.19513 0.27819 0.02609 0.0
C1842 C 0.08226 0.40715 0.96051 0.0
C1843 C 0.0928 0.3853 0.9646 0.0
C1844 C 0.12374 0.34933 0.01257 0.0
C1845 C 0.17398 0.30628 0.00033 0.0
C1846 C 0.15319 0.32211 0.99611 0.0
C1847 C 0.10587 0.38094 0.98612 0.0
C1848 C 0.11995 0.35896 0.98921 0.0
H1849 H 0.23218 0.30093 0.98308 0.0
H1850 H 0.19591 0.32191 0.97197 0.0
H1851 H 0.14383 0.32549 0.0345 0.0
H1852 H 0.09818 0.43374 0.01383 0.0
H1853 H 0.1173 0.39624 0.02053 0.0
C1854 C 0.18981 0.73063 0.07673 0.0
C1855 C 0.20043 0.74363 0.05794 0.0
C1856 C 0.17142 0.71504 0.07154 0.0
C1857 C 0.15194 0.68004 0.01883 0.0
H1858 H 0.10502 0.6565 0.06457 0.0
C1859 C 0.11049 0.59054 0.00367 0.0
C1860 C 0.08588 0.58846 0.00731 0.0
C1861 C 0.12259 0.61016 0.01214 0.0
C1862 C 0.1179 0.66298 0.0515 0.0
H1863 H 0.19858 0.75255 0.0196 0.0
H1864 H 0.16546 0.72643 0.01061 0.0
H1865 H 0.12639 0.6925 0.07392 0.0
H1866 H 0.05446 0.60503 0.02244 0.0
H1867 H 0.07551 0.6396 0.03724 0.0
H1868 H 0.14327 0.65097 0.9962 0.0
C1869 C 0.17194 0.72745 0.02923 0.0
C1870 C 0.13029 0.68354 0.05694 0.0
C1871 C 0.19061 0.74277 0.0344 0.0
C1872 C 0.0736 0.60597 0.02018 0.0
C1873 C 0.08566 0.6258 0.02846 0.0
C1874 C 0.13951 0.65969 0.01337 0.0
C1875 C 0.16305 0.71241 0.04744 0.0
C1876 C 0.14771 0.69218 0.04078 0.0
C1877 C 0.1102 0.62842 0.02391 0.0
C1878 C 0.12265 0.65063 0.02979 0.0
H1879 H 0.19714 0.73116 0.09504 0.0
H1880 H 0.16514 0.70381 0.08608 0.0
H1881 H 0.16548 0.68576 0.00609 0.0
H1882 H 0.12026 0.57722 0.9937 0.0
H1883 H 0.14158 0.61131 0.00886 0.0
C1884 C 0.29568 0.22628 1.00017 0.0
C1885 C 0.29091 0.23681 0.02284 0.0
C1886 C 0.31486 0.21071 0.99765 0.0
C1887 C 0.35547 0.17308 0.03377 0.0
H1888 H 0.39718 0.17749 0.97738 0.0
C1889 C 0.44367 0.12297 0.03161 0.0
C1890 C 0.44871 0.11019 0.01026 0.0
C1891 C 0.4257 0.13991 0.03176 0.0
C1892 C 0.38559 0.17594 0.99313 0.0
H1893 H 0.3021 0.23962 0.06048 0.0
H1894 H 0.33563 0.2125 0.05628 0.0
H1895 H 0.36215 0.20299 0.98033 0.0
H1896 H 0.44 0.10651 0.97178 0.0
H1897 H 0.40842 0.13605 0.97213 0.0
H1898 H 0.37872 0.14611 0.04662 0.0
C1899 C 0.32448 0.21587 0.04049 0.0
C1900 C 0.36549 0.19048 0.99479 0.0
C1901 C 0.30539 0.23142 0.04294 0.0
C1902 C 0.43649 0.11594 0.98859 0.0
C1903 C 0.4184 0.13291 0.98877 0.0
C1904 C 0.37549 0.15861 0.03212 0.0
C1905 C 0.32955 0.20542 0.01778 0.0
C1906 C 0.35031 0.18933 0.01526 0.0
C1907 C 0.41225 0.14447 0.0106 0.0
C1908 C 0.39094 0.16 0.01192 0.0
H1909 H 0.28503 0.23066 0.9843 0.0
H1910 H 0.3182 0.20285 0.97995 0.0
H1911 H 0.34391 0.17141 0.04954 0.0
H1912 H 0.45294 0.11927 0.04856 0.0
H1913 H 0.42186 0.14898 0.04871 0.0
C1914 C 0.82798 0.29565 0.01998 0.0
C1915 C 0.82785 0.27987 0.00039 0.0
C1916 C 0.84649 0.31163 0.02258 0.0
C1917 C 0.89549 0.33983 0.98786 0.0
H1918 H 0.91339 0.36035 0.0528 0.0
C1919 C 0.94484 0.42613 0.00487 0.0
C1920 C 0.95873 0.42874 0.02604 0.0
C1921 C 0.93272 0.40533 0.00039 0.0
C1922 C 0.90908 0.35458 0.03448 0.0
H1923 H 0.8469 0.26812 0.96828 0.0
H1924 H 0.88004 0.29529 0.97333 0.0
H1925 H 0.88538 0.32867 0.04822 0.0
H1926 H 0.97235 0.41102 0.05817 0.0
H1927 H 0.95203 0.37434 0.04991 0.0
H1928 H 0.91984 0.36527 0.97415 0.0
C1929 C 0.86555 0.29581 0.9864 0.0
C1930 C 0.89256 0.33662 0.03185 0.0
C1931 C 0.84678 0.28004 0.98364 0.0
C1932 C 0.9615 0.40961 0.04186 0.0
C1933 C 0.94968 0.38865 0.03719 0.0
C1934 C 0.91234 0.35757 0.99049 0.0
C1935 C 0.86559 0.31193 0.00586 0.0
C1936 C 0.88503 0.32941 0.00852 0.0
C1937 C 0.93446 0.38648 0.01683 0.0
C1938 C 0.91892 0.36561 0.01385 0.0
H1939 H 0.81372 0.29559 0.03331 0.0
H1940 H 0.84555 0.324 0.03752 0.0
H1941 H 0.89011 0.33488 0.96957 0.0
H1942 H 0.94223 0.44059 0.99238 0.0
H1943 H 0.92102 0.40457 0.98467 0.0
C1944 C 0.74443 0.78153 0.90684 0.0
C1945 C 0.74029 0.76497 0.88849 0.0
C1946 C 0.73037 0.80167 0.9083 0.0
C1947 C 0.66971 0.82078 0.89347 0.0
H1948 H 0.69196 0.8793 0.92051 0.0
C1949 C 0.60705 0.89739 0.92456 0.0
C1950 C 0.61268 0.90625 0.94788 0.0
C1951 C 0.62245 0.88153 0.91289 0.0
C1952 C 0.68548 0.86307 0.91288 0.0
H1953 H 0.71944 0.75687 0.85642 0.0
H1954 H 0.69483 0.79237 0.85865 0.0
H1955 H 0.72083 0.85033 0.90635 0.0
H1956 H 0.63855 0.90467 0.97743 0.0
H1957 H 0.66504 0.87729 0.9572 0.0
H1958 H 0.63431 0.83342 0.90068 0.0
C1959 C 0.70876 0.78971 0.8721 0.0
C1960 C 0.70201 0.84648 0.90479 0.0
C1961 C 0.72292 0.76957 0.87064 0.0
C1962 C 0.63362 0.8984 0.95945 0.0
C1963 C 0.64899 0.88283 0.94776 0.0
C1964 C 0.65313 0.83747 0.90147 0.0
C1965 C 0.71182 0.80561 0.89144 0.0
C1966 C 0.69436 0.82482 0.89576 0.0
C1967 C 0.64382 0.87451 0.92423 0.0
C1968 C 0.66091 0.85843 0.91205 0.0
H1969 H 0.75736 0.77806 0.9211 0.0
H1970 H 0.73304 0.81334 0.92364 0.0
H1971 H 0.66318 0.80419 0.88681 0.0
H1972 H 0.59104 0.90303 0.91515 0.0
H1973 H 0.61797 0.87525 0.89478 0.0
C1974 C 0.80152 0.67882 0.90134 0.0
C1975 C 0.79641 0.70126 0.91027 0.0
C1976 C 0.81975 0.6654 0.91176 0.0
C1977 C 0.85205 0.65889 0.96982 0.0
H1978 H 0.89372 0.61816 0.93235 0.0
C1979 C 0.90815 0.58677 0.01576 0.0
C1980 C 0.93157 0.58348 0.00738 0.0
C1981 C 0.89239 0.60134 0.00306 0.0
C1982 C 0.88229 0.62952 0.94307 0.0
H1983 H 0.80628 0.72745 0.93682 0.0
H1984 H 0.83867 0.70435 0.95471 0.0
H1985 H 0.8659 0.64409 0.91108 0.0
H1986 H 0.95721 0.59372 0.98003 0.0
H1987 H 0.92978 0.61907 0.95758 0.0
H1988 H 0.86844 0.64449 0.00177 0.0
C1989 C 0.82852 0.697 0.93975 0.0
C1990 C 0.86624 0.64425 0.93088 0.0
C1991 C 0.81028 0.71039 0.9293 0.0
C1992 C 0.93903 0.59522 0.98625 0.0
C1993 C 0.92333 0.60989 0.97356 0.0
C1994 C 0.86798 0.6441 0.98197 0.0
C1995 C 0.83316 0.67417 0.93142 0.0
C1996 C 0.8509 0.65908 0.94414 0.0
C1997 C 0.89982 0.61316 0.98186 0.0
C1998 C 0.88319 0.62914 0.96877 0.0
H1999 H 0.79083 0.67145 0.88679 0.0
H2000 H 0.82267 0.64781 0.90508 0.0
H2001 H 0.84027 0.66985 0.9806 0.0
H2002 H 0.90195 0.57795 0.03207 0.0
H2003 H 0.87432 0.60324 0.00979 0.0
C2004 C 0.28676 0.80353 0.07032 0.0
C2005 C 0.27138 0.79524 0.05216 0.0
C2006 C 0.30317 0.82106 0.06505 0.0
C2007 C 0.3193 0.86667 0.01929 0.0
H2008 H 0.38122 0.86044 0.05014 0.0
C2009 C 0.40478 0.92023 0.99388 0.0
C2010 C 0.41885 0.92748 0.01378 0.0
C2011 C 0.38471 0.90614 0.99772 0.0
C2012 C 0.36395 0.86257 0.04155 0.0
H2013 H 0.26093 0.79846 0.01429 0.0
H2014 H 0.28998 0.82899 0.0047 0.0
H2015 H 0.3507 0.83158 0.05823 0.0
H2016 H 0.42161 0.92718 0.05341 0.0
H2017 H 0.3869 0.90282 0.05993 0.0
H2018 H 0.33315 0.89755 0.00214 0.0
C2019 C 0.28904 0.8224 0.02323 0.0
C2020 C 0.34636 0.84605 0.04625 0.0
C2021 C 0.27242 0.80495 0.02864 0.0
C2022 C 0.41149 0.92163 0.03759 0.0
C2023 C 0.39161 0.90757 0.04137 0.0
C2024 C 0.33708 0.88317 0.01438 0.0
C2025 C 0.30487 0.83048 0.04132 0.0
C2026 C 0.32366 0.84798 0.03548 0.0
C2027 C 0.37844 0.89903 0.02149 0.0
C2028 C 0.35949 0.88143 0.02574 0.0
H2029 H 0.28611 0.79625 0.08858 0.0
H2030 H 0.31463 0.82715 0.07963 0.0
H2031 H 0.302 0.86882 0.01076 0.0
H2032 H 0.40987 0.92451 0.97531 0.0
H2033 H 0.37484 0.89986 0.98204 0.0
C2034 C 0.76941 0.19763 0.97351 0.0
C2035 C 0.78047 0.20702 0.99423 0.0
C2036 C 0.75835 0.17586 0.97472 0.0
C2037 C 0.72881 0.13936 0.02045 0.0
H2038 H 0.72081 0.09696 0.9658 0.0
C2039 C 0.66015 0.0659 0.02534 0.0
C2040 C 0.64479 0.06471 0.00506 0.0
C2041 C 0.68145 0.07837 0.02396 0.0
C2042 C 0.72289 0.10863 0.98123 0.0
H2043 H 0.79009 0.201 0.0319 0.0
H2044 H 0.7713 0.16248 0.03409 0.0
H2045 H 0.75066 0.12782 0.96349 0.0
H2046 H 0.64048 0.07458 0.96701 0.0
H2047 H 0.67741 0.09652 0.96469 0.0
H2048 H 0.70058 0.12086 0.03786 0.0
C2049 C 0.77075 0.172 0.01698 0.0
C2050 C 0.73998 0.1263 0.97991 0.0
C2051 C 0.78169 0.19383 0.01574 0.0
C2052 C 0.65189 0.07511 0.98296 0.0
C2053 C 0.67317 0.08762 0.9816 0.0
C2054 C 0.7118 0.12172 0.02178 0.0
C2055 C 0.7582 0.16312 0.99673 0.0
C2056 C 0.74275 0.14223 0.99929 0.0
C2057 C 0.68784 0.08999 0.0023 0.0
C2058 C 0.70823 0.10648 0.00198 0.0
H2059 H 0.7682 0.2078 0.95686 0.0
H2060 H 0.74866 0.16975 0.95885 0.0
H2061 H 0.73009 0.15153 0.03555 0.0
H2062 H 0.65536 0.05791 0.0426 0.0
H2063 H 0.69256 0.07951 0.04011 0.0
C2064 C 0.57068 0.69636 0.79182 0.0
C2065 C 0.55246 0.7068 0.77801 0.0
C2066 C 0.56664 0.67548 0.80432 0.0
C2067 C 0.51661 0.64535 0.83303 0.0
H2068 H 0.56543 0.6003 0.85083 0.0
C2069 C 0.50125 0.58364 0.91363 0.0
C2070 C 0.51999 0.58344 0.9307 0.0
C2071 C 0.50491 0.592 0.8899 0.0
C2072 C 0.55156 0.61267 0.84599 0.0
H2073 H 0.51637 0.70304 0.7649 0.0
H2074 H 0.50926 0.66612 0.7863 0.0
H2075 H 0.57253 0.62739 0.81713 0.0
H2076 H 0.55778 0.58983 0.93552 0.0
H2077 H 0.56404 0.6049 0.89448 0.0
H2078 H 0.49605 0.63152 0.86245 0.0
C2079 C 0.52659 0.67422 0.78784 0.0
C2080 C 0.55563 0.62822 0.82668 0.0
C2081 C 0.53068 0.69517 0.77536 0.0
C2082 C 0.54286 0.59008 0.92295 0.0
C2083 C 0.5465 0.59853 0.89926 0.0
C2084 C 0.51254 0.62984 0.85227 0.0
C2085 C 0.54423 0.66458 0.80323 0.0
C2086 C 0.53848 0.64525 0.82047 0.0
C2087 C 0.52737 0.60043 0.88273 0.0
C2088 C 0.53024 0.61378 0.85952 0.0
H2089 H 0.58759 0.70513 0.79403 0.0
H2090 H 0.58058 0.66877 0.81612 0.0
H2091 H 0.50311 0.6584 0.82909 0.0
H2092 H 0.4835 0.57827 0.91887 0.0
H2093 H 0.4899 0.59268 0.87746 0.0
C2094 C 0.34016 0.53214 0.79523 0.0
C2095 C 0.33849 0.55261 0.78132 0.0
C2096 C 0.36048 0.52748 0.80915 0.0
C2097 C 0.41029 0.55848 0.839 0.0
H2098 H 0.42781 0.49532 0.85728 0.0
C2099 C 0.45285 0.53698 0.93161 0.0
C2100 C 0.4667 0.51668 0.93451 0.0
C2101 C 0.44276 0.54249 0.90898 0.0
C2102 C 0.42364 0.51313 0.85213 0.0
H2103 H 0.35685 0.58379 0.76992 0.0
H2104 H 0.39308 0.57536 0.79357 0.0
H2105 H 0.40063 0.50169 0.82344 0.0
H2106 H 0.48252 0.48725 0.91544 0.0
H2107 H 0.46549 0.4972 0.87568 0.0
H2108 H 0.43366 0.56993 0.86744 0.0
C2109 C 0.37848 0.56309 0.79426 0.0
C2110 C 0.40765 0.51678 0.83288 0.0
C2111 C 0.35794 0.56783 0.78048 0.0
C2112 C 0.47155 0.5028 0.91388 0.0
C2113 C 0.46168 0.50848 0.89111 0.0
C2114 C 0.42658 0.55485 0.85803 0.0
C2115 C 0.37978 0.54312 0.80929 0.0
C2116 C 0.40001 0.53946 0.82667 0.0
C2117 C 0.44651 0.528 0.88852 0.0
C2118 C 0.43276 0.53209 0.8655 0.0
H2119 H 0.32523 0.52027 0.79611 0.0
H2120 H 0.36047 0.51215 0.82073 0.0
H2121 H 0.40489 0.57622 0.83489 0.0
H2122 H 0.44884 0.54813 0.9471 0.0
H2123 H 0.43102 0.55752 0.90795 0.0
C2124 C 0.48692 0.27567 0.78476 0.0
C2125 C 0.46526 0.26455 0.7899 0.0
C2126 C 0.49561 0.29309 0.80029 0.0
C2127 C 0.4783 0.33367 0.85058 0.0
H2128 H 0.54581 0.3314 0.86559 0.0
C2129 C 0.52508 0.40296 0.91175 0.0
C2130 C 0.54222 0.39453 0.92839 0.0
C2131 C 0.51519 0.38811 0.89409 0.0
C2132 C 0.52689 0.33223 0.86172 0.0
H2133 H 0.43555 0.26298 0.81496 0.0
H2134 H 0.45074 0.29327 0.8424 0.0
H2135 H 0.52926 0.30397 0.83625 0.0
H2136 H 0.56212 0.36376 0.93961 0.0
H2137 H 0.54481 0.338 0.90915 0.0
H2138 H 0.4759 0.36157 0.87663 0.0
C2139 C 0.4609 0.28886 0.82618 0.0
C2140 C 0.51743 0.31667 0.84462 0.0
C2141 C 0.45223 0.27145 0.81061 0.0
C2142 C 0.54907 0.37092 0.92705 0.0
C2143 C 0.53924 0.35613 0.90943 0.0
C2144 C 0.48779 0.3493 0.86769 0.0
C2145 C 0.48288 0.29971 0.8214 0.0
C2146 C 0.49298 0.31705 0.83891 0.0
C2147 C 0.52227 0.36452 0.89262 0.0
C2148 C 0.51218 0.34863 0.87366 0.0
H2149 H 0.49752 0.27032 0.76918 0.0
H2150 H 0.51247 0.3012 0.79587 0.0
H2151 H 0.45943 0.33462 0.84647 0.0
H2152 H 0.51941 0.42106 0.91225 0.0
H2153 H 0.50231 0.39521 0.88132 0.0
C2154 C 0.65609 0.53173 0.78096 0.0
C2155 C 0.6661 0.55359 0.78603 0.0
C2156 C 0.63428 0.52538 0.79148 0.0
C2157 C 0.58587 0.54752 0.83427 0.0
H2158 H 0.5891 0.48382 0.85777 0.0
C2159 C 0.535 0.52165 0.92117 0.0
C2160 C 0.54932 0.50929 0.93791 0.0
C2161 C 0.54168 0.52321 0.89651 0.0
C2162 C 0.5879 0.50171 0.8515 0.0
H2163 H 0.6603 0.58675 0.80387 0.0
H2164 H 0.62328 0.57556 0.82336 0.0
H2165 H 0.61517 0.49592 0.82513 0.0
H2166 H 0.58029 0.48674 0.9414 0.0
H2167 H 0.59216 0.48975 0.89915 0.0
H2168 H 0.56041 0.55386 0.86261 0.0
C2169 C 0.63154 0.56322 0.81096 0.0
C2170 C 0.60266 0.50864 0.83227 0.0
C2171 C 0.65298 0.56969 0.79996 0.0
C2172 C 0.56899 0.49663 0.92906 0.0
C2173 C 0.57571 0.49825 0.90457 0.0
C2174 C 0.57154 0.54074 0.85399 0.0
C2175 C 0.62234 0.54055 0.8078 0.0
C2176 C 0.60272 0.53196 0.82408 0.0
C2177 C 0.56279 0.51239 0.88812 0.0
C2178 C 0.57323 0.518 0.86365 0.0
H2179 H 0.66588 0.51899 0.77026 0.0
H2180 H 0.62751 0.50808 0.7878 0.0
H2181 H 0.58457 0.56538 0.82794 0.0
H2182 H 0.51953 0.53136 0.92736 0.0
H2183 H 0.5309 0.5338 0.88433 0.0
C2184 C 0.47177 0.30353 0.21508 0.0
C2185 C 0.49186 0.30038 0.22998 0.0
C2186 C 0.46994 0.32297 0.1997 0.0
C2187 C 0.49765 0.38025 0.18361 0.0
H2188 H 0.47978 0.3626 0.11766 0.0
C2189 C 0.5066 0.44395 0.10142 0.0
C2190 C 0.51916 0.43417 0.08167 0.0
C2191 C 0.4979 0.42962 0.12021 0.0
C2192 C 0.48468 0.36788 0.136 0.0
H2193 H 0.52534 0.31518 0.24139 0.0
H2194 H 0.5224 0.3493 0.2145 0.0
H2195 H 0.47495 0.33481 0.15088 0.0
H2196 H 0.53166 0.40186 0.06546 0.0
H2197 H 0.51621 0.37692 0.09775 0.0
H2198 H 0.5085 0.41299 0.16828 0.0
C2199 C 0.50776 0.33707 0.2149 0.0
C2200 C 0.48169 0.35201 0.15516 0.0
C2201 C 0.50949 0.31762 0.23035 0.0
C2202 C 0.52189 0.40983 0.08042 0.0
C2203 C 0.51295 0.39554 0.0989 0.0
C2204 C 0.50057 0.39619 0.1644 0.0
C2205 C 0.48835 0.33956 0.19872 0.0
C2206 C 0.48865 0.35775 0.17915 0.0
C2207 C 0.50135 0.40526 0.11933 0.0
C2208 C 0.49471 0.38994 0.14026 0.0
H2209 H 0.45814 0.29023 0.2144 0.0
H2210 H 0.45456 0.32449 0.18783 0.0
H2211 H 0.50296 0.38535 0.20188 0.0
H2212 H 0.50476 0.46269 0.10308 0.0
H2213 H 0.48898 0.43763 0.13568 0.0
C2214 C 0.70826 0.43523 0.22751 0.0
C2215 C 0.71237 0.45726 0.23775 0.0
C2216 C 0.68867 0.43169 0.21212 0.0
C2217 C 0.65908 0.43562 0.16565 0.0
H2218 H 0.60148 0.47275 0.17163 0.0
C2219 C 0.60874 0.47214 0.08317 0.0
C2220 C 0.58534 0.48024 0.08623 0.0
C2221 C 0.62038 0.46069 0.10238 0.0
C2222 C 0.61707 0.4617 0.16969 0.0
H2223 H 0.69951 0.49265 0.24088 0.0
H2224 H 0.6654 0.48689 0.21388 0.0
H2225 H 0.62809 0.46928 0.20623 0.0
H2226 H 0.55467 0.48067 0.11018 0.0
H2227 H 0.57433 0.45931 0.14318 0.0
H2228 H 0.64801 0.42802 0.12906 0.0
C2229 C 0.67673 0.47204 0.21797 0.0
C2230 C 0.63261 0.46006 0.18955 0.0
C2231 C 0.69623 0.47546 0.23338 0.0
C2232 C 0.57283 0.47458 0.10758 0.0
C2233 C 0.58423 0.46262 0.12655 0.0
C2234 C 0.64335 0.43701 0.14583 0.0
C2235 C 0.67301 0.45026 0.20663 0.0
C2236 C 0.65432 0.44789 0.18744 0.0
C2237 C 0.60864 0.45692 0.12485 0.0
C2238 C 0.62262 0.4509 0.14723 0.0
H2239 H 0.72082 0.42111 0.23059 0.0
H2240 H 0.68622 0.41465 0.20395 0.0
H2241 H 0.67563 0.42607 0.1633 0.0
H2242 H 0.61873 0.47661 0.06688 0.0
H2243 H 0.63915 0.45673 0.10024 0.0
C2244 C 0.5959 0.73355 0.23983 0.0
C2245 C 0.57874 0.7407 0.25695 0.0
C2246 C 0.59112 0.71524 0.22366 0.0
C2247 C 0.54196 0.68564 0.19299 0.0
H2248 H 0.58797 0.63605 0.18161 0.0
C2249 C 0.52034 0.60856 0.12891 0.0
C2250 C 0.5388 0.59958 0.11419 0.0
C2251 C 0.52521 0.62459 0.14752 0.0
C2252 C 0.57503 0.64991 0.18427 0.0
H2253 H 0.54308 0.73489 0.27051 0.0
H2254 H 0.53447 0.70284 0.24205 0.0
H2255 H 0.59657 0.66637 0.21164 0.0
H2256 H 0.5769 0.6003 0.10764 0.0
H2257 H 0.58534 0.62884 0.13949 0.0
H2258 H 0.52073 0.66985 0.16516 0.0
C2259 C 0.55172 0.71122 0.24128 0.0
C2260 C 0.57994 0.66722 0.20159 0.0
C2261 C 0.55666 0.72933 0.25768 0.0
C2262 C 0.56229 0.60678 0.11874 0.0
C2263 C 0.56713 0.62309 0.13714 0.0
C2264 C 0.53717 0.66852 0.17544 0.0
C2265 C 0.5689 0.704 0.22406 0.0
C2266 C 0.56347 0.68527 0.20612 0.0
C2267 C 0.54863 0.63236 0.15171 0.0
C2268 C 0.55363 0.65039 0.17079 0.0
H2269 H 0.61295 0.74228 0.23895 0.0
H2270 H 0.60459 0.71024 0.21044 0.0
H2271 H 0.52907 0.69952 0.19584 0.0
H2272 H 0.50207 0.60315 0.1261 0.0
H2273 H 0.51054 0.63082 0.15865 0.0
C2274 C 0.34726 0.58709 0.24567 0.0
C2275 C 0.33888 0.6095 0.23976 0.0
C2276 C 0.36839 0.57856 0.23533 0.0
C2277 C 0.42048 0.59455 0.19555 0.0
H2278 H 0.41202 0.53139 0.17169 0.0
C2279 C 0.4687 0.51947 0.1304 0.0
C2280 C 0.47323 0.53286 0.10932 0.0
C2281 C 0.45715 0.52932 0.1506 0.0
C2282 C 0.41498 0.54888 0.17855 0.0
H2283 H 0.3467 0.64122 0.22007 0.0
H2284 H 0.38318 0.62625 0.20128 0.0
H2285 H 0.38334 0.54777 0.20008 0.0
H2286 H 0.47016 0.56744 0.09394 0.0
H2287 H 0.45013 0.58471 0.12893 0.0
H2288 H 0.45164 0.5958 0.17279 0.0
C2289 C 0.37384 0.61526 0.21418 0.0
C2290 C 0.3985 0.55832 0.19498 0.0
C2291 C 0.35289 0.62386 0.22482 0.0
C2292 C 0.46716 0.55666 0.10966 0.0
C2293 C 0.45565 0.56658 0.12989 0.0
C2294 C 0.43692 0.58511 0.1789 0.0
C2295 C 0.38137 0.59213 0.21851 0.0
C2296 C 0.40076 0.58141 0.20344 0.0
C2297 C 0.44984 0.55283 0.1503 0.0
C2298 C 0.43414 0.56227 0.16994 0.0
H2299 H 0.33666 0.57559 0.25693 0.0
H2300 H 0.3739 0.56088 0.2396 0.0
H2301 H 0.42301 0.61227 0.2019 0.0
H2302 H 0.47334 0.5011 0.13102 0.0
H2303 H 0.45331 0.51833 0.16622 0.0
C2304 C 0.75012 0.53469 0.7339 0.0
C2305 C 0.74601 0.55599 0.74585 0.0
C2306 C 0.77042 0.53158 0.7193 0.0
C2307 C 0.8308 0.55666 0.70805 0.0
H2308 H 0.82823 0.51789 0.65004 0.0
C2309 C 0.90658 0.54966 0.63482 0.0
C2310 C 0.91096 0.52728 0.62507 0.0
C2311 C 0.88774 0.55335 0.65132 0.0
C2312 C 0.82931 0.5286 0.66633 0.0
H2313 H 0.75934 0.59081 0.75177 0.0
H2314 H 0.7944 0.58588 0.72562 0.0
H2315 H 0.7922 0.52438 0.67392 0.0
H2316 H 0.89994 0.491 0.62655 0.0
H2317 H 0.8674 0.4975 0.65512 0.0
H2318 H 0.86796 0.5612 0.69993 0.0
C2319 C 0.7824 0.5713 0.72785 0.0
C2320 C 0.80862 0.53229 0.6801 0.0
C2321 C 0.76222 0.57428 0.74259 0.0
C2322 C 0.89703 0.50852 0.63342 0.0
C2323 C 0.8782 0.51225 0.64969 0.0
C2324 C 0.85148 0.55314 0.69409 0.0
C2325 C 0.78698 0.5498 0.71621 0.0
C2326 C 0.80905 0.54627 0.70125 0.0
C2327 C 0.87286 0.53479 0.65827 0.0
C2328 C 0.851 0.53891 0.67318 0.0
H2329 H 0.73812 0.52019 0.73667 0.0
H2330 H 0.77346 0.51464 0.71106 0.0
H2331 H 0.83201 0.56722 0.72442 0.0
H2332 H 0.91695 0.56451 0.62888 0.0
H2333 H 0.88411 0.57093 0.65767 0.0
C2334 C 0.56968 0.79562 0.724 0.0
C2335 C 0.55129 0.77959 0.72794 0.0
C2336 C 0.56735 0.81304 0.70632 0.0
C2337 C 0.53354 0.83068 0.65117 0.0
H2338 H 0.55719 0.892 0.66848 0.0
C2339 C 0.54864 0.90427 0.5802 0.0
C2340 C 0.54496 0.92754 0.58756 0.0
C2341 C 0.54646 0.88598 0.59701 0.0
C2342 C 0.55018 0.8751 0.6634 0.0
H2343 H 0.51614 0.76886 0.71654 0.0
H2344 H 0.51189 0.79943 0.68529 0.0
H2345 H 0.55921 0.86052 0.69817 0.0
H2346 H 0.53521 0.94971 0.61817 0.0
H2347 H 0.53075 0.91784 0.64724 0.0
H2348 H 0.52427 0.84545 0.61641 0.0
C2349 C 0.52827 0.79838 0.69571 0.0
C2350 C 0.55167 0.85691 0.68034 0.0
C2351 C 0.53067 0.78088 0.71348 0.0
C2352 C 0.53819 0.93201 0.61187 0.0
C2353 C 0.53584 0.91372 0.62862 0.0
C2354 C 0.53203 0.84893 0.63417 0.0
C2355 C 0.54647 0.81491 0.6922 0.0
C2356 C 0.54368 0.83439 0.67436 0.0
C2357 C 0.54047 0.8905 0.62155 0.0
C2358 C 0.54055 0.87133 0.63999 0.0
H2359 H 0.58577 0.79477 0.73492 0.0
H2360 H 0.58193 0.82512 0.70378 0.0
H2361 H 0.52728 0.81354 0.64594 0.0
H2362 H 0.55389 0.9002 0.56162 0.0
H2363 H 0.55038 0.86837 0.59094 0.0
C2364 C 0.27416 0.5419 0.70532 0.0
C2365 C 0.27265 0.5611 0.72116 0.0
C2366 C 0.25854 0.53998 0.68549 0.0
C2367 C 0.21415 0.57294 0.64799 0.0
H2368 H 0.18592 0.51183 0.63963 0.0
C2369 C 0.12507 0.55698 0.59696 0.0
C2370 C 0.12283 0.53626 0.58334 0.0
C2371 C 0.14567 0.56126 0.61065 0.0
C2372 C 0.19388 0.52894 0.64138 0.0
H2373 H 0.25426 0.59354 0.72863 0.0
H2374 H 0.22664 0.59021 0.69424 0.0
H2375 H 0.21802 0.51695 0.66891 0.0
H2376 H 0.1411 0.50441 0.57244 0.0
H2377 H 0.17688 0.51188 0.59626 0.0
H2378 H 0.18945 0.58497 0.62077 0.0
C2379 C 0.2401 0.57679 0.69672 0.0
C2380 C 0.21235 0.53187 0.65819 0.0
C2381 C 0.25576 0.57868 0.71648 0.0
C2382 C 0.14205 0.5204 0.58296 0.0
C2383 C 0.16256 0.52464 0.59669 0.0
C2384 C 0.1956 0.57 0.63115 0.0
C2385 C 0.24098 0.55719 0.68123 0.0
C2386 C 0.22259 0.55394 0.6619 0.0
C2387 C 0.16442 0.54486 0.61112 0.0
C2388 C 0.18511 0.54799 0.62781 0.0
H2389 H 0.28677 0.52793 0.70888 0.0
H2390 H 0.25988 0.52478 0.67378 0.0
H2391 H 0.22183 0.59012 0.65018 0.0
H2392 H 0.1107 0.56968 0.59752 0.0
H2393 H 0.14648 0.57699 0.62161 0.0
C2394 C 0.47065 0.21046 0.70639 0.0
C2395 C 0.44908 0.21255 0.71912 0.0
C2396 C 0.47201 0.19704 0.68505 0.0
C2397 C 0.44088 0.14803 0.65435 0.0
H2398 H 0.48815 0.15987 0.60431 0.0
C2399 C 0.47902 0.07523 0.59236 0.0
C2400 C 0.48892 0.08122 0.56968 0.0
C2401 C 0.46915 0.09249 0.60749 0.0
C2402 C 0.47446 0.15636 0.61775 0.0
H2403 H 0.41183 0.20335 0.71936 0.0
H2404 H 0.41373 0.18061 0.68141 0.0
H2405 H 0.48036 0.1892 0.63524 0.0
H2406 H 0.49478 0.10943 0.54413 0.0
H2407 H 0.47644 0.13938 0.5698 0.0
H2408 H 0.43465 0.11535 0.63651 0.0
C2409 C 0.42982 0.18877 0.68809 0.0
C2410 C 0.47029 0.17314 0.63586 0.0
C2411 C 0.42858 0.20202 0.70959 0.0
C2412 C 0.48729 0.10442 0.56162 0.0
C2413 C 0.47703 0.1216 0.5765 0.0
C2414 C 0.44483 0.13135 0.63603 0.0
C2415 C 0.45172 0.18554 0.67587 0.0
C2416 C 0.45391 0.16898 0.65482 0.0
C2417 C 0.46876 0.11609 0.60012 0.0
C2418 C 0.46213 0.135 0.6178 0.0
H2419 H 0.48673 0.21811 0.71378 0.0
H2420 H 0.48929 0.19473 0.67654 0.0
H2421 H 0.42824 0.14399 0.66868 0.0
H2422 H 0.48045 0.05752 0.59915 0.0
H2423 H 0.46324 0.08745 0.62557 0.0
C2424 C 0.77637 0.46351 0.31785 0.0
C2425 C 0.77308 0.47998 0.29921 0.0
C2426 C 0.78988 0.46912 0.33851 0.0
C2427 C 0.8166 0.51841 0.37295 0.0
H2428 H 0.86456 0.47234 0.3903 0.0
C2429 C 0.90106 0.53993 0.42943 0.0
C2430 C 0.91047 0.52249 0.44476 0.0
C2431 C 0.88122 0.53534 0.41471 0.0
C2432 C 0.85101 0.48527 0.38609 0.0
H2433 H 0.78007 0.51535 0.28768 0.0
H2434 H 0.80395 0.52525 0.32362 0.0
H2435 H 0.83506 0.46307 0.35935 0.0
H2436 H 0.90535 0.48716 0.45807 0.0
H2437 H 0.87056 0.47939 0.43291 0.0
H2438 H 0.83293 0.54077 0.39947 0.0
C2439 C 0.79604 0.50808 0.32253 0.0
C2440 C 0.83407 0.47993 0.36829 0.0
C2441 C 0.78258 0.50242 0.3019 0.0
C2442 C 0.89881 0.50086 0.44613 0.0
C2443 C 0.8789 0.49636 0.43161 0.0
C2444 C 0.83355 0.52374 0.39086 0.0
C2445 C 0.80025 0.49133 0.34085 0.0
C2446 C 0.81684 0.49651 0.3613 0.0
C2447 C 0.87028 0.51328 0.41518 0.0
C2448 C 0.85112 0.50731 0.39746 0.0
H2449 H 0.76926 0.44607 0.31595 0.0
H2450 H 0.79259 0.45592 0.35243 0.0
H2451 H 0.80339 0.53147 0.36813 0.0
H2452 H 0.90964 0.55678 0.42799 0.0
H2453 H 0.87515 0.54873 0.40216 0.0
C2454 C 0.60282 0.80565 0.34029 0.0
C2455 C 0.58452 0.79238 0.32979 0.0
C2456 C 0.59829 0.8196 0.36078 0.0
C2457 C 0.57651 0.86192 0.38569 0.0
H2458 H 0.53192 0.84799 0.4378 0.0
C2459 C 0.51908 0.93264 0.43154 0.0
C2460 C 0.51439 0.93116 0.45674 0.0
C2461 C 0.53144 0.9148 0.41951 0.0
C2462 C 0.54466 0.85212 0.42358 0.0
H2463 H 0.54773 0.78194 0.33315 0.0
H2464 H 0.53967 0.80611 0.36909 0.0
H2465 H 0.54741 0.81636 0.4122 0.0
H2466 H 0.51958 0.90993 0.48918 0.0
H2467 H 0.54122 0.8787 0.46808 0.0
H2468 H 0.57299 0.89769 0.39626 0.0
C2469 C 0.55759 0.80569 0.36173 0.0
C2470 C 0.5534 0.83402 0.40882 0.0
C2471 C 0.56215 0.7918 0.3412 0.0
C2472 C 0.52279 0.91158 0.46973 0.0
C2473 C 0.53509 0.89363 0.45764 0.0
C2474 C 0.56758 0.87999 0.40023 0.0
C2475 C 0.57534 0.82048 0.37113 0.0
C2476 C 0.569 0.8388 0.38934 0.0
C2477 C 0.53938 0.89495 0.43234 0.0
C2478 C 0.55114 0.8754 0.41899 0.0
H2479 H 0.62019 0.80628 0.33167 0.0
H2480 H 0.61242 0.83053 0.3678 0.0
H2481 H 0.58831 0.8663 0.37071 0.0
H2482 H 0.51295 0.94749 0.42096 0.0
H2483 H 0.53421 0.91629 0.39998 0.0
C2484 C 0.25782 0.59168 0.29275 0.0
C2485 C 0.26001 0.61315 0.28073 0.0
C2486 C 0.23819 0.58729 0.3078 0.0
C2487 C 0.17627 0.6082 0.321 0.0
H2488 H 0.18333 0.56664 0.3765 0.0
C2489 C 0.10308 0.58518 0.39496 0.0
C2490 C 0.10032 0.56097 0.39844 0.0
C2491 C 0.12128 0.59374 0.37978 0.0
C2492 C 0.18111 0.5783 0.36105 0.0
H2493 H 0.24374 0.64692 0.27486 0.0
H2494 H 0.20976 0.63983 0.302 0.0
H2495 H 0.21839 0.57794 0.35322 0.0
H2496 H 0.11378 0.52688 0.38738 0.0
H2497 H 0.14542 0.54184 0.36159 0.0
H2498 H 0.13882 0.60874 0.32954 0.0
C2499 C 0.22287 0.62609 0.29951 0.0
C2500 C 0.20119 0.58466 0.34754 0.0
C2501 C 0.2424 0.63031 0.2842 0.0
C2502 C 0.11536 0.54562 0.38539 0.0
C2503 C 0.13362 0.55415 0.37064 0.0
C2504 C 0.15618 0.60211 0.33486 0.0
C2505 C 0.22035 0.60441 0.3114 0.0
C2506 C 0.19905 0.59929 0.32696 0.0
C2507 C 0.13717 0.57823 0.36816 0.0
C2508 C 0.15839 0.5867 0.35468 0.0
H2509 H 0.27084 0.57796 0.28971 0.0
H2510 H 0.23671 0.57017 0.316 0.0
H2511 H 0.17376 0.61929 0.30517 0.0
H2512 H 0.09182 0.5975 0.40466 0.0
H2513 H 0.12364 0.61243 0.37806 0.0
C2514 C 0.48322 0.23167 0.30326 0.0
C2515 C 0.50343 0.23425 0.28843 0.0
C2516 C 0.48368 0.21648 0.32334 0.0
C2517 C 0.51485 0.16399 0.34616 0.0
H2518 H 0.48415 0.17957 0.40758 0.0
C2519 C 0.51393 0.09892 0.42734 0.0
C2520 C 0.49224 0.09689 0.44002 0.0
C2521 C 0.51757 0.11717 0.41067 0.0
C2522 C 0.49264 0.17482 0.39049 0.0
H2523 H 0.54026 0.22411 0.28353 0.0
H2524 H 0.54113 0.19723 0.31832 0.0
H2525 H 0.48571 0.20854 0.37495 0.0
H2526 H 0.45762 0.11324 0.44555 0.0
H2527 H 0.46375 0.14454 0.41651 0.0
H2528 H 0.52123 0.13008 0.36134 0.0
C2529 C 0.52478 0.20662 0.31432 0.0
C2530 C 0.49355 0.19148 0.37178 0.0
C2531 C 0.52431 0.22193 0.29438 0.0
C2532 C 0.47463 0.11412 0.43621 0.0
C2533 C 0.4782 0.13227 0.41957 0.0
C2534 C 0.51381 0.14727 0.3648 0.0
C2535 C 0.50438 0.20349 0.32889 0.0
C2536 C 0.50445 0.1862 0.34929 0.0
C2537 C 0.49957 0.1339 0.40626 0.0
C2538 C 0.50243 0.15234 0.38714 0.0
H2539 H 0.46688 0.2409 0.29883 0.0
H2540 H 0.46759 0.21434 0.33404 0.0
H2541 H 0.52315 0.15924 0.32896 0.0
H2542 H 0.52796 0.08627 0.42991 0.0
H2543 H 0.53444 0.11804 0.40109 0.0
C2544 C 0.72672 0.80278 0.46796 0.0
C2545 C 0.7448 0.80531 0.45046 0.0
C2546 C 0.70482 0.81437 0.465 0.0
C2547 C 0.6669 0.84619 0.42003 0.0
H2548 H 0.64784 0.88351 0.47596 0.0
C2549 C 0.61001 0.92946 0.4103 0.0
C2550 C 0.59367 0.93555 0.42875 0.0
C2551 C 0.625 0.91006 0.41297 0.0
C2552 C 0.65253 0.87289 0.46028 0.0
H2553 H 0.75416 0.82078 0.41581 0.0
H2554 H 0.71587 0.84079 0.41026 0.0
H2555 H 0.67987 0.8549 0.48023 0.0
H2556 H 0.57994 0.92566 0.46431 0.0
H2557 H 0.60602 0.89159 0.4689 0.0
H2558 H 0.63985 0.86447 0.39995 0.0
C2559 C 0.71838 0.82988 0.42624 0.0
C2560 C 0.67094 0.85646 0.46274 0.0
C2561 C 0.74029 0.81852 0.42937 0.0
C2562 C 0.59245 0.92155 0.44983 0.0
C2563 C 0.60744 0.90204 0.45247 0.0
C2564 C 0.64839 0.86252 0.41761 0.0
C2565 C 0.70059 0.82847 0.44433 0.0
C2566 C 0.67878 0.84335 0.44249 0.0
C2567 C 0.62407 0.89617 0.43415 0.0
C2568 C 0.64142 0.87657 0.43753 0.0
H2569 H 0.73002 0.79283 0.48445 0.0
H2570 H 0.69143 0.81279 0.47917 0.0
H2571 H 0.67226 0.83611 0.40418 0.0
H2572 H 0.61148 0.93984 0.39383 0.0
H2573 H 0.63781 0.90636 0.39864 0.0
C2574 C 0.69986 0.23136 0.50973 0.0
C2575 C 0.71744 0.22542 0.52686 0.0
C2576 C 0.67805 0.21962 0.50958 0.0
C2577 C 0.64216 0.17425 0.54316 0.0
H2578 H 0.62249 0.15831 0.47732 0.0
C2579 C 0.59091 0.09037 0.51469 0.0
C2580 C 0.57286 0.09319 0.49719 0.0
C2581 C 0.60464 0.10953 0.52198 0.0
C2582 C 0.62752 0.16283 0.49585 0.0
H2583 H 0.72545 0.20436 0.5586 0.0
H2584 H 0.68816 0.18295 0.55775 0.0
H2585 H 0.65309 0.18742 0.48332 0.0
H2586 H 0.55443 0.11811 0.47403 0.0
H2587 H 0.57852 0.15142 0.48647 0.0
H2588 H 0.61737 0.14823 0.55533 0.0
C2589 C 0.69066 0.19684 0.54461 0.0
C2590 C 0.645 0.17972 0.49936 0.0
C2591 C 0.7122 0.20891 0.54499 0.0
C2592 C 0.56825 0.11551 0.48762 0.0
C2593 C 0.58201 0.13455 0.49471 0.0
C2594 C 0.6249 0.157 0.53959 0.0
C2595 C 0.67362 0.20139 0.5263 0.0
C2596 C 0.65285 0.1855 0.52304 0.0
C2597 C 0.60071 0.13165 0.51151 0.0
C2598 C 0.61761 0.151 0.51586 0.0
H2599 H 0.70353 0.2441 0.49562 0.0
H2600 H 0.66511 0.22415 0.49566 0.0
H2601 H 0.64737 0.17846 0.5617 0.0
H2602 H 0.5955 0.0732 0.52139 0.0
H2603 H 0.61924 0.10675 0.53463 0.0
C2604 C 0.81 0.73727 0.48385 0.0
C2605 C 0.81613 0.75528 0.46764 0.0
C2606 C 0.82544 0.71827 0.4875 0.0
C2607 C 0.88824 0.70192 0.48607 0.0
H2608 H 0.86576 0.63805 0.48277 0.0
C2609 C 0.93592 0.62234 0.5298 0.0
C2610 C 0.93822 0.60198 0.51561 0.0
C2611 C 0.92315 0.64161 0.52104 0.0
C2612 C 0.87232 0.65579 0.48353 0.0
H2613 H 0.84295 0.76733 0.44223 0.0
H2614 H 0.87045 0.7347 0.44941 0.0
H2615 H 0.83829 0.67037 0.47373 0.0
H2616 H 0.92936 0.58605 0.48092 0.0
H2617 H 0.90639 0.61966 0.46576 0.0
H2618 H 0.92201 0.68738 0.49678 0.0
C2619 C 0.85365 0.73522 0.45918 0.0
C2620 C 0.85657 0.67426 0.47857 0.0
C2621 C 0.83801 0.75393 0.45519 0.0
C2622 C 0.9281 0.60156 0.49212 0.0
C2623 C 0.9148 0.6207 0.48355 0.0
C2624 C 0.90384 0.68348 0.49151 0.0
C2625 C 0.84753 0.71717 0.47535 0.0
C2626 C 0.86435 0.69751 0.47991 0.0
C2627 C 0.91192 0.64077 0.49812 0.0
C2628 C 0.89602 0.66023 0.49038 0.0
H2629 H 0.79344 0.73808 0.49398 0.0
H2630 H 0.82039 0.70472 0.50027 0.0
H2631 H 0.89467 0.71968 0.48734 0.0
H2632 H 0.94352 0.62314 0.548 0.0
H2633 H 0.92112 0.65679 0.53271 0.0
C2634 C 0.30085 0.78049 0.56946 0.0
C2635 C 0.2808 0.77765 0.55447 0.0
C2636 C 0.31854 0.79656 0.56327 0.0
C2637 C 0.32744 0.85069 0.52843 0.0
H2638 H 0.39455 0.83698 0.53804 0.0
C2639 C 0.40012 0.91887 0.5065 0.0
C2640 C 0.41869 0.92088 0.52362 0.0
C2641 C 0.38425 0.90009 0.50761 0.0
C2642 C 0.37587 0.84118 0.53544 0.0
H2643 H 0.26381 0.78852 0.52084 0.0
H2644 H 0.29456 0.81697 0.51003 0.0
H2645 H 0.36506 0.80656 0.54509 0.0
H2646 H 0.43545 0.90436 0.55498 0.0
H2647 H 0.40769 0.87203 0.55715 0.0
H2648 H 0.33809 0.88545 0.51943 0.0
C2649 C 0.29654 0.80697 0.52672 0.0
C2650 C 0.35898 0.82371 0.53944 0.0
C2651 C 0.27896 0.79074 0.53286 0.0
C2652 C 0.42139 0.90337 0.54145 0.0
C2653 C 0.40551 0.88469 0.5426 0.0
C2654 C 0.34431 0.86821 0.52455 0.0
C2655 C 0.31644 0.81022 0.54198 0.0
C2656 C 0.33454 0.82833 0.53625 0.0
C2657 C 0.38655 0.88291 0.52589 0.0
C2658 C 0.36875 0.86377 0.52828 0.0
H2659 H 0.30245 0.77071 0.58632 0.0
H2660 H 0.33348 0.79882 0.57557 0.0
H2661 H 0.30873 0.85491 0.5261 0.0
H2662 H 0.39759 0.93197 0.49246 0.0
H2663 H 0.3701 0.89911 0.49419 0.0
C2664 C 0.22482 0.31374 0.54348 0.0
C2665 C 0.23461 0.29996 0.52477 0.0
C2666 C 0.21296 0.33459 0.53794 0.0
C2667 C 0.17823 0.36022 0.48822 0.0
H2668 H 0.18002 0.41644 0.52768 0.0
C2669 C 0.12212 0.44171 0.46397 0.0
C2670 C 0.11196 0.45455 0.48329 0.0
C2671 C 0.1384 0.42372 0.46865 0.0
C2672 C 0.1791 0.40077 0.51664 0.0
H2673 H 0.24083 0.2973 0.48591 0.0
H2674 H 0.22021 0.33402 0.47599 0.0
H2675 H 0.20783 0.38452 0.53626 0.0
H2676 H 0.11065 0.45824 0.52274 0.0
H2677 H 0.13853 0.4264 0.53097 0.0
H2678 H 0.14916 0.37602 0.46902 0.0
C2679 C 0.22155 0.32868 0.49494 0.0
C2680 C 0.19514 0.38255 0.52148 0.0
C2681 C 0.23356 0.30789 0.50056 0.0
C2682 C 0.11819 0.44874 0.50744 0.0
C2683 C 0.13436 0.43061 0.51214 0.0
C2684 C 0.16212 0.37834 0.48348 0.0
C2685 C 0.21053 0.34191 0.51352 0.0
C2686 C 0.19481 0.36203 0.50739 0.0
C2687 C 0.14481 0.41796 0.49279 0.0
C2688 C 0.16225 0.39882 0.49769 0.0
H2689 H 0.22533 0.30768 0.56223 0.0
H2690 H 0.20452 0.34424 0.55264 0.0
H2691 H 0.17718 0.34445 0.47734 0.0
H2692 H 0.11781 0.4458 0.44514 0.0
H2693 H 0.1463 0.41461 0.45328 0.0
C2694 C 0.29347 0.22179 0.50737 0.0
C2695 C 0.28147 0.22601 0.52948 0.0
C2696 C 0.31043 0.20379 0.50571 0.0
C2697 C 0.32787 0.14877 0.53675 0.0
H2698 H 0.38754 0.15546 0.50162 0.0
C2699 C 0.40674 0.08736 0.5531 0.0
C2700 C 0.4191 0.07829 0.53281 0.0
C2701 C 0.38977 0.10498 0.55021 0.0
C2702 C 0.3708 0.15326 0.51121 0.0
H2703 H 0.27802 0.21553 0.56721 0.0
H2704 H 0.30786 0.18442 0.56467 0.0
H2705 H 0.35851 0.1876 0.50163 0.0
H2706 H 0.42361 0.08102 0.49354 0.0
H2707 H 0.39382 0.1123 0.4885 0.0
H2708 H 0.34032 0.11476 0.54683 0.0
C2709 C 0.30395 0.19452 0.54841 0.0
C2710 C 0.35417 0.17165 0.51124 0.0
C2711 C 0.28702 0.2124 0.54999 0.0
C2712 C 0.41432 0.08758 0.5095 0.0
C2713 C 0.39736 0.10551 0.50663 0.0
C2714 C 0.34447 0.13055 0.53682 0.0
C2715 C 0.31562 0.18972 0.52616 0.0
C2716 C 0.33271 0.16978 0.52445 0.0
C2717 C 0.38476 0.11419 0.52698 0.0
C2718 C 0.3663 0.13274 0.52448 0.0
H2719 H 0.28912 0.2319 0.49124 0.0
H2720 H 0.31892 0.20046 0.48826 0.0
H2721 H 0.31127 0.14644 0.54654 0.0
H2722 H 0.41011 0.08082 0.57137 0.0
H2723 H 0.38068 0.11159 0.56629 0.0
C2724 C 0.80832 0.27843 0.53281 0.0
C2725 C 0.78902 0.27579 0.51677 0.0
C2726 C 0.82332 0.29773 0.53088 0.0
C2727 C 0.82479 0.35813 0.5084 0.0
H2728 H 0.89309 0.35117 0.51698 0.0
C2729 C 0.88753 0.43766 0.50503 0.0
C2730 C 0.90482 0.43863 0.52362 0.0
C2731 C 0.87477 0.41712 0.50084 0.0
C2732 C 0.87404 0.35344 0.51469 0.0
H2733 H 0.77032 0.29083 0.48597 0.0
H2734 H 0.79641 0.32492 0.48265 0.0
H2735 H 0.86787 0.3166 0.51634 0.0
H2736 H 0.92289 0.41846 0.55171 0.0
H2737 H 0.9005 0.3829 0.54464 0.0
H2738 H 0.83082 0.39497 0.50739 0.0
C2739 C 0.79988 0.31215 0.49683 0.0
C2740 C 0.8596 0.33363 0.51432 0.0
C2741 C 0.78495 0.29274 0.49871 0.0
C2742 C 0.9097 0.41835 0.53725 0.0
C2743 C 0.89693 0.39786 0.53309 0.0
C2744 C 0.83923 0.37796 0.50887 0.0
C2745 C 0.81924 0.31486 0.51292 0.0
C2746 C 0.83477 0.33577 0.51153 0.0
C2747 C 0.87901 0.39709 0.51513 0.0
C2748 C 0.864 0.37588 0.51238 0.0
H2749 H 0.81153 0.26571 0.54709 0.0
H2750 H 0.83782 0.29949 0.54382 0.0
H2751 H 0.8057 0.3604 0.50649 0.0
H2752 H 0.88345 0.45292 0.49407 0.0
H2753 H 0.86136 0.41701 0.48659 0.0
C2754 C 0.23001 0.6954 0.54983 0.0
C2755 C 0.23444 0.70626 0.57227 0.0
C2756 C 0.21683 0.67481 0.54884 0.0
C2757 C 0.17028 0.64457 0.58432 0.0
H2758 H 0.17414 0.60235 0.52914 0.0
C2759 C 0.08757 0.60053 0.5435 0.0
C2760 C 0.09035 0.58044 0.5292 0.0
C2761 C 0.10745 0.61077 0.55461 0.0
C2762 C 0.17286 0.6135 0.54507 0.0
H2763 H 0.22995 0.70391 0.61137 0.0
H2764 H 0.20762 0.66719 0.61 0.0
H2765 H 0.20708 0.62811 0.53774 0.0
H2766 H 0.11529 0.5543 0.51631 0.0
H2767 H 0.14974 0.57117 0.53683 0.0
H2768 H 0.13617 0.62963 0.59189 0.0
C2769 C 0.21385 0.67472 0.59303 0.0
C2770 C 0.19174 0.62865 0.54976 0.0
C2771 C 0.2269 0.69549 0.59392 0.0
C2772 C 0.11286 0.56986 0.52733 0.0
C2773 C 0.13261 0.57974 0.53884 0.0
C2774 C 0.15153 0.6291 0.5799 0.0
C2775 C 0.20787 0.66457 0.57038 0.0
C2776 C 0.19026 0.64515 0.56874 0.0
C2777 C 0.13041 0.60092 0.55175 0.0
C2778 C 0.15209 0.61405 0.55955 0.0
H2779 H 0.2353 0.70382 0.53295 0.0
H2780 H 0.21234 0.66791 0.531 0.0
H2781 H 0.16837 0.65698 0.59914 0.0
H2782 H 0.07036 0.60912 0.5448 0.0
H2783 H 0.10492 0.62719 0.56407 0.0
loop_
_geom_bond_atom_site_label_1
_geom_bond_atom_site_label_2
_geom_bond_distance
_geom_bond_site_symmetry_2
_ccdc_geom_bond_type
C0 N1 1.317 . S
C0 N2 1.348 . S
C0 C3 1.485 . S
N1 C0 1.317 . S
N1 N5 1.370 . S
N2 C0 1.348 . S
N2 C4 1.346 . S
C3 C0 1.485 . S
C3 H7 0.960 . S
C3 H8 0.961 . S
C3 H9 0.960 . S
C4 N2 1.346 . S
C4 N5 1.307 . S
C4 C6 1.486 . S
N5 N1 1.370 . S
N5 C4 1.307 . S
C6 C4 1.486 . S
C6 H10 0.960 . S
C6 H11 0.960 . S
C6 H12 0.959 . S
H7 C3 0.960 . S
H8 C3 0.961 . S
H9 C3 0.960 . S
H10 C6 0.960 . S
H11 C6 0.960 . S
H12 C6 0.959 . S
C13 N14 1.317 . S
C13 N15 1.348 . S
C13 C16 1.485 . S
N14 C13 1.317 . S
N14 N18 1.370 . S
N15 C13 1.348 . S
N15 C17 1.346 . S
C16 C13 1.485 . S
C16 H20 0.960 . S
C16 H21 0.961 . S
C16 H22 0.960 . S
C17 N15 1.346 . S
C17 N18 1.307 . S
C17 C19 1.486 . S
N18 N14 1.370 . S
N18 C17 1.307 . S
C19 C17 1.486 . S
C19 H23 0.960 . S
C19 H24 0.960 . S
C19 H25 0.959 . S
H20 C16 0.960 . S
H21 C16 0.961 . S
H22 C16 0.960 . S
H23 C19 0.960 . S
H24 C19 0.960 . S
H25 C19 0.959 . S
C26 N27 1.317 . S
C26 N28 1.348 . S
C26 C29 1.485 . S
N27 C26 1.317 . S
N27 N31 1.370 . S
N28 C26 1.348 . S
N28 C30 1.346 . S
C29 C26 1.485 . S
C29 H33 0.960 . S
C29 H34 0.961 . S
C29 H35 0.960 . S
C30 N28 1.346 . S
C30 N31 1.307 . S
C30 C32 1.486 . S
N31 N27 1.370 . S
N31 C30 1.307 . S
C32 C30 1.486 . S
C32 H36 0.960 . S
C32 H37 0.960 . S
C32 H38 0.959 . S
H33 C29 0.960 . S
H34 C29 0.961 . S
H35 C29 0.960 . S
H36 C32 0.960 . S
H37 C32 0.960 . S
H38 C32 0.959 . S
C39 N40 1.317 . S
C39 N41 1.348 . S
C39 C42 1.484 1_545 S
N40 C39 1.317 . S
N40 N44 1.372 . S
N41 C39 1.348 . S
N41 C43 1.346 . S
C42 C39 1.484 1_565 S
C42 H46 0.960 1_565 S
C42 H47 0.961 . S
C42 H48 0.960 . S
C43 N41 1.346 . S
C43 N44 1.307 . S
C43 C45 1.486 . S
N44 N40 1.372 . S
N44 C43 1.307 . S
C45 C43 1.486 . S
C45 H49 0.960 1_545 S
C45 H50 0.960 . S
C45 H51 0.959 . S
H46 C42 0.960 1_545 S
H47 C42 0.961 . S
H48 C42 0.960 . S
H49 C45 0.960 1_565 S
H50 C45 0.960 . S
H51 C45 0.959 . S
C52 N53 1.317 . S
C52 N54 1.348 . S
C52 C55 1.485 . S
N53 C52 1.317 . S
N53 N57 1.371 . S
N54 C52 1.348 . S
N54 C56 1.347 . S
C55 C52 1.485 . S
C55 H59 0.960 1_455 S
C55 H60 0.961 . S
C55 H61 0.960 . S
C56 N54 1.347 . S
C56 N57 1.307 . S
C56 C58 1.486 . S
N57 N53 1.371 . S
N57 C56 1.307 . S
C58 C56 1.486 . S
C58 H62 0.966 . S
C58 H63 0.955 1_455 S
C58 H64 0.957 1_455 S
H59 C55 0.960 1_655 S
H60 C55 0.961 . S
H61 C55 0.960 . S
H62 C58 0.966 . S
H63 C58 0.955 1_655 S
H64 C58 0.957 1_655 S
C65 N66 1.317 . S
C65 N67 1.348 . S
C65 C68 1.485 . S
N66 C65 1.317 . S
N66 N70 1.370 . S
N67 C65 1.348 . S
N67 C69 1.346 . S
C68 C65 1.485 . S
C68 H72 0.960 1_545 S
C68 H73 0.961 . S
C68 H74 0.960 . S
C69 N67 1.346 . S
C69 N70 1.307 . S
C69 C71 1.486 . S
N70 N66 1.370 . S
N70 C69 1.307 . S
C71 C69 1.486 . S
C71 H75 0.960 . S
C71 H76 0.960 1_545 S
C71 H77 0.959 1_545 S
H72 C68 0.960 1_565 S
H73 C68 0.961 . S
H74 C68 0.960 . S
H75 C71 0.960 . S
H76 C71 0.960 1_565 S
H77 C71 0.959 1_565 S
C78 N79 1.317 . S
C78 N80 1.348 . S
C78 C81 1.485 . S
N79 C78 1.317 . S
N79 N83 1.370 . S
N80 C78 1.348 . S
N80 C82 1.346 . S
C81 C78 1.485 . S
C81 H85 0.960 . S
C81 H86 0.961 . S
C81 H87 0.960 . S
C82 N80 1.346 . S
C82 N83 1.307 . S
C82 C84 1.486 . S
N83 N79 1.370 . S
N83 C82 1.307 . S
C84 C82 1.486 . S
C84 H88 0.960 . S
C84 H89 0.960 . S
C84 H90 0.959 . S
H85 C81 0.960 . S
H86 C81 0.961 . S
H87 C81 0.960 . S
H88 C84 0.960 . S
H89 C84 0.960 . S
H90 C84 0.959 . S
C91 N92 1.317 . S
C91 N93 1.348 . S
C91 C94 1.485 . S
N92 C91 1.317 . S
N92 N96 1.370 . S
N93 C91 1.348 . S
N93 C95 1.346 . S
C94 C91 1.485 . S
C94 H98 0.960 . S
C94 H99 0.961 . S
C94 H100 0.960 . S
C95 N93 1.346 . S
C95 N96 1.307 . S
C95 C97 1.486 . S
N96 N92 1.370 . S
N96 C95 1.307 . S
C97 C95 1.486 . S
C97 H101 0.960 . S
C97 H102 0.960 . S
C97 H103 0.959 . S
H98 C94 0.960 . S
H99 C94 0.961 . S
H100 C94 0.960 . S
H101 C97 0.960 . S
H102 C97 0.960 . S
H103 C97 0.959 . S
C104 N105 1.317 . S
C104 N106 1.348 . S
C104 C107 1.485 . S
N105 C104 1.317 . S
N105 N109 1.370 . S
N106 C104 1.348 . S
N106 C108 1.346 . S
C107 C104 1.485 . S
C107 H111 0.960 . S
C107 H112 0.961 . S
C107 H113 0.960 . S
C108 N106 1.346 . S
C108 N109 1.307 . S
C108 C110 1.486 . S
N109 N105 1.370 . S
N109 C108 1.307 . S
C110 C108 1.486 . S
C110 H114 0.960 . S
C110 H115 0.960 . S
C110 H116 0.959 . S
H111 C107 0.960 . S
H112 C107 0.961 . S
H113 C107 0.960 . S
H114 C110 0.960 . S
H115 C110 0.960 . S
H116 C110 0.959 . S
C117 N118 1.317 . S
C117 N119 1.348 . S
C117 C120 1.485 . S
N118 C117 1.317 . S
N118 N122 1.370 . S
N119 C117 1.348 . S
N119 C121 1.346 . S
C120 C117 1.485 . S
C120 H124 0.960 . S
C120 H125 0.961 . S
C120 H126 0.960 . S
C121 N119 1.346 . S
C121 N122 1.307 . S
C121 C123 1.486 . S
N122 N118 1.370 . S
N122 C121 1.307 . S
C123 C121 1.486 . S
C123 H127 0.960 . S
C123 H128 0.960 . S
C123 H129 0.959 . S
H124 C120 0.960 . S
H125 C120 0.961 . S
H126 C120 0.960 . S
H127 C123 0.960 . S
H128 C123 0.960 . S
H129 C123 0.959 . S
C130 N131 1.317 . S
C130 N132 1.350 . S
C130 C133 1.485 . S
N131 C130 1.317 . S
N131 N135 1.370 . S
N132 C130 1.350 . S
N132 C134 1.345 1_556 S
C133 C130 1.485 . S
C133 H137 0.960 1_556 S
C133 H138 0.961 . S
C133 H139 0.960 . S
C134 N132 1.345 1_554 S
C134 N135 1.307 1_554 S
C134 C136 1.486 . S
N135 N131 1.370 . S
N135 C134 1.307 1_556 S
C136 C134 1.486 . S
C136 H140 0.925 1_554 S
C136 H141 0.989 . S
C136 H142 0.967 . S
H137 C133 0.960 1_554 S
H138 C133 0.961 . S
H139 C133 0.960 . S
H140 C136 0.925 1_556 S
H141 C136 0.989 . S
H142 C136 0.967 . S
C143 N144 1.317 . S
C143 N145 1.348 . S
C143 C146 1.485 . S
N144 C143 1.317 . S
N144 N148 1.370 . S
N145 C143 1.348 . S
N145 C147 1.346 . S
C146 C143 1.485 . S
C146 H150 0.960 1_554 S
C146 H151 0.961 . S
C146 H152 0.960 . S
C147 N145 1.346 . S
C147 N148 1.307 . S
C147 C149 1.486 . S
N148 N144 1.370 . S
N148 C147 1.307 . S
C149 C147 1.486 . S
C149 H153 0.960 . S
C149 H154 0.960 1_554 S
C149 H155 0.957 1_554 S
H150 C146 0.960 1_556 S
H151 C146 0.961 . S
H152 C146 0.960 . S
H153 C149 0.960 . S
H154 C149 0.960 1_556 S
H155 C149 0.957 1_556 S
C156 N157 1.317 . S
C156 N158 1.348 . S
C156 C159 1.485 . S
N157 C156 1.317 . S
N157 N161 1.370 . S
N158 C156 1.348 . S
N158 C160 1.346 . S
C159 C156 1.485 . S
C159 H163 0.960 . S
C159 H164 0.961 . S
C159 H165 0.960 . S
C160 N158 1.346 . S
C160 N161 1.307 . S
C160 C162 1.486 . S
N161 N157 1.370 . S
N161 C160 1.307 . S
C162 C160 1.486 . S
C162 H166 0.960 . S
C162 H167 0.960 . S
C162 H168 0.959 . S
H163 C159 0.960 . S
H164 C159 0.961 . S
H165 C159 0.960 . S
H166 C162 0.960 . S
H167 C162 0.960 . S
H168 C162 0.959 . S
C169 N170 1.317 . S
C169 N171 1.348 . S
C169 C172 1.485 . S
N170 C169 1.317 . S
N170 N174 1.370 . S
N171 C169 1.348 . S
N171 C173 1.346 . S
C172 C169 1.485 . S
C172 H176 0.960 . S
C172 H177 0.961 . S
C172 H178 0.960 . S
C173 N171 1.346 . S
C173 N174 1.307 . S
C173 C175 1.486 . S
N174 N170 1.370 . S
N174 C173 1.307 . S
C175 C173 1.486 . S
C175 H179 0.960 . S
C175 H180 0.960 . S
C175 H181 0.959 . S
H176 C172 0.960 . S
H177 C172 0.961 . S
H178 C172 0.960 . S
H179 C175 0.960 . S
H180 C175 0.960 . S
H181 C175 0.959 . S
C182 N183 1.317 . S
C182 N184 1.348 . S
C182 C185 1.485 . S
N183 C182 1.317 . S
N183 N187 1.370 . S
N184 C182 1.348 . S
N184 C186 1.346 . S
C185 C182 1.485 . S
C185 H189 0.960 . S
C185 H190 0.961 . S
C185 H191 0.960 . S
C186 N184 1.346 . S
C186 N187 1.307 . S
C186 C188 1.486 . S
N187 N183 1.370 . S
N187 C186 1.307 . S
C188 C186 1.486 . S
C188 H192 0.960 . S
C188 H193 0.960 . S
C188 H194 0.959 . S
H189 C185 0.960 . S
H190 C185 0.961 . S
H191 C185 0.960 . S
H192 C188 0.960 . S
H193 C188 0.960 . S
H194 C188 0.959 . S
C195 N196 1.317 . S
C195 N197 1.348 . S
C195 C198 1.485 . S
N196 C195 1.317 . S
N196 N200 1.370 . S
N197 C195 1.348 . S
N197 C199 1.346 . S
C198 C195 1.485 . S
C198 H202 0.960 . S
C198 H203 0.961 . S
C198 H204 0.960 . S
C199 N197 1.346 . S
C199 N200 1.307 . S
C199 C201 1.486 . S
N200 N196 1.370 . S
N200 C199 1.307 . S
C201 C199 1.486 . S
C201 H205 0.960 . S
C201 H206 0.960 . S
C201 H207 0.959 . S
H202 C198 0.960 . S
H203 C198 0.961 . S
H204 C198 0.960 . S
H205 C201 0.960 . S
H206 C201 0.960 . S
H207 C201 0.959 . S
C208 N209 1.317 . S
C208 N210 1.348 . S
C208 C211 1.485 . S
N209 C208 1.317 . S
N209 N213 1.370 . S
N210 C208 1.348 . S
N210 C212 1.346 . S
C211 C208 1.485 . S
C211 H215 0.960 . S
C211 H216 0.961 . S
C211 H217 0.960 . S
C212 N210 1.346 . S
C212 N213 1.307 . S
C212 C214 1.486 . S
N213 N209 1.370 . S
N213 C212 1.307 . S
C214 C212 1.486 . S
C214 H218 0.960 . S
C214 H219 0.960 . S
C214 H220 0.959 . S
H215 C211 0.960 . S
H216 C211 0.961 . S
H217 C211 0.960 . S
H218 C214 0.960 . S
H219 C214 0.960 . S
H220 C214 0.959 . S
C221 N222 1.317 . S
C221 N223 1.348 . S
C221 C224 1.485 . S
N222 C221 1.317 . S
N222 N226 1.370 . S
N223 C221 1.348 . S
N223 C225 1.346 . S
C224 C221 1.485 . S
C224 H228 0.960 . S
C224 H229 0.961 . S
C224 H230 0.960 . S
C225 N223 1.346 . S
C225 N226 1.307 . S
C225 C227 1.486 . S
N226 N222 1.370 . S
N226 C225 1.307 . S
C227 C225 1.486 . S
C227 H231 0.960 . S
C227 H232 0.960 . S
C227 H233 0.959 . S
H228 C224 0.960 . S
H229 C224 0.961 . S
H230 C224 0.960 . S
H231 C227 0.960 . S
H232 C227 0.960 . S
H233 C227 0.959 . S
C234 N235 1.317 . S
C234 N236 1.348 . S
C234 C237 1.485 . S
N235 C234 1.317 . S
N235 N239 1.370 . S
N236 C234 1.348 . S
N236 C238 1.346 . S
C237 C234 1.485 . S
C237 H241 0.960 . S
C237 H242 0.961 . S
C237 H243 0.960 . S
C238 N236 1.346 . S
C238 N239 1.307 . S
C238 C240 1.486 . S
N239 N235 1.370 . S
N239 C238 1.307 . S
C240 C238 1.486 . S
C240 H244 0.960 . S
C240 H245 0.960 . S
C240 H246 0.959 . S
H241 C237 0.960 . S
H242 C237 0.961 . S
H243 C237 0.960 . S
H244 C240 0.960 . S
H245 C240 0.960 . S
H246 C240 0.959 . S
C247 N248 1.317 . S
C247 N249 1.348 . S
C247 C250 1.485 . S
N248 C247 1.317 . S
N248 N252 1.370 . S
N249 C247 1.348 . S
N249 C251 1.346 . S
C250 C247 1.485 . S
C250 H254 0.960 . S
C250 H255 0.961 . S
C250 H256 0.960 . S
C251 N249 1.346 . S
C251 N252 1.307 . S
C251 C253 1.486 . S
N252 N248 1.370 . S
N252 C251 1.307 . S
C253 C251 1.486 . S
C253 H257 0.960 . S
C253 H258 0.960 . S
C253 H259 0.959 . S
H254 C250 0.960 . S
H255 C250 0.961 . S
H256 C250 0.960 . S
H257 C253 0.960 . S
H258 C253 0.960 . S
H259 C253 0.959 . S
C260 N261 1.317 . S
C260 N262 1.348 . S
C260 C263 1.485 . S
N261 C260 1.317 . S
N261 N265 1.370 . S
N262 C260 1.348 . S
N262 C264 1.346 . S
C263 C260 1.485 . S
C263 H267 0.960 . S
C263 H268 0.961 . S
C263 H269 0.960 . S
C264 N262 1.346 . S
C264 N265 1.307 . S
C264 C266 1.486 . S
N265 N261 1.370 . S
N265 C264 1.307 . S
C266 C264 1.486 . S
C266 H270 0.960 . S
C266 H271 0.960 . S
C266 H272 0.959 . S
H267 C263 0.960 . S
H268 C263 0.961 . S
H269 C263 0.960 . S
H270 C266 0.960 . S
H271 C266 0.960 . S
H272 C266 0.959 . S
C273 N274 1.317 . S
C273 N275 1.348 . S
C273 C276 1.485 . S
N274 C273 1.317 . S
N274 N278 1.370 . S
N275 C273 1.348 . S
N275 C277 1.346 . S
C276 C273 1.485 . S
C276 H280 0.960 . S
C276 H281 0.961 . S
C276 H282 0.960 . S
C277 N275 1.346 . S
C277 N278 1.307 . S
C277 C279 1.486 . S
N278 N274 1.370 . S
N278 C277 1.307 . S
C279 C277 1.486 . S
C279 H283 0.960 . S
C279 H284 0.960 . S
C279 H285 0.959 . S
H280 C276 0.960 . S
H281 C276 0.961 . S
H282 C276 0.960 . S
H283 C279 0.960 . S
H284 C279 0.960 . S
H285 C279 0.959 . S
C286 N287 1.317 . S
C286 N288 1.348 . S
C286 C289 1.485 . S
N287 C286 1.317 . S
N287 N291 1.370 . S
N288 C286 1.348 . S
N288 C290 1.346 . S
C289 C286 1.485 . S
C289 H293 0.960 . S
C289 H294 0.961 . S
C289 H295 0.960 . S
C290 N288 1.346 . S
C290 N291 1.307 . S
C290 C292 1.486 . S
N291 N287 1.370 . S
N291 C290 1.307 . S
C292 C290 1.486 . S
C292 H296 0.960 . S
C292 H297 0.960 . S
C292 H298 0.959 . S
H293 C289 0.960 . S
H294 C289 0.961 . S
H295 C289 0.960 . S
H296 C292 0.960 . S
H297 C292 0.960 . S
H298 C292 0.959 . S
C299 N300 1.317 . S
C299 N301 1.348 . S
C299 C302 1.485 . S
N300 C299 1.317 . S
N300 N304 1.370 . S
N301 C299 1.348 . S
N301 C303 1.346 . S
C302 C299 1.485 . S
C302 H306 0.960 . S
C302 H307 0.961 . S
C302 H308 0.960 . S
C303 N301 1.346 . S
C303 N304 1.307 . S
C303 C305 1.486 . S
N304 N300 1.370 . S
N304 C303 1.307 . S
C305 C303 1.486 . S
C305 H309 0.960 . S
C305 H310 0.960 . S
C305 H311 0.959 . S
H306 C302 0.960 . S
H307 C302 0.961 . S
H308 C302 0.960 . S
H309 C305 0.960 . S
H310 C305 0.960 . S
H311 C305 0.959 . S
Zn312 O314 1.933 1_665 S
Zn312 O332 1.985 . S
Zn312 O343 1.955 1_655 S
Zn313 O314 1.911 1_655 S
Zn313 O333 1.970 . S
Zn313 O349 1.945 1_655 S
Zn313 O356 1.981 . S
O314 Zn312 1.933 1_445 S
O314 Zn313 1.911 1_455 S
O314 H315 0.841 . S
H315 O314 0.841 . S
C316 O317 1.246 . S
C316 O345 1.276 . S
O317 C316 1.246 . S
Zn318 O320 1.911 . S
Zn318 O335 1.970 . S
Zn318 O352 1.945 . S
Zn318 O359 1.981 . S
Zn319 O320 1.933 1_565 S
Zn319 O334 1.985 . S
Zn319 O341 1.955 . S
O320 Zn318 1.911 . S
O320 Zn319 1.933 1_545 S
O320 H321 0.841 . S
H321 O320 0.841 . S
Zn322 O323 1.933 1_565 S
Zn322 O336 1.985 . S
Zn322 O345 1.955 . S
O323 Zn322 1.933 1_545 S
O323 Zn324 1.911 . S
O323 H325 0.842 . S
Zn324 O323 1.911 . S
Zn324 O337 1.970 . S
Zn324 O353 1.981 1_655 S
Zn324 O355 1.945 . S
H325 O323 0.842 . S
Zn326 O327 1.933 1_565 S
Zn326 O339 1.985 . S
Zn326 O347 1.955 . S
O327 Zn326 1.933 1_545 S
O327 H328 0.841 . S
O327 Zn329 1.911 . S
H328 O327 0.841 . S
Zn329 O327 1.911 . S
Zn329 O340 1.970 . S
Zn329 O350 1.981 . S
Zn329 O358 1.945 . S
C330 O331 1.246 . S
C330 O347 1.276 . S
O331 C330 1.246 . S
O332 Zn312 1.985 . S
O332 C342 1.245 1_565 S
O333 Zn313 1.970 . S
O333 C342 1.263 . S
O334 Zn319 1.985 . S
O334 C346 1.245 1_565 S
O335 Zn318 1.970 . S
O335 C346 1.263 . S
O336 Zn322 1.985 . S
O336 C351 1.245 1_565 S
O337 Zn324 1.970 . S
O337 C351 1.263 . S
C338 O349 1.262 . S
C338 O350 1.245 . S
O339 Zn326 1.985 . S
O339 C357 1.245 1_565 S
O340 Zn329 1.970 . S
O340 C357 1.263 . S
O341 Zn319 1.955 . S
O341 C360 1.276 . S
C342 O332 1.245 1_545 S
C342 O333 1.263 . S
O343 Zn312 1.955 1_455 S
O343 C362 1.276 . S
C344 O352 1.262 . S
C344 O353 1.245 . S
O345 C316 1.276 . S
O345 Zn322 1.955 . S
C346 O334 1.245 1_545 S
C346 O335 1.263 . S
O347 Zn326 1.955 . S
O347 C330 1.276 . S
C348 O355 1.262 . S
C348 O356 1.245 . S
O349 Zn313 1.945 1_455 S
O349 C338 1.262 . S
O350 Zn329 1.981 . S
O350 C338 1.245 . S
C351 O336 1.245 1_545 S
C351 O337 1.263 . S
O352 Zn318 1.945 . S
O352 C344 1.262 . S
O353 Zn324 1.981 1_455 S
O353 C344 1.245 . S
C354 O358 1.262 . S
C354 O359 1.245 . S
O355 Zn324 1.945 . S
O355 C348 1.262 . S
O356 Zn313 1.981 . S
O356 C348 1.245 . S
C357 O339 1.245 1_545 S
C357 O340 1.263 . S
O358 Zn329 1.945 . S
O358 C354 1.262 . S
O359 Zn318 1.981 . S
O359 C354 1.245 . S
C360 O341 1.276 . S
C360 O361 1.246 . S
O361 C360 1.246 . S
C362 O343 1.276 . S
C362 O363 1.246 . S
O363 C362 1.246 . S
Zn364 O366 1.933 . S
Zn364 O384 1.985 . S
Zn364 O395 1.955 . S
Zn365 O366 1.911 1_556 S
Zn365 O385 1.970 . S
Zn365 O401 1.945 . S
Zn365 O408 1.981 . S
O366 Zn364 1.933 . S
O366 Zn365 1.911 1_554 S
O366 H367 0.841 . S
H367 O366 0.841 . S
C368 O369 1.246 . S
C368 O397 1.276 . S
O369 C368 1.246 . S
Zn370 O372 1.911 1_556 S
Zn370 O387 1.970 . S
Zn370 O404 1.945 . S
Zn370 O411 1.981 . S
Zn371 O372 1.933 . S
Zn371 O386 1.985 . S
Zn371 O393 1.955 . S
O372 Zn370 1.911 1_554 S
O372 Zn371 1.933 . S
O372 H373 0.841 1_565 S
H373 O372 0.841 1_545 S
Zn374 O375 1.933 . S
Zn374 O388 1.985 . S
Zn374 O397 1.955 . S
O375 Zn374 1.933 . S
O375 Zn376 1.911 1_554 S
O375 H377 0.841 . S
Zn376 O375 1.911 1_556 S
Zn376 O389 1.970 . S
Zn376 O405 1.981 . S
Zn376 O407 1.945 . S
H377 O375 0.841 . S
Zn378 O379 1.933 . S
Zn378 O391 1.985 . S
Zn378 O399 1.955 . S
O379 Zn378 1.933 . S
O379 H380 0.841 . S
O379 Zn381 1.911 1_554 S
H380 O379 0.841 . S
Zn381 O379 1.911 1_556 S
Zn381 O392 1.970 . S
Zn381 O402 1.981 1_565 S
Zn381 O410 1.945 . S
C382 O383 1.246 . S
C382 O399 1.276 . S
O383 C382 1.246 . S
O384 Zn364 1.985 . S
O384 C394 1.245 . S
O385 Zn365 1.970 . S
O385 C394 1.263 1_556 S
O386 Zn371 1.985 . S
O386 C398 1.245 . S
O387 Zn370 1.970 . S
O387 C398 1.263 1_556 S
O388 Zn374 1.985 . S
O388 C403 1.245 . S
O389 Zn376 1.970 . S
O389 C403 1.263 1_556 S
C390 O401 1.262 . S
C390 O402 1.245 . S
O391 Zn378 1.985 . S
O391 C409 1.245 . S
O392 Zn381 1.970 . S
O392 C409 1.263 1_556 S
O393 Zn371 1.955 . S
O393 C412 1.276 1_565 S
C394 O384 1.245 . S
C394 O385 1.263 1_554 S
O395 Zn364 1.955 . S
O395 C414 1.276 . S
C396 O404 1.262 1_545 S
C396 O405 1.245 . S
O397 C368 1.276 . S
O397 Zn374 1.955 . S
C398 O386 1.245 . S
C398 O387 1.263 1_554 S
O399 Zn378 1.955 . S
O399 C382 1.276 . S
C400 O407 1.262 . S
C400 O408 1.245 . S
O401 Zn365 1.945 . S
O401 C390 1.262 . S
O402 Zn381 1.981 1_545 S
O402 C390 1.245 . S
C403 O388 1.245 . S
C403 O389 1.263 1_554 S
O404 Zn370 1.945 . S
O404 C396 1.262 1_565 S
O405 Zn376 1.981 . S
O405 C396 1.245 . S
C406 O410 1.262 . S
C406 O411 1.245 . S
O407 Zn376 1.945 . S
O407 C400 1.262 . S
O408 Zn365 1.981 . S
O408 C400 1.245 . S
C409 O391 1.245 . S
C409 O392 1.263 1_554 S
O410 Zn381 1.945 . S
O410 C406 1.262 . S
O411 Zn370 1.981 . S
O411 C406 1.245 . S
C412 O393 1.276 1_545 S
C412 O413 1.246 . S
O413 C412 1.246 . S
C414 O395 1.276 . S
C414 O415 1.246 . S
O415 C414 1.246 . S
Zn416 O418 1.933 . S
Zn416 O436 1.985 . S
Zn416 O447 1.955 . S
Zn417 O418 1.911 . S
Zn417 O437 1.970 . S
Zn417 O453 1.945 . S
Zn417 O460 1.981 . S
O418 Zn416 1.933 . S
O418 Zn417 1.911 . S
O418 H419 0.841 1_655 S
H419 O418 0.841 1_455 S
C420 O421 1.246 1_554 S
C420 O449 1.276 . S
O421 C420 1.246 1_556 S
Zn422 O424 1.911 . S
Zn422 O439 1.970 . S
Zn422 O456 1.945 . S
Zn422 O463 1.981 . S
Zn423 O424 1.933 . S
Zn423 O438 1.985 . S
Zn423 O445 1.955 . S
O424 Zn422 1.911 . S
O424 Zn423 1.933 . S
O424 H425 0.841 . S
H425 O424 0.841 . S
Zn426 O427 1.933 . S
Zn426 O440 1.985 . S
Zn426 O449 1.955 . S
O427 Zn426 1.933 . S
O427 Zn428 1.911 . S
O427 H429 0.841 . S
Zn428 O427 1.911 . S
Zn428 O441 1.970 . S
Zn428 O457 1.981 . S
Zn428 O459 1.945 . S
H429 O427 0.841 . S
Zn430 O431 1.933 . S
Zn430 O443 1.985 . S
Zn430 O451 1.955 . S
O431 Zn430 1.933 . S
O431 H432 0.841 1_556 S
O431 Zn433 1.911 . S
H432 O431 0.841 1_554 S
Zn433 O431 1.911 . S
Zn433 O444 1.970 . S
Zn433 O454 1.981 . S
Zn433 O462 1.945 . S
C434 O435 1.246 . S
C434 O451 1.276 1_554 S
O435 C434 1.246 . S
O436 Zn416 1.985 . S
O436 C446 1.245 . S
O437 Zn417 1.970 . S
O437 C446 1.263 . S
O438 Zn423 1.985 . S
O438 C450 1.245 . S
O439 Zn422 1.970 . S
O439 C450 1.263 . S
O440 Zn426 1.985 . S
O440 C455 1.245 . S
O441 Zn428 1.970 . S
O441 C455 1.263 . S
C442 O453 1.262 1_455 S
C442 O454 1.245 . S
O443 Zn430 1.985 . S
O443 C461 1.245 . S
O444 Zn433 1.970 . S
O444 C461 1.263 . S
O445 Zn423 1.955 . S
O445 C464 1.276 . S
C446 O436 1.245 . S
C446 O437 1.263 . S
O447 Zn416 1.955 . S
O447 C466 1.276 1_655 S
C448 O456 1.262 . S
C448 O457 1.245 1_455 S
O449 C420 1.276 . S
O449 Zn426 1.955 . S
C450 O438 1.245 . S
C450 O439 1.263 . S
O451 Zn430 1.955 . S
O451 C434 1.276 1_556 S
C452 O459 1.262 . S
C452 O460 1.245 1_554 S
O453 Zn417 1.945 . S
O453 C442 1.262 1_655 S
O454 Zn433 1.981 . S
O454 C442 1.245 . S
C455 O440 1.245 . S
C455 O441 1.263 . S
O456 Zn422 1.945 . S
O456 C448 1.262 . S
O457 Zn428 1.981 . S
O457 C448 1.245 1_655 S
C458 O462 1.262 1_554 S
C458 O463 1.245 . S
O459 Zn428 1.945 . S
O459 C452 1.262 . S
O460 Zn417 1.981 . S
O460 C452 1.245 1_556 S
C461 O443 1.245 . S
C461 O444 1.263 . S
O462 Zn433 1.945 . S
O462 C458 1.262 1_556 S
O463 Zn422 1.981 . S
O463 C458 1.245 . S
C464 O445 1.276 . S
C464 O465 1.239 1_455 S
O465 C464 1.239 1_655 S
C466 O447 1.276 1_455 S
C466 O467 1.246 . S
O467 C466 1.246 . S
Zn468 O470 1.933 1_556 S
Zn468 O488 1.985 . S
Zn468 O499 1.955 . S
Zn469 O470 1.911 . S
Zn469 O489 1.970 . S
Zn469 O505 1.945 . S
Zn469 O512 1.981 . S
O470 Zn468 1.933 1_554 S
O470 Zn469 1.911 . S
O470 H471 0.841 . S
H471 O470 0.841 . S
C472 O473 1.246 . S
C472 O501 1.276 . S
O473 C472 1.246 . S
Zn474 O476 1.911 . S
Zn474 O491 1.970 . S
Zn474 O508 1.945 . S
Zn474 O515 1.981 . S
Zn475 O476 1.933 1_556 S
Zn475 O490 1.985 . S
Zn475 O497 1.955 . S
O476 Zn474 1.911 . S
O476 Zn475 1.933 1_554 S
O476 H477 0.841 . S
H477 O476 0.841 . S
Zn478 O479 1.933 1_556 S
Zn478 O492 1.985 . S
Zn478 O501 1.955 . S
O479 Zn478 1.933 1_554 S
O479 Zn480 1.911 . S
O479 H481 0.841 . S
Zn480 O479 1.911 . S
Zn480 O493 1.970 . S
Zn480 O509 1.981 . S
Zn480 O511 1.945 . S
H481 O479 0.841 . S
Zn482 O483 1.933 1_556 S
Zn482 O495 1.985 . S
Zn482 O503 1.955 . S
O483 Zn482 1.933 1_554 S
O483 H484 0.841 . S
O483 Zn485 1.911 . S
H484 O483 0.841 . S
Zn485 O483 1.911 . S
Zn485 O496 1.970 . S
Zn485 O506 1.981 . S
Zn485 O514 1.945 . S
C486 O487 1.246 . S
C486 O503 1.276 . S
O487 C486 1.246 . S
O488 Zn468 1.985 . S
O488 C498 1.245 1_556 S
O489 Zn469 1.970 . S
O489 C498 1.263 . S
O490 Zn475 1.985 . S
O490 C502 1.245 1_556 S
O491 Zn474 1.970 . S
O491 C502 1.263 . S
O492 Zn478 1.985 . S
O492 C507 1.245 1_556 S
O493 Zn480 1.970 . S
O493 C507 1.263 . S
C494 O505 1.262 . S
C494 O506 1.245 . S
O495 Zn482 1.985 . S
O495 C513 1.245 1_556 S
O496 Zn485 1.970 . S
O496 C513 1.263 . S
O497 Zn475 1.955 . S
O497 C516 1.276 . S
C498 O488 1.245 1_554 S
C498 O489 1.263 . S
O499 Zn468 1.955 . S
O499 C518 1.276 . S
C500 O508 1.262 . S
C500 O509 1.245 . S
O501 C472 1.276 . S
O501 Zn478 1.955 . S
C502 O490 1.245 1_554 S
C502 O491 1.263 . S
O503 Zn482 1.955 . S
O503 C486 1.276 . S
C504 O511 1.262 . S
C504 O512 1.245 . S
O505 Zn469 1.945 . S
O505 C494 1.262 . S
O506 Zn485 1.981 . S
O506 C494 1.245 . S
C507 O492 1.245 1_554 S
C507 O493 1.263 . S
O508 Zn474 1.945 . S
O508 C500 1.262 . S
O509 Zn480 1.981 . S
O509 C500 1.245 . S
C510 O514 1.262 . S
C510 O515 1.245 . S
O511 Zn480 1.945 . S
O511 C504 1.262 . S
O512 Zn469 1.981 . S
O512 C504 1.245 . S
C513 O495 1.245 1_554 S
C513 O496 1.263 . S
O514 Zn485 1.945 . S
O514 C510 1.262 . S
O515 Zn474 1.981 . S
O515 C510 1.245 . S
C516 O497 1.276 . S
C516 O517 1.246 . S
O517 C516 1.246 . S
C518 O499 1.276 . S
C518 O519 1.246 . S
O519 C518 1.246 . S
Zn520 O522 1.922 1_655 S
Zn520 O540 1.985 . S
Zn520 O551 1.955 1_655 S
Zn521 O522 1.893 1_655 S
Zn521 O541 1.970 . S
Zn521 O557 1.945 . S
Zn521 O564 1.981 . S
O522 Zn520 1.922 1_455 S
O522 Zn521 1.893 1_455 S
O522 H523 0.881 . S
H523 O522 0.881 . S
C524 O525 1.246 . S
C524 O553 1.276 . S
O525 C524 1.246 . S
Zn526 O528 1.911 . S
Zn526 O543 1.970 . S
Zn526 O560 1.945 . S
Zn526 O567 1.981 . S
Zn527 O528 1.933 . S
Zn527 O542 1.985 . S
Zn527 O549 1.955 . S
O528 Zn526 1.911 . S
O528 Zn527 1.933 . S
O528 H529 0.841 . S
H529 O528 0.841 . S
Zn530 O531 1.933 . S
Zn530 O544 1.985 . S
Zn530 O553 1.955 . S
O531 Zn530 1.933 . S
O531 Zn532 1.911 . S
O531 H533 0.841 . S
Zn532 O531 1.911 . S
Zn532 O545 1.970 . S
Zn532 O561 1.981 1_655 S
Zn532 O563 1.945 . S
H533 O531 0.841 . S
Zn534 O535 1.933 . S
Zn534 O547 1.985 . S
Zn534 O555 1.955 . S
O535 Zn534 1.933 . S
O535 H536 0.841 . S
O535 Zn537 1.911 . S
H536 O535 0.841 . S
Zn537 O535 1.911 . S
Zn537 O548 1.970 . S
Zn537 O558 1.981 . S
Zn537 O566 1.945 . S
C538 O539 1.246 . S
C538 O555 1.276 . S
O539 C538 1.246 . S
O540 Zn520 1.985 . S
O540 C550 1.245 . S
O541 Zn521 1.970 . S
O541 C550 1.263 . S
O542 Zn527 1.985 . S
O542 C554 1.245 . S
O543 Zn526 1.970 . S
O543 C554 1.263 . S
O544 Zn530 1.985 . S
O544 C559 1.245 . S
O545 Zn532 1.970 . S
O545 C559 1.263 . S
C546 O557 1.262 1_455 S
C546 O558 1.245 . S
O547 Zn534 1.985 . S
O547 C565 1.245 . S
O548 Zn537 1.970 . S
O548 C565 1.263 . S
O549 Zn527 1.955 . S
O549 C568 1.276 . S
C550 O540 1.245 . S
C550 O541 1.263 . S
O551 Zn520 1.955 1_455 S
O551 C570 1.276 . S
C552 O560 1.262 . S
C552 O561 1.245 . S
O553 C524 1.276 . S
O553 Zn530 1.955 . S
C554 O542 1.245 . S
C554 O543 1.263 . S
O555 Zn534 1.955 . S
O555 C538 1.276 . S
C556 O563 1.262 . S
C556 O564 1.245 . S
O557 Zn521 1.945 . S
O557 C546 1.262 1_655 S
O558 Zn537 1.981 . S
O558 C546 1.245 . S
C559 O544 1.245 . S
C559 O545 1.263 . S
O560 Zn526 1.945 . S
O560 C552 1.262 . S
O561 Zn532 1.981 1_455 S
O561 C552 1.245 . S
C562 O566 1.262 . S
C562 O567 1.245 . S
O563 Zn532 1.945 . S
O563 C556 1.262 . S
O564 Zn521 1.981 . S
O564 C556 1.245 . S
C565 O547 1.245 . S
C565 O548 1.263 . S
O566 Zn537 1.945 . S
O566 C562 1.262 . S
O567 Zn526 1.981 . S
O567 C562 1.245 . S
C568 O549 1.276 . S
C568 O569 1.246 . S
O569 C568 1.246 . S
C570 O551 1.276 . S
C570 O571 1.246 . S
O571 C570 1.246 . S
Zn572 O574 1.933 1_565 S
Zn572 O592 1.985 . S
Zn572 O603 1.955 . S
Zn573 O574 1.911 . S
Zn573 O593 1.970 . S
Zn573 O609 1.945 . S
Zn573 O616 1.981 . S
O574 Zn572 1.933 1_545 S
O574 Zn573 1.911 . S
O574 H575 0.841 . S
H575 O574 0.841 . S
C576 O577 1.246 . S
C576 O605 1.276 . S
O577 C576 1.246 . S
Zn578 O580 1.911 . S
Zn578 O595 1.970 . S
Zn578 O612 1.945 . S
Zn578 O619 1.981 . S
Zn579 O580 1.933 1_565 S
Zn579 O594 1.990 . S
Zn579 O601 1.955 . S
O580 Zn578 1.911 . S
O580 Zn579 1.933 1_545 S
O580 H581 0.841 . S
H581 O580 0.841 . S
Zn582 O583 1.933 1_565 S
Zn582 O596 1.985 . S
Zn582 O605 1.955 . S
O583 Zn582 1.933 1_545 S
O583 Zn584 1.911 . S
O583 H585 0.841 . S
Zn584 O583 1.911 . S
Zn584 O597 1.970 . S
Zn584 O613 1.981 . S
Zn584 O615 1.945 . S
H585 O583 0.841 . S
Zn586 O587 1.933 1_565 S
Zn586 O599 1.985 . S
Zn586 O607 1.955 . S
O587 Zn586 1.933 1_545 S
O587 H588 0.841 . S
O587 Zn589 1.911 . S
H588 O587 0.841 . S
Zn589 O587 1.911 . S
Zn589 O600 1.970 . S
Zn589 O610 1.981 . S
Zn589 O618 1.945 . S
C590 O591 1.246 . S
C590 O607 1.276 . S
O591 C590 1.246 . S
O592 Zn572 1.985 . S
O592 C602 1.245 1_565 S
O593 Zn573 1.970 . S
O593 C602 1.263 . S
O594 Zn579 1.990 . S
O594 C606 1.228 1_565 S
O595 Zn578 1.970 . S
O595 C606 1.263 . S
O596 Zn582 1.985 . S
O596 C611 1.245 1_565 S
O597 Zn584 1.970 . S
O597 C611 1.263 . S
C598 O609 1.262 . S
C598 O610 1.245 . S
O599 Zn586 1.985 . S
O599 C617 1.246 1_565 S
O600 Zn589 1.970 . S
O600 C617 1.263 . S
O601 Zn579 1.955 . S
O601 C620 1.276 . S
C602 O592 1.245 1_545 S
C602 O593 1.263 . S
O603 Zn572 1.955 . S
O603 C622 1.276 . S
C604 O612 1.262 . S
C604 O613 1.245 . S
O605 C576 1.276 . S
O605 Zn582 1.955 . S
C606 O594 1.228 1_545 S
C606 O595 1.263 . S
O607 Zn586 1.955 . S
O607 C590 1.276 . S
C608 O615 1.262 . S
C608 O616 1.245 . S
O609 Zn573 1.945 . S
O609 C598 1.262 . S
O610 Zn589 1.981 . S
O610 C598 1.245 . S
C611 O596 1.245 1_545 S
C611 O597 1.263 . S
O612 Zn578 1.945 . S
O612 C604 1.262 . S
O613 Zn584 1.981 . S
O613 C604 1.245 . S
C614 O618 1.262 . S
C614 O619 1.245 . S
O615 Zn584 1.945 . S
O615 C608 1.262 . S
O616 Zn573 1.981 . S
O616 C608 1.245 . S
C617 O599 1.246 1_545 S
C617 O600 1.263 . S
O618 Zn589 1.945 . S
O618 C614 1.262 . S
O619 Zn578 1.981 . S
O619 C614 1.245 . S
C620 O601 1.276 . S
C620 O621 1.246 . S
O621 C620 1.246 . S
C622 O603 1.276 . S
C622 O623 1.246 . S
O623 C622 1.246 . S
C624 C625 1.349 . S
C624 C626 1.327 . S
C624 H649 0.950 . S
C625 C624 1.349 . S
C625 C641 1.349 . S
C626 C624 1.327 . S
C626 C645 1.429 . S
C626 H650 0.950 . S
C627 C644 1.574 . S
C627 C646 1.368 . S
C627 H651 0.949 . S
H628 C632 0.949 . S
C629 C630 1.349 . S
C629 C631 1.327 . S
C629 H652 0.950 . S
C630 C629 1.349 . S
C630 C642 1.349 . S
C631 C629 1.327 . S
C631 C647 1.429 . S
C631 H653 0.950 . S
C632 H628 0.949 . S
C632 C640 1.574 . S
C632 C648 1.368 . S
H633 C641 0.950 . S
H634 C639 0.950 . S
H635 C640 0.949 . S
H636 C642 0.950 . S
H637 C643 0.950 . S
H638 C644 0.949 . S
C639 H634 0.950 . S
C639 C641 1.327 . S
C639 C645 1.429 . S
C640 C632 1.574 . S
C640 H635 0.949 . S
C640 C646 1.368 . S
C641 C625 1.349 . S
C641 H633 0.950 . S
C641 C639 1.327 . S
C642 C630 1.349 . S
C642 H636 0.950 . S
C642 C643 1.327 . S
C643 H637 0.950 . S
C643 C642 1.327 . S
C643 C647 1.429 . S
C644 C627 1.574 . S
C644 H638 0.949 . S
C644 C648 1.368 . S
C645 C626 1.429 . S
C645 C639 1.429 . S
C645 C646 1.523 . S
C646 C627 1.368 . S
C646 C640 1.368 . S
C646 C645 1.523 . S
C647 C631 1.429 . S
C647 C643 1.429 . S
C647 C648 1.523 . S
C648 C632 1.368 . S
C648 C644 1.368 . S
C648 C647 1.523 . S
H649 C624 0.950 . S
H650 C626 0.950 . S
H651 C627 0.949 . S
H652 C629 0.950 . S
H653 C631 0.950 . S
C654 C655 1.349 . S
C654 C656 1.327 . S
C654 H679 0.950 . S
C655 C654 1.349 . S
C655 C671 1.349 . S
C656 C654 1.327 . S
C656 C675 1.429 . S
C656 H680 0.950 . S
C657 C674 1.574 . S
C657 C676 1.368 . S
C657 H681 0.949 . S
H658 C662 0.949 . S
C659 C660 1.349 . S
C659 C661 1.327 . S
C659 H682 0.950 . S
C660 C659 1.349 . S
C660 C672 1.349 . S
C661 C659 1.327 . S
C661 C677 1.429 . S
C661 H683 0.950 . S
C662 H658 0.949 . S
C662 C670 1.574 . S
C662 C678 1.368 . S
H663 C671 0.950 . S
H664 C669 0.950 . S
H665 C670 0.949 . S
H666 C672 0.950 . S
H667 C673 0.950 . S
H668 C674 0.949 . S
C669 H664 0.950 . S
C669 C671 1.327 . S
C669 C675 1.429 . S
C670 C662 1.574 . S
C670 H665 0.949 . S
C670 C676 1.368 . S
C671 C655 1.349 . S
C671 H663 0.950 . S
C671 C669 1.327 . S
C672 C660 1.349 . S
C672 H666 0.950 . S
C672 C673 1.327 . S
C673 H667 0.950 . S
C673 C672 1.327 . S
C673 C677 1.429 . S
C674 C657 1.574 . S
C674 H668 0.949 . S
C674 C678 1.368 . S
C675 C656 1.429 . S
C675 C669 1.429 . S
C675 C676 1.523 . S
C676 C657 1.368 . S
C676 C670 1.368 . S
C676 C675 1.523 . S
C677 C661 1.429 . S
C677 C673 1.429 . S
C677 C678 1.523 . S
C678 C662 1.368 . S
C678 C674 1.368 . S
C678 C677 1.523 . S
H679 C654 0.950 . S
H680 C656 0.950 . S
H681 C657 0.949 . S
H682 C659 0.950 . S
H683 C661 0.950 . S
C684 C685 1.349 . S
C684 C686 1.327 . S
C684 H709 0.950 . S
C685 C684 1.349 . S
C685 C701 1.349 . S
C686 C684 1.327 . S
C686 C705 1.429 . S
C686 H710 0.950 . S
C687 C704 1.574 . S
C687 C706 1.368 . S
C687 H711 0.949 . S
H688 C692 0.949 . S
C689 C690 1.349 . S
C689 C691 1.327 . S
C689 H712 0.950 . S
C690 C689 1.349 . S
C690 C702 1.349 . S
C691 C689 1.327 . S
C691 C707 1.429 . S
C691 H713 0.950 . S
C692 H688 0.949 . S
C692 C700 1.574 . S
C692 C708 1.368 . S
H693 C701 0.950 . S
H694 C699 0.950 . S
H695 C700 0.949 . S
H696 C702 0.950 . S
H697 C703 0.950 . S
H698 C704 0.949 . S
C699 H694 0.950 . S
C699 C701 1.327 . S
C699 C705 1.429 . S
C700 C692 1.574 . S
C700 H695 0.949 . S
C700 C706 1.368 . S
C701 C685 1.349 . S
C701 H693 0.950 . S
C701 C699 1.327 . S
C702 C690 1.349 . S
C702 H696 0.950 . S
C702 C703 1.327 . S
C703 H697 0.950 . S
C703 C702 1.327 . S
C703 C707 1.429 . S
C704 C687 1.574 . S
C704 H698 0.949 . S
C704 C708 1.368 . S
C705 C686 1.429 . S
C705 C699 1.429 . S
C705 C706 1.523 . S
C706 C687 1.368 . S
C706 C700 1.368 . S
C706 C705 1.523 . S
C707 C691 1.429 . S
C707 C703 1.429 . S
C707 C708 1.523 . S
C708 C692 1.368 . S
C708 C704 1.368 . S
C708 C707 1.523 . S
H709 C684 0.950 . S
H710 C686 0.950 . S
H711 C687 0.949 . S
H712 C689 0.950 . S
H713 C691 0.950 . S
C714 C715 1.349 . S
C714 C716 1.327 . S
C714 H739 0.950 . S
C715 C714 1.349 . S
C715 C731 1.349 . S
C716 C714 1.327 . S
C716 C735 1.429 . S
C716 H740 0.950 . S
C717 C734 1.574 . S
C717 C736 1.368 . S
C717 H741 0.949 . S
H718 C722 0.949 . S
C719 C720 1.349 . S
C719 C721 1.327 . S
C719 H742 0.950 . S
C720 C719 1.349 . S
C720 C732 1.349 . S
C721 C719 1.327 . S
C721 C737 1.429 . S
C721 H743 0.950 . S
C722 H718 0.949 . S
C722 C730 1.574 . S
C722 C738 1.368 . S
H723 C731 0.950 . S
H724 C729 0.950 . S
H725 C730 0.949 . S
H726 C732 0.950 . S
H727 C733 0.950 . S
H728 C734 0.949 . S
C729 H724 0.950 . S
C729 C731 1.327 . S
C729 C735 1.429 . S
C730 C722 1.574 . S
C730 H725 0.949 . S
C730 C736 1.368 . S
C731 C715 1.349 . S
C731 H723 0.950 . S
C731 C729 1.327 . S
C732 C720 1.349 . S
C732 H726 0.950 . S
C732 C733 1.327 . S
C733 H727 0.950 . S
C733 C732 1.327 . S
C733 C737 1.429 . S
C734 C717 1.574 . S
C734 H728 0.949 . S
C734 C738 1.368 . S
C735 C716 1.429 . S
C735 C729 1.429 . S
C735 C736 1.523 . S
C736 C717 1.368 . S
C736 C730 1.368 . S
C736 C735 1.523 . S
C737 C721 1.429 . S
C737 C733 1.429 . S
C737 C738 1.523 . S
C738 C722 1.368 . S
C738 C734 1.368 . S
C738 C737 1.523 . S
H739 C714 0.950 . S
H740 C716 0.950 . S
H741 C717 0.949 . S
H742 C719 0.950 . S
H743 C721 0.950 . S
C744 C745 1.349 . S
C744 C746 1.327 . S
C744 H769 0.950 . S
C745 C744 1.349 . S
C745 C761 1.349 . S
C746 C744 1.327 . S
C746 C765 1.429 . S
C746 H770 0.950 . S
C747 C764 1.574 . S
C747 C766 1.368 . S
C747 H771 0.949 . S
H748 C752 0.949 . S
C749 C750 1.349 . S
C749 C751 1.327 . S
C749 H772 0.950 . S
C750 C749 1.349 . S
C750 C762 1.349 . S
C751 C749 1.327 . S
C751 C767 1.429 . S
C751 H773 0.950 . S
C752 H748 0.949 . S
C752 C760 1.574 . S
C752 C768 1.368 . S
H753 C761 0.950 . S
H754 C759 0.950 . S
H755 C760 0.949 . S
H756 C762 0.950 . S
H757 C763 0.950 . S
H758 C764 0.949 . S
C759 H754 0.950 . S
C759 C761 1.327 . S
C759 C765 1.429 . S
C760 C752 1.574 . S
C760 H755 0.949 . S
C760 C766 1.368 . S
C761 C745 1.349 . S
C761 H753 0.950 . S
C761 C759 1.327 . S
C762 C750 1.349 . S
C762 H756 0.950 . S
C762 C763 1.327 . S
C763 H757 0.950 . S
C763 C762 1.327 . S
C763 C767 1.429 . S
C764 C747 1.574 . S
C764 H758 0.949 . S
C764 C768 1.368 . S
C765 C746 1.429 . S
C765 C759 1.429 . S
C765 C766 1.523 . S
C766 C747 1.368 . S
C766 C760 1.368 . S
C766 C765 1.523 . S
C767 C751 1.429 . S
C767 C763 1.429 . S
C767 C768 1.523 . S
C768 C752 1.368 . S
C768 C764 1.368 . S
C768 C767 1.523 . S
H769 C744 0.950 . S
H770 C746 0.950 . S
H771 C747 0.949 . S
H772 C749 0.950 . S
H773 C751 0.950 . S
C774 C775 1.349 . S
C774 C776 1.327 . S
C774 H799 0.950 . S
C775 C774 1.349 . S
C775 C791 1.349 . S
C776 C774 1.327 . S
C776 C795 1.429 . S
C776 H800 0.950 . S
C777 C794 1.574 . S
C777 C796 1.368 . S
C777 H801 0.949 . S
H778 C782 0.949 . S
C779 C780 1.349 . S
C779 C781 1.327 . S
C779 H802 0.950 . S
C780 C779 1.349 . S
C780 C792 1.349 . S
C781 C779 1.327 . S
C781 C797 1.429 . S
C781 H803 0.950 . S
C782 H778 0.949 . S
C782 C790 1.574 . S
C782 C798 1.368 . S
H783 C791 0.950 . S
H784 C789 0.950 . S
H785 C790 0.949 . S
H786 C792 0.950 . S
H787 C793 0.950 . S
H788 C794 0.949 . S
C789 H784 0.950 . S
C789 C791 1.327 . S
C789 C795 1.429 . S
C790 C782 1.574 . S
C790 H785 0.949 . S
C790 C796 1.368 . S
C791 C775 1.349 . S
C791 H783 0.950 . S
C791 C789 1.327 . S
C792 C780 1.349 . S
C792 H786 0.950 . S
C792 C793 1.327 . S
C793 H787 0.950 . S
C793 C792 1.327 . S
C793 C797 1.429 . S
C794 C777 1.574 . S
C794 H788 0.949 . S
C794 C798 1.368 . S
C795 C776 1.429 . S
C795 C789 1.429 . S
C795 C796 1.523 . S
C796 C777 1.368 . S
C796 C790 1.368 . S
C796 C795 1.523 . S
C797 C781 1.429 . S
C797 C793 1.429 . S
C797 C798 1.523 . S
C798 C782 1.368 . S
C798 C794 1.368 . S
C798 C797 1.523 . S
H799 C774 0.950 . S
H800 C776 0.950 . S
H801 C777 0.949 . S
H802 C779 0.950 . S
H803 C781 0.950 . S
C804 C805 1.349 . S
C804 C806 1.327 . S
C804 H829 0.950 . S
C805 C804 1.349 . S
C805 C821 1.349 . S
C806 C804 1.327 . S
C806 C825 1.429 . S
C806 H830 0.950 . S
C807 C824 1.574 . S
C807 C826 1.368 . S
C807 H831 0.949 . S
H808 C812 0.949 . S
C809 C810 1.349 . S
C809 C811 1.327 . S
C809 H832 0.950 . S
C810 C809 1.349 . S
C810 C822 1.349 . S
C811 C809 1.327 . S
C811 C827 1.429 . S
C811 H833 0.950 . S
C812 H808 0.949 . S
C812 C820 1.574 . S
C812 C828 1.368 . S
H813 C821 0.950 . S
H814 C819 0.950 . S
H815 C820 0.949 . S
H816 C822 0.950 . S
H817 C823 0.950 . S
H818 C824 0.949 . S
C819 H814 0.950 . S
C819 C821 1.327 . S
C819 C825 1.429 . S
C820 C812 1.574 . S
C820 H815 0.949 . S
C820 C826 1.368 . S
C821 C805 1.349 . S
C821 H813 0.950 . S
C821 C819 1.327 . S
C822 C810 1.349 . S
C822 H816 0.950 . S
C822 C823 1.327 . S
C823 H817 0.950 . S
C823 C822 1.327 . S
C823 C827 1.429 . S
C824 C807 1.574 . S
C824 H818 0.949 . S
C824 C828 1.368 . S
C825 C806 1.429 . S
C825 C819 1.429 . S
C825 C826 1.523 . S
C826 C807 1.368 . S
C826 C820 1.368 . S
C826 C825 1.523 . S
C827 C811 1.429 . S
C827 C823 1.429 . S
C827 C828 1.523 . S
C828 C812 1.368 . S
C828 C824 1.368 . S
C828 C827 1.523 . S
H829 C804 0.950 . S
H830 C806 0.950 . S
H831 C807 0.949 . S
H832 C809 0.950 . S
H833 C811 0.950 . S
C834 C835 1.349 . S
C834 C836 1.327 . S
C834 H859 0.950 . S
C835 C834 1.349 . S
C835 C851 1.349 . S
C836 C834 1.327 . S
C836 C855 1.429 . S
C836 H860 0.950 . S
C837 C854 1.574 . S
C837 C856 1.368 . S
C837 H861 0.949 . S
H838 C842 0.949 . S
C839 C840 1.349 . S
C839 C841 1.327 . S
C839 H862 0.950 . S
C840 C839 1.349 . S
C840 C852 1.349 . S
C841 C839 1.327 . S
C841 C857 1.429 . S
C841 H863 0.950 . S
C842 H838 0.949 . S
C842 C850 1.574 . S
C842 C858 1.368 . S
H843 C851 0.950 . S
H844 C849 0.950 . S
H845 C850 0.949 . S
H846 C852 0.950 . S
H847 C853 0.950 . S
H848 C854 0.949 . S
C849 H844 0.950 . S
C849 C851 1.327 . S
C849 C855 1.429 . S
C850 C842 1.574 . S
C850 H845 0.949 . S
C850 C856 1.368 . S
C851 C835 1.349 . S
C851 H843 0.950 . S
C851 C849 1.327 . S
C852 C840 1.349 . S
C852 H846 0.950 . S
C852 C853 1.327 . S
C853 H847 0.950 . S
C853 C852 1.327 . S
C853 C857 1.429 . S
C854 C837 1.574 . S
C854 H848 0.949 . S
C854 C858 1.368 . S
C855 C836 1.429 . S
C855 C849 1.429 . S
C855 C856 1.523 . S
C856 C837 1.368 . S
C856 C850 1.368 . S
C856 C855 1.523 . S
C857 C841 1.429 . S
C857 C853 1.429 . S
C857 C858 1.523 . S
C858 C842 1.368 . S
C858 C854 1.368 . S
C858 C857 1.523 . S
H859 C834 0.950 . S
H860 C836 0.950 . S
H861 C837 0.949 . S
H862 C839 0.950 . S
H863 C841 0.950 . S
C864 C865 1.349 . S
C864 C866 1.327 . S
C864 H889 0.950 . S
C865 C864 1.349 . S
C865 C881 1.349 . S
C866 C864 1.327 . S
C866 C885 1.429 . S
C866 H890 0.950 . S
C867 C884 1.574 . S
C867 C886 1.368 . S
C867 H891 0.949 . S
H868 C872 0.949 . S
C869 C870 1.349 . S
C869 C871 1.327 . S
C869 H892 0.950 . S
C870 C869 1.349 . S
C870 C882 1.349 . S
C871 C869 1.327 . S
C871 C887 1.429 . S
C871 H893 0.950 . S
C872 H868 0.949 . S
C872 C880 1.574 . S
C872 C888 1.368 . S
H873 C881 0.950 . S
H874 C879 0.950 . S
H875 C880 0.949 . S
H876 C882 0.950 . S
H877 C883 0.950 . S
H878 C884 0.949 . S
C879 H874 0.950 . S
C879 C881 1.327 . S
C879 C885 1.429 . S
C880 C872 1.574 . S
C880 H875 0.949 . S
C880 C886 1.368 . S
C881 C865 1.349 . S
C881 H873 0.950 . S
C881 C879 1.327 . S
C882 C870 1.349 . S
C882 H876 0.950 . S
C882 C883 1.327 . S
C883 H877 0.950 . S
C883 C882 1.327 . S
C883 C887 1.429 . S
C884 C867 1.574 . S
C884 H878 0.949 . S
C884 C888 1.368 . S
C885 C866 1.429 . S
C885 C879 1.429 . S
C885 C886 1.523 . S
C886 C867 1.368 . S
C886 C880 1.368 . S
C886 C885 1.523 . S
C887 C871 1.429 . S
C887 C883 1.429 . S
C887 C888 1.523 . S
C888 C872 1.368 . S
C888 C884 1.368 . S
C888 C887 1.523 . S
H889 C864 0.950 . S
H890 C866 0.950 . S
H891 C867 0.949 . S
H892 C869 0.950 . S
H893 C871 0.950 . S
C894 C895 1.349 . S
C894 C896 1.327 . S
C894 H919 0.950 . S
C895 C894 1.349 . S
C895 C911 1.349 . S
C896 C894 1.327 . S
C896 C915 1.429 . S
C896 H920 0.950 . S
C897 C914 1.574 . S
C897 C916 1.368 . S
C897 H921 0.949 . S
H898 C902 0.949 . S
C899 C900 1.349 . S
C899 C901 1.327 . S
C899 H922 0.950 . S
C900 C899 1.349 . S
C900 C912 1.349 . S
C901 C899 1.327 . S
C901 C917 1.429 . S
C901 H923 0.950 . S
C902 H898 0.949 . S
C902 C910 1.574 . S
C902 C918 1.368 . S
H903 C911 0.950 . S
H904 C909 0.950 . S
H905 C910 0.949 . S
H906 C912 0.950 . S
H907 C913 0.950 . S
H908 C914 0.949 . S
C909 H904 0.950 . S
C909 C911 1.327 . S
C909 C915 1.429 . S
C910 C902 1.574 . S
C910 H905 0.949 . S
C910 C916 1.368 . S
C911 C895 1.349 . S
C911 H903 0.950 . S
C911 C909 1.327 . S
C912 C900 1.349 . S
C912 H906 0.950 . S
C912 C913 1.327 . S
C913 H907 0.950 . S
C913 C912 1.327 . S
C913 C917 1.429 . S
C914 C897 1.574 . S
C914 H908 0.949 . S
C914 C918 1.368 . S
C915 C896 1.429 . S
C915 C909 1.429 . S
C915 C916 1.523 . S
C916 C897 1.368 . S
C916 C910 1.368 . S
C916 C915 1.523 . S
C917 C901 1.429 . S
C917 C913 1.429 . S
C917 C918 1.523 . S
C918 C902 1.368 . S
C918 C914 1.368 . S
C918 C917 1.523 . S
H919 C894 0.950 . S
H920 C896 0.950 . S
H921 C897 0.949 . S
H922 C899 0.950 . S
H923 C901 0.950 . S
C924 C925 1.349 . S
C924 C926 1.327 . S
C924 H949 0.950 . S
C925 C924 1.349 . S
C925 C941 1.349 . S
C926 C924 1.327 . S
C926 C945 1.429 . S
C926 H950 0.950 . S
C927 C944 1.574 . S
C927 C946 1.368 . S
C927 H951 0.949 . S
H928 C932 0.949 . S
C929 C930 1.349 . S
C929 C931 1.327 . S
C929 H952 0.950 . S
C930 C929 1.349 . S
C930 C942 1.349 . S
C931 C929 1.327 . S
C931 C947 1.429 . S
C931 H953 0.950 . S
C932 H928 0.949 . S
C932 C940 1.574 . S
C932 C948 1.368 . S
H933 C941 0.950 . S
H934 C939 0.950 . S
H935 C940 0.949 . S
H936 C942 0.950 . S
H937 C943 0.950 . S
H938 C944 0.949 . S
C939 H934 0.950 . S
C939 C941 1.327 . S
C939 C945 1.429 . S
C940 C932 1.574 . S
C940 H935 0.949 . S
C940 C946 1.368 . S
C941 C925 1.349 . S
C941 H933 0.950 . S
C941 C939 1.327 . S
C942 C930 1.349 . S
C942 H936 0.950 . S
C942 C943 1.327 . S
C943 H937 0.950 . S
C943 C942 1.327 . S
C943 C947 1.429 . S
C944 C927 1.574 . S
C944 H938 0.949 . S
C944 C948 1.368 . S
C945 C926 1.429 . S
C945 C939 1.429 . S
C945 C946 1.523 . S
C946 C927 1.368 . S
C946 C940 1.368 . S
C946 C945 1.523 . S
C947 C931 1.429 . S
C947 C943 1.429 . S
C947 C948 1.523 . S
C948 C932 1.368 . S
C948 C944 1.368 . S
C948 C947 1.523 . S
H949 C924 0.950 . S
H950 C926 0.950 . S
H951 C927 0.949 . S
H952 C929 0.950 . S
H953 C931 0.950 . S
C954 C955 1.349 . S
C954 C956 1.327 . S
C954 H979 0.950 . S
C955 C954 1.349 . S
C955 C971 1.349 . S
C956 C954 1.327 . S
C956 C975 1.429 . S
C956 H980 0.950 . S
C957 C974 1.574 . S
C957 C976 1.368 . S
C957 H981 0.949 . S
H958 C962 0.949 . S
C959 C960 1.349 . S
C959 C961 1.327 . S
C959 H982 0.950 . S
C960 C959 1.349 . S
C960 C972 1.349 . S
C961 C959 1.327 . S
C961 C977 1.429 . S
C961 H983 0.950 . S
C962 H958 0.949 . S
C962 C970 1.574 . S
C962 C978 1.368 . S
H963 C971 0.950 . S
H964 C969 0.950 . S
H965 C970 0.949 . S
H966 C972 0.950 . S
H967 C973 0.950 . S
H968 C974 0.949 . S
C969 H964 0.950 . S
C969 C971 1.327 . S
C969 C975 1.429 . S
C970 C962 1.574 . S
C970 H965 0.949 . S
C970 C976 1.368 . S
C971 C955 1.349 . S
C971 H963 0.950 . S
C971 C969 1.327 . S
C972 C960 1.349 . S
C972 H966 0.950 . S
C972 C973 1.327 . S
C973 H967 0.950 . S
C973 C972 1.327 . S
C973 C977 1.429 . S
C974 C957 1.574 . S
C974 H968 0.949 . S
C974 C978 1.368 . S
C975 C956 1.429 . S
C975 C969 1.429 . S
C975 C976 1.523 . S
C976 C957 1.368 . S
C976 C970 1.368 . S
C976 C975 1.523 . S
C977 C961 1.429 . S
C977 C973 1.429 . S
C977 C978 1.523 . S
C978 C962 1.368 . S
C978 C974 1.368 . S
C978 C977 1.523 . S
H979 C954 0.950 . S
H980 C956 0.950 . S
H981 C957 0.949 . S
H982 C959 0.950 . S
H983 C961 0.950 . S
C984 C985 1.349 1_556 S
C984 C986 1.327 . S
C984 H1009 0.950 . S
C985 C984 1.349 1_554 S
C985 C1001 1.349 . S
C986 C984 1.327 . S
C986 C1005 1.429 1_556 S
C986 H1010 0.950 . S
C987 C1004 1.574 . S
C987 C1006 1.368 . S
C987 H1011 0.949 . S
H988 C992 0.949 . S
C989 C990 1.349 . S
C989 C991 1.327 . S
C989 H1012 0.950 . S
C990 C989 1.349 . S
C990 C1002 1.349 1_554 S
C991 C989 1.327 . S
C991 C1007 1.429 . S
C991 H1013 0.950 . S
C992 H988 0.949 . S
C992 C1000 1.574 . S
C992 C1008 1.368 1_556 S
H993 C1001 0.950 . S
H994 C999 0.950 . S
H995 C1000 0.949 . S
H996 C1002 0.950 . S
H997 C1003 0.950 . S
H998 C1004 0.949 . S
C999 H994 0.950 . S
C999 C1001 1.327 . S
C999 C1005 1.429 . S
C1000 C992 1.574 . S
C1000 H995 0.949 . S
C1000 C1006 1.368 1_556 S
C1001 C985 1.349 . S
C1001 H993 0.950 . S
C1001 C999 1.327 . S
C1002 C990 1.349 1_556 S
C1002 H996 0.950 . S
C1002 C1003 1.327 . S
C1003 H997 0.950 . S
C1003 C1002 1.327 . S
C1003 C1007 1.429 1_556 S
C1004 C987 1.574 . S
C1004 H998 0.949 . S
C1004 C1008 1.368 . S
C1005 C986 1.429 1_554 S
C1005 C999 1.429 . S
C1005 C1006 1.523 . S
C1006 C987 1.368 . S
C1006 C1000 1.368 1_554 S
C1006 C1005 1.523 . S
C1007 C991 1.429 . S
C1007 C1003 1.429 1_554 S
C1007 C1008 1.523 . S
C1008 C992 1.368 1_554 S
C1008 C1004 1.368 . S
C1008 C1007 1.523 . S
H1009 C984 0.950 . S
H1010 C986 0.950 . S
H1011 C987 0.949 . S
H1012 C989 0.950 . S
H1013 C991 0.950 . S
C1014 C1015 1.349 1_556 S
C1014 C1016 1.327 . S
C1014 H1039 0.950 . S
C1015 C1014 1.349 1_554 S
C1015 C1031 1.349 . S
C1016 C1014 1.327 . S
C1016 C1035 1.429 1_556 S
C1016 H1040 0.950 . S
C1017 C1034 1.574 . S
C1017 C1036 1.368 . S
C1017 H1041 0.949 . S
H1018 C1022 0.949 . S
C1019 C1020 1.349 . S
C1019 C1021 1.327 . S
C1019 H1042 0.950 . S
C1020 C1019 1.349 . S
C1020 C1032 1.349 1_554 S
C1021 C1019 1.327 . S
C1021 C1037 1.429 . S
C1021 H1043 0.950 . S
C1022 H1018 0.949 . S
C1022 C1030 1.574 . S
C1022 C1038 1.368 1_556 S
H1023 C1031 0.950 . S
H1024 C1029 0.950 . S
H1025 C1030 0.949 . S
H1026 C1032 0.950 . S
H1027 C1033 0.950 . S
H1028 C1034 0.949 . S
C1029 H1024 0.950 . S
C1029 C1031 1.327 . S
C1029 C1035 1.429 . S
C1030 C1022 1.574 . S
C1030 H1025 0.949 . S
C1030 C1036 1.368 1_556 S
C1031 C1015 1.349 . S
C1031 H1023 0.950 . S
C1031 C1029 1.327 . S
C1032 C1020 1.349 1_556 S
C1032 H1026 0.950 . S
C1032 C1033 1.327 . S
C1033 H1027 0.950 . S
C1033 C1032 1.327 . S
C1033 C1037 1.429 1_556 S
C1034 C1017 1.574 . S
C1034 H1028 0.949 . S
C1034 C1038 1.368 . S
C1035 C1016 1.429 1_554 S
C1035 C1029 1.429 . S
C1035 C1036 1.523 . S
C1036 C1017 1.368 . S
C1036 C1030 1.368 1_554 S
C1036 C1035 1.523 . S
C1037 C1021 1.429 . S
C1037 C1033 1.429 1_554 S
C1037 C1038 1.523 . S
C1038 C1022 1.368 1_554 S
C1038 C1034 1.368 . S
C1038 C1037 1.523 . S
H1039 C1014 0.950 . S
H1040 C1016 0.950 . S
H1041 C1017 0.949 . S
H1042 C1019 0.950 . S
H1043 C1021 0.950 . S
C1044 C1045 1.349 . S
C1044 C1046 1.327 . S
C1044 H1069 0.950 . S
C1045 C1044 1.349 . S
C1045 C1061 1.326 1_554 S
C1046 C1044 1.327 . S
C1046 C1065 1.429 . S
C1046 H1070 0.950 . S
C1047 C1064 1.574 . S
C1047 C1066 1.368 1_556 S
C1047 H1071 0.949 . S
H1048 C1052 0.949 . S
C1049 C1050 1.349 1_556 S
C1049 C1051 1.327 . S
C1049 H1072 0.950 . S
C1050 C1049 1.349 1_554 S
C1050 C1062 1.349 . S
C1051 C1049 1.327 . S
C1051 C1067 1.429 1_556 S
C1051 H1073 0.950 . S
C1052 H1048 0.949 . S
C1052 C1060 1.574 . S
C1052 C1068 1.368 . S
H1053 C1061 0.972 . S
H1054 C1059 0.950 . S
H1055 C1060 0.949 . S
H1056 C1062 0.950 . S
H1057 C1063 0.950 . S
H1058 C1064 0.949 . S
C1059 H1054 0.950 . S
C1059 C1061 1.329 . S
C1059 C1065 1.429 1_556 S
C1060 C1052 1.574 . S
C1060 H1055 0.949 . S
C1060 C1066 1.368 . S
C1061 C1045 1.326 1_556 S
C1061 H1053 0.972 . S
C1061 C1059 1.329 . S
C1062 C1050 1.349 . S
C1062 H1056 0.950 . S
C1062 C1063 1.327 . S
C1063 H1057 0.950 . S
C1063 C1062 1.327 . S
C1063 C1067 1.429 . S
C1064 C1047 1.574 . S
C1064 H1058 0.949 . S
C1064 C1068 1.368 1_556 S
C1065 C1046 1.429 . S
C1065 C1059 1.429 1_554 S
C1065 C1066 1.523 . S
C1066 C1047 1.368 1_554 S
C1066 C1060 1.368 . S
C1066 C1065 1.523 . S
C1067 C1051 1.429 1_554 S
C1067 C1063 1.429 . S
C1067 C1068 1.523 . S
C1068 C1052 1.368 . S
C1068 C1064 1.368 1_554 S
C1068 C1067 1.523 . S
H1069 C1044 0.950 . S
H1070 C1046 0.950 . S
H1071 C1047 0.949 . S
H1072 C1049 0.950 . S
H1073 C1051 0.950 . S
C1074 C1075 1.321 1_556 S
C1074 C1076 1.327 . S
C1074 H1099 0.950 . S
C1075 C1074 1.321 1_554 S
C1075 C1091 1.379 . S
C1076 C1074 1.327 . S
C1076 C1095 1.429 1_556 S
C1076 H1100 0.950 . S
C1077 C1094 1.574 . S
C1077 C1096 1.368 . S
C1077 H1101 0.949 . S
H1078 C1082 0.949 . S
C1079 C1080 1.349 . S
C1079 C1081 1.327 . S
C1079 H1102 0.950 . S
C1080 C1079 1.349 . S
C1080 C1092 1.349 1_554 S
C1081 C1079 1.327 . S
C1081 C1097 1.429 . S
C1081 H1103 0.950 . S
C1082 H1078 0.949 . S
C1082 C1090 1.574 . S
C1082 C1098 1.368 1_556 S
H1083 C1091 0.950 . S
H1084 C1089 0.950 . S
H1085 C1090 0.949 . S
H1086 C1092 0.950 . S
H1087 C1093 0.950 . S
H1088 C1094 0.949 . S
C1089 H1084 0.950 . S
C1089 C1091 1.327 . S
C1089 C1095 1.429 . S
C1090 C1082 1.574 . S
C1090 H1085 0.949 . S
C1090 C1096 1.368 1_556 S
C1091 C1075 1.379 . S
C1091 H1083 0.950 . S
C1091 C1089 1.327 . S
C1092 C1080 1.349 1_556 S
C1092 H1086 0.950 . S
C1092 C1093 1.327 . S
C1093 H1087 0.950 . S
C1093 C1092 1.327 . S
C1093 C1097 1.429 1_556 S
C1094 C1077 1.574 . S
C1094 H1088 0.949 . S
C1094 C1098 1.368 . S
C1095 C1076 1.429 1_554 S
C1095 C1089 1.429 . S
C1095 C1096 1.523 . S
C1096 C1077 1.368 . S
C1096 C1090 1.368 1_554 S
C1096 C1095 1.523 . S
C1097 C1081 1.429 . S
C1097 C1093 1.429 1_554 S
C1097 C1098 1.523 . S
C1098 C1082 1.368 1_554 S
C1098 C1094 1.368 . S
C1098 C1097 1.523 . S
H1099 C1074 0.950 . S
H1100 C1076 0.950 . S
H1101 C1077 0.949 . S
H1102 C1079 0.950 . S
H1103 C1081 0.950 . S
C1104 C1105 1.351 . S
C1104 C1106 1.327 . S
C1104 H1129 0.950 . S
C1105 C1104 1.351 . S
C1105 C1121 1.349 . S
C1106 C1104 1.327 . S
C1106 C1125 1.429 . S
C1106 H1130 0.950 . S
C1107 C1124 1.574 . S
C1107 C1126 1.368 . S
C1107 H1131 0.949 . S
H1108 C1112 0.949 . S
C1109 C1110 1.349 . S
C1109 C1111 1.327 . S
C1109 H1132 0.950 . S
C1110 C1109 1.349 . S
C1110 C1122 1.349 . S
C1111 C1109 1.327 . S
C1111 C1127 1.429 . S
C1111 H1133 0.950 . S
C1112 H1108 0.949 . S
C1112 C1120 1.574 . S
C1112 C1128 1.368 . S
H1113 C1121 0.948 1_655 S
H1114 C1119 0.950 . S
H1115 C1120 0.949 . S
H1116 C1122 0.950 . S
H1117 C1123 0.950 . S
H1118 C1124 0.949 . S
C1119 H1114 0.950 . S
C1119 C1121 1.328 . S
C1119 C1125 1.429 . S
C1120 C1112 1.574 . S
C1120 H1115 0.949 . S
C1120 C1126 1.368 . S
C1121 C1105 1.349 . S
C1121 H1113 0.948 1_455 S
C1121 C1119 1.328 . S
C1122 C1110 1.349 . S
C1122 H1116 0.950 . S
C1122 C1123 1.327 . S
C1123 H1117 0.950 . S
C1123 C1122 1.327 . S
C1123 C1127 1.429 . S
C1124 C1107 1.574 . S
C1124 H1118 0.949 . S
C1124 C1128 1.368 . S
C1125 C1106 1.429 . S
C1125 C1119 1.429 . S
C1125 C1126 1.523 . S
C1126 C1107 1.368 . S
C1126 C1120 1.368 . S
C1126 C1125 1.523 . S
C1127 C1111 1.429 . S
C1127 C1123 1.429 . S
C1127 C1128 1.523 . S
C1128 C1112 1.368 . S
C1128 C1124 1.368 . S
C1128 C1127 1.523 . S
H1129 C1104 0.950 . S
H1130 C1106 0.950 . S
H1131 C1107 0.949 . S
H1132 C1109 0.950 . S
H1133 C1111 0.950 . S
C1134 C1135 1.349 . S
C1134 C1136 1.327 . S
C1134 H1159 0.950 . S
C1135 C1134 1.349 . S
C1135 C1151 1.349 1_545 S
C1136 C1134 1.327 . S
C1136 C1155 1.429 . S
C1136 H1160 0.950 . S
C1137 C1154 1.574 . S
C1137 C1156 1.368 1_565 S
C1137 H1161 0.949 . S
H1138 C1142 0.949 . S
C1139 C1140 1.349 1_565 S
C1139 C1141 1.327 . S
C1139 H1162 0.950 . S
C1140 C1139 1.349 1_545 S
C1140 C1152 1.349 . S
C1141 C1139 1.327 . S
C1141 C1157 1.429 1_565 S
C1141 H1163 0.950 . S
C1142 H1138 0.949 . S
C1142 C1150 1.574 . S
C1142 C1158 1.368 . S
H1143 C1151 0.950 . S
H1144 C1149 0.950 . S
H1145 C1150 0.949 . S
H1146 C1152 0.950 . S
H1147 C1153 0.950 . S
H1148 C1154 0.949 . S
C1149 H1144 0.950 . S
C1149 C1151 1.327 . S
C1149 C1155 1.429 1_565 S
C1150 C1142 1.574 . S
C1150 H1145 0.949 . S
C1150 C1156 1.368 . S
C1151 C1135 1.349 1_565 S
C1151 H1143 0.950 . S
C1151 C1149 1.327 . S
C1152 C1140 1.349 . S
C1152 H1146 0.950 . S
C1152 C1153 1.327 . S
C1153 H1147 0.950 . S
C1153 C1152 1.327 . S
C1153 C1157 1.429 . S
C1154 C1137 1.574 . S
C1154 H1148 0.949 . S
C1154 C1158 1.368 1_565 S
C1155 C1136 1.429 . S
C1155 C1149 1.429 1_545 S
C1155 C1156 1.523 . S
C1156 C1137 1.368 1_545 S
C1156 C1150 1.368 . S
C1156 C1155 1.523 . S
C1157 C1141 1.429 1_545 S
C1157 C1153 1.429 . S
C1157 C1158 1.523 . S
C1158 C1142 1.368 . S
C1158 C1154 1.368 1_545 S
C1158 C1157 1.523 . S
H1159 C1134 0.950 . S
H1160 C1136 0.950 . S
H1161 C1137 0.949 . S
H1162 C1139 0.950 . S
H1163 C1141 0.950 . S
C1164 C1165 1.349 . S
C1164 C1166 1.327 . S
C1164 H1189 0.950 . S
C1165 C1164 1.349 . S
C1165 C1181 1.349 . S
C1166 C1164 1.327 . S
C1166 C1185 1.429 . S
C1166 H1190 0.950 . S
C1167 C1184 1.574 . S
C1167 C1186 1.368 . S
C1167 H1191 0.949 . S
H1168 C1172 0.949 . S
C1169 C1170 1.349 . S
C1169 C1171 1.327 . S
C1169 H1192 0.950 . S
C1170 C1169 1.349 . S
C1170 C1182 1.349 . S
C1171 C1169 1.327 . S
C1171 C1187 1.429 . S
C1171 H1193 0.950 . S
C1172 H1168 0.949 . S
C1172 C1180 1.574 . S
C1172 C1188 1.368 . S
H1173 C1181 0.950 . S
H1174 C1179 0.950 . S
H1175 C1180 0.949 . S
H1176 C1182 0.950 . S
H1177 C1183 0.950 . S
H1178 C1184 0.949 . S
C1179 H1174 0.950 . S
C1179 C1181 1.327 . S
C1179 C1185 1.429 . S
C1180 C1172 1.574 . S
C1180 H1175 0.949 . S
C1180 C1186 1.368 . S
C1181 C1165 1.349 . S
C1181 H1173 0.950 . S
C1181 C1179 1.327 . S
C1182 C1170 1.349 . S
C1182 H1176 0.950 . S
C1182 C1183 1.327 . S
C1183 H1177 0.950 . S
C1183 C1182 1.327 . S
C1183 C1187 1.429 . S
C1184 C1167 1.574 . S
C1184 H1178 0.949 . S
C1184 C1188 1.368 . S
C1185 C1166 1.429 . S
C1185 C1179 1.429 . S
C1185 C1186 1.523 . S
C1186 C1167 1.368 . S
C1186 C1180 1.368 . S
C1186 C1185 1.523 . S
C1187 C1171 1.429 . S
C1187 C1183 1.429 . S
C1187 C1188 1.523 . S
C1188 C1172 1.368 . S
C1188 C1184 1.368 . S
C1188 C1187 1.523 . S
H1189 C1164 0.950 . S
H1190 C1166 0.950 . S
H1191 C1167 0.949 . S
H1192 C1169 0.950 . S
H1193 C1171 0.950 . S
C1194 C1195 1.349 . S
C1194 C1196 1.327 . S
C1194 H1219 0.950 . S
C1195 C1194 1.349 . S
C1195 C1211 1.349 . S
C1196 C1194 1.327 . S
C1196 C1215 1.429 . S
C1196 H1220 0.950 . S
C1197 C1214 1.574 . S
C1197 C1216 1.368 . S
C1197 H1221 0.946 . S
H1198 C1202 0.949 . S
C1199 C1200 1.349 . S
C1199 C1201 1.327 . S
C1199 H1222 0.950 1_545 S
C1200 C1199 1.349 . S
C1200 C1212 1.349 . S
C1201 C1199 1.327 . S
C1201 C1217 1.429 . S
C1201 H1223 0.950 1_545 S
C1202 H1198 0.949 . S
C1202 C1210 1.574 . S
C1202 C1218 1.368 . S
H1203 C1211 0.950 . S
H1204 C1209 0.950 . S
H1205 C1210 0.949 . S
H1206 C1212 0.950 . S
H1207 C1213 0.950 . S
H1208 C1214 0.949 1_565 S
C1209 H1204 0.950 . S
C1209 C1211 1.327 . S
C1209 C1215 1.429 . S
C1210 C1202 1.574 . S
C1210 H1205 0.949 . S
C1210 C1216 1.368 . S
C1211 C1195 1.349 . S
C1211 H1203 0.950 . S
C1211 C1209 1.327 . S
C1212 C1200 1.349 . S
C1212 H1206 0.950 . S
C1212 C1213 1.327 . S
C1213 H1207 0.950 . S
C1213 C1212 1.327 . S
C1213 C1217 1.429 . S
C1214 C1197 1.574 . S
C1214 H1208 0.949 1_545 S
C1214 C1218 1.368 . S
C1215 C1196 1.429 . S
C1215 C1209 1.429 . S
C1215 C1216 1.523 . S
C1216 C1197 1.368 . S
C1216 C1210 1.368 . S
C1216 C1215 1.523 . S
C1217 C1201 1.429 . S
C1217 C1213 1.429 . S
C1217 C1218 1.523 . S
C1218 C1202 1.368 . S
C1218 C1214 1.368 . S
C1218 C1217 1.523 . S
H1219 C1194 0.950 . S
H1220 C1196 0.950 . S
H1221 C1197 0.946 . S
H1222 C1199 0.950 1_565 S
H1223 C1201 0.950 1_565 S
C1224 C1225 1.349 . S
C1224 C1226 1.327 . S
C1224 H1249 0.950 . S
C1225 C1224 1.349 . S
C1225 C1241 1.349 . S
C1226 C1224 1.327 . S
C1226 C1245 1.429 . S
C1226 H1250 0.945 . S
C1227 C1244 1.574 . S
C1227 C1246 1.368 . S
C1227 H1251 0.949 . S
H1228 C1232 0.949 1_655 S
C1229 C1230 1.349 . S
C1229 C1231 1.327 . S
C1229 H1252 0.950 . S
C1230 C1229 1.349 . S
C1230 C1242 1.349 . S
C1231 C1229 1.327 . S
C1231 C1247 1.429 . S
C1231 H1253 0.950 . S
C1232 H1228 0.949 1_455 S
C1232 C1240 1.574 . S
C1232 C1248 1.368 . S
H1233 C1241 0.950 . S
H1234 C1239 0.950 . S
H1235 C1240 0.949 1_655 S
H1236 C1242 0.950 1_655 S
H1237 C1243 0.950 1_655 S
H1238 C1244 0.949 . S
C1239 H1234 0.950 . S
C1239 C1241 1.327 . S
C1239 C1245 1.429 . S
C1240 C1232 1.574 . S
C1240 H1235 0.949 1_455 S
C1240 C1246 1.368 . S
C1241 C1225 1.349 . S
C1241 H1233 0.950 . S
C1241 C1239 1.327 . S
C1242 C1230 1.349 . S
C1242 H1236 0.950 1_455 S
C1242 C1243 1.327 . S
C1243 H1237 0.950 1_455 S
C1243 C1242 1.327 . S
C1243 C1247 1.429 . S
C1244 C1227 1.574 . S
C1244 H1238 0.949 . S
C1244 C1248 1.368 . S
C1245 C1226 1.429 . S
C1245 C1239 1.429 . S
C1245 C1246 1.523 . S
C1246 C1227 1.368 . S
C1246 C1240 1.368 . S
C1246 C1245 1.523 . S
C1247 C1231 1.429 . S
C1247 C1243 1.429 . S
C1247 C1248 1.523 . S
C1248 C1232 1.368 . S
C1248 C1244 1.368 . S
C1248 C1247 1.523 . S
H1249 C1224 0.950 . S
H1250 C1226 0.945 . S
H1251 C1227 0.949 . S
H1252 C1229 0.950 . S
H1253 C1231 0.950 . S
C1254 C1255 1.349 . S
C1254 C1256 1.327 . S
C1254 H1279 0.950 . S
C1255 C1254 1.349 . S
C1255 C1271 1.349 . S
C1256 C1254 1.327 . S
C1256 C1275 1.429 . S
C1256 H1280 0.950 . S
C1257 C1274 1.574 . S
C1257 C1276 1.368 . S
C1257 H1281 0.949 . S
H1258 C1262 0.949 . S
C1259 C1260 1.349 . S
C1259 C1261 1.327 . S
C1259 H1282 0.950 . S
C1260 C1259 1.349 . S
C1260 C1272 1.349 . S
C1261 C1259 1.327 . S
C1261 C1277 1.429 . S
C1261 H1283 0.950 . S
C1262 H1258 0.949 . S
C1262 C1270 1.574 . S
C1262 C1278 1.368 . S
H1263 C1271 0.950 . S
H1264 C1269 0.950 . S
H1265 C1270 0.949 . S
H1266 C1272 0.952 1_565 S
H1267 C1273 0.950 . S
H1268 C1274 0.949 . S
C1269 H1264 0.950 . S
C1269 C1271 1.327 . S
C1269 C1275 1.429 . S
C1270 C1262 1.574 . S
C1270 H1265 0.949 . S
C1270 C1276 1.368 . S
C1271 C1255 1.349 . S
C1271 H1263 0.950 . S
C1271 C1269 1.327 . S
C1272 C1260 1.349 . S
C1272 H1266 0.952 1_545 S
C1272 C1273 1.327 . S
C1273 H1267 0.950 . S
C1273 C1272 1.327 . S
C1273 C1277 1.429 . S
C1274 C1257 1.574 . S
C1274 H1268 0.949 . S
C1274 C1278 1.368 . S
C1275 C1256 1.429 . S
C1275 C1269 1.429 . S
C1275 C1276 1.523 . S
C1276 C1257 1.368 . S
C1276 C1270 1.368 . S
C1276 C1275 1.523 . S
C1277 C1261 1.429 . S
C1277 C1273 1.429 . S
C1277 C1278 1.523 . S
C1278 C1262 1.368 . S
C1278 C1274 1.368 . S
C1278 C1277 1.523 . S
H1279 C1254 0.950 . S
H1280 C1256 0.950 . S
H1281 C1257 0.949 . S
H1282 C1259 0.950 . S
H1283 C1261 0.950 . S
C1284 C1285 1.349 . S
C1284 C1286 1.327 . S
C1284 H1309 0.950 . S
C1285 C1284 1.349 . S
C1285 C1301 1.349 . S
C1286 C1284 1.327 . S
C1286 C1305 1.429 . S
C1286 H1310 0.950 . S
C1287 C1304 1.574 . S
C1287 C1306 1.368 . S
C1287 H1311 0.949 . S
H1288 C1292 0.949 . S
C1289 C1290 1.349 . S
C1289 C1291 1.327 . S
C1289 H1312 0.950 . S
C1290 C1289 1.349 . S
C1290 C1302 1.349 . S
C1291 C1289 1.327 . S
C1291 C1307 1.429 . S
C1291 H1313 0.950 . S
C1292 H1288 0.949 . S
C1292 C1300 1.574 . S
C1292 C1308 1.368 . S
H1293 C1301 0.950 . S
H1294 C1299 0.950 . S
H1295 C1300 0.949 . S
H1296 C1302 0.950 . S
H1297 C1303 0.950 . S
H1298 C1304 0.949 . S
C1299 H1294 0.950 . S
C1299 C1301 1.327 . S
C1299 C1305 1.429 . S
C1300 C1292 1.574 . S
C1300 H1295 0.949 . S
C1300 C1306 1.368 . S
C1301 C1285 1.349 . S
C1301 H1293 0.950 . S
C1301 C1299 1.327 . S
C1302 C1290 1.349 . S
C1302 H1296 0.950 . S
C1302 C1303 1.327 . S
C1303 H1297 0.950 . S
C1303 C1302 1.327 . S
C1303 C1307 1.429 . S
C1304 C1287 1.574 . S
C1304 H1298 0.949 . S
C1304 C1308 1.368 . S
C1305 C1286 1.429 . S
C1305 C1299 1.429 . S
C1305 C1306 1.523 . S
C1306 C1287 1.368 . S
C1306 C1300 1.368 . S
C1306 C1305 1.523 . S
C1307 C1291 1.429 . S
C1307 C1303 1.429 . S
C1307 C1308 1.523 . S
C1308 C1292 1.368 . S
C1308 C1304 1.368 . S
C1308 C1307 1.523 . S
H1309 C1284 0.950 . S
H1310 C1286 0.950 . S
H1311 C1287 0.949 . S
H1312 C1289 0.950 . S
H1313 C1291 0.950 . S
C1314 C1315 1.349 1_565 S
C1314 C1316 1.327 . S
C1314 H1339 0.950 . S
C1315 C1314 1.349 1_545 S
C1315 C1331 1.349 . S
C1316 C1314 1.327 . S
C1316 C1335 1.429 1_565 S
C1316 H1340 0.950 . S
C1317 C1334 1.574 . S
C1317 C1336 1.368 . S
C1317 H1341 0.949 . S
H1318 C1322 0.949 . S
C1319 C1320 1.349 . S
C1319 C1321 1.327 . S
C1319 H1342 0.950 . S
C1320 C1319 1.349 . S
C1320 C1332 1.349 1_545 S
C1321 C1319 1.327 . S
C1321 C1337 1.429 . S
C1321 H1343 0.950 . S
C1322 H1318 0.949 . S
C1322 C1330 1.574 . S
C1322 C1338 1.368 1_565 S
H1323 C1331 0.950 . S
H1324 C1329 0.950 . S
H1325 C1330 0.949 . S
H1326 C1332 0.950 . S
H1327 C1333 0.950 . S
H1328 C1334 0.949 . S
C1329 H1324 0.950 . S
C1329 C1331 1.327 . S
C1329 C1335 1.429 . S
C1330 C1322 1.574 . S
C1330 H1325 0.949 . S
C1330 C1336 1.368 1_565 S
C1331 C1315 1.349 . S
C1331 H1323 0.950 . S
C1331 C1329 1.327 . S
C1332 C1320 1.349 1_565 S
C1332 H1326 0.950 . S
C1332 C1333 1.327 . S
C1333 H1327 0.950 . S
C1333 C1332 1.327 . S
C1333 C1337 1.429 1_565 S
C1334 C1317 1.574 . S
C1334 H1328 0.949 . S
C1334 C1338 1.368 . S
C1335 C1316 1.429 1_545 S
C1335 C1329 1.429 . S
C1335 C1336 1.523 . S
C1336 C1317 1.368 . S
C1336 C1330 1.368 1_545 S
C1336 C1335 1.523 . S
C1337 C1321 1.429 . S
C1337 C1333 1.429 1_545 S
C1337 C1338 1.523 . S
C1338 C1322 1.368 1_545 S
C1338 C1334 1.368 . S
C1338 C1337 1.523 . S
H1339 C1314 0.950 . S
H1340 C1316 0.950 . S
H1341 C1317 0.949 . S
H1342 C1319 0.950 . S
H1343 C1321 0.950 . S
C1344 C1345 1.349 . S
C1344 C1346 1.327 . S
C1344 H1369 0.950 . S
C1345 C1344 1.349 . S
C1345 C1361 1.349 . S
C1346 C1344 1.327 . S
C1346 C1365 1.429 . S
C1346 H1370 0.950 . S
C1347 C1364 1.574 . S
C1347 C1366 1.368 . S
C1347 H1371 0.949 . S
H1348 C1352 0.949 . S
C1349 C1350 1.349 . S
C1349 C1351 1.327 . S
C1349 H1372 0.950 . S
C1350 C1349 1.349 . S
C1350 C1362 1.349 . S
C1351 C1349 1.327 . S
C1351 C1367 1.429 . S
C1351 H1373 0.950 . S
C1352 H1348 0.949 . S
C1352 C1360 1.574 . S
C1352 C1368 1.368 . S
H1353 C1361 0.950 . S
H1354 C1359 0.950 . S
H1355 C1360 0.949 . S
H1356 C1362 0.950 . S
H1357 C1363 0.950 . S
H1358 C1364 0.949 . S
C1359 H1354 0.950 . S
C1359 C1361 1.327 . S
C1359 C1365 1.429 . S
C1360 C1352 1.574 . S
C1360 H1355 0.949 . S
C1360 C1366 1.368 . S
C1361 C1345 1.349 . S
C1361 H1353 0.950 . S
C1361 C1359 1.327 . S
C1362 C1350 1.349 . S
C1362 H1356 0.950 . S
C1362 C1363 1.327 . S
C1363 H1357 0.950 . S
C1363 C1362 1.327 . S
C1363 C1367 1.429 . S
C1364 C1347 1.574 . S
C1364 H1358 0.949 . S
C1364 C1368 1.368 . S
C1365 C1346 1.429 . S
C1365 C1359 1.429 . S
C1365 C1366 1.523 . S
C1366 C1347 1.368 . S
C1366 C1360 1.368 . S
C1366 C1365 1.523 . S
C1367 C1351 1.429 . S
C1367 C1363 1.429 . S
C1367 C1368 1.523 . S
C1368 C1352 1.368 . S
C1368 C1364 1.368 . S
C1368 C1367 1.523 . S
H1369 C1344 0.950 . S
H1370 C1346 0.950 . S
H1371 C1347 0.949 . S
H1372 C1349 0.950 . S
H1373 C1351 0.950 . S
C1374 C1375 1.349 . S
C1374 C1376 1.327 . S
C1374 H1399 0.950 . S
C1375 C1374 1.349 . S
C1375 C1391 1.349 . S
C1376 C1374 1.327 . S
C1376 C1395 1.429 . S
C1376 H1400 0.950 . S
C1377 C1394 1.574 . S
C1377 C1396 1.368 . S
C1377 H1401 0.961 . S
H1378 C1382 0.949 . S
C1379 C1380 1.349 . S
C1379 C1381 1.327 . S
C1379 H1402 0.950 1_545 S
C1380 C1379 1.349 . S
C1380 C1392 1.349 . S
C1381 C1379 1.327 . S
C1381 C1397 1.429 . S
C1381 H1403 0.950 1_545 S
C1382 H1378 0.949 . S
C1382 C1390 1.574 . S
C1382 C1398 1.368 . S
H1383 C1391 0.950 . S
H1384 C1389 0.950 . S
H1385 C1390 0.949 . S
H1386 C1392 0.950 . S
H1387 C1393 0.950 . S
H1388 C1394 0.949 1_565 S
C1389 H1384 0.950 . S
C1389 C1391 1.327 . S
C1389 C1395 1.429 . S
C1390 C1382 1.574 . S
C1390 H1385 0.949 . S
C1390 C1396 1.368 . S
C1391 C1375 1.349 . S
C1391 H1383 0.950 . S
C1391 C1389 1.327 . S
C1392 C1380 1.349 . S
C1392 H1386 0.950 . S
C1392 C1393 1.327 . S
C1393 H1387 0.950 . S
C1393 C1392 1.327 . S
C1393 C1397 1.429 . S
C1394 C1377 1.574 . S
C1394 H1388 0.949 1_545 S
C1394 C1398 1.368 . S
C1395 C1376 1.429 . S
C1395 C1389 1.429 . S
C1395 C1396 1.523 . S
C1396 C1377 1.368 . S
C1396 C1390 1.368 . S
C1396 C1395 1.523 . S
C1397 C1381 1.429 . S
C1397 C1393 1.429 . S
C1397 C1398 1.523 . S
C1398 C1382 1.368 . S
C1398 C1394 1.368 . S
C1398 C1397 1.523 . S
H1399 C1374 0.950 . S
H1400 C1376 0.950 . S
H1401 C1377 0.961 . S
H1402 C1379 0.950 1_565 S
H1403 C1381 0.950 1_565 S
C1404 C1405 1.349 . S
C1404 C1406 1.327 . S
C1404 H1429 0.950 . S
C1405 C1404 1.349 . S
C1405 C1421 1.349 . S
C1406 C1404 1.327 . S
C1406 C1425 1.429 . S
C1406 H1430 0.950 . S
C1407 C1424 1.574 . S
C1407 C1426 1.368 . S
C1407 H1431 0.949 . S
H1408 C1412 0.949 . S
C1409 C1410 1.349 . S
C1409 C1411 1.327 . S
C1409 H1432 0.950 . S
C1410 C1409 1.349 . S
C1410 C1422 1.349 . S
C1411 C1409 1.327 . S
C1411 C1427 1.429 . S
C1411 H1433 0.950 . S
C1412 H1408 0.949 . S
C1412 C1420 1.574 . S
C1412 C1428 1.368 . S
H1413 C1421 0.930 1_655 S
H1414 C1419 0.977 . S
H1415 C1420 0.949 . S
H1416 C1422 0.950 . S
H1417 C1423 0.950 . S
H1418 C1424 0.949 . S
C1419 H1414 0.977 . S
C1419 C1421 1.327 . S
C1419 C1425 1.429 . S
C1420 C1412 1.574 . S
C1420 H1415 0.949 . S
C1420 C1426 1.368 . S
C1421 C1405 1.349 . S
C1421 H1413 0.930 1_455 S
C1421 C1419 1.327 . S
C1422 C1410 1.349 . S
C1422 H1416 0.950 . S
C1422 C1423 1.327 . S
C1423 H1417 0.950 . S
C1423 C1422 1.327 . S
C1423 C1427 1.429 . S
C1424 C1407 1.574 . S
C1424 H1418 0.949 . S
C1424 C1428 1.368 . S
C1425 C1406 1.429 . S
C1425 C1419 1.429 . S
C1425 C1426 1.523 . S
C1426 C1407 1.368 . S
C1426 C1420 1.368 . S
C1426 C1425 1.523 . S
C1427 C1411 1.429 . S
C1427 C1423 1.429 . S
C1427 C1428 1.523 . S
C1428 C1412 1.368 . S
C1428 C1424 1.368 . S
C1428 C1427 1.523 . S
H1429 C1404 0.950 . S
H1430 C1406 0.950 . S
H1431 C1407 0.949 . S
H1432 C1409 0.950 . S
H1433 C1411 0.950 . S
C1434 C1435 1.349 1_565 S
C1434 C1436 1.327 . S
C1434 H1459 0.950 . S
C1435 C1434 1.349 1_545 S
C1435 C1451 1.349 . S
C1436 C1434 1.327 . S
C1436 C1455 1.429 1_565 S
C1436 H1460 0.950 . S
C1437 C1454 1.574 . S
C1437 C1456 1.368 . S
C1437 H1461 0.949 . S
H1438 C1442 0.949 . S
C1439 C1440 1.349 . S
C1439 C1441 1.327 . S
C1439 H1462 0.950 . S
C1440 C1439 1.349 . S
C1440 C1452 1.342 1_545 S
C1441 C1439 1.327 . S
C1441 C1457 1.429 . S
C1441 H1463 0.950 . S
C1442 H1438 0.949 . S
C1442 C1450 1.574 . S
C1442 C1458 1.368 1_565 S
H1443 C1451 0.950 . S
H1444 C1449 0.950 . S
H1445 C1450 0.949 . S
H1446 C1452 0.956 . S
H1447 C1453 0.950 . S
H1448 C1454 0.949 . S
C1449 H1444 0.950 . S
C1449 C1451 1.327 . S
C1449 C1455 1.429 . S
C1450 C1442 1.574 . S
C1450 H1445 0.949 . S
C1450 C1456 1.368 1_565 S
C1451 C1435 1.349 . S
C1451 H1443 0.950 . S
C1451 C1449 1.327 . S
C1452 C1440 1.342 1_565 S
C1452 H1446 0.956 . S
C1452 C1453 1.328 . S
C1453 H1447 0.950 . S
C1453 C1452 1.328 . S
C1453 C1457 1.429 1_565 S
C1454 C1437 1.574 . S
C1454 H1448 0.949 . S
C1454 C1458 1.368 . S
C1455 C1436 1.429 1_545 S
C1455 C1449 1.429 . S
C1455 C1456 1.523 . S
C1456 C1437 1.368 . S
C1456 C1450 1.368 1_545 S
C1456 C1455 1.523 . S
C1457 C1441 1.429 . S
C1457 C1453 1.429 1_545 S
C1457 C1458 1.523 . S
C1458 C1442 1.368 1_545 S
C1458 C1454 1.368 . S
C1458 C1457 1.523 . S
H1459 C1434 0.950 . S
H1460 C1436 0.950 . S
H1461 C1437 0.949 . S
H1462 C1439 0.950 . S
H1463 C1441 0.950 . S
C1464 C1465 1.349 . S
C1464 C1466 1.327 . S
C1464 H1489 0.950 . S
C1465 C1464 1.349 . S
C1465 C1481 1.349 . S
C1466 C1464 1.327 . S
C1466 C1485 1.429 . S
C1466 H1490 0.950 . S
C1467 C1484 1.574 . S
C1467 C1486 1.368 . S
C1467 H1491 0.949 . S
H1468 C1472 0.949 . S
C1469 C1470 1.349 . S
C1469 C1471 1.327 . S
C1469 H1492 0.950 . S
C1470 C1469 1.349 . S
C1470 C1482 1.349 . S
C1471 C1469 1.327 . S
C1471 C1487 1.429 . S
C1471 H1493 0.950 . S
C1472 H1468 0.949 . S
C1472 C1480 1.574 . S
C1472 C1488 1.368 . S
H1473 C1481 0.950 . S
H1474 C1479 0.950 . S
H1475 C1480 0.949 . S
H1476 C1482 0.950 . S
H1477 C1483 0.950 . S
H1478 C1484 0.949 . S
C1479 H1474 0.950 . S
C1479 C1481 1.327 . S
C1479 C1485 1.429 . S
C1480 C1472 1.574 . S
C1480 H1475 0.949 . S
C1480 C1486 1.368 . S
C1481 C1465 1.349 . S
C1481 H1473 0.950 . S
C1481 C1479 1.327 . S
C1482 C1470 1.349 . S
C1482 H1476 0.950 . S
C1482 C1483 1.327 . S
C1483 H1477 0.950 . S
C1483 C1482 1.327 . S
C1483 C1487 1.429 . S
C1484 C1467 1.574 . S
C1484 H1478 0.949 . S
C1484 C1488 1.368 . S
C1485 C1466 1.429 . S
C1485 C1479 1.429 . S
C1485 C1486 1.523 . S
C1486 C1467 1.368 . S
C1486 C1480 1.368 . S
C1486 C1485 1.523 . S
C1487 C1471 1.429 . S
C1487 C1483 1.429 . S
C1487 C1488 1.523 . S
C1488 C1472 1.368 . S
C1488 C1484 1.368 . S
C1488 C1487 1.523 . S
H1489 C1464 0.950 . S
H1490 C1466 0.950 . S
H1491 C1467 0.949 . S
H1492 C1469 0.950 . S
H1493 C1471 0.950 . S
C1494 C1495 1.349 1_565 S
C1494 C1496 1.327 . S
C1494 H1519 0.950 . S
C1495 C1494 1.349 1_545 S
C1495 C1511 1.349 . S
C1496 C1494 1.327 . S
C1496 C1515 1.429 1_565 S
C1496 H1520 0.950 . S
C1497 C1514 1.574 . S
C1497 C1516 1.368 . S
C1497 H1521 0.949 . S
H1498 C1502 0.949 . S
C1499 C1500 1.349 . S
C1499 C1501 1.327 . S
C1499 H1522 0.950 . S
C1500 C1499 1.349 . S
C1500 C1512 1.349 1_545 S
C1501 C1499 1.327 . S
C1501 C1517 1.429 . S
C1501 H1523 0.950 . S
C1502 H1498 0.949 . S
C1502 C1510 1.574 . S
C1502 C1518 1.368 1_565 S
H1503 C1511 0.950 . S
H1504 C1509 0.950 . S
H1505 C1510 0.949 . S
H1506 C1512 0.950 . S
H1507 C1513 0.950 . S
H1508 C1514 0.949 . S
C1509 H1504 0.950 . S
C1509 C1511 1.327 . S
C1509 C1515 1.429 . S
C1510 C1502 1.574 . S
C1510 H1505 0.949 . S
C1510 C1516 1.368 1_565 S
C1511 C1495 1.349 . S
C1511 H1503 0.950 . S
C1511 C1509 1.327 . S
C1512 C1500 1.349 1_565 S
C1512 H1506 0.950 . S
C1512 C1513 1.327 . S
C1513 H1507 0.950 . S
C1513 C1512 1.327 . S
C1513 C1517 1.429 1_565 S
C1514 C1497 1.574 . S
C1514 H1508 0.949 . S
C1514 C1518 1.368 . S
C1515 C1496 1.429 1_545 S
C1515 C1509 1.429 . S
C1515 C1516 1.523 . S
C1516 C1497 1.368 . S
C1516 C1510 1.368 1_545 S
C1516 C1515 1.523 . S
C1517 C1501 1.429 . S
C1517 C1513 1.429 1_545 S
C1517 C1518 1.523 . S
C1518 C1502 1.368 1_545 S
C1518 C1514 1.368 . S
C1518 C1517 1.523 . S
H1519 C1494 0.950 . S
H1520 C1496 0.950 . S
H1521 C1497 0.949 . S
H1522 C1499 0.950 . S
H1523 C1501 0.950 . S
C1524 C1525 1.349 . S
C1524 C1526 1.327 . S
C1524 H1549 0.950 . S
C1525 C1524 1.349 . S
C1525 C1541 1.349 . S
C1526 C1524 1.327 . S
C1526 C1545 1.429 . S
C1526 H1550 0.950 . S
C1527 C1544 1.574 . S
C1527 C1546 1.368 . S
C1527 H1551 0.949 . S
H1528 C1532 0.949 . S
C1529 C1530 1.349 . S
C1529 C1531 1.327 . S
C1529 H1552 0.950 . S
C1530 C1529 1.349 . S
C1530 C1542 1.349 . S
C1531 C1529 1.327 . S
C1531 C1547 1.429 . S
C1531 H1553 0.950 . S
C1532 H1528 0.949 . S
C1532 C1540 1.574 . S
C1532 C1548 1.368 . S
H1533 C1541 0.950 . S
H1534 C1539 0.950 . S
H1535 C1540 0.949 . S
H1536 C1542 0.950 . S
H1537 C1543 0.950 . S
H1538 C1544 0.949 . S
C1539 H1534 0.950 . S
C1539 C1541 1.327 . S
C1539 C1545 1.429 . S
C1540 C1532 1.574 . S
C1540 H1535 0.949 . S
C1540 C1546 1.368 . S
C1541 C1525 1.349 . S
C1541 H1533 0.950 . S
C1541 C1539 1.327 . S
C1542 C1530 1.349 . S
C1542 H1536 0.950 . S
C1542 C1543 1.327 . S
C1543 H1537 0.950 . S
C1543 C1542 1.327 . S
C1543 C1547 1.429 . S
C1544 C1527 1.574 . S
C1544 H1538 0.949 . S
C1544 C1548 1.368 . S
C1545 C1526 1.429 . S
C1545 C1539 1.429 . S
C1545 C1546 1.523 . S
C1546 C1527 1.368 . S
C1546 C1540 1.368 . S
C1546 C1545 1.523 . S
C1547 C1531 1.429 . S
C1547 C1543 1.429 . S
C1547 C1548 1.523 . S
C1548 C1532 1.368 . S
C1548 C1544 1.368 . S
C1548 C1547 1.523 . S
H1549 C1524 0.950 . S
H1550 C1526 0.950 . S
H1551 C1527 0.949 . S
H1552 C1529 0.950 . S
H1553 C1531 0.950 . S
C1554 C1555 1.349 . S
C1554 C1556 1.327 . S
C1554 H1579 0.950 . S
C1555 C1554 1.349 . S
C1555 C1571 1.349 . S
C1556 C1554 1.327 . S
C1556 C1575 1.429 . S
C1556 H1580 0.950 . S
C1557 C1574 1.574 . S
C1557 C1576 1.368 . S
C1557 H1581 0.949 . S
H1558 C1562 0.949 . S
C1559 C1560 1.349 . S
C1559 C1561 1.327 . S
C1559 H1582 0.950 . S
C1560 C1559 1.349 . S
C1560 C1572 1.349 . S
C1561 C1559 1.327 . S
C1561 C1577 1.429 . S
C1561 H1583 0.950 . S
C1562 H1558 0.949 . S
C1562 C1570 1.574 . S
C1562 C1578 1.368 . S
H1563 C1571 0.950 . S
H1564 C1569 0.950 . S
H1565 C1570 0.949 . S
H1566 C1572 0.950 . S
H1567 C1573 0.950 . S
H1568 C1574 0.949 . S
C1569 H1564 0.950 . S
C1569 C1571 1.327 . S
C1569 C1575 1.429 . S
C1570 C1562 1.574 . S
C1570 H1565 0.949 . S
C1570 C1576 1.368 . S
C1571 C1555 1.349 . S
C1571 H1563 0.950 . S
C1571 C1569 1.327 . S
C1572 C1560 1.349 . S
C1572 H1566 0.950 . S
C1572 C1573 1.327 . S
C1573 H1567 0.950 . S
C1573 C1572 1.327 . S
C1573 C1577 1.429 . S
C1574 C1557 1.574 . S
C1574 H1568 0.949 . S
C1574 C1578 1.368 . S
C1575 C1556 1.429 . S
C1575 C1569 1.429 . S
C1575 C1576 1.523 . S
C1576 C1557 1.368 . S
C1576 C1570 1.368 . S
C1576 C1575 1.523 . S
C1577 C1561 1.429 . S
C1577 C1573 1.429 . S
C1577 C1578 1.523 . S
C1578 C1562 1.368 . S
C1578 C1574 1.368 . S
C1578 C1577 1.523 . S
H1579 C1554 0.950 . S
H1580 C1556 0.950 . S
H1581 C1557 0.949 . S
H1582 C1559 0.950 . S
H1583 C1561 0.950 . S
C1584 C1585 1.349 1_565 S
C1584 C1586 1.327 . S
C1584 H1609 0.950 . S
C1585 C1584 1.349 1_545 S
C1585 C1601 1.349 . S
C1586 C1584 1.327 . S
C1586 C1605 1.429 1_565 S
C1586 H1610 0.950 . S
C1587 C1604 1.574 . S
C1587 C1606 1.368 . S
C1587 H1611 0.949 . S
H1588 C1592 0.949 . S
C1589 C1590 1.349 . S
C1589 C1591 1.327 . S
C1589 H1612 0.950 . S
C1590 C1589 1.349 . S
C1590 C1602 1.349 1_545 S
C1591 C1589 1.327 . S
C1591 C1607 1.429 . S
C1591 H1613 0.950 . S
C1592 H1588 0.949 . S
C1592 C1600 1.574 . S
C1592 C1608 1.368 1_565 S
H1593 C1601 0.950 . S
H1594 C1599 0.950 . S
H1595 C1600 0.949 . S
H1596 C1602 0.950 . S
H1597 C1603 0.950 . S
H1598 C1604 0.949 . S
C1599 H1594 0.950 . S
C1599 C1601 1.327 . S
C1599 C1605 1.429 . S
C1600 C1592 1.574 . S
C1600 H1595 0.949 . S
C1600 C1606 1.368 1_565 S
C1601 C1585 1.349 . S
C1601 H1593 0.950 . S
C1601 C1599 1.327 . S
C1602 C1590 1.349 1_565 S
C1602 H1596 0.950 . S
C1602 C1603 1.327 . S
C1603 H1597 0.950 . S
C1603 C1602 1.327 . S
C1603 C1607 1.429 1_565 S
C1604 C1587 1.574 . S
C1604 H1598 0.949 . S
C1604 C1608 1.368 . S
C1605 C1586 1.429 1_545 S
C1605 C1599 1.429 . S
C1605 C1606 1.523 . S
C1606 C1587 1.368 . S
C1606 C1600 1.368 1_545 S
C1606 C1605 1.523 . S
C1607 C1591 1.429 . S
C1607 C1603 1.429 1_545 S
C1607 C1608 1.523 . S
C1608 C1592 1.368 1_545 S
C1608 C1604 1.368 . S
C1608 C1607 1.523 . S
H1609 C1584 0.950 . S
H1610 C1586 0.950 . S
H1611 C1587 0.949 . S
H1612 C1589 0.950 . S
H1613 C1591 0.950 . S
C1614 C1615 1.349 . S
C1614 C1616 1.327 . S
C1614 H1639 0.950 . S
C1615 C1614 1.349 . S
C1615 C1631 1.349 . S
C1616 C1614 1.327 . S
C1616 C1635 1.429 . S
C1616 H1640 0.950 . S
C1617 C1634 1.574 . S
C1617 C1636 1.368 . S
C1617 H1641 0.949 . S
H1618 C1622 0.949 . S
C1619 C1620 1.349 . S
C1619 C1621 1.327 . S
C1619 H1642 0.950 . S
C1620 C1619 1.349 . S
C1620 C1632 1.349 . S
C1621 C1619 1.327 . S
C1621 C1637 1.429 . S
C1621 H1643 0.950 . S
C1622 H1618 0.949 . S
C1622 C1630 1.574 . S
C1622 C1638 1.368 . S
H1623 C1631 0.950 . S
H1624 C1629 0.950 . S
H1625 C1630 0.949 . S
H1626 C1632 0.950 . S
H1627 C1633 0.950 . S
H1628 C1634 0.949 . S
C1629 H1624 0.950 . S
C1629 C1631 1.327 . S
C1629 C1635 1.429 . S
C1630 C1622 1.574 . S
C1630 H1625 0.949 . S
C1630 C1636 1.368 . S
C1631 C1615 1.349 . S
C1631 H1623 0.950 . S
C1631 C1629 1.327 . S
C1632 C1620 1.349 . S
C1632 H1626 0.950 . S
C1632 C1633 1.327 . S
C1633 H1627 0.950 . S
C1633 C1632 1.327 . S
C1633 C1637 1.429 . S
C1634 C1617 1.574 . S
C1634 H1628 0.949 . S
C1634 C1638 1.368 . S
C1635 C1616 1.429 . S
C1635 C1629 1.429 . S
C1635 C1636 1.523 . S
C1636 C1617 1.368 . S
C1636 C1630 1.368 . S
C1636 C1635 1.523 . S
C1637 C1621 1.429 . S
C1637 C1633 1.429 . S
C1637 C1638 1.523 . S
C1638 C1622 1.368 . S
C1638 C1634 1.368 . S
C1638 C1637 1.523 . S
H1639 C1614 0.950 . S
H1640 C1616 0.950 . S
H1641 C1617 0.949 . S
H1642 C1619 0.950 . S
H1643 C1621 0.950 . S
C1644 C1645 1.349 . S
C1644 C1646 1.327 . S
C1644 H1669 0.950 . S
C1645 C1644 1.349 . S
C1645 C1661 1.349 . S
C1646 C1644 1.327 . S
C1646 C1665 1.429 . S
C1646 H1670 0.950 . S
C1647 C1664 1.574 . S
C1647 C1666 1.368 . S
C1647 H1671 0.949 . S
H1648 C1652 0.949 1_565 S
C1649 C1650 1.349 . S
C1649 C1651 1.327 . S
C1649 H1672 0.950 . S
C1650 C1649 1.349 . S
C1650 C1662 1.349 . S
C1651 C1649 1.327 . S
C1651 C1667 1.429 . S
C1651 H1673 0.950 . S
C1652 H1648 0.949 1_545 S
C1652 C1660 1.574 . S
C1652 C1668 1.368 . S
H1653 C1661 0.950 . S
H1654 C1659 0.950 . S
H1655 C1660 0.980 . S
H1656 C1662 0.950 1_565 S
H1657 C1663 0.950 1_565 S
H1658 C1664 0.949 . S
C1659 H1654 0.950 . S
C1659 C1661 1.327 . S
C1659 C1665 1.429 . S
C1660 C1652 1.574 . S
C1660 H1655 0.980 . S
C1660 C1666 1.368 . S
C1661 C1645 1.349 . S
C1661 H1653 0.950 . S
C1661 C1659 1.327 . S
C1662 C1650 1.349 . S
C1662 H1656 0.950 1_545 S
C1662 C1663 1.327 . S
C1663 H1657 0.950 1_545 S
C1663 C1662 1.327 . S
C1663 C1667 1.429 . S
C1664 C1647 1.574 . S
C1664 H1658 0.949 . S
C1664 C1668 1.368 . S
C1665 C1646 1.429 . S
C1665 C1659 1.429 . S
C1665 C1666 1.523 . S
C1666 C1647 1.368 . S
C1666 C1660 1.368 . S
C1666 C1665 1.523 . S
C1667 C1651 1.429 . S
C1667 C1663 1.429 . S
C1667 C1668 1.523 . S
C1668 C1652 1.368 . S
C1668 C1664 1.368 . S
C1668 C1667 1.523 . S
H1669 C1644 0.950 . S
H1670 C1646 0.950 . S
H1671 C1647 0.949 . S
H1672 C1649 0.950 . S
H1673 C1651 0.950 . S
C1674 C1675 1.349 . S
C1674 C1676 1.327 . S
C1674 H1699 0.950 . S
C1675 C1674 1.349 . S
C1675 C1691 1.349 . S
C1676 C1674 1.327 . S
C1676 C1695 1.429 . S
C1676 H1700 0.967 . S
C1677 C1694 1.574 . S
C1677 C1696 1.368 . S
C1677 H1701 0.949 . S
H1678 C1682 0.949 1_655 S
C1679 C1680 1.349 . S
C1679 C1681 1.327 . S
C1679 H1702 0.950 . S
C1680 C1679 1.349 . S
C1680 C1692 1.349 1_455 S
C1681 C1679 1.327 . S
C1681 C1697 1.429 . S
C1681 H1703 0.950 . S
C1682 H1678 0.949 1_455 S
C1682 C1690 1.574 . S
C1682 C1698 1.368 . S
H1683 C1691 0.950 . S
H1684 C1689 0.950 . S
H1685 C1690 0.949 1_655 S
H1686 C1692 0.950 . S
H1687 C1693 0.950 . S
H1688 C1694 0.949 . S
C1689 H1684 0.950 . S
C1689 C1691 1.327 . S
C1689 C1695 1.429 . S
C1690 C1682 1.574 . S
C1690 H1685 0.949 1_455 S
C1690 C1696 1.368 . S
C1691 C1675 1.349 . S
C1691 H1683 0.950 . S
C1691 C1689 1.327 . S
C1692 C1680 1.349 1_655 S
C1692 H1686 0.950 . S
C1692 C1693 1.327 . S
C1693 H1687 0.950 . S
C1693 C1692 1.327 . S
C1693 C1697 1.429 1_655 S
C1694 C1677 1.574 . S
C1694 H1688 0.949 . S
C1694 C1698 1.368 . S
C1695 C1676 1.429 . S
C1695 C1689 1.429 . S
C1695 C1696 1.523 . S
C1696 C1677 1.368 . S
C1696 C1690 1.368 . S
C1696 C1695 1.523 . S
C1697 C1681 1.429 . S
C1697 C1693 1.429 1_455 S
C1697 C1698 1.523 . S
C1698 C1682 1.368 . S
C1698 C1694 1.368 . S
C1698 C1697 1.523 . S
H1699 C1674 0.950 . S
H1700 C1676 0.967 . S
H1701 C1677 0.949 . S
H1702 C1679 0.950 . S
H1703 C1681 0.950 . S
C1704 C1705 1.349 1_565 S
C1704 C1706 1.327 . S
C1704 H1729 0.950 . S
C1705 C1704 1.349 1_545 S
C1705 C1721 1.349 . S
C1706 C1704 1.327 . S
C1706 C1725 1.429 1_565 S
C1706 H1730 0.950 . S
C1707 C1724 1.574 . S
C1707 C1726 1.368 . S
C1707 H1731 0.949 . S
H1708 C1712 0.949 . S
C1709 C1710 1.349 . S
C1709 C1711 1.327 . S
C1709 H1732 0.950 . S
C1710 C1709 1.349 . S
C1710 C1722 1.349 1_545 S
C1711 C1709 1.327 . S
C1711 C1727 1.429 . S
C1711 H1733 0.950 . S
C1712 H1708 0.949 . S
C1712 C1720 1.574 . S
C1712 C1728 1.368 1_565 S
H1713 C1721 0.950 . S
H1714 C1719 0.950 . S
H1715 C1720 0.949 . S
H1716 C1722 0.950 . S
H1717 C1723 0.950 . S
H1718 C1724 0.949 . S
C1719 H1714 0.950 . S
C1719 C1721 1.327 . S
C1719 C1725 1.429 . S
C1720 C1712 1.574 . S
C1720 H1715 0.949 . S
C1720 C1726 1.368 1_565 S
C1721 C1705 1.349 . S
C1721 H1713 0.950 . S
C1721 C1719 1.327 . S
C1722 C1710 1.349 1_565 S
C1722 H1716 0.950 . S
C1722 C1723 1.327 . S
C1723 H1717 0.950 . S
C1723 C1722 1.327 . S
C1723 C1727 1.429 1_565 S
C1724 C1707 1.574 . S
C1724 H1718 0.949 . S
C1724 C1728 1.368 . S
C1725 C1706 1.429 1_545 S
C1725 C1719 1.429 . S
C1725 C1726 1.523 . S
C1726 C1707 1.368 . S
C1726 C1720 1.368 1_545 S
C1726 C1725 1.523 . S
C1727 C1711 1.429 . S
C1727 C1723 1.429 1_545 S
C1727 C1728 1.523 . S
C1728 C1712 1.368 1_545 S
C1728 C1724 1.368 . S
C1728 C1727 1.523 . S
H1729 C1704 0.950 . S
H1730 C1706 0.950 . S
H1731 C1707 0.949 . S
H1732 C1709 0.950 . S
H1733 C1711 0.950 . S
C1734 C1735 1.349 . S
C1734 C1736 1.327 . S
C1734 H1759 0.950 . S
C1735 C1734 1.349 . S
C1735 C1751 1.349 . S
C1736 C1734 1.327 . S
C1736 C1755 1.429 . S
C1736 H1760 0.950 . S
C1737 C1754 1.574 . S
C1737 C1756 1.368 . S
C1737 H1761 0.949 . S
H1738 C1742 0.949 . S
C1739 C1740 1.349 . S
C1739 C1741 1.327 . S
C1739 H1762 0.950 . S
C1740 C1739 1.349 . S
C1740 C1752 1.349 . S
C1741 C1739 1.327 . S
C1741 C1757 1.429 . S
C1741 H1763 0.950 . S
C1742 H1738 0.949 . S
C1742 C1750 1.574 . S
C1742 C1758 1.368 . S
H1743 C1751 0.950 . S
H1744 C1749 0.950 . S
H1745 C1750 0.949 . S
H1746 C1752 0.950 . S
H1747 C1753 0.950 . S
H1748 C1754 0.949 . S
C1749 H1744 0.950 . S
C1749 C1751 1.327 . S
C1749 C1755 1.429 . S
C1750 C1742 1.574 . S
C1750 H1745 0.949 . S
C1750 C1756 1.368 . S
C1751 C1735 1.349 . S
C1751 H1743 0.950 . S
C1751 C1749 1.327 . S
C1752 C1740 1.349 . S
C1752 H1746 0.950 . S
C1752 C1753 1.327 . S
C1753 H1747 0.950 . S
C1753 C1752 1.327 . S
C1753 C1757 1.429 . S
C1754 C1737 1.574 . S
C1754 H1748 0.949 . S
C1754 C1758 1.368 . S
C1755 C1736 1.429 . S
C1755 C1749 1.429 . S
C1755 C1756 1.523 . S
C1756 C1737 1.368 . S
C1756 C1750 1.368 . S
C1756 C1755 1.523 . S
C1757 C1741 1.429 . S
C1757 C1753 1.429 . S
C1757 C1758 1.523 . S
C1758 C1742 1.368 . S
C1758 C1754 1.368 . S
C1758 C1757 1.523 . S
H1759 C1734 0.950 . S
H1760 C1736 0.950 . S
H1761 C1737 0.949 . S
H1762 C1739 0.950 . S
H1763 C1741 0.950 . S
C1764 C1765 1.349 . S
C1764 C1766 1.327 . S
C1764 H1789 0.950 . S
C1765 C1764 1.349 . S
C1765 C1781 1.349 . S
C1766 C1764 1.327 . S
C1766 C1785 1.429 . S
C1766 H1790 0.950 . S
C1767 C1784 1.574 . S
C1767 C1786 1.368 . S
C1767 H1791 0.949 1_545 S
H1768 C1772 0.949 . S
C1769 C1770 1.349 . S
C1769 C1771 1.327 . S
C1769 H1792 0.950 1_545 S
C1770 C1769 1.349 . S
C1770 C1782 1.349 . S
C1771 C1769 1.327 . S
C1771 C1787 1.429 . S
C1771 H1793 0.950 1_545 S
C1772 H1768 0.949 . S
C1772 C1780 1.574 . S
C1772 C1788 1.368 . S
H1773 C1781 0.950 1_565 S
H1774 C1779 0.950 1_565 S
H1775 C1780 0.949 . S
H1776 C1782 0.950 . S
H1777 C1783 0.950 . S
H1778 C1784 0.949 1_565 S
C1779 H1774 0.950 1_545 S
C1779 C1781 1.327 . S
C1779 C1785 1.429 . S
C1780 C1772 1.574 . S
C1780 H1775 0.949 . S
C1780 C1786 1.368 . S
C1781 C1765 1.349 . S
C1781 H1773 0.950 1_545 S
C1781 C1779 1.327 . S
C1782 C1770 1.349 . S
C1782 H1776 0.950 . S
C1782 C1783 1.327 . S
C1783 H1777 0.950 . S
C1783 C1782 1.327 . S
C1783 C1787 1.429 . S
C1784 C1767 1.574 . S
C1784 H1778 0.949 1_545 S
C1784 C1788 1.368 . S
C1785 C1766 1.429 . S
C1785 C1779 1.429 . S
C1785 C1786 1.523 . S
C1786 C1767 1.368 . S
C1786 C1780 1.368 . S
C1786 C1785 1.523 . S
C1787 C1771 1.429 . S
C1787 C1783 1.429 . S
C1787 C1788 1.523 . S
C1788 C1772 1.368 . S
C1788 C1784 1.368 . S
C1788 C1787 1.523 . S
H1789 C1764 0.950 . S
H1790 C1766 0.950 . S
H1791 C1767 0.949 1_565 S
H1792 C1769 0.950 1_565 S
H1793 C1771 0.950 1_565 S
C1794 C1795 1.332 1_655 S
C1794 C1796 1.327 . S
C1794 H1819 0.950 . S
C1795 C1794 1.332 1_455 S
C1795 C1811 1.367 . S
C1796 C1794 1.327 . S
C1796 C1815 1.429 1_655 S
C1796 H1820 0.950 . S
C1797 C1814 1.574 . S
C1797 C1816 1.368 . S
C1797 H1821 0.949 . S
H1798 C1802 0.949 . S
C1799 C1800 1.349 . S
C1799 C1801 1.327 . S
C1799 H1822 0.950 . S
C1800 C1799 1.349 . S
C1800 C1812 1.349 1_455 S
C1801 C1799 1.327 . S
C1801 C1817 1.429 . S
C1801 H1823 0.950 . S
C1802 H1798 0.949 . S
C1802 C1810 1.574 . S
C1802 C1818 1.368 1_655 S
H1803 C1811 0.950 . S
H1804 C1809 0.950 . S
H1805 C1810 0.949 . S
H1806 C1812 0.950 . S
H1807 C1813 0.950 . S
H1808 C1814 0.949 . S
C1809 H1804 0.950 . S
C1809 C1811 1.327 . S
C1809 C1815 1.429 . S
C1810 C1802 1.574 . S
C1810 H1805 0.949 . S
C1810 C1816 1.368 1_655 S
C1811 C1795 1.367 . S
C1811 H1803 0.950 . S
C1811 C1809 1.327 . S
C1812 C1800 1.349 1_655 S
C1812 H1806 0.950 . S
C1812 C1813 1.327 . S
C1813 H1807 0.950 . S
C1813 C1812 1.327 . S
C1813 C1817 1.429 1_655 S
C1814 C1797 1.574 . S
C1814 H1808 0.949 . S
C1814 C1818 1.368 . S
C1815 C1796 1.429 1_455 S
C1815 C1809 1.429 . S
C1815 C1816 1.523 . S
C1816 C1797 1.368 . S
C1816 C1810 1.368 1_455 S
C1816 C1815 1.523 . S
C1817 C1801 1.429 . S
C1817 C1813 1.429 1_455 S
C1817 C1818 1.523 . S
C1818 C1802 1.368 1_455 S
C1818 C1814 1.368 . S
C1818 C1817 1.523 . S
H1819 C1794 0.950 . S
H1820 C1796 0.950 . S
H1821 C1797 0.949 . S
H1822 C1799 0.950 . S
H1823 C1801 0.950 . S
C1824 C1825 1.347 1_556 S
C1824 C1826 1.327 . S
C1824 H1849 0.952 . S
C1825 C1824 1.347 1_554 S
C1825 C1841 1.349 . S
C1826 C1824 1.327 . S
C1826 C1845 1.405 1_556 S
C1826 H1850 0.975 . S
C1827 C1844 1.574 . S
C1827 C1846 1.368 . S
C1827 H1851 0.949 . S
H1828 C1832 0.949 . S
C1829 C1830 1.349 . S
C1829 C1831 1.327 . S
C1829 H1852 0.950 . S
C1830 C1829 1.349 . S
C1830 C1842 1.349 1_554 S
C1831 C1829 1.327 . S
C1831 C1847 1.429 . S
C1831 H1853 0.950 . S
C1832 H1828 0.949 . S
C1832 C1840 1.574 . S
C1832 C1848 1.368 1_556 S
H1833 C1841 0.950 . S
H1834 C1839 0.950 . S
H1835 C1840 0.949 . S
H1836 C1842 0.950 . S
H1837 C1843 0.950 . S
H1838 C1844 0.949 . S
C1839 H1834 0.950 . S
C1839 C1841 1.327 . S
C1839 C1845 1.429 . S
C1840 C1832 1.574 . S
C1840 H1835 0.949 . S
C1840 C1846 1.368 1_556 S
C1841 C1825 1.349 . S
C1841 H1833 0.950 . S
C1841 C1839 1.327 . S
C1842 C1830 1.349 1_556 S
C1842 H1836 0.950 . S
C1842 C1843 1.327 . S
C1843 H1837 0.950 . S
C1843 C1842 1.327 . S
C1843 C1847 1.429 1_556 S
C1844 C1827 1.574 . S
C1844 H1838 0.949 . S
C1844 C1848 1.368 . S
C1845 C1826 1.405 1_554 S
C1845 C1839 1.429 . S
C1845 C1846 1.523 . S
C1846 C1827 1.368 . S
C1846 C1840 1.368 1_554 S
C1846 C1845 1.523 . S
C1847 C1831 1.429 . S
C1847 C1843 1.429 1_554 S
C1847 C1848 1.523 . S
C1848 C1832 1.368 1_554 S
C1848 C1844 1.368 . S
C1848 C1847 1.523 . S
H1849 C1824 0.952 . S
H1850 C1826 0.975 . S
H1851 C1827 0.949 . S
H1852 C1829 0.950 . S
H1853 C1831 0.950 . S
C1854 C1855 1.349 . S
C1854 C1856 1.327 . S
C1854 H1879 0.950 . S
C1855 C1854 1.349 . S
C1855 C1871 1.349 1_554 S
C1856 C1854 1.327 . S
C1856 C1875 1.429 . S
C1856 H1880 0.950 . S
C1857 C1874 1.574 . S
C1857 C1876 1.368 1_556 S
C1857 H1881 0.949 . S
H1858 C1862 0.949 . S
C1859 C1860 1.349 1_556 S
C1859 C1861 1.327 . S
C1859 H1882 0.950 . S
C1860 C1859 1.349 1_554 S
C1860 C1872 1.349 . S
C1861 C1859 1.327 . S
C1861 C1877 1.429 1_556 S
C1861 H1883 0.950 . S
C1862 H1858 0.949 . S
C1862 C1870 1.574 . S
C1862 C1878 1.368 . S
H1863 C1871 0.950 . S
H1864 C1869 0.950 . S
H1865 C1870 0.949 . S
H1866 C1872 0.950 . S
H1867 C1873 0.950 . S
H1868 C1874 0.949 . S
C1869 H1864 0.950 . S
C1869 C1871 1.327 . S
C1869 C1875 1.429 1_556 S
C1870 C1862 1.574 . S
C1870 H1865 0.949 . S
C1870 C1876 1.368 . S
C1871 C1855 1.349 1_556 S
C1871 H1863 0.950 . S
C1871 C1869 1.327 . S
C1872 C1860 1.349 . S
C1872 H1866 0.950 . S
C1872 C1873 1.327 . S
C1873 H1867 0.950 . S
C1873 C1872 1.327 . S
C1873 C1877 1.429 . S
C1874 C1857 1.574 . S
C1874 H1868 0.949 . S
C1874 C1878 1.368 1_556 S
C1875 C1856 1.429 . S
C1875 C1869 1.429 1_554 S
C1875 C1876 1.523 . S
C1876 C1857 1.368 1_554 S
C1876 C1870 1.368 . S
C1876 C1875 1.523 . S
C1877 C1861 1.429 1_554 S
C1877 C1873 1.429 . S
C1877 C1878 1.523 . S
C1878 C1862 1.368 . S
C1878 C1874 1.368 1_554 S
C1878 C1877 1.523 . S
H1879 C1854 0.950 . S
H1880 C1856 0.950 . S
H1881 C1857 0.949 . S
H1882 C1859 0.950 . S
H1883 C1861 0.950 . S
C1884 C1885 1.335 1_556 S
C1884 C1886 1.328 . S
C1884 H1909 0.963 . S
C1885 C1884 1.335 1_554 S
C1885 C1901 1.349 . S
C1886 C1884 1.328 . S
C1886 C1905 1.429 1_556 S
C1886 H1910 0.950 . S
C1887 C1904 1.574 . S
C1887 C1906 1.368 . S
C1887 H1911 0.949 . S
H1888 C1892 0.949 . S
C1889 C1890 1.349 . S
C1889 C1891 1.327 . S
C1889 H1912 0.950 . S
C1890 C1889 1.349 . S
C1890 C1902 1.349 1_554 S
C1891 C1889 1.327 . S
C1891 C1907 1.429 . S
C1891 H1913 0.950 . S
C1892 H1888 0.949 . S
C1892 C1900 1.574 . S
C1892 C1908 1.368 1_556 S
H1893 C1901 0.950 . S
H1894 C1899 0.950 . S
H1895 C1900 0.949 . S
H1896 C1902 0.950 . S
H1897 C1903 0.950 . S
H1898 C1904 0.949 . S
C1899 H1894 0.950 . S
C1899 C1901 1.327 . S
C1899 C1905 1.429 . S
C1900 C1892 1.574 . S
C1900 H1895 0.949 . S
C1900 C1906 1.368 1_556 S
C1901 C1885 1.349 . S
C1901 H1893 0.950 . S
C1901 C1899 1.327 . S
C1902 C1890 1.349 1_556 S
C1902 H1896 0.950 . S
C1902 C1903 1.327 . S
C1903 H1897 0.950 . S
C1903 C1902 1.327 . S
C1903 C1907 1.429 1_556 S
C1904 C1887 1.574 . S
C1904 H1898 0.949 . S
C1904 C1908 1.368 . S
C1905 C1886 1.429 1_554 S
C1905 C1899 1.429 . S
C1905 C1906 1.523 . S
C1906 C1887 1.368 . S
C1906 C1900 1.368 1_554 S
C1906 C1905 1.523 . S
C1907 C1891 1.429 . S
C1907 C1903 1.429 1_554 S
C1907 C1908 1.523 . S
C1908 C1892 1.368 1_554 S
C1908 C1904 1.368 . S
C1908 C1907 1.523 . S
H1909 C1884 0.963 . S
H1910 C1886 0.950 . S
H1911 C1887 0.949 . S
H1912 C1889 0.950 . S
H1913 C1891 0.950 . S
C1914 C1915 1.347 . S
C1914 C1916 1.327 . S
C1914 H1939 0.950 . S
C1915 C1914 1.347 . S
C1915 C1931 1.351 1_554 S
C1916 C1914 1.327 . S
C1916 C1935 1.435 . S
C1916 H1940 0.950 . S
C1917 C1934 1.574 . S
C1917 C1936 1.356 1_556 S
C1917 H1941 0.949 . S
H1918 C1922 0.949 . S
C1919 C1920 1.315 1_556 S
C1919 C1921 1.327 . S
C1919 H1942 0.950 . S
C1920 C1919 1.315 1_554 S
C1920 C1932 1.384 . S
C1921 C1919 1.327 . S
C1921 C1937 1.404 1_556 S
C1921 H1943 0.950 . S
C1922 H1918 0.949 . S
C1922 C1930 1.574 . S
C1922 C1938 1.390 . S
H1923 C1931 0.950 . S
H1924 C1929 0.950 . S
H1925 C1930 0.949 . S
H1926 C1932 0.950 . S
H1927 C1933 0.950 . S
H1928 C1934 0.949 . S
C1929 H1924 0.950 . S
C1929 C1931 1.327 . S
C1929 C1935 1.422 1_556 S
C1930 C1922 1.574 . S
C1930 H1925 0.949 . S
C1930 C1936 1.381 . S
C1931 C1915 1.351 1_556 S
C1931 H1923 0.950 . S
C1931 C1929 1.327 . S
C1932 C1920 1.384 . S
C1932 H1926 0.950 . S
C1932 C1933 1.327 . S
C1933 H1927 0.950 . S
C1933 C1932 1.327 . S
C1933 C1937 1.453 . S
C1934 C1917 1.574 . S
C1934 H1928 0.949 . S
C1934 C1938 1.347 1_556 S
C1935 C1916 1.435 . S
C1935 C1929 1.422 1_554 S
C1935 C1936 1.523 . S
C1936 C1917 1.356 1_554 S
C1936 C1930 1.381 . S
C1936 C1935 1.523 . S
C1937 C1921 1.404 1_554 S
C1937 C1933 1.453 . S
C1937 C1938 1.523 . S
C1938 C1922 1.390 . S
C1938 C1934 1.347 1_554 S
C1938 C1937 1.523 . S
H1939 C1914 0.950 . S
H1940 C1916 0.950 . S
H1941 C1917 0.949 . S
H1942 C1919 0.950 . S
H1943 C1921 0.950 . S
C1944 C1945 1.349 . S
C1944 C1946 1.327 . S
C1944 H1969 0.950 . S
C1945 C1944 1.349 . S
C1945 C1961 1.349 1_554 S
C1946 C1944 1.327 . S
C1946 C1965 1.429 . S
C1946 H1970 0.950 . S
C1947 C1964 1.574 . S
C1947 C1966 1.368 1_556 S
C1947 H1971 0.949 . S
H1948 C1952 0.949 . S
C1949 C1950 1.349 1_556 S
C1949 C1951 1.327 . S
C1949 H1972 0.950 . S
C1950 C1949 1.349 1_554 S
C1950 C1962 1.349 . S
C1951 C1949 1.327 . S
C1951 C1967 1.429 1_556 S
C1951 H1973 0.950 . S
C1952 H1948 0.949 . S
C1952 C1960 1.574 . S
C1952 C1968 1.368 . S
H1953 C1961 0.950 . S
H1954 C1959 0.950 . S
H1955 C1960 0.949 . S
H1956 C1962 0.950 . S
H1957 C1963 0.950 . S
H1958 C1964 0.949 . S
C1959 H1954 0.950 . S
C1959 C1961 1.327 . S
C1959 C1965 1.429 1_556 S
C1960 C1952 1.574 . S
C1960 H1955 0.949 . S
C1960 C1966 1.368 . S
C1961 C1945 1.349 1_556 S
C1961 H1953 0.950 . S
C1961 C1959 1.327 . S
C1962 C1950 1.349 . S
C1962 H1956 0.950 . S
C1962 C1963 1.327 . S
C1963 H1957 0.950 . S
C1963 C1962 1.327 . S
C1963 C1967 1.429 . S
C1964 C1947 1.574 . S
C1964 H1958 0.949 . S
C1964 C1968 1.368 1_556 S
C1965 C1946 1.429 . S
C1965 C1959 1.429 1_554 S
C1965 C1966 1.523 . S
C1966 C1947 1.368 1_554 S
C1966 C1960 1.368 . S
C1966 C1965 1.523 . S
C1967 C1951 1.429 1_554 S
C1967 C1963 1.429 . S
C1967 C1968 1.523 . S
C1968 C1952 1.368 . S
C1968 C1964 1.368 1_554 S
C1968 C1967 1.523 . S
H1969 C1944 0.950 . S
H1970 C1946 0.950 . S
H1971 C1947 0.949 . S
H1972 C1949 0.950 . S
H1973 C1951 0.950 . S
C1974 C1975 1.349 1_556 S
C1974 C1976 1.327 . S
C1974 H1999 0.950 . S
C1975 C1974 1.349 1_554 S
C1975 C1991 1.349 . S
C1976 C1974 1.327 . S
C1976 C1995 1.429 1_556 S
C1976 H2000 0.950 . S
C1977 C1994 1.574 . S
C1977 C1996 1.368 . S
C1977 H2001 0.949 . S
H1978 C1982 0.949 . S
C1979 C1980 1.349 . S
C1979 C1981 1.327 . S
C1979 H2002 0.950 . S
C1980 C1979 1.349 . S
C1980 C1992 1.349 1_554 S
C1981 C1979 1.327 . S
C1981 C1997 1.429 . S
C1981 H2003 0.950 . S
C1982 H1978 0.949 . S
C1982 C1990 1.574 . S
C1982 C1998 1.368 1_556 S
H1983 C1991 0.950 . S
H1984 C1989 0.950 . S
H1985 C1990 0.949 . S
H1986 C1992 0.950 . S
H1987 C1993 0.950 . S
H1988 C1994 0.949 . S
C1989 H1984 0.950 . S
C1989 C1991 1.327 . S
C1989 C1995 1.429 . S
C1990 C1982 1.574 . S
C1990 H1985 0.949 . S
C1990 C1996 1.368 1_556 S
C1991 C1975 1.349 . S
C1991 H1983 0.950 . S
C1991 C1989 1.327 . S
C1992 C1980 1.349 1_556 S
C1992 H1986 0.950 . S
C1992 C1993 1.327 . S
C1993 H1987 0.950 . S
C1993 C1992 1.327 . S
C1993 C1997 1.429 1_556 S
C1994 C1977 1.574 . S
C1994 H1988 0.949 . S
C1994 C1998 1.368 . S
C1995 C1976 1.429 1_554 S
C1995 C1989 1.429 . S
C1995 C1996 1.523 . S
C1996 C1977 1.368 . S
C1996 C1990 1.368 1_554 S
C1996 C1995 1.523 . S
C1997 C1981 1.429 . S
C1997 C1993 1.429 1_554 S
C1997 C1998 1.523 . S
C1998 C1982 1.368 1_554 S
C1998 C1994 1.368 . S
C1998 C1997 1.523 . S
H1999 C1974 0.950 . S
H2000 C1976 0.950 . S
H2001 C1977 0.949 . S
H2002 C1979 0.950 . S
H2003 C1981 0.950 . S
C2004 C2005 1.349 . S
C2004 C2006 1.327 . S
C2004 H2029 0.950 . S
C2005 C2004 1.349 . S
C2005 C2021 1.349 1_554 S
C2006 C2004 1.327 . S
C2006 C2025 1.429 . S
C2006 H2030 0.950 . S
C2007 C2024 1.574 . S
C2007 C2026 1.368 1_556 S
C2007 H2031 0.949 . S
H2008 C2012 0.949 . S
C2009 C2010 1.349 1_556 S
C2009 C2011 1.327 . S
C2009 H2032 0.950 . S
C2010 C2009 1.349 1_554 S
C2010 C2022 1.349 . S
C2011 C2009 1.327 . S
C2011 C2027 1.429 1_556 S
C2011 H2033 0.950 . S
C2012 H2008 0.949 . S
C2012 C2020 1.574 . S
C2012 C2028 1.368 . S
H2013 C2021 0.950 . S
H2014 C2019 0.950 . S
H2015 C2020 0.949 . S
H2016 C2022 0.950 . S
H2017 C2023 0.950 . S
H2018 C2024 0.949 . S
C2019 H2014 0.950 . S
C2019 C2021 1.327 . S
C2019 C2025 1.429 1_556 S
C2020 C2012 1.574 . S
C2020 H2015 0.949 . S
C2020 C2026 1.368 . S
C2021 C2005 1.349 1_556 S
C2021 H2013 0.950 . S
C2021 C2019 1.327 . S
C2022 C2010 1.349 . S
C2022 H2016 0.950 . S
C2022 C2023 1.327 . S
C2023 H2017 0.950 . S
C2023 C2022 1.327 . S
C2023 C2027 1.429 . S
C2024 C2007 1.574 . S
C2024 H2018 0.949 . S
C2024 C2028 1.368 1_556 S
C2025 C2006 1.429 . S
C2025 C2019 1.429 1_554 S
C2025 C2026 1.523 . S
C2026 C2007 1.368 1_554 S
C2026 C2020 1.368 . S
C2026 C2025 1.523 . S
C2027 C2011 1.429 1_554 S
C2027 C2023 1.429 . S
C2027 C2028 1.523 . S
C2028 C2012 1.368 . S
C2028 C2024 1.368 1_554 S
C2028 C2027 1.523 . S
H2029 C2004 0.950 . S
H2030 C2006 0.950 . S
H2031 C2007 0.949 . S
H2032 C2009 0.950 . S
H2033 C2011 0.950 . S
C2034 C2035 1.345 1_556 S
C2034 C2036 1.327 . S
C2034 H2059 0.950 . S
C2035 C2034 1.345 1_554 S
C2035 C2051 1.353 . S
C2036 C2034 1.327 . S
C2036 C2055 1.429 1_556 S
C2036 H2060 0.950 . S
C2037 C2054 1.574 . S
C2037 C2056 1.368 . S
C2037 H2061 0.949 . S
H2038 C2042 0.949 . S
C2039 C2040 1.349 . S
C2039 C2041 1.327 . S
C2039 H2062 0.950 . S
C2040 C2039 1.349 . S
C2040 C2052 1.349 1_554 S
C2041 C2039 1.327 . S
C2041 C2057 1.429 . S
C2041 H2063 0.950 . S
C2042 H2038 0.949 . S
C2042 C2050 1.574 . S
C2042 C2058 1.368 1_556 S
H2043 C2051 0.950 . S
H2044 C2049 0.950 . S
H2045 C2050 0.949 . S
H2046 C2052 0.950 . S
H2047 C2053 0.950 . S
H2048 C2054 0.949 . S
C2049 H2044 0.950 . S
C2049 C2051 1.327 . S
C2049 C2055 1.429 . S
C2050 C2042 1.574 . S
C2050 H2045 0.949 . S
C2050 C2056 1.368 1_556 S
C2051 C2035 1.353 . S
C2051 H2043 0.950 . S
C2051 C2049 1.327 . S
C2052 C2040 1.349 1_556 S
C2052 H2046 0.950 . S
C2052 C2053 1.327 . S
C2053 H2047 0.950 . S
C2053 C2052 1.327 . S
C2053 C2057 1.429 1_556 S
C2054 C2037 1.574 . S
C2054 H2048 0.949 . S
C2054 C2058 1.368 . S
C2055 C2036 1.429 1_554 S
C2055 C2049 1.429 . S
C2055 C2056 1.523 . S
C2056 C2037 1.368 . S
C2056 C2050 1.368 1_554 S
C2056 C2055 1.523 . S
C2057 C2041 1.429 . S
C2057 C2053 1.429 1_554 S
C2057 C2058 1.523 . S
C2058 C2042 1.368 1_554 S
C2058 C2054 1.368 . S
C2058 C2057 1.523 . S
H2059 C2034 0.950 . S
H2060 C2036 0.950 . S
H2061 C2037 0.949 . S
H2062 C2039 0.950 . S
H2063 C2041 0.950 . S
C2064 C2065 1.349 . S
C2064 C2066 1.327 . S
C2064 H2089 0.950 . S
C2065 C2064 1.349 . S
C2065 C2081 1.349 . S
C2066 C2064 1.327 . S
C2066 C2085 1.429 . S
C2066 H2090 0.950 . S
C2067 C2084 1.574 . S
C2067 C2086 1.368 . S
C2067 H2091 0.949 . S
H2068 C2072 0.949 . S
C2069 C2070 1.349 . S
C2069 C2071 1.327 . S
C2069 H2092 0.950 . S
C2070 C2069 1.349 . S
C2070 C2082 1.349 . S
C2071 C2069 1.327 . S
C2071 C2087 1.429 . S
C2071 H2093 0.950 . S
C2072 H2068 0.949 . S
C2072 C2080 1.574 . S
C2072 C2088 1.368 . S
H2073 C2081 0.950 . S
H2074 C2079 0.950 . S
H2075 C2080 0.949 . S
H2076 C2082 0.950 . S
H2077 C2083 0.950 . S
H2078 C2084 0.949 . S
C2079 H2074 0.950 . S
C2079 C2081 1.327 . S
C2079 C2085 1.429 . S
C2080 C2072 1.574 . S
C2080 H2075 0.949 . S
C2080 C2086 1.368 . S
C2081 C2065 1.349 . S
C2081 H2073 0.950 . S
C2081 C2079 1.327 . S
C2082 C2070 1.349 . S
C2082 H2076 0.950 . S
C2082 C2083 1.327 . S
C2083 H2077 0.950 . S
C2083 C2082 1.327 . S
C2083 C2087 1.429 . S
C2084 C2067 1.574 . S
C2084 H2078 0.949 . S
C2084 C2088 1.368 . S
C2085 C2066 1.429 . S
C2085 C2079 1.429 . S
C2085 C2086 1.523 . S
C2086 C2067 1.368 . S
C2086 C2080 1.368 . S
C2086 C2085 1.523 . S
C2087 C2071 1.429 . S
C2087 C2083 1.429 . S
C2087 C2088 1.523 . S
C2088 C2072 1.368 . S
C2088 C2084 1.368 . S
C2088 C2087 1.523 . S
H2089 C2064 0.950 . S
H2090 C2066 0.950 . S
H2091 C2067 0.949 . S
H2092 C2069 0.950 . S
H2093 C2071 0.950 . S
C2094 C2095 1.349 . S
C2094 C2096 1.327 . S
C2094 H2119 0.950 . S
C2095 C2094 1.349 . S
C2095 C2111 1.349 . S
C2096 C2094 1.327 . S
C2096 C2115 1.429 . S
C2096 H2120 0.950 . S
C2097 C2114 1.574 . S
C2097 C2116 1.368 . S
C2097 H2121 0.949 . S
H2098 C2102 0.949 . S
C2099 C2100 1.349 . S
C2099 C2101 1.327 . S
C2099 H2122 0.950 . S
C2100 C2099 1.349 . S
C2100 C2112 1.349 . S
C2101 C2099 1.327 . S
C2101 C2117 1.429 . S
C2101 H2123 0.950 . S
C2102 H2098 0.949 . S
C2102 C2110 1.574 . S
C2102 C2118 1.368 . S
H2103 C2111 0.950 . S
H2104 C2109 0.950 . S
H2105 C2110 0.949 . S
H2106 C2112 0.950 . S
H2107 C2113 0.950 . S
H2108 C2114 0.949 . S
C2109 H2104 0.950 . S
C2109 C2111 1.327 . S
C2109 C2115 1.429 . S
C2110 C2102 1.574 . S
C2110 H2105 0.949 . S
C2110 C2116 1.368 . S
C2111 C2095 1.349 . S
C2111 H2103 0.950 . S
C2111 C2109 1.327 . S
C2112 C2100 1.349 . S
C2112 H2106 0.950 . S
C2112 C2113 1.327 . S
C2113 H2107 0.950 . S
C2113 C2112 1.327 . S
C2113 C2117 1.429 . S
C2114 C2097 1.574 . S
C2114 H2108 0.949 . S
C2114 C2118 1.368 . S
C2115 C2096 1.429 . S
C2115 C2109 1.429 . S
C2115 C2116 1.523 . S
C2116 C2097 1.368 . S
C2116 C2110 1.368 . S
C2116 C2115 1.523 . S
C2117 C2101 1.429 . S
C2117 C2113 1.429 . S
C2117 C2118 1.523 . S
C2118 C2102 1.368 . S
C2118 C2114 1.368 . S
C2118 C2117 1.523 . S
H2119 C2094 0.950 . S
H2120 C2096 0.950 . S
H2121 C2097 0.949 . S
H2122 C2099 0.950 . S
H2123 C2101 0.950 . S
C2124 C2125 1.349 . S
C2124 C2126 1.327 . S
C2124 H2149 0.950 . S
C2125 C2124 1.349 . S
C2125 C2141 1.349 . S
C2126 C2124 1.327 . S
C2126 C2145 1.429 . S
C2126 H2150 0.950 . S
C2127 C2144 1.574 . S
C2127 C2146 1.368 . S
C2127 H2151 0.949 . S
H2128 C2132 0.949 . S
C2129 C2130 1.349 . S
C2129 C2131 1.327 . S
C2129 H2152 0.950 . S
C2130 C2129 1.349 . S
C2130 C2142 1.349 . S
C2131 C2129 1.327 . S
C2131 C2147 1.429 . S
C2131 H2153 0.950 . S
C2132 H2128 0.949 . S
C2132 C2140 1.574 . S
C2132 C2148 1.368 . S
H2133 C2141 0.950 . S
H2134 C2139 0.950 . S
H2135 C2140 0.949 . S
H2136 C2142 0.950 . S
H2137 C2143 0.950 . S
H2138 C2144 0.949 . S
C2139 H2134 0.950 . S
C2139 C2141 1.327 . S
C2139 C2145 1.429 . S
C2140 C2132 1.574 . S
C2140 H2135 0.949 . S
C2140 C2146 1.368 . S
C2141 C2125 1.349 . S
C2141 H2133 0.950 . S
C2141 C2139 1.327 . S
C2142 C2130 1.349 . S
C2142 H2136 0.950 . S
C2142 C2143 1.327 . S
C2143 H2137 0.950 . S
C2143 C2142 1.327 . S
C2143 C2147 1.429 . S
C2144 C2127 1.574 . S
C2144 H2138 0.949 . S
C2144 C2148 1.368 . S
C2145 C2126 1.429 . S
C2145 C2139 1.429 . S
C2145 C2146 1.523 . S
C2146 C2127 1.368 . S
C2146 C2140 1.368 . S
C2146 C2145 1.523 . S
C2147 C2131 1.429 . S
C2147 C2143 1.429 . S
C2147 C2148 1.523 . S
C2148 C2132 1.368 . S
C2148 C2144 1.368 . S
C2148 C2147 1.523 . S
H2149 C2124 0.950 . S
H2150 C2126 0.950 . S
H2151 C2127 0.949 . S
H2152 C2129 0.950 . S
H2153 C2131 0.950 . S
C2154 C2155 1.349 . S
C2154 C2156 1.327 . S
C2154 H2179 0.950 . S
C2155 C2154 1.349 . S
C2155 C2171 1.349 . S
C2156 C2154 1.327 . S
C2156 C2175 1.429 . S
C2156 H2180 0.950 . S
C2157 C2174 1.574 . S
C2157 C2176 1.368 . S
C2157 H2181 0.949 . S
H2158 C2162 0.949 . S
C2159 C2160 1.349 . S
C2159 C2161 1.327 . S
C2159 H2182 0.950 . S
C2160 C2159 1.349 . S
C2160 C2172 1.349 . S
C2161 C2159 1.327 . S
C2161 C2177 1.429 . S
C2161 H2183 0.950 . S
C2162 H2158 0.949 . S
C2162 C2170 1.574 . S
C2162 C2178 1.368 . S
H2163 C2171 0.950 . S
H2164 C2169 0.950 . S
H2165 C2170 0.949 . S
H2166 C2172 0.950 . S
H2167 C2173 0.950 . S
H2168 C2174 0.949 . S
C2169 H2164 0.950 . S
C2169 C2171 1.327 . S
C2169 C2175 1.429 . S
C2170 C2162 1.574 . S
C2170 H2165 0.949 . S
C2170 C2176 1.368 . S
C2171 C2155 1.349 . S
C2171 H2163 0.950 . S
C2171 C2169 1.327 . S
C2172 C2160 1.349 . S
C2172 H2166 0.950 . S
C2172 C2173 1.327 . S
C2173 H2167 0.950 . S
C2173 C2172 1.327 . S
C2173 C2177 1.429 . S
C2174 C2157 1.574 . S
C2174 H2168 0.949 . S
C2174 C2178 1.368 . S
C2175 C2156 1.429 . S
C2175 C2169 1.429 . S
C2175 C2176 1.523 . S
C2176 C2157 1.368 . S
C2176 C2170 1.368 . S
C2176 C2175 1.523 . S
C2177 C2161 1.429 . S
C2177 C2173 1.429 . S
C2177 C2178 1.523 . S
C2178 C2162 1.368 . S
C2178 C2174 1.368 . S
C2178 C2177 1.523 . S
H2179 C2154 0.950 . S
H2180 C2156 0.950 . S
H2181 C2157 0.949 . S
H2182 C2159 0.950 . S
H2183 C2161 0.950 . S
C2184 C2185 1.349 . S
C2184 C2186 1.327 . S
C2184 H2209 0.950 . S
C2185 C2184 1.349 . S
C2185 C2201 1.349 . S
C2186 C2184 1.327 . S
C2186 C2205 1.429 . S
C2186 H2210 0.950 . S
C2187 C2204 1.574 . S
C2187 C2206 1.368 . S
C2187 H2211 0.949 . S
H2188 C2192 0.949 . S
C2189 C2190 1.349 . S
C2189 C2191 1.327 . S
C2189 H2212 0.950 . S
C2190 C2189 1.349 . S
C2190 C2202 1.349 . S
C2191 C2189 1.327 . S
C2191 C2207 1.429 . S
C2191 H2213 0.950 . S
C2192 H2188 0.949 . S
C2192 C2200 1.574 . S
C2192 C2208 1.368 . S
H2193 C2201 0.950 . S
H2194 C2199 0.950 . S
H2195 C2200 0.949 . S
H2196 C2202 0.950 . S
H2197 C2203 0.950 . S
H2198 C2204 0.949 . S
C2199 H2194 0.950 . S
C2199 C2201 1.327 . S
C2199 C2205 1.429 . S
C2200 C2192 1.574 . S
C2200 H2195 0.949 . S
C2200 C2206 1.368 . S
C2201 C2185 1.349 . S
C2201 H2193 0.950 . S
C2201 C2199 1.327 . S
C2202 C2190 1.349 . S
C2202 H2196 0.950 . S
C2202 C2203 1.327 . S
C2203 H2197 0.950 . S
C2203 C2202 1.327 . S
C2203 C2207 1.429 . S
C2204 C2187 1.574 . S
C2204 H2198 0.949 . S
C2204 C2208 1.368 . S
C2205 C2186 1.429 . S
C2205 C2199 1.429 . S
C2205 C2206 1.523 . S
C2206 C2187 1.368 . S
C2206 C2200 1.368 . S
C2206 C2205 1.523 . S
C2207 C2191 1.429 . S
C2207 C2203 1.429 . S
C2207 C2208 1.523 . S
C2208 C2192 1.368 . S
C2208 C2204 1.368 . S
C2208 C2207 1.523 . S
H2209 C2184 0.950 . S
H2210 C2186 0.950 . S
H2211 C2187 0.949 . S
H2212 C2189 0.950 . S
H2213 C2191 0.950 . S
C2214 C2215 1.349 . S
C2214 C2216 1.327 . S
C2214 H2239 0.950 . S
C2215 C2214 1.349 . S
C2215 C2231 1.349 . S
C2216 C2214 1.327 . S
C2216 C2235 1.429 . S
C2216 H2240 0.950 . S
C2217 C2234 1.574 . S
C2217 C2236 1.368 . S
C2217 H2241 0.949 . S
H2218 C2222 0.949 . S
C2219 C2220 1.349 . S
C2219 C2221 1.327 . S
C2219 H2242 0.950 . S
C2220 C2219 1.349 . S
C2220 C2232 1.349 . S
C2221 C2219 1.327 . S
C2221 C2237 1.429 . S
C2221 H2243 0.950 . S
C2222 H2218 0.949 . S
C2222 C2230 1.574 . S
C2222 C2238 1.368 . S
H2223 C2231 0.950 . S
H2224 C2229 0.950 . S
H2225 C2230 0.949 . S
H2226 C2232 0.950 . S
H2227 C2233 0.950 . S
H2228 C2234 0.949 . S
C2229 H2224 0.950 . S
C2229 C2231 1.327 . S
C2229 C2235 1.429 . S
C2230 C2222 1.574 . S
C2230 H2225 0.949 . S
C2230 C2236 1.368 . S
C2231 C2215 1.349 . S
C2231 H2223 0.950 . S
C2231 C2229 1.327 . S
C2232 C2220 1.349 . S
C2232 H2226 0.950 . S
C2232 C2233 1.327 . S
C2233 H2227 0.950 . S
C2233 C2232 1.327 . S
C2233 C2237 1.429 . S
C2234 C2217 1.574 . S
C2234 H2228 0.949 . S
C2234 C2238 1.368 . S
C2235 C2216 1.429 . S
C2235 C2229 1.429 . S
C2235 C2236 1.523 . S
C2236 C2217 1.368 . S
C2236 C2230 1.368 . S
C2236 C2235 1.523 . S
C2237 C2221 1.429 . S
C2237 C2233 1.429 . S
C2237 C2238 1.523 . S
C2238 C2222 1.368 . S
C2238 C2234 1.368 . S
C2238 C2237 1.523 . S
H2239 C2214 0.950 . S
H2240 C2216 0.950 . S
H2241 C2217 0.949 . S
H2242 C2219 0.950 . S
H2243 C2221 0.950 . S
C2244 C2245 1.349 . S
C2244 C2246 1.327 . S
C2244 H2269 0.950 . S
C2245 C2244 1.349 . S
C2245 C2261 1.349 . S
C2246 C2244 1.327 . S
C2246 C2265 1.429 . S
C2246 H2270 0.950 . S
C2247 C2264 1.574 . S
C2247 C2266 1.368 . S
C2247 H2271 0.949 . S
H2248 C2252 0.949 . S
C2249 C2250 1.349 . S
C2249 C2251 1.327 . S
C2249 H2272 0.950 . S
C2250 C2249 1.349 . S
C2250 C2262 1.349 . S
C2251 C2249 1.327 . S
C2251 C2267 1.429 . S
C2251 H2273 0.950 . S
C2252 H2248 0.949 . S
C2252 C2260 1.574 . S
C2252 C2268 1.368 . S
H2253 C2261 0.950 . S
H2254 C2259 0.950 . S
H2255 C2260 0.949 . S
H2256 C2262 0.950 . S
H2257 C2263 0.950 . S
H2258 C2264 0.949 . S
C2259 H2254 0.950 . S
C2259 C2261 1.327 . S
C2259 C2265 1.429 . S
C2260 C2252 1.574 . S
C2260 H2255 0.949 . S
C2260 C2266 1.368 . S
C2261 C2245 1.349 . S
C2261 H2253 0.950 . S
C2261 C2259 1.327 . S
C2262 C2250 1.349 . S
C2262 H2256 0.950 . S
C2262 C2263 1.327 . S
C2263 H2257 0.950 . S
C2263 C2262 1.327 . S
C2263 C2267 1.429 . S
C2264 C2247 1.574 . S
C2264 H2258 0.949 . S
C2264 C2268 1.368 . S
C2265 C2246 1.429 . S
C2265 C2259 1.429 . S
C2265 C2266 1.523 . S
C2266 C2247 1.368 . S
C2266 C2260 1.368 . S
C2266 C2265 1.523 . S
C2267 C2251 1.429 . S
C2267 C2263 1.429 . S
C2267 C2268 1.523 . S
C2268 C2252 1.368 . S
C2268 C2264 1.368 . S
C2268 C2267 1.523 . S
H2269 C2244 0.950 . S
H2270 C2246 0.950 . S
H2271 C2247 0.949 . S
H2272 C2249 0.950 . S
H2273 C2251 0.950 . S
C2274 C2275 1.349 . S
C2274 C2276 1.327 . S
C2274 H2299 0.950 . S
C2275 C2274 1.349 . S
C2275 C2291 1.349 . S
C2276 C2274 1.327 . S
C2276 C2295 1.429 . S
C2276 H2300 0.950 . S
C2277 C2294 1.574 . S
C2277 C2296 1.368 . S
C2277 H2301 0.949 . S
H2278 C2282 0.949 . S
C2279 C2280 1.349 . S
C2279 C2281 1.327 . S
C2279 H2302 0.950 . S
C2280 C2279 1.349 . S
C2280 C2292 1.349 . S
C2281 C2279 1.327 . S
C2281 C2297 1.429 . S
C2281 H2303 0.950 . S
C2282 H2278 0.949 . S
C2282 C2290 1.574 . S
C2282 C2298 1.368 . S
H2283 C2291 0.950 . S
H2284 C2289 0.950 . S
H2285 C2290 0.949 . S
H2286 C2292 0.950 . S
H2287 C2293 0.950 . S
H2288 C2294 0.949 . S
C2289 H2284 0.950 . S
C2289 C2291 1.327 . S
C2289 C2295 1.429 . S
C2290 C2282 1.574 . S
C2290 H2285 0.949 . S
C2290 C2296 1.368 . S
C2291 C2275 1.349 . S
C2291 H2283 0.950 . S
C2291 C2289 1.327 . S
C2292 C2280 1.349 . S
C2292 H2286 0.950 . S
C2292 C2293 1.327 . S
C2293 H2287 0.950 . S
C2293 C2292 1.327 . S
C2293 C2297 1.429 . S
C2294 C2277 1.574 . S
C2294 H2288 0.949 . S
C2294 C2298 1.368 . S
C2295 C2276 1.429 . S
C2295 C2289 1.429 . S
C2295 C2296 1.523 . S
C2296 C2277 1.368 . S
C2296 C2290 1.368 . S
C2296 C2295 1.523 . S
C2297 C2281 1.429 . S
C2297 C2293 1.429 . S
C2297 C2298 1.523 . S
C2298 C2282 1.368 . S
C2298 C2294 1.368 . S
C2298 C2297 1.523 . S
H2299 C2274 0.950 . S
H2300 C2276 0.950 . S
H2301 C2277 0.949 . S
H2302 C2279 0.950 . S
H2303 C2281 0.950 . S
C2304 C2305 1.349 . S
C2304 C2306 1.327 . S
C2304 H2329 0.950 . S
C2305 C2304 1.349 . S
C2305 C2321 1.349 . S
C2306 C2304 1.327 . S
C2306 C2325 1.429 . S
C2306 H2330 0.950 . S
C2307 C2324 1.574 . S
C2307 C2326 1.368 . S
C2307 H2331 0.949 . S
H2308 C2312 0.949 . S
C2309 C2310 1.349 . S
C2309 C2311 1.327 . S
C2309 H2332 0.950 . S
C2310 C2309 1.349 . S
C2310 C2322 1.349 . S
C2311 C2309 1.327 . S
C2311 C2327 1.429 . S
C2311 H2333 0.950 . S
C2312 H2308 0.949 . S
C2312 C2320 1.574 . S
C2312 C2328 1.368 . S
H2313 C2321 0.950 . S
H2314 C2319 0.950 . S
H2315 C2320 0.949 . S
H2316 C2322 0.950 . S
H2317 C2323 0.950 . S
H2318 C2324 0.949 . S
C2319 H2314 0.950 . S
C2319 C2321 1.327 . S
C2319 C2325 1.429 . S
C2320 C2312 1.574 . S
C2320 H2315 0.949 . S
C2320 C2326 1.368 . S
C2321 C2305 1.349 . S
C2321 H2313 0.950 . S
C2321 C2319 1.327 . S
C2322 C2310 1.349 . S
C2322 H2316 0.950 . S
C2322 C2323 1.327 . S
C2323 H2317 0.950 . S
C2323 C2322 1.327 . S
C2323 C2327 1.429 . S
C2324 C2307 1.574 . S
C2324 H2318 0.949 . S
C2324 C2328 1.368 . S
C2325 C2306 1.429 . S
C2325 C2319 1.429 . S
C2325 C2326 1.523 . S
C2326 C2307 1.368 . S
C2326 C2320 1.368 . S
C2326 C2325 1.523 . S
C2327 C2311 1.429 . S
C2327 C2323 1.429 . S
C2327 C2328 1.523 . S
C2328 C2312 1.368 . S
C2328 C2324 1.368 . S
C2328 C2327 1.523 . S
H2329 C2304 0.950 . S
H2330 C2306 0.950 . S
H2331 C2307 0.949 . S
H2332 C2309 0.950 . S
H2333 C2311 0.950 . S
C2334 C2335 1.349 . S
C2334 C2336 1.327 . S
C2334 H2359 0.950 . S
C2335 C2334 1.349 . S
C2335 C2351 1.349 . S
C2336 C2334 1.327 . S
C2336 C2355 1.429 . S
C2336 H2360 0.950 . S
C2337 C2354 1.574 . S
C2337 C2356 1.368 . S
C2337 H2361 0.949 . S
H2338 C2342 0.949 . S
C2339 C2340 1.349 . S
C2339 C2341 1.327 . S
C2339 H2362 0.950 . S
C2340 C2339 1.349 . S
C2340 C2352 1.349 . S
C2341 C2339 1.327 . S
C2341 C2357 1.429 . S
C2341 H2363 0.950 . S
C2342 H2338 0.949 . S
C2342 C2350 1.574 . S
C2342 C2358 1.368 . S
H2343 C2351 0.950 . S
H2344 C2349 0.950 . S
H2345 C2350 0.949 . S
H2346 C2352 0.950 . S
H2347 C2353 0.950 . S
H2348 C2354 0.949 . S
C2349 H2344 0.950 . S
C2349 C2351 1.327 . S
C2349 C2355 1.429 . S
C2350 C2342 1.574 . S
C2350 H2345 0.949 . S
C2350 C2356 1.368 . S
C2351 C2335 1.349 . S
C2351 H2343 0.950 . S
C2351 C2349 1.327 . S
C2352 C2340 1.349 . S
C2352 H2346 0.950 . S
C2352 C2353 1.327 . S
C2353 H2347 0.950 . S
C2353 C2352 1.327 . S
C2353 C2357 1.429 . S
C2354 C2337 1.574 . S
C2354 H2348 0.949 . S
C2354 C2358 1.368 . S
C2355 C2336 1.429 . S
C2355 C2349 1.429 . S
C2355 C2356 1.523 . S
C2356 C2337 1.368 . S
C2356 C2350 1.368 . S
C2356 C2355 1.523 . S
C2357 C2341 1.429 . S
C2357 C2353 1.429 . S
C2357 C2358 1.523 . S
C2358 C2342 1.368 . S
C2358 C2354 1.368 . S
C2358 C2357 1.523 . S
H2359 C2334 0.950 . S
H2360 C2336 0.950 . S
H2361 C2337 0.949 . S
H2362 C2339 0.950 . S
H2363 C2341 0.950 . S
C2364 C2365 1.349 . S
C2364 C2366 1.327 . S
C2364 H2389 0.950 . S
C2365 C2364 1.349 . S
C2365 C2381 1.349 . S
C2366 C2364 1.327 . S
C2366 C2385 1.429 . S
C2366 H2390 0.950 . S
C2367 C2384 1.574 . S
C2367 C2386 1.368 . S
C2367 H2391 0.949 . S
H2368 C2372 0.949 . S
C2369 C2370 1.349 . S
C2369 C2371 1.327 . S
C2369 H2392 0.950 . S
C2370 C2369 1.349 . S
C2370 C2382 1.349 . S
C2371 C2369 1.327 . S
C2371 C2387 1.429 . S
C2371 H2393 0.950 . S
C2372 H2368 0.949 . S
C2372 C2380 1.574 . S
C2372 C2388 1.368 . S
H2373 C2381 0.950 . S
H2374 C2379 0.950 . S
H2375 C2380 0.949 . S
H2376 C2382 0.950 . S
H2377 C2383 0.950 . S
H2378 C2384 0.949 . S
C2379 H2374 0.950 . S
C2379 C2381 1.327 . S
C2379 C2385 1.429 . S
C2380 C2372 1.574 . S
C2380 H2375 0.949 . S
C2380 C2386 1.368 . S
C2381 C2365 1.349 . S
C2381 H2373 0.950 . S
C2381 C2379 1.327 . S
C2382 C2370 1.349 . S
C2382 H2376 0.950 . S
C2382 C2383 1.327 . S
C2383 H2377 0.950 . S
C2383 C2382 1.327 . S
C2383 C2387 1.429 . S
C2384 C2367 1.574 . S
C2384 H2378 0.949 . S
C2384 C2388 1.368 . S
C2385 C2366 1.429 . S
C2385 C2379 1.429 . S
C2385 C2386 1.523 . S
C2386 C2367 1.368 . S
C2386 C2380 1.368 . S
C2386 C2385 1.523 . S
C2387 C2371 1.429 . S
C2387 C2383 1.429 . S
C2387 C2388 1.523 . S
C2388 C2372 1.368 . S
C2388 C2384 1.368 . S
C2388 C2387 1.523 . S
H2389 C2364 0.950 . S
H2390 C2366 0.950 . S
H2391 C2367 0.949 . S
H2392 C2369 0.950 . S
H2393 C2371 0.950 . S
C2394 C2395 1.349 . S
C2394 C2396 1.327 . S
C2394 H2419 0.950 . S
C2395 C2394 1.349 . S
C2395 C2411 1.349 . S
C2396 C2394 1.327 . S
C2396 C2415 1.429 . S
C2396 H2420 0.950 . S
C2397 C2414 1.574 . S
C2397 C2416 1.368 . S
C2397 H2421 0.949 . S
H2398 C2402 0.949 . S
C2399 C2400 1.349 . S
C2399 C2401 1.327 . S
C2399 H2422 0.950 . S
C2400 C2399 1.349 . S
C2400 C2412 1.349 . S
C2401 C2399 1.327 . S
C2401 C2417 1.429 . S
C2401 H2423 0.950 . S
C2402 H2398 0.949 . S
C2402 C2410 1.574 . S
C2402 C2418 1.368 . S
H2403 C2411 0.950 . S
H2404 C2409 0.950 . S
H2405 C2410 0.949 . S
H2406 C2412 0.950 . S
H2407 C2413 0.950 . S
H2408 C2414 0.949 . S
C2409 H2404 0.950 . S
C2409 C2411 1.327 . S
C2409 C2415 1.429 . S
C2410 C2402 1.574 . S
C2410 H2405 0.949 . S
C2410 C2416 1.368 . S
C2411 C2395 1.349 . S
C2411 H2403 0.950 . S
C2411 C2409 1.327 . S
C2412 C2400 1.349 . S
C2412 H2406 0.950 . S
C2412 C2413 1.327 . S
C2413 H2407 0.950 . S
C2413 C2412 1.327 . S
C2413 C2417 1.429 . S
C2414 C2397 1.574 . S
C2414 H2408 0.949 . S
C2414 C2418 1.368 . S
C2415 C2396 1.429 . S
C2415 C2409 1.429 . S
C2415 C2416 1.523 . S
C2416 C2397 1.368 . S
C2416 C2410 1.368 . S
C2416 C2415 1.523 . S
C2417 C2401 1.429 . S
C2417 C2413 1.429 . S
C2417 C2418 1.523 . S
C2418 C2402 1.368 . S
C2418 C2414 1.368 . S
C2418 C2417 1.523 . S
H2419 C2394 0.950 . S
H2420 C2396 0.950 . S
H2421 C2397 0.949 . S
H2422 C2399 0.950 . S
H2423 C2401 0.950 . S
C2424 C2425 1.349 . S
C2424 C2426 1.327 . S
C2424 H2449 0.950 . S
C2425 C2424 1.349 . S
C2425 C2441 1.349 . S
C2426 C2424 1.327 . S
C2426 C2445 1.429 . S
C2426 H2450 0.950 . S
C2427 C2444 1.574 . S
C2427 C2446 1.368 . S
C2427 H2451 0.949 . S
H2428 C2432 0.949 . S
C2429 C2430 1.349 . S
C2429 C2431 1.327 . S
C2429 H2452 0.950 . S
C2430 C2429 1.349 . S
C2430 C2442 1.349 . S
C2431 C2429 1.327 . S
C2431 C2447 1.429 . S
C2431 H2453 0.950 . S
C2432 H2428 0.949 . S
C2432 C2440 1.574 . S
C2432 C2448 1.368 . S
H2433 C2441 0.950 . S
H2434 C2439 0.950 . S
H2435 C2440 0.949 . S
H2436 C2442 0.950 . S
H2437 C2443 0.950 . S
H2438 C2444 0.949 . S
C2439 H2434 0.950 . S
C2439 C2441 1.327 . S
C2439 C2445 1.429 . S
C2440 C2432 1.574 . S
C2440 H2435 0.949 . S
C2440 C2446 1.368 . S
C2441 C2425 1.349 . S
C2441 H2433 0.950 . S
C2441 C2439 1.327 . S
C2442 C2430 1.349 . S
C2442 H2436 0.950 . S
C2442 C2443 1.327 . S
C2443 H2437 0.950 . S
C2443 C2442 1.327 . S
C2443 C2447 1.429 . S
C2444 C2427 1.574 . S
C2444 H2438 0.949 . S
C2444 C2448 1.368 . S
C2445 C2426 1.429 . S
C2445 C2439 1.429 . S
C2445 C2446 1.523 . S
C2446 C2427 1.368 . S
C2446 C2440 1.368 . S
C2446 C2445 1.523 . S
C2447 C2431 1.429 . S
C2447 C2443 1.429 . S
C2447 C2448 1.523 . S
C2448 C2432 1.368 . S
C2448 C2444 1.368 . S
C2448 C2447 1.523 . S
H2449 C2424 0.950 . S
H2450 C2426 0.950 . S
H2451 C2427 0.949 . S
H2452 C2429 0.950 . S
H2453 C2431 0.950 . S
C2454 C2455 1.349 . S
C2454 C2456 1.327 . S
C2454 H2479 0.950 . S
C2455 C2454 1.349 . S
C2455 C2471 1.349 . S
C2456 C2454 1.327 . S
C2456 C2475 1.429 . S
C2456 H2480 0.950 . S
C2457 C2474 1.574 . S
C2457 C2476 1.368 . S
C2457 H2481 0.949 . S
H2458 C2462 0.949 . S
C2459 C2460 1.349 . S
C2459 C2461 1.327 . S
C2459 H2482 0.950 . S
C2460 C2459 1.349 . S
C2460 C2472 1.349 . S
C2461 C2459 1.327 . S
C2461 C2477 1.429 . S
C2461 H2483 0.950 . S
C2462 H2458 0.949 . S
C2462 C2470 1.574 . S
C2462 C2478 1.368 . S
H2463 C2471 0.950 . S
H2464 C2469 0.950 . S
H2465 C2470 0.949 . S
H2466 C2472 0.950 . S
H2467 C2473 0.950 . S
H2468 C2474 0.949 . S
C2469 H2464 0.950 . S
C2469 C2471 1.327 . S
C2469 C2475 1.429 . S
C2470 C2462 1.574 . S
C2470 H2465 0.949 . S
C2470 C2476 1.368 . S
C2471 C2455 1.349 . S
C2471 H2463 0.950 . S
C2471 C2469 1.327 . S
C2472 C2460 1.349 . S
C2472 H2466 0.950 . S
C2472 C2473 1.327 . S
C2473 H2467 0.950 . S
C2473 C2472 1.327 . S
C2473 C2477 1.429 . S
C2474 C2457 1.574 . S
C2474 H2468 0.949 . S
C2474 C2478 1.368 . S
C2475 C2456 1.429 . S
C2475 C2469 1.429 . S
C2475 C2476 1.523 . S
C2476 C2457 1.368 . S
C2476 C2470 1.368 . S
C2476 C2475 1.523 . S
C2477 C2461 1.429 . S
C2477 C2473 1.429 . S
C2477 C2478 1.523 . S
C2478 C2462 1.368 . S
C2478 C2474 1.368 . S
C2478 C2477 1.523 . S
H2479 C2454 0.950 . S
H2480 C2456 0.950 . S
H2481 C2457 0.949 . S
H2482 C2459 0.950 . S
H2483 C2461 0.950 . S
C2484 C2485 1.349 . S
C2484 C2486 1.327 . S
C2484 H2509 0.950 . S
C2485 C2484 1.349 . S
C2485 C2501 1.349 . S
C2486 C2484 1.327 . S
C2486 C2505 1.429 . S
C2486 H2510 0.950 . S
C2487 C2504 1.574 . S
C2487 C2506 1.368 . S
C2487 H2511 0.949 . S
H2488 C2492 0.949 . S
C2489 C2490 1.349 . S
C2489 C2491 1.327 . S
C2489 H2512 0.950 . S
C2490 C2489 1.349 . S
C2490 C2502 1.349 . S
C2491 C2489 1.327 . S
C2491 C2507 1.429 . S
C2491 H2513 0.950 . S
C2492 H2488 0.949 . S
C2492 C2500 1.574 . S
C2492 C2508 1.368 . S
H2493 C2501 0.950 . S
H2494 C2499 0.950 . S
H2495 C2500 0.949 . S
H2496 C2502 0.950 . S
H2497 C2503 0.950 . S
H2498 C2504 0.949 . S
C2499 H2494 0.950 . S
C2499 C2501 1.327 . S
C2499 C2505 1.429 . S
C2500 C2492 1.574 . S
C2500 H2495 0.949 . S
C2500 C2506 1.368 . S
C2501 C2485 1.349 . S
C2501 H2493 0.950 . S
C2501 C2499 1.327 . S
C2502 C2490 1.349 . S
C2502 H2496 0.950 . S
C2502 C2503 1.327 . S
C2503 H2497 0.950 . S
C2503 C2502 1.327 . S
C2503 C2507 1.429 . S
C2504 C2487 1.574 . S
C2504 H2498 0.949 . S
C2504 C2508 1.368 . S
C2505 C2486 1.429 . S
C2505 C2499 1.429 . S
C2505 C2506 1.523 . S
C2506 C2487 1.368 . S
C2506 C2500 1.368 . S
C2506 C2505 1.523 . S
C2507 C2491 1.429 . S
C2507 C2503 1.429 . S
C2507 C2508 1.523 . S
C2508 C2492 1.368 . S
C2508 C2504 1.368 . S
C2508 C2507 1.523 . S
H2509 C2484 0.950 . S
H2510 C2486 0.950 . S
H2511 C2487 0.949 . S
H2512 C2489 0.950 . S
H2513 C2491 0.950 . S
C2514 C2515 1.349 . S
C2514 C2516 1.327 . S
C2514 H2539 0.950 . S
C2515 C2514 1.349 . S
C2515 C2531 1.349 . S
C2516 C2514 1.327 . S
C2516 C2535 1.429 . S
C2516 H2540 0.950 . S
C2517 C2534 1.574 . S
C2517 C2536 1.368 . S
C2517 H2541 0.949 . S
H2518 C2522 0.949 . S
C2519 C2520 1.349 . S
C2519 C2521 1.327 . S
C2519 H2542 0.950 . S
C2520 C2519 1.349 . S
C2520 C2532 1.349 . S
C2521 C2519 1.327 . S
C2521 C2537 1.429 . S
C2521 H2543 0.950 . S
C2522 H2518 0.949 . S
C2522 C2530 1.574 . S
C2522 C2538 1.368 . S
H2523 C2531 0.950 . S
H2524 C2529 0.950 . S
H2525 C2530 0.949 . S
H2526 C2532 0.950 . S
H2527 C2533 0.950 . S
H2528 C2534 0.949 . S
C2529 H2524 0.950 . S
C2529 C2531 1.327 . S
C2529 C2535 1.429 . S
C2530 C2522 1.574 . S
C2530 H2525 0.949 . S
C2530 C2536 1.368 . S
C2531 C2515 1.349 . S
C2531 H2523 0.950 . S
C2531 C2529 1.327 . S
C2532 C2520 1.349 . S
C2532 H2526 0.950 . S
C2532 C2533 1.327 . S
C2533 H2527 0.950 . S
C2533 C2532 1.327 . S
C2533 C2537 1.429 . S
C2534 C2517 1.574 . S
C2534 H2528 0.949 . S
C2534 C2538 1.368 . S
C2535 C2516 1.429 . S
C2535 C2529 1.429 . S
C2535 C2536 1.523 . S
C2536 C2517 1.368 . S
C2536 C2530 1.368 . S
C2536 C2535 1.523 . S
C2537 C2521 1.429 . S
C2537 C2533 1.429 . S
C2537 C2538 1.523 . S
C2538 C2522 1.368 . S
C2538 C2534 1.368 . S
C2538 C2537 1.523 . S
H2539 C2514 0.950 . S
H2540 C2516 0.950 . S
H2541 C2517 0.949 . S
H2542 C2519 0.950 . S
H2543 C2521 0.950 . S
C2544 C2545 1.349 . S
C2544 C2546 1.327 . S
C2544 H2569 0.950 . S
C2545 C2544 1.349 . S
C2545 C2561 1.349 . S
C2546 C2544 1.327 . S
C2546 C2565 1.429 . S
C2546 H2570 0.950 . S
C2547 C2564 1.574 . S
C2547 C2566 1.368 . S
C2547 H2571 0.949 . S
H2548 C2552 0.949 . S
C2549 C2550 1.349 . S
C2549 C2551 1.327 . S
C2549 H2572 0.950 . S
C2550 C2549 1.349 . S
C2550 C2562 1.349 . S
C2551 C2549 1.327 . S
C2551 C2567 1.429 . S
C2551 H2573 0.950 . S
C2552 H2548 0.949 . S
C2552 C2560 1.574 . S
C2552 C2568 1.368 . S
H2553 C2561 0.950 . S
H2554 C2559 0.950 . S
H2555 C2560 0.949 . S
H2556 C2562 0.950 . S
H2557 C2563 0.950 . S
H2558 C2564 0.949 . S
C2559 H2554 0.950 . S
C2559 C2561 1.327 . S
C2559 C2565 1.429 . S
C2560 C2552 1.574 . S
C2560 H2555 0.949 . S
C2560 C2566 1.368 . S
C2561 C2545 1.349 . S
C2561 H2553 0.950 . S
C2561 C2559 1.327 . S
C2562 C2550 1.349 . S
C2562 H2556 0.950 . S
C2562 C2563 1.327 . S
C2563 H2557 0.950 . S
C2563 C2562 1.327 . S
C2563 C2567 1.429 . S
C2564 C2547 1.574 . S
C2564 H2558 0.949 . S
C2564 C2568 1.368 . S
C2565 C2546 1.429 . S
C2565 C2559 1.429 . S
C2565 C2566 1.523 . S
C2566 C2547 1.368 . S
C2566 C2560 1.368 . S
C2566 C2565 1.523 . S
C2567 C2551 1.429 . S
C2567 C2563 1.429 . S
C2567 C2568 1.523 . S
C2568 C2552 1.368 . S
C2568 C2564 1.368 . S
C2568 C2567 1.523 . S
H2569 C2544 0.950 . S
H2570 C2546 0.950 . S
H2571 C2547 0.949 . S
H2572 C2549 0.950 . S
H2573 C2551 0.950 . S
C2574 C2575 1.349 . S
C2574 C2576 1.327 . S
C2574 H2599 0.950 . S
C2575 C2574 1.349 . S
C2575 C2591 1.349 . S
C2576 C2574 1.327 . S
C2576 C2595 1.429 . S
C2576 H2600 0.950 . S
C2577 C2594 1.574 . S
C2577 C2596 1.368 . S
C2577 H2601 0.949 . S
H2578 C2582 0.949 . S
C2579 C2580 1.349 . S
C2579 C2581 1.327 . S
C2579 H2602 0.950 . S
C2580 C2579 1.349 . S
C2580 C2592 1.349 . S
C2581 C2579 1.327 . S
C2581 C2597 1.429 . S
C2581 H2603 0.950 . S
C2582 H2578 0.949 . S
C2582 C2590 1.574 . S
C2582 C2598 1.368 . S
H2583 C2591 0.950 . S
H2584 C2589 0.950 . S
H2585 C2590 0.949 . S
H2586 C2592 0.950 . S
H2587 C2593 0.950 . S
H2588 C2594 0.949 . S
C2589 H2584 0.950 . S
C2589 C2591 1.327 . S
C2589 C2595 1.429 . S
C2590 C2582 1.574 . S
C2590 H2585 0.949 . S
C2590 C2596 1.368 . S
C2591 C2575 1.349 . S
C2591 H2583 0.950 . S
C2591 C2589 1.327 . S
C2592 C2580 1.349 . S
C2592 H2586 0.950 . S
C2592 C2593 1.327 . S
C2593 H2587 0.950 . S
C2593 C2592 1.327 . S
C2593 C2597 1.429 . S
C2594 C2577 1.574 . S
C2594 H2588 0.949 . S
C2594 C2598 1.368 . S
C2595 C2576 1.429 . S
C2595 C2589 1.429 . S
C2595 C2596 1.523 . S
C2596 C2577 1.368 . S
C2596 C2590 1.368 . S
C2596 C2595 1.523 . S
C2597 C2581 1.429 . S
C2597 C2593 1.429 . S
C2597 C2598 1.523 . S
C2598 C2582 1.368 . S
C2598 C2594 1.368 . S
C2598 C2597 1.523 . S
H2599 C2574 0.950 . S
H2600 C2576 0.950 . S
H2601 C2577 0.949 . S
H2602 C2579 0.950 . S
H2603 C2581 0.950 . S
C2604 C2605 1.349 . S
C2604 C2606 1.327 . S
C2604 H2629 0.950 . S
C2605 C2604 1.349 . S
C2605 C2621 1.349 . S
C2606 C2604 1.327 . S
C2606 C2625 1.429 . S
C2606 H2630 0.950 . S
C2607 C2624 1.574 . S
C2607 C2626 1.368 . S
C2607 H2631 0.949 . S
H2608 C2612 0.949 . S
C2609 C2610 1.349 . S
C2609 C2611 1.327 . S
C2609 H2632 0.950 . S
C2610 C2609 1.349 . S
C2610 C2622 1.349 . S
C2611 C2609 1.327 . S
C2611 C2627 1.429 . S
C2611 H2633 0.950 . S
C2612 H2608 0.949 . S
C2612 C2620 1.574 . S
C2612 C2628 1.368 . S
H2613 C2621 0.950 . S
H2614 C2619 0.950 . S
H2615 C2620 0.949 . S
H2616 C2622 0.950 . S
H2617 C2623 0.950 . S
H2618 C2624 0.949 . S
C2619 H2614 0.950 . S
C2619 C2621 1.327 . S
C2619 C2625 1.429 . S
C2620 C2612 1.574 . S
C2620 H2615 0.949 . S
C2620 C2626 1.368 . S
C2621 C2605 1.349 . S
C2621 H2613 0.950 . S
C2621 C2619 1.327 . S
C2622 C2610 1.349 . S
C2622 H2616 0.950 . S
C2622 C2623 1.327 . S
C2623 H2617 0.950 . S
C2623 C2622 1.327 . S
C2623 C2627 1.429 . S
C2624 C2607 1.574 . S
C2624 H2618 0.949 . S
C2624 C2628 1.368 . S
C2625 C2606 1.429 . S
C2625 C2619 1.429 . S
C2625 C2626 1.523 . S
C2626 C2607 1.368 . S
C2626 C2620 1.368 . S
C2626 C2625 1.523 . S
C2627 C2611 1.429 . S
C2627 C2623 1.429 . S
C2627 C2628 1.523 . S
C2628 C2612 1.368 . S
C2628 C2624 1.368 . S
C2628 C2627 1.523 . S
H2629 C2604 0.950 . S
H2630 C2606 0.950 . S
H2631 C2607 0.949 . S
H2632 C2609 0.950 . S
H2633 C2611 0.950 . S
C2634 C2635 1.349 . S
C2634 C2636 1.327 . S
C2634 H2659 0.950 . S
C2635 C2634 1.349 . S
C2635 C2651 1.349 . S
C2636 C2634 1.327 . S
C2636 C2655 1.429 . S
C2636 H2660 0.950 . S
C2637 C2654 1.574 . S
C2637 C2656 1.368 . S
C2637 H2661 0.949 . S
H2638 C2642 0.949 . S
C2639 C2640 1.349 . S
C2639 C2641 1.327 . S
C2639 H2662 0.950 . S
C2640 C2639 1.349 . S
C2640 C2652 1.349 . S
C2641 C2639 1.327 . S
C2641 C2657 1.429 . S
C2641 H2663 0.950 . S
C2642 H2638 0.949 . S
C2642 C2650 1.574 . S
C2642 C2658 1.368 . S
H2643 C2651 0.950 . S
H2644 C2649 0.950 . S
H2645 C2650 0.949 . S
H2646 C2652 0.950 . S
H2647 C2653 0.950 . S
H2648 C2654 0.949 . S
C2649 H2644 0.950 . S
C2649 C2651 1.327 . S
C2649 C2655 1.429 . S
C2650 C2642 1.574 . S
C2650 H2645 0.949 . S
C2650 C2656 1.368 . S
C2651 C2635 1.349 . S
C2651 H2643 0.950 . S
C2651 C2649 1.327 . S
C2652 C2640 1.349 . S
C2652 H2646 0.950 . S
C2652 C2653 1.327 . S
C2653 H2647 0.950 . S
C2653 C2652 1.327 . S
C2653 C2657 1.429 . S
C2654 C2637 1.574 . S
C2654 H2648 0.949 . S
C2654 C2658 1.368 . S
C2655 C2636 1.429 . S
C2655 C2649 1.429 . S
C2655 C2656 1.523 . S
C2656 C2637 1.368 . S
C2656 C2650 1.368 . S
C2656 C2655 1.523 . S
C2657 C2641 1.429 . S
C2657 C2653 1.429 . S
C2657 C2658 1.523 . S
C2658 C2642 1.368 . S
C2658 C2654 1.368 . S
C2658 C2657 1.523 . S
H2659 C2634 0.950 . S
H2660 C2636 0.950 . S
H2661 C2637 0.949 . S
H2662 C2639 0.950 . S
H2663 C2641 0.950 . S
C2664 C2665 1.349 . S
C2664 C2666 1.327 . S
C2664 H2689 0.950 . S
C2665 C2664 1.349 . S
C2665 C2681 1.349 . S
C2666 C2664 1.327 . S
C2666 C2685 1.429 . S
C2666 H2690 0.950 . S
C2667 C2684 1.574 . S
C2667 C2686 1.368 . S
C2667 H2691 0.949 . S
H2668 C2672 0.949 . S
C2669 C2670 1.349 . S
C2669 C2671 1.327 . S
C2669 H2692 0.950 . S
C2670 C2669 1.349 . S
C2670 C2682 1.349 . S
C2671 C2669 1.327 . S
C2671 C2687 1.429 . S
C2671 H2693 0.950 . S
C2672 H2668 0.949 . S
C2672 C2680 1.574 . S
C2672 C2688 1.368 . S
H2673 C2681 0.950 . S
H2674 C2679 0.950 . S
H2675 C2680 0.949 . S
H2676 C2682 0.950 . S
H2677 C2683 0.950 . S
H2678 C2684 0.949 . S
C2679 H2674 0.950 . S
C2679 C2681 1.327 . S
C2679 C2685 1.429 . S
C2680 C2672 1.574 . S
C2680 H2675 0.949 . S
C2680 C2686 1.368 . S
C2681 C2665 1.349 . S
C2681 H2673 0.950 . S
C2681 C2679 1.327 . S
C2682 C2670 1.349 . S
C2682 H2676 0.950 . S
C2682 C2683 1.327 . S
C2683 H2677 0.950 . S
C2683 C2682 1.327 . S
C2683 C2687 1.429 . S
C2684 C2667 1.574 . S
C2684 H2678 0.949 . S
C2684 C2688 1.368 . S
C2685 C2666 1.429 . S
C2685 C2679 1.429 . S
C2685 C2686 1.523 . S
C2686 C2667 1.368 . S
C2686 C2680 1.368 . S
C2686 C2685 1.523 . S
C2687 C2671 1.429 . S
C2687 C2683 1.429 . S
C2687 C2688 1.523 . S
C2688 C2672 1.368 . S
C2688 C2684 1.368 . S
C2688 C2687 1.523 . S
H2689 C2664 0.950 . S
H2690 C2666 0.950 . S
H2691 C2667 0.949 . S
H2692 C2669 0.950 . S
H2693 C2671 0.950 . S
C2694 C2695 1.349 . S
C2694 C2696 1.327 . S
C2694 H2719 0.950 . S
C2695 C2694 1.349 . S
C2695 C2711 1.349 . S
C2696 C2694 1.327 . S
C2696 C2715 1.429 . S
C2696 H2720 0.950 . S
C2697 C2714 1.574 . S
C2697 C2716 1.368 . S
C2697 H2721 0.949 . S
H2698 C2702 0.949 . S
C2699 C2700 1.349 . S
C2699 C2701 1.327 . S
C2699 H2722 0.950 . S
C2700 C2699 1.349 . S
C2700 C2712 1.349 . S
C2701 C2699 1.327 . S
C2701 C2717 1.429 . S
C2701 H2723 0.950 . S
C2702 H2698 0.949 . S
C2702 C2710 1.574 . S
C2702 C2718 1.368 . S
H2703 C2711 0.950 . S
H2704 C2709 0.950 . S
H2705 C2710 0.949 . S
H2706 C2712 0.950 . S
H2707 C2713 0.950 . S
H2708 C2714 0.949 . S
C2709 H2704 0.950 . S
C2709 C2711 1.327 . S
C2709 C2715 1.429 . S
C2710 C2702 1.574 . S
C2710 H2705 0.949 . S
C2710 C2716 1.368 . S
C2711 C2695 1.349 . S
C2711 H2703 0.950 . S
C2711 C2709 1.327 . S
C2712 C2700 1.349 . S
C2712 H2706 0.950 . S
C2712 C2713 1.327 . S
C2713 H2707 0.950 . S
C2713 C2712 1.327 . S
C2713 C2717 1.429 . S
C2714 C2697 1.574 . S
C2714 H2708 0.949 . S
C2714 C2718 1.368 . S
C2715 C2696 1.429 . S
C2715 C2709 1.429 . S
C2715 C2716 1.523 . S
C2716 C2697 1.368 . S
C2716 C2710 1.368 . S
C2716 C2715 1.523 . S
C2717 C2701 1.429 . S
C2717 C2713 1.429 . S
C2717 C2718 1.523 . S
C2718 C2702 1.368 . S
C2718 C2714 1.368 . S
C2718 C2717 1.523 . S
H2719 C2694 0.950 . S
H2720 C2696 0.950 . S
H2721 C2697 0.949 . S
H2722 C2699 0.950 . S
H2723 C2701 0.950 . S
C2724 C2725 1.349 . S
C2724 C2726 1.327 . S
C2724 H2749 0.950 . S
C2725 C2724 1.349 . S
C2725 C2741 1.349 . S
C2726 C2724 1.327 . S
C2726 C2745 1.429 . S
C2726 H2750 0.950 . S
C2727 C2744 1.574 . S
C2727 C2746 1.368 . S
C2727 H2751 0.949 . S
H2728 C2732 0.949 . S
C2729 C2730 1.349 . S
C2729 C2731 1.327 . S
C2729 H2752 0.950 . S
C2730 C2729 1.349 . S
C2730 C2742 1.349 . S
C2731 C2729 1.327 . S
C2731 C2747 1.429 . S
C2731 H2753 0.950 . S
C2732 H2728 0.949 . S
C2732 C2740 1.574 . S
C2732 C2748 1.368 . S
H2733 C2741 0.950 . S
H2734 C2739 0.950 . S
H2735 C2740 0.949 . S
H2736 C2742 0.950 . S
H2737 C2743 0.950 . S
H2738 C2744 0.949 . S
C2739 H2734 0.950 . S
C2739 C2741 1.327 . S
C2739 C2745 1.429 . S
C2740 C2732 1.574 . S
C2740 H2735 0.949 . S
C2740 C2746 1.368 . S
C2741 C2725 1.349 . S
C2741 H2733 0.950 . S
C2741 C2739 1.327 . S
C2742 C2730 1.349 . S
C2742 H2736 0.950 . S
C2742 C2743 1.327 . S
C2743 H2737 0.950 . S
C2743 C2742 1.327 . S
C2743 C2747 1.429 . S
C2744 C2727 1.574 . S
C2744 H2738 0.949 . S
C2744 C2748 1.368 . S
C2745 C2726 1.429 . S
C2745 C2739 1.429 . S
C2745 C2746 1.523 . S
C2746 C2727 1.368 . S
C2746 C2740 1.368 . S
C2746 C2745 1.523 . S
C2747 C2731 1.429 . S
C2747 C2743 1.429 . S
C2747 C2748 1.523 . S
C2748 C2732 1.368 . S
C2748 C2744 1.368 . S
C2748 C2747 1.523 . S
H2749 C2724 0.950 . S
H2750 C2726 0.950 . S
H2751 C2727 0.949 . S
H2752 C2729 0.950 . S
H2753 C2731 0.950 . S
C2754 C2755 1.349 . S
C2754 C2756 1.327 . S
C2754 H2779 0.950 . S
C2755 C2754 1.349 . S
C2755 C2771 1.349 . S
C2756 C2754 1.327 . S
C2756 C2775 1.429 . S
C2756 H2780 0.950 . S
C2757 C2774 1.574 . S
C2757 C2776 1.368 . S
C2757 H2781 0.949 . S
H2758 C2762 0.949 . S
C2759 C2760 1.349 . S
C2759 C2761 1.327 . S
C2759 H2782 0.950 . S
C2760 C2759 1.349 . S
C2760 C2772 1.349 . S
C2761 C2759 1.327 . S
C2761 C2777 1.429 . S
C2761 H2783 0.950 . S
C2762 H2758 0.949 . S
C2762 C2770 1.574 . S
C2762 C2778 1.368 . S
H2763 C2771 0.950 . S
H2764 C2769 0.950 . S
H2765 C2770 0.949 . S
H2766 C2772 0.950 . S
H2767 C2773 0.950 . S
H2768 C2774 0.949 . S
C2769 H2764 0.950 . S
C2769 C2771 1.327 . S
C2769 C2775 1.429 . S
C2770 C2762 1.574 . S
C2770 H2765 0.949 . S
C2770 C2776 1.368 . S
C2771 C2755 1.349 . S
C2771 H2763 0.950 . S
C2771 C2769 1.327 . S
C2772 C2760 1.349 . S
C2772 H2766 0.950 . S
C2772 C2773 1.327 . S
C2773 H2767 0.950 . S
C2773 C2772 1.327 . S
C2773 C2777 1.429 . S
C2774 C2757 1.574 . S
C2774 H2768 0.949 . S
C2774 C2778 1.368 . S
C2775 C2756 1.429 . S
C2775 C2769 1.429 . S
C2775 C2776 1.523 . S
C2776 C2757 1.368 . S
C2776 C2770 1.368 . S
C2776 C2775 1.523 . S
C2777 C2761 1.429 . S
C2777 C2773 1.429 . S
C2777 C2778 1.523 . S
C2778 C2762 1.368 . S
C2778 C2774 1.368 . S
C2778 C2777 1.523 . S
H2779 C2754 0.950 . S
H2780 C2756 0.950 . S
H2781 C2757 0.949 . S
H2782 C2759 0.950 . S
H2783 C2761 0.950 . S
C630 C354 1.145 . S
C625 N300 1.170 . S
C655 N278 1.463 . S
C660 C348 1.416 . S
C690 C316 1.556 . S
C685 N265 1.615 . S
C715 N287 1.358 . S
C720 C330 1.304 . S
C750 C368 1.751 . S
C745 N213 1.817 . S
C780 C455 1.201 . S
C775 N226 1.203 . S
C805 N239 1.858 . S
C810 C382 1.806 . S
C840 C450 1.099 . S
C835 N252 1.097 . S
C865 N161 1.880 . S
C870 C406 1.824 . S
C900 C461 1.522 . S
C895 N174 1.544 . S
C925 N187 1.795 . S
C930 C400 1.756 . S
C955 N200 0.908 . S
C960 C446 0.908 . S
C990 C502 0.941 . S
C985 N144 0.936 . S
C1015 N122 1.612 . S
C1020 C513 1.622 . S
C1045 N109 1.299 . S
C1050 C498 1.295 . S
C1080 C507 1.416 . S
C1075 N131 1.414 1_554 S
C1105 N57 1.295 . S
C1110 C552 1.260 . S
C1135 N70 0.442 . S
C1140 C611 0.426 . S
C1165 N83 1.474 . S
C1170 C568 1.426 . S
C1195 N96 1.047 . S
C1200 C606 1.049 . S
C1230 C570 1.417 . S
C1225 N5 1.473 . S
C1260 C617 0.615 . S
C1255 N18 0.611 . S
C1285 N31 1.306 . S
C1290 C546 1.280 . S
C1320 C602 0.785 . S
C1315 N44 0.784 . S
C1350 C338 1.208 . S
C1345 N2 1.233 . S
C1375 N15 1.235 . S
C1380 C342 1.249 . S
C1405 N27 1.760 . S
C1410 C362 1.661 . S
C1435 N41 0.713 . S
C1440 C357 0.710 . S
C1465 N54 1.296 . S
C1470 C360 1.270 . S
C1500 C346 0.961 . S
C1495 N67 0.950 . S
C1525 N79 1.691 . S
C1530 C344 1.617 . S
C1560 C351 0.941 . S
C1555 N93 0.937 . S
C1590 C414 1.606 . S
C1585 N40 1.708 . S
C1615 N1 1.989 . S
C1620 C464 1.860 . S
C1650 C412 1.352 . S
C1645 N14 1.423 . S
C1680 C448 1.355 . S
C1675 N28 1.388 . S
C1705 N66 1.313 . S
C1710 C390 1.256 . S
C1740 C466 1.425 . S
C1735 N80 1.452 . S
C1770 C396 1.567 . S
C1765 N92 1.646 . S
C1800 C442 1.774 . S
C1795 N53 1.865 . S
C1830 C434 1.492 . S
C1825 N106 1.522 . S
C1855 N119 1.311 . S
C1860 C458 1.299 . S
C1890 C394 1.525 . S
C1885 N105 1.549 . S
C1920 C420 1.547 . S
C1915 N135 1.613 1_554 S
C1945 N145 0.899 . S
C1950 C398 0.913 . S
C1975 N148 1.718 . S
C1980 C452 1.649 . S
C2010 C409 1.772 . S
C2005 N118 1.793 . S
C2040 C403 1.268 . S
C2035 N132 1.217 1_554 S
C2070 C486 1.595 . S
C2065 N158 1.623 . S
C2100 C518 1.445 . S
C2095 N171 1.470 . S
C2125 N183 2.086 . S
C2130 C472 1.999 . S
C2160 C516 0.893 . S
C2155 N197 0.900 . S
C2190 C504 1.570 . S
C2185 N210 1.576 . S
C2215 N223 1.121 . S
C2220 C500 1.132 . S
C2245 N235 2.104 . S
C2250 C510 2.015 . S
C2280 C494 1.095 . S
C2275 N249 1.121 . S
C2310 C559 1.466 . S
C2305 N196 1.500 . S
C2335 N157 1.664 . S
C2340 C620 1.571 . S
C2370 C554 1.180 . S
C2365 N170 1.191 . S
C2400 C604 1.154 . S
C2395 N184 1.137 . S
C2430 C550 1.118 . S
C2425 N222 1.126 . S
C2455 N236 1.132 . S
C2460 C622 1.142 . S
C2490 C565 1.443 . S
C2485 N248 1.468 . S
C2520 C598 1.429 . S
C2515 N209 1.489 . S
C2550 C590 1.646 . S
C2545 N262 1.699 . S
C2575 N275 1.790 . S
C2580 C614 1.716 . S
C2610 C556 1.728 . S
C2605 N261 1.803 . S
C2635 N291 2.123 . S
C2640 C576 1.985 . S
C2670 C538 1.252 . S
C2665 N301 1.272 . S
C2700 C608 1.770 . S
C2695 N304 1.864 . S
C2730 C524 1.732 . S
C2725 N274 1.833 . S
C2755 N288 1.192 . S
C2760 C562 1.177 . S
