# Generated by pormake.
# Topology pyr, (3,6)-cn, num edge types: 1
# Building blocks:
#     Node 0, Type 0, BuildingBlock: KAKCAD_clean_linker_0, # of connection points: 3
#     Node 1, Type 0, BuildingBlock: KAKCAD_clean_linker_0, # of connection points: 3
#     Node 2, Type 0, BuildingBlock: KAKCAD_clean_linker_0, # of connection points: 3
#     Node 3, Type 0, BuildingBlock: KAKCAD_clean_linker_0, # of connection points: 3
#     Node 4, Type 0, BuildingBlock: KAKCAD_clean_linker_0, # of connection points: 3
#     Node 5, Type 0, BuildingBlock: KAKCAD_clean_linker_0, # of connection points: 3
#     Node 6, Type 0, BuildingBlock: KAKCAD_clean_linker_0, # of connection points: 3
#     Node 7, Type 0, BuildingBlock: KAKCAD_clean_linker_0, # of connection points: 3
#     Node 8, Type 1, BuildingBlock: BETGAK_clean_sbu_0, # of connection points: 6
#     Node 9, Type 1, BuildingBlock: BETGAK_clean_sbu_0, # of connection points: 6
#     Node 10, Type 1, BuildingBlock: BETGAK_clean_sbu_0, # of connection points: 6
#     Node 11, Type 1, BuildingBlock: BETGAK_clean_sbu_0, # of connection points: 6
#     Edge 12, Type (0, 1), BuildingBlock: OJICUG_clean_linker_0, # of connection points: 2
#     Edge 13, Type (0, 1), BuildingBlock: OJICUG_clean_linker_0, # of connection points: 2
#     Edge 14, Type (0, 1), BuildingBlock: OJICUG_clean_linker_0, # of connection points: 2
#     Edge 15, Type (0, 1), BuildingBlock: OJICUG_clean_linker_0, # of connection points: 2
#     Edge 16, Type (0, 1), BuildingBlock: OJICUG_clean_linker_0, # of connection points: 2
#     Edge 17, Type (0, 1), BuildingBlock: OJICUG_clean_linker_0, # of connection points: 2
#     Edge 18, Type (0, 1), BuildingBlock: OJICUG_clean_linker_0, # of connection points: 2
#     Edge 19, Type (0, 1), BuildingBlock: OJICUG_clean_linker_0, # of connection points: 2
#     Edge 20, Type (0, 1), BuildingBlock: OJICUG_clean_linker_0, # of connection points: 2
#     Edge 21, Type (0, 1), BuildingBlock: OJICUG_clean_linker_0, # of connection points: 2
#     Edge 22, Type (0, 1), BuildingBlock: OJICUG_clean_linker_0, # of connection points: 2
#     Edge 23, Type (0, 1), BuildingBlock: OJICUG_clean_linker_0, # of connection points: 2
#     Edge 24, Type (0, 1), BuildingBlock: OJICUG_clean_linker_0, # of connection points: 2
#     Edge 25, Type (0, 1), BuildingBlock: OJICUG_clean_linker_0, # of connection points: 2
#     Edge 26, Type (0, 1), BuildingBlock: OJICUG_clean_linker_0, # of connection points: 2
#     Edge 27, Type (0, 1), BuildingBlock: OJICUG_clean_linker_0, # of connection points: 2
#     Edge 28, Type (0, 1), BuildingBlock: OJICUG_clean_linker_0, # of connection points: 2
#     Edge 29, Type (0, 1), BuildingBlock: OJICUG_clean_linker_0, # of connection points: 2
#     Edge 30, Type (0, 1), BuildingBlock: OJICUG_clean_linker_0, # of connection points: 2
#     Edge 31, Type (0, 1), BuildingBlock: OJICUG_clean_linker_0, # of connection points: 2
#     Edge 32, Type (0, 1), BuildingBlock: OJICUG_clean_linker_0, # of connection points: 2
#     Edge 33, Type (0, 1), BuildingBlock: OJICUG_clean_linker_0, # of connection points: 2
#     Edge 34, Type (0, 1), BuildingBlock: OJICUG_clean_linker_0, # of connection points: 2
#     Edge 35, Type (0, 1), BuildingBlock: OJICUG_clean_linker_0, # of connection points: 2
# Relax obj value: 0.134
# Max RMSD: 0.129
# Mean RMSD: 0.063
data_MOF--net-pyr--node1-BETGAK_clean_sbu_0--node2-KAKCAD_clean_linker_0--edge1-OJICUG_clean_linker_0
_symmetry_space_group_name_H-M    P1
_symmetry_Int_Tables_number       1
_symmetry_cell_setting            triclinic
loop_
_symmetry_equiv_pos_as_xyz
'x, y, z'
_cell_length_a     36.932371
_cell_length_b     37.844586
_cell_length_c     33.34617
_cell_angle_alpha  90.051989
_cell_angle_beta   87.996434
_cell_angle_gamma 103.42626
loop_
_atom_site_label
_atom_site_type_symbol
_atom_site_fract_x
_atom_site_fract_y
_atom_site_fract_z
_atom_type_partial_charge
C0 C 0.27782 0.31462 0.3662 0.0
C1 C 0.29197 0.29672 0.39673 0.0
C2 C 0.30125 0.33282 0.33551 0.0
C3 C 0.33962 0.33392 0.33458 0.0
C4 C 0.35431 0.31859 0.3669 0.0
C5 C 0.33066 0.30005 0.39765 0.0
C6 C 0.36222 0.34576 0.29709 0.0
C7 C 0.35429 0.37324 0.27311 0.0
C8 C 0.36565 0.37681 0.23241 0.0
C9 C 0.38821 0.35455 0.21653 0.0
C10 C 0.39876 0.32858 0.24098 0.0
C11 C 0.38567 0.3245 0.28119 0.0
C12 C 0.41817 0.30151 0.22374 0.0
C13 C 0.40579 0.28314 0.18836 0.0
C14 C 0.44602 0.29067 0.24506 0.0
C15 C 0.45994 0.26102 0.23229 0.0
C16 C 0.44606 0.24146 0.1981 0.0
C17 C 0.34686 0.39803 0.20604 0.0
C18 C 0.32671 0.3808 0.17364 0.0
C19 C 0.3418 0.43215 0.21833 0.0
C20 C 0.31426 0.44676 0.20163 0.0
C21 C 0.2913 0.42756 0.17226 0.0
C22 C 0.29915 0.39543 0.15691 0.0
C23 C 0.41954 0.25341 0.17573 0.0
H24 H 0.24814 0.31213 0.36405 0.0
H25 H 0.28854 0.34346 0.31089 0.0
H26 H 0.38379 0.31939 0.3674 0.0
H27 H 0.34242 0.28689 0.4211 0.0
H28 H 0.33583 0.38943 0.28509 0.0
H29 H 0.39075 0.30221 0.29881 0.0
H30 H 0.3963 0.35652 0.1849 0.0
H31 H 0.38407 0.29055 0.17151 0.0
H32 H 0.45615 0.30442 0.27239 0.0
H33 H 0.48035 0.25245 0.25014 0.0
H34 H 0.3297 0.35431 0.16377 0.0
H35 H 0.3572 0.44617 0.24301 0.0
H36 H 0.40877 0.23923 0.14887 0.0
H37 H 0.28193 0.37992 0.13437 0.0
H38 H 0.30942 0.472 0.21344 0.0
C39 C 0.19506 0.84461 0.90312 0.0
C40 C 0.23279 0.84745 0.91094 0.0
C41 C 0.18122 0.83298 0.86561 0.0
C42 C 0.20497 0.82433 0.83513 0.0
C43 C 0.24207 0.82496 0.8441 0.0
C44 C 0.25571 0.83617 0.88155 0.0
C45 C 0.19318 0.81945 0.79285 0.0
C46 C 0.17247 0.84238 0.77636 0.0
C47 C 0.16877 0.84422 0.73466 0.0
C48 C 0.1859 0.82276 0.70932 0.0
C49 C 0.20591 0.79927 0.72543 0.0
C50 C 0.20822 0.79672 0.76714 0.0
C51 C 0.23057 0.78274 0.69954 0.0
C52 C 0.23024 0.74578 0.70364 0.0
C53 C 0.25916 0.80539 0.67632 0.0
C54 C 0.28867 0.79195 0.66029 0.0
C55 C 0.28959 0.75553 0.66667 0.0
C56 C 0.15102 0.87184 0.71754 0.0
C57 C 0.11709 0.87714 0.73388 0.0
C58 C 0.16893 0.89427 0.68578 0.0
C59 C 0.15343 0.9216 0.67084 0.0
C60 C 0.11965 0.92712 0.68727 0.0
C61 C 0.10142 0.90443 0.71872 0.0
C62 C 0.25939 0.73218 0.68695 0.0
H63 H 0.17668 0.85285 0.92541 0.0
H64 H 0.15237 0.83226 0.85993 0.0
H65 H 0.26158 0.81934 0.82135 0.0
H66 H 0.28506 0.83864 0.88629 0.0
H67 H 0.16191 0.86113 0.79551 0.0
H68 H 0.22461 0.77919 0.77931 0.0
H69 H 0.18473 0.82512 0.67702 0.0
H70 H 0.20857 0.72797 0.7217 0.0
H71 H 0.26021 0.83412 0.67323 0.0
H72 H 0.31169 0.81038 0.6447 0.0
H73 H 0.10271 0.86017 0.75837 0.0
H74 H 0.19539 0.89121 0.67297 0.0
H75 H 0.25969 0.70404 0.6925 0.0
H76 H 0.07539 0.90816 0.732 0.0
H77 H 0.16785 0.93834 0.64619 0.0
C78 C 0.78167 0.47851 0.95966 0.0
C79 C 0.80401 0.45774 0.97753 0.0
C80 C 0.74785 0.46174 0.94239 0.0
C81 C 0.73546 0.42358 0.94175 0.0
C82 C 0.75804 0.40292 0.95928 0.0
C83 C 0.79128 0.41963 0.97729 0.0
C84 C 0.69934 0.40522 0.92319 0.0
C85 C 0.68585 0.42061 0.88986 0.0
C86 C 0.6524 0.40303 0.87183 0.0
C87 C 0.63301 0.3687 0.88695 0.0
C88 C 0.64578 0.35285 0.92028 0.0
C89 C 0.6784 0.37164 0.93845 0.0
C90 C 0.62567 0.31637 0.93627 0.0
C91 C 0.61777 0.31089 0.97766 0.0
C92 C 0.61622 0.28632 0.91072 0.0
C93 C 0.60023 0.25149 0.92631 0.0
C94 C 0.59269 0.24576 0.96791 0.0
C95 C 0.63774 0.42079 0.83753 0.0
C96 C 0.64086 0.45863 0.83683 0.0
C97 C 0.6203 0.40028 0.80532 0.0
C98 C 0.6065 0.41705 0.77352 0.0
C99 C 0.60964 0.4549 0.77285 0.0
C100 C 0.6271 0.47538 0.80506 0.0
C101 C 0.60128 0.27625 0.99319 0.0
H102 H 0.79035 0.50784 0.9585 0.0
H103 H 0.73133 0.47889 0.92983 0.0
H104 H 0.75037 0.37353 0.9589 0.0
H105 H 0.8068 0.40231 0.99131 0.0
H106 H 0.70191 0.44595 0.87711 0.0
H107 H 0.68761 0.35961 0.96452 0.0
H108 H 0.60731 0.3547 0.87367 0.0
H109 H 0.62434 0.33354 0.99813 0.0
H110 H 0.62234 0.28954 0.87875 0.0
H111 H 0.59468 0.22894 0.90568 0.0
H112 H 0.65361 0.47543 0.86119 0.0
H113 H 0.61759 0.37119 0.80439 0.0
H114 H 0.59514 0.27356 1.02516 0.0
H115 H 0.63056 0.50457 0.80564 0.0
H116 H 0.59292 0.40016 0.74965 0.0
C117 C 0.878 0.64321 0.26475 0.0
C118 C 0.91657 0.64577 0.26013 0.0
C119 C 0.86341 0.6614 0.29589 0.0
C120 C 0.8868 0.68258 0.32385 0.0
C121 C 0.9255 0.68577 0.31868 0.0
C122 C 0.94013 0.66777 0.28728 0.0
C123 C 0.87067 0.69973 0.35905 0.0
C124 C 0.83657 0.68144 0.37793 0.0
C125 C 0.8216 0.69599 0.41177 0.0
C126 C 0.84101 0.72939 0.42702 0.0
C127 C 0.87471 0.74885 0.4087 0.0
C128 C 0.88927 0.73379 0.3746 0.0
C129 C 0.89393 0.78494 0.42557 0.0
C130 C 0.90766 0.81552 0.40069 0.0
C131 C 0.89668 0.78955 0.46733 0.0
C132 C 0.91163 0.82371 0.48382 0.0
C133 C 0.92413 0.85472 0.45921 0.0
C134 C 0.78523 0.67675 0.43103 0.0
C135 C 0.75302 0.66719 0.40839 0.0
C136 C 0.7821 0.66929 0.4725 0.0
C137 C 0.74749 0.65303 0.49099 0.0
C138 C 0.71506 0.64467 0.4686 0.0
C139 C 0.71826 0.65176 0.42705 0.0
C140 C 0.92243 0.84993 0.41726 0.0
H141 H 0.85894 0.62718 0.2441 0.0
H142 H 0.83359 0.65878 0.29793 0.0
H143 H 0.94456 0.70132 0.33964 0.0
H144 H 0.96994 0.67022 0.28505 0.0
H145 H 0.82196 0.65517 0.36712 0.0
H146 H 0.91514 0.74858 0.36034 0.0
H147 H 0.82909 0.74084 0.45268 0.0
H148 H 0.90578 0.81313 0.36843 0.0
H149 H 0.88707 0.76659 0.48748 0.0
H150 H 0.91334 0.82569 0.51612 0.0
H151 H 0.75452 0.67277 0.37645 0.0
H152 H 0.80644 0.67629 0.49069 0.0
H153 H 0.93145 0.87295 0.39712 0.0
H154 H 0.69375 0.64565 0.40906 0.0
H155 H 0.74586 0.64818 0.52308 0.0
C156 C 0.72347 0.79389 0.76342 0.0
C157 C 0.72815 0.83061 0.75266 0.0
C158 C 0.70006 0.77928 0.79625 0.0
C159 C 0.68163 0.80139 0.81942 0.0
C160 C 0.6841 0.83724 0.8062 0.0
C161 C 0.70677 0.85149 0.77318 0.0
C162 C 0.66556 0.79011 0.86045 0.0
C163 C 0.68318 0.76982 0.88532 0.0
C164 C 0.67581 0.76779 0.92703 0.0
C165 C 0.65098 0.78728 0.94412 0.0
C166 C 0.63277 0.80737 0.91948 0.0
C167 C 0.63818 0.80618 0.87767 0.0
C168 C 0.61403 0.83506 0.93659 0.0
C169 C 0.58863 0.82754 0.96959 0.0
C170 C 0.62297 0.87035 0.92007 0.0
C171 C 0.60711 0.89747 0.93598 0.0
C172 C 0.58198 0.89025 0.96907 0.0
C173 C 0.69893 0.7499 0.95217 0.0
C174 C 0.70603 0.71642 0.94034 0.0
C175 C 0.71843 0.76843 0.98427 0.0
C176 C 0.74637 0.75506 1.00212 0.0
C177 C 0.75538 0.7229 0.98823 0.0
C178 C 0.73392 0.70309 0.9581 0.0
C179 C 0.57248 0.8549 0.98553 0.0
H180 H 0.73934 0.77705 0.74779 0.0
H181 H 0.69816 0.7513 0.80477 0.0
H182 H 0.67125 0.85573 0.82319 0.0
H183 H 0.71008 0.88004 0.76616 0.0
H184 H 0.70535 0.7583 0.87295 0.0
H185 H 0.62344 0.82099 0.85877 0.0
H186 H 0.64745 0.78841 0.97646 0.0
H187 H 0.58132 0.80065 0.98297 0.0
H188 H 0.64301 0.87736 0.89517 0.0
H189 H 0.61479 0.92432 0.92247 0.0
H190 H 0.69127 0.70143 0.91582 0.0
H191 H 0.71379 0.79441 0.99392 0.0
H192 H 0.55337 0.84869 1.0113 0.0
H193 H 0.74013 0.67836 0.94642 0.0
H194 H 0.7619 0.77067 1.02576 0.0
C195 C 0.83463 0.24108 0.2628 0.0
C196 C 0.82124 0.26379 0.23681 0.0
C197 C 0.85333 0.25514 0.29692 0.0
C198 C 0.85988 0.29251 0.30547 0.0
C199 C 0.84928 0.31566 0.27728 0.0
C200 C 0.82952 0.30132 0.24363 0.0
C201 C 0.87263 0.30597 0.34592 0.0
C202 C 0.89484 0.28818 0.36817 0.0
C203 C 0.89881 0.29425 0.40945 0.0
C204 C 0.88352 0.32107 0.42794 0.0
C205 C 0.8627 0.34051 0.40592 0.0
C206 C 0.85724 0.3325 0.36507 0.0
C207 C 0.84202 0.36533 0.42613 0.0
C208 C 0.82405 0.35621 0.46385 0.0
C209 C 0.83658 0.39617 0.4059 0.0
C210 C 0.81145 0.41559 0.42135 0.0
C211 C 0.79152 0.40496 0.45776 0.0
C212 C 0.91247 0.26779 0.43397 0.0
C213 C 0.88961 0.24928 0.46545 0.0
C214 C 0.94547 0.25731 0.42301 0.0
C215 C 0.95497 0.22822 0.44259 0.0
C216 C 0.93127 0.2086 0.47303 0.0
C217 C 0.89874 0.21991 0.48456 0.0
C218 C 0.79934 0.37597 0.4796 0.0
H219 H 0.82807 0.21193 0.25845 0.0
H220 H 0.86007 0.23603 0.31787 0.0
H221 H 0.85462 0.34467 0.28215 0.0
H222 H 0.81948 0.31932 0.2238 0.0
H223 H 0.90659 0.2673 0.35423 0.0
H224 H 0.83824 0.34485 0.34914 0.0
H225 H 0.88668 0.32569 0.45983 0.0
H226 H 0.82732 0.33257 0.4803 0.0
H227 H 0.85053 0.40438 0.37714 0.0
H228 H 0.80617 0.43763 0.40351 0.0
H229 H 0.86356 0.25628 0.4739 0.0
H230 H 0.9635 0.27115 0.39875 0.0
H231 H 0.78522 0.36756 0.50822 0.0
H232 H 0.8794 0.20523 0.50728 0.0
H233 H 0.98066 0.22089 0.43349 0.0
C234 C 0.22643 0.64427 0.22711 0.0
C235 C 0.22253 0.65263 0.18657 0.0
C236 C 0.25868 0.6608 0.24743 0.0
C237 C 0.28803 0.68586 0.22759 0.0
C238 C 0.28439 0.69315 0.18662 0.0
C239 C 0.25207 0.67707 0.16658 0.0
C240 C 0.32199 0.70521 0.24915 0.0
C241 C 0.33793 0.68789 0.27904 0.0
C242 C 0.37063 0.70613 0.29802 0.0
C243 C 0.38789 0.74204 0.28565 0.0
C244 C 0.37246 0.76006 0.25587 0.0
C245 C 0.3389 0.74154 0.23911 0.0
C246 C 0.39128 0.79774 0.2411 0.0
C247 C 0.41266 0.82386 0.26629 0.0
C248 C 0.38757 0.80807 0.20112 0.0
C249 C 0.40352 0.84326 0.18716 0.0
C250 C 0.42512 0.86942 0.21207 0.0
C251 C 0.38691 0.68766 0.33051 0.0
C252 C 0.38737 0.65058 0.32803 0.0
C253 C 0.40188 0.70691 0.36462 0.0
C254 C 0.41665 0.68966 0.39527 0.0
C255 C 0.41709 0.65258 0.39282 0.0
C256 C 0.40226 0.63336 0.35863 0.0
C257 C 0.42953 0.859 0.25193 0.0
H258 H 0.20409 0.62568 0.24347 0.0
H259 H 0.26011 0.65461 0.27893 0.0
H260 H 0.30665 0.71138 0.16978 0.0
H261 H 0.25033 0.68359 0.13519 0.0
H262 H 0.32487 0.66014 0.28757 0.0
H263 H 0.3254 0.75566 0.21817 0.0
H264 H 0.41396 0.75551 0.29852 0.0
H265 H 0.41613 0.81742 0.29732 0.0
H266 H 0.37237 0.78893 0.18007 0.0
H267 H 0.3984 0.84979 0.15661 0.0
H268 H 0.37653 0.63482 0.30217 0.0
H269 H 0.40178 0.73535 0.36795 0.0
H270 H 0.44631 0.87781 0.27218 0.0
H271 H 0.4017 0.60474 0.35565 0.0
H272 H 0.42816 0.70561 0.42075 0.0
C273 C 0.14764 0.26744 0.70867 0.0
C274 C 0.10909 0.25681 0.70306 0.0
C275 C 0.1636 0.30098 0.72588 0.0
C276 C 0.14171 0.32546 0.73761 0.0
C277 C 0.10286 0.31426 0.73345 0.0
C278 C 0.08677 0.28033 0.71653 0.0
C279 C 0.16001 0.36306 0.75157 0.0
C280 C 0.19422 0.38128 0.73338 0.0
C281 C 0.21302 0.41605 0.74557 0.0
C282 C 0.19661 0.43347 0.77619 0.0
C283 C 0.16226 0.41613 0.79549 0.0
C284 C 0.14417 0.38086 0.78258 0.0
C285 C 0.14591 0.43466 0.82949 0.0
C286 C 0.1691 0.45703 0.85672 0.0
C287 C 0.10709 0.43051 0.83507 0.0
C288 C 0.09213 0.44843 0.86635 0.0
C289 C 0.11544 0.47128 0.89305 0.0
C290 C 0.25027 0.43313 0.72632 0.0
C291 C 0.27715 0.41247 0.72089 0.0
C292 C 0.25868 0.46896 0.71125 0.0
C293 C 0.29246 0.48308 0.68969 0.0
C294 C 0.31876 0.46178 0.68292 0.0
C295 C 0.31083 0.42658 0.69979 0.0
C296 C 0.15417 0.47507 0.88778 0.0
H297 H 0.16565 0.24977 0.69956 0.0
H298 H 0.19342 0.30786 0.7296 0.0
H299 H 0.085 0.33224 0.74189 0.0
H300 H 0.05697 0.27309 0.71265 0.0
H301 H 0.20625 0.36856 0.70881 0.0
H302 H 0.11837 0.36674 0.7975 0.0
H303 H 0.21091 0.46048 0.78515 0.0
H304 H 0.19902 0.46041 0.85443 0.0
H305 H 0.08811 0.414 0.8147 0.0
H306 H 0.06221 0.44504 0.86896 0.0
H307 H 0.27196 0.38504 0.73275 0.0
H308 H 0.23855 0.48558 0.71479 0.0
H309 H 0.17314 0.49177 0.90802 0.0
H310 H 0.33063 0.40959 0.69649 0.0
H311 H 0.29733 0.51022 0.67717 0.0
La312 La 0.04353 0.06978 0.54496 0.0
La313 La 0.98418 1.0477 0.60909 0.0
C314 C 0.08256 0.09248 0.48311 0.0
C315 C 0.11491 0.12324 0.47589 0.0
C316 C 0.14811 0.12598 0.49639 0.0
C317 C 0.17809 0.15581 0.4899 0.0
C318 C 0.17525 0.18361 0.46323 0.0
C319 C 0.14195 0.18102 0.44306 0.0
C320 C 0.11212 0.15102 0.44922 0.0
C321 C 0.06242 1.03519 0.60597 0.0
C322 C 0.04698 0.12161 0.61905 0.0
C323 C 0.94505 1.02493 0.67088 0.0
C324 C 0.91475 0.9925 0.67848 0.0
C325 C 0.88089 0.99681 0.69557 0.0
C326 C 0.85068 0.96702 0.70018 0.0
C327 C 0.85388 0.93226 0.68805 0.0
C328 C 0.88794 0.92777 0.67138 0.0
C329 C 0.9181 0.95775 0.66625 0.0
C330 C 0.96649 0.08403 0.54796 0.0
C331 C 0.98093 0.99538 0.53593 0.0
O332 O 0.08779 0.06583 0.50552 0.0
O333 O 0.05095 0.1012 0.49215 0.0
O334 O 0.08499 0.06138 0.58645 0.0
O335 O 0.03131 1.02815 0.58974 0.0
O336 O 0.05852 0.11856 0.58142 0.0
O337 O 0.0205 0.09582 0.63655 0.0
O338 O 0.9373 1.04863 0.64603 0.0
O339 O 0.97854 1.01962 0.66406 0.0
O340 O 0.9431 0.05885 0.56801 0.0
O341 O 0.99711 0.08951 0.56476 0.0
O342 O 0.97018 0.99841 0.57376 0.0
O343 O 1.00651 1.02163 0.51779 0.0
H344 H 0.15101 0.10517 0.51752 0.0
H345 H 0.20345 0.15723 0.50585 0.0
H346 H 0.13925 0.2018 0.4218 0.0
H347 H 0.08681 0.14955 0.43317 0.0
H348 H 0.87766 1.02337 0.70493 0.0
H349 H 0.82491 0.97108 0.71383 0.0
H350 H 0.89106 0.90122 0.6619 0.0
H351 H 0.9438 0.95377 0.65238 0.0
La352 La 0.54542 0.06737 0.11212 0.0
La353 La 0.47282 1.05122 1.07489 0.0
C354 C 0.61429 0.08269 0.12442 0.0
C355 C 0.64487 0.11337 0.13404 0.0
C356 C 0.67855 0.10613 0.14525 0.0
C357 C 0.70834 0.13448 0.15482 0.0
C358 C 0.70517 0.1708 0.15302 0.0
C359 C 0.67128 0.17796 0.14124 0.0
C360 C 0.64126 0.14939 0.132 0.0
C361 C 0.49472 1.01395 0.14808 0.0
C362 C 0.49081 0.11291 0.14209 0.0
C363 C 0.40373 1.03243 1.06459 0.0
C364 C 0.37671 1.00006 1.0516 0.0
C365 C 0.38813 0.97322 1.02877 0.0
C366 C 0.36166 0.94422 1.01363 0.0
C367 C 0.32336 0.94151 1.0213 0.0
C368 C 0.31229 0.96756 1.046 0.0
C369 C 0.33879 0.99664 1.06092 0.0
C370 C 0.52321 0.10328 1.03699 0.0
C371 C 0.52864 1.00791 1.04255 0.0
O372 O 0.58857 0.07181 0.15257 0.0
O373 O 0.6003 0.08337 0.08904 0.0
O374 O 0.51958 1.03741 0.1666 0.0
O375 O 0.50029 1.02019 0.11118 0.0
O376 O 0.52653 0.11336 0.13689 0.0
O377 O 0.46531 0.08807 0.12417 0.0
O378 O 0.42812 1.0488 1.03721 0.0
O379 O 0.41889 1.02967 0.09896 0.0
O380 O 0.49717 0.07998 1.01967 0.0
O381 O 0.51863 0.09821 1.07433 0.0
O382 O 0.49276 1.00664 1.04782 0.0
O383 O 0.55371 1.03235 1.06145 0.0
H384 H 0.68167 0.07841 0.14709 0.0
H385 H 0.7335 0.12772 0.16481 0.0
H386 H 0.66788 0.20557 0.13939 0.0
H387 H 0.61527 0.15535 0.12359 0.0
H388 H 0.4174 0.97534 1.02155 0.0
H389 H 0.37118 0.92494 0.99433 0.0
H390 H 0.28309 0.96597 1.05295 0.0
H391 H 0.32961 1.01699 0.07892 0.0
La392 La 0.52497 0.52472 0.55099 0.0
La393 La 0.51439 0.58734 0.60685 0.0
C394 C 0.55683 0.49227 0.50036 0.0
C395 C 0.59344 0.48297 0.49804 0.0
C396 C 0.6058 0.46519 0.53002 0.0
C397 C 0.63996 0.4554 0.52676 0.0
C398 C 0.66258 0.46358 0.4917 0.0
C399 C 0.65084 0.48258 0.46036 0.0
C400 C 0.61646 0.49207 0.46347 0.0
C401 C 0.45685 0.5089 0.58636 0.0
C402 C 0.5507 0.52435 0.64087 0.0
C403 C 0.49649 0.62889 0.65901 0.0
C404 C 0.47255 0.65467 0.65683 0.0
C405 C 0.45945 0.66257 0.61967 0.0
C406 C 0.43251 0.68289 0.61781 0.0
C407 C 0.41883 0.69614 0.65308 0.0
C408 C 0.43341 0.68982 0.69011 0.0
C409 C 0.45995 0.66892 0.69199 0.0
C410 C 0.57339 0.60073 0.55714 0.0
C411 C 0.48242 0.5838 0.52043 0.0
O412 O 0.53305 0.47551 0.52826 0.0
O413 O 0.55738 0.52699 0.49762 0.0
O414 O 0.46938 0.48761 0.56169 0.0
O415 O 0.48258 0.53706 0.5886 0.0
O416 O 0.55134 0.5104 0.60441 0.0
O417 O 0.53707 0.55337 0.64838 0.0
O418 O 0.52752 0.63707 0.63727 0.0
O419 O 0.47915 0.59484 0.65512 0.0
O420 O 0.55407 0.6242 0.56678 0.0
O421 O 0.56027 0.57161 0.57638 0.0
O422 O 0.47861 0.59423 0.55805 0.0
O423 O 0.50248 0.55986 0.51068 0.0
H424 H 0.58893 0.45837 0.55737 0.0
H425 H 0.64857 0.44113 0.55152 0.0
H426 H 0.66762 0.48898 0.43288 0.0
H427 H 0.60759 0.50605 0.43862 0.0
H428 H 0.46926 0.65215 0.59221 0.0
H429 H 0.42185 0.68766 0.58894 0.0
H430 H 0.42301 0.69959 0.71773 0.0
H431 H 0.4697 0.66293 0.72091 0.0
La432 La 0.01576 0.52226 0.09614 0.0
La433 La 1.01472 0.59279 1.05839 0.0
C434 C 0.0369 0.46676 0.1174 0.0
C435 C 0.07449 0.461 0.12323 0.0
C436 C 0.08079 0.44013 0.1558 0.0
C437 C 0.11675 0.4362 0.16289 0.0
C438 C 0.14704 0.453 0.13742 0.0
C439 C 0.14058 0.47362 0.10456 0.0
C440 C 0.10468 0.47776 0.09764 0.0
C441 C 0.97806 0.56208 0.13857 0.0
C442 C 0.08495 0.5906 0.10574 0.0
C443 C 0.99594 0.64976 1.0371 0.0
C444 C 0.96017 0.65992 1.03251 0.0
C445 C 0.95843 0.6888 1.00703 0.0
C446 C 0.92474 0.69895 1.00248 0.0
C447 C 0.89208 0.68039 1.0234 0.0
C448 C 0.89396 0.65126 1.04884 0.0
C449 C 0.92771 0.64113 1.05338 0.0
C450 C 0.0528 0.55304 1.01606 0.0
C451 C 0.94563 0.52407 1.04952 0.0
O452 O 0.02584 0.48876 0.14281 0.0
O453 O 0.02911 0.47303 0.08047 0.0
O454 O 0.96897 0.52683 0.13691 0.0
O455 O 1.00825 0.57328 0.11868 0.0
O456 O 0.07249 0.55486 0.10532 0.0
O457 O 0.06519 0.61236 0.09133 0.0
O458 O 1.00335 0.62571 1.01184 0.0
O459 O 1.00401 0.64318 1.07381 0.0
O460 O 0.06161 0.58826 1.01771 0.0
O461 O 0.0225 0.54188 1.03576 0.0
O462 O 0.95733 0.55994 1.051 0.0
O463 O 0.96626 0.50251 1.06234 0.0
H464 H 0.05794 0.42717 0.17598 0.0
H465 H 0.12083 0.41983 0.18822 0.0
H466 H 0.16341 0.48717 0.0847 0.0
H467 H 0.10065 0.49444 1.07255 0.0
H468 H 0.98315 0.70348 0.99055 0.0
H469 H 0.9242 0.72106 0.98208 0.0
H470 H 0.86946 0.63657 1.06564 0.0
H471 H 0.92849 0.61877 1.07335 0.0
C472 C 0.23161 0.27774 0.43644 0.0
C473 C 0.2656 0.27036 0.423 0.0
H474 H 0.1762 0.25587 0.45991 0.0
C475 C 0.27134 0.23529 0.42877 0.0
H476 H 0.2266 0.30466 0.43308 0.0
C477 C 0.24258 0.20749 0.44438 0.0
C478 C 0.20754 0.21422 0.45428 0.0
H479 H 0.297 0.22854 0.41838 0.0
H480 H 0.24696 0.18021 0.44601 0.0
C481 C 0.20276 0.24987 0.45169 0.0
C482 C 0.27834 0.85588 0.96623 0.0
C483 C 0.25003 0.8673 0.94641 0.0
H484 H 0.32335 0.87011 1.00638 0.0
C485 C 0.2426 0.90108 0.95621 0.0
H486 H 0.28435 0.82975 0.95962 0.0
C487 C 0.26504 0.92426 0.98265 0.0
C488 C 0.29532 0.91409 0.99999 0.0
H489 H 0.22132 0.91089 0.94108 0.0
H490 H 0.26023 0.95116 0.98715 0.0
C491 C 0.30076 0.87904 0.99281 0.0
C492 C 0.59704 0.46085 0.69909 0.0
C493 C 0.59477 0.47292 0.7389 0.0
H494 H 0.5854 0.46739 0.63736 0.0
C495 C 0.57813 0.50244 0.7459 0.0
H496 H 0.6101 0.43865 0.69217 0.0
C497 C 0.56417 0.51922 0.71426 0.0
C498 C 0.56632 0.50702 0.67453 0.0
H499 H 0.57526 0.51231 0.77606 0.0
H500 H 0.55135 0.54161 0.7211 0.0
C501 C 0.58303 0.47759 0.66745 0.0
C502 C 0.9135 0.58888 0.21886 0.0
C503 C 0.9319 0.62485 0.22783 0.0
H504 H 0.91356 0.54107 0.18405 0.0
C505 C 0.96522 0.64029 0.20603 0.0
H506 H 0.88804 0.57581 0.23515 0.0
C507 C 0.97976 0.6203 0.17647 0.0
C508 C 0.96163 0.58417 0.16817 0.0
H509 H 0.98003 0.66797 0.21165 0.0
H510 H 1.00557 0.63299 0.16057 0.0
C511 C 0.92823 0.56882 0.18962 0.0
C512 C 0.43094 0.17678 0.17554 0.0
C513 C 0.45772 0.20769 0.18672 0.0
H514 H 0.42023 0.12243 0.15368 0.0
C515 C 0.49536 0.20604 0.18661 0.0
H516 H 0.40163 0.17693 0.1762 0.0
C517 C 0.50611 0.1746 0.17382 0.0
C518 C 0.47938 0.14417 0.16114 0.0
H519 H 0.51661 0.22944 0.19512 0.0
H520 H 0.53546 0.17462 0.17265 0.0
C521 C 0.44161 0.14539 0.163 0.0
C522 C 0.12672 0.99063 0.66203 0.0
C523 C 0.10359 0.95631 0.67102 0.0
H524 H 0.1315 1.04277 0.63487 0.0
C525 C 0.06569 0.94951 0.66214 0.0
H526 H 0.15588 0.99685 0.66925 0.0
C527 C 0.05169 0.97589 0.64257 0.0
C528 C 0.07539 1.00945 0.63172 0.0
H529 H 0.04726 0.92325 0.66864 0.0
H530 H 0.02274 0.96946 0.6345 0.0
C531 C 0.11273 1.01697 0.6426 0.0
C532 C 0.84646 0.51019 1.01336 0.0
C533 C 0.84045 0.47534 0.99597 0.0
H534 H 0.8842 0.55302 1.04352 0.0
C535 C 0.86978 0.45723 0.99653 0.0
H536 H 0.82471 0.52505 1.01431 0.0
C537 C 0.90338 0.47286 1.0145 0.0
C538 C 0.90928 0.50756 1.03163 0.0
H539 H 0.86725 0.431 0.98255 0.0
H540 H 0.92514 0.45796 1.01416 0.0
C541 C 0.88056 0.52623 1.03052 0.0
C542 C 0.64974 0.65022 0.48464 0.0
C543 C 0.67778 0.63113 0.48902 0.0
H544 H 0.5951 0.6557 0.50304 0.0
C545 C 0.67037 0.60032 0.51435 0.0
H546 H 0.65465 0.67411 0.46552 0.0
C547 C 0.63581 0.58925 0.53527 0.0
C548 C 0.60844 0.60939 0.53208 0.0
H549 H 0.6914 0.58497 0.51813 0.0
H550 H 0.63099 0.56571 0.55491 0.0
C551 C 0.61568 0.63972 0.50623 0.0
C552 C 0.24375 0.43531 0.12258 0.0
C553 C 0.25628 0.43794 0.16205 0.0
H554 H 0.19935 0.43807 0.0838 0.0
C555 C 0.2333 0.44731 0.19286 0.0
H556 H 0.26085 0.4282 0.09822 0.0
C557 C 0.1982 0.45279 0.18466 0.0
C558 C 0.18524 0.44919 0.14545 0.0
H559 H 0.24179 0.44901 0.2237 0.0
H560 H 0.18099 0.45947 0.20917 0.0
C561 C 0.20865 0.44109 0.11433 0.0
C562 C 0.58473 0.19849 1.02363 0.0
C563 C 0.57607 0.2084 0.98492 0.0
H564 H 0.57478 0.15791 1.07022 0.0
C565 C 0.55101 0.18229 0.96295 0.0
H566 H 0.60446 0.21716 1.04139 0.0
C567 C 0.53485 0.14783 0.9793 0.0
C568 C 0.54283 0.13856 1.0183 0.0
H569 H 0.54299 0.18867 0.9334 0.0
H570 H 0.51527 0.12877 0.96173 0.0
C571 C 0.56811 0.16423 1.04013 0.0
C572 C 0.92226 0.90068 0.51419 0.0
C573 C 0.93803 0.89168 0.47756 0.0
H574 H 0.92298 0.93971 0.56081 0.0
C575 C 0.96721 0.91819 0.45926 0.0
H576 H 0.89918 0.8817 0.52895 0.0
C577 C 0.98063 0.95212 0.47749 0.0
C578 C 0.96538 0.96053 0.51461 0.0
H579 H 0.9804 0.91247 0.43129 0.0
H580 H 1.00354 0.97144 0.46286 0.0
C581 C 0.93578 0.93435 0.53243 0.0
C582 C 0.32265 0.7105 0.63699 0.0
C583 C 0.32396 0.74307 0.6576 0.0
H584 H 0.3523 0.67041 0.61885 0.0
C585 C 0.35763 0.76175 0.67377 0.0
H586 H 0.29692 0.69564 0.62443 0.0
C587 C 0.38899 0.7471 0.67122 0.0
C588 C 0.38732 0.7139 0.65181 0.0
H589 H 0.35915 0.78673 0.69021 0.0
H590 H 0.41428 0.76121 0.68523 0.0
C591 C 0.35424 0.6962 0.63376 0.0
C592 C 0.79561 0.84487 0.73184 0.0
C593 C 0.75948 0.84944 0.72573 0.0
H594 H 0.85421 0.8679 0.72446 0.0
C595 C 0.75499 0.87761 0.70032 0.0
H596 H 0.80002 0.8236 0.7515 0.0
C597 C 0.78601 0.90322 0.68538 0.0
C598 C 0.82203 0.90083 0.69517 0.0
H599 H 0.72746 0.88144 0.69456 0.0
H600 H 0.78179 0.92613 0.6682 0.0
C601 C 0.82669 0.87037 0.71658 0.0
C602 C 0.80203 0.22091 0.18048 0.0
C603 C 0.79398 0.24704 0.207 0.0
H604 H 0.78034 0.17726 0.14093 0.0
C605 C 0.75748 0.25193 0.21042 0.0
H606 H 0.83007 0.21682 0.17731 0.0
C607 C 0.72877 0.22865 0.1906 0.0
C608 C 0.73621 0.20035 0.16667 0.0
H609 H 0.7506 0.27169 0.2311 0.0
H610 H 0.70049 0.2312 0.19656 0.0
C611 C 0.77346 0.19805 0.16011 0.0
C612 C 0.4278 0.64262 0.4663 0.0
C613 C 0.43303 0.63418 0.42565 0.0
H614 H 0.43851 0.63333 0.52768 0.0
C615 C 0.45391 0.60818 0.41671 0.0
H616 H 0.41145 0.66198 0.47462 0.0
C617 C 0.46943 0.59156 0.44733 0.0
C618 C 0.46451 0.60031 0.48791 0.0
H619 H 0.459 0.60116 0.38588 0.0
H620 H 0.48571 0.57212 0.43902 0.0
C621 C 0.44322 0.62593 0.49691 0.0
C622 C 0.06657 0.47562 0.94759 0.0
C623 C 0.09968 0.49167 0.92566 0.0
H624 H 0.02612 0.48195 0.99347 0.0
C625 C 0.11753 0.52773 0.93491 0.0
H626 H 0.05216 0.44784 0.94182 0.0
C627 C 0.10256 0.54723 0.96454 0.0
C628 C 0.06938 0.5313 0.98611 0.0
H629 H 0.14276 0.54133 0.91858 0.0
H630 H 0.11687 0.57506 0.97029 0.0
C631 C 0.05174 0.4951 0.9775 0.0
C632 C 0.59203 0.95406 0.99356 0.0
C633 C 0.56748 0.92032 0.9871 0.0
H634 H 0.59892 1.00815 1.01556 0.0
C635 C 0.52946 0.91601 0.99738 0.0
H636 H 0.62154 0.95812 0.9863 0.0
C637 C 0.51635 0.94495 1.01393 0.0
C638 C 0.54116 0.9785 1.02096 0.0
H639 H 0.5099 0.89037 0.99242 0.0
H640 H 0.48702 0.94074 1.02218 0.0
C641 C 0.57906 0.98274 1.01037 0.0
C642 C 0.93022 0.16766 0.53272 0.0
C643 C 0.9397 0.1759 0.49197 0.0
H644 H 0.93068 0.1314 0.58199 0.0
C645 C 0.95672 0.15226 0.4694 0.0
H646 H 0.91781 0.18546 0.55135 0.0
C647 C 0.9646 0.12163 0.48735 0.0
C648 C 0.9549 0.11371 0.52783 0.0
H649 H 0.96381 0.15724 0.43782 0.0
H650 H 0.97837 0.10422 0.46967 0.0
C651 C 0.93754 0.13674 0.55036 0.0
C652 C 0.17088 0.65841 0.14124 0.0
C653 C 0.18766 0.6365 0.16519 0.0
H654 H 0.12548 0.66137 0.10395 0.0
C655 C 0.17088 0.59921 0.16844 0.0
H656 H 0.18293 0.68728 0.1383 0.0
C657 C 0.13817 0.58423 0.14832 0.0
C658 C 0.12101 0.60626 0.1249 0.0
H659 H 0.18324 0.58151 0.18629 0.0
H660 H 0.12601 0.55541 0.15171 0.0
C661 C 0.13787 0.64355 0.12159 0.0
C662 C 0.37386 0.51172 0.65762 0.0
C663 C 0.35368 0.47514 0.65734 0.0
H664 H 0.42165 0.55144 0.63483 0.0
C665 C 0.36728 0.45085 0.63219 0.0
H666 H 0.36437 0.53137 0.67637 0.0
C667 C 0.40036 0.4623 0.60919 0.0
C668 C 0.42105 0.49846 0.61029 0.0
H669 H 0.35224 0.42277 0.62998 0.0
H670 H 0.40992 0.44252 0.59066 0.0
C671 C 0.4071 0.52322 0.63426 0.0
C672 C 0.7896 0.67507 1.00657 0.0
C673 C 0.78922 0.71193 1.00187 0.0
H674 H 0.82224 0.63617 1.01666 0.0
C675 C 0.82249 0.73831 1.0069 0.0
H676 H 0.76443 0.65405 1.00331 0.0
C677 C 0.85552 0.72808 1.01495 0.0
C678 C 0.85623 0.6912 1.01809 0.0
H679 H 0.82344 0.76692 1.00304 0.0
H680 H 0.88068 0.74914 1.01816 0.0
C681 C 0.82271 0.66482 1.01459 0.0
C682 C 0.45011 0.93763 0.22133 0.0
C683 C 0.443 0.90695 0.19609 0.0
H684 H 0.4722 0.99534 0.22614 0.0
C685 C 0.45299 0.91254 0.15494 0.0
H686 H 0.44247 0.93502 0.25299 0.0
C687 C 0.46867 0.94731 0.13952 0.0
C688 C 0.47606 0.97763 0.16481 0.0
H689 H 0.44937 0.89002 0.13432 0.0
H690 H 0.47595 0.95022 0.10775 0.0
C691 C 0.46682 0.97243 0.20593 0.0
C692 C 0.05983 0.19803 0.69634 0.0
C693 C 0.09286 0.22193 0.68197 0.0
H694 H 0.01981 0.14751 0.68845 0.0
C695 C 0.11067 0.2122 0.64703 0.0
H696 H 0.04547 0.20449 0.72325 0.0
C697 C 0.09587 0.17975 0.62692 0.0
C698 C 0.06301 0.15568 0.64136 0.0
H699 H 0.13591 0.23003 0.63477 0.0
H700 H 0.11034 0.17352 0.59996 0.0
C701 C 0.04527 0.1652 0.67651 0.0
C702 C 0.72713 0.39941 0.48754 0.0
C703 C 0.76013 0.42144 0.4706 0.0
H704 H 0.67066 0.39553 0.50738 0.0
C705 C 0.76147 0.45834 0.46309 0.0
H706 H 0.72461 0.37072 0.49294 0.0
C707 C 0.7301 0.4724 0.47079 0.0
C708 C 0.69694 0.44998 0.48665 0.0
H709 H 0.78657 0.47627 0.45067 0.0
H710 H 0.73162 0.50071 0.46399 0.0
C711 C 0.69602 0.41356 0.49566 0.0
loop_
_geom_bond_atom_site_label_1
_geom_bond_atom_site_label_2
_geom_bond_distance
_geom_bond_site_symmetry_2
_ccdc_geom_bond_type
C0 C1 1.386 . S
C0 C2 1.397 . S
C0 H24 0.931 . S
C1 C0 1.386 . S
C1 C5 1.397 . S
C2 C0 1.397 . S
C2 C3 1.384 . S
C2 H25 0.930 . S
C3 C2 1.384 . S
C3 C4 1.377 . S
C3 C6 1.481 . S
C4 C3 1.377 . S
C4 C5 1.389 . S
C4 H26 0.929 . S
C5 C1 1.397 . S
C5 C4 1.389 . S
C5 H27 0.931 . S
C6 C3 1.481 . S
C6 C7 1.387 . S
C6 C11 1.390 . S
C7 C6 1.387 . S
C7 C8 1.401 . S
C7 H28 0.930 . S
C8 C7 1.401 . S
C8 C9 1.376 . S
C8 C17 1.511 . S
C9 C8 1.376 . S
C9 C10 1.392 . S
C9 H30 0.931 . S
C10 C9 1.392 . S
C10 C11 1.361 . S
C10 C12 1.500 . S
C11 C6 1.390 . S
C11 C10 1.361 . S
C11 H29 0.931 . S
C12 C10 1.500 . S
C12 C13 1.371 . S
C12 C14 1.365 . S
C13 C12 1.371 . S
C13 C23 1.386 . S
C13 H31 0.931 . S
C14 C12 1.365 . S
C14 C15 1.409 . S
C14 H32 0.929 . S
C15 C14 1.409 . S
C15 C16 1.380 . S
C15 H33 0.930 . S
C16 C15 1.380 . S
C16 C23 1.357 . S
C17 C8 1.511 . S
C17 C18 1.341 . S
C17 C19 1.371 . S
C18 C17 1.341 . S
C18 C22 1.394 . S
C18 H34 0.930 . S
C19 C17 1.371 . S
C19 C20 1.392 . S
C19 H35 0.931 . S
C20 C19 1.392 . S
C20 C21 1.331 . S
C20 H38 0.932 . S
C21 C20 1.331 . S
C21 C22 1.336 . S
C22 C18 1.394 . S
C22 C21 1.336 . S
C22 H37 0.929 . S
C23 C13 1.386 . S
C23 C16 1.357 . S
C23 H36 0.928 . S
H24 C0 0.931 . S
H25 C2 0.930 . S
H26 C4 0.929 . S
H27 C5 0.931 . S
H28 C7 0.930 . S
H29 C11 0.931 . S
H30 C9 0.931 . S
H31 C13 0.931 . S
H32 C14 0.929 . S
H33 C15 0.930 . S
H34 C18 0.930 . S
H35 C19 0.931 . S
H36 C23 0.928 . S
H37 C22 0.929 . S
H38 C20 0.932 . S
C39 C40 1.386 . S
C39 C41 1.397 . S
C39 H63 0.931 . S
C40 C39 1.386 . S
C40 C44 1.397 . S
C41 C39 1.397 . S
C41 C42 1.384 . S
C41 H64 0.930 . S
C42 C41 1.384 . S
C42 C43 1.377 . S
C42 C45 1.481 . S
C43 C42 1.377 . S
C43 C44 1.389 . S
C43 H65 0.929 . S
C44 C40 1.397 . S
C44 C43 1.389 . S
C44 H66 0.931 . S
C45 C42 1.481 . S
C45 C46 1.387 . S
C45 C50 1.390 . S
C46 C45 1.387 . S
C46 C47 1.401 . S
C46 H67 0.930 . S
C47 C46 1.401 . S
C47 C48 1.376 . S
C47 C56 1.511 . S
C48 C47 1.376 . S
C48 C49 1.392 . S
C48 H69 0.931 . S
C49 C48 1.392 . S
C49 C50 1.361 . S
C49 C51 1.500 . S
C50 C45 1.390 . S
C50 C49 1.361 . S
C50 H68 0.931 . S
C51 C49 1.500 . S
C51 C52 1.371 . S
C51 C53 1.365 . S
C52 C51 1.371 . S
C52 C62 1.386 . S
C52 H70 0.931 . S
C53 C51 1.365 . S
C53 C54 1.409 . S
C53 H71 0.929 . S
C54 C53 1.409 . S
C54 C55 1.380 . S
C54 H72 0.930 . S
C55 C54 1.380 . S
C55 C62 1.357 . S
C56 C47 1.511 . S
C56 C57 1.341 . S
C56 C58 1.371 . S
C57 C56 1.341 . S
C57 C61 1.394 . S
C57 H73 0.930 . S
C58 C56 1.371 . S
C58 C59 1.392 . S
C58 H74 0.931 . S
C59 C58 1.392 . S
C59 C60 1.331 . S
C59 H77 0.932 . S
C60 C59 1.331 . S
C60 C61 1.336 . S
C61 C57 1.394 . S
C61 C60 1.336 . S
C61 H76 0.929 . S
C62 C52 1.386 . S
C62 C55 1.357 . S
C62 H75 0.928 . S
H63 C39 0.931 . S
H64 C41 0.930 . S
H65 C43 0.929 . S
H66 C44 0.931 . S
H67 C46 0.930 . S
H68 C50 0.931 . S
H69 C48 0.931 . S
H70 C52 0.931 . S
H71 C53 0.929 . S
H72 C54 0.930 . S
H73 C57 0.930 . S
H74 C58 0.931 . S
H75 C62 0.928 . S
H76 C61 0.929 . S
H77 C59 0.932 . S
C78 C79 1.386 . S
C78 C80 1.397 . S
C78 H102 0.931 . S
C79 C78 1.386 . S
C79 C83 1.397 . S
C80 C78 1.397 . S
C80 C81 1.384 . S
C80 H103 0.930 . S
C81 C80 1.384 . S
C81 C82 1.377 . S
C81 C84 1.481 . S
C82 C81 1.377 . S
C82 C83 1.389 . S
C82 H104 0.929 . S
C83 C79 1.397 . S
C83 C82 1.389 . S
C83 H105 0.931 . S
C84 C81 1.481 . S
C84 C85 1.387 . S
C84 C89 1.390 . S
C85 C84 1.387 . S
C85 C86 1.401 . S
C85 H106 0.930 . S
C86 C85 1.401 . S
C86 C87 1.376 . S
C86 C95 1.511 . S
C87 C86 1.376 . S
C87 C88 1.392 . S
C87 H108 0.931 . S
C88 C87 1.392 . S
C88 C89 1.361 . S
C88 C90 1.500 . S
C89 C84 1.390 . S
C89 C88 1.361 . S
C89 H107 0.931 . S
C90 C88 1.500 . S
C90 C91 1.371 . S
C90 C92 1.365 . S
C91 C90 1.371 . S
C91 C101 1.386 . S
C91 H109 0.931 . S
C92 C90 1.365 . S
C92 C93 1.409 . S
C92 H110 0.929 . S
C93 C92 1.409 . S
C93 C94 1.380 . S
C93 H111 0.930 . S
C94 C93 1.380 . S
C94 C101 1.357 . S
C95 C86 1.511 . S
C95 C96 1.341 . S
C95 C97 1.371 . S
C96 C95 1.341 . S
C96 C100 1.394 . S
C96 H112 0.930 . S
C97 C95 1.371 . S
C97 C98 1.392 . S
C97 H113 0.931 . S
C98 C97 1.392 . S
C98 C99 1.331 . S
C98 H116 0.932 . S
C99 C98 1.331 . S
C99 C100 1.336 . S
C100 C96 1.394 . S
C100 C99 1.336 . S
C100 H115 0.929 . S
C101 C91 1.386 . S
C101 C94 1.357 . S
C101 H114 0.928 . S
H102 C78 0.931 . S
H103 C80 0.930 . S
H104 C82 0.929 . S
H105 C83 0.931 . S
H106 C85 0.930 . S
H107 C89 0.931 . S
H108 C87 0.931 . S
H109 C91 0.931 . S
H110 C92 0.929 . S
H111 C93 0.930 . S
H112 C96 0.930 . S
H113 C97 0.931 . S
H114 C101 0.928 . S
H115 C100 0.929 . S
H116 C98 0.932 . S
C117 C118 1.386 . S
C117 C119 1.397 . S
C117 H141 0.931 . S
C118 C117 1.386 . S
C118 C122 1.397 . S
C119 C117 1.397 . S
C119 C120 1.384 . S
C119 H142 0.930 . S
C120 C119 1.384 . S
C120 C121 1.377 . S
C120 C123 1.481 . S
C121 C120 1.377 . S
C121 C122 1.389 . S
C121 H143 0.929 . S
C122 C118 1.397 . S
C122 C121 1.389 . S
C122 H144 0.931 . S
C123 C120 1.481 . S
C123 C124 1.387 . S
C123 C128 1.390 . S
C124 C123 1.387 . S
C124 C125 1.401 . S
C124 H145 0.930 . S
C125 C124 1.401 . S
C125 C126 1.376 . S
C125 C134 1.511 . S
C126 C125 1.376 . S
C126 C127 1.392 . S
C126 H147 0.931 . S
C127 C126 1.392 . S
C127 C128 1.361 . S
C127 C129 1.500 . S
C128 C123 1.390 . S
C128 C127 1.361 . S
C128 H146 0.931 . S
C129 C127 1.500 . S
C129 C130 1.371 . S
C129 C131 1.365 . S
C130 C129 1.371 . S
C130 C140 1.386 . S
C130 H148 0.931 . S
C131 C129 1.365 . S
C131 C132 1.409 . S
C131 H149 0.929 . S
C132 C131 1.409 . S
C132 C133 1.380 . S
C132 H150 0.930 . S
C133 C132 1.380 . S
C133 C140 1.357 . S
C134 C125 1.511 . S
C134 C135 1.341 . S
C134 C136 1.371 . S
C135 C134 1.341 . S
C135 C139 1.394 . S
C135 H151 0.930 . S
C136 C134 1.371 . S
C136 C137 1.392 . S
C136 H152 0.931 . S
C137 C136 1.392 . S
C137 C138 1.331 . S
C137 H155 0.932 . S
C138 C137 1.331 . S
C138 C139 1.336 . S
C139 C135 1.394 . S
C139 C138 1.336 . S
C139 H154 0.929 . S
C140 C130 1.386 . S
C140 C133 1.357 . S
C140 H153 0.928 . S
H141 C117 0.931 . S
H142 C119 0.930 . S
H143 C121 0.929 . S
H144 C122 0.931 . S
H145 C124 0.930 . S
H146 C128 0.931 . S
H147 C126 0.931 . S
H148 C130 0.931 . S
H149 C131 0.929 . S
H150 C132 0.930 . S
H151 C135 0.930 . S
H152 C136 0.931 . S
H153 C140 0.928 . S
H154 C139 0.929 . S
H155 C137 0.932 . S
C156 C157 1.386 . S
C156 C158 1.397 . S
C156 H180 0.931 . S
C157 C156 1.386 . S
C157 C161 1.397 . S
C158 C156 1.397 . S
C158 C159 1.384 . S
C158 H181 0.930 . S
C159 C158 1.384 . S
C159 C160 1.377 . S
C159 C162 1.481 . S
C160 C159 1.377 . S
C160 C161 1.389 . S
C160 H182 0.929 . S
C161 C157 1.397 . S
C161 C160 1.389 . S
C161 H183 0.931 . S
C162 C159 1.481 . S
C162 C163 1.387 . S
C162 C167 1.390 . S
C163 C162 1.387 . S
C163 C164 1.401 . S
C163 H184 0.930 . S
C164 C163 1.401 . S
C164 C165 1.376 . S
C164 C173 1.511 . S
C165 C164 1.376 . S
C165 C166 1.392 . S
C165 H186 0.931 . S
C166 C165 1.392 . S
C166 C167 1.361 . S
C166 C168 1.500 . S
C167 C162 1.390 . S
C167 C166 1.361 . S
C167 H185 0.931 . S
C168 C166 1.500 . S
C168 C169 1.371 . S
C168 C170 1.365 . S
C169 C168 1.371 . S
C169 C179 1.386 . S
C169 H187 0.931 . S
C170 C168 1.365 . S
C170 C171 1.409 . S
C170 H188 0.929 . S
C171 C170 1.409 . S
C171 C172 1.380 . S
C171 H189 0.930 . S
C172 C171 1.380 . S
C172 C179 1.357 . S
C173 C164 1.511 . S
C173 C174 1.341 . S
C173 C175 1.371 . S
C174 C173 1.341 . S
C174 C178 1.394 . S
C174 H190 0.930 . S
C175 C173 1.371 . S
C175 C176 1.392 . S
C175 H191 0.931 . S
C176 C175 1.392 . S
C176 C177 1.331 . S
C176 H194 0.932 . S
C177 C176 1.331 . S
C177 C178 1.336 . S
C178 C174 1.394 . S
C178 C177 1.336 . S
C178 H193 0.929 . S
C179 C169 1.386 . S
C179 C172 1.357 . S
C179 H192 0.928 . S
H180 C156 0.931 . S
H181 C158 0.930 . S
H182 C160 0.929 . S
H183 C161 0.931 . S
H184 C163 0.930 . S
H185 C167 0.931 . S
H186 C165 0.931 . S
H187 C169 0.931 . S
H188 C170 0.929 . S
H189 C171 0.930 . S
H190 C174 0.930 . S
H191 C175 0.931 . S
H192 C179 0.928 . S
H193 C178 0.929 . S
H194 C176 0.932 . S
C195 C196 1.386 . S
C195 C197 1.397 . S
C195 H219 0.931 . S
C196 C195 1.386 . S
C196 C200 1.397 . S
C197 C195 1.397 . S
C197 C198 1.384 . S
C197 H220 0.930 . S
C198 C197 1.384 . S
C198 C199 1.377 . S
C198 C201 1.481 . S
C199 C198 1.377 . S
C199 C200 1.389 . S
C199 H221 0.929 . S
C200 C196 1.397 . S
C200 C199 1.389 . S
C200 H222 0.931 . S
C201 C198 1.481 . S
C201 C202 1.387 . S
C201 C206 1.390 . S
C202 C201 1.387 . S
C202 C203 1.401 . S
C202 H223 0.930 . S
C203 C202 1.401 . S
C203 C204 1.376 . S
C203 C212 1.511 . S
C204 C203 1.376 . S
C204 C205 1.392 . S
C204 H225 0.931 . S
C205 C204 1.392 . S
C205 C206 1.361 . S
C205 C207 1.500 . S
C206 C201 1.390 . S
C206 C205 1.361 . S
C206 H224 0.931 . S
C207 C205 1.500 . S
C207 C208 1.371 . S
C207 C209 1.365 . S
C208 C207 1.371 . S
C208 C218 1.386 . S
C208 H226 0.931 . S
C209 C207 1.365 . S
C209 C210 1.409 . S
C209 H227 0.929 . S
C210 C209 1.409 . S
C210 C211 1.380 . S
C210 H228 0.930 . S
C211 C210 1.380 . S
C211 C218 1.357 . S
C212 C203 1.511 . S
C212 C213 1.341 . S
C212 C214 1.371 . S
C213 C212 1.341 . S
C213 C217 1.394 . S
C213 H229 0.930 . S
C214 C212 1.371 . S
C214 C215 1.392 . S
C214 H230 0.931 . S
C215 C214 1.392 . S
C215 C216 1.331 . S
C215 H233 0.932 . S
C216 C215 1.331 . S
C216 C217 1.336 . S
C217 C213 1.394 . S
C217 C216 1.336 . S
C217 H232 0.929 . S
C218 C208 1.386 . S
C218 C211 1.357 . S
C218 H231 0.928 . S
H219 C195 0.931 . S
H220 C197 0.930 . S
H221 C199 0.929 . S
H222 C200 0.931 . S
H223 C202 0.930 . S
H224 C206 0.931 . S
H225 C204 0.931 . S
H226 C208 0.931 . S
H227 C209 0.929 . S
H228 C210 0.930 . S
H229 C213 0.930 . S
H230 C214 0.931 . S
H231 C218 0.928 . S
H232 C217 0.929 . S
H233 C215 0.932 . S
C234 C235 1.386 . S
C234 C236 1.397 . S
C234 H258 0.931 . S
C235 C234 1.386 . S
C235 C239 1.397 . S
C236 C234 1.397 . S
C236 C237 1.384 . S
C236 H259 0.930 . S
C237 C236 1.384 . S
C237 C238 1.377 . S
C237 C240 1.481 . S
C238 C237 1.377 . S
C238 C239 1.389 . S
C238 H260 0.929 . S
C239 C235 1.397 . S
C239 C238 1.389 . S
C239 H261 0.931 . S
C240 C237 1.481 . S
C240 C241 1.387 . S
C240 C245 1.390 . S
C241 C240 1.387 . S
C241 C242 1.401 . S
C241 H262 0.930 . S
C242 C241 1.401 . S
C242 C243 1.376 . S
C242 C251 1.511 . S
C243 C242 1.376 . S
C243 C244 1.392 . S
C243 H264 0.931 . S
C244 C243 1.392 . S
C244 C245 1.361 . S
C244 C246 1.500 . S
C245 C240 1.390 . S
C245 C244 1.361 . S
C245 H263 0.931 . S
C246 C244 1.500 . S
C246 C247 1.371 . S
C246 C248 1.365 . S
C247 C246 1.371 . S
C247 C257 1.386 . S
C247 H265 0.931 . S
C248 C246 1.365 . S
C248 C249 1.409 . S
C248 H266 0.929 . S
C249 C248 1.409 . S
C249 C250 1.380 . S
C249 H267 0.930 . S
C250 C249 1.380 . S
C250 C257 1.357 . S
C251 C242 1.511 . S
C251 C252 1.341 . S
C251 C253 1.371 . S
C252 C251 1.341 . S
C252 C256 1.394 . S
C252 H268 0.930 . S
C253 C251 1.371 . S
C253 C254 1.392 . S
C253 H269 0.931 . S
C254 C253 1.392 . S
C254 C255 1.331 . S
C254 H272 0.932 . S
C255 C254 1.331 . S
C255 C256 1.336 . S
C256 C252 1.394 . S
C256 C255 1.336 . S
C256 H271 0.929 . S
C257 C247 1.386 . S
C257 C250 1.357 . S
C257 H270 0.928 . S
H258 C234 0.931 . S
H259 C236 0.930 . S
H260 C238 0.929 . S
H261 C239 0.931 . S
H262 C241 0.930 . S
H263 C245 0.931 . S
H264 C243 0.931 . S
H265 C247 0.931 . S
H266 C248 0.929 . S
H267 C249 0.930 . S
H268 C252 0.930 . S
H269 C253 0.931 . S
H270 C257 0.928 . S
H271 C256 0.929 . S
H272 C254 0.932 . S
C273 C274 1.386 . S
C273 C275 1.397 . S
C273 H297 0.931 . S
C274 C273 1.386 . S
C274 C278 1.397 . S
C275 C273 1.397 . S
C275 C276 1.384 . S
C275 H298 0.930 . S
C276 C275 1.384 . S
C276 C277 1.377 . S
C276 C279 1.481 . S
C277 C276 1.377 . S
C277 C278 1.389 . S
C277 H299 0.929 . S
C278 C274 1.397 . S
C278 C277 1.389 . S
C278 H300 0.931 . S
C279 C276 1.481 . S
C279 C280 1.387 . S
C279 C284 1.390 . S
C280 C279 1.387 . S
C280 C281 1.401 . S
C280 H301 0.930 . S
C281 C280 1.401 . S
C281 C282 1.376 . S
C281 C290 1.511 . S
C282 C281 1.376 . S
C282 C283 1.392 . S
C282 H303 0.931 . S
C283 C282 1.392 . S
C283 C284 1.361 . S
C283 C285 1.500 . S
C284 C279 1.390 . S
C284 C283 1.361 . S
C284 H302 0.931 . S
C285 C283 1.500 . S
C285 C286 1.371 . S
C285 C287 1.365 . S
C286 C285 1.371 . S
C286 C296 1.386 . S
C286 H304 0.931 . S
C287 C285 1.365 . S
C287 C288 1.409 . S
C287 H305 0.929 . S
C288 C287 1.409 . S
C288 C289 1.380 . S
C288 H306 0.930 . S
C289 C288 1.380 . S
C289 C296 1.357 . S
C290 C281 1.511 . S
C290 C291 1.341 . S
C290 C292 1.371 . S
C291 C290 1.341 . S
C291 C295 1.394 . S
C291 H307 0.930 . S
C292 C290 1.371 . S
C292 C293 1.392 . S
C292 H308 0.931 . S
C293 C292 1.392 . S
C293 C294 1.331 . S
C293 H311 0.932 . S
C294 C293 1.331 . S
C294 C295 1.336 . S
C295 C291 1.394 . S
C295 C294 1.336 . S
C295 H310 0.929 . S
C296 C286 1.386 . S
C296 C289 1.357 . S
C296 H309 0.928 . S
H297 C273 0.931 . S
H298 C275 0.930 . S
H299 C277 0.929 . S
H300 C278 0.931 . S
H301 C280 0.930 . S
H302 C284 0.931 . S
H303 C282 0.931 . S
H304 C286 0.931 . S
H305 C287 0.929 . S
H306 C288 0.930 . S
H307 C291 0.930 . S
H308 C292 0.931 . S
H309 C296 0.928 . S
H310 C295 0.929 . S
H311 C293 0.932 . S
La312 C314 2.928 . S
La312 O332 2.521 . S
La312 O333 2.628 . S
La312 O334 2.554 1_545 S
La312 O335 2.757 1_545 S
La312 O336 2.470 . S
La312 O341 2.482 1_455 S
La312 O343 2.503 1_445 S
La313 C323 2.928 . S
La313 O335 2.482 1_655 S
La313 O337 2.503 1_665 S
La313 O338 2.521 . S
La313 O339 2.628 . S
La313 O340 2.554 1_565 S
La313 O341 2.757 1_565 S
La313 O342 2.470 . S
C314 La312 2.928 . S
C314 C315 1.503 . S
C314 O332 1.261 . S
C314 O333 1.243 . S
C315 C314 1.503 . S
C315 C316 1.394 . S
C315 C320 1.373 . S
C316 C315 1.394 . S
C316 C317 1.380 . S
C316 H344 0.930 . S
C317 C316 1.380 . S
C317 C318 1.376 . S
C317 H345 0.930 . S
C318 C317 1.376 . S
C318 C319 1.370 . S
C319 C318 1.370 . S
C319 C320 1.396 . S
C319 H346 0.929 . S
C320 C315 1.373 . S
C320 C319 1.396 . S
C320 H347 0.929 . S
C321 O334 1.240 . S
C321 O335 1.289 . S
C322 O336 1.258 . S
C322 O337 1.256 . S
C323 La313 2.928 . S
C323 C324 1.503 . S
C323 O338 1.261 . S
C323 O339 1.243 . S
C324 C323 1.503 . S
C324 C325 1.394 . S
C324 C329 1.373 . S
C325 C324 1.394 . S
C325 C326 1.380 . S
C325 H348 0.930 . S
C326 C325 1.380 . S
C326 C327 1.376 . S
C326 H349 0.930 . S
C327 C326 1.376 . S
C327 C328 1.370 . S
C328 C327 1.370 . S
C328 C329 1.396 . S
C328 H350 0.929 . S
C329 C324 1.373 . S
C329 C328 1.396 . S
C329 H351 0.929 . S
C330 O340 1.240 . S
C330 O341 1.289 . S
C331 O342 1.258 . S
C331 O343 1.256 . S
O332 La312 2.521 . S
O332 C314 1.261 . S
O333 La312 2.628 . S
O333 C314 1.243 . S
O334 La312 2.554 1_565 S
O334 C321 1.240 . S
O335 La312 2.757 1_565 S
O335 La313 2.482 1_455 S
O335 C321 1.289 . S
O336 La312 2.470 . S
O336 C322 1.258 . S
O337 La313 2.503 1_445 S
O337 C322 1.256 . S
O338 La313 2.521 . S
O338 C323 1.261 . S
O339 La313 2.628 . S
O339 C323 1.243 . S
O340 La313 2.554 1_545 S
O340 C330 1.240 . S
O341 La312 2.482 1_655 S
O341 La313 2.757 1_545 S
O341 C330 1.289 . S
O342 La313 2.470 . S
O342 C331 1.258 . S
O343 La312 2.503 1_665 S
O343 C331 1.256 . S
H344 C316 0.930 . S
H345 C317 0.930 . S
H346 C319 0.929 . S
H347 C320 0.929 . S
H348 C325 0.930 . S
H349 C326 0.930 . S
H350 C328 0.929 . S
H351 C329 0.929 . S
La352 C354 2.942 . S
La352 O372 2.523 . S
La352 O373 2.651 . S
La352 O374 2.534 1_545 S
La352 O375 2.746 1_545 S
La352 O376 2.485 . S
La352 O381 2.502 1_554 S
La352 O383 2.488 1_544 S
La353 C363 2.928 1_545 S
La353 O375 2.482 1_546 S
La353 O377 2.503 1_556 S
La353 O378 2.521 1_545 S
La353 O379 2.628 1_545 S
La353 O380 2.554 . S
La353 O381 2.757 . S
La353 O382 2.470 1_545 S
C354 La352 2.942 . S
C354 C355 1.503 . S
C354 O372 1.261 . S
C354 O373 1.243 . S
C355 C354 1.503 . S
C355 C356 1.394 . S
C355 C360 1.373 . S
C356 C355 1.394 . S
C356 C357 1.380 . S
C356 H384 0.930 . S
C357 C356 1.380 . S
C357 C358 1.376 . S
C357 H385 0.930 . S
C358 C357 1.376 . S
C358 C359 1.370 . S
C359 C358 1.370 . S
C359 C360 1.396 . S
C359 H386 0.929 . S
C360 C355 1.373 . S
C360 C359 1.396 . S
C360 H387 0.929 . S
C361 O374 1.240 . S
C361 O375 1.289 . S
C362 O376 1.258 . S
C362 O377 1.256 . S
C363 La353 2.928 1_565 S
C363 C364 1.503 . S
C363 O378 1.261 . S
C363 O379 1.243 . S
C364 C363 1.503 . S
C364 C365 1.394 . S
C364 C369 1.373 . S
C365 C364 1.394 . S
C365 C366 1.380 . S
C365 H388 0.930 . S
C366 C365 1.380 . S
C366 C367 1.376 . S
C366 H389 0.930 . S
C367 C366 1.376 . S
C367 C368 1.370 . S
C368 C367 1.370 . S
C368 C369 1.396 . S
C368 H390 0.929 . S
C369 C364 1.373 . S
C369 C368 1.396 . S
C369 H391 0.929 . S
C370 O380 1.240 . S
C370 O381 1.289 . S
C371 O382 1.258 . S
C371 O383 1.256 . S
O372 La352 2.523 . S
O372 C354 1.261 . S
O373 La352 2.651 . S
O373 C354 1.243 . S
O374 La352 2.534 1_565 S
O374 C361 1.240 . S
O375 La352 2.746 1_565 S
O375 La353 2.482 1_564 S
O375 C361 1.289 . S
O376 La352 2.485 . S
O376 C362 1.258 . S
O377 La353 2.503 1_554 S
O377 C362 1.256 . S
O378 La353 2.521 1_565 S
O378 C363 1.261 . S
O379 La353 2.628 1_565 S
O379 C363 1.243 . S
O380 La353 2.554 . S
O380 C370 1.240 . S
O381 La352 2.502 1_556 S
O381 La353 2.757 . S
O381 C370 1.289 . S
O382 La353 2.470 1_565 S
O382 C371 1.258 . S
O383 La352 2.488 1_566 S
O383 C371 1.256 . S
H384 C356 0.930 . S
H385 C357 0.930 . S
H386 C359 0.929 . S
H387 C360 0.929 . S
H388 C365 0.930 . S
H389 C366 0.930 . S
H390 C368 0.929 . S
H391 C369 0.929 . S
La392 C394 2.928 . S
La392 O412 2.521 . S
La392 O413 2.628 . S
La392 O414 2.554 . S
La392 O415 2.757 . S
La392 O416 2.470 . S
La392 O421 2.482 . S
La392 O423 2.503 . S
La393 C403 2.928 . S
La393 O415 2.482 . S
La393 O417 2.503 . S
La393 O418 2.521 . S
La393 O419 2.628 . S
La393 O420 2.554 . S
La393 O421 2.757 . S
La393 O422 2.470 . S
C394 La392 2.928 . S
C394 C395 1.503 . S
C394 O412 1.261 . S
C394 O413 1.243 . S
C395 C394 1.503 . S
C395 C396 1.394 . S
C395 C400 1.373 . S
C396 C395 1.394 . S
C396 C397 1.380 . S
C396 H424 0.930 . S
C397 C396 1.380 . S
C397 C398 1.376 . S
C397 H425 0.930 . S
C398 C397 1.376 . S
C398 C399 1.370 . S
C399 C398 1.370 . S
C399 C400 1.396 . S
C399 H426 0.929 . S
C400 C395 1.373 . S
C400 C399 1.396 . S
C400 H427 0.929 . S
C401 O414 1.240 . S
C401 O415 1.289 . S
C402 O416 1.258 . S
C402 O417 1.256 . S
C403 La393 2.928 . S
C403 C404 1.503 . S
C403 O418 1.261 . S
C403 O419 1.243 . S
C404 C403 1.503 . S
C404 C405 1.394 . S
C404 C409 1.373 . S
C405 C404 1.394 . S
C405 C406 1.380 . S
C405 H428 0.930 . S
C406 C405 1.380 . S
C406 C407 1.376 . S
C406 H429 0.930 . S
C407 C406 1.376 . S
C407 C408 1.370 . S
C408 C407 1.370 . S
C408 C409 1.396 . S
C408 H430 0.929 . S
C409 C404 1.373 . S
C409 C408 1.396 . S
C409 H431 0.929 . S
C410 O420 1.240 . S
C410 O421 1.289 . S
C411 O422 1.258 . S
C411 O423 1.256 . S
O412 La392 2.521 . S
O412 C394 1.261 . S
O413 La392 2.628 . S
O413 C394 1.243 . S
O414 La392 2.554 . S
O414 C401 1.240 . S
O415 La392 2.757 . S
O415 La393 2.482 . S
O415 C401 1.289 . S
O416 La392 2.470 . S
O416 C402 1.258 . S
O417 La393 2.503 . S
O417 C402 1.256 . S
O418 La393 2.521 . S
O418 C403 1.261 . S
O419 La393 2.628 . S
O419 C403 1.243 . S
O420 La393 2.554 . S
O420 C410 1.240 . S
O421 La392 2.482 . S
O421 La393 2.757 . S
O421 C410 1.289 . S
O422 La393 2.470 . S
O422 C411 1.258 . S
O423 La392 2.503 . S
O423 C411 1.256 . S
H424 C396 0.930 . S
H425 C397 0.930 . S
H426 C399 0.929 . S
H427 C400 0.929 . S
H428 C405 0.930 . S
H429 C406 0.930 . S
H430 C408 0.929 . S
H431 C409 0.929 . S
La432 C434 2.928 . S
La432 O452 2.521 . S
La432 O453 2.628 . S
La432 O454 2.554 1_455 S
La432 O455 2.757 1_455 S
La432 O456 2.470 . S
La432 O461 2.482 1_554 S
La432 O463 2.503 1_454 S
La433 C443 2.928 . S
La433 O455 2.482 1_556 S
La433 O457 2.503 1_656 S
La433 O458 2.521 . S
La433 O459 2.628 . S
La433 O460 2.554 1_655 S
La433 O461 2.757 1_655 S
La433 O462 2.470 . S
C434 La432 2.928 . S
C434 C435 1.503 . S
C434 O452 1.261 . S
C434 O453 1.243 . S
C435 C434 1.503 . S
C435 C436 1.394 . S
C435 C440 1.373 . S
C436 C435 1.394 . S
C436 C437 1.380 . S
C436 H464 0.930 . S
C437 C436 1.380 . S
C437 C438 1.376 . S
C437 H465 0.930 . S
C438 C437 1.376 . S
C438 C439 1.370 . S
C439 C438 1.370 . S
C439 C440 1.396 . S
C439 H466 0.929 . S
C440 C435 1.373 . S
C440 C439 1.396 . S
C440 H467 0.929 . S
C441 O454 1.240 . S
C441 O455 1.289 . S
C442 O456 1.258 . S
C442 O457 1.256 . S
C443 La433 2.928 . S
C443 C444 1.503 . S
C443 O458 1.261 . S
C443 O459 1.243 . S
C444 C443 1.503 . S
C444 C445 1.394 . S
C444 C449 1.373 . S
C445 C444 1.394 . S
C445 C446 1.380 . S
C445 H468 0.930 . S
C446 C445 1.380 . S
C446 C447 1.376 . S
C446 H469 0.930 . S
C447 C446 1.376 . S
C447 C448 1.370 . S
C448 C447 1.370 . S
C448 C449 1.396 . S
C448 H470 0.929 . S
C449 C444 1.373 . S
C449 C448 1.396 . S
C449 H471 0.929 . S
C450 O460 1.240 . S
C450 O461 1.289 . S
C451 O462 1.258 . S
C451 O463 1.256 . S
O452 La432 2.521 . S
O452 C434 1.261 . S
O453 La432 2.628 . S
O453 C434 1.243 . S
O454 La432 2.554 1_655 S
O454 C441 1.240 . S
O455 La432 2.757 1_655 S
O455 La433 2.482 1_554 S
O455 C441 1.289 . S
O456 La432 2.470 . S
O456 C442 1.258 . S
O457 La433 2.503 1_454 S
O457 C442 1.256 . S
O458 La433 2.521 . S
O458 C443 1.261 . S
O459 La433 2.628 . S
O459 C443 1.243 . S
O460 La433 2.554 1_455 S
O460 C450 1.240 . S
O461 La432 2.482 1_556 S
O461 La433 2.757 1_455 S
O461 C450 1.289 . S
O462 La433 2.470 . S
O462 C451 1.258 . S
O463 La432 2.503 1_656 S
O463 C451 1.256 . S
H464 C436 0.930 . S
H465 C437 0.930 . S
H466 C439 0.929 . S
H467 C440 0.929 . S
H468 C445 0.930 . S
H469 C446 0.930 . S
H470 C448 0.929 . S
H471 C449 0.929 . S
C472 C473 1.387 . S
C472 H476 0.950 . S
C472 C481 1.390 . S
C473 C472 1.387 . S
C473 C475 1.387 . S
H474 C481 0.950 . S
C475 C473 1.387 . S
C475 C477 1.390 . S
C475 H479 0.950 . S
H476 C472 0.950 . S
C477 C475 1.390 . S
C477 C478 1.387 . S
C477 H480 0.950 . S
C478 C477 1.387 . S
C478 C481 1.387 . S
H479 C475 0.950 . S
H480 C477 0.950 . S
C481 C472 1.390 . S
C481 H474 0.950 . S
C481 C478 1.387 . S
C482 C483 1.387 . S
C482 H486 0.950 . S
C482 C491 1.390 . S
C483 C482 1.387 . S
C483 C485 1.387 . S
H484 C491 0.950 . S
C485 C483 1.387 . S
C485 C487 1.390 . S
C485 H489 0.950 . S
H486 C482 0.950 . S
C487 C485 1.390 . S
C487 C488 1.387 . S
C487 H490 0.950 . S
C488 C487 1.387 . S
C488 C491 1.387 . S
H489 C485 0.950 . S
H490 C487 0.950 . S
C491 C482 1.390 . S
C491 H484 0.950 . S
C491 C488 1.387 . S
C492 C493 1.387 . S
C492 H496 0.950 . S
C492 C501 1.390 . S
C493 C492 1.387 . S
C493 C495 1.387 . S
H494 C501 0.950 . S
C495 C493 1.387 . S
C495 C497 1.390 . S
C495 H499 0.950 . S
H496 C492 0.950 . S
C497 C495 1.390 . S
C497 C498 1.387 . S
C497 H500 0.950 . S
C498 C497 1.387 . S
C498 C501 1.387 . S
H499 C495 0.950 . S
H500 C497 0.950 . S
C501 C492 1.390 . S
C501 H494 0.950 . S
C501 C498 1.387 . S
C502 C503 1.387 . S
C502 H506 0.950 . S
C502 C511 1.390 . S
C503 C502 1.387 . S
C503 C505 1.387 . S
H504 C511 0.950 . S
C505 C503 1.387 . S
C505 C507 1.390 . S
C505 H509 0.950 . S
H506 C502 0.950 . S
C507 C505 1.390 . S
C507 C508 1.387 . S
C507 H510 0.950 . S
C508 C507 1.387 . S
C508 C511 1.387 . S
H509 C505 0.950 . S
H510 C507 0.950 . S
C511 C502 1.390 . S
C511 H504 0.950 . S
C511 C508 1.387 . S
C512 C513 1.387 . S
C512 H516 0.950 . S
C512 C521 1.390 . S
C513 C512 1.387 . S
C513 C515 1.387 . S
H514 C521 0.950 . S
C515 C513 1.387 . S
C515 C517 1.390 . S
C515 H519 0.950 . S
H516 C512 0.950 . S
C517 C515 1.390 . S
C517 C518 1.387 . S
C517 H520 0.950 . S
C518 C517 1.387 . S
C518 C521 1.387 . S
H519 C515 0.950 . S
H520 C517 0.950 . S
C521 C512 1.390 . S
C521 H514 0.950 . S
C521 C518 1.387 . S
C522 C523 1.387 . S
C522 H526 0.950 . S
C522 C531 1.390 . S
C523 C522 1.387 . S
C523 C525 1.387 . S
H524 C531 0.950 . S
C525 C523 1.387 . S
C525 C527 1.390 . S
C525 H529 0.950 . S
H526 C522 0.950 . S
C527 C525 1.390 . S
C527 C528 1.387 . S
C527 H530 0.950 . S
C528 C527 1.387 . S
C528 C531 1.387 . S
H529 C525 0.950 . S
H530 C527 0.950 . S
C531 C522 1.390 . S
C531 H524 0.950 . S
C531 C528 1.387 . S
C532 C533 1.387 . S
C532 H536 0.950 . S
C532 C541 1.390 . S
C533 C532 1.387 . S
C533 C535 1.387 . S
H534 C541 0.950 . S
C535 C533 1.387 . S
C535 C537 1.390 . S
C535 H539 0.950 . S
H536 C532 0.950 . S
C537 C535 1.390 . S
C537 C538 1.387 . S
C537 H540 0.950 . S
C538 C537 1.387 . S
C538 C541 1.387 . S
H539 C535 0.950 . S
H540 C537 0.950 . S
C541 C532 1.390 . S
C541 H534 0.950 . S
C541 C538 1.387 . S
C542 C543 1.387 . S
C542 H546 0.950 . S
C542 C551 1.390 . S
C543 C542 1.387 . S
C543 C545 1.387 . S
H544 C551 0.950 . S
C545 C543 1.387 . S
C545 C547 1.390 . S
C545 H549 0.950 . S
H546 C542 0.950 . S
C547 C545 1.390 . S
C547 C548 1.387 . S
C547 H550 0.950 . S
C548 C547 1.387 . S
C548 C551 1.387 . S
H549 C545 0.950 . S
H550 C547 0.950 . S
C551 C542 1.390 . S
C551 H544 0.950 . S
C551 C548 1.387 . S
C552 C553 1.387 . S
C552 H556 0.950 . S
C552 C561 1.390 . S
C553 C552 1.387 . S
C553 C555 1.387 . S
H554 C561 0.950 . S
C555 C553 1.387 . S
C555 C557 1.390 . S
C555 H559 0.950 . S
H556 C552 0.950 . S
C557 C555 1.390 . S
C557 C558 1.387 . S
C557 H560 0.950 . S
C558 C557 1.387 . S
C558 C561 1.387 . S
H559 C555 0.950 . S
H560 C557 0.950 . S
C561 C552 1.390 . S
C561 H554 0.950 . S
C561 C558 1.387 . S
C562 C563 1.387 . S
C562 H566 0.950 . S
C562 C571 1.390 . S
C563 C562 1.387 . S
C563 C565 1.387 . S
H564 C571 0.950 . S
C565 C563 1.387 . S
C565 C567 1.390 . S
C565 H569 0.950 . S
H566 C562 0.950 . S
C567 C565 1.390 . S
C567 C568 1.387 . S
C567 H570 0.950 . S
C568 C567 1.387 . S
C568 C571 1.387 . S
H569 C565 0.950 . S
H570 C567 0.950 . S
C571 C562 1.390 . S
C571 H564 0.950 . S
C571 C568 1.387 . S
C572 C573 1.387 . S
C572 H576 0.950 . S
C572 C581 1.390 . S
C573 C572 1.387 . S
C573 C575 1.387 . S
H574 C581 0.950 . S
C575 C573 1.387 . S
C575 C577 1.390 . S
C575 H579 0.950 . S
H576 C572 0.950 . S
C577 C575 1.390 . S
C577 C578 1.387 . S
C577 H580 0.950 . S
C578 C577 1.387 . S
C578 C581 1.387 . S
H579 C575 0.950 . S
H580 C577 0.950 . S
C581 C572 1.390 . S
C581 H574 0.950 . S
C581 C578 1.387 . S
C582 C583 1.387 . S
C582 H586 0.950 . S
C582 C591 1.390 . S
C583 C582 1.387 . S
C583 C585 1.387 . S
H584 C591 0.950 . S
C585 C583 1.387 . S
C585 C587 1.390 . S
C585 H589 0.950 . S
H586 C582 0.950 . S
C587 C585 1.390 . S
C587 C588 1.387 . S
C587 H590 0.950 . S
C588 C587 1.387 . S
C588 C591 1.387 . S
H589 C585 0.950 . S
H590 C587 0.950 . S
C591 C582 1.390 . S
C591 H584 0.950 . S
C591 C588 1.387 . S
C592 C593 1.387 . S
C592 H596 0.950 . S
C592 C601 1.390 . S
C593 C592 1.387 . S
C593 C595 1.387 . S
H594 C601 0.950 . S
C595 C593 1.387 . S
C595 C597 1.390 . S
C595 H599 0.950 . S
H596 C592 0.950 . S
C597 C595 1.390 . S
C597 C598 1.387 . S
C597 H600 0.950 . S
C598 C597 1.387 . S
C598 C601 1.387 . S
H599 C595 0.950 . S
H600 C597 0.950 . S
C601 C592 1.390 . S
C601 H594 0.950 . S
C601 C598 1.387 . S
C602 C603 1.387 . S
C602 H606 0.950 . S
C602 C611 1.390 . S
C603 C602 1.387 . S
C603 C605 1.387 . S
H604 C611 0.950 . S
C605 C603 1.387 . S
C605 C607 1.390 . S
C605 H609 0.950 . S
H606 C602 0.950 . S
C607 C605 1.390 . S
C607 C608 1.387 . S
C607 H610 0.950 . S
C608 C607 1.387 . S
C608 C611 1.387 . S
H609 C605 0.950 . S
H610 C607 0.950 . S
C611 C602 1.390 . S
C611 H604 0.950 . S
C611 C608 1.387 . S
C612 C613 1.387 . S
C612 H616 0.950 . S
C612 C621 1.390 . S
C613 C612 1.387 . S
C613 C615 1.387 . S
H614 C621 0.950 . S
C615 C613 1.387 . S
C615 C617 1.390 . S
C615 H619 0.950 . S
H616 C612 0.950 . S
C617 C615 1.390 . S
C617 C618 1.387 . S
C617 H620 0.950 . S
C618 C617 1.387 . S
C618 C621 1.387 . S
H619 C615 0.950 . S
H620 C617 0.950 . S
C621 C612 1.390 . S
C621 H614 0.950 . S
C621 C618 1.387 . S
C622 C623 1.387 . S
C622 H626 0.950 . S
C622 C631 1.390 . S
C623 C622 1.387 . S
C623 C625 1.387 . S
H624 C631 0.950 . S
C625 C623 1.387 . S
C625 C627 1.390 . S
C625 H629 0.950 . S
H626 C622 0.950 . S
C627 C625 1.390 . S
C627 C628 1.387 . S
C627 H630 0.950 . S
C628 C627 1.387 . S
C628 C631 1.387 . S
H629 C625 0.950 . S
H630 C627 0.950 . S
C631 C622 1.390 . S
C631 H624 0.950 . S
C631 C628 1.387 . S
C632 C633 1.387 . S
C632 H636 0.950 . S
C632 C641 1.390 . S
C633 C632 1.387 . S
C633 C635 1.387 . S
H634 C641 0.950 . S
C635 C633 1.387 . S
C635 C637 1.390 . S
C635 H639 0.950 . S
H636 C632 0.950 . S
C637 C635 1.390 . S
C637 C638 1.387 . S
C637 H640 0.950 . S
C638 C637 1.387 . S
C638 C641 1.387 . S
H639 C635 0.950 . S
H640 C637 0.950 . S
C641 C632 1.390 . S
C641 H634 0.950 . S
C641 C638 1.387 . S
C642 C643 1.387 . S
C642 H646 0.950 . S
C642 C651 1.390 . S
C643 C642 1.387 . S
C643 C645 1.387 . S
H644 C651 0.950 . S
C645 C643 1.387 . S
C645 C647 1.390 . S
C645 H649 0.950 . S
H646 C642 0.950 . S
C647 C645 1.390 . S
C647 C648 1.387 . S
C647 H650 0.950 . S
C648 C647 1.387 . S
C648 C651 1.387 . S
H649 C645 0.950 . S
H650 C647 0.950 . S
C651 C642 1.390 . S
C651 H644 0.950 . S
C651 C648 1.387 . S
C652 C653 1.387 . S
C652 H656 0.950 . S
C652 C661 1.390 . S
C653 C652 1.387 . S
C653 C655 1.387 . S
H654 C661 0.950 . S
C655 C653 1.387 . S
C655 C657 1.390 . S
C655 H659 0.950 . S
H656 C652 0.950 . S
C657 C655 1.390 . S
C657 C658 1.387 . S
C657 H660 0.950 . S
C658 C657 1.387 . S
C658 C661 1.387 . S
H659 C655 0.950 . S
H660 C657 0.950 . S
C661 C652 1.390 . S
C661 H654 0.950 . S
C661 C658 1.387 . S
C662 C663 1.387 . S
C662 H666 0.950 . S
C662 C671 1.390 . S
C663 C662 1.387 . S
C663 C665 1.387 . S
H664 C671 0.950 . S
C665 C663 1.387 . S
C665 C667 1.390 . S
C665 H669 0.950 . S
H666 C662 0.950 . S
C667 C665 1.390 . S
C667 C668 1.387 . S
C667 H670 0.950 . S
C668 C667 1.387 . S
C668 C671 1.387 . S
H669 C665 0.950 . S
H670 C667 0.950 . S
C671 C662 1.390 . S
C671 H664 0.950 . S
C671 C668 1.387 . S
C672 C673 1.387 . S
C672 H676 0.950 . S
C672 C681 1.390 . S
C673 C672 1.387 . S
C673 C675 1.387 . S
H674 C681 0.950 . S
C675 C673 1.387 . S
C675 C677 1.390 . S
C675 H679 0.950 . S
H676 C672 0.950 . S
C677 C675 1.390 . S
C677 C678 1.387 . S
C677 H680 0.950 . S
C678 C677 1.387 . S
C678 C681 1.387 . S
H679 C675 0.950 . S
H680 C677 0.950 . S
C681 C672 1.390 . S
C681 H674 0.950 . S
C681 C678 1.387 . S
C682 C683 1.387 . S
C682 H686 0.950 . S
C682 C691 1.390 . S
C683 C682 1.387 . S
C683 C685 1.387 . S
H684 C691 0.950 . S
C685 C683 1.387 . S
C685 C687 1.390 . S
C685 H689 0.950 . S
H686 C682 0.950 . S
C687 C685 1.390 . S
C687 C688 1.387 . S
C687 H690 0.950 . S
C688 C687 1.387 . S
C688 C691 1.387 . S
H689 C685 0.950 . S
H690 C687 0.950 . S
C691 C682 1.390 . S
C691 H684 0.950 . S
C691 C688 1.387 . S
C692 C693 1.387 . S
C692 H696 0.950 . S
C692 C701 1.390 . S
C693 C692 1.387 . S
C693 C695 1.387 . S
H694 C701 0.950 . S
C695 C693 1.387 . S
C695 C697 1.390 . S
C695 H699 0.950 . S
H696 C692 0.950 . S
C697 C695 1.390 . S
C697 C698 1.387 . S
C697 H700 0.950 . S
C698 C697 1.387 . S
C698 C701 1.387 . S
H699 C695 0.950 . S
H700 C697 0.950 . S
C701 C692 1.390 . S
C701 H694 0.950 . S
C701 C698 1.387 . S
C702 C703 1.387 . S
C702 H706 0.950 . S
C702 C711 1.390 . S
C703 C702 1.387 . S
C703 C705 1.387 . S
H704 C711 0.950 . S
C705 C703 1.387 . S
C705 C707 1.390 . S
C705 H709 0.950 . S
H706 C702 0.950 . S
C707 C705 1.390 . S
C707 C708 1.387 . S
C707 H710 0.950 . S
C708 C707 1.387 . S
C708 C711 1.387 . S
H709 C705 0.950 . S
H710 C707 0.950 . S
C711 C702 1.390 . S
C711 H704 0.950 . S
C711 C708 1.387 . S
C473 C1 1.304 . S
C478 C318 1.409 . S
C483 C40 1.077 . S
C488 C367 1.074 . S
C498 C402 2.504 . S
C493 C99 2.577 . S
C503 C118 2.476 . S
C508 C441 2.417 . S
C518 C362 2.621 . S
C513 C16 2.393 . S
C528 C321 0.838 . S
C523 C60 0.860 . S
C538 C451 1.926 . S
C533 C79 1.998 . S
C548 C410 1.700 . S
C543 C138 1.714 . S
C553 C21 1.694 . S
C558 C438 1.826 . S
C568 C370 2.350 . S
C563 C94 2.459 . S
C573 C133 2.358 . S
C578 C331 2.343 . S
C583 C55 1.087 . S
C588 C407 1.126 . S
C598 C327 1.411 . S
C593 C157 1.317 . S
C603 C196 1.080 . S
C608 C358 1.075 . S
C613 C255 2.575 . S
C618 C411 2.504 . S
C623 C289 2.473 . S
C628 C450 2.411 . S
C633 C172 2.379 . S
C638 C371 2.619 . S
C648 C330 0.838 . S
C643 C216 0.863 . S
C658 C442 1.927 . S
C653 C235 2.001 . S
C668 C401 1.698 . S
C663 C294 1.716 . S
C673 C177 1.716 . S
C678 C447 1.823 . S
C688 C361 2.351 . S
C683 C250 2.460 . S
C698 C322 2.348 . S
C693 C274 2.359 . S
C703 C211 1.090 . S
C708 C398 1.127 . S
