# Generated by pormake.
# Topology zzz, (3,6)-cn, num edge types: 1
# Building blocks:
#     Node 0, Type 0, BuildingBlock: QEWDON_clean_linker_0, # of connection points: 3
#     Node 1, Type 0, BuildingBlock: QEWDON_clean_linker_0, # of connection points: 3
#     Node 2, Type 0, BuildingBlock: QEWDON_clean_linker_0, # of connection points: 3
#     Node 3, Type 0, BuildingBlock: QEWDON_clean_linker_0, # of connection points: 3
#     Node 4, Type 0, BuildingBlock: QEWDON_clean_linker_0, # of connection points: 3
#     Node 5, Type 0, BuildingBlock: QEWDON_clean_linker_0, # of connection points: 3
#     Node 6, Type 0, BuildingBlock: QEWDON_clean_linker_0, # of connection points: 3
#     Node 7, Type 0, BuildingBlock: QEWDON_clean_linker_0, # of connection points: 3
#     Node 8, Type 1, BuildingBlock: BETFAJ_clean_sbu_0, # of connection points: 6
#     Node 9, Type 1, BuildingBlock: BETFAJ_clean_sbu_0, # of connection points: 6
#     Node 10, Type 1, BuildingBlock: BETFAJ_clean_sbu_0, # of connection points: 6
#     Node 11, Type 1, BuildingBlock: BETFAJ_clean_sbu_0, # of connection points: 6
#     Edge 12, Type (0, 1), None
#     Edge 13, Type (0, 1), None
#     Edge 14, Type (0, 1), None
#     Edge 15, Type (0, 1), None
#     Edge 16, Type (0, 1), None
#     Edge 17, Type (0, 1), None
#     Edge 18, Type (0, 1), None
#     Edge 19, Type (0, 1), None
#     Edge 20, Type (0, 1), None
#     Edge 21, Type (0, 1), None
#     Edge 22, Type (0, 1), None
#     Edge 23, Type (0, 1), None
#     Edge 24, Type (0, 1), None
#     Edge 25, Type (0, 1), None
#     Edge 26, Type (0, 1), None
#     Edge 27, Type (0, 1), None
#     Edge 28, Type (0, 1), None
#     Edge 29, Type (0, 1), None
#     Edge 30, Type (0, 1), None
#     Edge 31, Type (0, 1), None
#     Edge 32, Type (0, 1), None
#     Edge 33, Type (0, 1), None
#     Edge 34, Type (0, 1), None
#     Edge 35, Type (0, 1), None
# Relax obj value: 0.449
# Max RMSD: 0.224
# Mean RMSD: 0.112
data_MOF--net-zzz--node1-BETFAJ_clean_sbu_0--node2-QEWDON_clean_linker_0--edge1-none
_symmetry_space_group_name_H-M    P1
_symmetry_Int_Tables_number       1
_symmetry_cell_setting            triclinic
loop_
_symmetry_equiv_pos_as_xyz
'x, y, z'
_cell_length_a     27.519218
_cell_length_b     27.546945
_cell_length_c     7.5905518
_cell_angle_alpha  89.163085
_cell_angle_beta   89.802305
_cell_angle_gamma 90.084013
loop_
_atom_site_label
_atom_site_type_symbol
_atom_site_fract_x
_atom_site_fract_y
_atom_site_fract_z
_atom_type_partial_charge
H0 H 0.7094 0.48518 0.58876 0.0
C1 C 0.74646 0.48954 0.6331 0.0
C2 C 0.78379 0.46565 0.54217 0.0
C3 C 0.75784 0.51989 0.77733 0.0
H4 H 0.86084 0.45316 0.52833 0.0
C5 C 0.83191 0.47268 0.59305 0.0
C6 C 0.84445 0.50839 0.70903 0.0
C7 C 0.80773 0.53057 0.80837 0.0
C8 C 0.71838 0.54093 0.89181 0.0
H9 H 0.81871 0.55513 0.91046 0.0
C10 C 0.67208 0.51856 0.90734 0.0
C11 C 0.63487 0.53919 0.01111 0.0
C12 C 0.72651 0.58373 -0.01227 0.0
H13 H 0.76023 0.60368 -0.02258 0.0
C14 C 0.69056 0.60271 0.09696 0.0
H15 H 0.66423 0.48582 0.83572 0.0
C16 C 0.64497 0.58089 0.10783 0.0
H17 H 0.61693 0.59761 0.18701 0.0
H18 H 0.69764 0.63551 0.16946 0.0
H19 H 0.04997 0.71569 0.58306 0.0
C20 C 0.04679 0.75187 0.63551 0.0
C21 C 0.07322 0.78951 0.55348 0.0
C22 C 1.01514 0.76179 0.77902 0.0
H23 H 0.08756 0.86633 0.55037 0.0
C24 C 0.0669 0.83701 0.6106 0.0
C25 C 0.02976 0.84883 0.72394 0.0
C26 C 1.00572 0.81141 0.81774 0.0
C27 C 0.99108 0.72083 0.88144 0.0
H28 H 0.98021 0.82153 0.91917 0.0
C29 C 1.01107 0.67345 0.88321 0.0
C30 C 0.98782 0.63441 -0.02741 0.0
C31 C 0.94771 0.72818 -0.02273 0.0
H32 H 0.92967 0.76296 -0.02198 0.0
C33 C 0.92564 0.69004 0.07123 0.0
H34 H 0.04457 0.66631 0.81346 0.0
C35 C 0.94522 0.64339 0.06787 0.0
H36 H 0.92642 0.61404 0.13615 0.0
H37 H 0.89232 0.69645 0.14339 0.0
H38 H 0.81632 0.03789 0.57668 0.0
C39 C 0.78058 0.03499 0.63598 0.0
C40 C 0.74155 0.05923 0.55517 0.0
C41 C 0.77254 1.00595 0.78947 0.0
H42 H 0.6652 0.07364 0.56376 0.0
C43 C 0.69498 0.05448 0.62642 0.0
C44 C 0.68484 0.02018 0.75646 0.0
C45 C 0.72368 0.99678 0.84179 0.0
C46 C 0.81447 0.98488 0.89208 0.0
H47 H 0.71532 0.97266 0.95131 0.0
C48 C 0.86056 1.00775 0.89038 0.0
C49 C 0.90029 0.98766 -0.01634 0.0
C50 C 0.809 0.94193 -0.00603 0.0
H51 H 0.7752 0.92193 -0.00316 0.0
C52 C 0.84775 0.92304 0.09154 0.0
H53 H 0.86606 0.04081 0.8141 0.0
C54 C 0.89318 0.94546 0.08566 0.0
H55 H 0.92319 0.92909 0.15691 0.0
H56 H 0.84283 0.89002 0.16863 0.0
H57 H 0.49323 0.82058 0.58237 0.0
C58 C 0.49754 0.78415 0.63548 0.0
C59 C 0.47532 0.74508 0.54925 0.0
C60 C 0.52639 0.77518 0.78752 0.0
H61 H 0.46308 0.66833 0.55078 0.0
C62 C 0.48118 0.69802 0.61586 0.0
C63 C 0.51506 0.68766 0.745 0.0
C64 C 0.53714 0.72615 0.83297 0.0
C65 C 0.54554 0.81587 0.89841 0.0
H66 H 0.56104 0.71718 0.94116 0.0
C67 C 0.5209 0.86087 0.90992 0.0
C68 C 0.53912 0.89848 0.01635 0.0
C69 C 0.58838 0.80963 -0.00184 0.0
H70 H 0.61005 0.77707 -0.01028 0.0
C71 C 0.60497 0.84588 0.10937 0.0
H72 H 0.48839 0.86731 0.83323 0.0
C73 C 0.58069 0.89002 0.11826 0.0
H74 H 0.59556 0.91844 0.19949 0.0
H75 H 0.63776 0.84021 0.1853 0.0
H76 H 0.25445 0.58648 0.04091 0.0
C77 C 0.22663 0.55915 0.02183 0.0
C78 C 0.18833 0.55493 0.14199 0.0
C79 C 0.22704 0.53042 0.87048 0.0
H80 H 0.12291 0.51718 0.21266 0.0
C81 C 0.15224 0.51981 0.11747 0.0
C82 C 0.14616 0.49858 0.95429 0.0
C83 C 0.18515 0.50215 0.83132 0.0
C84 C 0.26774 0.53745 0.74303 0.0
H85 H 0.18196 0.48529 0.70389 0.0
C86 C 0.31114 0.5106 0.75907 0.0
C87 C 0.35249 0.5231 0.6558 0.0
C88 C 0.26705 0.57756 0.62722 0.0
H89 H 0.23735 0.60314 0.63056 0.0
C90 C 0.30526 0.58607 0.50982 0.0
H91 H 0.314 0.4833 0.86277 0.0
C92 C 0.3477 0.55875 0.52272 0.0
H93 H 0.37836 0.5689 0.44048 0.0
H94 H 0.30314 0.61599 0.41628 0.0
H95 H 0.94236 0.25748 0.04714 0.0
C96 C 0.97058 0.23069 0.02626 0.0
C97 C 0.97618 0.1927 0.14747 0.0
C98 C 0.99821 0.23164 0.87035 0.0
H99 H 0.01623 0.12887 0.21785 0.0
C100 C 1.01233 0.15781 0.12086 0.0
C101 C 0.03247 0.15177 0.95441 0.0
C102 C 0.02716 0.1904 0.82927 0.0
C103 C 0.98722 0.27114 0.74062 0.0
H104 H 0.04294 0.18724 0.6991 0.0
C105 C 1.01227 0.3159 0.74323 0.0
C106 C 0.99387 0.3573 0.65126 0.0
C107 C 0.94381 0.26845 0.64543 0.0
H108 H 0.92077 0.23667 0.65693 0.0
C109 C 0.92811 0.30736 0.54184 0.0
H110 H 0.04314 0.31957 0.83036 0.0
C111 C 0.95269 0.35166 0.54499 0.0
H112 H 0.93692 0.38254 0.47739 0.0
H113 H 0.89474 0.3038 0.46921 0.0
H114 H 0.27844 0.93277 0.08973 0.0
C115 C 0.30343 0.96276 0.06798 0.0
C116 C 0.34146 0.97001 0.18628 0.0
C117 C 0.29969 0.99223 0.91537 0.0
H118 H 0.40386 1.0128 0.24934 0.0
C119 C 0.37421 1.00825 0.15732 0.0
C120 C 0.37712 0.03125 -0.0065 0.0
C121 C 0.33813 0.02498 0.87396 0.0
C122 C 0.2607 0.98094 0.78666 0.0
H123 H 0.33942 0.0425 0.74532 0.0
C124 C 0.21833 1.00954 0.77199 0.0
C125 C 0.17784 0.99332 0.67253 0.0
C126 C 0.26255 0.93659 0.69884 0.0
H127 H 0.29329 0.9125 0.71642 0.0
C128 C 0.22465 0.9223 0.59034 0.0
H129 H 0.21539 0.04195 0.85057 0.0
C130 C 0.18256 0.95031 0.57689 0.0
H131 H 0.15221 0.93625 0.5035 0.0
H132 H 0.22709 0.88785 0.52505 0.0
H133 H 0.5964 0.28142 0.08319 0.0
C134 C 0.56702 0.30709 0.06357 0.0
C135 C 0.56103 0.34545 0.18065 0.0
C136 C 0.53638 0.30355 0.91587 0.0
H137 H 0.5201 0.40897 0.24411 0.0
C138 C 0.52348 0.37896 0.15403 0.0
C139 C 0.49931 0.38161 -0.00592 0.0
C140 C 0.50408 0.34232 0.87685 0.0
C141 C 0.54449 0.26373 0.78874 0.0
H142 H 0.48553 0.34348 0.75119 0.0
C143 C 0.51446 0.2222 0.78768 0.0
C144 C 0.52564 0.18256 0.67738 0.0
C145 C 0.58575 0.26498 0.6799 0.0
H146 H 0.61163 0.29446 0.68881 0.0
C147 C 0.59385 0.2286 0.55749 0.0
H148 H 0.48513 0.21919 0.88286 0.0
C149 C 0.56389 0.18773 0.55511 0.0
H150 H 0.57336 0.15838 0.46819 0.0
H151 H 0.62491 0.23104 0.47005 0.0
Sm152 Sm 0.06338 0.98574 -0.03926 0.0
Sm153 Sm 1.01205 1.0131 0.66652 0.0
C154 C 0.11502 0.9266 0.16346 0.0
C155 C 0.11106 0.8743 0.20726 0.0
C156 C 0.06757 0.8486 0.18159 0.0
C157 C 0.06234 0.80131 0.2483 0.0
C158 C 0.09546 0.7856 0.37704 0.0
C159 C 0.14321 0.80389 0.36269 0.0
C160 C 0.15086 0.84901 0.27811 0.0
C161 C 0.1283 1.01329 0.70608 0.0
C162 C 0.01964 0.90102 0.74362 0.0
C163 C 0.95659 0.03634 0.39725 0.0
C164 C 0.92998 0.08266 0.38818 0.0
C165 C 0.90314 0.09603 0.23913 0.0
C166 C 0.90368 0.14458 0.18177 0.0
C167 C 0.93606 0.17691 0.26316 0.0
C168 C 0.94959 0.16655 0.43695 0.0
C169 C 0.94519 0.11932 0.50195 0.0
C170 C 0.95027 1.00615 0.95349 0.0
C171 C 0.04565 0.1007 0.90714 0.0
O172 O 0.08219 0.95636 0.22798 0.0
O173 O 0.12493 0.93541 -0.00143 0.0
O174 O 0.09091 0.98715 0.67762 0.0
O175 O 0.12296 0.03573 0.85318 0.0
O176 O 0.01685 0.91897 0.90045 0.0
O177 O 0.02589 0.93202 0.61218 0.0
O178 O 1.00401 0.04132 0.39303 0.0
O179 O 0.94231 1.00592 0.51988 0.0
O180 O 0.98285 0.97629 0.91449 0.0
O181 O 0.95699 0.04546 0.86257 0.0
O182 O 0.04365 0.08793 0.74076 0.0
O183 O 0.0472 0.06592 0.03152 0.0
H184 H 0.03603 0.86604 0.1281 0.0
H185 H 0.02639 0.78518 0.24393 0.0
H186 H 0.17156 0.7894 0.44683 0.0
H187 H 0.18619 0.86605 0.283 0.0
H188 H 0.88714 0.06901 0.15668 0.0
H189 H 0.88996 0.15277 0.051 0.0
H190 H 0.97559 0.18962 0.50058 0.0
H191 H 0.96338 0.1103 0.62334 0.0
Sm192 Sm 0.54136 0.06167 0.93863 0.0
Sm193 Sm 0.51559 1.01488 0.72339 0.0
C194 C 0.60428 0.10525 0.15148 0.0
C195 C 0.65567 0.09854 0.19926 0.0
C196 C 0.67804 0.05316 0.18293 0.0
C197 C 0.72408 0.04503 0.2548 0.0
C198 C 0.74265 0.07893 0.37366 0.0
C199 C 0.72667 0.12731 0.35553 0.0
C200 C 0.6823 0.13692 0.27129 0.0
C201 C 0.50766 0.13295 0.72269 0.0
C202 C 0.6336 1.00922 0.80157 0.0
C203 C 0.49822 0.95697 0.45592 0.0
C204 C 0.45174 0.92999 0.44442 0.0
C205 C 0.44081 0.90094 0.30025 0.0
C206 C 0.39319 0.9003 0.23509 0.0
C207 C 0.35851 0.93175 0.30865 0.0
C208 C 0.36623 0.94693 0.48143 0.0
C209 C 0.41302 0.94539 0.55056 0.0
C210 C 0.52117 0.94891 -0.00217 0.0
C211 C 0.42662 0.04736 0.93685 0.0
O212 O 0.57344 0.07205 0.20524 0.0
O213 O 0.59665 0.11868 -0.01025 0.0
O214 O 0.53109 0.0961 0.66894 0.0
O215 O 0.49125 0.12559 0.88112 0.0
O216 O 0.59742 0.03369 0.73272 0.0
O217 O 0.5983 0.03471 0.72524 0.0
O218 O 0.4936 1.00403 0.44438 0.0
O219 O 0.52681 0.94452 0.58413 0.0
O220 O 0.55229 0.98089 -0.03658 0.0
O221 O 0.48117 0.95876 0.91612 0.0
O222 O 0.43876 0.04432 0.77191 0.0
O223 O 0.46321 0.0487 0.04912 0.0
H224 H 0.6582 0.02282 0.13068 0.0
H225 H 0.73735 1.00798 0.2586 0.0
H226 H 0.74218 0.15517 0.43752 0.0
H227 H 0.66666 0.17287 0.27837 0.0
H228 H 0.46912 0.88315 0.22849 0.0
H229 H 0.38719 0.88507 0.10612 0.0
H230 H 0.34075 0.97143 0.5414 0.0
H231 H 0.41979 0.96431 0.67069 0.0
Sm232 Sm 0.47166 0.54592 0.93232 0.0
Sm233 Sm 0.51993 0.51881 0.71793 0.0
C234 C 0.42794 0.61009 0.14057 0.0
C235 C 0.43514 0.66116 0.19076 0.0
C236 C 0.48079 0.68328 0.1735 0.0
C237 C 0.4894 0.7288 0.247 0.0
C238 C 0.45563 0.74703 0.36867 0.0
C239 C 0.40711 0.73121 0.35344 0.0
C240 C 0.39707 0.6875 0.26741 0.0
C241 C 0.40198 0.50989 0.71725 0.0
C242 C 0.52639 0.63652 0.78892 0.0
C243 C 0.57953 0.50078 0.45234 0.0
C244 C 0.60508 0.45365 0.44076 0.0
C245 C 0.58746 0.41529 0.54628 0.0
C246 C 0.58326 0.36923 0.47508 0.0
C247 C 0.59923 0.36132 0.3025 0.0
C248 C 0.63254 0.39489 0.229 0.0
C249 C 0.63412 0.44209 0.29575 0.0
C250 C 0.58375 0.52298 -0.00524 0.0
C251 C 0.48383 0.43101 0.93552 0.0
O252 O 0.45976 0.57834 0.19695 0.0
O253 O 0.41622 0.60324 -0.02244 0.0
O254 O 0.43894 0.5337 0.66261 0.0
O255 O 0.40716 0.49634 0.88027 0.0
O256 O 0.50185 0.60054 0.72206 0.0
O257 O 0.5009 0.60141 0.71456 0.0
O258 O 0.53239 0.49761 0.43906 0.0
O259 O 0.59187 0.52827 0.58194 0.0
O260 O 0.55289 0.55494 0.95749 0.0
O261 O 0.57313 0.48314 0.91545 0.0
O262 O 0.48844 0.44286 0.77004 0.0
O263 O 0.48237 0.46764 0.04625 0.0
H264 H 0.51093 0.66344 0.11891 0.0
H265 H 0.52664 0.74168 0.24933 0.0
H266 H 0.37936 0.74629 0.43802 0.0
H267 H 0.36094 0.67208 0.27632 0.0
H268 H 0.56839 0.42245 0.66682 0.0
H269 H 0.55636 0.34539 0.53344 0.0
H270 H 0.64802 0.38876 0.09977 0.0
H271 H 0.65371 0.46989 0.22497 0.0
Sm272 Sm 0.97934 0.47112 0.95173 0.0
Sm273 Sm 1.00885 0.52302 0.65934 0.0
C274 C 0.91753 0.41994 0.14791 0.0
C275 C 0.86549 0.42518 0.19376 0.0
C276 C 0.84094 0.46925 0.16594 0.0
C277 C 0.79429 0.47603 0.23529 0.0
C278 C 0.77822 0.44353 0.36734 0.0
C279 C 0.79513 0.39539 0.35665 0.0
C280 C 0.83953 0.38638 0.27086 0.0
C281 C 1.00942 0.40704 0.70186 0.0
C282 C 0.89675 0.51804 0.72976 0.0
C283 C 0.03366 0.57939 0.39131 0.0
C284 C 0.08083 0.60468 0.38387 0.0
C285 C 0.09504 0.63168 0.23501 0.0
C286 C 0.14335 0.62907 0.177 0.0
C287 C 0.17433 0.59481 0.25805 0.0
C288 C 0.16359 0.58043 0.43139 0.0
C289 C 0.11706 0.58731 0.49754 0.0
C290 C 1.00398 0.58367 0.9454 0.0
C291 C 0.09498 0.48623 0.90517 0.0
O292 O 0.94889 0.45068 0.21594 0.0
O293 O 0.92545 0.41204 -0.01831 0.0
O294 O 0.98292 0.44408 0.66916 0.0
O295 O 0.02892 0.41083 0.85564 0.0
O296 O 0.91474 0.52045 0.88713 0.0
O297 O 0.92765 0.51101 0.60048 0.0
O298 O 0.03714 0.53193 0.38671 0.0
O299 O 1.00382 0.59376 0.51336 0.0
O300 O 0.9728 0.55232 0.90542 0.0
O301 O 0.04319 0.57566 0.85735 0.0
O302 O 0.08258 0.48927 0.73797 0.0
O303 O 0.05993 0.48502 0.02764 0.0
H304 H 0.85922 0.50003 0.1088 0.0
H305 H 0.77947 0.51245 0.22955 0.0
H306 H 0.78033 0.3676 0.44388 0.0
H307 H 0.85544 0.35068 0.27874 0.0
H308 H 0.06852 0.64947 0.15341 0.0
H309 H 0.15178 0.64317 0.04635 0.0
H310 H 0.18484 0.55222 0.49348 0.0
H311 H 0.10748 0.5689 0.6188 0.0
loop_
_geom_bond_atom_site_label_1
_geom_bond_atom_site_label_2
_geom_bond_distance
_geom_bond_site_symmetry_2
_ccdc_geom_bond_type
H0 C1 0.949 . S
C1 H0 0.949 . S
C1 C2 1.395 . S
C1 C3 1.391 . S
C2 C1 1.395 . S
C2 C5 1.390 . S
C3 C1 1.391 . S
C3 C7 1.387 . S
C3 C8 1.491 . S
H4 C5 0.950 . S
C5 C2 1.390 . S
C5 H4 0.950 . S
C5 C6 1.378 . S
C6 C5 1.378 . S
C6 C7 1.409 . S
C7 C3 1.387 . S
C7 C6 1.409 . S
C7 H9 0.951 1_556 S
C8 C3 1.491 . S
C8 C10 1.382 . S
C8 C12 1.404 . S
H9 C7 0.951 1_554 S
C10 C8 1.382 . S
C10 C11 1.390 . S
C10 H15 0.949 . S
C11 C10 1.390 . S
C11 C16 1.399 . S
C12 C8 1.404 . S
C12 H13 0.950 . S
C12 C14 1.375 . S
H13 C12 0.950 . S
C14 C12 1.375 . S
C14 C16 1.382 . S
C14 H18 0.950 . S
H15 C10 0.949 . S
C16 C11 1.399 . S
C16 C14 1.382 . S
C16 H17 0.952 . S
H17 C16 0.952 . S
H18 C14 0.950 . S
H19 C20 0.949 . S
C20 H19 0.949 . S
C20 C21 1.395 . S
C20 C22 1.391 . S
C21 C20 1.395 . S
C21 C24 1.390 1_655 S
C22 C20 1.391 . S
C22 C26 1.387 . S
C22 C27 1.491 . S
H23 C24 0.950 . S
C24 C21 1.390 1_455 S
C24 H23 0.950 . S
C24 C25 1.377 1_455 S
C25 C24 1.377 1_655 S
C25 C26 1.413 . S
C26 C22 1.387 . S
C26 C25 1.413 . S
C26 H28 0.951 1_556 S
C27 C22 1.491 . S
C27 C29 1.382 . S
C27 C31 1.404 . S
H28 C26 0.951 1_554 S
C29 C27 1.382 . S
C29 C30 1.390 . S
C29 H34 0.949 1_655 S
C30 C29 1.390 . S
C30 C35 1.399 . S
C31 C27 1.404 . S
C31 H32 0.950 . S
C31 C33 1.375 . S
H32 C31 0.950 . S
C33 C31 1.375 . S
C33 C35 1.382 . S
C33 H37 0.950 . S
H34 C29 0.949 1_455 S
C35 C30 1.399 . S
C35 C33 1.382 . S
C35 H36 0.952 . S
H36 C35 0.952 . S
H37 C33 0.950 . S
H38 C39 0.949 . S
C39 H38 0.949 . S
C39 C40 1.395 . S
C39 C41 1.391 . S
C40 C39 1.395 . S
C40 C43 1.390 1_565 S
C41 C39 1.391 . S
C41 C45 1.387 . S
C41 C46 1.491 . S
H42 C43 0.950 . S
C43 C40 1.390 1_545 S
C43 H42 0.950 . S
C43 C44 1.377 1_545 S
C44 C43 1.377 1_565 S
C44 C45 1.413 . S
C45 C41 1.387 . S
C45 C44 1.413 . S
C45 H47 0.951 1_556 S
C46 C41 1.491 . S
C46 C48 1.382 . S
C46 C50 1.404 . S
H47 C45 0.951 1_554 S
C48 C46 1.382 . S
C48 C49 1.390 . S
C48 H53 0.949 1_565 S
C49 C48 1.390 . S
C49 C54 1.399 . S
C50 C46 1.404 . S
C50 H51 0.950 . S
C50 C52 1.375 . S
H51 C50 0.950 . S
C52 C50 1.375 . S
C52 C54 1.382 . S
C52 H56 0.950 . S
H53 C48 0.949 1_545 S
C54 C49 1.399 . S
C54 C52 1.382 . S
C54 H55 0.952 . S
H55 C54 0.952 . S
H56 C52 0.950 . S
H57 C58 0.949 . S
C58 H57 0.949 . S
C58 C59 1.395 . S
C58 C60 1.391 . S
C59 C58 1.395 . S
C59 C62 1.390 . S
C60 C58 1.391 . S
C60 C64 1.387 . S
C60 C65 1.491 . S
H61 C62 0.950 . S
C62 C59 1.390 . S
C62 H61 0.950 . S
C62 C63 1.378 . S
C63 C62 1.378 . S
C63 C64 1.409 . S
C64 C60 1.387 . S
C64 C63 1.409 . S
C64 H66 0.951 1_556 S
C65 C60 1.491 . S
C65 C67 1.382 . S
C65 C69 1.404 . S
H66 C64 0.951 1_554 S
C67 C65 1.382 . S
C67 C68 1.390 . S
C67 H72 0.949 . S
C68 C67 1.390 . S
C68 C73 1.399 . S
C69 C65 1.404 . S
C69 H70 0.950 . S
C69 C71 1.375 . S
H70 C69 0.950 . S
C71 C69 1.375 . S
C71 C73 1.382 . S
C71 H75 0.950 . S
H72 C67 0.949 . S
C73 C68 1.399 . S
C73 C71 1.382 . S
C73 H74 0.952 . S
H74 C73 0.952 . S
H75 C71 0.950 . S
H76 C77 0.949 . S
C77 H76 0.949 . S
C77 C78 1.395 . S
C77 C79 1.391 1_554 S
C78 C77 1.395 . S
C78 C81 1.390 1_554 S
C79 C77 1.391 1_556 S
C79 C83 1.387 . S
C79 C84 1.491 . S
H80 C81 0.950 . S
C81 C78 1.390 1_556 S
C81 H80 0.950 . S
C81 C82 1.378 . S
C82 C81 1.378 . S
C82 C83 1.409 . S
C83 C79 1.387 . S
C83 C82 1.409 . S
C83 H85 0.951 . S
C84 C79 1.491 . S
C84 C86 1.382 1_556 S
C84 C88 1.404 . S
H85 C83 0.951 . S
C86 C84 1.382 1_554 S
C86 C87 1.390 . S
C86 H91 0.949 . S
C87 C86 1.390 . S
C87 C92 1.399 1_554 S
C88 C84 1.404 . S
C88 H89 0.950 . S
C88 C90 1.375 . S
H89 C88 0.950 . S
C90 C88 1.375 . S
C90 C92 1.382 . S
C90 H94 0.950 . S
H91 C86 0.949 . S
C92 C87 1.399 1_556 S
C92 C90 1.382 . S
C92 H93 0.952 1_556 S
H93 C92 0.952 1_554 S
H94 C90 0.950 . S
H95 C96 0.949 . S
C96 H95 0.949 . S
C96 C97 1.395 . S
C96 C98 1.391 1_554 S
C97 C96 1.395 . S
C97 C100 1.390 1_654 S
C98 C96 1.391 1_556 S
C98 C102 1.387 . S
C98 C103 1.491 . S
H99 C100 0.950 . S
C100 C97 1.390 1_456 S
C100 H99 0.950 . S
C100 C101 1.377 1_455 S
C101 C100 1.377 1_655 S
C101 C102 1.412 . S
C102 C98 1.387 . S
C102 C101 1.412 . S
C102 H104 0.951 . S
C103 C98 1.491 . S
C103 C105 1.382 1_556 S
C103 C107 1.404 . S
H104 C102 0.951 . S
C105 C103 1.382 1_554 S
C105 C106 1.390 . S
C105 H110 0.949 1_655 S
C106 C105 1.390 . S
C106 C111 1.399 . S
C107 C103 1.404 . S
C107 H108 0.950 . S
C107 C109 1.375 . S
H108 C107 0.950 . S
C109 C107 1.375 . S
C109 C111 1.382 1_556 S
C109 H113 0.950 . S
H110 C105 0.949 1_455 S
C111 C106 1.399 . S
C111 C109 1.382 1_554 S
C111 H112 0.952 . S
H112 C111 0.952 . S
H113 C109 0.950 . S
H114 C115 0.949 . S
C115 H114 0.949 . S
C115 C116 1.395 . S
C115 C117 1.391 1_554 S
C116 C115 1.395 . S
C116 C119 1.390 1_564 S
C117 C115 1.391 1_556 S
C117 C121 1.387 . S
C117 C122 1.491 . S
H118 C119 0.950 . S
C119 C116 1.390 1_546 S
C119 H118 0.950 . S
C119 C120 1.377 1_545 S
C120 C119 1.377 1_565 S
C120 C121 1.412 . S
C121 C117 1.387 . S
C121 C120 1.412 . S
C121 H123 0.951 . S
C122 C117 1.491 . S
C122 C124 1.382 1_556 S
C122 C126 1.404 . S
H123 C121 0.951 . S
C124 C122 1.382 1_554 S
C124 C125 1.390 . S
C124 H129 0.949 1_565 S
C125 C124 1.390 . S
C125 C130 1.399 . S
C126 C122 1.404 . S
C126 H127 0.950 . S
C126 C128 1.375 . S
H127 C126 0.950 . S
C128 C126 1.375 . S
C128 C130 1.382 1_556 S
C128 H132 0.950 . S
H129 C124 0.949 1_545 S
C130 C125 1.399 . S
C130 C128 1.382 1_554 S
C130 H131 0.952 . S
H131 C130 0.952 . S
H132 C128 0.950 . S
H133 C134 0.949 . S
C134 H133 0.949 . S
C134 C135 1.395 . S
C134 C136 1.391 1_554 S
C135 C134 1.395 . S
C135 C138 1.390 1_554 S
C136 C134 1.391 1_556 S
C136 C140 1.387 . S
C136 C141 1.491 . S
H137 C138 0.950 . S
C138 C135 1.390 1_556 S
C138 H137 0.950 . S
C138 C139 1.378 . S
C139 C138 1.378 . S
C139 C140 1.409 . S
C140 C136 1.387 . S
C140 C139 1.409 . S
C140 H142 0.951 . S
C141 C136 1.491 . S
C141 C143 1.382 1_556 S
C141 C145 1.404 . S
H142 C140 0.951 . S
C143 C141 1.382 1_554 S
C143 C144 1.390 . S
C143 H148 0.949 . S
C144 C143 1.390 . S
C144 C149 1.399 1_554 S
C145 C141 1.404 . S
C145 H146 0.950 . S
C145 C147 1.375 . S
H146 C145 0.950 . S
C147 C145 1.375 . S
C147 C149 1.382 . S
C147 H151 0.950 . S
H148 C143 0.949 . S
C149 C144 1.399 1_556 S
C149 C147 1.382 . S
C149 H150 0.952 1_556 S
H150 C149 0.952 1_554 S
H151 C147 0.950 . S
Sm152 C154 2.846 . S
Sm152 O172 2.543 . S
Sm152 O173 2.450 . S
Sm152 O174 2.681 1_564 S
Sm152 O175 2.464 1_554 S
Sm152 O176 2.396 1_554 S
Sm152 O180 2.386 1_455 S
Sm152 O183 2.408 1_565 S
Sm153 C163 2.846 . S
Sm153 O174 2.386 1_655 S
Sm153 O177 2.408 1_545 S
Sm153 O178 2.543 . S
Sm153 O179 2.450 . S
Sm153 O180 2.681 1_546 S
Sm153 O181 2.464 . S
Sm153 O182 2.396 . S
C154 Sm152 2.846 . S
C154 C155 1.506 . S
C154 O172 1.261 . S
C154 O173 1.242 . S
C155 C154 1.506 . S
C155 C156 1.358 . S
C155 C160 1.382 . S
C156 C155 1.358 . S
C156 C157 1.385 . S
C156 H184 0.930 1_455 S
C157 C156 1.385 . S
C157 C158 1.395 . S
C157 H185 0.929 . S
C158 C157 1.395 . S
C158 C159 1.335 . S
C159 C158 1.335 . S
C159 C160 1.398 . S
C159 H186 0.930 . S
C160 C155 1.382 . S
C160 C159 1.398 . S
C160 H187 0.929 . S
C161 O174 1.271 1_565 S
C161 O175 1.251 . S
C162 O176 1.252 1_655 S
C162 O177 1.272 . S
C163 Sm153 2.846 . S
C163 C164 1.506 . S
C163 O178 1.261 . S
C163 O179 1.242 . S
C164 C163 1.506 . S
C164 C165 1.358 . S
C164 C169 1.382 . S
C165 C164 1.358 . S
C165 C166 1.385 . S
C165 H188 0.930 1_655 S
C166 C165 1.385 . S
C166 C167 1.395 . S
C166 H189 0.929 . S
C167 C166 1.395 . S
C167 C168 1.335 . S
C168 C167 1.335 . S
C168 C169 1.398 . S
C168 H190 0.930 . S
C169 C164 1.382 . S
C169 C168 1.398 . S
C169 H191 0.929 . S
C170 O180 1.271 1_545 S
C170 O181 1.251 1_554 S
C171 O182 1.252 1_455 S
C171 O183 1.272 1_556 S
O172 Sm152 2.543 . S
O172 C154 1.261 . S
O173 Sm152 2.450 . S
O173 C154 1.242 . S
O174 Sm152 2.681 1_546 S
O174 Sm153 2.386 1_455 S
O174 C161 1.271 1_545 S
O175 Sm152 2.464 1_556 S
O175 C161 1.251 . S
O176 Sm152 2.396 1_556 S
O176 C162 1.252 1_455 S
O177 Sm153 2.408 1_565 S
O177 C162 1.272 . S
O178 Sm153 2.543 . S
O178 C163 1.261 . S
O179 Sm153 2.450 . S
O179 C163 1.242 . S
O180 Sm152 2.386 1_655 S
O180 Sm153 2.681 1_564 S
O180 C170 1.271 1_565 S
O181 Sm153 2.464 . S
O181 C170 1.251 1_556 S
O182 Sm153 2.396 . S
O182 C171 1.252 1_655 S
O183 Sm152 2.408 1_545 S
O183 C171 1.272 1_554 S
H184 C156 0.930 1_655 S
H185 C157 0.929 . S
H186 C159 0.930 . S
H187 C160 0.929 . S
H188 C165 0.930 1_455 S
H189 C166 0.929 . S
H190 C168 0.930 . S
H191 C169 0.929 . S
Sm192 C194 2.846 . S
Sm192 O212 2.543 . S
Sm192 O213 2.450 . S
Sm192 O214 2.681 1_554 S
Sm192 O215 2.464 1_554 S
Sm192 O216 2.396 1_554 S
Sm192 O220 2.386 1_545 S
Sm192 O223 2.408 . S
Sm193 C203 2.846 . S
Sm193 O214 2.386 1_565 S
Sm193 O217 2.408 . S
Sm193 O218 2.543 . S
Sm193 O219 2.450 . S
Sm193 O220 2.681 1_556 S
Sm193 O221 2.464 . S
Sm193 O222 2.396 . S
C194 Sm192 2.846 . S
C194 C195 1.506 . S
C194 O212 1.261 . S
C194 O213 1.242 . S
C195 C194 1.506 . S
C195 C196 1.358 . S
C195 C200 1.382 . S
C196 C195 1.358 . S
C196 C197 1.385 . S
C196 H224 0.930 1_545 S
C197 C196 1.385 . S
C197 C198 1.395 . S
C197 H225 0.929 . S
C198 C197 1.395 . S
C198 C199 1.335 . S
C199 C198 1.335 . S
C199 C200 1.398 . S
C199 H226 0.930 . S
C200 C195 1.382 . S
C200 C199 1.398 . S
C200 H227 0.929 . S
C201 O214 1.271 . S
C201 O215 1.251 . S
C202 O216 1.252 1_565 S
C202 O217 1.272 . S
C203 Sm193 2.846 . S
C203 C204 1.506 . S
C203 O218 1.261 . S
C203 O219 1.242 . S
C204 C203 1.506 . S
C204 C205 1.358 . S
C204 C209 1.382 . S
C205 C204 1.358 . S
C205 C206 1.385 . S
C205 H228 0.930 1_565 S
C206 C205 1.385 . S
C206 C207 1.395 . S
C206 H229 0.929 . S
C207 C206 1.395 . S
C207 C208 1.335 . S
C208 C207 1.335 . S
C208 C209 1.398 . S
C208 H230 0.930 . S
C209 C204 1.382 . S
C209 C208 1.398 . S
C209 H231 0.929 . S
C210 O220 1.271 . S
C210 O221 1.251 1_554 S
C211 O222 1.252 1_545 S
C211 O223 1.272 1_556 S
O212 Sm192 2.543 . S
O212 C194 1.261 . S
O213 Sm192 2.450 . S
O213 C194 1.242 . S
O214 Sm192 2.681 1_556 S
O214 Sm193 2.386 1_545 S
O214 C201 1.271 . S
O215 Sm192 2.464 1_556 S
O215 C201 1.251 . S
O216 Sm192 2.396 1_556 S
O216 C202 1.252 1_545 S
O217 Sm193 2.408 . S
O217 C202 1.272 . S
O218 Sm193 2.543 . S
O218 C203 1.261 . S
O219 Sm193 2.450 . S
O219 C203 1.242 . S
O220 Sm192 2.386 1_565 S
O220 Sm193 2.681 1_554 S
O220 C210 1.271 . S
O221 Sm193 2.464 . S
O221 C210 1.251 1_556 S
O222 Sm193 2.396 . S
O222 C211 1.252 1_565 S
O223 Sm192 2.408 . S
O223 C211 1.272 1_554 S
H224 C196 0.930 1_565 S
H225 C197 0.929 . S
H226 C199 0.930 . S
H227 C200 0.929 . S
H228 C205 0.930 1_545 S
H229 C206 0.929 . S
H230 C208 0.930 . S
H231 C209 0.929 . S
Sm232 C234 2.846 . S
Sm232 O252 2.543 . S
Sm232 O253 2.450 . S
Sm232 O254 2.681 1_554 S
Sm232 O255 2.464 1_554 S
Sm232 O256 2.396 1_554 S
Sm232 O260 2.386 . S
Sm232 O263 2.408 . S
Sm233 C243 2.846 . S
Sm233 O254 2.386 . S
Sm233 O257 2.408 . S
Sm233 O258 2.543 . S
Sm233 O259 2.450 . S
Sm233 O260 2.681 1_556 S
Sm233 O261 2.464 . S
Sm233 O262 2.396 . S
C234 Sm232 2.846 . S
C234 C235 1.506 . S
C234 O252 1.261 . S
C234 O253 1.242 . S
C235 C234 1.506 . S
C235 C236 1.358 . S
C235 C240 1.382 . S
C236 C235 1.358 . S
C236 C237 1.385 . S
C236 H264 0.930 . S
C237 C236 1.385 . S
C237 C238 1.395 . S
C237 H265 0.929 . S
C238 C237 1.395 . S
C238 C239 1.335 . S
C239 C238 1.335 . S
C239 C240 1.398 . S
C239 H266 0.930 . S
C240 C235 1.382 . S
C240 C239 1.398 . S
C240 H267 0.929 . S
C241 O254 1.271 . S
C241 O255 1.251 . S
C242 O256 1.252 . S
C242 O257 1.272 . S
C243 Sm233 2.846 . S
C243 C244 1.506 . S
C243 O258 1.261 . S
C243 O259 1.242 . S
C244 C243 1.506 . S
C244 C245 1.358 . S
C244 C249 1.382 . S
C245 C244 1.358 . S
C245 C246 1.385 . S
C245 H268 0.930 . S
C246 C245 1.385 . S
C246 C247 1.395 . S
C246 H269 0.929 . S
C247 C246 1.395 . S
C247 C248 1.335 . S
C248 C247 1.335 . S
C248 C249 1.398 . S
C248 H270 0.930 . S
C249 C244 1.382 . S
C249 C248 1.398 . S
C249 H271 0.929 . S
C250 O260 1.271 . S
C250 O261 1.251 1_554 S
C251 O262 1.252 . S
C251 O263 1.272 1_556 S
O252 Sm232 2.543 . S
O252 C234 1.261 . S
O253 Sm232 2.450 . S
O253 C234 1.242 . S
O254 Sm232 2.681 1_556 S
O254 Sm233 2.386 . S
O254 C241 1.271 . S
O255 Sm232 2.464 1_556 S
O255 C241 1.251 . S
O256 Sm232 2.396 1_556 S
O256 C242 1.252 . S
O257 Sm233 2.408 . S
O257 C242 1.272 . S
O258 Sm233 2.543 . S
O258 C243 1.261 . S
O259 Sm233 2.450 . S
O259 C243 1.242 . S
O260 Sm232 2.386 . S
O260 Sm233 2.681 1_554 S
O260 C250 1.271 . S
O261 Sm233 2.464 . S
O261 C250 1.251 1_556 S
O262 Sm233 2.396 . S
O262 C251 1.252 . S
O263 Sm232 2.408 . S
O263 C251 1.272 1_554 S
H264 C236 0.930 . S
H265 C237 0.929 . S
H266 C239 0.930 . S
H267 C240 0.929 . S
H268 C245 0.930 . S
H269 C246 0.929 . S
H270 C248 0.930 . S
H271 C249 0.929 . S
Sm272 C274 2.846 . S
Sm272 O292 2.543 . S
Sm272 O293 2.450 . S
Sm272 O294 2.681 1_654 S
Sm272 O295 2.464 1_554 S
Sm272 O296 2.396 1_554 S
Sm272 O300 2.386 . S
Sm272 O303 2.408 1_655 S
Sm273 C283 2.846 . S
Sm273 O294 2.386 . S
Sm273 O297 2.408 1_455 S
Sm273 O298 2.543 . S
Sm273 O299 2.450 . S
Sm273 O300 2.681 1_456 S
Sm273 O301 2.464 . S
Sm273 O302 2.396 . S
C274 Sm272 2.846 . S
C274 C275 1.506 . S
C274 O292 1.261 . S
C274 O293 1.242 . S
C275 C274 1.506 . S
C275 C276 1.358 . S
C275 C280 1.382 . S
C276 C275 1.358 . S
C276 C277 1.385 . S
C276 H304 0.930 . S
C277 C276 1.385 . S
C277 C278 1.395 . S
C277 H305 0.929 . S
C278 C277 1.395 . S
C278 C279 1.335 . S
C279 C278 1.335 . S
C279 C280 1.398 . S
C279 H306 0.930 . S
C280 C275 1.382 . S
C280 C279 1.398 . S
C280 H307 0.929 . S
C281 O294 1.268 1_655 S
C281 O295 1.257 . S
C282 O296 1.252 . S
C282 O297 1.272 . S
C283 Sm273 2.846 . S
C283 C284 1.506 . S
C283 O298 1.261 . S
C283 O299 1.242 . S
C284 C283 1.506 . S
C284 C285 1.358 . S
C284 C289 1.382 . S
C285 C284 1.358 . S
C285 C286 1.385 . S
C285 H308 0.930 . S
C286 C285 1.385 . S
C286 C287 1.395 . S
C286 H309 0.929 . S
C287 C286 1.395 . S
C287 C288 1.335 . S
C288 C287 1.335 . S
C288 C289 1.398 . S
C288 H310 0.930 . S
C289 C284 1.382 . S
C289 C288 1.398 . S
C289 H311 0.929 . S
C290 O300 1.266 1_455 S
C290 O301 1.259 1_554 S
C291 O302 1.252 . S
C291 O303 1.272 1_556 S
O292 Sm272 2.543 . S
O292 C274 1.261 . S
O293 Sm272 2.450 . S
O293 C274 1.242 . S
O294 Sm272 2.681 1_456 S
O294 Sm273 2.386 . S
O294 C281 1.268 1_455 S
O295 Sm272 2.464 1_556 S
O295 C281 1.257 . S
O296 Sm272 2.396 1_556 S
O296 C282 1.252 . S
O297 Sm273 2.408 1_655 S
O297 C282 1.272 . S
O298 Sm273 2.543 . S
O298 C283 1.261 . S
O299 Sm273 2.450 . S
O299 C283 1.242 . S
O300 Sm272 2.386 . S
O300 Sm273 2.681 1_654 S
O300 C290 1.266 1_655 S
O301 Sm273 2.464 . S
O301 C290 1.259 1_556 S
O302 Sm273 2.396 . S
O302 C291 1.252 . S
O303 Sm272 2.408 1_455 S
O303 C291 1.272 1_554 S
H304 C276 0.930 . S
H305 C277 0.929 . S
H306 C279 0.930 . S
H307 C280 0.929 . S
H308 C285 0.930 . S
H309 C286 0.929 . S
H310 C288 0.930 . S
H311 C289 0.929 . S
C125 C161 3.003 1_554 S
C201 C144 3.056 1_556 S
C241 C87 3.075 1_556 S
C281 C106 3.005 1_556 S
C170 C49 3.030 1_544 S
C68 C210 2.974 1_556 S
C11 C250 2.972 1_556 S
C30 C290 3.006 1_656 S
C167 C97 2.243 . S
C207 C116 2.117 . S
C247 C135 1.977 . S
C78 C287 2.086 . S
C21 C158 2.253 1_655 S
C198 C40 2.129 1_545 S
C238 C59 1.989 . S
C2 C278 2.097 . S
C101 C171 3.957 1_655 S
C120 C211 3.889 1_565 S
C251 C139 3.899 . S
C291 C82 3.966 . S
C25 C162 3.962 . S
C202 C44 3.888 . S
C242 C63 3.890 . S
C6 C282 3.961 . S
