# Generated by pormake.
# Topology apo, (3,6)-cn, num edge types: 1
# Building blocks:
#     Node 0, Type 0, BuildingBlock: BETDIP_clean_linker_0, # of connection points: 3
#     Node 1, Type 0, BuildingBlock: BETDIP_clean_linker_0, # of connection points: 3
#     Node 2, Type 0, BuildingBlock: BETDIP_clean_linker_0, # of connection points: 3
#     Node 3, Type 0, BuildingBlock: BETDIP_clean_linker_0, # of connection points: 3
#     Node 4, Type 0, BuildingBlock: BETDIP_clean_linker_0, # of connection points: 3
#     Node 5, Type 0, BuildingBlock: BETDIP_clean_linker_0, # of connection points: 3
#     Node 6, Type 0, BuildingBlock: BETDIP_clean_linker_0, # of connection points: 3
#     Node 7, Type 0, BuildingBlock: BETDIP_clean_linker_0, # of connection points: 3
#     Node 8, Type 1, BuildingBlock: KUMBUR_clean_sbu_1, # of connection points: 6
#     Node 9, Type 1, BuildingBlock: KUMBUR_clean_sbu_1, # of connection points: 6
#     Node 10, Type 1, BuildingBlock: KUMBUR_clean_sbu_1, # of connection points: 6
#     Node 11, Type 1, BuildingBlock: KUMBUR_clean_sbu_1, # of connection points: 6
#     Edge 12, Type (0, 1), BuildingBlock: ZUJKAS_clean_linker_0, # of connection points: 2
#     Edge 13, Type (0, 1), BuildingBlock: ZUJKAS_clean_linker_0, # of connection points: 2
#     Edge 14, Type (0, 1), BuildingBlock: ZUJKAS_clean_linker_0, # of connection points: 2
#     Edge 15, Type (0, 1), BuildingBlock: ZUJKAS_clean_linker_0, # of connection points: 2
#     Edge 16, Type (0, 1), BuildingBlock: ZUJKAS_clean_linker_0, # of connection points: 2
#     Edge 17, Type (0, 1), BuildingBlock: ZUJKAS_clean_linker_0, # of connection points: 2
#     Edge 18, Type (0, 1), BuildingBlock: ZUJKAS_clean_linker_0, # of connection points: 2
#     Edge 19, Type (0, 1), BuildingBlock: ZUJKAS_clean_linker_0, # of connection points: 2
#     Edge 20, Type (0, 1), BuildingBlock: ZUJKAS_clean_linker_0, # of connection points: 2
#     Edge 21, Type (0, 1), BuildingBlock: ZUJKAS_clean_linker_0, # of connection points: 2
#     Edge 22, Type (0, 1), BuildingBlock: ZUJKAS_clean_linker_0, # of connection points: 2
#     Edge 23, Type (0, 1), BuildingBlock: ZUJKAS_clean_linker_0, # of connection points: 2
#     Edge 24, Type (0, 1), BuildingBlock: ZUJKAS_clean_linker_0, # of connection points: 2
#     Edge 25, Type (0, 1), BuildingBlock: ZUJKAS_clean_linker_0, # of connection points: 2
#     Edge 26, Type (0, 1), BuildingBlock: ZUJKAS_clean_linker_0, # of connection points: 2
#     Edge 27, Type (0, 1), BuildingBlock: ZUJKAS_clean_linker_0, # of connection points: 2
#     Edge 28, Type (0, 1), BuildingBlock: ZUJKAS_clean_linker_0, # of connection points: 2
#     Edge 29, Type (0, 1), BuildingBlock: ZUJKAS_clean_linker_0, # of connection points: 2
#     Edge 30, Type (0, 1), BuildingBlock: ZUJKAS_clean_linker_0, # of connection points: 2
#     Edge 31, Type (0, 1), BuildingBlock: ZUJKAS_clean_linker_0, # of connection points: 2
#     Edge 32, Type (0, 1), BuildingBlock: ZUJKAS_clean_linker_0, # of connection points: 2
#     Edge 33, Type (0, 1), BuildingBlock: ZUJKAS_clean_linker_0, # of connection points: 2
#     Edge 34, Type (0, 1), BuildingBlock: ZUJKAS_clean_linker_0, # of connection points: 2
#     Edge 35, Type (0, 1), BuildingBlock: ZUJKAS_clean_linker_0, # of connection points: 2
# Relax obj value: 0.038
# Max RMSD: 0.187
# Mean RMSD: 0.149
data_MOF--net-apo--node1-KUMBUR_clean_sbu_1--node2-BETDIP_clean_linker_0--edge1-ZUJKAS_clean_linker_0
_symmetry_space_group_name_H-M    P1
_symmetry_Int_Tables_number       1
_symmetry_cell_setting            triclinic
loop_
_symmetry_equiv_pos_as_xyz
'x, y, z'
_cell_length_a     34.942086
_cell_length_b     55.00816
_cell_length_c     64.435925
_cell_angle_alpha  89.999633
_cell_angle_beta   90.133064
_cell_angle_gamma 90.812914
loop_
_atom_site_label
_atom_site_type_symbol
_atom_site_fract_x
_atom_site_fract_y
_atom_site_fract_z
_atom_type_partial_charge
H0 H 0.27559 0.33634 0.44669 0.0
H1 H 0.27798 0.3698 0.38651 0.0
H2 H 0.33337 0.40511 0.43838 0.0
H3 H 0.21219 0.35242 0.38869 0.0
C4 C 0.22238 0.33434 0.39241 0.0
C5 C 0.2842 0.35139 0.4368 0.0
C6 C 0.3064 0.37064 0.44494 0.0
C7 C 0.2729 0.35143 0.41592 0.0
C8 C 0.28503 0.37055 0.40287 0.0
C9 C 0.30768 0.38989 0.41066 0.0
C10 C 0.31742 0.3899 0.43185 0.0
N11 N 0.25062 0.33161 0.40812 0.0
H12 H 0.25234 0.16852 0.94869 0.0
H13 H 0.2445 0.13694 0.88776 0.0
H14 H 0.18419 0.10378 0.93852 0.0
H15 H 0.30185 0.15506 0.88415 0.0
C16 C 0.29778 0.17254 0.8916 0.0
C17 C 0.2411 0.15453 0.93842 0.0
C18 C 0.21743 0.13582 0.9463 0.0
C19 C 0.25155 0.15488 0.91744 0.0
C20 C 0.23725 0.13665 0.90406 0.0
C21 C 0.21337 0.11793 0.9116 0.0
C22 C 0.20352 0.11776 0.93271 0.0
N23 N 0.27581 0.174 0.9101 0.0
H24 H 0.76725 0.16711 0.57702 0.0
H25 H 0.77698 0.13722 0.63847 0.0
H26 H 0.82813 0.10066 0.58671 0.0
H27 H 0.77604 0.17809 0.64634 0.0
C28 C 0.75239 0.18393 0.63665 0.0
C29 C 0.77731 0.153 0.58734 0.0
C30 C 0.79846 0.13361 0.5794 0.0
C31 C 0.76964 0.15455 0.60862 0.0
C32 C 0.78292 0.13627 0.62201 0.0
C33 C 0.80435 0.11685 0.61427 0.0
C34 C 0.81162 0.11554 0.59288 0.0
N35 N 0.74854 0.17463 0.61616 0.0
H36 H 0.75304 0.3426 0.07673 0.0
H37 H 0.74147 0.37122 0.13861 0.0
H38 H 0.68453 0.40564 0.08759 0.0
H39 H 0.79845 0.35423 0.14321 0.0
C40 C 0.79571 0.3371 0.13494 0.0
C41 C 0.74167 0.35598 0.08732 0.0
C42 C 0.71747 0.3742 0.07983 0.0
C43 C 0.75138 0.35504 0.10846 0.0
C44 C 0.73591 0.37232 0.12212 0.0
C45 C 0.71184 0.39067 0.11476 0.0
C46 C 0.70277 0.39144 0.09355 0.0
N47 N 0.77549 0.33612 0.11573 0.0
H48 H 0.74986 0.66982 0.57552 0.0
H49 H 0.74993 0.63534 0.63535 0.0
H50 H 0.68987 0.60168 0.58461 0.0
H51 H 0.75617 0.67338 0.64651 0.0
C52 C 0.77518 0.68219 0.63543 0.0
C53 C 0.74127 0.65477 0.5854 0.0
C54 C 0.71884 0.6355 0.57729 0.0
C55 C 0.75166 0.65529 0.60643 0.0
C56 C 0.74049 0.63584 0.61937 0.0
C57 C 0.71781 0.61653 0.61171 0.0
C58 C 0.70729 0.61652 0.59064 0.0
N59 N 0.77343 0.67551 0.6141 0.0
H60 H 0.76561 0.84019 0.07332 0.0
H61 H 0.77546 0.87074 0.13446 0.0
H62 H 0.83005 0.90654 0.08283 0.0
H63 H 0.78307 0.82631 0.13978 0.0
C64 C 0.75589 0.82204 0.13226 0.0
C65 C 0.7765 0.85436 0.08352 0.0
C66 C 0.79846 0.87376 0.07541 0.0
C67 C 0.76895 0.85292 0.10485 0.0
C68 C 0.78251 0.87144 0.11811 0.0
C69 C 0.80411 0.89115 0.11029 0.0
C70 C 0.81213 0.89199 0.08893 0.0
N71 N 0.7475 0.83281 0.11275 0.0
H72 H 0.2558 0.84428 0.44652 0.0
H73 H 0.25176 0.87222 0.38452 0.0
H74 H 0.19495 0.91021 0.43375 0.0
H75 H 0.23482 0.82436 0.38456 0.0
C76 C 0.26394 0.82213 0.39018 0.0
C77 C 0.24688 0.85835 0.43587 0.0
C78 C 0.22427 0.87768 0.44288 0.0
C79 C 0.25597 0.85614 0.41481 0.0
C80 C 0.24374 0.87383 0.40069 0.0
C81 C 0.22189 0.89358 0.40736 0.0
C82 C 0.21233 0.89529 0.4285 0.0
N83 N 0.27647 0.83565 0.40777 0.0
H84 H 0.26852 0.66665 0.9428 0.0
H85 H 0.27173 0.63174 0.88318 0.0
H86 H 0.32995 0.59999 0.93492 0.0
H87 H 0.26627 0.66882 0.87128 0.0
C88 C 0.24801 0.67831 0.88211 0.0
C89 C 0.278 0.65186 0.93305 0.0
C90 C 0.29938 0.63281 0.94163 0.0
C91 C 0.26896 0.65213 0.91185 0.0
C92 C 0.28031 0.63259 0.89929 0.0
C93 C 0.3025 0.61375 0.90742 0.0
C94 C 0.3118 0.61401 0.92863 0.0
N95 N 0.24865 0.67223 0.90358 0.0
Tb96 Tb 0.05113 0.10744 0.24 0.0
C97 C 0.88699 0.08565 0.2634 0.0
N98 N 0.90651 0.10701 0.26594 0.0
C99 C 0.8539 0.12849 0.25085 0.0
C100 C 0.85098 0.08473 0.2535 0.0
C101 C 0.88922 0.12844 0.26112 0.0
C102 C 0.83504 0.10649 0.24662 0.0
C103 C 0.88181 0.04256 0.2711 0.0
C104 C 0.902 0.06486 0.27208 0.0
C105 C 0.8468 0.04127 0.26038 0.0
C106 C 0.83145 0.06232 0.25155 0.0
Tb107 Tb 0.96526 0.1041 0.28173 0.0
N108 N 0.9364 0.06668 0.28182 0.0
C109 C 0.89721 0.02237 0.28122 0.0
C110 C 0.95058 0.04748 0.29272 0.0
C111 C 0.93146 0.02495 0.29234 0.0
H112 H 0.90199 0.1456 0.26559 0.0
H113 H 0.94315 0.00961 0.3006 0.0
H114 H 0.11879 0.07431 0.2612 0.0
H115 H 0.05168 0.2012 0.21367 0.0
H116 H 0.97689 0.04951 0.30142 0.0
H117 H 0.88255 0.00489 0.28089 0.0
H118 H 0.02819 0.159 0.21472 0.0
H119 H 0.8409 0.14553 0.24659 0.0
H120 H 0.83101 0.02423 0.2592 0.0
H121 H 0.80393 0.06121 0.24379 0.0
H122 H 0.18244 0.08106 0.27696 0.0
H123 H 0.80743 0.1066 0.23893 0.0
H124 H 0.11186 0.21271 0.23168 0.0
N125 N 0.11048 0.11166 0.2543 0.0
C126 C 0.12658 0.13423 0.25354 0.0
C127 C 0.16685 0.09624 0.27065 0.0
C128 C 0.16296 0.13897 0.26223 0.0
C129 C 0.13053 0.09252 0.26195 0.0
C130 C 0.18298 0.11963 0.27102 0.0
N131 N 0.07159 0.14693 0.23543 0.0
C132 C 0.05306 0.16385 0.22375 0.0
C133 C 0.12157 0.17637 0.24324 0.0
C134 C 0.1061 0.15259 0.24416 0.0
C135 C 0.10102 0.19419 0.23272 0.0
C136 C 0.06695 0.18779 0.22263 0.0
H137 H 0.21106 0.12249 0.27783 0.0
H138 H 0.2058 0.16686 0.26863 0.0
H139 H 0.16952 0.19966 0.25203 0.0
O140 O 0.07585 0.11204 0.21021 0.0
O141 O 0.05924 0.12075 0.27195 0.0
O142 O 1.00144 0.13689 0.28082 0.0
O143 O 0.07225 0.07643 0.22511 0.0
O144 O 0.99739 0.12531 0.23131 0.0
O145 O 0.96839 0.13705 0.26214 0.0
O146 O 0.97645 0.10163 0.31375 0.0
O147 O 0.97446 0.0749 0.25916 0.0
O148 O 0.99432 0.09487 0.23005 0.0
O149 O 0.92252 0.11448 0.30272 0.0
O150 O 0.01942 0.08713 0.29045 0.0
O151 O 0.04769 0.07474 0.25959 0.0
C152 C 0.03904 0.13747 0.28123 0.0
C153 C 0.10139 0.07757 0.19087 0.0
C154 C 0.12033 0.07832 0.15439 0.0
C155 C 0.1325 0.05417 0.15623 0.0
C156 C 0.11387 0.05346 0.19231 0.0
C157 C 0.12946 0.04192 0.1751 0.0
C158 C 0.10516 0.0901 0.17188 0.0
C159 C 0.97401 0.1393 0.24193 0.0
C160 C 0.08273 0.08891 0.20888 0.0
C161 C 0.17804 0.16276 0.26185 0.0
C162 C 0.15733 0.18144 0.25244 0.0
C163 C 0.97494 0.07721 0.23894 0.0
C164 C 0.94493 0.13022 0.33439 0.0
C165 C 0.93308 0.1438 0.36985 0.0
C166 C 0.94556 0.16733 0.36412 0.0
C167 C 0.9572 0.15373 0.329 0.0
C168 C 0.93315 0.12527 0.35477 0.0
C169 C 0.95767 0.17217 0.34387 0.0
C170 C 0.04241 0.07292 0.27984 0.0
C171 C 0.94372 0.1107 0.31892 0.0
H172 H 0.14473 0.04481 0.14307 0.0
H173 H 0.11135 0.04343 0.20672 0.0
H174 H 0.13901 0.02334 0.17636 0.0
H175 H 0.0953 0.10862 0.17052 0.0
H176 H 0.94529 0.18216 0.37516 0.0
H177 H 0.96604 0.15783 0.3133 0.0
H178 H 0.9242 0.10693 0.35883 0.0
H179 H 0.96704 0.19033 0.33963 0.0
Tb180 Tb 0.46321 0.40149 0.74186 0.0
C181 C 0.6313 0.42537 0.76377 0.0
N182 N 0.61402 0.40312 0.76278 0.0
C183 C 0.66655 0.3878 0.74305 0.0
C184 C 0.66668 0.42988 0.75394 0.0
C185 C 0.63126 0.38427 0.75287 0.0
C186 C 0.68426 0.41073 0.74349 0.0
C187 C 0.62945 0.46723 0.77533 0.0
C188 C 0.61258 0.44382 0.77411 0.0
C189 C 0.66447 0.47195 0.76532 0.0
C190 C 0.68304 0.45332 0.75466 0.0
Tb191 Tb 0.55634 0.39944 0.77902 0.0
N192 N 0.57839 0.43866 0.78336 0.0
C193 C 0.61107 0.48502 0.78699 0.0
C194 C 0.56251 0.45533 0.79637 0.0
C195 C 0.57787 0.47888 0.7979 0.0
H196 H 0.61804 0.36644 0.75278 0.0
H197 H 0.56454 0.49214 0.80786 0.0
H198 H 0.40553 0.44272 0.76191 0.0
H199 H 0.44575 0.30449 0.72923 0.0
H200 H 0.53879 0.45056 0.80625 0.0
H201 H 0.62309 0.50322 0.78834 0.0
H202 H 0.47791 0.34408 0.72589 0.0
H203 H 0.68007 0.37283 0.73516 0.0
H204 H 0.67768 0.48988 0.76597 0.0
H205 H 0.7101 0.45721 0.7471 0.0
H206 H 0.34247 0.44321 0.77905 0.0
H207 H 0.71149 0.41344 0.73576 0.0
H208 H 0.38275 0.3013 0.74649 0.0
N209 N 0.40466 0.40449 0.75714 0.0
C210 C 0.38405 0.38341 0.75862 0.0
C211 C 0.35394 0.42624 0.77349 0.0
C212 C 0.34765 0.38288 0.76799 0.0
C213 C 0.38994 0.42586 0.76407 0.0
C214 C 0.33274 0.40465 0.77552 0.0
N215 N 0.43635 0.36325 0.74333 0.0
C216 C 0.45183 0.34303 0.73459 0.0
C217 C 0.38024 0.33981 0.75315 0.0
C218 C 0.40038 0.36211 0.75147 0.0
C219 C 0.39728 0.31879 0.7455 0.0
C220 C 0.43299 0.32049 0.73592 0.0
H221 H 0.30489 0.405 0.78287 0.0
H222 H 0.29959 0.35987 0.77694 0.0
H223 H 0.32786 0.32226 0.76367 0.0
O224 O 0.4584 0.39374 0.70992 0.0
O225 O 0.45742 0.38614 0.77323 0.0
O226 O 0.51556 0.36899 0.78019 0.0
O227 O 0.42278 0.42046 0.72422 0.0
O228 O 0.51399 0.38229 0.73052 0.0
O229 O 0.54494 0.36752 0.75967 0.0
O230 O 0.56178 0.40031 0.81222 0.0
O231 O 0.56188 0.41446 0.74747 0.0
O232 O 0.50411 0.43197 0.73934 0.0
O233 O 0.59752 0.3777 0.79276 0.0
O234 O 0.50462 0.41815 0.78971 0.0
O235 O 0.47598 0.43398 0.76025 0.0
C236 C 0.47841 0.37001 0.78274 0.0
C237 C 0.43613 0.42543 0.68851 0.0
C238 C 0.42637 0.43041 0.65113 0.0
C239 C 0.4378 0.45498 0.65309 0.0
C240 C 0.44802 0.44982 0.69003 0.0
C241 C 0.44882 0.46448 0.67235 0.0
C242 C 0.42588 0.41576 0.66907 0.0
C243 C 0.53782 0.36718 0.73959 0.0
C244 C 0.43215 0.40992 0.70699 0.0
C245 C 0.3276 0.36067 0.76977 0.0
C246 C 0.34378 0.33922 0.76229 0.0
C247 C 0.54176 0.43151 0.73852 0.0
C248 C 0.60877 0.37357 0.82943 0.0
C249 C 0.62351 0.37164 0.86645 0.0
C250 C 0.6439 0.35022 0.86305 0.0
C251 C 0.62959 0.35213 0.82647 0.0
C252 C 0.60598 0.38346 0.84958 0.0
C253 C 0.64702 0.34061 0.84317 0.0
C254 C 0.48272 0.4342 0.78037 0.0
C255 C 0.58888 0.38433 0.81143 0.0
H256 H 0.43767 0.46705 0.63982 0.0
H257 H 0.45616 0.4576 0.70487 0.0
H258 H 0.45753 0.48339 0.67362 0.0
H259 H 0.41744 0.39676 0.66803 0.0
H260 H 0.65765 0.34098 0.87585 0.0
H261 H 0.63203 0.344 0.81123 0.0
H262 H 0.59 0.39992 0.85218 0.0
H263 H 0.66283 0.32409 0.8407 0.0
Tb264 Tb 0.05529 0.90472 0.74057 0.0
C265 C 0.89207 0.87515 0.77243 0.0
N266 N 0.90945 0.89702 0.76909 0.0
C267 C 0.85297 0.91147 0.75214 0.0
C268 C 0.85484 0.87022 0.76494 0.0
C269 C 0.88993 0.91547 0.7599 0.0
C270 C 0.83549 0.88865 0.75444 0.0
C271 C 0.8946 0.83489 0.78753 0.0
C272 C 0.91177 0.85778 0.78356 0.0
C273 C 0.85783 0.82964 0.77971 0.0
C274 C 0.83798 0.84727 0.76844 0.0
Tb275 Tb 0.96923 0.90183 0.78281 0.0
N276 N 0.94748 0.86345 0.79072 0.0
C277 C 0.91485 0.81802 0.79932 0.0
C278 C 0.96624 0.84754 0.80331 0.0
C279 C 0.95064 0.82449 0.80743 0.0
H280 H 0.90236 0.93344 0.75882 0.0
H281 H 0.96595 0.81188 0.81718 0.0
H282 H 0.11866 0.86429 0.75881 0.0
H283 H 0.07557 0.99881 0.71993 0.0
H284 H 0.99258 0.85269 0.81087 0.0
H285 H 0.90274 0.80021 0.80266 0.0
H286 H 0.04255 0.95864 0.71989 0.0
H287 H 0.83782 0.92608 0.74462 0.0
H288 H 0.84431 0.81209 0.78247 0.0
H289 H 0.80946 0.84307 0.76272 0.0
H290 H 0.17905 0.86562 0.77837 0.0
H291 H 0.80678 0.88562 0.7485 0.0
H292 H 0.13592 1.00456 0.73971 0.0
N293 N 0.1134 0.90281 0.75721 0.0
C294 C 0.13255 0.9244 0.75921 0.0
C295 C 0.16589 0.88237 0.77346 0.0
C296 C 0.16825 0.92598 0.7694 0.0
C297 C 0.13089 0.88174 0.76288 0.0
C298 C 0.18431 0.90465 0.77712 0.0
N299 N 0.08319 0.94238 0.73995 0.0
C300 C 0.06874 0.96114 0.72863 0.0
C301 C 0.1372 0.96723 0.75035 0.0
C302 C 0.11743 0.94475 0.74981 0.0
C303 C 0.12158 0.98696 0.7397 0.0
C304 C 0.08746 0.98381 0.72856 0.0
H305 H 0.21168 0.90506 0.78506 0.0
H306 H 0.21465 0.9502 0.77879 0.0
H307 H 0.18742 0.98633 0.76209 0.0
O308 O 0.04626 0.9073 0.70832 0.0
O309 O 0.04535 0.93426 0.76269 0.0
O310 O 0.02661 0.91403 0.79183 0.0
O311 O 0.09885 0.89358 0.72039 0.0
O312 O 1.00006 0.91993 0.73161 0.0
O313 O 0.97217 0.93358 0.76213 0.0
O314 O 0.94666 0.89894 0.81315 0.0
O315 O 0.95962 0.88532 0.75199 0.0
O316 O 0.01899 0.8721 0.74116 0.0
O317 O 0.94859 0.9337 0.79683 0.0
O318 O 0.02316 0.88397 0.79094 0.0
O319 O 0.05195 0.8718 0.76017 0.0
C320 C 0.04486 0.93211 0.78291 0.0
C321 C 0.07787 0.87798 0.68839 0.0
C322 C 0.09128 0.86381 0.65329 0.0
C323 C 0.07765 0.84054 0.65894 0.0
C324 C 0.0648 0.85461 0.69378 0.0
C325 C 0.06445 0.83604 0.67904 0.0
C326 C 0.09096 0.88255 0.66816 0.0
C327 C 0.9774 0.93467 0.74184 0.0
C328 C 0.07888 0.89763 0.70379 0.0
C329 C 0.18739 0.94858 0.77083 0.0
C330 C 0.17195 0.96915 0.76126 0.0
C331 C 0.9814 0.87093 0.7409 0.0
C332 C 0.92186 0.93395 0.83185 0.0
C333 C 0.90239 0.93356 0.86834 0.0
C334 C 0.89113 0.9579 0.86633 0.0
C335 C 0.91044 0.95825 0.83033 0.0
C336 C 0.91746 0.92156 0.85089 0.0
C337 C 0.89507 0.97007 0.84746 0.0
C338 C 0.04552 0.86939 0.7803 0.0
C339 C 0.93939 0.92202 0.81373 0.0
H340 H 0.07697 0.82583 0.64776 0.0
H341 H 0.05497 0.85074 0.70937 0.0
H342 H 0.05407 0.81807 0.68322 0.0
H343 H 0.10167 0.90055 0.66418 0.0
H344 H 0.87883 0.96749 0.87933 0.0
H345 H 0.91347 0.96819 0.8159 0.0
H346 H 0.92656 0.90287 0.8523 0.0
H347 H 0.88624 0.98879 0.84613 0.0
Tb348 Tb 0.46463 0.60536 0.24013 0.0
C349 C 0.62507 0.63613 0.27012 0.0
N350 N 0.60972 0.61338 0.26891 0.0
C351 C 0.66696 0.59899 0.2529 0.0
C352 C 0.66154 0.64148 0.2619 0.0
C353 C 0.6305 0.59465 0.26115 0.0
C354 C 0.6824 0.62257 0.25305 0.0
C355 C 0.61854 0.67794 0.28104 0.0
C356 C 0.60377 0.65402 0.27954 0.0
C357 C 0.65442 0.68363 0.27233 0.0
C358 C 0.67591 0.66543 0.26281 0.0
Tb359 Tb 0.55014 0.60811 0.2825 0.0
N360 N 0.56929 0.64773 0.2879 0.0
C361 C 0.59727 0.69524 0.29173 0.0
C362 C 0.55023 0.66406 0.29991 0.0
C363 C 0.56331 0.68815 0.30152 0.0
H364 H 0.61918 0.57632 0.26142 0.0
H365 H 0.54755 0.70112 0.31065 0.0
H366 H 0.40371 0.64835 0.25625 0.0
H367 H 0.43691 0.51115 0.22226 0.0
H368 H 0.52551 0.65862 0.3088 0.0
H369 H 0.60753 0.71384 0.29318 0.0
H370 H 0.47237 0.55048 0.22059 0.0
H371 H 0.68316 0.58415 0.2465 0.0
H372 H 0.66611 0.70195 0.27322 0.0
H373 H 0.70372 0.67 0.25639 0.0
H374 H 0.34372 0.64962 0.27606 0.0
H375 H 0.71058 0.62591 0.24659 0.0
H376 H 0.37754 0.50772 0.24308 0.0
N377 N 0.40665 0.60963 0.25641 0.0
C378 C 0.38643 0.58866 0.25955 0.0
C379 C 0.35578 0.63228 0.27186 0.0
C380 C 0.35107 0.58851 0.27004 0.0
C381 C 0.39042 0.63145 0.26106 0.0
C382 C 0.33641 0.61067 0.27679 0.0
N383 N 0.43377 0.56859 0.24058 0.0
C384 C 0.44642 0.54902 0.22962 0.0
C385 C 0.379 0.54554 0.25247 0.0
C386 C 0.39999 0.56749 0.25089 0.0
C387 C 0.39285 0.52496 0.24228 0.0
C388 C 0.42639 0.52682 0.23053 0.0
H389 H 0.30934 0.61138 0.28493 0.0
H390 H 0.30392 0.5659 0.28095 0.0
H391 H 0.32846 0.52821 0.26558 0.0
O392 O 0.47503 0.60202 0.20813 0.0
O393 O 0.47421 0.57584 0.26235 0.0
O394 O 0.49314 0.59538 0.29187 0.0
O395 O 0.42217 0.61641 0.21909 0.0
O396 O 0.5184 0.58789 0.2316 0.0
O397 O 0.54792 0.57572 0.26236 0.0
O398 O 0.57449 0.61245 0.31249 0.0
O399 O 0.55928 0.62127 0.25055 0.0
O400 O 0.50192 0.63767 0.24084 0.0
O401 O 0.57073 0.57694 0.29748 0.0
O402 O 0.49583 0.62553 0.29056 0.0
O403 O 0.46975 0.63843 0.25935 0.0
C404 C 0.47411 0.57781 0.28258 0.0
C405 C 0.44526 0.63109 0.18721 0.0
C406 C 0.43589 0.64422 0.15143 0.0
C407 C 0.45037 0.66739 0.15682 0.0
C408 C 0.45926 0.65432 0.19236 0.0
C409 C 0.46194 0.67235 0.17718 0.0
C410 C 0.43357 0.6261 0.1668 0.0
C411 C 0.54171 0.57371 0.24214 0.0
C412 C 0.44285 0.61184 0.2029 0.0
C413 C 0.33088 0.56644 0.27268 0.0
C414 C 0.34478 0.54499 0.26387 0.0
C415 C 0.53955 0.63794 0.2408 0.0
C416 C 0.59916 0.5778 0.33205 0.0
C417 C 0.61865 0.57861 0.36854 0.0
C418 C 0.62846 0.55398 0.36706 0.0
C419 C 0.60941 0.55322 0.331 0.0
C420 C 0.6044 0.5906 0.35086 0.0
C421 C 0.62409 0.54148 0.34838 0.0
C422 C 0.47419 0.64028 0.27964 0.0
C423 C 0.58099 0.58929 0.31385 0.0
H424 H 0.45206 0.68181 0.14541 0.0
H425 H 0.46789 0.65849 0.2081 0.0
H426 H 0.47275 0.69027 0.18122 0.0
H427 H 0.42295 0.60805 0.16288 0.0
H428 H 0.63981 0.54443 0.38038 0.0
H429 H 0.60572 0.54295 0.31677 0.0
H430 H 0.59631 0.6095 0.35196 0.0
H431 H 0.6318 0.52252 0.34742 0.0
H432 H 0.21473 0.94282 0.41299 0.0
H433 H 0.18658 0.97215 0.38925 0.0
H434 H 0.1718 0.91593 0.34315 0.0
H435 H 0.19721 0.88608 0.3673 0.0
H436 H 0.20643 0.98848 0.3518 0.0
H437 H 0.06528 0.94134 0.34611 0.0
H438 H 0.10105 0.93272 0.36481 0.0
H439 H 0.1044 0.92273 0.33828 0.0
C440 C 0.20496 0.93655 0.39793 0.0
C441 C 0.20775 0.91193 0.39225 0.0
C442 C 0.18924 0.95343 0.38427 0.0
C443 C 0.17627 0.94614 0.36458 0.0
C444 C 0.18063 0.92185 0.35847 0.0
H445 H 0.07407 0.03136 0.26457 0.0
H446 H 0.10876 1.0003 0.28411 0.0
C447 C 0.19579 0.90486 0.37223 0.0
C448 C 0.15779 0.96397 0.35063 0.0
H449 H 0.07508 0.97538 0.32416 0.0
C450 C 0.17773 0.98558 0.34576 0.0
C451 C 0.12022 0.96023 0.3428 0.0
C452 C 0.09632 0.93812 0.34842 0.0
C453 C 0.16108 1.00354 0.33333 0.0
C454 C 0.12369 0.99971 0.32555 0.0
C455 C 0.10393 0.97804 0.33008 0.0
C456 C 0.10374 0.01863 0.31363 0.0
C457 C 0.18331 0.02658 0.32864 0.0
C458 C 0.0893 0.03897 0.32391 0.0
C459 C 0.06924 0.05656 0.31289 0.0
C460 C 0.06354 0.05416 0.29138 0.0
C461 C 0.0782 0.03376 0.28111 0.0
C462 C 0.09796 0.01602 0.29221 0.0
H463 H 0.21395 0.02519 0.33306 0.0
H464 H 0.18137 0.03101 0.31185 0.0
H465 H 0.17071 0.04189 0.33739 0.0
H466 H 0.0933 0.04113 0.34049 0.0
H467 H 0.05844 0.07212 0.32123 0.0
H468 H 0.30951 0.56496 0.91549 0.0
H469 H 0.33907 0.53423 0.89348 0.0
H470 H 0.35765 0.58801 0.84573 0.0
H471 H 0.33005 0.61904 0.86793 0.0
H472 H 0.3208 0.51708 0.85442 0.0
H473 H 0.46424 0.56168 0.85421 0.0
H474 H 0.42682 0.57056 0.87178 0.0
H475 H 0.42678 0.58112 0.84535 0.0
C476 C 0.3202 0.5703 0.90038 0.0
C477 C 0.31769 0.59454 0.89357 0.0
C478 C 0.3368 0.55268 0.88776 0.0
C479 C 0.35122 0.55896 0.86815 0.0
C480 C 0.34748 0.58289 0.861 0.0
H481 H 0.46015 0.47945 0.76872 0.0
H482 H 0.42686 0.50949 0.78997 0.0
C483 C 0.33117 0.60054 0.87363 0.0
C484 C 0.37061 0.5406 0.85524 0.0
H485 H 0.45508 0.52851 0.83101 0.0
C486 C 0.35021 0.51951 0.84938 0.0
C487 C 0.40905 0.54379 0.84876 0.0
C488 C 0.43316 0.56539 0.8555 0.0
C489 C 0.36705 0.50172 0.83688 0.0
C490 C 0.40525 0.50512 0.83024 0.0
C491 C 0.42568 0.52613 0.83609 0.0
C492 C 0.42479 0.48687 0.81741 0.0
C493 C 0.34386 0.47958 0.83057 0.0
C494 C 0.43495 0.46443 0.82598 0.0
C495 C 0.45414 0.44737 0.81396 0.0
C496 C 0.46322 0.45246 0.79317 0.0
C497 C 0.45319 0.47502 0.78467 0.0
C498 C 0.43428 0.49216 0.79675 0.0
H499 H 0.31289 0.48172 0.83388 0.0
H500 H 0.34751 0.47582 0.81376 0.0
H501 H 0.35418 0.46354 0.83928 0.0
H502 H 0.42823 0.4602 0.84199 0.0
H503 H 0.46149 0.43009 0.82088 0.0
H504 H 0.69299 0.62067 0.6519 0.0
H505 H 0.66764 0.58856 0.67449 0.0
H506 H 0.68439 0.5358 0.62606 0.0
H507 H 0.71115 0.56757 0.60353 0.0
H508 H 0.60402 0.54162 0.64717 0.0
H509 H 0.72842 0.52568 0.6994 0.0
H510 H 0.71731 0.55654 0.69236 0.0
H511 H 0.73424 0.53602 0.67295 0.0
C512 C 0.6921 0.60217 0.64615 0.0
C513 C 0.70411 0.59677 0.62583 0.0
C514 C 0.67742 0.58388 0.65907 0.0
C515 C 0.67432 0.55988 0.65192 0.0
C516 C 0.68664 0.55427 0.63182 0.0
H517 H 0.61008 0.42814 0.71833 0.0
H518 H 0.64278 0.45968 0.69791 0.0
C519 C 0.70163 0.5725 0.61893 0.0
C520 C 0.65608 0.54092 0.66499 0.0
H521 H 0.67083 0.50468 0.70718 0.0
C522 C 0.61854 0.53348 0.66029 0.0
C523 C 0.67536 0.5303 0.68192 0.0
C524 C 0.71616 0.53734 0.68705 0.0
C525 C 0.5995 0.51573 0.67221 0.0
C526 C 0.61839 0.50546 0.68954 0.0
C527 C 0.65625 0.51272 0.69404 0.0
C528 C 0.59952 0.48685 0.70288 0.0
C529 C 0.5596 0.50784 0.66584 0.0
C530 C 0.56481 0.4918 0.71288 0.0
C531 C 0.54599 0.47376 0.72442 0.0
C532 C 0.56195 0.4506 0.72653 0.0
C533 C 0.59728 0.4459 0.71708 0.0
C534 C 0.61593 0.46388 0.70539 0.0
H535 H 0.55378 0.5121 0.64929 0.0
H536 H 0.55502 0.48803 0.66827 0.0
H537 H 0.53843 0.51771 0.67536 0.0
H538 H 0.55214 0.50959 0.71167 0.0
H539 H 0.51909 0.478 0.73182 0.0
H540 H 0.83298 0.88642 0.14973 0.0
H541 H 0.85837 0.91843 0.1724 0.0
H542 H 0.83634 0.97182 0.125 0.0
H543 H 0.80906 0.94018 0.10267 0.0
H544 H 0.91968 0.9477 0.16585 0.0
H545 H 0.79083 1.00426 0.17506 0.0
H546 H 0.78863 0.97396 0.16433 0.0
H547 H 0.80324 0.99931 0.14841 0.0
C548 C 0.83274 0.90503 0.14427 0.0
C549 C 0.81882 0.91068 0.12436 0.0
C550 C 0.84756 0.9233 0.15721 0.0
C551 C 0.84875 0.9476 0.15054 0.0
C552 C 0.83494 0.95331 0.13069 0.0
H553 H 0.94859 0.08153 0.19921 0.0
H554 H 0.91791 0.04983 0.17784 0.0
C555 C 0.81986 0.9351 0.1178 0.0
C556 C 0.86634 0.96672 0.16391 0.0
H557 H 0.85002 0.02181 0.1865 0.0
C558 C 0.90434 0.96381 0.17049 0.0
C559 C 0.84633 0.98779 0.16992 0.0
C560 C 0.80489 0.99145 0.16424 0.0
C561 C 0.92312 0.98157 0.18256 0.0
C562 C 0.90322 1.0027 0.1884 0.0
C563 C 0.86522 0.00563 0.1819 0.0
C564 C 0.92137 0.02189 0.20138 0.0
C565 C 0.96438 0.97781 0.1886 0.0
C566 C 0.93314 0.01669 0.2217 0.0
C567 C 0.95086 0.03465 0.23381 0.0
C568 C 0.95661 0.05824 0.22595 0.0
C569 C 0.94462 0.06347 0.20563 0.0
C570 C 0.92693 0.04545 0.19348 0.0
H571 H 0.97814 0.96385 0.17876 0.0
H572 H 0.98114 0.99505 0.18739 0.0
H573 H 0.96566 0.97154 0.20495 0.0
H574 H 0.92867 0.99871 0.2282 0.0
H575 H 0.96045 0.02997 0.24926 0.0
H576 H 0.76873 0.09378 0.64678 0.0
H577 H 0.79619 0.06395 0.67064 0.0
H578 H 0.90329 0.06821 0.63763 0.0
H579 H 0.87646 0.09839 0.61409 0.0
H580 H 0.82751 0.01836 0.66083 0.0
H581 H 0.93467 0.07936 0.69854 0.0
H582 H 0.895 0.09066 0.68352 0.0
H583 H 0.93684 0.07946 0.67069 0.0
C584 C 0.79824 0.08852 0.64475 0.0
C585 C 0.82046 0.09845 0.62858 0.0
C586 C 0.8138 0.07143 0.65831 0.0
C587 C 0.8519 0.06417 0.65605 0.0
C588 C 0.87402 0.07389 0.63984 0.0
H589 H 0.9677 0.93726 0.69985 0.0
H590 H 0.93559 0.96891 0.68008 0.0
C591 C 0.8585 0.09091 0.62626 0.0
C592 C 0.86834 0.04592 0.67026 0.0
H593 H 0.94126 0.03684 0.70463 0.0
C594 C 0.85219 0.02242 0.67054 0.0
C595 C 0.90022 0.05139 0.68308 0.0
C596 C 0.91753 0.07665 0.68416 0.0
C597 C 0.86789 1.004 0.68282 0.0
C598 C 0.90083 0.00919 0.69491 0.0
C599 C 0.91621 0.03288 0.69517 0.0
C600 C 0.92026 0.9901 0.70701 0.0
C601 C 0.8491 0.97913 0.68278 0.0
C602 C 0.92306 0.99187 0.72868 0.0
C603 C 0.94156 0.97384 0.74006 0.0
C604 C 0.95779 0.95383 0.72992 0.0
C605 C 0.95539 0.95237 0.70817 0.0
C606 C 0.93683 0.97035 0.69683 0.0
H607 H 0.81902 0.9798 0.6772 0.0
H608 H 0.86513 0.96701 0.67225 0.0
H609 H 0.8494 0.97099 0.69855 0.0
H610 H 0.91071 0.00711 0.73679 0.0
H611 H 0.94325 0.97563 0.75678 0.0
H612 H 0.74948 0.41531 0.14571 0.0
H613 H 0.72329 0.44547 0.16958 0.0
H614 H 0.61291 0.43801 0.14002 0.0
H615 H 0.63862 0.40751 0.11639 0.0
H616 H 0.68832 0.49019 0.15924 0.0
H617 H 0.58973 0.4286 0.20244 0.0
H618 H 0.62843 0.41755 0.18664 0.0
H619 H 0.58462 0.42713 0.17471 0.0
C620 C 0.71952 0.4199 0.14446 0.0
C621 C 0.69605 0.40896 0.12924 0.0
C622 C 0.70469 0.43721 0.15802 0.0
C623 C 0.66608 0.44369 0.15673 0.0
C624 C 0.64264 0.43294 0.14148 0.0
H625 H 0.54806 0.56934 0.2001 0.0
H626 H 0.5806 0.5378 0.18062 0.0
C627 C 0.65746 0.41571 0.12787 0.0
C628 C 0.65047 0.4622 0.17094 0.0
H629 H 0.58191 0.47113 0.20773 0.0
C630 C 0.66527 0.48601 0.16997 0.0
C631 C 0.62077 0.45658 0.1851 0.0
C632 C 0.60513 0.43104 0.1875 0.0
C633 C 0.65021 0.50459 0.1823 0.0
C634 C 0.6193 0.49921 0.19575 0.0
C635 C 0.60541 0.47522 0.19726 0.0
C636 C 0.60004 0.51841 0.20779 0.0
C637 C 0.66747 0.52983 0.18081 0.0
C638 C 0.59943 0.51764 0.22955 0.0
C639 C 0.58062 0.53564 0.24081 0.0
C640 C 0.56187 0.55459 0.23045 0.0
C641 C 0.56226 0.55508 0.20861 0.0
C642 C 0.5811 0.53715 0.19742 0.0
H643 H 0.69694 0.52953 0.17438 0.0
H644 H 0.64965 0.541 0.17031 0.0
H645 H 0.66837 0.5388 0.19625 0.0
H646 H 0.61363 0.50317 0.23782 0.0
H647 H 0.58059 0.53461 0.2576 0.0
H648 H 0.27235 0.41044 0.37663 0.0
H649 H 0.29826 0.44154 0.35325 0.0
H650 H 0.40043 0.44682 0.39073 0.0
H651 H 0.37657 0.41446 0.41297 0.0
H652 H 0.31826 0.48757 0.35812 0.0
H653 H 0.44726 0.43718 0.3354 0.0
H654 H 0.40885 0.42312 0.3499 0.0
H655 H 0.44529 0.44095 0.36298 0.0
C656 C 0.30068 0.41783 0.37969 0.0
C657 C 0.32234 0.40963 0.39672 0.0
C658 C 0.31527 0.43585 0.36641 0.0
C659 C 0.35171 0.44617 0.36993 0.0
C660 C 0.37276 0.43866 0.38729 0.0
H661 H 0.44452 0.58189 0.32161 0.0
H662 H 0.41244 0.54999 0.34204 0.0
C663 C 0.35861 0.42038 0.40029 0.0
C664 C 0.36783 0.46487 0.35562 0.0
H665 H 0.44801 0.47985 0.32799 0.0
C666 C 0.3465 0.48578 0.35138 0.0
C667 C 0.40435 0.46237 0.34642 0.0
C668 C 0.42753 0.43956 0.34873 0.0
C669 C 0.36123 0.50454 0.33878 0.0
C670 C 0.39872 0.50267 0.33075 0.0
C671 C 0.41952 0.48147 0.33446 0.0
C672 C 0.41703 0.52231 0.3183 0.0
C673 C 0.33629 0.52599 0.3339 0.0
C674 C 0.43133 0.51717 0.29847 0.0
C675 C 0.45027 0.53518 0.28703 0.0
C676 C 0.45499 0.55875 0.29508 0.0
C677 C 0.44109 0.56388 0.31501 0.0
C678 C 0.42233 0.54577 0.32655 0.0
H679 H 0.30545 0.52142 0.33593 0.0
H680 H 0.34358 0.54114 0.34464 0.0
H681 H 0.34088 0.53244 0.31775 0.0
H682 H 0.42798 0.49915 0.29187 0.0
H683 H 0.4616 0.53055 0.27195 0.0
H684 H 0.187 0.12262 0.87164 0.0
H685 H 0.16099 0.09061 0.84903 0.0
H686 H 0.17943 0.03756 0.89711 0.0
H687 H 0.20648 0.06921 0.91963 0.0
H688 H 0.19721 0.04306 0.83689 0.0
H689 H 0.06144 0.03441 0.88145 0.0
H690 H 0.09201 0.06112 0.88282 0.0
H691 H 0.10504 0.03395 0.89636 0.0
C692 C 0.18606 0.1041 0.87731 0.0
C693 C 0.19858 0.09852 0.89752 0.0
C694 C 0.17105 0.08588 0.8644 0.0
C695 C 0.168 0.06187 0.87154 0.0
C696 C 0.18116 0.05609 0.89147 0.0
H697 H 0.06983 0.92797 0.82287 0.0
H698 H 0.10132 0.95945 0.84408 0.0
C699 C 0.19638 0.07423 0.90434 0.0
C700 C 0.15014 0.04286 0.85838 0.0
H701 H 0.07109 0.006 0.85455 0.0
C702 C 0.1696 0.03497 0.84065 0.0
C703 C 0.11416 0.03244 0.86344 0.0
C704 C 0.09165 0.04096 0.88196 0.0
C705 C 0.15418 0.01649 0.82798 0.0
C706 C 0.1182 0.00605 0.83308 0.0
C707 C 0.09875 0.01402 0.85078 0.0
C708 C 0.09992 0.98699 0.82012 0.0
C709 C 0.17674 0.00791 0.8095 0.0
C710 C 0.08816 0.99228 0.79983 0.0
C711 C 0.06986 0.97448 0.78782 0.0
C712 C 0.06333 0.95104 0.79584 0.0
C713 C 0.07463 0.94587 0.81628 0.0
C714 C 0.09273 0.96376 0.82835 0.0
H715 H 0.20722 0.01385 0.81037 0.0
H716 H 0.17544 0.98777 0.80829 0.0
H717 H 0.16419 0.01553 0.79512 0.0
H718 H 0.09263 0.01028 0.79338 0.0
H719 H 0.06039 0.97917 0.77235 0.0
H720 H 0.21546 0.09568 0.97112 0.0
H721 H 0.19632 0.09298 1.00743 0.0
H722 H 0.1794 0.17047 1.00897 0.0
H723 H 0.19735 0.17324 0.97223 0.0
H724 H 0.22959 0.11575 0.04173 0.0
H725 H 0.07763 0.14254 0.03149 0.0
H726 H 0.10734 0.13376 1.00994 0.0
H727 H 0.11332 0.16326 0.0215 0.0
C728 C 0.20726 0.11215 0.97908 0.0
C729 C 0.20751 0.13464 0.9687 0.0
C730 C 0.19659 0.11059 0.99988 0.0
C731 C 0.18594 0.13146 1.01081 0.0
C732 C 0.18689 0.15408 1.0007 0.0
H733 H 0.15249 0.12298 0.14618 0.0
H734 H 0.16649 0.14041 0.11181 0.0
C735 C 0.19756 0.15566 0.9798 0.0
C736 C 0.17438 0.1292 0.03284 0.0
H737 H 0.09744 0.13232 0.06537 0.0
C738 C 0.20087 0.11971 0.04698 0.0
C739 C 0.13676 0.13422 0.03957 0.0
C740 C 0.10691 0.14385 0.02487 0.0
C741 C 0.19051 0.1145 0.06753 0.0
C742 C 0.15277 0.11907 0.07414 0.0
C743 C 0.12646 0.12912 0.06021 0.0
C744 C 0.13946 0.11093 0.09479 0.0
C745 C 0.21938 0.10308 0.08184 0.0
C746 C 0.11878 0.08901 0.09645 0.0
C747 C 0.11109 0.07899 0.11592 0.0
C748 C 0.12371 0.09082 0.13407 0.0
C749 C 0.1424 0.11354 0.13242 0.0
C750 C 0.15045 0.12346 0.11286 0.0
H751 H 0.24685 0.0993 0.0739 0.0
H752 H 0.22524 0.11542 0.09514 0.0
H753 H 0.20762 0.08576 0.0882 0.0
H754 H 0.11011 0.0791 0.08264 0.0
H755 H 0.09624 0.06159 0.11678 0.0
H756 H 0.3775 0.38054 0.46055 0.0
H757 H 0.39606 0.38512 0.49702 0.0
H758 H 0.28097 0.36662 0.51582 0.0
H759 H 0.2621 0.36197 0.47924 0.0
H760 H 0.31778 0.41417 0.53109 0.0
H761 H 0.40401 0.33143 0.54506 0.0
H762 H 0.41149 0.34722 0.52088 0.0
H763 H 0.36633 0.33246 0.5258 0.0
C764 C 0.35623 0.37722 0.47246 0.0
C765 C 0.3183 0.371 0.46707 0.0
C766 C 0.36694 0.37968 0.49326 0.0
C767 C 0.33993 0.37604 0.50904 0.0
C768 C 0.30224 0.36931 0.5038 0.0
H769 H 0.36994 0.39616 0.64282 0.0
H770 H 0.34902 0.38086 0.60895 0.0
C771 C 0.29156 0.36659 0.48296 0.0
C772 C 0.35052 0.38134 0.53084 0.0
H773 H 0.40697 0.36229 0.57086 0.0
C774 C 0.3369 0.40271 0.53989 0.0
C775 C 0.37556 0.36634 0.54217 0.0
C776 C 0.39015 0.34296 0.53313 0.0
C777 C 0.34861 0.40985 0.55985 0.0
C778 C 0.37444 0.39522 0.57097 0.0
C779 C 0.38726 0.37348 0.56219 0.0
C780 C 0.38925 0.40287 0.5915 0.0
C781 C 0.33403 0.43327 0.56885 0.0
C782 C 0.41921 0.41999 0.59281 0.0
C783 C 0.43175 0.42853 0.61212 0.0
C784 C 0.41425 0.4203 0.63056 0.0
C785 C 0.38456 0.40274 0.62909 0.0
C786 C 0.37233 0.39403 0.60973 0.0
H787 H 0.31096 0.44123 0.55922 0.0
H788 H 0.32298 0.43013 0.58478 0.0
H789 H 0.35801 0.44667 0.56997 0.0
H790 H 0.43262 0.42695 0.57883 0.0
H791 H 0.45517 0.44161 0.61256 0.0
H792 H 0.75724 0.39677 0.04907 0.0
H793 H 0.73701 0.40246 0.01285 0.0
H794 H 0.6341 0.36052 0.0249 0.0
H795 H 0.65395 0.35547 0.06121 0.0
H796 H 0.7233 0.37007 0.9827 0.0
H797 H 0.59001 0.42009 0.99817 0.0
H798 H 0.62546 0.41476 0.01801 0.0
H799 H 0.59111 0.39135 0.01128 0.0
C800 C 0.73044 0.38871 0.04384 0.0
C801 C 0.70716 0.37558 0.05768 0.0
C802 C 0.7188 0.39204 0.02325 0.0
C803 C 0.68361 0.38238 0.01625 0.0
C804 C 0.66081 0.36874 0.03006 0.0
H805 H 0.58246 0.35285 0.89836 0.0
H806 H 0.59442 0.36005 0.93539 0.0
C807 C 0.67235 0.36555 0.05067 0.0
C808 C 0.6715 0.38577 0.99431 0.0
H809 H 0.5976 0.40464 0.96361 0.0
C810 C 0.69605 0.37794 0.97854 0.0
C811 C 0.63594 0.39613 0.98886 0.0
C812 C 0.60929 0.40629 1.00497 0.0
C813 C 0.68549 0.37933 0.95755 0.0
C814 C 0.64953 0.38902 0.95215 0.0
C815 C 0.62518 0.39728 0.96783 0.0
C816 C 0.63605 0.3889 0.93034 0.0
C817 C 0.71231 0.36964 0.94129 0.0
C818 C 0.654 0.40365 0.91534 0.0
C819 C 0.64685 0.39973 0.8942 0.0
C820 C 0.62171 0.38102 0.88788 0.0
C821 C 0.60156 0.36759 0.90294 0.0
C822 C 0.6085 0.37162 0.92404 0.0
H823 H 0.73645 0.3595 0.94824 0.0
H824 H 0.69664 0.35742 0.93039 0.0
H825 H 0.72437 0.38503 0.93216 0.0
H826 H 0.67528 0.41713 0.91994 0.0
H827 H 0.66312 0.41 0.88281 0.0
H828 H 0.78285 0.0974 0.55163 0.0
H829 H 0.80402 0.09507 0.51528 0.0
H830 H 0.86013 0.16501 0.52144 0.0
H831 H 0.83846 0.16763 0.55761 0.0
H832 H 0.7941 0.14045 0.48181 0.0
H833 H 0.9391 0.10578 0.50055 0.0
H834 H 0.89815 0.09987 0.51699 0.0
H835 H 0.91994 0.12956 0.51658 0.0
C836 C 0.79944 0.11231 0.5451 0.0
C837 C 0.80891 0.13277 0.55723 0.0
C838 C 0.81149 0.11095 0.52445 0.0
C839 C 0.8337 0.12982 0.51586 0.0
C840 C 0.84296 0.15032 0.5279 0.0
H841 H 0.96156 0.16217 0.40641 0.0
H842 H 0.93593 0.15651 0.44128 0.0
C843 C 0.83045 0.15185 0.54843 0.0
C844 C 0.84755 0.12824 0.4943 0.0
H845 H 0.92744 0.11704 0.46575 0.0
C846 C 0.82308 0.13511 0.47816 0.0
C847 C 0.88536 0.12131 0.48983 0.0
C848 C 0.91233 0.11357 0.50682 0.0
C849 C 0.83597 0.13613 0.45755 0.0
C850 C 0.87413 0.12954 0.45302 0.0
C851 C 0.89823 0.12205 0.46922 0.0
C852 C 0.89036 0.13183 0.43184 0.0
C853 C 0.80911 0.14529 0.44102 0.0
C854 C 0.8738 0.11942 0.41496 0.0
C855 C 0.8879 0.12303 0.39488 0.0
C856 C 0.91929 0.13883 0.39133 0.0
C857 C 0.93679 0.15037 0.40845 0.0
C858 C 0.92241 0.14695 0.42845 0.0
H859 H 0.78466 0.15523 0.4478 0.0
H860 H 0.82431 0.15755 0.43001 0.0
H861 H 0.79728 0.1296 0.43215 0.0
H862 H 0.84963 0.10718 0.41726 0.0
H863 H 0.87354 0.11389 0.38211 0.0
H864 H 0.82402 0.83713 0.05032 0.0
H865 H 0.84398 0.84023 0.01385 0.0
H866 H 0.8153 0.91617 0.01358 0.0
H867 H 0.79514 0.91324 0.04986 0.0
H868 H 0.78716 0.8835 0.97774 0.0
H869 H 0.94361 0.88211 0.9948 0.0
H870 H 0.91232 0.86031 1.00733 0.0
H871 H 0.90934 0.89187 0.01392 0.0
C872 C 0.82154 0.8544 0.04239 0.0
C873 C 0.80813 0.87497 0.05297 0.0
C874 C 0.8332 0.85617 0.02164 0.0
C875 C 0.83135 0.87847 1.01114 0.0
C876 C 0.81707 0.89883 0.02148 0.0
H877 H 0.92136 0.95121 0.9066 0.0
H878 H 0.90617 0.93342 0.94038 0.0
C879 C 0.8057 0.89714 0.0422 0.0
C880 C 0.84462 0.88094 0.98943 0.0
H881 H 0.92521 0.88909 0.96021 0.0
C882 C 0.8173 0.88433 0.97377 0.0
C883 C 0.88397 0.88216 0.98446 0.0
C884 C 0.91424 0.87902 1.00093 0.0
C885 C 0.82831 0.88969 0.9533 0.0
C886 C 0.86772 0.89153 0.94838 0.0
C887 C 0.89505 0.88745 0.96397 0.0
C888 C 0.88086 0.90045 0.9278 0.0
C889 C 0.79768 0.89455 0.93733 0.0
C890 C 0.87285 0.88745 0.9095 0.0
C891 C 0.88139 0.89766 0.89008 0.0
C892 C 0.89797 0.92107 0.88871 0.0
C893 C 0.90789 0.93336 0.90713 0.0
C894 C 0.89948 0.92315 0.92646 0.0
H895 H 0.76895 0.89638 0.94447 0.0
H896 H 0.80447 0.91141 0.92853 0.0
H897 H 0.79634 0.87924 0.92613 0.0
H898 H 0.85903 0.86972 0.91021 0.0
H899 H 0.87349 0.88773 0.87617 0.0
H900 H 0.76118 0.64906 0.54318 0.0
H901 H 0.7423 0.64693 0.50664 0.0
H902 H 0.63202 0.61756 0.52432 0.0
H903 H 0.64973 0.62097 0.56079 0.0
H904 H 0.72499 0.60779 0.48445 0.0
H905 H 0.59934 0.66771 0.48339 0.0
H906 H 0.63217 0.66689 0.50504 0.0
H907 H 0.59444 0.64439 0.50266 0.0
C908 C 0.73258 0.64269 0.53933 0.0
C909 C 0.70704 0.63517 0.55501 0.0
C910 C 0.7219 0.64133 0.5184 0.0
C911 C 0.68547 0.63248 0.51267 0.0
C912 C 0.65991 0.62506 0.52829 0.0
H913 H 0.59047 0.56423 0.4059 0.0
H914 H 0.606 0.58117 0.44012 0.0
C915 C 0.67039 0.62661 0.54919 0.0
C916 C 0.67513 0.62929 0.49041 0.0
H917 H 0.60461 0.63973 0.45468 0.0
C918 C 0.69902 0.61517 0.47787 0.0
C919 C 0.64125 0.63895 0.48173 0.0
C920 C 0.61557 0.65554 0.49387 0.0
C921 C 0.68916 0.60961 0.45726 0.0
C922 C 0.65454 0.61834 0.44896 0.0
C923 C 0.63113 0.63304 0.46118 0.0
C924 C 0.64113 0.6106 0.42815 0.0
C925 C 0.71506 0.5937 0.4446 0.0
C926 C 0.65492 0.62204 0.41012 0.0
C927 C 0.64583 0.61249 0.39051 0.0
C928 C 0.62327 0.59122 0.38876 0.0
C929 C 0.60815 0.58054 0.40685 0.0
C930 C 0.61688 0.59021 0.42636 0.0
H931 H 0.74087 0.58813 0.4534 0.0
H932 H 0.69914 0.57712 0.43953 0.0
H933 H 0.72435 0.60359 0.43042 0.0
H934 H 0.67379 0.63778 0.41127 0.0
H935 H 0.65799 0.62097 0.37681 0.0
H936 H 0.29858 0.5943 0.96846 0.0
H937 H 0.31996 0.59372 1.00465 0.0
H938 H 0.34649 0.67042 1.00135 0.0
H939 H 0.32539 0.67114 0.96512 0.0
H940 H 0.39269 0.60613 0.02022 0.0
H941 H 0.2803 0.66458 0.05368 0.0
H942 H 0.27596 0.65097 0.02827 0.0
H943 H 0.30495 0.67789 0.03196 0.0
C944 C 0.30893 0.61106 0.97546 0.0
C945 C 0.31019 0.6328 0.96394 0.0
C946 C 0.32103 0.61069 0.99613 0.0
C947 C 0.33438 0.63206 1.00573 0.0
C948 C 0.33554 0.65382 0.99435 0.0
H949 H 0.47047 0.65747 0.11501 0.0
H950 H 0.44585 0.65183 0.0797 0.0
C951 C 0.32341 0.65422 0.97366 0.0
C952 C 0.34819 0.63146 0.02746 0.0
H953 H 0.33357 0.65589 0.07545 0.0
C954 C 0.37965 0.61689 0.03233 0.0
C955 C 0.33081 0.64529 0.04327 0.0
C956 C 0.29591 0.6604 0.03914 0.0
C957 C 0.39492 0.61638 0.0525 0.0
C958 C 0.37836 0.63088 0.06807 0.0
C959 C 0.34628 0.6449 0.06337 0.0
C960 C 0.39458 0.63243 0.08924 0.0
C961 C 0.42857 0.60036 0.0571 0.0
C962 C 0.37383 0.62335 0.10622 0.0
C963 C 0.38776 0.62658 0.12641 0.0
C964 C 0.42245 0.63924 0.12994 0.0
C965 C 0.44346 0.6479 0.11281 0.0
C966 C 0.42964 0.64451 0.09264 0.0
H967 H 0.43367 0.58709 0.04444 0.0
H968 H 0.45471 0.61185 0.05899 0.0
H969 H 0.42393 0.59028 0.07184 0.0
H970 H 0.34659 0.6141 0.10386 0.0
H971 H 0.37075 0.61988 0.13928 0.0
H972 H 0.15408 0.89111 0.45752 0.0
H973 H 0.13288 0.89344 0.49344 0.0
H974 H 0.24257 0.8677 0.51412 0.0
H975 H 0.26491 0.86668 0.4782 0.0
H976 H 0.1244 0.85766 0.52062 0.0
H977 H 0.2287 0.92487 0.55225 0.0
H978 H 0.22289 0.9197 0.52475 0.0
H979 H 0.25144 0.89952 0.54016 0.0
C980 C 0.17414 0.8865 0.46969 0.0
C981 C 0.21146 0.87898 0.4649 0.0
C982 C 0.16179 0.88765 0.49025 0.0
C983 C 0.18632 0.88119 0.50654 0.0
C984 C 0.22343 0.8734 0.50187 0.0
H985 H 0.13822 0.83483 0.63061 0.0
H986 H 0.16056 0.84112 0.59502 0.0
C987 C 0.23598 0.87246 0.48127 0.0
C988 C 0.17216 0.88126 0.52826 0.0
H989 H 0.19184 0.90219 0.57716 0.0
C990 C 0.139 0.86759 0.53291 0.0
C991 C 0.19092 0.89445 0.54429 0.0
C992 C 0.22522 0.91066 0.5401 0.0
C993 C 0.12489 0.86612 0.55323 0.0
C994 C 0.14459 0.87842 0.56932 0.0
C995 C 0.17706 0.89265 0.56471 0.0
C996 C 0.1326 0.87562 0.59117 0.0
C997 C 0.08918 0.85125 0.55754 0.0
C998 C 0.10983 0.89313 0.60074 0.0
C999 C 0.09674 0.88952 0.62104 0.0
C1000 C 0.10625 0.86831 0.63203 0.0
C1001 C 0.12981 0.85112 0.62245 0.0
C1002 C 0.14284 0.85475 0.6022 0.0
H1003 H 0.07509 0.84473 0.54306 0.0
H1004 H 0.09661 0.83525 0.56716 0.0
H1005 H 0.06849 0.86222 0.56649 0.0
H1006 H 0.10158 0.90931 0.59235 0.0
H1007 H 0.07843 0.90302 0.62795 0.0
H1008 H 0.24872 0.28758 0.3897 0.0
H1009 H 0.21894 0.25343 0.37089 0.0
H1010 H 0.1238 0.2988 0.35446 0.0
H1011 H 0.15441 0.33319 0.37232 0.0
H1012 H 0.15358 0.22892 0.37507 0.0
H1013 H 0.15153 0.27448 0.29849 0.0
H1014 H 0.17709 0.28711 0.32041 0.0
H1015 H 0.12628 0.29142 0.3177 0.0
C1016 C 0.22147 0.29022 0.38204 0.0
C1017 C 0.20394 0.31305 0.38228 0.0
C1018 C 0.20447 0.27071 0.37129 0.0
C1019 C 0.16954 0.27366 0.36076 0.0
C1020 C 0.15137 0.29624 0.36178 0.0
H1021 H 0.01198 0.1822 0.29123 0.0
H1022 H 0.04445 0.21429 0.31118 0.0
C1023 C 0.16869 0.31583 0.37215 0.0
C1024 C 0.15195 0.25315 0.34882 0.0
H1025 H 0.11447 0.2379 0.30143 0.0
C1026 C 0.14533 0.23084 0.35892 0.0
C1027 C 0.14131 0.25554 0.32768 0.0
C1028 C 0.14978 0.27835 0.31539 0.0
C1029 C 0.12739 0.21117 0.34867 0.0
C1030 C 0.116 0.21383 0.32772 0.0
C1031 C 0.12299 0.23598 0.31755 0.0
C1032 C 0.09629 0.19399 0.31608 0.0
C1033 C 0.11987 0.18792 0.36049 0.0
C1034 C 0.11474 0.17197 0.3121 0.0
C1035 C 0.09606 0.15351 0.3009 0.0
C1036 C 0.05881 0.15686 0.29323 0.0
C1037 C 0.04052 0.17899 0.29711 0.0
C1038 C 0.05912 0.19738 0.3084 0.0
H1039 H 0.12233 0.19063 0.37753 0.0
H1040 H 0.09091 0.18045 0.3569 0.0
H1041 H 0.14118 0.1742 0.35582 0.0
H1042 H 0.14366 0.16911 0.31756 0.0
H1043 H 0.11068 0.13654 0.2984 0.0
H1044 H 0.33447 0.17468 0.85489 0.0
H1045 H 0.36329 0.21035 0.83799 0.0
H1046 H 0.3298 0.25515 0.88958 0.0
H1047 H 0.30065 0.21949 0.90658 0.0
H1048 H 0.32319 0.25652 0.82825 0.0
H1049 H 0.44941 0.2665 0.88072 0.0
H1050 H 0.42291 0.23821 0.87818 0.0
H1051 H 0.40299 0.26291 0.89253 0.0
C1052 C 0.33335 0.19214 0.86264 0.0
C1053 C 0.31545 0.19434 0.88202 0.0
C1054 C 0.3497 0.21245 0.85297 0.0
C1055 C 0.34878 0.23526 0.86262 0.0
C1056 C 0.33099 0.2376 0.88201 0.0
H1057 H 0.40838 0.37248 0.80122 0.0
H1058 H 0.37518 0.3406 0.82094 0.0
C1059 C 0.31433 0.21726 0.89165 0.0
C1060 C 0.36631 0.25655 0.85214 0.0
H1061 H 0.44387 0.29491 0.85359 0.0
C1062 C 0.34941 0.26509 0.83382 0.0
C1063 C 0.40068 0.26739 0.85943 0.0
C1064 C 0.42038 0.25831 0.87872 0.0
C1065 C 0.36625 0.28415 0.82243 0.0
C1066 C 0.40065 0.29503 0.82972 0.0
C1067 C 0.41738 0.28658 0.84813 0.0
C1068 C 0.42064 0.31451 0.81799 0.0
C1069 C 0.3478 0.29198 0.80236 0.0
C1070 C 0.45751 0.31058 0.81021 0.0
C1071 C 0.47653 0.32875 0.79895 0.0
C1072 C 0.45896 0.35116 0.79532 0.0
C1073 C 0.42231 0.35521 0.80345 0.0
C1074 C 0.4033 0.33704 0.81471 0.0
H1075 H 0.32622 0.27847 0.79675 0.0
H1076 H 0.33311 0.3095 0.80481 0.0
H1077 H 0.3697 0.29475 0.79009 0.0
H1078 H 0.47137 0.29331 0.81262 0.0
H1079 H 0.5047 0.32507 0.79282 0.0
H1080 H 0.68587 0.20129 0.61939 0.0
H1081 H 0.64477 0.23317 0.63353 0.0
H1082 H 0.72115 0.24175 0.68574 0.0
H1083 H 0.76203 0.20982 0.67188 0.0
H1084 H 0.61182 0.23332 0.67828 0.0
H1085 H 0.70593 0.31189 0.65729 0.0
H1086 H 0.7069 0.28324 0.64357 0.0
H1087 H 0.7291 0.28602 0.66861 0.0
C1088 C 0.69393 0.21005 0.63384 0.0
C1089 C 0.72723 0.20323 0.64454 0.0
C1090 C 0.67042 0.22817 0.64189 0.0
C1091 C 0.68021 0.23987 0.66055 0.0
C1092 C 0.71337 0.23304 0.67122 0.0
H1093 H 0.57016 0.32503 0.7529 0.0
H1094 H 0.60138 0.29411 0.73192 0.0
C1095 C 0.7366 0.21482 0.66331 0.0
C1096 C 0.65572 0.25902 0.66927 0.0
H1097 H 0.65527 0.31958 0.68078 0.0
C1098 C 0.621 0.25224 0.67864 0.0
C1099 C 0.66775 0.28365 0.66952 0.0
C1100 C 0.70432 0.29182 0.6591 0.0
C1101 C 0.59865 0.26941 0.68903 0.0
C1102 C 0.61163 0.29385 0.69015 0.0
C1103 C 0.64554 0.30079 0.68 0.0
C1104 C 0.59145 0.31226 0.70264 0.0
C1105 C 0.56155 0.26123 0.69892 0.0
C1106 C 0.57608 0.33291 0.69315 0.0
C1107 C 0.55826 0.35068 0.70512 0.0
C1108 C 0.55602 0.34822 0.72681 0.0
C1109 C 0.57152 0.32751 0.73624 0.0
C1110 C 0.5891 0.30972 0.72426 0.0
H1111 H 0.55073 0.2439 0.6921 0.0
H1112 H 0.56632 0.25826 0.71576 0.0
H1113 H 0.53924 0.27527 0.69714 0.0
H1114 H 0.5779 0.33527 0.67649 0.0
H1115 H 0.54672 0.36648 0.69742 0.0
H1116 H 0.8262 0.33382 0.17327 0.0
H1117 H 0.85462 0.29834 0.18996 0.0
H1118 H 0.83329 0.25585 0.13483 0.0
H1119 H 0.80426 0.29132 0.11804 0.0
H1120 H 0.81321 0.24624 0.19228 0.0
H1121 H 0.95513 0.25316 0.15317 0.0
H1122 H 0.92596 0.27957 0.15731 0.0
H1123 H 0.91208 0.25751 0.13818 0.0
C1124 C 0.82758 0.31691 0.1647 0.0
C1125 C 0.81307 0.31532 0.14439 0.0
C1126 C 0.84373 0.29669 0.17425 0.0
C1127 C 0.84607 0.27458 0.16359 0.0
C1128 C 0.83175 0.27284 0.14325 0.0
H1129 H 0.9571 0.14041 0.20061 0.0
H1130 H 0.92463 0.17244 0.18131 0.0
C1131 C 0.81519 0.29307 0.13372 0.0
C1132 C 0.8635 0.2534 0.17394 0.0
H1133 H 0.94679 0.222 0.17784 0.0
C1134 C 0.84233 0.2408 0.18909 0.0
C1135 C 0.90142 0.24645 0.16967 0.0
C1136 C 0.92528 0.25981 0.15375 0.0
C1137 C 0.85825 0.22138 0.20016 0.0
C1138 C 0.89656 0.21479 0.19626 0.0
C1139 C 0.91747 0.22716 0.18084 0.0
C1140 C 0.9156 0.19526 0.20815 0.0
C1141 C 0.83387 0.20791 0.2158 0.0
C1142 C 0.92166 0.19758 0.22962 0.0
C1143 C 0.94047 0.17938 0.24067 0.0
C1144 C 0.95348 0.1585 0.23045 0.0
C1145 C 0.94743 0.15628 0.20893 0.0
C1146 C 0.92884 0.17454 0.19789 0.0
H1147 H 0.80287 0.21105 0.21323 0.0
H1148 H 0.83911 0.18806 0.21514 0.0
H1149 H 0.84132 0.21438 0.23163 0.0
H1150 H 0.91233 0.21366 0.23777 0.0
H1151 H 0.94524 0.18179 0.25717 0.0
H1152 H 0.82303 0.71299 0.61314 0.0
H1153 H 0.86461 0.74554 0.62718 0.0
H1154 H 0.82641 0.7281 0.68907 0.0
H1155 H 0.78504 0.69576 0.67522 0.0
H1156 H 0.84144 0.78667 0.65272 0.0
H1157 H 0.94498 0.72752 0.69301 0.0
H1158 H 0.91382 0.71656 0.67253 0.0
H1159 H 0.89586 0.71997 0.69848 0.0
C1160 C 0.82367 0.71607 0.62973 0.0
C1161 C 0.80092 0.70182 0.64315 0.0
C1162 C 0.84738 0.73465 0.63771 0.0
C1163 C 0.84896 0.73897 0.65919 0.0
C1164 C 0.82613 0.72479 0.6725 0.0
H1165 H 0.94119 0.83094 0.75287 0.0
H1166 H 0.91032 0.80028 0.73081 0.0
C1167 C 0.80238 0.70641 0.66456 0.0
C1168 C 0.87342 0.7587 0.66798 0.0
H1169 H 0.94397 0.76913 0.70372 0.0
C1170 C 0.86433 0.78293 0.66361 0.0
C1171 C 0.90326 0.7537 0.68213 0.0
C1172 C 0.91537 0.72803 0.6867 0.0
C1173 C 0.88277 0.80232 0.67401 0.0
C1174 C 0.91151 0.79724 0.68886 0.0
C1175 C 0.92176 0.77301 0.69246 0.0
C1176 C 0.92942 0.81653 0.70195 0.0
C1177 C 0.86992 0.82793 0.66981 0.0
C1178 C 0.95055 0.83585 0.69314 0.0
C1179 C 0.96714 0.8538 0.70585 0.0
C1180 C 0.9631 0.85253 0.72749 0.0
C1181 C 0.94291 0.83294 0.73626 0.0
C1182 C 0.92598 0.81519 0.72363 0.0
H1183 H 0.84214 0.82828 0.6614 0.0
H1184 H 0.86703 0.83826 0.68452 0.0
H1185 H 0.89164 0.83741 0.66009 0.0
H1186 H 0.95449 0.83694 0.67651 0.0
H1187 H 0.98312 0.86865 0.69881 0.0
H1188 H 0.77683 0.7878 0.15977 0.0
H1189 H 0.73677 0.75664 0.17627 0.0
H1190 H 0.63806 0.78355 0.14356 0.0
H1191 H 0.67881 0.81387 0.12606 0.0
H1192 H 0.68144 0.76068 0.20201 0.0
H1193 H 0.62273 0.71334 0.13261 0.0
H1194 H 0.66085 0.73567 0.13081 0.0
H1195 H 0.61188 0.74508 0.13313 0.0
C1196 C 0.74666 0.78679 0.1559 0.0
C1197 C 0.73098 0.80299 0.14151 0.0
C1198 C 0.72372 0.76905 0.16538 0.0
C1199 C 0.68435 0.76737 0.16099 0.0
C1200 C 0.66848 0.78385 0.14676 0.0
H1201 H 0.51284 0.68243 0.22952 0.0
H1202 H 0.54627 0.7141 0.20952 0.0
C1203 C 0.69172 0.8013 0.13686 0.0
C1204 C 0.66022 0.74899 0.17211 0.0
H1205 H 0.59697 0.70155 0.16524 0.0
C1206 C 0.66305 0.74779 0.19388 0.0
C1207 C 0.6361 0.73203 0.1616 0.0
C1208 C 0.63293 0.7314 0.13825 0.0
C1209 C 0.64297 0.73006 0.20531 0.0
C1210 C 0.61902 0.71326 0.19481 0.0
C1211 C 0.6154 0.7146 0.17317 0.0
C1212 C 0.59837 0.69377 0.20616 0.0
C1213 C 0.648 0.72892 0.22854 0.0
C1214 C 0.61665 0.67187 0.21072 0.0
C1215 C 0.59746 0.65361 0.22184 0.0
C1216 C 0.55985 0.65709 0.22882 0.0
C1217 C 0.54165 0.67909 0.22417 0.0
C1218 C 0.56071 0.69724 0.21285 0.0
H1219 H 0.66487 0.74463 0.23466 0.0
H1220 H 0.61968 0.72834 0.23632 0.0
H1221 H 0.66305 0.71193 0.23263 0.0
H1222 H 0.64577 0.66894 0.20566 0.0
H1223 H 0.61195 0.6367 0.22482 0.0
H1224 H 0.2393 0.7827 0.36895 0.0
H1225 H 0.27765 0.75211 0.35146 0.0
H1226 H 0.3809 0.79022 0.37031 0.0
H1227 H 0.34236 0.81992 0.38906 0.0
H1228 H 0.32104 0.75554 0.32028 0.0
H1229 H 0.4117 0.72393 0.38521 0.0
H1230 H 0.37166 0.74364 0.38926 0.0
H1231 H 0.41712 0.75595 0.38083 0.0
C1232 C 0.27023 0.78425 0.36963 0.0
C1233 C 0.28794 0.8034 0.38051 0.0
C1234 C 0.29217 0.76684 0.35957 0.0
C1235 C 0.33235 0.76853 0.35974 0.0
C1236 C 0.3501 0.78795 0.37046 0.0
H1237 H 0.46133 0.68664 0.26675 0.0
H1238 H 0.42893 0.71885 0.28592 0.0
C1239 C 0.32807 0.80503 0.38106 0.0
C1240 C 0.35505 0.75052 0.34786 0.0
H1241 H 0.42897 0.71073 0.35143 0.0
C1242 C 0.3445 0.74565 0.32718 0.0
C1243 C 0.38556 0.7374 0.35681 0.0
C1244 C 0.39692 0.7403 0.3793 0.0
C1245 C 0.36297 0.7279 0.31537 0.0
C1246 C 0.39428 0.7154 0.32408 0.0
C1247 C 0.4052 0.72044 0.34466 0.0
C1248 C 0.41505 0.69627 0.3125 0.0
C1249 C 0.3476 0.72214 0.29397 0.0
C1250 C 0.41949 0.67312 0.32134 0.0
C1251 C 0.4389 0.65499 0.31066 0.0
C1252 C 0.45376 0.65954 0.2908 0.0
C1253 C 0.44953 0.68264 0.28192 0.0
C1254 C 0.43084 0.70097 0.29282 0.0
H1255 H 0.31724 0.72757 0.29231 0.0
H1256 H 0.3645 0.73242 0.28226 0.0
H1257 H 0.34956 0.70244 0.29045 0.0
H1258 H 0.40767 0.669 0.33649 0.0
H1259 H 0.4418 0.63727 0.31779 0.0
H1260 H 0.20723 0.71279 0.9036 0.0
H1261 H 0.16955 0.74595 0.88859 0.0
H1262 H 0.19766 0.72127 0.82705 0.0
H1263 H 0.23555 0.68844 0.84185 0.0
H1264 H 0.20125 0.78267 0.85645 0.0
H1265 H 0.07591 0.7272 0.8303 0.0
H1266 H 0.10693 0.71788 0.85125 0.0
H1267 H 0.12234 0.71501 0.82483 0.0
C1268 C 0.20518 0.71441 0.88689 0.0
C1269 C 0.2242 0.69807 0.87383 0.0
C1270 C 0.18375 0.73333 0.87837 0.0
C1271 C 0.18066 0.73583 0.85675 0.0
C1272 C 0.19945 0.71945 0.84377 0.0
H1273 H 0.07372 0.82669 0.76533 0.0
H1274 H 0.10697 0.79509 0.78488 0.0
C1275 C 0.22111 0.70079 0.85223 0.0
C1276 C 0.15888 0.75594 0.84744 0.0
H1277 H 0.08067 0.76749 0.81742 0.0
C1278 C 0.17463 0.77951 0.84812 0.0
C1279 C 0.12443 0.75157 0.83647 0.0
C1280 C 0.1061 0.72659 0.83571 0.0
C1281 C 0.15744 0.79877 0.83744 0.0
C1282 C 0.12315 0.79435 0.82621 0.0
C1283 C 0.10702 0.77083 0.82595 0.0
C1284 C 0.10375 0.81377 0.81439 0.0
C1285 C 0.17699 0.82342 0.8376 0.0
C1286 C 0.09074 0.83464 0.82451 0.0
C1287 C 0.07224 0.8528 0.81334 0.0
C1288 C 0.06584 0.85026 0.79189 0.0
C1289 C 0.07854 0.82923 0.78181 0.0
C1290 C 0.09734 0.81114 0.79297 0.0
H1291 H 0.20765 0.82218 0.84203 0.0
H1292 H 0.17507 0.8323 0.82216 0.0
H1293 H 0.16276 0.83523 0.84912 0.0
H1294 H 0.09459 0.83682 0.84109 0.0
H1295 H 0.0628 0.8688 0.82156 0.0
loop_
_geom_bond_atom_site_label_1
_geom_bond_atom_site_label_2
_geom_bond_distance
_geom_bond_site_symmetry_2
_ccdc_geom_bond_type
H0 C5 0.930 . S
H1 C8 0.930 . S
H2 C10 0.930 . S
H3 C4 1.016 . S
C4 H3 1.016 . S
C4 N11 1.286 . S
C5 H0 0.930 . S
C5 C6 1.397 . S
C5 C7 1.361 . S
C6 C5 1.397 . S
C6 C10 1.390 . S
C7 C5 1.361 . S
C7 C8 1.393 . S
C7 N11 1.413 . S
C8 H1 0.930 . S
C8 C7 1.393 . S
C8 C9 1.399 . S
C9 C8 1.399 . S
C9 C10 1.381 . S
C10 H2 0.930 . S
C10 C6 1.390 . S
C10 C9 1.381 . S
N11 C4 1.286 . S
N11 C7 1.413 . S
H12 C17 0.930 . S
H13 C20 0.930 . S
H14 C22 0.930 . S
H15 C16 1.016 . S
C16 H15 1.016 . S
C16 N23 1.286 . S
C17 H12 0.930 . S
C17 C18 1.397 . S
C17 C19 1.361 . S
C18 C17 1.397 . S
C18 C22 1.390 . S
C19 C17 1.361 . S
C19 C20 1.393 . S
C19 N23 1.413 . S
C20 H13 0.930 . S
C20 C19 1.393 . S
C20 C21 1.399 . S
C21 C20 1.399 . S
C21 C22 1.381 . S
C22 H14 0.930 . S
C22 C18 1.390 . S
C22 C21 1.381 . S
N23 C16 1.286 . S
N23 C19 1.413 . S
H24 C29 0.930 . S
H25 C32 0.930 . S
H26 C34 0.930 . S
H27 C28 1.016 . S
C28 H27 1.016 . S
C28 N35 1.286 . S
C29 H24 0.930 . S
C29 C30 1.397 . S
C29 C31 1.361 . S
C30 C29 1.397 . S
C30 C34 1.390 . S
C31 C29 1.361 . S
C31 C32 1.393 . S
C31 N35 1.413 . S
C32 H25 0.930 . S
C32 C31 1.393 . S
C32 C33 1.399 . S
C33 C32 1.399 . S
C33 C34 1.381 . S
C34 H26 0.930 . S
C34 C30 1.390 . S
C34 C33 1.381 . S
N35 C28 1.286 . S
N35 C31 1.413 . S
H36 C41 0.930 . S
H37 C44 0.930 . S
H38 C46 0.930 . S
H39 C40 1.016 . S
C40 H39 1.016 . S
C40 N47 1.286 . S
C41 H36 0.930 . S
C41 C42 1.397 . S
C41 C43 1.361 . S
C42 C41 1.397 . S
C42 C46 1.390 . S
C43 C41 1.361 . S
C43 C44 1.393 . S
C43 N47 1.413 . S
C44 H37 0.930 . S
C44 C43 1.393 . S
C44 C45 1.399 . S
C45 C44 1.399 . S
C45 C46 1.381 . S
C46 H38 0.930 . S
C46 C42 1.390 . S
C46 C45 1.381 . S
N47 C40 1.286 . S
N47 C43 1.413 . S
H48 C53 0.930 . S
H49 C56 0.930 . S
H50 C58 0.930 . S
H51 C52 1.016 . S
C52 H51 1.016 . S
C52 N59 1.286 . S
C53 H48 0.930 . S
C53 C54 1.397 . S
C53 C55 1.361 . S
C54 C53 1.397 . S
C54 C58 1.390 . S
C55 C53 1.361 . S
C55 C56 1.393 . S
C55 N59 1.413 . S
C56 H49 0.930 . S
C56 C55 1.393 . S
C56 C57 1.399 . S
C57 C56 1.399 . S
C57 C58 1.381 . S
C58 H50 0.930 . S
C58 C54 1.390 . S
C58 C57 1.381 . S
N59 C52 1.286 . S
N59 C55 1.413 . S
H60 C65 0.930 . S
H61 C68 0.930 . S
H62 C70 0.930 . S
H63 C64 1.016 . S
C64 H63 1.016 . S
C64 N71 1.286 . S
C65 H60 0.930 . S
C65 C66 1.397 . S
C65 C67 1.361 . S
C66 C65 1.397 . S
C66 C70 1.390 . S
C67 C65 1.361 . S
C67 C68 1.393 . S
C67 N71 1.413 . S
C68 H61 0.930 . S
C68 C67 1.393 . S
C68 C69 1.399 . S
C69 C68 1.399 . S
C69 C70 1.381 . S
C70 H62 0.930 . S
C70 C66 1.390 . S
C70 C69 1.381 . S
N71 C64 1.286 . S
N71 C67 1.413 . S
H72 C77 0.930 . S
H73 C80 0.930 . S
H74 C82 0.930 . S
H75 C76 1.016 . S
C76 H75 1.016 . S
C76 N83 1.286 . S
C77 H72 0.930 . S
C77 C78 1.397 . S
C77 C79 1.361 . S
C78 C77 1.397 . S
C78 C82 1.390 . S
C79 C77 1.361 . S
C79 C80 1.393 . S
C79 N83 1.413 . S
C80 H73 0.930 . S
C80 C79 1.393 . S
C80 C81 1.399 . S
C81 C80 1.399 . S
C81 C82 1.381 . S
C82 H74 0.930 . S
C82 C78 1.390 . S
C82 C81 1.381 . S
N83 C76 1.286 . S
N83 C79 1.413 . S
H84 C89 0.930 . S
H85 C92 0.930 . S
H86 C94 0.930 . S
H87 C88 1.016 . S
C88 H87 1.016 . S
C88 N95 1.286 . S
C89 H84 0.930 . S
C89 C90 1.397 . S
C89 C91 1.361 . S
C90 C89 1.397 . S
C90 C94 1.390 . S
C91 C89 1.361 . S
C91 C92 1.393 . S
C91 N95 1.413 . S
C92 H85 0.930 . S
C92 C91 1.393 . S
C92 C93 1.399 . S
C93 C92 1.399 . S
C93 C94 1.381 . S
C94 H86 0.930 . S
C94 C90 1.390 . S
C94 C93 1.381 . S
N95 C88 1.286 . S
N95 C91 1.413 . S
Tb96 N125 2.617 . S
Tb96 N131 2.572 . S
Tb96 O140 2.465 . S
Tb96 O141 2.387 . S
Tb96 O143 2.428 . S
Tb96 O144 2.315 . S
Tb96 O148 2.349 . S
Tb96 O151 2.393 . S
Tb96 C160 2.802 . S
C97 N98 1.379 . S
C97 C100 1.416 . S
C97 C104 1.424 . S
N98 C97 1.379 . S
N98 C101 1.334 . S
N98 Tb107 2.617 . S
C99 C101 1.390 . S
C99 C102 1.339 . S
C99 H119 0.930 . S
C100 C97 1.416 . S
C100 C102 1.416 . S
C100 C106 1.448 . S
C101 N98 1.334 . S
C101 C99 1.390 . S
C101 H112 0.930 . S
C102 C99 1.339 . S
C102 C100 1.416 . S
C102 H123 0.930 . S
C103 C104 1.413 . S
C103 C105 1.427 . S
C103 C109 1.416 . S
C104 C97 1.424 . S
C104 C103 1.413 . S
C104 N108 1.361 . S
C105 C103 1.427 . S
C105 C106 1.328 . S
C105 H120 0.929 . S
C106 C100 1.448 . S
C106 C105 1.328 . S
C106 H121 0.930 . S
Tb107 N98 2.617 . S
Tb107 N108 2.572 . S
Tb107 O142 2.349 1_655 S
Tb107 O145 2.393 . S
Tb107 O146 2.465 . S
Tb107 O147 2.387 . S
Tb107 O149 2.428 . S
Tb107 O150 2.308 1_655 S
Tb107 C171 2.802 . S
N108 C104 1.361 . S
N108 Tb107 2.572 . S
N108 C110 1.340 . S
C109 C103 1.416 . S
C109 C111 1.332 . S
C109 H117 0.931 . S
C110 N108 1.340 . S
C110 C111 1.407 . S
C110 H116 0.930 . S
C111 C109 1.332 . S
C111 C110 1.407 . S
C111 H113 0.929 . S
H112 C101 0.930 . S
H113 C111 0.929 . S
H114 C129 0.930 . S
H115 C136 0.929 . S
H116 C110 0.930 . S
H117 C109 0.931 . S
H118 C132 0.930 . S
H119 C99 0.930 . S
H120 C105 0.929 . S
H121 C106 0.930 . S
H122 C127 0.930 . S
H123 C102 0.930 . S
H124 C135 0.931 . S
N125 Tb96 2.617 . S
N125 C126 1.379 . S
N125 C129 1.334 . S
C126 N125 1.379 . S
C126 C128 1.416 . S
C126 C134 1.424 . S
C127 H122 0.930 . S
C127 C129 1.390 . S
C127 C130 1.339 . S
C128 C126 1.416 . S
C128 C130 1.416 . S
C128 C161 1.448 . S
C129 H114 0.930 . S
C129 N125 1.334 . S
C129 C127 1.390 . S
C130 C127 1.339 . S
C130 C128 1.416 . S
C130 H137 0.930 . S
N131 Tb96 2.572 . S
N131 C132 1.340 . S
N131 C134 1.361 . S
C132 H118 0.930 . S
C132 N131 1.340 . S
C132 C136 1.407 . S
C133 C134 1.413 . S
C133 C135 1.416 . S
C133 C162 1.427 . S
C134 C126 1.424 . S
C134 N131 1.361 . S
C134 C133 1.413 . S
C135 H124 0.931 . S
C135 C133 1.416 . S
C135 C136 1.332 . S
C136 H115 0.929 . S
C136 C132 1.407 . S
C136 C135 1.332 . S
H137 C130 0.930 . S
H138 C161 0.930 . S
H139 C162 0.929 . S
O140 Tb96 2.465 . S
O140 C160 1.264 . S
O141 Tb96 2.387 . S
O141 C152 1.264 . S
O142 Tb107 2.349 1_455 S
O142 C152 1.243 . S
O143 Tb96 2.428 . S
O143 C160 1.256 . S
O144 Tb96 2.315 . S
O144 C159 1.258 1_455 S
O145 Tb107 2.393 . S
O145 C159 1.248 . S
O146 Tb107 2.465 . S
O146 C171 1.264 . S
O147 Tb107 2.387 . S
O147 C163 1.264 . S
O148 Tb96 2.349 . S
O148 C163 1.243 1_455 S
O149 Tb107 2.428 . S
O149 C171 1.256 . S
O150 Tb107 2.308 1_455 S
O150 C170 1.266 . S
O151 Tb96 2.393 . S
O151 C170 1.248 . S
C152 O141 1.264 . S
C152 O142 1.243 . S
C153 C156 1.399 . S
C153 C158 1.383 . S
C153 C160 1.496 . S
C154 C155 1.399 . S
C154 C158 1.389 . S
C155 C154 1.399 . S
C155 C157 1.380 . S
C155 H172 0.929 . S
C156 C153 1.399 . S
C156 C157 1.392 . S
C156 H173 0.929 . S
C157 C155 1.380 . S
C157 C156 1.392 . S
C157 H174 0.929 . S
C158 C153 1.383 . S
C158 C154 1.389 . S
C158 H175 0.931 . S
C159 O144 1.258 1_655 S
C159 O145 1.248 . S
C160 Tb96 2.802 . S
C160 O140 1.264 . S
C160 O143 1.256 . S
C160 C153 1.496 . S
C161 C128 1.448 . S
C161 H138 0.930 . S
C161 C162 1.328 . S
C162 C133 1.427 . S
C162 H139 0.929 . S
C162 C161 1.328 . S
C163 O147 1.264 . S
C163 O148 1.243 1_655 S
C164 C167 1.399 . S
C164 C168 1.383 . S
C164 C171 1.496 . S
C165 C166 1.399 . S
C165 C168 1.389 . S
C166 C165 1.399 . S
C166 C169 1.380 . S
C166 H176 0.929 . S
C167 C164 1.399 . S
C167 C169 1.392 . S
C167 H177 0.929 . S
C168 C164 1.383 . S
C168 C165 1.389 . S
C168 H178 0.931 . S
C169 C166 1.380 . S
C169 C167 1.392 . S
C169 H179 0.929 . S
C170 O150 1.266 . S
C170 O151 1.248 . S
C171 Tb107 2.802 . S
C171 O146 1.264 . S
C171 O149 1.256 . S
C171 C164 1.496 . S
H172 C155 0.929 . S
H173 C156 0.929 . S
H174 C157 0.929 . S
H175 C158 0.931 . S
H176 C166 0.929 . S
H177 C167 0.929 . S
H178 C168 0.931 . S
H179 C169 0.929 . S
Tb180 N209 2.617 . S
Tb180 N215 2.572 . S
Tb180 O224 2.465 . S
Tb180 O225 2.387 . S
Tb180 O227 2.428 . S
Tb180 O228 2.308 . S
Tb180 O232 2.349 . S
Tb180 O235 2.393 . S
Tb180 C244 2.802 . S
C181 N182 1.379 . S
C181 C184 1.416 . S
C181 C188 1.424 . S
N182 C181 1.379 . S
N182 C185 1.334 . S
N182 Tb191 2.617 . S
C183 C185 1.390 . S
C183 C186 1.339 . S
C183 H203 0.930 . S
C184 C181 1.416 . S
C184 C186 1.416 . S
C184 C190 1.448 . S
C185 N182 1.334 . S
C185 C183 1.390 . S
C185 H196 0.930 . S
C186 C183 1.339 . S
C186 C184 1.416 . S
C186 H207 0.930 . S
C187 C188 1.413 . S
C187 C189 1.427 . S
C187 C193 1.416 . S
C188 C181 1.424 . S
C188 C187 1.413 . S
C188 N192 1.361 . S
C189 C187 1.427 . S
C189 C190 1.328 . S
C189 H204 0.929 . S
C190 C184 1.448 . S
C190 C189 1.328 . S
C190 H205 0.930 . S
Tb191 N182 2.617 . S
Tb191 N192 2.572 . S
Tb191 O226 2.349 . S
Tb191 O229 2.393 . S
Tb191 O230 2.465 . S
Tb191 O231 2.387 . S
Tb191 O233 2.428 . S
Tb191 O234 2.308 . S
Tb191 C255 2.802 . S
N192 C188 1.361 . S
N192 Tb191 2.572 . S
N192 C194 1.340 . S
C193 C187 1.416 . S
C193 C195 1.332 . S
C193 H201 0.931 . S
C194 N192 1.340 . S
C194 C195 1.407 . S
C194 H200 0.930 . S
C195 C193 1.332 . S
C195 C194 1.407 . S
C195 H197 0.929 . S
H196 C185 0.930 . S
H197 C195 0.929 . S
H198 C213 0.930 . S
H199 C220 0.929 . S
H200 C194 0.930 . S
H201 C193 0.931 . S
H202 C216 0.930 . S
H203 C183 0.930 . S
H204 C189 0.929 . S
H205 C190 0.930 . S
H206 C211 0.930 . S
H207 C186 0.930 . S
H208 C219 0.931 . S
N209 Tb180 2.617 . S
N209 C210 1.379 . S
N209 C213 1.334 . S
C210 N209 1.379 . S
C210 C212 1.416 . S
C210 C218 1.424 . S
C211 H206 0.930 . S
C211 C213 1.390 . S
C211 C214 1.339 . S
C212 C210 1.416 . S
C212 C214 1.416 . S
C212 C245 1.448 . S
C213 H198 0.930 . S
C213 N209 1.334 . S
C213 C211 1.390 . S
C214 C211 1.339 . S
C214 C212 1.416 . S
C214 H221 0.930 . S
N215 Tb180 2.572 . S
N215 C216 1.340 . S
N215 C218 1.361 . S
C216 H202 0.930 . S
C216 N215 1.340 . S
C216 C220 1.407 . S
C217 C218 1.413 . S
C217 C219 1.416 . S
C217 C246 1.427 . S
C218 C210 1.424 . S
C218 N215 1.361 . S
C218 C217 1.413 . S
C219 H208 0.931 . S
C219 C217 1.416 . S
C219 C220 1.332 . S
C220 H199 0.929 . S
C220 C216 1.407 . S
C220 C219 1.332 . S
H221 C214 0.930 . S
H222 C245 0.930 . S
H223 C246 0.929 . S
O224 Tb180 2.465 . S
O224 C244 1.264 . S
O225 Tb180 2.387 . S
O225 C236 1.264 . S
O226 Tb191 2.349 . S
O226 C236 1.243 . S
O227 Tb180 2.428 . S
O227 C244 1.256 . S
O228 Tb180 2.308 . S
O228 C243 1.266 . S
O229 Tb191 2.393 . S
O229 C243 1.248 . S
O230 Tb191 2.465 . S
O230 C255 1.264 . S
O231 Tb191 2.387 . S
O231 C247 1.264 . S
O232 Tb180 2.349 . S
O232 C247 1.243 . S
O233 Tb191 2.428 . S
O233 C255 1.256 . S
O234 Tb191 2.308 . S
O234 C254 1.266 . S
O235 Tb180 2.393 . S
O235 C254 1.248 . S
C236 O225 1.264 . S
C236 O226 1.243 . S
C237 C240 1.399 . S
C237 C242 1.383 . S
C237 C244 1.496 . S
C238 C239 1.399 . S
C238 C242 1.389 . S
C239 C238 1.399 . S
C239 C241 1.380 . S
C239 H256 0.929 . S
C240 C237 1.399 . S
C240 C241 1.392 . S
C240 H257 0.929 . S
C241 C239 1.380 . S
C241 C240 1.392 . S
C241 H258 0.929 . S
C242 C237 1.383 . S
C242 C238 1.389 . S
C242 H259 0.931 . S
C243 O228 1.266 . S
C243 O229 1.248 . S
C244 Tb180 2.802 . S
C244 O224 1.264 . S
C244 O227 1.256 . S
C244 C237 1.496 . S
C245 C212 1.448 . S
C245 H222 0.930 . S
C245 C246 1.328 . S
C246 C217 1.427 . S
C246 H223 0.929 . S
C246 C245 1.328 . S
C247 O231 1.264 . S
C247 O232 1.243 . S
C248 C251 1.399 . S
C248 C252 1.383 . S
C248 C255 1.496 . S
C249 C250 1.399 . S
C249 C252 1.389 . S
C250 C249 1.399 . S
C250 C253 1.380 . S
C250 H260 0.929 . S
C251 C248 1.399 . S
C251 C253 1.392 . S
C251 H261 0.929 . S
C252 C248 1.383 . S
C252 C249 1.389 . S
C252 H262 0.931 . S
C253 C250 1.380 . S
C253 C251 1.392 . S
C253 H263 0.929 . S
C254 O234 1.266 . S
C254 O235 1.248 . S
C255 Tb191 2.802 . S
C255 O230 1.264 . S
C255 O233 1.256 . S
C255 C248 1.496 . S
H256 C239 0.929 . S
H257 C240 0.929 . S
H258 C241 0.929 . S
H259 C242 0.931 . S
H260 C250 0.929 . S
H261 C251 0.929 . S
H262 C252 0.931 . S
H263 C253 0.929 . S
Tb264 N293 2.617 . S
Tb264 N299 2.572 . S
Tb264 O308 2.465 . S
Tb264 O309 2.387 . S
Tb264 O311 2.428 . S
Tb264 O312 2.308 . S
Tb264 O316 2.349 . S
Tb264 O319 2.393 . S
Tb264 C328 2.802 . S
C265 N266 1.379 . S
C265 C268 1.416 . S
C265 C272 1.424 . S
N266 C265 1.379 . S
N266 C269 1.334 . S
N266 Tb275 2.617 . S
C267 C269 1.390 . S
C267 C270 1.339 . S
C267 H287 0.930 . S
C268 C265 1.416 . S
C268 C270 1.416 . S
C268 C274 1.448 . S
C269 N266 1.334 . S
C269 C267 1.390 . S
C269 H280 0.930 . S
C270 C267 1.339 . S
C270 C268 1.416 . S
C270 H291 0.930 . S
C271 C272 1.413 . S
C271 C273 1.427 . S
C271 C277 1.416 . S
C272 C265 1.424 . S
C272 C271 1.413 . S
C272 N276 1.361 . S
C273 C271 1.427 . S
C273 C274 1.328 . S
C273 H288 0.929 . S
C274 C268 1.448 . S
C274 C273 1.328 . S
C274 H289 0.930 . S
Tb275 N266 2.617 . S
Tb275 N276 2.572 . S
Tb275 O310 2.349 1_655 S
Tb275 O313 2.393 . S
Tb275 O314 2.465 . S
Tb275 O315 2.387 . S
Tb275 O317 2.428 . S
Tb275 O318 2.308 1_655 S
Tb275 C339 2.802 . S
N276 C272 1.361 . S
N276 Tb275 2.572 . S
N276 C278 1.340 . S
C277 C271 1.416 . S
C277 C279 1.332 . S
C277 H285 0.931 . S
C278 N276 1.340 . S
C278 C279 1.407 . S
C278 H284 0.930 . S
C279 C277 1.332 . S
C279 C278 1.407 . S
C279 H281 0.929 . S
H280 C269 0.930 . S
H281 C279 0.929 . S
H282 C297 0.930 . S
H283 C304 0.929 . S
H284 C278 0.930 . S
H285 C277 0.931 . S
H286 C300 0.930 . S
H287 C267 0.930 . S
H288 C273 0.929 . S
H289 C274 0.930 . S
H290 C295 0.930 . S
H291 C270 0.930 . S
H292 C303 0.931 . S
N293 Tb264 2.617 . S
N293 C294 1.379 . S
N293 C297 1.334 . S
C294 N293 1.379 . S
C294 C296 1.416 . S
C294 C302 1.424 . S
C295 H290 0.930 . S
C295 C297 1.390 . S
C295 C298 1.339 . S
C296 C294 1.416 . S
C296 C298 1.416 . S
C296 C329 1.448 . S
C297 H282 0.930 . S
C297 N293 1.334 . S
C297 C295 1.390 . S
C298 C295 1.339 . S
C298 C296 1.416 . S
C298 H305 0.930 . S
N299 Tb264 2.572 . S
N299 C300 1.340 . S
N299 C302 1.361 . S
C300 H286 0.930 . S
C300 N299 1.340 . S
C300 C304 1.407 . S
C301 C302 1.413 . S
C301 C303 1.416 . S
C301 C330 1.427 . S
C302 C294 1.424 . S
C302 N299 1.361 . S
C302 C301 1.413 . S
C303 H292 0.931 . S
C303 C301 1.416 . S
C303 C304 1.332 . S
C304 H283 0.929 . S
C304 C300 1.407 . S
C304 C303 1.332 . S
H305 C298 0.930 . S
H306 C329 0.930 . S
H307 C330 0.929 . S
O308 Tb264 2.465 . S
O308 C328 1.264 . S
O309 Tb264 2.387 . S
O309 C320 1.264 . S
O310 Tb275 2.349 1_455 S
O310 C320 1.243 . S
O311 Tb264 2.428 . S
O311 C328 1.256 . S
O312 Tb264 2.308 . S
O312 C327 1.266 1_455 S
O313 Tb275 2.393 . S
O313 C327 1.248 . S
O314 Tb275 2.465 . S
O314 C339 1.264 . S
O315 Tb275 2.387 . S
O315 C331 1.264 . S
O316 Tb264 2.349 . S
O316 C331 1.243 1_455 S
O317 Tb275 2.428 . S
O317 C339 1.256 . S
O318 Tb275 2.308 1_455 S
O318 C338 1.266 . S
O319 Tb264 2.393 . S
O319 C338 1.248 . S
C320 O309 1.264 . S
C320 O310 1.243 . S
C321 C324 1.399 . S
C321 C326 1.383 . S
C321 C328 1.496 . S
C322 C323 1.399 . S
C322 C326 1.389 . S
C323 C322 1.399 . S
C323 C325 1.380 . S
C323 H340 0.929 . S
C324 C321 1.399 . S
C324 C325 1.392 . S
C324 H341 0.929 . S
C325 C323 1.380 . S
C325 C324 1.392 . S
C325 H342 0.929 . S
C326 C321 1.383 . S
C326 C322 1.389 . S
C326 H343 0.931 . S
C327 O312 1.266 1_655 S
C327 O313 1.248 . S
C328 Tb264 2.802 . S
C328 O308 1.264 . S
C328 O311 1.256 . S
C328 C321 1.496 . S
C329 C296 1.448 . S
C329 H306 0.930 . S
C329 C330 1.328 . S
C330 C301 1.427 . S
C330 H307 0.929 . S
C330 C329 1.328 . S
C331 O315 1.264 . S
C331 O316 1.243 1_655 S
C332 C335 1.399 . S
C332 C336 1.383 . S
C332 C339 1.496 . S
C333 C334 1.399 . S
C333 C336 1.389 . S
C334 C333 1.399 . S
C334 C337 1.380 . S
C334 H344 0.929 . S
C335 C332 1.399 . S
C335 C337 1.392 . S
C335 H345 0.929 . S
C336 C332 1.383 . S
C336 C333 1.389 . S
C336 H346 0.931 . S
C337 C334 1.380 . S
C337 C335 1.392 . S
C337 H347 0.929 . S
C338 O318 1.266 . S
C338 O319 1.248 . S
C339 Tb275 2.802 . S
C339 O314 1.264 . S
C339 O317 1.256 . S
C339 C332 1.496 . S
H340 C323 0.929 . S
H341 C324 0.929 . S
H342 C325 0.929 . S
H343 C326 0.931 . S
H344 C334 0.929 . S
H345 C335 0.929 . S
H346 C336 0.931 . S
H347 C337 0.929 . S
Tb348 N377 2.617 . S
Tb348 N383 2.572 . S
Tb348 O392 2.465 . S
Tb348 O393 2.387 . S
Tb348 O395 2.428 . S
Tb348 O396 2.308 . S
Tb348 O400 2.349 . S
Tb348 O403 2.393 . S
Tb348 C412 2.802 . S
C349 N350 1.379 . S
C349 C352 1.416 . S
C349 C356 1.424 . S
N350 C349 1.379 . S
N350 C353 1.334 . S
N350 Tb359 2.617 . S
C351 C353 1.390 . S
C351 C354 1.339 . S
C351 H371 0.930 . S
C352 C349 1.416 . S
C352 C354 1.416 . S
C352 C358 1.448 . S
C353 N350 1.334 . S
C353 C351 1.390 . S
C353 H364 0.930 . S
C354 C351 1.339 . S
C354 C352 1.416 . S
C354 H375 0.930 . S
C355 C356 1.413 . S
C355 C357 1.427 . S
C355 C361 1.416 . S
C356 C349 1.424 . S
C356 C355 1.413 . S
C356 N360 1.361 . S
C357 C355 1.427 . S
C357 C358 1.328 . S
C357 H372 0.929 . S
C358 C352 1.448 . S
C358 C357 1.328 . S
C358 H373 0.930 . S
Tb359 N350 2.617 . S
Tb359 N360 2.572 . S
Tb359 O394 2.349 . S
Tb359 O397 2.393 . S
Tb359 O398 2.465 . S
Tb359 O399 2.387 . S
Tb359 O401 2.428 . S
Tb359 O402 2.308 . S
Tb359 C423 2.802 . S
N360 C356 1.361 . S
N360 Tb359 2.572 . S
N360 C362 1.340 . S
C361 C355 1.416 . S
C361 C363 1.332 . S
C361 H369 0.931 . S
C362 N360 1.340 . S
C362 C363 1.407 . S
C362 H368 0.930 . S
C363 C361 1.332 . S
C363 C362 1.407 . S
C363 H365 0.929 . S
H364 C353 0.930 . S
H365 C363 0.929 . S
H366 C381 0.930 . S
H367 C388 0.929 . S
H368 C362 0.930 . S
H369 C361 0.931 . S
H370 C384 0.930 . S
H371 C351 0.930 . S
H372 C357 0.929 . S
H373 C358 0.930 . S
H374 C379 0.930 . S
H375 C354 0.930 . S
H376 C387 0.931 . S
N377 Tb348 2.617 . S
N377 C378 1.379 . S
N377 C381 1.334 . S
C378 N377 1.379 . S
C378 C380 1.416 . S
C378 C386 1.424 . S
C379 H374 0.930 . S
C379 C381 1.390 . S
C379 C382 1.339 . S
C380 C378 1.416 . S
C380 C382 1.416 . S
C380 C413 1.448 . S
C381 H366 0.930 . S
C381 N377 1.334 . S
C381 C379 1.390 . S
C382 C379 1.339 . S
C382 C380 1.416 . S
C382 H389 0.930 . S
N383 Tb348 2.572 . S
N383 C384 1.340 . S
N383 C386 1.361 . S
C384 H370 0.930 . S
C384 N383 1.340 . S
C384 C388 1.407 . S
C385 C386 1.413 . S
C385 C387 1.416 . S
C385 C414 1.427 . S
C386 C378 1.424 . S
C386 N383 1.361 . S
C386 C385 1.413 . S
C387 H376 0.931 . S
C387 C385 1.416 . S
C387 C388 1.332 . S
C388 H367 0.929 . S
C388 C384 1.407 . S
C388 C387 1.332 . S
H389 C382 0.930 . S
H390 C413 0.930 . S
H391 C414 0.929 . S
O392 Tb348 2.465 . S
O392 C412 1.264 . S
O393 Tb348 2.387 . S
O393 C404 1.264 . S
O394 Tb359 2.349 . S
O394 C404 1.243 . S
O395 Tb348 2.428 . S
O395 C412 1.256 . S
O396 Tb348 2.308 . S
O396 C411 1.266 . S
O397 Tb359 2.393 . S
O397 C411 1.248 . S
O398 Tb359 2.465 . S
O398 C423 1.264 . S
O399 Tb359 2.387 . S
O399 C415 1.264 . S
O400 Tb348 2.349 . S
O400 C415 1.243 . S
O401 Tb359 2.428 . S
O401 C423 1.256 . S
O402 Tb359 2.308 . S
O402 C422 1.266 . S
O403 Tb348 2.393 . S
O403 C422 1.248 . S
C404 O393 1.264 . S
C404 O394 1.243 . S
C405 C408 1.399 . S
C405 C410 1.383 . S
C405 C412 1.496 . S
C406 C407 1.399 . S
C406 C410 1.389 . S
C407 C406 1.399 . S
C407 C409 1.380 . S
C407 H424 0.929 . S
C408 C405 1.399 . S
C408 C409 1.392 . S
C408 H425 0.929 . S
C409 C407 1.380 . S
C409 C408 1.392 . S
C409 H426 0.929 . S
C410 C405 1.383 . S
C410 C406 1.389 . S
C410 H427 0.931 . S
C411 O396 1.266 . S
C411 O397 1.248 . S
C412 Tb348 2.802 . S
C412 O392 1.264 . S
C412 O395 1.256 . S
C412 C405 1.496 . S
C413 C380 1.448 . S
C413 H390 0.930 . S
C413 C414 1.328 . S
C414 C385 1.427 . S
C414 H391 0.929 . S
C414 C413 1.328 . S
C415 O399 1.264 . S
C415 O400 1.243 . S
C416 C419 1.399 . S
C416 C420 1.383 . S
C416 C423 1.496 . S
C417 C418 1.399 . S
C417 C420 1.389 . S
C418 C417 1.399 . S
C418 C421 1.380 . S
C418 H428 0.929 . S
C419 C416 1.399 . S
C419 C421 1.392 . S
C419 H429 0.929 . S
C420 C416 1.383 . S
C420 C417 1.389 . S
C420 H430 0.931 . S
C421 C418 1.380 . S
C421 C419 1.392 . S
C421 H431 0.929 . S
C422 O402 1.266 . S
C422 O403 1.248 . S
C423 Tb359 2.802 . S
C423 O398 1.264 . S
C423 O401 1.256 . S
C423 C416 1.496 . S
H424 C407 0.929 . S
H425 C408 0.929 . S
H426 C409 0.929 . S
H427 C410 0.931 . S
H428 C418 0.929 . S
H429 C419 0.929 . S
H430 C420 0.931 . S
H431 C421 0.929 . S
H432 C440 0.929 . S
H433 C442 0.930 . S
H434 C444 0.930 . S
H435 C447 0.929 . S
H436 C450 0.930 . S
H437 C452 0.960 . S
H438 C452 0.960 . S
H439 C452 0.960 . S
C440 H432 0.929 . S
C440 C441 1.377 . S
C440 C442 1.384 . S
C441 C440 1.377 . S
C441 C447 1.390 . S
C442 H433 0.930 . S
C442 C440 1.384 . S
C442 C443 1.372 . S
C443 C442 1.372 . S
C443 C444 1.400 . S
C443 C448 1.490 . S
C444 H434 0.930 . S
C444 C443 1.400 . S
C444 C447 1.386 . S
H445 C461 0.930 . S
H446 C462 0.892 1_565 S
C447 H435 0.929 . S
C447 C441 1.390 . S
C447 C444 1.386 . S
C448 C443 1.490 . S
C448 C450 1.395 . S
C448 C451 1.403 . S
H449 C455 0.930 . S
C450 H436 0.930 . S
C450 C448 1.395 . S
C450 C453 1.403 1_565 S
C451 C448 1.403 . S
C451 C452 1.524 . S
C451 C455 1.400 . S
C452 H437 0.960 . S
C452 H438 0.960 . S
C452 H439 0.960 . S
C452 C451 1.524 . S
C453 C450 1.403 1_545 S
C453 C454 1.392 1_545 S
C453 C457 1.495 . S
C454 C453 1.392 1_565 S
C454 C455 1.385 . S
C454 C456 1.478 1_565 S
C455 H449 0.930 . S
C455 C451 1.400 . S
C455 C454 1.385 . S
C456 C454 1.478 1_545 S
C456 C458 1.381 . S
C456 C462 1.383 . S
C457 C453 1.495 . S
C457 H463 0.959 . S
C457 H464 0.961 . S
C457 H465 0.960 . S
C458 C456 1.381 . S
C458 C459 1.394 . S
C458 H466 0.930 . S
C459 C458 1.394 . S
C459 C460 1.383 . S
C459 H467 0.929 . S
C460 C459 1.383 . S
C460 C461 1.377 . S
C461 H445 0.930 . S
C461 C460 1.377 . S
C461 C462 1.379 . S
C462 H446 0.892 1_545 S
C462 C456 1.383 . S
C462 C461 1.379 . S
H463 C457 0.959 . S
H464 C457 0.961 . S
H465 C457 0.960 . S
H466 C458 0.930 . S
H467 C459 0.929 . S
H468 C476 0.929 . S
H469 C478 0.930 . S
H470 C480 0.930 . S
H471 C483 0.929 . S
H472 C486 0.930 . S
H473 C488 0.960 . S
H474 C488 0.960 . S
H475 C488 0.960 . S
C476 H468 0.929 . S
C476 C477 1.377 . S
C476 C478 1.384 . S
C477 C476 1.377 . S
C477 C483 1.390 . S
C478 H469 0.930 . S
C478 C476 1.384 . S
C478 C479 1.372 . S
C479 C478 1.372 . S
C479 C480 1.400 . S
C479 C484 1.490 . S
C480 H470 0.930 . S
C480 C479 1.400 . S
C480 C483 1.386 . S
H481 C497 0.930 . S
H482 C498 0.931 . S
C483 H471 0.929 . S
C483 C477 1.390 . S
C483 C480 1.386 . S
C484 C479 1.490 . S
C484 C486 1.395 . S
C484 C487 1.403 . S
H485 C491 0.930 . S
C486 H472 0.930 . S
C486 C484 1.395 . S
C486 C489 1.403 . S
C487 C484 1.403 . S
C487 C488 1.524 . S
C487 C491 1.400 . S
C488 H473 0.960 . S
C488 H474 0.960 . S
C488 H475 0.960 . S
C488 C487 1.524 . S
C489 C486 1.403 . S
C489 C490 1.392 . S
C489 C493 1.495 . S
C490 C489 1.392 . S
C490 C491 1.385 . S
C490 C492 1.478 . S
C491 H485 0.930 . S
C491 C487 1.400 . S
C491 C490 1.385 . S
C492 C490 1.478 . S
C492 C494 1.381 . S
C492 C498 1.383 . S
C493 C489 1.495 . S
C493 H499 0.959 . S
C493 H500 0.961 . S
C493 H501 0.960 . S
C494 C492 1.381 . S
C494 C495 1.394 . S
C494 H502 0.930 . S
C495 C494 1.394 . S
C495 C496 1.383 . S
C495 H503 0.929 . S
C496 C495 1.383 . S
C496 C497 1.377 . S
C497 H481 0.930 . S
C497 C496 1.377 . S
C497 C498 1.379 . S
C498 H482 0.931 . S
C498 C492 1.383 . S
C498 C497 1.379 . S
H499 C493 0.959 . S
H500 C493 0.961 . S
H501 C493 0.960 . S
H502 C494 0.930 . S
H503 C495 0.929 . S
H504 C512 0.929 . S
H505 C514 0.930 . S
H506 C516 0.930 . S
H507 C519 0.929 . S
H508 C522 0.930 . S
H509 C524 0.960 . S
H510 C524 0.960 . S
H511 C524 0.960 . S
C512 H504 0.929 . S
C512 C513 1.377 . S
C512 C514 1.384 . S
C513 C512 1.377 . S
C513 C519 1.390 . S
C514 H505 0.930 . S
C514 C512 1.384 . S
C514 C515 1.372 . S
C515 C514 1.372 . S
C515 C516 1.400 . S
C515 C520 1.490 . S
C516 H506 0.930 . S
C516 C515 1.400 . S
C516 C519 1.386 . S
H517 C533 0.930 . S
H518 C534 0.931 . S
C519 H507 0.929 . S
C519 C513 1.390 . S
C519 C516 1.386 . S
C520 C515 1.490 . S
C520 C522 1.395 . S
C520 C523 1.403 . S
H521 C527 0.930 . S
C522 H508 0.930 . S
C522 C520 1.395 . S
C522 C525 1.403 . S
C523 C520 1.403 . S
C523 C524 1.524 . S
C523 C527 1.400 . S
C524 H509 0.960 . S
C524 H510 0.960 . S
C524 H511 0.960 . S
C524 C523 1.524 . S
C525 C522 1.403 . S
C525 C526 1.392 . S
C525 C529 1.495 . S
C526 C525 1.392 . S
C526 C527 1.385 . S
C526 C528 1.478 . S
C527 H521 0.930 . S
C527 C523 1.400 . S
C527 C526 1.385 . S
C528 C526 1.478 . S
C528 C530 1.381 . S
C528 C534 1.383 . S
C529 C525 1.495 . S
C529 H535 0.959 . S
C529 H536 0.961 . S
C529 H537 0.960 . S
C530 C528 1.381 . S
C530 C531 1.394 . S
C530 H538 0.930 . S
C531 C530 1.394 . S
C531 C532 1.383 . S
C531 H539 0.929 . S
C532 C531 1.383 . S
C532 C533 1.377 . S
C533 H517 0.930 . S
C533 C532 1.377 . S
C533 C534 1.379 . S
C534 H518 0.931 . S
C534 C528 1.383 . S
C534 C533 1.379 . S
H535 C529 0.959 . S
H536 C529 0.961 . S
H537 C529 0.960 . S
H538 C530 0.930 . S
H539 C531 0.929 . S
H540 C548 0.929 . S
H541 C550 0.930 . S
H542 C552 0.930 . S
H543 C555 0.929 . S
H544 C558 0.930 . S
H545 C560 0.960 1_545 S
H546 C560 0.960 . S
H547 C560 0.960 . S
C548 H540 0.929 . S
C548 C549 1.377 . S
C548 C550 1.384 . S
C549 C548 1.377 . S
C549 C555 1.390 . S
C550 H541 0.930 . S
C550 C548 1.384 . S
C550 C551 1.372 . S
C551 C550 1.372 . S
C551 C552 1.400 . S
C551 C556 1.490 . S
C552 H542 0.930 . S
C552 C551 1.400 . S
C552 C555 1.386 . S
H553 C569 0.930 . S
H554 C570 0.931 . S
C555 H543 0.929 . S
C555 C549 1.390 . S
C555 C552 1.386 . S
C556 C551 1.490 . S
C556 C558 1.395 . S
C556 C559 1.403 . S
H557 C563 0.930 1_545 S
C558 H544 0.930 . S
C558 C556 1.395 . S
C558 C561 1.403 . S
C559 C556 1.403 . S
C559 C560 1.524 . S
C559 C563 1.400 . S
C560 H545 0.960 1_565 S
C560 H546 0.960 . S
C560 H547 0.960 . S
C560 C559 1.524 . S
C561 C558 1.403 . S
C561 C562 1.392 . S
C561 C565 1.495 . S
C562 C561 1.392 . S
C562 C563 1.385 . S
C562 C564 1.478 1_565 S
C563 H557 0.930 1_565 S
C563 C559 1.400 . S
C563 C562 1.385 . S
C564 C562 1.478 1_545 S
C564 C566 1.381 . S
C564 C570 1.383 . S
C565 C561 1.495 . S
C565 H571 0.959 . S
C565 H572 0.961 . S
C565 H573 0.960 . S
C566 C564 1.381 . S
C566 C567 1.394 . S
C566 H574 0.930 1_545 S
C567 C566 1.394 . S
C567 C568 1.383 . S
C567 H575 0.929 . S
C568 C567 1.383 . S
C568 C569 1.377 . S
C569 H553 0.930 . S
C569 C568 1.377 . S
C569 C570 1.379 . S
C570 H554 0.931 . S
C570 C564 1.383 . S
C570 C569 1.379 . S
H571 C565 0.959 . S
H572 C565 0.961 . S
H573 C565 0.960 . S
H574 C566 0.930 1_565 S
H575 C567 0.929 . S
H576 C584 0.929 . S
H577 C586 0.930 . S
H578 C588 0.930 . S
H579 C591 0.929 . S
H580 C594 0.930 . S
H581 C596 0.960 . S
H582 C596 0.960 . S
H583 C596 0.960 . S
C584 H576 0.929 . S
C584 C585 1.377 . S
C584 C586 1.384 . S
C585 C584 1.377 . S
C585 C591 1.390 . S
C586 H577 0.930 . S
C586 C584 1.384 . S
C586 C587 1.372 . S
C587 C586 1.372 . S
C587 C588 1.400 . S
C587 C592 1.490 . S
C588 H578 0.930 . S
C588 C587 1.400 . S
C588 C591 1.386 . S
H589 C605 0.930 . S
H590 C606 0.931 . S
C591 H579 0.929 . S
C591 C585 1.390 . S
C591 C588 1.386 . S
C592 C587 1.490 . S
C592 C594 1.395 . S
C592 C595 1.403 . S
H593 C599 0.930 . S
C594 H580 0.930 . S
C594 C592 1.395 . S
C594 C597 1.403 1_545 S
C595 C592 1.403 . S
C595 C596 1.524 . S
C595 C599 1.400 . S
C596 H581 0.960 . S
C596 H582 0.960 . S
C596 H583 0.960 . S
C596 C595 1.524 . S
C597 C594 1.403 1_565 S
C597 C598 1.392 1_565 S
C597 C601 1.495 . S
C598 C597 1.392 1_545 S
C598 C599 1.385 . S
C598 C600 1.478 1_545 S
C599 H593 0.930 . S
C599 C595 1.400 . S
C599 C598 1.385 . S
C600 C598 1.478 1_565 S
C600 C602 1.381 . S
C600 C606 1.383 . S
C601 C597 1.495 . S
C601 H607 0.959 . S
C601 H608 0.961 . S
C601 H609 0.960 . S
C602 C600 1.381 . S
C602 C603 1.394 . S
C602 H610 0.930 . S
C603 C602 1.394 . S
C603 C604 1.383 . S
C603 H611 0.929 . S
C604 C603 1.383 . S
C604 C605 1.377 . S
C605 H589 0.930 . S
C605 C604 1.377 . S
C605 C606 1.379 . S
C606 H590 0.931 . S
C606 C600 1.383 . S
C606 C605 1.379 . S
H607 C601 0.959 . S
H608 C601 0.961 . S
H609 C601 0.960 . S
H610 C602 0.930 . S
H611 C603 0.929 . S
H612 C620 0.929 . S
H613 C622 0.930 . S
H614 C624 0.930 . S
H615 C627 0.929 . S
H616 C630 0.930 . S
H617 C632 0.960 . S
H618 C632 0.960 . S
H619 C632 0.960 . S
C620 H612 0.929 . S
C620 C621 1.377 . S
C620 C622 1.384 . S
C621 C620 1.377 . S
C621 C627 1.390 . S
C622 H613 0.930 . S
C622 C620 1.384 . S
C622 C623 1.372 . S
C623 C622 1.372 . S
C623 C624 1.400 . S
C623 C628 1.490 . S
C624 H614 0.930 . S
C624 C623 1.400 . S
C624 C627 1.386 . S
H625 C641 0.930 . S
H626 C642 0.931 . S
C627 H615 0.929 . S
C627 C621 1.390 . S
C627 C624 1.386 . S
C628 C623 1.490 . S
C628 C630 1.395 . S
C628 C631 1.403 . S
H629 C635 0.930 . S
C630 H616 0.930 . S
C630 C628 1.395 . S
C630 C633 1.403 . S
C631 C628 1.403 . S
C631 C632 1.524 . S
C631 C635 1.400 . S
C632 H617 0.960 . S
C632 H618 0.960 . S
C632 H619 0.960 . S
C632 C631 1.524 . S
C633 C630 1.403 . S
C633 C634 1.392 . S
C633 C637 1.495 . S
C634 C633 1.392 . S
C634 C635 1.385 . S
C634 C636 1.478 . S
C635 H629 0.930 . S
C635 C631 1.400 . S
C635 C634 1.385 . S
C636 C634 1.478 . S
C636 C638 1.381 . S
C636 C642 1.383 . S
C637 C633 1.495 . S
C637 H643 0.959 . S
C637 H644 0.961 . S
C637 H645 0.960 . S
C638 C636 1.381 . S
C638 C639 1.394 . S
C638 H646 0.930 . S
C639 C638 1.394 . S
C639 C640 1.383 . S
C639 H647 0.929 . S
C640 C639 1.383 . S
C640 C641 1.377 . S
C641 H625 0.930 . S
C641 C640 1.377 . S
C641 C642 1.379 . S
C642 H626 0.931 . S
C642 C636 1.383 . S
C642 C641 1.379 . S
H643 C637 0.959 . S
H644 C637 0.961 . S
H645 C637 0.960 . S
H646 C638 0.930 . S
H647 C639 0.929 . S
H648 C656 0.929 . S
H649 C658 0.930 . S
H650 C660 0.930 . S
H651 C663 0.929 . S
H652 C666 0.930 . S
H653 C668 0.960 . S
H654 C668 0.960 . S
H655 C668 0.960 . S
C656 H648 0.929 . S
C656 C657 1.377 . S
C656 C658 1.384 . S
C657 C656 1.377 . S
C657 C663 1.390 . S
C658 H649 0.930 . S
C658 C656 1.384 . S
C658 C659 1.372 . S
C659 C658 1.372 . S
C659 C660 1.400 . S
C659 C664 1.490 . S
C660 H650 0.930 . S
C660 C659 1.400 . S
C660 C663 1.386 . S
H661 C677 0.930 . S
H662 C678 0.931 . S
C663 H651 0.929 . S
C663 C657 1.390 . S
C663 C660 1.386 . S
C664 C659 1.490 . S
C664 C666 1.395 . S
C664 C667 1.403 . S
H665 C671 0.930 . S
C666 H652 0.930 . S
C666 C664 1.395 . S
C666 C669 1.403 . S
C667 C664 1.403 . S
C667 C668 1.524 . S
C667 C671 1.400 . S
C668 H653 0.960 . S
C668 H654 0.960 . S
C668 H655 0.960 . S
C668 C667 1.524 . S
C669 C666 1.403 . S
C669 C670 1.392 . S
C669 C673 1.495 . S
C670 C669 1.392 . S
C670 C671 1.385 . S
C670 C672 1.478 . S
C671 H665 0.930 . S
C671 C667 1.400 . S
C671 C670 1.385 . S
C672 C670 1.478 . S
C672 C674 1.381 . S
C672 C678 1.383 . S
C673 C669 1.495 . S
C673 H679 0.959 . S
C673 H680 0.961 . S
C673 H681 0.960 . S
C674 C672 1.381 . S
C674 C675 1.394 . S
C674 H682 0.930 . S
C675 C674 1.394 . S
C675 C676 1.383 . S
C675 H683 0.929 . S
C676 C675 1.383 . S
C676 C677 1.377 . S
C677 H661 0.930 . S
C677 C676 1.377 . S
C677 C678 1.379 . S
C678 H662 0.931 . S
C678 C672 1.383 . S
C678 C677 1.379 . S
H679 C673 0.959 . S
H680 C673 0.961 . S
H681 C673 0.960 . S
H682 C674 0.930 . S
H683 C675 0.929 . S
H684 C692 0.929 . S
H685 C694 0.930 . S
H686 C696 0.930 . S
H687 C699 0.929 . S
H688 C702 0.930 . S
H689 C704 0.960 . S
H690 C704 0.960 . S
H691 C704 0.960 . S
C692 H684 0.929 . S
C692 C693 1.377 . S
C692 C694 1.384 . S
C693 C692 1.377 . S
C693 C699 1.390 . S
C694 H685 0.930 . S
C694 C692 1.384 . S
C694 C695 1.372 . S
C695 C694 1.372 . S
C695 C696 1.400 . S
C695 C700 1.490 . S
C696 H686 0.930 . S
C696 C695 1.400 . S
C696 C699 1.386 . S
H697 C713 0.930 . S
H698 C714 0.931 . S
C699 H687 0.929 . S
C699 C693 1.390 . S
C699 C696 1.386 . S
C700 C695 1.490 . S
C700 C702 1.395 . S
C700 C703 1.403 . S
H701 C707 0.930 . S
C702 H688 0.930 . S
C702 C700 1.395 . S
C702 C705 1.403 . S
C703 C700 1.403 . S
C703 C704 1.524 . S
C703 C707 1.400 . S
C704 H689 0.960 . S
C704 H690 0.960 . S
C704 H691 0.960 . S
C704 C703 1.524 . S
C705 C702 1.403 . S
C705 C706 1.392 . S
C705 C709 1.495 1_545 S
C706 C705 1.392 . S
C706 C707 1.385 . S
C706 C708 1.478 1_545 S
C707 H701 0.930 . S
C707 C703 1.400 . S
C707 C706 1.385 . S
C708 C706 1.478 1_565 S
C708 C710 1.381 . S
C708 C714 1.383 . S
C709 C705 1.495 1_565 S
C709 H715 0.959 1_565 S
C709 H716 0.961 . S
C709 H717 0.956 1_565 S
C710 C708 1.381 . S
C710 C711 1.394 . S
C710 H718 0.930 1_565 S
C711 C710 1.394 . S
C711 C712 1.383 . S
C711 H719 0.929 . S
C712 C711 1.383 . S
C712 C713 1.377 . S
C713 H697 0.930 . S
C713 C712 1.377 . S
C713 C714 1.379 . S
C714 H698 0.931 . S
C714 C708 1.383 . S
C714 C713 1.379 . S
H715 C709 0.959 1_545 S
H716 C709 0.961 . S
H717 C709 0.956 1_545 S
H718 C710 0.930 1_545 S
H719 C711 0.929 . S
H720 C728 0.929 . S
H721 C730 0.930 . S
H722 C732 0.930 . S
H723 C735 0.929 . S
H724 C738 0.930 . S
H725 C740 0.960 . S
H726 C740 0.960 1_556 S
H727 C740 0.960 . S
C728 H720 0.929 . S
C728 C729 1.377 . S
C728 C730 1.384 . S
C729 C728 1.377 . S
C729 C735 1.390 . S
C730 H721 0.930 . S
C730 C728 1.384 . S
C730 C731 1.372 . S
C731 C730 1.372 . S
C731 C732 1.400 . S
C731 C736 1.490 1_556 S
C732 H722 0.930 . S
C732 C731 1.400 . S
C732 C735 1.386 . S
H733 C749 0.930 . S
H734 C750 0.931 . S
C735 H723 0.929 . S
C735 C729 1.390 . S
C735 C732 1.386 . S
C736 C731 1.490 1_554 S
C736 C738 1.395 . S
C736 C739 1.403 . S
H737 C743 0.930 . S
C738 H724 0.930 . S
C738 C736 1.395 . S
C738 C741 1.403 . S
C739 C736 1.403 . S
C739 C740 1.524 . S
C739 C743 1.400 . S
C740 H725 0.960 . S
C740 H726 0.960 1_554 S
C740 H727 0.960 . S
C740 C739 1.524 . S
C741 C738 1.403 . S
C741 C742 1.392 . S
C741 C745 1.495 . S
C742 C741 1.392 . S
C742 C743 1.385 . S
C742 C744 1.478 . S
C743 H737 0.930 . S
C743 C739 1.400 . S
C743 C742 1.385 . S
C744 C742 1.478 . S
C744 C746 1.381 . S
C744 C750 1.383 . S
C745 C741 1.495 . S
C745 H751 0.959 . S
C745 H752 0.961 . S
C745 H753 0.960 . S
C746 C744 1.381 . S
C746 C747 1.394 . S
C746 H754 0.930 . S
C747 C746 1.394 . S
C747 C748 1.383 . S
C747 H755 0.929 . S
C748 C747 1.383 . S
C748 C749 1.377 . S
C749 H733 0.930 . S
C749 C748 1.377 . S
C749 C750 1.379 . S
C750 H734 0.931 . S
C750 C744 1.383 . S
C750 C749 1.379 . S
H751 C745 0.959 . S
H752 C745 0.961 . S
H753 C745 0.960 . S
H754 C746 0.930 . S
H755 C747 0.929 . S
H756 C764 0.929 . S
H757 C766 0.930 . S
H758 C768 0.930 . S
H759 C771 0.929 . S
H760 C774 0.930 . S
H761 C776 0.960 . S
H762 C776 0.960 . S
H763 C776 0.960 . S
C764 H756 0.929 . S
C764 C765 1.377 . S
C764 C766 1.384 . S
C765 C764 1.377 . S
C765 C771 1.390 . S
C766 H757 0.930 . S
C766 C764 1.384 . S
C766 C767 1.372 . S
C767 C766 1.372 . S
C767 C768 1.400 . S
C767 C772 1.490 . S
C768 H758 0.930 . S
C768 C767 1.400 . S
C768 C771 1.386 . S
H769 C785 0.930 . S
H770 C786 0.931 . S
C771 H759 0.929 . S
C771 C765 1.390 . S
C771 C768 1.386 . S
C772 C767 1.490 . S
C772 C774 1.395 . S
C772 C775 1.403 . S
H773 C779 0.930 . S
C774 H760 0.930 . S
C774 C772 1.395 . S
C774 C777 1.403 . S
C775 C772 1.403 . S
C775 C776 1.524 . S
C775 C779 1.400 . S
C776 H761 0.960 . S
C776 H762 0.960 . S
C776 H763 0.960 . S
C776 C775 1.524 . S
C777 C774 1.403 . S
C777 C778 1.392 . S
C777 C781 1.495 . S
C778 C777 1.392 . S
C778 C779 1.385 . S
C778 C780 1.478 . S
C779 H773 0.930 . S
C779 C775 1.400 . S
C779 C778 1.385 . S
C780 C778 1.478 . S
C780 C782 1.381 . S
C780 C786 1.383 . S
C781 C777 1.495 . S
C781 H787 0.959 . S
C781 H788 0.961 . S
C781 H789 0.960 . S
C782 C780 1.381 . S
C782 C783 1.394 . S
C782 H790 0.930 . S
C783 C782 1.394 . S
C783 C784 1.383 . S
C783 H791 0.929 . S
C784 C783 1.383 . S
C784 C785 1.377 . S
C785 H769 0.930 . S
C785 C784 1.377 . S
C785 C786 1.379 . S
C786 H770 0.931 . S
C786 C780 1.383 . S
C786 C785 1.379 . S
H787 C781 0.959 . S
H788 C781 0.961 . S
H789 C781 0.960 . S
H790 C782 0.930 . S
H791 C783 0.929 . S
H792 C800 0.929 . S
H793 C802 0.930 . S
H794 C804 0.930 . S
H795 C807 0.929 . S
H796 C810 0.930 . S
H797 C812 0.960 . S
H798 C812 0.960 1_554 S
H799 C812 0.960 1_554 S
C800 H792 0.929 . S
C800 C801 1.377 . S
C800 C802 1.384 . S
C801 C800 1.377 . S
C801 C807 1.390 . S
C802 H793 0.930 . S
C802 C800 1.384 . S
C802 C803 1.372 . S
C803 C802 1.372 . S
C803 C804 1.400 . S
C803 C808 1.490 1_554 S
C804 H794 0.930 . S
C804 C803 1.400 . S
C804 C807 1.386 . S
H805 C821 0.930 . S
H806 C822 0.931 . S
C807 H795 0.929 . S
C807 C801 1.390 . S
C807 C804 1.386 . S
C808 C803 1.490 1_556 S
C808 C810 1.395 . S
C808 C811 1.403 . S
H809 C815 0.930 . S
C810 H796 0.930 . S
C810 C808 1.395 . S
C810 C813 1.403 . S
C811 C808 1.403 . S
C811 C812 1.524 . S
C811 C815 1.400 . S
C812 H797 0.960 . S
C812 H798 0.960 1_556 S
C812 H799 0.960 1_556 S
C812 C811 1.524 . S
C813 C810 1.403 . S
C813 C814 1.392 . S
C813 C817 1.495 . S
C814 C813 1.392 . S
C814 C815 1.385 . S
C814 C816 1.478 . S
C815 H809 0.930 . S
C815 C811 1.400 . S
C815 C814 1.385 . S
C816 C814 1.478 . S
C816 C818 1.381 . S
C816 C822 1.383 . S
C817 C813 1.495 . S
C817 H823 0.959 . S
C817 H824 0.961 . S
C817 H825 0.960 . S
C818 C816 1.381 . S
C818 C819 1.394 . S
C818 H826 0.930 . S
C819 C818 1.394 . S
C819 C820 1.383 . S
C819 H827 0.929 . S
C820 C819 1.383 . S
C820 C821 1.377 . S
C821 H805 0.930 . S
C821 C820 1.377 . S
C821 C822 1.379 . S
C822 H806 0.931 . S
C822 C816 1.383 . S
C822 C821 1.379 . S
H823 C817 0.959 . S
H824 C817 0.961 . S
H825 C817 0.960 . S
H826 C818 0.930 . S
H827 C819 0.929 . S
H828 C836 0.929 . S
H829 C838 0.930 . S
H830 C840 0.930 . S
H831 C843 0.929 . S
H832 C846 0.930 . S
H833 C848 0.960 . S
H834 C848 0.960 . S
H835 C848 0.960 . S
C836 H828 0.929 . S
C836 C837 1.377 . S
C836 C838 1.384 . S
C837 C836 1.377 . S
C837 C843 1.390 . S
C838 H829 0.930 . S
C838 C836 1.384 . S
C838 C839 1.372 . S
C839 C838 1.372 . S
C839 C840 1.400 . S
C839 C844 1.490 . S
C840 H830 0.930 . S
C840 C839 1.400 . S
C840 C843 1.386 . S
H841 C857 0.930 . S
H842 C858 0.931 . S
C843 H831 0.929 . S
C843 C837 1.390 . S
C843 C840 1.386 . S
C844 C839 1.490 . S
C844 C846 1.395 . S
C844 C847 1.403 . S
H845 C851 0.930 . S
C846 H832 0.930 . S
C846 C844 1.395 . S
C846 C849 1.403 . S
C847 C844 1.403 . S
C847 C848 1.524 . S
C847 C851 1.400 . S
C848 H833 0.960 . S
C848 H834 0.960 . S
C848 H835 0.960 . S
C848 C847 1.524 . S
C849 C846 1.403 . S
C849 C850 1.392 . S
C849 C853 1.495 . S
C850 C849 1.392 . S
C850 C851 1.385 . S
C850 C852 1.478 . S
C851 H845 0.930 . S
C851 C847 1.400 . S
C851 C850 1.385 . S
C852 C850 1.478 . S
C852 C854 1.381 . S
C852 C858 1.383 . S
C853 C849 1.495 . S
C853 H859 0.959 . S
C853 H860 0.961 . S
C853 H861 0.960 . S
C854 C852 1.381 . S
C854 C855 1.394 . S
C854 H862 0.930 . S
C855 C854 1.394 . S
C855 C856 1.383 . S
C855 H863 0.929 . S
C856 C855 1.383 . S
C856 C857 1.377 . S
C857 H841 0.930 . S
C857 C856 1.377 . S
C857 C858 1.379 . S
C858 H842 0.931 . S
C858 C852 1.383 . S
C858 C857 1.379 . S
H859 C853 0.959 . S
H860 C853 0.961 . S
H861 C853 0.960 . S
H862 C854 0.930 . S
H863 C855 0.929 . S
H864 C872 0.929 . S
H865 C874 0.930 1_556 S
H866 C876 0.930 . S
H867 C879 0.929 . S
H868 C882 0.930 . S
H869 C884 0.960 . S
H870 C884 0.960 1_554 S
H871 C884 0.960 1_554 S
C872 H864 0.929 . S
C872 C873 1.377 . S
C872 C874 1.384 . S
C873 C872 1.377 . S
C873 C879 1.390 . S
C874 H865 0.930 1_554 S
C874 C872 1.384 . S
C874 C875 1.372 . S
C875 C874 1.372 . S
C875 C876 1.400 . S
C875 C880 1.490 1_554 S
C876 H866 0.930 . S
C876 C875 1.400 . S
C876 C879 1.386 . S
H877 C893 0.930 . S
H878 C894 0.931 . S
C879 H867 0.929 . S
C879 C873 1.390 . S
C879 C876 1.386 . S
C880 C875 1.490 1_556 S
C880 C882 1.395 . S
C880 C883 1.403 . S
H881 C887 0.930 . S
C882 H868 0.930 . S
C882 C880 1.395 . S
C882 C885 1.403 . S
C883 C880 1.403 . S
C883 C884 1.524 . S
C883 C887 1.400 . S
C884 H869 0.960 . S
C884 H870 0.960 1_556 S
C884 H871 0.960 1_556 S
C884 C883 1.524 . S
C885 C882 1.403 . S
C885 C886 1.392 . S
C885 C889 1.495 . S
C886 C885 1.392 . S
C886 C887 1.385 . S
C886 C888 1.478 . S
C887 H881 0.930 . S
C887 C883 1.400 . S
C887 C886 1.385 . S
C888 C886 1.478 . S
C888 C890 1.381 . S
C888 C894 1.383 . S
C889 C885 1.495 . S
C889 H895 0.959 . S
C889 H896 0.961 . S
C889 H897 0.960 . S
C890 C888 1.381 . S
C890 C891 1.394 . S
C890 H898 0.930 . S
C891 C890 1.394 . S
C891 C892 1.383 . S
C891 H899 0.929 . S
C892 C891 1.383 . S
C892 C893 1.377 . S
C893 H877 0.930 . S
C893 C892 1.377 . S
C893 C894 1.379 . S
C894 H878 0.931 . S
C894 C888 1.383 . S
C894 C893 1.379 . S
H895 C889 0.959 . S
H896 C889 0.961 . S
H897 C889 0.960 . S
H898 C890 0.930 . S
H899 C891 0.929 . S
H900 C908 0.929 . S
H901 C910 0.930 . S
H902 C912 0.930 . S
H903 C915 0.929 . S
H904 C918 0.930 . S
H905 C920 0.960 . S
H906 C920 0.960 . S
H907 C920 0.960 . S
C908 H900 0.929 . S
C908 C909 1.377 . S
C908 C910 1.384 . S
C909 C908 1.377 . S
C909 C915 1.390 . S
C910 H901 0.930 . S
C910 C908 1.384 . S
C910 C911 1.372 . S
C911 C910 1.372 . S
C911 C912 1.400 . S
C911 C916 1.490 . S
C912 H902 0.930 . S
C912 C911 1.400 . S
C912 C915 1.386 . S
H913 C929 0.930 . S
H914 C930 0.931 . S
C915 H903 0.929 . S
C915 C909 1.390 . S
C915 C912 1.386 . S
C916 C911 1.490 . S
C916 C918 1.395 . S
C916 C919 1.403 . S
H917 C923 0.930 . S
C918 H904 0.930 . S
C918 C916 1.395 . S
C918 C921 1.403 . S
C919 C916 1.403 . S
C919 C920 1.524 . S
C919 C923 1.400 . S
C920 H905 0.960 . S
C920 H906 0.960 . S
C920 H907 0.960 . S
C920 C919 1.524 . S
C921 C918 1.403 . S
C921 C922 1.392 . S
C921 C925 1.495 . S
C922 C921 1.392 . S
C922 C923 1.385 . S
C922 C924 1.478 . S
C923 H917 0.930 . S
C923 C919 1.400 . S
C923 C922 1.385 . S
C924 C922 1.478 . S
C924 C926 1.381 . S
C924 C930 1.383 . S
C925 C921 1.495 . S
C925 H931 0.959 . S
C925 H932 0.961 . S
C925 H933 0.960 . S
C926 C924 1.381 . S
C926 C927 1.394 . S
C926 H934 0.930 . S
C927 C926 1.394 . S
C927 C928 1.383 . S
C927 H935 0.929 . S
C928 C927 1.383 . S
C928 C929 1.377 . S
C929 H913 0.930 . S
C929 C928 1.377 . S
C929 C930 1.379 . S
C930 H914 0.931 . S
C930 C924 1.383 . S
C930 C929 1.379 . S
H931 C925 0.959 . S
H932 C925 0.961 . S
H933 C925 0.960 . S
H934 C926 0.930 . S
H935 C927 0.929 . S
H936 C944 0.929 . S
H937 C946 0.930 . S
H938 C948 0.930 . S
H939 C951 0.929 . S
H940 C954 0.930 . S
H941 C956 0.960 . S
H942 C956 0.960 . S
H943 C956 0.960 . S
C944 H936 0.929 . S
C944 C945 1.377 . S
C944 C946 1.384 . S
C945 C944 1.377 . S
C945 C951 1.390 . S
C946 H937 0.930 . S
C946 C944 1.384 . S
C946 C947 1.372 . S
C947 C946 1.372 . S
C947 C948 1.400 . S
C947 C952 1.490 1_556 S
C948 H938 0.930 . S
C948 C947 1.400 . S
C948 C951 1.386 . S
H949 C965 0.930 . S
H950 C966 0.931 . S
C951 H939 0.929 . S
C951 C945 1.390 . S
C951 C948 1.386 . S
C952 C947 1.490 1_554 S
C952 C954 1.395 . S
C952 C955 1.403 . S
H953 C959 0.930 . S
C954 H940 0.930 . S
C954 C952 1.395 . S
C954 C957 1.403 . S
C955 C952 1.403 . S
C955 C956 1.524 . S
C955 C959 1.400 . S
C956 H941 0.960 . S
C956 H942 0.960 . S
C956 H943 0.960 . S
C956 C955 1.524 . S
C957 C954 1.403 . S
C957 C958 1.392 . S
C957 C961 1.495 . S
C958 C957 1.392 . S
C958 C959 1.385 . S
C958 C960 1.478 . S
C959 H953 0.930 . S
C959 C955 1.400 . S
C959 C958 1.385 . S
C960 C958 1.478 . S
C960 C962 1.381 . S
C960 C966 1.383 . S
C961 C957 1.495 . S
C961 H967 0.959 . S
C961 H968 0.961 . S
C961 H969 0.960 . S
C962 C960 1.381 . S
C962 C963 1.394 . S
C962 H970 0.930 . S
C963 C962 1.394 . S
C963 C964 1.383 . S
C963 H971 0.929 . S
C964 C963 1.383 . S
C964 C965 1.377 . S
C965 H949 0.930 . S
C965 C964 1.377 . S
C965 C966 1.379 . S
C966 H950 0.931 . S
C966 C960 1.383 . S
C966 C965 1.379 . S
H967 C961 0.959 . S
H968 C961 0.961 . S
H969 C961 0.960 . S
H970 C962 0.930 . S
H971 C963 0.929 . S
H972 C980 0.929 . S
H973 C982 0.930 . S
H974 C984 0.930 . S
H975 C987 0.929 . S
H976 C990 0.930 . S
H977 C992 0.960 . S
H978 C992 0.960 . S
H979 C992 0.960 . S
C980 H972 0.929 . S
C980 C981 1.377 . S
C980 C982 1.384 . S
C981 C980 1.377 . S
C981 C987 1.390 . S
C982 H973 0.930 . S
C982 C980 1.384 . S
C982 C983 1.372 . S
C983 C982 1.372 . S
C983 C984 1.400 . S
C983 C988 1.490 . S
C984 H974 0.930 . S
C984 C983 1.400 . S
C984 C987 1.386 . S
H985 C1001 0.930 . S
H986 C1002 0.931 . S
C987 H975 0.929 . S
C987 C981 1.390 . S
C987 C984 1.386 . S
C988 C983 1.490 . S
C988 C990 1.395 . S
C988 C991 1.403 . S
H989 C995 0.930 . S
C990 H976 0.930 . S
C990 C988 1.395 . S
C990 C993 1.403 . S
C991 C988 1.403 . S
C991 C992 1.524 . S
C991 C995 1.400 . S
C992 H977 0.960 . S
C992 H978 0.960 . S
C992 H979 0.960 . S
C992 C991 1.524 . S
C993 C990 1.403 . S
C993 C994 1.392 . S
C993 C997 1.495 . S
C994 C993 1.392 . S
C994 C995 1.385 . S
C994 C996 1.478 . S
C995 H989 0.930 . S
C995 C991 1.400 . S
C995 C994 1.385 . S
C996 C994 1.478 . S
C996 C998 1.381 . S
C996 C1002 1.383 . S
C997 C993 1.495 . S
C997 H1003 0.959 . S
C997 H1004 0.961 . S
C997 H1005 0.960 . S
C998 C996 1.381 . S
C998 C999 1.394 . S
C998 H1006 0.930 . S
C999 C998 1.394 . S
C999 C1000 1.383 . S
C999 H1007 0.929 . S
C1000 C999 1.383 . S
C1000 C1001 1.377 . S
C1001 H985 0.930 . S
C1001 C1000 1.377 . S
C1001 C1002 1.379 . S
C1002 H986 0.931 . S
C1002 C996 1.383 . S
C1002 C1001 1.379 . S
H1003 C997 0.959 . S
H1004 C997 0.961 . S
H1005 C997 0.960 . S
H1006 C998 0.930 . S
H1007 C999 0.929 . S
H1008 C1016 0.929 . S
H1009 C1018 0.930 . S
H1010 C1020 0.930 . S
H1011 C1023 0.929 . S
H1012 C1026 0.930 . S
H1013 C1028 0.960 . S
H1014 C1028 0.960 . S
H1015 C1028 0.960 . S
C1016 H1008 0.929 . S
C1016 C1017 1.377 . S
C1016 C1018 1.384 . S
C1017 C1016 1.377 . S
C1017 C1023 1.390 . S
C1018 H1009 0.930 . S
C1018 C1016 1.384 . S
C1018 C1019 1.372 . S
C1019 C1018 1.372 . S
C1019 C1020 1.400 . S
C1019 C1024 1.490 . S
C1020 H1010 0.930 . S
C1020 C1019 1.400 . S
C1020 C1023 1.386 . S
H1021 C1037 0.930 . S
H1022 C1038 0.931 . S
C1023 H1011 0.929 . S
C1023 C1017 1.390 . S
C1023 C1020 1.386 . S
C1024 C1019 1.490 . S
C1024 C1026 1.395 . S
C1024 C1027 1.403 . S
H1025 C1031 0.930 . S
C1026 H1012 0.930 . S
C1026 C1024 1.395 . S
C1026 C1029 1.403 . S
C1027 C1024 1.403 . S
C1027 C1028 1.524 . S
C1027 C1031 1.400 . S
C1028 H1013 0.960 . S
C1028 H1014 0.960 . S
C1028 H1015 0.960 . S
C1028 C1027 1.524 . S
C1029 C1026 1.403 . S
C1029 C1030 1.392 . S
C1029 C1033 1.495 . S
C1030 C1029 1.392 . S
C1030 C1031 1.385 . S
C1030 C1032 1.478 . S
C1031 H1025 0.930 . S
C1031 C1027 1.400 . S
C1031 C1030 1.385 . S
C1032 C1030 1.478 . S
C1032 C1034 1.381 . S
C1032 C1038 1.383 . S
C1033 C1029 1.495 . S
C1033 H1039 0.959 . S
C1033 H1040 0.961 . S
C1033 H1041 0.960 . S
C1034 C1032 1.381 . S
C1034 C1035 1.394 . S
C1034 H1042 0.930 . S
C1035 C1034 1.394 . S
C1035 C1036 1.383 . S
C1035 H1043 0.929 . S
C1036 C1035 1.383 . S
C1036 C1037 1.377 . S
C1037 H1021 0.930 . S
C1037 C1036 1.377 . S
C1037 C1038 1.379 . S
C1038 H1022 0.931 . S
C1038 C1032 1.383 . S
C1038 C1037 1.379 . S
H1039 C1033 0.959 . S
H1040 C1033 0.961 . S
H1041 C1033 0.960 . S
H1042 C1034 0.930 . S
H1043 C1035 0.929 . S
H1044 C1052 0.929 . S
H1045 C1054 0.930 . S
H1046 C1056 0.930 . S
H1047 C1059 0.929 . S
H1048 C1062 0.930 . S
H1049 C1064 0.960 . S
H1050 C1064 0.960 . S
H1051 C1064 0.960 . S
C1052 H1044 0.929 . S
C1052 C1053 1.377 . S
C1052 C1054 1.384 . S
C1053 C1052 1.377 . S
C1053 C1059 1.390 . S
C1054 H1045 0.930 . S
C1054 C1052 1.384 . S
C1054 C1055 1.372 . S
C1055 C1054 1.372 . S
C1055 C1056 1.400 . S
C1055 C1060 1.490 . S
C1056 H1046 0.930 . S
C1056 C1055 1.400 . S
C1056 C1059 1.386 . S
H1057 C1073 0.930 . S
H1058 C1074 0.931 . S
C1059 H1047 0.929 . S
C1059 C1053 1.390 . S
C1059 C1056 1.386 . S
C1060 C1055 1.490 . S
C1060 C1062 1.395 . S
C1060 C1063 1.403 . S
H1061 C1067 0.930 . S
C1062 H1048 0.930 . S
C1062 C1060 1.395 . S
C1062 C1065 1.403 . S
C1063 C1060 1.403 . S
C1063 C1064 1.524 . S
C1063 C1067 1.400 . S
C1064 H1049 0.960 . S
C1064 H1050 0.960 . S
C1064 H1051 0.960 . S
C1064 C1063 1.524 . S
C1065 C1062 1.403 . S
C1065 C1066 1.392 . S
C1065 C1069 1.495 . S
C1066 C1065 1.392 . S
C1066 C1067 1.385 . S
C1066 C1068 1.478 . S
C1067 H1061 0.930 . S
C1067 C1063 1.400 . S
C1067 C1066 1.385 . S
C1068 C1066 1.478 . S
C1068 C1070 1.381 . S
C1068 C1074 1.383 . S
C1069 C1065 1.495 . S
C1069 H1075 0.959 . S
C1069 H1076 0.961 . S
C1069 H1077 0.960 . S
C1070 C1068 1.381 . S
C1070 C1071 1.394 . S
C1070 H1078 0.930 . S
C1071 C1070 1.394 . S
C1071 C1072 1.383 . S
C1071 H1079 0.929 . S
C1072 C1071 1.383 . S
C1072 C1073 1.377 . S
C1073 H1057 0.930 . S
C1073 C1072 1.377 . S
C1073 C1074 1.379 . S
C1074 H1058 0.931 . S
C1074 C1068 1.383 . S
C1074 C1073 1.379 . S
H1075 C1069 0.959 . S
H1076 C1069 0.961 . S
H1077 C1069 0.960 . S
H1078 C1070 0.930 . S
H1079 C1071 0.929 . S
H1080 C1088 0.929 . S
H1081 C1090 0.930 . S
H1082 C1092 0.930 . S
H1083 C1095 0.929 . S
H1084 C1098 0.930 . S
H1085 C1100 0.960 . S
H1086 C1100 0.960 . S
H1087 C1100 0.960 . S
C1088 H1080 0.929 . S
C1088 C1089 1.377 . S
C1088 C1090 1.384 . S
C1089 C1088 1.377 . S
C1089 C1095 1.390 . S
C1090 H1081 0.930 . S
C1090 C1088 1.384 . S
C1090 C1091 1.372 . S
C1091 C1090 1.372 . S
C1091 C1092 1.400 . S
C1091 C1096 1.490 . S
C1092 H1082 0.930 . S
C1092 C1091 1.400 . S
C1092 C1095 1.386 . S
H1093 C1109 0.930 . S
H1094 C1110 0.931 . S
C1095 H1083 0.929 . S
C1095 C1089 1.390 . S
C1095 C1092 1.386 . S
C1096 C1091 1.490 . S
C1096 C1098 1.395 . S
C1096 C1099 1.403 . S
H1097 C1103 0.930 . S
C1098 H1084 0.930 . S
C1098 C1096 1.395 . S
C1098 C1101 1.403 . S
C1099 C1096 1.403 . S
C1099 C1100 1.524 . S
C1099 C1103 1.400 . S
C1100 H1085 0.960 . S
C1100 H1086 0.960 . S
C1100 H1087 0.960 . S
C1100 C1099 1.524 . S
C1101 C1098 1.403 . S
C1101 C1102 1.392 . S
C1101 C1105 1.495 . S
C1102 C1101 1.392 . S
C1102 C1103 1.385 . S
C1102 C1104 1.478 . S
C1103 H1097 0.930 . S
C1103 C1099 1.400 . S
C1103 C1102 1.385 . S
C1104 C1102 1.478 . S
C1104 C1106 1.381 . S
C1104 C1110 1.383 . S
C1105 C1101 1.495 . S
C1105 H1111 0.959 . S
C1105 H1112 0.961 . S
C1105 H1113 0.960 . S
C1106 C1104 1.381 . S
C1106 C1107 1.394 . S
C1106 H1114 0.930 . S
C1107 C1106 1.394 . S
C1107 C1108 1.383 . S
C1107 H1115 0.929 . S
C1108 C1107 1.383 . S
C1108 C1109 1.377 . S
C1109 H1093 0.930 . S
C1109 C1108 1.377 . S
C1109 C1110 1.379 . S
C1110 H1094 0.931 . S
C1110 C1104 1.383 . S
C1110 C1109 1.379 . S
H1111 C1105 0.959 . S
H1112 C1105 0.961 . S
H1113 C1105 0.960 . S
H1114 C1106 0.930 . S
H1115 C1107 0.929 . S
H1116 C1124 0.929 . S
H1117 C1126 0.930 . S
H1118 C1128 0.930 . S
H1119 C1131 0.929 . S
H1120 C1134 0.930 . S
H1121 C1136 0.960 . S
H1122 C1136 0.960 . S
H1123 C1136 0.960 . S
C1124 H1116 0.929 . S
C1124 C1125 1.377 . S
C1124 C1126 1.384 . S
C1125 C1124 1.377 . S
C1125 C1131 1.390 . S
C1126 H1117 0.930 . S
C1126 C1124 1.384 . S
C1126 C1127 1.372 . S
C1127 C1126 1.372 . S
C1127 C1128 1.400 . S
C1127 C1132 1.490 . S
C1128 H1118 0.930 . S
C1128 C1127 1.400 . S
C1128 C1131 1.386 . S
H1129 C1145 0.930 . S
H1130 C1146 0.931 . S
C1131 H1119 0.929 . S
C1131 C1125 1.390 . S
C1131 C1128 1.386 . S
C1132 C1127 1.490 . S
C1132 C1134 1.395 . S
C1132 C1135 1.403 . S
H1133 C1139 0.930 . S
C1134 H1120 0.930 . S
C1134 C1132 1.395 . S
C1134 C1137 1.403 . S
C1135 C1132 1.403 . S
C1135 C1136 1.524 . S
C1135 C1139 1.400 . S
C1136 H1121 0.960 . S
C1136 H1122 0.960 . S
C1136 H1123 0.960 . S
C1136 C1135 1.524 . S
C1137 C1134 1.403 . S
C1137 C1138 1.392 . S
C1137 C1141 1.495 . S
C1138 C1137 1.392 . S
C1138 C1139 1.385 . S
C1138 C1140 1.478 . S
C1139 H1133 0.930 . S
C1139 C1135 1.400 . S
C1139 C1138 1.385 . S
C1140 C1138 1.478 . S
C1140 C1142 1.381 . S
C1140 C1146 1.383 . S
C1141 C1137 1.495 . S
C1141 H1147 0.959 . S
C1141 H1148 0.961 . S
C1141 H1149 0.960 . S
C1142 C1140 1.381 . S
C1142 C1143 1.394 . S
C1142 H1150 0.930 . S
C1143 C1142 1.394 . S
C1143 C1144 1.383 . S
C1143 H1151 0.929 . S
C1144 C1143 1.383 . S
C1144 C1145 1.377 . S
C1145 H1129 0.930 . S
C1145 C1144 1.377 . S
C1145 C1146 1.379 . S
C1146 H1130 0.931 . S
C1146 C1140 1.383 . S
C1146 C1145 1.379 . S
H1147 C1141 0.959 . S
H1148 C1141 0.961 . S
H1149 C1141 0.960 . S
H1150 C1142 0.930 . S
H1151 C1143 0.929 . S
H1152 C1160 0.929 . S
H1153 C1162 0.930 . S
H1154 C1164 0.930 . S
H1155 C1167 0.929 . S
H1156 C1170 0.930 . S
H1157 C1172 0.960 . S
H1158 C1172 0.960 . S
H1159 C1172 0.960 . S
C1160 H1152 0.929 . S
C1160 C1161 1.377 . S
C1160 C1162 1.384 . S
C1161 C1160 1.377 . S
C1161 C1167 1.390 . S
C1162 H1153 0.930 . S
C1162 C1160 1.384 . S
C1162 C1163 1.372 . S
C1163 C1162 1.372 . S
C1163 C1164 1.400 . S
C1163 C1168 1.490 . S
C1164 H1154 0.930 . S
C1164 C1163 1.400 . S
C1164 C1167 1.386 . S
H1165 C1181 0.930 . S
H1166 C1182 0.931 . S
C1167 H1155 0.929 . S
C1167 C1161 1.390 . S
C1167 C1164 1.386 . S
C1168 C1163 1.490 . S
C1168 C1170 1.395 . S
C1168 C1171 1.403 . S
H1169 C1175 0.930 . S
C1170 H1156 0.930 . S
C1170 C1168 1.395 . S
C1170 C1173 1.403 . S
C1171 C1168 1.403 . S
C1171 C1172 1.524 . S
C1171 C1175 1.400 . S
C1172 H1157 0.960 . S
C1172 H1158 0.960 . S
C1172 H1159 0.960 . S
C1172 C1171 1.524 . S
C1173 C1170 1.403 . S
C1173 C1174 1.392 . S
C1173 C1177 1.495 . S
C1174 C1173 1.392 . S
C1174 C1175 1.385 . S
C1174 C1176 1.478 . S
C1175 H1169 0.930 . S
C1175 C1171 1.400 . S
C1175 C1174 1.385 . S
C1176 C1174 1.478 . S
C1176 C1178 1.381 . S
C1176 C1182 1.383 . S
C1177 C1173 1.495 . S
C1177 H1183 0.959 . S
C1177 H1184 0.961 . S
C1177 H1185 0.960 . S
C1178 C1176 1.381 . S
C1178 C1179 1.394 . S
C1178 H1186 0.930 . S
C1179 C1178 1.394 . S
C1179 C1180 1.383 . S
C1179 H1187 0.929 . S
C1180 C1179 1.383 . S
C1180 C1181 1.377 . S
C1181 H1165 0.930 . S
C1181 C1180 1.377 . S
C1181 C1182 1.379 . S
C1182 H1166 0.931 . S
C1182 C1176 1.383 . S
C1182 C1181 1.379 . S
H1183 C1177 0.959 . S
H1184 C1177 0.961 . S
H1185 C1177 0.960 . S
H1186 C1178 0.930 . S
H1187 C1179 0.929 . S
H1188 C1196 0.929 . S
H1189 C1198 0.930 . S
H1190 C1200 0.930 . S
H1191 C1203 0.929 . S
H1192 C1206 0.930 . S
H1193 C1208 0.960 . S
H1194 C1208 0.960 . S
H1195 C1208 0.960 . S
C1196 H1188 0.929 . S
C1196 C1197 1.377 . S
C1196 C1198 1.384 . S
C1197 C1196 1.377 . S
C1197 C1203 1.390 . S
C1198 H1189 0.930 . S
C1198 C1196 1.384 . S
C1198 C1199 1.372 . S
C1199 C1198 1.372 . S
C1199 C1200 1.400 . S
C1199 C1204 1.490 . S
C1200 H1190 0.930 . S
C1200 C1199 1.400 . S
C1200 C1203 1.386 . S
H1201 C1217 0.930 . S
H1202 C1218 0.931 . S
C1203 H1191 0.929 . S
C1203 C1197 1.390 . S
C1203 C1200 1.386 . S
C1204 C1199 1.490 . S
C1204 C1206 1.395 . S
C1204 C1207 1.403 . S
H1205 C1211 0.930 . S
C1206 H1192 0.930 . S
C1206 C1204 1.395 . S
C1206 C1209 1.403 . S
C1207 C1204 1.403 . S
C1207 C1208 1.524 . S
C1207 C1211 1.400 . S
C1208 H1193 0.960 . S
C1208 H1194 0.960 . S
C1208 H1195 0.960 . S
C1208 C1207 1.524 . S
C1209 C1206 1.403 . S
C1209 C1210 1.392 . S
C1209 C1213 1.495 . S
C1210 C1209 1.392 . S
C1210 C1211 1.385 . S
C1210 C1212 1.478 . S
C1211 H1205 0.930 . S
C1211 C1207 1.400 . S
C1211 C1210 1.385 . S
C1212 C1210 1.478 . S
C1212 C1214 1.381 . S
C1212 C1218 1.383 . S
C1213 C1209 1.495 . S
C1213 H1219 0.959 . S
C1213 H1220 0.961 . S
C1213 H1221 0.960 . S
C1214 C1212 1.381 . S
C1214 C1215 1.394 . S
C1214 H1222 0.930 . S
C1215 C1214 1.394 . S
C1215 C1216 1.383 . S
C1215 H1223 0.929 . S
C1216 C1215 1.383 . S
C1216 C1217 1.377 . S
C1217 H1201 0.930 . S
C1217 C1216 1.377 . S
C1217 C1218 1.379 . S
C1218 H1202 0.931 . S
C1218 C1212 1.383 . S
C1218 C1217 1.379 . S
H1219 C1213 0.959 . S
H1220 C1213 0.961 . S
H1221 C1213 0.960 . S
H1222 C1214 0.930 . S
H1223 C1215 0.929 . S
H1224 C1232 0.929 . S
H1225 C1234 0.930 . S
H1226 C1236 0.930 . S
H1227 C1239 0.929 . S
H1228 C1242 0.930 . S
H1229 C1244 0.960 . S
H1230 C1244 0.960 . S
H1231 C1244 0.960 . S
C1232 H1224 0.929 . S
C1232 C1233 1.377 . S
C1232 C1234 1.384 . S
C1233 C1232 1.377 . S
C1233 C1239 1.390 . S
C1234 H1225 0.930 . S
C1234 C1232 1.384 . S
C1234 C1235 1.372 . S
C1235 C1234 1.372 . S
C1235 C1236 1.400 . S
C1235 C1240 1.490 . S
C1236 H1226 0.930 . S
C1236 C1235 1.400 . S
C1236 C1239 1.386 . S
H1237 C1253 0.930 . S
H1238 C1254 0.931 . S
C1239 H1227 0.929 . S
C1239 C1233 1.390 . S
C1239 C1236 1.386 . S
C1240 C1235 1.490 . S
C1240 C1242 1.395 . S
C1240 C1243 1.403 . S
H1241 C1247 0.930 . S
C1242 H1228 0.930 . S
C1242 C1240 1.395 . S
C1242 C1245 1.403 . S
C1243 C1240 1.403 . S
C1243 C1244 1.524 . S
C1243 C1247 1.400 . S
C1244 H1229 0.960 . S
C1244 H1230 0.960 . S
C1244 H1231 0.960 . S
C1244 C1243 1.524 . S
C1245 C1242 1.403 . S
C1245 C1246 1.392 . S
C1245 C1249 1.495 . S
C1246 C1245 1.392 . S
C1246 C1247 1.385 . S
C1246 C1248 1.478 . S
C1247 H1241 0.930 . S
C1247 C1243 1.400 . S
C1247 C1246 1.385 . S
C1248 C1246 1.478 . S
C1248 C1250 1.381 . S
C1248 C1254 1.383 . S
C1249 C1245 1.495 . S
C1249 H1255 0.959 . S
C1249 H1256 0.961 . S
C1249 H1257 0.960 . S
C1250 C1248 1.381 . S
C1250 C1251 1.394 . S
C1250 H1258 0.930 . S
C1251 C1250 1.394 . S
C1251 C1252 1.383 . S
C1251 H1259 0.929 . S
C1252 C1251 1.383 . S
C1252 C1253 1.377 . S
C1253 H1237 0.930 . S
C1253 C1252 1.377 . S
C1253 C1254 1.379 . S
C1254 H1238 0.931 . S
C1254 C1248 1.383 . S
C1254 C1253 1.379 . S
H1255 C1249 0.959 . S
H1256 C1249 0.961 . S
H1257 C1249 0.960 . S
H1258 C1250 0.930 . S
H1259 C1251 0.929 . S
H1260 C1268 0.929 . S
H1261 C1270 0.930 . S
H1262 C1272 0.930 . S
H1263 C1275 0.929 . S
H1264 C1278 0.930 . S
H1265 C1280 0.960 . S
H1266 C1280 0.960 . S
H1267 C1280 0.960 . S
C1268 H1260 0.929 . S
C1268 C1269 1.377 . S
C1268 C1270 1.384 . S
C1269 C1268 1.377 . S
C1269 C1275 1.390 . S
C1270 H1261 0.930 . S
C1270 C1268 1.384 . S
C1270 C1271 1.372 . S
C1271 C1270 1.372 . S
C1271 C1272 1.400 . S
C1271 C1276 1.490 . S
C1272 H1262 0.930 . S
C1272 C1271 1.400 . S
C1272 C1275 1.386 . S
H1273 C1289 0.930 . S
H1274 C1290 0.931 . S
C1275 H1263 0.929 . S
C1275 C1269 1.390 . S
C1275 C1272 1.386 . S
C1276 C1271 1.490 . S
C1276 C1278 1.395 . S
C1276 C1279 1.403 . S
H1277 C1283 0.930 . S
C1278 H1264 0.930 . S
C1278 C1276 1.395 . S
C1278 C1281 1.403 . S
C1279 C1276 1.403 . S
C1279 C1280 1.524 . S
C1279 C1283 1.400 . S
C1280 H1265 0.960 . S
C1280 H1266 0.960 . S
C1280 H1267 0.960 . S
C1280 C1279 1.524 . S
C1281 C1278 1.403 . S
C1281 C1282 1.392 . S
C1281 C1285 1.495 . S
C1282 C1281 1.392 . S
C1282 C1283 1.385 . S
C1282 C1284 1.478 . S
C1283 H1277 0.930 . S
C1283 C1279 1.400 . S
C1283 C1282 1.385 . S
C1284 C1282 1.478 . S
C1284 C1286 1.381 . S
C1284 C1290 1.383 . S
C1285 C1281 1.495 . S
C1285 H1291 0.959 . S
C1285 H1292 0.961 . S
C1285 H1293 0.960 . S
C1286 C1284 1.381 . S
C1286 C1287 1.394 . S
C1286 H1294 0.930 . S
C1287 C1286 1.394 . S
C1287 C1288 1.383 . S
C1287 H1295 0.929 . S
C1288 C1287 1.383 . S
C1288 C1289 1.377 . S
C1289 H1273 0.930 . S
C1289 C1288 1.377 . S
C1289 C1290 1.379 . S
C1290 H1274 0.931 . S
C1290 C1284 1.383 . S
C1290 C1289 1.379 . S
H1291 C1285 0.959 . S
H1292 C1285 0.961 . S
H1293 C1285 0.960 . S
H1294 C1286 0.930 . S
H1295 C1287 0.929 . S
C441 C81 1.697 . S
C460 C170 1.677 . S
C496 C254 1.674 . S
C477 C93 1.697 . S
C532 C247 1.689 . S
C513 C57 1.691 . S
C549 C69 1.692 . S
C568 C163 1.692 . S
C604 C327 1.681 . S
C585 C33 1.696 . S
C640 C411 1.683 . S
C621 C45 1.696 . S
C657 C9 1.685 . S
C676 C404 1.679 . S
C693 C21 1.685 . S
C712 C320 1.681 . S
C748 C154 1.429 . S
C729 C18 1.626 . S
C784 C238 1.432 . S
C765 C6 1.625 . S
C820 C249 1.384 . S
C801 C42 1.639 . S
C856 C165 1.384 . S
C837 C30 1.639 . S
C892 C333 1.433 . S
C873 C66 1.636 . S
C909 C54 1.636 . S
C928 C417 1.429 . S
C964 C406 1.474 . S
C945 C90 1.646 . S
C981 C78 1.645 . S
C1000 C322 1.445 . S
C1036 C152 1.552 . S
C1017 C4 1.541 . S
C1072 C236 1.553 . S
C1053 C16 1.543 . S
C1089 C28 1.543 . S
C1108 C243 1.517 . S
C1144 C159 1.520 . S
C1125 C40 1.537 . S
C1180 C331 1.551 . S
C1161 C52 1.542 . S
C1197 C64 1.540 . S
C1216 C415 1.557 . S
C1233 C76 1.537 . S
C1252 C422 1.508 . S
C1269 C88 1.538 . S
C1288 C338 1.530 . S
