# Generated by pormake.
# Topology zzz, (3,6)-cn, num edge types: 1
# Building blocks:
#     Node 0, Type 0, BuildingBlock: CUQRIR_clean_linker_1, # of connection points: 3
#     Node 1, Type 0, BuildingBlock: CUQRIR_clean_linker_1, # of connection points: 3
#     Node 2, Type 0, BuildingBlock: CUQRIR_clean_linker_1, # of connection points: 3
#     Node 3, Type 0, BuildingBlock: CUQRIR_clean_linker_1, # of connection points: 3
#     Node 4, Type 0, BuildingBlock: CUQRIR_clean_linker_1, # of connection points: 3
#     Node 5, Type 0, BuildingBlock: CUQRIR_clean_linker_1, # of connection points: 3
#     Node 6, Type 0, BuildingBlock: CUQRIR_clean_linker_1, # of connection points: 3
#     Node 7, Type 0, BuildingBlock: CUQRIR_clean_linker_1, # of connection points: 3
#     Node 8, Type 1, BuildingBlock: PAMTOO_clean_sbu_0, # of connection points: 6
#     Node 9, Type 1, BuildingBlock: PAMTOO_clean_sbu_0, # of connection points: 6
#     Node 10, Type 1, BuildingBlock: PAMTOO_clean_sbu_0, # of connection points: 6
#     Node 11, Type 1, BuildingBlock: PAMTOO_clean_sbu_0, # of connection points: 6
#     Edge 12, Type (0, 1), BuildingBlock: XUDNAN_clean_linker_2, # of connection points: 2
#     Edge 13, Type (0, 1), BuildingBlock: XUDNAN_clean_linker_2, # of connection points: 2
#     Edge 14, Type (0, 1), BuildingBlock: XUDNAN_clean_linker_2, # of connection points: 2
#     Edge 15, Type (0, 1), BuildingBlock: XUDNAN_clean_linker_2, # of connection points: 2
#     Edge 16, Type (0, 1), BuildingBlock: XUDNAN_clean_linker_2, # of connection points: 2
#     Edge 17, Type (0, 1), BuildingBlock: XUDNAN_clean_linker_2, # of connection points: 2
#     Edge 18, Type (0, 1), BuildingBlock: XUDNAN_clean_linker_2, # of connection points: 2
#     Edge 19, Type (0, 1), BuildingBlock: XUDNAN_clean_linker_2, # of connection points: 2
#     Edge 20, Type (0, 1), BuildingBlock: XUDNAN_clean_linker_2, # of connection points: 2
#     Edge 21, Type (0, 1), BuildingBlock: XUDNAN_clean_linker_2, # of connection points: 2
#     Edge 22, Type (0, 1), BuildingBlock: XUDNAN_clean_linker_2, # of connection points: 2
#     Edge 23, Type (0, 1), BuildingBlock: XUDNAN_clean_linker_2, # of connection points: 2
#     Edge 24, Type (0, 1), BuildingBlock: XUDNAN_clean_linker_2, # of connection points: 2
#     Edge 25, Type (0, 1), BuildingBlock: XUDNAN_clean_linker_2, # of connection points: 2
#     Edge 26, Type (0, 1), BuildingBlock: XUDNAN_clean_linker_2, # of connection points: 2
#     Edge 27, Type (0, 1), BuildingBlock: XUDNAN_clean_linker_2, # of connection points: 2
#     Edge 28, Type (0, 1), BuildingBlock: XUDNAN_clean_linker_2, # of connection points: 2
#     Edge 29, Type (0, 1), BuildingBlock: XUDNAN_clean_linker_2, # of connection points: 2
#     Edge 30, Type (0, 1), BuildingBlock: XUDNAN_clean_linker_2, # of connection points: 2
#     Edge 31, Type (0, 1), BuildingBlock: XUDNAN_clean_linker_2, # of connection points: 2
#     Edge 32, Type (0, 1), BuildingBlock: XUDNAN_clean_linker_2, # of connection points: 2
#     Edge 33, Type (0, 1), BuildingBlock: XUDNAN_clean_linker_2, # of connection points: 2
#     Edge 34, Type (0, 1), BuildingBlock: XUDNAN_clean_linker_2, # of connection points: 2
#     Edge 35, Type (0, 1), BuildingBlock: XUDNAN_clean_linker_2, # of connection points: 2
# Relax obj value: 0.259
# Max RMSD: 0.251
# Mean RMSD: 0.130
data_MOF--net-zzz--node1-PAMTOO_clean_sbu_0--node2-CUQRIR_clean_linker_1--edge1-XUDNAN_clean_linker_2
_symmetry_space_group_name_H-M    P1
_symmetry_Int_Tables_number       1
_symmetry_cell_setting            triclinic
loop_
_symmetry_equiv_pos_as_xyz
'x, y, z'
_cell_length_a     53.305736
_cell_length_b     45.618879
_cell_length_c     14.004024
_cell_angle_alpha  91.914938
_cell_angle_beta   78.449151
_cell_angle_gamma 86.121424
loop_
_atom_site_label
_atom_site_type_symbol
_atom_site_fract_x
_atom_site_fract_y
_atom_site_fract_z
_atom_type_partial_charge
C0 C 0.79311 0.51674 0.5953 0.0
N1 N 0.81368 0.49754 0.59795 0.0
N2 N 0.77876 0.50622 0.53333 0.0
C3 C 0.78803 0.54641 0.64775 0.0
C4 C 0.79101 0.47983 0.50039 0.0
N5 N 0.81225 0.47468 0.53818 0.0
C6 C 0.78152 0.45848 0.43367 0.0
H7 H 0.77691 0.54391 0.72258 0.0
H8 H 0.77665 0.56168 0.60987 0.0
H9 H 0.80634 0.55581 0.65377 0.0
H10 H 0.76021 0.4602 0.44782 0.0
H11 H 0.78851 0.43553 0.44363 0.0
H12 H 0.78861 0.4638 0.35669 0.0
C13 C 1.01948 0.73531 0.54924 0.0
N14 N 1.01218 0.76443 0.56699 0.0
N15 N 1.0094 0.72404 0.47509 0.0
C16 C 0.03692 0.71804 0.60221 0.0
C17 C 0.9961 0.74759 0.44759 0.0
N18 N 0.99773 0.77193 0.5032 0.0
C19 C 0.98503 0.74772 0.35667 0.0
H20 H 0.05713 0.71961 0.56447 0.0
H21 H 0.03284 0.6945 0.60233 0.0
H22 H 0.03465 0.72709 0.67827 0.0
H23 H 0.96876 0.73345 0.36566 0.0
H24 H 0.99978 0.73849 0.29338 0.0
H25 H 0.97792 0.77009 0.341 0.0
C26 C 0.78579 0.01348 0.37612 0.0
N27 N 0.76232 0.02864 0.38808 0.0
N28 N 0.80482 0.02973 0.33022 0.0
C29 C 0.78996 0.98221 0.40297 0.0
C30 C 0.79195 0.05537 0.31671 0.0
N31 N 0.76618 0.05441 0.34738 0.0
C32 C 0.80485 0.08261 0.28221 0.0
H33 H 0.79642 0.98213 0.4735 0.0
H34 H 0.8052 0.97017 0.34702 0.0
H35 H 0.77203 0.97071 0.41111 0.0
H36 H 0.80997 0.0819 0.20143 0.0
H37 H 0.82288 0.08389 0.30987 0.0
H38 H 0.79197 0.10269 0.30766 0.0
C39 C 0.54328 0.76219 0.35202 0.0
N40 N 0.53707 0.73415 0.36844 0.0
N41 N 0.54294 0.76879 0.25832 0.0
C42 C 0.54916 0.78325 0.42766 0.0
C43 C 0.53626 0.74368 0.21842 0.0
N44 N 0.53223 0.72277 0.28561 0.0
C45 C 0.53409 0.73958 0.11325 0.0
H46 H 0.53093 0.79499 0.46709 0.0
H47 H 0.56199 0.79977 0.39318 0.0
H48 H 0.55814 0.77127 0.48145 0.0
H49 H 0.54752 0.7528 0.06502 0.0
H50 H 0.51434 0.74709 0.10621 0.0
H51 H 0.53805 0.71614 0.08756 0.0
C52 C 0.261 0.50024 0.07658 0.0
N53 N 0.23513 0.50218 0.08273 0.0
N54 N 0.26668 0.50089 0.16736 0.0
C55 C 0.28064 0.49726 0.98318 0.0
C56 C 0.2434 0.50311 0.22833 0.0
N57 N 0.22447 0.50394 0.17709 0.0
C58 C 0.23929 0.50507 0.33801 0.0
H59 H 0.29781 0.50884 0.99123 0.0
H60 H 0.27264 0.506 0.92168 0.0
H61 H 0.28676 0.47361 0.96627 0.0
H62 H 0.24177 0.52791 0.36222 0.0
H63 H 0.25375 0.49021 0.36315 0.0
H64 H 0.21979 0.49951 0.37314 0.0
C65 C 0.03873 0.30009 0.14909 0.0
N66 N 0.04919 0.27207 0.12877 0.0
N67 N 0.05007 0.31418 0.21455 0.0
C68 C 1.01605 0.31284 0.11173 0.0
C69 C 0.06772 0.29351 0.23329 0.0
N70 N 0.06714 0.26798 0.1817 0.0
C71 C 0.08374 0.29751 0.30931 0.0
H72 H 1.01751 0.30554 0.03432 0.0
H73 H 1.01463 0.33724 0.11873 0.0
H74 H 0.99828 0.30476 0.15488 0.0
H75 H 0.07105 0.2992 0.3828 0.0
H76 H 0.09347 0.31821 0.2989 0.0
H77 H 0.0986 0.27905 0.30581 0.0
C78 C 0.27231 0.01968 0.24777 0.0
N79 N 0.29544 1.0036 0.22898 0.0
N80 N 0.2538 1.00495 0.30437 0.0
C81 C 0.2678 0.05006 0.21384 0.0
C82 C 0.26677 0.97962 0.32054 0.0
N83 N 0.29182 0.97881 0.27542 0.0
C84 C 0.25595 0.95808 0.39422 0.0
H85 H 0.2711 0.06638 0.26966 0.0
H86 H 0.24766 0.05395 0.20463 0.0
H87 H 0.28122 0.05328 0.14408 0.0
H88 H 0.23769 0.9508 0.37864 0.0
H89 H 0.25165 0.96912 0.46813 0.0
H90 H 0.26946 0.93845 0.3936 0.0
C91 C 0.52407 0.2538 0.31792 0.0
N92 N 0.53066 0.28213 0.31357 0.0
N93 N 0.53419 0.23946 0.38731 0.0
C94 C 0.50638 0.24098 0.25909 0.0
C95 C 0.54723 0.26023 0.42414 0.0
N96 N 0.54504 0.28595 0.3797 0.0
C97 C 0.56128 0.2557 0.50639 0.0
H98 H 0.48625 0.24722 0.29635 0.0
H99 H 0.50877 0.21671 0.25197 0.0
H100 H 0.50949 0.24994 0.1853 0.0
H101 H 0.57774 0.2695 0.50049 0.0
H102 H 0.56851 0.23236 0.5076 0.0
H103 H 0.54789 0.26198 0.57663 0.0
Dy104 Dy 1.02106 0.01921 0.74854 0.0
Dy105 Dy 0.04583 0.01678 0.93844 0.0
C106 C 0.08181 0.02318 0.73132 0.0
O107 O 1.01713 0.97334 0.79718 0.0
O108 O 0.05281 0.97128 0.86344 0.0
O109 O 1.01849 0.99916 0.6092 0.0
O110 O 0.99814 0.04146 0.65787 0.0
O111 O 1.0056 1.00412 0.99283 0.0
O112 O 0.98623 0.02293 0.87312 0.0
O113 O 0.02482 0.06106 0.94253 0.0
O114 O 0.03182 0.06501 0.77906 0.0
O115 O 0.05338 0.0395 0.06654 0.0
O116 O 0.06854 0.9946 0.02973 0.0
C117 C 0.0357 0.95791 0.82546 0.0
O118 O 0.06406 0.01087 0.69424 0.0
O119 O 0.07676 0.03272 0.8231 0.0
C120 C 1.02161 0.0368 0.49746 0.0
C121 C 0.04982 0.07513 0.37319 0.0
C122 C 0.06268 0.05268 0.41427 0.0
C123 C 0.04866 0.03368 0.47634 0.0
C124 C 1.00885 0.05763 0.4492 0.0
C125 C 1.02291 0.07681 0.38756 0.0
C126 C 1.00736 0.02314 0.58347 0.0
C127 C 0.98469 0.01257 0.9611 0.0
C128 C 0.02723 0.07755 0.8671 0.0
C129 C 0.05243 1.00724 0.19379 0.0
C130 C 0.03031 0.97216 0.34359 0.0
C131 C 1.01462 0.98949 0.29449 0.0
C132 C 0.02564 1.00698 0.22018 0.0
C133 C 0.06785 0.99338 0.25135 0.0
C134 C 0.05679 0.97627 0.32701 0.0
C135 C 0.06407 0.01599 0.09631 0.0
H136 H 0.08342 0.05128 0.40457 0.0
H137 H 0.05907 0.01782 0.51246 0.0
H138 H 0.98807 0.0606 0.46514 0.0
H139 H 1.01276 0.09432 0.3568 0.0
H140 H 0.99418 0.98719 0.30538 0.0
H141 H 1.01339 0.01796 0.1772 0.0
H142 H 0.08855 0.99378 0.23285 0.0
H143 H 0.06929 0.96418 0.36652 0.0
Dy144 Dy 0.52539 0.98292 0.74731 0.0
Dy145 Dy 0.53888 0.02415 0.9184 0.0
C146 C 0.527 0.05262 0.72242 0.0
O147 O 0.5658 0.99289 0.68475 0.0
O148 O 0.57816 0.01317 0.81918 0.0
O149 O 0.52121 0.97207 0.6002 0.0
O150 O 0.51509 0.93973 0.71097 0.0
O151 O 0.53176 0.97876 0.97393 0.0
O152 O 0.54986 0.9562 0.8292 0.0
O153 O 0.49575 0.02962 0.94532 0.0
O154 O 0.48788 0.98907 0.85854 0.0
O155 O 0.55578 0.02624 0.04546 0.0
O156 O 0.53582 0.06517 1.0037 0.0
C157 C 0.58365 1.003 0.72713 0.0
O158 O 0.51628 0.02856 0.70268 0.0
O159 O 0.5394 0.0544 0.79455 0.0
C160 C 0.4897 0.93911 0.59183 0.0
C161 C 0.44447 0.92881 0.52641 0.0
C162 C 0.44349 0.9367 0.62511 0.0
C163 C 0.46596 0.94188 0.6576 0.0
C164 C 0.49079 0.9306 0.49421 0.0
C165 C 0.46835 0.92538 0.46159 0.0
C166 C 0.51334 0.94625 0.6225 0.0
C167 C 0.54335 0.95518 0.92382 0.0
C168 C 0.4797 0.01109 0.92298 0.0
C169 C 0.5713 0.07157 0.0767 0.0
C170 C 0.61427 0.09822 0.118 0.0
C171 C 0.61599 0.08158 0.02994 0.0
C172 C 0.59467 0.06854 1.00932 0.0
C173 C 0.56899 0.08924 0.16217 0.0
C174 C 0.59029 0.10264 0.18255 0.0
C175 C 0.55004 0.05445 0.06177 0.0
H176 H 0.4253 0.93947 0.67663 0.0
H177 H 0.46471 0.94865 0.73342 0.0
H178 H 0.509 0.92887 0.44298 0.0
H179 H 0.4695 0.91998 0.3849 0.0
H180 H 0.63413 0.07707 0.97908 0.0
H181 H 0.59675 0.05495 0.94284 0.0
H182 H 0.55096 0.09182 0.21464 0.0
H183 H 0.58818 0.11558 0.2503 0.0
Dy184 Dy 0.55595 0.5146 0.88285 0.0
Dy185 Dy 0.49794 0.51082 0.81134 0.0
C186 C 0.51944 0.45956 0.93796 0.0
O187 O 0.5619 0.47864 0.76773 0.0
O188 O 0.53038 0.49535 0.68953 0.0
O189 O 0.5772 0.50659 0.9952 0.0
O190 O 0.59658 0.5241 0.86 0.0
O191 O 0.50695 0.55769 0.8096 0.0
O192 O 0.55106 0.55401 0.79017 0.0
O193 O 0.48663 0.53443 0.95879 0.0
O194 O 0.52706 0.5415 0.99215 0.0
O195 O 0.47912 0.5222 0.69281 0.0
O196 O 0.45983 0.49592 0.81008 0.0
C197 C 0.55 0.47707 0.69487 0.0
O198 O 0.53866 0.47486 0.95121 0.0
O199 O 0.50319 0.46809 0.88282 0.0
C200 C 0.61664 0.52696 1.00234 0.0
C201 C 0.649 0.53764 0.13717 0.0
C202 C 0.62395 0.55161 0.15082 0.0
C203 C 0.60791 0.54613 0.08474 0.0
C204 C 0.64202 0.51448 0.98526 0.0
C205 C 0.65794 0.51961 0.05165 0.0
C206 C 0.59871 0.51472 0.94554 0.0
C207 C 0.52922 0.56905 0.78525 0.0
C208 C 0.50181 0.54496 0.0134 0.0
C209 C 0.43709 0.50688 0.67678 0.0
C210 C 0.40059 0.50072 0.55592 0.0
C211 C 0.41394 0.52629 0.55557 0.0
C212 C 0.43216 0.52919 0.61449 0.0
C213 C 0.42287 0.48196 0.68076 0.0
C214 C 0.40499 0.4788 0.62048 0.0
C215 C 0.4592 0.5078 0.72677 0.0
H216 H 0.61638 0.56618 0.21411 0.0
H217 H 0.58831 0.55581 0.10038 0.0
H218 H 0.64908 0.49915 0.92341 0.0
H219 H 0.67677 0.50798 0.03815 0.0
H220 H 0.41115 0.54351 0.50645 0.0
H221 H 0.44294 0.54857 0.60921 0.0
H222 H 0.42643 0.46425 0.72711 0.0
H223 H 0.39489 0.45893 0.62316 0.0
Dy224 Dy 1.02442 0.54334 0.79007 0.0
Dy225 Dy 1.02343 0.48912 0.93336 0.0
C226 C 0.02874 0.4765 0.70183 0.0
O227 O 0.98924 0.52126 0.77614 0.0
O228 O 0.98164 0.50084 0.92519 0.0
O229 O 1.00221 0.57885 0.73903 0.0
O230 O 0.04367 0.57513 0.69773 0.0
O231 O 0.03278 0.5294 0.01178 0.0
O232 O 1.00851 0.56144 0.94272 0.0
O233 O 0.06511 0.4915 0.86841 0.0
O234 O 0.06381 0.53967 0.82796 0.0
O235 O 1.01322 0.47516 0.08052 0.0
O236 O 0.03416 0.44451 0.96548 0.0
C237 C 0.9737 0.50923 0.84589 0.0
O238 O 0.03573 0.50344 0.68512 0.0
O239 O 1.02014 0.46812 0.7907 0.0
C240 C 1.02156 0.58971 0.5788 0.0
C241 C 0.0465 0.57004 0.39213 0.0
C242 C 0.05128 0.59767 0.42998 0.0
C243 C 0.03864 0.60757 0.52346 0.0
C244 C 1.0121 0.56645 0.53182 0.0
C245 C 1.02419 0.55709 0.43693 0.0
C246 C 1.02232 0.58801 0.68229 0.0
C247 C 1.02008 0.55503 0.01406 0.0
C248 C 0.07677 0.51556 0.84633 0.0
C249 C 1.00708 0.42517 0.10107 0.0
C250 C 0.96885 0.39061 0.19532 0.0
C251 C 0.98318 0.40676 0.24947 0.0
C252 C 1.00212 0.42382 0.2027 0.0
C253 C 0.99467 0.40688 0.04572 0.0
C254 C 0.97574 0.3895 0.09275 0.0
C255 C 1.02294 0.44822 0.05729 0.0
H256 H 0.06764 0.60916 0.3965 0.0
H257 H 0.04561 0.62614 0.5579 0.0
H258 H 0.99827 0.55279 0.57255 0.0
H259 H 1.01903 0.53672 0.40668 0.0
H260 H 0.97786 0.40897 0.32831 0.0
H261 H 1.01128 0.43797 0.24666 0.0
H262 H 0.9983 0.40751 0.96692 0.0
H263 H 0.96489 0.37735 0.04933 0.0
H264 H 0.20732 0.98296 0.30472 0.0
H265 H 0.24404 0.05088 0.43637 0.0
H266 H 0.20328 0.06474 0.55387 0.0
H267 H 0.14251 0.02419 0.33783 0.0
H268 H 0.12572 0.99149 0.36397 0.0
H269 H 0.15689 0.98904 0.28385 0.0
H270 H 0.1734 0.95044 0.39274 0.0
H271 H 0.14239 0.95297 0.47349 0.0
H272 H 0.17068 0.95938 0.52096 0.0
H273 H 0.16 0.0673 0.66928 0.0
H274 H 0.11668 0.0614 0.76552 0.0
H275 H 0.10635 0.99279 0.55781 0.0
C276 C 0.20647 1.00126 0.35676 0.0
C277 C 0.22881 0.01622 0.3604 0.0
C278 C 0.2271 0.03966 0.43073 0.0
C279 C 0.20404 0.04747 0.49827 0.0
C280 C 0.18256 0.03184 0.49445 0.0
C281 C 0.1834 1.00953 0.42436 0.0
C282 C 0.15778 0.99554 0.43878 0.0
C283 C 0.14497 1.00035 0.35087 0.0
C284 C 0.16128 0.96263 0.45762 0.0
C285 C 0.14267 0.01286 0.5294 0.0
C286 C 0.15739 0.0337 0.5601 0.0
C287 C 0.14824 0.05133 0.64491 0.0
C288 C 0.12355 0.04769 0.69956 0.0
C289 C 0.10785 0.02672 0.66967 0.0
C290 C 0.11763 1.00927 0.5825 0.0
H291 H 0.51933 0.22136 0.57281 0.0
H292 H 0.54521 0.18924 0.27229 0.0
H293 H 0.54277 0.13804 0.3245 0.0
H294 H 0.55966 0.16749 0.66485 0.0
H295 H 0.53725 0.16433 0.77829 0.0
H296 H 0.5375 0.19827 0.71606 0.0
H297 H 0.48915 0.19609 0.71473 0.0
H298 H 0.48877 0.1621 0.77674 0.0
H299 H 0.47824 0.16388 0.66238 0.0
H300 H 0.53754 0.08987 0.41093 0.0
H301 H 0.53476 0.04913 0.52412 0.0
H302 H 0.51935 0.11233 0.77064 0.0
C303 C 0.52438 0.20354 0.51794 0.0
C304 C 0.53163 0.20944 0.41773 0.0
C305 C 0.53847 0.18539 0.34867 0.0
C306 C 0.53748 0.15619 0.37795 0.0
C307 C 0.53047 0.15118 0.47724 0.0
C308 C 0.52452 0.17424 0.54639 0.0
C309 C 0.51998 0.16295 0.64897 0.0
C310 C 0.53978 0.17391 0.70536 0.0
C311 C 0.49239 0.17178 0.70393 0.0
C312 C 0.52413 0.12992 0.6269 0.0
C313 C 0.52966 0.1236 0.52727 0.0
C314 C 0.5334 0.09464 0.48896 0.0
C315 C 0.53167 0.07161 0.55385 0.0
C316 C 0.52693 0.0775 0.65612 0.0
C317 C 0.52317 0.10714 0.69282 0.0
H318 H 0.28574 0.54049 0.27687 0.0
H319 H 0.30196 0.45442 0.12984 0.0
H320 H 0.33948 0.44548 0.20831 0.0
H321 H 0.35343 0.55695 0.26972 0.0
H322 H 0.34562 0.57527 0.38915 0.0
H323 H 0.32214 0.57576 0.31269 0.0
H324 H 0.28992 0.55396 0.45074 0.0
H325 H 0.31338 0.55298 0.52713 0.0
H326 H 0.29895 0.51983 0.50065 0.0
H327 H 0.37204 0.444 0.31896 0.0
H328 H 0.39963 0.45172 0.43871 0.0
H329 H 0.36257 0.53937 0.51286 0.0
C330 C 0.29769 0.52012 0.25939 0.0
C331 C 0.29125 0.49821 0.19645 0.0
C332 C 0.30696 0.47162 0.17621 0.0
C333 C 0.32811 0.46632 0.22125 0.0
C334 C 0.33341 0.48798 0.28587 0.0
C335 C 0.31887 0.51458 0.30359 0.0
C336 C 0.32781 0.53371 0.37927 0.0
C337 C 0.33786 0.56211 0.33504 0.0
C338 C 0.30623 0.54051 0.46979 0.0
C339 C 0.34943 0.51361 0.40268 0.0
C340 C 0.35229 0.48728 0.3483 0.0
C341 C 0.37014 0.46468 0.36087 0.0
C342 C 0.38561 0.46918 0.42973 0.0
C343 C 0.38336 0.49616 0.48523 0.0
C344 C 0.365 0.51864 0.47086 0.0
H345 H 0.07584 0.36253 0.23994 0.0
H346 H 1.00343 0.32396 0.3314 0.0
H347 H 0.98906 0.36475 0.45541 0.0
H348 H 0.08256 0.38358 0.47763 0.0
H349 H 0.09729 0.41725 0.44508 0.0
H350 H 0.10082 0.38711 0.35598 0.0
H351 H 0.08167 0.42065 0.23745 0.0
H352 H 0.07947 0.45063 0.32588 0.0
H353 H 0.0515 0.44174 0.28173 0.0
H354 H 0.98321 0.40723 0.57373 0.0
H355 H 0.98756 0.44664 0.69225 0.0
H356 H 0.06409 0.45908 0.52975 0.0
C357 C 0.05669 0.36326 0.28441 0.0
C358 C 0.04045 0.34046 0.27493 0.0
C359 C 1.01578 0.34164 0.33573 0.0
C360 C 1.00754 0.36464 0.40642 0.0
C361 C 1.02397 0.38672 0.41432 0.0
C362 C 0.04809 0.38624 0.35542 0.0
C363 C 0.06283 0.41118 0.3859 0.0
C364 C 0.08732 0.39904 0.41807 0.0
C365 C 0.06921 0.43227 0.30275 0.0
C366 C 0.04328 0.42563 0.47194 0.0
C367 C 1.02092 0.41115 0.48578 0.0
C368 C 1.00053 0.41883 0.56337 0.0
C369 C 1.00322 0.44123 0.6305 0.0
C370 C 0.0261 0.45596 0.62031 0.0
C371 C 0.04622 0.44854 0.53847 0.0
H372 H 0.83064 0.03562 0.14382 0.0
H373 H 0.84052 1.00485 0.42398 0.0
H374 H 0.88731 0.99478 0.35781 0.0
H375 H 0.87936 0.98529 0.98964 0.0
H376 H 0.88969 0.01265 0.90334 0.0
H377 H 0.85699 0.0149 0.97059 0.0
H378 H 0.86185 0.06775 0.03396 0.0
H379 H 0.89455 0.06568 0.967 0.0
H380 H 0.88752 0.07431 0.09661 0.0
H381 H 0.93383 0.99032 0.26084 0.0
H382 H 0.97517 0.99195 0.1459 0.0
H383 H 0.93548 0.02862 0.92999 0.0
C384 C 0.84266 0.02683 0.19144 0.0
C385 C 0.83181 0.02116 0.2897 0.0
C386 C 0.84823 1.00907 0.34858 0.0
C387 C 0.87487 1.00348 0.3115 0.0
C388 C 0.88498 0.01011 0.21508 0.0
C389 C 0.86929 0.02151 0.15587 0.0
C390 C 0.88494 0.02791 0.05626 0.0
C391 C 0.87729 1.00906 0.97516 0.0
C392 C 0.88204 0.06087 0.03737 0.0
C393 C 0.91204 0.01862 0.06843 0.0
C394 C 0.91159 1.00819 0.16038 0.0
C395 C 0.93424 0.99847 0.18889 0.0
C396 C 0.95779 0.99958 0.12261 0.0
C397 C 0.95897 0.01058 0.02813 0.0
C398 C 0.93552 0.02006 1.00114 0.0
H399 H 0.51457 0.82159 0.2839 0.0
H400 H 0.58489 0.77642 0.12133 0.0
H401 H 0.59355 0.82005 0.02229 0.0
H402 H 0.49538 0.85837 0.08814 0.0
H403 H 0.48361 0.89237 0.15677 0.0
H404 H 0.48362 0.85834 0.21818 0.0
H405 H 0.50993 0.88045 0.33419 0.0
H406 H 0.51106 0.91451 0.27153 0.0
H407 H 0.54038 0.89466 0.28526 0.0
H408 H 0.59247 0.8668 0.93141 0.0
H409 H 0.58369 0.91471 0.86292 0.0
H410 H 0.51515 0.93187 0.089 0.0
C411 C 0.53195 0.82124 0.22842 0.0
C412 C 0.54911 0.79567 0.2096 0.0
C413 C 0.57161 0.79582 0.13632 0.0
C414 C 0.57659 0.82046 0.07976 0.0
C415 C 0.55902 0.84509 0.0981 0.0
C416 C 0.53732 0.84588 0.17149 0.0
C417 C 0.52161 0.87518 0.17548 0.0
C418 C 0.49445 0.87079 0.1586 0.0
C419 C 0.52068 0.89219 0.27252 0.0
C420 C 0.53738 0.89039 0.09129 0.0
C421 C 0.55891 0.87256 0.04778 0.0
C422 C 0.57586 0.88107 0.96591 0.0
C423 C 0.57069 0.90837 0.92738 0.0
C424 C 0.54894 0.92729 0.97109 0.0
C425 C 0.53221 0.91819 0.05498 0.0
H426 H 0.77811 0.5185 0.34677 0.0
H427 H 0.73113 0.52331 0.63748 0.0
H428 H 0.69253 0.53695 0.5691 0.0
H429 H 0.74197 0.57844 0.24327 0.0
H430 H 0.74646 0.55864 0.1268 0.0
H431 H 0.77034 0.554 0.20089 0.0
H432 H 0.76649 0.49773 0.19412 0.0
H433 H 0.7424 0.50215 0.12123 0.0
H434 H 0.73554 0.48359 0.23411 0.0
H435 H 0.65844 0.54332 0.46443 0.0
H436 H 0.63242 0.5437 0.33766 0.0
H437 H 0.70223 0.53561 0.11378 0.0
C438 C 0.75976 0.52337 0.39602 0.0
C439 C 0.75752 0.52026 0.49752 0.0
C440 C 0.73323 0.52617 0.55992 0.0
C441 C 0.71125 0.5337 0.52139 0.0
C442 C 0.71398 0.53541 0.42025 0.0
C443 C 0.73776 0.53076 0.35861 0.0
C444 C 0.73545 0.53157 0.2524 0.0
C445 C 0.74937 0.55719 0.20294 0.0
C446 C 0.74556 0.50201 0.19727 0.0
C447 C 0.70658 0.53675 0.26328 0.0
C448 C 0.69451 0.53909 0.36055 0.0
C449 C 0.6678 0.54211 0.38818 0.0
C450 C 0.65311 0.54251 0.315 0.0
C451 C 0.66498 0.53994 0.21435 0.0
C452 C 0.69223 0.53746 0.18924 0.0
H453 H 0.97704 0.68504 0.42759 0.0
H454 H 0.05731 0.70153 0.39148 0.0
H455 H 0.0689 0.65863 0.27384 0.0
H456 H 0.98597 0.60427 0.40335 0.0
H457 H 0.96082 0.601 0.33562 0.0
H458 H 0.95897 0.63128 0.42343 0.0
H459 H 0.95456 0.6683 0.29081 0.0
H460 H 0.95627 0.63833 0.20219 0.0
H461 H 0.97851 0.66657 0.17943 0.0
H462 H 0.07119 0.61718 0.14759 0.0
H463 H 0.06488 0.57589 0.03771 0.0
H464 H 0.9827 0.58784 0.14738 0.0
C465 C 0.99707 0.67919 0.39605 0.0
C466 C 1.01635 0.69634 0.41953 0.0
C467 C 0.04235 0.68828 0.3763 0.0
C468 C 0.04903 0.66419 0.3085 0.0
C469 C 0.02948 0.64829 0.28466 0.0
C470 C 1.00403 0.65523 0.32798 0.0
C471 C 0.98665 0.63529 0.28687 0.0
C472 C 0.97225 0.61686 0.36708 0.0
C473 C 0.9679 0.65319 0.23686 0.0
C474 C 1.00626 0.61616 0.21303 0.0
C475 C 0.03086 0.62403 0.21317 0.0
C476 C 0.05213 0.61015 0.14943 0.0
C477 C 0.04836 0.5869 0.08677 0.0
C478 C 1.02337 0.57859 0.08489 0.0
C479 C 1.00203 0.59364 0.14813 0.0
H480 H 0.06019 0.24297 0.354 0.0
H481 H 0.09603 0.22841 0.04964 0.0
H482 H 0.1049 0.17559 0.07583 0.0
H483 H 0.1034 0.18064 0.44628 0.0
H484 H 0.07625 0.173 0.53902 0.0
H485 H 0.08066 0.21023 0.50326 0.0
H486 H 0.03496 0.21423 0.46846 0.0
H487 H 0.03053 0.17706 0.50112 0.0
H488 H 0.02624 0.18837 0.3832 0.0
H489 H 0.10022 0.12388 0.12593 0.0
H490 H 0.08142 0.07879 0.19414 0.0
H491 H 0.04876 0.12753 0.46575 0.0
C492 C 0.07134 0.22889 0.29471 0.0
C493 C 0.07798 0.23954 0.20052 0.0
C494 C 0.0913 0.22048 0.12259 0.0
C495 C 0.09654 0.19059 0.13715 0.0
C496 C 0.08876 0.18038 0.23058 0.0
C497 C 0.07684 0.1992 0.30867 0.0
C498 C 0.06663 0.18244 0.39782 0.0
C499 C 0.08271 0.18683 0.47618 0.0
C500 C 0.03792 0.191 0.43971 0.0
C501 C 0.07135 0.1514 0.35373 0.0
C502 C 0.08548 0.15036 0.25913 0.0
C503 C 0.0899 0.12427 0.20087 0.0
C504 C 0.07898 0.09892 0.23936 0.0
C505 C 0.06371 0.10022 0.3343 0.0
C506 C 0.06051 0.12639 0.39281 0.0
H507 H 0.3134 0.99705 0.41927 0.0
H508 H 0.31598 0.92594 0.20529 0.0
H509 H 0.35435 0.90193 0.25591 0.0
H510 H 0.37938 1.00267 0.38005 0.0
H511 H 0.38006 0.0118 0.50575 0.0
H512 H 0.35152 0.02095 0.4595 0.0
H513 H 0.32482 0.99196 0.59537 0.0
H514 H 0.35327 0.98274 0.6426 0.0
H515 H 0.33458 0.95399 0.60938 0.0
H516 H 0.39472 0.88891 0.32184 0.0
H517 H 0.43311 0.88749 0.39697 0.0
H518 H 0.40267 0.96785 0.56713 0.0
C519 C 0.32181 0.97603 0.38533 0.0
C520 C 0.31204 0.96288 0.3099 0.0
C521 C 0.32339 0.93582 0.26427 0.0
C522 C 0.34504 0.92222 0.29253 0.0
C523 C 0.3546 0.93608 0.36677 0.0
C524 C 0.34318 0.96234 0.41275 0.0
C525 C 0.35795 0.97407 0.48505 0.0
C526 C 0.36782 1.00414 0.4558 0.0
C527 C 0.34168 0.97578 0.58928 0.0
C528 C 0.37965 0.95042 0.47274 0.0
C529 C 0.37749 0.92864 0.40439 0.0
C530 C 0.39638 0.90559 0.37653 0.0
C531 C 0.41809 0.90501 0.41923 0.0
C532 C 0.42058 0.92733 0.48885 0.0
C533 C 0.40093 0.95003 0.51636 0.0
H534 H 0.51234 0.33252 0.45098 0.0
H535 H 0.59294 0.30292 0.37707 0.0
H536 H 0.60412 0.35125 0.437 0.0
H537 H 0.52012 0.4097 0.38103 0.0
H538 H 0.49426 0.42314 0.47914 0.0
H539 H 0.49415 0.38698 0.42325 0.0
H540 H 0.48961 0.36569 0.596 0.0
H541 H 0.49069 0.40187 0.64942 0.0
H542 H 0.51344 0.37256 0.66741 0.0
H543 H 0.60544 0.40063 0.52442 0.0
H544 H 0.59711 0.4481 0.62128 0.0
H545 H 0.51594 0.44682 0.62029 0.0
C546 C 0.53232 0.3365 0.44667 0.0
C547 C 0.55183 0.31411 0.41184 0.0
C548 C 0.57781 0.31976 0.4063 0.0
C549 C 0.58427 0.34716 0.43898 0.0
C550 C 0.56448 0.36875 0.47446 0.0
C551 C 0.53904 0.36383 0.47697 0.0
C552 C 0.52127 0.39015 0.52123 0.0
C553 C 0.5066 0.40325 0.44667 0.0
C554 C 0.50267 0.38208 0.614 0.0
C555 C 0.54062 0.41053 0.54513 0.0
C556 C 0.56545 0.3978 0.51826 0.0
C557 C 0.58618 0.41119 0.54328 0.0
C558 C 0.58132 0.43807 0.59817 0.0
C559 C 0.55604 0.45139 0.6255 0.0
C560 C 0.5356 0.43766 0.59692 0.0
H561 H 0.19336 0.55077 0.15422 0.0
H562 H 0.19512 0.46552 0.27986 0.0
H563 H 0.14761 0.47051 0.33153 0.0
H564 H 0.14244 0.58629 0.33355 0.0
H565 H 0.12862 0.60696 0.24679 0.0
H566 H 0.16246 0.59612 0.22126 0.0
H567 H 0.15803 0.56979 0.05703 0.0
H568 H 0.12424 0.58138 0.08457 0.0
H569 H 0.13445 0.54303 0.06036 0.0
H570 H 0.10139 0.48672 0.378 0.0
H571 H 0.05847 0.51192 0.41889 0.0
H572 H 0.08677 0.58573 0.25181 0.0
C573 C 0.18356 0.53336 0.19313 0.0
C574 C 0.19743 0.50801 0.21514 0.0
C575 C 0.18445 0.48531 0.26502 0.0
C576 C 0.15766 0.48787 0.29339 0.0
C577 C 0.14442 0.51305 0.26929 0.0
C578 C 0.15689 0.53535 0.22003 0.0
C579 C 0.13817 0.5602 0.204 0.0
C580 C 0.14321 0.58909 0.25446 0.0
C581 C 0.13882 0.56382 0.09491 0.0
C582 C 0.11322 0.54857 0.25338 0.0
C583 C 0.11727 0.52127 0.28962 0.0
C584 C 0.09756 0.50737 0.34604 0.0
C585 C 0.07311 0.52206 0.36845 0.0
C586 C 0.06873 0.55096 0.33693 0.0
C587 C 0.08897 0.56356 0.27479 0.0
H588 H 0.03528 0.80066 0.40438 0.0
H589 H 0.9548 0.80932 0.54047 0.0
H590 H 0.95359 0.86329 0.51694 0.0
H591 H 0.05176 0.86374 0.51741 0.0
H592 H 0.07541 0.87274 0.4138 0.0
H593 H 0.06827 0.83506 0.43135 0.0
H594 H 0.05751 0.83154 0.25748 0.0
H595 H 0.065 0.86915 0.24082 0.0
H596 H 0.0341 0.85801 0.2265 0.0
H597 H 0.96375 0.91734 0.49664 0.0
H598 H 0.98199 0.96494 0.45502 0.0
H599 H 0.05589 0.91819 0.33427 0.0
C600 C 1.0173 0.814 0.42616 0.0
C601 C 0.99508 0.80144 0.47286 0.0
C602 C 0.97181 0.819 0.50303 0.0
C603 C 0.97109 0.84948 0.49058 0.0
C604 C 0.99392 0.86158 0.44907 0.0
C605 C 1.01646 0.84418 0.41599 0.0
C606 C 0.03871 0.86214 0.37855 0.0
C607 C 0.05977 0.85814 0.43888 0.0
C608 C 0.04945 0.85479 0.26936 0.0
C609 C 0.02535 0.89255 0.39617 0.0
C610 C 0.99961 0.89204 0.43769 0.0
C611 C 0.98379 0.91791 0.46235 0.0
C612 C 0.99434 0.94481 0.43893 0.0
C613 C 1.0204 0.94547 0.39098 0.0
C614 C 0.03607 0.91889 0.37244 0.0
H615 H 0.71736 0.07509 0.44089 0.0
H616 H 0.77096 0.07183 0.16272 0.0
H617 H 0.73873 0.09821 0.08977 0.0
H618 H 0.67005 0.0499 0.33529 0.0
H619 H 0.64336 0.06993 0.41633 0.0
H620 H 0.67258 0.06128 0.45728 0.0
H621 H 0.67532 0.11613 0.50138 0.0
H622 H 0.64615 0.12522 0.45845 0.0
H623 H 0.67496 0.14273 0.4092 0.0
H624 H 0.70015 0.11741 0.03748 0.0
H625 H 0.65705 0.11747 1.00003 0.0
H626 H 0.62589 0.09849 0.30054 0.0
C627 C 0.72243 0.08019 0.36511 0.0
C628 C 0.74723 0.07216 0.30897 0.0
C629 C 0.75279 0.07923 0.20943 0.0
C630 C 0.73444 0.09413 0.1668 0.0
C631 C 0.71005 0.10101 0.22318 0.0
C632 C 0.70375 0.09362 0.31962 0.0
C633 C 0.67488 0.09693 0.35647 0.0
C634 C 0.66461 0.06775 0.39327 0.0
C635 C 0.66739 0.12174 0.43609 0.0
C636 C 0.66608 0.10529 0.26388 0.0
C637 C 0.68675 0.10915 0.18963 0.0
C638 C 0.68377 0.11458 0.09512 0.0
C639 C 0.6592 0.11426 0.07431 0.0
C640 C 0.63809 0.10735 0.14673 0.0
C641 C 0.64145 0.10431 0.24377 0.0
H642 H 0.49404 0.70727 0.19211 0.0
H643 H 0.55323 0.67096 0.33419 0.0
H644 H 0.53619 0.62262 0.33064 0.0
H645 H 0.44391 0.65357 0.24826 0.0
H646 H 0.44038 0.64978 0.12318 0.0
H647 H 0.44914 0.68411 0.17005 0.0
H648 H 0.49 0.68232 0.03232 0.0
H649 H 0.48057 0.6488 0.98386 0.0
H650 H 0.51187 0.64977 0.01378 0.0
H651 H 0.5156 0.57797 0.30354 0.0
H652 H 0.50989 0.53712 0.19339 0.0
H653 H 0.47421 0.598 0.02096 0.0
C654 C 0.5032 0.68925 0.22377 0.0
C655 C 0.52351 0.69373 0.27297 0.0
C656 C 0.53573 0.66908 0.30805 0.0
C657 C 0.52636 0.64129 0.30459 0.0
C658 C 0.50587 0.63775 0.25853 0.0
C659 C 0.49562 0.66065 0.21273 0.0
C660 C 0.48023 0.64913 0.14102 0.0
C661 C 0.45172 0.65979 0.17256 0.0
C662 C 0.49135 0.65801 0.03662 0.0
C663 C 0.48427 0.61616 0.15164 0.0
C664 C 0.49749 0.61048 0.22535 0.0
C665 C 0.50517 0.58203 0.24589 0.0
C666 C 0.50157 0.55889 0.18358 0.0
C667 C 0.49148 0.56452 0.09952 0.0
C668 C 0.48114 0.59314 0.08671 0.0
H669 H 0.83481 0.46353 0.35167 0.0
H670 H 0.83582 0.43644 0.64375 0.0
H671 H 0.87255 0.39998 0.57729 0.0
H672 H 0.85373 0.38887 0.22346 0.0
H673 H 0.87246 0.40526 0.11997 0.0
H674 H 0.84388 0.42504 0.18997 0.0
H675 H 0.8702 0.46922 0.21895 0.0
H676 H 0.89844 0.44986 0.14761 0.0
H677 H 0.89837 0.46293 0.27065 0.0
H678 H 0.91293 0.37289 0.4801 0.0
H679 H 0.95492 0.36278 0.36773 0.0
H680 H 0.9246 0.40542 0.13904 0.0
C681 C 0.84211 0.44901 0.40099 0.0
C682 C 0.83242 0.45218 0.50205 0.0
C683 C 0.84307 0.43399 0.56576 0.0
C684 C 0.86362 0.41308 0.52847 0.0
C685 C 0.87265 0.41036 0.42747 0.0
C686 C 0.86204 0.42787 0.36483 0.0
C687 C 0.87692 0.42378 0.26118 0.0
C688 C 0.86078 0.4099 0.19475 0.0
C689 C 0.88657 0.45316 0.22248 0.0
C690 C 0.89863 0.40251 0.27552 0.0
C691 C 0.8956 0.39436 0.37134 0.0
C692 C 0.9152 0.37852 0.40455 0.0
C693 C 0.93899 0.3728 0.34028 0.0
C694 C 0.94297 0.38343 0.24498 0.0
C695 C 0.92195 0.39631 0.21047 0.0
H696 H 1.02428 0.22447 0.19433 0.0
H697 H 0.05726 0.26702 0.93241 0.0
H698 H 0.05058 0.22343 0.83173 0.0
H699 H 0.05317 0.15388 0.11855 0.0
H700 H 0.02631 0.13521 0.18053 0.0
H701 H 0.03167 0.17131 0.22399 0.0
H702 H 0.9848 0.18814 0.20791 0.0
H703 H 0.98082 0.15215 0.15845 0.0
H704 H 0.97611 0.18421 0.09038 0.0
H705 H 0.04547 0.17196 0.76209 0.0
H706 H 0.04185 0.11879 0.73103 0.0
H707 H 1.01218 0.11015 0.03977 0.0
C708 C 0.02923 0.22486 0.11556 0.0
C709 C 0.04086 0.24921 0.07054 0.0
C710 C 0.04784 0.24878 0.96762 0.0
C711 C 0.04421 0.22406 0.9102 0.0
C712 C 0.03333 0.19997 0.95687 0.0
C713 C 0.02568 0.20037 0.05738 0.0
C714 C 1.0164 0.17091 0.09038 0.0
C715 C 0.03284 0.157 0.15761 0.0
C716 C 0.98783 0.17405 0.13968 0.0
C717 C 1.02082 0.15353 0.99363 0.0
C718 C 0.03034 0.17066 0.91706 0.0
C719 C 0.03766 0.15857 0.82164 0.0
C720 C 0.03558 0.12826 0.80462 0.0
C721 C 0.02664 0.11016 0.88277 0.0
C722 C 1.01885 0.1233 0.97807 0.0
H723 H 0.33171 0.97144 0.09384 0.0
H724 H 0.31767 0.05399 0.26399 0.0
H725 H 0.36261 0.06536 0.20069 0.0
H726 H 0.3948 0.95498 0.13896 0.0
H727 H 0.40791 0.93786 0.01988 0.0
H728 H 0.37415 0.93727 0.07135 0.0
H729 H 0.36283 0.9615 0.91948 0.0
H730 H 0.39651 0.96195 0.86657 0.0
H731 H 0.37606 0.9956 0.88186 0.0
H732 H 0.41023 0.06652 0.12402 0.0
H733 H 0.45554 0.05832 0.03995 0.0
H734 H 0.4399 0.97399 0.92079 0.0
C735 C 0.33803 0.99213 0.11642 0.0
C736 C 0.32077 0.0122 0.18223 0.0
C737 C 0.33002 0.03878 0.21125 0.0
C738 C 0.35571 0.0452 0.17643 0.0
C739 C 0.37225 0.02477 0.11272 0.0
C740 C 0.36372 0.99876 0.08279 0.0
C741 C 0.38568 0.97992 0.01738 0.0
C742 C 0.39095 0.95078 0.0647 0.0
C743 C 0.37992 0.97442 0.91527 0.0
C744 C 0.40788 0.99951 0.01385 0.0
C745 C 0.39968 0.02522 0.06987 0.0
C746 C 0.41671 0.04651 0.07975 0.0
C747 C 0.4426 0.04157 0.03142 0.0
C748 C 0.4517 0.01552 0.97274 0.0
C749 C 0.43382 0.99425 0.96417 0.0
H750 H 0.56299 0.31781 0.20693 0.0
H751 H 0.48298 0.29959 0.28318 0.0
H752 H 0.47151 0.3413 0.18741 0.0
H753 H 0.55125 0.39578 0.23729 0.0
H754 H 0.57724 0.40315 0.13957 0.0
H755 H 0.57901 0.36998 0.20501 0.0
H756 H 0.58646 0.33912 0.04153 0.0
H757 H 0.58445 0.37227 0.97617 0.0
H758 H 0.56359 0.34355 0.96314 0.0
H759 H 0.46899 0.38619 0.08335 0.0
H760 H 0.47501 0.43166 0.9923 0.0
H761 H 0.55616 0.42354 0.99932 0.0
C762 C 0.54308 0.32245 0.20257 0.0
C763 C 0.52396 0.30487 0.25065 0.0
C764 C 0.49808 0.31192 0.24414 0.0
C765 C 0.49138 0.33585 0.19076 0.0
C766 C 0.51071 0.35294 0.14537 0.0
C767 C 0.53603 0.34664 0.15161 0.0
C768 C 0.55298 0.36945 0.10196 0.0
C769 C 0.56587 0.38554 0.17532 0.0
C770 C 0.57305 0.35524 0.01557 0.0
C771 C 0.53325 0.38975 0.06709 0.0
C772 C 0.50903 0.37961 0.09136 0.0
C773 C 0.48786 0.39435 0.06454 0.0
C774 C 0.49148 0.42015 0.01245 0.0
C775 C 0.516 0.4314 0.98897 0.0
C776 C 0.5371 0.41578 0.01683 0.0
H777 H 0.20189 0.46344 0.04434 0.0
H778 H 0.23244 0.54611 0.95945 0.0
H779 H 0.19744 0.55631 0.86929 0.0
H780 H 0.17648 0.44739 0.81424 0.0
H781 H 0.14867 0.43175 0.88282 0.0
H782 H 0.1787 0.42851 0.92366 0.0
H783 H 0.15649 0.45357 0.09372 0.0
H784 H 0.12678 0.45461 0.05128 0.0
H785 H 0.13753 0.48796 0.0954 0.0
H786 H 0.15412 0.56163 0.81708 0.0
H787 H 0.10931 0.55963 0.7954 0.0
H788 H 0.10727 0.47275 0.91212 0.0
C789 C 0.20187 0.48293 1.00235 0.0
C790 C 0.22034 0.50361 1.00629 0.0
C791 C 0.2191 0.52954 0.95425 0.0
C792 C 0.19906 0.53561 0.90391 0.0
C793 C 0.18042 0.51537 0.90533 0.0
C794 C 0.18195 0.48925 0.95198 0.0
C795 C 0.15845 0.47229 0.9501 0.0
C796 C 0.16603 0.44326 0.88905 0.0
C797 C 0.14402 0.46678 0.05384 0.0
C798 C 0.14277 0.4936 0.90007 0.0
C799 C 0.15586 0.51818 0.8735 0.0
C800 C 0.14409 0.54207 0.835 0.0
C801 C 0.11848 0.54082 0.82347 0.0
C802 C 0.10464 0.5159 0.85062 0.0
C803 C 0.1173 0.49192 0.88839 0.0
H804 H 0.98343 0.80528 0.69448 0.0
H805 H 0.06188 0.77413 0.56896 0.0
H806 H 0.07722 0.81801 0.64202 0.0
H807 H 0.98905 0.8793 0.64551 0.0
H808 H 0.96746 0.89269 0.75601 0.0
H809 H 0.96451 0.85672 0.70509 0.0
H810 H 0.96879 0.8362 0.874 0.0
H811 H 0.97324 0.87254 0.91946 0.0
H812 H 0.99702 0.8427 0.92181 0.0
H813 H 0.08347 0.86915 0.71136 0.0
H814 H 0.07986 0.92181 0.76642 0.0
H815 H 0.99703 0.9208 0.8364 0.0
C816 C 1.00387 0.80727 0.68564 0.0
C817 C 1.0215 0.78582 0.62828 0.0
C818 C 0.0481 0.78956 0.61569 0.0
C819 C 0.05693 0.81467 0.65617 0.0
C820 C 0.03894 0.83597 0.70922 0.0
C821 C 1.01291 0.83237 0.7245 0.0
C822 C 0.99736 0.85951 0.77665 0.0
C823 C 0.97847 0.87276 0.71712 0.0
C824 C 0.98327 0.8523 0.87907 0.0
C825 C 1.01851 0.87971 0.78241 0.0
C826 C 0.04244 0.86552 0.74596 0.0
C827 C 0.0648 0.88024 0.74102 0.0
C828 C 0.0626 0.91018 0.77259 0.0
C829 C 0.03819 0.9254 0.80598 0.0
C830 C 1.01596 0.90972 0.81171 0.0
H831 H 0.73455 0.036 0.5752 0.0
H832 H 0.7329 0.99923 0.2881 0.0
H833 H 0.68816 0.98628 0.34749 0.0
H834 H 0.69299 0.98278 0.71731 0.0
H835 H 0.67698 0.01049 0.80788 0.0
H836 H 0.70971 0.01387 0.74646 0.0
H837 H 0.69675 0.06548 0.69169 0.0
H838 H 0.6642 0.06199 0.75443 0.0
H839 H 0.67081 0.06971 0.62707 0.0
H840 H 0.64282 0.98085 0.43337 0.0
H841 H 0.60008 0.98179 0.53861 0.0
H842 H 0.62881 0.02334 0.77482 0.0
C843 C 0.72486 0.02449 0.52604 0.0
C844 C 0.7373 0.01808 0.42708 0.0
C845 C 0.72387 1.00382 0.36399 0.0
C846 C 0.69845 0.99648 0.39735 0.0
C847 C 0.68647 1.0036 0.49447 0.0
C848 C 0.69919 0.01727 0.55828 0.0
C849 C 0.68114 0.02405 0.65738 0.0
C850 C 0.69078 1.00677 0.73698 0.0
C851 C 0.67806 0.05727 0.68408 0.0
C852 C 0.65611 0.01289 0.63837 0.0
C853 C 0.65987 1.00099 0.54399 0.0
C854 C 0.63979 0.98984 0.50764 0.0
C855 C 0.61536 0.99058 0.56869 0.0
C856 C 0.61059 1.00252 0.66632 0.0
C857 C 0.63153 0.01385 0.70125 0.0
H858 H 0.57307 0.70246 0.44317 0.0
H859 H 0.49235 0.7309 0.49414 0.0
H860 H 0.48352 0.69663 0.62819 0.0
H861 H 0.56279 0.62848 0.45612 0.0
H862 H 0.58962 0.61786 0.51097 0.0
H863 H 0.59053 0.64973 0.43845 0.0
H864 H 0.59921 0.6812 0.58486 0.0
H865 H 0.59788 0.64916 0.65728 0.0
H866 H 0.57718 0.68176 0.70094 0.0
H867 H 0.48243 0.65566 0.7403 0.0
H868 H 0.48747 0.60827 0.81368 0.0
H869 H 0.56851 0.59991 0.67721 0.0
C870 C 0.5538 0.7023 0.48623 0.0
C871 C 0.53334 0.7197 0.46026 0.0
C872 C 0.50818 0.71816 0.51453 0.0
C873 C 0.50307 0.69864 0.59029 0.0
C874 C 0.52333 0.68035 0.61008 0.0
C875 C 0.54823 0.68178 0.55927 0.0
C876 C 0.56559 0.65629 0.58366 0.0
C877 C 0.57785 0.63697 0.49181 0.0
C878 C 0.58619 0.66779 0.63474 0.0
C879 C 0.5464 0.63982 0.65357 0.0
C880 C 0.52236 0.65477 0.66966 0.0
C881 C 0.50117 0.64383 0.72827 0.0
C882 C 0.5043 0.61661 0.76935 0.0
C883 C 0.52838 0.59983 0.75078 0.0
C884 C 0.5499 0.61209 0.69366 0.0
H885 H 0.86508 0.49874 0.5254 0.0
H886 H 0.8081 0.50315 0.794 0.0
H887 H 0.84268 0.50458 0.88932 0.0
H888 H 0.9128 0.45179 0.6096 0.0
H889 H 0.93965 0.46975 0.54391 0.0
H890 H 0.91043 0.46922 0.49786 0.0
H891 H 0.9074 0.5261 0.4954 0.0
H892 H 0.9367 0.52683 0.54057 0.0
H893 H 0.908 0.54759 0.60523 0.0
H894 H 0.88467 0.50372 0.95533 0.0
H895 H 0.92901 0.50587 0.98442 0.0
H896 H 0.95811 0.50324 0.67184 0.0
C897 C 0.85996 0.50012 0.60431 0.0
C898 C 0.83389 0.50085 0.65262 0.0
C899 C 0.82791 0.5028 0.75588 0.0
C900 C 0.84747 0.50338 0.81039 0.0
C901 C 0.87305 0.5021 0.76067 0.0
C902 C 0.87927 0.50079 0.65971 0.0
C903 C 0.90815 0.50002 0.62357 0.0
C904 C 0.91836 0.47098 0.56529 0.0
C905 C 0.91549 0.52673 0.56262 0.0
C906 C 0.91724 0.5017 0.71971 0.0
C907 C 0.89681 0.50236 0.79817 0.0
C908 C 0.90073 0.50341 0.89416 0.0
C909 C 0.92602 0.5045 0.9102 0.0
C910 C 0.94711 0.50502 0.83081 0.0
C911 C 0.94245 0.50322 0.73448 0.0
loop_
_geom_bond_atom_site_label_1
_geom_bond_atom_site_label_2
_geom_bond_distance
_geom_bond_site_symmetry_2
_ccdc_geom_bond_type
C0 N1 1.317 . S
C0 N2 1.348 . S
C0 C3 1.485 . S
N1 C0 1.317 . S
N1 N5 1.370 . S
N2 C0 1.348 . S
N2 C4 1.346 . S
C3 C0 1.485 . S
C3 H7 0.960 . S
C3 H8 0.961 . S
C3 H9 0.960 . S
C4 N2 1.346 . S
C4 N5 1.307 . S
C4 C6 1.486 . S
N5 N1 1.370 . S
N5 C4 1.307 . S
C6 C4 1.486 . S
C6 H10 0.960 . S
C6 H11 0.960 . S
C6 H12 0.959 . S
H7 C3 0.960 . S
H8 C3 0.961 . S
H9 C3 0.960 . S
H10 C6 0.960 . S
H11 C6 0.960 . S
H12 C6 0.959 . S
C13 N14 1.317 . S
C13 N15 1.348 . S
C13 C16 1.485 . S
N14 C13 1.317 . S
N14 N18 1.368 . S
N15 C13 1.348 . S
N15 C17 1.346 . S
C16 C13 1.485 . S
C16 H20 0.960 1_655 S
C16 H21 0.961 . S
C16 H22 0.960 . S
C17 N15 1.346 . S
C17 N18 1.310 . S
C17 C19 1.492 1_655 S
N18 N14 1.368 . S
N18 C17 1.310 . S
C19 C17 1.492 1_455 S
C19 H23 0.931 1_455 S
C19 H24 0.979 . S
C19 H25 0.965 . S
H20 C16 0.960 1_455 S
H21 C16 0.961 . S
H22 C16 0.960 . S
H23 C19 0.931 1_655 S
H24 C19 0.979 . S
H25 C19 0.965 . S
C26 N27 1.317 . S
C26 N28 1.354 . S
C26 C29 1.485 . S
N27 C26 1.317 . S
N27 N31 1.371 . S
N28 C26 1.354 . S
N28 C30 1.346 1_565 S
C29 C26 1.485 . S
C29 H33 0.960 1_565 S
C29 H34 0.961 . S
C29 H35 0.960 . S
C30 N28 1.346 1_545 S
C30 N31 1.305 1_545 S
C30 C32 1.486 . S
N31 N27 1.371 . S
N31 C30 1.305 1_565 S
C32 C30 1.486 . S
C32 H36 0.960 1_545 S
C32 H37 0.960 . S
C32 H38 0.959 . S
H33 C29 0.960 1_545 S
H34 C29 0.961 . S
H35 C29 0.960 . S
H36 C32 0.960 1_565 S
H37 C32 0.960 . S
H38 C32 0.959 . S
C39 N40 1.317 . S
C39 N41 1.348 . S
C39 C42 1.485 . S
N40 C39 1.317 . S
N40 N44 1.370 . S
N41 C39 1.348 . S
N41 C43 1.346 . S
C42 C39 1.485 . S
C42 H46 0.960 . S
C42 H47 0.961 . S
C42 H48 0.960 . S
C43 N41 1.346 . S
C43 N44 1.307 . S
C43 C45 1.486 . S
N44 N40 1.370 . S
N44 C43 1.307 . S
C45 C43 1.486 . S
C45 H49 0.960 . S
C45 H50 0.960 . S
C45 H51 0.959 . S
H46 C42 0.960 . S
H47 C42 0.961 . S
H48 C42 0.960 . S
H49 C45 0.960 . S
H50 C45 0.960 . S
H51 C45 0.959 . S
C52 N53 1.317 . S
C52 N54 1.348 1_556 S
C52 C55 1.485 . S
N53 C52 1.317 . S
N53 N57 1.370 1_556 S
N54 C52 1.348 1_554 S
N54 C56 1.346 . S
C55 C52 1.485 . S
C55 H59 0.960 . S
C55 H60 0.961 . S
C55 H61 0.960 . S
C56 N54 1.346 . S
C56 N57 1.307 . S
C56 C58 1.486 . S
N57 N53 1.370 1_554 S
N57 C56 1.307 . S
C58 C56 1.486 . S
C58 H62 0.960 . S
C58 H63 0.960 . S
C58 H64 0.959 . S
H59 C55 0.960 . S
H60 C55 0.961 . S
H61 C55 0.960 . S
H62 C58 0.960 . S
H63 C58 0.960 . S
H64 C58 0.959 . S
C65 N66 1.317 . S
C65 N67 1.348 . S
C65 C68 1.485 1_554 S
N66 C65 1.317 . S
N66 N70 1.370 . S
N67 C65 1.348 . S
N67 C69 1.346 . S
C68 C65 1.485 1_556 S
C68 H72 0.960 . S
C68 H73 0.961 1_456 S
C68 H74 0.960 1_455 S
C69 N67 1.346 . S
C69 N70 1.307 . S
C69 C71 1.486 . S
N70 N66 1.370 . S
N70 C69 1.307 . S
C71 C69 1.486 . S
C71 H75 0.960 1_455 S
C71 H76 0.960 . S
C71 H77 0.959 . S
H72 C68 0.960 . S
H73 C68 0.961 1_654 S
H74 C68 0.960 1_655 S
H75 C71 0.960 1_655 S
H76 C71 0.960 . S
H77 C71 0.959 . S
C78 N79 1.317 . S
C78 N80 1.347 . S
C78 C81 1.485 . S
N79 C78 1.317 . S
N79 N83 1.370 . S
N80 C78 1.347 . S
N80 C82 1.344 1_565 S
C81 C78 1.485 . S
C81 H85 0.960 1_565 S
C81 H86 0.961 . S
C81 H87 0.960 . S
C82 N80 1.344 1_545 S
C82 N83 1.308 1_545 S
C82 C84 1.486 . S
N83 N79 1.370 . S
N83 C82 1.308 1_565 S
C84 C82 1.486 . S
C84 H88 0.960 1_545 S
C84 H89 0.960 . S
C84 H90 0.959 . S
H85 C81 0.960 1_545 S
H86 C81 0.961 . S
H87 C81 0.960 . S
H88 C84 0.960 1_565 S
H89 C84 0.960 . S
H90 C84 0.959 . S
C91 N92 1.317 . S
C91 N93 1.348 . S
C91 C94 1.485 . S
N92 C91 1.317 . S
N92 N96 1.370 . S
N93 C91 1.348 . S
N93 C95 1.346 . S
C94 C91 1.485 . S
C94 H98 0.960 . S
C94 H99 0.961 . S
C94 H100 0.960 . S
C95 N93 1.346 . S
C95 N96 1.307 . S
C95 C97 1.486 . S
N96 N92 1.370 . S
N96 C95 1.307 . S
C97 C95 1.486 . S
C97 H101 0.960 . S
C97 H102 0.960 . S
C97 H103 0.959 . S
H98 C94 0.960 . S
H99 C94 0.961 . S
H100 C94 0.960 . S
H101 C97 0.960 . S
H102 C97 0.960 . S
H103 C97 0.959 . S
Dy104 O107 2.307 1_545 S
Dy104 O109 2.395 1_655 S
Dy104 O110 2.379 . S
Dy104 O112 2.339 . S
Dy104 O114 2.298 . S
Dy104 O118 2.275 1_655 S
Dy104 C126 2.738 . S
Dy105 O108 2.298 . S
Dy105 O111 2.275 1_455 S
Dy105 O113 2.307 1_565 S
Dy105 O115 2.395 1_456 S
Dy105 O116 2.379 . S
Dy105 O119 2.339 . S
Dy105 C135 2.738 1_556 S
C106 O118 1.254 1_565 S
C106 O119 1.257 . S
O107 Dy104 2.307 1_565 S
O107 C117 1.266 . S
O108 Dy105 2.298 . S
O108 C117 1.236 1_455 S
O109 Dy104 2.395 1_455 S
O109 C126 1.255 1_455 S
O110 Dy104 2.379 . S
O110 C126 1.249 . S
O111 Dy105 2.275 1_655 S
O111 C127 1.254 1_565 S
O112 Dy104 2.339 . S
O112 C127 1.257 . S
O113 Dy105 2.307 1_545 S
O113 C128 1.266 . S
O114 Dy104 2.298 . S
O114 C128 1.236 1_655 S
O115 Dy105 2.395 1_654 S
O115 C135 1.255 1_655 S
O116 Dy105 2.379 . S
O116 C135 1.249 1_556 S
C117 O107 1.266 . S
C117 O108 1.236 1_655 S
O118 Dy104 2.275 1_455 S
O118 C106 1.254 1_545 S
O119 Dy105 2.339 . S
O119 C106 1.257 . S
C120 C123 1.344 1_655 S
C120 C124 1.328 . S
C120 C126 1.516 . S
C121 C122 1.304 1_655 S
C121 C125 1.323 . S
C122 C121 1.304 1_455 S
C122 C123 1.371 . S
C122 H136 0.930 . S
C123 C120 1.344 1_455 S
C123 C122 1.371 . S
C123 H137 0.931 . S
C124 C120 1.328 . S
C124 C125 1.433 . S
C124 H138 0.931 . S
C125 C121 1.323 . S
C125 C124 1.433 . S
C125 H139 0.933 . S
C126 Dy104 2.738 . S
C126 O109 1.255 1_655 S
C126 O110 1.249 . S
C126 C120 1.516 . S
C127 O111 1.254 1_545 S
C127 O112 1.257 . S
C128 O113 1.266 . S
C128 O114 1.236 1_455 S
C129 C132 1.344 1_455 S
C129 C133 1.328 . S
C129 C135 1.516 . S
C130 C131 1.290 1_455 S
C130 C134 1.323 . S
C131 C130 1.290 1_655 S
C131 C132 1.372 . S
C131 H140 0.944 . S
C132 C129 1.344 1_655 S
C132 C131 1.372 . S
C132 H141 0.931 . S
C133 C129 1.328 . S
C133 C134 1.433 . S
C133 H142 0.931 . S
C134 C130 1.323 . S
C134 C133 1.433 . S
C134 H143 0.933 . S
C135 Dy105 2.738 1_554 S
C135 O115 1.255 1_455 S
C135 O116 1.249 1_554 S
C135 C129 1.516 . S
H136 C122 0.930 . S
H137 C123 0.931 . S
H138 C124 0.931 . S
H139 C125 0.933 . S
H140 C131 0.944 . S
H141 C132 0.931 . S
H142 C133 0.931 . S
H143 C134 0.933 . S
Dy144 O147 2.307 . S
Dy144 O149 2.395 1_565 S
Dy144 O150 2.379 . S
Dy144 O152 2.339 . S
Dy144 O154 2.298 . S
Dy144 O158 2.275 1_565 S
Dy144 C166 2.738 . S
Dy145 O148 2.298 . S
Dy145 O151 2.275 1_545 S
Dy145 O153 2.307 . S
Dy145 O155 2.395 1_546 S
Dy145 O156 2.379 . S
Dy145 O159 2.339 . S
Dy145 C175 2.738 1_556 S
C146 O158 1.254 . S
C146 O159 1.257 . S
O147 Dy144 2.307 . S
O147 C157 1.266 . S
O148 Dy145 2.298 . S
O148 C157 1.236 1_545 S
O149 Dy144 2.395 1_545 S
O149 C166 1.255 1_545 S
O150 Dy144 2.379 . S
O150 C166 1.249 . S
O151 Dy145 2.275 1_565 S
O151 C167 1.254 . S
O152 Dy144 2.339 . S
O152 C167 1.257 . S
O153 Dy145 2.307 . S
O153 C168 1.266 . S
O154 Dy144 2.298 . S
O154 C168 1.236 1_565 S
O155 Dy145 2.395 1_564 S
O155 C175 1.255 1_565 S
O156 Dy145 2.379 . S
O156 C175 1.249 1_556 S
C157 O147 1.266 . S
C157 O148 1.236 1_565 S
O158 Dy144 2.275 1_545 S
O158 C146 1.254 . S
O159 Dy145 2.339 . S
O159 C146 1.257 . S
C160 C163 1.344 1_565 S
C160 C164 1.328 . S
C160 C166 1.516 . S
C161 C162 1.298 1_565 S
C161 C165 1.323 . S
C162 C161 1.298 1_545 S
C162 C163 1.372 . S
C162 H176 0.936 . S
C163 C160 1.344 1_545 S
C163 C162 1.372 . S
C163 H177 0.931 . S
C164 C160 1.328 . S
C164 C165 1.433 . S
C164 H178 0.931 . S
C165 C161 1.323 . S
C165 C164 1.433 . S
C165 H179 0.933 . S
C166 Dy144 2.738 . S
C166 O149 1.255 1_565 S
C166 O150 1.249 . S
C166 C160 1.516 . S
C167 O151 1.254 . S
C167 O152 1.257 . S
C168 O153 1.266 . S
C168 O154 1.236 1_545 S
C169 C172 1.344 1_545 S
C169 C173 1.328 . S
C169 C175 1.516 . S
C170 C171 1.306 1_545 S
C170 C174 1.323 . S
C171 C170 1.306 1_565 S
C171 C172 1.371 . S
C171 H180 0.929 . S
C172 C169 1.344 1_565 S
C172 C171 1.371 . S
C172 H181 0.931 . S
C173 C169 1.328 . S
C173 C174 1.433 . S
C173 H182 0.931 . S
C174 C170 1.323 . S
C174 C173 1.433 . S
C174 H183 0.933 . S
C175 Dy145 2.738 1_554 S
C175 O155 1.255 1_545 S
C175 O156 1.249 1_554 S
C175 C169 1.516 . S
H176 C162 0.936 . S
H177 C163 0.931 . S
H178 C164 0.931 . S
H179 C165 0.933 . S
H180 C171 0.929 . S
H181 C172 0.931 . S
H182 C173 0.931 . S
H183 C174 0.933 . S
Dy184 O187 2.307 . S
Dy184 O189 2.395 . S
Dy184 O190 2.379 . S
Dy184 O192 2.339 . S
Dy184 O194 2.298 . S
Dy184 O198 2.275 . S
Dy184 C206 2.738 . S
Dy185 O188 2.298 . S
Dy185 O191 2.275 . S
Dy185 O193 2.307 . S
Dy185 O195 2.395 . S
Dy185 O196 2.379 . S
Dy185 O199 2.339 . S
Dy185 C215 2.738 . S
C186 O198 1.254 . S
C186 O199 1.257 . S
O187 Dy184 2.307 . S
O187 C197 1.266 . S
O188 Dy185 2.298 . S
O188 C197 1.236 . S
O189 Dy184 2.395 . S
O189 C206 1.255 . S
O190 Dy184 2.379 . S
O190 C206 1.249 . S
O191 Dy185 2.275 . S
O191 C207 1.254 . S
O192 Dy184 2.339 . S
O192 C207 1.257 . S
O193 Dy185 2.307 . S
O193 C208 1.266 . S
O194 Dy184 2.298 . S
O194 C208 1.236 . S
O195 Dy185 2.395 . S
O195 C215 1.255 . S
O196 Dy185 2.379 . S
O196 C215 1.249 . S
C197 O187 1.266 . S
C197 O188 1.236 . S
O198 Dy184 2.275 . S
O198 C186 1.254 . S
O199 Dy185 2.339 . S
O199 C186 1.257 . S
C200 C203 1.344 1_556 S
C200 C204 1.328 . S
C200 C206 1.516 . S
C201 C202 1.304 . S
C201 C205 1.323 . S
C202 C201 1.304 . S
C202 C203 1.371 . S
C202 H216 0.930 . S
C203 C200 1.344 1_554 S
C203 C202 1.371 . S
C203 H217 0.931 . S
C204 C200 1.328 . S
C204 C205 1.433 1_556 S
C204 H218 0.931 . S
C205 C201 1.323 . S
C205 C204 1.433 1_554 S
C205 H219 0.933 1_554 S
C206 Dy184 2.738 . S
C206 O189 1.255 . S
C206 O190 1.249 . S
C206 C200 1.516 . S
C207 O191 1.254 . S
C207 O192 1.257 . S
C208 O193 1.266 . S
C208 O194 1.236 . S
C209 C212 1.344 . S
C209 C213 1.328 . S
C209 C215 1.516 . S
C210 C211 1.304 . S
C210 C214 1.323 . S
C211 C210 1.304 . S
C211 C212 1.371 . S
C211 H220 0.930 . S
C212 C209 1.344 . S
C212 C211 1.371 . S
C212 H221 0.931 . S
C213 C209 1.328 . S
C213 C214 1.433 . S
C213 H222 0.931 . S
C214 C210 1.323 . S
C214 C213 1.433 . S
C214 H223 0.933 . S
C215 Dy185 2.738 . S
C215 O195 1.255 . S
C215 O196 1.249 . S
C215 C209 1.516 . S
H216 C202 0.930 . S
H217 C203 0.931 . S
H218 C204 0.931 . S
H219 C205 0.933 1_556 S
H220 C211 0.930 . S
H221 C212 0.931 . S
H222 C213 0.931 . S
H223 C214 0.933 . S
Dy224 O227 2.307 1_455 S
Dy224 O229 2.395 . S
Dy224 O230 2.379 . S
Dy224 O232 2.339 . S
Dy224 O234 2.298 . S
Dy224 O238 2.275 . S
Dy224 C246 2.738 . S
Dy225 O228 2.298 . S
Dy225 O231 2.281 . S
Dy225 O233 2.307 1_655 S
Dy225 O235 2.395 1_556 S
Dy225 O236 2.379 1_556 S
Dy225 O239 2.339 . S
Dy225 C255 2.738 1_556 S
C226 O238 1.254 . S
C226 O239 1.257 1_455 S
O227 Dy224 2.307 1_655 S
O227 C237 1.266 . S
O228 Dy225 2.298 . S
O228 C237 1.236 . S
O229 Dy224 2.395 . S
O229 C246 1.255 . S
O230 Dy224 2.379 . S
O230 C246 1.249 . S
O231 Dy225 2.281 . S
O231 C247 1.249 1_655 S
O232 Dy224 2.339 . S
O232 C247 1.257 . S
O233 Dy225 2.307 1_455 S
O233 C248 1.266 . S
O234 Dy224 2.298 . S
O234 C248 1.236 . S
O235 Dy225 2.395 1_554 S
O235 C255 1.255 . S
O236 Dy225 2.379 1_554 S
O236 C255 1.249 . S
C237 O227 1.266 . S
C237 O228 1.236 . S
O238 Dy224 2.275 . S
O238 C226 1.254 . S
O239 Dy225 2.339 . S
O239 C226 1.257 1_655 S
C240 C243 1.344 . S
C240 C244 1.328 . S
C240 C246 1.516 . S
C241 C242 1.304 . S
C241 C245 1.323 . S
C242 C241 1.304 . S
C242 C243 1.371 . S
C242 H256 0.930 . S
C243 C240 1.344 . S
C243 C242 1.371 . S
C243 H257 0.931 . S
C244 C240 1.328 . S
C244 C245 1.433 . S
C244 H258 0.931 . S
C245 C241 1.323 . S
C245 C244 1.433 . S
C245 H259 0.933 . S
C246 Dy224 2.738 . S
C246 O229 1.255 . S
C246 O230 1.249 . S
C246 C240 1.516 . S
C247 O231 1.249 1_455 S
C247 O232 1.257 . S
C248 O233 1.266 . S
C248 O234 1.236 . S
C249 C252 1.344 . S
C249 C253 1.328 . S
C249 C255 1.516 . S
C250 C251 1.304 . S
C250 C254 1.323 . S
C251 C250 1.304 . S
C251 C252 1.371 . S
C251 H260 0.930 . S
C252 C249 1.344 . S
C252 C251 1.371 . S
C252 H261 0.931 . S
C253 C249 1.328 . S
C253 C254 1.433 . S
C253 H262 0.931 . S
C254 C250 1.323 . S
C254 C253 1.433 . S
C254 H263 0.933 . S
C255 Dy225 2.738 1_554 S
C255 O235 1.255 . S
C255 O236 1.249 . S
C255 C249 1.516 . S
H256 C242 0.930 . S
H257 C243 0.931 . S
H258 C244 0.931 . S
H259 C245 0.933 . S
H260 C251 0.930 . S
H261 C252 0.931 . S
H262 C253 0.931 . S
H263 C254 0.933 . S
H264 C276 0.930 . S
H265 C278 0.930 . S
H266 C279 0.930 . S
H267 C283 0.959 . S
H268 C283 0.959 . S
H269 C283 0.961 . S
H270 C284 0.960 . S
H271 C284 0.961 . S
H272 C284 0.959 . S
H273 C287 0.929 . S
H274 C288 0.931 . S
H275 C290 0.930 . S
C276 H264 0.930 . S
C276 C277 1.399 1_565 S
C276 C281 1.399 . S
C277 C276 1.399 1_545 S
C277 C278 1.376 . S
C278 H265 0.930 . S
C278 C277 1.376 . S
C278 C279 1.388 . S
C279 H266 0.930 . S
C279 C278 1.388 . S
C279 C280 1.390 . S
C280 C279 1.390 . S
C280 C281 1.394 1_545 S
C280 C286 1.465 . S
C281 C276 1.399 . S
C281 C280 1.394 1_565 S
C281 C282 1.516 . S
C282 C281 1.516 . S
C282 C283 1.502 . S
C282 C284 1.561 . S
C282 C285 1.526 . S
C283 H267 0.959 . S
C283 H268 0.959 . S
C283 H269 0.961 . S
C283 C282 1.502 . S
C284 H270 0.960 . S
C284 H271 0.961 . S
C284 H272 0.959 . S
C284 C282 1.561 . S
C285 C282 1.526 . S
C285 C286 1.396 1_565 S
C285 C290 1.390 . S
C286 C280 1.465 . S
C286 C285 1.396 1_545 S
C286 C287 1.399 . S
C287 H273 0.929 . S
C287 C286 1.399 . S
C287 C288 1.385 . S
C288 H274 0.931 . S
C288 C287 1.385 . S
C288 C289 1.389 . S
C289 C288 1.389 . S
C289 C290 1.387 1_545 S
C290 H275 0.930 . S
C290 C285 1.390 . S
C290 C289 1.387 1_565 S
H291 C303 0.930 . S
H292 C305 0.930 . S
H293 C306 0.930 . S
H294 C310 0.959 . S
H295 C310 0.959 . S
H296 C310 0.961 . S
H297 C311 0.960 . S
H298 C311 0.961 . S
H299 C311 0.959 . S
H300 C314 0.929 . S
H301 C315 0.931 . S
H302 C317 0.930 . S
C303 H291 0.930 . S
C303 C304 1.399 . S
C303 C308 1.399 . S
C304 C303 1.399 . S
C304 C305 1.376 . S
C305 H292 0.930 . S
C305 C304 1.376 . S
C305 C306 1.388 . S
C306 H293 0.930 . S
C306 C305 1.388 . S
C306 C307 1.390 . S
C307 C306 1.390 . S
C307 C308 1.394 . S
C307 C313 1.465 . S
C308 C303 1.399 . S
C308 C307 1.394 . S
C308 C309 1.516 . S
C309 C308 1.516 . S
C309 C310 1.502 . S
C309 C311 1.561 . S
C309 C312 1.526 . S
C310 H294 0.959 . S
C310 H295 0.959 . S
C310 H296 0.961 . S
C310 C309 1.502 . S
C311 H297 0.960 . S
C311 H298 0.961 . S
C311 H299 0.959 . S
C311 C309 1.561 . S
C312 C309 1.526 . S
C312 C313 1.396 . S
C312 C317 1.390 . S
C313 C307 1.465 . S
C313 C312 1.396 . S
C313 C314 1.399 . S
C314 H300 0.929 . S
C314 C313 1.399 . S
C314 C315 1.385 . S
C315 H301 0.931 . S
C315 C314 1.385 . S
C315 C316 1.389 . S
C316 C315 1.389 . S
C316 C317 1.387 . S
C317 H302 0.930 . S
C317 C312 1.390 . S
C317 C316 1.387 . S
H318 C330 0.930 . S
H319 C332 0.930 . S
H320 C333 0.930 . S
H321 C337 0.959 . S
H322 C337 0.959 . S
H323 C337 0.961 . S
H324 C338 0.960 . S
H325 C338 0.961 . S
H326 C338 0.959 . S
H327 C341 0.929 . S
H328 C342 0.931 . S
H329 C344 0.930 . S
C330 H318 0.930 . S
C330 C331 1.399 . S
C330 C335 1.399 . S
C331 C330 1.399 . S
C331 C332 1.376 . S
C332 H319 0.930 . S
C332 C331 1.376 . S
C332 C333 1.388 . S
C333 H320 0.930 . S
C333 C332 1.388 . S
C333 C334 1.390 . S
C334 C333 1.390 . S
C334 C335 1.394 . S
C334 C340 1.465 . S
C335 C330 1.399 . S
C335 C334 1.394 . S
C335 C336 1.516 . S
C336 C335 1.516 . S
C336 C337 1.502 . S
C336 C338 1.561 . S
C336 C339 1.526 . S
C337 H321 0.959 . S
C337 H322 0.959 . S
C337 H323 0.961 . S
C337 C336 1.502 . S
C338 H324 0.960 . S
C338 H325 0.961 . S
C338 H326 0.959 . S
C338 C336 1.561 . S
C339 C336 1.526 . S
C339 C340 1.396 . S
C339 C344 1.390 . S
C340 C334 1.465 . S
C340 C339 1.396 . S
C340 C341 1.399 . S
C341 H327 0.929 . S
C341 C340 1.399 . S
C341 C342 1.385 . S
C342 H328 0.931 . S
C342 C341 1.385 . S
C342 C343 1.389 . S
C343 C342 1.389 . S
C343 C344 1.387 . S
C344 H329 0.930 . S
C344 C339 1.390 . S
C344 C343 1.387 . S
H345 C357 0.930 . S
H346 C359 0.930 . S
H347 C360 0.930 . S
H348 C364 0.959 . S
H349 C364 0.959 . S
H350 C364 0.961 . S
H351 C365 0.960 . S
H352 C365 0.961 . S
H353 C365 0.959 . S
H354 C368 0.929 . S
H355 C369 0.931 . S
H356 C371 0.930 . S
C357 H345 0.930 . S
C357 C358 1.399 . S
C357 C362 1.399 . S
C358 C357 1.399 . S
C358 C359 1.376 . S
C359 H346 0.930 . S
C359 C358 1.376 . S
C359 C360 1.388 . S
C360 H347 0.930 . S
C360 C359 1.388 . S
C360 C361 1.390 . S
C361 C360 1.390 . S
C361 C362 1.394 . S
C361 C367 1.465 . S
C362 C357 1.399 . S
C362 C361 1.394 . S
C362 C363 1.516 . S
C363 C362 1.516 . S
C363 C364 1.502 . S
C363 C365 1.561 1_455 S
C363 C366 1.526 . S
C364 H348 0.959 . S
C364 H349 0.959 . S
C364 H350 0.961 . S
C364 C363 1.502 . S
C365 H351 0.960 . S
C365 H352 0.961 . S
C365 H353 0.959 . S
C365 C363 1.561 1_655 S
C366 C363 1.526 . S
C366 C367 1.396 . S
C366 C371 1.390 . S
C367 C361 1.465 . S
C367 C366 1.396 . S
C367 C368 1.399 . S
C368 H354 0.929 . S
C368 C367 1.399 . S
C368 C369 1.385 . S
C369 H355 0.931 . S
C369 C368 1.385 . S
C369 C370 1.389 . S
C370 C369 1.389 . S
C370 C371 1.387 . S
C371 H356 0.930 . S
C371 C366 1.390 . S
C371 C370 1.387 . S
H372 C384 0.930 . S
H373 C386 0.930 . S
H374 C387 0.930 . S
H375 C391 0.959 . S
H376 C391 0.959 . S
H377 C391 0.961 . S
H378 C392 0.960 . S
H379 C392 0.961 . S
H380 C392 0.959 . S
H381 C395 0.929 . S
H382 C396 0.931 . S
H383 C398 0.930 . S
C384 H372 0.930 . S
C384 C385 1.399 1_565 S
C384 C389 1.399 . S
C385 C384 1.399 1_545 S
C385 C386 1.376 . S
C386 H373 0.930 . S
C386 C385 1.376 . S
C386 C387 1.388 . S
C387 H374 0.930 . S
C387 C386 1.388 . S
C387 C388 1.390 . S
C388 C387 1.390 . S
C388 C389 1.394 1_545 S
C388 C394 1.465 . S
C389 C384 1.399 . S
C389 C388 1.394 1_565 S
C389 C390 1.516 . S
C390 C389 1.516 . S
C390 C391 1.502 . S
C390 C392 1.561 . S
C390 C393 1.526 . S
C391 H375 0.959 . S
C391 H376 0.959 . S
C391 H377 0.961 . S
C391 C390 1.502 . S
C392 H378 0.960 . S
C392 H379 0.961 . S
C392 H380 0.959 . S
C392 C390 1.561 . S
C393 C390 1.526 . S
C393 C394 1.396 1_565 S
C393 C398 1.390 . S
C394 C388 1.465 . S
C394 C393 1.396 1_545 S
C394 C395 1.399 . S
C395 H381 0.929 . S
C395 C394 1.399 . S
C395 C396 1.385 1_554 S
C396 H382 0.931 . S
C396 C395 1.385 1_556 S
C396 C397 1.389 . S
C397 C396 1.389 . S
C397 C398 1.387 1_546 S
C398 H383 0.930 . S
C398 C393 1.390 . S
C398 C397 1.387 1_564 S
H399 C411 0.930 . S
H400 C413 0.930 . S
H401 C414 0.930 1_556 S
H402 C418 0.959 . S
H403 C418 0.959 . S
H404 C418 0.961 . S
H405 C419 0.960 . S
H406 C419 0.961 . S
H407 C419 0.959 . S
H408 C422 0.929 . S
H409 C423 0.931 . S
H410 C425 0.930 . S
C411 H399 0.930 . S
C411 C412 1.399 . S
C411 C416 1.399 . S
C412 C411 1.399 . S
C412 C413 1.376 . S
C413 H400 0.930 . S
C413 C412 1.376 . S
C413 C414 1.388 . S
C414 H401 0.930 1_554 S
C414 C413 1.388 . S
C414 C415 1.390 . S
C415 C414 1.390 . S
C415 C416 1.394 . S
C415 C421 1.465 1_554 S
C416 C411 1.399 . S
C416 C415 1.394 . S
C416 C417 1.516 . S
C417 C416 1.516 . S
C417 C418 1.502 . S
C417 C419 1.561 . S
C417 C420 1.526 . S
C418 H402 0.959 . S
C418 H403 0.959 . S
C418 H404 0.961 . S
C418 C417 1.502 . S
C419 H405 0.960 . S
C419 H406 0.961 . S
C419 H407 0.959 . S
C419 C417 1.561 . S
C420 C417 1.526 . S
C420 C421 1.396 1_554 S
C420 C425 1.390 . S
C421 C415 1.465 1_556 S
C421 C420 1.396 1_556 S
C421 C422 1.399 . S
C422 H408 0.929 . S
C422 C421 1.399 . S
C422 C423 1.385 . S
C423 H409 0.931 . S
C423 C422 1.385 . S
C423 C424 1.389 . S
C424 C423 1.389 . S
C424 C425 1.387 1_556 S
C425 H410 0.930 . S
C425 C420 1.390 . S
C425 C424 1.387 1_554 S
H426 C438 0.930 . S
H427 C440 0.930 . S
H428 C441 0.930 . S
H429 C445 0.959 . S
H430 C445 0.959 . S
H431 C445 0.961 . S
H432 C446 0.960 . S
H433 C446 0.961 . S
H434 C446 0.959 . S
H435 C449 0.929 . S
H436 C450 0.931 . S
H437 C452 0.930 . S
C438 H426 0.930 . S
C438 C439 1.399 . S
C438 C443 1.399 . S
C439 C438 1.399 . S
C439 C440 1.376 . S
C440 H427 0.930 . S
C440 C439 1.376 . S
C440 C441 1.388 . S
C441 H428 0.930 . S
C441 C440 1.388 . S
C441 C442 1.390 . S
C442 C441 1.390 . S
C442 C443 1.394 . S
C442 C448 1.465 . S
C443 C438 1.399 . S
C443 C442 1.394 . S
C443 C444 1.516 . S
C444 C443 1.516 . S
C444 C445 1.502 . S
C444 C446 1.561 . S
C444 C447 1.526 . S
C445 H429 0.959 . S
C445 H430 0.959 . S
C445 H431 0.961 . S
C445 C444 1.502 . S
C446 H432 0.960 . S
C446 H433 0.961 . S
C446 H434 0.959 . S
C446 C444 1.561 . S
C447 C444 1.526 . S
C447 C448 1.396 . S
C447 C452 1.390 . S
C448 C442 1.465 . S
C448 C447 1.396 . S
C448 C449 1.399 . S
C449 H435 0.929 . S
C449 C448 1.399 . S
C449 C450 1.385 . S
C450 H436 0.931 . S
C450 C449 1.385 . S
C450 C451 1.389 . S
C451 C450 1.389 . S
C451 C452 1.387 . S
C452 H437 0.930 . S
C452 C447 1.390 . S
C452 C451 1.387 . S
H453 C465 0.930 . S
H454 C467 0.930 . S
H455 C468 0.930 . S
H456 C472 0.959 . S
H457 C472 0.959 . S
H458 C472 0.961 . S
H459 C473 0.960 . S
H460 C473 0.961 . S
H461 C473 0.959 . S
H462 C476 0.929 . S
H463 C477 0.931 . S
H464 C479 0.930 1_556 S
C465 H453 0.930 . S
C465 C466 1.399 1_655 S
C465 C470 1.396 . S
C466 C465 1.399 1_455 S
C466 C467 1.376 . S
C467 H454 0.930 . S
C467 C466 1.376 . S
C467 C468 1.388 . S
C468 H455 0.930 . S
C468 C467 1.388 . S
C468 C469 1.390 . S
C469 C468 1.390 . S
C469 C470 1.383 1_455 S
C469 C475 1.465 . S
C470 C465 1.396 . S
C470 C469 1.383 1_655 S
C470 C471 1.531 . S
C471 C470 1.531 . S
C471 C472 1.502 . S
C471 C473 1.561 1_655 S
C471 C474 1.526 . S
C472 H456 0.959 . S
C472 H457 0.959 . S
C472 H458 0.961 . S
C472 C471 1.502 . S
C473 H459 0.960 . S
C473 H460 0.961 . S
C473 H461 0.959 . S
C473 C471 1.561 1_455 S
C474 C471 1.526 . S
C474 C475 1.385 1_655 S
C474 C479 1.400 . S
C475 C469 1.465 . S
C475 C474 1.385 1_455 S
C475 C476 1.399 . S
C476 H462 0.929 . S
C476 C475 1.399 . S
C476 C477 1.385 . S
C477 H463 0.931 . S
C477 C476 1.385 . S
C477 C478 1.389 . S
C478 C477 1.389 . S
C478 C479 1.387 1_455 S
C479 H464 0.930 1_554 S
C479 C474 1.400 . S
C479 C478 1.387 1_655 S
H480 C492 0.930 . S
H481 C494 0.930 . S
H482 C495 0.930 . S
H483 C499 0.959 . S
H484 C499 0.959 . S
H485 C499 0.961 . S
H486 C500 0.960 . S
H487 C500 0.961 . S
H488 C500 0.959 . S
H489 C503 0.929 . S
H490 C504 0.931 . S
H491 C506 0.930 . S
C492 H480 0.930 . S
C492 C493 1.399 1_655 S
C492 C497 1.399 . S
C493 C492 1.399 1_455 S
C493 C494 1.376 . S
C494 H481 0.930 . S
C494 C493 1.376 . S
C494 C495 1.388 . S
C495 H482 0.930 . S
C495 C494 1.388 . S
C495 C496 1.390 . S
C496 C495 1.390 . S
C496 C497 1.394 1_455 S
C496 C502 1.465 . S
C497 C492 1.399 . S
C497 C496 1.394 1_655 S
C497 C498 1.516 . S
C498 C497 1.516 . S
C498 C499 1.502 . S
C498 C500 1.561 . S
C498 C501 1.526 . S
C499 H483 0.959 . S
C499 H484 0.959 . S
C499 H485 0.961 . S
C499 C498 1.502 . S
C500 H486 0.960 . S
C500 H487 0.961 . S
C500 H488 0.959 . S
C500 C498 1.561 . S
C501 C498 1.526 . S
C501 C502 1.396 1_655 S
C501 C506 1.390 . S
C502 C496 1.465 . S
C502 C501 1.396 1_455 S
C502 C503 1.399 . S
C503 H489 0.929 . S
C503 C502 1.399 . S
C503 C504 1.385 . S
C504 H490 0.931 . S
C504 C503 1.385 . S
C504 C505 1.389 1_455 S
C505 C504 1.389 1_655 S
C505 C506 1.387 . S
C506 H491 0.930 . S
C506 C501 1.390 . S
C506 C505 1.387 . S
H507 C519 0.930 . S
H508 C521 0.930 . S
H509 C522 0.930 . S
H510 C526 0.959 . S
H511 C526 0.959 . S
H512 C526 0.961 . S
H513 C527 0.960 . S
H514 C527 0.961 . S
H515 C527 0.959 . S
H516 C530 0.929 . S
H517 C531 0.931 . S
H518 C533 0.930 . S
C519 H507 0.930 . S
C519 C520 1.406 . S
C519 C524 1.399 1_545 S
C520 C519 1.406 . S
C520 C521 1.364 1_545 S
C521 H508 0.930 . S
C521 C520 1.364 1_565 S
C521 C522 1.388 . S
C522 H509 0.930 . S
C522 C521 1.388 . S
C522 C523 1.390 . S
C523 C522 1.390 . S
C523 C524 1.394 . S
C523 C529 1.465 . S
C524 C519 1.399 1_565 S
C524 C523 1.394 . S
C524 C525 1.516 . S
C525 C524 1.516 . S
C525 C526 1.502 . S
C525 C527 1.561 1_565 S
C525 C528 1.526 . S
C526 H510 0.959 . S
C526 H511 0.959 . S
C526 H512 0.961 . S
C526 C525 1.502 . S
C527 H513 0.960 . S
C527 H514 0.961 . S
C527 H515 0.959 . S
C527 C525 1.561 1_545 S
C528 C525 1.526 . S
C528 C529 1.396 . S
C528 C533 1.390 . S
C529 C523 1.465 . S
C529 C528 1.396 . S
C529 C530 1.399 . S
C530 H516 0.929 . S
C530 C529 1.399 . S
C530 C531 1.385 . S
C531 H517 0.931 . S
C531 C530 1.385 . S
C531 C532 1.389 . S
C532 C531 1.389 . S
C532 C533 1.387 . S
C533 H518 0.930 . S
C533 C528 1.390 . S
C533 C532 1.387 . S
H534 C546 0.930 . S
H535 C548 0.930 . S
H536 C549 0.930 . S
H537 C553 0.959 . S
H538 C553 0.959 . S
H539 C553 0.961 . S
H540 C554 0.960 . S
H541 C554 0.961 . S
H542 C554 0.959 . S
H543 C557 0.929 . S
H544 C558 0.931 . S
H545 C560 0.930 . S
C546 H534 0.930 . S
C546 C547 1.399 . S
C546 C551 1.399 . S
C547 C546 1.399 . S
C547 C548 1.376 . S
C548 H535 0.930 . S
C548 C547 1.376 . S
C548 C549 1.388 . S
C549 H536 0.930 . S
C549 C548 1.388 . S
C549 C550 1.390 . S
C550 C549 1.390 . S
C550 C551 1.394 . S
C550 C556 1.465 . S
C551 C546 1.399 . S
C551 C550 1.394 . S
C551 C552 1.516 . S
C552 C551 1.516 . S
C552 C553 1.502 . S
C552 C554 1.561 . S
C552 C555 1.526 . S
C553 H537 0.959 . S
C553 H538 0.959 . S
C553 H539 0.961 . S
C553 C552 1.502 . S
C554 H540 0.960 . S
C554 H541 0.961 . S
C554 H542 0.959 . S
C554 C552 1.561 . S
C555 C552 1.526 . S
C555 C556 1.396 . S
C555 C560 1.390 . S
C556 C550 1.465 . S
C556 C555 1.396 . S
C556 C557 1.399 . S
C557 H543 0.929 . S
C557 C556 1.399 . S
C557 C558 1.385 . S
C558 H544 0.931 . S
C558 C557 1.385 . S
C558 C559 1.389 . S
C559 C558 1.389 . S
C559 C560 1.387 . S
C560 H545 0.930 . S
C560 C555 1.390 . S
C560 C559 1.387 . S
H561 C573 0.930 . S
H562 C575 0.930 . S
H563 C576 0.930 . S
H564 C580 0.959 . S
H565 C580 0.959 . S
H566 C580 0.961 . S
H567 C581 0.960 . S
H568 C581 0.961 . S
H569 C581 0.959 . S
H570 C584 0.929 . S
H571 C585 0.931 . S
H572 C587 0.930 . S
C573 H561 0.930 . S
C573 C574 1.399 . S
C573 C578 1.399 . S
C574 C573 1.399 . S
C574 C575 1.376 . S
C575 H562 0.930 . S
C575 C574 1.376 . S
C575 C576 1.388 . S
C576 H563 0.930 . S
C576 C575 1.388 . S
C576 C577 1.390 . S
C577 C576 1.390 . S
C577 C578 1.394 . S
C577 C583 1.465 . S
C578 C573 1.399 . S
C578 C577 1.394 . S
C578 C579 1.516 . S
C579 C578 1.516 . S
C579 C580 1.502 . S
C579 C581 1.561 . S
C579 C582 1.526 . S
C580 H564 0.959 . S
C580 H565 0.959 . S
C580 H566 0.961 . S
C580 C579 1.502 . S
C581 H567 0.960 . S
C581 H568 0.961 . S
C581 H569 0.959 . S
C581 C579 1.561 . S
C582 C579 1.526 . S
C582 C583 1.396 . S
C582 C587 1.390 . S
C583 C577 1.465 . S
C583 C582 1.396 . S
C583 C584 1.399 . S
C584 H570 0.929 . S
C584 C583 1.399 . S
C584 C585 1.385 . S
C585 H571 0.931 . S
C585 C584 1.385 . S
C585 C586 1.389 . S
C586 C585 1.389 . S
C586 C587 1.387 . S
C587 H572 0.930 . S
C587 C582 1.390 . S
C587 C586 1.387 . S
H588 C600 0.930 . S
H589 C602 0.930 . S
H590 C603 0.930 . S
H591 C607 0.959 . S
H592 C607 0.959 . S
H593 C607 0.961 . S
H594 C608 0.960 . S
H595 C608 0.961 . S
H596 C608 0.959 . S
H597 C611 0.929 . S
H598 C612 0.931 . S
H599 C614 0.930 . S
C600 H588 0.930 . S
C600 C601 1.399 1_455 S
C600 C605 1.399 . S
C601 C600 1.399 1_655 S
C601 C602 1.376 . S
C602 H589 0.930 . S
C602 C601 1.376 . S
C602 C603 1.388 . S
C603 H590 0.930 . S
C603 C602 1.388 . S
C603 C604 1.390 1_655 S
C604 C603 1.390 1_455 S
C604 C605 1.394 . S
C604 C610 1.465 . S
C605 C600 1.399 . S
C605 C604 1.394 . S
C605 C606 1.516 . S
C606 C605 1.516 . S
C606 C607 1.502 . S
C606 C608 1.561 1_455 S
C606 C609 1.526 . S
C607 H591 0.959 . S
C607 H592 0.959 . S
C607 H593 0.961 . S
C607 C606 1.502 . S
C608 H594 0.960 . S
C608 H595 0.961 . S
C608 H596 0.959 . S
C608 C606 1.561 1_655 S
C609 C606 1.526 . S
C609 C610 1.396 . S
C609 C614 1.390 . S
C610 C604 1.465 . S
C610 C609 1.396 . S
C610 C611 1.399 . S
C611 H597 0.929 . S
C611 C610 1.399 . S
C611 C612 1.385 . S
C612 H598 0.931 . S
C612 C611 1.385 . S
C612 C613 1.389 . S
C613 C612 1.389 . S
C613 C614 1.387 . S
C614 H599 0.930 . S
C614 C609 1.390 . S
C614 C613 1.387 . S
H615 C627 0.930 . S
H616 C629 0.930 . S
H617 C630 0.930 . S
H618 C634 0.959 . S
H619 C634 0.959 . S
H620 C634 0.961 . S
H621 C635 0.960 . S
H622 C635 0.961 . S
H623 C635 0.959 . S
H624 C638 0.929 . S
H625 C639 0.914 1_565 S
H626 C641 0.930 . S
C627 H615 0.930 . S
C627 C628 1.399 1_545 S
C627 C632 1.399 . S
C628 C627 1.399 1_565 S
C628 C629 1.376 . S
C629 H616 0.930 . S
C629 C628 1.376 . S
C629 C630 1.388 . S
C630 H617 0.930 . S
C630 C629 1.388 . S
C630 C631 1.377 1_565 S
C631 C630 1.377 1_545 S
C631 C632 1.406 . S
C631 C637 1.468 . S
C632 C627 1.399 . S
C632 C631 1.406 . S
C632 C633 1.516 . S
C633 C632 1.516 . S
C633 C634 1.502 . S
C633 C635 1.561 . S
C633 C636 1.526 . S
C634 H618 0.959 . S
C634 H619 0.959 . S
C634 H620 0.961 . S
C634 C633 1.502 . S
C635 H621 0.960 . S
C635 H622 0.961 . S
C635 H623 0.959 . S
C635 C633 1.561 . S
C636 C633 1.526 . S
C636 C637 1.396 . S
C636 C641 1.390 . S
C637 C631 1.468 . S
C637 C636 1.396 . S
C637 C638 1.399 1_545 S
C638 H624 0.929 . S
C638 C637 1.399 1_565 S
C638 C639 1.376 1_565 S
C639 H625 0.914 1_545 S
C639 C638 1.376 1_545 S
C639 C640 1.416 . S
C640 C639 1.416 . S
C640 C641 1.387 . S
C641 H626 0.930 . S
C641 C636 1.390 . S
C641 C640 1.387 . S
H642 C654 0.930 . S
H643 C656 0.930 . S
H644 C657 0.930 . S
H645 C661 0.959 . S
H646 C661 0.959 . S
H647 C661 0.961 . S
H648 C662 0.960 . S
H649 C662 0.961 . S
H650 C662 0.959 . S
H651 C665 0.929 . S
H652 C666 0.931 . S
H653 C668 0.930 . S
C654 H642 0.930 . S
C654 C655 1.399 . S
C654 C659 1.399 . S
C655 C654 1.399 . S
C655 C656 1.376 . S
C656 H643 0.930 . S
C656 C655 1.376 . S
C656 C657 1.388 . S
C657 H644 0.930 . S
C657 C656 1.388 . S
C657 C658 1.390 . S
C658 C657 1.390 . S
C658 C659 1.394 . S
C658 C664 1.465 . S
C659 C654 1.399 . S
C659 C658 1.394 . S
C659 C660 1.516 1_554 S
C660 C659 1.516 1_556 S
C660 C661 1.502 . S
C660 C662 1.561 . S
C660 C663 1.526 1_556 S
C661 H645 0.959 . S
C661 H646 0.959 . S
C661 H647 0.961 . S
C661 C660 1.502 . S
C662 H648 0.960 . S
C662 H649 0.961 . S
C662 H650 0.959 . S
C662 C660 1.561 . S
C663 C660 1.526 1_554 S
C663 C664 1.396 . S
C663 C668 1.390 1_554 S
C664 C658 1.465 . S
C664 C663 1.396 . S
C664 C665 1.399 . S
C665 H651 0.929 . S
C665 C664 1.399 . S
C665 C666 1.385 . S
C666 H652 0.931 . S
C666 C665 1.385 . S
C666 C667 1.389 . S
C667 C666 1.389 . S
C667 C668 1.387 1_554 S
C668 H653 0.930 . S
C668 C663 1.390 1_556 S
C668 C667 1.387 1_556 S
H669 C681 0.930 . S
H670 C683 0.930 . S
H671 C684 0.930 . S
H672 C688 0.959 . S
H673 C688 0.959 . S
H674 C688 0.961 . S
H675 C689 0.960 . S
H676 C689 0.961 . S
H677 C689 0.959 . S
H678 C692 0.929 . S
H679 C693 0.931 . S
H680 C695 0.930 . S
C681 H669 0.930 . S
C681 C682 1.399 . S
C681 C686 1.399 . S
C682 C681 1.399 . S
C682 C683 1.376 . S
C683 H670 0.930 . S
C683 C682 1.376 . S
C683 C684 1.388 . S
C684 H671 0.930 . S
C684 C683 1.388 . S
C684 C685 1.390 . S
C685 C684 1.390 . S
C685 C686 1.394 . S
C685 C691 1.465 . S
C686 C681 1.399 . S
C686 C685 1.394 . S
C686 C687 1.516 . S
C687 C686 1.516 . S
C687 C688 1.502 . S
C687 C689 1.561 . S
C687 C690 1.526 . S
C688 H672 0.959 . S
C688 H673 0.959 . S
C688 H674 0.961 . S
C688 C687 1.502 . S
C689 H675 0.960 . S
C689 H676 0.961 . S
C689 H677 0.959 . S
C689 C687 1.561 . S
C690 C687 1.526 . S
C690 C691 1.396 . S
C690 C695 1.390 . S
C691 C685 1.465 . S
C691 C690 1.396 . S
C691 C692 1.399 . S
C692 H678 0.929 . S
C692 C691 1.399 . S
C692 C693 1.385 . S
C693 H679 0.931 . S
C693 C692 1.385 . S
C693 C694 1.389 . S
C694 C693 1.389 . S
C694 C695 1.387 . S
C695 H680 0.930 . S
C695 C690 1.390 . S
C695 C694 1.387 . S
H696 C708 0.930 . S
H697 C710 0.930 1_655 S
H698 C711 0.922 1_655 S
H699 C715 0.959 . S
H700 C715 0.959 . S
H701 C715 0.961 . S
H702 C716 0.960 . S
H703 C716 0.961 . S
H704 C716 0.959 . S
H705 C719 0.929 1_655 S
H706 C720 0.931 . S
H707 C722 0.930 . S
C708 H696 0.930 . S
C708 C709 1.399 . S
C708 C713 1.399 . S
C709 C708 1.399 . S
C709 C710 1.376 1_554 S
C710 H697 0.930 1_455 S
C710 C709 1.376 1_556 S
C710 C711 1.393 . S
C711 H698 0.922 1_455 S
C711 C710 1.393 . S
C711 C712 1.395 . S
C712 C711 1.395 . S
C712 C713 1.394 1_556 S
C712 C718 1.465 . S
C713 C708 1.399 . S
C713 C712 1.394 1_554 S
C713 C714 1.516 . S
C714 C713 1.516 . S
C714 C715 1.502 . S
C714 C716 1.561 1_455 S
C714 C717 1.526 . S
C715 H699 0.959 . S
C715 H700 0.959 . S
C715 H701 0.961 . S
C715 C714 1.502 . S
C716 H702 0.960 . S
C716 H703 0.961 . S
C716 H704 0.959 . S
C716 C714 1.561 1_655 S
C717 C714 1.526 . S
C717 C718 1.396 1_554 S
C717 C722 1.390 . S
C718 C712 1.465 . S
C718 C717 1.396 1_556 S
C718 C719 1.399 . S
C719 H705 0.929 1_455 S
C719 C718 1.399 . S
C719 C720 1.385 . S
C720 H706 0.931 . S
C720 C719 1.385 . S
C720 C721 1.389 . S
C721 C720 1.389 . S
C721 C722 1.387 1_556 S
C722 H707 0.930 . S
C722 C717 1.390 . S
C722 C721 1.387 1_554 S
H723 C735 0.936 . S
H724 C737 0.930 . S
H725 C738 0.930 . S
H726 C742 0.959 . S
H727 C742 0.959 . S
H728 C742 0.961 . S
H729 C743 0.970 . S
H730 C743 0.961 1_565 S
H731 C743 0.959 . S
H732 C746 0.929 . S
H733 C747 0.931 . S
H734 C749 0.930 . S
C735 H723 0.936 . S
C735 C736 1.399 1_565 S
C735 C740 1.399 . S
C736 C735 1.399 1_545 S
C736 C737 1.376 . S
C737 H724 0.930 . S
C737 C736 1.376 . S
C737 C738 1.388 . S
C738 H725 0.930 . S
C738 C737 1.388 . S
C738 C739 1.390 . S
C739 C738 1.390 . S
C739 C740 1.394 1_545 S
C739 C745 1.465 . S
C740 C735 1.399 . S
C740 C739 1.394 1_565 S
C740 C741 1.516 1_554 S
C741 C740 1.516 1_556 S
C741 C742 1.502 . S
C741 C743 1.561 1_565 S
C741 C744 1.526 1_565 S
C742 H726 0.959 . S
C742 H727 0.959 . S
C742 H728 0.961 . S
C742 C741 1.502 . S
C743 H729 0.970 . S
C743 H730 0.961 1_545 S
C743 H731 0.959 . S
C743 C741 1.561 1_545 S
C744 C741 1.526 1_545 S
C744 C745 1.396 1_556 S
C744 C749 1.390 1_545 S
C745 C739 1.465 . S
C745 C744 1.396 1_554 S
C745 C746 1.399 . S
C746 H732 0.929 . S
C746 C745 1.399 . S
C746 C747 1.385 . S
C747 H733 0.931 . S
C747 C746 1.385 . S
C747 C748 1.389 1_554 S
C748 C747 1.389 1_556 S
C748 C749 1.387 1_545 S
C749 H734 0.930 . S
C749 C744 1.390 1_565 S
C749 C748 1.387 1_565 S
H750 C762 0.930 . S
H751 C764 0.930 . S
H752 C765 0.930 . S
H753 C769 0.959 . S
H754 C769 0.959 . S
H755 C769 0.961 . S
H756 C770 0.960 . S
H757 C770 0.961 . S
H758 C770 0.959 . S
H759 C773 0.929 1_556 S
H760 C774 0.931 . S
H761 C776 0.930 . S
C762 H750 0.930 . S
C762 C763 1.399 . S
C762 C767 1.399 . S
C763 C762 1.399 . S
C763 C764 1.376 . S
C764 H751 0.930 . S
C764 C763 1.376 . S
C764 C765 1.388 . S
C765 H752 0.930 . S
C765 C764 1.388 . S
C765 C766 1.390 . S
C766 C765 1.390 . S
C766 C767 1.394 . S
C766 C772 1.465 . S
C767 C762 1.399 . S
C767 C766 1.394 . S
C767 C768 1.516 . S
C768 C767 1.516 . S
C768 C769 1.502 . S
C768 C770 1.561 . S
C768 C771 1.526 . S
C769 H753 0.959 . S
C769 H754 0.959 . S
C769 H755 0.961 . S
C769 C768 1.502 . S
C770 H756 0.960 . S
C770 H757 0.961 . S
C770 H758 0.959 . S
C770 C768 1.561 . S
C771 C768 1.526 . S
C771 C772 1.396 . S
C771 C776 1.390 . S
C772 C766 1.465 . S
C772 C771 1.396 . S
C772 C773 1.399 . S
C773 H759 0.929 1_554 S
C773 C772 1.399 . S
C773 C774 1.385 1_554 S
C774 H760 0.931 . S
C774 C773 1.385 1_556 S
C774 C775 1.389 1_556 S
C775 C774 1.389 1_554 S
C775 C776 1.387 . S
C776 H761 0.930 . S
C776 C771 1.390 . S
C776 C775 1.387 . S
H777 C789 0.930 . S
H778 C791 0.930 1_554 S
H779 C792 0.930 . S
H780 C796 0.959 . S
H781 C796 0.959 . S
H782 C796 0.961 . S
H783 C797 0.960 . S
H784 C797 0.961 . S
H785 C797 0.959 . S
H786 C800 0.929 1_554 S
H787 C801 0.930 1_554 S
H788 C803 0.930 . S
C789 H777 0.930 . S
C789 C790 1.399 . S
C789 C794 1.399 . S
C790 C789 1.399 . S
C790 C791 1.376 . S
C791 H778 0.930 1_556 S
C791 C790 1.376 . S
C791 C792 1.388 1_556 S
C792 H779 0.930 . S
C792 C791 1.388 1_554 S
C792 C793 1.390 1_554 S
C793 C792 1.390 1_556 S
C793 C794 1.394 . S
C793 C799 1.465 . S
C794 C789 1.399 . S
C794 C793 1.394 . S
C794 C795 1.516 . S
C795 C794 1.516 . S
C795 C796 1.502 . S
C795 C797 1.561 . S
C795 C798 1.526 . S
C796 H780 0.959 . S
C796 H781 0.959 . S
C796 H782 0.961 . S
C796 C795 1.502 . S
C797 H783 0.960 . S
C797 H784 0.961 . S
C797 H785 0.959 . S
C797 C795 1.561 . S
C798 C795 1.526 . S
C798 C799 1.396 . S
C798 C803 1.390 . S
C799 C793 1.465 . S
C799 C798 1.396 . S
C799 C800 1.399 . S
C800 H786 0.929 1_556 S
C800 C799 1.399 . S
C800 C801 1.385 . S
C801 H787 0.930 1_556 S
C801 C800 1.385 . S
C801 C802 1.389 . S
C802 C801 1.389 . S
C802 C803 1.387 . S
C803 H788 0.930 . S
C803 C798 1.390 . S
C803 C802 1.387 . S
H804 C816 0.930 . S
H805 C818 0.930 . S
H806 C819 0.930 . S
H807 C823 0.959 . S
H808 C823 0.959 . S
H809 C823 0.961 . S
H810 C824 0.960 . S
H811 C824 0.961 . S
H812 C824 0.959 . S
H813 C827 0.929 . S
H814 C828 0.931 . S
H815 C830 0.930 . S
C816 H804 0.930 . S
C816 C817 1.399 1_655 S
C816 C821 1.399 . S
C817 C816 1.399 1_455 S
C817 C818 1.376 . S
C818 H805 0.930 . S
C818 C817 1.376 . S
C818 C819 1.388 . S
C819 H806 0.930 . S
C819 C818 1.388 . S
C819 C820 1.390 . S
C820 C819 1.390 . S
C820 C821 1.394 1_455 S
C820 C826 1.465 . S
C821 C816 1.399 . S
C821 C820 1.394 1_655 S
C821 C822 1.516 . S
C822 C821 1.516 . S
C822 C823 1.502 . S
C822 C824 1.561 1_655 S
C822 C825 1.526 . S
C823 H807 0.959 . S
C823 H808 0.959 . S
C823 H809 0.961 . S
C823 C822 1.502 . S
C824 H810 0.960 . S
C824 H811 0.961 . S
C824 H812 0.959 . S
C824 C822 1.561 1_455 S
C825 C822 1.526 . S
C825 C826 1.396 1_655 S
C825 C830 1.390 . S
C826 C820 1.465 . S
C826 C825 1.396 1_455 S
C826 C827 1.399 . S
C827 H813 0.929 . S
C827 C826 1.399 . S
C827 C828 1.385 . S
C828 H814 0.931 . S
C828 C827 1.385 . S
C828 C829 1.389 1_455 S
C829 C828 1.389 1_655 S
C829 C830 1.387 . S
C830 H815 0.930 . S
C830 C825 1.390 . S
C830 C829 1.387 . S
H831 C843 0.930 . S
H832 C845 0.930 . S
H833 C846 0.930 . S
H834 C850 0.959 . S
H835 C850 0.959 . S
H836 C850 0.961 . S
H837 C851 0.960 . S
H838 C851 0.961 . S
H839 C851 0.959 . S
H840 C854 0.929 . S
H841 C855 0.931 . S
H842 C857 0.930 . S
C843 H831 0.930 . S
C843 C844 1.399 1_545 S
C843 C848 1.399 . S
C844 C843 1.399 1_565 S
C844 C845 1.376 . S
C845 H832 0.930 . S
C845 C844 1.376 . S
C845 C846 1.388 . S
C846 H833 0.930 . S
C846 C845 1.388 . S
C846 C847 1.390 . S
C847 C846 1.390 . S
C847 C848 1.394 1_565 S
C847 C853 1.465 . S
C848 C843 1.399 . S
C848 C847 1.394 1_545 S
C848 C849 1.516 . S
C849 C848 1.516 . S
C849 C850 1.502 . S
C849 C851 1.561 . S
C849 C852 1.526 . S
C850 H834 0.959 . S
C850 H835 0.959 . S
C850 H836 0.961 . S
C850 C849 1.502 . S
C851 H837 0.960 . S
C851 H838 0.961 . S
C851 H839 0.959 . S
C851 C849 1.561 . S
C852 C849 1.526 . S
C852 C853 1.396 1_545 S
C852 C857 1.390 . S
C853 C847 1.465 . S
C853 C852 1.396 1_565 S
C853 C854 1.399 . S
C854 H840 0.929 . S
C854 C853 1.399 . S
C854 C855 1.385 . S
C855 H841 0.931 . S
C855 C854 1.385 . S
C855 C856 1.389 . S
C856 C855 1.389 . S
C856 C857 1.387 1_565 S
C857 H842 0.930 . S
C857 C852 1.390 . S
C857 C856 1.387 1_545 S
H858 C870 0.930 . S
H859 C872 0.930 . S
H860 C873 0.930 . S
H861 C877 0.959 . S
H862 C877 0.959 . S
H863 C877 0.961 . S
H864 C878 0.960 . S
H865 C878 0.961 . S
H866 C878 0.959 . S
H867 C881 0.929 . S
H868 C882 0.931 . S
H869 C884 0.930 . S
C870 H858 0.930 . S
C870 C871 1.399 . S
C870 C875 1.399 . S
C871 C870 1.399 . S
C871 C872 1.376 . S
C872 H859 0.930 . S
C872 C871 1.376 . S
C872 C873 1.388 . S
C873 H860 0.930 . S
C873 C872 1.388 . S
C873 C874 1.390 . S
C874 C873 1.390 . S
C874 C875 1.394 . S
C874 C880 1.465 . S
C875 C870 1.399 . S
C875 C874 1.394 . S
C875 C876 1.516 . S
C876 C875 1.516 . S
C876 C877 1.502 . S
C876 C878 1.561 . S
C876 C879 1.526 . S
C877 H861 0.959 . S
C877 H862 0.959 . S
C877 H863 0.961 . S
C877 C876 1.502 . S
C878 H864 0.960 . S
C878 H865 0.961 . S
C878 H866 0.959 . S
C878 C876 1.561 . S
C879 C876 1.526 . S
C879 C880 1.396 . S
C879 C884 1.390 . S
C880 C874 1.465 . S
C880 C879 1.396 . S
C880 C881 1.399 . S
C881 H867 0.929 . S
C881 C880 1.399 . S
C881 C882 1.385 . S
C882 H868 0.931 . S
C882 C881 1.385 . S
C882 C883 1.389 . S
C883 C882 1.389 . S
C883 C884 1.387 . S
C884 H869 0.930 . S
C884 C879 1.390 . S
C884 C883 1.387 . S
H885 C897 0.930 . S
H886 C899 0.930 . S
H887 C900 0.930 . S
H888 C904 0.959 . S
H889 C904 0.959 . S
H890 C904 0.961 . S
H891 C905 0.960 . S
H892 C905 0.961 . S
H893 C905 0.959 . S
H894 C908 0.929 . S
H895 C909 0.931 . S
H896 C911 0.930 . S
C897 H885 0.930 . S
C897 C898 1.399 . S
C897 C902 1.399 . S
C898 C897 1.399 . S
C898 C899 1.376 . S
C899 H886 0.930 . S
C899 C898 1.376 . S
C899 C900 1.388 . S
C900 H887 0.930 . S
C900 C899 1.388 . S
C900 C901 1.390 . S
C901 C900 1.390 . S
C901 C902 1.394 . S
C901 C907 1.465 . S
C902 C897 1.399 . S
C902 C901 1.394 . S
C902 C903 1.516 . S
C903 C902 1.516 . S
C903 C904 1.502 . S
C903 C905 1.561 . S
C903 C906 1.526 . S
C904 H888 0.959 . S
C904 H889 0.959 . S
C904 H890 0.961 . S
C904 C903 1.502 . S
C905 H891 0.960 . S
C905 H892 0.961 . S
C905 H893 0.959 . S
C905 C903 1.561 . S
C906 C903 1.526 . S
C906 C907 1.396 . S
C906 C911 1.390 . S
C907 C901 1.465 . S
C907 C906 1.396 . S
C907 C908 1.399 . S
C908 H894 0.929 . S
C908 C907 1.399 . S
C908 C909 1.385 . S
C909 H895 0.931 . S
C909 C908 1.385 . S
C909 C910 1.389 . S
C910 C909 1.389 . S
C910 C911 1.387 . S
C911 H896 0.930 . S
C911 C906 1.390 . S
C911 C910 1.387 . S
C277 N80 2.073 1_545 S
C289 C106 2.118 1_545 S
C316 C146 2.051 . S
C304 N93 2.036 . S
C343 C210 1.838 . S
C331 N54 1.732 . S
C370 C226 1.607 . S
C358 N67 1.458 . S
C397 C127 2.093 . S
C385 N28 2.064 1_545 S
C412 N41 2.064 . S
C424 C167 2.075 . S
C439 N2 1.738 . S
C451 C201 1.832 . S
C466 N15 1.547 1_455 S
C478 C247 1.587 1_554 S
C505 C121 0.330 . S
C493 N70 0.454 . S
C532 C161 0.672 . S
C520 N83 0.695 1_545 S
C559 C197 0.698 . S
C547 N96 0.723 . S
C574 N57 0.657 . S
C586 C241 0.456 . S
C601 N18 0.453 . S
C613 C130 0.440 . S
C640 C170 0.624 . S
C628 N31 0.706 . S
C667 C208 0.791 1_554 S
C655 N44 0.750 . S
C682 N5 0.534 . S
C694 C250 0.681 . S
C709 N66 1.905 . S
C721 C128 1.943 . S
C736 N79 1.996 1_545 S
C748 C168 2.072 . S
C775 C186 1.625 1_554 S
C763 N92 1.692 . S
C802 C248 2.356 . S
C790 N53 2.237 . S
C817 N14 1.859 1_455 S
C829 C117 1.960 . S
C856 C157 2.074 . S
C844 N27 1.977 . S
C883 C207 1.683 . S
C871 N40 1.680 . S
C898 N1 2.287 . S
C910 C237 2.345 . S
