# Generated by pormake.
# Topology anh, (6,3)-cn, num edge types: 1
# Building blocks:
#     Node 0, Type 0, BuildingBlock: PAMTUU_clean_sbu_0, # of connection points: 6
#     Node 1, Type 0, BuildingBlock: PAMTUU_clean_sbu_0, # of connection points: 6
#     Node 2, Type 0, BuildingBlock: PAMTUU_clean_sbu_0, # of connection points: 6
#     Node 3, Type 1, BuildingBlock: PAMTOO_clean_linker_0, # of connection points: 3
#     Node 4, Type 1, BuildingBlock: PAMTOO_clean_linker_0, # of connection points: 3
#     Node 5, Type 1, BuildingBlock: PAMTOO_clean_linker_0, # of connection points: 3
#     Node 6, Type 1, BuildingBlock: PAMTOO_clean_linker_0, # of connection points: 3
#     Node 7, Type 1, BuildingBlock: PAMTOO_clean_linker_0, # of connection points: 3
#     Node 8, Type 1, BuildingBlock: PAMTOO_clean_linker_0, # of connection points: 3
#     Edge 9, Type (0, 1), BuildingBlock: TEMPAE_clean_linker_10, # of connection points: 2
#     Edge 10, Type (0, 1), BuildingBlock: TEMPAE_clean_linker_10, # of connection points: 2
#     Edge 11, Type (0, 1), BuildingBlock: TEMPAE_clean_linker_10, # of connection points: 2
#     Edge 12, Type (0, 1), BuildingBlock: TEMPAE_clean_linker_10, # of connection points: 2
#     Edge 13, Type (0, 1), BuildingBlock: TEMPAE_clean_linker_10, # of connection points: 2
#     Edge 14, Type (0, 1), BuildingBlock: TEMPAE_clean_linker_10, # of connection points: 2
#     Edge 15, Type (0, 1), BuildingBlock: TEMPAE_clean_linker_10, # of connection points: 2
#     Edge 16, Type (0, 1), BuildingBlock: TEMPAE_clean_linker_10, # of connection points: 2
#     Edge 17, Type (0, 1), BuildingBlock: TEMPAE_clean_linker_10, # of connection points: 2
#     Edge 18, Type (0, 1), BuildingBlock: TEMPAE_clean_linker_10, # of connection points: 2
#     Edge 19, Type (0, 1), BuildingBlock: TEMPAE_clean_linker_10, # of connection points: 2
#     Edge 20, Type (0, 1), BuildingBlock: TEMPAE_clean_linker_10, # of connection points: 2
#     Edge 21, Type (0, 1), BuildingBlock: TEMPAE_clean_linker_10, # of connection points: 2
#     Edge 22, Type (0, 1), BuildingBlock: TEMPAE_clean_linker_10, # of connection points: 2
#     Edge 23, Type (0, 1), BuildingBlock: TEMPAE_clean_linker_10, # of connection points: 2
#     Edge 24, Type (0, 1), BuildingBlock: TEMPAE_clean_linker_10, # of connection points: 2
#     Edge 25, Type (0, 1), BuildingBlock: TEMPAE_clean_linker_10, # of connection points: 2
#     Edge 26, Type (0, 1), BuildingBlock: TEMPAE_clean_linker_10, # of connection points: 2
# Relax obj value: 0.264
# Max RMSD: 0.156
# Mean RMSD: 0.127
data_MOF--net-anh--node1-PAMTUU_clean_sbu_0--node2-PAMTOO_clean_linker_0--edge1-TEMPAE_clean_linker_10
_symmetry_space_group_name_H-M    P1
_symmetry_Int_Tables_number       1
_symmetry_cell_setting            triclinic
loop_
_symmetry_equiv_pos_as_xyz
'x, y, z'
_cell_length_a     30.866114
_cell_length_b     30.943555
_cell_length_c     50.120532
_cell_angle_alpha  89.411099
_cell_angle_beta   92.251709
_cell_angle_gamma 120.11089
loop_
_atom_site_label
_atom_site_type_symbol
_atom_site_fract_x
_atom_site_fract_y
_atom_site_fract_z
_atom_type_partial_charge
Tb0 Tb 0.14908 0.65773 0.14991 0.0
Tb1 Tb 0.20781 0.5969 0.16076 0.0
C2 C 0.18333 0.62001 0.10219 0.0
C3 C 1.05937 0.70172 0.15908 0.0
C4 C 0.96923 0.68678 0.17958 0.0
C5 C 0.98904 0.71595 0.15667 0.0
C6 C 1.03374 0.72339 0.14658 0.0
C7 C 1.04096 0.67412 0.18249 0.0
C8 C 0.99634 0.66688 0.19273 0.0
C9 C 1.10456 0.70723 0.14723 0.0
O10 O 1.08733 0.57863 0.14593 0.0
O11 O 0.12786 0.53967 0.16445 0.0
O12 O 0.21002 0.63407 0.19798 0.0
O13 O 0.13413 0.62687 0.18945 0.0
O14 O 0.25846 0.57444 0.14974 0.0
O15 O 0.21418 0.54416 0.18479 0.0
O16 O 0.27129 0.67388 0.15689 0.0
O17 O 0.22846 0.71688 0.15787 0.0
O18 O 0.17869 0.6568 0.11158 0.0
O19 O 0.18534 0.5871 0.11825 0.0
C20 C 1.08611 0.53794 0.15555 0.0
O21 O 0.14159 0.71685 0.16411 0.0
O22 O 1.0976 0.67334 0.12958 0.0
C23 C 0.16949 0.6321 0.20641 0.0
C24 C 0.28983 0.5421 0.18394 0.0
C25 C 0.36778 0.5244 0.20052 0.0
C26 C 0.31744 0.48813 0.20428 0.0
C27 C 0.27896 0.49698 0.19608 0.0
C28 C 0.33996 0.58024 0.18228 0.0
C29 C 0.3787 0.57152 0.19068 0.0
C30 C 0.24836 0.54473 0.17013 0.0
C31 C 0.27125 0.71656 0.15803 0.0
H32 H 0.96868 0.73086 0.14562 0.0
H33 H 1.0475 0.74482 0.12852 0.0
H34 H 1.06046 0.65724 0.19251 0.0
H35 H 0.98226 0.64442 0.21042 0.0
H36 H 0.30733 0.45123 0.21144 0.0
H37 H 0.24046 0.46709 0.19753 0.0
H38 H 0.3492 0.61562 0.1732 0.0
H39 H 0.4171 0.60059 0.18795 0.0
Tb40 Tb 0.65156 1.07342 0.48308 0.0
Tb41 Tb 0.77218 0.13322 0.49014 0.0
C42 C 0.71894 0.10925 0.4331 0.0
C43 C 0.51168 0.98732 0.48998 0.0
C44 C 0.41474 0.91852 0.50663 0.0
C45 C 0.42618 0.92261 0.47945 0.0
C46 C 0.47407 0.95662 0.47128 0.0
C47 C 0.50169 0.98089 0.51735 0.0
C48 C 0.45354 0.9467 0.5256 0.0
C49 C 0.55737 1.03044 0.4801 0.0
O50 O 0.66842 1.01157 0.48181 0.0
O51 O 0.75336 1.05402 0.49235 0.0
O52 O 0.73852 0.1376 0.52689 0.0
O53 O 0.6713 1.0603 0.5228 0.0
O54 O 0.84438 0.18033 0.47667 0.0
O55 O 0.83352 0.15026 0.51647 0.0
O56 O 0.7561 0.19454 0.48275 0.0
O57 O 0.67223 0.15245 0.49097 0.0
O58 O 0.67834 0.10313 0.44398 0.0
O59 O 0.75679 0.11271 0.44781 0.0
C60 C 0.71088 1.01168 0.48734 0.0
O61 O 0.58547 1.06577 0.49731 0.0
O62 O 0.58359 1.02195 0.46327 0.0
C63 C 0.70237 0.09803 0.53782 0.0
C64 C 0.89657 0.23356 0.51073 0.0
C65 C 0.9556 0.33707 0.52017 0.0
C66 C 0.97828 0.30794 0.51623 0.0
C67 C 0.94886 0.25656 0.51124 0.0
C68 C 0.87397 0.26144 0.5172 0.0
C69 C 0.90312 0.31275 0.52169 0.0
C70 C 0.86534 0.18271 0.50012 0.0
C71 C 0.71442 0.19501 0.48725 0.0
H72 H 0.39727 0.90235 0.46415 0.0
H73 H 0.48078 0.96122 0.45009 0.0
H74 H 0.53018 1.00406 0.53228 0.0
H75 H 0.44615 0.94407 0.54668 0.0
H76 H 1.01862 0.32523 0.51552 0.0
H77 H 0.96683 0.23536 0.50646 0.0
H78 H 0.83355 0.2441 0.51709 0.0
H79 H 0.88401 0.33362 0.5243 0.0
Tb80 Tb 0.67481 0.54175 0.81135 0.0
Tb81 Tb 0.7365 0.6617 0.82046 0.0
C82 C 0.7099 0.61399 0.76369 0.0
C83 C 0.62458 0.40131 0.807 0.0
C84 C 0.59706 0.29985 0.81082 0.0
C85 C 0.61784 0.3266 0.78744 0.0
C86 C 0.63129 0.37676 0.78554 0.0
C87 C 0.60808 0.37591 0.83122 0.0
C88 C 0.59456 0.32561 0.83312 0.0
C89 C 0.62596 0.44908 0.8021 0.0
O90 O 0.75431 0.55945 0.81237 0.0
O91 O 0.79666 0.64271 0.82492 0.0
O92 O 0.70188 0.62692 0.85776 0.0
O93 O 0.70099 0.55354 0.85244 0.0
O94 O 0.75918 0.73307 0.80549 0.0
O95 O 0.78176 0.7236 0.84548 0.0
O96 O 0.65772 0.64449 0.81407 0.0
O97 O 0.61598 0.55985 0.82105 0.0
O98 O 0.67123 0.57635 0.77424 0.0
O99 O 0.74614 0.64775 0.7791 0.0
C100 C 0.79652 0.60084 0.81952 0.0
O101 O 0.61802 0.47063 0.82207 0.0
O102 O 0.6602 0.48122 0.78659 0.0
C103 C 0.69838 0.58597 0.86773 0.0
C104 C 0.76221 0.78761 0.83817 0.0
C105 C 0.71538 0.8441 0.84696 0.0
C106 C 0.6979 0.79731 0.85912 0.0
C107 C 0.72084 0.76908 0.85455 0.0
C108 C 0.78219 0.83574 0.8278 0.0
C109 C 0.75901 0.86374 0.8321 0.0
C110 C 0.77973 0.75471 0.82838 0.0
C111 C 0.61558 0.6023 0.81843 0.0
H112 H 0.61977 0.30781 0.76979 0.0
H113 H 0.64351 0.39528 0.76657 0.0
H114 H 0.60254 0.39381 0.84816 0.0
H115 H 0.57922 0.30607 0.85149 0.0
H116 H 0.66488 0.78131 0.87098 0.0
H117 H 0.70461 0.73174 0.86261 0.0
H118 H 0.8138 0.85039 0.8149 0.0
H119 H 0.77321 0.89914 0.822 0.0
H120 H 0.7925 0.22198 0.23226 0.0
H121 H 0.65803 0.07899 0.22456 0.0
H122 H 0.71797 0.16926 0.15478 0.0
H123 H 0.58835 0.08671 0.15505 0.0
C124 C 0.59399 1.06713 0.17237 0.0
O125 O 0.64447 0.07925 0.17351 0.0
H126 H 0.58609 0.08254 0.19032 0.0
C127 C 0.7617 0.19446 0.21975 0.0
C128 C 0.76039 0.20327 0.1921 0.0
C129 C 0.72518 0.15041 0.23171 0.0
C130 C 0.68639 0.11304 0.2156 0.0
C131 C 0.68255 0.11891 0.188 0.0
C132 C 0.72011 0.16437 0.17611 0.0
H133 H 0.70986 0.69972 0.56204 0.0
H134 H 0.72072 0.56764 0.55459 0.0
H135 H 0.72439 0.65055 0.48415 0.0
H136 H 0.67071 0.51834 0.47894 0.0
C137 C 0.69027 0.5189 0.49814 0.0
O138 O 0.72808 0.56864 0.50354 0.0
H139 H 0.66144 0.50639 0.51352 0.0
C140 C 0.71359 0.67381 0.54932 0.0
C141 C 0.71823 0.68259 0.5216 0.0
C142 C 0.71501 0.63334 0.56144 0.0
C143 C 0.71944 0.59887 0.54542 0.0
C144 C 0.72144 0.60318 0.51757 0.0
C145 C 0.72086 0.64557 0.50551 0.0
H146 H 1.10653 0.59252 0.90016 0.0
H147 H 0.25029 0.60474 0.89361 0.0
H148 H 0.17017 0.61142 0.82262 0.0
H149 H 0.24596 0.55652 0.81823 0.0
C150 C 0.26731 0.57627 0.83682 0.0
O151 O 0.25595 0.61397 0.84234 0.0
H152 H 0.25297 0.54781 0.85283 0.0
C153 C 0.13627 0.59715 0.88762 0.0
C154 C 0.132 0.60332 0.85984 0.0
C155 C 0.17849 0.59824 0.90004 0.0
C156 C 0.21749 0.60358 0.88422 0.0
C157 C 0.21488 0.60678 0.85629 0.0
C158 C 0.17172 0.60681 0.84401 0.0
H159 H 1.06152 0.61322 0.40361 0.0
H160 H 1.11101 0.76683 0.38426 0.0
H161 H 1.07741 0.7164 0.46474 0.0
H162 H 1.04969 0.77776 0.45738 0.0
C163 C 1.08588 0.80921 0.45067 0.0
O164 O 1.10786 0.79379 0.43233 0.0
H165 H 1.07788 0.83725 0.44124 0.0
C166 C 1.07024 0.65049 0.40939 0.0
C167 C 1.06597 0.66016 0.43612 0.0
C168 C 1.08817 0.68891 0.39049 0.0
C169 C 1.09659 0.73622 0.39822 0.0
C170 C 1.09183 0.74609 0.42484 0.0
C171 C 1.07871 0.70848 0.44394 0.0
H172 H 0.59037 1.01756 0.72668 0.0
H173 H 0.45043 0.99824 0.69346 0.0
H174 H 0.45293 0.92355 0.76548 0.0
H175 H 0.34976 0.92187 0.76149 0.0
C176 C 0.36974 0.95141 0.74653 0.0
O177 O 0.39586 0.93671 0.7305 0.0
H178 H 0.34055 0.95373 0.73394 0.0
C179 C 0.55035 1.00262 0.72767 0.0
C180 C 0.52521 0.97144 0.74898 0.0
C181 C 0.52409 1.01238 0.70714 0.0
C182 C 0.4718 0.99112 0.70874 0.0
C183 C 0.44641 0.9591 0.72973 0.0
C184 C 0.47307 0.94911 0.74964 0.0
H185 H 0.67626 0.57241 0.07141 0.0
H186 H 0.54844 0.42669 0.05547 0.0
H187 H 0.59531 0.47881 0.13619 0.0
H188 H 0.56738 0.37996 0.12636 0.0
C189 C 0.52835 0.37263 0.12301 0.0
O190 O 0.52628 0.40666 0.1056 0.0
H191 H 0.50557 0.33444 0.1143 0.0
C192 C 0.64604 0.53746 0.07858 0.0
C193 C 0.64182 0.52881 0.10612 0.0
C194 C 0.61352 0.50067 0.06009 0.0
C195 C 0.5739 0.45571 0.06941 0.0
C196 C 0.56664 0.44841 0.09687 0.0
C197 C 0.60006 0.4854 0.11509 0.0
C198 C 0.40428 0.47408 0.22057 0.0
C199 C 0.40654 0.50918 0.20181 0.0
C200 C 0.42999 0.44799 0.21684 0.0
C201 C 0.45839 0.45732 0.19384 0.0
C202 C 0.46595 0.49717 0.17681 0.0
C203 C 0.43986 0.52252 0.18099 0.0
C204 C 0.4227 0.40738 0.23614 0.0
C205 C 0.49708 0.5094 0.15234 0.0
C206 C 0.53826 0.40714 0.16956 0.0
C207 C 0.50664 0.37648 0.14861 0.0
C208 C 0.52128 0.42961 0.18738 0.0
C209 C 0.47159 0.42036 0.18412 0.0
C210 C 0.43754 0.38273 0.16594 0.0
C211 C 0.45563 0.36127 0.14829 0.0
C212 C 0.55823 0.46791 0.20723 0.0
C213 C 0.38372 0.37042 0.16233 0.0
H214 H 0.37976 0.46454 0.2372 0.0
H215 H 0.4421 0.54951 0.16635 0.0
H216 H 0.38975 0.37157 0.22926 0.0
H217 H 0.4558 0.40223 0.2374 0.0
H218 H 0.41539 0.41579 0.25642 0.0
H219 H 0.50326 0.54449 0.14277 0.0
H220 H 0.53411 0.51332 0.1576 0.0
H221 H 0.4778 0.47851 0.13747 0.0
H222 H 0.57758 0.41796 0.1702 0.0
H223 H 0.43112 0.33705 0.13224 0.0
H224 H 0.53967 0.46825 0.22568 0.0
H225 H 0.57468 0.50558 0.19828 0.0
H226 H 0.58936 0.46078 0.21258 0.0
H227 H 0.36071 0.3357 0.15033 0.0
H228 H 0.38242 0.40161 0.1519 0.0
H229 H 0.3666 0.36583 0.18195 0.0
C230 C 1.02138 0.41434 0.49877 0.0
C231 C 0.98474 0.39244 0.518 0.0
C232 C 1.03988 0.46399 0.49112 0.0
C233 C 1.02078 0.49223 0.5027 0.0
C234 C 0.98786 0.47222 0.52403 0.0
C235 C 0.97049 0.42256 0.53159 0.0
C236 C 1.07578 0.48428 0.4686 0.0
C237 C 0.96711 0.50132 0.53713 0.0
C238 C 1.08111 0.62584 0.47858 0.0
C239 C 1.05056 0.61985 0.45586 0.0
C240 C 1.07033 0.5852 0.49527 0.0
C241 C 1.02799 0.53796 0.48899 0.0
C242 C 0.99516 0.53288 0.46714 0.0
C243 C 1.00709 0.57388 0.45073 0.0
C244 C 1.10593 0.59214 0.51849 0.0
C245 C 0.94897 0.48337 0.4601 0.0
H246 H 1.03266 0.39171 0.48795 0.0
H247 H 0.94328 0.40644 0.54702 0.0
H248 H 1.05536 0.48532 0.45009 0.0
H249 H 1.10623 0.523 0.47315 0.0
H250 H 1.09286 0.46089 0.46464 0.0
H251 H 0.95248 0.48611 0.55705 0.0
H252 H 0.99599 0.54138 0.53943 0.0
H253 H 0.93576 0.49892 0.52436 0.0
H254 H 1.11479 0.66156 0.4825 0.0
H255 H 0.98318 0.56967 0.43334 0.0
H256 H 0.1297 0.57626 0.51315 0.0
H257 H 1.0851 0.57206 0.53632 0.0
H258 H 0.13086 0.63224 0.52378 0.0
H259 H 0.96027 0.45659 0.45324 0.0
H260 H 0.92507 0.48689 0.44406 0.0
H261 H 0.9262 0.46721 0.47793 0.0
C262 C 0.70666 0.92057 0.84399 0.0
C263 C 0.68417 0.8684 0.8456 0.0
C264 C 0.67918 0.94279 0.83441 0.0
C265 C 0.62811 0.91205 0.82647 0.0
C266 C 0.60368 0.86028 0.83179 0.0
C267 C 0.63207 0.839 0.84115 0.0
C268 C 0.70622 0.99844 0.82996 0.0
C269 C 0.5489 0.82594 0.82448 0.0
C270 C 0.54735 0.9626 0.79658 0.0
C271 C 0.55312 0.95892 0.76924 0.0
C272 C 0.57297 0.9493 0.81575 0.0
C273 C 0.6041 0.93111 0.80717 0.0
C274 C 0.61029 0.92792 0.77953 0.0
C275 C 0.58491 0.9421 0.76095 0.0
C276 C 0.56562 0.9533 0.84501 0.0
C277 C 0.64261 0.90809 0.76946 0.0
H278 H 0.74656 0.94383 0.84835 0.0
H279 H 0.61388 0.79872 0.84251 0.0
H280 H 0.71607 1.00595 0.80869 0.0
H281 H 0.68201 1.01429 0.83436 0.0
H282 H 0.74138 1.01804 0.8425 0.0
H283 H 0.53193 0.7946 0.83875 0.0
H284 H 0.52709 0.8455 0.82427 0.0
H285 H 0.54542 0.80988 0.80427 0.0
H286 H 0.52283 0.97588 0.80292 0.0
H287 H 0.58884 0.93871 0.73978 0.0
H288 H 0.60232 0.9727 0.85616 0.0
H289 H 0.54395 0.91531 0.85344 0.0
H290 H 0.54515 0.97366 0.84841 0.0
H291 H 0.68134 0.93026 0.77812 0.0
H292 H 0.64431 0.90921 0.74735 0.0
H293 H 0.62756 0.86884 0.77587 0.0
C294 C 0.89821 0.7036 0.18313 0.0
C295 C 0.91704 0.6709 0.18663 0.0
C296 C 0.84655 0.68491 0.17924 0.0
C297 C 0.81372 0.63264 0.17878 0.0
C298 C 0.83167 0.60078 0.18779 0.0
C299 C 0.88344 0.62026 0.19138 0.0
C300 C 0.82831 0.72035 0.17132 0.0
C301 C 0.79737 0.54496 0.18902 0.0
C302 C 0.67852 0.56955 0.1513 0.0
C303 C 0.68496 0.56075 0.12468 0.0
C304 C 0.72001 0.59422 0.16937 0.0
C305 C 0.76884 0.61123 0.16034 0.0
C306 C 0.77549 0.60433 0.13322 0.0
C307 C 0.73367 0.5787 0.116 0.0
C308 C 0.71132 0.60163 0.19796 0.0
C309 C 0.8268 0.62189 0.12241 0.0
H310 H 0.92398 0.7432 0.1807 0.0
H311 H 0.89734 0.59462 0.1947 0.0
H312 H 0.82554 0.72159 0.14921 0.0
H313 H 0.79056 0.70755 0.17897 0.0
H314 H 0.85452 0.75882 0.1789 0.0
H315 H 0.81375 0.52728 0.20219 0.0
H316 H 0.76023 0.53563 0.19636 0.0
H317 H 0.79149 0.52868 0.16866 0.0
H318 H 0.64111 0.55645 0.15816 0.0
H319 H 0.7394 0.57088 0.09584 0.0
H320 H 0.71839 0.64022 0.20056 0.0
H321 H 0.73717 0.59683 0.21206 0.0
H322 H 0.67211 0.5753 0.2034 0.0
H323 H 0.85187 0.66233 0.1266 0.0
H324 H 0.82531 0.61578 0.10051 0.0
H325 H 0.84397 0.60152 0.13228 0.0
C326 C 0.32683 0.84806 0.49958 0.0
C327 C 0.36131 0.89113 0.51397 0.0
C328 C 0.27562 0.83233 0.49871 0.0
C329 C 0.25853 0.85941 0.51338 0.0
C330 C 0.29182 0.89695 0.53169 0.0
C331 C 0.34322 0.91314 0.53146 0.0
C332 C 0.24106 0.79074 0.47954 0.0
C333 C 0.27412 0.92356 0.54945 0.0
C334 C 0.16842 0.87644 0.46845 0.0
C335 C 0.1236 0.83264 0.47349 0.0
C336 C 0.21237 0.88867 0.48339 0.0
C337 C 0.21086 0.85681 0.50435 0.0
C338 C 0.16411 0.81693 0.5121 0.0
C339 C 0.12085 0.80487 0.4963 0.0
C340 C 0.26126 0.93184 0.47435 0.0
C341 C 0.16 0.78383 0.53529 0.0
H342 H 0.34041 0.82946 0.48699 0.0
H343 H 0.36927 0.94583 0.54318 0.0
H344 H 0.20751 0.76248 0.48984 0.0
H345 H 0.22801 0.80608 0.46299 0.0
H346 H 0.25969 0.77171 0.4708 0.0
H347 H 0.29898 0.9389 0.56765 0.0
H348 H 0.27482 0.95524 0.53851 0.0
H349 H 0.23514 0.89812 0.55549 0.0
H350 H 0.17031 0.89783 0.4508 0.0
H351 H 1.08588 0.7714 0.50055 0.0
H352 H 0.28447 0.9174 0.46609 0.0
H353 H 0.28281 0.95682 0.49145 0.0
H354 H 0.25545 0.9544 0.45875 0.0
H355 H 0.15783 0.74919 0.52773 0.0
H356 H 0.12501 0.77249 0.54592 0.0
H357 H 0.19244 0.80248 0.54973 0.0
C358 C 0.58954 0.21881 0.79644 0.0
C359 C 0.57007 0.24443 0.80995 0.0
C360 C 0.55923 0.16797 0.78981 0.0
C361 C 0.50835 0.14252 0.79675 0.0
C362 C 0.48986 0.16702 0.81244 0.0
C363 C 0.52099 0.21769 0.81888 0.0
C364 C 0.58054 0.1427 0.77352 0.0
C365 C 0.43586 0.1411 0.82031 0.0
C366 C 0.41511 1.0454 0.74747 0.0
C367 C 0.4031 1.00092 0.76059 0.0
C368 C 0.44935 0.09169 0.75912 0.0
C369 C 0.47271 0.09334 0.78431 0.0
C370 C 0.46108 1.04841 0.79755 0.0
C371 C 0.4261 1.0026 0.78555 0.0
C372 C 0.4607 0.13885 0.74439 0.0
C373 C 0.48614 1.04871 0.82409 0.0
H374 H 0.6277 0.23917 0.78983 0.0
H375 H 0.50543 0.23722 0.82911 0.0
H376 H 0.56844 0.1046 0.78103 0.0
H377 H 0.5663 0.13875 0.75249 0.0
H378 H 0.62215 0.16443 0.77378 0.0
H379 H 0.42923 0.16292 0.83545 0.0
H380 H 0.41139 0.1359 0.80237 0.0
H381 H 0.42439 0.10354 0.82842 0.0
H382 H 0.39801 1.0438 0.72792 0.0
H383 H 0.41747 0.96794 0.79535 0.0
H384 H 0.50118 0.16061 0.74026 0.0
H385 H 0.45212 0.16272 0.75696 0.0
H386 H 0.43883 0.13099 0.72515 0.0
H387 H 0.52709 1.06569 0.82178 0.0
H388 H 0.47143 1.01054 0.83222 0.0
H389 H 0.48074 1.07192 0.83884 0.0
C390 C 0.67043 0.9184 0.49883 0.0
C391 C 0.71097 0.96218 0.48874 0.0
C392 C 0.67158 0.87301 0.50189 0.0
C393 C 0.71342 0.86939 0.49372 0.0
C394 C 0.75352 0.91299 0.48248 0.0
C395 C 0.75233 0.95848 0.48072 0.0
C396 C 0.62845 0.82922 0.51488 0.0
C397 C 0.79824 0.91179 0.47229 0.0
C398 C 0.74542 0.77511 0.52807 0.0
C399 C 0.72148 0.73165 0.51163 0.0
C400 C 0.74245 0.81872 0.52264 0.0
C401 C 0.7172 0.82202 0.4991 0.0
C402 C 0.69579 0.77984 0.4813 0.0
C403 C 0.69753 0.73541 0.48785 0.0
C404 C 0.76531 0.86098 0.54286 0.0
C405 C 0.67021 0.78125 0.45536 0.0
H406 H 0.63825 0.92011 0.50535 0.0
H407 H 0.78392 0.99133 0.47268 0.0
H408 H 0.61173 0.79628 0.50128 0.0
H409 H 0.6423 0.81894 0.53327 0.0
H410 H 0.59867 0.83736 0.52025 0.0
H411 H 0.82252 0.94551 0.46055 0.0
H412 H 0.82104 0.90961 0.48934 0.0
H413 H 0.78578 0.87812 0.45957 0.0
H414 H 0.76609 0.7749 0.54599 0.0
H415 H 0.67891 0.70319 0.47461 0.0
H416 H 0.73659 0.87002 0.54905 0.0
H417 H 0.79576 0.89505 0.53385 0.0
H418 H 0.78099 0.85188 0.56097 0.0
H419 H 0.63409 0.779 0.45944 0.0
H420 H 0.66254 0.74978 0.44182 0.0
H421 H 0.6936 0.81702 0.44498 0.0
C422 C 0.89198 0.64271 0.81551 0.0
C423 C 0.84604 0.60047 0.822 0.0
C424 C 0.93859 0.64347 0.81821 0.0
C425 C 0.94104 0.60182 0.82889 0.0
C426 C 0.89468 0.55909 0.83553 0.0
C427 C 0.84831 0.55856 0.83153 0.0
C428 C 0.98554 0.68939 0.80963 0.0
C429 C 0.89415 0.51421 0.84789 0.0
C430 C 1.05973 0.58646 0.8249 0.0
C431 C 1.08605 0.60713 0.84942 0.0
C432 C 1.01385 0.58563 0.81757 0.0
C433 C 0.99188 0.6046 0.83526 0.0
C434 C 1.01899 0.62652 0.8596 0.0
C435 C 1.06538 0.62876 0.86583 0.0
C436 C 0.98852 0.56381 0.79084 0.0
C437 C 0.99828 0.64669 0.87974 0.0
H438 H 0.8915 0.6754 0.80792 0.0
H439 H 0.81372 0.52565 0.83687 0.0
H440 H 1.00916 0.7099 0.82745 0.0
H441 H 1.0079 0.67866 0.79736 0.0
H442 H 0.97706 0.71513 0.79794 0.0
H443 H 0.85563 0.48386 0.85202 0.0
H444 H 0.91141 0.49935 0.83445 0.0
H445 H 0.91693 0.52541 0.8669 0.0
H446 H 1.07427 0.5698 0.81161 0.0
H447 H 1.08525 0.64725 0.88427 0.0
H448 H 0.97768 0.58909 0.7805 0.0
H449 H 0.9537 0.52768 0.79374 0.0
H450 H 1.01296 0.55727 0.77777 0.0
H451 H 0.99597 0.6787 0.87122 0.0
H452 H 1.02164 0.65932 0.89856 0.0
H453 H 0.95969 0.61751 0.8846 0.0
C454 C 0.32244 0.81247 0.16188 0.0
C455 C 0.32111 0.7663 0.16002 0.0
C456 C 0.36829 0.85905 0.16388 0.0
C457 C 0.41542 0.86101 0.16404 0.0
C458 C 0.41439 0.81456 0.16216 0.0
C459 C 0.36793 0.76843 0.16022 0.0
C460 C 0.36618 0.90655 0.16583 0.0
C461 C 0.4627 0.81352 0.16217 0.0
C462 C 0.53208 0.98756 0.14515 0.0
C463 C 0.55423 1.01025 0.17008 0.0
C464 C 0.48849 0.93913 0.1429 0.0
C465 C 0.46519 0.91137 0.1661 0.0
C466 C 0.48872 0.93323 0.19129 0.0
C467 C 0.53236 0.98173 0.19296 0.0
C468 C 0.46612 0.91845 0.11549 0.0
C469 C 0.46652 0.90616 0.21677 0.0
H470 H 0.2873 0.8124 0.16183 0.0
H471 H 0.36845 0.73378 0.15884 0.0
H472 H 0.3859 0.92699 0.18455 0.0
H473 H 0.38579 0.93136 0.14897 0.0
H474 H 0.32711 0.89939 0.16556 0.0
H475 H 0.45624 0.77491 0.16065 0.0
H476 H 0.48524 0.83549 0.14519 0.0
H477 H 0.4853 0.83126 0.18076 0.0
H478 H 0.54764 1.00878 0.12723 0.0
H479 H 0.54815 0.99841 0.2124 0.0
H480 H 0.4288 0.91541 0.11302 0.0
H481 H 0.4604 0.8803 0.11314 0.0
H482 H 0.4901 0.94232 0.09935 0.0
H483 H 0.42923 0.90258 0.21899 0.0
H484 H 0.49063 0.9259 0.23467 0.0
H485 H 0.46077 0.8678 0.21603 0.0
C486 C 0.67087 0.24703 0.49155 0.0
C487 C 0.71523 0.24505 0.48899 0.0
C488 C 0.67094 0.29311 0.4933 0.0
C489 C 0.71653 0.33987 0.49277 0.0
C490 C 0.76157 0.33816 0.49045 0.0
C491 C 0.76036 0.29149 0.48848 0.0
C492 C 0.62164 0.29162 0.49561 0.0
C493 C 0.81149 0.38591 0.49003 0.0
C494 C 0.70716 0.45712 0.47221 0.0
C495 C 0.70755 0.47925 0.49679 0.0
C496 C 0.71155 0.41344 0.47063 0.0
C497 C 0.71662 0.38989 0.49418 0.0
C498 C 0.71928 0.41334 0.51905 0.0
C499 C 0.71461 0.45702 0.52004 0.0
C500 C 0.70858 0.39116 0.44354 0.0
C501 C 0.72514 0.39109 0.54488 0.0
H502 H 0.63552 0.21222 0.49207 0.0
H503 H 0.79525 0.29155 0.48667 0.0
H504 H 0.62225 0.31116 0.51418 0.0
H505 H 0.61579 0.31162 0.4786 0.0
H506 H 0.58936 0.25284 0.49584 0.0
H507 H 0.84339 0.37887 0.48953 0.0
H508 H 0.81249 0.40798 0.47224 0.0
H509 H 0.81668 0.40913 0.50791 0.0
H510 H 0.70104 0.47277 0.45398 0.0
H511 H 0.71423 0.47258 0.53925 0.0
H512 H 0.67425 0.35386 0.44167 0.0
H513 H 0.74112 0.3857 0.44123 0.0
H514 H 0.70771 0.41496 0.42702 0.0
H515 H 0.69115 0.35422 0.54776 0.0
H516 H 0.73087 0.41537 0.56239 0.0
H517 H 0.75741 0.38473 0.54416 0.0
C518 C 0.52037 0.55816 0.82508 0.0
C519 C 0.56615 0.60256 0.82094 0.0
C520 C 0.47424 0.55773 0.82775 0.0
C521 C 0.47228 0.60276 0.82635 0.0
C522 C 0.51834 0.64769 0.82209 0.0
C523 C 0.56403 0.64711 0.8196 0.0
C524 C 0.42716 0.50853 0.83203 0.0
C525 C 0.51981 0.69704 0.82061 0.0
C526 C 0.3425 0.59155 0.80882 0.0
C527 C 0.32406 0.59344 0.83388 0.0
C528 C 0.3904 0.59591 0.80609 0.0
C529 C 0.42222 0.6024 0.8289 0.0
C530 C 0.40477 0.60657 0.85417 0.0
C531 C 0.35651 0.60191 0.85634 0.0
C532 C 0.40628 0.59177 0.77861 0.0
C533 C 0.43656 0.61432 0.87923 0.0
H534 H 0.5204 0.5232 0.82628 0.0
H535 H 0.59842 0.68204 0.81667 0.0
H536 H 0.41049 0.50991 0.85099 0.0
H537 H 0.39905 0.50153 0.81566 0.0
H538 H 0.43422 0.47668 0.83277 0.0
H539 H 0.55544 0.72692 0.81257 0.0
H540 H 0.48813 0.69403 0.80791 0.0
H541 H 0.51609 0.70823 0.84096 0.0
H542 H 0.31831 0.5844 0.79119 0.0
H543 H 0.34318 0.60274 0.8759 0.0
H544 H 0.41001 0.558 0.77738 0.0
H545 H 0.44354 0.62456 0.77478 0.0
H546 H 0.37909 0.58934 0.76267 0.0
H547 H 0.44146 0.58147 0.88242 0.0
H548 H 0.4197 0.61976 0.89715 0.0
H549 H 0.4744 0.64739 0.87709 0.0
C550 C 0.99055 0.48148 0.14632 0.0
C551 C 1.03626 0.48864 0.15778 0.0
C552 C 0.94425 0.43569 0.14894 0.0
C553 C 0.94219 0.39513 0.16378 0.0
C554 C 0.98824 0.4022 0.17528 0.0
C555 C 1.03397 0.44795 0.17204 0.0
C556 C 0.89716 0.43089 0.13591 0.0
C557 C 0.98918 0.36149 0.19167 0.0
C558 C 0.81978 0.29768 0.19708 0.0
C559 C 0.80233 0.25348 0.18171 0.0
C560 C 0.86373 0.34329 0.19118 0.0
C561 C 0.89214 0.34683 0.16878 0.0
C562 C 0.87348 0.30323 0.15226 0.0
C563 C 0.82941 0.25754 0.15888 0.0
C564 C 0.88083 0.38749 0.20974 0.0
C565 C 0.90106 0.30436 0.12789 0.0
H566 H 0.99084 0.51182 0.1352 0.0
H567 H 1.06819 0.45203 0.18124 0.0
H568 H 0.87794 0.39663 0.12325 0.0
H569 H 0.87089 0.42713 0.15144 0.0
H570 H 0.9049 0.46365 0.12339 0.0
H571 H 1.02768 0.37171 0.19887 0.0
H572 H 0.96553 0.35349 0.20921 0.0
H573 H 0.97314 0.32652 0.17967 0.0
H574 H 0.79948 0.29637 0.21451 0.0
H575 H 0.81738 0.22444 0.14669 0.0
H576 H 0.88529 0.42033 0.19839 0.0
H577 H 0.91801 0.39778 0.21908 0.0
H578 H 0.8542 0.37974 0.22584 0.0
H579 H 0.90853 0.33708 0.11543 0.0
H580 H 0.87978 0.26984 0.11553 0.0
H581 H 0.93786 0.30851 0.13409 0.0
C582 C 0.17435 0.64469 0.05524 0.0
C583 C 0.18489 0.615 0.07268 0.0
C584 C 0.17487 0.64023 0.02737 0.0
C585 C 0.18669 0.60554 0.01641 0.0
C586 C 0.19787 0.57578 0.03386 0.0
C587 C 0.1966 0.58066 0.06173 0.0
C588 C 0.16223 0.67241 0.0096 0.0
C589 C 0.21111 0.53868 0.02307 0.0
C590 C 0.14008 0.56418 0.94444 0.0
C591 C 0.18232 0.59628 0.92992 0.0
C592 C 0.1414 0.56582 0.97253 0.0
C593 C 0.18624 0.59998 0.98669 0.0
C594 C 0.22966 0.63092 0.97225 0.0
C595 C 0.22715 0.62884 0.94412 0.0
C596 C 1.09419 0.53215 0.987 0.0
C597 C 0.27836 0.66757 0.9865 0.0
H598 H 0.16507 0.67124 0.06336 0.0
H599 H 0.20502 0.55766 0.07493 0.0
H600 H 0.19384 0.6954 -0.00346 0.0
H601 H 0.12907 0.6484 -0.0036 0.0
H602 H 0.15404 0.69772 0.0212 0.0
H603 H 0.22007 0.51921 0.03921 0.0
H604 H 0.17942 0.51031 0.01041 0.0
H605 H 0.24386 0.558 0.01021 0.0
H606 H 1.10551 0.53815 0.93379 0.0
H607 H 0.25992 0.65414 0.93322 0.0
H608 H 1.08178 0.55514 -0.00241 0.0
H609 H 1.10153 0.5102 0.0023 0.0
H610 H 1.06313 0.50586 0.97323 0.0
H611 H 0.27404 0.69706 -0.00364 0.0
H612 H 0.30977 0.68573 0.97266 0.0
H613 H 0.28838 0.64847 0.00235 0.0
C614 C 0.7664 0.12654 0.3907 0.0
C615 C 0.72175 0.11326 0.40345 0.0
C616 C 0.76926 0.13199 0.36274 0.0
C617 C 0.72643 0.12375 0.34709 0.0
C618 C 0.68112 0.10956 0.35983 0.0
C619 C 0.67938 0.10461 0.38773 0.0
C620 C 0.81831 0.1473 0.34996 0.0
C621 C 0.63446 0.10011 0.344 0.0
C622 C 0.73993 0.18391 0.27884 0.0
C623 C 0.72736 0.14383 0.2613 0.0
C624 C 0.74103 0.1782 0.3067 0.0
C625 C 0.72897 0.13114 0.3175 0.0
C626 C 0.71683 0.09065 0.29995 0.0
C627 C 0.71625 0.09748 0.27214 0.0
C628 C 0.75407 0.22236 0.32461 0.0
C629 C 0.70364 1.03985 0.31058 0.0
H630 H 0.79938 0.13337 0.40257 0.0
H631 H 0.64453 0.09406 0.39722 0.0
H632 H 0.81291 0.11947 0.33449 0.0
H633 H 0.83179 0.18363 0.33982 0.0
H634 H 0.84777 0.15093 0.36474 0.0
H635 H 0.60181 0.08799 0.35679 0.0
H636 H 0.64143 0.13462 0.33349 0.0
H637 H 0.62465 1.07091 0.32853 0.0
H638 H 0.74789 0.21969 0.2708 0.0
H639 H 0.70721 1.06643 0.25885 0.0
H640 H 0.78524 0.22902 0.33889 0.0
H641 H 0.72136 0.21435 0.33652 0.0
H642 H 0.76521 0.25708 0.31315 0.0
H643 H 0.73426 1.04293 0.32424 0.0
H644 H 0.69691 1.0127 0.29437 0.0
H645 H 0.6694 1.02482 0.32234 0.0
C646 C 0.74641 0.6615 0.72155 0.0
C647 C 0.71213 0.61731 0.7341 0.0
C648 C 0.74781 0.66451 0.69349 0.0
C649 C 0.71466 0.62212 0.67761 0.0
C650 C 0.68055 0.57724 0.69022 0.0
C651 C 0.67949 0.5755 0.71821 0.0
C652 C 0.78432 0.71322 0.68082 0.0
C653 C 0.64501 0.53098 0.67412 0.0
C654 C 0.68194 0.63916 0.60565 0.0
C655 C 0.71366 0.62854 0.59119 0.0
C656 C 0.68239 0.63784 0.6337 0.0
C657 C 0.71475 0.62476 0.64781 0.0
C658 C 0.7462 0.61309 0.63339 0.0
C659 C 0.74548 0.61536 0.60532 0.0
C660 C 0.64826 0.65059 0.64825 0.0
C661 C 0.7808 0.59836 0.64763 0.0
H662 H 0.77169 0.69399 0.73364 0.0
H663 H 0.65315 0.54097 0.72766 0.0
H664 H 0.80931 0.7075 0.66781 0.0
H665 H 0.7636 0.72677 0.66796 0.0
H666 H 0.8078 0.74264 0.6959 0.0
H667 H 0.62183 0.49859 0.68697 0.0
H668 H 0.61963 0.53851 0.66116 0.0
H669 H 0.66639 0.52064 0.66085 0.0
H670 H 0.65653 0.6485 0.59501 0.0
H671 H 0.77062 0.60773 0.59446 0.0
H672 H 0.67062 0.68185 0.66255 0.0
H673 H 0.62167 0.61807 0.66 0.0
H674 H 0.6264 0.66142 0.63441 0.0
H675 H 0.80765 0.62906 0.66119 0.0
H676 H 0.80232 0.58963 0.63353 0.0
H677 H 0.75885 0.56513 0.66015 0.0
C678 C 0.67561 0.13456 0.57298 0.0
C679 C 0.68837 0.09911 0.56531 0.0
C680 C 0.65089 0.12906 0.59682 0.0
C681 C 0.64001 0.08783 0.61348 0.0
C682 C 0.65607 1.05394 0.60652 0.0
C683 C 0.67917 1.05947 0.58221 0.0
C684 C 0.63321 0.16517 0.6031 0.0
C685 C 0.64654 1.01028 0.62406 0.0
C686 C 0.60148 0.07802 0.68515 0.0
C687 C 0.55099 1.03987 0.68297 0.0
C688 C 0.63062 0.09618 0.66252 0.0
C689 C 0.6083 1.07708 0.63699 0.0
C690 C 0.55623 1.0425 0.63439 0.0
C691 C 0.52835 1.02381 0.6574 0.0
C692 C 0.68605 0.13274 0.6662 0.0
C693 C 0.53059 1.02246 0.60739 0.0
H694 H 0.68179 0.16455 0.55946 0.0
H695 H 0.68869 1.03188 0.57598 0.0
H696 H 0.59196 0.14632 0.59959 0.0
H697 H 0.64138 0.17698 0.62438 0.0
H698 H 0.65083 0.19893 0.59042 0.0
H699 H 0.66641 0.99097 0.61735 0.0
H700 H 0.65872 1.02301 0.64504 0.0
H701 H 0.60578 0.98284 0.62378 0.0
H702 H 0.61904 0.09204 0.70471 0.0
H703 H 0.48955 0.99436 0.65527 0.0
H704 H 0.69826 0.16353 0.65165 0.0
H705 H 0.70718 0.11322 0.66247 0.0
H706 H 0.69632 0.149 0.6867 0.0
H707 H 0.5421 1.05326 0.59285 0.0
H708 H 0.4891 1.00223 0.60837 0.0
H709 H 0.54186 0.99624 0.59963 0.0
C710 C 0.68396 0.60737 0.91332 0.0
C711 C 0.68588 0.57322 0.89594 0.0
C712 C 0.67002 0.59453 0.93981 0.0
C713 C 0.65746 0.54634 0.94899 0.0
C714 C 0.659 0.51163 0.9315 0.0
C715 C 0.6734 0.52556 0.90523 0.0
C716 C 0.66923 0.63264 0.95806 0.0
C717 C 0.64571 0.45984 0.94058 0.0
C718 C 0.67278 0.52996 0.02295 0.0
C719 C 0.62346 0.5092 0.03129 0.0
C720 C 0.68426 0.54233 -0.00376 0.0
C721 C 0.64533 0.53303 0.9773 0.0
C722 C 0.59519 0.51076 0.98538 0.0
C723 C 0.5848 0.49909 0.01239 0.0
C724 C 0.73817 0.5659 0.98838 0.0
C725 C 0.55275 0.49996 0.96557 0.0
H726 H 0.69337 0.64419 0.90625 0.0
H727 H 0.67436 0.49872 0.89189 0.0
H728 H 0.63162 0.61722 0.96645 0.0
H729 H 0.69647 0.64132 0.9751 0.0
H730 H 0.67866 0.66796 0.94761 0.0
H731 H 0.64671 0.43659 0.92414 0.0
H732 H 0.67229 0.46242 0.95689 0.0
H733 H 0.60766 0.44055 0.94871 0.0
H734 H 0.70265 0.5369 0.03744 0.0
H735 H 0.54671 0.48326 0.01883 0.0
H736 H 0.75029 0.60292 0.97932 0.0
H737 H 0.74182 0.54234 0.97311 0.0
H738 H 0.76402 0.57098 0.00566 0.0
H739 H 0.55885 0.53528 0.9564 0.0
H740 H 0.51575 0.48141 0.97496 0.0
H741 H 0.55178 0.47561 0.94919 0.0
C742 C 0.20107 0.67297 0.25114 0.0
C743 C 0.16242 0.63642 0.23487 0.0
C744 C 0.19154 0.68257 0.27698 0.0
C745 C 0.14264 0.65392 0.28676 0.0
C746 C 1.10427 0.61524 0.27075 0.0
C747 C 1.11449 0.6075 0.24484 0.0
C748 C 0.23307 0.72479 0.29329 0.0
C749 C 1.05206 0.58285 0.2807 0.0
C750 C 0.12368 0.64999 0.36118 0.0
C751 C 1.10233 0.68055 0.36373 0.0
C752 C 0.13725 0.64127 0.33631 0.0
C753 C 0.13086 0.66487 0.31345 0.0
C754 C 1.11074 0.69688 0.31586 0.0
C755 C 1.0962 0.70391 0.34091 0.0
C756 C 0.15761 0.60607 0.33446 0.0
C757 C 1.10404 0.72326 0.2919 0.0
H758 H 0.23791 0.69577 0.24316 0.0
H759 H 1.08466 0.57916 0.23214 0.0
H760 H 0.22301 0.75397 0.29681 0.0
H761 H 0.2379 0.71121 0.31313 0.0
H762 H 0.26942 0.74215 0.28326 0.0
H763 H 1.02771 0.55197 0.26652 0.0
H764 H 1.05372 0.56652 0.30027 0.0
H765 H 1.03435 0.60588 0.28376 0.0
H766 H 0.1302 0.63293 0.3787 0.0
H767 H 1.07955 0.72732 0.34254 0.0
H768 H 0.19527 0.62555 0.3259 0.0
H769 H 0.13289 0.57438 0.32084 0.0
H770 H 0.16047 0.59083 0.3542 0.0
H771 H 0.13981 0.74409 0.28147 0.0
H772 H 1.0915 0.7498 0.29746 0.0
H773 H 1.07589 0.69543 0.2775 0.0
loop_
_geom_bond_atom_site_label_1
_geom_bond_atom_site_label_2
_geom_bond_distance
_geom_bond_site_symmetry_2
_ccdc_geom_bond_type
Tb0 C9 2.764 . S
Tb0 O10 2.325 . S
Tb0 O13 2.303 . S
Tb0 O17 2.322 1_655 S
Tb0 O18 2.349 . S
Tb0 O21 2.415 . S
Tb0 O22 2.399 . S
Tb1 O11 2.322 1_455 S
Tb1 O12 2.349 . S
Tb1 O14 2.415 . S
Tb1 O15 2.399 . S
Tb1 O16 2.325 . S
Tb1 O19 2.303 . S
Tb1 C30 2.764 . S
C2 O18 1.261 1_455 S
C2 O19 1.257 . S
C3 C6 1.358 . S
C3 C7 1.332 . S
C3 C9 1.504 . S
C4 C5 1.373 . S
C4 C8 1.308 . S
C5 C4 1.373 . S
C5 C6 1.429 . S
C5 H32 0.932 . S
C6 C3 1.358 . S
C6 C5 1.429 . S
C6 H33 0.930 . S
C7 C3 1.332 . S
C7 C8 1.394 . S
C7 H34 0.932 . S
C8 C4 1.308 . S
C8 C7 1.394 . S
C8 H35 0.929 . S
C9 Tb0 2.764 . S
C9 C3 1.504 . S
C9 O21 1.239 . S
C9 O22 1.263 . S
O10 Tb0 2.325 . S
O10 C20 1.236 . S
O11 Tb1 2.322 1_655 S
O11 C20 1.257 . S
O12 Tb1 2.349 . S
O12 C23 1.261 . S
O13 Tb0 2.303 . S
O13 C23 1.257 1_655 S
O14 Tb1 2.415 . S
O14 C30 1.239 . S
O15 Tb1 2.399 . S
O15 C30 1.263 . S
O16 Tb1 2.325 . S
O16 C31 1.236 . S
O17 Tb0 2.322 1_455 S
O17 C31 1.257 . S
O18 Tb0 2.349 . S
O18 C2 1.261 1_655 S
O19 Tb1 2.303 . S
O19 C2 1.257 . S
C20 O10 1.236 . S
C20 O11 1.257 . S
O21 Tb0 2.415 . S
O21 C9 1.239 . S
O22 Tb0 2.399 . S
O22 C9 1.263 . S
C23 O12 1.261 . S
C23 O13 1.257 1_455 S
C24 C27 1.358 . S
C24 C28 1.332 . S
C24 C30 1.504 . S
C25 C26 1.373 . S
C25 C29 1.308 . S
C26 C25 1.373 . S
C26 C27 1.429 . S
C26 H36 0.932 . S
C27 C24 1.358 . S
C27 C26 1.429 . S
C27 H37 0.930 . S
C28 C24 1.332 . S
C28 C29 1.394 . S
C28 H38 0.932 . S
C29 C25 1.308 . S
C29 C28 1.394 . S
C29 H39 0.929 . S
C30 Tb1 2.764 . S
C30 O14 1.239 . S
C30 O15 1.263 . S
C30 C24 1.504 . S
C31 O16 1.236 . S
C31 O17 1.257 . S
H32 C5 0.932 . S
H33 C6 0.930 . S
H34 C7 0.932 . S
H35 C8 0.929 . S
H36 C26 0.932 . S
H37 C27 0.930 . S
H38 C28 0.932 . S
H39 C29 0.929 . S
Tb40 C49 2.764 . S
Tb40 O50 2.325 . S
Tb40 O53 2.303 1_565 S
Tb40 O57 2.322 1_565 S
Tb40 O58 2.349 1_565 S
Tb40 O61 2.415 . S
Tb40 O62 2.399 . S
Tb41 O51 2.322 1_545 S
Tb41 O52 2.349 . S
Tb41 O54 2.415 . S
Tb41 O55 2.399 . S
Tb41 O56 2.325 . S
Tb41 O59 2.303 . S
Tb41 C70 2.764 . S
C42 O58 1.261 . S
C42 O59 1.257 . S
C43 C46 1.358 . S
C43 C47 1.332 . S
C43 C49 1.504 . S
C44 C45 1.373 . S
C44 C48 1.308 . S
C45 C44 1.373 . S
C45 C46 1.429 . S
C45 H72 0.932 . S
C46 C43 1.358 . S
C46 C45 1.429 . S
C46 H73 0.930 . S
C47 C43 1.332 . S
C47 C48 1.394 . S
C47 H74 0.932 . S
C48 C44 1.308 . S
C48 C47 1.394 . S
C48 H75 0.929 . S
C49 Tb40 2.764 . S
C49 C43 1.504 . S
C49 O61 1.239 . S
C49 O62 1.263 . S
O50 Tb40 2.325 . S
O50 C60 1.236 . S
O51 Tb41 2.322 1_565 S
O51 C60 1.257 . S
O52 Tb41 2.349 . S
O52 C63 1.261 . S
O53 Tb40 2.303 1_545 S
O53 C63 1.257 . S
O54 Tb41 2.415 . S
O54 C70 1.239 . S
O55 Tb41 2.399 . S
O55 C70 1.263 . S
O56 Tb41 2.325 . S
O56 C71 1.236 . S
O57 Tb40 2.322 1_545 S
O57 C71 1.257 . S
O58 Tb40 2.349 1_545 S
O58 C42 1.261 . S
O59 Tb41 2.303 . S
O59 C42 1.257 . S
C60 O50 1.236 . S
C60 O51 1.257 . S
O61 Tb40 2.415 . S
O61 C49 1.239 . S
O62 Tb40 2.399 . S
O62 C49 1.263 . S
C63 O52 1.261 . S
C63 O53 1.257 . S
C64 C67 1.358 . S
C64 C68 1.332 . S
C64 C70 1.504 . S
C65 C66 1.373 . S
C65 C69 1.308 . S
C66 C65 1.373 . S
C66 C67 1.429 . S
C66 H76 0.932 . S
C67 C64 1.358 . S
C67 C66 1.429 . S
C67 H77 0.930 . S
C68 C64 1.332 . S
C68 C69 1.394 . S
C68 H78 0.932 . S
C69 C65 1.308 . S
C69 C68 1.394 . S
C69 H79 0.929 . S
C70 Tb41 2.764 . S
C70 O54 1.239 . S
C70 O55 1.263 . S
C70 C64 1.504 . S
C71 O56 1.236 . S
C71 O57 1.257 . S
H72 C45 0.932 . S
H73 C46 0.930 . S
H74 C47 0.932 . S
H75 C48 0.929 . S
H76 C66 0.932 . S
H77 C67 0.930 . S
H78 C68 0.932 . S
H79 C69 0.929 . S
Tb80 C89 2.764 . S
Tb80 O90 2.325 . S
Tb80 O93 2.303 . S
Tb80 O97 2.322 . S
Tb80 O98 2.349 . S
Tb80 O101 2.415 . S
Tb80 O102 2.399 . S
Tb81 O91 2.322 . S
Tb81 O92 2.349 . S
Tb81 O94 2.415 . S
Tb81 O95 2.399 . S
Tb81 O96 2.325 . S
Tb81 O99 2.303 . S
Tb81 C110 2.764 . S
C82 O98 1.261 . S
C82 O99 1.257 . S
C83 C86 1.358 . S
C83 C87 1.332 . S
C83 C89 1.504 . S
C84 C85 1.373 . S
C84 C88 1.308 . S
C85 C84 1.373 . S
C85 C86 1.429 . S
C85 H112 0.932 . S
C86 C83 1.358 . S
C86 C85 1.429 . S
C86 H113 0.930 . S
C87 C83 1.332 . S
C87 C88 1.394 . S
C87 H114 0.932 . S
C88 C84 1.308 . S
C88 C87 1.394 . S
C88 H115 0.929 . S
C89 Tb80 2.764 . S
C89 C83 1.504 . S
C89 O101 1.239 . S
C89 O102 1.263 . S
O90 Tb80 2.325 . S
O90 C100 1.236 . S
O91 Tb81 2.322 . S
O91 C100 1.257 . S
O92 Tb81 2.349 . S
O92 C103 1.261 . S
O93 Tb80 2.303 . S
O93 C103 1.257 . S
O94 Tb81 2.415 . S
O94 C110 1.239 . S
O95 Tb81 2.399 . S
O95 C110 1.263 . S
O96 Tb81 2.325 . S
O96 C111 1.236 . S
O97 Tb80 2.322 . S
O97 C111 1.257 . S
O98 Tb80 2.349 . S
O98 C82 1.261 . S
O99 Tb81 2.303 . S
O99 C82 1.257 . S
C100 O90 1.236 . S
C100 O91 1.257 . S
O101 Tb80 2.415 . S
O101 C89 1.239 . S
O102 Tb80 2.399 . S
O102 C89 1.263 . S
C103 O92 1.261 . S
C103 O93 1.257 . S
C104 C107 1.358 . S
C104 C108 1.332 . S
C104 C110 1.504 . S
C105 C106 1.373 . S
C105 C109 1.308 . S
C106 C105 1.373 . S
C106 C107 1.429 . S
C106 H116 0.932 . S
C107 C104 1.358 . S
C107 C106 1.429 . S
C107 H117 0.930 . S
C108 C104 1.332 . S
C108 C109 1.394 . S
C108 H118 0.932 . S
C109 C105 1.308 . S
C109 C108 1.394 . S
C109 H119 0.929 . S
C110 Tb81 2.764 . S
C110 O94 1.239 . S
C110 O95 1.263 . S
C110 C104 1.504 . S
C111 O96 1.236 . S
C111 O97 1.257 . S
H112 C85 0.932 . S
H113 C86 0.930 . S
H114 C87 0.932 . S
H115 C88 0.929 . S
H116 C106 0.932 . S
H117 C107 0.930 . S
H118 C108 0.932 . S
H119 C109 0.929 . S
H120 C127 0.929 . S
H121 C130 0.930 . S
H122 C132 0.929 . S
H123 C124 0.969 . S
C124 H123 0.969 . S
C124 O125 1.550 . S
C124 H126 0.973 . S
O125 C124 1.550 . S
O125 C131 1.410 . S
H126 C124 0.973 . S
C127 H120 0.929 . S
C127 C128 1.400 . S
C127 C129 1.364 . S
C128 C127 1.400 . S
C128 C132 1.377 . S
C129 C127 1.364 . S
C129 C130 1.374 1_545 S
C130 H121 0.930 . S
C130 C129 1.374 1_565 S
C130 C131 1.383 . S
C131 O125 1.410 . S
C131 C130 1.383 . S
C131 C132 1.396 1_565 S
C132 H122 0.929 . S
C132 C128 1.377 . S
C132 C131 1.396 1_545 S
H133 C140 0.929 . S
H134 C143 0.930 . S
H135 C145 0.929 . S
H136 C137 0.969 . S
C137 H136 0.969 . S
C137 O138 1.550 . S
C137 H139 0.973 . S
O138 C137 1.550 . S
O138 C144 1.412 . S
H139 C137 0.973 . S
C140 H133 0.929 . S
C140 C141 1.400 . S
C140 C142 1.364 . S
C141 C140 1.400 . S
C141 C145 1.377 . S
C142 C140 1.364 . S
C142 C143 1.374 . S
C143 H134 0.930 . S
C143 C142 1.374 . S
C143 C144 1.383 . S
C144 O138 1.412 . S
C144 C143 1.383 . S
C144 C145 1.394 . S
C145 H135 0.929 . S
C145 C141 1.377 . S
C145 C144 1.394 . S
H146 C153 0.947 . S
H147 C156 0.930 . S
H148 C158 0.929 . S
H149 C150 0.969 . S
C150 H149 0.969 . S
C150 O151 1.550 . S
C150 H152 0.973 . S
O151 C150 1.550 . S
O151 C157 1.412 . S
H152 C150 0.973 . S
C153 H146 0.947 . S
C153 C154 1.400 . S
C153 C155 1.364 . S
C154 C153 1.400 . S
C154 C158 1.377 . S
C155 C153 1.364 . S
C155 C156 1.374 . S
C156 H147 0.930 . S
C156 C155 1.374 . S
C156 C157 1.383 . S
C157 O151 1.412 . S
C157 C156 1.383 . S
C157 C158 1.394 . S
C158 H148 0.929 . S
C158 C154 1.377 . S
C158 C157 1.394 . S
H159 C166 0.929 . S
H160 C169 0.930 . S
H161 C171 0.929 . S
H162 C163 0.969 . S
C163 H162 0.969 . S
C163 O164 1.550 . S
C163 H165 0.973 . S
O164 C163 1.550 . S
O164 C170 1.412 . S
H165 C163 0.973 . S
C166 H159 0.929 . S
C166 C167 1.400 . S
C166 C168 1.364 . S
C167 C166 1.400 . S
C167 C171 1.377 . S
C168 C166 1.364 . S
C168 C169 1.374 1_655 S
C169 H160 0.930 . S
C169 C168 1.374 1_455 S
C169 C170 1.383 . S
C170 O164 1.412 . S
C170 C169 1.383 . S
C170 C171 1.394 1_455 S
C171 H161 0.929 . S
C171 C167 1.377 . S
C171 C170 1.394 1_655 S
H172 C179 0.929 . S
H173 C182 0.930 . S
H174 C184 0.929 . S
H175 C176 0.969 . S
C176 H175 0.969 . S
C176 O177 1.550 . S
C176 H178 0.973 . S
O177 C176 1.550 . S
O177 C183 1.412 . S
H178 C176 0.973 . S
C179 H172 0.929 . S
C179 C180 1.400 . S
C179 C181 1.364 . S
C180 C179 1.400 . S
C180 C184 1.377 . S
C181 C179 1.364 . S
C181 C182 1.374 1_565 S
C182 H173 0.930 . S
C182 C181 1.374 1_545 S
C182 C183 1.383 . S
C183 O177 1.412 . S
C183 C182 1.383 . S
C183 C184 1.394 1_545 S
C184 H174 0.929 . S
C184 C180 1.377 . S
C184 C183 1.394 1_565 S
H185 C192 0.929 . S
H186 C195 0.930 . S
H187 C197 0.929 . S
H188 C189 0.969 . S
C189 H188 0.969 . S
C189 O190 1.550 . S
C189 H191 0.973 . S
O190 C189 1.550 . S
O190 C196 1.412 . S
H191 C189 0.973 . S
C192 H185 0.929 . S
C192 C193 1.400 . S
C192 C194 1.364 . S
C193 C192 1.400 . S
C193 C197 1.377 . S
C194 C192 1.364 . S
C194 C195 1.374 . S
C195 H186 0.930 . S
C195 C194 1.374 . S
C195 C196 1.383 . S
C196 O190 1.412 . S
C196 C195 1.383 . S
C196 C197 1.394 . S
C197 H187 0.929 . S
C197 C193 1.377 . S
C197 C196 1.394 . S
C198 C199 1.391 . S
C198 C200 1.394 . S
C198 H214 0.931 . S
C199 C198 1.391 . S
C199 C203 1.376 . S
C200 C198 1.394 . S
C200 C201 1.369 . S
C200 C204 1.531 . S
C201 C200 1.369 . S
C201 C202 1.410 . S
C201 C209 1.503 . S
C202 C201 1.410 . S
C202 C203 1.392 . S
C202 C205 1.511 . S
C203 C199 1.376 . S
C203 C202 1.392 . S
C203 H215 0.929 . S
C204 C200 1.531 . S
C204 H216 0.960 . S
C204 H217 0.962 . S
C204 H218 0.960 . S
C205 C202 1.511 . S
C205 H219 0.961 . S
C205 H220 0.961 . S
C205 H221 0.961 . S
C206 C207 1.370 . S
C206 C208 1.363 . S
C206 H222 0.931 . S
C207 C206 1.370 . S
C207 C211 1.408 . S
C208 C206 1.363 . S
C208 C209 1.370 . S
C208 C212 1.524 . S
C209 C201 1.503 . S
C209 C208 1.370 . S
C209 C210 1.403 . S
C210 C209 1.403 . S
C210 C211 1.404 . S
C210 C213 1.539 . S
C211 C207 1.408 . S
C211 C210 1.404 . S
C211 H223 0.930 . S
C212 C208 1.524 . S
C212 H224 0.956 . S
C212 H225 0.961 . S
C212 H226 0.961 . S
C213 C210 1.539 . S
C213 H227 0.958 . S
C213 H228 0.961 . S
C213 H229 0.960 . S
H214 C198 0.931 . S
H215 C203 0.929 . S
H216 C204 0.960 . S
H217 C204 0.962 . S
H218 C204 0.960 . S
H219 C205 0.961 . S
H220 C205 0.961 . S
H221 C205 0.961 . S
H222 C206 0.931 . S
H223 C211 0.930 . S
H224 C212 0.956 . S
H225 C212 0.961 . S
H226 C212 0.961 . S
H227 C213 0.958 . S
H228 C213 0.961 . S
H229 C213 0.960 . S
C230 C231 1.391 . S
C230 C232 1.394 . S
C230 H246 0.931 . S
C231 C230 1.391 . S
C231 C235 1.376 . S
C232 C230 1.394 . S
C232 C233 1.369 . S
C232 C236 1.531 . S
C233 C232 1.369 . S
C233 C234 1.410 . S
C233 C241 1.503 . S
C234 C233 1.410 . S
C234 C235 1.392 . S
C234 C237 1.511 . S
C235 C231 1.376 . S
C235 C234 1.392 . S
C235 H247 0.929 . S
C236 C232 1.531 . S
C236 H248 0.960 . S
C236 H249 0.962 . S
C236 H250 0.960 . S
C237 C234 1.511 . S
C237 H251 0.961 . S
C237 H252 0.961 . S
C237 H253 0.961 . S
C238 C239 1.370 . S
C238 C240 1.363 . S
C238 H254 0.931 . S
C239 C238 1.370 . S
C239 C243 1.408 . S
C240 C238 1.363 . S
C240 C241 1.370 . S
C240 C244 1.524 . S
C241 C233 1.503 . S
C241 C240 1.370 . S
C241 C242 1.403 . S
C242 C241 1.403 . S
C242 C243 1.404 . S
C242 C245 1.539 . S
C243 C239 1.408 . S
C243 C242 1.404 . S
C243 H255 0.930 . S
C244 C240 1.524 . S
C244 H256 0.956 . S
C244 H257 0.961 . S
C244 H258 0.961 . S
C245 C242 1.539 . S
C245 H259 0.958 . S
C245 H260 0.961 . S
C245 H261 0.960 . S
H246 C230 0.931 . S
H247 C235 0.929 . S
H248 C236 0.960 . S
H249 C236 0.962 . S
H250 C236 0.960 . S
H251 C237 0.961 . S
H252 C237 0.961 . S
H253 C237 0.961 . S
H254 C238 0.931 . S
H255 C243 0.930 . S
H256 C244 0.956 . S
H257 C244 0.961 . S
H258 C244 0.961 . S
H259 C245 0.958 . S
H260 C245 0.961 . S
H261 C245 0.960 . S
C262 C263 1.391 . S
C262 C264 1.394 . S
C262 H278 0.931 . S
C263 C262 1.391 . S
C263 C267 1.376 . S
C264 C262 1.394 . S
C264 C265 1.369 . S
C264 C268 1.531 . S
C265 C264 1.369 . S
C265 C266 1.410 . S
C265 C273 1.503 . S
C266 C265 1.410 . S
C266 C267 1.392 . S
C266 C269 1.511 . S
C267 C263 1.376 . S
C267 C266 1.392 . S
C267 H279 0.929 . S
C268 C264 1.531 . S
C268 H280 0.960 . S
C268 H281 0.962 . S
C268 H282 0.960 . S
C269 C266 1.511 . S
C269 H283 0.961 . S
C269 H284 0.961 . S
C269 H285 0.961 . S
C270 C271 1.370 . S
C270 C272 1.363 . S
C270 H286 0.931 . S
C271 C270 1.370 . S
C271 C275 1.408 . S
C272 C270 1.363 . S
C272 C273 1.370 . S
C272 C276 1.524 . S
C273 C265 1.503 . S
C273 C272 1.370 . S
C273 C274 1.403 . S
C274 C273 1.403 . S
C274 C275 1.404 . S
C274 C277 1.539 . S
C275 C271 1.408 . S
C275 C274 1.404 . S
C275 H287 0.930 . S
C276 C272 1.524 . S
C276 H288 0.956 . S
C276 H289 0.961 . S
C276 H290 0.961 . S
C277 C274 1.539 . S
C277 H291 0.958 . S
C277 H292 0.961 . S
C277 H293 0.960 . S
H278 C262 0.931 . S
H279 C267 0.929 . S
H280 C268 0.960 . S
H281 C268 0.962 . S
H282 C268 0.960 . S
H283 C269 0.961 . S
H284 C269 0.961 . S
H285 C269 0.961 . S
H286 C270 0.931 . S
H287 C275 0.930 . S
H288 C276 0.956 . S
H289 C276 0.961 . S
H290 C276 0.961 . S
H291 C277 0.958 . S
H292 C277 0.961 . S
H293 C277 0.960 . S
C294 C295 1.391 . S
C294 C296 1.394 . S
C294 H310 0.931 . S
C295 C294 1.391 . S
C295 C299 1.376 . S
C296 C294 1.394 . S
C296 C297 1.369 . S
C296 C300 1.531 . S
C297 C296 1.369 . S
C297 C298 1.410 . S
C297 C305 1.503 . S
C298 C297 1.410 . S
C298 C299 1.392 . S
C298 C301 1.511 . S
C299 C295 1.376 . S
C299 C298 1.392 . S
C299 H311 0.929 . S
C300 C296 1.531 . S
C300 H312 0.960 . S
C300 H313 0.962 . S
C300 H314 0.960 . S
C301 C298 1.511 . S
C301 H315 0.961 . S
C301 H316 0.961 . S
C301 H317 0.961 . S
C302 C303 1.370 . S
C302 C304 1.363 . S
C302 H318 0.931 . S
C303 C302 1.370 . S
C303 C307 1.408 . S
C304 C302 1.363 . S
C304 C305 1.370 . S
C304 C308 1.524 . S
C305 C297 1.503 . S
C305 C304 1.370 . S
C305 C306 1.403 . S
C306 C305 1.403 . S
C306 C307 1.404 . S
C306 C309 1.539 . S
C307 C303 1.408 . S
C307 C306 1.404 . S
C307 H319 0.930 . S
C308 C304 1.524 . S
C308 H320 0.956 . S
C308 H321 0.961 . S
C308 H322 0.961 . S
C309 C306 1.539 . S
C309 H323 0.958 . S
C309 H324 0.961 . S
C309 H325 0.960 . S
H310 C294 0.931 . S
H311 C299 0.929 . S
H312 C300 0.960 . S
H313 C300 0.962 . S
H314 C300 0.960 . S
H315 C301 0.961 . S
H316 C301 0.961 . S
H317 C301 0.961 . S
H318 C302 0.931 . S
H319 C307 0.930 . S
H320 C308 0.956 . S
H321 C308 0.961 . S
H322 C308 0.961 . S
H323 C309 0.958 . S
H324 C309 0.961 . S
H325 C309 0.960 . S
C326 C327 1.391 . S
C326 C328 1.394 . S
C326 H342 0.931 . S
C327 C326 1.391 . S
C327 C331 1.376 . S
C328 C326 1.394 . S
C328 C329 1.369 . S
C328 C332 1.531 . S
C329 C328 1.369 . S
C329 C330 1.410 . S
C329 C337 1.503 . S
C330 C329 1.410 . S
C330 C331 1.392 . S
C330 C333 1.511 . S
C331 C327 1.376 . S
C331 C330 1.392 . S
C331 H343 0.929 . S
C332 C328 1.531 . S
C332 H344 0.960 . S
C332 H345 0.962 . S
C332 H346 0.960 . S
C333 C330 1.511 . S
C333 H347 0.961 . S
C333 H348 0.961 . S
C333 H349 0.961 . S
C334 C335 1.370 . S
C334 C336 1.363 . S
C334 H350 0.931 . S
C335 C334 1.370 . S
C335 C339 1.408 . S
C336 C334 1.363 . S
C336 C337 1.370 . S
C336 C340 1.524 . S
C337 C329 1.503 . S
C337 C336 1.370 . S
C337 C338 1.403 . S
C338 C337 1.403 . S
C338 C339 1.404 . S
C338 C341 1.539 . S
C339 C335 1.408 . S
C339 C338 1.404 . S
C339 H351 0.930 . S
C340 C336 1.524 . S
C340 H352 0.956 . S
C340 H353 0.961 . S
C340 H354 0.961 . S
C341 C338 1.539 . S
C341 H355 0.958 . S
C341 H356 0.961 . S
C341 H357 0.960 . S
H342 C326 0.931 . S
H343 C331 0.929 . S
H344 C332 0.960 . S
H345 C332 0.962 . S
H346 C332 0.960 . S
H347 C333 0.961 . S
H348 C333 0.961 . S
H349 C333 0.961 . S
H350 C334 0.931 . S
H351 C339 0.930 . S
H352 C340 0.956 . S
H353 C340 0.961 . S
H354 C340 0.961 . S
H355 C341 0.958 . S
H356 C341 0.961 . S
H357 C341 0.960 . S
C358 C359 1.391 . S
C358 C360 1.394 . S
C358 H374 0.931 . S
C359 C358 1.391 . S
C359 C363 1.376 . S
C360 C358 1.394 . S
C360 C361 1.369 . S
C360 C364 1.531 . S
C361 C360 1.369 . S
C361 C362 1.410 . S
C361 C369 1.503 . S
C362 C361 1.410 . S
C362 C363 1.392 . S
C362 C365 1.511 . S
C363 C359 1.376 . S
C363 C362 1.392 . S
C363 H375 0.929 . S
C364 C360 1.531 . S
C364 H376 0.960 . S
C364 H377 0.962 . S
C364 H378 0.960 . S
C365 C362 1.511 . S
C365 H379 0.961 . S
C365 H380 0.961 . S
C365 H381 0.961 . S
C366 C367 1.370 . S
C366 C368 1.363 . S
C366 H382 0.931 . S
C367 C366 1.370 . S
C367 C371 1.408 . S
C368 C366 1.363 . S
C368 C369 1.370 . S
C368 C372 1.524 . S
C369 C361 1.503 . S
C369 C368 1.370 . S
C369 C370 1.403 . S
C370 C369 1.403 . S
C370 C371 1.404 . S
C370 C373 1.539 . S
C371 C367 1.408 . S
C371 C370 1.404 . S
C371 H383 0.930 . S
C372 C368 1.524 . S
C372 H384 0.956 . S
C372 H385 0.961 . S
C372 H386 0.961 . S
C373 C370 1.539 . S
C373 H387 0.958 . S
C373 H388 0.961 . S
C373 H389 0.960 . S
H374 C358 0.931 . S
H375 C363 0.929 . S
H376 C364 0.960 . S
H377 C364 0.962 . S
H378 C364 0.960 . S
H379 C365 0.961 . S
H380 C365 0.961 . S
H381 C365 0.961 . S
H382 C366 0.931 . S
H383 C371 0.930 . S
H384 C372 0.956 . S
H385 C372 0.961 . S
H386 C372 0.961 . S
H387 C373 0.958 . S
H388 C373 0.961 . S
H389 C373 0.960 . S
C390 C391 1.391 . S
C390 C392 1.394 . S
C390 H406 0.931 . S
C391 C390 1.391 . S
C391 C395 1.376 . S
C392 C390 1.394 . S
C392 C393 1.369 . S
C392 C396 1.531 . S
C393 C392 1.369 . S
C393 C394 1.410 . S
C393 C401 1.503 . S
C394 C393 1.410 . S
C394 C395 1.392 . S
C394 C397 1.511 . S
C395 C391 1.376 . S
C395 C394 1.392 . S
C395 H407 0.929 . S
C396 C392 1.531 . S
C396 H408 0.960 . S
C396 H409 0.962 . S
C396 H410 0.960 . S
C397 C394 1.511 . S
C397 H411 0.961 . S
C397 H412 0.961 . S
C397 H413 0.961 . S
C398 C399 1.370 . S
C398 C400 1.363 . S
C398 H414 0.931 . S
C399 C398 1.370 . S
C399 C403 1.408 . S
C400 C398 1.363 . S
C400 C401 1.370 . S
C400 C404 1.524 . S
C401 C393 1.503 . S
C401 C400 1.370 . S
C401 C402 1.403 . S
C402 C401 1.403 . S
C402 C403 1.404 . S
C402 C405 1.539 . S
C403 C399 1.408 . S
C403 C402 1.404 . S
C403 H415 0.930 . S
C404 C400 1.524 . S
C404 H416 0.956 . S
C404 H417 0.961 . S
C404 H418 0.961 . S
C405 C402 1.539 . S
C405 H419 0.958 . S
C405 H420 0.961 . S
C405 H421 0.960 . S
H406 C390 0.931 . S
H407 C395 0.929 . S
H408 C396 0.960 . S
H409 C396 0.962 . S
H410 C396 0.960 . S
H411 C397 0.961 . S
H412 C397 0.961 . S
H413 C397 0.961 . S
H414 C398 0.931 . S
H415 C403 0.930 . S
H416 C404 0.956 . S
H417 C404 0.961 . S
H418 C404 0.961 . S
H419 C405 0.958 . S
H420 C405 0.961 . S
H421 C405 0.960 . S
C422 C423 1.391 . S
C422 C424 1.394 . S
C422 H438 0.931 . S
C423 C422 1.391 . S
C423 C427 1.376 . S
C424 C422 1.394 . S
C424 C425 1.369 . S
C424 C428 1.531 . S
C425 C424 1.369 . S
C425 C426 1.410 . S
C425 C433 1.503 . S
C426 C425 1.410 . S
C426 C427 1.392 . S
C426 C429 1.511 . S
C427 C423 1.376 . S
C427 C426 1.392 . S
C427 H439 0.929 . S
C428 C424 1.531 . S
C428 H440 0.960 . S
C428 H441 0.962 . S
C428 H442 0.960 . S
C429 C426 1.511 . S
C429 H443 0.961 . S
C429 H444 0.961 . S
C429 H445 0.961 . S
C430 C431 1.370 . S
C430 C432 1.363 . S
C430 H446 0.931 . S
C431 C430 1.370 . S
C431 C435 1.408 . S
C432 C430 1.363 . S
C432 C433 1.370 . S
C432 C436 1.524 . S
C433 C425 1.503 . S
C433 C432 1.370 . S
C433 C434 1.403 . S
C434 C433 1.403 . S
C434 C435 1.404 . S
C434 C437 1.539 . S
C435 C431 1.408 . S
C435 C434 1.404 . S
C435 H447 0.930 . S
C436 C432 1.524 . S
C436 H448 0.956 . S
C436 H449 0.961 . S
C436 H450 0.961 . S
C437 C434 1.539 . S
C437 H451 0.958 . S
C437 H452 0.961 . S
C437 H453 0.960 . S
H438 C422 0.931 . S
H439 C427 0.929 . S
H440 C428 0.960 . S
H441 C428 0.962 . S
H442 C428 0.960 . S
H443 C429 0.961 . S
H444 C429 0.961 . S
H445 C429 0.961 . S
H446 C430 0.931 . S
H447 C435 0.930 . S
H448 C436 0.956 . S
H449 C436 0.961 . S
H450 C436 0.961 . S
H451 C437 0.958 . S
H452 C437 0.961 . S
H453 C437 0.960 . S
C454 C455 1.391 . S
C454 C456 1.394 . S
C454 H470 0.931 . S
C455 C454 1.391 . S
C455 C459 1.376 . S
C456 C454 1.394 . S
C456 C457 1.369 . S
C456 C460 1.531 . S
C457 C456 1.369 . S
C457 C458 1.410 . S
C457 C465 1.503 . S
C458 C457 1.410 . S
C458 C459 1.392 . S
C458 C461 1.511 . S
C459 C455 1.376 . S
C459 C458 1.392 . S
C459 H471 0.929 . S
C460 C456 1.531 . S
C460 H472 0.960 . S
C460 H473 0.962 . S
C460 H474 0.960 . S
C461 C458 1.511 . S
C461 H475 0.961 . S
C461 H476 0.961 . S
C461 H477 0.961 . S
C462 C463 1.370 . S
C462 C464 1.363 . S
C462 H478 0.931 . S
C463 C462 1.370 . S
C463 C467 1.408 . S
C464 C462 1.363 . S
C464 C465 1.370 . S
C464 C468 1.524 . S
C465 C457 1.503 . S
C465 C464 1.370 . S
C465 C466 1.403 . S
C466 C465 1.403 . S
C466 C467 1.404 . S
C466 C469 1.539 . S
C467 C463 1.408 . S
C467 C466 1.404 . S
C467 H479 0.930 . S
C468 C464 1.524 . S
C468 H480 0.956 . S
C468 H481 0.961 . S
C468 H482 0.961 . S
C469 C466 1.539 . S
C469 H483 0.958 . S
C469 H484 0.961 . S
C469 H485 0.960 . S
H470 C454 0.931 . S
H471 C459 0.929 . S
H472 C460 0.960 . S
H473 C460 0.962 . S
H474 C460 0.960 . S
H475 C461 0.961 . S
H476 C461 0.961 . S
H477 C461 0.961 . S
H478 C462 0.931 . S
H479 C467 0.930 . S
H480 C468 0.956 . S
H481 C468 0.961 . S
H482 C468 0.961 . S
H483 C469 0.958 . S
H484 C469 0.961 . S
H485 C469 0.960 . S
C486 C487 1.391 . S
C486 C488 1.394 . S
C486 H502 0.931 . S
C487 C486 1.391 . S
C487 C491 1.376 . S
C488 C486 1.394 . S
C488 C489 1.369 . S
C488 C492 1.531 . S
C489 C488 1.369 . S
C489 C490 1.410 . S
C489 C497 1.503 . S
C490 C489 1.410 . S
C490 C491 1.392 . S
C490 C493 1.511 . S
C491 C487 1.376 . S
C491 C490 1.392 . S
C491 H503 0.929 . S
C492 C488 1.531 . S
C492 H504 0.960 . S
C492 H505 0.962 . S
C492 H506 0.960 . S
C493 C490 1.511 . S
C493 H507 0.961 . S
C493 H508 0.961 . S
C493 H509 0.961 . S
C494 C495 1.370 . S
C494 C496 1.363 . S
C494 H510 0.931 . S
C495 C494 1.370 . S
C495 C499 1.408 . S
C496 C494 1.363 . S
C496 C497 1.370 . S
C496 C500 1.524 . S
C497 C489 1.503 . S
C497 C496 1.370 . S
C497 C498 1.403 . S
C498 C497 1.403 . S
C498 C499 1.404 . S
C498 C501 1.539 . S
C499 C495 1.408 . S
C499 C498 1.404 . S
C499 H511 0.930 . S
C500 C496 1.524 . S
C500 H512 0.956 . S
C500 H513 0.961 . S
C500 H514 0.961 . S
C501 C498 1.539 . S
C501 H515 0.958 . S
C501 H516 0.961 . S
C501 H517 0.960 . S
H502 C486 0.931 . S
H503 C491 0.929 . S
H504 C492 0.960 . S
H505 C492 0.962 . S
H506 C492 0.960 . S
H507 C493 0.961 . S
H508 C493 0.961 . S
H509 C493 0.961 . S
H510 C494 0.931 . S
H511 C499 0.930 . S
H512 C500 0.956 . S
H513 C500 0.961 . S
H514 C500 0.961 . S
H515 C501 0.958 . S
H516 C501 0.961 . S
H517 C501 0.960 . S
C518 C519 1.391 . S
C518 C520 1.394 . S
C518 H534 0.931 . S
C519 C518 1.391 . S
C519 C523 1.376 . S
C520 C518 1.394 . S
C520 C521 1.369 . S
C520 C524 1.531 . S
C521 C520 1.369 . S
C521 C522 1.410 . S
C521 C529 1.503 . S
C522 C521 1.410 . S
C522 C523 1.392 . S
C522 C525 1.511 . S
C523 C519 1.376 . S
C523 C522 1.392 . S
C523 H535 0.929 . S
C524 C520 1.531 . S
C524 H536 0.960 . S
C524 H537 0.962 . S
C524 H538 0.960 . S
C525 C522 1.511 . S
C525 H539 0.961 . S
C525 H540 0.961 . S
C525 H541 0.961 . S
C526 C527 1.370 . S
C526 C528 1.363 . S
C526 H542 0.931 . S
C527 C526 1.370 . S
C527 C531 1.408 . S
C528 C526 1.363 . S
C528 C529 1.370 . S
C528 C532 1.524 . S
C529 C521 1.503 . S
C529 C528 1.370 . S
C529 C530 1.403 . S
C530 C529 1.403 . S
C530 C531 1.404 . S
C530 C533 1.539 . S
C531 C527 1.408 . S
C531 C530 1.404 . S
C531 H543 0.930 . S
C532 C528 1.524 . S
C532 H544 0.956 . S
C532 H545 0.961 . S
C532 H546 0.961 . S
C533 C530 1.539 . S
C533 H547 0.958 . S
C533 H548 0.961 . S
C533 H549 0.960 . S
H534 C518 0.931 . S
H535 C523 0.929 . S
H536 C524 0.960 . S
H537 C524 0.962 . S
H538 C524 0.960 . S
H539 C525 0.961 . S
H540 C525 0.961 . S
H541 C525 0.961 . S
H542 C526 0.931 . S
H543 C531 0.930 . S
H544 C532 0.956 . S
H545 C532 0.961 . S
H546 C532 0.961 . S
H547 C533 0.958 . S
H548 C533 0.961 . S
H549 C533 0.960 . S
C550 C551 1.391 . S
C550 C552 1.394 . S
C550 H566 0.931 . S
C551 C550 1.391 . S
C551 C555 1.376 . S
C552 C550 1.394 . S
C552 C553 1.369 . S
C552 C556 1.531 . S
C553 C552 1.369 . S
C553 C554 1.410 . S
C553 C561 1.503 . S
C554 C553 1.410 . S
C554 C555 1.392 . S
C554 C557 1.511 . S
C555 C551 1.376 . S
C555 C554 1.392 . S
C555 H567 0.929 . S
C556 C552 1.531 . S
C556 H568 0.960 . S
C556 H569 0.962 . S
C556 H570 0.960 . S
C557 C554 1.511 . S
C557 H571 0.961 . S
C557 H572 0.961 . S
C557 H573 0.961 . S
C558 C559 1.370 . S
C558 C560 1.363 . S
C558 H574 0.931 . S
C559 C558 1.370 . S
C559 C563 1.408 . S
C560 C558 1.363 . S
C560 C561 1.370 . S
C560 C564 1.524 . S
C561 C553 1.503 . S
C561 C560 1.370 . S
C561 C562 1.403 . S
C562 C561 1.403 . S
C562 C563 1.404 . S
C562 C565 1.539 . S
C563 C559 1.408 . S
C563 C562 1.404 . S
C563 H575 0.930 . S
C564 C560 1.524 . S
C564 H576 0.956 . S
C564 H577 0.961 . S
C564 H578 0.961 . S
C565 C562 1.539 . S
C565 H579 0.958 . S
C565 H580 0.961 . S
C565 H581 0.960 . S
H566 C550 0.931 . S
H567 C555 0.929 . S
H568 C556 0.960 . S
H569 C556 0.962 . S
H570 C556 0.960 . S
H571 C557 0.961 . S
H572 C557 0.961 . S
H573 C557 0.961 . S
H574 C558 0.931 . S
H575 C563 0.930 . S
H576 C564 0.956 . S
H577 C564 0.961 . S
H578 C564 0.961 . S
H579 C565 0.958 . S
H580 C565 0.961 . S
H581 C565 0.960 . S
C582 C583 1.391 1_655 S
C582 C584 1.394 . S
C582 H598 0.931 . S
C583 C582 1.391 1_455 S
C583 C587 1.376 . S
C584 C582 1.394 . S
C584 C585 1.369 1_655 S
C584 C588 1.531 . S
C585 C584 1.369 1_455 S
C585 C586 1.410 . S
C585 C593 1.503 1_554 S
C586 C585 1.410 . S
C586 C587 1.392 . S
C586 C589 1.511 . S
C587 C583 1.376 . S
C587 C586 1.392 . S
C587 H599 0.929 . S
C588 C584 1.531 . S
C588 H600 0.961 1_554 S
C588 H601 0.962 . S
C588 H602 0.960 . S
C589 C586 1.511 . S
C589 H603 0.961 . S
C589 H604 0.961 . S
C589 H605 0.961 . S
C590 C591 1.370 . S
C590 C592 1.363 . S
C590 H606 0.931 . S
C591 C590 1.370 . S
C591 C595 1.408 . S
C592 C590 1.363 . S
C592 C593 1.370 . S
C592 C596 1.529 . S
C593 C585 1.503 1_556 S
C593 C592 1.370 . S
C593 C594 1.403 . S
C594 C593 1.403 . S
C594 C595 1.404 . S
C594 C597 1.539 . S
C595 C591 1.408 . S
C595 C594 1.404 . S
C595 H607 0.930 . S
C596 C592 1.529 . S
C596 H608 0.953 1_556 S
C596 H609 0.953 1_556 S
C596 H610 0.967 . S
C597 C594 1.539 . S
C597 H611 0.958 1_455 S
C597 H612 0.961 . S
C597 H613 0.960 1_556 S
H598 C582 0.931 . S
H599 C587 0.929 . S
H600 C588 0.961 1_556 S
H601 C588 0.962 . S
H602 C588 0.960 . S
H603 C589 0.961 . S
H604 C589 0.961 . S
H605 C589 0.961 . S
H606 C590 0.931 . S
H607 C595 0.930 . S
H608 C596 0.953 1_554 S
H609 C596 0.953 1_554 S
H610 C596 0.967 . S
H611 C597 0.958 1_655 S
H612 C597 0.961 . S
H613 C597 0.960 1_554 S
C614 C615 1.391 . S
C614 C616 1.394 . S
C614 H630 0.931 . S
C615 C614 1.391 . S
C615 C619 1.376 . S
C616 C614 1.394 . S
C616 C617 1.369 . S
C616 C620 1.531 1_545 S
C617 C616 1.369 . S
C617 C618 1.410 . S
C617 C625 1.503 . S
C618 C617 1.410 . S
C618 C619 1.392 . S
C618 C621 1.511 . S
C619 C615 1.376 . S
C619 C618 1.392 . S
C619 H631 0.929 . S
C620 C616 1.531 1_565 S
C620 H632 0.960 . S
C620 H633 0.962 1_565 S
C620 H634 0.960 . S
C621 C618 1.511 . S
C621 H635 0.961 . S
C621 H636 0.961 . S
C621 H637 0.961 . S
C622 C623 1.370 . S
C622 C624 1.363 . S
C622 H638 0.931 . S
C623 C622 1.370 . S
C623 C627 1.408 1_545 S
C624 C622 1.363 . S
C624 C625 1.370 . S
C624 C628 1.524 . S
C625 C617 1.503 . S
C625 C624 1.370 . S
C625 C626 1.403 1_545 S
C626 C625 1.403 1_565 S
C626 C627 1.404 . S
C626 C629 1.539 . S
C627 C623 1.408 1_565 S
C627 C626 1.404 . S
C627 H639 0.930 . S
C628 C624 1.524 . S
C628 H640 0.956 . S
C628 H641 0.961 . S
C628 H642 0.961 . S
C629 C626 1.539 . S
C629 H643 0.958 . S
C629 H644 0.961 . S
C629 H645 0.960 . S
H630 C614 0.931 . S
H631 C619 0.929 . S
H632 C620 0.960 . S
H633 C620 0.962 1_545 S
H634 C620 0.960 . S
H635 C621 0.961 . S
H636 C621 0.961 . S
H637 C621 0.961 . S
H638 C622 0.931 . S
H639 C627 0.930 . S
H640 C628 0.956 . S
H641 C628 0.961 . S
H642 C628 0.961 . S
H643 C629 0.958 . S
H644 C629 0.961 . S
H645 C629 0.960 . S
C646 C647 1.391 . S
C646 C648 1.394 . S
C646 H662 0.931 . S
C647 C646 1.391 . S
C647 C651 1.376 . S
C648 C646 1.394 . S
C648 C649 1.369 . S
C648 C652 1.531 . S
C649 C648 1.369 . S
C649 C650 1.410 . S
C649 C657 1.503 . S
C650 C649 1.410 . S
C650 C651 1.392 . S
C650 C653 1.511 . S
C651 C647 1.376 . S
C651 C650 1.392 . S
C651 H663 0.929 . S
C652 C648 1.531 . S
C652 H664 0.960 . S
C652 H665 0.962 . S
C652 H666 0.960 . S
C653 C650 1.511 . S
C653 H667 0.961 . S
C653 H668 0.961 . S
C653 H669 0.961 . S
C654 C655 1.370 . S
C654 C656 1.363 . S
C654 H670 0.931 . S
C655 C654 1.370 . S
C655 C659 1.408 . S
C656 C654 1.363 . S
C656 C657 1.370 . S
C656 C660 1.524 . S
C657 C649 1.503 . S
C657 C656 1.370 . S
C657 C658 1.403 . S
C658 C657 1.403 . S
C658 C659 1.404 . S
C658 C661 1.539 . S
C659 C655 1.408 . S
C659 C658 1.404 . S
C659 H671 0.930 . S
C660 C656 1.524 . S
C660 H672 0.956 . S
C660 H673 0.961 . S
C660 H674 0.961 . S
C661 C658 1.539 . S
C661 H675 0.958 . S
C661 H676 0.961 . S
C661 H677 0.960 . S
H662 C646 0.931 . S
H663 C651 0.929 . S
H664 C652 0.960 . S
H665 C652 0.962 . S
H666 C652 0.960 . S
H667 C653 0.961 . S
H668 C653 0.961 . S
H669 C653 0.961 . S
H670 C654 0.931 . S
H671 C659 0.930 . S
H672 C660 0.956 . S
H673 C660 0.961 . S
H674 C660 0.961 . S
H675 C661 0.958 . S
H676 C661 0.961 . S
H677 C661 0.960 . S
C678 C679 1.391 . S
C678 C680 1.394 . S
C678 H694 0.931 . S
C679 C678 1.391 . S
C679 C683 1.376 . S
C680 C678 1.394 . S
C680 C681 1.369 . S
C680 C684 1.531 . S
C681 C680 1.369 . S
C681 C682 1.410 . S
C681 C689 1.503 . S
C682 C681 1.410 . S
C682 C683 1.392 . S
C682 C685 1.511 1_545 S
C683 C679 1.376 . S
C683 C682 1.392 . S
C683 H695 0.929 1_545 S
C684 C680 1.531 . S
C684 H696 0.960 . S
C684 H697 0.962 . S
C684 H698 0.960 . S
C685 C682 1.511 1_565 S
C685 H699 0.961 . S
C685 H700 0.961 . S
C685 H701 0.961 1_565 S
C686 C687 1.355 1_565 S
C686 C688 1.363 . S
C686 H702 0.931 . S
C687 C686 1.355 1_545 S
C687 C691 1.424 . S
C688 C686 1.363 . S
C688 C689 1.370 1_565 S
C688 C692 1.524 . S
C689 C681 1.503 . S
C689 C688 1.370 1_545 S
C689 C690 1.403 . S
C690 C689 1.403 . S
C690 C691 1.404 . S
C690 C693 1.539 . S
C691 C687 1.424 . S
C691 C690 1.404 . S
C691 H703 0.930 . S
C692 C688 1.524 . S
C692 H704 0.956 . S
C692 H705 0.961 . S
C692 H706 0.961 . S
C693 C690 1.539 . S
C693 H707 0.958 . S
C693 H708 0.961 . S
C693 H709 0.960 . S
H694 C678 0.931 . S
H695 C683 0.929 1_565 S
H696 C684 0.960 . S
H697 C684 0.962 . S
H698 C684 0.960 . S
H699 C685 0.961 . S
H700 C685 0.961 . S
H701 C685 0.961 1_545 S
H702 C686 0.931 . S
H703 C691 0.930 . S
H704 C692 0.956 . S
H705 C692 0.961 . S
H706 C692 0.961 . S
H707 C693 0.958 . S
H708 C693 0.961 . S
H709 C693 0.960 . S
C710 C711 1.391 . S
C710 C712 1.394 . S
C710 H726 0.931 . S
C711 C710 1.391 . S
C711 C715 1.376 . S
C712 C710 1.394 . S
C712 C713 1.369 . S
C712 C716 1.531 . S
C713 C712 1.369 . S
C713 C714 1.410 . S
C713 C721 1.503 . S
C714 C713 1.410 . S
C714 C715 1.392 . S
C714 C717 1.511 . S
C715 C711 1.376 . S
C715 C714 1.392 . S
C715 H727 0.929 . S
C716 C712 1.531 . S
C716 H728 0.960 . S
C716 H729 0.962 . S
C716 H730 0.960 . S
C717 C714 1.511 . S
C717 H731 0.961 . S
C717 H732 0.961 . S
C717 H733 0.961 . S
C718 C719 1.370 . S
C718 C720 1.363 . S
C718 H734 0.931 . S
C719 C718 1.370 . S
C719 C723 1.408 . S
C720 C718 1.363 . S
C720 C721 1.370 1_554 S
C720 C724 1.524 1_554 S
C721 C713 1.503 . S
C721 C720 1.370 1_556 S
C721 C722 1.403 1_556 S
C722 C721 1.403 1_554 S
C722 C723 1.404 . S
C722 C725 1.539 1_554 S
C723 C719 1.408 . S
C723 C722 1.404 . S
C723 H735 0.930 . S
C724 C720 1.524 1_556 S
C724 H736 0.956 . S
C724 H737 0.961 . S
C724 H738 0.961 1_556 S
C725 C722 1.539 1_556 S
C725 H739 0.958 . S
C725 H740 0.961 . S
C725 H741 0.960 . S
H726 C710 0.931 . S
H727 C715 0.929 . S
H728 C716 0.960 . S
H729 C716 0.962 . S
H730 C716 0.960 . S
H731 C717 0.961 . S
H732 C717 0.961 . S
H733 C717 0.961 . S
H734 C718 0.931 . S
H735 C723 0.930 . S
H736 C724 0.956 . S
H737 C724 0.961 . S
H738 C724 0.961 1_554 S
H739 C725 0.958 . S
H740 C725 0.961 . S
H741 C725 0.960 . S
C742 C743 1.391 1_455 S
C742 C744 1.394 . S
C742 H758 0.931 . S
C743 C742 1.391 1_655 S
C743 C747 1.376 . S
C744 C742 1.394 . S
C744 C745 1.369 1_455 S
C744 C748 1.531 . S
C745 C744 1.369 1_655 S
C745 C746 1.410 . S
C745 C753 1.503 . S
C746 C745 1.410 . S
C746 C747 1.392 . S
C746 C749 1.511 . S
C747 C743 1.376 . S
C747 C746 1.392 . S
C747 H759 0.929 . S
C748 C744 1.531 . S
C748 H760 0.960 . S
C748 H761 0.962 . S
C748 H762 0.960 . S
C749 C746 1.511 . S
C749 H763 0.961 . S
C749 H764 0.961 . S
C749 H765 0.961 . S
C750 C751 1.370 1_455 S
C750 C752 1.363 . S
C750 H766 0.931 . S
C751 C750 1.370 1_655 S
C751 C755 1.408 . S
C752 C750 1.363 . S
C752 C753 1.370 1_455 S
C752 C756 1.524 . S
C753 C745 1.503 . S
C753 C752 1.370 1_655 S
C753 C754 1.403 . S
C754 C753 1.403 . S
C754 C755 1.404 . S
C754 C757 1.539 . S
C755 C751 1.408 . S
C755 C754 1.404 . S
C755 H767 0.930 . S
C756 C752 1.524 . S
C756 H768 0.956 . S
C756 H769 0.961 1_455 S
C756 H770 0.961 . S
C757 C754 1.539 . S
C757 H771 0.958 . S
C757 H772 0.961 . S
C757 H773 0.960 . S
H758 C742 0.931 . S
H759 C747 0.929 . S
H760 C748 0.960 . S
H761 C748 0.962 . S
H762 C748 0.960 . S
H763 C749 0.961 . S
H764 C749 0.961 . S
H765 C749 0.961 . S
H766 C750 0.931 . S
H767 C755 0.930 . S
H768 C756 0.956 . S
H769 C756 0.961 1_655 S
H770 C756 0.961 . S
H771 C757 0.958 . S
H772 C757 0.961 . S
H773 C757 0.960 . S
C199 C25 0.371 . S
C207 C189 0.471 . S
C231 C65 0.244 . S
C239 C167 0.287 . S
C263 C105 0.306 . S
C271 C180 0.332 . S
C295 C4 0.269 . S
C303 C193 0.223 . S
C335 C163 0.546 . S
C327 C44 0.557 . S
C367 C176 0.526 . S
C359 C84 0.490 . S
C391 C60 2.885 . S
C399 C141 2.862 . S
C423 C100 3.010 . S
C431 C154 2.965 1_655 S
C455 C31 3.114 . S
C463 C124 2.904 . S
C495 C137 2.933 . S
C487 C71 3.126 . S
C527 C150 2.818 . S
C519 C111 2.986 . S
C551 C20 2.898 . S
C559 C128 2.873 . S
C591 C155 1.760 . S
C583 C2 1.694 . S
C615 C42 1.678 . S
C623 C129 1.786 . S
C647 C82 1.736 . S
C655 C142 1.811 . S
C687 C181 1.255 1_545 S
C679 C63 1.221 . S
C719 C194 1.309 . S
C711 C103 1.265 . S
C743 C23 1.247 1_655 S
C751 C168 1.257 . S
