# Generated by pormake.
# Topology zzz, (3,6)-cn, num edge types: 1
# Building blocks:
#     Node 0, Type 0, BuildingBlock: KAKCAD_clean_linker_0, # of connection points: 3
#     Node 1, Type 0, BuildingBlock: KAKCAD_clean_linker_0, # of connection points: 3
#     Node 2, Type 0, BuildingBlock: KAKCAD_clean_linker_0, # of connection points: 3
#     Node 3, Type 0, BuildingBlock: KAKCAD_clean_linker_0, # of connection points: 3
#     Node 4, Type 0, BuildingBlock: KAKCAD_clean_linker_0, # of connection points: 3
#     Node 5, Type 0, BuildingBlock: KAKCAD_clean_linker_0, # of connection points: 3
#     Node 6, Type 0, BuildingBlock: KAKCAD_clean_linker_0, # of connection points: 3
#     Node 7, Type 0, BuildingBlock: KAKCAD_clean_linker_0, # of connection points: 3
#     Node 8, Type 1, BuildingBlock: JUFBIX_clean_sbu_0, # of connection points: 6
#     Node 9, Type 1, BuildingBlock: JUFBIX_clean_sbu_0, # of connection points: 6
#     Node 10, Type 1, BuildingBlock: JUFBIX_clean_sbu_0, # of connection points: 6
#     Node 11, Type 1, BuildingBlock: JUFBIX_clean_sbu_0, # of connection points: 6
#     Edge 12, Type (0, 1), BuildingBlock: XUDNAN_clean_linker_2, # of connection points: 2
#     Edge 13, Type (0, 1), BuildingBlock: XUDNAN_clean_linker_2, # of connection points: 2
#     Edge 14, Type (0, 1), BuildingBlock: XUDNAN_clean_linker_2, # of connection points: 2
#     Edge 15, Type (0, 1), BuildingBlock: XUDNAN_clean_linker_2, # of connection points: 2
#     Edge 16, Type (0, 1), BuildingBlock: XUDNAN_clean_linker_2, # of connection points: 2
#     Edge 17, Type (0, 1), BuildingBlock: XUDNAN_clean_linker_2, # of connection points: 2
#     Edge 18, Type (0, 1), BuildingBlock: XUDNAN_clean_linker_2, # of connection points: 2
#     Edge 19, Type (0, 1), BuildingBlock: XUDNAN_clean_linker_2, # of connection points: 2
#     Edge 20, Type (0, 1), BuildingBlock: XUDNAN_clean_linker_2, # of connection points: 2
#     Edge 21, Type (0, 1), BuildingBlock: XUDNAN_clean_linker_2, # of connection points: 2
#     Edge 22, Type (0, 1), BuildingBlock: XUDNAN_clean_linker_2, # of connection points: 2
#     Edge 23, Type (0, 1), BuildingBlock: XUDNAN_clean_linker_2, # of connection points: 2
#     Edge 24, Type (0, 1), BuildingBlock: XUDNAN_clean_linker_2, # of connection points: 2
#     Edge 25, Type (0, 1), BuildingBlock: XUDNAN_clean_linker_2, # of connection points: 2
#     Edge 26, Type (0, 1), BuildingBlock: XUDNAN_clean_linker_2, # of connection points: 2
#     Edge 27, Type (0, 1), BuildingBlock: XUDNAN_clean_linker_2, # of connection points: 2
#     Edge 28, Type (0, 1), BuildingBlock: XUDNAN_clean_linker_2, # of connection points: 2
#     Edge 29, Type (0, 1), BuildingBlock: XUDNAN_clean_linker_2, # of connection points: 2
#     Edge 30, Type (0, 1), BuildingBlock: XUDNAN_clean_linker_2, # of connection points: 2
#     Edge 31, Type (0, 1), BuildingBlock: XUDNAN_clean_linker_2, # of connection points: 2
#     Edge 32, Type (0, 1), BuildingBlock: XUDNAN_clean_linker_2, # of connection points: 2
#     Edge 33, Type (0, 1), BuildingBlock: XUDNAN_clean_linker_2, # of connection points: 2
#     Edge 34, Type (0, 1), BuildingBlock: XUDNAN_clean_linker_2, # of connection points: 2
#     Edge 35, Type (0, 1), BuildingBlock: XUDNAN_clean_linker_2, # of connection points: 2
# Relax obj value: 0.288
# Max RMSD: 0.224
# Mean RMSD: 0.188
data_MOF--net-zzz--node1-JUFBIX_clean_sbu_0--node2-KAKCAD_clean_linker_0--edge1-XUDNAN_clean_linker_2
_symmetry_space_group_name_H-M    P1
_symmetry_Int_Tables_number       1
_symmetry_cell_setting            triclinic
loop_
_symmetry_equiv_pos_as_xyz
'x, y, z'
_cell_length_a     57.878485
_cell_length_b     59.377019
_cell_length_c     22.858419
_cell_angle_alpha  82.688524
_cell_angle_beta   90.061896
_cell_angle_gamma 86.523692
loop_
_atom_site_label
_atom_site_type_symbol
_atom_site_fract_x
_atom_site_fract_y
_atom_site_fract_z
_atom_type_partial_charge
C0 C 0.82033 0.49517 0.10939 0.0
C1 C 0.84205 0.48651 0.13218 0.0
C2 C 0.8035 0.5033 0.14656 0.0
C3 C 0.80802 0.5026 0.2073 0.0
C4 C 0.8293 0.49246 0.23032 0.0
C5 C 0.84625 0.48478 0.19299 0.0
C6 C 0.7916 0.51415 0.24555 0.0
C7 C 0.76758 0.51392 0.23795 0.0
C8 C 0.75228 0.52614 0.27181 0.0
C9 C 0.76111 0.53835 0.31489 0.0
C10 C 0.78516 0.53849 0.32334 0.0
C11 C 0.80012 0.52654 0.28826 0.0
C12 C 0.79548 0.54997 0.37004 0.0
C13 C 0.81451 0.56327 0.35646 0.0
C14 C 0.78975 0.54394 0.42946 0.0
C15 C 0.80427 0.54909 0.4744 0.0
C16 C 0.82459 0.56028 0.46016 0.0
C17 C 0.72722 0.52693 0.25855 0.0
C18 C 0.71534 0.54769 0.23741 0.0
C19 C 0.71605 0.50662 0.25824 0.0
C20 C 0.69382 0.50691 0.23419 0.0
C21 C 0.68254 0.5275 0.20914 0.0
C22 C 0.69322 0.54796 0.21245 0.0
C23 C 0.82906 0.5682 0.40115 0.0
H24 H 0.81686 0.4968 0.0624 0.0
H25 H 0.78745 0.51118 0.12713 0.0
H26 H 0.83315 0.49106 0.27706 0.0
H27 H 0.86287 0.47798 0.21139 0.0
H28 H 0.76069 0.50455 0.20483 0.0
H29 H 0.81865 0.527 0.29432 0.0
H30 H 0.7494 0.54771 0.34133 0.0
H31 H 0.81917 0.56827 0.31097 0.0
H32 H 0.77528 0.53354 0.44102 0.0
H33 H 0.80068 0.5427 0.51979 0.0
H34 H 0.72374 0.56353 0.23671 0.0
H35 H 0.72497 0.49042 0.2741 0.0
H36 H 0.84467 0.57686 0.3894 0.0
H37 H 0.68484 0.56406 0.19362 0.0
H38 H 0.68611 0.49087 0.23177 0.0
C39 C 0.02339 0.84977 0.14082 0.0
C40 C 0.03761 0.84479 0.09406 0.0
C41 C 0.01567 0.83231 0.18121 0.0
C42 C 0.02245 0.80944 0.1766 0.0
C43 C 0.03637 0.80447 0.12878 0.0
C44 C 0.04373 0.82204 0.0875 0.0
C45 C 0.01555 0.79112 0.22284 0.0
C46 C 0.00965 0.7699 0.2086 0.0
C47 C 0.00293 0.75283 0.25265 0.0
C48 C 0.00165 0.75728 0.31179 0.0
C49 C 0.00748 0.77856 0.32657 0.0
C50 C 0.01469 0.79506 0.28199 0.0
C51 C 0.00506 0.78502 0.38707 0.0
C52 C 0.98337 0.78525 0.41474 0.0
C53 C 0.02316 0.79577 0.41117 0.0
C54 C 0.01906 0.80852 0.45774 0.0
C55 C 0.99687 0.81053 0.48186 0.0
C56 C 0.99777 0.73044 0.23529 0.0
C57 C 0.98085 0.72921 0.192 0.0
C58 C 0.01182 0.71087 0.25531 0.0
C59 C 0.00993 0.69079 0.22976 0.0
C60 C 0.99378 0.68984 0.18404 0.0
C61 C 0.97871 0.70911 0.16712 0.0
C62 C 0.97932 0.7979 0.46204 0.0
H63 H 0.01813 0.86724 0.14589 0.0
H64 H 0.00439 0.83682 0.2162 0.0
H65 H 0.04206 0.7871 0.12401 0.0
H66 H 0.05462 0.81792 0.05136 0.0
H67 H 0.0102 0.76656 0.16308 0.0
H68 H 0.01938 0.81133 0.29363 0.0
H69 H 0.99612 0.74436 0.34582 0.0
H70 H 0.96907 0.77732 0.39669 0.0
H71 H 0.04007 0.79578 0.39085 0.0
H72 H 0.03291 0.81796 0.4726 0.0
H73 H 0.96978 0.74409 0.17597 0.0
H74 H 0.02518 0.71152 0.28818 0.0
H75 H 0.96203 0.79928 0.47988 0.0
H76 H 0.96562 0.70892 0.13333 0.0
H77 H 0.02197 0.67644 0.24376 0.0
C78 C 0.69944 0.01317 0.0111 0.0
C79 C 0.68159 0.02927 0.02137 0.0
C80 C 0.71627 0.00592 0.05422 0.0
C81 C 0.71569 0.01465 0.10857 0.0
C82 C 0.69823 0.03127 0.11818 0.0
C83 C 0.68131 0.03847 0.07506 0.0
C84 C 0.73248 0.0054 0.15603 0.0
C85 C 0.75565 1.00026 0.14278 0.0
C86 C 0.77128 0.98949 0.18628 0.0
C87 C 0.76344 0.98443 0.24471 0.0
C88 C 0.74033 0.99024 0.25888 0.0
C89 C 0.72506 1.00052 0.21422 0.0
C90 C 0.73089 0.98471 0.3189 0.0
C91 C 0.73085 0.96206 0.34536 0.0
C92 C 0.71782 1.0016 0.34433 0.0
C93 C 0.70322 0.99574 0.39168 0.0
C94 C 0.70136 0.97281 0.41475 0.0
C95 C 0.79573 0.9844 0.16928 0.0
C96 C 0.80059 0.97758 0.11362 0.0
C97 C 0.81432 0.98872 0.20495 0.0
C98 C 0.83698 0.98806 0.18339 0.0
C99 C 0.84154 0.98341 0.12532 0.0
C100 C 0.82307 0.97737 0.09165 0.0
C101 C 0.71619 0.95615 0.39293 0.0
H102 H 0.69989 0.00546 0.97061 0.0
H103 H 0.72923 0.99282 0.04576 0.0
H104 H 0.69751 0.03856 0.15928 0.0
H105 H 0.66789 0.05107 0.08391 0.0
H106 H 0.76157 0.00496 0.0982 0.0
H107 H 0.707 1.0039 0.22459 0.0
H108 H 0.77513 0.97604 0.27884 0.0
H109 H 0.74072 0.94872 0.32642 0.0
H110 H 0.71759 0.01921 0.32469 0.0
H111 H 0.69204 0.00906 0.40679 0.0
H112 H 0.78678 0.97344 0.08556 0.0
H113 H 0.81126 0.99385 0.24821 0.0
H114 H 0.71549 0.93837 0.41036 0.0
H115 H 0.82555 0.97374 0.04681 0.0
H116 H 0.85078 0.99206 0.2116 0.0
C117 C 0.50465 0.7072 0.39204 0.0
C118 C 0.51315 0.68467 0.38895 0.0
C119 C 0.49997 0.72223 0.34012 0.0
C120 C 0.50394 0.71491 0.28465 0.0
C121 C 0.51415 0.69291 0.28233 0.0
C122 C 0.51845 0.67792 0.33374 0.0
C123 C 0.49487 0.72848 0.2292 0.0
C124 C 0.49901 0.75165 0.2136 0.0
C125 C 0.4911 0.76319 0.15861 0.0
C126 C 0.47943 0.75124 0.11941 0.0
C127 C 0.47521 0.7283 0.13472 0.0
C128 C 0.48247 0.7173 0.18994 0.0
C129 C 0.46608 0.71462 0.09112 0.0
C130 C 0.44895 0.69928 0.10732 0.0
C131 C 0.4772 0.71409 0.03673 0.0
C132 C 0.47268 0.69727 1.00153 0.0
C133 C 0.45679 0.68087 0.01986 0.0
C134 C 0.49621 0.78718 0.13865 0.0
C135 C 0.47852 0.80268 0.11336 0.0
C136 C 0.51908 0.79387 0.13701 0.0
C137 C 0.52433 0.81506 0.10729 0.0
C138 C 0.50676 0.83009 0.07923 0.0
C139 C 0.48371 0.82392 0.08428 0.0
C140 C 0.44424 0.6826 0.07179 0.0
H141 H 0.50052 0.71278 0.43432 0.0
H142 H 0.49209 0.73904 0.34327 0.0
H143 H 0.51789 0.68692 0.24031 0.0
H144 H 0.52538 0.66078 0.3303 0.0
H145 H 0.50866 0.76049 0.24333 0.0
H146 H 0.47931 0.69947 0.20141 0.0
H147 H 0.47423 0.75963 0.07605 0.0
H148 H 0.44012 0.69941 0.14907 0.0
H149 H 0.49061 0.72561 0.02346 0.0
H150 H 0.48242 0.69639 0.96134 0.0
H151 H 0.46072 0.79795 0.114 0.0
H152 H 0.53307 0.7822 0.15571 0.0
H153 H 0.43196 0.67012 0.08699 0.0
H154 H 0.46978 0.83498 0.0629 0.0
H155 H 0.54223 0.81942 0.10472 0.0
C156 C 0.17084 0.52838 0.40769 0.0
C157 C 0.15288 0.51497 0.43042 0.0
C158 C 0.18795 0.51951 0.37246 0.0
C159 C 0.1872 0.49722 0.35857 0.0
C160 C 0.16948 0.48373 0.38147 0.0
C161 C 0.15265 0.4924 0.41754 0.0
C162 C 0.20438 0.48828 0.31845 0.0
C163 C 0.22806 0.48839 0.33026 0.0
C164 C 0.24452 0.48028 0.29147 0.0
C165 C 0.23691 0.4724 0.23951 0.0
C166 C 0.21306 0.47236 0.22752 0.0
C167 C 0.197 0.48 0.26751 0.0
C168 C 0.20402 0.46625 0.17174 0.0
C169 C 0.20432 0.48204 0.12067 0.0
C170 C 0.19009 0.44765 0.17303 0.0
C171 C 0.17543 0.44574 0.12552 0.0
C172 C 0.17419 0.46264 0.07646 0.0
C173 C 0.26942 0.47991 0.30724 0.0
C174 C 0.27806 0.49871 0.32959 0.0
C175 C 0.2839 0.46003 0.3073 0.0
C176 C 0.30605 0.45853 0.33298 0.0
C177 C 0.31411 0.47692 0.35886 0.0
C178 C 0.30001 0.49722 0.35531 0.0
C179 C 0.18943 0.48032 0.07343 0.0
H180 H 0.17146 0.54588 0.41605 0.0
H181 H 0.20143 0.53025 0.35474 0.0
H182 H 0.16875 0.4664 0.37169 0.0
H183 H 0.13954 0.4813 0.43556 0.0
H184 H 0.23363 0.49434 0.37063 0.0
H185 H 0.17862 0.48033 0.25774 0.0
H186 H 0.24936 0.4666 0.20848 0.0
H187 H 0.21463 0.49674 0.11931 0.0
H188 H 0.18932 0.43553 0.21255 0.0
H189 H 0.16377 0.43205 0.12929 0.0
H190 H 0.26736 0.51434 0.3296 0.0
H191 H 0.27764 0.44525 0.29048 0.0
H192 H 0.1889 0.49348 0.03592 0.0
H193 H 0.30532 0.51167 0.37533 0.0
H194 H 0.31656 0.44276 0.33417 0.0
C195 C 0.93709 0.19565 0.4086 0.0
C196 C 0.95213 0.18653 0.45535 0.0
C197 C 0.94376 0.21325 0.36667 0.0
C198 C 0.9653 0.22247 0.37157 0.0
C199 C 0.97989 0.21423 0.41943 0.0
C200 C 0.97351 0.1963 0.46052 0.0
C201 C 0.97342 0.23958 0.3249 0.0
C202 C 0.98012 0.26047 0.33864 0.0
C203 C 0.9899 0.27614 0.29576 0.0
C204 C 0.99291 0.27044 0.23785 0.0
C205 C 0.98601 0.24934 0.22355 0.0
C206 C 0.97615 0.23421 0.26754 0.0
C207 C 0.99021 0.24153 0.16484 0.0
C208 C 0.97296 0.23013 0.13916 0.0
C209 C 0.01242 0.2415 0.13984 0.0
C210 C 0.01771 0.22865 0.09347 0.0
C211 C 0.00091 0.21561 0.07188 0.0
C212 C 0.9965 0.29823 0.31346 0.0
C213 C 0.98985 0.31905 0.2796 0.0
C214 C 0.00683 0.2986 0.36898 0.0
C215 C 0.00853 0.31899 0.39249 0.0
C216 C 0.00049 0.33986 0.36063 0.0
C217 C 0.99192 0.33966 0.30283 0.0
C218 C 0.97831 0.21715 0.09365 0.0
H219 H 0.92031 0.18896 0.40368 0.0
H220 H 0.93222 0.21952 0.33007 0.0
H221 H 0.99671 0.22098 0.42355 0.0
H222 H 0.98589 0.18954 0.49477 0.0
H223 H 0.97749 0.26452 0.38318 0.0
H224 H 0.9716 0.2176 0.258 0.0
H225 H 0.00072 0.28217 0.20451 0.0
H226 H 0.95562 0.23005 0.15698 0.0
H227 H 0.0261 0.24995 0.15894 0.0
H228 H 0.03529 0.22765 0.07737 0.0
H229 H 0.9819 0.31937 0.23657 0.0
H230 H 0.01257 0.28288 0.39584 0.0
H231 H 0.96502 0.20739 0.07734 0.0
H232 H 0.9861 0.35534 0.27606 0.0
H233 H 0.015 0.31802 0.4372 0.0
C234 C 0.2976 0.01478 0.50793 0.0
C235 C 0.3187 0.02529 0.50766 0.0
C236 C 0.28031 0.02291 0.46652 0.0
C237 C 0.28381 0.04174 0.42428 0.0
C238 C 0.3046 0.05272 0.42552 0.0
C239 C 0.32186 0.04457 0.4667 0.0
C240 C 0.26658 0.04897 0.37658 0.0
C241 C 0.24283 0.0501 0.38831 0.0
C242 C 0.22654 0.05549 0.34231 0.0
C243 C 0.23415 0.05971 0.28358 0.0
C244 C 0.25803 0.05936 0.2718 0.0
C245 C 0.27397 0.0539 0.31834 0.0
C246 C 0.26741 0.06395 0.21165 0.0
C247 C 0.26657 0.04758 0.17268 0.0
C248 C 0.28199 0.08195 0.199 0.0
C249 C 0.29686 0.08261 0.15084 0.0
C250 C 0.29758 0.06516 0.11458 0.0
C251 C 0.20171 0.05605 0.35749 0.0
C252 C 0.18765 0.03939 0.34144 0.0
C253 C 0.19303 0.07104 0.39606 0.0
C254 C 0.171 0.06882 0.42027 0.0
C255 C 0.15732 0.05125 0.40733 0.0
C256 C 0.16569 0.03693 0.36632 0.0
C257 C 0.28154 0.04818 0.12439 0.0
H258 H 0.29474 0.99984 0.5389 0.0
H259 H 0.26456 0.01396 0.46622 0.0
H260 H 0.30761 0.06752 0.39419 0.0
H261 H 0.33775 0.05334 0.46639 0.0
H262 H 0.23694 0.04655 0.43339 0.0
H263 H 0.29232 0.05277 0.30866 0.0
H264 H 0.2217 0.06367 0.24776 0.0
H265 H 0.25575 0.03332 0.18227 0.0
H266 H 0.28304 0.09466 0.22885 0.0
H267 H 0.30867 0.09615 0.14384 0.0
H268 H 0.19418 0.02743 0.31249 0.0
H269 H 0.20366 0.08399 0.40911 0.0
H270 H 0.28172 0.03443 0.09747 0.0
H271 H 0.15584 0.02305 0.35566 0.0
H272 H 0.16498 0.08053 0.45039 0.0
C273 C 0.48356 0.32638 0.14278 0.0
C274 C 0.49918 0.34288 0.12164 0.0
C275 C 0.48861 0.31109 0.19403 0.0
C276 C 0.50953 0.31175 0.22481 0.0
C277 C 0.52591 0.32676 0.20069 0.0
C278 C 0.52073 0.34227 0.15066 0.0
C279 C 0.51319 0.29979 0.28591 0.0
C280 C 0.50787 0.27697 0.30292 0.0
C281 C 0.51198 0.26674 0.36164 0.0
C282 C 0.5206 0.27968 0.4033 0.0
C283 C 0.52539 0.30242 0.38711 0.0
C284 C 0.52171 0.31222 0.32873 0.0
C285 C 0.53272 0.31681 0.43121 0.0
C286 C 0.51948 0.31867 0.48197 0.0
C287 C 0.5512 0.33093 0.41901 0.0
C288 C 0.55551 0.34755 0.45499 0.0
C289 C 0.54126 0.35049 0.50344 0.0
C290 C 0.50708 0.24274 0.38169 0.0
C291 C 0.4844 0.23563 0.38099 0.0
C292 C 0.5246 0.22779 0.40992 0.0
C293 C 0.5194 0.20659 0.43928 0.0
C294 C 0.49648 0.19997 0.44186 0.0
C295 C 0.47911 0.2145 0.41115 0.0
C296 C 0.52364 0.33547 0.51763 0.0
H297 H 0.46706 0.32567 0.12099 0.0
H298 H 0.47563 0.29967 0.21127 0.0
H299 H 0.54241 0.32745 0.22266 0.0
H300 H 0.53333 0.35459 0.13719 0.0
H301 H 0.50111 0.26714 0.27069 0.0
H302 H 0.5247 0.33009 0.3171 0.0
H303 H 0.52332 0.2721 0.4487 0.0
H304 H 0.50506 0.30807 0.49209 0.0
H305 H 0.56169 0.32972 0.38018 0.0
H306 H 0.56912 0.35895 0.44287 0.0
H307 H 0.47056 0.24694 0.36006 0.0
H308 H 0.54221 0.23295 0.41136 0.0
H309 H 0.51255 0.33726 0.55512 0.0
H310 H 0.46131 0.2098 0.41191 0.0
H311 H 0.53315 0.19595 0.46279 0.0
Co312 Co 0.01045 0.02629 0.79518 0.0
C313 C 0.9712 0.00783 0.85188 0.0
Co314 Co 0.99179 1.00248 0.7468 0.0
C315 C 0.02194 0.06911 0.83686 0.0
C316 C 0.03414 0.03969 0.89498 0.0
N317 N 0.02403 0.04605 0.84164 0.0
N318 N 0.02991 0.07712 0.88536 0.0
C319 C 0.03771 0.05863 0.92176 0.0
H320 H 0.01317 0.0798 0.80071 0.0
H321 H 0.03729 0.02234 0.91542 0.0
C322 C 0.03097 0.0213 0.68996 0.0
N323 N 0.97815 0.98286 0.70051 0.0
C324 C 0.97904 0.95979 0.70711 0.0
C325 C 0.96925 0.98913 0.64581 0.0
N326 N 0.97152 0.95163 0.65837 0.0
C327 C 0.9652 0.97008 0.61998 0.0
C328 C 0.97586 0.04761 0.71995 0.0
O329 O 0.03323 0.0312 0.73573 0.0
O330 O 0.01437 0.00834 0.68699 0.0
O331 O 0.97271 0.02744 0.71028 0.0
O332 O 0.99158 0.05095 0.75611 0.0
O333 O 0.96938 0.99703 0.80749 0.0
H334 H 0.96737 0.00641 0.62406 0.0
H335 H 0.9867 0.94913 0.74491 0.0
O336 O 0.98752 0.02115 0.85365 0.0
O337 O 0.02906 1.00098 0.83325 0.0
O338 O 0.01095 0.97796 0.78409 0.0
C339 C 0.02613 0.98093 0.82193 0.0
H340 H 0.04446 0.05875 0.96591 0.0
H341 H 0.95923 0.96981 0.57518 0.0
Co342 Co 0.49213 0.02142 0.80055 0.0
C343 C 0.50855 0.97631 0.82227 0.0
Co344 Co 0.50994 0.00928 0.72354 0.0
C345 C 0.45355 0.03963 0.86203 0.0
C346 C 0.48219 0.02944 0.92058 0.0
N347 N 0.47591 0.03161 0.86325 0.0
N348 N 0.44534 0.04203 0.91633 0.0
C349 C 0.46346 0.03584 0.95328 0.0
H350 H 0.44322 0.0428 0.82204 0.0
H351 H 0.49887 0.02241 0.93785 0.0
C352 C 0.4936 0.05438 0.70155 0.0
N353 N 0.52564 0.99876 0.66028 0.0
C354 C 0.54808 0.99113 0.65759 0.0
C355 C 0.51669 0.9967 0.60677 0.0
N356 N 0.55328 0.98421 0.60494 0.0
C357 C 0.53359 0.98759 0.5729 0.0
C358 C 0.46319 1.00286 0.72489 0.0
O359 O 0.48646 0.0506 0.75443 0.0
O360 O 0.5045 0.03842 0.67887 0.0
O361 O 0.48142 1.00005 0.6952 0.0
O362 O 0.46438 0.01169 0.77224 0.0
O363 O 0.51545 0.98012 0.76923 0.0
H364 H 0.49901 1.00154 0.59301 0.0
H365 H 0.56033 0.99031 0.69373 0.0
O366 O 0.49781 0.99226 0.8453 0.0
O367 O 0.52041 0.03091 0.82891 0.0
O368 O 0.53783 0.01883 0.75238 0.0
C369 C 0.53877 0.02797 0.79956 0.0
H370 H 0.4629 0.03464 1.00089 0.0
H371 H 0.5317 0.9841 0.52785 0.0
Co372 Co 0.51876 0.5165 0.78261 0.0
C373 C 0.49202 0.48173 0.83454 0.0
Co374 Co 0.4845 0.51555 0.74048 0.0
C375 C 0.55174 0.51663 0.87742 0.0
C376 C 0.56776 0.51969 0.79263 0.0
N377 N 0.54716 0.51713 0.81932 0.0
N378 N 0.57437 0.51901 0.88799 0.0
C379 C 0.5845 0.52088 0.83467 0.0
H380 H 0.53859 0.51525 0.9111 0.0
H381 H 0.57036 0.52098 0.74549 0.0
C382 C 0.51129 0.55038 0.68871 0.0
N383 N 0.45615 0.51576 0.7021 0.0
C384 C 0.44761 0.5 0.6715 0.0
C385 C 0.4412 0.53416 0.69095 0.0
N386 N 0.42822 0.50809 0.641 0.0
C387 C 0.42408 0.52951 0.65352 0.0
C388 C 0.4842 0.54344 0.82845 0.0
O389 O 0.52587 0.54218 0.72849 0.0
O390 O 0.49232 0.5409 0.68511 0.0
O391 O 0.47157 0.53588 0.7909 0.0
O392 O 0.50545 0.53667 0.83312 0.0
O393 O 0.47693 0.49026 0.79606 0.0
H394 H 0.44328 0.5504 0.70638 0.0
H395 H 0.45618 0.48347 0.66863 0.0
O396 O 0.51135 0.49078 0.83657 0.0
O397 O 0.53191 0.49633 0.73169 0.0
O398 O 0.49777 0.49513 0.69102 0.0
C399 C 0.51905 0.48848 0.69502 0.0
H400 H 0.60273 0.52293 0.82659 0.0
H401 H 0.41006 0.54122 0.63537 0.0
Co402 Co 0.99791 0.52829 0.7968 0.0
C403 C 0.03207 0.49613 0.83842 0.0
Co404 Co 0.99636 0.49664 0.75499 0.0
C405 C 0.99753 0.55997 0.88554 0.0
C406 C 0.99904 0.57624 0.7967 0.0
N407 N 0.99833 0.55564 0.82879 0.0
N408 N 0.99771 0.58254 0.88998 0.0
C409 C 0.99879 0.59266 0.83382 0.0
H410 H 0.99647 0.54681 0.9226 0.0
H411 H 0.9996 0.57919 0.74906 0.0
C412 C 0.96227 0.52888 0.71346 0.0
N413 N 0.99616 0.46958 0.72192 0.0
C414 C 0.99357 0.46649 0.66468 0.0
C415 C 0.00074 0.44849 0.75066 0.0
N416 N 0.99671 0.44435 0.65669 0.0
C417 C 0.00121 0.433 0.7107 0.0
C418 C 0.96966 0.49703 0.85538 0.0
O419 O 0.97178 0.54029 0.74929 0.0
O420 O 0.97055 0.50893 0.70803 0.0
O421 O 0.97601 0.4853 0.81478 0.0
O422 O 0.97748 0.51656 0.85652 0.0
O423 O 0.02247 0.48474 0.80269 0.0
H424 H 0.00404 0.44468 0.79757 0.0
H425 H 0.99028 0.48028 0.6293 0.0
O426 O 0.0238 0.51609 0.84383 0.0
O427 O 0.01861 0.53945 0.73634 0.0
O428 O 0.01643 0.50814 0.69561 0.0
C429 C 0.02451 0.52751 0.69584 0.0
H430 H 0.99958 0.6107 0.81994 0.0
H431 H 0.00462 0.41478 0.72054 0.0
H432 H 0.14735 0.05597 0.52327 0.0
H433 H 0.11708 0.03658 0.36437 0.0
H434 H 0.08157 0.02712 0.41938 0.0
H435 H 0.1244 0.01363 0.62513 0.0
H436 H 0.11888 0.03181 0.68162 0.0
H437 H 0.1418 0.03754 0.62968 0.0
H438 H 0.12378 0.07842 0.59994 0.0
H439 H 0.10088 0.07288 0.65215 0.0
H440 H 0.09399 0.08249 0.57578 0.0
H441 H 0.05015 0.01796 0.49282 0.0
H442 H 0.0241 0.01178 0.57785 0.0
H443 H 0.07386 0.03926 0.68766 0.0
C444 C 0.13314 0.0502 0.49944 0.0
C445 C 0.13518 0.04701 0.4392 0.0
C446 C 0.1162 0.03887 0.41057 0.0
C447 C 0.09587 0.03358 0.44138 0.0
C448 C 0.09461 0.03672 0.50072 0.0
C449 C 0.11264 0.04507 0.5293 0.0
C450 C 0.10693 0.04676 0.59341 0.0
C451 C 0.12402 0.03152 0.63489 0.0
C452 C 0.10636 0.07162 0.60604 0.0
C453 C 0.08295 0.0378 0.59663 0.0
C454 C 0.07623 0.03202 0.54269 0.0
C455 C 0.05515 0.02261 0.5351 0.0
C456 C 0.04051 0.01909 0.5838 0.0
C457 C 0.04689 0.02511 0.63942 0.0
C458 C 0.0684 0.03467 0.64565 0.0
H459 H 0.5192 0.15738 0.45324 0.0
H460 H 0.46087 0.19547 0.52018 0.0
H461 H 0.45305 0.16212 0.59197 0.0
H462 H 0.49266 0.10241 0.46837 0.0
H463 H 0.5195 0.08652 0.48997 0.0
H464 H 0.51978 0.11305 0.44201 0.0
H465 H 0.54747 0.12836 0.51473 0.0
H466 H 0.54716 0.10195 0.56304 0.0
H467 H 0.53916 0.12841 0.59072 0.0
H468 H 0.45364 0.12564 0.66232 0.0
H469 H 0.46056 0.08767 0.7201 0.0
H470 H 0.51745 0.07267 0.60491 0.0
C471 C 0.50465 0.15862 0.48264 0.0
C472 C 0.49057 0.17905 0.48084 0.0
C473 C 0.47167 0.17994 0.52004 0.0
C474 C 0.46719 0.16112 0.56129 0.0
C475 C 0.4816 0.14138 0.56251 0.0
C476 C 0.49976 0.13989 0.52368 0.0
C477 C 0.51276 0.11675 0.53456 0.0
C478 C 0.51106 0.10393 0.48051 0.0
C479 C 0.53813 0.11901 0.55179 0.0
C480 C 0.4993 0.1056 0.58613 0.0
C481 C 0.48148 0.12014 0.60181 0.0
C482 C 0.46736 0.11402 0.64994 0.0
C483 C 0.47148 0.09245 0.68265 0.0
C484 C 0.48941 0.07713 0.66678 0.0
C485 C 0.5034 0.08387 0.61767 0.0
H486 H 0.34537 0.50938 0.36745 0.0
H487 H 0.33177 0.43962 0.43293 0.0
H488 H 0.36389 0.43828 0.50456 0.0
H489 H 0.40921 0.5052 0.39434 0.0
H490 H 0.40829 0.5331 0.41774 0.0
H491 H 0.38787 0.52682 0.36335 0.0
H492 H 0.35402 0.53957 0.42822 0.0
H493 H 0.37425 0.54566 0.48294 0.0
H494 H 0.35197 0.52627 0.50332 0.0
H495 H 0.39413 0.4464 0.57861 0.0
H496 H 0.41861 0.46366 0.64815 0.0
H497 H 0.4099 0.52854 0.53774 0.0
C498 C 0.34936 0.49364 0.39603 0.0
C499 C 0.33597 0.47461 0.39424 0.0
C500 C 0.34198 0.45433 0.43241 0.0
C501 C 0.36016 0.45343 0.4736 0.0
C502 C 0.37224 0.47292 0.47602 0.0
C503 C 0.36713 0.4926 0.43787 0.0
C504 C 0.38058 0.51206 0.45366 0.0
C505 C 0.39749 0.51974 0.40434 0.0
C506 C 0.36423 0.53205 0.4679 0.0
C507 C 0.39336 0.50055 0.50811 0.0
C508 C 0.38883 0.47784 0.51969 0.0
C509 C 0.39799 0.46411 0.56949 0.0
C510 C 0.41183 0.47399 0.60872 0.0
C511 C 0.4159 0.49741 0.59843 0.0
C512 C 0.40685 0.51063 0.54693 0.0
H513 H 0.02965 0.35156 0.44676 0.0
H514 H 0.96812 0.37637 0.34342 0.0
H515 H 0.9633 0.40866 0.40086 0.0
H516 H 0.00533 0.36071 0.58123 0.0
H517 H 0.03166 0.36848 0.61349 0.0
H518 H 0.03302 0.3499 0.55714 0.0
H519 H 0.05928 0.37725 0.49431 0.0
H520 H 0.05808 0.39591 0.5507 0.0
H521 H 0.04968 0.40676 0.47598 0.0
H522 H 0.96304 0.43667 0.47646 0.0
H523 H 0.96639 0.45604 0.56588 0.0
H524 H 0.02535 0.41039 0.62484 0.0
C525 C 0.01517 0.36374 0.43558 0.0
C526 C 0.99935 0.36115 0.38989 0.0
C527 C 0.98091 0.37797 0.37693 0.0
C528 C 0.97789 0.39641 0.40976 0.0
C529 C 0.99331 0.39784 0.45583 0.0
C530 C 0.01157 0.38189 0.46874 0.0
C531 C 0.02427 0.38576 0.52425 0.0
C532 C 0.02351 0.36498 0.57182 0.0
C533 C 0.04931 0.39178 0.51046 0.0
C534 C 0.00992 0.406 0.54154 0.0
C535 C 0.99246 0.41311 0.50087 0.0
C536 C 0.97675 0.4313 0.50834 0.0
C537 C 0.97877 0.44223 0.55906 0.0
C538 C 0.99602 0.4346 0.60218 0.0
C539 C 0.0119 0.41644 0.5927 0.0
H540 H 0.86316 0.96113 0.03834 0.0
H541 H 0.87217 0.01507 0.14701 0.0
H542 H 0.90779 0.02456 0.09401 0.0
H543 H 0.92491 0.94534 0.01772 0.0
H544 H 0.92069 0.94124 0.94174 0.0
H545 H 0.8977 0.93614 0.99399 0.0
H546 H 0.87016 0.96444 0.9272 0.0
H547 H 0.89308 0.96975 0.875 0.0
H548 H 0.87842 0.9931 0.90588 0.0
H549 H 0.94036 0.03074 0.02464 0.0
H550 H 0.96797 0.03329 0.94284 0.0
H551 H 0.93681 0.97738 0.87306 0.0
C552 C 0.87261 0.97485 0.05153 0.0
C553 C 0.86467 0.98713 0.09773 0.0
C554 C 0.87795 0.00484 0.11328 0.0
C555 C 0.89821 0.01057 0.08293 0.0
C556 C 0.90504 0.99859 0.0367 0.0
C557 C 0.89271 0.98108 0.02098 0.0
C558 C 0.90287 0.97217 0.96651 0.0
C559 C 0.91209 0.94724 0.98087 0.0
C560 C 0.88507 0.97505 0.91565 0.0
C561 C 0.92249 0.98781 0.95334 0.0
C562 C 0.92357 1.00268 0.99501 0.0
C563 C 0.93982 0.01909 0.99197 0.0
C564 C 0.95542 0.0204 0.94513 0.0
C565 C 0.95459 0.00554 0.90133 0.0
C566 C 0.93789 0.98898 0.90575 0.0
H567 H 0.48466 0.87294 0.07105 0.0
H568 H 0.54133 0.83453 0.99794 0.0
H569 H 0.54881 0.86808 0.92659 0.0
H570 H 0.46334 0.90267 0.93579 0.0
H571 H 0.45614 0.92904 0.96475 0.0
H572 H 0.45605 0.90249 0.01251 0.0
H573 H 0.48494 0.91715 0.08342 0.0
H574 H 0.48503 0.94382 0.036 0.0
H575 H 0.51189 0.92756 0.05512 0.0
H576 H 0.54801 0.90474 0.85755 0.0
H577 H 0.54092 0.94288 0.80094 0.0
H578 H 0.48571 0.95808 0.92083 0.0
C579 C 0.49878 0.87166 0.04038 0.0
C580 C 0.51249 0.85109 0.04037 0.0
C581 C 0.53084 0.85017 0.99953 0.0
C582 C 0.53512 0.8691 0.95851 0.0
C583 C 0.52107 0.88897 0.95913 0.0
C584 C 0.50345 0.89049 0.99947 0.0
C585 C 0.49068 0.91377 0.99016 0.0
C586 C 0.46504 0.91187 0.97489 0.0
C587 C 0.4933 0.92632 0.04441 0.0
C588 C 0.50364 0.92497 0.93772 0.0
C589 C 0.52103 0.91033 0.92034 0.0
C590 C 0.53463 0.91644 0.87123 0.0
C591 C 0.53042 0.93811 0.8392 0.0
C592 C 0.51289 0.95352 0.85668 0.0
C593 C 0.49944 0.9468 0.90682 0.0
H594 H 0.67411 0.54848 0.09757 0.0
H595 H 0.64354 0.50468 0.23908 0.0
H596 H 0.61037 0.50018 0.17383 0.0
H597 H 0.61936 0.57588 0.03024 0.0
H598 H 0.63048 0.57595 0.95659 0.0
H599 H 0.64989 0.57815 0.01703 0.0
H600 H 0.67469 0.54318 0.99016 0.0
H601 H 0.65526 0.54069 0.9302 0.0
H602 H 0.6612 0.51681 0.98629 0.0
H603 H 0.58227 0.49801 0.09007 0.0
H604 H 0.56208 0.49774 0.9947 0.0
H605 H 0.61183 0.54232 0.90832 0.0
C606 C 0.66006 0.53856 0.11542 0.0
C607 C 0.66115 0.5272 0.17358 0.0
C608 C 0.64288 0.51364 0.19472 0.0
C609 C 0.624 0.51105 0.15805 0.0
C610 C 0.62372 0.52206 0.10037 0.0
C611 C 0.64127 0.53561 0.07927 0.0
C612 C 0.638 0.54398 0.01428 0.0
C613 C 0.6342 0.57004 0.00395 0.0
C614 C 0.6585 0.53566 0.97813 0.0
C615 C 0.61617 0.53262 0.00168 0.0
C616 C 0.60798 0.52031 0.05197 0.0
C617 C 0.5884 0.50779 0.05056 0.0
C618 C 0.57702 0.50777 0.99627 0.0
C619 C 0.58541 0.51995 0.94407 0.0
C620 C 0.60512 0.53266 0.94728 0.0
H621 H 0.98633 0.68954 0.0654 0.0
H622 H 0.00167 0.64424 0.22707 0.0
H623 H 0.00368 0.61141 0.17019 0.0
H624 H 0.94946 0.65184 0.99974 0.0
H625 H 0.95955 0.66063 0.92627 0.0
H626 H 0.95896 0.68018 0.98046 0.0
H627 H 0.00261 0.68589 0.96344 0.0
H628 H 0.00338 0.66624 0.90959 0.0
H629 H 0.02298 0.66147 0.97188 0.0
H630 H 0.00543 0.58346 0.09291 0.0
H631 H 0.00609 0.56353 0.00434 0.0
H632 H 0.98714 0.62764 0.89643 0.0
C633 C 0.98961 0.67273 0.08944 0.0
C634 C 0.99373 0.66962 0.15107 0.0
C635 C 0.99866 0.64722 0.17989 0.0
C636 C 0.9997 0.62841 0.14797 0.0
C637 C 0.99564 0.63221 0.08722 0.0
C638 C 0.99052 0.65385 0.05849 0.0
C639 C 0.98714 0.65361 0.99296 0.0
C640 C 0.9623 0.66206 0.97375 0.0
C641 C 0.0051 0.66763 0.9574 0.0
C642 C 0.9914 0.62847 0.98896 0.0
C643 C 0.99628 0.61631 0.0436 0.0
C644 C 0.00142 0.59285 0.05001 0.0
C645 C 0.00166 0.58163 0.99927 0.0
C646 C 0.99675 0.59384 0.94266 0.0
C647 C 0.99133 0.61759 0.93827 0.0
H648 H 0.96432 0.17507 0.57269 0.0
H649 H 0.92826 0.15035 0.42893 0.0
H650 H 0.92381 0.11403 0.49101 0.0
H651 H 0.99858 0.12645 0.60755 0.0
H652 H 0.9993 0.12727 0.6861 0.0
H653 H 0.99457 0.15321 0.63677 0.0
H654 H 0.95641 0.16249 0.69057 0.0
H655 H 0.96109 0.13645 0.74016 0.0
H656 H 0.93445 0.14207 0.69851 0.0
H657 H 0.92873 0.07851 0.56106 0.0
H658 H 0.94432 0.04625 0.63138 0.0
H659 H 0.97958 0.09296 0.72696 0.0
C660 C 0.95514 0.16222 0.55434 0.0
C661 C 0.94653 0.16586 0.49571 0.0
C662 C 0.93454 0.14844 0.47401 0.0
C663 C 0.93197 0.1276 0.50897 0.0
C664 C 0.9415 0.12432 0.56559 0.0
C665 C 0.95285 0.14116 0.58821 0.0
C666 C 0.96446 0.1323 0.64674 0.0
C667 C 0.99077 0.13496 0.64407 0.0
C668 C 0.95343 0.14403 0.69697 0.0
C669 C 0.95886 0.10756 0.65196 0.0
C670 C 0.94506 0.10345 0.60555 0.0
C671 C 0.93919 0.08157 0.59818 0.0
C672 C 0.94818 0.06334 0.63833 0.0
C673 C 0.96319 0.06708 0.68468 0.0
C674 C 0.96798 0.08956 0.69239 0.0
H675 H 0.36465 0.01921 0.48306 0.0
H676 H 0.31539 0.01111 0.62601 0.0
H677 H 0.34749 0.99858 0.69635 0.0
H678 H 0.40595 0.97114 0.54074 0.0
H679 H 0.43068 0.98667 0.51586 0.0
H680 H 0.40364 0.99185 0.47577 0.0
H681 H 0.40384 0.0348 0.48651 0.0
H682 H 0.43085 0.02975 0.52624 0.0
H683 H 0.40633 0.0434 0.559 0.0
H684 H 0.38485 0.99262 0.75217 0.0
H685 H 0.4248 0.99321 0.78957 0.0
H686 H 0.44983 1.00405 0.61004 0.0
C687 C 0.3606 0.01452 0.52909 0.0
C688 C 0.33758 0.01612 0.54925 0.0
C689 C 0.33291 0.00975 0.60966 0.0
C690 C 0.35101 1.00262 0.64984 0.0
C691 C 0.37358 1.00166 0.62863 0.0
C692 C 0.37841 0.00727 0.56958 0.0
C693 C 0.40422 0.00662 0.55874 0.0
C694 C 0.41155 0.98795 0.52051 0.0
C695 C 0.41174 0.03003 0.53102 0.0
C696 C 0.41321 1.00064 0.62127 0.0
C697 C 0.39525 0.99761 0.66087 0.0
C698 C 0.39909 0.99437 0.72158 0.0
C699 C 0.4218 0.99477 0.74239 0.0
C700 C 0.44034 0.99829 0.70254 0.0
C701 C 0.43604 1.00062 0.64131 0.0
H702 H 0.50625 0.37999 0.53051 0.0
H703 H 0.58066 0.36669 0.54552 0.0
H704 H 0.58363 0.4018 0.59263 0.0
H705 H 0.50681 0.44032 0.49476 0.0
H706 H 0.48112 0.44615 0.53617 0.0
H707 H 0.48493 0.41984 0.50488 0.0
H708 H 0.47976 0.39699 0.60807 0.0
H709 H 0.47563 0.42326 0.63936 0.0
H710 H 0.49781 0.40221 0.66866 0.0
H711 H 0.57798 0.43814 0.64015 0.0
H712 H 0.56418 0.4723 0.68488 0.0
H713 H 0.49372 0.46183 0.6341 0.0
C714 C 0.52314 0.38428 0.5445 0.0
C715 C 0.54322 0.37056 0.53506 0.0
C716 C 0.56508 0.37702 0.55256 0.0
C717 C 0.56692 0.39689 0.57923 0.0
C718 C 0.54675 0.41015 0.58738 0.0
C719 C 0.52528 0.40408 0.57048 0.0
C720 C 0.50625 0.42126 0.58348 0.0
C721 C 0.49407 0.43256 0.52641 0.0
C722 C 0.48884 0.41027 0.62752 0.0
C723 C 0.5203 0.4379 0.61086 0.0
C724 C 0.54361 0.43125 0.61285 0.0
C725 C 0.55978 0.44359 0.63842 0.0
C726 C 0.5518 0.46298 0.66356 0.0
C727 C 0.52791 0.46984 0.66252 0.0
C728 C 0.51213 0.45727 0.6349 0.0
H729 H 0.10693 0.5059 0.43333 0.0
H730 H 0.15702 0.54473 0.51261 0.0
H731 H 0.1268 0.55778 0.57867 0.0
H732 H 0.05484 0.54382 0.44917 0.0
H733 H 0.03705 0.52012 0.46818 0.0
H734 H 0.06126 0.51746 0.41944 0.0
H735 H 0.07799 0.48209 0.48823 0.0
H736 H 0.05382 0.48457 0.53672 0.0
H737 H 0.08291 0.48432 0.56512 0.0
H738 H 0.09235 0.56305 0.64377 0.0
H739 H 0.05803 0.55731 0.70713 0.0
H740 H 0.03186 0.51288 0.58919 0.0
C741 C 0.11162 0.51727 0.46421 0.0
C742 C 0.13443 0.5243 0.46744 0.0
C743 C 0.13961 0.53941 0.50828 0.0
C744 C 0.12254 0.54691 0.54614 0.0
C745 C 0.1004 0.53916 0.54264 0.0
C746 C 0.09497 0.52458 0.50281 0.0
C747 C 0.07086 0.51643 0.51247 0.0
C748 C 0.05507 0.52498 0.45914 0.0
C749 C 0.07145 0.49032 0.5265 0.0
C750 C 0.0639 0.52797 0.56552 0.0
C751 C 0.08086 0.54152 0.58138 0.0
C752 C 0.07882 0.55275 0.63131 0.0
C753 C 0.05926 0.54946 0.66691 0.0
C754 C 0.04237 0.53468 0.65285 0.0
C755 C 0.04447 0.52437 0.60069 0.0
H756 H 0.02615 0.85524 0.97791 0.0
H757 H 0.06554 0.87747 0.11873 0.0
H758 H 0.07352 0.91282 0.05439 0.0
H759 H 0.06032 0.88357 0.84941 0.0
H760 H 0.03422 0.89113 0.80647 0.0
H761 H 0.03638 0.8654 0.85794 0.0
H762 H 0.99896 0.87876 0.90913 0.0
H763 H 0.99678 0.90441 0.85804 0.0
H764 H 0.99747 0.90604 0.93624 0.0
H765 H 0.07136 0.94802 0.98267 0.0
H766 H 0.05811 0.98081 0.91069 0.0
H767 H 0.01965 0.93607 0.81621 0.0
C768 C 0.03728 0.86718 0.99395 0.0
C769 C 0.04569 0.86364 0.05245 0.0
C770 C 0.05933 0.8799 0.07349 0.0
C771 C 0.064 0.89993 0.03723 0.0
C772 C 0.05485 0.90338 0.98014 0.0
C773 C 0.04184 0.8874 0.95844 0.0
C774 C 0.03114 0.89663 0.89906 0.0
C775 C 0.04112 0.88339 0.85034 0.0
C776 C 0.00453 0.89646 0.90079 0.0
C777 C 0.03913 0.92063 0.89233 0.0
C778 C 0.05324 0.92403 0.93881 0.0
C779 C 0.06076 0.94545 0.94533 0.0
C780 C 0.05311 0.964 0.90427 0.0
C781 C 0.03789 0.96102 0.85772 0.0
C782 C 0.03153 0.93889 0.85078 0.0
H783 H 0.63512 0.03269 0.04295 0.0
H784 H 0.68508 0.03815 0.90122 0.0
H785 H 0.65314 0.04284 0.82813 0.0
H786 H 0.59805 0.99964 0.97942 0.0
H787 H 0.57161 0.01265 0.0048 0.0
H788 H 0.59804 0.01305 0.04592 0.0
H789 H 0.59326 0.057 0.03837 0.0
H790 H 0.56664 0.05675 0.99746 0.0
H791 H 0.58964 0.07364 0.96693 0.0
H792 H 0.61658 0.0416 0.77152 0.0
H793 H 0.57759 0.03576 0.73471 0.0
H794 H 0.5511 0.03249 0.91293 0.0
C795 C 0.63932 0.03566 0.99656 0.0
C796 C 0.66256 0.03516 0.97768 0.0
C797 C 0.66738 0.03837 0.91656 0.0
C798 C 0.64937 0.0412 0.87478 0.0
C799 C 0.62666 0.041 0.89488 0.0
C800 C 0.62155 0.03854 0.95431 0.0
C801 C 0.5958 0.03697 0.96432 0.0
C802 C 0.59059 0.01423 1.00074 0.0
C803 C 0.58574 0.05731 0.99349 0.0
C804 C 0.58732 0.03817 0.9013 0.0
C805 C 0.60538 0.04068 0.86192 0.0
C806 C 0.60221 0.04014 0.80173 0.0
C807 C 0.58004 0.03673 0.7813 0.0
C808 C 0.56134 0.03395 0.82096 0.0
C809 C 0.56499 0.0351 0.88152 0.0
H810 H 0.49289 0.65378 0.98798 0.0
H811 H 0.41791 0.66157 0.985 0.0
H812 H 0.41642 0.62603 0.93894 0.0
H813 H 0.50006 0.63166 0.84954 0.0
H814 H 0.52406 0.61222 0.87574 0.0
H815 H 0.51881 0.63835 0.90713 0.0
H816 H 0.51725 0.61539 0.01133 0.0
H817 H 0.52221 0.58918 0.9801 0.0
H818 H 0.49716 0.59333 0.02518 0.0
H819 H 0.4236 0.59009 0.89054 0.0
H820 H 0.43869 0.55672 0.84441 0.0
H821 H 0.50888 0.57212 0.88456 0.0
C822 C 0.47616 0.64819 0.97683 0.0
C823 C 0.4555 0.6605 0.98916 0.0
C824 C 0.43391 0.65235 0.97552 0.0
C825 C 0.43292 0.63223 0.9495 0.0
C826 C 0.45368 0.6204 0.9383 0.0
C827 C 0.47488 0.62809 0.95169 0.0
C828 C 0.49468 0.61219 0.93617 0.0
C829 C 0.51031 0.62433 0.88935 0.0
C830 C 0.50864 0.60191 0.9915 0.0
C831 C 0.48136 0.5944 0.91133 0.0
C832 C 0.45774 0.59942 0.91274 0.0
C833 C 0.44204 0.5859 0.88971 0.0
C834 C 0.45076 0.56698 0.86372 0.0
C835 C 0.47493 0.56171 0.86153 0.0
C836 C 0.49031 0.57546 0.88651 0.0
H837 H 0.88283 0.50661 0.12102 0.0
H838 H 0.84321 0.4563 0.05121 0.0
H839 H 0.87425 0.45036 0.97894 0.0
H840 H 0.90056 0.53249 0.98424 0.0
H841 H 0.9288 0.53871 0.00889 0.0
H842 H 0.90525 0.53648 0.06014 0.0
H843 H 0.92939 0.50559 0.12865 0.0
H844 H 0.95306 0.50775 0.07748 0.0
H845 H 0.94129 0.48058 0.09958 0.0
H846 H 0.90845 0.45168 0.91127 0.0
H847 H 0.94135 0.46236 0.84721 0.0
H848 H 0.9573 0.51365 0.95808 0.0
C849 C 0.88105 0.49394 0.0914 0.0
C850 C 0.86102 0.48154 0.09198 0.0
C851 C 0.85867 0.46569 0.0515 0.0
C852 C 0.8762 0.46219 0.01067 0.0
C853 C 0.89572 0.47488 0.01079 0.0
C854 C 0.89814 0.49057 0.04983 0.0
C855 C 0.91953 0.50373 0.03694 0.0
C856 C 0.91314 0.52936 0.02162 0.0
C857 C 0.93684 0.49913 0.08875 0.0
C858 C 0.92856 0.49333 0.98376 0.0
C859 C 0.91486 0.4764 0.97012 0.0
C860 C 0.91938 0.4648 0.92174 0.0
C861 C 0.93813 0.47097 0.88569 0.0
C862 C 0.95185 0.48885 0.8977 0.0
C863 C 0.94715 0.49989 0.94791 0.0
H864 H 0.99808 0.17008 0.09714 0.0
H865 H 0.0183 0.22187 0.95919 0.0
H866 H 0.02744 0.19204 0.89398 0.0
H867 H 0.04311 0.12811 0.07114 0.0
H868 H 0.025 0.10455 0.08855 0.0
H869 H 0.01965 0.13012 0.12239 0.0
H870 H 0.97731 0.13356 0.08358 0.0
H871 H 0.98256 0.10804 0.04946 0.0
H872 H 0.97184 0.134 0.00577 0.0
H873 H 0.0324 0.15568 0.84266 0.0
H874 H 0.0367 0.1165 0.81465 0.0
H875 H 0.01558 0.08934 0.98984 0.0
C876 C 0.00439 0.17511 0.05309 0.0
C877 C 0.00729 0.1982 0.03268 0.0
C878 C 0.01593 0.20421 0.97531 0.0
C879 C 0.02107 0.18741 0.93809 0.0
C880 C 0.0178 0.16471 0.95948 0.0
C881 C 0.00996 0.1586 0.01608 0.0
C882 C 0.00864 0.13312 0.0298 0.0
C883 C 0.02508 0.12341 0.08099 0.0
C884 C 0.9836 0.12682 0.04291 0.0
C885 C 0.01683 0.1257 0.97206 0.0
C886 C 0.02178 0.14408 0.93156 0.0
C887 C 0.02883 0.1412 0.87438 0.0
C888 C 0.03115 0.11897 0.85872 0.0
C889 C 0.02684 0.09997 0.90039 0.0
C890 C 0.01948 0.10353 0.95753 0.0
H891 H 0.3434 0.07166 0.13109 0.0
H892 H 0.2952 0.05346 0.00193 0.0
H893 H 0.3278 0.04757 0.93433 0.0
H894 H 0.38257 0.10158 0.02636 0.0
H895 H 0.40794 0.09105 0.06953 0.0
H896 H 0.38062 0.09537 0.10541 0.0
H897 H 0.38387 0.05343 0.15419 0.0
H898 H 0.4111 0.04893 0.11823 0.0
H899 H 0.38778 0.03094 0.10838 0.0
H900 H 0.36608 0.0417 0.88341 0.0
H901 H 0.40661 0.03573 0.85368 0.0
H902 H 0.42965 0.05845 0.01604 0.0
C903 C 0.33956 0.06699 0.088 0.0
C904 C 0.31666 0.06328 0.07151 0.0
C905 C 0.31257 0.05641 0.01549 0.0
C906 C 0.33097 0.05312 0.97675 0.0
C907 C 0.35334 0.05675 0.99474 0.0
C908 C 0.35767 0.06358 0.04904 0.0
C909 C 0.38336 0.06519 0.05924 0.0
C910 C 0.38895 0.08976 0.06549 0.0
C911 C 0.39203 0.04863 0.1132 0.0
C912 C 0.3929 0.0579 0.00249 0.0
C913 C 0.37532 0.05327 0.96568 0.0
C914 C 0.37996 0.04555 0.91161 0.0
C915 C 0.40314 0.04235 0.89493 0.0
C916 C 0.42152 0.04678 0.93222 0.0
C917 C 0.41613 0.05484 0.98652 0.0
H918 H 0.52792 0.36674 0.04185 0.0
H919 H 0.45558 0.36287 0.09127 0.0
H920 H 0.44552 0.39628 0.01866 0.0
H921 H 0.52751 0.42646 0.03665 0.0
H922 H 0.54754 0.43013 0.97634 0.0
H923 H 0.54872 0.40391 0.02566 0.0
H924 H 0.54408 0.38126 0.93706 0.0
H925 H 0.54299 0.40742 0.88739 0.0
H926 H 0.51983 0.38846 0.88719 0.0
H927 H 0.44351 0.43171 0.94251 0.0
H928 H 0.45025 0.46655 0.87416 0.0
H929 H 0.52419 0.44954 0.88514 0.0
C930 C 0.50991 0.37275 0.03803 0.0
C931 C 0.49264 0.36172 0.073 0.0
C932 C 0.46926 0.37034 0.06459 0.0
C933 C 0.46332 0.38957 0.02363 0.0
C934 C 0.48092 0.40034 0.99163 0.0
C935 C 0.50376 0.39226 0.9987 0.0
C936 C 0.51969 0.40787 0.9627 0.0
C937 C 0.53687 0.41767 0.00274 0.0
C938 C 0.53239 0.39551 0.9158 0.0
C939 C 0.50227 0.42613 0.93466 0.0
C940 C 0.47994 0.42132 0.95096 0.0
C941 C 0.46094 0.43565 0.92967 0.0
C942 C 0.46492 0.45539 0.89092 0.0
C943 C 0.48773 0.46086 0.87493 0.0
C944 C 0.50657 0.44597 0.89722 0.0
H945 H 0.14473 0.49907 0.03789 0.0
H946 H 0.15961 0.42783 0.01986 0.0
H947 H 0.12496 0.42866 0.95563 0.0
H948 H 0.08411 0.49635 0.04869 0.0
H949 H 0.07746 0.52405 0.00812 0.0
H950 H 0.10429 0.51832 0.04872 0.0
H951 H 0.12731 0.53047 0.95389 0.0
H952 H 0.10052 0.5365 0.91312 0.0
H953 H 0.12255 0.51711 0.88872 0.0
H954 H 0.08793 0.43721 0.89586 0.0
H955 H 0.05166 0.45269 0.84481 0.0
H956 H 0.0607 0.51808 0.90507 0.0
C957 C 0.14102 0.48378 0.01924 0.0
C958 C 0.155 0.46345 0.03303 0.0
C959 C 0.14916 0.4436 0.00945 0.0
C960 C 0.12955 0.44393 0.97301 0.0
C961 C 0.11591 0.46419 0.96108 0.0
C962 C 0.12143 0.48376 0.98345 0.0
C963 C 0.10341 0.50306 0.96636 0.0
C964 C 0.09162 0.5109 0.02125 0.0
C965 C 0.11409 0.52296 0.92824 0.0
C966 C 0.08684 0.49131 0.93085 0.0
C967 C 0.09438 0.46894 0.9281 0.0
C968 C 0.0819 0.45471 0.89768 0.0
C969 C 0.06129 0.46366 0.86892 0.0
C970 C 0.05328 0.48658 0.87108 0.0
C971 C 0.06626 0.50047 0.90281 0.0
H972 H 0.00223 0.85559 0.45537 0.0
H973 H 0.97882 0.80578 0.59414 0.0
H974 H 0.97042 0.83649 0.65717 0.0
H975 H 0.02916 0.89159 0.54648 0.0
H976 H 0.01968 0.91746 0.50055 0.0
H977 H 0.02446 0.8914 0.46857 0.0
H978 H 0.98257 0.89591 0.4266 0.0
H979 H 0.97766 0.92198 0.45843 0.0
H980 H 0.95863 0.89919 0.47585 0.0
H981 H 0.96611 0.87357 0.70579 0.0
H982 H 0.96265 0.91321 0.7308 0.0
H983 H 0.98661 0.93783 0.55629 0.0
C984 C 0.9955 0.85114 0.49926 0.0
C985 C 0.99147 0.82837 0.5205 0.0
C986 C 0.98214 0.82317 0.57747 0.0
C987 C 0.9774 0.84048 0.61344 0.0
C988 C 0.98174 0.86285 0.59117 0.0
C989 C 0.99031 0.86815 0.53498 0.0
C990 C 0.99258 0.89345 0.51983 0.0
C991 C 0.01798 0.89878 0.50819 0.0
C992 C 0.97692 0.9032 0.46707 0.0
C993 C 0.98405 0.9017 0.57628 0.0
C994 C 0.97812 0.88389 0.61741 0.0
C995 C 0.97049 0.88761 0.67357 0.0
C996 C 0.96863 0.91009 0.68752 0.0
C997 C 0.97398 0.92852 0.64513 0.0
C998 C 0.9819 0.92411 0.58909 0.0
H999 H 0.68312 0.99468 0.50573 0.0
H1000 H 0.674 0.93711 0.41017 0.0
H1001 H 0.63701 0.93065 0.46036 0.0
H1002 H 0.65319 0.97134 0.6454 0.0
H1003 H 0.64031 0.99904 0.65482 0.0
H1004 H 0.66822 0.99648 0.62052 0.0
H1005 H 0.65274 0.02363 0.52938 0.0
H1006 H 0.62479 0.0261 0.563 0.0
H1007 H 0.62734 0.0168 0.4911 0.0
H1008 H 0.59805 0.93487 0.50461 0.0
H1009 H 0.561 0.94776 0.54716 0.0
H1010 H 0.59483 1.00191 0.61639 0.0
C1011 C 0.67365 0.98033 0.49656 0.0
C1012 C 0.68168 0.96632 0.45417 0.0
C1013 C 0.66863 0.94781 0.44329 0.0
C1014 C 0.64744 0.94407 0.47137 0.0
C1015 C 0.63957 0.95879 0.51085 0.0
C1016 C 0.65243 0.97634 0.52433 0.0
C1017 C 0.63904 0.99097 0.56413 0.0
C1018 C 0.6509 0.98935 0.62483 0.0
C1019 C 0.63579 0.01584 0.53514 0.0
C1020 C 0.61626 0.97956 0.5685 0.0
C1021 C 0.61703 0.9609 0.53782 0.0
C1022 C 0.59742 0.94904 0.53011 0.0
C1023 C 0.57646 0.95652 0.55402 0.0
C1024 C 0.5753 0.97553 0.5856 0.0
C1025 C 0.59553 0.98693 0.5938 0.0
H1026 H 0.49196 0.64477 0.40809 0.0
H1027 H 0.539 0.68597 0.489 0.0
H1028 H 0.54439 0.65566 0.57427 0.0
H1029 H 0.46435 0.62242 0.54424 0.0
H1030 H 0.46108 0.59493 0.52074 0.0
H1031 H 0.46115 0.61988 0.46693 0.0
H1032 H 0.49475 0.60089 0.41221 0.0
H1033 H 0.49492 0.57597 0.46613 0.0
H1034 H 0.52104 0.59073 0.45191 0.0
H1035 H 0.54622 0.61953 0.64755 0.0
H1036 H 0.54108 0.5827 0.70849 0.0
H1037 H 0.49087 0.56633 0.58175 0.0
C1038 C 0.50331 0.6474 0.44399 0.0
C1039 C 0.51521 0.66756 0.44216 0.0
C1040 C 0.52974 0.67062 0.48992 0.0
C1041 C 0.53296 0.65347 0.53821 0.0
C1042 C 0.52122 0.63359 0.53825 0.0
C1043 C 0.50638 0.63068 0.49278 0.0
C1044 C 0.49534 0.60804 0.50392 0.0
C1045 C 0.46891 0.61153 0.50929 0.0
C1046 C 0.50192 0.59302 0.45567 0.0
C1047 C 0.50646 0.59848 0.56253 0.0
C1048 C 0.52152 0.61335 0.58134 0.0
C1049 C 0.53433 0.60788 0.63344 0.0
C1050 C 0.53139 0.58685 0.66758 0.0
C1051 C 0.51555 0.57166 0.64993 0.0
C1052 C 0.50302 0.57762 0.59655 0.0
H1053 H 0.86481 0.53482 0.46506 0.0
H1054 H 0.82574 0.58443 0.5549 0.0
H1055 H 0.85781 0.58323 0.62809 0.0
H1056 H 0.88714 0.50078 0.59529 0.0
H1057 H 0.91468 0.49399 0.563 0.0
H1058 H 0.88924 0.4999 0.51692 0.0
H1059 H 0.90984 0.53158 0.45209 0.0
H1060 H 0.93532 0.5258 0.49815 0.0
H1061 H 0.92173 0.55415 0.4861 0.0
H1062 H 0.89482 0.57663 0.68996 0.0
H1063 H 0.9317 0.56286 0.74094 0.0
H1064 H 0.94492 0.51583 0.61256 0.0
C1065 C 0.86315 0.54552 0.50004 0.0
C1066 C 0.84314 0.55992 0.5045 0.0
C1067 C 0.84114 0.57343 0.55104 0.0
C1068 C 0.85924 0.57286 0.59244 0.0
C1069 C 0.87891 0.55848 0.58668 0.0
C1070 C 0.88079 0.54487 0.54194 0.0
C1071 C 0.9031 0.53008 0.54679 0.0
C1072 C 0.89824 0.50469 0.55608 0.0
C1073 C 0.9184 0.53575 0.49256 0.0
C1074 C 0.91356 0.5374 0.60141 0.0
C1075 C 0.89955 0.55401 0.62339 0.0
C1076 C 0.90586 0.56358 0.67323 0.0
C1077 C 0.92686 0.55572 0.70171 0.0
C1078 C 0.94109 0.53824 0.68076 0.0
C1079 C 0.93433 0.52912 0.62977 0.0
loop_
_geom_bond_atom_site_label_1
_geom_bond_atom_site_label_2
_geom_bond_distance
_geom_bond_site_symmetry_2
_ccdc_geom_bond_type
C0 C1 1.386 . S
C0 C2 1.397 . S
C0 H24 0.931 . S
C1 C0 1.386 . S
C1 C5 1.397 1_556 S
C2 C0 1.397 . S
C2 C3 1.384 1_556 S
C2 H25 0.930 . S
C3 C2 1.384 1_554 S
C3 C4 1.377 . S
C3 C6 1.481 . S
C4 C3 1.377 . S
C4 C5 1.389 . S
C4 H26 0.929 . S
C5 C1 1.397 1_554 S
C5 C4 1.389 . S
C5 H27 0.931 . S
C6 C3 1.481 . S
C6 C7 1.387 . S
C6 C11 1.390 . S
C7 C6 1.387 . S
C7 C8 1.401 . S
C7 H28 0.930 . S
C8 C7 1.401 . S
C8 C9 1.376 . S
C8 C17 1.511 . S
C9 C8 1.376 . S
C9 C10 1.392 . S
C9 H30 0.931 . S
C10 C9 1.392 . S
C10 C11 1.361 . S
C10 C12 1.500 . S
C11 C6 1.390 . S
C11 C10 1.361 . S
C11 H29 0.931 . S
C12 C10 1.500 . S
C12 C13 1.371 . S
C12 C14 1.365 . S
C13 C12 1.371 . S
C13 C23 1.386 . S
C13 H31 0.931 . S
C14 C12 1.365 . S
C14 C15 1.409 . S
C14 H32 0.929 . S
C15 C14 1.409 . S
C15 C16 1.380 . S
C15 H33 0.930 . S
C16 C15 1.380 . S
C16 C23 1.357 . S
C17 C8 1.511 . S
C17 C18 1.341 . S
C17 C19 1.371 . S
C18 C17 1.341 . S
C18 C22 1.394 . S
C18 H34 0.930 . S
C19 C17 1.371 . S
C19 C20 1.392 . S
C19 H35 0.931 . S
C20 C19 1.392 . S
C20 C21 1.331 . S
C20 H38 0.932 . S
C21 C20 1.331 . S
C21 C22 1.336 . S
C22 C18 1.394 . S
C22 C21 1.336 . S
C22 H37 0.929 1_554 S
C23 C13 1.386 . S
C23 C16 1.357 . S
C23 H36 0.928 . S
H24 C0 0.931 . S
H25 C2 0.930 . S
H26 C4 0.929 . S
H27 C5 0.931 . S
H28 C7 0.930 . S
H29 C11 0.931 . S
H30 C9 0.931 . S
H31 C13 0.931 . S
H32 C14 0.929 . S
H33 C15 0.930 . S
H34 C18 0.930 . S
H35 C19 0.931 . S
H36 C23 0.928 . S
H37 C22 0.929 1_556 S
H38 C20 0.932 . S
C39 C40 1.395 . S
C39 C41 1.397 . S
C39 H63 0.931 . S
C40 C39 1.395 . S
C40 C44 1.389 1_655 S
C41 C39 1.397 . S
C41 C42 1.389 1_556 S
C41 H64 0.930 . S
C42 C41 1.389 1_554 S
C42 C43 1.372 1_655 S
C42 C45 1.479 . S
C43 C42 1.372 1_455 S
C43 C44 1.389 1_554 S
C43 H65 0.929 . S
C44 C40 1.389 1_455 S
C44 C43 1.389 1_556 S
C44 H66 0.931 . S
C45 C42 1.479 . S
C45 C46 1.390 . S
C45 C50 1.390 . S
C46 C45 1.390 . S
C46 C47 1.401 . S
C46 H67 0.930 . S
C47 C46 1.401 . S
C47 C48 1.376 . S
C47 C56 1.515 . S
C48 C47 1.376 . S
C48 C49 1.389 . S
C48 H69 0.936 . S
C49 C48 1.389 . S
C49 C50 1.362 . S
C49 C51 1.499 1_655 S
C50 C45 1.390 . S
C50 C49 1.362 . S
C50 H68 0.931 . S
C51 C49 1.499 1_455 S
C51 C52 1.361 1_455 S
C51 C53 1.376 . S
C52 C51 1.361 1_655 S
C52 C62 1.386 . S
C52 H70 0.931 . S
C53 C51 1.376 . S
C53 C54 1.409 . S
C53 H71 0.929 . S
C54 C53 1.409 . S
C54 C55 1.379 . S
C54 H72 0.930 . S
C55 C54 1.379 . S
C55 C62 1.358 1_455 S
C56 C47 1.515 . S
C56 C57 1.341 . S
C56 C58 1.371 1_655 S
C57 C56 1.341 . S
C57 C61 1.394 . S
C57 H73 0.930 . S
C58 C56 1.371 1_455 S
C58 C59 1.392 . S
C58 H74 0.931 . S
C59 C58 1.392 . S
C59 C60 1.322 1_455 S
C59 H77 0.932 . S
C60 C59 1.322 1_655 S
C60 C61 1.344 . S
C61 C57 1.394 . S
C61 C60 1.344 . S
C61 H76 0.929 . S
C62 C52 1.386 . S
C62 C55 1.358 1_655 S
C62 H75 0.928 . S
H63 C39 0.931 . S
H64 C41 0.930 . S
H65 C43 0.929 . S
H66 C44 0.931 . S
H67 C46 0.930 . S
H68 C50 0.931 . S
H69 C48 0.936 . S
H70 C52 0.931 . S
H71 C53 0.929 . S
H72 C54 0.930 . S
H73 C57 0.930 . S
H74 C58 0.931 . S
H75 C62 0.928 . S
H76 C61 0.929 . S
H77 C59 0.932 . S
C78 C79 1.386 . S
C78 C80 1.397 . S
C78 H102 0.931 . S
C79 C78 1.386 . S
C79 C83 1.397 . S
C80 C78 1.397 . S
C80 C81 1.384 1_556 S
C80 H103 0.930 . S
C81 C80 1.384 1_554 S
C81 C82 1.377 . S
C81 C84 1.481 . S
C82 C81 1.377 . S
C82 C83 1.389 1_554 S
C82 H104 0.929 . S
C83 C79 1.397 . S
C83 C82 1.389 1_556 S
C83 H105 0.931 . S
C84 C81 1.481 . S
C84 C85 1.387 . S
C84 C89 1.390 . S
C85 C84 1.387 . S
C85 C86 1.401 . S
C85 H106 0.930 . S
C86 C85 1.401 . S
C86 C87 1.376 . S
C86 C95 1.511 . S
C87 C86 1.376 . S
C87 C88 1.392 . S
C87 H108 0.931 . S
C88 C87 1.392 . S
C88 C89 1.361 . S
C88 C90 1.500 . S
C89 C84 1.390 . S
C89 C88 1.361 . S
C89 H107 0.931 . S
C90 C88 1.500 . S
C90 C91 1.371 . S
C90 C92 1.365 . S
C91 C90 1.371 . S
C91 C101 1.386 . S
C91 H109 0.931 . S
C92 C90 1.365 . S
C92 C93 1.409 . S
C92 H110 0.929 . S
C93 C92 1.409 . S
C93 C94 1.380 . S
C93 H111 0.930 . S
C94 C93 1.380 . S
C94 C101 1.357 . S
C95 C86 1.511 . S
C95 C96 1.341 . S
C95 C97 1.371 . S
C96 C95 1.341 . S
C96 C100 1.394 . S
C96 H112 0.930 1_554 S
C97 C95 1.371 . S
C97 C98 1.392 . S
C97 H113 0.931 . S
C98 C97 1.392 . S
C98 C99 1.331 . S
C98 H116 0.932 . S
C99 C98 1.331 . S
C99 C100 1.336 . S
C100 C96 1.394 . S
C100 C99 1.336 . S
C100 H115 0.929 1_554 S
C101 C91 1.386 . S
C101 C94 1.357 . S
C101 H114 0.928 . S
H102 C78 0.931 . S
H103 C80 0.930 . S
H104 C82 0.929 . S
H105 C83 0.931 . S
H106 C85 0.930 . S
H107 C89 0.931 . S
H108 C87 0.931 . S
H109 C91 0.931 . S
H110 C92 0.929 . S
H111 C93 0.930 . S
H112 C96 0.930 1_556 S
H113 C97 0.931 . S
H114 C101 0.928 . S
H115 C100 0.929 1_556 S
H116 C98 0.932 . S
C117 C118 1.386 . S
C117 C119 1.397 . S
C117 H141 0.931 . S
C118 C117 1.386 . S
C118 C122 1.397 . S
C119 C117 1.397 . S
C119 C120 1.384 . S
C119 H142 0.930 . S
C120 C119 1.384 . S
C120 C121 1.377 . S
C120 C123 1.481 . S
C121 C120 1.377 . S
C121 C122 1.389 . S
C121 H143 0.929 . S
C122 C118 1.397 . S
C122 C121 1.389 . S
C122 H144 0.931 . S
C123 C120 1.481 . S
C123 C124 1.387 . S
C123 C128 1.390 . S
C124 C123 1.387 . S
C124 C125 1.401 . S
C124 H145 0.930 . S
C125 C124 1.401 . S
C125 C126 1.376 . S
C125 C134 1.511 . S
C126 C125 1.376 . S
C126 C127 1.392 . S
C126 H147 0.931 . S
C127 C126 1.392 . S
C127 C128 1.361 . S
C127 C129 1.500 . S
C128 C123 1.390 . S
C128 C127 1.361 . S
C128 H146 0.931 . S
C129 C127 1.500 . S
C129 C130 1.371 1_554 S
C129 C131 1.365 . S
C130 C129 1.371 1_556 S
C130 C140 1.386 . S
C130 H148 0.931 . S
C131 C129 1.365 . S
C131 C132 1.409 . S
C131 H149 0.929 . S
C132 C131 1.409 . S
C132 C133 1.380 1_554 S
C132 H150 0.930 . S
C133 C132 1.380 1_556 S
C133 C140 1.357 . S
C134 C125 1.511 . S
C134 C135 1.341 . S
C134 C136 1.371 . S
C135 C134 1.341 . S
C135 C139 1.394 . S
C135 H151 0.930 . S
C136 C134 1.371 . S
C136 C137 1.392 . S
C136 H152 0.931 . S
C137 C136 1.392 . S
C137 C138 1.331 . S
C137 H155 0.932 1_554 S
C138 C137 1.331 . S
C138 C139 1.336 . S
C139 C135 1.394 . S
C139 C138 1.336 . S
C139 H154 0.929 . S
C140 C130 1.386 . S
C140 C133 1.357 . S
C140 H153 0.928 . S
H141 C117 0.931 . S
H142 C119 0.930 . S
H143 C121 0.929 . S
H144 C122 0.931 . S
H145 C124 0.930 . S
H146 C128 0.931 . S
H147 C126 0.931 . S
H148 C130 0.931 . S
H149 C131 0.929 . S
H150 C132 0.930 . S
H151 C135 0.930 . S
H152 C136 0.931 . S
H153 C140 0.928 . S
H154 C139 0.929 . S
H155 C137 0.932 1_556 S
C156 C157 1.386 . S
C156 C158 1.397 . S
C156 H180 0.931 . S
C157 C156 1.386 . S
C157 C161 1.397 . S
C158 C156 1.397 . S
C158 C159 1.384 . S
C158 H181 0.930 . S
C159 C158 1.384 . S
C159 C160 1.377 . S
C159 C162 1.481 . S
C160 C159 1.377 . S
C160 C161 1.389 . S
C160 H182 0.929 . S
C161 C157 1.397 . S
C161 C160 1.389 . S
C161 H183 0.931 . S
C162 C159 1.481 . S
C162 C163 1.387 . S
C162 C167 1.390 . S
C163 C162 1.387 . S
C163 C164 1.401 . S
C163 H184 0.930 . S
C164 C163 1.401 . S
C164 C165 1.376 . S
C164 C173 1.511 . S
C165 C164 1.376 . S
C165 C166 1.392 . S
C165 H186 0.931 . S
C166 C165 1.392 . S
C166 C167 1.361 . S
C166 C168 1.500 . S
C167 C162 1.390 . S
C167 C166 1.361 . S
C167 H185 0.931 . S
C168 C166 1.500 . S
C168 C169 1.371 . S
C168 C170 1.365 . S
C169 C168 1.371 . S
C169 C179 1.386 . S
C169 H187 0.931 . S
C170 C168 1.365 . S
C170 C171 1.409 . S
C170 H188 0.929 . S
C171 C170 1.409 . S
C171 C172 1.380 . S
C171 H189 0.930 . S
C172 C171 1.380 . S
C172 C179 1.357 . S
C173 C164 1.511 . S
C173 C174 1.341 . S
C173 C175 1.371 . S
C174 C173 1.341 . S
C174 C178 1.394 . S
C174 H190 0.930 . S
C175 C173 1.371 . S
C175 C176 1.392 . S
C175 H191 0.931 . S
C176 C175 1.392 . S
C176 C177 1.331 . S
C176 H194 0.932 . S
C177 C176 1.331 . S
C177 C178 1.336 . S
C178 C174 1.394 . S
C178 C177 1.336 . S
C178 H193 0.929 . S
C179 C169 1.386 . S
C179 C172 1.357 . S
C179 H192 0.928 . S
H180 C156 0.931 . S
H181 C158 0.930 . S
H182 C160 0.929 . S
H183 C161 0.931 . S
H184 C163 0.930 . S
H185 C167 0.931 . S
H186 C165 0.931 . S
H187 C169 0.931 . S
H188 C170 0.929 . S
H189 C171 0.930 . S
H190 C174 0.930 . S
H191 C175 0.931 . S
H192 C179 0.928 . S
H193 C178 0.929 . S
H194 C176 0.932 . S
C195 C196 1.387 . S
C195 C197 1.397 . S
C195 H219 0.931 . S
C196 C195 1.387 . S
C196 C200 1.396 1_655 S
C197 C195 1.397 . S
C197 C198 1.382 . S
C197 H220 0.930 . S
C198 C197 1.382 . S
C198 C199 1.379 1_655 S
C198 C201 1.482 . S
C199 C198 1.379 1_455 S
C199 C200 1.389 . S
C199 H221 0.929 . S
C200 C196 1.396 1_455 S
C200 C199 1.389 . S
C200 H222 0.931 . S
C201 C198 1.482 . S
C201 C202 1.387 . S
C201 C206 1.390 . S
C202 C201 1.387 . S
C202 C203 1.403 . S
C202 H223 0.930 . S
C203 C202 1.403 . S
C203 C204 1.376 . S
C203 C212 1.511 . S
C204 C203 1.376 . S
C204 C205 1.393 1_655 S
C204 H225 0.932 . S
C205 C204 1.393 1_455 S
C205 C206 1.361 1_455 S
C205 C207 1.499 . S
C206 C201 1.390 . S
C206 C205 1.361 1_655 S
C206 H224 0.931 . S
C207 C205 1.499 . S
C207 C208 1.358 1_455 S
C207 C209 1.379 . S
C208 C207 1.358 1_655 S
C208 C218 1.386 . S
C208 H226 0.931 . S
C209 C207 1.379 . S
C209 C210 1.409 . S
C209 H227 0.929 . S
C210 C209 1.409 . S
C210 C211 1.384 . S
C210 H228 0.930 . S
C211 C210 1.384 . S
C211 C218 1.354 1_455 S
C212 C203 1.511 . S
C212 C213 1.341 . S
C212 C214 1.371 1_655 S
C213 C212 1.341 . S
C213 C217 1.394 . S
C213 H229 0.930 . S
C214 C212 1.371 1_455 S
C214 C215 1.392 . S
C214 H230 0.931 . S
C215 C214 1.392 . S
C215 C216 1.326 1_455 S
C215 H233 0.932 . S
C216 C215 1.326 1_655 S
C216 C217 1.342 . S
C217 C213 1.394 . S
C217 C216 1.342 . S
C217 H232 0.929 . S
C218 C208 1.386 . S
C218 C211 1.354 1_655 S
C218 H231 0.928 . S
H219 C195 0.931 . S
H220 C197 0.930 . S
H221 C199 0.929 . S
H222 C200 0.931 . S
H223 C202 0.930 . S
H224 C206 0.931 . S
H225 C204 0.932 . S
H226 C208 0.931 . S
H227 C209 0.929 . S
H228 C210 0.930 . S
H229 C213 0.930 . S
H230 C214 0.931 . S
H231 C218 0.928 . S
H232 C217 0.929 . S
H233 C215 0.932 . S
C234 C235 1.386 . S
C234 C236 1.397 . S
C234 H258 0.931 . S
C235 C234 1.386 . S
C235 C239 1.397 . S
C236 C234 1.397 . S
C236 C237 1.384 . S
C236 H259 0.930 . S
C237 C236 1.384 . S
C237 C238 1.377 . S
C237 C240 1.481 . S
C238 C237 1.377 . S
C238 C239 1.389 . S
C238 H260 0.929 . S
C239 C235 1.397 . S
C239 C238 1.389 . S
C239 H261 0.931 . S
C240 C237 1.481 . S
C240 C241 1.387 . S
C240 C245 1.390 . S
C241 C240 1.387 . S
C241 C242 1.401 . S
C241 H262 0.930 . S
C242 C241 1.401 . S
C242 C243 1.376 . S
C242 C251 1.511 . S
C243 C242 1.376 . S
C243 C244 1.392 . S
C243 H264 0.931 . S
C244 C243 1.392 . S
C244 C245 1.361 . S
C244 C246 1.500 . S
C245 C240 1.390 . S
C245 C244 1.361 . S
C245 H263 0.931 . S
C246 C244 1.500 . S
C246 C247 1.371 . S
C246 C248 1.365 . S
C247 C246 1.371 . S
C247 C257 1.386 . S
C247 H265 0.931 . S
C248 C246 1.365 . S
C248 C249 1.409 . S
C248 H266 0.929 . S
C249 C248 1.409 . S
C249 C250 1.380 . S
C249 H267 0.930 . S
C250 C249 1.380 . S
C250 C257 1.357 . S
C251 C242 1.511 . S
C251 C252 1.341 . S
C251 C253 1.371 . S
C252 C251 1.341 . S
C252 C256 1.394 . S
C252 H268 0.930 . S
C253 C251 1.371 . S
C253 C254 1.392 . S
C253 H269 0.931 . S
C254 C253 1.392 . S
C254 C255 1.331 . S
C254 H272 0.932 . S
C255 C254 1.331 . S
C255 C256 1.336 . S
C256 C252 1.394 . S
C256 C255 1.336 . S
C256 H271 0.929 . S
C257 C247 1.386 . S
C257 C250 1.357 . S
C257 H270 0.928 . S
H258 C234 0.931 . S
H259 C236 0.930 . S
H260 C238 0.929 . S
H261 C239 0.931 . S
H262 C241 0.930 . S
H263 C245 0.931 . S
H264 C243 0.931 . S
H265 C247 0.931 . S
H266 C248 0.929 . S
H267 C249 0.930 . S
H268 C252 0.930 . S
H269 C253 0.931 . S
H270 C257 0.928 . S
H271 C256 0.929 . S
H272 C254 0.932 . S
C273 C274 1.386 . S
C273 C275 1.397 . S
C273 H297 0.931 . S
C274 C273 1.386 . S
C274 C278 1.397 . S
C275 C273 1.397 . S
C275 C276 1.384 . S
C275 H298 0.930 . S
C276 C275 1.384 . S
C276 C277 1.377 . S
C276 C279 1.481 . S
C277 C276 1.377 . S
C277 C278 1.389 . S
C277 H299 0.929 . S
C278 C274 1.397 . S
C278 C277 1.389 . S
C278 H300 0.931 . S
C279 C276 1.481 . S
C279 C280 1.387 . S
C279 C284 1.390 . S
C280 C279 1.387 . S
C280 C281 1.401 . S
C280 H301 0.930 . S
C281 C280 1.401 . S
C281 C282 1.376 . S
C281 C290 1.511 . S
C282 C281 1.376 . S
C282 C283 1.392 . S
C282 H303 0.931 . S
C283 C282 1.392 . S
C283 C284 1.361 . S
C283 C285 1.500 . S
C284 C279 1.390 . S
C284 C283 1.361 . S
C284 H302 0.931 . S
C285 C283 1.500 . S
C285 C286 1.371 . S
C285 C287 1.365 . S
C286 C285 1.371 . S
C286 C296 1.386 . S
C286 H304 0.931 . S
C287 C285 1.365 . S
C287 C288 1.409 . S
C287 H305 0.929 . S
C288 C287 1.409 . S
C288 C289 1.380 . S
C288 H306 0.930 . S
C289 C288 1.380 . S
C289 C296 1.357 . S
C290 C281 1.511 . S
C290 C291 1.341 . S
C290 C292 1.371 . S
C291 C290 1.341 . S
C291 C295 1.394 . S
C291 H307 0.930 . S
C292 C290 1.371 . S
C292 C293 1.392 . S
C292 H308 0.931 . S
C293 C292 1.392 . S
C293 C294 1.331 . S
C293 H311 0.932 . S
C294 C293 1.331 . S
C294 C295 1.336 . S
C295 C291 1.394 . S
C295 C294 1.336 . S
C295 H310 0.929 . S
C296 C286 1.386 . S
C296 C289 1.357 . S
C296 H309 0.928 . S
H297 C273 0.931 . S
H298 C275 0.930 . S
H299 C277 0.929 . S
H300 C278 0.931 . S
H301 C280 0.930 . S
H302 C284 0.931 . S
H303 C282 0.931 . S
H304 C286 0.931 . S
H305 C287 0.929 . S
H306 C288 0.930 . S
H307 C291 0.930 . S
H308 C292 0.931 . S
H309 C296 0.928 . S
H310 C295 0.929 . S
H311 C293 0.932 . S
Co312 N317 2.057 . S
Co312 O329 2.021 . S
Co312 O332 2.062 1_455 S
Co312 O336 2.117 1_455 S
Co312 O337 2.020 1_545 S
C313 O333 1.259 1_545 S
C313 O336 1.258 . S
Co314 N323 2.057 . S
Co314 O330 2.117 1_665 S
Co314 O331 2.020 1_565 S
Co314 O333 2.021 . S
Co314 O338 2.062 1_655 S
C315 N317 1.316 . S
C315 N318 1.347 . S
C315 H320 0.931 . S
C316 N317 1.375 1_655 S
C316 C319 1.350 . S
C316 H321 0.930 . S
N317 Co312 2.057 . S
N317 C315 1.316 . S
N317 C316 1.375 1_455 S
N318 C315 1.347 . S
N318 C319 1.373 1_455 S
C319 C316 1.350 . S
C319 N318 1.373 1_655 S
C319 H340 0.931 . S
H320 C315 0.931 . S
H321 C316 0.930 . S
C322 O329 1.259 . S
C322 O330 1.258 . S
N323 Co314 2.057 . S
N323 C324 1.316 . S
N323 C325 1.375 1_655 S
C324 N323 1.316 . S
C324 N326 1.347 . S
C324 H335 0.931 . S
C325 N323 1.375 1_455 S
C325 C327 1.350 . S
C325 H334 0.930 . S
N326 C324 1.347 . S
N326 C327 1.373 1_655 S
C327 C325 1.350 . S
C327 N326 1.373 1_455 S
C327 H341 0.931 . S
C328 O331 1.256 . S
C328 O332 1.255 . S
O329 Co312 2.021 . S
O329 C322 1.259 . S
O330 Co314 2.117 1_445 S
O330 C322 1.258 . S
O331 Co314 2.020 1_545 S
O331 C328 1.256 . S
O332 Co312 2.062 1_655 S
O332 C328 1.255 . S
O333 C313 1.259 1_565 S
O333 Co314 2.021 . S
H334 C325 0.930 . S
H335 C324 0.931 . S
O336 Co312 2.117 1_655 S
O336 C313 1.258 . S
O337 Co312 2.020 1_565 S
O337 C339 1.256 . S
O338 Co314 2.062 1_455 S
O338 C339 1.255 . S
C339 O337 1.256 . S
C339 O338 1.255 . S
H340 C319 0.931 . S
H341 C327 0.931 . S
Co342 N347 2.057 . S
Co342 O359 2.021 . S
Co342 O362 2.062 . S
Co342 O366 2.117 1_545 S
Co342 O367 2.020 . S
C343 O363 1.259 . S
C343 O366 1.258 . S
Co344 N353 2.052 1_545 S
Co344 O360 2.117 . S
Co344 O361 2.020 . S
Co344 O363 2.021 1_545 S
Co344 O368 2.062 1_545 S
C345 N347 1.316 . S
C345 N348 1.347 . S
C345 H350 0.931 . S
C346 N347 1.375 . S
C346 C349 1.350 . S
C346 H351 0.930 1_545 S
N347 Co342 2.057 . S
N347 C345 1.316 . S
N347 C346 1.375 . S
N348 C345 1.347 . S
N348 C349 1.373 . S
C349 C346 1.350 . S
C349 N348 1.373 . S
C349 H370 0.933 . S
H350 C345 0.931 . S
H351 C346 0.930 1_565 S
C352 O359 1.259 . S
C352 O360 1.258 . S
N353 Co344 2.052 1_565 S
N353 C354 1.352 . S
N353 C355 1.346 1_565 S
C354 N353 1.352 . S
C354 N356 1.347 . S
C354 H365 0.931 . S
C355 N353 1.346 1_545 S
C355 C357 1.350 . S
C355 H364 0.930 . S
N356 C354 1.347 . S
N356 C357 1.373 1_565 S
C357 C355 1.350 . S
C357 N356 1.373 1_545 S
C357 H371 0.931 . S
C358 O361 1.256 . S
C358 O362 1.255 . S
O359 Co342 2.021 . S
O359 C352 1.259 . S
O360 Co344 2.117 . S
O360 C352 1.258 . S
O361 Co344 2.020 . S
O361 C358 1.256 . S
O362 Co342 2.062 . S
O362 C358 1.255 . S
O363 C343 1.259 . S
O363 Co344 2.021 1_565 S
H364 C355 0.930 . S
H365 C354 0.931 . S
O366 Co342 2.117 1_565 S
O366 C343 1.258 . S
O367 Co342 2.020 . S
O367 C369 1.256 . S
O368 Co344 2.062 1_565 S
O368 C369 1.255 1_565 S
C369 O367 1.256 . S
C369 O368 1.255 1_545 S
H370 C349 0.933 . S
H371 C357 0.931 . S
Co372 N377 2.057 . S
Co372 O389 2.021 . S
Co372 O392 2.062 . S
Co372 O396 2.117 . S
Co372 O397 2.020 . S
C373 O393 1.259 . S
C373 O396 1.258 . S
Co374 N383 2.057 . S
Co374 O390 2.117 . S
Co374 O391 2.020 . S
Co374 O393 2.021 . S
Co374 O398 2.062 . S
C375 N377 1.316 . S
C375 N378 1.347 . S
C375 H380 0.931 . S
C376 N377 1.375 . S
C376 C379 1.350 . S
C376 H381 0.930 . S
N377 Co372 2.057 . S
N377 C375 1.316 . S
N377 C376 1.375 . S
N378 C375 1.347 . S
N378 C379 1.373 . S
C379 C376 1.350 . S
C379 N378 1.373 . S
C379 H400 0.931 . S
H380 C375 0.931 . S
H381 C376 0.930 . S
C382 O389 1.259 . S
C382 O390 1.258 . S
N383 Co374 2.057 . S
N383 C384 1.316 . S
N383 C385 1.375 . S
C384 N383 1.316 . S
C384 N386 1.347 . S
C384 H395 0.931 . S
C385 N383 1.375 . S
C385 C387 1.350 . S
C385 H394 0.930 . S
N386 C384 1.347 . S
N386 C387 1.373 . S
C387 C385 1.350 . S
C387 N386 1.373 . S
C387 H401 0.931 . S
C388 O391 1.256 . S
C388 O392 1.255 . S
O389 Co372 2.021 . S
O389 C382 1.259 . S
O390 Co374 2.117 . S
O390 C382 1.258 . S
O391 Co374 2.020 . S
O391 C388 1.256 . S
O392 Co372 2.062 . S
O392 C388 1.255 . S
O393 C373 1.259 . S
O393 Co374 2.021 . S
H394 C385 0.930 . S
H395 C384 0.931 . S
O396 Co372 2.117 . S
O396 C373 1.258 . S
O397 Co372 2.020 . S
O397 C399 1.256 . S
O398 Co374 2.062 . S
O398 C399 1.255 . S
C399 O397 1.256 . S
C399 O398 1.255 . S
H400 C379 0.931 . S
H401 C387 0.931 . S
Co402 N407 2.057 . S
Co402 O419 2.021 1_455 S
Co402 O422 2.062 1_455 S
Co402 O426 2.117 . S
Co402 O427 2.020 . S
C403 O423 1.259 . S
C403 O426 1.258 . S
Co404 N413 2.057 . S
Co404 O420 2.117 . S
Co404 O421 2.020 . S
Co404 O423 2.021 1_655 S
Co404 O428 2.062 1_655 S
C405 N407 1.316 . S
C405 N408 1.347 . S
C405 H410 0.931 1_455 S
C406 N407 1.375 . S
C406 C409 1.350 . S
C406 H411 0.930 . S
N407 Co402 2.057 . S
N407 C405 1.316 . S
N407 C406 1.375 . S
N408 C405 1.347 . S
N408 C409 1.373 . S
C409 C406 1.350 . S
C409 N408 1.373 . S
C409 H430 0.931 . S
H410 C405 0.931 1_655 S
H411 C406 0.930 . S
C412 O419 1.259 . S
C412 O420 1.258 . S
N413 Co404 2.057 . S
N413 C414 1.316 . S
N413 C415 1.375 . S
C414 N413 1.316 . S
C414 N416 1.347 . S
C414 H425 0.931 1_655 S
C415 N413 1.375 . S
C415 C417 1.350 . S
C415 H424 0.930 . S
N416 C414 1.347 . S
N416 C417 1.373 . S
C417 C415 1.350 . S
C417 N416 1.373 . S
C417 H431 0.931 . S
C418 O421 1.256 . S
C418 O422 1.255 . S
O419 Co402 2.021 1_655 S
O419 C412 1.259 . S
O420 Co404 2.117 . S
O420 C412 1.258 . S
O421 Co404 2.020 . S
O421 C418 1.256 . S
O422 Co402 2.062 1_655 S
O422 C418 1.255 . S
O423 C403 1.259 . S
O423 Co404 2.021 1_455 S
H424 C415 0.930 . S
H425 C414 0.931 1_455 S
O426 Co402 2.117 . S
O426 C403 1.258 . S
O427 Co402 2.020 . S
O427 C429 1.256 . S
O428 Co404 2.062 1_455 S
O428 C429 1.255 . S
C429 O427 1.256 . S
C429 O428 1.255 . S
H430 C409 0.931 . S
H431 C417 0.931 . S
H432 C444 0.930 . S
H433 C446 0.930 . S
H434 C447 0.930 . S
H435 C451 0.959 . S
H436 C451 0.959 . S
H437 C451 0.961 . S
H438 C452 0.960 . S
H439 C452 0.961 . S
H440 C452 0.959 . S
H441 C455 0.942 . S
H442 C456 0.931 1_565 S
H443 C458 0.930 . S
C444 H432 0.930 . S
C444 C445 1.399 . S
C444 C449 1.399 . S
C445 C444 1.399 . S
C445 C446 1.376 . S
C446 H433 0.930 . S
C446 C445 1.376 . S
C446 C447 1.388 . S
C447 H434 0.930 . S
C447 C446 1.388 . S
C447 C448 1.390 . S
C448 C447 1.390 . S
C448 C449 1.394 . S
C448 C454 1.465 . S
C449 C444 1.399 . S
C449 C448 1.394 . S
C449 C450 1.516 . S
C450 C449 1.516 . S
C450 C451 1.502 . S
C450 C452 1.561 . S
C450 C453 1.526 . S
C451 H435 0.959 . S
C451 H436 0.959 . S
C451 H437 0.961 . S
C451 C450 1.502 . S
C452 H438 0.960 . S
C452 H439 0.961 . S
C452 H440 0.959 . S
C452 C450 1.561 . S
C453 C450 1.526 . S
C453 C454 1.396 . S
C453 C458 1.390 . S
C454 C448 1.465 . S
C454 C453 1.396 . S
C454 C455 1.399 . S
C455 H441 0.942 . S
C455 C454 1.399 . S
C455 C456 1.385 . S
C456 H442 0.931 1_545 S
C456 C455 1.385 . S
C456 C457 1.389 . S
C457 C456 1.389 . S
C457 C458 1.387 . S
C458 H443 0.930 . S
C458 C453 1.390 . S
C458 C457 1.387 . S
H459 C471 0.930 . S
H460 C473 0.930 . S
H461 C474 0.930 . S
H462 C478 0.959 . S
H463 C478 0.959 . S
H464 C478 0.961 . S
H465 C479 0.960 . S
H466 C479 0.961 . S
H467 C479 0.959 . S
H468 C482 0.929 . S
H469 C483 0.931 . S
H470 C485 0.930 . S
C471 H459 0.930 . S
C471 C472 1.399 . S
C471 C476 1.399 . S
C472 C471 1.399 . S
C472 C473 1.376 . S
C473 H460 0.930 . S
C473 C472 1.376 . S
C473 C474 1.388 . S
C474 H461 0.930 . S
C474 C473 1.388 . S
C474 C475 1.390 . S
C475 C474 1.390 . S
C475 C476 1.394 . S
C475 C481 1.465 . S
C476 C471 1.399 . S
C476 C475 1.394 . S
C476 C477 1.516 . S
C477 C476 1.516 . S
C477 C478 1.502 . S
C477 C479 1.561 . S
C477 C480 1.526 . S
C478 H462 0.959 . S
C478 H463 0.959 . S
C478 H464 0.961 . S
C478 C477 1.502 . S
C479 H465 0.960 . S
C479 H466 0.961 . S
C479 H467 0.959 . S
C479 C477 1.561 . S
C480 C477 1.526 . S
C480 C481 1.396 . S
C480 C485 1.390 . S
C481 C475 1.465 . S
C481 C480 1.396 . S
C481 C482 1.399 . S
C482 H468 0.929 . S
C482 C481 1.399 . S
C482 C483 1.385 . S
C483 H469 0.931 . S
C483 C482 1.385 . S
C483 C484 1.389 . S
C484 C483 1.389 . S
C484 C485 1.387 . S
C485 H470 0.930 . S
C485 C480 1.390 . S
C485 C484 1.387 . S
H486 C498 0.930 . S
H487 C500 0.930 . S
H488 C501 0.930 . S
H489 C505 0.959 . S
H490 C505 0.959 . S
H491 C505 0.961 . S
H492 C506 0.960 . S
H493 C506 0.961 . S
H494 C506 0.959 . S
H495 C509 0.929 . S
H496 C510 0.931 . S
H497 C512 0.930 . S
C498 H486 0.930 . S
C498 C499 1.399 . S
C498 C503 1.399 . S
C499 C498 1.399 . S
C499 C500 1.376 . S
C500 H487 0.930 . S
C500 C499 1.376 . S
C500 C501 1.388 . S
C501 H488 0.930 . S
C501 C500 1.388 . S
C501 C502 1.390 . S
C502 C501 1.390 . S
C502 C503 1.394 . S
C502 C508 1.465 . S
C503 C498 1.399 . S
C503 C502 1.394 . S
C503 C504 1.516 . S
C504 C503 1.516 . S
C504 C505 1.502 . S
C504 C506 1.561 . S
C504 C507 1.526 . S
C505 H489 0.959 . S
C505 H490 0.959 . S
C505 H491 0.961 . S
C505 C504 1.502 . S
C506 H492 0.960 . S
C506 H493 0.961 . S
C506 H494 0.959 . S
C506 C504 1.561 . S
C507 C504 1.526 . S
C507 C508 1.396 . S
C507 C512 1.390 . S
C508 C502 1.465 . S
C508 C507 1.396 . S
C508 C509 1.399 . S
C509 H495 0.929 . S
C509 C508 1.399 . S
C509 C510 1.385 . S
C510 H496 0.931 . S
C510 C509 1.385 . S
C510 C511 1.389 . S
C511 C510 1.389 . S
C511 C512 1.387 . S
C512 H497 0.930 . S
C512 C507 1.390 . S
C512 C511 1.387 . S
H513 C525 0.930 . S
H514 C527 0.930 . S
H515 C528 0.930 . S
H516 C532 0.959 . S
H517 C532 0.959 . S
H518 C532 0.961 . S
H519 C533 0.960 . S
H520 C533 0.961 . S
H521 C533 0.959 . S
H522 C536 0.929 . S
H523 C537 0.931 . S
H524 C539 0.930 . S
C525 H513 0.930 . S
C525 C526 1.399 1_455 S
C525 C530 1.399 1_455 S
C526 C525 1.399 1_655 S
C526 C527 1.376 . S
C527 H514 0.930 . S
C527 C526 1.376 . S
C527 C528 1.388 . S
C528 H515 0.930 . S
C528 C527 1.388 . S
C528 C529 1.390 . S
C529 C528 1.390 . S
C529 C530 1.394 . S
C529 C535 1.465 . S
C530 C525 1.399 1_655 S
C530 C529 1.394 . S
C530 C531 1.516 . S
C531 C530 1.516 . S
C531 C532 1.505 1_655 S
C531 C533 1.559 . S
C531 C534 1.525 . S
C532 H516 0.959 . S
C532 H517 0.959 . S
C532 H518 0.961 . S
C532 C531 1.505 1_455 S
C533 H519 0.960 . S
C533 H520 0.961 . S
C533 H521 0.959 . S
C533 C531 1.559 . S
C534 C531 1.525 . S
C534 C535 1.396 . S
C534 C539 1.390 . S
C535 C529 1.465 . S
C535 C534 1.396 . S
C535 C536 1.399 . S
C536 H522 0.929 . S
C536 C535 1.399 . S
C536 C537 1.385 . S
C537 H523 0.931 . S
C537 C536 1.385 . S
C537 C538 1.389 . S
C538 C537 1.389 . S
C538 C539 1.387 . S
C539 H524 0.930 . S
C539 C534 1.390 . S
C539 C538 1.387 . S
H540 C552 0.930 . S
H541 C554 0.930 1_554 S
H542 C555 0.930 . S
H543 C559 0.959 . S
H544 C559 0.959 . S
H545 C559 0.961 . S
H546 C560 0.960 . S
H547 C560 0.961 . S
H548 C560 0.959 . S
H549 C563 0.929 . S
H550 C564 0.931 . S
H551 C566 0.930 . S
C552 H540 0.930 . S
C552 C553 1.399 1_556 S
C552 C557 1.399 . S
C553 C552 1.399 1_554 S
C553 C554 1.376 1_554 S
C554 H541 0.930 1_556 S
C554 C553 1.376 1_556 S
C554 C555 1.388 . S
C555 H542 0.930 . S
C555 C554 1.388 . S
C555 C556 1.390 . S
C556 C555 1.390 . S
C556 C557 1.394 . S
C556 C562 1.465 . S
C557 C552 1.399 . S
C557 C556 1.394 . S
C557 C558 1.516 . S
C558 C557 1.516 . S
C558 C559 1.502 . S
C558 C560 1.561 . S
C558 C561 1.526 . S
C559 H543 0.959 . S
C559 H544 0.959 . S
C559 H545 0.961 . S
C559 C558 1.502 . S
C560 H546 0.960 . S
C560 H547 0.961 . S
C560 H548 0.959 . S
C560 C558 1.561 . S
C561 C558 1.526 . S
C561 C562 1.396 . S
C561 C566 1.390 . S
C562 C556 1.465 . S
C562 C561 1.396 . S
C562 C563 1.399 1_565 S
C563 H549 0.929 . S
C563 C562 1.399 1_545 S
C563 C564 1.385 . S
C564 H550 0.931 . S
C564 C563 1.385 . S
C564 C565 1.389 1_545 S
C565 C564 1.389 1_565 S
C565 C566 1.387 . S
C566 H551 0.930 . S
C566 C561 1.390 . S
C566 C565 1.387 . S
H567 C579 0.930 . S
H568 C581 0.930 . S
H569 C582 0.930 . S
H570 C586 0.959 . S
H571 C586 0.959 . S
H572 C586 0.961 . S
H573 C587 0.960 . S
H574 C587 0.961 . S
H575 C587 0.959 1_556 S
H576 C590 0.929 . S
H577 C591 0.931 . S
H578 C593 0.930 . S
C579 H567 0.930 . S
C579 C580 1.399 . S
C579 C584 1.399 1_554 S
C580 C579 1.399 . S
C580 C581 1.376 1_554 S
C581 H568 0.930 . S
C581 C580 1.376 1_556 S
C581 C582 1.388 . S
C582 H569 0.930 . S
C582 C581 1.388 . S
C582 C583 1.390 . S
C583 C582 1.390 . S
C583 C584 1.394 . S
C583 C589 1.465 . S
C584 C579 1.399 1_556 S
C584 C583 1.394 . S
C584 C585 1.516 . S
C585 C584 1.516 . S
C585 C586 1.502 1_556 S
C585 C587 1.561 1_556 S
C585 C588 1.526 . S
C586 H570 0.959 . S
C586 H571 0.959 . S
C586 H572 0.961 . S
C586 C585 1.502 1_554 S
C587 H573 0.960 . S
C587 H574 0.961 . S
C587 H575 0.959 1_554 S
C587 C585 1.561 1_554 S
C588 C585 1.526 . S
C588 C589 1.396 . S
C588 C593 1.390 . S
C589 C583 1.465 . S
C589 C588 1.396 . S
C589 C590 1.399 . S
C590 H576 0.929 . S
C590 C589 1.399 . S
C590 C591 1.385 . S
C591 H577 0.931 . S
C591 C590 1.385 . S
C591 C592 1.389 . S
C592 C591 1.389 . S
C592 C593 1.387 . S
C593 H578 0.930 . S
C593 C588 1.390 . S
C593 C592 1.387 . S
H594 C606 0.930 . S
H595 C608 0.930 . S
H596 C609 0.930 . S
H597 C613 0.959 . S
H598 C613 0.959 . S
H599 C613 0.961 . S
H600 C614 0.960 . S
H601 C614 0.961 . S
H602 C614 0.959 . S
H603 C617 0.929 1_554 S
H604 C618 0.931 . S
H605 C620 0.930 . S
C606 H594 0.930 . S
C606 C607 1.399 1_556 S
C606 C611 1.399 . S
C607 C606 1.399 1_554 S
C607 C608 1.376 . S
C608 H595 0.930 . S
C608 C607 1.376 . S
C608 C609 1.388 . S
C609 H596 0.930 . S
C609 C608 1.388 . S
C609 C610 1.390 1_554 S
C610 C609 1.390 1_556 S
C610 C611 1.394 . S
C610 C616 1.465 . S
C611 C606 1.399 . S
C611 C610 1.394 . S
C611 C612 1.516 . S
C612 C611 1.516 . S
C612 C613 1.502 . S
C612 C614 1.561 . S
C612 C615 1.526 . S
C613 H597 0.959 . S
C613 H598 0.959 . S
C613 H599 0.961 . S
C613 C612 1.502 . S
C614 H600 0.960 . S
C614 H601 0.961 . S
C614 H602 0.959 . S
C614 C612 1.561 . S
C615 C612 1.526 . S
C615 C616 1.396 . S
C615 C620 1.390 . S
C616 C610 1.465 . S
C616 C615 1.396 . S
C616 C617 1.399 . S
C617 H603 0.929 1_556 S
C617 C616 1.399 . S
C617 C618 1.385 . S
C618 H604 0.931 . S
C618 C617 1.385 . S
C618 C619 1.389 . S
C619 C618 1.389 . S
C619 C620 1.387 . S
C620 H605 0.930 . S
C620 C615 1.390 . S
C620 C619 1.387 . S
H621 C633 0.930 . S
H622 C635 0.930 . S
H623 C636 0.930 . S
H624 C640 0.959 . S
H625 C640 0.959 . S
H626 C640 0.961 . S
H627 C641 0.960 . S
H628 C641 0.961 . S
H629 C641 0.959 . S
H630 C644 0.929 . S
H631 C645 0.931 . S
H632 C647 0.930 1_655 S
C633 H621 0.930 . S
C633 C634 1.399 1_656 S
C633 C638 1.396 1_655 S
C634 C633 1.399 1_454 S
C634 C635 1.376 . S
C635 H622 0.930 . S
C635 C634 1.376 . S
C635 C636 1.388 . S
C636 H623 0.930 . S
C636 C635 1.388 . S
C636 C637 1.390 1_554 S
C637 C636 1.390 1_556 S
C637 C638 1.403 . S
C637 C643 1.465 . S
C638 C633 1.396 1_455 S
C638 C637 1.403 . S
C638 C639 1.512 1_455 S
C639 C638 1.512 1_655 S
C639 C640 1.502 . S
C639 C641 1.561 1_655 S
C639 C642 1.526 1_655 S
C640 H624 0.959 . S
C640 H625 0.959 . S
C640 H626 0.961 . S
C640 C639 1.502 . S
C641 H627 0.960 . S
C641 H628 0.961 . S
C641 H629 0.959 . S
C641 C639 1.561 1_455 S
C642 C639 1.526 1_455 S
C642 C643 1.396 . S
C642 C647 1.390 . S
C643 C637 1.465 . S
C643 C642 1.396 . S
C643 C644 1.399 . S
C644 H630 0.929 . S
C644 C643 1.399 . S
C644 C645 1.385 . S
C645 H631 0.931 . S
C645 C644 1.385 . S
C645 C646 1.389 . S
C646 C645 1.389 . S
C646 C647 1.387 . S
C647 H632 0.930 1_455 S
C647 C642 1.390 . S
C647 C646 1.387 . S
H648 C660 0.930 . S
H649 C662 0.930 . S
H650 C663 0.930 . S
H651 C667 0.959 . S
H652 C667 0.959 . S
H653 C667 0.961 . S
H654 C668 0.960 . S
H655 C668 0.961 . S
H656 C668 0.959 . S
H657 C671 0.929 . S
H658 C672 0.931 . S
H659 C674 0.930 . S
C660 H648 0.930 . S
C660 C661 1.399 . S
C660 C665 1.399 . S
C661 C660 1.399 . S
C661 C662 1.376 1_455 S
C662 H649 0.930 . S
C662 C661 1.376 1_655 S
C662 C663 1.388 . S
C663 H650 0.930 . S
C663 C662 1.388 . S
C663 C664 1.390 . S
C664 C663 1.390 . S
C664 C665 1.394 1_655 S
C664 C670 1.465 . S
C665 C660 1.399 . S
C665 C664 1.394 1_455 S
C665 C666 1.516 . S
C666 C665 1.516 . S
C666 C667 1.502 . S
C666 C668 1.561 . S
C666 C669 1.526 . S
C667 H651 0.959 . S
C667 H652 0.959 . S
C667 H653 0.961 . S
C667 C666 1.502 . S
C668 H654 0.960 . S
C668 H655 0.961 . S
C668 H656 0.959 . S
C668 C666 1.561 . S
C669 C666 1.526 . S
C669 C670 1.396 1_455 S
C669 C674 1.390 . S
C670 C664 1.465 . S
C670 C669 1.396 1_655 S
C670 C671 1.399 . S
C671 H657 0.929 . S
C671 C670 1.399 . S
C671 C672 1.385 . S
C672 H658 0.931 . S
C672 C671 1.385 . S
C672 C673 1.389 . S
C673 C672 1.389 . S
C673 C674 1.387 1_655 S
C674 H659 0.930 . S
C674 C669 1.390 . S
C674 C673 1.387 1_455 S
H675 C687 0.930 . S
H676 C689 0.930 . S
H677 C690 0.930 . S
H678 C694 0.959 . S
H679 C694 0.959 . S
H680 C694 0.961 . S
H681 C695 0.960 . S
H682 C695 0.961 . S
H683 C695 0.959 . S
H684 C698 0.929 . S
H685 C699 0.931 . S
H686 C701 0.930 . S
C687 H675 0.930 . S
C687 C688 1.399 . S
C687 C692 1.399 . S
C688 C687 1.399 . S
C688 C689 1.376 . S
C689 H676 0.930 . S
C689 C688 1.376 . S
C689 C690 1.388 . S
C690 H677 0.930 . S
C690 C689 1.388 . S
C690 C691 1.390 . S
C691 C690 1.390 . S
C691 C692 1.394 . S
C691 C697 1.465 . S
C692 C687 1.399 . S
C692 C691 1.394 . S
C692 C693 1.516 . S
C693 C692 1.516 . S
C693 C694 1.502 . S
C693 C695 1.561 . S
C693 C696 1.526 . S
C694 H678 0.959 . S
C694 H679 0.959 . S
C694 H680 0.961 . S
C694 C693 1.502 . S
C695 H681 0.960 . S
C695 H682 0.961 . S
C695 H683 0.959 . S
C695 C693 1.561 . S
C696 C693 1.526 . S
C696 C697 1.396 . S
C696 C701 1.390 . S
C697 C691 1.465 . S
C697 C696 1.396 . S
C697 C698 1.399 . S
C698 H684 0.929 . S
C698 C697 1.399 . S
C698 C699 1.385 . S
C699 H685 0.931 . S
C699 C698 1.385 . S
C699 C700 1.389 . S
C700 C699 1.389 . S
C700 C701 1.387 . S
C701 H686 0.930 . S
C701 C696 1.390 . S
C701 C700 1.387 . S
H702 C714 0.930 . S
H703 C716 0.930 . S
H704 C717 0.930 . S
H705 C721 0.959 . S
H706 C721 0.959 . S
H707 C721 0.961 . S
H708 C722 0.960 . S
H709 C722 0.961 . S
H710 C722 0.959 . S
H711 C725 0.929 . S
H712 C726 0.931 . S
H713 C728 0.930 . S
C714 H702 0.930 . S
C714 C715 1.399 . S
C714 C719 1.399 . S
C715 C714 1.399 . S
C715 C716 1.376 . S
C716 H703 0.930 . S
C716 C715 1.376 . S
C716 C717 1.388 . S
C717 H704 0.930 . S
C717 C716 1.388 . S
C717 C718 1.390 . S
C718 C717 1.390 . S
C718 C719 1.394 . S
C718 C724 1.465 . S
C719 C714 1.399 . S
C719 C718 1.394 . S
C719 C720 1.516 . S
C720 C719 1.516 . S
C720 C721 1.502 . S
C720 C722 1.561 . S
C720 C723 1.526 . S
C721 H705 0.959 . S
C721 H706 0.959 . S
C721 H707 0.961 . S
C721 C720 1.502 . S
C722 H708 0.960 . S
C722 H709 0.961 . S
C722 H710 0.959 . S
C722 C720 1.561 . S
C723 C720 1.526 . S
C723 C724 1.396 . S
C723 C728 1.390 . S
C724 C718 1.465 . S
C724 C723 1.396 . S
C724 C725 1.399 . S
C725 H711 0.929 . S
C725 C724 1.399 . S
C725 C726 1.385 . S
C726 H712 0.931 . S
C726 C725 1.385 . S
C726 C727 1.389 . S
C727 C726 1.389 . S
C727 C728 1.387 . S
C728 H713 0.930 . S
C728 C723 1.390 . S
C728 C727 1.387 . S
H729 C741 0.930 . S
H730 C743 0.930 . S
H731 C744 0.930 . S
H732 C748 0.959 . S
H733 C748 0.959 . S
H734 C748 0.961 . S
H735 C749 0.960 . S
H736 C749 0.961 . S
H737 C749 0.959 . S
H738 C752 0.929 . S
H739 C753 0.931 . S
H740 C755 0.930 . S
C741 H729 0.930 . S
C741 C742 1.399 . S
C741 C746 1.399 . S
C742 C741 1.399 . S
C742 C743 1.376 . S
C743 H730 0.930 . S
C743 C742 1.376 . S
C743 C744 1.388 . S
C744 H731 0.930 . S
C744 C743 1.388 . S
C744 C745 1.390 . S
C745 C744 1.390 . S
C745 C746 1.394 . S
C745 C751 1.465 . S
C746 C741 1.399 . S
C746 C745 1.394 . S
C746 C747 1.516 . S
C747 C746 1.516 . S
C747 C748 1.502 . S
C747 C749 1.561 . S
C747 C750 1.526 . S
C748 H732 0.959 . S
C748 H733 0.959 . S
C748 H734 0.961 . S
C748 C747 1.502 . S
C749 H735 0.960 . S
C749 H736 0.961 . S
C749 H737 0.959 . S
C749 C747 1.561 . S
C750 C747 1.526 . S
C750 C751 1.396 . S
C750 C755 1.390 . S
C751 C745 1.465 . S
C751 C750 1.396 . S
C751 C752 1.399 . S
C752 H738 0.929 . S
C752 C751 1.399 . S
C752 C753 1.385 . S
C753 H739 0.931 . S
C753 C752 1.385 . S
C753 C754 1.389 . S
C754 C753 1.389 . S
C754 C755 1.387 . S
C755 H740 0.930 . S
C755 C750 1.390 . S
C755 C754 1.387 . S
H756 C768 0.930 . S
H757 C770 0.930 . S
H758 C771 0.930 . S
H759 C775 0.959 . S
H760 C775 0.959 . S
H761 C775 0.961 . S
H762 C776 0.960 . S
H763 C776 0.961 . S
H764 C776 0.959 1_655 S
H765 C779 0.929 . S
H766 C780 0.931 . S
H767 C782 0.930 . S
C768 H756 0.930 . S
C768 C769 1.399 1_455 S
C768 C773 1.399 . S
C769 C768 1.399 1_655 S
C769 C770 1.376 . S
C770 H757 0.930 . S
C770 C769 1.376 . S
C770 C771 1.388 . S
C771 H758 0.930 . S
C771 C770 1.388 . S
C771 C772 1.390 . S
C772 C771 1.390 . S
C772 C773 1.394 1_655 S
C772 C778 1.470 . S
C773 C768 1.399 . S
C773 C772 1.394 1_455 S
C773 C774 1.516 . S
C774 C773 1.516 . S
C774 C775 1.502 . S
C774 C776 1.561 . S
C774 C777 1.526 . S
C775 H759 0.959 . S
C775 H760 0.959 . S
C775 H761 0.961 . S
C775 C774 1.502 . S
C776 H762 0.960 . S
C776 H763 0.961 . S
C776 H764 0.959 1_455 S
C776 C774 1.561 . S
C777 C774 1.526 . S
C777 C778 1.384 1_455 S
C777 C782 1.390 . S
C778 C772 1.470 . S
C778 C777 1.384 1_655 S
C778 C779 1.404 . S
C779 H765 0.929 . S
C779 C778 1.404 . S
C779 C780 1.385 . S
C780 H766 0.931 . S
C780 C779 1.385 . S
C780 C781 1.389 1_655 S
C781 C780 1.389 1_455 S
C781 C782 1.387 . S
C782 H767 0.930 . S
C782 C777 1.390 . S
C782 C781 1.387 . S
H783 C795 0.930 . S
H784 C797 0.930 . S
H785 C798 0.930 . S
H786 C802 0.959 . S
H787 C802 0.959 . S
H788 C802 0.961 . S
H789 C803 0.960 . S
H790 C803 0.961 . S
H791 C803 0.959 . S
H792 C806 0.929 . S
H793 C807 0.931 . S
H794 C809 0.930 . S
C795 H783 0.930 . S
C795 C796 1.399 . S
C795 C800 1.399 . S
C796 C795 1.399 . S
C796 C797 1.376 . S
C797 H784 0.930 . S
C797 C796 1.376 . S
C797 C798 1.388 . S
C798 H785 0.930 . S
C798 C797 1.388 . S
C798 C799 1.390 . S
C799 C798 1.390 . S
C799 C800 1.394 . S
C799 C805 1.465 . S
C800 C795 1.399 . S
C800 C799 1.394 . S
C800 C801 1.516 . S
C801 C800 1.516 . S
C801 C802 1.502 . S
C801 C803 1.561 . S
C801 C804 1.526 . S
C802 H786 0.959 . S
C802 H787 0.959 . S
C802 H788 0.961 . S
C802 C801 1.502 . S
C803 H789 0.960 . S
C803 H790 0.961 . S
C803 H791 0.959 . S
C803 C801 1.561 . S
C804 C801 1.526 . S
C804 C805 1.396 . S
C804 C809 1.390 . S
C805 C799 1.465 . S
C805 C804 1.396 . S
C805 C806 1.399 1_565 S
C806 H792 0.929 . S
C806 C805 1.399 1_545 S
C806 C807 1.385 . S
C807 H793 0.931 . S
C807 C806 1.385 . S
C807 C808 1.389 . S
C808 C807 1.389 . S
C808 C809 1.387 1_545 S
C809 H794 0.930 . S
C809 C804 1.390 . S
C809 C808 1.387 1_565 S
H810 C822 0.930 1_554 S
H811 C824 0.930 . S
H812 C825 0.930 . S
H813 C829 0.959 . S
H814 C829 0.959 1_554 S
H815 C829 0.961 1_554 S
H816 C830 0.960 1_554 S
H817 C830 0.961 1_554 S
H818 C830 0.959 . S
H819 C833 0.929 . S
H820 C834 0.931 . S
H821 C836 0.930 . S
C822 H810 0.930 1_556 S
C822 C823 1.399 . S
C822 C827 1.399 . S
C823 C822 1.399 . S
C823 C824 1.376 . S
C824 H811 0.930 . S
C824 C823 1.376 . S
C824 C825 1.388 . S
C825 H812 0.930 . S
C825 C824 1.388 . S
C825 C826 1.390 . S
C826 C825 1.390 . S
C826 C827 1.394 . S
C826 C832 1.465 . S
C827 C822 1.399 . S
C827 C826 1.394 . S
C827 C828 1.516 . S
C828 C827 1.516 . S
C828 C829 1.502 . S
C828 C830 1.561 . S
C828 C831 1.526 . S
C829 H813 0.959 . S
C829 H814 0.959 1_556 S
C829 H815 0.961 1_556 S
C829 C828 1.502 . S
C830 H816 0.960 1_556 S
C830 H817 0.961 1_556 S
C830 H818 0.959 . S
C830 C828 1.561 . S
C831 C828 1.526 . S
C831 C832 1.396 . S
C831 C836 1.390 . S
C832 C826 1.465 . S
C832 C831 1.396 . S
C832 C833 1.399 . S
C833 H819 0.929 . S
C833 C832 1.399 . S
C833 C834 1.385 . S
C834 H820 0.931 . S
C834 C833 1.385 . S
C834 C835 1.389 . S
C835 C834 1.389 . S
C835 C836 1.387 . S
C836 H821 0.930 . S
C836 C831 1.390 . S
C836 C835 1.387 . S
H837 C849 0.930 1_554 S
H838 C851 0.930 . S
H839 C852 0.930 . S
H840 C856 0.959 1_556 S
H841 C856 0.959 . S
H842 C856 0.961 . S
H843 C857 0.960 1_554 S
H844 C857 0.961 . S
H845 C857 0.959 . S
H846 C860 0.929 . S
H847 C861 0.931 . S
H848 C863 0.930 . S
C849 H837 0.930 1_556 S
C849 C850 1.399 . S
C849 C854 1.399 . S
C850 C849 1.399 . S
C850 C851 1.376 . S
C851 H838 0.930 . S
C851 C850 1.376 . S
C851 C852 1.388 . S
C852 H839 0.930 . S
C852 C851 1.388 . S
C852 C853 1.390 . S
C853 C852 1.390 . S
C853 C854 1.394 . S
C853 C859 1.465 . S
C854 C849 1.399 . S
C854 C853 1.394 . S
C854 C855 1.516 . S
C855 C854 1.516 . S
C855 C856 1.502 1_556 S
C855 C857 1.561 . S
C855 C858 1.526 . S
C856 H840 0.959 1_554 S
C856 H841 0.959 . S
C856 H842 0.961 . S
C856 C855 1.502 1_554 S
C857 H843 0.960 1_556 S
C857 H844 0.961 . S
C857 H845 0.959 . S
C857 C855 1.561 . S
C858 C855 1.526 . S
C858 C859 1.396 . S
C858 C863 1.390 . S
C859 C853 1.465 . S
C859 C858 1.396 . S
C859 C860 1.399 . S
C860 H846 0.929 . S
C860 C859 1.399 . S
C860 C861 1.385 . S
C861 H847 0.931 . S
C861 C860 1.385 . S
C861 C862 1.389 . S
C862 C861 1.389 . S
C862 C863 1.387 . S
C863 H848 0.930 . S
C863 C858 1.390 . S
C863 C862 1.387 . S
H864 C876 0.930 . S
H865 C878 0.930 . S
H866 C879 0.930 . S
H867 C883 0.959 1_554 S
H868 C883 0.959 . S
H869 C883 0.961 . S
H870 C884 0.960 . S
H871 C884 0.961 . S
H872 C884 0.959 . S
H873 C887 0.929 . S
H874 C888 0.931 . S
H875 C890 0.930 1_655 S
C876 H864 0.930 . S
C876 C877 1.399 1_655 S
C876 C881 1.395 1_655 S
C877 C876 1.399 1_455 S
C877 C878 1.376 . S
C878 H865 0.930 . S
C878 C877 1.376 . S
C878 C879 1.388 . S
C879 H866 0.930 . S
C879 C878 1.388 . S
C879 C880 1.390 . S
C880 C879 1.390 . S
C880 C881 1.407 . S
C880 C886 1.465 . S
C881 C876 1.395 1_455 S
C881 C880 1.407 . S
C881 C882 1.510 1_454 S
C882 C881 1.510 1_656 S
C882 C883 1.502 . S
C882 C884 1.561 1_655 S
C882 C885 1.526 1_656 S
C883 H867 0.959 1_556 S
C883 H868 0.959 . S
C883 H869 0.961 . S
C883 C882 1.502 . S
C884 H870 0.960 . S
C884 H871 0.961 . S
C884 H872 0.959 . S
C884 C882 1.561 1_455 S
C885 C882 1.526 1_454 S
C885 C886 1.396 . S
C885 C890 1.390 1_554 S
C886 C880 1.465 . S
C886 C885 1.396 . S
C886 C887 1.399 . S
C887 H873 0.929 . S
C887 C886 1.399 . S
C887 C888 1.385 . S
C888 H874 0.931 . S
C888 C887 1.385 . S
C888 C889 1.389 1_554 S
C889 C888 1.389 1_556 S
C889 C890 1.387 . S
C890 H875 0.930 1_455 S
C890 C885 1.390 1_556 S
C890 C889 1.387 . S
H891 C903 0.930 . S
H892 C905 0.930 . S
H893 C906 0.923 1_556 S
H894 C910 0.959 . S
H895 C910 0.959 . S
H896 C910 0.961 . S
H897 C911 0.960 . S
H898 C911 0.961 . S
H899 C911 0.959 . S
H900 C914 0.929 . S
H901 C915 0.931 . S
H902 C917 0.930 . S
C903 H891 0.930 . S
C903 C904 1.399 . S
C903 C908 1.399 . S
C904 C903 1.399 . S
C904 C905 1.376 . S
C905 H892 0.930 . S
C905 C904 1.376 . S
C905 C906 1.388 . S
C906 H893 0.923 1_554 S
C906 C905 1.388 . S
C906 C907 1.390 . S
C907 C906 1.390 . S
C907 C908 1.394 . S
C907 C913 1.465 . S
C908 C903 1.399 . S
C908 C907 1.394 . S
C908 C909 1.516 . S
C909 C908 1.516 . S
C909 C910 1.502 . S
C909 C911 1.561 . S
C909 C912 1.526 . S
C910 H894 0.959 . S
C910 H895 0.959 . S
C910 H896 0.961 . S
C910 C909 1.502 . S
C911 H897 0.960 . S
C911 H898 0.961 . S
C911 H899 0.959 . S
C911 C909 1.561 . S
C912 C909 1.526 . S
C912 C913 1.396 . S
C912 C917 1.390 . S
C913 C907 1.465 . S
C913 C912 1.396 . S
C913 C914 1.399 1_554 S
C914 H900 0.929 . S
C914 C913 1.399 1_556 S
C914 C915 1.385 . S
C915 H901 0.931 . S
C915 C914 1.385 . S
C915 C916 1.389 . S
C916 C915 1.389 . S
C916 C917 1.387 1_556 S
C917 H902 0.930 . S
C917 C912 1.390 . S
C917 C916 1.387 1_554 S
H918 C930 0.930 . S
H919 C932 0.930 . S
H920 C933 0.930 . S
H921 C937 0.959 1_554 S
H922 C937 0.959 . S
H923 C937 0.961 . S
H924 C938 0.960 . S
H925 C938 0.961 . S
H926 C938 0.959 . S
H927 C941 0.929 . S
H928 C942 0.931 . S
H929 C944 0.930 . S
C930 H918 0.930 . S
C930 C931 1.399 . S
C930 C935 1.399 . S
C931 C930 1.399 . S
C931 C932 1.376 . S
C932 H919 0.930 . S
C932 C931 1.376 . S
C932 C933 1.388 . S
C933 H920 0.930 . S
C933 C932 1.388 . S
C933 C934 1.390 . S
C934 C933 1.390 . S
C934 C935 1.394 . S
C934 C940 1.465 . S
C935 C930 1.399 . S
C935 C934 1.394 . S
C935 C936 1.516 1_554 S
C936 C935 1.516 1_556 S
C936 C937 1.502 . S
C936 C938 1.561 . S
C936 C939 1.526 . S
C937 H921 0.959 1_556 S
C937 H922 0.959 . S
C937 H923 0.961 . S
C937 C936 1.502 . S
C938 H924 0.960 . S
C938 H925 0.961 . S
C938 H926 0.959 . S
C938 C936 1.561 . S
C939 C936 1.526 . S
C939 C940 1.396 1_556 S
C939 C944 1.390 . S
C940 C934 1.465 . S
C940 C939 1.396 1_554 S
C940 C941 1.399 . S
C941 H927 0.929 . S
C941 C940 1.399 . S
C941 C942 1.385 1_554 S
C942 H928 0.931 . S
C942 C941 1.385 1_556 S
C942 C943 1.389 . S
C943 C942 1.389 . S
C943 C944 1.387 . S
C944 H929 0.930 . S
C944 C939 1.390 . S
C944 C943 1.387 . S
H945 C957 0.930 . S
H946 C959 0.930 . S
H947 C960 0.930 1_556 S
H948 C964 0.959 . S
H949 C964 0.959 . S
H950 C964 0.961 . S
H951 C965 0.960 . S
H952 C965 0.961 . S
H953 C965 0.959 . S
H954 C968 0.929 . S
H955 C969 0.931 . S
H956 C971 0.930 . S
C957 H945 0.930 . S
C957 C958 1.399 . S
C957 C962 1.399 . S
C958 C957 1.399 . S
C958 C959 1.376 . S
C959 H946 0.930 . S
C959 C958 1.376 . S
C959 C960 1.388 . S
C960 H947 0.930 1_554 S
C960 C959 1.388 . S
C960 C961 1.390 . S
C961 C960 1.390 . S
C961 C962 1.394 . S
C961 C967 1.465 1_554 S
C962 C957 1.399 . S
C962 C961 1.394 . S
C962 C963 1.516 . S
C963 C962 1.516 . S
C963 C964 1.502 . S
C963 C965 1.561 . S
C963 C966 1.526 . S
C964 H948 0.959 . S
C964 H949 0.959 . S
C964 H950 0.961 . S
C964 C963 1.502 . S
C965 H951 0.960 . S
C965 H952 0.961 . S
C965 H953 0.959 . S
C965 C963 1.561 . S
C966 C963 1.526 . S
C966 C967 1.396 1_554 S
C966 C971 1.390 1_554 S
C967 C961 1.465 1_556 S
C967 C966 1.396 1_556 S
C967 C968 1.399 . S
C968 H954 0.929 . S
C968 C967 1.399 . S
C968 C969 1.385 . S
C969 H955 0.931 . S
C969 C968 1.385 . S
C969 C970 1.389 . S
C970 C969 1.389 . S
C970 C971 1.387 . S
C971 H956 0.930 . S
C971 C966 1.390 1_556 S
C971 C970 1.387 . S
H972 C984 0.930 1_455 S
H973 C986 0.930 . S
H974 C987 0.930 . S
H975 C991 0.959 . S
H976 C991 0.959 . S
H977 C991 0.961 . S
H978 C992 0.960 . S
H979 C992 0.961 . S
H980 C992 0.959 . S
H981 C995 0.929 . S
H982 C996 0.931 . S
H983 C998 0.930 . S
C984 H972 0.930 1_655 S
C984 C985 1.399 . S
C984 C989 1.399 . S
C985 C984 1.399 . S
C985 C986 1.376 . S
C986 H973 0.930 . S
C986 C985 1.376 . S
C986 C987 1.388 . S
C987 H974 0.930 . S
C987 C986 1.388 . S
C987 C988 1.390 . S
C988 C987 1.390 . S
C988 C989 1.394 . S
C988 C994 1.465 . S
C989 C984 1.399 . S
C989 C988 1.394 . S
C989 C990 1.516 . S
C990 C989 1.516 . S
C990 C991 1.502 1_655 S
C990 C992 1.561 . S
C990 C993 1.526 . S
C991 H975 0.959 . S
C991 H976 0.959 . S
C991 H977 0.961 . S
C991 C990 1.502 1_455 S
C992 H978 0.960 . S
C992 H979 0.961 . S
C992 H980 0.959 . S
C992 C990 1.561 . S
C993 C990 1.526 . S
C993 C994 1.396 . S
C993 C998 1.390 . S
C994 C988 1.465 . S
C994 C993 1.396 . S
C994 C995 1.399 . S
C995 H981 0.929 . S
C995 C994 1.399 . S
C995 C996 1.385 . S
C996 H982 0.931 . S
C996 C995 1.385 . S
C996 C997 1.389 . S
C997 C996 1.389 . S
C997 C998 1.387 . S
C998 H983 0.930 . S
C998 C993 1.390 . S
C998 C997 1.387 . S
H999 C1011 0.930 . S
H1000 C1013 0.930 . S
H1001 C1014 0.930 . S
H1002 C1018 0.959 1_565 S
H1003 C1018 0.959 . S
H1004 C1018 0.961 . S
H1005 C1019 0.960 . S
H1006 C1019 0.955 1_545 S
H1007 C1019 0.959 . S
H1008 C1022 0.929 . S
H1009 C1023 0.931 . S
H1010 C1025 0.930 . S
C1011 H999 0.930 . S
C1011 C1012 1.399 . S
C1011 C1016 1.399 . S
C1012 C1011 1.399 . S
C1012 C1013 1.376 . S
C1013 H1000 0.930 . S
C1013 C1012 1.376 . S
C1013 C1014 1.388 . S
C1014 H1001 0.930 . S
C1014 C1013 1.388 . S
C1014 C1015 1.390 . S
C1015 C1014 1.390 . S
C1015 C1016 1.394 . S
C1015 C1021 1.465 . S
C1016 C1011 1.399 . S
C1016 C1015 1.394 . S
C1016 C1017 1.516 . S
C1017 C1016 1.516 . S
C1017 C1018 1.502 1_565 S
C1017 C1019 1.561 . S
C1017 C1020 1.526 . S
C1018 H1002 0.959 1_545 S
C1018 H1003 0.959 . S
C1018 H1004 0.961 . S
C1018 C1017 1.502 1_545 S
C1019 H1005 0.960 . S
C1019 H1006 0.955 1_565 S
C1019 H1007 0.959 . S
C1019 C1017 1.561 . S
C1020 C1017 1.526 . S
C1020 C1021 1.396 . S
C1020 C1025 1.390 . S
C1021 C1015 1.465 . S
C1021 C1020 1.396 . S
C1021 C1022 1.399 . S
C1022 H1008 0.929 . S
C1022 C1021 1.399 . S
C1022 C1023 1.385 . S
C1023 H1009 0.931 . S
C1023 C1022 1.385 . S
C1023 C1024 1.389 . S
C1024 C1023 1.389 . S
C1024 C1025 1.387 . S
C1025 H1010 0.930 . S
C1025 C1020 1.390 . S
C1025 C1024 1.387 . S
H1026 C1038 0.930 . S
H1027 C1040 0.930 . S
H1028 C1041 0.930 . S
H1029 C1045 0.959 . S
H1030 C1045 0.959 . S
H1031 C1045 0.961 . S
H1032 C1046 0.960 . S
H1033 C1046 0.961 . S
H1034 C1046 0.959 . S
H1035 C1049 0.929 . S
H1036 C1050 0.931 . S
H1037 C1052 0.930 . S
C1038 H1026 0.930 . S
C1038 C1039 1.399 . S
C1038 C1043 1.399 . S
C1039 C1038 1.399 . S
C1039 C1040 1.376 . S
C1040 H1027 0.930 . S
C1040 C1039 1.376 . S
C1040 C1041 1.388 . S
C1041 H1028 0.930 . S
C1041 C1040 1.388 . S
C1041 C1042 1.390 . S
C1042 C1041 1.390 . S
C1042 C1043 1.394 . S
C1042 C1048 1.465 . S
C1043 C1038 1.399 . S
C1043 C1042 1.394 . S
C1043 C1044 1.516 . S
C1044 C1043 1.516 . S
C1044 C1045 1.502 . S
C1044 C1046 1.561 . S
C1044 C1047 1.526 . S
C1045 H1029 0.959 . S
C1045 H1030 0.959 . S
C1045 H1031 0.961 . S
C1045 C1044 1.502 . S
C1046 H1032 0.960 . S
C1046 H1033 0.961 . S
C1046 H1034 0.959 . S
C1046 C1044 1.561 . S
C1047 C1044 1.526 . S
C1047 C1048 1.396 . S
C1047 C1052 1.390 . S
C1048 C1042 1.465 . S
C1048 C1047 1.396 . S
C1048 C1049 1.399 . S
C1049 H1035 0.929 . S
C1049 C1048 1.399 . S
C1049 C1050 1.385 . S
C1050 H1036 0.931 . S
C1050 C1049 1.385 . S
C1050 C1051 1.389 . S
C1051 C1050 1.389 . S
C1051 C1052 1.387 . S
C1052 H1037 0.930 . S
C1052 C1047 1.390 . S
C1052 C1051 1.387 . S
H1053 C1065 0.930 . S
H1054 C1067 0.930 . S
H1055 C1068 0.930 . S
H1056 C1072 0.959 . S
H1057 C1072 0.959 . S
H1058 C1072 0.961 . S
H1059 C1073 0.960 . S
H1060 C1073 0.961 . S
H1061 C1073 0.959 . S
H1062 C1076 0.929 . S
H1063 C1077 0.931 . S
H1064 C1079 0.930 . S
C1065 H1053 0.930 . S
C1065 C1066 1.399 . S
C1065 C1070 1.399 . S
C1066 C1065 1.399 . S
C1066 C1067 1.376 . S
C1067 H1054 0.930 . S
C1067 C1066 1.376 . S
C1067 C1068 1.388 . S
C1068 H1055 0.930 . S
C1068 C1067 1.388 . S
C1068 C1069 1.390 . S
C1069 C1068 1.390 . S
C1069 C1070 1.394 . S
C1069 C1075 1.465 . S
C1070 C1065 1.399 . S
C1070 C1069 1.394 . S
C1070 C1071 1.516 . S
C1071 C1070 1.516 . S
C1071 C1072 1.502 . S
C1071 C1073 1.561 . S
C1071 C1074 1.526 . S
C1072 H1056 0.959 . S
C1072 H1057 0.959 . S
C1072 H1058 0.961 . S
C1072 C1071 1.502 . S
C1073 H1059 0.960 . S
C1073 H1060 0.961 . S
C1073 H1061 0.959 . S
C1073 C1071 1.561 . S
C1074 C1071 1.526 . S
C1074 C1075 1.396 . S
C1074 C1079 1.390 . S
C1075 C1069 1.465 . S
C1075 C1074 1.396 . S
C1075 C1076 1.399 . S
C1076 H1062 0.929 . S
C1076 C1075 1.399 . S
C1076 C1077 1.385 . S
C1077 H1063 0.931 . S
C1077 C1076 1.385 . S
C1077 C1078 1.389 . S
C1078 C1077 1.389 . S
C1078 C1079 1.387 . S
C1079 H1064 0.930 . S
C1079 C1074 1.390 . S
C1079 C1078 1.387 . S
C445 C255 1.799 . S
C457 C322 1.871 . S
C484 C352 1.754 . S
C472 C294 1.701 . S
C511 N386 1.785 . S
C499 C177 1.722 . S
C538 N416 1.397 . S
C526 C216 1.371 . S
C565 C313 1.879 1_565 S
C553 C99 1.809 . S
C580 C138 1.692 . S
C592 C343 1.753 . S
C607 C21 1.741 . S
C619 N378 1.720 . S
C634 C60 1.426 1_455 S
C646 N408 1.306 . S
C673 C328 0.572 . S
C661 C196 0.538 1_455 S
C700 C358 0.583 . S
C688 C235 0.804 . S
C727 C399 0.493 . S
C715 C289 0.585 . S
C742 C157 0.776 . S
C754 C429 0.526 . S
C769 C40 0.507 . S
C781 C339 0.481 . S
C808 C369 0.754 . S
C796 C79 0.562 . S
C835 C388 0.505 . S
C823 C133 0.640 . S
C850 C1 0.710 . S
C862 C418 0.571 . S
C877 C211 1.604 . S
C889 N318 1.711 . S
C904 C250 1.800 . S
C916 N348 1.834 . S
C943 C373 1.900 . S
C931 C274 1.796 . S
C970 C403 2.130 . S
C958 C172 2.033 . S
C985 C55 1.670 1_655 S
C997 N326 1.708 . S
C1024 N356 1.861 . S
C1012 C94 1.768 . S
C1051 C382 1.882 . S
C1039 C118 1.830 . S
C1066 C16 2.017 . S
C1078 C412 2.145 . S
