# Generated by pormake.
# Topology zzz, (3,6)-cn, num edge types: 1
# Building blocks:
#     Node 0, Type 0, BuildingBlock: ESEHIV_clean_linker_0, # of connection points: 3
#     Node 1, Type 0, BuildingBlock: ESEHIV_clean_linker_0, # of connection points: 3
#     Node 2, Type 0, BuildingBlock: ESEHIV_clean_linker_0, # of connection points: 3
#     Node 3, Type 0, BuildingBlock: ESEHIV_clean_linker_0, # of connection points: 3
#     Node 4, Type 0, BuildingBlock: ESEHIV_clean_linker_0, # of connection points: 3
#     Node 5, Type 0, BuildingBlock: ESEHIV_clean_linker_0, # of connection points: 3
#     Node 6, Type 0, BuildingBlock: ESEHIV_clean_linker_0, # of connection points: 3
#     Node 7, Type 0, BuildingBlock: ESEHIV_clean_linker_0, # of connection points: 3
#     Node 8, Type 1, BuildingBlock: LEVNOQ01_clean_sbu_1, # of connection points: 6
#     Node 9, Type 1, BuildingBlock: LEVNOQ01_clean_sbu_1, # of connection points: 6
#     Node 10, Type 1, BuildingBlock: LEVNOQ01_clean_sbu_1, # of connection points: 6
#     Node 11, Type 1, BuildingBlock: LEVNOQ01_clean_sbu_1, # of connection points: 6
#     Edge 12, Type (0, 1), BuildingBlock: MIFKUJ_clean_linker_0, # of connection points: 2
#     Edge 13, Type (0, 1), BuildingBlock: MIFKUJ_clean_linker_0, # of connection points: 2
#     Edge 14, Type (0, 1), BuildingBlock: MIFKUJ_clean_linker_0, # of connection points: 2
#     Edge 15, Type (0, 1), BuildingBlock: MIFKUJ_clean_linker_0, # of connection points: 2
#     Edge 16, Type (0, 1), BuildingBlock: MIFKUJ_clean_linker_0, # of connection points: 2
#     Edge 17, Type (0, 1), BuildingBlock: MIFKUJ_clean_linker_0, # of connection points: 2
#     Edge 18, Type (0, 1), BuildingBlock: MIFKUJ_clean_linker_0, # of connection points: 2
#     Edge 19, Type (0, 1), BuildingBlock: MIFKUJ_clean_linker_0, # of connection points: 2
#     Edge 20, Type (0, 1), BuildingBlock: MIFKUJ_clean_linker_0, # of connection points: 2
#     Edge 21, Type (0, 1), BuildingBlock: MIFKUJ_clean_linker_0, # of connection points: 2
#     Edge 22, Type (0, 1), BuildingBlock: MIFKUJ_clean_linker_0, # of connection points: 2
#     Edge 23, Type (0, 1), BuildingBlock: MIFKUJ_clean_linker_0, # of connection points: 2
#     Edge 24, Type (0, 1), BuildingBlock: MIFKUJ_clean_linker_0, # of connection points: 2
#     Edge 25, Type (0, 1), BuildingBlock: MIFKUJ_clean_linker_0, # of connection points: 2
#     Edge 26, Type (0, 1), BuildingBlock: MIFKUJ_clean_linker_0, # of connection points: 2
#     Edge 27, Type (0, 1), BuildingBlock: MIFKUJ_clean_linker_0, # of connection points: 2
#     Edge 28, Type (0, 1), BuildingBlock: MIFKUJ_clean_linker_0, # of connection points: 2
#     Edge 29, Type (0, 1), BuildingBlock: MIFKUJ_clean_linker_0, # of connection points: 2
#     Edge 30, Type (0, 1), BuildingBlock: MIFKUJ_clean_linker_0, # of connection points: 2
#     Edge 31, Type (0, 1), BuildingBlock: MIFKUJ_clean_linker_0, # of connection points: 2
#     Edge 32, Type (0, 1), BuildingBlock: MIFKUJ_clean_linker_0, # of connection points: 2
#     Edge 33, Type (0, 1), BuildingBlock: MIFKUJ_clean_linker_0, # of connection points: 2
#     Edge 34, Type (0, 1), BuildingBlock: MIFKUJ_clean_linker_0, # of connection points: 2
#     Edge 35, Type (0, 1), BuildingBlock: MIFKUJ_clean_linker_0, # of connection points: 2
# Relax obj value: 0.305
# Max RMSD: 0.218
# Mean RMSD: 0.206
data_MOF--net-zzz--node1-LEVNOQ01_clean_sbu_1--node2-ESEHIV_clean_linker_0--edge1-MIFKUJ_clean_linker_0
_symmetry_space_group_name_H-M    P1
_symmetry_Int_Tables_number       1
_symmetry_cell_setting            triclinic
loop_
_symmetry_equiv_pos_as_xyz
'x, y, z'
_cell_length_a     55.703364
_cell_length_b     59.161241
_cell_length_c     21.362585
_cell_angle_alpha  89.846974
_cell_angle_beta   89.95671
_cell_angle_gamma 88.143186
loop_
_atom_site_label
_atom_site_type_symbol
_atom_site_fract_x
_atom_site_fract_y
_atom_site_fract_z
_atom_type_partial_charge
H0 H 0.80845 0.61397 0.16053 0.0
H1 H 0.75021 0.61783 0.02997 0.0
H2 H 0.74217 0.58312 0.20655 0.0
C3 C 0.78976 0.61144 0.14939 0.0
C4 C 0.77582 0.59976 0.19262 0.0
C5 C 0.78109 0.61716 0.08966 0.0
C6 C 0.75719 0.61271 0.07534 0.0
C7 C 0.74307 0.59978 0.11584 0.0
C8 C 0.75249 0.59345 0.17519 0.0
H9 H 0.00809 0.79506 0.21173 0.0
H10 H 0.01119 0.73839 0.08713 0.0
H11 H 0.97421 0.73351 0.26423 0.0
C12 C 0.00435 0.77751 0.20201 0.0
C13 C 0.99085 0.76538 0.245 0.0
C14 C 0.01164 0.76794 0.14508 0.0
C15 C 0.00599 0.74566 0.13192 0.0
C16 C 0.99286 0.73297 0.17497 0.0
C17 C 0.98494 0.74295 0.23159 0.0
H18 H 0.69731 0.88969 0.18228 0.0
H19 H 0.75868 0.87931 0.06459 0.0
H20 H 0.76564 0.91377 0.24114 0.0
C21 C 0.71661 0.89023 0.17576 0.0
C22 C 0.73031 0.90179 0.21945 0.0
C23 C 0.72667 0.88258 0.11949 0.0
C24 C 0.75134 0.88431 0.1097 0.0
C25 C 0.7659 0.89507 0.15364 0.0
C26 C 0.75513 0.90412 0.20869 0.0
H27 H 0.48663 0.70434 0.19571 0.0
H28 H 0.50819 0.7684 0.2677 0.0
H29 H 0.48031 0.76343 0.0798 0.0
C30 C 0.48799 0.72249 0.18995 0.0
C31 C 0.48193 0.73251 0.13254 0.0
C32 C 0.49745 0.7351 0.23887 0.0
C33 C 0.50037 0.75853 0.23074 0.0
C34 C 0.49365 0.76891 0.17335 0.0
C35 C 0.48447 0.75574 0.12484 0.0
H36 H 0.18986 0.39496 0.2988 0.0
H37 H 0.25487 0.39194 0.40319 0.0
H38 H 0.25677 0.40887 0.20663 0.0
C39 C 0.20929 0.39502 0.29846 0.0
C40 C 0.22155 0.40087 0.24343 0.0
C41 C 0.22121 0.39139 0.35532 0.0
C42 C 0.24595 0.39376 0.35822 0.0
C43 C 0.25899 0.40008 0.30503 0.0
C44 C 0.24674 0.40379 0.24744 0.0
H45 H 0.01097 0.2053 0.23457 0.0
H46 H 0.02454 0.2608 0.35548 0.0
H47 H 0.02098 0.27136 0.15511 0.0
C48 C 0.01452 0.22309 0.24016 0.0
C49 C 0.01556 0.2371 0.18752 0.0
C50 C 0.01782 0.23158 0.30008 0.0
C51 C 0.02236 0.25432 0.30841 0.0
C52 C 0.02366 0.26884 0.25644 0.0
C53 C 0.02021 0.26026 0.1954 0.0
H54 H 0.30717 0.12026 0.26106 0.0
H55 H 0.24852 0.11882 0.38953 0.0
H56 H 0.24138 0.08989 0.20585 0.0
C57 C 0.28839 0.11726 0.26978 0.0
C58 C 0.27493 0.10653 0.22353 0.0
C59 C 0.27932 0.12115 0.33002 0.0
C60 C 0.25558 0.1158 0.34285 0.0
C61 C 0.24197 0.10385 0.29943 0.0
C62 C 0.25153 0.09954 0.23905 0.0
H63 H 0.48465 0.29165 0.22178 0.0
H64 H 0.50937 0.22549 0.16255 0.0
H65 H 0.48329 0.23606 0.35089 0.0
C66 C 0.48707 0.2737 0.23149 0.0
C67 C 0.48226 0.26543 0.29147 0.0
C68 C 0.49666 0.25956 0.18474 0.0
C69 C 0.50134 0.23647 0.19785 0.0
C70 C 0.49633 0.22798 0.25815 0.0
C71 C 0.48669 0.24253 0.30424 0.0
O72 O 0.04076 0.98045 0.8206 0.0
Mg73 Mg 0.03787 0.98224 0.72241 0.0
O74 O 0.00302 0.97921 0.79613 0.0
Mg75 Mg 0.99409 0.00199 0.71108 0.0
O76 O 0.03349 0.01242 0.67428 0.0
O77 O 0.0687 -0.00679 0.68792 0.0
O78 O 0.98208 0.02351 0.62614 0.0
O79 O 0.99562 0.03427 0.77542 0.0
Mg80 Mg 0.94351 0.0246 0.72524 0.0
O81 O 0.9557 -0.0076 0.74558 0.0
O82 O 0.94352 0.03304 0.62954 0.0
O83 O 0.95836 0.04787 0.78875 0.0
O84 O 0.91735 0.00417 0.75671 0.0
C85 C 0.00716 0.95289 0.64454 0.0
C86 C 0.02 0.97411 0.83358 0.0
C87 C 0.05676 0.01042 0.66559 0.0
C88 C 0.96342 0.0326 0.60094 0.0
C89 C 0.98071 0.04867 0.79968 0.0
C90 C 0.93382 0.9885 0.76329 0.0
O91 O 0.02676 0.95283 0.67465 0.0
O92 O 0.99276 0.97009 0.64716 0.0
O93 O 0.4358 0.98935 0.7608 0.0
Mg94 Mg 0.45272 0.96743 0.69389 0.0
O95 O 0.46706 0.01013 0.78546 0.0
Mg96 Mg 0.49727 -0.00252 0.7146 0.0
O97 O 0.48586 0.96024 0.72886 0.0
O98 O 0.45875 0.93385 0.71535 0.0
O99 O 0.52698 0.98497 0.64341 0.0
O100 O 0.52302 0.98712 0.79396 0.0
Mg101 Mg 0.54177 0.02452 0.74151 0.0
O102 O 0.50922 0.03485 0.70406 0.0
O103 O 0.55945 0.00291 0.67459 0.0
O104 O 0.54416 0.01368 0.83556 0.0
O105 O 0.53871 0.05845 0.72463 0.0
C106 C 0.45793 -0.00214 0.59231 0.0
C107 C 0.44502 0.00494 0.79299 0.0
C108 C 0.47938 0.93947 0.73665 0.0
C109 C 0.54944 0.98876 0.63914 0.0
C110 C 0.5377 -0.00656 0.83535 0.0
C111 C 0.51773 0.0551 0.70146 0.0
O112 O 0.45159 0.97773 0.6 0.0
O113 O 0.47183 0.00694 0.63166 0.0
O114 O 0.54173 0.4504 0.76649 0.0
Mg115 Mg 0.55442 0.47482 0.70212 0.0
O116 O 0.50448 0.46479 0.77668 0.0
Mg117 Mg 0.50277 0.49736 0.71277 0.0
O118 O 0.54247 0.50537 0.73629 0.0
O119 O 0.5814 0.49546 0.72975 0.0
O120 O 0.50099 0.52988 0.64959 0.0
O121 O 0.49572 0.51996 0.79845 0.0
Mg122 Mg 0.4526 0.51878 0.72851 0.0
O123 O 0.46304 0.48918 0.68594 0.0
O124 O 0.46493 0.54535 0.67007 0.0
O125 O 0.45789 0.52241 0.82581 0.0
O126 O 0.42458 0.50026 0.69724 0.0
C127 C 0.52645 0.46673 0.59187 0.0
C128 C 0.52078 0.44975 0.79013 0.0
C129 C 0.56477 0.5095 0.74876 0.0
C130 C 0.4851 0.54581 0.64208 0.0
C131 C 0.47957 0.52673 0.83664 0.0
C132 C 0.44039 0.48611 0.67459 0.0
O133 O 0.54837 0.46819 0.6063 0.0
O134 O 0.51028 0.47532 0.62725 0.0
O135 O 0.95324 0.47305 0.82604 0.0
Mg136 Mg 0.95719 0.46999 0.72899 0.0
O137 O 0.9732 0.50326 0.80366 0.0
Mg138 Mg 0.99784 0.49902 0.71677 0.0
O139 O 0.98972 0.4614 0.68854 0.0
O140 O 0.95928 0.43774 0.69878 0.0
O141 O 0.02274 0.4946 0.62922 0.0
O142 O 0.02872 0.48401 0.78328 0.0
Mg143 Mg 0.03592 0.52733 0.70233 0.0
O144 O 0.00487 0.53696 0.74812 0.0
O145 O 0.03766 0.52706 0.60451 0.0
O146 O 0.05895 0.50464 0.75321 0.0
O147 O 0.0366 0.559 0.7359 0.0
C148 C 0.94506 0.50906 0.64276 0.0
C149 C 0.95951 0.49265 0.84037 0.0
C150 C 0.98066 0.44162 0.67897 0.0
C151 C 0.0343 0.50671 0.59097 0.0
C152 C 0.05104 0.48854 0.78577 0.0
C153 C 0.01531 0.55611 0.75766 0.0
O154 O 0.93639 0.49259 0.67239 0.0
O155 O 0.96716 0.5139 0.64963 0.0
H156 H 0.23844 0.07821 0.40352 0.0
H157 H 0.20256 0.06477 0.45376 0.0
H158 H 0.15943 0.09051 0.30006 0.0
H159 H 0.19586 0.10526 0.25036 0.0
H160 H 0.13836 0.10082 0.41156 0.0
H161 H 0.17131 0.03228 0.32127 0.0
H162 H 0.20314 0.0037 0.29682 0.0
H163 H 0.21389 0.99095 0.49292 0.0
H164 H 0.18237 0.01964 0.51861 0.0
H165 H 0.04282 0.03393 0.55905 0.0
H166 H 0.06972 0.05295 0.48535 0.0
H167 H 0.12872 0.04158 0.6134 0.0
H168 H 0.10215 0.02291 0.68622 0.0
H169 H 0.13672 0.02278 0.49626 0.0
H170 H 0.10777 0.09244 0.5886 0.0
H171 H 0.07732 0.12165 0.61807 0.0
H172 H 0.06058 0.13307 0.42451 0.0
H173 H 0.09034 0.1035 0.39365 0.0
C174 C 0.22136 0.08097 0.38002 0.0
C175 C 0.21997 0.09297 0.32312 0.0
C176 C 0.20079 0.07307 0.40867 0.0
C177 C 0.17819 0.07627 0.38052 0.0
C178 C 0.17668 0.08775 0.32267 0.0
C179 C 0.19746 0.09596 0.29397 0.0
C180 C 0.15646 0.06807 0.41352 0.0
C181 C 0.13769 0.08359 0.42879 0.0
C182 C 0.15572 0.04571 0.43729 0.0
C183 C 0.17448 0.02817 0.42182 0.0
C184 C 0.18052 0.02344 0.35918 0.0
C185 C 0.19851 0.00721 0.34511 0.0
C186 C 0.21053 -0.00448 0.39328 0.0
C187 C 0.20455 -1e-05 0.45564 0.0
C188 C 0.18658 0.0162 0.46997 0.0
C189 C 0.0613 0.03626 0.57215 0.0
C190 C 0.07039 0.02681 0.6281 0.0
C191 C 0.07672 0.04697 0.52992 0.0
C192 C 0.10135 0.04837 0.54349 0.0
C193 C 0.10988 0.04047 0.60153 0.0
C194 C 0.09462 0.02985 0.64325 0.0
C195 C 0.11905 0.05566 0.49581 0.0
C196 C 0.13708 0.03987 0.4778 0.0
C197 C 0.11913 0.07775 0.4703 0.0
C198 C 0.101 0.09541 0.48885 0.0
C199 C 0.0973 0.1009 0.55227 0.0
C200 C 0.08017 0.11758 0.5692 0.0
C201 C 0.06684 0.12911 0.52311 0.0
C202 C 0.07072 0.12403 0.46006 0.0
C203 C 0.0877 0.10728 0.44282 0.0
H204 H 0.0536 0.14205 0.53616 0.0
H205 H 0.22447 0.98298 0.38228 0.0
H206 H 0.47093 0.19029 0.23531 0.0
H207 H 0.47234 0.15592 0.30009 0.0
H208 H 0.53462 0.18011 0.39605 0.0
H209 H 0.53362 0.21386 0.33001 0.0
H210 H 0.53712 0.13628 0.39681 0.0
H211 H 0.47655 0.19319 0.44464 0.0
H212 H 0.44168 0.21849 0.421 0.0
H213 H 0.39854 0.16096 0.3862 0.0
H214 H 0.43334 0.13531 0.40862 0.0
H215 H 0.52714 0.09996 0.70342 0.0
H216 H 0.51889 0.12714 0.61943 0.0
H217 H 0.47606 0.0787 0.52495 0.0
H218 H 0.48378 0.05128 0.60987 0.0
H219 H 0.46111 0.13074 0.51694 0.0
H220 H 0.52605 0.07424 0.47786 0.0
H221 H 0.56166 0.05275 0.51729 0.0
H222 H 0.59741 0.1148 0.55065 0.0
H223 H 0.56188 0.13664 0.51217 0.0
C224 C 0.48562 0.18759 0.26797 0.0
C225 C 0.50228 0.20452 0.27755 0.0
C226 C 0.48622 0.16815 0.30568 0.0
C227 C 0.50316 0.16572 0.35431 0.0
C228 C 0.52129 0.18158 0.35923 0.0
C229 C 0.52083 0.20082 0.32121 0.0
C230 C 0.5004 0.14862 0.40498 0.0
C231 C 0.52042 0.13505 0.42258 0.0
C232 C 0.47869 0.14701 0.43952 0.0
C233 C 0.4576 0.16235 0.42748 0.0
C234 C 0.45966 0.18594 0.43162 0.0
C235 C 0.43992 0.20035 0.41843 0.0
C236 C 0.41792 0.19134 0.40193 0.0
C237 C 0.41561 0.16791 0.39883 0.0
C238 C 0.43533 0.15343 0.41173 0.0
C239 C 0.51517 0.09529 0.666 0.0
C240 C 0.50643 0.07327 0.66255 0.0
C241 C 0.51047 0.11089 0.61806 0.0
C242 C 0.49697 0.10476 0.56582 0.0
C243 C 0.48618 0.08369 0.56534 0.0
C244 C 0.49073 0.06805 0.61364 0.0
C245 C 0.49777 0.11866 0.50807 0.0
C246 C 0.47751 0.13165 0.48974 0.0
C247 C 0.51937 0.12019 0.4737 0.0
C248 C 0.54132 0.10704 0.49237 0.0
C249 C 0.54153 0.08327 0.49355 0.0
C250 C 0.56166 0.07104 0.51586 0.0
C251 C 0.58173 0.08242 0.53672 0.0
C252 C 0.58183 0.10603 0.53456 0.0
C253 C 0.56173 0.11833 0.51236 0.0
H254 H 0.59722 0.07297 0.5545 0.0
H255 H 0.40266 0.20253 0.3917 0.0
H256 H 0.29325 0.37172 0.35488 0.0
H257 H 0.33071 0.38278 0.40396 0.0
H258 H 0.32032 0.45024 0.33008 0.0
H259 H 0.28239 0.43928 0.28158 0.0
H260 H 0.37126 0.43211 0.33629 0.0
H261 H 0.30026 0.44413 0.4633 0.0
H262 H 0.26248 0.43206 0.51123 0.0
H263 H 0.30105 0.3796 0.61219 0.0
H264 H 0.33905 0.39112 0.56388 0.0
H265 H 0.43232 0.49862 0.55596 0.0
H266 H 0.40778 0.47968 0.47927 0.0
H267 H 0.40407 0.42176 0.60173 0.0
H268 H 0.42791 0.44151 0.68038 0.0
H269 H 0.36181 0.43213 0.5673 0.0
H270 H 0.43308 0.41989 0.44244 0.0
H271 H 0.4706 0.42974 0.38839 0.0
H272 H 0.43223 0.4811 0.283 0.0
H273 H 0.39451 0.47141 0.33581 0.0
C274 C 0.2994 0.38868 0.34709 0.0
C275 C 0.28485 0.40465 0.31447 0.0
C276 C 0.32074 0.39502 0.3755 0.0
C277 C 0.32812 0.41742 0.37153 0.0
C278 C 0.31494 0.43286 0.33375 0.0
C279 C 0.29337 0.42655 0.30559 0.0
C280 C 0.34767 0.4252 0.41307 0.0
C281 C 0.36921 0.43231 0.38679 0.0
C282 C 0.34518 0.42491 0.47904 0.0
C283 C 0.32246 0.41833 0.50943 0.0
C284 C 0.30067 0.42991 0.49534 0.0
C285 C 0.27921 0.42318 0.52259 0.0
C286 C 0.27935 0.40502 0.56455 0.0
C287 C 0.30097 0.39363 0.57956 0.0
C288 C 0.32247 0.40026 0.55228 0.0
C289 C 0.42707 0.48146 0.56543 0.0
C290 C 0.43243 0.47133 0.62348 0.0
C291 C 0.41301 0.47054 0.52132 0.0
C292 C 0.40417 0.44898 0.53367 0.0
C293 C 0.41069 0.4383 0.59061 0.0
C294 C 0.42455 0.44944 0.63533 0.0
C295 C 0.38589 0.4391 0.49092 0.0
C296 C 0.36428 0.43168 0.51695 0.0
C297 C 0.38841 0.43902 0.4247 0.0
C298 C 0.41109 0.4451 0.39358 0.0
C299 C 0.43274 0.43343 0.40818 0.0
C300 C 0.454 0.43893 0.37767 0.0
C301 C 0.45383 0.45617 0.33281 0.0
C302 C 0.43236 0.4678 0.31791 0.0
C303 C 0.41102 0.46224 0.34787 0.0
H304 H 0.47032 0.46042 0.30935 0.0
H305 H 0.26271 0.39982 0.58555 0.0
H306 H 0.99113 0.30397 0.24785 0.0
H307 H 0.99243 0.33875 0.31002 0.0
H308 H 0.06533 0.32144 0.36395 0.0
H309 H 0.06403 0.28684 0.30176 0.0
H310 H 0.03271 0.32358 0.46323 0.0
H311 H 0.05439 0.36783 0.28507 0.0
H312 H 0.04985 0.3827 0.17776 0.0
H313 H 0.98202 0.41432 0.22706 0.0
H314 H 0.98579 0.39911 0.33423 0.0
H315 H 0.02437 0.44369 0.6184 0.0
H316 H 0.04059 0.4168 0.53992 0.0
H317 H 0.97995 0.37468 0.56747 0.0
H318 H 0.96409 0.40052 0.6466 0.0
H319 H 0.0146 0.40513 0.4257 0.0
H320 H 0.99933 0.3206 0.55009 0.0
H321 H 0.99965 0.30483 0.65708 0.0
H322 H 0.05128 0.35317 0.71311 0.0
H323 H 0.05149 0.36905 0.60624 0.0
C324 C 0.00784 0.30831 0.27006 0.0
C325 C 0.02756 0.29292 0.2697 0.0
C326 C 0.00852 0.32806 0.30604 0.0
C327 C 0.02893 0.33255 0.34203 0.0
C328 C 0.04942 0.31828 0.33658 0.0
C329 C 0.04877 0.29866 0.30054 0.0
C330 C 0.02748 0.34952 0.39309 0.0
C331 C 0.02904 0.34147 0.45489 0.0
C332 C 0.0225 0.3728 0.38218 0.0
C333 C 0.02031 0.38215 0.31776 0.0
C334 C 0.03834 0.3777 0.2729 0.0
C335 C 0.03591 0.3862 0.21203 0.0
C336 C 0.01564 0.39942 0.19557 0.0
C337 C 0.99773 0.40411 0.2399 0.0
C338 C 1.00001 0.39553 0.30072 0.0
C339 C 0.01466 0.42858 0.60816 0.0
C340 C 0.99277 0.42445 0.63826 0.0
C341 C 0.0238 0.41346 0.56285 0.0
C342 C 0.0112 0.39414 0.54692 0.0
C343 C 0.98995 0.38953 0.57888 0.0
C344 C 0.98093 0.4044 0.62425 0.0
C345 C 0.01945 0.37902 0.4954 0.0
C346 C 0.01887 0.38733 0.4337 0.0
C347 C 0.02485 0.35583 0.5061 0.0
C348 C 0.02535 0.34606 0.57018 0.0
C349 C 0.01089 0.32776 0.58512 0.0
C350 C 0.01093 0.31883 0.64577 0.0
C351 C 0.02545 0.32801 0.69189 0.0
C352 C 0.04 0.34611 0.67738 0.0
C353 C 0.04002 0.3551 0.61678 0.0
H354 H 0.02544 0.3211 0.73884 0.0
H355 H 0.01384 0.40606 0.14849 0.0
H356 H 0.78928 0.93515 0.16114 0.0
H357 H 0.82529 0.94514 0.10298 0.0
H358 H 0.83407 0.87624 0.03921 0.0
H359 H 0.79896 0.86595 0.10004 0.0
H360 H 0.87608 0.89291 0.04355 0.0
H361 H 0.80152 0.91612 0.95432 0.0
H362 H 0.76127 0.93461 0.94878 0.0
H363 H 0.79214 -0.00059 0.9764 0.0
H364 H 0.83257 0.98123 0.98321 0.0
H365 H 0.89871 0.96077 0.73013 0.0
H366 H 0.87687 0.93641 0.80106 0.0
H367 H 0.92979 0.94665 0.94465 0.0
H368 H 0.95194 0.97097 0.87274 0.0
H369 H 0.85739 0.95658 0.89858 0.0
H370 H 0.91928 0.89696 0.05975 0.0
H371 H 0.95427 0.87073 0.04946 0.0
H372 H 0.94527 0.86986 0.85006 0.0
H373 H 0.90923 0.89472 0.85916 0.0
C374 C 0.79947 0.92192 0.13703 0.0
C375 C 0.79102 0.89981 0.13454 0.0
C376 C 0.81991 0.92771 0.10296 0.0
C377 C 0.83203 0.91161 0.06489 0.0
C378 C 0.82501 0.88906 0.06753 0.0
C379 C 0.80482 0.88321 0.10222 0.0
C380 C 0.84991 0.91868 0.01706 0.0
C381 C 0.87227 0.90703 0.01225 0.0
C382 C 0.84433 0.93625 0.97383 0.0
C383 C 0.82004 0.94728 0.97006 0.0
C384 C 0.7997 0.93429 0.95976 0.0
C385 C 0.77686 0.94472 0.95633 0.0
C386 C 0.77414 0.96817 0.96241 0.0
C387 C 0.79427 0.98124 0.97185 0.0
C388 C 0.81715 0.97089 0.97554 0.0
C389 C 0.90634 0.9569 0.77572 0.0
C390 C 0.92706 0.96761 0.79582 0.0
C391 C 0.89373 0.94313 0.81652 0.0
C392 C 0.9014 0.93998 0.87867 0.0
C393 C 0.92351 0.94876 0.89695 0.0
C394 C 0.93628 0.96252 0.85567 0.0
C395 C 0.88418 0.93134 0.9259 0.0
C396 C 0.86169 0.9427 0.93039 0.0
C397 C 0.88942 0.91282 0.96654 0.0
C398 C 0.91169 0.89833 0.96013 0.0
C399 C 0.92461 0.89113 0.01362 0.0
C400 C 0.94452 0.87625 0.00805 0.0
C401 C 0.95214 0.86882 0.94911 0.0
C402 C 0.93952 0.87584 0.89568 0.0
C403 C 0.91924 0.89028 0.90107 0.0
H404 H 0.96777 0.85756 0.94488 0.0
H405 H 0.75644 0.97622 0.95964 0.0
H406 H 0.4607 0.80171 0.1423 0.0
H407 H 0.46858 0.83562 0.0808 0.0
H408 H 0.54474 0.82313 0.10335 0.0
H409 H 0.53687 0.78894 0.1647 0.0
H410 H 0.5008 0.87686 0.09256 0.0
H411 H 0.55762 0.81384 0.98896 0.0
H412 H 0.56182 0.77282 0.96784 0.0
H413 H 0.48819 0.7721 0.90855 0.0
H414 H 0.48359 0.81305 0.92991 0.0
H415 H 0.50994 0.94889 0.83258 0.0
H416 H 0.52512 0.92303 0.91377 0.0
H417 H 0.48774 0.8687 0.82591 0.0
H418 H 0.4758 0.89382 0.74064 0.0
H419 H 0.52146 0.85005 0.87867 0.0
H420 H 0.46363 0.90758 0.95447 0.0
H421 H 0.44952 0.94683 0.9756 0.0
H422 H 0.51201 0.95726 0.08823 0.0
H423 H 0.5265 0.9181 0.06747 0.0
C424 C 0.47909 0.80682 0.13667 0.0
C425 C 0.49819 0.79284 0.15853 0.0
C426 C 0.48358 0.82612 0.10129 0.0
C427 C 0.50723 0.83171 0.08698 0.0
C428 C 0.52636 0.81902 0.11377 0.0
C429 C 0.52186 0.79966 0.14939 0.0
C430 C 0.51144 0.84823 0.03612 0.0
C431 C 0.50594 0.87122 0.04602 0.0
C432 C 0.51726 0.84071 0.97513 0.0
C433 C 0.5203 0.81635 0.96098 0.0
C434 C 0.54238 0.80488 0.97134 0.0
C435 C 0.54481 0.78167 0.95945 0.0
C436 C 0.5253 0.76988 0.93677 0.0
C437 C 0.5033 0.78125 0.92603 0.0
C438 C 0.50077 0.80443 0.93803 0.0
C439 C 0.50646 0.93115 0.82845 0.0
C440 C 0.49231 0.92339 0.77917 0.0
C441 C 0.51439 0.91642 0.8762 0.0
C442 C 0.50695 0.8939 0.87775 0.0
C443 C 0.49384 0.88589 0.82659 0.0
C444 C 0.48684 0.90037 0.77771 0.0
C445 C 0.51065 0.87912 0.93419 0.0
C446 C 0.51732 0.8562 0.92536 0.0
C447 C 0.50507 0.88668 0.99584 0.0
C448 C 0.49622 0.91005 0.00901 0.0
C449 C 0.47434 0.91829 0.98365 0.0
C450 C 0.4663 0.9405 0.99553 0.0
C451 C 0.4799 0.95454 0.03309 0.0
C452 C 0.50152 0.94637 0.05908 0.0
C453 C 0.50964 0.92417 0.04737 0.0
H454 H 0.47366 0.97174 0.04214 0.0
H455 H 0.52722 0.75193 0.9275 0.0
H456 H 0.69961 0.59539 0.17782 0.0
H457 H 0.66124 0.5836 0.13241 0.0
H458 H 0.6958 0.57371 0.95371 0.0
H459 H 0.73396 0.58401 -0.00143 0.0
H460 H 0.64562 0.60537 0.97396 0.0
H461 H 0.68927 0.53025 0.9857 0.0
H462 H 0.71102 0.50066 0.04686 0.0
H463 H 0.65206 0.49829 0.17616 0.0
H464 H 0.63013 0.5281 0.11596 0.0
H465 H 0.59582 0.54307 0.72826 0.0
H466 H 0.61725 0.56378 0.80868 0.0
H467 H 0.57329 0.53417 0.95143 0.0
H468 H 0.55174 0.51351 0.87052 0.0
H469 H 0.62057 0.52567 0.97257 0.0
H470 H 0.57188 0.59163 0.93713 0.0
H471 H 0.55009 0.62167 0.8777 0.0
H472 H 0.6164 0.64265 0.79715 0.0
H473 H 0.63861 0.61275 0.85588 0.0
C474 C 0.69906 0.59042 0.12912 0.0
C475 C 0.71984 0.59122 0.09165 0.0
C476 C 0.67712 0.58387 0.10316 0.0
C477 C 0.67568 0.57816 0.03945 0.0
C478 C 0.69645 0.57839 0.00269 0.0
C479 C 0.71827 0.58447 0.02855 0.0
C480 C 0.65279 0.57181 0.00974 0.0
C481 C 0.63992 0.58801 0.97392 0.0
C482 C 0.64513 0.54932 0.01083 0.0
C483 C 0.65826 0.53154 0.04699 0.0
C484 C 0.68109 0.52357 0.02755 0.0
C485 C 0.69341 0.50673 0.06191 0.0
C486 C 0.68297 0.49766 0.11551 0.0
C487 C 0.66016 0.50537 0.13474 0.0
C488 C 0.64778 0.52223 0.10055 0.0
C489 C 0.58999 0.54187 0.77652 0.0
C490 C 0.57173 0.52719 0.79308 0.0
C491 C 0.6023 0.55364 0.8226 0.0
C492 C 0.59687 0.55064 0.88632 0.0
C493 C 0.57772 0.53689 0.90267 0.0
C494 C 0.56523 0.52529 0.85639 0.0
C495 C 0.61349 0.55913 0.93499 0.0
C496 C 0.62548 0.54325 0.97401 0.0
C497 C 0.6202 0.582 0.93692 0.0
C498 C 0.60691 0.59985 0.90074 0.0
C499 C 0.5818 0.60253 0.90638 0.0
C500 C 0.56938 0.61956 0.87294 0.0
C501 C 0.58185 0.63399 0.8336 0.0
C502 C 0.60677 0.63146 0.82768 0.0
C503 C 0.6193 0.61452 0.8612 0.0
H504 H 0.57222 0.64719 0.80783 0.0
H505 H 0.69252 0.4846 0.14202 0.0
H506 H 0.02373 0.698 0.15113 0.0
H507 H 0.01548 0.66533 0.08568 0.0
H508 H 0.94004 0.68402 0.08604 0.0
H509 H 0.94833 0.71709 0.15143 0.0
H510 H 0.96545 0.62937 0.09031 0.0
H511 H 0.95149 0.7012 0.97401 0.0
H512 H 0.96351 0.74042 0.95483 0.0
H513 H 0.03455 0.71642 0.90522 0.0
H514 H 0.02306 0.67711 0.92542 0.0
H515 H 0.96918 0.55993 0.80681 0.0
H516 H 0.95398 0.58876 0.88172 0.0
H517 H 0.02264 0.62008 0.87903 0.0
H518 H 0.03752 0.59258 0.80374 0.0
H519 H 0.98758 0.65092 0.87386 0.0
H520 H 0.00567 0.5818 0.98597 0.0
H521 H 0.00281 0.54344 0.02951 0.0
H522 H 0.93366 0.56114 0.1073 0.0
H523 H 0.93519 0.59898 0.05998 0.0
C524 C 0.00527 0.69455 0.13957 0.0
C525 C 0.98664 0.70991 0.15627 0.0
C526 C 0.00059 0.67599 0.10203 0.0
C527 C 0.97722 0.6725 0.08072 0.0
C528 C 0.95817 0.6865 0.10233 0.0
C529 C 0.96288 0.70523 0.13994 0.0
C530 C 0.97393 0.65654 0.02861 0.0
C531 C 0.96937 0.63398 0.04226 0.0
C532 C 0.97994 0.66278 0.9669 0.0
C533 C 0.98643 0.68627 0.95146 0.0
C534 C 0.96968 0.70432 0.95922 0.0
C535 C 0.97641 0.72656 0.94823 0.0
C536 C 0.99978 0.73091 0.92887 0.0
C537 C 0.01645 0.71303 0.92019 0.0
C538 C 0.00983 0.69077 0.93134 0.0
C539 C 0.98091 0.57307 0.82204 0.0
C540 C 0.00462 0.57383 0.79935 0.0
C541 C 0.97226 0.58934 0.86518 0.0
C542 C 0.98726 0.60625 0.88699 0.0
C543 C 0.01065 0.60723 0.86308 0.0
C544 C 0.01915 0.59136 0.8198 0.0
C545 C 0.97941 0.6231 0.93502 0.0
C546 C 0.98223 0.64608 0.92075 0.0
C547 C 0.97236 0.61698 -0.00339 0.0
C548 C 0.97029 0.59318 0.01781 0.0
C549 C 0.98943 0.5773 0.01017 0.0
C550 C 0.98807 0.5556 0.03579 0.0
C551 C 0.96796 0.54973 0.07065 0.0
C552 C 0.94906 0.5655 0.07945 0.0
C553 C 0.95005 0.58701 0.05266 0.0
H554 H 0.96705 0.53301 0.09102 0.0
H555 H 0.00498 0.74814 0.92052 0.0
H556 H 0.05238 0.2036 0.34774 0.0
H557 H 0.04488 0.16858 0.40444 0.0
H558 H 0.96996 0.18848 0.42149 0.0
H559 H 0.97759 0.22371 0.36556 0.0
H560 H 0.98722 0.16265 0.52266 0.0
H561 H 0.99106 0.16298 0.29406 0.0
H562 H 0.01107 0.16706 0.19169 0.0
H563 H 0.06286 0.11486 0.24157 0.0
H564 H 0.04311 0.11022 0.34364 0.0
H565 H 0.93041 0.06263 0.55062 0.0
H566 H 0.94057 0.09639 0.49207 0.0
H567 H 0.01342 0.07048 0.47095 0.0
H568 H 0.0031 0.03621 0.52736 0.0
H569 H 0.99961 0.09865 0.37478 0.0
H570 H 1.00021 0.09869 0.59911 0.0
H571 H 0.98273 0.09213 0.70339 0.0
H572 H 0.92632 0.14137 0.66481 0.0
H573 H 0.94323 0.14791 0.55967 0.0
C574 C 0.03462 0.20091 0.36656 0.0
C575 C 0.01552 0.21608 0.35291 0.0
C576 C 0.03029 0.18084 0.39821 0.0
C577 C 0.00677 0.17573 0.41537 0.0
C578 C 0.98821 0.19212 0.40812 0.0
C579 C 0.99256 0.21224 0.37666 0.0
C580 C 0.00071 0.15245 0.43218 0.0
C581 C 0.98982 0.1487 0.49024 0.0
C582 C 0.0046 0.13418 0.39002 0.0
C583 C 0.0161 0.13684 0.3277 0.0
C584 C 0.00692 0.1526 0.28365 0.0
C585 C 0.01815 0.15493 0.22548 0.0
C586 C 0.0385 0.14155 0.21076 0.0
C587 C 0.04731 0.12543 0.25341 0.0
C588 C 0.03608 0.12292 0.31135 0.0
C589 C 0.94832 0.06362 0.53119 0.0
C590 C 0.96637 0.04734 0.54608 0.0
C591 C 0.95411 0.08299 0.49806 0.0
C592 C 0.97795 0.08621 0.4799 0.0
C593 C 0.99502 0.06843 0.4859 0.0
C594 C 0.98915 0.04894 0.51846 0.0
C595 C 0.98588 0.10904 0.46456 0.0
C596 C 0.99714 0.11266 0.4071 0.0
C597 C 0.98276 0.12709 0.50753 0.0
C598 C 0.97287 0.12365 0.57132 0.0
C599 C 0.98401 0.10804 0.61274 0.0
C600 C 0.97421 0.10432 0.67201 0.0
C601 C 0.95342 0.11631 0.69073 0.0
C602 C 0.94242 0.13209 0.65023 0.0
C603 C 0.9521 0.13581 0.59079 0.0
H604 H 0.94586 0.1134 0.73663 0.0
H605 H 0.04739 0.14352 0.16616 0.0
H606 H 0.31831 0.14874 0.33478 0.0
H607 H 0.35482 0.13928 0.39421 0.0
H608 H 0.31622 0.09019 0.50086 0.0
H609 H 0.28023 0.09921 0.44221 0.0
H610 H 0.35352 0.10302 0.5658 0.0
H611 H 0.33824 0.0768 0.35177 0.0
H612 H 0.3329 0.07979 0.23728 0.0
H613 H 0.39901 0.1148 0.22205 0.0
H614 H 0.40472 0.11196 0.33645 0.0
H615 H 0.4098 -0.0023 0.58488 0.0
H616 H 0.38355 0.02874 0.54842 0.0
H617 H 0.44469 0.06312 0.47619 0.0
H618 H 0.47157 0.03222 0.51517 0.0
H619 H 0.40509 0.06738 0.40149 0.0
H620 H 0.42375 0.07747 0.61806 0.0
H621 H 0.4277 0.06586 0.72867 0.0
H622 H 0.35191 0.05526 0.73827 0.0
H623 H 0.34752 0.06631 0.62742 0.0
C624 C 0.31738 0.13667 0.37285 0.0
C625 C 0.29662 0.1241 0.38199 0.0
C626 C 0.33826 0.13127 0.4067 0.0
C627 C 0.3384 0.11339 0.45001 0.0
C628 C 0.31662 0.10384 0.46696 0.0
C629 C 0.29585 0.10915 0.43324 0.0
C630 C 0.36095 0.10103 0.46702 0.0
C631 C 0.36503 0.09544 0.53006 0.0
C632 C 0.37609 0.09126 0.42031 0.0
C633 C 0.37171 0.0945 0.35253 0.0
C634 C 0.35145 0.08541 0.32402 0.0
C635 C 0.34842 0.08697 0.25916 0.0
C636 C 0.36558 0.09754 0.2225 0.0
C637 C 0.3857 0.10669 0.25058 0.0
C638 C 0.38885 0.10511 0.31536 0.0
C639 C 0.41768 0.01161 0.55989 0.0
C640 C 0.44269 0.01287 0.55353 0.0
C641 C 0.4027 0.02946 0.54003 0.0
C642 C 0.41252 0.04866 0.51291 0.0
C643 C 0.43717 0.04882 0.49996 0.0
C644 C 0.45234 0.03115 0.52132 0.0
C645 C 0.39694 0.0687 0.49977 0.0
C646 C 0.39429 0.07568 0.43758 0.0
C647 C 0.38273 0.07919 0.54715 0.0
C648 C 0.38531 0.07274 0.61422 0.0
C649 C 0.40793 0.07255 0.6436 0.0
C650 C 0.41025 0.06606 0.70637 0.0
C651 C 0.39006 0.05989 0.74044 0.0
C652 C 0.36752 0.0601 0.71181 0.0
C653 C 0.36511 0.0665 0.64903 0.0
H654 H 0.39183 0.05502 0.78904 0.0
H655 H 0.36347 0.09846 0.17226 0.0
H656 H 0.44961 0.30078 0.28774 0.0
H657 H 0.45098 0.33453 0.353 0.0
H658 H 0.50243 0.30073 0.47457 0.0
H659 H 0.50192 0.26717 0.40831 0.0
H660 H 0.46432 0.34073 0.52556 0.0
H661 H 0.53387 0.32041 0.39533 0.0
H662 H 0.5538 0.30564 0.30002 0.0
H663 H 0.51385 0.35412 0.18823 0.0
H664 H 0.49332 0.36886 0.28297 0.0
H665 H 0.55548 0.43653 0.52823 0.0
H666 H 0.54286 0.40087 0.48433 0.0
H667 H 0.4686 0.42145 0.51225 0.0
H668 H 0.48096 0.45719 0.55559 0.0
H669 H 0.51801 0.38635 0.39309 0.0
H670 H 0.43692 0.37764 0.56187 0.0
H671 H 0.42443 0.38983 0.66777 0.0
H672 H 0.49829 0.39599 0.72057 0.0
H673 H 0.51119 0.38355 0.61548 0.0
C674 C 0.46054 0.30025 0.32969 0.0
C675 C 0.47617 0.28165 0.34201 0.0
C676 C 0.46112 0.31943 0.36717 0.0
C677 C 0.47702 0.32004 0.4178 0.0
C678 C 0.48999 0.3004 0.43565 0.0
C679 C 0.48967 0.28125 0.39766 0.0
C680 C 0.48465 0.34214 0.4401 0.0
C681 C 0.47594 0.35085 0.49681 0.0
C682 C 0.50043 0.35482 0.40325 0.0
C683 C 0.51185 0.34548 0.34591 0.0
C684 C 0.52905 0.32764 0.35026 0.0
C685 C 0.5405 0.31934 0.29644 0.0
C686 C 0.53508 0.32894 0.23816 0.0
C687 C 0.51798 0.34668 0.23342 0.0
C688 C 0.50641 0.35499 0.28714 0.0
C689 C 0.53644 0.43384 0.52298 0.0
C690 C 0.51925 0.44954 0.54642 0.0
C691 C 0.52925 0.41335 0.49838 0.0
C692 C 0.50481 0.4083 0.49671 0.0
C693 C 0.48756 0.42482 0.51441 0.0
C694 C 0.4947 0.44537 0.53856 0.0
C695 C 0.49753 0.38544 0.47869 0.0
C696 C 0.50625 0.3765 0.42219 0.0
C697 C 0.48265 0.37226 0.51738 0.0
C698 C 0.47498 0.37986 0.58063 0.0
C699 C 0.45047 0.38155 0.59617 0.0
C700 C 0.44333 0.38852 0.65604 0.0
C701 C 0.46053 0.39381 0.70078 0.0
C702 C 0.48495 0.39204 0.68584 0.0
C703 C 0.49219 0.38505 0.62611 0.0
H704 H 0.45493 0.39919 0.74706 0.0
H705 H 0.54433 0.3228 0.19681 0.0
H706 H 0.22297 0.41822 0.45759 0.0
H707 H 0.18809 0.42813 0.521 0.0
H708 H 0.15079 0.37163 0.44476 0.0
H709 H 0.18581 0.36183 0.38031 0.0
H710 H 0.13355 0.41052 0.40028 0.0
H711 H 0.1498 0.38219 0.60355 0.0
H712 H 0.17255 0.37341 0.69996 0.0
H713 H 0.1799 0.44428 0.73482 0.0
H714 H 0.15756 0.45353 0.63811 0.0
H715 H 0.02651 0.4696 0.51879 0.0
H716 H 0.05827 0.44326 0.48091 0.0
H717 H 0.11194 0.48992 0.53702 0.0
H718 H 0.08058 0.51686 0.57053 0.0
H719 H 0.11518 0.44874 0.6015 0.0
H720 H 0.10819 0.47634 0.39043 0.0
H721 H 0.08757 0.48655 0.29178 0.0
H722 H 0.06551 0.41818 0.27107 0.0
H723 H 0.08555 0.40758 0.37037 0.0
C724 C 0.20795 0.40704 0.45732 0.0
C725 C 0.20665 0.38974 0.41278 0.0
C726 C 0.18791 0.4127 0.49382 0.0
C727 C 0.16659 0.40097 0.48624 0.0
C728 C 0.16698 0.38107 0.45058 0.0
C729 C 0.18698 0.37547 0.4138 0.0
C730 C 0.14347 0.41324 0.49772 0.0
C731 C 0.12909 0.41825 0.445 0.0
C732 C 0.13819 0.424 0.55529 0.0
C733 C 0.15203 0.41855 0.6132 0.0
C734 C 0.15645 0.39592 0.63139 0.0
C735 C 0.16925 0.39086 0.68622 0.0
C736 C 0.17768 0.40827 0.72346 0.0
C737 C 0.17335 0.4308 0.70594 0.0
C738 C 0.16058 0.43596 0.65114 0.0
C739 C 0.04505 0.47458 0.52034 0.0
C740 C 0.05115 0.49508 0.54813 0.0
C741 C 0.0631 0.45941 0.49985 0.0
C742 C 0.08729 0.46431 0.50919 0.0
C743 C 0.09331 0.48572 0.53073 0.0
C744 C 0.07533 0.50119 0.54911 0.0
C745 C 0.10615 0.44637 0.50372 0.0
C746 C 0.11946 0.44041 0.5575 0.0
C747 C 0.11072 0.4349 0.44708 0.0
C748 C 0.09809 0.44126 0.38826 0.0
C749 C 0.09864 0.46354 0.36531 0.0
C750 C 0.0871 0.46937 0.30921 0.0
C751 C 0.0751 0.45302 0.27538 0.0
C752 C 0.07466 0.43081 0.29758 0.0
C753 C 0.08611 0.42488 0.35375 0.0
H754 H 0.06624 0.45753 0.23183 0.0
H755 H 0.18755 0.40432 0.76594 0.0
H756 H 0.99623 0.77397 0.02534 0.0
H757 H 0.00315 0.80738 0.96098 0.0
H758 H 0.05593 0.82921 0.09354 0.0
H759 H 0.04921 0.79576 0.1578 0.0
H760 H 0.01391 0.85683 0.08508 0.0
H761 H 0.07316 0.82157 0.95109 0.0
H762 H 0.08988 0.79293 0.87819 0.0
H763 H 0.03353 0.80891 0.74674 0.0
H764 H 0.01624 0.83745 0.81931 0.0
H765 H 0.04892 0.96028 0.93087 0.0
H766 H 0.0495 0.92269 0.98013 0.0
H767 H 0.9872 0.90529 0.87308 0.0
H768 H 0.9858 0.94273 0.82582 0.0
H769 H 0.03365 0.87527 0.86484 0.0
H770 H 0.97564 0.91194 -0.00282 0.0
H771 H 0.95858 0.94001 0.0704 0.0
H772 H 0.01274 0.92152 0.20573 0.0
H773 H 0.03021 0.89328 0.13312 0.0
C774 C 0.01019 0.7853 0.03902 0.0
C775 C 0.02191 0.78265 0.09692 0.0
C776 C 0.01407 0.80439 0.00233 0.0
C777 C 0.02975 0.82081 0.02331 0.0
C778 C 0.04363 0.81671 0.07707 0.0
C779 C 0.0398 0.79766 0.11362 0.0
C780 C 0.02788 0.84389 -0.00241 0.0
C781 C 0.01869 0.86099 0.03726 0.0
C782 C 0.03308 0.84886 0.93447 0.0
C783 C 0.04323 0.83148 0.89105 0.0
C784 C 0.06415 0.8188 0.90699 0.0
C785 C 0.07378 0.80263 0.86563 0.0
C786 C 0.06273 0.79905 0.80796 0.0
C787 C 0.04205 0.81167 0.79149 0.0
C788 C 0.03233 0.82786 0.83271 0.0
C789 C 0.03492 0.94869 0.91957 0.0
C790 C 0.01728 0.95449 0.87493 0.0
C791 C 0.03541 0.92725 0.94706 0.0
C792 C 0.01859 0.91138 0.92914 0.0
C793 C 0.00039 0.91741 0.88679 0.0
C794 C 0.99946 0.93894 0.86071 0.0
C795 C 0.02046 0.88817 0.95307 0.0
C796 C 0.02919 0.87107 0.91285 0.0
C797 C 0.01478 0.88313 0.01572 0.0
C798 C 0.00444 0.9005 0.05919 0.0
C799 C 0.98414 0.91393 0.04219 0.0
C800 C 0.97426 0.92985 0.08383 0.0
C801 C 0.98456 0.9326 0.14278 0.0
C802 C 0.0047 0.91936 0.16018 0.0
C803 C 0.01456 0.90333 0.11879 0.0
H804 H 0.97693 0.94498 0.17494 0.0
H805 H 0.07024 0.78654 0.77597 0.0
H806 H 0.72695 0.90699 0.01348 0.0
H807 H 0.69207 0.91589 0.95014 0.0
H808 H 0.65409 0.86183 0.03867 0.0
H809 H 0.68884 0.85418 0.10687 0.0
H810 H 0.66205 0.90514 0.87495 0.0
H811 H 0.59549 0.87835 0.06024 0.0
H812 H 0.59301 0.86704 0.17126 0.0
H813 H 0.65396 0.90692 0.21371 0.0
H814 H 0.6566 0.91864 0.10314 0.0
H815 H 0.55017 0.9528 0.78608 0.0
H816 H 0.58013 0.92546 0.82404 0.0
H817 H 0.59361 0.96813 0.98288 0.0
H818 H 0.56259 -0.00448 0.94594 0.0
H819 H 0.59346 0.92413 0.0156 0.0
H820 H 0.62896 0.96907 0.85833 0.0
H821 H 0.63615 0.98704 0.75615 0.0
H822 H 0.64374 0.92171 0.67003 0.0
H823 H 0.63589 0.90332 0.77143 0.0
C824 C 0.71157 0.89632 0.01776 0.0
C825 C 0.71037 0.88018 0.06575 0.0
C826 C 0.69145 0.90148 0.98144 0.0
C827 C 0.66996 0.8902 0.99144 0.0
C828 C 0.67012 0.87143 0.03203 0.0
C829 C 0.69007 0.86679 0.07024 0.0
C830 C 0.64723 0.90074 0.96722 0.0
C831 C 0.6469 0.90898 0.90551 0.0
C832 C 0.62749 0.90613 0.00714 0.0
C833 C 0.62647 0.89902 0.07346 0.0
C834 C 0.60838 0.88463 0.09337 0.0
C835 C 0.60692 0.87819 0.15616 0.0
C836 C 0.62337 0.88616 0.19949 0.0
C837 C 0.64128 0.90068 0.18016 0.0
C838 C 0.64277 0.90724 0.11742 0.0
C839 C 0.55878 0.95604 0.83048 0.0
C840 C 0.55347 0.97597 0.86436 0.0
C841 C 0.57623 0.94053 0.85139 0.0
C842 C 0.58918 0.94489 0.90579 0.0
C843 C 0.58365 0.96449 0.94075 0.0
C844 C 0.56599 0.98007 0.91986 0.0
C845 C 0.60906 0.92932 0.92484 0.0
C846 C 0.60848 0.91993 0.98489 0.0
C847 C 0.6285 0.92379 0.88438 0.0
C848 C 0.63147 0.9348 0.82241 0.0
C849 C 0.63166 0.95852 0.81741 0.0
C850 C 0.63596 0.96879 0.75966 0.0
C851 C 0.64042 0.95554 0.70668 0.0
C852 C 0.64026 0.93197 0.71113 0.0
C853 C 0.6358 0.92161 0.76868 0.0
H854 H 0.64407 0.96355 0.66222 0.0
H855 H 0.62211 0.88111 0.24801 0.0
H856 H 0.45193 0.69707 0.12952 0.0
H857 H 0.45565 0.66521 0.0575 0.0
H858 H 0.50388 0.70258 0.94157 0.0
H859 H 0.50133 0.73414 0.0154 0.0
H860 H 0.46074 0.66347 0.89389 0.0
H861 H 0.53809 0.67952 0.98449 0.0
H862 H 0.56303 0.69445 0.06926 0.0
H863 H 0.53581 0.6451 0.1963 0.0
H864 H 0.5105 0.6301 0.11177 0.0
H865 H 0.52205 0.54791 0.84797 0.0
H866 H 0.5272 0.5861 0.88627 0.0
H867 H 0.45412 0.58826 0.95303 0.0
H868 H 0.44888 0.54975 0.91584 0.0
H869 H 0.5199 0.61155 -0.00015 0.0
H870 H 0.42789 0.62628 0.88158 0.0
H871 H 0.40702 0.61473 0.78517 0.0
H872 H 0.47497 0.60651 0.69121 0.0
H873 H 0.49598 0.61694 0.78722 0.0
C874 C 0.46277 0.69876 0.08774 0.0
C875 C 0.47687 0.71775 0.07886 0.0
C876 C 0.4648 0.68063 0.04663 0.0
C877 C 0.48053 0.68152 0.9956 0.0
C878 C 0.49194 0.70164 0.98147 0.0
C879 C 0.49027 0.7197 0.02334 0.0
C880 C 0.48788 0.66018 0.9653 0.0
C881 C 0.47391 0.65223 0.91634 0.0
C882 C 0.50578 0.64587 0.99301 0.0
C883 C 0.52182 0.65417 0.0427 0.0
C884 C 0.53714 0.67209 0.03076 0.0
C885 C 0.55144 0.6805 0.07858 0.0
C886 C 0.55082 0.67087 0.13833 0.0
C887 C 0.5361 0.65266 0.15014 0.0
C888 C 0.52178 0.64423 0.10238 0.0
C889 C 0.50743 0.55598 0.87356 0.0
C890 C 0.48498 0.54577 0.87838 0.0
C891 C 0.51036 0.57799 0.89475 0.0
C892 C 0.49085 0.59008 0.92079 0.0
C893 C 0.46924 0.57918 0.93184 0.0
C894 C 0.46634 0.55711 0.91105 0.0
C895 C 0.49192 0.61464 0.93062 0.0
C896 C 0.5073 0.623 0.97612 0.0
C897 C 0.47632 0.62968 0.89752 0.0
C898 C 0.46342 0.62238 0.84119 0.0
C899 C 0.43826 0.62183 0.84025 0.0
C900 C 0.42641 0.61531 0.78578 0.0
C901 C 0.4396 0.60973 0.73194 0.0
C902 C 0.46466 0.61046 0.73273 0.0
C903 C 0.47655 0.61651 0.78727 0.0
H904 H 0.43042 0.60492 0.68962 0.0
H905 H 0.56188 0.6774 0.17532 0.0
H906 H 0.82233 0.64207 0.09402 0.0
H907 H 0.85884 0.62966 0.03895 0.0
H908 H 0.81671 0.59026 0.91337 0.0
H909 H 0.78062 0.60128 0.96936 0.0
H910 H 0.84334 0.56905 0.02879 0.0
H911 H 0.85074 0.61767 0.84579 0.0
H912 H 0.85735 0.65373 0.7914 0.0
H913 H 0.92591 0.6586 0.8814 0.0
H914 H 0.91955 0.62274 0.93714 0.0
H915 H 0.91362 0.4857 0.87638 0.0
H916 H 0.88604 0.51427 0.91878 0.0
H917 H 0.94489 0.55862 0.94754 0.0
H918 H 0.9726 0.53036 0.90259 0.0
H919 H 0.91336 0.58089 0.89132 0.0
H920 H 0.90929 0.53279 0.06996 0.0
H921 H 0.90408 0.49821 0.13214 0.0
H922 H 0.83199 0.49359 0.06349 0.0
H923 H 0.8368 0.52815 0.00073 0.0
C924 C 0.82068 0.63157 0.05288 0.0
C925 C 0.79875 0.62148 0.03886 0.0
C926 C 0.8416 0.62473 0.021 0.0
C927 C 0.84039 0.6085 0.9736 0.0
C928 C 0.81792 0.60264 0.95047 0.0
C929 C 0.79714 0.60907 0.98293 0.0
C930 C 0.86049 0.59197 0.96584 0.0
C931 C 0.85869 0.57148 -0.00155 0.0
C932 C 0.88095 0.59589 0.92919 0.0
C933 C 0.88446 0.61768 0.89649 0.0
C934 C 0.86704 0.62659 0.85481 0.0
C935 C 0.8708 0.64696 0.82347 0.0
C936 C 0.89198 0.6585 0.83314 0.0
C937 C 0.90948 0.64968 0.87407 0.0
C938 C 0.9058 0.62933 0.90553 0.0
C939 C 0.92091 0.50115 0.89435 0.0
C940 C 0.94526 0.50585 0.88611 0.0
C941 C 0.90504 0.51758 0.9186 0.0
C942 C 0.91339 0.53869 0.93716 0.0
C943 C 0.93807 0.54254 0.93383 0.0
C944 C 0.95391 0.52629 0.90862 0.0
C945 C 0.89615 0.55743 0.95324 0.0
C946 C 0.89843 0.57843 0.92283 0.0
C947 C 0.87631 0.5542 0.99329 0.0
C948 C 0.87345 0.53319 0.03062 0.0
C949 C 0.89234 0.52445 0.06805 0.0
C950 C 0.88946 0.50481 0.10341 0.0
C951 C 0.86772 0.4937 0.10178 0.0
C952 C 0.84882 0.50223 0.06481 0.0
C953 C 0.8516 0.52189 0.02947 0.0
H954 H 0.86552 0.47849 0.12916 0.0
H955 H 0.89486 0.67425 0.80875 0.0
H956 H 0.04866 0.22847 0.09576 0.0
H957 H 0.04614 0.19838 0.01685 0.0
H958 H 0.97258 0.18824 0.06945 0.0
H959 H 0.97486 0.21848 0.14671 0.0
H960 H 0.02533 0.15064 0.07419 0.0
H961 H 0.95581 0.19032 0.9624 0.0
H962 H 0.93926 0.22519 0.91284 0.0
H963 H 0.00223 0.22891 0.79756 0.0
H964 H 0.01926 0.1942 0.84738 0.0
H965 H 0.95943 0.06633 0.9038 0.0
H966 H 0.97051 0.10016 0.96171 0.0
H967 H 0.031 0.10836 0.83878 0.0
H968 H 0.02057 0.07382 0.78212 0.0
H969 H 0.99007 0.14808 0.86143 0.0
H970 H 0.04982 0.0976 0.95491 0.0
H971 H 0.06491 0.06343 0.01025 0.0
H972 H 0.02034 0.08037 0.16847 0.0
H973 H 0.00444 0.11431 0.11335 0.0
C974 C 0.0316 0.2207 0.08777 0.0
C975 C 0.01179 0.22615 0.12621 0.0
C976 C 0.03026 0.20331 0.04342 0.0
C977 C 0.0091 0.19123 0.037 0.0
C978 C 0.98889 0.19766 0.0726 0.0
C979 C 0.99015 0.21507 0.11639 0.0
C980 C 0.0089 0.17008 -0.00013 0.0
C981 C 0.01776 0.14999 0.02763 0.0
C982 C 0.99903 0.16936 0.93922 0.0
C983 C 0.98886 0.18995 0.90894 0.0
C984 C 0.96617 0.19872 0.92686 0.0
C985 C 0.9567 0.21841 0.89871 0.0
C986 C 0.96972 0.2293 0.85221 0.0
C987 C 0.99221 0.22049 0.8337 0.0
C988 C 0.00178 0.20083 0.8619 0.0
C989 C 0.97538 0.07509 0.88993 0.0
C990 C 0.98924 0.0674 0.83877 0.0
C991 C 0.98166 0.09439 0.92297 0.0
C992 C 0.00156 0.1067 0.90454 0.0
C993 C 0.01565 0.09897 0.85391 0.0
C994 C 0.00978 0.07921 0.82191 0.0
C995 C 0.00645 0.12839 0.93603 0.0
C996 C 0.99818 0.14862 0.90753 0.0
C997 C 0.01654 0.12909 -0.00324 0.0
C998 C 0.02561 0.10833 0.0294 0.0
C999 C 0.04286 0.09383 0.00097 0.0
C1000 C 0.05165 0.07453 0.03244 0.0
C1001 C 0.0435 0.06966 0.0927 0.0
C1002 C 0.02655 0.08409 0.12165 0.0
C1003 C 0.01762 0.10335 0.09024 0.0
H1004 H 0.05039 0.05475 0.11707 0.0
H1005 H 0.96236 0.24454 0.83041 0.0
H1006 H 0.30718 0.13087 0.15643 0.0
H1007 H 0.33717 0.11608 0.08467 0.0
H1008 H 0.30095 0.05267 0.07777 0.0
H1009 H 0.2727 0.06654 0.15733 0.0
H1010 H 0.34286 0.04214 0.09019 0.0
H1011 H 0.30866 0.09965 0.94655 0.0
H1012 H 0.29644 0.13866 0.9163 0.0
H1013 H 0.36811 0.16039 0.94963 0.0
H1014 H 0.38069 0.12159 0.9805 0.0
H1015 H 0.40042 -0.00673 0.83064 0.0
H1016 H 0.37313 0.01304 0.90172 0.0
H1017 H 0.42554 0.0639 0.93244 0.0
H1018 H 0.45331 0.04411 0.85963 0.0
H1019 H 0.38008 0.0825 0.91307 0.0
H1020 H 0.41512 0.02559 0.04557 0.0
H1021 H 0.42884 0.98691 0.0745 0.0
H1022 H 0.35645 0.96451 0.06239 0.0
H1023 H 0.34233 0.00296 0.0324 0.0
C1024 C 0.30541 0.11378 0.13942 0.0
C1025 C 0.28773 0.09977 0.16434 0.0
C1026 C 0.32251 0.10538 0.09684 0.0
C1027 C 0.32167 0.0831 0.07451 0.0
C1028 C 0.30249 0.06982 0.09457 0.0
C1029 C 0.28591 0.07793 0.13941 0.0
C1030 C 0.34173 0.07289 0.0354 0.0
C1031 C 0.35047 0.05094 0.05064 0.0
C1032 C 0.35313 0.08458 0.98579 0.0
C1033 C 0.34555 0.10776 0.96615 0.0
C1034 C 0.32177 0.11277 0.94752 0.0
C1035 C 0.3148 0.13485 0.93029 0.0
C1036 C 0.33147 0.15199 0.93114 0.0
C1037 C 0.3552 0.1471 0.94898 0.0
C1038 C 0.36228 0.12508 0.96622 0.0
C1039 C 0.40639 0.00861 0.85247 0.0
C1040 C 0.42923 0.01702 0.83927 0.0
C1041 C 0.39069 0.01986 0.89359 0.0
C1042 C 0.39731 0.03982 0.92324 0.0
C1043 C 0.42007 0.04844 0.91035 0.0
C1044 C 0.43597 0.03706 0.86899 0.0
C1045 C 0.37996 0.05163 0.96629 0.0
C1046 C 0.37208 0.07382 0.95235 0.0
C1047 C 0.36932 0.04024 0.01707 0.0
C1048 C 0.37769 0.01716 0.03634 0.0
C1049 C 0.40214 0.01239 0.04874 0.0
C1050 C 0.40999 0.9905 0.06534 0.0
C1051 C 0.39353 0.97325 0.07017 0.0
C1052 C 0.36918 0.97788 0.05862 0.0
C1053 C 0.36124 -0.00027 0.04189 0.0
H1054 H 0.39965 0.95631 0.08294 0.0
H1055 H 0.32602 0.16907 0.91791 0.0
H1056 H 0.46947 0.26462 0.07963 0.0
H1057 H 0.47333 0.29519 0.00237 0.0
H1058 H 0.5407 0.31272 0.08502 0.0
H1059 H 0.53715 0.28189 0.16123 0.0
H1060 H 0.49525 0.34724 0.08238 0.0
H1061 H 0.55232 0.30162 0.96477 0.0
H1062 H 0.56667 0.26758 0.90794 0.0
H1063 H 0.50842 0.27582 0.77743 0.0
H1064 H 0.4935 0.30975 0.83424 0.0
H1065 H 0.55262 0.42627 0.86355 0.0
H1066 H 0.54584 0.39229 0.92547 0.0
H1067 H 0.47118 0.39492 0.87238 0.0
H1068 H 0.47763 0.42971 0.81193 0.0
H1069 H 0.51699 0.34996 0.85733 0.0
H1070 H 0.46003 0.39706 0.98398 0.0
H1071 H 0.44911 0.43142 0.0441 0.0
H1072 H 0.51108 0.42048 0.16109 0.0
H1073 H 0.52264 0.38632 0.1006 0.0
C1074 C 0.48572 0.27419 0.0789 0.0
C1075 C 0.50327 0.27064 0.12538 0.0
C1076 C 0.48776 0.29183 0.03543 0.0
C1077 C 0.5072 0.3063 0.03856 0.0
C1078 C 0.52557 0.30173 0.08202 0.0
C1079 C 0.52372 0.28393 0.1248 0.0
C1080 C 0.50687 0.32773 0.00231 0.0
C1081 C 0.49999 0.34784 0.03316 0.0
C1082 C 0.51287 0.32846 0.93815 0.0
C1083 C 0.52156 0.30796 0.90437 0.0
C1084 C 0.54236 0.29597 0.92453 0.0
C1085 C 0.55066 0.27676 0.89217 0.0
C1086 C 0.5384 0.26947 0.83928 0.0
C1087 C 0.51785 0.28144 0.81854 0.0
C1088 C 0.50946 0.30066 0.8508 0.0
C1089 C 0.53464 0.41987 0.86579 0.0
C1090 C 0.51564 0.43066 0.83275 0.0
C1091 C 0.53082 0.40045 0.90122 0.0
C1092 C 0.50802 0.39119 0.9038 0.0
C1093 C 0.48885 0.40203 0.87174 0.0
C1094 C 0.49254 0.42188 0.8373 0.0
C1095 C 0.50508 0.36945 0.93722 0.0
C1096 C 0.51171 0.34928 0.90618 0.0
C1097 C 0.49907 0.36869 0.00145 0.0
C1098 C 0.49244 0.38943 0.03698 0.0
C1099 C 0.47156 0.40223 0.02174 0.0
C1100 C 0.4652 0.4216 0.05608 0.0
C1101 C 0.47946 0.4282 0.10618 0.0
C1102 C 0.50011 0.41541 0.12209 0.0
C1103 C 0.50658 0.39606 0.08776 0.0
H1104 H 0.47446 0.44317 0.13283 0.0
H1105 H 0.54487 0.25461 0.81422 0.0
H1106 H 0.17962 0.38102 0.2074 0.0
H1107 H 0.15084 0.39449 0.13149 0.0
H1108 H 0.20205 0.44142 0.06014 0.0
H1109 H 0.22951 0.43091 0.1453 0.0
H1110 H 0.16452 0.46226 0.05716 0.0
H1111 H 0.17851 0.3852 0.98448 0.0
H1112 H 0.18092 0.34363 0.99513 0.0
H1113 H 0.10706 0.34355 0.05282 0.0
H1114 H 0.10427 0.38509 0.04308 0.0
H1115 H 0.0999 0.48923 0.7833 0.0
H1116 H 0.12857 0.47154 0.85554 0.0
H1117 H 0.07062 0.44154 0.95672 0.0
H1118 H 0.04147 0.45915 0.88333 0.0
H1119 H 0.10996 0.412 0.94373 0.0
H1120 H 0.09644 0.48866 0.01332 0.0
H1121 H 0.0938 0.53011 0.00018 0.0
H1122 H 0.16779 0.53013 0.94357 0.0
H1123 H 0.17078 0.48865 0.95561 0.0
C1124 C 0.18483 0.39461 0.17679 0.0
C1125 C 0.20686 0.40541 0.18509 0.0
C1126 C 0.16835 0.40185 0.13117 0.0
C1127 C 0.17401 0.41878 0.08792 0.0
C1128 C 0.19683 0.42842 0.09275 0.0
C1129 C 0.21288 0.42207 0.14112 0.0
C1130 C 0.15564 0.4275 0.04106 0.0
C1131 C 0.15312 0.45102 0.03151 0.0
C1132 C 0.13963 0.41329 0.00865 0.0
C1133 C 0.14124 0.38827 0.01334 0.0
C1134 C 0.16281 0.37631 -0.00046 0.0
C1135 C 0.16424 0.35276 0.00545 0.0
C1136 C 0.14417 0.34097 0.02472 0.0
C1137 C 0.12259 0.35269 0.03789 0.0
C1138 C 0.12106 0.37623 0.03205 0.0
C1139 C 0.0931 0.47882 0.82069 0.0
C1140 C 0.06823 0.47587 0.82771 0.0
C1141 C 0.10962 0.46873 0.86222 0.0
C1142 C 0.10183 0.45557 0.91255 0.0
C1143 C 0.0771 0.45176 0.91851 0.0
C1144 C 0.06043 0.46183 0.87651 0.0
C1145 C 0.11964 0.44637 0.9593 0.0
C1146 C 0.12179 0.42295 0.96907 0.0
C1147 C 0.13549 0.46057 0.99137 0.0
C1148 C 0.13378 0.48554 0.98492 0.0
C1149 C 0.11211 0.4975 -0.00227 0.0
C1150 C 0.11055 0.52099 0.99052 0.0
C1151 C 0.1306 0.53274 0.97093 0.0
C1152 C 0.15227 0.52101 0.9587 0.0
C1153 C 0.15391 0.49752 0.96579 0.0
H1154 H 0.12936 0.55092 0.96533 0.0
H1155 H 0.14533 0.32274 0.02937 0.0
H1156 H 0.01161 0.76533 0.35985 0.0
H1157 H 0.00731 0.7959 0.43669 0.0
H1158 H 0.94892 0.82583 0.32908 0.0
H1159 H 0.95334 0.79526 0.25235 0.0
H1160 H 0.98386 0.85526 0.34666 0.0
H1161 H 0.93924 0.80627 0.47593 0.0
H1162 H 0.93034 0.77119 0.53262 0.0
H1163 H 0.99324 0.77839 0.64599 0.0
H1164 H 0.00276 0.81334 0.58926 0.0
H1165 H 0.97062 0.94838 0.55932 0.0
H1166 H 0.96154 0.91475 0.49777 0.0
H1167 H 0.02093 0.87814 0.58454 0.0
H1168 H 0.03011 0.91146 0.6459 0.0
H1169 H 0.98047 0.8527 0.57859 0.0
H1170 H 0.02768 0.89824 0.43962 0.0
H1171 H 0.03696 0.93349 0.38393 0.0
H1172 H 0.96884 0.93262 0.29015 0.0
H1173 H 0.95914 0.89739 0.34547 0.0
C1174 C 0.99705 0.77778 0.35461 0.0
C1175 C 0.98242 0.77772 0.3012 0.0
C1176 C 0.99473 0.79539 0.39811 0.0
C1177 C 0.97781 0.81323 0.3886 0.0
C1178 C 0.96207 0.81227 0.33744 0.0
C1179 C 0.96434 0.79464 0.29417 0.0
C1180 C 0.97852 0.83405 0.42746 0.0
C1181 C 0.98258 0.85474 0.39733 0.0
C1182 C 0.97745 0.83337 0.49362 0.0
C1183 C 0.97183 0.81234 0.52792 0.0
C1184 C 0.9513 0.80027 0.51256 0.0
C1185 C 0.94612 0.78042 0.54477 0.0
C1186 C 0.96124 0.77253 0.59277 0.0
C1187 C 0.98155 0.78451 0.60874 0.0
C1188 C 0.98684 0.80436 0.5766 0.0
C1189 C 0.9817 0.93315 0.56536 0.0
C1190 C 0.00116 0.93268 0.60732 0.0
C1191 C 0.97652 0.91397 0.53011 0.0
C1192 C 0.99063 0.89395 0.53643 0.0
C1193 C 0.00977 0.89336 0.57902 0.0
C1194 C 0.01507 0.91251 0.6138 0.0
C1195 C 0.98597 0.87371 0.49774 0.0
C1196 C 0.98134 0.85318 0.52788 0.0
C1197 C 0.98655 0.87449 0.43159 0.0
C1198 C 0.99257 0.89536 0.3972 0.0
C1199 C 0.01464 0.90564 0.40734 0.0
C1200 C 0.01999 0.92559 0.37578 0.0
C1201 C 0.00344 0.93536 0.33379 0.0
C1202 C 0.9816 0.92508 0.32284 0.0
C1203 C 0.9762 0.90508 0.35413 0.0
H1204 H 0.00759 0.95082 0.30943 0.0
H1205 H 0.95719 0.75716 0.61768 0.0
H1206 H 0.73036 0.89433 0.34671 0.0
H1207 H 0.70032 0.90929 0.42178 0.0
H1208 H 0.66811 0.95053 0.27531 0.0
H1209 H 0.6986 0.93651 0.20214 0.0
H1210 H 0.66354 0.97272 0.37385 0.0
H1211 H 0.64954 0.89616 0.32238 0.0
H1212 H 0.65715 0.85501 0.31286 0.0
H1213 H 0.66257 0.84932 0.51284 0.0
H1214 H 0.6553 0.89051 0.52316 0.0
H1215 H 0.5482 0.99091 0.51133 0.0
H1216 H 0.5788 0.97525 0.43876 0.0
H1217 H 0.61588 0.94302 0.59353 0.0
H1218 H 0.58586 0.95918 0.66621 0.0
H1219 H 0.61755 0.91627 0.49208 0.0
H1220 H 0.63203 -0.00478 0.53792 0.0
H1221 H 0.62078 0.03586 0.54028 0.0
H1222 H 0.61055 0.03576 0.34104 0.0
H1223 H 0.62147 -0.00498 0.33765 0.0
C1224 C 0.71738 0.90722 0.33157 0.0
C1225 C 0.71686 0.91441 0.26892 0.0
C1226 C 0.69994 0.9155 0.37406 0.0
C1227 C 0.68141 0.93068 0.35408 0.0
C1228 C 0.68202 0.93887 0.29235 0.0
C1229 C 0.69954 0.9309 0.25045 0.0
C1230 C 0.66066 0.93728 0.3955 0.0
C1231 C 0.65343 0.96024 0.39911 0.0
C1232 C 0.6473 0.92118 0.42917 0.0
C1233 C 0.65214 0.89646 0.42331 0.0
C1234 C 0.65254 0.88613 0.36414 0.0
C1235 C 0.65677 0.86281 0.35865 0.0
C1236 C 0.66042 0.84955 0.41223 0.0
C1237 C 0.65981 0.85962 0.47136 0.0
C1238 C 0.65564 0.88296 0.47701 0.0
C1239 C 0.56268 0.98011 0.52946 0.0
C1240 C 0.5648 0.9762 0.59409 0.0
C1241 C 0.58023 0.97132 0.48819 0.0
C1242 C 0.60002 0.9584 0.51109 0.0
C1243 C 0.60107 0.95326 0.57517 0.0
C1244 C 0.58388 0.96238 0.61646 0.0
C1245 C 0.62061 0.95153 0.46988 0.0
C1246 C 0.62779 0.9286 0.46663 0.0
C1247 C 0.63366 0.96754 0.43554 0.0
C1248 C 0.62738 0.99206 0.43761 0.0
C1249 C 0.62726 0.00385 0.49468 0.0
C1250 C 0.62094 0.0269 0.49619 0.0
C1251 C 0.61491 0.03838 0.44083 0.0
C1252 C 0.6152 0.02684 0.38387 0.0
C1253 C 0.62148 0.00378 0.38212 0.0
H1254 H 0.61011 0.05624 0.44196 0.0
H1255 H 0.66365 0.83149 0.40796 0.0
H1256 H 0.53288 0.70303 0.24626 0.0
H1257 H 0.53524 0.67215 0.32248 0.0
H1258 H 0.48034 0.70589 0.4336 0.0
H1259 H 0.47749 0.73665 0.35592 0.0
H1260 H 0.51636 0.68156 0.50648 0.0
H1261 H 0.46439 0.67253 0.33352 0.0
H1262 H 0.44985 0.66911 0.22542 0.0
H1263 H 0.49486 0.60959 0.19963 0.0
H1264 H 0.51119 0.6137 0.3057 0.0
H1265 H 0.45311 0.57874 0.60306 0.0
H1266 H 0.46106 0.61286 0.5433 0.0
H1267 H 0.53551 0.59178 0.52595 0.0
H1268 H 0.52798 0.55775 0.5884 0.0
H1269 H 0.49092 0.60991 0.41034 0.0
H1270 H 0.54699 0.62584 0.58629 0.0
H1271 H 0.55484 0.62782 0.69978 0.0
H1272 H 0.49296 0.67219 0.72315 0.0
H1273 H 0.48454 0.67012 0.60982 0.0
C1274 C 0.52209 0.70433 0.28839 0.0
C1275 C 0.50512 0.72228 0.29551 0.0
C1276 C 0.52327 0.68657 0.33157 0.0
C1277 C 0.5077 0.68653 0.38319 0.0
C1278 C 0.49251 0.70559 0.39402 0.0
C1279 C 0.49105 0.72328 0.35005 0.0
C1280 C 0.50537 0.66557 0.42105 0.0
C1281 C 0.51094 0.6659 0.48518 0.0
C1282 C 0.49793 0.64511 0.39358 0.0
C1283 C 0.4895 0.64377 0.32758 0.0
C1284 C 0.47188 0.65918 0.30424 0.0
C1285 C 0.46328 0.65711 0.24312 0.0
C1286 C 0.47159 0.63929 0.20535 0.0
C1287 C 0.48864 0.62359 0.22853 0.0
C1288 C 0.49779 0.62594 0.28894 0.0
C1289 C 0.47126 0.58131 0.58698 0.0
C1290 C 0.48999 0.56561 0.60152 0.0
C1291 C 0.47574 0.6009 0.55293 0.0
C1292 C 0.49895 0.6051 0.53166 0.0
C1293 C 0.51758 0.58909 0.5435 0.0
C1294 C 0.51319 0.56957 0.57863 0.0
C1295 C 0.50306 0.62574 0.49422 0.0
C1296 C 0.49716 0.62547 0.4306 0.0
C1297 C 0.50984 0.6462 0.52205 0.0
C1298 C 0.51499 0.64759 0.58987 0.0
C1299 C 0.53492 0.6358 0.61577 0.0
C1300 C 0.53952 0.63701 0.68 0.0
C1301 C 0.5244 0.65013 0.71865 0.0
C1302 C 0.50466 0.66206 0.69314 0.0
C1303 C 0.49997 0.66087 0.62894 0.0
H1304 H 0.52795 0.65102 0.76838 0.0
H1305 H 0.46473 0.63757 0.15827 0.0
H1306 H 0.78004 0.55667 0.24063 0.0
H1307 H 0.80846 0.54324 0.32154 0.0
H1308 H 0.82975 0.6118 0.35226 0.0
H1309 H 0.80074 0.62521 0.27422 0.0
H1310 H 0.85575 0.5448 0.31998 0.0
H1311 H 0.85415 0.61836 0.49392 0.0
H1312 H 0.82621 0.64813 0.534 0.0
H1313 H 0.76655 0.60566 0.49989 0.0
H1314 H 0.79418 0.57554 0.46027 0.0
H1315 H 0.95632 0.53266 0.53515 0.0
H1316 H 0.92781 0.55039 0.45998 0.0
H1317 H 0.86875 0.53227 0.57858 0.0
H1318 H 0.89677 0.51461 0.6527 0.0
H1319 H 0.8632 0.57542 0.5347 0.0
H1320 H 0.88506 0.50081 0.45349 0.0
H1321 H 0.91287 0.47135 0.41131 0.0
H1322 H 0.93129 0.51528 0.25954 0.0
H1323 H 0.90395 0.54518 0.30156 0.0
C1324 C 0.79007 0.56891 0.2666 0.0
C1325 C 0.78795 0.59202 0.25147 0.0
C1326 C 0.80663 0.56121 0.31209 0.0
C1327 C 0.82135 0.57646 0.34339 0.0
C1328 C 0.81845 0.59964 0.32998 0.0
C1329 C 0.80179 0.60732 0.28524 0.0
C1330 C 0.84052 0.56813 0.38759 0.0
C1331 C 0.85731 0.55149 0.36698 0.0
C1332 C 0.84302 0.57708 0.44866 0.0
C1333 C 0.82622 0.59478 0.47374 0.0
C1334 C 0.83508 0.61534 0.49533 0.0
C1335 C 0.8193 0.63228 0.51786 0.0
C1336 C 0.79461 0.62881 0.51934 0.0
C1337 C 0.78567 0.60834 0.49854 0.0
C1338 C 0.80138 0.59134 0.47599 0.0
C1339 C 0.93727 0.53276 0.54538 0.0
C1340 C 0.92881 0.52213 0.59976 0.0
C1341 C 0.92099 0.54274 0.50226 0.0
C1342 C 0.89606 0.5425 0.51334 0.0
C1343 C 0.88782 0.53267 0.5688 0.0
C1344 C 0.90392 0.5225 0.61114 0.0
C1345 C 0.87815 0.55187 0.46744 0.0
C1346 C 0.86169 0.56882 0.48757 0.0
C1347 C 0.87606 0.54327 0.40591 0.0
C1348 C 0.89272 0.52536 0.38123 0.0
C1349 C 0.89527 0.5043 0.41159 0.0
C1350 C 0.91091 0.4875 0.38762 0.0
C1351 C 0.92392 0.49148 0.33294 0.0
C1352 C 0.92128 0.51225 0.30204 0.0
C1353 C 0.90573 0.52914 0.32595 0.0
H1354 H 0.93598 0.47843 0.3144 0.0
H1355 H 0.78242 0.64196 0.5367 0.0
loop_
_geom_bond_atom_site_label_1
_geom_bond_atom_site_label_2
_geom_bond_distance
_geom_bond_site_symmetry_2
_ccdc_geom_bond_type
H0 C3 0.931 . S
H1 C6 0.928 1_556 S
H2 C8 0.930 . S
C3 H0 0.931 . S
C3 C4 1.413 . S
C3 C5 1.360 . S
C4 C3 1.413 . S
C4 C8 1.429 . S
C5 C3 1.360 . S
C5 C6 1.372 . S
C6 H1 0.928 1_554 S
C6 C5 1.372 . S
C6 C7 1.404 . S
C7 C6 1.404 . S
C7 C8 1.391 . S
C8 H2 0.930 . S
C8 C4 1.429 . S
C8 C7 1.391 . S
H9 C12 0.931 . S
H10 C15 0.928 . S
H11 C17 0.930 . S
C12 H9 0.931 . S
C12 C13 1.413 . S
C12 C14 1.360 . S
C13 C12 1.413 . S
C13 C17 1.429 1_655 S
C14 C12 1.360 . S
C14 C15 1.373 . S
C15 H10 0.928 . S
C15 C14 1.373 . S
C15 C16 1.404 . S
C16 C15 1.404 . S
C16 C17 1.390 1_655 S
C17 H11 0.930 . S
C17 C13 1.429 1_455 S
C17 C16 1.390 1_455 S
H18 C21 0.931 . S
H19 C24 0.928 . S
H20 C26 0.930 . S
C21 H18 0.931 . S
C21 C22 1.413 . S
C21 C23 1.360 . S
C22 C21 1.413 . S
C22 C26 1.429 . S
C23 C21 1.360 . S
C23 C24 1.372 . S
C24 H19 0.928 . S
C24 C23 1.372 . S
C24 C25 1.404 . S
C25 C24 1.404 . S
C25 C26 1.391 . S
C26 H20 0.930 . S
C26 C22 1.429 . S
C26 C25 1.391 . S
H27 C30 0.931 . S
H28 C33 0.928 . S
H29 C35 0.930 . S
C30 H27 0.931 . S
C30 C31 1.413 . S
C30 C32 1.360 . S
C31 C30 1.413 . S
C31 C35 1.429 . S
C32 C30 1.360 . S
C32 C33 1.372 . S
C33 H28 0.928 . S
C33 C32 1.372 . S
C33 C34 1.404 . S
C34 C33 1.404 . S
C34 C35 1.391 . S
C35 H29 0.930 . S
C35 C31 1.429 . S
C35 C34 1.391 . S
H36 C39 0.931 . S
H37 C42 0.928 . S
H38 C44 0.930 . S
C39 H36 0.931 . S
C39 C40 1.413 . S
C39 C41 1.360 . S
C40 C39 1.413 . S
C40 C44 1.429 . S
C41 C39 1.360 . S
C41 C42 1.372 . S
C42 H37 0.928 . S
C42 C41 1.372 . S
C42 C43 1.404 . S
C43 C42 1.404 . S
C43 C44 1.391 . S
C44 H38 0.930 . S
C44 C40 1.429 . S
C44 C43 1.391 . S
H45 C48 0.930 . S
H46 C51 0.928 . S
H47 C53 0.929 . S
C48 H45 0.930 . S
C48 C49 1.413 . S
C48 C50 1.360 . S
C49 C48 1.413 . S
C49 C53 1.429 1_655 S
C50 C48 1.360 . S
C50 C51 1.372 . S
C51 H46 0.928 . S
C51 C50 1.372 . S
C51 C52 1.404 . S
C52 C51 1.404 . S
C52 C53 1.391 1_655 S
C53 H47 0.929 . S
C53 C49 1.429 1_455 S
C53 C52 1.391 1_455 S
H54 C57 0.931 . S
H55 C60 0.928 . S
H56 C62 0.930 . S
C57 H54 0.931 . S
C57 C58 1.413 . S
C57 C59 1.360 . S
C58 C57 1.413 . S
C58 C62 1.429 . S
C59 C57 1.360 . S
C59 C60 1.372 . S
C60 H55 0.928 . S
C60 C59 1.372 . S
C60 C61 1.404 . S
C61 C60 1.404 . S
C61 C62 1.391 . S
C62 H56 0.930 . S
C62 C58 1.429 . S
C62 C61 1.391 . S
H63 C66 0.931 . S
H64 C69 0.928 . S
H65 C71 0.930 . S
C66 H63 0.931 . S
C66 C67 1.413 . S
C66 C68 1.360 . S
C67 C66 1.413 . S
C67 C71 1.429 . S
C68 C66 1.360 . S
C68 C69 1.372 . S
C69 H64 0.928 . S
C69 C68 1.372 . S
C69 C70 1.404 . S
C70 C69 1.404 . S
C70 C71 1.391 . S
C71 H65 0.930 . S
C71 C67 1.429 . S
C71 C70 1.391 . S
O72 Mg73 1.990 . S
O72 C86 1.253 . S
Mg73 O72 1.990 . S
Mg73 O76 2.180 1_565 S
Mg73 O77 2.117 . S
Mg73 O91 2.030 . S
O74 Mg75 2.072 1_465 S
O74 C86 1.260 . S
Mg75 O74 2.072 1_645 S
Mg75 O76 2.099 1_655 S
Mg75 O78 2.079 . S
Mg75 O79 2.072 1_655 S
Mg75 O81 2.099 . S
Mg75 O92 2.079 1_545 S
O76 Mg73 2.180 1_545 S
O76 Mg75 2.099 1_455 S
O76 C87 1.279 . S
O77 Mg73 2.117 . S
O77 C87 1.250 1_565 S
O78 Mg75 2.079 . S
O78 C88 1.264 . S
O79 Mg75 2.072 1_455 S
O79 C89 1.260 . S
Mg80 O81 2.180 . S
Mg80 O82 2.030 . S
Mg80 O83 1.990 . S
Mg80 O84 2.117 . S
O81 Mg75 2.099 . S
O81 Mg80 2.180 . S
O81 C90 1.279 . S
O82 Mg80 2.030 . S
O82 C88 1.248 . S
O83 Mg80 1.990 . S
O83 C89 1.253 1_655 S
O84 Mg80 2.117 . S
O84 C90 1.250 . S
C85 O91 1.248 1_655 S
C85 O92 1.264 . S
C86 O72 1.253 . S
C86 O74 1.260 . S
C87 O76 1.279 . S
C87 O77 1.250 1_545 S
C88 O78 1.264 . S
C88 O82 1.248 . S
C89 O79 1.260 . S
C89 O83 1.253 1_455 S
C90 O81 1.279 . S
C90 O84 1.250 . S
O91 Mg73 2.030 . S
O91 C85 1.248 1_455 S
O92 Mg75 2.079 1_565 S
O92 C85 1.264 . S
O93 Mg94 1.990 1_545 S
O93 C107 1.253 . S
Mg94 O93 1.990 1_565 S
Mg94 O97 2.180 . S
Mg94 O98 2.117 . S
Mg94 O112 2.030 1_565 S
O95 Mg96 2.072 . S
O95 C107 1.260 . S
Mg96 O95 2.072 . S
Mg96 O97 2.099 1_545 S
Mg96 O99 2.079 1_545 S
Mg96 O100 2.072 1_545 S
Mg96 O102 2.099 . S
Mg96 O113 2.079 . S
O97 Mg94 2.180 . S
O97 Mg96 2.099 1_565 S
O97 C108 1.279 . S
O98 Mg94 2.117 . S
O98 C108 1.250 . S
O99 Mg96 2.079 1_565 S
O99 C109 1.264 . S
O100 Mg96 2.072 1_565 S
O100 C110 1.260 1_565 S
Mg101 O102 2.180 . S
Mg101 O103 2.040 . S
Mg101 O104 1.990 . S
Mg101 O105 2.117 . S
O102 Mg96 2.099 . S
O102 Mg101 2.180 . S
O102 C111 1.279 . S
O103 Mg101 2.040 . S
O103 C109 1.241 1_545 S
O104 Mg101 1.990 . S
O104 C110 1.253 . S
O105 Mg101 2.117 . S
O105 C111 1.250 . S
C106 O112 1.248 . S
C106 O113 1.264 . S
C107 O93 1.253 . S
C107 O95 1.260 . S
C108 O97 1.279 . S
C108 O98 1.250 . S
C109 O99 1.264 . S
C109 O103 1.241 1_565 S
C110 O100 1.260 1_545 S
C110 O104 1.253 . S
C111 O102 1.279 . S
C111 O105 1.250 . S
O112 Mg94 2.030 1_545 S
O112 C106 1.248 . S
O113 Mg96 2.079 . S
O113 C106 1.264 . S
O114 Mg115 1.990 . S
O114 C128 1.253 . S
Mg115 O114 1.990 . S
Mg115 O118 2.180 . S
Mg115 O119 2.117 . S
Mg115 O133 2.030 . S
O116 Mg117 2.072 . S
O116 C128 1.260 . S
Mg117 O116 2.072 . S
Mg117 O118 2.099 . S
Mg117 O120 2.079 . S
Mg117 O121 2.072 . S
Mg117 O123 2.099 . S
Mg117 O134 2.079 . S
O118 Mg115 2.180 . S
O118 Mg117 2.099 . S
O118 C129 1.279 . S
O119 Mg115 2.117 . S
O119 C129 1.250 . S
O120 Mg117 2.079 . S
O120 C130 1.264 . S
O121 Mg117 2.072 . S
O121 C131 1.260 . S
Mg122 O123 2.180 . S
Mg122 O124 2.030 . S
Mg122 O125 1.990 . S
Mg122 O126 2.117 . S
O123 Mg117 2.099 . S
O123 Mg122 2.180 . S
O123 C132 1.279 . S
O124 Mg122 2.030 . S
O124 C130 1.248 . S
O125 Mg122 1.990 . S
O125 C131 1.253 . S
O126 Mg122 2.117 . S
O126 C132 1.250 . S
C127 O133 1.248 . S
C127 O134 1.264 . S
C128 O114 1.253 . S
C128 O116 1.260 . S
C129 O118 1.279 . S
C129 O119 1.250 . S
C130 O120 1.264 . S
C130 O124 1.248 . S
C131 O121 1.260 . S
C131 O125 1.253 . S
C132 O123 1.279 . S
C132 O126 1.250 . S
O133 Mg115 2.030 . S
O133 C127 1.248 . S
O134 Mg117 2.079 . S
O134 C127 1.264 . S
O135 Mg136 1.990 . S
O135 C149 1.253 . S
Mg136 O135 1.990 . S
Mg136 O139 2.180 . S
Mg136 O140 2.117 . S
Mg136 O154 2.030 . S
O137 Mg138 2.072 1_655 S
O137 C149 1.260 . S
Mg138 O137 2.072 1_455 S
Mg138 O139 2.099 1_455 S
Mg138 O141 2.079 . S
Mg138 O142 2.072 . S
Mg138 O144 2.099 . S
Mg138 O155 2.079 1_455 S
O139 Mg136 2.180 . S
O139 Mg138 2.099 1_655 S
O139 C150 1.279 . S
O140 Mg136 2.117 . S
O140 C150 1.250 . S
O141 Mg138 2.079 . S
O141 C151 1.264 . S
O142 Mg138 2.072 . S
O142 C152 1.260 . S
Mg143 O144 2.180 . S
Mg143 O145 2.030 . S
Mg143 O146 1.990 . S
Mg143 O147 2.117 . S
O144 Mg138 2.099 . S
O144 Mg143 2.180 . S
O144 C153 1.279 . S
O145 Mg143 2.030 . S
O145 C151 1.248 . S
O146 Mg143 1.990 . S
O146 C152 1.253 . S
O147 Mg143 2.117 . S
O147 C153 1.250 . S
C148 O154 1.248 . S
C148 O155 1.264 . S
C149 O135 1.253 . S
C149 O137 1.260 . S
C150 O139 1.279 . S
C150 O140 1.250 . S
C151 O141 1.264 . S
C151 O145 1.248 . S
C152 O142 1.260 . S
C152 O146 1.253 . S
C153 O144 1.279 . S
C153 O147 1.250 . S
O154 Mg136 2.030 . S
O154 C148 1.248 . S
O155 Mg138 2.079 1_655 S
O155 C148 1.264 . S
H156 C174 0.951 . S
H157 C176 0.951 . S
H158 C178 0.950 . S
H159 C179 0.950 . S
H160 C181 0.950 . S
H161 C184 0.950 . S
H162 C185 0.950 . S
H163 C187 0.950 . S
H164 C188 0.950 . S
H165 C189 0.951 . S
H166 C191 0.951 . S
H167 C193 0.950 . S
H168 C194 0.950 . S
H169 C196 0.950 . S
H170 C199 0.950 . S
H171 C200 0.950 . S
H172 C202 0.950 . S
H173 C203 0.950 . S
C174 H156 0.951 . S
C174 C175 1.366 . S
C174 C176 1.388 . S
C175 C174 1.366 . S
C175 C179 1.385 . S
C176 H157 0.951 . S
C176 C174 1.388 . S
C176 C177 1.366 . S
C177 C176 1.366 . S
C177 C178 1.414 . S
C177 C180 1.499 . S
C178 H158 0.950 . S
C178 C177 1.414 . S
C178 C179 1.374 . S
C179 H159 0.950 . S
C179 C175 1.385 . S
C179 C178 1.374 . S
C180 C177 1.499 . S
C180 C181 1.373 . S
C180 C182 1.389 . S
C181 H160 0.950 . S
C181 C180 1.373 . S
C181 C197 1.377 . S
C182 C180 1.389 . S
C182 C183 1.524 . S
C182 C196 1.377 . S
C183 C182 1.524 . S
C183 C184 1.397 . S
C183 C188 1.363 . S
C184 H161 0.950 . S
C184 C183 1.397 . S
C184 C185 1.334 . S
C185 H162 0.950 . S
C185 C184 1.334 . S
C185 C186 1.287 . S
C186 C185 1.287 . S
C186 C187 1.524 . S
C186 H205 0.913 1_545 S
C187 H163 0.950 . S
C187 C186 1.524 . S
C187 C188 1.415 . S
C188 H164 0.950 . S
C188 C183 1.363 . S
C188 C187 1.415 . S
C189 H165 0.951 . S
C189 C190 1.366 . S
C189 C191 1.388 . S
C190 C189 1.366 . S
C190 C194 1.385 . S
C191 H166 0.951 . S
C191 C189 1.388 . S
C191 C192 1.366 . S
C192 C191 1.366 . S
C192 C193 1.414 . S
C192 C195 1.499 . S
C193 H167 0.950 . S
C193 C192 1.414 . S
C193 C194 1.374 . S
C194 H168 0.950 . S
C194 C190 1.385 . S
C194 C193 1.374 . S
C195 C192 1.499 . S
C195 C196 1.373 . S
C195 C197 1.389 . S
C196 H169 0.950 . S
C196 C182 1.377 . S
C196 C195 1.373 . S
C197 C181 1.377 . S
C197 C195 1.389 . S
C197 C198 1.524 . S
C198 C197 1.524 . S
C198 C199 1.397 . S
C198 C203 1.363 . S
C199 H170 0.950 . S
C199 C198 1.397 . S
C199 C200 1.334 . S
C200 H171 0.950 . S
C200 C199 1.334 . S
C200 C201 1.287 . S
C201 C200 1.287 . S
C201 C202 1.524 . S
C201 H204 0.999 . S
C202 H172 0.950 . S
C202 C201 1.524 . S
C202 C203 1.415 . S
C203 H173 0.950 . S
C203 C198 1.363 . S
C203 C202 1.415 . S
H204 C201 0.999 . S
H205 C186 0.913 1_565 S
H206 C224 0.951 . S
H207 C226 0.951 . S
H208 C228 0.950 . S
H209 C229 0.950 . S
H210 C231 0.950 . S
H211 C234 0.950 . S
H212 C235 0.950 . S
H213 C237 0.950 . S
H214 C238 0.950 . S
H215 C239 0.951 . S
H216 C241 0.951 . S
H217 C243 0.950 . S
H218 C244 0.950 . S
H219 C246 0.950 . S
H220 C249 0.950 . S
H221 C250 0.950 . S
H222 C252 0.950 . S
H223 C253 0.950 . S
C224 H206 0.951 . S
C224 C225 1.366 . S
C224 C226 1.388 . S
C225 C224 1.366 . S
C225 C229 1.385 . S
C226 H207 0.951 . S
C226 C224 1.388 . S
C226 C227 1.366 . S
C227 C226 1.366 . S
C227 C228 1.414 . S
C227 C230 1.499 . S
C228 H208 0.950 . S
C228 C227 1.414 . S
C228 C229 1.374 . S
C229 H209 0.950 . S
C229 C225 1.385 . S
C229 C228 1.374 . S
C230 C227 1.499 . S
C230 C231 1.373 . S
C230 C232 1.389 . S
C231 H210 0.950 . S
C231 C230 1.373 . S
C231 C247 1.377 . S
C232 C230 1.389 . S
C232 C233 1.524 . S
C232 C246 1.377 . S
C233 C232 1.524 . S
C233 C234 1.397 . S
C233 C238 1.363 . S
C234 H211 0.950 . S
C234 C233 1.397 . S
C234 C235 1.334 . S
C235 H212 0.950 . S
C235 C234 1.334 . S
C235 C236 1.287 . S
C236 C235 1.287 . S
C236 C237 1.524 . S
C236 H255 0.913 . S
C237 H213 0.950 . S
C237 C236 1.524 . S
C237 C238 1.415 . S
C238 H214 0.950 . S
C238 C233 1.363 . S
C238 C237 1.415 . S
C239 H215 0.951 . S
C239 C240 1.366 . S
C239 C241 1.388 . S
C240 C239 1.366 . S
C240 C244 1.385 . S
C241 H216 0.951 . S
C241 C239 1.388 . S
C241 C242 1.366 . S
C242 C241 1.366 . S
C242 C243 1.414 . S
C242 C245 1.499 . S
C243 H217 0.950 . S
C243 C242 1.414 . S
C243 C244 1.374 . S
C244 H218 0.950 . S
C244 C240 1.385 . S
C244 C243 1.374 . S
C245 C242 1.499 . S
C245 C246 1.373 . S
C245 C247 1.389 . S
C246 H219 0.950 . S
C246 C232 1.377 . S
C246 C245 1.373 . S
C247 C231 1.377 . S
C247 C245 1.389 . S
C247 C248 1.524 . S
C248 C247 1.524 . S
C248 C249 1.397 . S
C248 C253 1.363 . S
C249 H220 0.950 . S
C249 C248 1.397 . S
C249 C250 1.334 . S
C250 H221 0.950 . S
C250 C249 1.334 . S
C250 C251 1.287 . S
C251 C250 1.287 . S
C251 C252 1.524 . S
C251 H254 0.999 . S
C252 H222 0.950 . S
C252 C251 1.524 . S
C252 C253 1.415 . S
C253 H223 0.950 . S
C253 C248 1.363 . S
C253 C252 1.415 . S
H254 C251 0.999 . S
H255 C236 0.913 . S
H256 C274 0.951 . S
H257 C276 0.951 . S
H258 C278 0.950 . S
H259 C279 0.950 . S
H260 C281 0.950 . S
H261 C284 0.950 . S
H262 C285 0.950 . S
H263 C287 0.950 . S
H264 C288 0.950 . S
H265 C289 0.951 . S
H266 C291 0.951 . S
H267 C293 0.950 . S
H268 C294 0.950 . S
H269 C296 0.950 . S
H270 C299 0.950 . S
H271 C300 0.950 . S
H272 C302 0.950 . S
H273 C303 0.950 . S
C274 H256 0.951 . S
C274 C275 1.366 . S
C274 C276 1.388 . S
C275 C274 1.366 . S
C275 C279 1.385 . S
C276 H257 0.951 . S
C276 C274 1.388 . S
C276 C277 1.366 . S
C277 C276 1.366 . S
C277 C278 1.414 . S
C277 C280 1.499 . S
C278 H258 0.950 . S
C278 C277 1.414 . S
C278 C279 1.374 . S
C279 H259 0.950 . S
C279 C275 1.385 . S
C279 C278 1.374 . S
C280 C277 1.499 . S
C280 C281 1.373 . S
C280 C282 1.389 . S
C281 H260 0.950 . S
C281 C280 1.373 . S
C281 C297 1.377 . S
C282 C280 1.389 . S
C282 C283 1.524 . S
C282 C296 1.377 . S
C283 C282 1.524 . S
C283 C284 1.397 . S
C283 C288 1.363 . S
C284 H261 0.950 . S
C284 C283 1.397 . S
C284 C285 1.334 . S
C285 H262 0.950 . S
C285 C284 1.334 . S
C285 C286 1.287 . S
C286 C285 1.287 . S
C286 C287 1.524 . S
C286 H305 0.913 . S
C287 H263 0.950 . S
C287 C286 1.524 . S
C287 C288 1.415 . S
C288 H264 0.950 . S
C288 C283 1.363 . S
C288 C287 1.415 . S
C289 H265 0.951 . S
C289 C290 1.366 . S
C289 C291 1.388 . S
C290 C289 1.366 . S
C290 C294 1.385 . S
C291 H266 0.951 . S
C291 C289 1.388 . S
C291 C292 1.366 . S
C292 C291 1.366 . S
C292 C293 1.414 . S
C292 C295 1.499 . S
C293 H267 0.950 . S
C293 C292 1.414 . S
C293 C294 1.374 . S
C294 H268 0.950 . S
C294 C290 1.385 . S
C294 C293 1.374 . S
C295 C292 1.499 . S
C295 C296 1.373 . S
C295 C297 1.389 . S
C296 H269 0.950 . S
C296 C282 1.377 . S
C296 C295 1.373 . S
C297 C281 1.377 . S
C297 C295 1.389 . S
C297 C298 1.524 . S
C298 C297 1.524 . S
C298 C299 1.397 . S
C298 C303 1.363 . S
C299 H270 0.950 . S
C299 C298 1.397 . S
C299 C300 1.334 . S
C300 H271 0.950 . S
C300 C299 1.334 . S
C300 C301 1.287 . S
C301 C300 1.287 . S
C301 C302 1.524 . S
C301 H304 0.999 . S
C302 H272 0.950 . S
C302 C301 1.524 . S
C302 C303 1.415 . S
C303 H273 0.950 . S
C303 C298 1.363 . S
C303 C302 1.415 . S
H304 C301 0.999 . S
H305 C286 0.913 . S
H306 C324 0.951 . S
H307 C326 0.951 . S
H308 C328 0.950 . S
H309 C329 0.950 . S
H310 C331 0.950 . S
H311 C334 0.950 . S
H312 C335 0.950 . S
H313 C337 0.950 . S
H314 C338 0.950 . S
H315 C339 0.951 . S
H316 C341 0.951 . S
H317 C343 0.950 . S
H318 C344 0.950 . S
H319 C346 0.950 . S
H320 C349 0.950 . S
H321 C350 0.950 . S
H322 C352 0.950 . S
H323 C353 0.950 . S
C324 H306 0.951 . S
C324 C325 1.376 . S
C324 C326 1.388 . S
C325 C324 1.376 . S
C325 C329 1.374 1_655 S
C326 H307 0.951 . S
C326 C324 1.388 . S
C326 C327 1.366 . S
C327 C326 1.366 . S
C327 C328 1.414 1_655 S
C327 C330 1.499 . S
C328 H308 0.950 . S
C328 C327 1.414 1_455 S
C328 C329 1.374 . S
C329 H309 0.950 . S
C329 C325 1.374 1_455 S
C329 C328 1.374 . S
C330 C327 1.499 . S
C330 C331 1.373 1_655 S
C330 C332 1.389 . S
C331 H310 0.950 . S
C331 C330 1.373 1_455 S
C331 C347 1.377 1_455 S
C332 C330 1.389 . S
C332 C333 1.524 . S
C332 C346 1.377 . S
C333 C332 1.524 . S
C333 C334 1.397 1_655 S
C333 C338 1.363 . S
C334 H311 0.950 . S
C334 C333 1.397 1_455 S
C334 C335 1.334 . S
C335 H312 0.950 . S
C335 C334 1.334 . S
C335 C336 1.287 1_455 S
C336 C335 1.287 1_655 S
C336 C337 1.524 . S
C336 H355 0.913 . S
C337 H313 0.950 . S
C337 C336 1.524 . S
C337 C338 1.415 . S
C338 H314 0.950 . S
C338 C333 1.363 . S
C338 C337 1.415 . S
C339 H315 0.951 . S
C339 C340 1.366 1_455 S
C339 C341 1.388 . S
C340 C339 1.366 1_655 S
C340 C344 1.385 . S
C341 H316 0.951 . S
C341 C339 1.388 . S
C341 C342 1.366 1_455 S
C342 C341 1.366 1_655 S
C342 C343 1.414 . S
C342 C345 1.499 . S
C343 H317 0.950 . S
C343 C342 1.414 . S
C343 C344 1.374 . S
C344 H318 0.950 . S
C344 C340 1.385 . S
C344 C343 1.374 . S
C345 C342 1.499 . S
C345 C346 1.373 . S
C345 C347 1.389 . S
C346 H319 0.950 . S
C346 C332 1.377 . S
C346 C345 1.373 . S
C347 C331 1.377 1_655 S
C347 C345 1.389 . S
C347 C348 1.525 1_655 S
C348 C347 1.525 1_455 S
C348 C349 1.398 1_455 S
C348 C353 1.361 . S
C349 H320 0.950 . S
C349 C348 1.398 1_655 S
C349 C350 1.334 . S
C350 H321 0.950 . S
C350 C349 1.334 . S
C350 C351 1.287 . S
C351 C350 1.287 . S
C351 C352 1.524 1_655 S
C351 H354 0.999 . S
C352 H322 0.950 . S
C352 C351 1.524 1_455 S
C352 C353 1.415 . S
C353 H323 0.950 . S
C353 C348 1.361 . S
C353 C352 1.415 . S
H354 C351 0.999 . S
H355 C336 0.913 . S
H356 C374 0.951 . S
H357 C376 0.951 . S
H358 C378 0.950 . S
H359 C379 0.950 . S
H360 C381 0.950 . S
H361 C384 0.950 . S
H362 C385 0.950 . S
H363 C387 0.950 . S
H364 C388 0.950 . S
H365 C389 0.951 . S
H366 C391 0.951 . S
H367 C393 0.950 1_545 S
H368 C394 0.999 . S
H369 C396 0.950 . S
H370 C399 0.950 . S
H371 C400 0.950 . S
H372 C402 0.950 . S
H373 C403 0.950 . S
C374 H356 0.951 . S
C374 C375 1.366 . S
C374 C376 1.388 . S
C375 C374 1.366 . S
C375 C379 1.385 . S
C376 H357 0.951 . S
C376 C374 1.388 . S
C376 C377 1.366 1_554 S
C377 C376 1.366 1_556 S
C377 C378 1.414 . S
C377 C380 1.499 . S
C378 H358 0.950 . S
C378 C377 1.414 . S
C378 C379 1.374 1_556 S
C379 H359 0.950 . S
C379 C375 1.385 . S
C379 C378 1.374 1_554 S
C380 C377 1.499 . S
C380 C381 1.373 . S
C380 C382 1.389 . S
C381 H360 0.950 . S
C381 C380 1.373 . S
C381 C397 1.377 . S
C382 C380 1.389 . S
C382 C383 1.524 . S
C382 C396 1.377 . S
C383 C382 1.524 . S
C383 C384 1.397 . S
C383 C388 1.363 1_565 S
C384 H361 0.950 . S
C384 C383 1.397 . S
C384 C385 1.334 . S
C385 H362 0.950 . S
C385 C384 1.334 . S
C385 C386 1.312 . S
C386 C385 1.312 . S
C386 C387 1.509 1_565 S
C386 H405 0.902 1_565 S
C387 H363 0.950 . S
C387 C386 1.509 1_545 S
C387 C388 1.415 . S
C388 H364 0.950 . S
C388 C383 1.363 1_545 S
C388 C387 1.415 . S
C389 H365 0.951 . S
C389 C390 1.366 . S
C389 C391 1.388 . S
C390 C389 1.366 . S
C390 C394 1.356 1_565 S
C391 H366 0.951 . S
C391 C389 1.388 . S
C391 C392 1.366 . S
C392 C391 1.366 . S
C392 C393 1.414 . S
C392 C395 1.499 . S
C393 H367 0.950 1_565 S
C393 C392 1.414 . S
C393 C394 1.356 1_565 S
C394 H368 0.999 . S
C394 C390 1.356 1_545 S
C394 C393 1.356 1_545 S
C395 C392 1.499 . S
C395 C396 1.373 . S
C395 C397 1.389 . S
C396 H369 0.950 . S
C396 C382 1.377 . S
C396 C395 1.373 . S
C397 C381 1.377 . S
C397 C395 1.389 . S
C397 C398 1.524 . S
C398 C397 1.524 . S
C398 C399 1.397 . S
C398 C403 1.363 . S
C399 H370 0.950 . S
C399 C398 1.397 . S
C399 C400 1.334 . S
C400 H371 0.950 . S
C400 C399 1.334 . S
C400 C401 1.287 . S
C401 C400 1.287 . S
C401 C402 1.524 . S
C401 H404 0.999 . S
C402 H372 0.950 . S
C402 C401 1.524 . S
C402 C403 1.415 . S
C403 H373 0.950 . S
C403 C398 1.363 . S
C403 C402 1.415 . S
H404 C401 0.999 . S
H405 C386 0.902 1_545 S
H406 C424 0.951 . S
H407 C426 0.951 . S
H408 C428 0.950 . S
H409 C429 0.950 . S
H410 C431 0.950 . S
H411 C434 0.950 . S
H412 C435 0.950 . S
H413 C437 0.950 . S
H414 C438 0.950 . S
H415 C439 0.951 . S
H416 C441 0.951 . S
H417 C443 0.950 . S
H418 C444 0.950 . S
H419 C446 0.950 . S
H420 C449 0.950 . S
H421 C450 0.950 . S
H422 C452 0.950 . S
H423 C453 0.950 . S
C424 H406 0.951 . S
C424 C425 1.366 . S
C424 C426 1.388 1_554 S
C425 C424 1.366 . S
C425 C429 1.385 . S
C426 H407 0.951 . S
C426 C424 1.388 1_556 S
C426 C427 1.366 1_556 S
C427 C426 1.366 1_554 S
C427 C428 1.414 . S
C427 C430 1.499 1_554 S
C428 H408 0.950 . S
C428 C427 1.414 . S
C428 C429 1.374 . S
C429 H409 0.950 . S
C429 C425 1.385 . S
C429 C428 1.374 . S
C430 C427 1.499 1_556 S
C430 C431 1.373 1_556 S
C430 C432 1.389 . S
C431 H410 0.950 . S
C431 C430 1.373 1_554 S
C431 C447 1.377 1_554 S
C432 C430 1.389 . S
C432 C433 1.524 . S
C432 C446 1.377 . S
C433 C432 1.524 . S
C433 C434 1.397 . S
C433 C438 1.363 . S
C434 H411 0.950 . S
C434 C433 1.397 . S
C434 C435 1.334 . S
C435 H412 0.950 . S
C435 C434 1.334 . S
C435 C436 1.287 . S
C436 C435 1.287 . S
C436 C437 1.524 . S
C436 H455 0.913 . S
C437 H413 0.950 . S
C437 C436 1.524 . S
C437 C438 1.415 . S
C438 H414 0.950 . S
C438 C433 1.363 . S
C438 C437 1.415 . S
C439 H415 0.951 . S
C439 C440 1.366 . S
C439 C441 1.388 . S
C440 C439 1.366 . S
C440 C444 1.385 . S
C441 H416 0.951 . S
C441 C439 1.388 . S
C441 C442 1.366 . S
C442 C441 1.366 . S
C442 C443 1.414 . S
C442 C445 1.499 . S
C443 H417 0.950 . S
C443 C442 1.414 . S
C443 C444 1.374 . S
C444 H418 0.950 . S
C444 C440 1.385 . S
C444 C443 1.374 . S
C445 C442 1.499 . S
C445 C446 1.373 . S
C445 C447 1.389 . S
C446 H419 0.950 . S
C446 C432 1.377 . S
C446 C445 1.373 . S
C447 C431 1.377 1_556 S
C447 C445 1.389 . S
C447 C448 1.524 1_556 S
C448 C447 1.524 1_554 S
C448 C449 1.397 1_554 S
C448 C453 1.363 . S
C449 H420 0.950 . S
C449 C448 1.397 1_556 S
C449 C450 1.334 1_556 S
C450 H421 0.950 . S
C450 C449 1.334 1_554 S
C450 C451 1.287 . S
C451 C450 1.287 . S
C451 C452 1.524 . S
C451 H454 0.999 . S
C452 H422 0.950 . S
C452 C451 1.524 . S
C452 C453 1.415 . S
C453 H423 0.950 . S
C453 C448 1.363 . S
C453 C452 1.415 . S
H454 C451 0.999 . S
H455 C436 0.913 . S
H456 C474 0.951 . S
H457 C476 0.951 . S
H458 C478 0.950 . S
H459 C479 0.950 . S
H460 C481 0.950 . S
H461 C484 0.950 . S
H462 C485 0.950 . S
H463 C487 0.950 . S
H464 C488 0.950 . S
H465 C489 0.951 . S
H466 C491 0.951 . S
H467 C493 0.950 . S
H468 C494 0.950 . S
H469 C496 0.950 . S
H470 C499 0.950 . S
H471 C500 0.950 . S
H472 C502 0.950 . S
H473 C503 0.950 . S
C474 H456 0.951 . S
C474 C475 1.366 . S
C474 C476 1.388 . S
C475 C474 1.366 . S
C475 C479 1.385 1_554 S
C476 H457 0.951 . S
C476 C474 1.388 . S
C476 C477 1.366 1_554 S
C477 C476 1.366 1_556 S
C477 C478 1.414 . S
C477 C480 1.499 . S
C478 H458 0.950 . S
C478 C477 1.414 . S
C478 C479 1.374 . S
C479 H459 0.950 . S
C479 C475 1.385 1_556 S
C479 C478 1.374 . S
C480 C477 1.499 . S
C480 C481 1.373 . S
C480 C482 1.389 . S
C481 H460 0.950 . S
C481 C480 1.373 . S
C481 C497 1.377 . S
C482 C480 1.389 . S
C482 C483 1.524 1_556 S
C482 C496 1.377 . S
C483 C482 1.524 1_554 S
C483 C484 1.397 1_554 S
C483 C488 1.363 . S
C484 H461 0.950 . S
C484 C483 1.397 1_556 S
C484 C485 1.334 1_556 S
C485 H462 0.950 . S
C485 C484 1.334 1_554 S
C485 C486 1.287 . S
C486 C485 1.287 . S
C486 C487 1.524 . S
C486 H505 0.913 . S
C487 H463 0.950 . S
C487 C486 1.524 . S
C487 C488 1.415 . S
C488 H464 0.950 . S
C488 C483 1.363 . S
C488 C487 1.415 . S
C489 H465 0.951 . S
C489 C490 1.366 . S
C489 C491 1.388 . S
C490 C489 1.366 . S
C490 C494 1.385 . S
C491 H466 0.951 . S
C491 C489 1.388 . S
C491 C492 1.366 . S
C492 C491 1.366 . S
C492 C493 1.414 . S
C492 C495 1.499 . S
C493 H467 0.950 . S
C493 C492 1.414 . S
C493 C494 1.374 . S
C494 H468 0.950 . S
C494 C490 1.385 . S
C494 C493 1.374 . S
C495 C492 1.499 . S
C495 C496 1.373 . S
C495 C497 1.389 . S
C496 H469 0.950 . S
C496 C482 1.377 . S
C496 C495 1.373 . S
C497 C481 1.377 . S
C497 C495 1.389 . S
C497 C498 1.524 . S
C498 C497 1.524 . S
C498 C499 1.397 . S
C498 C503 1.363 . S
C499 H470 0.950 . S
C499 C498 1.397 . S
C499 C500 1.334 . S
C500 H471 0.950 . S
C500 C499 1.334 . S
C500 C501 1.287 . S
C501 C500 1.287 . S
C501 C502 1.524 . S
C501 H504 0.999 . S
C502 H472 0.950 . S
C502 C501 1.524 . S
C502 C503 1.415 . S
C503 H473 0.950 . S
C503 C498 1.363 . S
C503 C502 1.415 . S
H504 C501 0.999 . S
H505 C486 0.913 . S
H506 C524 0.951 . S
H507 C526 0.949 1_556 S
H508 C528 0.950 . S
H509 C529 0.950 . S
H510 C531 0.950 1_554 S
H511 C534 0.950 1_655 S
H512 C535 0.954 . S
H513 C537 0.950 . S
H514 C538 0.950 . S
H515 C539 0.951 . S
H516 C541 0.951 . S
H517 C543 0.950 . S
H518 C544 0.950 . S
H519 C546 0.950 . S
H520 C549 0.973 1_556 S
H521 C550 0.950 1_455 S
H522 C552 0.950 . S
H523 C553 0.950 . S
C524 H506 0.951 . S
C524 C525 1.369 . S
C524 C526 1.388 . S
C525 C524 1.369 . S
C525 C529 1.381 1_455 S
C526 H507 0.949 1_554 S
C526 C524 1.388 . S
C526 C527 1.366 . S
C527 C526 1.366 . S
C527 C528 1.414 1_455 S
C527 C530 1.501 1_554 S
C528 H508 0.950 . S
C528 C527 1.414 1_655 S
C528 C529 1.374 . S
C529 H509 0.950 . S
C529 C525 1.381 1_655 S
C529 C528 1.374 . S
C530 C527 1.501 1_556 S
C530 C531 1.354 1_455 S
C530 C532 1.412 . S
C531 H510 0.950 1_556 S
C531 C530 1.354 1_655 S
C531 C547 1.377 . S
C532 C530 1.412 . S
C532 C533 1.524 . S
C532 C546 1.377 . S
C533 C532 1.524 . S
C533 C534 1.397 . S
C533 C538 1.363 . S
C534 H511 0.950 1_455 S
C534 C533 1.397 . S
C534 C535 1.334 . S
C535 H512 0.954 . S
C535 C534 1.334 . S
C535 C536 1.287 . S
C536 C535 1.287 . S
C536 C537 1.524 . S
C536 H555 0.913 . S
C537 H513 0.950 . S
C537 C536 1.524 . S
C537 C538 1.415 . S
C538 H514 0.950 . S
C538 C533 1.363 . S
C538 C537 1.415 . S
C539 H515 0.951 . S
C539 C540 1.366 1_655 S
C539 C541 1.388 . S
C540 C539 1.366 1_455 S
C540 C544 1.385 . S
C541 H516 0.951 . S
C541 C539 1.388 . S
C541 C542 1.366 1_655 S
C542 C541 1.366 1_455 S
C542 C543 1.414 . S
C542 C545 1.499 . S
C543 H517 0.950 . S
C543 C542 1.414 . S
C543 C544 1.374 . S
C544 H518 0.950 . S
C544 C540 1.385 . S
C544 C543 1.374 . S
C545 C542 1.499 . S
C545 C546 1.373 . S
C545 C547 1.389 1_455 S
C546 H519 0.950 . S
C546 C532 1.377 . S
C546 C545 1.373 . S
C547 C531 1.377 . S
C547 C545 1.389 1_655 S
C547 C548 1.524 . S
C548 C547 1.524 . S
C548 C549 1.381 1_656 S
C548 C553 1.363 1_556 S
C549 H520 0.973 1_554 S
C549 C548 1.381 1_454 S
C549 C550 1.327 1_455 S
C550 H521 0.950 1_655 S
C550 C549 1.327 1_655 S
C550 C551 1.287 . S
C551 C550 1.287 . S
C551 C552 1.524 . S
C551 H554 0.999 . S
C552 H522 0.950 . S
C552 C551 1.524 . S
C552 C553 1.415 . S
C553 H523 0.950 . S
C553 C548 1.363 1_554 S
C553 C552 1.415 . S
H554 C551 0.999 . S
H555 C536 0.913 . S
H556 C574 0.951 . S
H557 C576 0.951 . S
H558 C578 0.950 . S
H559 C579 0.950 . S
H560 C581 0.950 . S
H561 C584 0.950 . S
H562 C585 0.950 . S
H563 C587 0.950 . S
H564 C588 0.950 . S
H565 C589 0.951 . S
H566 C591 0.951 . S
H567 C593 0.950 . S
H568 C594 0.950 . S
H569 C596 0.950 . S
H570 C599 0.950 . S
H571 C600 0.950 . S
H572 C602 0.950 . S
H573 C603 0.950 . S
C574 H556 0.951 . S
C574 C575 1.366 . S
C574 C576 1.388 . S
C575 C574 1.366 . S
C575 C579 1.385 1_455 S
C576 H557 0.951 . S
C576 C574 1.388 . S
C576 C577 1.366 1_455 S
C577 C576 1.366 1_655 S
C577 C578 1.414 . S
C577 C580 1.499 . S
C578 H558 0.950 . S
C578 C577 1.414 . S
C578 C579 1.374 . S
C579 H559 0.950 . S
C579 C575 1.385 1_655 S
C579 C578 1.374 . S
C580 C577 1.499 . S
C580 C581 1.373 . S
C580 C582 1.389 1_655 S
C581 H560 0.950 . S
C581 C580 1.373 . S
C581 C597 1.377 . S
C582 C580 1.389 1_455 S
C582 C583 1.524 . S
C582 C596 1.377 . S
C583 C582 1.524 . S
C583 C584 1.397 . S
C583 C588 1.363 . S
C584 H561 0.950 . S
C584 C583 1.397 . S
C584 C585 1.334 . S
C585 H562 0.950 . S
C585 C584 1.334 . S
C585 C586 1.287 . S
C586 C585 1.287 . S
C586 C587 1.524 . S
C586 H605 0.913 . S
C587 H563 0.950 . S
C587 C586 1.524 . S
C587 C588 1.415 . S
C588 H564 0.950 . S
C588 C583 1.363 . S
C588 C587 1.415 . S
C589 H565 0.951 . S
C589 C590 1.366 . S
C589 C591 1.388 . S
C590 C589 1.366 . S
C590 C594 1.385 1_655 S
C591 H566 0.951 . S
C591 C589 1.388 . S
C591 C592 1.366 . S
C592 C591 1.366 . S
C592 C593 1.414 1_655 S
C592 C595 1.499 . S
C593 H567 0.950 . S
C593 C592 1.414 1_455 S
C593 C594 1.374 . S
C594 H568 0.950 . S
C594 C590 1.385 1_455 S
C594 C593 1.374 . S
C595 C592 1.499 . S
C595 C596 1.373 1_655 S
C595 C597 1.389 . S
C596 H569 0.950 . S
C596 C582 1.377 . S
C596 C595 1.373 1_455 S
C597 C581 1.377 . S
C597 C595 1.389 . S
C597 C598 1.524 . S
C598 C597 1.524 . S
C598 C599 1.397 . S
C598 C603 1.363 . S
C599 H570 0.950 . S
C599 C598 1.397 . S
C599 C600 1.334 . S
C600 H571 0.950 . S
C600 C599 1.334 . S
C600 C601 1.287 . S
C601 C600 1.287 . S
C601 C602 1.524 . S
C601 H604 0.999 . S
C602 H572 0.950 . S
C602 C601 1.524 . S
C602 C603 1.415 . S
C603 H573 0.950 . S
C603 C598 1.363 . S
C603 C602 1.415 . S
H604 C601 0.999 . S
H605 C586 0.913 . S
H606 C624 0.951 . S
H607 C626 0.951 . S
H608 C628 0.950 . S
H609 C629 0.950 . S
H610 C631 0.950 . S
H611 C634 0.950 . S
H612 C635 0.950 . S
H613 C637 0.950 . S
H614 C638 0.950 . S
H615 C639 0.951 1_565 S
H616 C641 0.951 . S
H617 C643 0.950 . S
H618 C644 0.950 . S
H619 C646 0.950 . S
H620 C649 0.950 . S
H621 C650 0.950 . S
H622 C652 0.950 . S
H623 C653 0.950 . S
C624 H606 0.951 . S
C624 C625 1.366 . S
C624 C626 1.388 . S
C625 C624 1.366 . S
C625 C629 1.385 . S
C626 H607 0.951 . S
C626 C624 1.388 . S
C626 C627 1.366 . S
C627 C626 1.366 . S
C627 C628 1.414 . S
C627 C630 1.499 . S
C628 H608 0.950 . S
C628 C627 1.414 . S
C628 C629 1.374 . S
C629 H609 0.950 . S
C629 C625 1.385 . S
C629 C628 1.374 . S
C630 C627 1.499 . S
C630 C631 1.373 . S
C630 C632 1.389 . S
C631 H610 0.950 . S
C631 C630 1.373 . S
C631 C647 1.377 . S
C632 C630 1.389 . S
C632 C633 1.524 . S
C632 C646 1.377 . S
C633 C632 1.524 . S
C633 C634 1.397 . S
C633 C638 1.363 . S
C634 H611 0.950 . S
C634 C633 1.397 . S
C634 C635 1.334 . S
C635 H612 0.950 . S
C635 C634 1.334 . S
C635 C636 1.287 . S
C636 C635 1.287 . S
C636 C637 1.524 . S
C636 H655 0.913 . S
C637 H613 0.950 . S
C637 C636 1.524 . S
C637 C638 1.415 . S
C638 H614 0.950 . S
C638 C633 1.363 . S
C638 C637 1.415 . S
C639 H615 0.951 1_545 S
C639 C640 1.366 . S
C639 C641 1.388 . S
C640 C639 1.366 . S
C640 C644 1.385 . S
C641 H616 0.951 . S
C641 C639 1.388 . S
C641 C642 1.366 . S
C642 C641 1.366 . S
C642 C643 1.414 . S
C642 C645 1.499 . S
C643 H617 0.950 . S
C643 C642 1.414 . S
C643 C644 1.374 . S
C644 H618 0.950 . S
C644 C640 1.385 . S
C644 C643 1.374 . S
C645 C642 1.499 . S
C645 C646 1.373 . S
C645 C647 1.389 . S
C646 H619 0.950 . S
C646 C632 1.377 . S
C646 C645 1.373 . S
C647 C631 1.377 . S
C647 C645 1.389 . S
C647 C648 1.524 . S
C648 C647 1.524 . S
C648 C649 1.397 . S
C648 C653 1.363 . S
C649 H620 0.950 . S
C649 C648 1.397 . S
C649 C650 1.334 . S
C650 H621 0.950 . S
C650 C649 1.334 . S
C650 C651 1.287 . S
C651 C650 1.287 . S
C651 C652 1.524 . S
C651 H654 0.999 . S
C652 H622 0.950 . S
C652 C651 1.524 . S
C652 C653 1.415 . S
C653 H623 0.950 . S
C653 C648 1.363 . S
C653 C652 1.415 . S
H654 C651 0.999 . S
H655 C636 0.913 . S
H656 C674 0.951 . S
H657 C676 0.951 . S
H658 C678 0.950 . S
H659 C679 0.950 . S
H660 C681 0.950 . S
H661 C684 0.950 . S
H662 C685 0.950 . S
H663 C687 0.950 . S
H664 C688 0.950 . S
H665 C689 0.951 . S
H666 C691 0.951 . S
H667 C693 0.950 . S
H668 C694 0.950 . S
H669 C696 0.950 . S
H670 C699 0.950 . S
H671 C700 0.950 . S
H672 C702 0.950 . S
H673 C703 0.950 . S
C674 H656 0.951 . S
C674 C675 1.366 . S
C674 C676 1.388 . S
C675 C674 1.366 . S
C675 C679 1.385 . S
C676 H657 0.951 . S
C676 C674 1.388 . S
C676 C677 1.366 . S
C677 C676 1.366 . S
C677 C678 1.414 . S
C677 C680 1.499 . S
C678 H658 0.950 . S
C678 C677 1.414 . S
C678 C679 1.374 . S
C679 H659 0.950 . S
C679 C675 1.385 . S
C679 C678 1.374 . S
C680 C677 1.499 . S
C680 C681 1.373 . S
C680 C682 1.389 . S
C681 H660 0.950 . S
C681 C680 1.373 . S
C681 C697 1.377 . S
C682 C680 1.389 . S
C682 C683 1.524 . S
C682 C696 1.377 . S
C683 C682 1.524 . S
C683 C684 1.397 . S
C683 C688 1.363 . S
C684 H661 0.950 . S
C684 C683 1.397 . S
C684 C685 1.334 . S
C685 H662 0.950 . S
C685 C684 1.334 . S
C685 C686 1.287 . S
C686 C685 1.287 . S
C686 C687 1.524 . S
C686 H705 0.913 . S
C687 H663 0.950 . S
C687 C686 1.524 . S
C687 C688 1.415 . S
C688 H664 0.950 . S
C688 C683 1.363 . S
C688 C687 1.415 . S
C689 H665 0.951 . S
C689 C690 1.366 . S
C689 C691 1.388 . S
C690 C689 1.366 . S
C690 C694 1.385 . S
C691 H666 0.951 . S
C691 C689 1.388 . S
C691 C692 1.366 . S
C692 C691 1.366 . S
C692 C693 1.414 . S
C692 C695 1.499 . S
C693 H667 0.950 . S
C693 C692 1.414 . S
C693 C694 1.374 . S
C694 H668 0.950 . S
C694 C690 1.385 . S
C694 C693 1.374 . S
C695 C692 1.499 . S
C695 C696 1.373 . S
C695 C697 1.389 . S
C696 H669 0.950 . S
C696 C682 1.377 . S
C696 C695 1.373 . S
C697 C681 1.377 . S
C697 C695 1.389 . S
C697 C698 1.524 . S
C698 C697 1.524 . S
C698 C699 1.397 . S
C698 C703 1.363 . S
C699 H670 0.950 . S
C699 C698 1.397 . S
C699 C700 1.334 . S
C700 H671 0.950 . S
C700 C699 1.334 . S
C700 C701 1.287 . S
C701 C700 1.287 . S
C701 C702 1.524 . S
C701 H704 0.999 . S
C702 H672 0.950 . S
C702 C701 1.524 . S
C702 C703 1.415 . S
C703 H673 0.950 . S
C703 C698 1.363 . S
C703 C702 1.415 . S
H704 C701 0.999 . S
H705 C686 0.913 . S
H706 C724 0.951 . S
H707 C726 0.951 . S
H708 C728 0.950 . S
H709 C729 0.950 . S
H710 C731 0.950 . S
H711 C734 0.950 . S
H712 C735 0.950 . S
H713 C737 0.950 . S
H714 C738 0.950 . S
H715 C739 0.951 . S
H716 C741 0.951 . S
H717 C743 0.950 . S
H718 C744 0.950 . S
H719 C746 0.950 . S
H720 C749 0.950 . S
H721 C750 0.950 . S
H722 C752 0.950 . S
H723 C753 0.950 . S
C724 H706 0.951 . S
C724 C725 1.366 . S
C724 C726 1.388 . S
C725 C724 1.366 . S
C725 C729 1.385 . S
C726 H707 0.951 . S
C726 C724 1.388 . S
C726 C727 1.366 . S
C727 C726 1.366 . S
C727 C728 1.414 . S
C727 C730 1.499 . S
C728 H708 0.950 . S
C728 C727 1.414 . S
C728 C729 1.374 . S
C729 H709 0.950 . S
C729 C725 1.385 . S
C729 C728 1.374 . S
C730 C727 1.499 . S
C730 C731 1.373 . S
C730 C732 1.389 . S
C731 H710 0.950 . S
C731 C730 1.373 . S
C731 C747 1.377 . S
C732 C730 1.389 . S
C732 C733 1.524 . S
C732 C746 1.377 . S
C733 C732 1.524 . S
C733 C734 1.397 . S
C733 C738 1.363 . S
C734 H711 0.950 . S
C734 C733 1.397 . S
C734 C735 1.334 . S
C735 H712 0.950 . S
C735 C734 1.334 . S
C735 C736 1.287 . S
C736 C735 1.287 . S
C736 C737 1.524 . S
C736 H755 0.913 . S
C737 H713 0.950 . S
C737 C736 1.524 . S
C737 C738 1.415 . S
C738 H714 0.950 . S
C738 C733 1.363 . S
C738 C737 1.415 . S
C739 H715 0.951 . S
C739 C740 1.366 . S
C739 C741 1.388 . S
C740 C739 1.366 . S
C740 C744 1.385 . S
C741 H716 0.951 . S
C741 C739 1.388 . S
C741 C742 1.366 . S
C742 C741 1.366 . S
C742 C743 1.414 . S
C742 C745 1.499 . S
C743 H717 0.950 . S
C743 C742 1.414 . S
C743 C744 1.374 . S
C744 H718 0.950 . S
C744 C740 1.385 . S
C744 C743 1.374 . S
C745 C742 1.499 . S
C745 C746 1.373 . S
C745 C747 1.389 . S
C746 H719 0.950 . S
C746 C732 1.377 . S
C746 C745 1.373 . S
C747 C731 1.377 . S
C747 C745 1.389 . S
C747 C748 1.524 . S
C748 C747 1.524 . S
C748 C749 1.397 . S
C748 C753 1.363 . S
C749 H720 0.950 . S
C749 C748 1.397 . S
C749 C750 1.334 . S
C750 H721 0.950 . S
C750 C749 1.334 . S
C750 C751 1.287 . S
C751 C750 1.287 . S
C751 C752 1.524 . S
C751 H754 0.999 . S
C752 H722 0.950 . S
C752 C751 1.524 . S
C752 C753 1.415 . S
C753 H723 0.950 . S
C753 C748 1.363 . S
C753 C752 1.415 . S
H754 C751 0.999 . S
H755 C736 0.913 . S
H756 C774 0.951 . S
H757 C776 0.950 . S
H758 C778 0.950 . S
H759 C779 0.950 . S
H760 C781 0.950 1_554 S
H761 C784 0.950 . S
H762 C785 0.950 . S
H763 C787 0.950 . S
H764 C788 0.950 . S
H765 C789 0.951 . S
H766 C791 0.951 . S
H767 C793 0.950 . S
H768 C794 0.950 . S
H769 C796 0.950 . S
H770 C799 0.950 . S
H771 C800 0.950 . S
H772 C802 0.950 . S
H773 C803 0.950 . S
C774 H756 0.951 . S
C774 C775 1.367 1_556 S
C774 C776 1.383 1_655 S
C775 C774 1.367 1_554 S
C775 C779 1.380 1_655 S
C776 H757 0.950 . S
C776 C774 1.383 1_455 S
C776 C777 1.373 . S
C777 C776 1.373 . S
C777 C778 1.414 1_556 S
C777 C780 1.499 . S
C778 H758 0.950 . S
C778 C777 1.414 1_554 S
C778 C779 1.374 . S
C779 H759 0.950 . S
C779 C775 1.380 1_455 S
C779 C778 1.374 . S
C780 C777 1.499 . S
C780 C781 1.373 1_455 S
C780 C782 1.389 . S
C781 H760 0.950 1_556 S
C781 C780 1.373 1_655 S
C781 C797 1.377 . S
C782 C780 1.389 . S
C782 C783 1.524 . S
C782 C796 1.377 . S
C783 C782 1.524 . S
C783 C784 1.397 . S
C783 C788 1.363 . S
C784 H761 0.950 . S
C784 C783 1.397 . S
C784 C785 1.334 . S
C785 H762 0.950 . S
C785 C784 1.334 . S
C785 C786 1.287 . S
C786 C785 1.287 . S
C786 C787 1.524 . S
C786 H805 0.913 . S
C787 H763 0.950 . S
C787 C786 1.524 . S
C787 C788 1.415 . S
C788 H764 0.950 . S
C788 C783 1.363 . S
C788 C787 1.415 . S
C789 H765 0.951 . S
C789 C790 1.366 . S
C789 C791 1.388 . S
C790 C789 1.366 . S
C790 C794 1.385 . S
C791 H766 0.951 . S
C791 C789 1.388 . S
C791 C792 1.366 . S
C792 C791 1.366 . S
C792 C793 1.414 . S
C792 C795 1.499 . S
C793 H767 0.950 . S
C793 C792 1.414 . S
C793 C794 1.374 . S
C794 H768 0.950 . S
C794 C790 1.385 . S
C794 C793 1.374 . S
C795 C792 1.499 . S
C795 C796 1.373 . S
C795 C797 1.389 1_455 S
C796 H769 0.950 . S
C796 C782 1.377 . S
C796 C795 1.373 . S
C797 C781 1.377 . S
C797 C795 1.389 1_655 S
C797 C798 1.524 . S
C798 C797 1.524 . S
C798 C799 1.397 . S
C798 C803 1.363 1_556 S
C799 H770 0.950 . S
C799 C798 1.397 . S
C799 C800 1.334 . S
C800 H771 0.950 . S
C800 C799 1.334 . S
C800 C801 1.287 . S
C801 C800 1.287 . S
C801 C802 1.524 1_556 S
C801 H804 0.999 1_556 S
C802 H772 0.950 . S
C802 C801 1.524 1_554 S
C802 C803 1.415 . S
C803 H773 0.950 . S
C803 C798 1.363 1_554 S
C803 C802 1.415 . S
H804 C801 0.999 1_554 S
H805 C786 0.913 . S
H806 C824 0.951 . S
H807 C826 0.951 . S
H808 C828 0.950 . S
H809 C829 0.950 . S
H810 C831 0.950 . S
H811 C834 0.950 . S
H812 C835 0.950 . S
H813 C837 0.950 . S
H814 C838 0.950 . S
H815 C839 0.951 . S
H816 C841 0.951 . S
H817 C843 0.950 1_545 S
H818 C844 0.950 . S
H819 C846 0.950 . S
H820 C849 0.950 1_545 S
H821 C850 0.960 . S
H822 C852 0.950 . S
H823 C853 0.950 . S
C824 H806 0.951 . S
C824 C825 1.366 . S
C824 C826 1.388 . S
C825 C824 1.366 . S
C825 C829 1.385 1_554 S
C826 H807 0.951 . S
C826 C824 1.388 . S
C826 C827 1.366 1_554 S
C827 C826 1.366 1_556 S
C827 C828 1.414 . S
C827 C830 1.499 . S
C828 H808 0.950 . S
C828 C827 1.414 . S
C828 C829 1.374 . S
C829 H809 0.950 . S
C829 C825 1.385 1_556 S
C829 C828 1.374 . S
C830 C827 1.499 . S
C830 C831 1.373 . S
C830 C832 1.389 . S
C831 H810 0.950 . S
C831 C830 1.373 . S
C831 C847 1.377 . S
C832 C830 1.389 . S
C832 C833 1.524 1_556 S
C832 C846 1.377 . S
C833 C832 1.524 1_554 S
C833 C834 1.397 . S
C833 C838 1.363 . S
C834 H811 0.950 . S
C834 C833 1.397 . S
C834 C835 1.334 . S
C835 H812 0.950 . S
C835 C834 1.334 . S
C835 C836 1.287 . S
C836 C835 1.287 . S
C836 C837 1.524 . S
C836 H855 0.913 . S
C837 H813 0.950 . S
C837 C836 1.524 . S
C837 C838 1.415 . S
C838 H814 0.950 . S
C838 C833 1.363 . S
C838 C837 1.415 . S
C839 H815 0.951 . S
C839 C840 1.350 1_565 S
C839 C841 1.388 . S
C840 C839 1.350 1_545 S
C840 C844 1.392 . S
C841 H816 0.951 . S
C841 C839 1.388 . S
C841 C842 1.366 . S
C842 C841 1.366 . S
C842 C843 1.414 . S
C842 C845 1.499 . S
C843 H817 0.950 1_565 S
C843 C842 1.414 . S
C843 C844 1.374 1_565 S
C844 H818 0.950 . S
C844 C840 1.392 . S
C844 C843 1.374 1_545 S
C845 C842 1.499 . S
C845 C846 1.373 . S
C845 C847 1.389 . S
C846 H819 0.950 . S
C846 C832 1.377 . S
C846 C845 1.373 . S
C847 C831 1.377 . S
C847 C845 1.389 . S
C847 C848 1.524 . S
C848 C847 1.524 . S
C848 C849 1.397 . S
C848 C853 1.363 . S
C849 H820 0.950 1_565 S
C849 C848 1.397 . S
C849 C850 1.330 1_565 S
C850 H821 0.960 . S
C850 C849 1.330 1_545 S
C850 C851 1.280 1_545 S
C851 C850 1.280 1_565 S
C851 C852 1.524 . S
C851 H854 0.999 . S
C852 H822 0.950 . S
C852 C851 1.524 . S
C852 C853 1.415 . S
C853 H823 0.950 . S
C853 C848 1.363 . S
C853 C852 1.415 . S
H854 C851 0.999 . S
H855 C836 0.913 . S
H856 C874 0.951 . S
H857 C876 0.951 . S
H858 C878 0.950 . S
H859 C879 0.950 1_556 S
H860 C881 0.950 . S
H861 C884 0.950 . S
H862 C885 0.950 . S
H863 C887 0.950 . S
H864 C888 0.950 . S
H865 C889 0.951 . S
H866 C891 0.951 . S
H867 C893 0.950 . S
H868 C894 0.950 . S
H869 C896 0.950 . S
H870 C899 0.950 . S
H871 C900 0.950 . S
H872 C902 0.950 . S
H873 C903 0.950 . S
C874 H856 0.951 . S
C874 C875 1.366 . S
C874 C876 1.388 . S
C875 C874 1.366 . S
C875 C879 1.385 . S
C876 H857 0.951 . S
C876 C874 1.388 . S
C876 C877 1.362 1_554 S
C877 C876 1.362 1_556 S
C877 C878 1.415 . S
C877 C880 1.500 . S
C878 H858 0.950 . S
C878 C877 1.415 . S
C878 C879 1.374 1_556 S
C879 H859 0.950 1_554 S
C879 C875 1.385 . S
C879 C878 1.374 1_554 S
C880 C877 1.500 . S
C880 C881 1.373 . S
C880 C882 1.389 . S
C881 H860 0.950 . S
C881 C880 1.373 . S
C881 C897 1.377 . S
C882 C880 1.389 . S
C882 C883 1.524 1_556 S
C882 C896 1.377 . S
C883 C882 1.524 1_554 S
C883 C884 1.397 . S
C883 C888 1.363 . S
C884 H861 0.950 . S
C884 C883 1.397 . S
C884 C885 1.334 . S
C885 H862 0.950 . S
C885 C884 1.334 . S
C885 C886 1.287 . S
C886 C885 1.287 . S
C886 C887 1.524 . S
C886 H905 0.913 . S
C887 H863 0.950 . S
C887 C886 1.524 . S
C887 C888 1.415 . S
C888 H864 0.950 . S
C888 C883 1.363 . S
C888 C887 1.415 . S
C889 H865 0.951 . S
C889 C890 1.366 . S
C889 C891 1.388 . S
C890 C889 1.366 . S
C890 C894 1.385 . S
C891 H866 0.951 . S
C891 C889 1.388 . S
C891 C892 1.366 . S
C892 C891 1.366 . S
C892 C893 1.414 . S
C892 C895 1.499 . S
C893 H867 0.950 . S
C893 C892 1.414 . S
C893 C894 1.374 . S
C894 H868 0.950 . S
C894 C890 1.385 . S
C894 C893 1.374 . S
C895 C892 1.499 . S
C895 C896 1.373 . S
C895 C897 1.389 . S
C896 H869 0.950 . S
C896 C882 1.377 . S
C896 C895 1.373 . S
C897 C881 1.377 . S
C897 C895 1.389 . S
C897 C898 1.524 . S
C898 C897 1.524 . S
C898 C899 1.397 . S
C898 C903 1.363 . S
C899 H870 0.950 . S
C899 C898 1.397 . S
C899 C900 1.334 . S
C900 H871 0.950 . S
C900 C899 1.334 . S
C900 C901 1.287 . S
C901 C900 1.287 . S
C901 C902 1.524 . S
C901 H904 0.999 . S
C902 H872 0.950 . S
C902 C901 1.524 . S
C902 C903 1.415 . S
C903 H873 0.950 . S
C903 C898 1.363 . S
C903 C902 1.415 . S
H904 C901 0.999 . S
H905 C886 0.913 . S
H906 C924 0.951 . S
H907 C926 0.951 . S
H908 C928 0.950 . S
H909 C929 0.950 . S
H910 C931 0.950 . S
H911 C934 0.950 . S
H912 C935 0.950 . S
H913 C937 0.950 . S
H914 C938 0.950 . S
H915 C939 0.951 . S
H916 C941 0.951 . S
H917 C943 0.950 . S
H918 C944 0.950 . S
H919 C946 0.950 . S
H920 C949 0.950 . S
H921 C950 0.950 1_554 S
H922 C952 0.950 . S
H923 C953 0.950 . S
C924 H906 0.951 . S
C924 C925 1.366 . S
C924 C926 1.388 . S
C925 C924 1.366 . S
C925 C929 1.385 . S
C926 H907 0.951 . S
C926 C924 1.388 . S
C926 C927 1.366 1_554 S
C927 C926 1.366 1_556 S
C927 C928 1.414 . S
C927 C930 1.499 . S
C928 H908 0.950 . S
C928 C927 1.414 . S
C928 C929 1.374 1_556 S
C929 H909 0.950 . S
C929 C925 1.385 . S
C929 C928 1.374 1_554 S
C930 C927 1.499 . S
C930 C931 1.373 . S
C930 C932 1.389 . S
C931 H910 0.950 . S
C931 C930 1.373 . S
C931 C947 1.377 . S
C932 C930 1.389 . S
C932 C933 1.524 . S
C932 C946 1.377 . S
C933 C932 1.524 . S
C933 C934 1.397 . S
C933 C938 1.363 . S
C934 H911 0.950 . S
C934 C933 1.397 . S
C934 C935 1.334 . S
C935 H912 0.950 . S
C935 C934 1.334 . S
C935 C936 1.287 . S
C936 C935 1.287 . S
C936 C937 1.524 . S
C936 H955 0.913 . S
C937 H913 0.950 . S
C937 C936 1.524 . S
C937 C938 1.415 . S
C938 H914 0.950 . S
C938 C933 1.363 . S
C938 C937 1.415 . S
C939 H915 0.951 . S
C939 C940 1.366 . S
C939 C941 1.388 . S
C940 C939 1.366 . S
C940 C944 1.385 . S
C941 H916 0.951 . S
C941 C939 1.388 . S
C941 C942 1.366 . S
C942 C941 1.366 . S
C942 C943 1.414 . S
C942 C945 1.499 . S
C943 H917 0.950 . S
C943 C942 1.414 . S
C943 C944 1.374 . S
C944 H918 0.950 . S
C944 C940 1.385 . S
C944 C943 1.374 . S
C945 C942 1.499 . S
C945 C946 1.373 . S
C945 C947 1.389 . S
C946 H919 0.950 . S
C946 C932 1.377 . S
C946 C945 1.373 . S
C947 C931 1.377 . S
C947 C945 1.389 . S
C947 C948 1.524 . S
C948 C947 1.524 . S
C948 C949 1.397 . S
C948 C953 1.363 . S
C949 H920 0.950 . S
C949 C948 1.397 . S
C949 C950 1.334 . S
C950 H921 0.950 1_556 S
C950 C949 1.334 . S
C950 C951 1.287 . S
C951 C950 1.287 . S
C951 C952 1.524 . S
C951 H954 0.999 1_556 S
C952 H922 0.950 . S
C952 C951 1.524 . S
C952 C953 1.415 . S
C953 H923 0.950 . S
C953 C948 1.363 . S
C953 C952 1.415 . S
H954 C951 0.999 1_554 S
H955 C936 0.913 . S
H956 C974 0.951 . S
H957 C976 0.951 . S
H958 C978 0.950 . S
H959 C979 0.950 . S
H960 C981 0.950 . S
H961 C984 0.950 . S
H962 C985 0.950 1_554 S
H963 C987 0.950 . S
H964 C988 0.950 1_455 S
H965 C989 0.951 . S
H966 C991 0.951 . S
H967 C993 0.950 . S
H968 C994 0.950 . S
H969 C996 0.950 . S
H970 C999 0.950 . S
H971 C1000 0.950 . S
H972 C1002 0.950 . S
H973 C1003 0.950 . S
C974 H956 0.951 . S
C974 C975 1.380 . S
C974 C976 1.388 . S
C975 C974 1.380 . S
C975 C979 1.370 1_455 S
C976 H957 0.951 . S
C976 C974 1.388 . S
C976 C977 1.366 . S
C977 C976 1.366 . S
C977 C978 1.414 1_455 S
C977 C980 1.499 . S
C978 H958 0.950 . S
C978 C977 1.414 1_655 S
C978 C979 1.374 . S
C979 H959 0.950 . S
C979 C975 1.370 1_655 S
C979 C978 1.374 . S
C980 C977 1.499 . S
C980 C981 1.373 . S
C980 C982 1.389 1_455 S
C981 H960 0.950 . S
C981 C980 1.373 . S
C981 C997 1.377 . S
C982 C980 1.389 1_655 S
C982 C983 1.524 1_554 S
C982 C996 1.377 1_554 S
C983 C982 1.524 1_556 S
C983 C984 1.397 1_556 S
C983 C988 1.363 . S
C984 H961 0.950 . S
C984 C983 1.397 1_554 S
C984 C985 1.334 1_554 S
C985 H962 0.950 1_556 S
C985 C984 1.334 1_556 S
C985 C986 1.287 . S
C986 C985 1.287 . S
C986 C987 1.524 . S
C986 H1005 0.913 . S
C987 H963 0.950 . S
C987 C986 1.524 . S
C987 C988 1.415 . S
C988 H964 0.950 1_655 S
C988 C983 1.363 . S
C988 C987 1.415 . S
C989 H965 0.951 . S
C989 C990 1.366 1_655 S
C989 C991 1.388 . S
C990 C989 1.366 1_455 S
C990 C994 1.385 . S
C991 H966 0.951 . S
C991 C989 1.388 . S
C991 C992 1.366 1_655 S
C992 C991 1.366 1_455 S
C992 C993 1.414 . S
C992 C995 1.499 . S
C993 H967 0.950 . S
C993 C992 1.414 . S
C993 C994 1.374 . S
C994 H968 0.950 . S
C994 C990 1.385 . S
C994 C993 1.374 . S
C995 C992 1.499 . S
C995 C996 1.373 1_455 S
C995 C997 1.389 1_556 S
C996 H969 0.950 . S
C996 C982 1.377 1_556 S
C996 C995 1.373 1_655 S
C997 C981 1.377 . S
C997 C995 1.389 1_554 S
C997 C998 1.524 . S
C998 C997 1.524 . S
C998 C999 1.397 . S
C998 C1003 1.363 . S
C999 H970 0.950 . S
C999 C998 1.397 . S
C999 C1000 1.334 . S
C1000 H971 0.950 . S
C1000 C999 1.334 . S
C1000 C1001 1.287 . S
C1001 C1000 1.287 . S
C1001 C1002 1.524 . S
C1001 H1004 0.999 . S
C1002 H972 0.950 . S
C1002 C1001 1.524 . S
C1002 C1003 1.415 . S
C1003 H973 0.950 . S
C1003 C998 1.363 . S
C1003 C1002 1.415 . S
H1004 C1001 0.999 . S
H1005 C986 0.913 . S
H1006 C1024 0.951 . S
H1007 C1026 0.951 . S
H1008 C1028 0.950 . S
H1009 C1029 0.950 . S
H1010 C1031 0.950 . S
H1011 C1034 0.950 . S
H1012 C1035 0.950 . S
H1013 C1037 0.950 . S
H1014 C1038 0.950 . S
H1015 C1039 0.951 . S
H1016 C1041 0.951 . S
H1017 C1043 0.950 . S
H1018 C1044 0.950 . S
H1019 C1046 0.950 1_556 S
H1020 C1049 0.950 . S
H1021 C1050 0.950 . S
H1022 C1052 0.950 . S
H1023 C1053 0.950 . S
C1024 H1006 0.951 . S
C1024 C1025 1.366 . S
C1024 C1026 1.388 . S
C1025 C1024 1.366 . S
C1025 C1029 1.385 . S
C1026 H1007 0.951 . S
C1026 C1024 1.388 . S
C1026 C1027 1.366 . S
C1027 C1026 1.366 . S
C1027 C1028 1.414 . S
C1027 C1030 1.499 . S
C1028 H1008 0.950 . S
C1028 C1027 1.414 . S
C1028 C1029 1.374 . S
C1029 H1009 0.950 . S
C1029 C1025 1.385 . S
C1029 C1028 1.374 . S
C1030 C1027 1.499 . S
C1030 C1031 1.373 . S
C1030 C1032 1.389 . S
C1031 H1010 0.950 . S
C1031 C1030 1.373 . S
C1031 C1047 1.377 . S
C1032 C1030 1.389 . S
C1032 C1033 1.524 . S
C1032 C1046 1.377 . S
C1033 C1032 1.524 . S
C1033 C1034 1.397 . S
C1033 C1038 1.363 . S
C1034 H1011 0.950 . S
C1034 C1033 1.397 . S
C1034 C1035 1.334 . S
C1035 H1012 0.950 . S
C1035 C1034 1.334 . S
C1035 C1036 1.287 . S
C1036 C1035 1.287 . S
C1036 C1037 1.524 . S
C1036 H1055 0.913 . S
C1037 H1013 0.950 . S
C1037 C1036 1.524 . S
C1037 C1038 1.415 . S
C1038 H1014 0.950 . S
C1038 C1033 1.363 . S
C1038 C1037 1.415 . S
C1039 H1015 0.951 . S
C1039 C1040 1.366 . S
C1039 C1041 1.388 . S
C1040 C1039 1.366 . S
C1040 C1044 1.385 . S
C1041 H1016 0.951 . S
C1041 C1039 1.388 . S
C1041 C1042 1.366 . S
C1042 C1041 1.366 . S
C1042 C1043 1.414 . S
C1042 C1045 1.499 . S
C1043 H1017 0.950 . S
C1043 C1042 1.414 . S
C1043 C1044 1.374 . S
C1044 H1018 0.950 . S
C1044 C1040 1.385 . S
C1044 C1043 1.374 . S
C1045 C1042 1.499 . S
C1045 C1046 1.373 1_556 S
C1045 C1047 1.389 1_556 S
C1046 H1019 0.950 1_554 S
C1046 C1032 1.377 . S
C1046 C1045 1.373 1_554 S
C1047 C1031 1.377 . S
C1047 C1045 1.389 1_554 S
C1047 C1048 1.524 . S
C1048 C1047 1.524 . S
C1048 C1049 1.397 . S
C1048 C1053 1.363 1_554 S
C1049 H1020 0.950 . S
C1049 C1048 1.397 . S
C1049 C1050 1.334 1_545 S
C1050 H1021 0.950 . S
C1050 C1049 1.334 1_565 S
C1050 C1051 1.287 . S
C1051 C1050 1.287 . S
C1051 C1052 1.524 1_554 S
C1051 H1054 0.999 . S
C1052 H1022 0.950 . S
C1052 C1051 1.524 1_556 S
C1052 C1053 1.415 1_565 S
C1053 H1023 0.950 . S
C1053 C1048 1.363 1_556 S
C1053 C1052 1.415 1_545 S
H1054 C1051 0.999 . S
H1055 C1036 0.913 . S
H1056 C1074 0.951 . S
H1057 C1076 0.951 . S
H1058 C1078 0.950 . S
H1059 C1079 0.950 . S
H1060 C1081 0.950 . S
H1061 C1084 0.950 . S
H1062 C1085 0.950 1_554 S
H1063 C1087 0.950 . S
H1064 C1088 0.950 . S
H1065 C1089 0.951 . S
H1066 C1091 0.951 . S
H1067 C1093 0.950 . S
H1068 C1094 0.950 . S
H1069 C1096 0.950 . S
H1070 C1099 0.950 . S
H1071 C1100 0.950 . S
H1072 C1102 0.950 . S
H1073 C1103 0.950 . S
C1074 H1056 0.951 . S
C1074 C1075 1.366 . S
C1074 C1076 1.388 . S
C1075 C1074 1.366 . S
C1075 C1079 1.385 . S
C1076 H1057 0.951 . S
C1076 C1074 1.388 . S
C1076 C1077 1.366 . S
C1077 C1076 1.366 . S
C1077 C1078 1.414 . S
C1077 C1080 1.499 . S
C1078 H1058 0.950 . S
C1078 C1077 1.414 . S
C1078 C1079 1.374 . S
C1079 H1059 0.950 . S
C1079 C1075 1.385 . S
C1079 C1078 1.374 . S
C1080 C1077 1.499 . S
C1080 C1081 1.373 . S
C1080 C1082 1.389 . S
C1081 H1060 0.950 . S
C1081 C1080 1.373 . S
C1081 C1097 1.377 . S
C1082 C1080 1.389 . S
C1082 C1083 1.524 1_554 S
C1082 C1096 1.377 1_554 S
C1083 C1082 1.524 1_556 S
C1083 C1084 1.397 1_556 S
C1083 C1088 1.363 . S
C1084 H1061 0.950 . S
C1084 C1083 1.397 1_554 S
C1084 C1085 1.334 1_554 S
C1085 H1062 0.950 1_556 S
C1085 C1084 1.334 1_556 S
C1085 C1086 1.287 . S
C1086 C1085 1.287 . S
C1086 C1087 1.524 . S
C1086 H1105 0.913 . S
C1087 H1063 0.950 . S
C1087 C1086 1.524 . S
C1087 C1088 1.415 . S
C1088 H1064 0.950 . S
C1088 C1083 1.363 . S
C1088 C1087 1.415 . S
C1089 H1065 0.951 . S
C1089 C1090 1.366 . S
C1089 C1091 1.388 . S
C1090 C1089 1.366 . S
C1090 C1094 1.385 . S
C1091 H1066 0.951 . S
C1091 C1089 1.388 . S
C1091 C1092 1.366 . S
C1092 C1091 1.366 . S
C1092 C1093 1.414 . S
C1092 C1095 1.499 . S
C1093 H1067 0.950 . S
C1093 C1092 1.414 . S
C1093 C1094 1.374 . S
C1094 H1068 0.950 . S
C1094 C1090 1.385 . S
C1094 C1093 1.374 . S
C1095 C1092 1.499 . S
C1095 C1096 1.373 . S
C1095 C1097 1.389 1_556 S
C1096 H1069 0.950 . S
C1096 C1082 1.377 1_556 S
C1096 C1095 1.373 . S
C1097 C1081 1.377 . S
C1097 C1095 1.389 1_554 S
C1097 C1098 1.524 . S
C1098 C1097 1.524 . S
C1098 C1099 1.397 . S
C1098 C1103 1.363 . S
C1099 H1070 0.950 . S
C1099 C1098 1.397 . S
C1099 C1100 1.334 . S
C1100 H1071 0.950 . S
C1100 C1099 1.334 . S
C1100 C1101 1.287 . S
C1101 C1100 1.287 . S
C1101 C1102 1.524 . S
C1101 H1104 0.999 . S
C1102 H1072 0.950 . S
C1102 C1101 1.524 . S
C1102 C1103 1.415 . S
C1103 H1073 0.950 . S
C1103 C1098 1.363 . S
C1103 C1102 1.415 . S
H1104 C1101 0.999 . S
H1105 C1086 0.913 . S
H1106 C1124 0.951 . S
H1107 C1126 0.951 . S
H1108 C1128 0.950 . S
H1109 C1129 0.950 . S
H1110 C1131 0.950 . S
H1111 C1134 0.950 . S
H1112 C1135 0.950 . S
H1113 C1137 0.950 . S
H1114 C1138 0.950 . S
H1115 C1139 0.951 . S
H1116 C1141 0.951 . S
H1117 C1143 0.950 1_554 S
H1118 C1144 0.950 . S
H1119 C1146 0.950 . S
H1120 C1149 0.955 . S
H1121 C1150 0.950 . S
H1122 C1152 0.950 . S
H1123 C1153 0.950 . S
C1124 H1106 0.951 . S
C1124 C1125 1.366 . S
C1124 C1126 1.388 . S
C1125 C1124 1.366 . S
C1125 C1129 1.385 . S
C1126 H1107 0.951 . S
C1126 C1124 1.388 . S
C1126 C1127 1.366 . S
C1127 C1126 1.366 . S
C1127 C1128 1.414 . S
C1127 C1130 1.499 . S
C1128 H1108 0.950 . S
C1128 C1127 1.414 . S
C1128 C1129 1.374 . S
C1129 H1109 0.950 . S
C1129 C1125 1.385 . S
C1129 C1128 1.374 . S
C1130 C1127 1.499 . S
C1130 C1131 1.373 . S
C1130 C1132 1.389 . S
C1131 H1110 0.950 . S
C1131 C1130 1.373 . S
C1131 C1147 1.377 . S
C1132 C1130 1.389 . S
C1132 C1133 1.524 . S
C1132 C1146 1.377 . S
C1133 C1132 1.524 . S
C1133 C1134 1.397 . S
C1133 C1138 1.363 . S
C1134 H1111 0.950 . S
C1134 C1133 1.397 . S
C1134 C1135 1.334 . S
C1135 H1112 0.950 . S
C1135 C1134 1.334 . S
C1135 C1136 1.287 . S
C1136 C1135 1.287 . S
C1136 C1137 1.524 . S
C1136 H1155 0.913 . S
C1137 H1113 0.950 . S
C1137 C1136 1.524 . S
C1137 C1138 1.415 . S
C1138 H1114 0.950 . S
C1138 C1133 1.363 . S
C1138 C1137 1.415 . S
C1139 H1115 0.951 . S
C1139 C1140 1.366 . S
C1139 C1141 1.388 . S
C1140 C1139 1.366 . S
C1140 C1144 1.385 . S
C1141 H1116 0.951 . S
C1141 C1139 1.388 . S
C1141 C1142 1.366 . S
C1142 C1141 1.366 . S
C1142 C1143 1.414 . S
C1142 C1145 1.499 . S
C1143 H1117 0.950 1_556 S
C1143 C1142 1.414 . S
C1143 C1144 1.374 . S
C1144 H1118 0.950 . S
C1144 C1140 1.385 . S
C1144 C1143 1.374 . S
C1145 C1142 1.499 . S
C1145 C1146 1.373 1_556 S
C1145 C1147 1.389 1_556 S
C1146 H1119 0.950 . S
C1146 C1132 1.377 . S
C1146 C1145 1.373 1_554 S
C1147 C1131 1.377 . S
C1147 C1145 1.389 1_554 S
C1147 C1148 1.524 1_554 S
C1148 C1147 1.524 1_556 S
C1148 C1149 1.394 1_556 S
C1148 C1153 1.363 . S
C1149 H1120 0.955 . S
C1149 C1148 1.394 1_554 S
C1149 C1150 1.331 1_554 S
C1150 H1121 0.950 . S
C1150 C1149 1.331 1_556 S
C1150 C1151 1.287 . S
C1151 C1150 1.287 . S
C1151 C1152 1.524 . S
C1151 H1154 0.999 . S
C1152 H1122 0.950 . S
C1152 C1151 1.524 . S
C1152 C1153 1.415 . S
C1153 H1123 0.950 . S
C1153 C1148 1.363 . S
C1153 C1152 1.415 . S
H1154 C1151 0.999 . S
H1155 C1136 0.913 . S
H1156 C1174 0.951 . S
H1157 C1176 0.951 . S
H1158 C1178 0.950 . S
H1159 C1179 0.950 . S
H1160 C1181 0.948 1_455 S
H1161 C1184 0.950 . S
H1162 C1185 0.950 . S
H1163 C1187 0.950 . S
H1164 C1188 0.950 1_455 S
H1165 C1189 0.951 . S
H1166 C1191 0.951 . S
H1167 C1193 0.950 . S
H1168 C1194 0.950 . S
H1169 C1196 0.950 . S
H1170 C1199 0.950 . S
H1171 C1200 0.950 . S
H1172 C1202 0.950 1_655 S
H1173 C1203 0.950 . S
C1174 H1156 0.951 . S
C1174 C1175 1.354 1_455 S
C1174 C1176 1.388 . S
C1175 C1174 1.354 1_655 S
C1175 C1179 1.398 . S
C1176 H1157 0.951 . S
C1176 C1174 1.388 . S
C1176 C1177 1.366 1_455 S
C1177 C1176 1.366 1_655 S
C1177 C1178 1.414 . S
C1177 C1180 1.499 . S
C1178 H1158 0.950 . S
C1178 C1177 1.414 . S
C1178 C1179 1.374 . S
C1179 H1159 0.950 . S
C1179 C1175 1.398 . S
C1179 C1178 1.374 . S
C1180 C1177 1.499 . S
C1180 C1181 1.376 . S
C1180 C1182 1.389 . S
C1181 H1160 0.948 1_655 S
C1181 C1180 1.376 . S
C1181 C1197 1.375 1_655 S
C1182 C1180 1.389 . S
C1182 C1183 1.524 . S
C1182 C1196 1.377 . S
C1183 C1182 1.524 . S
C1183 C1184 1.397 . S
C1183 C1188 1.363 . S
C1184 H1161 0.950 . S
C1184 C1183 1.397 . S
C1184 C1185 1.334 . S
C1185 H1162 0.950 . S
C1185 C1184 1.334 . S
C1185 C1186 1.287 . S
C1186 C1185 1.287 . S
C1186 C1187 1.524 . S
C1186 H1205 0.913 . S
C1187 H1163 0.950 . S
C1187 C1186 1.524 . S
C1187 C1188 1.415 . S
C1188 H1164 0.950 1_655 S
C1188 C1183 1.363 . S
C1188 C1187 1.415 . S
C1189 H1165 0.951 . S
C1189 C1190 1.366 . S
C1189 C1191 1.388 . S
C1190 C1189 1.366 . S
C1190 C1194 1.385 1_655 S
C1191 H1166 0.951 . S
C1191 C1189 1.388 . S
C1191 C1192 1.366 . S
C1192 C1191 1.366 . S
C1192 C1193 1.414 1_655 S
C1192 C1195 1.499 . S
C1193 H1167 0.950 . S
C1193 C1192 1.414 1_455 S
C1193 C1194 1.374 . S
C1194 H1168 0.950 . S
C1194 C1190 1.385 1_455 S
C1194 C1193 1.374 . S
C1195 C1192 1.499 . S
C1195 C1196 1.373 . S
C1195 C1197 1.386 1_655 S
C1196 H1169 0.950 . S
C1196 C1182 1.377 . S
C1196 C1195 1.373 . S
C1197 C1181 1.375 1_455 S
C1197 C1195 1.386 1_455 S
C1197 C1198 1.531 . S
C1198 C1197 1.531 . S
C1198 C1199 1.397 . S
C1198 C1203 1.363 1_455 S
C1199 H1170 0.950 . S
C1199 C1198 1.397 . S
C1199 C1200 1.334 . S
C1200 H1171 0.950 . S
C1200 C1199 1.334 . S
C1200 C1201 1.287 . S
C1201 C1200 1.287 . S
C1201 C1202 1.524 . S
C1201 H1204 0.999 . S
C1202 H1172 0.950 1_455 S
C1202 C1201 1.524 . S
C1202 C1203 1.415 1_455 S
C1203 H1173 0.950 . S
C1203 C1198 1.363 1_655 S
C1203 C1202 1.415 1_655 S
H1204 C1201 0.999 . S
H1205 C1186 0.913 . S
H1206 C1224 0.951 . S
H1207 C1226 0.951 . S
H1208 C1228 0.950 . S
H1209 C1229 0.950 . S
H1210 C1231 0.950 . S
H1211 C1234 0.950 . S
H1212 C1235 0.950 . S
H1213 C1237 0.950 . S
H1214 C1238 0.950 . S
H1215 C1239 0.951 . S
H1216 C1241 0.951 . S
H1217 C1243 0.950 . S
H1218 C1244 0.950 . S
H1219 C1246 0.950 . S
H1220 C1249 0.950 1_565 S
H1221 C1250 0.950 . S
H1222 C1252 0.950 . S
H1223 C1253 0.950 1_565 S
C1224 H1206 0.951 . S
C1224 C1225 1.366 . S
C1224 C1226 1.388 . S
C1225 C1224 1.366 . S
C1225 C1229 1.385 . S
C1226 H1207 0.951 . S
C1226 C1224 1.388 . S
C1226 C1227 1.366 . S
C1227 C1226 1.366 . S
C1227 C1228 1.414 . S
C1227 C1230 1.499 . S
C1228 H1208 0.950 . S
C1228 C1227 1.414 . S
C1228 C1229 1.374 . S
C1229 H1209 0.950 . S
C1229 C1225 1.385 . S
C1229 C1228 1.374 . S
C1230 C1227 1.499 . S
C1230 C1231 1.373 . S
C1230 C1232 1.389 . S
C1231 H1210 0.950 . S
C1231 C1230 1.373 . S
C1231 C1247 1.377 . S
C1232 C1230 1.389 . S
C1232 C1233 1.524 . S
C1232 C1246 1.377 . S
C1233 C1232 1.524 . S
C1233 C1234 1.397 . S
C1233 C1238 1.363 . S
C1234 H1211 0.950 . S
C1234 C1233 1.397 . S
C1234 C1235 1.334 . S
C1235 H1212 0.950 . S
C1235 C1234 1.334 . S
C1235 C1236 1.287 . S
C1236 C1235 1.287 . S
C1236 C1237 1.524 . S
C1236 H1255 0.913 . S
C1237 H1213 0.950 . S
C1237 C1236 1.524 . S
C1237 C1238 1.415 . S
C1238 H1214 0.950 . S
C1238 C1233 1.363 . S
C1238 C1237 1.415 . S
C1239 H1215 0.951 . S
C1239 C1240 1.366 . S
C1239 C1241 1.388 . S
C1240 C1239 1.366 . S
C1240 C1244 1.385 . S
C1241 H1216 0.951 . S
C1241 C1239 1.388 . S
C1241 C1242 1.366 . S
C1242 C1241 1.366 . S
C1242 C1243 1.414 . S
C1242 C1245 1.499 . S
C1243 H1217 0.950 . S
C1243 C1242 1.414 . S
C1243 C1244 1.374 . S
C1244 H1218 0.950 . S
C1244 C1240 1.385 . S
C1244 C1243 1.374 . S
C1245 C1242 1.499 . S
C1245 C1246 1.373 . S
C1245 C1247 1.389 . S
C1246 H1219 0.950 . S
C1246 C1232 1.377 . S
C1246 C1245 1.373 . S
C1247 C1231 1.377 . S
C1247 C1245 1.389 . S
C1247 C1248 1.524 . S
C1248 C1247 1.524 . S
C1248 C1249 1.397 1_565 S
C1248 C1253 1.363 1_565 S
C1249 H1220 0.950 1_545 S
C1249 C1248 1.397 1_545 S
C1249 C1250 1.334 . S
C1250 H1221 0.950 . S
C1250 C1249 1.334 . S
C1250 C1251 1.287 . S
C1251 C1250 1.287 . S
C1251 C1252 1.524 . S
C1251 H1254 0.999 . S
C1252 H1222 0.950 . S
C1252 C1251 1.524 . S
C1252 C1253 1.415 . S
C1253 H1223 0.950 1_545 S
C1253 C1248 1.363 1_545 S
C1253 C1252 1.415 . S
H1254 C1251 0.999 . S
H1255 C1236 0.913 . S
H1256 C1274 0.951 . S
H1257 C1276 0.951 . S
H1258 C1278 0.950 . S
H1259 C1279 0.950 . S
H1260 C1281 0.950 . S
H1261 C1284 0.950 . S
H1262 C1285 0.950 . S
H1263 C1287 0.950 . S
H1264 C1288 0.950 . S
H1265 C1289 0.951 . S
H1266 C1291 0.951 . S
H1267 C1293 0.950 . S
H1268 C1294 0.950 . S
H1269 C1296 0.950 . S
H1270 C1299 0.950 . S
H1271 C1300 0.950 . S
H1272 C1302 0.950 . S
H1273 C1303 0.950 . S
C1274 H1256 0.951 . S
C1274 C1275 1.366 . S
C1274 C1276 1.388 . S
C1275 C1274 1.366 . S
C1275 C1279 1.385 . S
C1276 H1257 0.951 . S
C1276 C1274 1.388 . S
C1276 C1277 1.366 . S
C1277 C1276 1.366 . S
C1277 C1278 1.414 . S
C1277 C1280 1.499 . S
C1278 H1258 0.950 . S
C1278 C1277 1.414 . S
C1278 C1279 1.374 . S
C1279 H1259 0.950 . S
C1279 C1275 1.385 . S
C1279 C1278 1.374 . S
C1280 C1277 1.499 . S
C1280 C1281 1.373 . S
C1280 C1282 1.389 . S
C1281 H1260 0.950 . S
C1281 C1280 1.373 . S
C1281 C1297 1.377 . S
C1282 C1280 1.389 . S
C1282 C1283 1.524 . S
C1282 C1296 1.377 . S
C1283 C1282 1.524 . S
C1283 C1284 1.397 . S
C1283 C1288 1.363 . S
C1284 H1261 0.950 . S
C1284 C1283 1.397 . S
C1284 C1285 1.334 . S
C1285 H1262 0.950 . S
C1285 C1284 1.334 . S
C1285 C1286 1.287 . S
C1286 C1285 1.287 . S
C1286 C1287 1.524 . S
C1286 H1305 0.913 . S
C1287 H1263 0.950 . S
C1287 C1286 1.524 . S
C1287 C1288 1.415 . S
C1288 H1264 0.950 . S
C1288 C1283 1.363 . S
C1288 C1287 1.415 . S
C1289 H1265 0.951 . S
C1289 C1290 1.366 . S
C1289 C1291 1.388 . S
C1290 C1289 1.366 . S
C1290 C1294 1.385 . S
C1291 H1266 0.951 . S
C1291 C1289 1.388 . S
C1291 C1292 1.366 . S
C1292 C1291 1.366 . S
C1292 C1293 1.414 . S
C1292 C1295 1.499 . S
C1293 H1267 0.950 . S
C1293 C1292 1.414 . S
C1293 C1294 1.374 . S
C1294 H1268 0.950 . S
C1294 C1290 1.385 . S
C1294 C1293 1.374 . S
C1295 C1292 1.499 . S
C1295 C1296 1.373 . S
C1295 C1297 1.389 . S
C1296 H1269 0.950 . S
C1296 C1282 1.377 . S
C1296 C1295 1.373 . S
C1297 C1281 1.377 . S
C1297 C1295 1.389 . S
C1297 C1298 1.524 . S
C1298 C1297 1.524 . S
C1298 C1299 1.397 . S
C1298 C1303 1.363 . S
C1299 H1270 0.950 . S
C1299 C1298 1.397 . S
C1299 C1300 1.334 . S
C1300 H1271 0.950 . S
C1300 C1299 1.334 . S
C1300 C1301 1.287 . S
C1301 C1300 1.287 . S
C1301 C1302 1.524 . S
C1301 H1304 0.999 . S
C1302 H1272 0.950 . S
C1302 C1301 1.524 . S
C1302 C1303 1.415 . S
C1303 H1273 0.950 . S
C1303 C1298 1.363 . S
C1303 C1302 1.415 . S
H1304 C1301 0.999 . S
H1305 C1286 0.913 . S
H1306 C1324 0.951 . S
H1307 C1326 0.951 . S
H1308 C1328 0.950 . S
H1309 C1329 0.950 . S
H1310 C1331 0.950 . S
H1311 C1334 0.950 . S
H1312 C1335 0.950 . S
H1313 C1337 0.950 . S
H1314 C1338 0.950 . S
H1315 C1339 0.951 . S
H1316 C1341 0.951 . S
H1317 C1343 0.950 . S
H1318 C1344 0.950 . S
H1319 C1346 0.950 . S
H1320 C1349 0.950 . S
H1321 C1350 0.950 . S
H1322 C1352 0.950 . S
H1323 C1353 0.950 . S
C1324 H1306 0.951 . S
C1324 C1325 1.366 . S
C1324 C1326 1.388 . S
C1325 C1324 1.366 . S
C1325 C1329 1.385 . S
C1326 H1307 0.951 . S
C1326 C1324 1.388 . S
C1326 C1327 1.366 . S
C1327 C1326 1.366 . S
C1327 C1328 1.414 . S
C1327 C1330 1.499 . S
C1328 H1308 0.950 . S
C1328 C1327 1.414 . S
C1328 C1329 1.374 . S
C1329 H1309 0.950 . S
C1329 C1325 1.385 . S
C1329 C1328 1.374 . S
C1330 C1327 1.499 . S
C1330 C1331 1.373 . S
C1330 C1332 1.389 . S
C1331 H1310 0.950 . S
C1331 C1330 1.373 . S
C1331 C1347 1.377 . S
C1332 C1330 1.389 . S
C1332 C1333 1.524 . S
C1332 C1346 1.377 . S
C1333 C1332 1.524 . S
C1333 C1334 1.397 . S
C1333 C1338 1.363 . S
C1334 H1311 0.950 . S
C1334 C1333 1.397 . S
C1334 C1335 1.334 . S
C1335 H1312 0.950 . S
C1335 C1334 1.334 . S
C1335 C1336 1.287 . S
C1336 C1335 1.287 . S
C1336 C1337 1.524 . S
C1336 H1355 0.913 . S
C1337 H1313 0.950 . S
C1337 C1336 1.524 . S
C1337 C1338 1.415 . S
C1338 H1314 0.950 . S
C1338 C1333 1.363 . S
C1338 C1337 1.415 . S
C1339 H1315 0.951 . S
C1339 C1340 1.366 . S
C1339 C1341 1.388 . S
C1340 C1339 1.366 . S
C1340 C1344 1.385 . S
C1341 H1316 0.951 . S
C1341 C1339 1.388 . S
C1341 C1342 1.366 . S
C1342 C1341 1.366 . S
C1342 C1343 1.414 . S
C1342 C1345 1.499 . S
C1343 H1317 0.950 . S
C1343 C1342 1.414 . S
C1343 C1344 1.374 . S
C1344 H1318 0.950 . S
C1344 C1340 1.385 . S
C1344 C1343 1.374 . S
C1345 C1342 1.499 . S
C1345 C1346 1.373 . S
C1345 C1347 1.389 . S
C1346 H1319 0.950 . S
C1346 C1332 1.377 . S
C1346 C1345 1.373 . S
C1347 C1331 1.377 . S
C1347 C1345 1.389 . S
C1347 C1348 1.524 . S
C1348 C1347 1.524 . S
C1348 C1349 1.397 . S
C1348 C1353 1.363 . S
C1349 H1320 0.950 . S
C1349 C1348 1.397 . S
C1349 C1350 1.334 . S
C1350 H1321 0.950 . S
C1350 C1349 1.334 . S
C1350 C1351 1.287 . S
C1351 C1350 1.287 . S
C1351 C1352 1.524 . S
C1351 H1354 0.999 . S
C1352 H1322 0.950 . S
C1352 C1351 1.524 . S
C1352 C1353 1.415 . S
C1353 H1323 0.950 . S
C1353 C1348 1.363 . S
C1353 C1352 1.415 . S
H1354 C1351 0.999 . S
H1355 C1336 0.913 . S
C175 C61 1.630 . S
C190 C87 1.499 . S
C240 C111 1.228 . S
C225 C70 1.390 . S
C290 C132 1.482 . S
C275 C43 1.620 . S
C340 C150 1.252 . S
C325 C52 1.402 . S
C390 C90 1.428 1_565 S
C375 C25 1.564 . S
C425 C34 1.307 . S
C440 C108 1.156 . S
C475 C7 1.549 . S
C490 C129 1.408 . S
C525 C16 1.319 1_455 S
C540 C153 1.181 . S
C590 C88 0.324 . S
C575 C50 0.229 1_455 S
C640 C106 0.347 . S
C625 C59 0.425 . S
C690 C127 0.327 . S
C675 C67 0.216 . S
C725 C41 0.427 . S
C740 C151 0.337 . S
C775 C14 0.244 . S
C790 C86 0.284 . S
C840 C110 0.361 . S
C825 C23 0.418 . S
C890 C131 0.307 . S
C875 C31 0.261 . S
C925 C5 0.410 . S
C940 C149 0.324 . S
C975 C49 1.514 1_455 S
C990 C89 1.475 . S
C1025 C58 1.690 . S
C1040 C107 1.658 . S
C1090 C128 1.444 . S
C1075 C68 1.483 . S
C1140 C152 1.687 . S
C1125 C40 1.718 . S
C1175 C13 1.360 . S
C1190 C85 1.338 . S
C1240 C109 1.513 . S
C1225 C22 1.538 . S
C1290 C130 1.302 . S
C1275 C32 1.331 . S
C1325 C4 1.565 . S
C1340 C148 1.541 . S
