# Generated by pormake.
# Topology anh, (6,3)-cn, num edge types: 1
# Building blocks:
#     Node 0, Type 0, BuildingBlock: PAMTOO_clean_sbu_0, # of connection points: 6
#     Node 1, Type 0, BuildingBlock: PAMTOO_clean_sbu_0, # of connection points: 6
#     Node 2, Type 0, BuildingBlock: PAMTOO_clean_sbu_0, # of connection points: 6
#     Node 3, Type 1, BuildingBlock: QEWDON_clean_linker_0, # of connection points: 3
#     Node 4, Type 1, BuildingBlock: QEWDON_clean_linker_0, # of connection points: 3
#     Node 5, Type 1, BuildingBlock: QEWDON_clean_linker_0, # of connection points: 3
#     Node 6, Type 1, BuildingBlock: QEWDON_clean_linker_0, # of connection points: 3
#     Node 7, Type 1, BuildingBlock: QEWDON_clean_linker_0, # of connection points: 3
#     Node 8, Type 1, BuildingBlock: QEWDON_clean_linker_0, # of connection points: 3
#     Edge 9, Type (0, 1), BuildingBlock: OJICUG_clean_linker_0, # of connection points: 2
#     Edge 10, Type (0, 1), BuildingBlock: OJICUG_clean_linker_0, # of connection points: 2
#     Edge 11, Type (0, 1), BuildingBlock: OJICUG_clean_linker_0, # of connection points: 2
#     Edge 12, Type (0, 1), BuildingBlock: OJICUG_clean_linker_0, # of connection points: 2
#     Edge 13, Type (0, 1), BuildingBlock: OJICUG_clean_linker_0, # of connection points: 2
#     Edge 14, Type (0, 1), BuildingBlock: OJICUG_clean_linker_0, # of connection points: 2
#     Edge 15, Type (0, 1), BuildingBlock: OJICUG_clean_linker_0, # of connection points: 2
#     Edge 16, Type (0, 1), BuildingBlock: OJICUG_clean_linker_0, # of connection points: 2
#     Edge 17, Type (0, 1), BuildingBlock: OJICUG_clean_linker_0, # of connection points: 2
#     Edge 18, Type (0, 1), BuildingBlock: OJICUG_clean_linker_0, # of connection points: 2
#     Edge 19, Type (0, 1), BuildingBlock: OJICUG_clean_linker_0, # of connection points: 2
#     Edge 20, Type (0, 1), BuildingBlock: OJICUG_clean_linker_0, # of connection points: 2
#     Edge 21, Type (0, 1), BuildingBlock: OJICUG_clean_linker_0, # of connection points: 2
#     Edge 22, Type (0, 1), BuildingBlock: OJICUG_clean_linker_0, # of connection points: 2
#     Edge 23, Type (0, 1), BuildingBlock: OJICUG_clean_linker_0, # of connection points: 2
#     Edge 24, Type (0, 1), BuildingBlock: OJICUG_clean_linker_0, # of connection points: 2
#     Edge 25, Type (0, 1), BuildingBlock: OJICUG_clean_linker_0, # of connection points: 2
#     Edge 26, Type (0, 1), BuildingBlock: OJICUG_clean_linker_0, # of connection points: 2
# Relax obj value: 0.188
# Max RMSD: 0.170
# Mean RMSD: 0.121
data_MOF--net-anh--node1-PAMTOO_clean_sbu_0--node2-QEWDON_clean_linker_0--edge1-OJICUG_clean_linker_0
_symmetry_space_group_name_H-M    P1
_symmetry_Int_Tables_number       1
_symmetry_cell_setting            triclinic
loop_
_symmetry_equiv_pos_as_xyz
'x, y, z'
_cell_length_a     23.237754
_cell_length_b     22.753837
_cell_length_c     35.578586
_cell_angle_alpha  93.426848
_cell_angle_beta   97.325588
_cell_angle_gamma 95.336573
loop_
_atom_site_label
_atom_site_type_symbol
_atom_site_fract_x
_atom_site_fract_y
_atom_site_fract_z
_atom_type_partial_charge
Dy0 Dy 0.13177 0.65625 0.13537 0.0
Dy1 Dy 1.11285 0.51237 0.12542 0.0
C2 C 1.12181 0.58983 0.05541 0.0
O3 O 1.03676 0.63499 0.14271 0.0
O4 O 1.02318 0.54153 0.11307 0.0
O5 O 0.14952 0.73936 0.11107 0.0
O6 O 0.13531 0.73832 0.17005 0.0
O7 O 1.09786 0.54116 0.18429 0.0
O8 O 0.16543 0.62082 0.18997 0.0
O9 O 0.21029 0.53186 0.13895 0.0
O10 O 0.22074 0.62985 0.12591 0.0
O11 O 1.12403 0.42725 0.14757 0.0
O12 O 1.07583 0.43253 0.09171 0.0
C13 C 1.00191 0.58816 0.12753 0.0
O14 O 1.09822 0.62951 0.07489 0.0
O15 O 0.14123 0.54407 0.07178 0.0
C16 C 0.20699 0.80919 0.15443 0.0
C17 C 0.31141 0.88385 0.17461 0.0
C18 C 0.31266 0.82452 0.16147 0.0
C19 C 0.26098 0.78755 0.15167 0.0
C20 C 0.20525 0.86818 0.1675 0.0
C21 C 0.25709 0.90529 0.17758 0.0
C22 C 0.15283 0.7701 0.14354 0.0
C23 C 0.13496 0.58002 0.20553 0.0
C24 C 0.24338 0.5799 0.13304 0.0
C25 C 1.03631 0.36543 0.13097 0.0
C26 C 0.92677 0.31304 0.14421 0.0
C27 C 0.95403 0.36319 0.16676 0.0
C28 C 1.00804 0.3893 0.16007 0.0
C29 C 1.01073 0.31372 0.10956 0.0
C30 C 0.95634 0.28751 0.11622 0.0
C31 C 1.08759 0.39933 0.11981 0.0
H32 H 0.35355 0.80674 0.15827 0.0
H33 H 0.26319 0.74209 0.14165 0.0
H34 H 0.16389 0.88546 0.16997 0.0
H35 H 0.25465 0.95051 0.18811 0.0
H36 H 0.93277 0.38337 0.1889 0.0
H37 H 1.02657 0.42965 0.17668 0.0
H38 H 1.03155 0.29519 0.08665 0.0
H39 H 0.93618 0.24915 0.0982 0.0
Dy40 Dy 0.62068 0.05555 0.49302 0.0
Dy41 Dy 0.7635 0.06899 0.50442 0.0
C42 C 0.69223 0.06763 0.57383 0.0
O43 O 0.64515 0.15029 0.48254 0.0
O44 O 0.73812 0.16019 0.5146 0.0
O45 O 0.54155 0.0404 0.51806 0.0
O46 O 0.53724 0.05665 0.45838 0.0
O47 O 0.73023 0.09054 0.44538 0.0
O48 O 0.65025 0.02367 0.43914 0.0
O49 O 0.73832 0.97195 0.49055 0.0
O50 O 0.64556 0.96597 0.50722 0.0
O51 O 0.84443 0.05892 0.48193 0.0
O52 O 0.84558 0.099 0.53884 0.0
C53 C 0.6923 0.18348 0.49857 0.0
O54 O 0.65385 0.09245 0.55156 0.0
O55 O 0.73508 0.04387 0.55986 0.0
C56 C 0.46354 0.99052 0.47671 0.0
C57 C 0.37724 0.8939 0.46109 0.0
C58 C 0.43622 0.88449 0.47004 0.0
C59 C 0.47907 0.93245 0.47767 0.0
C60 C 0.4049 1.0002 0.46784 0.0
C61 C 0.36202 0.95225 0.46 0.0
C62 C 0.50804 0.04107 0.48581 0.0
C63 C 0.6892 0.05602 0.42381 0.0
C64 C 0.69133 0.9408 0.4985 0.0
C65 C 0.91093 0.14306 0.50155 0.0
C66 C 0.97179 0.25285 0.49135 0.0
C67 C 0.91661 0.23538 0.4706 0.0
C68 C 0.88637 0.18119 0.4758 0.0
C69 C 0.96675 0.15927 0.5214 0.0
C70 C 0.997 0.21379 0.51636 0.0
C71 C 0.87546 0.09023 0.51073 0.0
H72 H 0.44932 0.84005 0.47055 0.0
H73 H 0.5243 0.92425 0.4844 0.0
H74 H 0.39228 0.04483 0.46716 0.0
H75 H 0.31688 0.96081 0.45345 0.0
H76 H 0.8955 0.26483 0.45168 0.0
H77 H 0.84281 0.17005 0.46072 0.0
H78 H 0.98609 0.13069 0.54169 0.0
H79 H 1.03955 0.22597 0.53262 0.0
Dy80 Dy 0.71735 0.52199 0.82531 0.0
Dy81 Dy 0.57841 0.52656 0.8015 0.0
C82 C 0.66467 0.52704 0.74091 0.0
O83 O 0.7089 0.61883 0.82006 0.0
O84 O 0.60983 0.62155 0.81873 0.0
O85 O 0.80595 0.54934 0.81802 0.0
O86 O 0.78769 0.48398 0.85818 0.0
O87 O 0.59017 0.51031 0.86361 0.0
O88 O 0.68467 0.55251 0.8781 0.0
O89 O 0.59306 0.43075 0.79135 0.0
O90 O 0.67624 0.4319 0.83327 0.0
O91 O 0.49118 0.53776 0.81317 0.0
O92 O 0.50712 0.51737 0.75534 0.0
C93 C 0.66287 0.64844 0.82082 0.0
O94 O 0.69635 0.49575 0.76347 0.0
O95 O 0.62557 0.55707 0.75429 0.0
C96 C 0.86856 0.47392 0.82514 0.0
C97 C 0.96727 0.4365 0.79679 0.0
C98 C 0.91648 0.44244 0.77173 0.0
C99 C 0.86744 0.46166 0.78586 0.0
C100 C 0.91479 0.45783 0.85017 0.0
C101 C 0.96357 0.43847 0.83614 0.0
C102 C 0.82688 0.5106 0.84022 0.0
C103 C 0.63475 0.53282 0.88845 0.0
C104 C 0.63164 0.40267 0.8117 0.0
C105 C 0.44579 0.59197 0.7651 0.0
C106 C 0.39685 0.69571 0.74254 0.0
C107 C 0.42906 0.69424 0.77878 0.0
C108 C 0.4534 0.64337 0.78976 0.0
C109 C 0.41653 0.59377 0.72822 0.0
C110 C 0.3926 0.64527 0.71692 0.0
C111 C 0.47152 0.53808 0.77712 0.0
H112 H 0.91731 0.43973 0.74131 0.0
H113 H 0.83106 0.47206 0.76602 0.0
H114 H 0.91568 0.46563 0.8806 0.0
H115 H 1.00117 0.43347 0.85661 0.0
H116 H 0.43288 0.7311 0.79991 0.0
H117 H 0.47709 0.64415 0.81809 0.0
H118 H 0.41156 0.55513 0.70831 0.0
H119 H 0.36912 0.64475 0.68859 0.0
H120 H 0.66684 0.14357 0.25125 0.0
C121 C 0.62831 0.11327 0.24169 0.0
C122 C 0.60969 0.07044 0.26572 0.0
C123 C 0.59643 0.11807 0.20574 0.0
H124 H 0.54142 1.00232 0.27247 0.0
C125 C 0.55836 0.03289 0.25339 0.0
C126 C 0.52682 0.03614 0.21742 0.0
C127 C 0.5466 0.0783 0.19362 0.0
C128 C 0.61301 0.16604 0.18131 0.0
H129 H 0.52301 0.08014 0.16548 0.0
C130 C 0.67191 0.18364 0.17833 0.0
C131 C 0.68693 0.22973 0.15556 0.0
C132 C 0.56938 0.19518 0.16105 0.0
H133 H 0.52371 0.18378 0.16331 0.0
C134 C 0.58406 0.24016 0.13803 0.0
H135 H 0.70602 0.16189 0.1939 0.0
C136 C 0.64235 0.25738 0.13522 0.0
H137 H 0.65256 0.29231 0.11701 0.0
H138 H 0.55008 0.26203 0.12248 0.0
H139 H 0.65884 0.59223 0.56512 0.0
C140 C 0.66699 0.54882 0.55417 0.0
C141 C 0.67832 0.50539 0.57989 0.0
C142 C 0.66553 0.53614 0.51467 0.0
H143 H 0.69336 0.41406 0.58537 0.0
C144 C 0.68695 0.44849 0.56589 0.0
C145 C 0.68459 0.43433 0.52692 0.0
C146 C 0.67446 0.47816 0.50144 0.0
C147 C 0.65385 0.58275 0.48733 0.0
H148 H 0.67455 0.46682 0.47147 0.0
C149 C 0.67047 0.64362 0.49786 0.0
C150 C 0.65949 0.68665 0.47173 0.0
C151 C 0.62536 0.56666 0.45022 0.0
H152 H 0.60974 0.52111 0.44115 0.0
C153 C 0.61549 0.60932 0.42419 0.0
H154 H 0.69271 0.65794 0.52597 0.0
C155 C 0.63264 0.66892 0.43476 0.0
H156 H 0.62376 0.70146 0.41432 0.0
H157 H 0.59377 0.59612 0.39578 0.0
H158 H 0.18109 0.72345 0.90765 0.0
C159 C 0.17189 0.68495 0.8876 0.0
C160 C 0.15875 0.6288 0.90073 0.0
C161 C 0.17388 0.69125 0.84868 0.0
H162 H 0.13267 0.537 0.88456 0.0
C163 C 0.14709 0.57923 0.87455 0.0
C164 C 0.14788 0.58451 0.83549 0.0
C165 C 0.16232 0.64062 0.82302 0.0
C166 C 0.18725 0.75018 0.83398 0.0
H167 H 0.16196 0.64525 0.79288 0.0
C168 C 0.22154 0.75448 0.80451 0.0
C169 C 0.23208 0.80782 0.78758 0.0
C170 C 0.16498 0.8015 0.84771 0.0
H171 H 0.13784 0.79977 0.87029 0.0
C172 C 0.1768 0.85552 0.83171 0.0
H173 H 0.2413 0.7159 0.7949 0.0
C174 C 0.21043 0.85887 0.80171 0.0
H175 H 0.21949 0.90082 0.78969 0.0
H176 H 0.15961 0.89484 0.84248 0.0
H177 H 1.09889 0.55203 0.38398 0.0
C178 C 0.12978 0.59011 0.39384 0.0
C179 C 0.16258 0.61805 0.36805 0.0
C180 C 0.13606 0.61204 0.43224 0.0
H181 H 0.22522 0.69174 0.3614 0.0
C182 C 0.20101 0.66857 0.38108 0.0
C183 C 0.20846 0.69031 0.41916 0.0
C184 C 0.17657 0.66145 0.44471 0.0
C185 C 1.09899 0.58549 0.45926 0.0
H186 H 0.18252 0.67833 0.47423 0.0
C187 C 1.08702 0.52366 0.45966 0.0
C188 C 1.05325 0.49935 0.48624 0.0
C189 C 1.07562 0.62256 0.48526 0.0
H190 H 1.08282 0.67027 0.48515 0.0
C191 C 1.04206 0.59865 0.51146 0.0
H192 H 1.10511 0.49448 0.44008 0.0
C193 C 1.03104 0.53752 0.5121 0.0
H194 H 1.00417 0.52009 0.53242 0.0
H195 H 1.02425 0.62765 0.53124 0.0
H196 H 0.69057 0.99823 0.7496 0.0
C197 C 0.67705 0.04016 0.75936 0.0
C198 C 0.66536 0.08246 0.73301 0.0
C199 C 0.67254 0.05236 0.79816 0.0
H200 H 0.64325 0.17102 0.72531 0.0
C201 C 0.6497 0.1376 0.74552 0.0
C202 C 0.64543 0.15158 0.78383 0.0
C203 C 0.6566 0.10859 0.81006 0.0
C204 C 0.68847 1.00814 0.8264 0.0
H205 H 0.65281 0.11915 0.83967 0.0
C206 C 0.67677 0.94614 0.81731 0.0
C207 C 0.69631 0.90547 0.84347 0.0
C208 C 0.71864 0.0281 0.86242 0.0
H209 H 0.72978 0.07485 0.87028 0.0
C210 C 0.73674 0.98806 0.88852 0.0
H211 H 0.65351 0.92944 0.78986 0.0
C212 C 0.72603 0.92737 0.87914 0.0
H213 H 0.74099 0.89732 0.89992 0.0
H214 H 0.76 1.00421 0.91605 0.0
H215 H 0.58176 0.55436 0.06488 0.0
C216 C 0.62734 0.56447 0.07605 0.0
C217 C 0.66875 0.56036 0.05072 0.0
C218 C 0.64458 0.57769 0.11544 0.0
H219 H 0.76046 0.56606 0.0453 0.0
C220 C 0.72836 0.56926 0.06476 0.0
C221 C 0.74779 0.5818 0.10347 0.0
C222 C 0.70585 0.58771 0.12864 0.0
C223 C 0.59904 0.57524 0.14262 0.0
H224 H 0.72155 0.59854 0.1584 0.0
C225 C 0.53877 0.58232 0.13112 0.0
C226 C 0.49656 0.57307 0.15638 0.0
C227 C 0.61509 0.56098 0.18032 0.0
H228 H 0.65919 0.55279 0.19059 0.0
C229 C 0.57408 0.55438 0.20549 0.0
H230 H 0.52404 0.5935 0.10261 0.0
C231 C 0.51556 0.55991 0.19368 0.0
H232 H 0.48469 0.55324 0.21381 0.0
H233 H 0.58761 0.54339 0.23426 0.0
C234 C 0.33334 0.52633 0.14684 0.0
C235 C 0.30828 0.5775 0.13541 0.0
H236 H 0.41143 0.48483 0.16165 0.0
C237 C 0.34621 0.62604 0.12738 0.0
H238 H 0.30616 0.48784 0.15314 0.0
C239 C 0.40732 0.62392 0.1319 0.0
C240 C 0.43204 0.5734 0.14485 0.0
H241 H 0.32884 0.66616 0.11828 0.0
H242 H 0.43528 0.66263 0.12683 0.0
C243 C 0.39399 0.52445 0.15161 0.0
C244 C 0.99923 0.33962 0.45432 0.0
C245 C 1.00004 0.31368 0.48929 0.0
H246 H 1.01589 0.41874 0.42592 0.0
C247 C 1.02344 0.34809 0.5228 0.0
H248 H 0.98191 0.31405 0.42799 0.0
C249 C 1.04287 0.4078 0.52159 0.0
C250 C 1.03961 0.43441 0.48683 0.0
H251 H 1.02423 0.32964 0.55021 0.0
H252 H 1.05912 0.43362 0.54801 0.0
C253 C 1.01907 0.39936 0.45309 0.0
C254 C 0.72714 0.74437 0.8356 0.0
C255 C 0.67127 0.71448 0.82445 0.0
H256 H 0.77858 0.82769 0.85005 0.0
C257 C 0.62379 0.74844 0.81723 0.0
H258 H 0.76476 0.71995 0.84131 0.0
C259 C 0.63198 0.81062 0.82175 0.0
C260 C 0.68763 0.84013 0.83417 0.0
H261 H 0.58017 0.72701 0.80831 0.0
H262 H 0.59453 0.8355 0.81678 0.0
C263 C 0.7351 0.80622 0.84063 0.0
C264 C 0.90098 0.53399 0.11307 0.0
C265 C 0.93664 0.58682 0.12566 0.0
H266 H 0.81437 0.49118 0.09719 0.0
C267 C 0.90879 0.63723 0.13518 0.0
H268 H 0.92013 0.49386 0.10591 0.0
C269 C 0.8472 0.6353 0.13046 0.0
C270 C 0.81209 0.5829 0.11625 0.0
H271 H 0.93451 0.67866 0.14512 0.0
H272 H 0.82713 0.67537 0.13627 0.0
C273 C 0.84 0.53217 0.10836 0.0
C274 C 0.33244 0.7935 0.47375 0.0
C275 C 0.33199 0.84298 0.45187 0.0
H276 H 0.2932 0.70637 0.48067 0.0
C277 C 0.28888 0.84291 0.42038 0.0
H278 H 0.36483 0.79264 0.49841 0.0
C279 C 0.24803 0.79381 0.41036 0.0
C280 C 0.24923 0.74384 0.4317 0.0
H281 H 0.28767 0.88021 0.40285 0.0
H282 H 0.21573 0.79469 0.38564 0.0
C283 C 0.29122 0.74445 0.46385 0.0
C284 C 0.58904 0.30314 0.78017 0.0
C285 C 0.62828 0.33674 0.80848 0.0
H286 H 0.56281 0.21796 0.75074 0.0
C287 C 0.66791 0.30699 0.83193 0.0
H288 H 0.55773 0.32431 0.76173 0.0
C289 C 0.67068 0.24594 0.82572 0.0
C290 C 0.63413 0.2131 0.79576 0.0
H291 H 0.69857 0.33123 0.85426 0.0
H292 H 0.70384 0.22519 0.84293 0.0
C293 C 0.59203 0.24213 0.77385 0.0
C294 C 0.72374 0.84588 0.4729 0.0
C295 C 0.68801 0.87521 0.49532 0.0
H296 H 0.74223 0.76272 0.44764 0.0
C297 C 0.64635 0.8412 0.51257 0.0
H298 H 0.75599 0.87072 0.45904 0.0
C299 C 0.63947 0.77941 0.50665 0.0
C300 C 0.6734 0.75058 0.48287 0.0
H301 H 0.6182 0.8624 0.53005 0.0
H302 H 0.6059 0.75431 0.51928 0.0
C303 C 0.71599 0.78417 0.46637 0.0
C304 C 1.0752 0.43378 0.80645 0.0
C305 C 1.0256 0.45144 0.78485 0.0
H306 H 0.1567 0.4644 0.84002 0.0
C307 C 1.03254 0.50324 0.76546 0.0
H308 H 1.07257 0.39236 0.81996 0.0
C309 C 1.07977 0.54523 0.77769 0.0
C310 C 1.12127 0.53423 0.80814 0.0
H311 H 0.99664 0.5172 0.74677 0.0
H312 H 1.07782 0.589 0.76757 0.0
C313 C 1.12309 0.47552 0.81837 0.0
C314 C 0.37079 0.98227 0.17611 0.0
C315 C 0.36668 0.9229 0.18523 0.0
H316 H 0.42423 0.06468 0.17938 0.0
C317 C 0.41597 0.90085 0.2044 0.0
H318 H 0.33388 1.00045 0.16093 0.0
C319 C 0.46807 0.93729 0.21426 0.0
C320 C 0.47205 0.9968 0.20547 0.0
H321 H 0.41418 0.85553 0.21226 0.0
H322 H 0.50531 0.91875 0.22876 0.0
C323 C 0.42286 1.01885 0.18618 0.0
C324 C 0.74062 0.2841 0.52243 0.0
C325 C 0.6931 0.24896 0.50117 0.0
H326 H 0.77516 0.37052 0.54686 0.0
C327 C 0.64571 0.27697 0.48442 0.0
H328 H 0.77817 0.26435 0.53547 0.0
C329 C 0.64465 0.33832 0.49053 0.0
C330 C 0.69065 0.37248 0.51375 0.0
H331 H 0.60863 0.25135 0.46764 0.0
H332 H 0.60651 0.35852 0.47886 0.0
C333 C 0.73918 0.34503 0.52886 0.0
C334 C 0.37321 0.79986 0.75616 0.0
C335 C 0.359 0.7445 0.73539 0.0
H336 H 0.34023 0.86683 0.7899 0.0
C337 C 0.30134 0.73054 0.71747 0.0
H338 H 0.41781 0.8143 0.76821 0.0
C339 C 0.2573 0.76311 0.72809 0.0
C340 C 0.27059 0.80787 0.7577 0.0
H341 H 0.28827 0.68962 0.70015 0.0
H342 H 0.21237 0.74562 0.71896 0.0
C343 C 0.32883 0.83106 0.76794 0.0
C344 C 0.84826 0.22981 0.14678 0.0
C345 C 0.86589 0.29077 0.14803 0.0
H346 H 0.77766 0.16252 0.14819 0.0
C347 C 0.82445 0.33111 0.15215 0.0
H348 H 0.8793 0.19773 0.14376 0.0
C349 C 0.76676 0.31112 0.15494 0.0
C350 C 0.74888 0.25025 0.15352 0.0
H351 H 0.83638 0.37835 0.1526 0.0
H352 H 0.73609 0.34348 0.15833 0.0
C353 C 0.79028 0.20972 0.14966 0.0
C354 C 1.11108 0.64926 -0.00171 0.0
C355 C 0.13114 0.59982 0.01584 0.0
H356 H 1.10425 0.69734 0.94821 0.0
C357 C 0.16268 0.5617 -0.00412 0.0
H358 H 1.08692 0.67974 0.01298 0.0
C359 C 0.17333 0.57236 0.95903 0.0
C360 C 0.15247 0.62123 0.94122 0.0
H361 H 0.17941 0.52367 0.00872 0.0
H362 H 0.19768 0.54207 0.94434 0.0
C363 C 1.12163 0.65985 0.96135 0.0
C364 C 0.68439 0.11397 0.36629 0.0
C365 C 0.68057 0.05913 0.38236 0.0
H366 H 0.66353 0.16106 0.31685 0.0
C367 C 0.66079 1.00768 0.35896 0.0
H368 H 0.69915 0.1543 0.384 0.0
C369 C 0.64209 1.01116 0.32042 0.0
C370 C 0.64074 0.06644 0.30469 0.0
H371 H 0.65804 0.96485 0.37077 0.0
H372 H 0.62632 0.97053 0.30329 0.0
C373 C 0.6641 0.11771 0.32779 0.0
C374 C 0.63128 0.55216 0.67451 0.0
C375 C 0.67132 0.52668 0.70012 0.0
H376 H 0.6019 0.56524 0.61632 0.0
C377 C 0.71656 0.4989 0.68617 0.0
H378 H 0.59598 0.57405 0.6844 0.0
C379 C 0.72032 0.49456 0.64728 0.0
C380 C 0.67869 0.5175 0.62142 0.0
H381 H 0.74854 0.47949 0.70518 0.0
H382 H 0.75522 0.47206 0.63734 0.0
C383 C 0.63488 0.54753 0.63551 0.0
C384 C 0.63366 0.08409 0.62663 0.0
C385 C 0.68514 0.06644 0.61454 0.0
H386 H 0.58672 0.10126 0.67325 0.0
C387 C 0.7284 0.04855 0.64158 0.0
H388 H 0.59885 0.09712 0.60659 0.0
C389 C 0.72116 0.05093 0.68021 0.0
C390 C 0.67058 0.07115 0.69218 0.0
H391 H 0.76831 0.03429 0.63307 0.0
H392 H 0.75598 0.03931 0.7008 0.0
C393 C 0.62647 0.08629 0.66487 0.0
C394 C 0.59852 0.56662 0.94864 0.0
C395 C 0.63281 0.5306 0.92941 0.0
H396 H 0.5833 0.60478 0.00279 0.0
C397 C 0.67315 0.49893 0.95027 0.0
H398 H 0.56763 0.59192 0.93289 0.0
C399 C 0.68166 0.50557 -0.01019 0.0
C400 C 0.65095 0.54519 0.00936 0.0
H401 H 0.69998 0.47088 0.93586 0.0
H402 H 0.71428 0.4816 0.00505 0.0
C403 C 0.60759 0.57396 -0.0115 0.0
C404 C 0.19769 0.59428 0.26775 0.0
C405 C 0.14218 0.57967 0.24718 0.0
H406 H 0.24809 0.61397 0.32217 0.0
C407 C 1.09385 0.56985 0.26681 0.0
H408 H 0.23573 0.60102 0.25318 0.0
C409 C 1.1005 0.57926 0.3065 0.0
C410 C 0.15581 0.59748 0.32705 0.0
H411 H 1.05056 0.55849 0.25137 0.0
H412 H 1.06198 0.57547 0.32075 0.0
C413 C 0.20458 0.60203 0.30724 0.0
loop_
_geom_bond_atom_site_label_1
_geom_bond_atom_site_label_2
_geom_bond_distance
_geom_bond_site_symmetry_2
_ccdc_geom_bond_type
Dy0 O3 2.307 1_455 S
Dy0 O5 2.395 . S
Dy0 O6 2.379 . S
Dy0 O8 2.339 . S
Dy0 O10 2.298 . S
Dy0 O14 2.275 . S
Dy0 C22 2.738 . S
Dy1 O4 2.298 . S
Dy1 O7 2.275 1_655 S
Dy1 O9 2.307 1_655 S
Dy1 O11 2.395 . S
Dy1 O12 2.379 . S
Dy1 O15 2.339 . S
Dy1 C31 2.738 . S
C2 O14 1.254 . S
C2 O15 1.257 1_455 S
O3 Dy0 2.307 1_655 S
O3 C13 1.266 . S
O4 Dy1 2.298 . S
O4 C13 1.236 . S
O5 Dy0 2.395 . S
O5 C22 1.255 . S
O6 Dy0 2.379 . S
O6 C22 1.249 . S
O7 Dy1 2.275 1_455 S
O7 C23 1.254 . S
O8 Dy0 2.339 . S
O8 C23 1.257 . S
O9 Dy1 2.307 1_455 S
O9 C24 1.266 . S
O10 Dy0 2.298 . S
O10 C24 1.236 . S
O11 Dy1 2.395 . S
O11 C31 1.255 . S
O12 Dy1 2.379 . S
O12 C31 1.249 . S
C13 O3 1.266 . S
C13 O4 1.236 . S
O14 Dy0 2.275 . S
O14 C2 1.254 . S
O15 Dy1 2.339 . S
O15 C2 1.257 1_655 S
C16 C19 1.344 . S
C16 C20 1.328 . S
C16 C22 1.516 . S
C17 C18 1.304 . S
C17 C21 1.323 . S
C18 C17 1.304 . S
C18 C19 1.371 . S
C18 H32 0.930 . S
C19 C16 1.344 . S
C19 C18 1.371 . S
C19 H33 0.931 . S
C20 C16 1.328 . S
C20 C21 1.433 . S
C20 H34 0.931 . S
C21 C17 1.323 . S
C21 C20 1.433 . S
C21 H35 0.933 . S
C22 Dy0 2.738 . S
C22 O5 1.255 . S
C22 O6 1.249 . S
C22 C16 1.516 . S
C23 O7 1.254 . S
C23 O8 1.257 . S
C24 O9 1.266 . S
C24 O10 1.236 . S
C25 C28 1.344 . S
C25 C29 1.328 . S
C25 C31 1.516 . S
C26 C27 1.304 . S
C26 C30 1.323 . S
C27 C26 1.304 . S
C27 C28 1.371 . S
C27 H36 0.930 . S
C28 C25 1.344 . S
C28 C27 1.371 . S
C28 H37 0.931 . S
C29 C25 1.328 . S
C29 C30 1.433 . S
C29 H38 0.931 . S
C30 C26 1.323 . S
C30 C29 1.433 . S
C30 H39 0.933 . S
C31 Dy1 2.738 . S
C31 O11 1.255 . S
C31 O12 1.249 . S
C31 C25 1.516 . S
H32 C18 0.930 . S
H33 C19 0.931 . S
H34 C20 0.931 . S
H35 C21 0.933 . S
H36 C27 0.930 . S
H37 C28 0.931 . S
H38 C29 0.931 . S
H39 C30 0.933 . S
Dy40 O43 2.307 . S
Dy40 O45 2.395 1_545 S
Dy40 O46 2.379 1_545 S
Dy40 O48 2.339 . S
Dy40 O50 2.298 1_545 S
Dy40 O54 2.275 . S
Dy40 C62 2.738 1_545 S
Dy41 O44 2.298 . S
Dy41 O47 2.275 . S
Dy41 O49 2.307 1_545 S
Dy41 O51 2.395 . S
Dy41 O52 2.379 . S
Dy41 O55 2.339 . S
Dy41 C71 2.738 . S
C42 O54 1.254 . S
C42 O55 1.257 . S
O43 Dy40 2.307 . S
O43 C53 1.266 . S
O44 Dy41 2.298 . S
O44 C53 1.236 . S
O45 Dy40 2.395 1_565 S
O45 C62 1.255 . S
O46 Dy40 2.379 1_565 S
O46 C62 1.249 . S
O47 Dy41 2.275 . S
O47 C63 1.254 . S
O48 Dy40 2.339 . S
O48 C63 1.257 . S
O49 Dy41 2.307 1_565 S
O49 C64 1.266 . S
O50 Dy40 2.298 1_565 S
O50 C64 1.236 . S
O51 Dy41 2.395 . S
O51 C71 1.255 . S
O52 Dy41 2.379 . S
O52 C71 1.249 . S
C53 O43 1.266 . S
C53 O44 1.236 . S
O54 Dy40 2.275 . S
O54 C42 1.254 . S
O55 Dy41 2.339 . S
O55 C42 1.257 . S
C56 C59 1.344 . S
C56 C60 1.328 . S
C56 C62 1.516 . S
C57 C58 1.304 . S
C57 C61 1.323 . S
C58 C57 1.304 . S
C58 C59 1.371 . S
C58 H72 0.930 . S
C59 C56 1.344 . S
C59 C58 1.371 . S
C59 H73 0.931 . S
C60 C56 1.328 . S
C60 C61 1.433 . S
C60 H74 0.931 . S
C61 C57 1.323 . S
C61 C60 1.433 . S
C61 H75 0.933 . S
C62 Dy40 2.738 1_565 S
C62 O45 1.255 . S
C62 O46 1.249 . S
C62 C56 1.516 . S
C63 O47 1.254 . S
C63 O48 1.257 . S
C64 O49 1.266 . S
C64 O50 1.236 . S
C65 C68 1.344 . S
C65 C69 1.328 . S
C65 C71 1.516 . S
C66 C67 1.304 . S
C66 C70 1.323 . S
C67 C66 1.304 . S
C67 C68 1.371 . S
C67 H76 0.930 . S
C68 C65 1.344 . S
C68 C67 1.371 . S
C68 H77 0.931 . S
C69 C65 1.328 . S
C69 C70 1.433 . S
C69 H78 0.931 . S
C70 C66 1.323 . S
C70 C69 1.433 . S
C70 H79 0.933 . S
C71 Dy41 2.738 . S
C71 O51 1.255 . S
C71 O52 1.249 . S
C71 C65 1.516 . S
H72 C58 0.930 . S
H73 C59 0.931 . S
H74 C60 0.931 . S
H75 C61 0.933 . S
H76 C67 0.930 . S
H77 C68 0.931 . S
H78 C69 0.931 . S
H79 C70 0.933 . S
Dy80 O83 2.307 . S
Dy80 O85 2.395 . S
Dy80 O86 2.379 . S
Dy80 O88 2.339 . S
Dy80 O90 2.298 . S
Dy80 O94 2.275 . S
Dy80 C102 2.738 . S
Dy81 O84 2.298 . S
Dy81 O87 2.275 . S
Dy81 O89 2.307 . S
Dy81 O91 2.395 . S
Dy81 O92 2.379 . S
Dy81 O95 2.339 . S
Dy81 C111 2.738 . S
C82 O94 1.254 . S
C82 O95 1.257 . S
O83 Dy80 2.307 . S
O83 C93 1.266 . S
O84 Dy81 2.298 . S
O84 C93 1.236 . S
O85 Dy80 2.395 . S
O85 C102 1.255 . S
O86 Dy80 2.379 . S
O86 C102 1.249 . S
O87 Dy81 2.275 . S
O87 C103 1.254 . S
O88 Dy80 2.339 . S
O88 C103 1.257 . S
O89 Dy81 2.307 . S
O89 C104 1.266 . S
O90 Dy80 2.298 . S
O90 C104 1.236 . S
O91 Dy81 2.395 . S
O91 C111 1.255 . S
O92 Dy81 2.379 . S
O92 C111 1.249 . S
C93 O83 1.266 . S
C93 O84 1.236 . S
O94 Dy80 2.275 . S
O94 C82 1.254 . S
O95 Dy81 2.339 . S
O95 C82 1.257 . S
C96 C99 1.344 . S
C96 C100 1.328 . S
C96 C102 1.516 . S
C97 C98 1.304 . S
C97 C101 1.323 . S
C98 C97 1.304 . S
C98 C99 1.371 . S
C98 H112 0.930 . S
C99 C96 1.344 . S
C99 C98 1.371 . S
C99 H113 0.931 . S
C100 C96 1.328 . S
C100 C101 1.433 . S
C100 H114 0.931 . S
C101 C97 1.323 . S
C101 C100 1.433 . S
C101 H115 0.933 . S
C102 Dy80 2.738 . S
C102 O85 1.255 . S
C102 O86 1.249 . S
C102 C96 1.516 . S
C103 O87 1.254 . S
C103 O88 1.257 . S
C104 O89 1.266 . S
C104 O90 1.236 . S
C105 C108 1.344 . S
C105 C109 1.328 . S
C105 C111 1.516 . S
C106 C107 1.304 . S
C106 C110 1.323 . S
C107 C106 1.304 . S
C107 C108 1.371 . S
C107 H116 0.930 . S
C108 C105 1.344 . S
C108 C107 1.371 . S
C108 H117 0.931 . S
C109 C105 1.328 . S
C109 C110 1.433 . S
C109 H118 0.931 . S
C110 C106 1.323 . S
C110 C109 1.433 . S
C110 H119 0.933 . S
C111 Dy81 2.738 . S
C111 O91 1.255 . S
C111 O92 1.249 . S
C111 C105 1.516 . S
H112 C98 0.930 . S
H113 C99 0.931 . S
H114 C100 0.931 . S
H115 C101 0.933 . S
H116 C107 0.930 . S
H117 C108 0.931 . S
H118 C109 0.931 . S
H119 C110 0.933 . S
H120 C121 0.949 . S
C121 H120 0.949 . S
C121 C122 1.395 . S
C121 C123 1.391 . S
C122 C121 1.395 . S
C122 C125 1.390 . S
C123 C121 1.391 . S
C123 C127 1.387 . S
C123 C128 1.491 . S
H124 C125 0.950 1_565 S
C125 C122 1.390 . S
C125 H124 0.950 1_545 S
C125 C126 1.378 . S
C126 C125 1.378 . S
C126 C127 1.409 . S
C127 C123 1.387 . S
C127 C126 1.409 . S
C127 H129 0.951 . S
C128 C123 1.491 . S
C128 C130 1.382 . S
C128 C132 1.404 . S
H129 C127 0.951 . S
C130 C128 1.382 . S
C130 C131 1.390 . S
C130 H135 0.949 . S
C131 C130 1.390 . S
C131 C136 1.399 . S
C132 C128 1.404 . S
C132 H133 0.950 . S
C132 C134 1.375 . S
H133 C132 0.950 . S
C134 C132 1.375 . S
C134 C136 1.382 . S
C134 H138 0.950 . S
H135 C130 0.949 . S
C136 C131 1.399 . S
C136 C134 1.382 . S
C136 H137 0.952 . S
H137 C136 0.952 . S
H138 C134 0.950 . S
H139 C140 0.949 . S
C140 H139 0.949 . S
C140 C141 1.395 . S
C140 C142 1.391 . S
C141 C140 1.395 . S
C141 C144 1.390 . S
C142 C140 1.391 . S
C142 C146 1.387 . S
C142 C147 1.491 . S
H143 C144 0.950 . S
C144 C141 1.390 . S
C144 H143 0.950 . S
C144 C145 1.378 . S
C145 C144 1.378 . S
C145 C146 1.409 . S
C146 C142 1.387 . S
C146 C145 1.409 . S
C146 H148 0.951 . S
C147 C142 1.491 . S
C147 C149 1.382 . S
C147 C151 1.404 . S
H148 C146 0.951 . S
C149 C147 1.382 . S
C149 C150 1.390 . S
C149 H154 0.949 . S
C150 C149 1.390 . S
C150 C155 1.399 . S
C151 C147 1.404 . S
C151 H152 0.950 . S
C151 C153 1.375 . S
H152 C151 0.950 . S
C153 C151 1.375 . S
C153 C155 1.382 . S
C153 H157 0.950 . S
H154 C149 0.949 . S
C155 C150 1.399 . S
C155 C153 1.382 . S
C155 H156 0.952 . S
H156 C155 0.952 . S
H157 C153 0.950 . S
H158 C159 0.949 . S
C159 H158 0.949 . S
C159 C160 1.395 . S
C159 C161 1.391 . S
C160 C159 1.395 . S
C160 C163 1.390 1_455 S
C161 C159 1.391 . S
C161 C165 1.387 1_455 S
C161 C166 1.491 . S
H162 C163 0.950 . S
C163 C160 1.390 1_655 S
C163 H162 0.950 . S
C163 C164 1.378 . S
C164 C163 1.378 . S
C164 C165 1.409 . S
C165 C161 1.387 1_655 S
C165 C164 1.409 . S
C165 H167 0.951 . S
C166 C161 1.491 . S
C166 C168 1.382 . S
C166 C170 1.404 . S
H167 C165 0.951 . S
C168 C166 1.382 . S
C168 C169 1.390 . S
C168 H173 0.949 . S
C169 C168 1.390 . S
C169 C174 1.399 . S
C170 C166 1.404 . S
C170 H171 0.950 . S
C170 C172 1.375 . S
H171 C170 0.950 . S
C172 C170 1.375 . S
C172 C174 1.382 . S
C172 H176 0.950 . S
H173 C168 0.949 . S
C174 C169 1.399 . S
C174 C172 1.382 . S
C174 H175 0.952 . S
H175 C174 0.952 . S
H176 C172 0.950 . S
H177 C178 0.949 1_655 S
C178 H177 0.949 1_455 S
C178 C179 1.395 . S
C178 C180 1.391 . S
C179 C178 1.395 . S
C179 C182 1.390 . S
C180 C178 1.391 . S
C180 C184 1.387 . S
C180 C185 1.491 1_455 S
H181 C182 0.950 . S
C182 C179 1.390 . S
C182 H181 0.950 . S
C182 C183 1.378 . S
C183 C182 1.378 . S
C183 C184 1.409 . S
C184 C180 1.387 . S
C184 C183 1.409 . S
C184 H186 0.951 . S
C185 C180 1.491 1_655 S
C185 C187 1.382 . S
C185 C189 1.404 . S
H186 C184 0.951 . S
C187 C185 1.382 . S
C187 C188 1.390 . S
C187 H192 0.949 . S
C188 C187 1.390 . S
C188 C193 1.399 . S
C189 C185 1.404 . S
C189 H190 0.950 . S
C189 C191 1.375 . S
H190 C189 0.950 . S
C191 C189 1.375 . S
C191 C193 1.382 . S
C191 H195 0.950 . S
H192 C187 0.949 . S
C193 C188 1.399 . S
C193 C191 1.382 . S
C193 H194 0.952 . S
H194 C193 0.952 . S
H195 C191 0.950 . S
H196 C197 0.949 1_565 S
C197 H196 0.949 1_545 S
C197 C198 1.395 . S
C197 C199 1.391 . S
C198 C197 1.395 . S
C198 C201 1.390 . S
C199 C197 1.391 . S
C199 C203 1.387 . S
C199 C204 1.491 1_545 S
H200 C201 0.950 . S
C201 C198 1.390 . S
C201 H200 0.950 . S
C201 C202 1.378 . S
C202 C201 1.378 . S
C202 C203 1.409 . S
C203 C199 1.387 . S
C203 C202 1.409 . S
C203 H205 0.951 . S
C204 C199 1.491 1_565 S
C204 C206 1.382 . S
C204 C208 1.404 . S
H205 C203 0.951 . S
C206 C204 1.382 . S
C206 C207 1.390 . S
C206 H211 0.949 . S
C207 C206 1.390 . S
C207 C212 1.399 . S
C208 C204 1.404 . S
C208 H209 0.950 . S
C208 C210 1.375 . S
H209 C208 0.950 . S
C210 C208 1.375 . S
C210 C212 1.382 . S
C210 H214 0.950 . S
H211 C206 0.949 . S
C212 C207 1.399 . S
C212 C210 1.382 . S
C212 H213 0.952 . S
H213 C212 0.952 . S
H214 C210 0.950 . S
H215 C216 0.949 . S
C216 H215 0.949 . S
C216 C217 1.395 . S
C216 C218 1.391 . S
C217 C216 1.395 . S
C217 C220 1.390 . S
C218 C216 1.391 . S
C218 C222 1.387 . S
C218 C223 1.491 . S
H219 C220 0.950 . S
C220 C217 1.390 . S
C220 H219 0.950 . S
C220 C221 1.378 . S
C221 C220 1.378 . S
C221 C222 1.409 . S
C222 C218 1.387 . S
C222 C221 1.409 . S
C222 H224 0.951 . S
C223 C218 1.491 . S
C223 C225 1.382 . S
C223 C227 1.404 . S
H224 C222 0.951 . S
C225 C223 1.382 . S
C225 C226 1.390 . S
C225 H230 0.949 . S
C226 C225 1.390 . S
C226 C231 1.399 . S
C227 C223 1.404 . S
C227 H228 0.950 . S
C227 C229 1.375 . S
H228 C227 0.950 . S
C229 C227 1.375 . S
C229 C231 1.382 . S
C229 H233 0.950 . S
H230 C225 0.949 . S
C231 C226 1.399 . S
C231 C229 1.382 . S
C231 H232 0.952 . S
H232 C231 0.952 . S
H233 C229 0.950 . S
C234 C235 1.387 . S
C234 H238 0.950 . S
C234 C243 1.390 . S
C235 C234 1.387 . S
C235 C237 1.387 . S
H236 C243 0.950 . S
C237 C235 1.387 . S
C237 C239 1.390 . S
C237 H241 0.950 . S
H238 C234 0.950 . S
C239 C237 1.390 . S
C239 C240 1.387 . S
C239 H242 0.950 . S
C240 C239 1.387 . S
C240 C243 1.387 . S
H241 C237 0.950 . S
H242 C239 0.950 . S
C243 C234 1.390 . S
C243 H236 0.950 . S
C243 C240 1.387 . S
C244 C245 1.387 . S
C244 H248 0.950 . S
C244 C253 1.390 . S
C245 C244 1.387 . S
C245 C247 1.387 . S
H246 C253 0.950 . S
C247 C245 1.387 . S
C247 C249 1.390 . S
C247 H251 0.950 . S
H248 C244 0.950 . S
C249 C247 1.390 . S
C249 C250 1.387 . S
C249 H252 0.950 . S
C250 C249 1.387 . S
C250 C253 1.387 . S
H251 C247 0.950 . S
H252 C249 0.950 . S
C253 C244 1.390 . S
C253 H246 0.950 . S
C253 C250 1.387 . S
C254 C255 1.387 . S
C254 H258 0.950 . S
C254 C263 1.390 . S
C255 C254 1.387 . S
C255 C257 1.387 . S
H256 C263 0.950 . S
C257 C255 1.387 . S
C257 C259 1.390 . S
C257 H261 0.950 . S
H258 C254 0.950 . S
C259 C257 1.390 . S
C259 C260 1.387 . S
C259 H262 0.950 . S
C260 C259 1.387 . S
C260 C263 1.387 . S
H261 C257 0.950 . S
H262 C259 0.950 . S
C263 C254 1.390 . S
C263 H256 0.950 . S
C263 C260 1.387 . S
C264 C265 1.387 . S
C264 H268 0.950 . S
C264 C273 1.390 . S
C265 C264 1.387 . S
C265 C267 1.387 . S
H266 C273 0.950 . S
C267 C265 1.387 . S
C267 C269 1.390 . S
C267 H271 0.950 . S
H268 C264 0.950 . S
C269 C267 1.390 . S
C269 C270 1.387 . S
C269 H272 0.950 . S
C270 C269 1.387 . S
C270 C273 1.387 . S
H271 C267 0.950 . S
H272 C269 0.950 . S
C273 C264 1.390 . S
C273 H266 0.950 . S
C273 C270 1.387 . S
C274 C275 1.387 . S
C274 H278 0.950 . S
C274 C283 1.390 . S
C275 C274 1.387 . S
C275 C277 1.387 . S
H276 C283 0.950 . S
C277 C275 1.387 . S
C277 C279 1.390 . S
C277 H281 0.950 . S
H278 C274 0.950 . S
C279 C277 1.390 . S
C279 C280 1.387 . S
C279 H282 0.950 . S
C280 C279 1.387 . S
C280 C283 1.387 . S
H281 C277 0.950 . S
H282 C279 0.950 . S
C283 C274 1.390 . S
C283 H276 0.950 . S
C283 C280 1.387 . S
C284 C285 1.387 . S
C284 H288 0.950 . S
C284 C293 1.390 . S
C285 C284 1.387 . S
C285 C287 1.387 . S
H286 C293 0.950 . S
C287 C285 1.387 . S
C287 C289 1.390 . S
C287 H291 0.950 . S
H288 C284 0.950 . S
C289 C287 1.390 . S
C289 C290 1.387 . S
C289 H292 0.950 . S
C290 C289 1.387 . S
C290 C293 1.387 . S
H291 C287 0.950 . S
H292 C289 0.950 . S
C293 C284 1.390 . S
C293 H286 0.950 . S
C293 C290 1.387 . S
C294 C295 1.387 . S
C294 H298 0.950 . S
C294 C303 1.390 . S
C295 C294 1.387 . S
C295 C297 1.387 . S
H296 C303 0.950 . S
C297 C295 1.387 . S
C297 C299 1.390 . S
C297 H301 0.950 . S
H298 C294 0.950 . S
C299 C297 1.390 . S
C299 C300 1.387 . S
C299 H302 0.950 . S
C300 C299 1.387 . S
C300 C303 1.387 . S
H301 C297 0.950 . S
H302 C299 0.950 . S
C303 C294 1.390 . S
C303 H296 0.950 . S
C303 C300 1.387 . S
C304 C305 1.387 . S
C304 H308 0.950 . S
C304 C313 1.390 . S
C305 C304 1.387 . S
C305 C307 1.387 . S
H306 C313 0.950 . S
C307 C305 1.387 . S
C307 C309 1.390 . S
C307 H311 0.950 . S
H308 C304 0.950 . S
C309 C307 1.390 . S
C309 C310 1.387 . S
C309 H312 0.950 . S
C310 C309 1.387 . S
C310 C313 1.387 . S
H311 C307 0.950 . S
H312 C309 0.950 . S
C313 C304 1.390 . S
C313 H306 0.950 . S
C313 C310 1.387 . S
C314 C315 1.387 . S
C314 H318 0.950 . S
C314 C323 1.390 . S
C315 C314 1.387 . S
C315 C317 1.387 . S
H316 C323 0.950 1_545 S
C317 C315 1.387 . S
C317 C319 1.390 . S
C317 H321 0.950 . S
H318 C314 0.950 . S
C319 C317 1.390 . S
C319 C320 1.387 . S
C319 H322 0.950 . S
C320 C319 1.387 . S
C320 C323 1.387 . S
H321 C317 0.950 . S
H322 C319 0.950 . S
C323 C314 1.390 . S
C323 H316 0.950 1_565 S
C323 C320 1.387 . S
C324 C325 1.387 . S
C324 H328 0.950 . S
C324 C333 1.390 . S
C325 C324 1.387 . S
C325 C327 1.387 . S
H326 C333 0.950 . S
C327 C325 1.387 . S
C327 C329 1.390 . S
C327 H331 0.950 . S
H328 C324 0.950 . S
C329 C327 1.390 . S
C329 C330 1.387 . S
C329 H332 0.950 . S
C330 C329 1.387 . S
C330 C333 1.387 . S
H331 C327 0.950 . S
H332 C329 0.950 . S
C333 C324 1.390 . S
C333 H326 0.950 . S
C333 C330 1.387 . S
C334 C335 1.387 . S
C334 H338 0.950 . S
C334 C343 1.390 . S
C335 C334 1.387 . S
C335 C337 1.387 . S
H336 C343 0.950 . S
C337 C335 1.387 . S
C337 C339 1.390 . S
C337 H341 0.950 . S
H338 C334 0.950 . S
C339 C337 1.390 . S
C339 C340 1.387 . S
C339 H342 0.950 . S
C340 C339 1.387 . S
C340 C343 1.387 . S
H341 C337 0.950 . S
H342 C339 0.950 . S
C343 C334 1.390 . S
C343 H336 0.950 . S
C343 C340 1.387 . S
C344 C345 1.387 . S
C344 H348 0.950 . S
C344 C353 1.390 . S
C345 C344 1.387 . S
C345 C347 1.387 . S
H346 C353 0.950 . S
C347 C345 1.387 . S
C347 C349 1.390 . S
C347 H351 0.950 . S
H348 C344 0.950 . S
C349 C347 1.390 . S
C349 C350 1.387 . S
C349 H352 0.950 . S
C350 C349 1.387 . S
C350 C353 1.387 . S
H351 C347 0.950 . S
H352 C349 0.950 . S
C353 C344 1.390 . S
C353 H346 0.950 . S
C353 C350 1.387 . S
C354 C355 1.387 . S
C354 H358 0.950 . S
C354 C363 1.390 1_554 S
C355 C354 1.387 . S
C355 C357 1.387 . S
H356 C363 0.950 . S
C357 C355 1.387 . S
C357 C359 1.390 1_554 S
C357 H361 0.950 . S
H358 C354 0.950 . S
C359 C357 1.390 1_556 S
C359 C360 1.387 . S
C359 H362 0.950 . S
C360 C359 1.387 . S
C360 C363 1.387 . S
H361 C357 0.950 . S
H362 C359 0.950 . S
C363 C354 1.390 1_556 S
C363 H356 0.950 . S
C363 C360 1.387 . S
C364 C365 1.387 . S
C364 H368 0.950 . S
C364 C373 1.390 . S
C365 C364 1.387 . S
C365 C367 1.387 . S
H366 C373 0.950 . S
C367 C365 1.387 . S
C367 C369 1.390 . S
C367 H371 0.950 1_545 S
H368 C364 0.950 . S
C369 C367 1.390 . S
C369 C370 1.387 . S
C369 H372 0.950 1_545 S
C370 C369 1.387 . S
C370 C373 1.387 . S
H371 C367 0.950 1_565 S
H372 C369 0.950 1_565 S
C373 C364 1.390 . S
C373 H366 0.950 . S
C373 C370 1.387 . S
C374 C375 1.387 . S
C374 H378 0.950 . S
C374 C383 1.390 . S
C375 C374 1.387 . S
C375 C377 1.387 . S
H376 C383 0.950 . S
C377 C375 1.387 . S
C377 C379 1.390 . S
C377 H381 0.950 . S
H378 C374 0.950 . S
C379 C377 1.390 . S
C379 C380 1.387 . S
C379 H382 0.950 . S
C380 C379 1.387 . S
C380 C383 1.387 . S
H381 C377 0.950 . S
H382 C379 0.950 . S
C383 C374 1.390 . S
C383 H376 0.950 . S
C383 C380 1.387 . S
C384 C385 1.387 . S
C384 H388 0.950 . S
C384 C393 1.390 . S
C385 C384 1.387 . S
C385 C387 1.387 . S
H386 C393 0.950 . S
C387 C385 1.387 . S
C387 C389 1.390 . S
C387 H391 0.950 . S
H388 C384 0.950 . S
C389 C387 1.390 . S
C389 C390 1.387 . S
C389 H392 0.950 . S
C390 C389 1.387 . S
C390 C393 1.387 . S
H391 C387 0.950 . S
H392 C389 0.950 . S
C393 C384 1.390 . S
C393 H386 0.950 . S
C393 C390 1.387 . S
C394 C395 1.387 . S
C394 H398 0.950 . S
C394 C403 1.390 . S
C395 C394 1.387 . S
C395 C397 1.387 . S
H396 C403 0.950 1_554 S
C397 C395 1.387 . S
C397 C399 1.390 1_556 S
C397 H401 0.950 . S
H398 C394 0.950 . S
C399 C397 1.390 1_554 S
C399 C400 1.387 . S
C399 H402 0.950 . S
C400 C399 1.387 . S
C400 C403 1.387 1_554 S
H401 C397 0.950 . S
H402 C399 0.950 . S
C403 C394 1.390 . S
C403 H396 0.950 1_556 S
C403 C400 1.387 1_556 S
C404 C405 1.387 . S
C404 H408 0.950 . S
C404 C413 1.390 . S
C405 C404 1.387 . S
C405 C407 1.387 1_455 S
H406 C413 0.950 . S
C407 C405 1.387 1_655 S
C407 C409 1.389 . S
C407 H411 0.950 . S
H408 C404 0.950 . S
C409 C407 1.389 . S
C409 C410 1.375 1_655 S
C409 H412 0.963 . S
C410 C409 1.375 1_455 S
C410 C413 1.387 . S
H411 C407 0.950 . S
H412 C409 0.963 . S
C413 C404 1.390 . S
C413 H406 0.950 . S
C413 C410 1.387 . S
C235 C24 3.129 . S
C240 C226 3.064 . S
C245 C66 1.271 . S
C250 C188 1.202 . S
C255 C93 1.953 . S
C260 C207 1.892 . S
C265 C13 3.098 . S
C270 C221 3.059 . S
C280 C183 1.117 . S
C275 C57 1.119 . S
C290 C202 1.890 . S
C285 C104 1.919 . S
C295 C64 2.056 . S
C300 C150 1.988 . S
C305 C97 0.684 . S
C310 C164 0.657 . S
C315 C17 1.348 . S
C320 C126 1.392 1_565 S
C330 C145 1.777 . S
C325 C53 1.817 . S
C340 C169 0.700 . S
C335 C106 0.604 . S
C345 C26 1.295 . S
C350 C131 1.274 . S
C360 C160 1.259 . S
C355 C2 1.218 . S
C365 C63 1.515 . S
C370 C122 1.501 . S
C375 C82 1.481 . S
C380 C141 1.518 . S
C390 C198 1.501 . S
C385 C42 1.468 . S
C400 C217 1.764 . S
C395 C103 1.757 . S
C405 C23 1.602 . S
C410 C179 1.583 . S
