# Generated by pormake.
# Topology ctn, (3,4)-cn, num edge types: 1
# Building blocks:
#     Node 0, Type 0, BuildingBlock: ESEHIV_clean_linker_0, # of connection points: 3
#     Node 1, Type 0, BuildingBlock: ESEHIV_clean_linker_0, # of connection points: 3
#     Node 2, Type 0, BuildingBlock: ESEHIV_clean_linker_0, # of connection points: 3
#     Node 3, Type 0, BuildingBlock: ESEHIV_clean_linker_0, # of connection points: 3
#     Node 4, Type 0, BuildingBlock: ESEHIV_clean_linker_0, # of connection points: 3
#     Node 5, Type 0, BuildingBlock: ESEHIV_clean_linker_0, # of connection points: 3
#     Node 6, Type 0, BuildingBlock: ESEHIV_clean_linker_0, # of connection points: 3
#     Node 7, Type 0, BuildingBlock: ESEHIV_clean_linker_0, # of connection points: 3
#     Node 8, Type 0, BuildingBlock: ESEHIV_clean_linker_0, # of connection points: 3
#     Node 9, Type 0, BuildingBlock: ESEHIV_clean_linker_0, # of connection points: 3
#     Node 10, Type 0, BuildingBlock: ESEHIV_clean_linker_0, # of connection points: 3
#     Node 11, Type 0, BuildingBlock: ESEHIV_clean_linker_0, # of connection points: 3
#     Node 12, Type 0, BuildingBlock: ESEHIV_clean_linker_0, # of connection points: 3
#     Node 13, Type 0, BuildingBlock: ESEHIV_clean_linker_0, # of connection points: 3
#     Node 14, Type 0, BuildingBlock: ESEHIV_clean_linker_0, # of connection points: 3
#     Node 15, Type 0, BuildingBlock: ESEHIV_clean_linker_0, # of connection points: 3
#     Node 16, Type 1, BuildingBlock: QUQFOY_clean_sbu_1, # of connection points: 4
#     Node 17, Type 1, BuildingBlock: QUQFOY_clean_sbu_1, # of connection points: 4
#     Node 18, Type 1, BuildingBlock: QUQFOY_clean_sbu_1, # of connection points: 4
#     Node 19, Type 1, BuildingBlock: QUQFOY_clean_sbu_1, # of connection points: 4
#     Node 20, Type 1, BuildingBlock: QUQFOY_clean_sbu_1, # of connection points: 4
#     Node 21, Type 1, BuildingBlock: QUQFOY_clean_sbu_1, # of connection points: 4
#     Node 22, Type 1, BuildingBlock: QUQFOY_clean_sbu_1, # of connection points: 4
#     Node 23, Type 1, BuildingBlock: QUQFOY_clean_sbu_1, # of connection points: 4
#     Node 24, Type 1, BuildingBlock: QUQFOY_clean_sbu_1, # of connection points: 4
#     Node 25, Type 1, BuildingBlock: QUQFOY_clean_sbu_1, # of connection points: 4
#     Node 26, Type 1, BuildingBlock: QUQFOY_clean_sbu_1, # of connection points: 4
#     Node 27, Type 1, BuildingBlock: QUQFOY_clean_sbu_1, # of connection points: 4
#     Edge 28, Type (0, 1), BuildingBlock: KIFKEQ_clean_linker_1, # of connection points: 2
#     Edge 29, Type (0, 1), BuildingBlock: KIFKEQ_clean_linker_1, # of connection points: 2
#     Edge 30, Type (0, 1), BuildingBlock: KIFKEQ_clean_linker_1, # of connection points: 2
#     Edge 31, Type (0, 1), BuildingBlock: KIFKEQ_clean_linker_1, # of connection points: 2
#     Edge 32, Type (0, 1), BuildingBlock: KIFKEQ_clean_linker_1, # of connection points: 2
#     Edge 33, Type (0, 1), BuildingBlock: KIFKEQ_clean_linker_1, # of connection points: 2
#     Edge 34, Type (0, 1), BuildingBlock: KIFKEQ_clean_linker_1, # of connection points: 2
#     Edge 35, Type (0, 1), BuildingBlock: KIFKEQ_clean_linker_1, # of connection points: 2
#     Edge 36, Type (0, 1), BuildingBlock: KIFKEQ_clean_linker_1, # of connection points: 2
#     Edge 37, Type (0, 1), BuildingBlock: KIFKEQ_clean_linker_1, # of connection points: 2
#     Edge 38, Type (0, 1), BuildingBlock: KIFKEQ_clean_linker_1, # of connection points: 2
#     Edge 39, Type (0, 1), BuildingBlock: KIFKEQ_clean_linker_1, # of connection points: 2
#     Edge 40, Type (0, 1), BuildingBlock: KIFKEQ_clean_linker_1, # of connection points: 2
#     Edge 41, Type (0, 1), BuildingBlock: KIFKEQ_clean_linker_1, # of connection points: 2
#     Edge 42, Type (0, 1), BuildingBlock: KIFKEQ_clean_linker_1, # of connection points: 2
#     Edge 43, Type (0, 1), BuildingBlock: KIFKEQ_clean_linker_1, # of connection points: 2
#     Edge 44, Type (0, 1), BuildingBlock: KIFKEQ_clean_linker_1, # of connection points: 2
#     Edge 45, Type (0, 1), BuildingBlock: KIFKEQ_clean_linker_1, # of connection points: 2
#     Edge 46, Type (0, 1), BuildingBlock: KIFKEQ_clean_linker_1, # of connection points: 2
#     Edge 47, Type (0, 1), BuildingBlock: KIFKEQ_clean_linker_1, # of connection points: 2
#     Edge 48, Type (0, 1), BuildingBlock: KIFKEQ_clean_linker_1, # of connection points: 2
#     Edge 49, Type (0, 1), BuildingBlock: KIFKEQ_clean_linker_1, # of connection points: 2
#     Edge 50, Type (0, 1), BuildingBlock: KIFKEQ_clean_linker_1, # of connection points: 2
#     Edge 51, Type (0, 1), BuildingBlock: KIFKEQ_clean_linker_1, # of connection points: 2
#     Edge 52, Type (0, 1), BuildingBlock: KIFKEQ_clean_linker_1, # of connection points: 2
#     Edge 53, Type (0, 1), BuildingBlock: KIFKEQ_clean_linker_1, # of connection points: 2
#     Edge 54, Type (0, 1), BuildingBlock: KIFKEQ_clean_linker_1, # of connection points: 2
#     Edge 55, Type (0, 1), BuildingBlock: KIFKEQ_clean_linker_1, # of connection points: 2
#     Edge 56, Type (0, 1), BuildingBlock: KIFKEQ_clean_linker_1, # of connection points: 2
#     Edge 57, Type (0, 1), BuildingBlock: KIFKEQ_clean_linker_1, # of connection points: 2
#     Edge 58, Type (0, 1), BuildingBlock: KIFKEQ_clean_linker_1, # of connection points: 2
#     Edge 59, Type (0, 1), BuildingBlock: KIFKEQ_clean_linker_1, # of connection points: 2
#     Edge 60, Type (0, 1), BuildingBlock: KIFKEQ_clean_linker_1, # of connection points: 2
#     Edge 61, Type (0, 1), BuildingBlock: KIFKEQ_clean_linker_1, # of connection points: 2
#     Edge 62, Type (0, 1), BuildingBlock: KIFKEQ_clean_linker_1, # of connection points: 2
#     Edge 63, Type (0, 1), BuildingBlock: KIFKEQ_clean_linker_1, # of connection points: 2
#     Edge 64, Type (0, 1), BuildingBlock: KIFKEQ_clean_linker_1, # of connection points: 2
#     Edge 65, Type (0, 1), BuildingBlock: KIFKEQ_clean_linker_1, # of connection points: 2
#     Edge 66, Type (0, 1), BuildingBlock: KIFKEQ_clean_linker_1, # of connection points: 2
#     Edge 67, Type (0, 1), BuildingBlock: KIFKEQ_clean_linker_1, # of connection points: 2
#     Edge 68, Type (0, 1), BuildingBlock: KIFKEQ_clean_linker_1, # of connection points: 2
#     Edge 69, Type (0, 1), BuildingBlock: KIFKEQ_clean_linker_1, # of connection points: 2
#     Edge 70, Type (0, 1), BuildingBlock: KIFKEQ_clean_linker_1, # of connection points: 2
#     Edge 71, Type (0, 1), BuildingBlock: KIFKEQ_clean_linker_1, # of connection points: 2
#     Edge 72, Type (0, 1), BuildingBlock: KIFKEQ_clean_linker_1, # of connection points: 2
#     Edge 73, Type (0, 1), BuildingBlock: KIFKEQ_clean_linker_1, # of connection points: 2
#     Edge 74, Type (0, 1), BuildingBlock: KIFKEQ_clean_linker_1, # of connection points: 2
#     Edge 75, Type (0, 1), BuildingBlock: KIFKEQ_clean_linker_1, # of connection points: 2
# Relax obj value: 0.037
# Max RMSD: 0.144
# Mean RMSD: 0.066
data_MOF--net-ctn--node1-QUQFOY_clean_sbu_1--node2-ESEHIV_clean_linker_0--edge1-KIFKEQ_clean_linker_1
_symmetry_space_group_name_H-M    P1
_symmetry_Int_Tables_number       1
_symmetry_cell_setting            triclinic
loop_
_symmetry_equiv_pos_as_xyz
'x, y, z'
_cell_length_a     52.970034
_cell_length_b     52.913583
_cell_length_c     52.961914
_cell_angle_alpha  92.858554
_cell_angle_beta   90.120556
_cell_angle_gamma 94.713138
loop_
_atom_site_label
_atom_site_type_symbol
_atom_site_fract_x
_atom_site_fract_y
_atom_site_fract_z
_atom_type_partial_charge
H0 H 0.9946 0.07863 0.04607 0.0
H1 H 0.04258 0.0225 0.07001 0.0
H2 H 0.063 0.06598 0.00567 0.0
C3 C 0.01183 0.06903 0.04416 0.0
C4 C 0.02855 0.07513 0.0244 0.0
C5 C 0.01673 0.05031 0.061 0.0
C6 C 0.03848 0.03702 0.05727 0.0
C7 C 0.05489 0.04205 0.03697 0.0
C8 C 0.04992 0.06136 0.02078 0.0
H9 H 0.2946 0.71765 0.27367 0.0
H10 H 0.31374 0.78074 0.22731 0.0
H11 H 0.24983 0.72779 0.20776 0.0
C12 C 0.29073 0.72841 0.25741 0.0
C13 C 0.27009 0.72032 0.24155 0.0
C14 C 0.30666 0.75004 0.25229 0.0
C15 C 0.30165 0.76385 0.23113 0.0
C16 C 0.28086 0.7562 0.21518 0.0
C17 C 0.26526 0.73438 0.22053 0.0
H18 H 0.93686 0.51025 0.09277 0.0
H19 H 0.97079 0.44103 0.07264 0.0
H20 H 0.90816 0.46221 0.02941 0.0
C21 C 0.93734 0.49307 0.0809 0.0
C22 C 0.9206 0.48882 0.06014 0.0
C23 C 0.95525 0.47568 0.08597 0.0
C24 C 0.95616 0.45381 0.06995 0.0
C25 C 0.93937 0.44896 0.04949 0.0
C26 C 0.9214 0.46629 0.04498 0.0
H27 H 0.70114 0.73486 0.24449 0.0
H28 H 0.76753 0.78477 0.23173 0.0
H29 H 0.72228 0.79736 0.29756 0.0
C30 C 0.71445 0.75051 0.25093 0.0
C31 C 0.7097 0.76462 0.27341 0.0
C32 C 0.73532 0.75775 0.23581 0.0
C33 C 0.75187 0.77871 0.24377 0.0
C34 C 0.74724 0.79315 0.26592 0.0
C35 C 0.72638 0.78574 0.28087 0.0
H36 H 0.03025 0.95992 0.44792 0.0
H37 H 0.07609 0.02277 0.41936 0.0
H38 H 0.09741 0.99051 0.4883 0.0
C39 C 0.04669 0.97349 0.44978 0.0
C40 C 0.0633 0.97284 0.47045 0.0
C41 C 0.05091 0.99168 0.4315 0.0
C42 C 0.07272 0.00861 0.43333 0.0
C43 C 0.08984 0.00792 0.4535 0.0
C44 C 0.08493 0.99009 0.47202 0.0
H45 H 0.20776 0.78468 0.78458 0.0
H46 H 0.26671 0.7379 0.80387 0.0
H47 H 0.22249 0.72005 0.73603 0.0
C48 C 0.21909 0.76897 0.77986 0.0
C49 C 0.21319 0.75337 0.7581 0.0
C50 C 0.23831 0.76349 0.79645 0.0
C51 C 0.25233 0.7426 0.79069 0.0
C52 C 0.24692 0.72693 0.76881 0.0
C53 C 0.22739 0.73254 0.75247 0.0
H54 H 0.90192 0.60633 0.49051 0.0
H55 H 0.97233 0.62201 0.45188 0.0
H56 H 0.92402 0.55491 0.43077 0.0
C57 C 0.91532 0.60121 0.47607 0.0
C58 C 0.91032 0.57875 0.46109 0.0
C59 C 0.93763 0.6169 0.47294 0.0
C60 C 0.95467 0.61041 0.45388 0.0
C61 C 0.94986 0.58808 0.43855 0.0
C62 C 0.92758 0.57242 0.4422 0.0
H63 H 0.7738 0.84238 0.84616 0.0
H64 H 0.81721 0.86808 0.78241 0.0
H65 H 0.83702 0.80231 0.8201 0.0
C66 C 0.78928 0.84027 0.83307 0.0
C67 C 0.80487 0.82025 0.83539 0.0
C68 C 0.79361 0.85763 0.81398 0.0
C69 C 0.81376 0.85476 0.79716 0.0
C70 C 0.82953 0.83489 0.79925 0.0
C71 C 0.82494 0.81772 0.8184 0.0
H72 H 0.26303 0.33943 0.33982 0.0
H73 H 0.29153 0.35241 0.26486 0.0
H74 H 0.32893 0.30456 0.31363 0.0
C75 C 0.27662 0.33628 0.32497 0.0
C76 C 0.2957 0.32005 0.32904 0.0
C77 C 0.27485 0.34821 0.30189 0.0
C78 C 0.29291 0.34391 0.28295 0.0
C79 C 0.31236 0.32796 0.28697 0.0
C80 C 0.31363 0.31636 0.31012 0.0
H81 H 0.46397 0.03574 0.59827 0.0
H82 H 0.50637 0.97274 0.57484 0.0
H83 H 0.4506 -0.0021 0.52509 0.0
C84 C 0.46852 0.02142 0.58404 0.0
C85 C 0.45513 0.01908 0.56099 0.0
C86 C 0.48712 0.00484 0.58921 0.0
C87 C 0.49215 0.98568 0.57105 0.0
C88 C 0.47869 0.98283 0.54812 0.0
C89 C 0.46044 -0.00029 0.54314 0.0
H90 H 0.19212 0.23918 0.75116 0.0
H91 H 0.25738 0.28711 0.72925 0.0
H92 H 0.20767 0.31339 0.78693 0.0
C93 C 0.20453 0.25646 0.75372 0.0
C94 C 0.19803 0.27553 0.77128 0.0
C95 C 0.22593 0.26049 0.73824 0.0
C96 C 0.24124 0.28346 0.74145 0.0
C97 C 0.23496 0.30258 0.75909 0.0
C98 C 0.21339 0.29836 0.77404 0.0
H99 H 0.76766 0.24041 0.77071 0.0
H100 H 0.79415 0.30008 0.72321 0.0
H101 H 0.71823 0.26415 0.71378 0.0
C102 C 0.76399 0.25314 0.75595 0.0
C103 C 0.74064 0.25036 0.74326 0.0
C104 C 0.7832 0.2712 0.74906 0.0
C105 C 0.77901 0.28656 0.7289 0.0
C106 C 0.75557 0.28432 0.71594 0.0
C107 C 0.73644 0.26607 0.72333 0.0
H108 H 0.49225 0.59636 0.56289 0.0
H109 H 0.52869 0.5294 0.57869 0.0
H110 H 0.55744 0.57735 0.52002 0.0
C111 C 0.50718 0.5839 0.55901 0.0
C112 C 0.52443 0.58911 0.53949 0.0
C113 C 0.50879 0.56252 0.57332 0.0
C114 C 0.52788 0.5462 0.56794 0.0
C115 C 0.54572 0.55129 0.54884 0.0
C116 C 0.54393 0.57305 0.53484 0.0
H117 H 0.49766 0.45839 0.96933 0.0
H118 H 0.54294 0.5235 0.9448 0.0
H119 H 0.56978 0.48068 0.00488 0.0
C120 C 0.51473 0.47114 0.97109 0.0
C121 C 0.53337 0.46693 0.98899 0.0
C122 C 0.51794 0.49172 0.95537 0.0
C123 C 0.54013 0.50804 0.95745 0.0
C124 C 0.55907 0.50407 0.97505 0.0
C125 C 0.55555 0.48345 0.99078 0.0
H126 H 0.70427 0.26809 0.30296 0.0
H127 H 0.76702 0.22657 0.32251 0.0
H128 H 0.71745 0.19921 0.26049 0.0
C129 C 0.71578 0.25232 0.29921 0.0
C130 C 0.70884 0.23441 0.27952 0.0
C131 C 0.73648 0.24943 0.31496 0.0
C132 C 0.75085 0.22861 0.31043 0.0
C133 C 0.74428 0.21028 0.29079 0.0
C134 C 0.72335 0.21355 0.2751 0.0
H135 H 0.44986 0.04463 0.04975 0.0
H136 H 0.52048 0.0628 0.01246 0.0
H137 H 0.4763 0.99255 0.99304 0.0
C138 C 0.4646 0.03919 0.0369 0.0
C139 C 0.46081 0.01654 0.02202 0.0
C140 C 0.48618 0.05591 0.03366 0.0
C141 C 0.50426 0.0495 0.01558 0.0
C142 C 0.5008 0.02681 0.00056 0.0
C143 C 0.47926 0.01017 0.0044 0.0
O144 O 0.25019 0.85291 0.98421 0.0
Cd145 Cd 0.2576 0.87022 0.01947 0.0
Cd146 Cd 0.23605 0.91053 0.99555 0.0
O147 O 0.23349 0.88407 0.96554 0.0
O148 O 0.27175 0.84245 0.0374 0.0
O149 O 0.23817 0.86098 0.05102 0.0
C150 C 0.25456 0.84465 0.05428 0.0
C151 C 0.20123 0.93392 0.004 0.0
C152 C 0.2407 0.86172 0.96477 0.0
C153 C 0.28937 0.92003 0.01535 0.0
O154 O 0.27114 0.92878 0.00391 0.0
O155 O 0.28732 0.89759 0.02291 0.0
O156 O 0.21569 0.93816 0.98489 0.0
O157 O 0.20638 0.91599 0.0184 0.0
O158 O 0.15686 0.55172 0.2925 0.0
Cd159 Cd 0.13329 0.52014 0.30031 0.0
Cd160 Cd 0.10493 0.53469 0.26214 0.0
O161 O 0.13729 0.5579 0.25688 0.0
O162 O 0.1538 0.49684 0.31831 0.0
O163 O 0.13821 0.4881 0.27966 0.0
C164 C 0.15162 0.48174 0.29839 0.0
C165 C 0.08308 0.51844 0.22593 0.0
C166 C 0.15549 0.56354 0.27231 0.0
C167 C 0.0829 0.53719 0.31437 0.0
O168 O 0.08172 0.54382 0.29171 0.0
O169 O 0.10142 0.52548 0.32162 0.0
O170 O 0.08484 0.5423 0.23222 0.0
O171 O 0.09415 0.50343 0.24003 0.0
O172 O 0.75743 0.69646 0.98743 0.0
Cd173 Cd 0.74477 0.67161 0.01433 0.0
Cd174 Cd 0.77227 0.63923 0.9873 0.0
O175 O 0.78129 0.67061 0.96634 0.0
O176 O 0.72924 0.69345 0.04051 0.0
O177 O 0.76165 0.67119 0.04845 0.0
C178 C 0.74531 0.68649 0.05652 0.0
C179 C 0.80413 0.61757 0.00435 0.0
C180 C 0.77252 0.69219 0.96939 0.0
C181 C 0.71706 0.62413 0.99088 0.0
O182 O 0.73787 0.61856 0.98104 0.0
O183 O 0.71611 0.64427 0.0048 0.0
O184 O 0.79917 0.61582 0.98044 0.0
O185 O 0.7913 0.63221 0.0187 0.0
O186 O 0.91754 0.99745 0.27851 0.0
Cd187 Cd 0.89131 0.99525 0.24964 0.0
Cd188 Cd 0.86272 0.01663 0.28558 0.0
O189 O 0.89571 0.01856 0.30666 0.0
O190 O 0.9106 0.98577 0.21897 0.0
O191 O 0.89382 0.02262 0.22442 0.0
C192 C 0.9069 0.00764 0.21073 0.0
C193 C 0.84035 0.05265 0.28339 0.0
C194 C 0.91582 0.00839 0.30026 0.0
C195 C 0.84514 0.96405 0.26615 0.0
O196 O 0.84198 0.98187 0.28249 0.0
O197 O 0.86294 0.96636 0.25021 0.0
O198 O 0.83981 0.03949 0.30325 0.0
O199 O 0.85408 0.04555 0.2646 0.0
O200 O 0.27179 0.21225 0.49466 0.0
Cd201 Cd 0.25852 0.18497 0.51886 0.0
Cd202 Cd 0.29145 0.15652 0.49407 0.0
O203 O 0.29898 0.18911 0.47466 0.0
O204 O 0.2398 0.20329 0.54537 0.0
O205 O 0.27302 0.18228 0.55372 0.0
C206 C 0.25506 0.19564 0.5618 0.0
C207 C 0.32506 0.13529 0.50852 0.0
C208 C 0.28844 0.20978 0.47768 0.0
C209 C 0.23655 0.13753 0.49125 0.0
O210 O 0.25903 0.13366 0.48479 0.0
O211 O 0.23225 0.1571 0.50487 0.0
O212 O 0.31901 0.13461 0.48491 0.0
O213 O 0.31236 0.14881 0.52412 0.0
O214 O 0.40103 0.50995 0.79332 0.0
Cd215 Cd 0.37962 0.50766 0.76071 0.0
Cd216 Cd 0.34596 0.5266 0.79252 0.0
O217 O 0.3741 0.52687 0.81954 0.0
O218 O 0.40461 0.49872 0.73456 0.0
O219 O 0.38491 0.53391 0.7344 0.0
C220 C 0.40098 0.51956 0.72408 0.0
C221 C 0.3284 0.56397 0.78354 0.0
C222 C 0.3955 0.51829 0.81536 0.0
C223 C 0.33148 0.47513 0.76866 0.0
O224 O 0.32523 0.49243 0.78436 0.0
O225 O 0.35213 0.47799 0.7566 0.0
O226 O 0.32159 0.5516 0.80314 0.0
O227 O 0.34556 0.55516 0.76902 0.0
O228 O 0.75061 0.36906 0.48633 0.0
Cd229 Cd 0.75327 0.39506 0.51674 0.0
Cd230 Cd 0.71914 0.41778 0.49059 0.0
O231 O 0.7183 0.38483 0.4682 0.0
O232 O 0.77091 0.37878 0.54395 0.0
O233 O 0.73127 0.38894 0.54712 0.0
C234 C 0.7504 0.37926 0.55695 0.0
C235 C 0.682 0.43443 0.50424 0.0
C236 C 0.7341 0.36805 0.46879 0.0
C237 C 0.76993 0.44579 0.49719 0.0
O238 O 0.74892 0.44439 0.48543 0.0
O239 O 0.77477 0.4287 0.51208 0.0
O240 O 0.6885 0.43433 0.48081 0.0
O241 O 0.69619 0.42412 0.52 0.0
O242 O 0.66588 0.07098 0.80233 0.0
Cd243 Cd 0.65505 0.03518 0.81432 0.0
Cd244 Cd 0.60969 0.04334 0.7884 0.0
O245 O 0.62997 0.07752 0.78351 0.0
O246 O 0.68672 0.02152 0.82579 0.0
O247 O 0.66292 0.00341 0.79444 0.0
C248 C 0.6826 0.00325 0.80888 0.0
C249 C 0.58399 0.02988 0.75362 0.0
C250 C 0.65245 0.08513 0.79017 0.0
C251 C 0.60684 0.03173 0.84388 0.0
O252 O 0.59538 0.03543 0.82347 0.0
O253 O 0.63079 0.03159 0.84445 0.0
O254 O 0.57843 0.04807 0.7691 0.0
O255 O 0.60407 0.01857 0.75825 0.0
O256 O 0.96075 0.28263 0.92741 0.0
Cd257 Cd 0.96313 0.25199 0.90219 0.0
Cd258 Cd 0.99029 0.28526 0.87558 0.0
O259 O 0.98586 0.30944 0.90663 0.0
O260 O 0.95325 0.222 0.92215 0.0
O261 O 0.99132 0.2291 0.90557 0.0
C262 C 0.97592 0.21526 0.91906 0.0
C263 C 0.0308 0.28122 0.85994 0.0
C264 C 0.97204 0.30458 0.92563 0.0
C265 C 0.94134 0.26375 0.85234 0.0
O266 O 0.96037 0.27978 0.85048 0.0
O267 O 0.93933 0.24976 0.87118 0.0
O268 O 0.01917 0.30131 0.85679 0.0
O269 O 0.01937 0.26318 0.87221 0.0
O270 O 0.48895 0.80981 0.43593 0.0
Cd271 Cd 0.48642 0.77559 0.41538 0.0
Cd272 Cd 0.51142 0.80398 0.38186 0.0
O273 O 0.51226 0.83271 0.40968 0.0
O274 O 0.47479 0.75079 0.4407 0.0
O275 O 0.51147 0.74968 0.42103 0.0
C276 C 0.49567 0.74024 0.43729 0.0
C277 C 0.54862 0.7918 0.36357 0.0
C278 C 0.50065 0.83077 0.43055 0.0
C279 C 0.45983 0.7815 0.36631 0.0
O280 O 0.47864 0.79665 0.36081 0.0
O281 O 0.45963 0.7702 0.38693 0.0
O282 O 0.53874 0.81211 0.35731 0.0
O283 O 0.53756 0.77856 0.38087 0.0
O284 O 0.98304 0.79086 0.67573 0.0
Cd285 Cd 0.00989 0.77921 0.65053 0.0
Cd286 Cd 0.99052 0.81402 0.62127 0.0
O287 O 0.96928 0.82075 0.65306 0.0
O288 O 0.03093 0.7585 0.671 0.0
O289 O 0.04634 0.79347 0.65337 0.0
C290 C 0.04999 0.77448 0.66697 0.0
C291 C 0.00984 0.8485 0.6013 0.0
C292 C 0.96859 0.80857 0.67313 0.0
C293 C 0.98602 0.7602 0.60081 0.0
O294 O 0.98017 0.78266 0.5978 0.0
O295 O -0.00174 0.75514 0.62032 0.0
O296 O 0.98562 0.84354 0.60076 0.0
O297 O 0.02337 0.83405 0.61372 0.0
O298 O 0.47795 0.28076 0.18572 0.0
Cd299 Cd 0.50774 0.26425 0.16824 0.0
Cd300 Cd 0.48627 0.28516 0.12538 0.0
O301 O 0.45938 0.29369 0.15186 0.0
O302 O 0.52536 0.25007 0.19681 0.0
O303 O 0.54448 0.27784 0.17197 0.0
C304 C 0.5458 0.26295 0.19044 0.0
C305 C 0.49874 0.31767 0.09879 0.0
C306 C 0.45982 0.291 0.17555 0.0
C307 C 0.49256 0.22929 0.12272 0.0
O308 O 0.48677 0.24831 0.11087 0.0
O309 O 0.50012 0.23201 0.1455 0.0
O310 O 0.47728 0.30448 0.09594 0.0
O311 O 0.51356 0.31213 0.11675 0.0
H312 H 0.24278 0.81495 0.80531 0.0
H313 H 0.24011 0.7444 0.84311 0.0
H314 H 0.24379 0.83848 0.8462 0.0
H315 H 0.24031 0.76767 0.88396 0.0
H316 H 0.26362 0.81822 0.95347 0.0
H317 H 0.26498 0.79496 0.91281 0.0
H318 H 0.21653 0.84704 0.88064 0.0
H319 H 0.216 0.8709 0.92113 0.0
C320 C 0.24251 0.80453 0.82242 0.0
C321 C 0.2415 0.7779 0.82109 0.0
C322 C 0.24286 0.81794 0.84583 0.0
C323 C 0.24191 0.80499 0.86843 0.0
C324 C 0.24143 0.77833 0.86701 0.0
C325 C 0.24135 0.76495 0.8436 0.0
C326 C 0.25312 0.82463 0.93777 0.0
C327 C 0.23971 0.84645 0.94055 0.0
C328 C 0.25385 0.81123 0.91443 0.0
C329 C 0.24098 0.81916 0.89335 0.0
C330 C 0.22712 0.84068 0.8963 0.0
C331 C 0.2266 0.85424 0.9196 0.0
H332 H 0.97567 0.61744 0.40456 0.0
H333 H 0.96719 0.54118 0.43067 0.0
H334 H 0.00785 0.60473 0.37457 0.0
H335 H -0.00112 0.52834 0.40032 0.0
H336 H 0.07757 0.52432 0.36367 0.0
H337 H 0.04514 0.53652 0.39354 0.0
H338 H 0.01052 0.57708 0.33564 0.0
H339 H 0.04294 0.56517 0.30586 0.0
C340 C 0.98066 0.59797 0.40383 0.0
C341 C 0.96887 0.58028 0.41986 0.0
C342 C -0.00109 0.59064 0.38655 0.0
C343 C 0.00585 0.56553 0.3851 0.0
C344 C 0.99407 0.54786 0.40116 0.0
C345 C 0.97573 0.55515 0.41832 0.0
C346 C 0.06301 0.53579 0.3573 0.0
C347 C 0.06289 0.5438 0.33239 0.0
C348 C 0.04438 0.54267 0.37437 0.0
C349 C 0.02535 0.55781 0.36692 0.0
C350 C 0.02514 0.56567 0.342 0.0
C351 C 0.04365 0.5587 0.32491 0.0
H352 H 0.79586 0.83059 0.88551 0.0
H353 H 0.80372 0.76859 0.83073 0.0
H354 H 0.78948 0.80045 0.9188 0.0
H355 H 0.79681 0.73839 0.86376 0.0
H356 H 0.80767 0.69183 0.93158 0.0
H357 H 0.81633 0.72337 0.90009 0.0
H358 H 0.75956 0.76848 0.93367 0.0
H359 H 0.75152 0.73739 0.96563 0.0
C360 C 0.79596 0.81048 0.88057 0.0
C361 C 0.80033 0.80193 0.85555 0.0
C362 C 0.79229 0.79319 0.89962 0.0
C363 C 0.79272 0.76694 0.89403 0.0
C364 C 0.79688 0.75846 0.8689 0.0
C365 C 0.80073 0.77575 0.84992 0.0
C366 C 0.79717 0.70857 0.93236 0.0
C367 C 0.77885 0.71203 0.9511 0.0
C368 C 0.802 0.72659 0.91417 0.0
C369 C 0.78851 0.74842 0.91417 0.0
C370 C 0.77054 0.75208 0.93324 0.0
C371 C 0.76583 0.73416 0.95153 0.0
H372 H 0.05878 0.0002 0.38133 0.0
H373 H -0.00044 0.98902 0.43662 0.0
H374 H 0.02699 0.00626 0.34921 0.0
H375 H 0.96782 0.99398 0.40438 0.0
H376 H 0.96012 0.98582 0.29382 0.0
H377 H 0.99318 0.98221 0.3251 0.0
H378 H 0.95252 0.02679 0.37945 0.0
H379 H 0.9191 0.02992 0.34836 0.0
C380 C 0.03899 -0.00104 0.3866 0.0
C381 C 0.03169 0.99408 0.41151 0.0
C382 C 0.02077 0.00222 0.36817 0.0
C383 C 0.99488 0.0007 0.37428 0.0
C384 C 0.98762 0.99564 0.39914 0.0
C385 C 0.0058 0.9924 0.41753 0.0
C386 C 0.95828 0.99501 0.31239 0.0
C387 C 0.93686 0.00803 0.31863 0.0
C388 C 0.97732 0.99303 0.33028 0.0
C389 C 0.9754 0.00406 0.35481 0.0
C390 C 0.95434 0.01769 0.36084 0.0
C391 C 0.93526 0.01963 0.34296 0.0
H392 H 0.19037 0.23579 0.70632 0.0
H393 H 0.27122 0.24606 0.71948 0.0
H394 H 0.19752 0.2151 0.66534 0.0
H395 H 0.27838 0.22664 0.67766 0.0
H396 H 0.28179 0.18051 0.60219 0.0
H397 H 0.27434 0.19017 0.64717 0.0
H398 H 0.21269 0.23422 0.6274 0.0
H399 H 0.21971 0.22427 0.58299 0.0
C400 C 0.20968 0.23309 0.70081 0.0
C401 C 0.23024 0.24298 0.71609 0.0
C402 C 0.21378 0.22155 0.67708 0.0
C403 C 0.23852 0.21986 0.66794 0.0
C404 C 0.25908 0.22774 0.68406 0.0
C405 C 0.25497 0.2391 0.70795 0.0
C406 C 0.26663 0.19221 0.60755 0.0
C407 C 0.25135 0.20164 0.58904 0.0
C408 C 0.26237 0.19772 0.63327 0.0
C409 C 0.24271 0.21269 0.64089 0.0
C410 C 0.22757 0.2221 0.62228 0.0
C411 C 0.2318 0.21661 0.59673 0.0
H412 H 0.49331 0.59551 0.61038 0.0
H413 H 0.4829 0.51726 0.58248 0.0
H414 H 0.46543 0.58574 0.64592 0.0
H415 H 0.45484 0.50752 0.61771 0.0
H416 H 0.43624 0.49301 0.69979 0.0
H417 H 0.4604 0.50415 0.66256 0.0
H418 H 0.42191 0.57275 0.65849 0.0
H419 H 0.39789 0.5618 0.69643 0.0
C420 C 0.48475 0.57631 0.61167 0.0
C421 C 0.49048 0.55707 0.59386 0.0
C422 C 0.46874 0.57073 0.63197 0.0
C423 C 0.45811 0.5458 0.63477 0.0
C424 C 0.46316 0.5268 0.61639 0.0
C425 C 0.47921 0.53235 0.59622 0.0
C426 C 0.43281 0.51046 0.69098 0.0
C427 C 0.41512 0.52652 0.70107 0.0
C428 C 0.44656 0.51675 0.66948 0.0
C429 C 0.44294 0.53924 0.65742 0.0
C430 C 0.42524 0.55537 0.66747 0.0
C431 C 0.41142 0.54905 0.6891 0.0
H432 H 0.72941 0.27115 0.67171 0.0
H433 H 0.77247 0.33429 0.71094 0.0
H434 H 0.72536 0.29685 0.63517 0.0
H435 H 0.76933 0.35938 0.67383 0.0
H436 H 0.78965 0.37276 0.58834 0.0
H437 H 0.7882 0.35204 0.6285 0.0
H438 H 0.70682 0.3397 0.62228 0.0
H439 H 0.70816 0.36101 0.5821 0.0
C440 C 0.73768 0.29058 0.67278 0.0
C441 C 0.75148 0.3005 0.69429 0.0
C442 C 0.73538 0.30525 0.65178 0.0
C443 C 0.74713 0.33 0.65171 0.0
C444 C 0.7603 0.34023 0.67337 0.0
C445 C 0.76225 0.32574 0.69452 0.0
C446 C 0.77141 0.36588 0.59565 0.0
C447 C 0.74901 0.36842 0.5821 0.0
C448 C 0.77059 0.35416 0.61868 0.0
C449 C 0.74741 0.34431 0.62841 0.0
C450 C 0.72492 0.34712 0.61509 0.0
C451 C 0.72569 0.35937 0.59223 0.0
H452 H 0.5003 0.96685 0.61885 0.0
H453 H 0.50563 0.04853 0.61494 0.0
H454 H 0.52336 0.97123 0.65903 0.0
H455 H 0.52816 0.05281 0.65526 0.0
H456 H 0.54184 0.05176 0.73955 0.0
H457 H 0.51809 0.04445 0.7002 0.0
H458 H 0.56702 0.98664 0.67598 0.0
H459 H 0.59095 0.99386 0.71568 0.0
C460 C 0.50654 0.98572 0.62644 0.0
C461 C 0.50109 0.00736 0.61368 0.0
C462 C 0.51968 0.98819 0.64946 0.0
C463 C 0.52742 0.01234 0.6603 0.0
C464 C 0.52206 0.03395 0.64753 0.0
C465 C 0.5091 0.0315 0.62447 0.0
C466 C 0.54749 0.03733 0.72597 0.0
C467 C 0.56841 0.0235 0.73066 0.0
C468 C 0.53394 0.03327 0.70336 0.0
C469 C 0.5409 0.01521 0.68493 0.0
C470 C 0.56122 0.00065 0.68993 0.0
C471 C 0.57493 0.00482 0.71259 0.0
H472 H 0.79054 0.27225 0.79988 0.0
H473 H 0.83116 0.27399 0.72928 0.0
H474 H 0.83011 0.26964 0.82266 0.0
H475 H 0.87107 0.27155 0.75226 0.0
H476 H 0.93752 0.29296 0.81135 0.0
H477 H 0.90016 0.29582 0.78482 0.0
H478 H 0.86017 0.23603 0.82512 0.0
H479 H 0.8972 0.23324 0.85174 0.0
C480 C 0.80799 0.27217 0.78925 0.0
C481 C 0.80775 0.27302 0.76279 0.0
C482 C 0.83061 0.27057 0.80227 0.0
C483 C 0.85358 0.26988 0.78916 0.0
C484 C 0.8536 0.272 0.76281 0.0
C485 C 0.83083 0.27351 0.7497 0.0
C486 C 0.92087 0.28018 0.81433 0.0
C487 C 0.92025 0.26308 0.83388 0.0
C488 C 0.89952 0.28182 0.79909 0.0
C489 C 0.87716 0.26646 0.80322 0.0
C490 C 0.877 0.24849 0.82188 0.0
C491 C 0.89829 0.24678 0.83702 0.0
H492 H 0.52393 0.96727 0.53099 0.0
H493 H 0.44297 0.95027 0.52417 0.0
H494 H 0.53056 0.9306 0.50235 0.0
H495 H 0.44959 0.91393 0.49547 0.0
H496 H 0.47201 0.83455 0.47304 0.0
H497 H 0.46774 0.87192 0.50084 0.0
H498 H 0.52198 0.91534 0.4561 0.0
H499 H 0.52637 0.8778 0.42802 0.0
C500 C 0.5076 0.95573 0.5233 0.0
C501 C 0.48294 0.96154 0.5298 0.0
C502 C 0.51139 0.93492 0.50682 0.0
C503 C 0.49059 0.9194 0.49685 0.0
C504 C 0.46596 0.92544 0.50311 0.0
C505 C 0.46218 0.94634 0.51933 0.0
C506 C 0.48319 0.85198 0.46913 0.0
C507 C 0.49947 0.8532 0.44822 0.0
C508 C 0.48059 0.87342 0.48499 0.0
C509 C 0.49436 0.89654 0.48047 0.0
C510 C 0.5112 0.8977 0.46003 0.0
C511 C 0.51364 0.87624 0.44394 0.0
H512 H 0.18159 0.24345 0.80796 0.0
H513 H 0.15905 0.30344 0.76283 0.0
H514 H 0.14146 0.24374 0.83118 0.0
H515 H 0.11882 0.30317 0.78489 0.0
H516 H 0.06378 0.31956 0.84539 0.0
H517 H 0.10449 0.31654 0.82508 0.0
H518 H 0.0959 0.23485 0.82887 0.0
H519 H 0.05531 0.23809 0.85036 0.0
C520 C 0.16783 0.2564 0.80287 0.0
C521 C 0.17327 0.27362 0.78395 0.0
C522 C 0.14489 0.25655 0.81602 0.0
C523 C 0.12708 0.2738 0.81021 0.0
C524 C 0.13235 0.29018 0.79043 0.0
C525 C 0.15526 0.29023 0.77762 0.0
C526 C 0.07062 0.30095 0.84203 0.0
C527 C 0.05626 0.27904 0.84921 0.0
C528 C 0.09391 0.29918 0.83021 0.0
C529 C 0.10327 0.2754 0.82482 0.0
C530 C 0.08929 0.25347 0.83278 0.0
C531 C 0.06602 0.2553 0.845 0.0
H532 H 0.5609 0.62497 0.52432 0.0
H533 H 0.48093 0.60194 0.51804 0.0
H534 H 0.55493 0.66149 0.49895 0.0
H535 H 0.47499 0.63798 0.49253 0.0
H536 H 0.46737 0.71952 0.47492 0.0
H537 H 0.47548 0.68321 0.49901 0.0
H538 H 0.54402 0.67404 0.4566 0.0
H539 H 0.53617 0.71109 0.43273 0.0
C540 C 0.54212 0.6276 0.51731 0.0
C541 C 0.52132 0.61082 0.5234 0.0
C542 C 0.5387 0.64845 0.50275 0.0
C543 C 0.51444 0.6528 0.49393 0.0
C544 C 0.49383 0.63555 0.49951 0.0
C545 C 0.49722 0.61488 0.51412 0.0
C546 C 0.48419 0.70981 0.47066 0.0
C547 C 0.50106 0.71812 0.4518 0.0
C548 C 0.48877 0.68886 0.48441 0.0
C549 C 0.51027 0.67553 0.47957 0.0
C550 C 0.52737 0.684 0.4609 0.0
C551 C 0.52281 0.70512 0.44714 0.0
H552 H 0.82879 0.83836 0.74799 0.0
H553 H 0.87812 0.82495 0.8101 0.0
H554 H 0.86344 0.83327 0.71846 0.0
H555 H 0.91291 0.82004 0.78059 0.0
H556 H 0.95863 0.78351 0.71644 0.0
H557 H 0.92568 0.79072 0.74735 0.0
H558 H 0.90362 0.85379 0.70595 0.0
H559 H 0.93615 0.84624 0.6747 0.0
C560 C 0.84714 0.8346 0.75535 0.0
C561 C 0.85074 0.83204 0.78135 0.0
C562 C 0.86701 0.83173 0.73845 0.0
C563 C 0.89098 0.82631 0.74717 0.0
C564 C 0.8946 0.82387 0.77321 0.0
C565 C 0.87469 0.82667 0.79012 0.0
C566 C 0.94688 0.79903 0.71401 0.0
C567 C 0.94994 0.81419 0.693 0.0
C568 C 0.92805 0.80324 0.73181 0.0
C569 C 0.91191 0.82274 0.72904 0.0
C570 C 0.91544 0.83833 0.7084 0.0
C571 C 0.93421 0.83409 0.69057 0.0
H572 H 0.09612 0.94801 0.49904 0.0
H573 H 0.01655 0.95798 0.48911 0.0
H574 H 0.08583 0.9209 0.53401 0.0
H575 H 0.00617 0.92917 0.52214 0.0
H576 H 0.9912 0.8937 0.59431 0.0
H577 H 0.00645 0.9256 0.56526 0.0
H578 H 0.06853 0.88066 0.54432 0.0
H579 H 0.05403 0.84969 0.57492 0.0
C580 C 0.07644 0.94439 0.5042 0.0
C581 C 0.0572 0.95525 0.49111 0.0
C582 C 0.0705 0.92853 0.52409 0.0
C583 C 0.04515 0.92286 0.53115 0.0
C584 C 0.02597 0.93349 0.51779 0.0
C585 C 0.03192 0.94966 0.49831 0.0
C586 C 0.0084 0.89099 0.58383 0.0
C587 C 0.02139 0.86928 0.58666 0.0
C588 C 0.01701 0.90909 0.56693 0.0
C589 C 0.03838 0.90547 0.55182 0.0
C590 C 0.05211 0.88425 0.55565 0.0
C591 C 0.04381 0.86644 0.57314 0.0
H592 H 0.16621 0.75949 0.7762 0.0
H593 H 0.20833 0.7554 0.7066 0.0
H594 H 0.12777 0.76492 0.75249 0.0
H595 H 0.16945 0.76085 0.68263 0.0
H596 H 0.0607 0.74014 0.70103 0.0
H597 H 0.10109 0.73524 0.72132 0.0
H598 H 0.1365 0.79591 0.67888 0.0
H599 H 0.09573 0.80105 0.65839 0.0
C600 C 0.16726 0.75999 0.7558 0.0
C601 C 0.19023 0.75716 0.74321 0.0
C602 C 0.14524 0.76291 0.74224 0.0
C603 C 0.14568 0.76321 0.71577 0.0
C604 C 0.1687 0.76079 0.70307 0.0
C605 C 0.19081 0.75752 0.7167 0.0
C606 C 0.07705 0.75241 0.69586 0.0
C607 C 0.07498 0.77113 0.67823 0.0
C608 C 0.10016 0.74962 0.70756 0.0
C609 C 0.12181 0.7653 0.70176 0.0
C610 C 0.12005 0.78353 0.68358 0.0
C611 C 0.09674 0.78655 0.672 0.0
H612 H 0.95747 0.66483 0.46273 0.0
H613 H 0.93251 0.61817 0.52405 0.0
H614 H 0.96929 0.70016 0.49324 0.0
H615 H 0.9435 0.65348 0.55424 0.0
H616 H 0.99444 0.71013 0.60207 0.0
H617 H 0.98278 0.67634 0.57042 0.0
H618 H 0.94952 0.72988 0.52405 0.0
H619 H 0.96152 0.764 0.55566 0.0
C620 C 0.95443 0.66218 0.48267 0.0
C621 C 0.944 0.63879 0.491 0.0
C622 C 0.96098 0.68243 0.50008 0.0
C623 C 0.95739 0.67952 0.52611 0.0
C624 C 0.94676 0.6562 0.53434 0.0
C625 C 0.94018 0.63607 0.517 0.0
C626 C 0.98464 0.71478 0.58516 0.0
C627 C 0.9788 0.73976 0.58146 0.0
C628 C 0.97787 0.69537 0.56706 0.0
C629 C 0.96511 0.70046 0.54484 0.0
C630 C 0.9595 0.72546 0.54093 0.0
C631 C 0.96623 0.74494 0.55911 0.0
H632 H 0.72912 0.83881 0.27879 0.0
H633 H 0.7986 0.8035 0.26379 0.0
H634 H 0.75247 0.8805 0.28036 0.0
H635 H 0.82202 0.84527 0.26541 0.0
H636 H 0.84723 0.92207 0.23436 0.0
H637 H 0.82391 0.88082 0.23742 0.0
H638 H 0.78471 0.90904 0.3031 0.0
H639 H 0.80779 0.95061 0.29985 0.0
C640 C 0.74949 0.83991 0.27652 0.0
C641 C 0.76204 0.81789 0.27109 0.0
C642 C 0.76285 0.86382 0.27731 0.0
C643 C 0.78901 0.86618 0.27265 0.0
C644 C 0.80176 0.84407 0.26853 0.0
C645 C 0.78841 0.82017 0.26773 0.0
C646 C 0.83354 0.91959 0.24938 0.0
C647 C 0.82942 0.93966 0.26688 0.0
C648 C 0.82036 0.89585 0.25128 0.0
C649 C 0.80274 0.89158 0.27072 0.0
C650 C 0.79813 0.91178 0.28788 0.0
C651 C 0.81136 0.93558 0.286 0.0
H652 H 0.75803 0.18419 0.24724 0.0
H653 H 0.76159 0.18304 0.3287 0.0
H654 H 0.78022 0.14538 0.24385 0.0
H655 H 0.78492 0.14564 0.32535 0.0
H656 H 0.80229 0.06492 0.31474 0.0
H657 H 0.77822 0.10196 0.31467 0.0
H658 H 0.82084 0.12873 0.25037 0.0
H659 H 0.8444 0.09077 0.24986 0.0
C660 C 0.76359 0.17575 0.26439 0.0
C661 C 0.75813 0.18689 0.28823 0.0
C662 C 0.77656 0.15367 0.26246 0.0
C663 C 0.78431 0.14226 0.28433 0.0
C664 C 0.77892 0.15356 0.30808 0.0
C665 C 0.76586 0.17537 0.31 0.0
C666 C 0.80653 0.07865 0.30053 0.0
C667 C 0.82543 0.07504 0.28247 0.0
C668 C 0.79279 0.10002 0.30056 0.0
C669 C 0.79782 0.11862 0.28276 0.0
C670 C 0.81635 0.11473 0.26426 0.0
C671 C 0.82996 0.09308 0.26405 0.0
H672 H 0.43415 0.00031 0.06326 0.0
H673 H 0.43155 -0.00069 0.98169 0.0
H674 H 0.39175 0.97785 0.06346 0.0
H675 H 0.38953 0.97682 0.98189 0.0
H676 H 0.30451 0.96439 0.99345 0.0
H677 H 0.34607 0.98794 0.99661 0.0
H678 H 0.37084 0.93427 0.04826 0.0
H679 H 0.32931 0.91064 0.0452 0.0
C680 C 0.42457 0.99513 0.04544 0.0
C681 C 0.43613 0.00135 0.02247 0.0
C682 C 0.40043 0.98228 0.04554 0.0
C683 C 0.38738 0.97584 0.02269 0.0
C684 C 0.39907 0.98186 -0.00023 0.0
C685 C 0.42323 0.99442 -0.00035 0.0
C686 C 0.31871 0.95774 0.00567 0.0
C687 C 0.31369 0.93555 0.01891 0.0
C688 C 0.34252 0.97114 0.00736 0.0
C689 C 0.36164 0.96275 0.02251 0.0
C690 C 0.35636 0.94116 0.03653 0.0
C691 C 0.33264 0.9276 0.03465 0.0
H692 H 0.27711 0.39239 0.27643 0.0
H693 H 0.22552 0.34246 0.31802 0.0
H694 H 0.24409 0.42161 0.27272 0.0
H695 H 0.19316 0.37245 0.31534 0.0
H696 H 0.16659 0.45474 0.33727 0.0
H697 H 0.19399 0.41976 0.33526 0.0
H698 H 0.19679 0.42254 0.25402 0.0
H699 H 0.16873 0.45728 0.25592 0.0
C700 C 0.25871 0.3874 0.28447 0.0
C701 C 0.2542 0.36514 0.29783 0.0
C702 C 0.23983 0.4042 0.28237 0.0
C703 C 0.21621 0.39928 0.29388 0.0
C704 C 0.21134 0.37675 0.30652 0.0
C705 C 0.23001 0.35973 0.30824 0.0
C706 C 0.17269 0.4476 0.31895 0.0
C707 C 0.16557 0.45869 0.29675 0.0
C708 C 0.18829 0.42756 0.31781 0.0
C709 C 0.19751 0.41858 0.2945 0.0
C710 C 0.18994 0.42923 0.27221 0.0
C711 C 0.17381 0.44894 0.2733 0.0
H712 H 0.09138 0.05886 0.44669 0.0
H713 H 0.1383 -0.00025 0.46661 0.0
H714 H 0.12735 0.09033 0.45309 0.0
H715 H 0.1741 0.0314 0.4739 0.0
H716 H 0.23868 0.09254 0.46375 0.0
H717 H 0.20356 0.06133 0.45212 0.0
H718 H 0.15139 0.10908 0.48978 0.0
H719 H 0.18627 0.14041 0.50104 0.0
C720 C 0.10945 0.05256 0.45219 0.0
C721 C 0.11204 0.02684 0.45617 0.0
C722 C 0.12997 0.07062 0.45612 0.0
C723 C 0.15349 0.06335 0.46414 0.0
C724 C 0.15626 0.03755 0.46753 0.0
C725 C 0.13572 0.01948 0.46362 0.0
C726 C 0.2197 0.09644 0.46942 0.0
C727 C 0.21529 0.11894 0.48338 0.0
C728 C 0.19962 0.0785 0.46286 0.0
C729 C 0.17474 0.08275 0.47005 0.0
C730 C 0.17031 0.10541 0.48367 0.0
C731 C 0.19035 0.1233 0.49026 0.0
H732 H 0.72578 0.23781 0.79059 0.0
H733 H 0.71324 0.21594 0.71161 0.0
H734 H 0.70186 0.19883 0.80235 0.0
H735 H 0.68897 0.17701 0.72343 0.0
H736 H 0.63257 0.11677 0.7575 0.0
H737 H 0.64999 0.15895 0.74647 0.0
H738 H 0.71326 0.15352 0.79689 0.0
H739 H 0.69597 0.11141 0.80797 0.0
C740 C 0.71755 0.22484 0.77576 0.0
C741 C 0.72168 0.2297 0.75018 0.0
C742 C 0.70394 0.20253 0.78249 0.0
C743 C 0.69398 0.18473 0.76379 0.0
C744 C 0.69644 0.19045 0.73823 0.0
C745 C 0.71023 0.21276 0.73146 0.0
C746 C 0.65016 0.12461 0.7663 0.0
C747 C 0.66292 0.11073 0.78361 0.0
C748 C 0.66013 0.1487 0.75991 0.0
C749 C 0.68285 0.15953 0.77093 0.0
C750 C 0.6955 0.14576 0.78837 0.0
C751 C 0.6857 0.12157 0.79456 0.0
H752 H 0.40944 0.00764 0.53713 0.0
H753 H 0.45624 0.0704 0.57256 0.0
H754 H 0.37861 0.03677 0.52548 0.0
H755 H 0.42479 0.09941 0.56149 0.0
H756 H 0.3461 0.13537 0.55601 0.0
H757 H 0.37768 0.10773 0.57035 0.0
H758 H 0.38047 0.07278 0.49511 0.0
H759 H 0.34929 0.10022 0.48075 0.0
C760 C 0.41322 0.02764 0.54239 0.0
C761 C 0.43553 0.03669 0.55549 0.0
C762 C 0.39548 0.04429 0.53582 0.0
C763 C 0.39945 0.07034 0.54242 0.0
C764 C 0.42123 0.07937 0.5563 0.0
C765 C 0.43918 0.06273 0.56266 0.0
C766 C 0.35361 0.12189 0.54254 0.0
C767 C 0.34515 0.11992 0.51728 0.0
C768 C 0.37169 0.10616 0.55072 0.0
C769 C 0.38128 0.088 0.53386 0.0
C770 C 0.37311 0.08638 0.50857 0.0
C771 C 0.35536 0.10223 0.50034 0.0
H772 H 0.57115 0.52389 0.58207 0.0
H773 H 0.56553 0.538 0.5026 0.0
H774 H 0.60138 0.49285 0.57241 0.0
H775 H 0.59769 0.50905 0.49329 0.0
H776 H 0.63936 0.44054 0.47748 0.0
H777 H 0.60538 0.46696 0.48926 0.0
H778 H 0.64259 0.48711 0.56116 0.0
H779 H 0.67553 0.45915 0.54983 0.0
C780 C 0.57637 0.52049 0.56252 0.0
C781 C 0.56561 0.53347 0.54313 0.0
C782 C 0.59412 0.5029 0.55701 0.0
C783 C 0.60207 0.49818 0.53201 0.0
C784 C 0.59171 0.5116 0.51272 0.0
C785 C 0.57356 0.52875 0.51815 0.0
C786 C 0.63994 0.4503 0.49597 0.0
C787 C 0.66001 0.44786 0.51275 0.0
C788 C 0.62064 0.46575 0.50265 0.0
C789 C 0.62133 0.47972 0.52602 0.0
C790 C 0.6411 0.47652 0.54313 0.0
C791 C 0.66008 0.46052 0.53666 0.0
H792 H 0.74588 0.23702 0.36336 0.0
H793 H 0.73698 0.30112 0.31767 0.0
H794 H 0.74646 0.26498 0.40153 0.0
H795 H 0.73748 0.32901 0.35578 0.0
H796 H 0.70319 0.36215 0.4273 0.0
H797 H 0.70668 0.33337 0.39048 0.0
H798 H 0.7701 0.30172 0.42507 0.0
H799 H 0.76653 0.33044 0.46224 0.0
C800 C 0.74467 0.25717 0.36144 0.0
C801 C 0.74116 0.26688 0.33756 0.0
C802 C 0.7449 0.27314 0.38329 0.0
C803 C 0.74156 0.29907 0.38163 0.0
C804 C 0.73949 0.30898 0.35765 0.0
C805 C 0.73931 0.29306 0.33586 0.0
C806 C 0.71777 0.34895 0.42722 0.0
C807 C 0.73466 0.34871 0.44769 0.0
C808 C 0.71991 0.33261 0.406 0.0
C809 C 0.73893 0.3156 0.40474 0.0
C810 C 0.75527 0.31465 0.42553 0.0
C811 C 0.7532 0.33111 0.4468 0.0
H812 H 0.48765 0.00636 0.95345 0.0
H813 H 0.55249 0.03718 -0.00189 0.0
H814 H 0.51421 0.00335 0.9165 0.0
H815 H 0.57876 0.03598 0.96043 0.0
H816 H 0.62323 0.01663 0.88948 0.0
H817 H 0.59849 0.01113 0.92798 0.0
H818 H 0.53263 0.03392 0.88947 0.0
H819 H 0.55694 0.03852 0.85105 0.0
C820 C 0.50766 0.01213 0.95557 0.0
C821 C 0.51786 0.02217 0.97885 0.0
C822 C 0.52284 0.01082 0.93418 0.0
C823 C 0.5485 0.01992 0.93534 0.0
C824 C 0.55906 0.02876 0.95885 0.0
C825 C 0.54392 0.02976 0.9804 0.0
C826 C 0.60342 0.02031 0.88926 0.0
C827 C 0.59204 0.02799 0.86721 0.0
C828 C 0.58928 0.01725 0.91133 0.0
C829 C 0.56354 0.02194 0.9118 0.0
C830 C 0.55224 0.02956 0.88967 0.0
C831 C 0.56627 0.03241 0.86764 0.0
H832 H 0.28987 0.33809 0.37807 0.0
H833 H 0.30325 0.27023 0.33303 0.0
H834 H 0.29143 0.31435 0.4165 0.0
H835 H 0.30466 0.24663 0.37107 0.0
H836 H 0.32576 0.21314 0.44219 0.0
H837 H 0.33011 0.24245 0.40817 0.0
H838 H 0.26658 0.28076 0.43746 0.0
H839 H 0.26265 0.25189 0.47192 0.0
C840 C 0.29306 0.31812 0.3764 0.0
C841 C 0.29659 0.30605 0.35257 0.0
C842 C 0.29401 0.30455 0.39837 0.0
C843 C 0.29845 0.27867 0.39688 0.0
C844 C 0.30187 0.26669 0.37299 0.0
C845 C 0.30096 0.28019 0.35114 0.0
C846 C 0.31298 0.22807 0.44163 0.0
C847 C 0.29364 0.22995 0.45957 0.0
C848 C 0.31538 0.24478 0.42204 0.0
C849 C 0.29838 0.26363 0.41983 0.0
C850 C 0.28004 0.26652 0.43866 0.0
C851 C 0.27774 0.24989 0.45838 0.0
H852 H 0.49779 0.53617 0.94585 0.0
H853 H 0.49441 0.45678 0.92174 0.0
H854 H 0.4676 0.54359 0.91248 0.0
H855 H 0.46411 0.46415 0.88858 0.0
H856 H 0.43922 0.49454 0.81385 0.0
H857 H 0.4677 0.48849 0.84869 0.0
H858 H 0.42145 0.5311 0.89943 0.0
H859 H 0.39264 0.53723 0.86443 0.0
C860 C 0.49048 0.52032 0.93347 0.0
C861 C 0.49847 0.49592 0.93626 0.0
C862 C 0.47311 0.52453 0.91455 0.0
C863 C 0.46368 0.50447 0.89791 0.0
C864 C 0.47131 0.47999 0.90102 0.0
C865 C 0.48846 0.47573 0.92009 0.0
C866 C 0.43511 0.50279 0.83236 0.0
C867 C 0.41358 0.51632 0.83636 0.0
C868 C 0.45136 0.49913 0.85235 0.0
C869 C 0.44661 0.5091 0.87676 0.0
C870 C 0.42553 0.52324 0.88074 0.0
C871 C 0.40905 0.5267 0.86074 0.0
H872 H 0.73331 0.70701 0.22117 0.0
H873 H 0.74287 0.7821 0.19232 0.0
H874 H 0.73659 0.68842 0.1779 0.0
H875 H 0.74645 0.76371 0.14963 0.0
H876 H 0.71716 0.72306 0.07654 0.0
H877 H 0.71527 0.7387 0.12035 0.0
H878 H 0.7695 0.68669 0.14124 0.0
H879 H 0.77146 0.67079 0.09699 0.0
C880 C 0.73623 0.71946 0.20563 0.0
C881 C 0.738 0.74596 0.21008 0.0
C882 C 0.73828 0.70888 0.18099 0.0
C883 C 0.74171 0.72467 0.16048 0.0
C884 C 0.74363 0.7511 0.16506 0.0
C885 C 0.74181 0.76161 0.18954 0.0
C886 C 0.72872 0.71489 0.09039 0.0
C887 C 0.74459 0.69579 0.08327 0.0
C888 C 0.72767 0.72392 0.11549 0.0
C889 C 0.74233 0.71398 0.13413 0.0
C890 C 0.75792 0.69457 0.12721 0.0
C891 C 0.75916 0.68564 0.10191 0.0
H892 H 0.00403 0.00425 0.08154 0.0
H893 H 0.98894 0.08338 0.08887 0.0
H894 H 0.97647 0.99531 0.11681 0.0
H895 H 0.95898 0.07385 0.1222 0.0
H896 H 0.92894 0.05423 0.20042 0.0
H897 H 0.95467 0.06501 0.16382 0.0
H898 H 0.93579 0.98945 0.13032 0.0
H899 H 0.91197 0.97838 0.16795 0.0
C900 C 0.99479 0.01979 0.09054 0.0
C901 C -0.00101 0.0446 0.08223 0.0
C902 C 0.97839 0.01453 0.11054 0.0
C903 C 0.96509 0.03376 0.12244 0.0
C904 C 0.96902 0.05851 0.11389 0.0
C905 C 0.98596 0.06391 0.09432 0.0
C906 C 0.93015 0.04013 0.18502 0.0
C907 C 0.9187 0.01548 0.18695 0.0
C908 C 0.94484 0.04627 0.16392 0.0
C909 C 0.94778 0.02802 0.14402 0.0
C910 C 0.93485 0.0038 0.1455 0.0
C911 C 0.92086 0.99749 0.16691 0.0
H912 H 0.31533 0.77556 0.18147 0.0
H913 H 0.23512 0.76849 0.19722 0.0
H914 H 0.30711 0.7968 0.14293 0.0
H915 H 0.2268 0.78894 0.15804 0.0
H916 H 0.22752 0.85084 0.09802 0.0
H917 H 0.23298 0.82989 0.13764 0.0
H918 H 0.28826 0.78452 0.10181 0.0
H919 H 0.28321 0.80561 0.06265 0.0
C920 C 0.29595 0.77871 0.1768 0.0
C921 C 0.27588 0.77028 0.19237 0.0
C922 C 0.2912 0.79058 0.15453 0.0
C923 C 0.26626 0.79428 0.14727 0.0
C924 C 0.24621 0.78643 0.16314 0.0
C925 C 0.25097 0.77452 0.18545 0.0
C926 C 0.24059 0.83617 0.09859 0.0
C927 C 0.2551 0.83004 0.0773 0.0
C928 C 0.24371 0.82417 0.12125 0.0
C929 C 0.26137 0.80585 0.12295 0.0
C930 C 0.27498 0.799 0.1013 0.0
C931 C 0.27192 0.81097 0.07878 0.0
H932 H 0.9781 0.52178 0.10349 0.0
H933 H 0.97546 0.44147 0.11611 0.0
H934 H 0.00912 0.53018 0.13695 0.0
H935 H 0.00871 0.44963 0.1477 0.0
H936 H 0.05032 0.47599 0.22176 0.0
H937 H 0.01918 0.46488 0.18817 0.0
H938 H 0.05097 0.52818 0.14648 0.0
H939 H 0.08049 0.54015 0.18103 0.0
C940 C 0.98406 0.50584 0.11337 0.0
C941 C 0.97407 0.48091 0.10695 0.0
C942 C 0.00244 0.51062 0.13228 0.0
C943 C 0.01194 0.49058 0.14492 0.0
C944 C 0.00184 0.46564 0.13863 0.0
C945 C 0.98297 0.46091 0.12013 0.0
C946 C 0.05072 0.48721 0.20518 0.0
C947 C 0.06758 0.50895 0.20391 0.0
C948 C 0.03292 0.48088 0.18586 0.0
C949 C 0.03211 0.49587 0.16463 0.0
C950 C 0.05026 0.51668 0.16284 0.0
C951 C 0.06748 0.52338 0.18245 0.0
H952 H 0.35536 0.76272 0.23794 0.0
H953 H 0.30813 0.75397 0.30378 0.0
H954 H 0.39269 0.77104 0.26517 0.0
H955 H 0.34525 0.76272 0.33105 0.0
H956 H 0.4185 0.74751 0.37002 0.0
H957 H 0.38173 0.74144 0.34217 0.0
H958 H 0.41391 0.8008 0.29592 0.0
H959 H 0.45113 0.80643 0.32344 0.0
C960 C 0.35294 0.76302 0.25825 0.0
C961 C 0.32892 0.75753 0.26877 0.0
C962 C 0.3743 0.76779 0.27386 0.0
C963 C 0.372 0.76727 0.30029 0.0
C964 C 0.34778 0.76267 0.31076 0.0
C965 C 0.3265 0.75777 0.29517 0.0
C966 C 0.41779 0.75925 0.35389 0.0
C967 C 0.43775 0.77747 0.34898 0.0
C968 C 0.3966 0.7559 0.33801 0.0
C969 C 0.39476 0.77078 0.31692 0.0
C970 C 0.41483 0.78887 0.31187 0.0
C971 C 0.43612 0.79215 0.32771 0.0
H972 H 0.93853 0.44775 0.99794 0.0
H973 H 0.94666 0.4002 0.06096 0.0
H974 H 0.94599 0.41218 0.96865 0.0
H975 H 0.95492 0.36475 0.03161 0.0
H976 H 0.94326 0.30122 0.96842 0.0
H977 H 0.93413 0.33558 -0.0014 0.0
H978 H 0.9824 0.38829 0.9569 0.0
H979 H 0.99127 0.35414 0.92653 0.0
C980 C 0.94163 0.42961 0.00552 0.0
C981 C 0.94201 0.42676 0.03174 0.0
C982 C 0.94625 0.40934 0.98876 0.0
C983 C 0.9513 0.38575 0.99785 0.0
C984 C 0.95099 0.38267 0.02405 0.0
C985 C 0.94645 0.40299 0.04084 0.0
C986 C 0.95205 0.32011 0.96576 0.0
C987 C 0.96793 0.32494 0.94499 0.0
C988 C 0.94686 0.33976 0.9831 0.0
C989 C 0.95738 0.36466 0.97999 0.0
C990 C 0.97365 0.36938 0.95954 0.0
C991 C 0.97889 0.34975 0.94225 0.0
H992 H 0.66229 0.75681 0.25303 0.0
H993 H 0.70225 0.76363 0.32454 0.0
H994 H 0.62215 0.75871 0.27519 0.0
H995 H 0.66195 0.76592 0.34673 0.0
H996 H 0.57975 0.75577 0.37742 0.0
H997 H 0.61804 0.74331 0.35567 0.0
H998 H 0.60712 0.79728 0.29892 0.0
H999 H 0.56931 0.80978 0.32049 0.0
C1000 C 0.66245 0.75793 0.27351 0.0
C1001 C 0.68542 0.76024 0.28706 0.0
C1002 C 0.63948 0.75929 0.28617 0.0
C1003 C 0.63901 0.76283 0.31263 0.0
C1004 C 0.66177 0.76315 0.32632 0.0
C1005 C 0.68481 0.76197 0.31363 0.0
C1006 C 0.58555 0.76487 0.36025 0.0
C1007 C 0.57159 0.78381 0.3507 0.0
C1008 C 0.60741 0.75775 0.34786 0.0
C1009 C 0.61536 0.76915 0.3255 0.0
C1010 C 0.6012 0.78786 0.31588 0.0
C1011 C 0.57967 0.79519 0.32839 0.0
H1012 H 0.03462 0.0769 0.97284 0.0
H1013 H 0.01103 0.12081 0.03836 0.0
H1014 H 0.02322 0.11042 0.94567 0.0
H1015 H -0.00097 0.15363 0.0112 0.0
H1016 H 0.94948 0.18729 0.95334 0.0
H1017 H 0.96394 0.15331 0.97755 0.0
H1018 H 0.0355 0.159 0.93856 0.0
H1019 H 0.0211 0.19343 0.91419 0.0
C1020 C 0.02727 0.09375 0.98148 0.0
C1021 C 0.02338 0.09598 0.00776 0.0
C1022 C 0.02071 0.11286 0.96592 0.0
C1023 C 0.00993 0.13437 0.97635 0.0
C1024 C 0.00685 0.13698 0.00263 0.0
C1025 C 0.01363 0.11811 0.01816 0.0
C1026 C 0.96824 0.18124 0.94971 0.0
C1027 C 0.98421 0.19317 0.93194 0.0
C1028 C 0.97654 0.16186 0.96369 0.0
C1029 C 0.0009 0.15376 0.96008 0.0
C1030 C 0.01661 0.16493 0.94165 0.0
C1031 C 0.00839 0.18462 0.9278 0.0
H1032 H 0.33782 0.36222 0.25679 0.0
H1033 H 0.33047 0.28268 0.27282 0.0
H1034 H 0.37333 0.35456 0.22854 0.0
H1035 H 0.36608 0.27528 0.24522 0.0
H1036 H 0.44983 0.27998 0.22451 0.0
H1037 H 0.413 0.28982 0.24946 0.0
H1038 H 0.38421 0.32902 0.18734 0.0
H1039 H 0.42113 0.31913 0.16212 0.0
C1040 C 0.34351 0.34309 0.25399 0.0
C1041 C 0.33163 0.32314 0.26735 0.0
C1042 C 0.36386 0.33874 0.23793 0.0
C1043 C 0.3727 0.31443 0.23513 0.0
C1044 C 0.36001 0.29432 0.24751 0.0
C1045 C 0.33964 0.29859 0.2633 0.0
C1046 C 0.43579 0.29085 0.21617 0.0
C1047 C 0.43837 0.29864 0.19126 0.0
C1048 C 0.41462 0.29635 0.23042 0.0
C1049 C 0.39567 0.30995 0.22021 0.0
C1050 C 0.39858 0.31852 0.19564 0.0
C1051 C 0.41966 0.31277 0.18122 0.0
H1052 H 0.56785 0.43418 0.00293 0.0
H1053 H 0.49009 0.45123 0.01357 0.0
H1054 H 0.56071 0.39798 0.02973 0.0
H1055 H 0.48297 0.41512 0.04013 0.0
H1056 H 0.47089 0.3328 0.05995 0.0
H1057 H 0.4804 0.3688 0.03387 0.0
H1058 H 0.55103 0.38711 0.07418 0.0
H1059 H 0.54164 0.35063 0.1003 0.0
C1060 C 0.54932 0.43035 0.01117 0.0
C1061 C 0.52946 0.44543 0.00594 0.0
C1062 C 0.54525 0.40963 0.0265 0.0
C1063 C 0.52123 0.40357 0.03684 0.0
C1064 C 0.50156 0.41899 0.03201 0.0
C1065 C 0.50563 0.43966 0.01677 0.0
C1066 C 0.48852 0.3444 0.06326 0.0
C1067 C 0.50546 0.33892 0.0823 0.0
C1068 C 0.49388 0.36514 0.04838 0.0
C1069 C 0.51632 0.38096 0.05214 0.0
C1070 C 0.53362 0.37519 0.07078 0.0
C1071 C 0.52821 0.35437 0.08577 0.0
H1072 H 0.70106 0.23204 0.22809 0.0
H1073 H 0.66292 0.24237 0.29935 0.0
H1074 H 0.66179 0.23911 0.20559 0.0
H1075 H 0.62427 0.24995 0.27721 0.0
H1076 H 0.55267 0.23449 0.23079 0.0
H1077 H 0.59221 0.22615 0.25072 0.0
H1078 H 0.63367 0.27458 0.19912 0.0
H1079 H 0.59376 0.28269 0.17866 0.0
C1080 C 0.68427 0.23565 0.23887 0.0
C1081 C 0.68502 0.23679 0.26541 0.0
C1082 C 0.66193 0.23997 0.22606 0.0
C1083 C 0.63996 0.24515 0.23964 0.0
C1084 C 0.64075 0.24578 0.26617 0.0
C1085 C 0.66295 0.24162 0.27887 0.0
C1086 C 0.57015 0.2435 0.22368 0.0
C1087 C 0.57003 0.25941 0.20323 0.0
C1088 C 0.59285 0.23872 0.23517 0.0
C1089 C 0.61607 0.24973 0.22654 0.0
C1090 C 0.61607 0.26563 0.20602 0.0
C1091 C 0.59323 0.27048 0.1945 0.0
H1092 H 0.50064 0.10184 0.0145 0.0
H1093 H 0.47615 0.06712 0.08341 0.0
H1094 H 0.50252 0.14354 0.03629 0.0
H1095 H 0.47689 0.10902 0.10495 0.0
H1096 H 0.50712 0.18561 0.14148 0.0
H1097 H 0.50633 0.14381 0.12015 0.0
H1098 H 0.47376 0.17305 0.05379 0.0
H1099 H 0.47513 0.21516 0.07492 0.0
C1100 C 0.49588 0.10309 0.03438 0.0
C1101 C 0.48842 0.08116 0.0473 0.0
C1102 C 0.49657 0.12703 0.04675 0.0
C1103 C 0.4897 0.1296 0.0723 0.0
C1104 C 0.4825 0.10766 0.08531 0.0
C1105 C 0.48188 0.08368 0.07294 0.0
C1106 C 0.49972 0.18316 0.12235 0.0
C1107 C 0.4912 0.20375 0.10988 0.0
C1108 C 0.49916 0.15914 0.11018 0.0
C1109 C 0.49001 0.15511 0.08529 0.0
C1110 C 0.48128 0.17563 0.07286 0.0
C1111 C 0.48191 0.19972 0.08502 0.0
H1112 H 0.24995 0.33234 0.80105 0.0
H1113 H 0.25182 0.33025 0.71942 0.0
H1114 H 0.27208 0.37476 0.80254 0.0
H1115 H 0.27395 0.37251 0.72092 0.0
H1116 H 0.33875 0.4349 0.73594 0.0
H1117 H 0.31524 0.39338 0.73355 0.0
H1118 H 0.26493 0.4185 0.79201 0.0
H1119 H 0.28872 0.46005 0.79476 0.0
C1120 C 0.25506 0.34096 0.78345 0.0
C1121 C 0.24934 0.32788 0.76014 0.0
C1122 C 0.26762 0.36527 0.7843 0.0
C1123 C 0.27472 0.37697 0.76184 0.0
C1124 C 0.26905 0.36385 0.73854 0.0
C1125 C 0.25647 0.33959 0.7377 0.0
C1126 C 0.32256 0.43168 0.74817 0.0
C1127 C 0.31568 0.45079 0.76562 0.0
C1128 C 0.30903 0.40789 0.74672 0.0
C1129 C 0.28833 0.40263 0.76269 0.0
C1130 C 0.28104 0.42189 0.77972 0.0
C1131 C 0.29455 0.44575 0.78114 0.0
H1132 H 0.29761 0.72077 0.77157 0.0
H1133 H 0.22479 0.67928 0.75821 0.0
H1134 H 0.31766 0.68067 0.77161 0.0
H1135 H 0.2448 0.6393 0.75817 0.0
H1136 H 0.28481 0.58018 0.80309 0.0
H1137 H 0.26549 0.61924 0.79508 0.0
H1138 H 0.32593 0.64031 0.74375 0.0
H1139 H 0.3453 0.60084 0.75155 0.0
C1140 C 0.286 0.70309 0.76821 0.0
C1141 C 0.25966 0.70311 0.76496 0.0
C1142 C 0.29747 0.6802 0.76809 0.0
C1143 C 0.28273 0.65692 0.76508 0.0
C1144 C 0.25656 0.65699 0.76073 0.0
C1145 C 0.24515 0.67986 0.76054 0.0
C1146 C 0.29396 0.59305 0.79 0.0
C1147 C 0.31661 0.58748 0.77799 0.0
C1148 C 0.28278 0.61532 0.78527 0.0
C1149 C 0.29416 0.63271 0.7687 0.0
C1150 C 0.31681 0.6272 0.75663 0.0
C1151 C 0.32782 0.60463 0.76105 0.0
H1152 H 0.89324 0.56473 0.50722 0.0
H1153 H 0.87746 0.55252 0.42726 0.0
H1154 H 0.85785 0.53438 0.51646 0.0
H1155 H 0.84248 0.52136 0.43652 0.0
H1156 H 0.76731 0.48408 0.46463 0.0
H1157 H 0.80009 0.5177 0.45619 0.0
H1158 H 0.84916 0.48833 0.51096 0.0
H1159 H 0.8164 0.45503 0.51971 0.0
C1160 C 0.88205 0.55574 0.49162 0.0
C1161 C 0.88809 0.56104 0.4665 0.0
C1162 C 0.86196 0.53814 0.49691 0.0
C1163 C 0.8475 0.5254 0.47722 0.0
C1164 C 0.85319 0.53104 0.4521 0.0
C1165 C 0.87334 0.54867 0.44678 0.0
C1166 C 0.78503 0.4849 0.47499 0.0
C1167 C 0.78926 0.46686 0.49283 0.0
C1168 C 0.80384 0.50406 0.47003 0.0
C1169 C 0.82718 0.50562 0.48289 0.0
C1170 C 0.83124 0.48781 0.50097 0.0
C1171 C 0.8125 0.46864 0.50589 0.0
H1172 H 0.80864 0.90729 0.80673 0.0
H1173 H 0.74187 0.85609 0.81594 0.0
H1174 H 0.78209 0.94248 0.80299 0.0
H1175 H 0.71526 0.89148 0.81272 0.0
H1176 H 0.72822 0.00151 0.83218 0.0
H1177 H 0.75493 0.96624 0.83194 0.0
H1178 H 0.70213 0.92223 0.78153 0.0
H1179 H 0.67513 0.95766 0.78185 0.0
C1180 C 0.78827 0.90355 0.80783 0.0
C1181 C 0.77733 0.87894 0.81167 0.0
C1182 C 0.77308 0.92372 0.80587 0.0
C1183 C 0.7466 0.91974 0.80759 0.0
C1184 C 0.73561 0.89508 0.81109 0.0
C1185 C 0.75083 0.8749 0.81322 0.0
C1186 C 0.72234 0.9844 0.82088 0.0
C1187 C 0.69953 0.98236 0.80705 0.0
C1188 C 0.73774 0.96423 0.82066 0.0
C1189 C 0.73062 0.94146 0.80674 0.0
C1190 C 0.70797 0.93949 0.79261 0.0
C1191 C 0.69262 0.95981 0.79265 0.0
H1192 H 0.60804 0.49203 0.98054 0.0
H1193 H 0.56284 0.55575 0.97373 0.0
H1194 H 0.64632 0.52108 0.9836 0.0
H1195 H 0.60107 0.58459 0.97564 0.0
H1196 H 0.67031 0.62987 0.01068 0.0
H1197 H 0.6326 0.60064 0.00654 0.0
H1198 H 0.67317 0.54983 0.95825 0.0
H1199 H 0.71133 0.57894 0.96288 0.0
C1200 C 0.60628 0.51222 0.97972 0.0
C1201 C 0.58241 0.5216 0.97695 0.0
C1202 C 0.62823 0.52883 0.98113 0.0
C1203 C 0.62673 0.55513 0.97983 0.0
C1204 C 0.60286 0.56445 0.97697 0.0
C1205 C 0.58096 0.54789 0.97561 0.0
C1206 C 0.67124 0.61254 -0.00093 0.0
C1207 C 0.69387 0.60676 0.9871 0.0
C1208 C 0.64954 0.59582 0.9966 0.0
C1209 C 0.64987 0.57293 0.98204 0.0
C1210 C 0.67241 0.56719 0.96986 0.0
C1211 C 0.69421 0.58395 0.97236 0.0
H1212 H 0.21856 0.71263 0.23802 0.0
H1213 H 0.28514 0.675 0.2564 0.0
H1214 H 0.19206 0.67382 0.24519 0.0
H1215 H 0.2585 0.63625 0.26391 0.0
H1216 H 0.19652 0.58238 0.30119 0.0
H1217 H 0.22501 0.62003 0.29393 0.0
H1218 H 0.18508 0.63064 0.22457 0.0
H1219 H 0.15659 0.59336 0.23178 0.0
C1220 C 0.22754 0.69604 0.24346 0.0
C1221 C 0.25395 0.69688 0.24657 0.0
C1222 C 0.21238 0.67383 0.24759 0.0
C1223 C 0.22326 0.652 0.25499 0.0
C1224 C 0.24961 0.65288 0.25845 0.0
C1225 C 0.26482 0.67508 0.2542 0.0
C1226 C 0.19396 0.59264 0.2843 0.0
C1227 C 0.17417 0.58497 0.26717 0.0
C1228 C 0.2103 0.61413 0.28013 0.0
C1229 C 0.20705 0.62838 0.25883 0.0
C1230 C 0.18774 0.62028 0.24138 0.0
C1231 C 0.17152 0.5988 0.24546 0.0
H1232 H 0.90658 0.50104 0.01269 0.0
H1233 H 0.89594 0.52183 0.09174 0.0
H1234 H 0.87899 0.53257 0.00103 0.0
H1235 H 0.87041 0.55552 0.07988 0.0
H1236 H 0.80353 0.59606 0.05011 0.0
H1237 H 0.83172 0.56546 0.06456 0.0
H1238 H 0.8766 0.57499 0.99696 0.0
H1239 H 0.84724 0.60392 0.98193 0.0
C1240 C 0.89837 0.51228 0.0277 0.0
C1241 C 0.90349 0.50853 0.05325 0.0
C1242 C 0.88291 0.53096 0.02092 0.0
C1243 C 0.8726 0.54708 0.03942 0.0
C1244 C 0.87774 0.54343 0.06502 0.0
C1245 C 0.89279 0.52427 0.07185 0.0
C1246 C 0.8196 0.59168 0.03854 0.0
C1247 C 0.82314 0.60209 0.01483 0.0
C1248 C 0.83587 0.5742 0.04683 0.0
C1249 C 0.85636 0.56724 0.03179 0.0
C1250 C 0.8606 0.57902 0.00872 0.0
C1251 C 0.84395 0.59588 0.00017 0.0
H1252 H 0.08827 0.02688 0.07175 0.0
H1253 H 0.071 0.02224 0.99182 0.0
H1254 H 0.12342 0.00044 0.06411 0.0
H1255 H 0.10606 0.99585 0.98419 0.0
H1256 H 0.18675 0.97271 0.97685 0.0
H1257 H 0.15193 -0.00095 0.98526 0.0
H1258 H 0.13176 0.95681 0.05102 0.0
H1259 H 0.1671 0.93061 0.04285 0.0
C1260 C 0.0919 0.0201 0.05257 0.0
C1261 C 0.07687 0.0267 0.03238 0.0
C1262 C 0.112 0.00492 0.0482 0.0
C1263 C 0.11755 0.99601 0.02354 0.0
C1264 C 0.10255 0.0027 0.00337 0.0
C1265 C 0.08248 0.01787 0.00773 0.0
C1266 C 0.1749 0.96897 0.99311 0.0
C1267 C 0.17968 0.94952 0.00917 0.0
C1268 C 0.15483 0.98402 0.99785 0.0
C1269 C 0.13899 0.98 0.01876 0.0
C1270 C 0.14378 0.96057 0.0349 0.0
C1271 C 0.16391 0.94546 0.03013 0.0
loop_
_geom_bond_atom_site_label_1
_geom_bond_atom_site_label_2
_geom_bond_distance
_geom_bond_site_symmetry_2
_ccdc_geom_bond_type
H0 C3 0.931 . S
H1 C6 0.928 . S
H2 C8 0.930 . S
C3 H0 0.931 . S
C3 C4 1.413 . S
C3 C5 1.360 . S
C4 C3 1.413 . S
C4 C8 1.429 . S
C5 C3 1.360 . S
C5 C6 1.372 . S
C6 H1 0.928 . S
C6 C5 1.372 . S
C6 C7 1.404 . S
C7 C6 1.404 . S
C7 C8 1.391 . S
C8 H2 0.930 . S
C8 C4 1.429 . S
C8 C7 1.391 . S
H9 C12 0.931 . S
H10 C15 0.928 . S
H11 C17 0.930 . S
C12 H9 0.931 . S
C12 C13 1.413 . S
C12 C14 1.360 . S
C13 C12 1.413 . S
C13 C17 1.429 . S
C14 C12 1.360 . S
C14 C15 1.372 . S
C15 H10 0.928 . S
C15 C14 1.372 . S
C15 C16 1.404 . S
C16 C15 1.404 . S
C16 C17 1.391 . S
C17 H11 0.930 . S
C17 C13 1.429 . S
C17 C16 1.391 . S
H18 C21 0.931 . S
H19 C24 0.928 . S
H20 C26 0.930 . S
C21 H18 0.931 . S
C21 C22 1.413 . S
C21 C23 1.360 . S
C22 C21 1.413 . S
C22 C26 1.429 . S
C23 C21 1.360 . S
C23 C24 1.372 . S
C24 H19 0.928 . S
C24 C23 1.372 . S
C24 C25 1.404 . S
C25 C24 1.404 . S
C25 C26 1.391 . S
C26 H20 0.930 . S
C26 C22 1.429 . S
C26 C25 1.391 . S
H27 C30 0.931 . S
H28 C33 0.928 . S
H29 C35 0.930 . S
C30 H27 0.931 . S
C30 C31 1.413 . S
C30 C32 1.360 . S
C31 C30 1.413 . S
C31 C35 1.429 . S
C32 C30 1.360 . S
C32 C33 1.372 . S
C33 H28 0.928 . S
C33 C32 1.372 . S
C33 C34 1.404 . S
C34 C33 1.404 . S
C34 C35 1.391 . S
C35 H29 0.930 . S
C35 C31 1.429 . S
C35 C34 1.391 . S
H36 C39 0.931 . S
H37 C42 0.928 . S
H38 C44 0.930 . S
C39 H36 0.931 . S
C39 C40 1.413 . S
C39 C41 1.360 . S
C40 C39 1.413 . S
C40 C44 1.429 . S
C41 C39 1.360 . S
C41 C42 1.372 . S
C42 H37 0.928 . S
C42 C41 1.372 . S
C42 C43 1.404 . S
C43 C42 1.404 . S
C43 C44 1.391 . S
C44 H38 0.930 . S
C44 C40 1.429 . S
C44 C43 1.391 . S
H45 C48 0.931 . S
H46 C51 0.928 . S
H47 C53 0.930 . S
C48 H45 0.931 . S
C48 C49 1.413 . S
C48 C50 1.360 . S
C49 C48 1.413 . S
C49 C53 1.429 . S
C50 C48 1.360 . S
C50 C51 1.372 . S
C51 H46 0.928 . S
C51 C50 1.372 . S
C51 C52 1.404 . S
C52 C51 1.404 . S
C52 C53 1.391 . S
C53 H47 0.930 . S
C53 C49 1.429 . S
C53 C52 1.391 . S
H54 C57 0.931 . S
H55 C60 0.928 . S
H56 C62 0.930 . S
C57 H54 0.931 . S
C57 C58 1.413 . S
C57 C59 1.360 . S
C58 C57 1.413 . S
C58 C62 1.429 . S
C59 C57 1.360 . S
C59 C60 1.372 . S
C60 H55 0.928 . S
C60 C59 1.372 . S
C60 C61 1.404 . S
C61 C60 1.404 . S
C61 C62 1.391 . S
C62 H56 0.930 . S
C62 C58 1.429 . S
C62 C61 1.391 . S
H63 C66 0.931 . S
H64 C69 0.928 . S
H65 C71 0.930 . S
C66 H63 0.931 . S
C66 C67 1.413 . S
C66 C68 1.360 . S
C67 C66 1.413 . S
C67 C71 1.429 . S
C68 C66 1.360 . S
C68 C69 1.372 . S
C69 H64 0.928 . S
C69 C68 1.372 . S
C69 C70 1.404 . S
C70 C69 1.404 . S
C70 C71 1.391 . S
C71 H65 0.930 . S
C71 C67 1.429 . S
C71 C70 1.391 . S
H72 C75 0.931 . S
H73 C78 0.928 . S
H74 C80 0.930 . S
C75 H72 0.931 . S
C75 C76 1.413 . S
C75 C77 1.360 . S
C76 C75 1.413 . S
C76 C80 1.429 . S
C77 C75 1.360 . S
C77 C78 1.372 . S
C78 H73 0.928 . S
C78 C77 1.372 . S
C78 C79 1.404 . S
C79 C78 1.404 . S
C79 C80 1.391 . S
C80 H74 0.930 . S
C80 C76 1.429 . S
C80 C79 1.391 . S
H81 C84 0.931 . S
H82 C87 0.928 . S
H83 C89 0.930 . S
C84 H81 0.931 . S
C84 C85 1.413 . S
C84 C86 1.360 . S
C85 C84 1.413 . S
C85 C89 1.429 . S
C86 C84 1.360 . S
C86 C87 1.372 . S
C87 H82 0.928 . S
C87 C86 1.372 . S
C87 C88 1.404 . S
C88 C87 1.404 . S
C88 C89 1.391 . S
C89 H83 0.930 . S
C89 C85 1.429 . S
C89 C88 1.391 . S
H90 C93 0.931 . S
H91 C96 0.928 . S
H92 C98 0.930 . S
C93 H90 0.931 . S
C93 C94 1.413 . S
C93 C95 1.360 . S
C94 C93 1.413 . S
C94 C98 1.429 . S
C95 C93 1.360 . S
C95 C96 1.372 . S
C96 H91 0.928 . S
C96 C95 1.372 . S
C96 C97 1.404 . S
C97 C96 1.404 . S
C97 C98 1.391 . S
C98 H92 0.930 . S
C98 C94 1.429 . S
C98 C97 1.391 . S
H99 C102 0.931 . S
H100 C105 0.928 . S
H101 C107 0.930 . S
C102 H99 0.931 . S
C102 C103 1.413 . S
C102 C104 1.360 . S
C103 C102 1.413 . S
C103 C107 1.429 . S
C104 C102 1.360 . S
C104 C105 1.372 . S
C105 H100 0.928 . S
C105 C104 1.372 . S
C105 C106 1.404 . S
C106 C105 1.404 . S
C106 C107 1.391 . S
C107 H101 0.930 . S
C107 C103 1.429 . S
C107 C106 1.391 . S
H108 C111 0.931 . S
H109 C114 0.928 . S
H110 C116 0.930 . S
C111 H108 0.931 . S
C111 C112 1.413 . S
C111 C113 1.360 . S
C112 C111 1.413 . S
C112 C116 1.429 . S
C113 C111 1.360 . S
C113 C114 1.372 . S
C114 H109 0.928 . S
C114 C113 1.372 . S
C114 C115 1.404 . S
C115 C114 1.404 . S
C115 C116 1.391 . S
C116 H110 0.930 . S
C116 C112 1.429 . S
C116 C115 1.391 . S
H117 C120 0.931 . S
H118 C123 0.928 . S
H119 C125 0.930 . S
C120 H117 0.931 . S
C120 C121 1.413 . S
C120 C122 1.360 . S
C121 C120 1.413 . S
C121 C125 1.429 . S
C122 C120 1.360 . S
C122 C123 1.372 . S
C123 H118 0.928 . S
C123 C122 1.372 . S
C123 C124 1.404 . S
C124 C123 1.404 . S
C124 C125 1.391 . S
C125 H119 0.930 . S
C125 C121 1.429 . S
C125 C124 1.391 . S
H126 C129 0.931 . S
H127 C132 0.928 . S
H128 C134 0.930 . S
C129 H126 0.931 . S
C129 C130 1.413 . S
C129 C131 1.360 . S
C130 C129 1.413 . S
C130 C134 1.429 . S
C131 C129 1.360 . S
C131 C132 1.372 . S
C132 H127 0.928 . S
C132 C131 1.372 . S
C132 C133 1.404 . S
C133 C132 1.404 . S
C133 C134 1.391 . S
C134 H128 0.930 . S
C134 C130 1.429 . S
C134 C133 1.391 . S
H135 C138 0.931 . S
H136 C141 0.928 . S
H137 C143 0.930 . S
C138 H135 0.931 . S
C138 C139 1.413 . S
C138 C140 1.360 . S
C139 C138 1.413 . S
C139 C143 1.429 . S
C140 C138 1.360 . S
C140 C141 1.372 . S
C141 H136 0.928 . S
C141 C140 1.372 . S
C141 C142 1.404 . S
C142 C141 1.404 . S
C142 C143 1.391 . S
C143 H137 0.930 . S
C143 C139 1.429 . S
C143 C142 1.391 . S
O144 Cd145 2.223 . S
O144 C152 1.315 . S
Cd145 O144 2.223 . S
Cd145 O148 2.297 . S
Cd145 O149 2.439 . S
Cd145 O155 2.240 . S
Cd146 O147 2.240 . S
Cd146 O154 2.223 . S
Cd146 O156 2.297 . S
Cd146 O157 2.439 . S
O147 Cd146 2.240 . S
O147 C152 1.279 . S
O148 Cd145 2.297 . S
O148 C150 1.247 . S
O149 Cd145 2.439 . S
O149 C150 1.208 . S
C150 O148 1.247 . S
C150 O149 1.208 . S
C151 O156 1.247 . S
C151 O157 1.208 . S
C152 O144 1.315 . S
C152 O147 1.279 . S
C153 O154 1.315 . S
C153 O155 1.279 . S
O154 Cd146 2.223 . S
O154 C153 1.315 . S
O155 Cd145 2.240 . S
O155 C153 1.279 . S
O156 Cd146 2.297 . S
O156 C151 1.247 . S
O157 Cd146 2.439 . S
O157 C151 1.208 . S
O158 Cd159 2.223 . S
O158 C166 1.315 . S
Cd159 O158 2.223 . S
Cd159 O162 2.297 . S
Cd159 O163 2.439 . S
Cd159 O169 2.240 . S
Cd160 O161 2.240 . S
Cd160 O168 2.223 . S
Cd160 O170 2.297 . S
Cd160 O171 2.439 . S
O161 Cd160 2.240 . S
O161 C166 1.279 . S
O162 Cd159 2.297 . S
O162 C164 1.247 . S
O163 Cd159 2.439 . S
O163 C164 1.208 . S
C164 O162 1.247 . S
C164 O163 1.208 . S
C165 O170 1.247 . S
C165 O171 1.208 . S
C166 O158 1.315 . S
C166 O161 1.279 . S
C167 O168 1.315 . S
C167 O169 1.279 . S
O168 Cd160 2.223 . S
O168 C167 1.315 . S
O169 Cd159 2.240 . S
O169 C167 1.279 . S
O170 Cd160 2.297 . S
O170 C165 1.247 . S
O171 Cd160 2.439 . S
O171 C165 1.208 . S
O172 Cd173 2.223 1_556 S
O172 C180 1.315 . S
Cd173 O172 2.223 1_554 S
Cd173 O176 2.297 . S
Cd173 O177 2.439 . S
Cd173 O183 2.240 . S
Cd174 O175 2.240 . S
Cd174 O182 2.223 . S
Cd174 O184 2.297 1_556 S
Cd174 O185 2.439 1_556 S
O175 Cd174 2.240 . S
O175 C180 1.279 . S
O176 Cd173 2.297 . S
O176 C178 1.247 . S
O177 Cd173 2.439 . S
O177 C178 1.208 . S
C178 O176 1.247 . S
C178 O177 1.208 . S
C179 O184 1.247 . S
C179 O185 1.208 . S
C180 O172 1.315 . S
C180 O175 1.279 . S
C181 O182 1.315 . S
C181 O183 1.279 1_556 S
O182 Cd174 2.223 . S
O182 C181 1.315 . S
O183 Cd173 2.240 . S
O183 C181 1.279 1_554 S
O184 Cd174 2.297 1_554 S
O184 C179 1.247 . S
O185 Cd174 2.439 1_554 S
O185 C179 1.208 . S
O186 Cd187 2.223 . S
O186 C194 1.315 . S
Cd187 O186 2.223 . S
Cd187 O190 2.297 . S
Cd187 O191 2.439 . S
Cd187 O197 2.240 . S
Cd188 O189 2.240 . S
Cd188 O196 2.223 . S
Cd188 O198 2.297 . S
Cd188 O199 2.439 . S
O189 Cd188 2.240 . S
O189 C194 1.279 . S
O190 Cd187 2.297 . S
O190 C192 1.247 . S
O191 Cd187 2.439 . S
O191 C192 1.208 . S
C192 O190 1.247 . S
C192 O191 1.208 . S
C193 O198 1.247 . S
C193 O199 1.208 . S
C194 O186 1.315 . S
C194 O189 1.279 . S
C195 O196 1.315 . S
C195 O197 1.279 . S
O196 Cd188 2.223 . S
O196 C195 1.315 . S
O197 Cd187 2.240 . S
O197 C195 1.279 . S
O198 Cd188 2.297 . S
O198 C193 1.247 . S
O199 Cd188 2.439 . S
O199 C193 1.208 . S
O200 Cd201 2.223 . S
O200 C208 1.315 . S
Cd201 O200 2.223 . S
Cd201 O204 2.297 . S
Cd201 O205 2.439 . S
Cd201 O211 2.240 . S
Cd202 O203 2.240 . S
Cd202 O210 2.223 . S
Cd202 O212 2.297 . S
Cd202 O213 2.439 . S
O203 Cd202 2.240 . S
O203 C208 1.279 . S
O204 Cd201 2.297 . S
O204 C206 1.247 . S
O205 Cd201 2.439 . S
O205 C206 1.208 . S
C206 O204 1.247 . S
C206 O205 1.208 . S
C207 O212 1.247 . S
C207 O213 1.208 . S
C208 O200 1.315 . S
C208 O203 1.279 . S
C209 O210 1.315 . S
C209 O211 1.279 . S
O210 Cd202 2.223 . S
O210 C209 1.315 . S
O211 Cd201 2.240 . S
O211 C209 1.279 . S
O212 Cd202 2.297 . S
O212 C207 1.247 . S
O213 Cd202 2.439 . S
O213 C207 1.208 . S
O214 Cd215 2.223 . S
O214 C222 1.315 . S
Cd215 O214 2.223 . S
Cd215 O218 2.297 . S
Cd215 O219 2.439 . S
Cd215 O225 2.240 . S
Cd216 O217 2.240 . S
Cd216 O224 2.223 . S
Cd216 O226 2.297 . S
Cd216 O227 2.439 . S
O217 Cd216 2.240 . S
O217 C222 1.279 . S
O218 Cd215 2.297 . S
O218 C220 1.247 . S
O219 Cd215 2.439 . S
O219 C220 1.208 . S
C220 O218 1.247 . S
C220 O219 1.208 . S
C221 O226 1.247 . S
C221 O227 1.208 . S
C222 O214 1.315 . S
C222 O217 1.279 . S
C223 O224 1.315 . S
C223 O225 1.279 . S
O224 Cd216 2.223 . S
O224 C223 1.315 . S
O225 Cd215 2.240 . S
O225 C223 1.279 . S
O226 Cd216 2.297 . S
O226 C221 1.247 . S
O227 Cd216 2.439 . S
O227 C221 1.208 . S
O228 Cd229 2.223 . S
O228 C236 1.315 . S
Cd229 O228 2.223 . S
Cd229 O232 2.297 . S
Cd229 O233 2.439 . S
Cd229 O239 2.240 . S
Cd230 O231 2.240 . S
Cd230 O238 2.223 . S
Cd230 O240 2.297 . S
Cd230 O241 2.439 . S
O231 Cd230 2.240 . S
O231 C236 1.279 . S
O232 Cd229 2.297 . S
O232 C234 1.247 . S
O233 Cd229 2.439 . S
O233 C234 1.208 . S
C234 O232 1.247 . S
C234 O233 1.208 . S
C235 O240 1.247 . S
C235 O241 1.208 . S
C236 O228 1.315 . S
C236 O231 1.279 . S
C237 O238 1.315 . S
C237 O239 1.279 . S
O238 Cd230 2.223 . S
O238 C237 1.315 . S
O239 Cd229 2.240 . S
O239 C237 1.279 . S
O240 Cd230 2.297 . S
O240 C235 1.247 . S
O241 Cd230 2.439 . S
O241 C235 1.208 . S
O242 Cd243 2.223 1_545 S
O242 C250 1.315 . S
Cd243 O242 2.223 1_565 S
Cd243 O246 2.297 . S
Cd243 O247 2.439 . S
Cd243 O253 2.240 1_565 S
Cd244 O245 2.240 . S
Cd244 O252 2.223 . S
Cd244 O254 2.297 . S
Cd244 O255 2.439 1_545 S
O245 Cd244 2.240 . S
O245 C250 1.279 . S
O246 Cd243 2.297 . S
O246 C248 1.247 . S
O247 Cd243 2.439 . S
O247 C248 1.208 . S
C248 O246 1.247 . S
C248 O247 1.208 . S
C249 O254 1.247 1_565 S
C249 O255 1.208 . S
C250 O242 1.315 . S
C250 O245 1.279 . S
C251 O252 1.315 . S
C251 O253 1.279 . S
O252 Cd244 2.223 . S
O252 C251 1.315 . S
O253 Cd243 2.240 1_545 S
O253 C251 1.279 . S
O254 Cd244 2.297 . S
O254 C249 1.247 1_545 S
O255 Cd244 2.439 1_565 S
O255 C249 1.208 . S
O256 Cd257 2.223 . S
O256 C264 1.315 . S
Cd257 O256 2.223 . S
Cd257 O260 2.297 1_655 S
Cd257 O261 2.439 1_655 S
Cd257 O267 2.240 . S
Cd258 O259 2.240 . S
Cd258 O266 2.223 1_455 S
Cd258 O268 2.297 . S
Cd258 O269 2.439 . S
O259 Cd258 2.240 . S
O259 C264 1.279 1_455 S
O260 Cd257 2.297 1_455 S
O260 C262 1.247 . S
O261 Cd257 2.439 1_455 S
O261 C262 1.208 . S
C262 O260 1.247 . S
C262 O261 1.208 . S
C263 O268 1.247 . S
C263 O269 1.208 . S
C264 O256 1.315 . S
C264 O259 1.279 1_655 S
C265 O266 1.315 . S
C265 O267 1.279 . S
O266 Cd258 2.223 1_655 S
O266 C265 1.315 . S
O267 Cd257 2.240 . S
O267 C265 1.279 . S
O268 Cd258 2.297 . S
O268 C263 1.247 . S
O269 Cd258 2.439 . S
O269 C263 1.208 . S
O270 Cd271 2.223 . S
O270 C278 1.315 . S
Cd271 O270 2.223 . S
Cd271 O274 2.297 . S
Cd271 O275 2.439 . S
Cd271 O281 2.240 . S
Cd272 O273 2.240 . S
Cd272 O280 2.223 . S
Cd272 O282 2.297 . S
Cd272 O283 2.439 . S
O273 Cd272 2.240 . S
O273 C278 1.279 . S
O274 Cd271 2.297 . S
O274 C276 1.247 . S
O275 Cd271 2.439 . S
O275 C276 1.208 . S
C276 O274 1.247 . S
C276 O275 1.208 . S
C277 O282 1.247 . S
C277 O283 1.208 . S
C278 O270 1.315 . S
C278 O273 1.279 . S
C279 O280 1.315 . S
C279 O281 1.279 . S
O280 Cd272 2.223 . S
O280 C279 1.315 . S
O281 Cd271 2.240 . S
O281 C279 1.279 . S
O282 Cd272 2.297 . S
O282 C277 1.247 . S
O283 Cd272 2.439 . S
O283 C277 1.208 . S
O284 Cd285 2.223 1_655 S
O284 C292 1.315 . S
Cd285 O284 2.223 1_455 S
Cd285 O288 2.297 . S
Cd285 O289 2.439 . S
Cd285 O295 2.240 . S
Cd286 O287 2.240 . S
Cd286 O294 2.223 . S
Cd286 O296 2.297 1_655 S
Cd286 O297 2.439 1_655 S
O287 Cd286 2.240 . S
O287 C292 1.279 . S
O288 Cd285 2.297 . S
O288 C290 1.247 . S
O289 Cd285 2.439 . S
O289 C290 1.208 . S
C290 O288 1.247 . S
C290 O289 1.208 . S
C291 O296 1.247 . S
C291 O297 1.208 . S
C292 O284 1.315 . S
C292 O287 1.279 . S
C293 O294 1.315 . S
C293 O295 1.279 1_655 S
O294 Cd286 2.223 . S
O294 C293 1.315 . S
O295 Cd285 2.240 . S
O295 C293 1.279 1_455 S
O296 Cd286 2.297 1_455 S
O296 C291 1.247 . S
O297 Cd286 2.439 1_455 S
O297 C291 1.208 . S
O298 Cd299 2.223 . S
O298 C306 1.315 . S
Cd299 O298 2.223 . S
Cd299 O302 2.297 . S
Cd299 O303 2.439 . S
Cd299 O309 2.240 . S
Cd300 O301 2.240 . S
Cd300 O308 2.223 . S
Cd300 O310 2.297 . S
Cd300 O311 2.439 . S
O301 Cd300 2.240 . S
O301 C306 1.279 . S
O302 Cd299 2.297 . S
O302 C304 1.247 . S
O303 Cd299 2.439 . S
O303 C304 1.208 . S
C304 O302 1.247 . S
C304 O303 1.208 . S
C305 O310 1.247 . S
C305 O311 1.208 . S
C306 O298 1.315 . S
C306 O301 1.279 . S
C307 O308 1.315 . S
C307 O309 1.279 . S
O308 Cd300 2.223 . S
O308 C307 1.315 . S
O309 Cd299 2.240 . S
O309 C307 1.279 . S
O310 Cd300 2.297 . S
O310 C305 1.247 . S
O311 Cd300 2.439 . S
O311 C305 1.208 . S
H312 C320 0.950 . S
H313 C325 0.950 . S
H314 C322 0.950 . S
H315 C324 0.950 . S
H316 C326 0.950 1_554 S
H317 C328 0.950 . S
H318 C330 0.950 . S
H319 C331 0.950 . S
C320 H312 0.950 . S
C320 C321 1.386 . S
C320 C322 1.391 . S
C321 C320 1.386 . S
C321 C325 1.393 . S
C322 H314 0.950 . S
C322 C320 1.391 . S
C322 C323 1.400 . S
C323 C322 1.400 . S
C323 C324 1.398 . S
C323 C329 1.491 . S
C324 H315 0.950 . S
C324 C323 1.398 . S
C324 C325 1.391 . S
C325 H313 0.950 . S
C325 C321 1.393 . S
C325 C324 1.391 . S
C326 H316 0.950 1_556 S
C326 C327 1.386 . S
C326 C328 1.391 . S
C327 C326 1.386 . S
C327 C331 1.393 . S
C328 H317 0.950 . S
C328 C326 1.391 . S
C328 C329 1.400 . S
C329 C323 1.491 . S
C329 C328 1.400 . S
C329 C330 1.398 . S
C330 H318 0.950 . S
C330 C329 1.398 . S
C330 C331 1.391 . S
C331 H319 0.950 . S
C331 C327 1.393 . S
C331 C330 1.391 . S
H332 C340 0.950 . S
H333 C345 0.950 . S
H334 C342 0.950 . S
H335 C344 0.950 . S
H336 C346 0.950 . S
H337 C348 0.950 . S
H338 C350 0.950 1_655 S
H339 C351 0.950 . S
C340 H332 0.950 . S
C340 C341 1.386 . S
C340 C342 1.391 . S
C341 C340 1.386 . S
C341 C345 1.393 . S
C342 H334 0.950 . S
C342 C340 1.391 . S
C342 C343 1.397 1_655 S
C343 C342 1.397 1_455 S
C343 C344 1.399 . S
C343 C349 1.494 . S
C344 H335 0.950 . S
C344 C343 1.399 . S
C344 C345 1.391 1_455 S
C345 H333 0.950 . S
C345 C341 1.393 . S
C345 C344 1.391 1_655 S
C346 H336 0.950 . S
C346 C347 1.386 . S
C346 C348 1.391 . S
C347 C346 1.386 . S
C347 C351 1.393 . S
C348 H337 0.950 . S
C348 C346 1.391 . S
C348 C349 1.400 . S
C349 C343 1.494 . S
C349 C348 1.400 . S
C349 C350 1.398 . S
C350 H338 0.950 1_455 S
C350 C349 1.398 . S
C350 C351 1.391 . S
C351 H339 0.950 . S
C351 C347 1.393 . S
C351 C350 1.391 . S
H352 C360 0.950 . S
H353 C365 0.950 . S
H354 C362 0.950 . S
H355 C364 0.950 . S
H356 C366 0.950 . S
H357 C368 0.950 . S
H358 C370 0.950 . S
H359 C371 0.950 . S
C360 H352 0.950 . S
C360 C361 1.386 . S
C360 C362 1.391 . S
C361 C360 1.386 . S
C361 C365 1.393 . S
C362 H354 0.950 . S
C362 C360 1.391 . S
C362 C363 1.400 . S
C363 C362 1.400 . S
C363 C364 1.398 . S
C363 C369 1.491 . S
C364 H355 0.950 . S
C364 C363 1.398 . S
C364 C365 1.391 . S
C365 H353 0.950 . S
C365 C361 1.393 . S
C365 C364 1.391 . S
C366 H356 0.950 . S
C366 C367 1.386 . S
C366 C368 1.391 . S
C367 C366 1.386 . S
C367 C371 1.393 . S
C368 H357 0.950 . S
C368 C366 1.391 . S
C368 C369 1.400 . S
C369 C363 1.491 . S
C369 C368 1.400 . S
C369 C370 1.398 . S
C370 H358 0.950 . S
C370 C369 1.398 . S
C370 C371 1.391 . S
C371 H359 0.950 . S
C371 C367 1.393 . S
C371 C370 1.391 . S
H372 C380 0.962 . S
H373 C385 0.950 . S
H374 C382 0.956 . S
H375 C384 0.950 . S
H376 C386 0.950 . S
H377 C388 0.950 . S
H378 C390 0.950 . S
H379 C391 0.950 . S
C380 H372 0.962 . S
C380 C381 1.386 . S
C380 C382 1.388 1_565 S
C381 C380 1.386 . S
C381 C385 1.393 . S
C382 H374 0.956 . S
C382 C380 1.388 1_545 S
C382 C383 1.397 1_545 S
C383 C382 1.397 1_565 S
C383 C384 1.398 1_455 S
C383 C389 1.491 1_455 S
C384 H375 0.950 . S
C384 C383 1.398 1_655 S
C384 C385 1.391 1_655 S
C385 H373 0.950 . S
C385 C381 1.393 . S
C385 C384 1.391 1_455 S
C386 H376 0.950 . S
C386 C387 1.386 1_565 S
C386 C388 1.391 . S
C387 C386 1.386 1_545 S
C387 C391 1.393 . S
C388 H377 0.950 . S
C388 C386 1.391 . S
C388 C389 1.400 . S
C389 C383 1.491 1_655 S
C389 C388 1.400 . S
C389 C390 1.398 1_565 S
C390 H378 0.950 . S
C390 C389 1.398 1_545 S
C390 C391 1.391 . S
C391 H379 0.950 . S
C391 C387 1.393 . S
C391 C390 1.391 . S
H392 C400 0.950 . S
H393 C405 0.950 . S
H394 C402 0.950 . S
H395 C404 0.950 . S
H396 C406 0.950 . S
H397 C408 0.950 . S
H398 C410 0.950 . S
H399 C411 0.950 . S
C400 H392 0.950 . S
C400 C401 1.386 . S
C400 C402 1.391 . S
C401 C400 1.386 . S
C401 C405 1.393 . S
C402 H394 0.950 . S
C402 C400 1.391 . S
C402 C403 1.400 . S
C403 C402 1.400 . S
C403 C404 1.398 . S
C403 C409 1.491 . S
C404 H395 0.950 . S
C404 C403 1.398 . S
C404 C405 1.391 . S
C405 H393 0.950 . S
C405 C401 1.393 . S
C405 C404 1.391 . S
C406 H396 0.950 . S
C406 C407 1.386 . S
C406 C408 1.391 . S
C407 C406 1.386 . S
C407 C411 1.393 . S
C408 H397 0.950 . S
C408 C406 1.391 . S
C408 C409 1.400 . S
C409 C403 1.491 . S
C409 C408 1.400 . S
C409 C410 1.398 . S
C410 H398 0.950 . S
C410 C409 1.398 . S
C410 C411 1.391 . S
C411 H399 0.950 . S
C411 C407 1.393 . S
C411 C410 1.391 . S
H412 C420 0.950 . S
H413 C425 0.950 . S
H414 C422 0.950 . S
H415 C424 0.950 . S
H416 C426 0.950 . S
H417 C428 0.950 . S
H418 C430 0.950 . S
H419 C431 0.950 . S
C420 H412 0.950 . S
C420 C421 1.386 . S
C420 C422 1.391 . S
C421 C420 1.386 . S
C421 C425 1.393 . S
C422 H414 0.950 . S
C422 C420 1.391 . S
C422 C423 1.400 . S
C423 C422 1.400 . S
C423 C424 1.398 . S
C423 C429 1.491 . S
C424 H415 0.950 . S
C424 C423 1.398 . S
C424 C425 1.391 . S
C425 H413 0.950 . S
C425 C421 1.393 . S
C425 C424 1.391 . S
C426 H416 0.950 . S
C426 C427 1.386 . S
C426 C428 1.391 . S
C427 C426 1.386 . S
C427 C431 1.393 . S
C428 H417 0.950 . S
C428 C426 1.391 . S
C428 C429 1.400 . S
C429 C423 1.491 . S
C429 C428 1.400 . S
C429 C430 1.398 . S
C430 H418 0.950 . S
C430 C429 1.398 . S
C430 C431 1.391 . S
C431 H419 0.950 . S
C431 C427 1.393 . S
C431 C430 1.391 . S
H432 C440 0.950 . S
H433 C445 0.950 . S
H434 C442 0.950 . S
H435 C444 0.950 . S
H436 C446 0.950 . S
H437 C448 0.950 . S
H438 C450 0.950 . S
H439 C451 0.950 . S
C440 H432 0.950 . S
C440 C441 1.386 . S
C440 C442 1.391 . S
C441 C440 1.386 . S
C441 C445 1.393 . S
C442 H434 0.950 . S
C442 C440 1.391 . S
C442 C443 1.400 . S
C443 C442 1.400 . S
C443 C444 1.398 . S
C443 C449 1.491 . S
C444 H435 0.950 . S
C444 C443 1.398 . S
C444 C445 1.391 . S
C445 H433 0.950 . S
C445 C441 1.393 . S
C445 C444 1.391 . S
C446 H436 0.950 . S
C446 C447 1.386 . S
C446 C448 1.391 . S
C447 C446 1.386 . S
C447 C451 1.393 . S
C448 H437 0.950 . S
C448 C446 1.391 . S
C448 C449 1.400 . S
C449 C443 1.491 . S
C449 C448 1.400 . S
C449 C450 1.398 . S
C450 H438 0.950 . S
C450 C449 1.398 . S
C450 C451 1.391 . S
C451 H439 0.950 . S
C451 C447 1.393 . S
C451 C450 1.391 . S
H452 C460 0.950 . S
H453 C465 0.950 . S
H454 C462 0.950 . S
H455 C464 0.950 . S
H456 C466 0.950 . S
H457 C468 0.950 . S
H458 C470 0.950 . S
H459 C471 0.950 . S
C460 H452 0.950 . S
C460 C461 1.386 . S
C460 C462 1.391 . S
C461 C460 1.386 . S
C461 C465 1.393 . S
C462 H454 0.950 . S
C462 C460 1.391 . S
C462 C463 1.400 . S
C463 C462 1.400 . S
C463 C464 1.398 . S
C463 C469 1.491 . S
C464 H455 0.950 . S
C464 C463 1.398 . S
C464 C465 1.391 . S
C465 H453 0.950 . S
C465 C461 1.393 . S
C465 C464 1.391 . S
C466 H456 0.950 . S
C466 C467 1.386 . S
C466 C468 1.391 . S
C467 C466 1.386 . S
C467 C471 1.393 . S
C468 H457 0.950 . S
C468 C466 1.391 . S
C468 C469 1.400 . S
C469 C463 1.491 . S
C469 C468 1.400 . S
C469 C470 1.398 . S
C470 H458 0.950 . S
C470 C469 1.398 . S
C470 C471 1.391 . S
C471 H459 0.950 . S
C471 C467 1.393 . S
C471 C470 1.391 . S
H472 C480 0.950 . S
H473 C485 0.950 . S
H474 C482 0.950 . S
H475 C484 0.950 . S
H476 C486 0.950 . S
H477 C488 0.950 . S
H478 C490 0.950 . S
H479 C491 0.950 . S
C480 H472 0.950 . S
C480 C481 1.386 . S
C480 C482 1.391 . S
C481 C480 1.386 . S
C481 C485 1.393 . S
C482 H474 0.950 . S
C482 C480 1.391 . S
C482 C483 1.400 . S
C483 C482 1.400 . S
C483 C484 1.398 . S
C483 C489 1.491 . S
C484 H475 0.950 . S
C484 C483 1.398 . S
C484 C485 1.391 . S
C485 H473 0.950 . S
C485 C481 1.393 . S
C485 C484 1.391 . S
C486 H476 0.950 . S
C486 C487 1.386 . S
C486 C488 1.391 . S
C487 C486 1.386 . S
C487 C491 1.393 . S
C488 H477 0.950 . S
C488 C486 1.391 . S
C488 C489 1.400 . S
C489 C483 1.491 . S
C489 C488 1.400 . S
C489 C490 1.398 . S
C490 H478 0.950 . S
C490 C489 1.398 . S
C490 C491 1.391 . S
C491 H479 0.950 . S
C491 C487 1.393 . S
C491 C490 1.391 . S
H492 C500 0.950 . S
H493 C505 0.950 . S
H494 C502 0.950 . S
H495 C504 0.950 . S
H496 C506 0.950 . S
H497 C508 0.950 . S
H498 C510 0.950 . S
H499 C511 0.950 . S
C500 H492 0.950 . S
C500 C501 1.386 . S
C500 C502 1.391 . S
C501 C500 1.386 . S
C501 C505 1.393 . S
C502 H494 0.950 . S
C502 C500 1.391 . S
C502 C503 1.400 . S
C503 C502 1.400 . S
C503 C504 1.398 . S
C503 C509 1.491 . S
C504 H495 0.950 . S
C504 C503 1.398 . S
C504 C505 1.391 . S
C505 H493 0.950 . S
C505 C501 1.393 . S
C505 C504 1.391 . S
C506 H496 0.950 . S
C506 C507 1.386 . S
C506 C508 1.391 . S
C507 C506 1.386 . S
C507 C511 1.393 . S
C508 H497 0.950 . S
C508 C506 1.391 . S
C508 C509 1.400 . S
C509 C503 1.491 . S
C509 C508 1.400 . S
C509 C510 1.398 . S
C510 H498 0.950 . S
C510 C509 1.398 . S
C510 C511 1.391 . S
C511 H499 0.950 . S
C511 C507 1.393 . S
C511 C510 1.391 . S
H512 C520 0.950 . S
H513 C525 0.950 . S
H514 C522 0.950 . S
H515 C524 0.950 . S
H516 C526 0.950 . S
H517 C528 0.950 . S
H518 C530 0.950 . S
H519 C531 0.950 . S
C520 H512 0.950 . S
C520 C521 1.386 . S
C520 C522 1.391 . S
C521 C520 1.386 . S
C521 C525 1.393 . S
C522 H514 0.950 . S
C522 C520 1.391 . S
C522 C523 1.400 . S
C523 C522 1.400 . S
C523 C524 1.398 . S
C523 C529 1.491 . S
C524 H515 0.950 . S
C524 C523 1.398 . S
C524 C525 1.391 . S
C525 H513 0.950 . S
C525 C521 1.393 . S
C525 C524 1.391 . S
C526 H516 0.950 . S
C526 C527 1.386 . S
C526 C528 1.391 . S
C527 C526 1.386 . S
C527 C531 1.393 . S
C528 H517 0.950 . S
C528 C526 1.391 . S
C528 C529 1.400 . S
C529 C523 1.491 . S
C529 C528 1.400 . S
C529 C530 1.398 . S
C530 H518 0.950 . S
C530 C529 1.398 . S
C530 C531 1.391 . S
C531 H519 0.950 . S
C531 C527 1.393 . S
C531 C530 1.391 . S
H532 C540 0.950 . S
H533 C545 0.950 . S
H534 C542 0.950 . S
H535 C544 0.950 . S
H536 C546 0.950 . S
H537 C548 0.950 . S
H538 C550 0.950 . S
H539 C551 0.950 . S
C540 H532 0.950 . S
C540 C541 1.386 . S
C540 C542 1.391 . S
C541 C540 1.386 . S
C541 C545 1.393 . S
C542 H534 0.950 . S
C542 C540 1.391 . S
C542 C543 1.400 . S
C543 C542 1.400 . S
C543 C544 1.398 . S
C543 C549 1.491 . S
C544 H535 0.950 . S
C544 C543 1.398 . S
C544 C545 1.391 . S
C545 H533 0.950 . S
C545 C541 1.393 . S
C545 C544 1.391 . S
C546 H536 0.950 . S
C546 C547 1.386 . S
C546 C548 1.391 . S
C547 C546 1.386 . S
C547 C551 1.393 . S
C548 H537 0.950 . S
C548 C546 1.391 . S
C548 C549 1.400 . S
C549 C543 1.491 . S
C549 C548 1.400 . S
C549 C550 1.398 . S
C550 H538 0.950 . S
C550 C549 1.398 . S
C550 C551 1.391 . S
C551 H539 0.950 . S
C551 C547 1.393 . S
C551 C550 1.391 . S
H552 C560 0.950 . S
H553 C565 0.950 . S
H554 C562 0.950 . S
H555 C564 0.950 . S
H556 C566 0.950 . S
H557 C568 0.950 . S
H558 C570 0.950 . S
H559 C571 0.950 . S
C560 H552 0.950 . S
C560 C561 1.386 . S
C560 C562 1.391 . S
C561 C560 1.386 . S
C561 C565 1.393 . S
C562 H554 0.950 . S
C562 C560 1.391 . S
C562 C563 1.400 . S
C563 C562 1.400 . S
C563 C564 1.398 . S
C563 C569 1.491 . S
C564 H555 0.950 . S
C564 C563 1.398 . S
C564 C565 1.391 . S
C565 H553 0.950 . S
C565 C561 1.393 . S
C565 C564 1.391 . S
C566 H556 0.950 . S
C566 C567 1.386 . S
C566 C568 1.391 . S
C567 C566 1.386 . S
C567 C571 1.393 . S
C568 H557 0.950 . S
C568 C566 1.391 . S
C568 C569 1.400 . S
C569 C563 1.491 . S
C569 C568 1.400 . S
C569 C570 1.398 . S
C570 H558 0.950 . S
C570 C569 1.398 . S
C570 C571 1.391 . S
C571 H559 0.950 . S
C571 C567 1.393 . S
C571 C570 1.391 . S
H572 C580 0.950 . S
H573 C585 0.950 . S
H574 C582 0.950 . S
H575 C584 0.950 . S
H576 C586 0.950 . S
H577 C588 0.950 . S
H578 C590 0.950 . S
H579 C591 0.950 . S
C580 H572 0.950 . S
C580 C581 1.386 . S
C580 C582 1.391 . S
C581 C580 1.386 . S
C581 C585 1.393 . S
C582 H574 0.950 . S
C582 C580 1.391 . S
C582 C583 1.400 . S
C583 C582 1.400 . S
C583 C584 1.398 . S
C583 C589 1.491 . S
C584 H575 0.950 . S
C584 C583 1.398 . S
C584 C585 1.391 . S
C585 H573 0.950 . S
C585 C581 1.393 . S
C585 C584 1.391 . S
C586 H576 0.950 . S
C586 C587 1.386 . S
C586 C588 1.391 . S
C587 C586 1.386 . S
C587 C591 1.393 . S
C588 H577 0.950 . S
C588 C586 1.391 . S
C588 C589 1.400 . S
C589 C583 1.491 . S
C589 C588 1.400 . S
C589 C590 1.398 . S
C590 H578 0.950 . S
C590 C589 1.398 . S
C590 C591 1.391 . S
C591 H579 0.950 . S
C591 C587 1.393 . S
C591 C590 1.391 . S
H592 C600 0.950 . S
H593 C605 0.950 . S
H594 C602 0.950 . S
H595 C604 0.950 . S
H596 C606 0.950 . S
H597 C608 0.950 . S
H598 C610 0.950 . S
H599 C611 0.950 . S
C600 H592 0.950 . S
C600 C601 1.386 . S
C600 C602 1.391 . S
C601 C600 1.386 . S
C601 C605 1.393 . S
C602 H594 0.950 . S
C602 C600 1.391 . S
C602 C603 1.400 . S
C603 C602 1.400 . S
C603 C604 1.398 . S
C603 C609 1.491 . S
C604 H595 0.950 . S
C604 C603 1.398 . S
C604 C605 1.391 . S
C605 H593 0.950 . S
C605 C601 1.393 . S
C605 C604 1.391 . S
C606 H596 0.950 . S
C606 C607 1.386 . S
C606 C608 1.391 . S
C607 C606 1.386 . S
C607 C611 1.393 . S
C608 H597 0.950 . S
C608 C606 1.391 . S
C608 C609 1.400 . S
C609 C603 1.491 . S
C609 C608 1.400 . S
C609 C610 1.398 . S
C610 H598 0.950 . S
C610 C609 1.398 . S
C610 C611 1.391 . S
C611 H599 0.950 . S
C611 C607 1.393 . S
C611 C610 1.391 . S
H612 C620 0.950 . S
H613 C625 0.950 . S
H614 C622 0.950 . S
H615 C624 0.950 . S
H616 C626 0.950 . S
H617 C628 0.950 . S
H618 C630 0.950 . S
H619 C631 0.950 . S
C620 H612 0.950 . S
C620 C621 1.386 . S
C620 C622 1.391 . S
C621 C620 1.386 . S
C621 C625 1.393 . S
C622 H614 0.950 . S
C622 C620 1.391 . S
C622 C623 1.400 . S
C623 C622 1.400 . S
C623 C624 1.398 . S
C623 C629 1.491 . S
C624 H615 0.950 . S
C624 C623 1.398 . S
C624 C625 1.391 . S
C625 H613 0.950 . S
C625 C621 1.393 . S
C625 C624 1.391 . S
C626 H616 0.950 . S
C626 C627 1.386 . S
C626 C628 1.391 . S
C627 C626 1.386 . S
C627 C631 1.393 . S
C628 H617 0.950 . S
C628 C626 1.391 . S
C628 C629 1.400 . S
C629 C623 1.491 . S
C629 C628 1.400 . S
C629 C630 1.398 . S
C630 H618 0.950 . S
C630 C629 1.398 . S
C630 C631 1.391 . S
C631 H619 0.950 . S
C631 C627 1.393 . S
C631 C630 1.391 . S
H632 C640 0.950 . S
H633 C645 0.950 . S
H634 C642 0.950 . S
H635 C644 0.950 . S
H636 C646 0.950 . S
H637 C648 0.950 . S
H638 C650 0.950 . S
H639 C651 0.950 . S
C640 H632 0.950 . S
C640 C641 1.386 . S
C640 C642 1.391 . S
C641 C640 1.386 . S
C641 C645 1.393 . S
C642 H634 0.950 . S
C642 C640 1.391 . S
C642 C643 1.400 . S
C643 C642 1.400 . S
C643 C644 1.398 . S
C643 C649 1.491 . S
C644 H635 0.950 . S
C644 C643 1.398 . S
C644 C645 1.391 . S
C645 H633 0.950 . S
C645 C641 1.393 . S
C645 C644 1.391 . S
C646 H636 0.950 . S
C646 C647 1.386 . S
C646 C648 1.391 . S
C647 C646 1.386 . S
C647 C651 1.393 . S
C648 H637 0.950 . S
C648 C646 1.391 . S
C648 C649 1.400 . S
C649 C643 1.491 . S
C649 C648 1.400 . S
C649 C650 1.398 . S
C650 H638 0.950 . S
C650 C649 1.398 . S
C650 C651 1.391 . S
C651 H639 0.950 . S
C651 C647 1.393 . S
C651 C650 1.391 . S
H652 C660 0.950 . S
H653 C665 0.950 . S
H654 C662 0.950 . S
H655 C664 0.950 . S
H656 C666 0.950 . S
H657 C668 0.950 . S
H658 C670 0.950 . S
H659 C671 0.950 . S
C660 H652 0.950 . S
C660 C661 1.386 . S
C660 C662 1.391 . S
C661 C660 1.386 . S
C661 C665 1.393 . S
C662 H654 0.950 . S
C662 C660 1.391 . S
C662 C663 1.400 . S
C663 C662 1.400 . S
C663 C664 1.398 . S
C663 C669 1.491 . S
C664 H655 0.950 . S
C664 C663 1.398 . S
C664 C665 1.391 . S
C665 H653 0.950 . S
C665 C661 1.393 . S
C665 C664 1.391 . S
C666 H656 0.950 . S
C666 C667 1.386 . S
C666 C668 1.391 . S
C667 C666 1.386 . S
C667 C671 1.393 . S
C668 H657 0.950 . S
C668 C666 1.391 . S
C668 C669 1.400 . S
C669 C663 1.491 . S
C669 C668 1.400 . S
C669 C670 1.398 . S
C670 H658 0.950 . S
C670 C669 1.398 . S
C670 C671 1.391 . S
C671 H659 0.950 . S
C671 C667 1.393 . S
C671 C670 1.391 . S
H672 C680 0.950 . S
H673 C685 0.950 . S
H674 C682 0.926 1_554 S
H675 C684 0.950 . S
H676 C686 0.950 . S
H677 C688 0.950 1_545 S
H678 C690 0.950 . S
H679 C691 0.950 . S
C680 H672 0.950 . S
C680 C681 1.386 . S
C680 C682 1.391 . S
C681 C680 1.386 . S
C681 C685 1.393 . S
C682 H674 0.926 1_556 S
C682 C680 1.391 . S
C682 C683 1.400 . S
C683 C682 1.400 . S
C683 C684 1.398 . S
C683 C689 1.491 . S
C684 H675 0.950 . S
C684 C683 1.398 . S
C684 C685 1.391 . S
C685 H673 0.950 . S
C685 C681 1.393 . S
C685 C684 1.391 . S
C686 H676 0.950 . S
C686 C687 1.386 1_556 S
C686 C688 1.391 . S
C687 C686 1.386 1_554 S
C687 C691 1.393 . S
C688 H677 0.950 1_565 S
C688 C686 1.391 . S
C688 C689 1.400 1_565 S
C689 C683 1.491 . S
C689 C688 1.400 1_545 S
C689 C690 1.398 1_546 S
C690 H678 0.950 . S
C690 C689 1.398 1_564 S
C690 C691 1.391 . S
C691 H679 0.950 . S
C691 C687 1.393 . S
C691 C690 1.391 . S
H692 C700 0.950 . S
H693 C705 0.950 . S
H694 C702 0.950 . S
H695 C704 0.950 . S
H696 C706 0.950 . S
H697 C708 0.950 . S
H698 C710 0.950 . S
H699 C711 0.950 . S
C700 H692 0.950 . S
C700 C701 1.386 . S
C700 C702 1.391 . S
C701 C700 1.386 . S
C701 C705 1.393 . S
C702 H694 0.950 . S
C702 C700 1.391 . S
C702 C703 1.400 . S
C703 C702 1.400 . S
C703 C704 1.398 . S
C703 C709 1.491 . S
C704 H695 0.950 . S
C704 C703 1.398 . S
C704 C705 1.391 . S
C705 H693 0.950 . S
C705 C701 1.393 . S
C705 C704 1.391 . S
C706 H696 0.950 . S
C706 C707 1.386 . S
C706 C708 1.391 . S
C707 C706 1.386 . S
C707 C711 1.393 . S
C708 H697 0.950 . S
C708 C706 1.391 . S
C708 C709 1.400 . S
C709 C703 1.491 . S
C709 C708 1.400 . S
C709 C710 1.398 . S
C710 H698 0.950 . S
C710 C709 1.398 . S
C710 C711 1.391 . S
C711 H699 0.950 . S
C711 C707 1.393 . S
C711 C710 1.391 . S
H712 C720 0.950 . S
H713 C725 0.950 . S
H714 C722 0.950 . S
H715 C724 0.950 . S
H716 C726 0.950 . S
H717 C728 0.950 . S
H718 C730 0.950 . S
H719 C731 0.950 . S
C720 H712 0.950 . S
C720 C721 1.386 1_545 S
C720 C722 1.391 . S
C721 C720 1.386 1_565 S
C721 C725 1.393 . S
C722 H714 0.950 . S
C722 C720 1.391 . S
C722 C723 1.400 . S
C723 C722 1.400 . S
C723 C724 1.398 . S
C723 C729 1.491 . S
C724 H715 0.950 . S
C724 C723 1.398 . S
C724 C725 1.391 1_545 S
C725 H713 0.950 . S
C725 C721 1.393 . S
C725 C724 1.391 1_565 S
C726 H716 0.950 . S
C726 C727 1.386 . S
C726 C728 1.391 . S
C727 C726 1.386 . S
C727 C731 1.393 . S
C728 H717 0.950 . S
C728 C726 1.391 . S
C728 C729 1.400 . S
C729 C723 1.491 . S
C729 C728 1.400 . S
C729 C730 1.398 . S
C730 H718 0.950 . S
C730 C729 1.398 . S
C730 C731 1.391 . S
C731 H719 0.950 . S
C731 C727 1.393 . S
C731 C730 1.391 . S
H732 C740 0.950 . S
H733 C745 0.950 . S
H734 C742 0.950 . S
H735 C744 0.950 . S
H736 C746 0.950 . S
H737 C748 0.950 . S
H738 C750 0.950 . S
H739 C751 0.950 . S
C740 H732 0.950 . S
C740 C741 1.386 . S
C740 C742 1.391 . S
C741 C740 1.386 . S
C741 C745 1.393 . S
C742 H734 0.950 . S
C742 C740 1.391 . S
C742 C743 1.400 . S
C743 C742 1.400 . S
C743 C744 1.398 . S
C743 C749 1.491 . S
C744 H735 0.950 . S
C744 C743 1.398 . S
C744 C745 1.391 . S
C745 H733 0.950 . S
C745 C741 1.393 . S
C745 C744 1.391 . S
C746 H736 0.950 . S
C746 C747 1.386 . S
C746 C748 1.391 . S
C747 C746 1.386 . S
C747 C751 1.393 . S
C748 H737 0.950 . S
C748 C746 1.391 . S
C748 C749 1.400 . S
C749 C743 1.491 . S
C749 C748 1.400 . S
C749 C750 1.398 . S
C750 H738 0.950 . S
C750 C749 1.398 . S
C750 C751 1.391 . S
C751 H739 0.950 . S
C751 C747 1.393 . S
C751 C750 1.391 . S
H752 C760 0.950 . S
H753 C765 0.950 . S
H754 C762 0.950 . S
H755 C764 0.950 . S
H756 C766 0.950 . S
H757 C768 0.950 . S
H758 C770 0.950 . S
H759 C771 0.950 . S
C760 H752 0.950 . S
C760 C761 1.386 . S
C760 C762 1.391 . S
C761 C760 1.386 . S
C761 C765 1.393 . S
C762 H754 0.950 . S
C762 C760 1.391 . S
C762 C763 1.400 1_565 S
C763 C762 1.400 1_545 S
C763 C764 1.398 . S
C763 C769 1.491 . S
C764 H755 0.950 . S
C764 C763 1.398 . S
C764 C765 1.391 1_545 S
C765 H753 0.950 . S
C765 C761 1.393 . S
C765 C764 1.391 1_565 S
C766 H756 0.950 . S
C766 C767 1.386 . S
C766 C768 1.391 . S
C767 C766 1.386 . S
C767 C771 1.393 . S
C768 H757 0.950 . S
C768 C766 1.391 . S
C768 C769 1.400 . S
C769 C763 1.491 . S
C769 C768 1.400 . S
C769 C770 1.398 . S
C770 H758 0.950 . S
C770 C769 1.398 . S
C770 C771 1.391 . S
C771 H759 0.950 . S
C771 C767 1.393 . S
C771 C770 1.391 . S
H772 C780 0.950 . S
H773 C785 0.950 . S
H774 C782 0.950 . S
H775 C784 0.950 . S
H776 C786 0.950 . S
H777 C788 0.950 . S
H778 C790 0.950 . S
H779 C791 0.950 . S
C780 H772 0.950 . S
C780 C781 1.386 . S
C780 C782 1.391 . S
C781 C780 1.386 . S
C781 C785 1.393 . S
C782 H774 0.950 . S
C782 C780 1.391 . S
C782 C783 1.400 . S
C783 C782 1.400 . S
C783 C784 1.398 . S
C783 C789 1.491 . S
C784 H775 0.950 . S
C784 C783 1.398 . S
C784 C785 1.391 . S
C785 H773 0.950 . S
C785 C781 1.393 . S
C785 C784 1.391 . S
C786 H776 0.950 . S
C786 C787 1.386 . S
C786 C788 1.391 . S
C787 C786 1.386 . S
C787 C791 1.393 . S
C788 H777 0.950 . S
C788 C786 1.391 . S
C788 C789 1.400 . S
C789 C783 1.491 . S
C789 C788 1.400 . S
C789 C790 1.398 . S
C790 H778 0.950 . S
C790 C789 1.398 . S
C790 C791 1.391 . S
C791 H779 0.950 . S
C791 C787 1.393 . S
C791 C790 1.391 . S
H792 C800 0.950 . S
H793 C805 0.950 . S
H794 C802 0.950 . S
H795 C804 0.950 . S
H796 C806 0.950 . S
H797 C808 0.950 . S
H798 C810 0.950 . S
H799 C811 0.950 . S
C800 H792 0.950 . S
C800 C801 1.386 . S
C800 C802 1.391 . S
C801 C800 1.386 . S
C801 C805 1.393 . S
C802 H794 0.950 . S
C802 C800 1.391 . S
C802 C803 1.400 . S
C803 C802 1.400 . S
C803 C804 1.398 . S
C803 C809 1.491 . S
C804 H795 0.950 . S
C804 C803 1.398 . S
C804 C805 1.391 . S
C805 H793 0.950 . S
C805 C801 1.393 . S
C805 C804 1.391 . S
C806 H796 0.950 . S
C806 C807 1.386 . S
C806 C808 1.391 . S
C807 C806 1.386 . S
C807 C811 1.393 . S
C808 H797 0.950 . S
C808 C806 1.391 . S
C808 C809 1.400 . S
C809 C803 1.491 . S
C809 C808 1.400 . S
C809 C810 1.398 . S
C810 H798 0.950 . S
C810 C809 1.398 . S
C810 C811 1.391 . S
C811 H799 0.950 . S
C811 C807 1.393 . S
C811 C810 1.391 . S
H812 C820 0.950 . S
H813 C825 0.950 . S
H814 C822 0.950 . S
H815 C824 0.950 . S
H816 C826 0.950 . S
H817 C828 0.950 . S
H818 C830 0.950 . S
H819 C831 0.950 . S
C820 H812 0.950 . S
C820 C821 1.386 . S
C820 C822 1.391 . S
C821 C820 1.386 . S
C821 C825 1.393 . S
C822 H814 0.950 . S
C822 C820 1.391 . S
C822 C823 1.400 . S
C823 C822 1.400 . S
C823 C824 1.398 . S
C823 C829 1.491 . S
C824 H815 0.950 . S
C824 C823 1.398 . S
C824 C825 1.391 . S
C825 H813 0.950 . S
C825 C821 1.393 . S
C825 C824 1.391 . S
C826 H816 0.950 . S
C826 C827 1.386 . S
C826 C828 1.391 . S
C827 C826 1.386 . S
C827 C831 1.393 . S
C828 H817 0.950 . S
C828 C826 1.391 . S
C828 C829 1.400 . S
C829 C823 1.491 . S
C829 C828 1.400 . S
C829 C830 1.398 . S
C830 H818 0.950 . S
C830 C829 1.398 . S
C830 C831 1.391 . S
C831 H819 0.950 . S
C831 C827 1.393 . S
C831 C830 1.391 . S
H832 C840 0.950 . S
H833 C845 0.950 . S
H834 C842 0.950 . S
H835 C844 0.950 . S
H836 C846 0.950 . S
H837 C848 0.950 . S
H838 C850 0.950 . S
H839 C851 0.950 . S
C840 H832 0.950 . S
C840 C841 1.386 . S
C840 C842 1.391 . S
C841 C840 1.386 . S
C841 C845 1.393 . S
C842 H834 0.950 . S
C842 C840 1.391 . S
C842 C843 1.400 . S
C843 C842 1.400 . S
C843 C844 1.398 . S
C843 C849 1.491 . S
C844 H835 0.950 . S
C844 C843 1.398 . S
C844 C845 1.391 . S
C845 H833 0.950 . S
C845 C841 1.393 . S
C845 C844 1.391 . S
C846 H836 0.950 . S
C846 C847 1.386 . S
C846 C848 1.391 . S
C847 C846 1.386 . S
C847 C851 1.393 . S
C848 H837 0.950 . S
C848 C846 1.391 . S
C848 C849 1.400 . S
C849 C843 1.491 . S
C849 C848 1.400 . S
C849 C850 1.398 . S
C850 H838 0.950 . S
C850 C849 1.398 . S
C850 C851 1.391 . S
C851 H839 0.950 . S
C851 C847 1.393 . S
C851 C850 1.391 . S
H852 C860 0.950 . S
H853 C865 0.950 . S
H854 C862 0.950 . S
H855 C864 0.950 . S
H856 C866 0.950 . S
H857 C868 0.950 . S
H858 C870 0.950 . S
H859 C871 0.950 . S
C860 H852 0.950 . S
C860 C861 1.386 . S
C860 C862 1.391 . S
C861 C860 1.386 . S
C861 C865 1.393 . S
C862 H854 0.950 . S
C862 C860 1.391 . S
C862 C863 1.400 . S
C863 C862 1.400 . S
C863 C864 1.398 . S
C863 C869 1.491 . S
C864 H855 0.950 . S
C864 C863 1.398 . S
C864 C865 1.391 . S
C865 H853 0.950 . S
C865 C861 1.393 . S
C865 C864 1.391 . S
C866 H856 0.950 . S
C866 C867 1.386 . S
C866 C868 1.391 . S
C867 C866 1.386 . S
C867 C871 1.393 . S
C868 H857 0.950 . S
C868 C866 1.391 . S
C868 C869 1.400 . S
C869 C863 1.491 . S
C869 C868 1.400 . S
C869 C870 1.398 . S
C870 H858 0.950 . S
C870 C869 1.398 . S
C870 C871 1.391 . S
C871 H859 0.950 . S
C871 C867 1.393 . S
C871 C870 1.391 . S
H872 C880 0.950 . S
H873 C885 0.950 . S
H874 C882 0.950 . S
H875 C884 0.950 . S
H876 C886 0.950 . S
H877 C888 0.950 . S
H878 C890 0.950 . S
H879 C891 0.950 . S
C880 H872 0.950 . S
C880 C881 1.386 . S
C880 C882 1.391 . S
C881 C880 1.386 . S
C881 C885 1.393 . S
C882 H874 0.950 . S
C882 C880 1.391 . S
C882 C883 1.400 . S
C883 C882 1.400 . S
C883 C884 1.398 . S
C883 C889 1.491 . S
C884 H875 0.950 . S
C884 C883 1.398 . S
C884 C885 1.391 . S
C885 H873 0.950 . S
C885 C881 1.393 . S
C885 C884 1.391 . S
C886 H876 0.950 . S
C886 C887 1.386 . S
C886 C888 1.391 . S
C887 C886 1.386 . S
C887 C891 1.393 . S
C888 H877 0.950 . S
C888 C886 1.391 . S
C888 C889 1.400 . S
C889 C883 1.491 . S
C889 C888 1.400 . S
C889 C890 1.398 . S
C890 H878 0.950 . S
C890 C889 1.398 . S
C890 C891 1.391 . S
C891 H879 0.950 . S
C891 C887 1.393 . S
C891 C890 1.391 . S
H892 C900 0.950 . S
H893 C905 0.950 . S
H894 C902 0.950 . S
H895 C904 0.950 . S
H896 C906 0.950 . S
H897 C908 0.950 . S
H898 C910 0.950 . S
H899 C911 0.950 . S
C900 H892 0.950 . S
C900 C901 1.386 . S
C900 C902 1.391 . S
C901 C900 1.386 . S
C901 C905 1.393 . S
C902 H894 0.950 . S
C902 C900 1.391 . S
C902 C903 1.400 . S
C903 C902 1.400 . S
C903 C904 1.398 . S
C903 C909 1.491 . S
C904 H895 0.950 . S
C904 C903 1.398 . S
C904 C905 1.391 . S
C905 H893 0.950 . S
C905 C901 1.393 . S
C905 C904 1.391 . S
C906 H896 0.950 . S
C906 C907 1.386 . S
C906 C908 1.391 1_655 S
C907 C906 1.386 . S
C907 C911 1.393 . S
C908 H897 0.950 . S
C908 C906 1.391 1_455 S
C908 C909 1.400 . S
C909 C903 1.491 . S
C909 C908 1.400 . S
C909 C910 1.398 1_455 S
C910 H898 0.950 . S
C910 C909 1.398 1_655 S
C910 C911 1.391 . S
C911 H899 0.950 . S
C911 C907 1.393 . S
C911 C910 1.391 . S
H912 C920 0.950 . S
H913 C925 0.950 . S
H914 C922 0.950 . S
H915 C924 0.950 . S
H916 C926 0.950 . S
H917 C928 0.950 . S
H918 C930 0.950 . S
H919 C931 0.950 . S
C920 H912 0.950 . S
C920 C921 1.386 . S
C920 C922 1.391 . S
C921 C920 1.386 . S
C921 C925 1.393 . S
C922 H914 0.950 . S
C922 C920 1.391 . S
C922 C923 1.400 . S
C923 C922 1.400 . S
C923 C924 1.398 . S
C923 C929 1.491 . S
C924 H915 0.950 . S
C924 C923 1.398 . S
C924 C925 1.391 . S
C925 H913 0.950 . S
C925 C921 1.393 . S
C925 C924 1.391 . S
C926 H916 0.950 . S
C926 C927 1.386 . S
C926 C928 1.391 . S
C927 C926 1.386 . S
C927 C931 1.393 . S
C928 H917 0.950 . S
C928 C926 1.391 . S
C928 C929 1.400 . S
C929 C923 1.491 . S
C929 C928 1.400 . S
C929 C930 1.398 . S
C930 H918 0.950 . S
C930 C929 1.398 . S
C930 C931 1.391 . S
C931 H919 0.950 . S
C931 C927 1.393 . S
C931 C930 1.391 . S
H932 C940 0.950 . S
H933 C945 0.950 . S
H934 C942 0.950 . S
H935 C944 0.950 . S
H936 C946 0.950 . S
H937 C948 0.921 1_655 S
H938 C950 0.950 . S
H939 C951 0.950 . S
C940 H932 0.950 . S
C940 C941 1.386 . S
C940 C942 1.391 . S
C941 C940 1.386 . S
C941 C945 1.393 . S
C942 H934 0.950 . S
C942 C940 1.391 . S
C942 C943 1.400 . S
C943 C942 1.400 . S
C943 C944 1.398 . S
C943 C949 1.519 . S
C944 H935 0.950 . S
C944 C943 1.398 . S
C944 C945 1.391 . S
C945 H933 0.950 . S
C945 C941 1.393 . S
C945 C944 1.391 . S
C946 H936 0.950 . S
C946 C947 1.386 . S
C946 C948 1.425 . S
C947 C946 1.386 . S
C947 C951 1.393 . S
C948 H937 0.921 1_455 S
C948 C946 1.425 . S
C948 C949 1.394 1_455 S
C949 C943 1.519 . S
C949 C948 1.394 1_655 S
C949 C950 1.373 1_655 S
C950 H938 0.950 . S
C950 C949 1.373 1_455 S
C950 C951 1.391 . S
C951 H939 0.950 . S
C951 C947 1.393 . S
C951 C950 1.391 . S
H952 C960 0.950 . S
H953 C965 0.950 . S
H954 C962 0.950 . S
H955 C964 0.950 . S
H956 C966 0.950 . S
H957 C968 0.950 . S
H958 C970 0.950 . S
H959 C971 0.950 . S
C960 H952 0.950 . S
C960 C961 1.386 . S
C960 C962 1.391 . S
C961 C960 1.386 . S
C961 C965 1.393 . S
C962 H954 0.950 . S
C962 C960 1.391 . S
C962 C963 1.400 . S
C963 C962 1.400 . S
C963 C964 1.398 . S
C963 C969 1.491 . S
C964 H955 0.950 . S
C964 C963 1.398 . S
C964 C965 1.391 . S
C965 H953 0.950 . S
C965 C961 1.393 . S
C965 C964 1.391 . S
C966 H956 0.950 . S
C966 C967 1.386 . S
C966 C968 1.391 . S
C967 C966 1.386 . S
C967 C971 1.393 . S
C968 H957 0.950 . S
C968 C966 1.391 . S
C968 C969 1.400 . S
C969 C963 1.491 . S
C969 C968 1.400 . S
C969 C970 1.398 . S
C970 H958 0.950 . S
C970 C969 1.398 . S
C970 C971 1.391 . S
C971 H959 0.950 . S
C971 C967 1.393 . S
C971 C970 1.391 . S
H972 C980 0.950 . S
H973 C985 0.950 . S
H974 C982 0.950 1_556 S
H975 C984 0.950 . S
H976 C986 0.950 . S
H977 C988 0.950 1_554 S
H978 C990 0.950 . S
H979 C991 0.950 . S
C980 H972 0.950 . S
C980 C981 1.386 . S
C980 C982 1.391 . S
C981 C980 1.386 . S
C981 C985 1.393 . S
C982 H974 0.950 1_554 S
C982 C980 1.391 . S
C982 C983 1.400 . S
C983 C982 1.400 . S
C983 C984 1.398 . S
C983 C989 1.491 1_554 S
C984 H975 0.950 . S
C984 C983 1.398 . S
C984 C985 1.391 . S
C985 H973 0.950 . S
C985 C981 1.393 . S
C985 C984 1.391 . S
C986 H976 0.950 . S
C986 C987 1.386 . S
C986 C988 1.391 . S
C987 C986 1.386 . S
C987 C991 1.393 . S
C988 H977 0.950 1_556 S
C988 C986 1.391 . S
C988 C989 1.400 . S
C989 C983 1.491 1_556 S
C989 C988 1.400 . S
C989 C990 1.398 . S
C990 H978 0.950 . S
C990 C989 1.398 . S
C990 C991 1.391 . S
C991 H979 0.950 . S
C991 C987 1.393 . S
C991 C990 1.391 . S
H992 C1000 0.950 . S
H993 C1005 0.950 . S
H994 C1002 0.950 . S
H995 C1004 0.950 . S
H996 C1006 0.950 . S
H997 C1008 0.950 . S
H998 C1010 0.950 . S
H999 C1011 0.950 . S
C1000 H992 0.950 . S
C1000 C1001 1.386 . S
C1000 C1002 1.391 . S
C1001 C1000 1.386 . S
C1001 C1005 1.393 . S
C1002 H994 0.950 . S
C1002 C1000 1.391 . S
C1002 C1003 1.400 . S
C1003 C1002 1.400 . S
C1003 C1004 1.398 . S
C1003 C1009 1.491 . S
C1004 H995 0.950 . S
C1004 C1003 1.398 . S
C1004 C1005 1.391 . S
C1005 H993 0.950 . S
C1005 C1001 1.393 . S
C1005 C1004 1.391 . S
C1006 H996 0.950 . S
C1006 C1007 1.386 . S
C1006 C1008 1.391 . S
C1007 C1006 1.386 . S
C1007 C1011 1.393 . S
C1008 H997 0.950 . S
C1008 C1006 1.391 . S
C1008 C1009 1.400 . S
C1009 C1003 1.491 . S
C1009 C1008 1.400 . S
C1009 C1010 1.398 . S
C1010 H998 0.950 . S
C1010 C1009 1.398 . S
C1010 C1011 1.391 . S
C1011 H999 0.950 . S
C1011 C1007 1.393 . S
C1011 C1010 1.391 . S
H1012 C1020 0.950 . S
H1013 C1025 0.950 . S
H1014 C1022 0.950 . S
H1015 C1024 0.950 . S
H1016 C1026 0.950 . S
H1017 C1028 0.950 . S
H1018 C1030 0.950 . S
H1019 C1031 0.950 . S
C1020 H1012 0.950 . S
C1020 C1021 1.386 . S
C1020 C1022 1.391 . S
C1021 C1020 1.386 . S
C1021 C1025 1.393 . S
C1022 H1014 0.950 . S
C1022 C1020 1.391 . S
C1022 C1023 1.400 . S
C1023 C1022 1.400 . S
C1023 C1024 1.398 . S
C1023 C1029 1.491 . S
C1024 H1015 0.950 . S
C1024 C1023 1.398 . S
C1024 C1025 1.391 . S
C1025 H1013 0.950 . S
C1025 C1021 1.393 . S
C1025 C1024 1.391 . S
C1026 H1016 0.950 . S
C1026 C1027 1.386 . S
C1026 C1028 1.391 1_556 S
C1027 C1026 1.386 . S
C1027 C1031 1.393 . S
C1028 H1017 0.950 . S
C1028 C1026 1.391 1_554 S
C1028 C1029 1.400 . S
C1029 C1023 1.491 . S
C1029 C1028 1.400 . S
C1029 C1030 1.398 1_554 S
C1030 H1018 0.950 . S
C1030 C1029 1.398 1_556 S
C1030 C1031 1.391 . S
C1031 H1019 0.950 . S
C1031 C1027 1.393 . S
C1031 C1030 1.391 . S
H1032 C1040 0.950 . S
H1033 C1045 0.950 . S
H1034 C1042 0.950 . S
H1035 C1044 0.950 . S
H1036 C1046 0.950 . S
H1037 C1048 0.950 . S
H1038 C1050 0.950 . S
H1039 C1051 0.950 . S
C1040 H1032 0.950 . S
C1040 C1041 1.386 . S
C1040 C1042 1.391 . S
C1041 C1040 1.386 . S
C1041 C1045 1.393 . S
C1042 H1034 0.950 . S
C1042 C1040 1.391 . S
C1042 C1043 1.400 . S
C1043 C1042 1.400 . S
C1043 C1044 1.398 . S
C1043 C1049 1.491 . S
C1044 H1035 0.950 . S
C1044 C1043 1.398 . S
C1044 C1045 1.391 . S
C1045 H1033 0.950 . S
C1045 C1041 1.393 . S
C1045 C1044 1.391 . S
C1046 H1036 0.950 . S
C1046 C1047 1.386 . S
C1046 C1048 1.391 . S
C1047 C1046 1.386 . S
C1047 C1051 1.393 . S
C1048 H1037 0.950 . S
C1048 C1046 1.391 . S
C1048 C1049 1.400 . S
C1049 C1043 1.491 . S
C1049 C1048 1.400 . S
C1049 C1050 1.398 . S
C1050 H1038 0.950 . S
C1050 C1049 1.398 . S
C1050 C1051 1.391 . S
C1051 H1039 0.950 . S
C1051 C1047 1.393 . S
C1051 C1050 1.391 . S
H1052 C1060 0.950 . S
H1053 C1065 0.950 . S
H1054 C1062 0.950 . S
H1055 C1064 0.950 . S
H1056 C1066 0.950 . S
H1057 C1068 0.950 . S
H1058 C1070 0.950 . S
H1059 C1071 0.950 . S
C1060 H1052 0.950 . S
C1060 C1061 1.386 . S
C1060 C1062 1.391 . S
C1061 C1060 1.386 . S
C1061 C1065 1.393 . S
C1062 H1054 0.950 . S
C1062 C1060 1.391 . S
C1062 C1063 1.400 . S
C1063 C1062 1.400 . S
C1063 C1064 1.398 . S
C1063 C1069 1.491 1_556 S
C1064 H1055 0.950 . S
C1064 C1063 1.398 . S
C1064 C1065 1.391 . S
C1065 H1053 0.950 . S
C1065 C1061 1.393 . S
C1065 C1064 1.391 . S
C1066 H1056 0.950 . S
C1066 C1067 1.386 . S
C1066 C1068 1.391 . S
C1067 C1066 1.386 . S
C1067 C1071 1.393 . S
C1068 H1057 0.950 . S
C1068 C1066 1.391 . S
C1068 C1069 1.400 . S
C1069 C1063 1.491 1_554 S
C1069 C1068 1.400 . S
C1069 C1070 1.398 . S
C1070 H1058 0.950 . S
C1070 C1069 1.398 . S
C1070 C1071 1.391 . S
C1071 H1059 0.950 . S
C1071 C1067 1.393 . S
C1071 C1070 1.391 . S
H1072 C1080 0.950 . S
H1073 C1085 0.950 . S
H1074 C1082 0.950 . S
H1075 C1084 0.950 . S
H1076 C1086 0.950 . S
H1077 C1088 0.950 . S
H1078 C1090 0.950 . S
H1079 C1091 0.950 . S
C1080 H1072 0.950 . S
C1080 C1081 1.386 . S
C1080 C1082 1.391 . S
C1081 C1080 1.386 . S
C1081 C1085 1.393 . S
C1082 H1074 0.950 . S
C1082 C1080 1.391 . S
C1082 C1083 1.400 . S
C1083 C1082 1.400 . S
C1083 C1084 1.398 . S
C1083 C1089 1.491 . S
C1084 H1075 0.950 . S
C1084 C1083 1.398 . S
C1084 C1085 1.391 . S
C1085 H1073 0.950 . S
C1085 C1081 1.393 . S
C1085 C1084 1.391 . S
C1086 H1076 0.950 . S
C1086 C1087 1.386 . S
C1086 C1088 1.391 . S
C1087 C1086 1.386 . S
C1087 C1091 1.393 . S
C1088 H1077 0.950 . S
C1088 C1086 1.391 . S
C1088 C1089 1.400 . S
C1089 C1083 1.491 . S
C1089 C1088 1.400 . S
C1089 C1090 1.398 . S
C1090 H1078 0.950 . S
C1090 C1089 1.398 . S
C1090 C1091 1.391 . S
C1091 H1079 0.950 . S
C1091 C1087 1.393 . S
C1091 C1090 1.391 . S
H1092 C1100 0.950 . S
H1093 C1105 0.950 . S
H1094 C1102 0.950 . S
H1095 C1104 0.950 . S
H1096 C1106 0.950 . S
H1097 C1108 0.950 . S
H1098 C1110 0.950 . S
H1099 C1111 0.950 . S
C1100 H1092 0.950 . S
C1100 C1101 1.386 . S
C1100 C1102 1.391 1_556 S
C1101 C1100 1.386 . S
C1101 C1105 1.393 . S
C1102 H1094 0.950 . S
C1102 C1100 1.391 1_554 S
C1102 C1103 1.400 . S
C1103 C1102 1.400 . S
C1103 C1104 1.398 1_554 S
C1103 C1109 1.491 . S
C1104 H1095 0.950 . S
C1104 C1103 1.398 1_556 S
C1104 C1105 1.391 . S
C1105 H1093 0.950 . S
C1105 C1101 1.393 . S
C1105 C1104 1.391 . S
C1106 H1096 0.950 . S
C1106 C1107 1.386 . S
C1106 C1108 1.391 . S
C1107 C1106 1.386 . S
C1107 C1111 1.393 . S
C1108 H1097 0.950 . S
C1108 C1106 1.391 . S
C1108 C1109 1.400 . S
C1109 C1103 1.491 . S
C1109 C1108 1.400 . S
C1109 C1110 1.398 . S
C1110 H1098 0.950 . S
C1110 C1109 1.398 . S
C1110 C1111 1.391 . S
C1111 H1099 0.950 . S
C1111 C1107 1.393 . S
C1111 C1110 1.391 . S
H1112 C1120 0.950 . S
H1113 C1125 0.950 . S
H1114 C1122 0.950 . S
H1115 C1124 0.950 . S
H1116 C1126 0.950 . S
H1117 C1128 0.950 . S
H1118 C1130 0.950 . S
H1119 C1131 0.950 . S
C1120 H1112 0.950 . S
C1120 C1121 1.386 . S
C1120 C1122 1.391 . S
C1121 C1120 1.386 . S
C1121 C1125 1.393 . S
C1122 H1114 0.950 . S
C1122 C1120 1.391 . S
C1122 C1123 1.400 . S
C1123 C1122 1.400 . S
C1123 C1124 1.398 . S
C1123 C1129 1.491 . S
C1124 H1115 0.950 . S
C1124 C1123 1.398 . S
C1124 C1125 1.391 . S
C1125 H1113 0.950 . S
C1125 C1121 1.393 . S
C1125 C1124 1.391 . S
C1126 H1116 0.950 . S
C1126 C1127 1.386 . S
C1126 C1128 1.391 . S
C1127 C1126 1.386 . S
C1127 C1131 1.393 . S
C1128 H1117 0.950 . S
C1128 C1126 1.391 . S
C1128 C1129 1.400 . S
C1129 C1123 1.491 . S
C1129 C1128 1.400 . S
C1129 C1130 1.398 . S
C1130 H1118 0.950 . S
C1130 C1129 1.398 . S
C1130 C1131 1.391 . S
C1131 H1119 0.950 . S
C1131 C1127 1.393 . S
C1131 C1130 1.391 . S
H1132 C1140 0.950 . S
H1133 C1145 0.950 . S
H1134 C1142 0.950 . S
H1135 C1144 0.950 . S
H1136 C1146 0.950 . S
H1137 C1148 0.950 . S
H1138 C1150 0.950 . S
H1139 C1151 0.950 . S
C1140 H1132 0.950 . S
C1140 C1141 1.386 . S
C1140 C1142 1.391 . S
C1141 C1140 1.386 . S
C1141 C1145 1.393 . S
C1142 H1134 0.950 . S
C1142 C1140 1.391 . S
C1142 C1143 1.400 . S
C1143 C1142 1.400 . S
C1143 C1144 1.398 . S
C1143 C1149 1.491 . S
C1144 H1135 0.950 . S
C1144 C1143 1.398 . S
C1144 C1145 1.391 . S
C1145 H1133 0.950 . S
C1145 C1141 1.393 . S
C1145 C1144 1.391 . S
C1146 H1136 0.950 . S
C1146 C1147 1.386 . S
C1146 C1148 1.391 . S
C1147 C1146 1.386 . S
C1147 C1151 1.393 . S
C1148 H1137 0.950 . S
C1148 C1146 1.391 . S
C1148 C1149 1.400 . S
C1149 C1143 1.491 . S
C1149 C1148 1.400 . S
C1149 C1150 1.398 . S
C1150 H1138 0.950 . S
C1150 C1149 1.398 . S
C1150 C1151 1.391 . S
C1151 H1139 0.950 . S
C1151 C1147 1.393 . S
C1151 C1150 1.391 . S
H1152 C1160 0.950 . S
H1153 C1165 0.950 . S
H1154 C1162 0.950 . S
H1155 C1164 0.950 . S
H1156 C1166 0.950 . S
H1157 C1168 0.950 . S
H1158 C1170 0.950 . S
H1159 C1171 0.950 . S
C1160 H1152 0.950 . S
C1160 C1161 1.386 . S
C1160 C1162 1.391 . S
C1161 C1160 1.386 . S
C1161 C1165 1.393 . S
C1162 H1154 0.950 . S
C1162 C1160 1.391 . S
C1162 C1163 1.400 . S
C1163 C1162 1.400 . S
C1163 C1164 1.398 . S
C1163 C1169 1.491 . S
C1164 H1155 0.950 . S
C1164 C1163 1.398 . S
C1164 C1165 1.391 . S
C1165 H1153 0.950 . S
C1165 C1161 1.393 . S
C1165 C1164 1.391 . S
C1166 H1156 0.950 . S
C1166 C1167 1.386 . S
C1166 C1168 1.391 . S
C1167 C1166 1.386 . S
C1167 C1171 1.393 . S
C1168 H1157 0.950 . S
C1168 C1166 1.391 . S
C1168 C1169 1.400 . S
C1169 C1163 1.491 . S
C1169 C1168 1.400 . S
C1169 C1170 1.398 . S
C1170 H1158 0.950 . S
C1170 C1169 1.398 . S
C1170 C1171 1.391 . S
C1171 H1159 0.950 . S
C1171 C1167 1.393 . S
C1171 C1170 1.391 . S
H1172 C1180 0.950 . S
H1173 C1185 0.950 . S
H1174 C1182 0.950 . S
H1175 C1184 0.950 . S
H1176 C1186 0.950 . S
H1177 C1188 0.950 . S
H1178 C1190 0.950 . S
H1179 C1191 0.950 . S
C1180 H1172 0.950 . S
C1180 C1181 1.386 . S
C1180 C1182 1.391 . S
C1181 C1180 1.386 . S
C1181 C1185 1.393 . S
C1182 H1174 0.950 . S
C1182 C1180 1.391 . S
C1182 C1183 1.400 . S
C1183 C1182 1.400 . S
C1183 C1184 1.398 . S
C1183 C1189 1.491 . S
C1184 H1175 0.950 . S
C1184 C1183 1.398 . S
C1184 C1185 1.391 . S
C1185 H1173 0.950 . S
C1185 C1181 1.393 . S
C1185 C1184 1.391 . S
C1186 H1176 0.950 . S
C1186 C1187 1.386 . S
C1186 C1188 1.391 . S
C1187 C1186 1.386 . S
C1187 C1191 1.393 . S
C1188 H1177 0.950 . S
C1188 C1186 1.391 . S
C1188 C1189 1.400 . S
C1189 C1183 1.491 . S
C1189 C1188 1.400 . S
C1189 C1190 1.398 . S
C1190 H1178 0.950 . S
C1190 C1189 1.398 . S
C1190 C1191 1.391 . S
C1191 H1179 0.950 . S
C1191 C1187 1.393 . S
C1191 C1190 1.391 . S
H1192 C1200 0.950 . S
H1193 C1205 0.950 . S
H1194 C1202 0.950 . S
H1195 C1204 0.950 . S
H1196 C1206 0.950 . S
H1197 C1208 0.950 . S
H1198 C1210 0.950 . S
H1199 C1211 0.950 . S
C1200 H1192 0.950 . S
C1200 C1201 1.386 . S
C1200 C1202 1.391 . S
C1201 C1200 1.386 . S
C1201 C1205 1.393 . S
C1202 H1194 0.950 . S
C1202 C1200 1.391 . S
C1202 C1203 1.400 . S
C1203 C1202 1.400 . S
C1203 C1204 1.398 . S
C1203 C1209 1.491 . S
C1204 H1195 0.950 . S
C1204 C1203 1.398 . S
C1204 C1205 1.391 . S
C1205 H1193 0.950 . S
C1205 C1201 1.393 . S
C1205 C1204 1.391 . S
C1206 H1196 0.950 . S
C1206 C1207 1.386 . S
C1206 C1208 1.391 . S
C1207 C1206 1.386 . S
C1207 C1211 1.393 . S
C1208 H1197 0.950 . S
C1208 C1206 1.391 . S
C1208 C1209 1.400 . S
C1209 C1203 1.491 . S
C1209 C1208 1.400 . S
C1209 C1210 1.398 . S
C1210 H1198 0.950 . S
C1210 C1209 1.398 . S
C1210 C1211 1.391 . S
C1211 H1199 0.950 . S
C1211 C1207 1.393 . S
C1211 C1210 1.391 . S
H1212 C1220 0.950 . S
H1213 C1225 0.950 . S
H1214 C1222 0.950 . S
H1215 C1224 0.950 . S
H1216 C1226 0.950 . S
H1217 C1228 0.950 . S
H1218 C1230 0.950 . S
H1219 C1231 0.950 . S
C1220 H1212 0.950 . S
C1220 C1221 1.386 . S
C1220 C1222 1.391 . S
C1221 C1220 1.386 . S
C1221 C1225 1.393 . S
C1222 H1214 0.950 . S
C1222 C1220 1.391 . S
C1222 C1223 1.400 . S
C1223 C1222 1.400 . S
C1223 C1224 1.398 . S
C1223 C1229 1.491 . S
C1224 H1215 0.950 . S
C1224 C1223 1.398 . S
C1224 C1225 1.391 . S
C1225 H1213 0.950 . S
C1225 C1221 1.393 . S
C1225 C1224 1.391 . S
C1226 H1216 0.950 . S
C1226 C1227 1.386 . S
C1226 C1228 1.391 . S
C1227 C1226 1.386 . S
C1227 C1231 1.393 . S
C1228 H1217 0.950 . S
C1228 C1226 1.391 . S
C1228 C1229 1.400 . S
C1229 C1223 1.491 . S
C1229 C1228 1.400 . S
C1229 C1230 1.398 . S
C1230 H1218 0.950 . S
C1230 C1229 1.398 . S
C1230 C1231 1.391 . S
C1231 H1219 0.950 . S
C1231 C1227 1.393 . S
C1231 C1230 1.391 . S
H1232 C1240 0.950 . S
H1233 C1245 0.950 . S
H1234 C1242 0.950 . S
H1235 C1244 0.950 . S
H1236 C1246 0.950 . S
H1237 C1248 0.950 . S
H1238 C1250 0.950 . S
H1239 C1251 0.950 . S
C1240 H1232 0.950 . S
C1240 C1241 1.386 . S
C1240 C1242 1.391 . S
C1241 C1240 1.386 . S
C1241 C1245 1.393 . S
C1242 H1234 0.950 . S
C1242 C1240 1.391 . S
C1242 C1243 1.400 . S
C1243 C1242 1.400 . S
C1243 C1244 1.398 . S
C1243 C1249 1.491 . S
C1244 H1235 0.950 . S
C1244 C1243 1.398 . S
C1244 C1245 1.391 . S
C1245 H1233 0.950 . S
C1245 C1241 1.393 . S
C1245 C1244 1.391 . S
C1246 H1236 0.950 . S
C1246 C1247 1.386 . S
C1246 C1248 1.391 . S
C1247 C1246 1.386 . S
C1247 C1251 1.393 . S
C1248 H1237 0.950 . S
C1248 C1246 1.391 . S
C1248 C1249 1.400 . S
C1249 C1243 1.491 . S
C1249 C1248 1.400 . S
C1249 C1250 1.398 . S
C1250 H1238 0.950 . S
C1250 C1249 1.398 . S
C1250 C1251 1.391 . S
C1251 H1239 0.950 . S
C1251 C1247 1.393 . S
C1251 C1250 1.391 . S
H1252 C1260 0.950 . S
H1253 C1265 0.950 . S
H1254 C1262 0.950 . S
H1255 C1264 0.950 . S
H1256 C1266 0.950 1_565 S
H1257 C1268 0.950 . S
H1258 C1270 0.950 . S
H1259 C1271 0.950 . S
C1260 H1252 0.950 . S
C1260 C1261 1.386 . S
C1260 C1262 1.391 . S
C1261 C1260 1.386 . S
C1261 C1265 1.393 . S
C1262 H1254 0.950 . S
C1262 C1260 1.391 . S
C1262 C1263 1.400 . S
C1263 C1262 1.400 . S
C1263 C1264 1.398 . S
C1263 C1269 1.491 . S
C1264 H1255 0.950 . S
C1264 C1263 1.398 . S
C1264 C1265 1.391 . S
C1265 H1253 0.950 . S
C1265 C1261 1.393 . S
C1265 C1264 1.391 . S
C1266 H1256 0.950 1_545 S
C1266 C1267 1.386 1_545 S
C1266 C1268 1.391 . S
C1267 C1266 1.386 1_565 S
C1267 C1271 1.393 . S
C1268 H1257 0.950 . S
C1268 C1266 1.391 . S
C1268 C1269 1.400 . S
C1269 C1263 1.491 . S
C1269 C1268 1.400 . S
C1269 C1270 1.398 . S
C1270 H1258 0.950 . S
C1270 C1269 1.398 . S
C1270 C1271 1.391 1_545 S
C1271 H1259 0.950 . S
C1271 C1267 1.393 . S
C1271 C1270 1.391 1_565 S
C327 C152 1.586 1_556 S
C321 C50 1.597 . S
C347 C167 1.645 . S
C341 C61 1.674 . S
C361 C67 1.672 . S
C367 C180 1.656 . S
C387 C194 1.481 . S
C381 C41 1.516 . S
C407 C206 1.592 . S
C401 C95 1.661 . S
C427 C220 1.279 . S
C421 C113 1.277 . S
C441 C106 1.707 . S
C447 C234 1.659 . S
C467 C249 1.415 . S
C461 C86 1.434 . S
C481 C104 1.626 . S
C487 C265 1.611 . S
C507 C278 1.470 . S
C501 C88 1.473 . S
C521 C94 1.586 . S
C527 C263 1.540 . S
C547 C276 1.416 . S
C541 C112 1.405 . S
C561 C70 1.775 . S
C567 C292 1.763 . S
C581 C40 1.496 . S
C587 C291 1.478 . S
C601 C49 1.701 . S
C607 C290 1.636 . S
C621 C59 1.593 . S
C627 C293 1.571 . S
C641 C34 1.643 . S
C647 C195 1.636 1_565 S
C661 C133 1.497 . S
C667 C193 1.476 . S
C687 C153 1.503 . S
C681 C139 1.522 . S
C707 C164 1.686 . S
C701 C77 1.721 . S
C721 C43 1.548 . S
C727 C209 1.538 . S
C747 C250 1.816 . S
C741 C103 1.827 . S
C767 C207 1.437 . S
C761 C85 1.459 . S
C787 C235 1.393 . S
C781 C115 1.411 . S
C807 C236 1.589 . S
C801 C131 1.592 . S
C821 C142 1.670 . S
C827 C251 1.636 . S
C841 C76 1.671 . S
C847 C208 1.662 . S
C867 C222 1.484 . S
C861 C122 1.512 . S
C881 C32 1.665 . S
C887 C178 1.614 . S
C907 C192 1.280 . S
C901 C5 1.285 . S
C927 C150 1.661 . S
C921 C16 1.705 . S
C947 C165 1.427 . S
C941 C23 1.442 . S
C961 C14 1.626 . S
C967 C279 1.618 . S
C981 C25 1.465 . S
C987 C264 1.463 . S
C1001 C31 1.585 . S
C1007 C277 1.533 . S
C1021 C4 1.405 . S
C1027 C262 1.419 . S
C1047 C306 1.768 . S
C1041 C79 1.775 . S
C1067 C305 1.479 . S
C1061 C121 1.496 . S
C1087 C304 1.638 . S
C1081 C130 1.701 . S
C1101 C140 1.585 . S
C1107 C307 1.563 . S
C1121 C97 1.644 . S
C1127 C223 1.635 . S
C1147 C221 1.478 . S
C1141 C52 1.497 . S
C1167 C237 1.504 . S
C1161 C58 1.522 . S
C1187 C248 1.690 . S
C1181 C68 1.721 . S
C1201 C124 1.547 . S
C1207 C181 1.525 . S
C1227 C166 1.821 . S
C1221 C13 1.826 . S
C1241 C22 1.460 . S
C1247 C179 1.445 . S
C1267 C151 1.400 . S
C1261 C7 1.408 . S
