# Generated by pormake.
# Topology zzz, (3,6)-cn, num edge types: 1
# Building blocks:
#     Node 0, Type 0, BuildingBlock: ESEHIV_clean_linker_0, # of connection points: 3
#     Node 1, Type 0, BuildingBlock: ESEHIV_clean_linker_0, # of connection points: 3
#     Node 2, Type 0, BuildingBlock: ESEHIV_clean_linker_0, # of connection points: 3
#     Node 3, Type 0, BuildingBlock: ESEHIV_clean_linker_0, # of connection points: 3
#     Node 4, Type 0, BuildingBlock: ESEHIV_clean_linker_0, # of connection points: 3
#     Node 5, Type 0, BuildingBlock: ESEHIV_clean_linker_0, # of connection points: 3
#     Node 6, Type 0, BuildingBlock: ESEHIV_clean_linker_0, # of connection points: 3
#     Node 7, Type 0, BuildingBlock: ESEHIV_clean_linker_0, # of connection points: 3
#     Node 8, Type 1, BuildingBlock: JUFBIX_clean_sbu_0, # of connection points: 6
#     Node 9, Type 1, BuildingBlock: JUFBIX_clean_sbu_0, # of connection points: 6
#     Node 10, Type 1, BuildingBlock: JUFBIX_clean_sbu_0, # of connection points: 6
#     Node 11, Type 1, BuildingBlock: JUFBIX_clean_sbu_0, # of connection points: 6
#     Edge 12, Type (0, 1), BuildingBlock: ZUJKAS_clean_linker_0, # of connection points: 2
#     Edge 13, Type (0, 1), BuildingBlock: ZUJKAS_clean_linker_0, # of connection points: 2
#     Edge 14, Type (0, 1), BuildingBlock: ZUJKAS_clean_linker_0, # of connection points: 2
#     Edge 15, Type (0, 1), BuildingBlock: ZUJKAS_clean_linker_0, # of connection points: 2
#     Edge 16, Type (0, 1), BuildingBlock: ZUJKAS_clean_linker_0, # of connection points: 2
#     Edge 17, Type (0, 1), BuildingBlock: ZUJKAS_clean_linker_0, # of connection points: 2
#     Edge 18, Type (0, 1), BuildingBlock: ZUJKAS_clean_linker_0, # of connection points: 2
#     Edge 19, Type (0, 1), BuildingBlock: ZUJKAS_clean_linker_0, # of connection points: 2
#     Edge 20, Type (0, 1), BuildingBlock: ZUJKAS_clean_linker_0, # of connection points: 2
#     Edge 21, Type (0, 1), BuildingBlock: ZUJKAS_clean_linker_0, # of connection points: 2
#     Edge 22, Type (0, 1), BuildingBlock: ZUJKAS_clean_linker_0, # of connection points: 2
#     Edge 23, Type (0, 1), BuildingBlock: ZUJKAS_clean_linker_0, # of connection points: 2
#     Edge 24, Type (0, 1), BuildingBlock: ZUJKAS_clean_linker_0, # of connection points: 2
#     Edge 25, Type (0, 1), BuildingBlock: ZUJKAS_clean_linker_0, # of connection points: 2
#     Edge 26, Type (0, 1), BuildingBlock: ZUJKAS_clean_linker_0, # of connection points: 2
#     Edge 27, Type (0, 1), BuildingBlock: ZUJKAS_clean_linker_0, # of connection points: 2
#     Edge 28, Type (0, 1), BuildingBlock: ZUJKAS_clean_linker_0, # of connection points: 2
#     Edge 29, Type (0, 1), BuildingBlock: ZUJKAS_clean_linker_0, # of connection points: 2
#     Edge 30, Type (0, 1), BuildingBlock: ZUJKAS_clean_linker_0, # of connection points: 2
#     Edge 31, Type (0, 1), BuildingBlock: ZUJKAS_clean_linker_0, # of connection points: 2
#     Edge 32, Type (0, 1), BuildingBlock: ZUJKAS_clean_linker_0, # of connection points: 2
#     Edge 33, Type (0, 1), BuildingBlock: ZUJKAS_clean_linker_0, # of connection points: 2
#     Edge 34, Type (0, 1), BuildingBlock: ZUJKAS_clean_linker_0, # of connection points: 2
#     Edge 35, Type (0, 1), BuildingBlock: ZUJKAS_clean_linker_0, # of connection points: 2
# Relax obj value: 0.290
# Max RMSD: 0.223
# Mean RMSD: 0.188
data_MOF--net-zzz--node1-JUFBIX_clean_sbu_0--node2-ESEHIV_clean_linker_0--edge1-ZUJKAS_clean_linker_0
_symmetry_space_group_name_H-M    P1
_symmetry_Int_Tables_number       1
_symmetry_cell_setting            triclinic
loop_
_symmetry_equiv_pos_as_xyz
'x, y, z'
_cell_length_a     58.346025
_cell_length_b     60.007486
_cell_length_c     23.096968
_cell_angle_alpha  82.85702
_cell_angle_beta   90.135583
_cell_angle_gamma 86.582431
loop_
_atom_site_label
_atom_site_type_symbol
_atom_site_fract_x
_atom_site_fract_y
_atom_site_fract_z
_atom_type_partial_charge
H0 H 0.81691 0.54944 0.29768 0.0
H1 H 0.76518 0.53668 0.17569 0.0
H2 H 0.74571 0.56456 0.33316 0.0
C3 C 0.79901 0.5501 0.28433 0.0
C4 C 0.78212 0.55817 0.32078 0.0
C5 C 0.79309 0.54217 0.23221 0.0
C6 C 0.76987 0.54238 0.21663 0.0
C7 C 0.75263 0.55052 0.25245 0.0
C8 C 0.75883 0.55848 0.30485 0.0
H9 H 0.03036 0.80877 0.26296 0.0
H10 H 0.03205 0.75766 0.1489 0.0
H11 H 0.99971 0.74599 0.31681 0.0
C12 C 0.02679 0.79186 0.25513 0.0
C13 C 0.01505 0.7781 0.29745 0.0
C14 C 0.0328 0.78471 0.20153 0.0
C15 C 0.02741 0.76324 0.19045 0.0
C16 C 0.01563 0.74906 0.23168 0.0
C17 C 0.00899 0.75672 0.285 0.0
H18 H 0.71082 0.97823 0.26343 0.0
H19 H 0.76025 0.98712 0.12677 0.0
H20 H 0.78292 0.9702 0.30577 0.0
C21 C 0.72855 0.97838 0.24942 0.0
C22 C 0.74618 0.97364 0.2912 0.0
C23 C 0.73346 0.98332 0.19017 0.0
C24 C 0.7564 0.98321 0.17268 0.0
C25 C 0.77445 0.97865 0.21378 0.0
C26 C 0.76925 0.97351 0.27345 0.0
H27 H 0.48605 0.69701 0.24016 0.0
H28 H 0.50456 0.76361 0.26233 0.0
H29 H 0.47841 0.74986 0.09649 0.0
C30 C 0.48691 0.71453 0.22236 0.0
C31 C 0.48108 0.72149 0.1637 0.0
C32 C 0.49501 0.72958 0.25823 0.0
C33 C 0.49772 0.75209 0.23507 0.0
C34 C 0.49204 0.75942 0.17605 0.0
C35 C 0.48336 0.74409 0.14134 0.0
H36 H 0.18655 0.47443 0.23557 0.0
H37 H 0.24076 0.49092 0.34595 0.0
H38 H 0.2569 0.45907 0.19252 0.0
C39 C 0.20469 0.47478 0.2456 0.0
C40 C 0.22083 0.46601 0.20826 0.0
C41 C 0.21162 0.48396 0.29519 0.0
C42 C 0.23515 0.48394 0.30758 0.0
C43 C 0.25161 0.47478 0.27137 0.0
C44 C 0.24438 0.46588 0.22122 0.0
H45 H 0.97374 0.21291 0.26079 0.0
H46 H 0.96989 0.26295 0.37826 0.0
H47 H 0.99303 0.28013 0.20209 0.0
C48 C 0.97571 0.23009 0.26912 0.0
C49 C 0.98355 0.24574 0.22441 0.0
C50 C 0.97101 0.23601 0.32479 0.0
C51 C 0.97323 0.25827 0.33506 0.0
C52 C 0.98096 0.27437 0.29117 0.0
C53 C 0.9867 0.26793 0.23593 0.0
H54 H 0.28669 0.0429 0.29339 0.0
H55 H 0.23283 0.05082 0.41632 0.0
H56 H 0.21631 0.05068 0.2341 0.0
C57 C 0.26856 0.04549 0.30258 0.0
C58 C 0.25246 0.04676 0.25697 0.0
C59 C 0.26165 0.04691 0.35994 0.0
C60 C 0.23827 0.05 0.37172 0.0
C61 C 0.22178 0.05152 0.3267 0.0
C62 C 0.22891 0.04985 0.26897 0.0
H63 H 0.50593 0.32999 0.28973 0.0
H64 H 0.48866 0.26273 0.26946 0.0
H65 H 0.51475 0.27806 0.43443 0.0
C66 C 0.50466 0.31256 0.308 0.0
C67 C 0.51107 0.30587 0.36617 0.0
C68 C 0.49634 0.29733 0.27297 0.0
C69 C 0.49534 0.27455 0.29608 0.0
C70 C 0.50182 0.26744 0.35487 0.0
C71 C 0.50988 0.28326 0.38922 0.0
Co72 Co 0.00819 0.02052 0.80259 0.0
C73 C 0.9693 0.99892 0.84623 0.0
Co74 Co 0.9914 1.00047 0.74106 0.0
C75 C 0.01932 0.05991 0.85834 0.0
C76 C 0.03021 0.02882 0.9092 0.0
N77 N 0.0207 0.03731 0.85718 0.0
N78 N 0.02721 0.0657 0.90922 0.0
C79 C 0.03424 0.04612 0.94099 0.0
H80 H 0.01146 0.07185 0.82402 0.0
H81 H 0.03301 0.0111 0.9246 0.0
C82 C 0.03037 0.02203 0.69751 0.0
N83 N 0.9789 0.98375 0.68597 0.0
C84 C 0.98085 0.96126 0.6829 0.0
C85 C 0.96902 0.99257 0.63458 0.0
N86 N 0.97296 0.95594 0.63151 0.0
C87 C 0.96536 0.97564 0.60135 0.0
C88 C 0.97472 0.045 0.73163 0.0
O89 O 0.03087 0.02952 0.74675 0.0
O90 O 0.0148 0.00903 0.68716 0.0
O91 O 0.97297 0.02659 0.71064 0.0
O92 O 0.98883 0.04576 0.77309 0.0
O93 O 0.96808 0.99226 0.79605 0.0
H94 H 0.96581 0.01031 0.62025 0.0
H95 H 0.98921 0.94912 0.71595 0.0
O96 O 0.98543 0.01115 0.85739 0.0
O97 O 0.02737 0.99484 0.83114 0.0
O98 O 0.01013 0.9749 0.77273 0.0
C99 C 0.02501 0.9761 0.8123 0.0
H100 H 0.04118 0.04431 0.98494 0.0
H101 H 0.95842 0.97778 0.55736 0.0
Co102 Co 0.49019 0.0216 0.79741 0.0
C103 C 0.49756 0.9752 0.82756 0.0
Co104 Co 0.50858 0.0043 0.72992 0.0
C105 C 0.45181 0.03161 0.86979 0.0
C106 C 0.47936 0.05261 0.88177 0.0
N107 N 0.4735 0.03557 0.85281 0.0
N108 N 0.44381 0.0456 0.90745 0.0
C109 C 0.46116 0.05874 0.91567 0.0
H110 H 0.44192 0.01878 0.85451 0.0
H111 H 0.49557 0.06049 0.87735 0.0
C112 C 0.50121 0.05068 0.69965 0.0
N113 N 0.52509 0.99046 0.67294 0.0
C114 C 0.54783 0.98439 0.67189 0.0
C115 C 0.51714 0.98672 0.62027 0.0
N116 N 0.55432 0.97739 0.62065 0.0
C117 C 0.53494 0.97869 0.58832 0.0
C118 C 0.46162 0.007 0.715 0.0
O119 O 0.49187 0.04982 0.7496 0.0
O120 O 0.50975 0.03261 0.68271 0.0
O121 O 0.48013 0.99959 0.69348 0.0
O122 O 0.46257 0.01705 0.75988 0.0
O123 O 0.50721 0.97612 0.77792 0.0
H124 H 0.49968 0.99038 0.60465 0.0
H125 H 0.55969 0.98608 0.70682 0.0
O126 O 0.48874 0.99323 0.84428 0.0
O127 O 0.51807 0.02601 0.83474 0.0
O128 O 0.53644 0.00933 0.76782 0.0
C129 C 0.53684 0.01895 0.81378 0.0
H130 H 0.46043 0.07233 0.94248 0.0
H131 H 0.53372 0.97464 0.54409 0.0
Co132 Co 0.51889 0.51153 0.78232 0.0
C133 C 0.4934 0.47574 0.83024 0.0
Co134 Co 0.48379 0.51172 0.74543 0.0
C135 C 0.55698 0.52496 0.84865 0.0
C136 C 0.56425 0.4934 0.81639 0.0
N137 N 0.54806 0.51044 0.81563 0.0
N138 N 0.57803 0.51759 0.87003 0.0
C139 C 0.58267 0.49778 0.84946 0.0
H140 H 0.54804 0.54043 0.85785 0.0
H141 H 0.56246 0.47827 0.79621 0.0
C142 C 0.50922 0.54744 0.6969 0.0
N143 N 0.45464 0.51284 0.71203 0.0
C144 C 0.44574 0.49838 0.67879 0.0
C145 C 0.43851 0.52995 0.71103 0.0
N146 N 0.42479 0.50587 0.65696 0.0
C147 C 0.42017 0.52569 0.67753 0.0
C148 C 0.48625 0.53566 0.8401 0.0
O149 O 0.52497 0.53845 0.7321 0.0
O150 O 0.49018 0.53822 0.69588 0.0
O151 O 0.47251 0.52974 0.80292 0.0
O152 O 0.5073 0.52913 0.83919 0.0
O153 O 0.4777 0.48488 0.79517 0.0
H154 H 0.44032 0.54508 0.73122 0.0
H155 H 0.45466 0.48289 0.66968 0.0
O156 O 0.51246 0.48491 0.83194 0.0
O157 O 0.53017 0.49362 0.72486 0.0
O158 O 0.49541 0.49397 0.68875 0.0
C159 C 0.51649 0.48745 0.68797 0.0
H160 H 0.59782 0.48667 0.85991 0.0
H161 H 0.40513 0.5369 0.66674 0.0
Co162 Co 0.00332 0.52817 0.77665 0.0
C163 C 0.03655 0.49593 0.82489 0.0
Co164 Co 0.99866 0.49374 0.75377 0.0
C165 C 0.99679 0.56728 0.84097 0.0
C166 C 0.02449 0.57038 0.78071 0.0
N167 N 0.00763 0.5568 0.799 0.0
N168 N 0.00629 0.58667 0.84957 0.0
C169 C 0.02366 0.58864 0.81131 0.0
H170 H 0.98248 0.56063 0.86572 0.0
H171 H 0.03736 0.56689 0.74897 0.0
C172 C 0.96546 0.52605 0.70559 0.0
N173 N 0.99503 0.46519 0.73236 0.0
C174 C 0.99364 0.459 0.67811 0.0
C175 C 0.99483 0.44579 0.76857 0.0
N176 N 0.99266 0.43646 0.67902 0.0
C177 C 0.99336 0.42819 0.7361 0.0
C178 C 0.97567 0.50242 0.85335 0.0
O179 O 0.97661 0.53944 0.73208 0.0
O180 O 0.97248 0.50542 0.70884 0.0
O181 O 0.97951 0.48745 0.8196 0.0
O182 O 0.98479 0.52117 0.84259 0.0
O183 O 0.02519 0.48248 0.79934 0.0
H184 H 0.9963 0.44447 0.81559 0.0
H185 H 0.99356 0.47084 0.63874 0.0
O186 O 0.02972 0.5166 0.82066 0.0
O187 O 0.02205 0.53436 0.70971 0.0
O188 O 0.01756 0.50027 0.68854 0.0
C189 C 0.02629 0.51915 0.67692 0.0
H190 H 0.03573 0.60174 0.8076 0.0
H191 H 0.99361 0.41057 0.7534 0.0
H192 H 0.19995 0.08416 0.38117 0.0
H193 H 0.1632 0.0817 0.43205 0.0
H194 H 0.15242 0.01945 0.36376 0.0
H195 H 0.18919 0.02196 0.31223 0.0
H196 H 0.11286 0.07049 0.39219 0.0
H197 H 0.16214 0.0091 0.55421 0.0
H198 H 0.17613 0.02975 0.50515 0.0
H199 H 0.16478 0.00593 0.4779 0.0
C200 C 0.1893 0.07041 0.3753 0.0
C201 C 0.19728 0.05326 0.3428 0.0
C202 C 0.16838 0.06901 0.40439 0.0
C203 C 0.15525 0.05034 0.40185 0.0
C204 C 0.16235 0.03401 0.36599 0.0
H205 H 0.03033 0.01357 0.58406 0.0
H206 H 0.05972 0.02184 0.51059 0.0
C207 C 0.18322 0.03552 0.33636 0.0
C208 C 0.13608 0.04648 0.44296 0.0
H209 H 0.1234 0.01759 0.57468 0.0
C210 C 0.11503 0.05883 0.4319 0.0
C211 C 0.13921 0.03153 0.49509 0.0
C212 C 0.16177 0.01832 0.50939 0.0
C213 C 0.09687 0.05643 0.47174 0.0
C214 C 0.09998 0.04134 0.5237 0.0
C215 C 0.12111 0.02913 0.53478 0.0
C216 C 0.0815 0.03773 0.56713 0.0
C217 C 0.07463 0.0703 0.45868 0.0
C218 C 0.0841 0.0438 0.62345 0.0
C219 C 0.06729 0.03914 0.66568 0.0
C220 C 0.04776 0.02802 0.65247 0.0
C221 C 0.04518 0.02212 0.59577 0.0
C222 C 0.06188 0.02696 0.55354 0.0
H223 H 0.07648 0.08424 0.42287 0.0
H224 H 0.06141 0.05936 0.44532 0.0
H225 H 0.06835 0.07749 0.49818 0.0
H226 H 0.09923 0.05201 0.63483 0.0
H227 H 0.06982 0.04386 0.7089 0.0
H228 H 0.51543 0.22793 0.31249 0.0
H229 H 0.51403 0.18944 0.36312 0.0
H230 H 0.48172 0.21572 0.51023 0.0
H231 H 0.48271 0.25387 0.45987 0.0
H232 H 0.53497 0.17306 0.4721 0.0
H233 H 0.44093 0.16505 0.48139 0.0
H234 H 0.45396 0.18635 0.43217 0.0
H235 H 0.44974 0.19019 0.50751 0.0
C236 C 0.50767 0.2254 0.35518 0.0
C237 C 0.49929 0.24393 0.38229 0.0
C238 C 0.50699 0.20345 0.38417 0.0
C239 C 0.49756 0.19967 0.44026 0.0
C240 C 0.48873 0.21814 0.46667 0.0
H241 H 0.48452 0.09247 0.72158 0.0
H242 H 0.48436 0.12789 0.65625 0.0
C243 C 0.48952 0.23998 0.438 0.0
C244 C 0.49806 0.17669 0.47312 0.0
H245 H 0.46389 0.1385 0.54628 0.0
C246 C 0.51943 0.16533 0.48767 0.0
C247 C 0.47778 0.16669 0.49369 0.0
C248 C 0.45429 0.17759 0.47747 0.0
C249 C 0.5211 0.14467 0.52409 0.0
C250 C 0.50082 0.13491 0.5457 0.0
C251 C 0.47944 0.14604 0.53004 0.0
C252 C 0.50138 0.11336 0.58543 0.0
C253 C 0.54461 0.13393 0.54093 0.0
C254 C 0.51087 0.09335 0.56728 0.0
C255 C 0.51106 0.07308 0.60461 0.0
C256 C 0.5016 0.07234 0.6608 0.0
C257 C 0.49202 0.09241 0.67875 0.0
C258 C 0.49187 0.11268 0.64138 0.0
H259 H 0.55821 0.1461 0.53288 0.0
H260 H 0.54525 0.12682 0.58769 0.0
H261 H 0.54855 0.11999 0.51446 0.0
H262 H 0.51789 0.09334 0.52392 0.0
H263 H 0.51843 0.05794 0.58912 0.0
H264 H 0.28221 0.43818 0.28802 0.0
H265 H 0.3192 0.43591 0.34038 0.0
H266 H 0.31226 0.50738 0.34916 0.0
H267 H 0.27573 0.50973 0.29631 0.0
H268 H 0.35791 0.4912 0.33371 0.0
H269 H 0.31456 0.44091 0.51626 0.0
H270 H 0.31592 0.42985 0.44741 0.0
H271 H 0.29884 0.4553 0.4539 0.0
C272 C 0.28904 0.45347 0.29943 0.0
C273 C 0.2761 0.47409 0.28878 0.0
C274 C 0.31001 0.45213 0.32979 0.0
C275 C 0.3182 0.47141 0.34972 0.0
C276 C 0.30622 0.49228 0.33445 0.0
H277 H 0.37867 0.51034 0.64405 0.0
H278 H 0.35579 0.49771 0.56715 0.0
C279 C 0.28534 0.49361 0.30436 0.0
C280 C 0.33753 0.46992 0.39211 0.0
H281 H 0.3502 0.45414 0.5364 0.0
C282 C 0.35656 0.48269 0.37771 0.0
C283 C 0.33551 0.45897 0.44967 0.0
C284 C 0.31509 0.44558 0.46821 0.0
C285 C 0.37301 0.48578 0.42007 0.0
C286 C 0.37044 0.4756 0.47813 0.0
C287 C 0.35212 0.46183 0.49176 0.0
C288 C 0.38461 0.48152 0.52671 0.0
C289 C 0.39214 0.50111 0.40333 0.0
C290 C 0.40835 0.47616 0.53029 0.0
C291 C 0.42154 0.48349 0.57425 0.0
C292 C 0.41115 0.49631 0.61523 0.0
C293 C 0.38723 0.50084 0.61264 0.0
C294 C 0.37412 0.4935 0.56894 0.0
H295 H 0.38979 0.51017 0.35855 0.0
H296 H 0.39322 0.5137 0.43449 0.0
H297 H 0.40874 0.49101 0.40512 0.0
H298 H 0.41673 0.46666 0.49857 0.0
H299 H 0.43992 0.4798 0.57482 0.0
H300 H 0.94766 0.30239 0.32861 0.0
H301 H 0.95285 0.33564 0.37725 0.0
H302 H 0.02529 0.33106 0.34029 0.0
H303 H 0.02006 0.29743 0.29169 0.0
H304 H 0.01673 0.33154 0.4562 0.0
H305 H 0.96466 0.4013 0.33134 0.0
H306 H 0.94862 0.37674 0.34755 0.0
H307 H 0.97333 0.37576 0.30114 0.0
C308 C 0.96455 0.30898 0.32904 0.0
C309 C 0.98343 0.29748 0.30604 0.0
C310 C 0.96751 0.32804 0.35673 0.0
C311 C 0.98943 0.33607 0.36205 0.0
C312 C 0.00818 0.3253 0.33632 0.0
H313 H 0.00722 0.44879 0.56797 0.0
H314 H 0.0082 0.42594 0.48701 0.0
C315 C 0.00518 0.30622 0.30816 0.0
C316 C 0.99296 0.35356 0.40119 0.0
H317 H 0.97194 0.40507 0.43287 0.0
C318 C 0.00726 0.34779 0.45043 0.0
C319 C 0.98076 0.37487 0.39372 0.0
C320 C 0.96617 0.38264 0.34022 0.0
C321 C 0.0087 0.36214 0.4938 0.0
C322 C 0.99526 0.38273 0.48832 0.0
C323 C 0.98198 0.38913 0.43753 0.0
C324 C 0.99389 0.39712 0.5364 0.0
C325 C 0.02434 0.35494 0.54574 0.0
C326 C 0.98497 0.38876 0.59062 0.0
C327 C 0.9842 0.4018 0.63678 0.0
C328 C 0.99232 0.42359 0.62996 0.0
C329 C 0.00068 0.43219 0.57495 0.0
C330 C 0.00137 0.41909 0.52859 0.0
H331 H 0.038 0.3423 0.53584 0.0
H332 H 0.03254 0.36957 0.56016 0.0
H333 H 0.01411 0.34715 0.58247 0.0
H334 H 0.9786 0.37205 0.59729 0.0
H335 H 0.97717 0.39474 0.67785 0.0
H336 H 0.79123 0.01209 0.13882 0.0
H337 H 0.828 0.01195 0.08948 0.0
H338 H 0.84933 0.94912 0.19251 0.0
H339 H 0.8117 0.94867 0.2405 0.0
H340 H 0.87122 0.01226 0.12201 0.0
H341 H 0.85799 0.93268 0.0296 0.0
H342 H 0.8356 0.94703 0.06697 0.0
H343 H 0.85822 0.9304 0.10786 0.0
C344 C 0.80375 0.99823 0.15114 0.0
C345 C 0.79841 0.98014 0.19264 0.0
C346 C 0.82485 0.99823 0.12308 0.0
C347 C 0.84127 0.98026 0.13611 0.0
C348 C 0.83668 0.96287 0.18053 0.0
H349 H 0.9742 0.99811 0.96369 0.0
H350 H 0.94514 0.99096 0.03854 0.0
C351 C 0.81533 0.96277 0.20851 0.0
C352 C 0.86261 0.9798 0.10102 0.0
H353 H 0.8915 0.95103 0.00215 0.0
C354 C 0.87579 0.99876 0.09621 0.0
C355 C 0.86836 0.96234 0.06665 0.0
C356 C 0.85424 0.94203 0.06743 0.0
C357 C 0.89399 1.00116 0.05672 0.0
C358 C 0.89982 0.98366 0.0225 0.0
C359 C 0.8871 0.96437 0.02855 0.0
C360 C 0.91822 0.98565 0.97797 0.0
C361 C 0.90591 0.02298 0.04998 0.0
C362 C 0.91321 0.98374 0.91925 0.0
C363 C 0.93001 0.98728 0.87641 0.0
C364 C 0.95203 0.99304 0.89151 0.0
C365 C 0.95725 0.99409 0.95056 0.0
C366 C 0.94061 0.99013 0.9934 0.0
H367 H 0.8953 0.03674 0.06675 0.0
H368 H 0.92224 0.02063 0.07532 0.0
H369 H 0.90992 0.02839 0.00357 0.0
H370 H 0.8961 0.98014 0.90628 0.0
H371 H 0.92551 0.9863 0.8313 0.0
H372 H 0.51295 0.77202 0.0731 0.0
H373 H 0.51449 0.80984 0.02079 0.0
H374 H 0.4802 0.8375 0.1634 0.0
H375 H 0.47874 0.79943 0.2164 0.0
H376 H 0.47626 0.83761 0.98552 0.0
H377 H 0.53273 0.87941 0.12758 0.0
H378 H 0.53129 0.84922 0.13412 0.0
H379 H 0.50885 0.86619 0.16344 0.0
C380 C 0.50596 0.78618 0.09367 0.0
C381 C 0.49557 0.78275 0.14871 0.0
C382 C 0.50687 0.80779 0.06373 0.0
C383 C 0.49753 0.82655 0.0881 0.0
C384 C 0.48786 0.82333 0.14405 0.0
H385 H 0.47928 0.9677 0.93695 0.0
H386 H 0.47859 0.93198 1.00076 0.0
C387 C 0.48701 0.80159 0.1743 0.0
C388 C 0.49657 0.84908 0.05268 0.0
H389 H 0.51544 0.90218 0.0462 0.0
C390 C 0.48485 0.85172 0.99882 0.0
C391 C 0.50763 0.86753 0.07019 0.0
C392 C 0.52101 0.86552 0.12675 0.0
C393 C 0.48395 0.87222 0.96195 0.0
C394 C 0.49541 0.89054 0.97883 0.0
C395 C 0.50675 0.88809 0.0332 0.0
C396 C 0.49605 0.91225 0.94013 0.0
C397 C 0.47049 0.87414 0.90548 0.0
C398 C 0.50631 0.91309 0.88501 0.0
C399 C 0.50672 0.93347 0.84833 0.0
C400 C 0.49694 0.95349 0.86612 0.0
C401 C 0.48688 0.95261 0.92167 0.0
C402 C 0.48652 0.93222 0.95834 0.0
H403 H 0.45784 0.86097 0.90634 0.0
H404 H 0.46121 0.89091 0.89619 0.0
H405 H 0.4825 0.872 0.86913 0.0
H406 H 0.51415 0.89797 0.87045 0.0
H407 H 0.51476 0.93353 0.8061 0.0
H408 H 0.73033 0.51551 0.22085 0.0
H409 H 0.69379 0.5173 0.16824 0.0
H410 H 0.68382 0.58794 0.18582 0.0
H411 H 0.72078 0.58623 0.23828 0.0
H412 H 0.64745 0.53164 0.18965 0.0
H413 H 0.68724 0.58548 0.00749 0.0
H414 H 0.70409 0.57061 0.0673 0.0
H415 H 0.68647 0.59528 0.07799 0.0
C416 C 0.72009 0.53131 0.21462 0.0
C417 C 0.72841 0.55078 0.23301 0.0
C418 C 0.69921 0.53231 0.18469 0.0
C419 C 0.68629 0.55283 0.17229 0.0
C420 C 0.69371 0.57201 0.19434 0.0
H421 H 0.56311 0.54323 0.95322 0.0
H422 H 0.58663 0.55654 0.02868 0.0
C423 C 0.71467 0.57098 0.22467 0.0
C424 C 0.66657 0.55414 0.13115 0.0
H425 H 0.65213 0.5709 0.98831 0.0
C426 C 0.64812 0.54064 0.146 0.0
C427 C 0.6677 0.56574 0.07408 0.0
C428 C 0.68745 0.58002 0.05526 0.0
C429 C 0.63139 0.53748 0.10442 0.0
C430 C 0.63311 0.54828 0.04669 0.0
C431 C 0.65085 0.56274 0.03271 0.0
C432 C 0.61873 0.54233 0.99859 0.0
C433 C 0.61288 0.52145 0.12143 0.0
C434 C 0.62908 0.53063 0.95565 0.0
C435 C 0.61577 0.52315 0.91251 0.0
C436 C 0.59181 0.5273 0.91119 0.0
C437 C 0.58153 0.53986 0.95286 0.0
C438 C 0.5949 0.5473 0.9963 0.0
H439 H 0.61571 0.51226 0.16592 0.0
H440 H 0.59598 0.53101 0.12046 0.0
H441 H 0.61209 0.50898 0.08987 0.0
H442 H 0.64746 0.52672 0.95649 0.0
H443 H 0.62423 0.51384 0.88056 0.0
H444 H 0.97338 0.73198 0.22299 0.0
H445 H 0.96463 0.69933 0.17376 0.0
H446 H 0.03709 0.68447 0.15132 0.0
H447 H 0.04573 0.71657 0.20102 0.0
H448 H 0.97448 0.69598 0.06175 0.0
H449 H 0.01641 0.62212 0.19483 0.0
H450 H 0.01093 0.64871 0.22282 0.0
H451 H 0.03619 0.6438 0.18027 0.0
C452 C 0.98738 0.72114 0.20958 0.0
C453 C 0.01022 0.72666 0.21613 0.0
C454 C 0.98239 0.70263 0.18101 0.0
C455 C 0.00019 0.68922 0.15921 0.0
C456 C 0.02303 0.6941 0.16882 0.0
H457 H 0.01443 0.63082 0.84574 0.0
H458 H 0.00903 0.65441 0.92372 0.0
C459 C 0.02798 0.71254 0.19708 0.0
C460 C 0.99525 0.67207 0.12005 0.0
H461 H 0.01213 0.61907 0.09125 0.0
C462 C 0.98232 0.67901 0.06889 0.0
C463 C 0.00511 0.64975 0.12936 0.0
C464 C 0.01771 0.64061 0.18517 0.0
C465 C 0.98031 0.66482 0.02528 0.0
C466 C 0.99194 0.64324 0.0323 0.0
C467 C 0.00352 0.63573 0.08519 0.0
C468 C 0.99382 0.62898 0.98384 0.0
C469 C 0.96603 0.67328 0.97163 0.0
C470 C 0.98746 0.60658 0.99164 0.0
C471 C 0.99084 0.59285 0.94706 0.0
C472 C 0.00089 0.60118 0.89392 0.0
C473 C 0.00686 0.62373 0.8861 0.0
C474 C 0.0035 0.63738 0.93054 0.0
H475 H 0.95223 0.6858 0.98148 0.0
H476 H 0.97716 0.68177 0.93789 0.0
H477 H 0.95806 0.6593 0.95331 0.0
H478 H 0.98015 0.59963 0.03253 0.0
H479 H 0.98629 0.57553 0.95504 0.0
H480 H 0.99107 0.19374 0.34846 0.0
H481 H 0.98307 0.16501 0.42857 0.0
H482 H 0.93143 0.20994 0.49285 0.0
H483 H 0.9388 0.23879 0.41094 0.0
H484 H 0.98767 0.17046 0.54748 0.0
H485 H 0.89925 0.1498 0.49015 0.0
H486 H 0.91785 0.16411 0.43728 0.0
H487 H 0.9046 0.17893 0.49244 0.0
C488 C 0.97765 0.19742 0.37879 0.0
C489 C 0.96542 0.21849 0.373 0.0
C490 C 0.97324 0.18103 0.42483 0.0
C491 C 0.95655 0.18531 0.46624 0.0
C492 C 0.94417 0.20624 0.4608 0.0
H493 H 0.96821 0.08504 0.77567 0.0
H494 H 0.95784 0.1217 0.72017 0.0
C495 C 0.94855 0.22274 0.4144 0.0
C496 C 0.9533 0.16794 0.51627 0.0
H497 H 0.9173 0.12784 0.57089 0.0
C498 C 0.97217 0.16134 0.55339 0.0
C499 C 0.93305 0.15614 0.52334 0.0
C500 C 0.9125 0.16241 0.48366 0.0
C501 C 0.97187 0.14245 0.59546 0.0
C502 C 0.95183 0.13018 0.60166 0.0
C503 C 0.93252 0.13742 0.56633 0.0
C504 C 0.95193 0.10828 0.63905 0.0
C505 C 0.9936 0.13495 0.63002 0.0
C506 C 0.9502 0.08854 0.61293 0.0
C507 C 0.9557 0.06756 0.64474 0.0
C508 C 0.96323 0.06608 0.70298 0.0
C509 C 0.96281 0.08572 0.73055 0.0
C510 C 0.95695 0.10667 0.6989 0.0
H511 H 0.0087 0.14373 0.61166 0.0
H512 H 0.9914 0.13873 0.67556 0.0
H513 H 0.9974 0.11655 0.63111 0.0
H514 H 0.94622 0.08943 0.56682 0.0
H515 H 0.95575 0.05273 0.62238 0.0
H516 H 0.26046 0.01949 0.46331 0.0
H517 H 0.29146 0.01101 0.53609 0.0
H518 H 0.33323 0.05808 0.43464 0.0
H519 H 0.30225 0.06693 0.36255 0.0
H520 H 0.33573 0.99323 0.51104 0.0
H521 H 0.33936 0.07435 0.60125 0.0
H522 H 0.31476 0.06723 0.56121 0.0
H523 H 0.33965 0.07733 0.52295 0.0
C524 C 0.27605 0.02842 0.4574 0.0
C525 C 0.27902 0.04386 0.40741 0.0
C526 C 0.29375 0.02345 0.49867 0.0
C527 C 0.3145 0.03405 0.4908 0.0
C528 C 0.3172 0.04998 0.44188 0.0
H529 H 0.45295 0.99741 0.60437 0.0
H530 H 0.41565 1.00104 0.55406 0.0
C531 C 0.29959 0.05489 0.40059 0.0
C532 C 0.33403 0.0274 0.5312 0.0
H533 H 0.37236 0.04868 0.61794 0.0
C534 C 0.34361 0.00523 0.53513 0.0
C535 C 0.34406 0.04306 0.56281 0.0
C536 C 0.33381 0.06677 0.56239 0.0
C537 C 0.36358 0.99854 0.56823 0.0
C538 C 0.3743 0.01455 0.59729 0.0
C539 C 0.3642 0.03648 0.59513 0.0
C540 C 0.3963 0.00928 0.62926 0.0
C541 C 0.37305 0.97446 0.57164 0.0
C542 C 0.39771 0.01258 0.68811 0.0
C543 C 0.41892 0.01075 0.71661 0.0
C544 C 0.43915 0.00562 0.68673 0.0
C545 C 0.43763 1.00125 0.62854 0.0
C546 C 0.41634 0.00323 0.59986 0.0
H547 H 0.35965 0.9631 0.56147 0.0
H548 H 0.38697 0.97334 0.53927 0.0
H549 H 0.38035 0.96841 0.61563 0.0
H550 H 0.38245 0.01728 0.71149 0.0
H551 H 0.4195 0.01407 0.7616 0.0
H552 H 0.48929 0.34672 0.37213 0.0
H553 H 0.50093 0.37652 0.42633 0.0
H554 H 0.55882 0.33404 0.49889 0.0
H555 H 0.54732 0.30388 0.44361 0.0
H556 H 0.53221 0.35737 0.58086 0.0
H557 H 0.55658 0.41526 0.3887 0.0
H558 H 0.529 0.40436 0.37957 0.0
H559 H 0.55428 0.38547 0.3865 0.0
C560 C 0.50464 0.34373 0.39913 0.0
C561 C 0.51764 0.32311 0.40285 0.0
C562 C 0.51129 0.3608 0.42998 0.0
C563 C 0.53106 0.35767 0.46524 0.0
C564 C 0.54368 0.33683 0.47109 0.0
H565 H 0.55709 0.46184 0.69273 0.0
H566 H 0.56682 0.43012 0.63795 0.0
C567 C 0.53703 0.31963 0.4399 0.0
C568 C 0.53765 0.37624 0.49708 0.0
H569 H 0.54539 0.43255 0.47458 0.0
C570 C 0.5358 0.37367 0.55802 0.0
C571 C 0.54244 0.39741 0.46696 0.0
C572 C 0.54593 0.40076 0.40183 0.0
C573 C 0.5366 0.39228 0.58914 0.0
C574 C 0.5395 0.41379 0.5583 0.0
C575 C 0.54306 0.41602 0.49794 0.0
C576 C 0.53548 0.43441 0.58654 0.0
C577 C 0.53262 0.38917 0.6541 0.0
C578 C 0.51506 0.44767 0.57408 0.0
C579 C 0.50943 0.46568 0.60516 0.0
C580 C 0.52424 0.47084 0.64902 0.0
C581 C 0.54534 0.45829 0.65914 0.0
C582 C 0.55089 0.44012 0.62819 0.0
H583 H 0.52896 0.37158 0.67078 0.0
H584 H 0.54808 0.39367 0.67711 0.0
H585 H 0.51799 0.40056 0.66506 0.0
H586 H 0.503 0.44349 0.54193 0.0
H587 H 0.4931 0.47506 0.59618 0.0
H588 H 0.17111 0.50821 0.26472 0.0
H589 H 0.14074 0.51933 0.32938 0.0
H590 H 0.18268 0.49272 0.47908 0.0
H591 H 0.2125 0.48007 0.41476 0.0
H592 H 0.14193 0.47756 0.4892 0.0
H593 H 0.13132 0.56954 0.42672 0.0
H594 H 0.12871 0.55469 0.36454 0.0
H595 H 0.1556 0.55281 0.4039 0.0
C596 C 0.1739 0.50467 0.31141 0.0
C597 C 0.19422 0.49304 0.33446 0.0
C598 C 0.15666 0.51146 0.34836 0.0
C599 C 0.15956 0.50722 0.40913 0.0
C600 C 0.18013 0.49632 0.43229 0.0
H601 H 0.06087 0.54814 0.66554 0.0
H602 H 0.0933 0.54715 0.5984 0.0
C603 C 0.19726 0.48924 0.39539 0.0
C604 C 0.14026 0.51193 0.44831 0.0
H605 H 0.0998 0.55228 0.47866 0.0
C606 C 0.13293 0.49399 0.4873 0.0
C607 C 0.12864 0.53342 0.4464 0.0
C608 C 0.13664 0.55375 0.40856 0.0
C609 C 0.11395 0.49674 0.52321 0.0
C610 C 0.10143 0.51782 0.51858 0.0
C611 C 0.10916 0.53601 0.48115 0.0
C612 C 0.08034 0.52106 0.55271 0.0
C613 C 0.10765 0.477 0.56614 0.0
C614 C 0.06185 0.50755 0.54715 0.0
C615 C 0.04353 0.50788 0.58572 0.0
C616 C 0.04317 0.52209 0.62969 0.0
C617 C 0.06072 0.53703 0.63201 0.0
C618 C 0.07926 0.53645 0.59383 0.0
H619 H 0.12251 0.46467 0.57631 0.0
H620 H 0.10129 0.4826 0.60757 0.0
H621 H 0.09386 0.46819 0.54693 0.0
H622 H 0.06208 0.49601 0.51459 0.0
H623 H 0.03008 0.49638 0.58251 0.0
H624 H 0.06798 0.81213 0.21272 0.0
H625 H 0.07972 0.84287 0.14101 0.0
H626 H 0.03176 0.82411 0.01585 0.0
H627 H 0.02005 0.79338 0.08697 0.0
H628 H 0.07439 0.8395 0.96647 0.0
H629 H 0.03245 0.8971 0.11162 0.0
H630 H 0.05521 0.87796 0.14349 0.0
H631 H 0.0289 0.86723 0.12151 0.0
C632 C 0.06025 0.81436 0.16954 0.0
C633 C 0.0429 0.80057 0.15561 0.0
C634 C 0.06699 0.83185 0.12869 0.0
C635 C 0.05632 0.83592 0.0736 0.0
C636 C 0.04021 0.8212 0.05818 0.0
H637 H 0.01955 0.93278 0.7928 0.0
H638 H 0.03416 0.89869 0.85292 0.0
C639 C 0.03355 0.80364 0.09884 0.0
C640 C 0.05956 0.85696 0.03469 0.0
H641 H 0.04492 0.91321 0.02109 0.0
C642 C 0.06832 0.85571 0.97857 0.0
C643 C 0.05163 0.87804 0.05077 0.0
C644 C 0.04136 0.8803 0.1099 0.0
C645 C 0.06867 0.87498 0.93734 0.0
C646 C 0.05961 0.89584 0.9525 0.0
C647 C 0.05197 0.89722 0.00959 0.0
C648 C 0.05505 0.91589 0.90881 0.0
C649 C 0.07835 0.87271 0.87774 0.0
C650 C 0.06209 0.93696 0.9197 0.0
C651 C 0.05341 0.95659 0.8859 0.0
C652 C 0.03751 0.95546 0.84068 0.0
C653 C 0.03176 0.93425 0.82731 0.0
C654 C 0.04031 0.91467 0.86135 0.0
H655 H 0.09188 0.85879 0.87989 0.0
H656 H 0.06443 0.86865 0.84865 0.0
H657 H 0.08571 0.88852 0.85806 0.0
H658 H 0.07336 0.9383 0.95631 0.0
H659 H 0.05829 0.97267 0.8971 0.0
H660 H 0.72919 0.96932 0.08238 0.0
H661 H 0.69732 0.97854 0.01258 0.0
H662 H 0.66321 0.01955 0.13086 0.0
H663 H 0.69507 0.01076 0.20038 0.0
H664 H 0.63622 0.98634 0.08811 0.0
H665 H 0.679 0.03942 0.91048 0.0
H666 H 0.69369 0.01283 0.93649 0.0
H667 H 0.69034 0.03424 0.98412 0.0
C668 C 0.71506 0.98057 0.09309 0.0
C669 C 0.71458 0.98924 0.14695 0.0
C670 C 0.69692 0.98583 0.05321 0.0
C671 C 0.67811 0.99989 0.06651 0.0
C672 C 0.67765 0.00871 0.11991 0.0
H673 H 0.5438 0.03853 0.91251 0.0
H674 H 0.57886 0.0357 0.97183 0.0
C675 C 0.69577 0.00353 0.15968 0.0
C676 C 0.65818 0.00436 0.02645 0.0
H677 H 0.64103 0.03001 0.89186 0.0
C678 C 0.6372 0.99597 0.0453 0.0
C679 C 0.6597 0.01679 0.97062 0.0
C680 C 0.68183 0.02652 0.94911 0.0
C681 C 0.61762 0.99946 0.0094 0.0
C682 C 0.61901 0.01215 0.95379 0.0
C683 C 0.64005 0.02045 0.93475 0.0
C684 C 0.59882 0.01641 0.91444 0.0
C685 C 0.59577 0.98904 0.03077 0.0
C686 C 0.59889 0.0075 0.86116 0.0
C687 C 0.57898 0.00925 0.82689 0.0
C688 C 0.55868 0.01995 0.84547 0.0
C689 C 0.55909 0.02999 0.89729 0.0
C690 C 0.57904 0.0283 0.93137 0.0
H691 H 0.59911 0.97534 0.06736 0.0
H692 H 0.58402 1.00212 0.0467 0.0
H693 H 0.5869 0.98209 0.99502 0.0
H694 H 0.61408 0.99839 0.84724 0.0
H695 H 0.57929 1.00147 0.78705 0.0
H696 H 0.49152 0.72009 0.04824 0.0
H697 H 0.48464 0.69033 0.98911 0.0
H698 H 0.45091 0.65375 0.13405 0.0
H699 H 0.45572 0.68445 0.19175 0.0
H700 H 0.50338 0.65087 0.0081 0.0
H701 H 0.40986 0.64141 0.00709 0.0
H702 H 0.4222 0.66547 0.03179 0.0
H703 H 0.42057 0.63966 0.08036 0.0
C704 C 0.48179 0.70621 0.06702 0.0
C705 C 0.47435 0.70472 0.12522 0.0
C706 C 0.47808 0.68902 0.03317 0.0
C707 C 0.46716 0.66976 0.05686 0.0
C708 C 0.45893 0.66858 0.11413 0.0
H709 H 0.50467 0.54071 0.94549 0.0
H710 H 0.49733 0.57241 0.00125 0.0
C711 C 0.46215 0.68602 0.1476 0.0
C712 C 0.46705 0.6499 0.02435 0.0
H713 H 0.43366 0.60931 0.98465 0.0
C714 C 0.48802 0.64201 0.00239 0.0
C715 C 0.44703 0.63836 0.01625 0.0
C716 C 0.42363 0.64683 0.0346 0.0
C717 C 0.48966 0.62279 0.97366 0.0
C718 C 0.46999 0.61039 0.96904 0.0
C719 C 0.44884 0.61853 0.98948 0.0
C720 C 0.47118 0.58923 0.94188 0.0
C721 C 0.51246 0.61627 0.94767 0.0
C722 C 0.45756 0.58726 0.89278 0.0
C723 C 0.46124 0.56877 0.86184 0.0
C724 C 0.47878 0.5522 0.87929 0.0
C725 C 0.49122 0.55341 0.93079 0.0
C726 C 0.48718 0.57159 0.96234 0.0
H727 H 0.52327 0.63093 0.93898 0.0
H728 H 0.522 0.60346 0.97893 0.0
H729 H 0.5101 0.6091 0.90614 0.0
H730 H 0.44497 0.60058 0.87655 0.0
H731 H 0.45145 0.56825 0.82217 0.0
H732 H 0.83369 0.56065 0.20289 0.0
H733 H 0.86439 0.54598 0.14386 0.0
H734 H 0.82454 0.48977 0.1173 0.0
H735 H 0.79368 0.5043 0.17686 0.0
H736 H 0.8888 0.50275 0.16396 0.0
H737 H 0.84204 0.5169 0.95059 0.0
H738 H 0.83252 0.53043 0.01262 0.0
H739 H 0.82814 0.5012 0.01054 0.0
C740 C 0.83148 0.54511 0.18472 0.0
C741 C 0.81128 0.53361 0.19452 0.0
C742 C 0.849 0.53679 0.15095 0.0
C743 C 0.84664 0.51688 0.12609 0.0
C744 C 0.82651 0.50533 0.13554 0.0
H745 H 0.94478 0.46974 0.87338 0.0
H746 H 0.91403 0.46796 0.94577 0.0
C747 C 0.80891 0.51367 0.16938 0.0
C748 C 0.86547 0.50844 0.09047 0.0
H749 H 0.88053 0.50319 0.95002 0.0
C750 C 0.88696 0.50255 0.11728 0.0
C751 C 0.86289 0.50802 0.02977 0.0
C752 C 0.84023 0.51459 0.99881 0.0
C753 C 0.90621 0.49709 0.08451 0.0
C754 C 0.90392 0.4979 0.02337 0.0
C755 C 0.88218 0.50257 0.99699 0.0
C756 C 0.92414 0.49679 0.98518 0.0
C757 C 0.92895 0.49103 0.11542 0.0
C758 C 0.94007 0.51343 0.98394 0.0
C759 C 0.9575 0.51456 0.94275 0.0
C760 C 0.95929 0.49909 0.90179 0.0
C761 C 0.94389 0.48183 0.90457 0.0
C762 C 0.92631 0.48081 0.94573 0.0
H763 H 0.92652 0.48397 0.16165 0.0
H764 H 0.93949 0.47862 0.09336 0.0
H765 H 0.9386 0.50642 0.11523 0.0
H766 H 0.93842 0.5262 0.01321 0.0
H767 H 0.96911 0.52803 0.94182 0.0
H768 H 0.02432 0.24685 0.16535 0.0
H769 H 0.03581 0.22382 0.08816 0.0
H770 H 0.96708 0.20119 0.08338 0.0
H771 H 0.95553 0.22473 0.15789 0.0
H772 H 0.03792 0.18061 0.10228 0.0
H773 H 0.97981 0.2055 0.9151 0.0
H774 H 0.98247 0.22302 0.9726 0.0
H775 H 0.96283 0.20071 0.97934 0.0
C776 C 0.01148 0.23778 0.14565 0.0
C777 C 0.98903 0.23761 0.16748 0.0
C778 C 0.01808 0.22442 0.10197 0.0
C779 C 0.00232 0.21076 0.07927 0.0
C780 C 0.97951 0.2119 0.09852 0.0
H781 H 0.02101 0.07503 0.01999 0.0
H782 H 0.01787 0.11184 0.054 0.0
C783 C 0.97291 0.2253 0.1416 0.0
C784 C 0.01012 0.19286 0.04287 0.0
H785 H 0.99314 0.16553 0.93009 0.0
C786 C 0.02842 0.17768 0.0638 0.0
C787 C 0.9982 0.18901 0.9918 0.0
C788 C 0.97993 0.20563 0.96317 0.0
C789 C 0.03396 0.15808 0.03791 0.0
C790 C 0.02037 0.15301 0.99088 0.0
C791 C 0.00324 0.16901 0.96705 0.0
C792 C 0.02256 0.1306 0.96899 0.0
C793 C 0.05418 0.14287 0.06199 0.0
C794 C 0.02529 0.12869 0.90926 0.0
C795 C 0.02682 0.10745 0.88942 0.0
C796 C 0.02569 0.0877 0.92895 0.0
C797 C 0.02261 0.08976 0.98848 0.0
C798 C 0.02087 0.1109 0.0081 0.0
H799 H 0.06737 0.15262 0.08068 0.0
H800 H 0.04829 0.13047 0.09772 0.0
H801 H 0.06233 0.13361 0.02791 0.0
H802 H 0.02639 0.14362 0.87803 0.0
H803 H 0.02915 0.10645 0.84331 0.0
H804 H 0.24836 0.07776 0.15958 0.0
H805 H 0.27351 0.07885 0.07418 0.0
H806 H 0.30385 0.01325 0.14067 0.0
H807 H 0.2782 0.01181 0.22356 0.0
H808 H 0.31694 0.08129 0.08296 0.0
H809 H 0.3056 0.00651 0.97378 0.0
H810 H 0.28474 0.01578 0.02459 0.0
H811 H 0.30935 0.99747 0.05015 0.0
C812 C 0.25957 0.06314 0.15402 0.0
C813 C 0.26135 0.04467 0.19782 0.0
C814 C 0.27412 0.06384 0.10563 0.0
C815 C 0.29061 0.04608 0.10051 0.0
C816 C 0.29099 0.02692 0.14224 0.0
H817 H 0.43167 0.05496 0.01496 0.0
H818 H 0.39284 0.05692 0.05461 0.0
C819 C 0.27636 0.02614 0.18997 0.0
C820 C 0.30984 0.04884 0.05836 0.0
H821 H 0.34497 0.01923 0.97349 0.0
C822 C 0.32272 0.06793 0.05786 0.0
C823 C 0.31735 0.03174 0.02448 0.0
C824 C 0.30331 0.01189 0.01784 0.0
C825 C 0.34359 0.06963 0.02796 0.0
C826 C 0.35235 0.05136 0.99961 0.0
C827 C 0.33868 0.03302 0.99649 0.0
C828 C 0.37595 0.05047 0.97517 0.0
C829 C 0.35603 0.09099 0.02762 0.0
C830 C 0.37963 0.04524 0.91817 0.0
C831 C 0.40189 0.04352 0.89612 0.0
C832 C 0.42093 0.04718 0.93044 0.0
C833 C 0.41727 0.0524 0.98738 0.0
C834 C 0.39505 0.0537 0.00981 0.0
H835 H 0.34375 0.10566 0.03071 0.0
H836 H 0.36767 0.0894 0.06616 0.0
H837 H 0.36633 0.09445 0.9875 0.0
H838 H 0.36527 0.04254 0.8906 0.0
H839 H 0.40421 0.03966 0.85188 0.0
H840 H 0.46408 0.33106 0.2452 0.0
H841 H 0.45912 0.35445 0.1521 0.0
H842 H 0.50504 0.30839 0.07208 0.0
H843 H 0.51108 0.28546 0.16742 0.0
H844 H 0.51901 0.34721 0.04737 0.0
H845 H 0.42656 0.3585 0.00331 0.0
H846 H 0.43096 0.36479 0.07601 0.0
H847 H 0.43828 0.33675 0.0582 0.0
C848 C 0.4725 0.32549 0.2073 0.0
C849 C 0.48803 0.30651 0.21351 0.0
C850 C 0.46949 0.33883 0.15366 0.0
C851 C 0.48145 0.33322 0.10427 0.0
C852 C 0.49554 0.31312 0.10935 0.0
H853 H 0.46468 0.44283 0.81083 0.0
H854 H 0.46202 0.40587 0.86849 0.0
C855 C 0.49883 0.29986 0.16364 0.0
C856 C 0.48202 0.35022 0.0513 0.0
H857 H 0.44864 0.39173 0.97119 0.0
C858 C 0.50352 0.35653 0.02979 0.0
C859 C 0.46195 0.36226 0.02663 0.0
C860 C 0.43819 0.35497 0.04194 0.0
C861 C 0.50555 0.37542 0.98808 0.0
C862 C 0.48565 0.38912 0.96916 0.0
C863 C 0.46404 0.38178 0.98692 0.0
C864 C 0.48702 0.41157 0.93376 0.0
C865 C 0.52914 0.38051 0.96527 0.0
C866 C 0.50143 0.42741 0.95182 0.0
C867 C 0.50328 0.44828 0.91842 0.0
C868 C 0.49018 0.45416 0.86713 0.0
C869 C 0.47495 0.43878 0.85028 0.0
C870 C 0.47348 0.41763 0.88314 0.0
H871 H 0.5402 0.36479 0.96506 0.0
H872 H 0.52834 0.38957 0.92031 0.0
H873 H 0.53751 0.39103 0.99441 0.0
H874 H 0.51134 0.42365 0.99191 0.0
H875 H 0.51494 0.45989 0.93295 0.0
H876 H 0.22196 0.48802 0.09883 0.0
H877 H 0.19404 0.48451 0.02153 0.0
H878 H 0.17033 0.42481 0.1211 0.0
H879 H 0.19793 0.4286 0.19891 0.0
H880 H 0.17642 0.45084 0.95175 0.0
H881 H 0.1183 0.47525 0.12728 0.0
H882 H 0.14906 0.47626 0.13209 0.0
H883 H 0.136 0.44976 0.14506 0.0
C884 C 0.21164 0.47349 0.10263 0.0
C885 C 0.21203 0.45854 0.15445 0.0
C886 C 0.19561 0.47155 0.05867 0.0
C887 C 0.17987 0.45464 0.06621 0.0
C888 C 0.18222 0.43808 0.11477 0.0
H889 H 0.05781 0.45343 0.83947 0.0
H890 H 0.09307 0.44086 0.89547 0.0
C891 C 0.19809 0.44013 0.1589 0.0
C892 C 0.15862 0.45706 0.03018 0.0
H893 H 0.10149 0.47252 0.03653 0.0
C894 C 0.15995 0.45528 0.97023 0.0
C895 C 0.13725 0.46324 0.05446 0.0
C896 C 0.13494 0.46644 0.11811 0.0
C897 C 0.14043 0.4598 0.93377 0.0
C898 C 0.11917 0.46616 0.95814 0.0
C899 C 0.11781 0.46748 0.01818 0.0
C900 C 0.09849 0.47352 0.92183 0.0
C901 C 0.14278 0.45868 0.86918 0.0
C902 C 0.08977 0.49592 0.91882 0.0
C903 C 0.06969 0.50309 0.88732 0.0
C904 C 0.05779 0.48797 0.85836 0.0
C905 C 0.06657 0.46548 0.86133 0.0
C906 C 0.08678 0.45831 0.8929 0.0
H907 H 0.16101 0.45653 0.85606 0.0
H908 H 0.13358 0.44422 0.85723 0.0
H909 H 0.13483 0.4742 0.844 0.0
H910 H 0.09851 0.50788 0.94111 0.0
H911 H 0.06348 0.52053 0.88594 0.0
H912 H 0.97306 0.7794 0.352 0.0
H913 H 0.96152 0.80282 0.42837 0.0
H914 H 0.03114 0.82252 0.44003 0.0
H915 H 0.04283 0.79834 0.3669 0.0
H916 H 0.01261 0.82075 0.54311 0.0
H917 H 0.95142 0.86892 0.38233 0.0
H918 H 0.9453 0.84007 0.40251 0.0
H919 H 0.97103 0.8468 0.36294 0.0
C920 C 0.98599 0.78815 0.37238 0.0
C921 C 0.00877 0.78736 0.35267 0.0
C922 C 0.97932 0.80184 0.41536 0.0
C923 C 0.99527 0.81518 0.43857 0.0
C924 C 0.01838 0.8127 0.42255 0.0
H925 H 0.98274 0.94872 0.52103 0.0
H926 H 0.9863 0.91283 0.48194 0.0
C927 C 0.02506 0.79889 0.38045 0.0
C928 C 0.9881 0.83321 0.47521 0.0
H929 H 0.95621 0.88309 0.47093 0.0
C930 C 8e-05 0.83428 0.52765 0.0
C931 C 0.97191 0.85106 0.45487 0.0
C932 C 0.95929 0.85186 0.39741 0.0
C933 C 0.99719 0.85303 0.55863 0.0
C934 C 0.98126 0.871 0.53775 0.0
C935 C 0.96843 0.86937 0.48702 0.0
C936 C 0.97926 0.89266 0.56365 0.0
C937 C 0.01226 0.85397 0.61137 0.0
C938 C 0.97417 0.89352 0.62294 0.0
C939 C 0.97245 0.91422 0.6457 0.0
C940 C 0.97522 0.93445 0.60928 0.0
C941 C 0.98014 0.9335 0.55006 0.0
C942 C 0.98222 0.91292 0.52766 0.0
H943 H 0.02723 0.84154 0.61319 0.0
H944 H 0.01872 0.87099 0.6115 0.0
H945 H 0.00211 0.85003 0.6515 0.0
H946 H 0.97126 0.87826 0.65149 0.0
H947 H 0.96845 0.91448 0.69136 0.0
H948 H 0.73023 0.00527 0.35625 0.0
H949 H 0.70489 0.99903 0.43947 0.0
H950 H 0.71917 0.92733 0.44632 0.0
H951 H 0.74404 0.93375 0.361 0.0
H952 H 0.67582 0.93636 0.43453 0.0
H953 H 0.70265 0.98306 0.61047 0.0
H954 H 0.70226 1.00158 0.54344 0.0
H955 H 0.72188 0.97694 0.55258 0.0
C956 C 0.7289 0.98826 0.37756 0.0
C957 C 0.73928 0.97 0.35292 0.0
C958 C 0.71439 0.98465 0.42534 0.0
C959 C 0.71014 0.96268 0.44989 0.0
C960 C 0.72223 0.94444 0.42848 0.0
H961 H 0.59128 0.96079 0.68821 0.0
H962 H 0.6306 0.95307 0.65511 0.0
C963 C 0.73665 0.94808 0.38017 0.0
C964 C 0.69002 0.959 0.48884 0.0
H965 H 0.66075 0.98102 0.59865 0.0
C966 C 0.67287 0.94566 0.47145 0.0
C967 C 0.68604 0.97075 0.53776 0.0
C968 C 0.70437 0.98365 0.56241 0.0
C969 C 0.65133 0.94527 0.49831 0.0
C970 C 0.6465 0.95907 0.54272 0.0
C971 C 0.66423 0.97086 0.56362 0.0
C972 C 0.62271 0.96311 0.56367 0.0
C973 C 0.63374 0.93053 0.47753 0.0
C974 C 0.6053 0.97167 0.52352 0.0
C975 C 0.58294 0.97604 0.54219 0.0
C976 C 0.57741 0.97223 0.6017 0.0
C977 C 0.59494 0.96395 0.64212 0.0
C978 C 0.6174 0.95947 0.62326 0.0
H979 H 0.64215 0.91558 0.46058 0.0
H980 H 0.62189 0.9247 0.51303 0.0
H981 H 0.62351 0.94022 0.44127 0.0
H982 H 0.60909 0.97534 0.47755 0.0
H983 H 0.57012 0.98296 0.50994 0.0
H984 H 0.46643 0.71878 0.34802 0.0
H985 H 0.47572 0.69266 0.43603 0.0
H986 H 0.54734 0.69132 0.38993 0.0
H987 H 0.53792 0.71752 0.3015 0.0
H988 H 0.5297 0.64954 0.40193 0.0
H989 H 0.50657 0.6919 0.59497 0.0
H990 H 0.48426 0.69556 0.54038 0.0
H991 H 0.51154 0.7073 0.52422 0.0
C992 C 0.48427 0.71376 0.35832 0.0
C993 C 0.50154 0.72047 0.31883 0.0
C994 C 0.48959 0.69878 0.40855 0.0
C995 C 0.51228 0.69014 0.42004 0.0
C996 C 0.52976 0.69793 0.38233 0.0
H997 H 0.54427 0.57623 0.6979 0.0
H998 H 0.54841 0.61167 0.63361 0.0
C999 C 0.52443 0.71305 0.33217 0.0
C1000 C 0.51692 0.6705 0.46547 0.0
H1001 H 0.50711 0.6512 0.60836 0.0
C1002 C 0.52526 0.65006 0.44734 0.0
C1003 C 0.51111 0.67109 0.52477 0.0
C1004 C 0.50309 0.69271 0.54742 0.0
C1005 C 0.52669 0.63002 0.48606 0.0
C1006 C 0.51961 0.6304 0.54436 0.0
C1007 C 0.51244 0.65098 0.56348 0.0
C1008 C 0.51738 0.60924 0.58399 0.0
C1009 C 0.53488 0.60833 0.46397 0.0
C1010 C 0.49859 0.59628 0.57728 0.0
C1011 C 0.49612 0.57622 0.61381 0.0
C1012 C 0.5125 0.56858 0.65777 0.0
C1013 C 0.53143 0.58158 0.66431 0.0
C1014 C 0.53378 0.60185 0.62785 0.0
H1015 H 0.54334 0.61133 0.42089 0.0
H1016 H 0.54713 0.5985 0.49564 0.0
H1017 H 0.51998 0.59799 0.45937 0.0
H1018 H 0.48576 0.60173 0.54369 0.0
H1019 H 0.48133 0.56668 0.60742 0.0
H1020 H 0.80254 0.59622 0.33772 0.0
H1021 H 0.82963 0.59916 0.41727 0.0
H1022 H 0.80885 0.53617 0.50598 0.0
H1023 H 0.78146 0.53346 0.42693 0.0
H1024 H 0.8247 0.5686 0.58268 0.0
H1025 H 0.88386 0.55153 0.40227 0.0
H1026 H 0.865 0.57644 0.38881 0.0
H1027 H 0.85327 0.54924 0.39704 0.0
C1028 C 0.80283 0.58373 0.37592 0.0
C1029 C 0.78991 0.56469 0.37668 0.0
C1030 C 0.81844 0.58529 0.42101 0.0
C1031 C 0.82152 0.56766 0.46683 0.0
C1032 C 0.80669 0.54996 0.471 0.0
H1033 H 0.93982 0.50218 0.63932 0.0
H1034 H 0.90459 0.51483 0.58494 0.0
C1035 C 0.79095 0.54848 0.42607 0.0
C1036 C 0.84278 0.56524 0.50286 0.0
H1037 H 0.90038 0.55235 0.49436 0.0
C1038 C 0.84131 0.56536 0.56347 0.0
C1039 C 0.86436 0.56061 0.47756 0.0
C1040 C 0.86685 0.55924 0.41296 0.0
C1041 C 0.86093 0.56071 0.59956 0.0
C1042 C 0.88241 0.55589 0.57415 0.0
C1043 C 0.88388 0.55621 0.51352 0.0
C1044 C 0.90329 0.54848 0.60965 0.0
C1045 C 0.85849 0.56005 0.66472 0.0
C1046 C 0.91434 0.56331 0.64128 0.0
C1047 C 0.93466 0.55615 0.67237 0.0
C1048 C 0.9442 0.53405 0.67223 0.0
C1049 C 0.93298 0.51931 0.64045 0.0
C1050 C 0.91281 0.52649 0.60938 0.0
H1051 H 0.84022 0.56121 0.6781 0.0
H1052 H 0.86695 0.54428 0.68739 0.0
H1053 H 0.86713 0.57437 0.67941 0.0
H1054 H 0.90742 0.58047 0.64129 0.0
H1055 H 0.94287 0.56791 0.69647 0.0
loop_
_geom_bond_atom_site_label_1
_geom_bond_atom_site_label_2
_geom_bond_distance
_geom_bond_site_symmetry_2
_ccdc_geom_bond_type
H0 C3 0.931 . S
H1 C6 0.928 . S
H2 C8 0.930 . S
C3 H0 0.931 . S
C3 C4 1.413 . S
C3 C5 1.360 . S
C4 C3 1.413 . S
C4 C8 1.429 . S
C5 C3 1.360 . S
C5 C6 1.372 . S
C6 H1 0.928 . S
C6 C5 1.372 . S
C6 C7 1.404 . S
C7 C6 1.404 . S
C7 C8 1.391 . S
C8 H2 0.930 . S
C8 C4 1.429 . S
C8 C7 1.391 . S
H9 C12 0.931 . S
H10 C15 0.928 . S
H11 C17 0.931 . S
C12 H9 0.931 . S
C12 C13 1.414 . S
C12 C14 1.360 . S
C13 C12 1.414 . S
C13 C17 1.430 1_655 S
C14 C12 1.360 . S
C14 C15 1.374 . S
C15 H10 0.928 . S
C15 C14 1.374 . S
C15 C16 1.404 . S
C16 C15 1.404 . S
C16 C17 1.390 1_655 S
C17 H11 0.931 . S
C17 C13 1.430 1_455 S
C17 C16 1.390 1_455 S
H18 C21 0.931 . S
H19 C24 0.928 . S
H20 C26 0.930 . S
C21 H18 0.931 . S
C21 C22 1.413 . S
C21 C23 1.360 . S
C22 C21 1.413 . S
C22 C26 1.429 . S
C23 C21 1.360 . S
C23 C24 1.372 . S
C24 H19 0.928 . S
C24 C23 1.372 . S
C24 C25 1.404 . S
C25 C24 1.404 . S
C25 C26 1.391 . S
C26 H20 0.930 . S
C26 C22 1.429 . S
C26 C25 1.391 . S
H27 C30 0.931 . S
H28 C33 0.928 . S
H29 C35 0.930 . S
C30 H27 0.931 . S
C30 C31 1.413 . S
C30 C32 1.360 . S
C31 C30 1.413 . S
C31 C35 1.429 . S
C32 C30 1.360 . S
C32 C33 1.372 . S
C33 H28 0.928 . S
C33 C32 1.372 . S
C33 C34 1.404 . S
C34 C33 1.404 . S
C34 C35 1.391 . S
C35 H29 0.930 . S
C35 C31 1.429 . S
C35 C34 1.391 . S
H36 C39 0.931 . S
H37 C42 0.928 . S
H38 C44 0.930 . S
C39 H36 0.931 . S
C39 C40 1.413 . S
C39 C41 1.360 . S
C40 C39 1.413 . S
C40 C44 1.429 . S
C41 C39 1.360 . S
C41 C42 1.372 . S
C42 H37 0.928 . S
C42 C41 1.372 . S
C42 C43 1.404 . S
C43 C42 1.404 . S
C43 C44 1.391 . S
C44 H38 0.930 . S
C44 C40 1.429 . S
C44 C43 1.391 . S
H45 C48 0.930 . S
H46 C51 0.928 . S
H47 C53 0.929 . S
C48 H45 0.930 . S
C48 C49 1.413 . S
C48 C50 1.360 . S
C49 C48 1.413 . S
C49 C53 1.429 1_655 S
C50 C48 1.360 . S
C50 C51 1.371 . S
C51 H46 0.928 . S
C51 C50 1.371 . S
C51 C52 1.404 . S
C52 C51 1.404 . S
C52 C53 1.391 1_655 S
C53 H47 0.929 . S
C53 C49 1.429 1_455 S
C53 C52 1.391 1_455 S
H54 C57 0.931 . S
H55 C60 0.928 . S
H56 C62 0.930 . S
C57 H54 0.931 . S
C57 C58 1.413 . S
C57 C59 1.360 . S
C58 C57 1.413 . S
C58 C62 1.429 . S
C59 C57 1.360 . S
C59 C60 1.372 . S
C60 H55 0.928 . S
C60 C59 1.372 . S
C60 C61 1.404 . S
C61 C60 1.404 . S
C61 C62 1.391 . S
C62 H56 0.930 . S
C62 C58 1.429 . S
C62 C61 1.391 . S
H63 C66 0.931 . S
H64 C69 0.928 . S
H65 C71 0.930 . S
C66 H63 0.931 . S
C66 C67 1.413 . S
C66 C68 1.360 . S
C67 C66 1.413 . S
C67 C71 1.429 . S
C68 C66 1.360 . S
C68 C69 1.372 . S
C69 H64 0.928 . S
C69 C68 1.372 . S
C69 C70 1.404 . S
C70 C69 1.404 . S
C70 C71 1.391 . S
C71 H65 0.930 . S
C71 C67 1.429 . S
C71 C70 1.391 . S
Co72 N77 2.057 . S
Co72 O89 2.021 . S
Co72 O92 2.062 1_455 S
Co72 O96 2.117 1_455 S
Co72 O97 2.020 1_545 S
C73 O93 1.259 1_545 S
C73 O96 1.258 . S
Co74 N83 2.057 . S
Co74 O90 2.117 1_665 S
Co74 O91 2.020 1_565 S
Co74 O93 2.021 . S
Co74 O98 2.062 1_655 S
C75 N77 1.316 . S
C75 N78 1.347 . S
C75 H80 0.931 . S
C76 N77 1.375 1_655 S
C76 C79 1.350 . S
C76 H81 0.930 . S
N77 Co72 2.057 . S
N77 C75 1.316 . S
N77 C76 1.375 1_455 S
N78 C75 1.347 . S
N78 C79 1.373 1_455 S
C79 C76 1.350 . S
C79 N78 1.373 1_655 S
C79 H100 0.931 . S
H80 C75 0.931 . S
H81 C76 0.930 . S
C82 O89 1.259 . S
C82 O90 1.258 . S
N83 Co74 2.057 . S
N83 C84 1.316 . S
N83 C85 1.375 1_655 S
C84 N83 1.316 . S
C84 N86 1.347 . S
C84 H95 0.931 . S
C85 N83 1.375 1_455 S
C85 C87 1.350 . S
C85 H94 0.930 . S
N86 C84 1.347 . S
N86 C87 1.373 1_655 S
C87 C85 1.350 . S
C87 N86 1.373 1_455 S
C87 H101 0.931 . S
C88 O91 1.256 . S
C88 O92 1.255 . S
O89 Co72 2.021 . S
O89 C82 1.259 . S
O90 Co74 2.117 1_445 S
O90 C82 1.258 . S
O91 Co74 2.020 1_545 S
O91 C88 1.256 . S
O92 Co72 2.062 1_655 S
O92 C88 1.255 . S
O93 C73 1.259 1_565 S
O93 Co74 2.021 . S
H94 C85 0.930 . S
H95 C84 0.931 . S
O96 Co72 2.117 1_655 S
O96 C73 1.258 . S
O97 Co72 2.020 1_565 S
O97 C99 1.256 . S
O98 Co74 2.062 1_455 S
O98 C99 1.255 . S
C99 O97 1.256 . S
C99 O98 1.255 . S
H100 C79 0.931 . S
H101 C87 0.931 . S
Co102 N107 2.057 . S
Co102 O119 2.021 . S
Co102 O122 2.062 . S
Co102 O126 2.117 1_545 S
Co102 O127 2.020 . S
C103 O123 1.259 . S
C103 O126 1.258 . S
Co104 N113 2.055 1_545 S
Co104 O120 2.134 . S
Co104 O121 2.022 . S
Co104 O123 2.005 1_545 S
Co104 O128 2.062 1_545 S
C105 N107 1.316 . S
C105 N108 1.347 . S
C105 H110 0.931 . S
C106 N107 1.375 . S
C106 C109 1.350 . S
C106 H111 0.930 1_545 S
N107 Co102 2.057 . S
N107 C105 1.316 . S
N107 C106 1.375 . S
N108 C105 1.347 . S
N108 C109 1.373 . S
C109 C106 1.350 . S
C109 N108 1.373 . S
C109 H130 0.931 . S
H110 C105 0.931 . S
H111 C106 0.930 1_565 S
C112 O119 1.259 . S
C112 O120 1.258 . S
N113 Co104 2.055 1_565 S
N113 C114 1.316 . S
N113 C115 1.375 1_565 S
C114 N113 1.316 . S
C114 N116 1.347 . S
C114 H125 0.931 . S
C115 N113 1.375 1_545 S
C115 C117 1.350 . S
C115 H124 0.930 . S
N116 C114 1.347 . S
N116 C117 1.373 1_565 S
C117 C115 1.350 . S
C117 N116 1.373 1_545 S
C117 H131 0.931 . S
C118 O121 1.256 . S
C118 O122 1.255 . S
O119 Co102 2.021 . S
O119 C112 1.259 . S
O120 Co104 2.134 . S
O120 C112 1.258 . S
O121 Co104 2.022 . S
O121 C118 1.256 . S
O122 Co102 2.062 . S
O122 C118 1.255 . S
O123 C103 1.259 . S
O123 Co104 2.005 1_565 S
H124 C115 0.930 . S
H125 C114 0.931 . S
O126 Co102 2.117 1_565 S
O126 C103 1.258 . S
O127 Co102 2.020 . S
O127 C129 1.256 . S
O128 Co104 2.062 1_565 S
O128 C129 1.255 1_565 S
C129 O127 1.256 . S
C129 O128 1.255 1_545 S
H130 C109 0.931 . S
H131 C117 0.931 . S
Co132 N137 2.057 . S
Co132 O149 2.021 . S
Co132 O152 2.062 . S
Co132 O156 2.117 . S
Co132 O157 2.020 . S
C133 O153 1.259 . S
C133 O156 1.258 . S
Co134 N143 2.057 . S
Co134 O150 2.117 . S
Co134 O151 2.020 . S
Co134 O153 2.021 . S
Co134 O158 2.062 . S
C135 N137 1.316 . S
C135 N138 1.347 . S
C135 H140 0.931 . S
C136 N137 1.375 . S
C136 C139 1.350 . S
C136 H141 0.930 . S
N137 Co132 2.057 . S
N137 C135 1.316 . S
N137 C136 1.375 . S
N138 C135 1.347 . S
N138 C139 1.373 . S
C139 C136 1.350 . S
C139 N138 1.373 . S
C139 H160 0.931 . S
H140 C135 0.931 . S
H141 C136 0.930 . S
C142 O149 1.259 . S
C142 O150 1.258 . S
N143 Co134 2.057 . S
N143 C144 1.316 . S
N143 C145 1.375 . S
C144 N143 1.316 . S
C144 N146 1.347 . S
C144 H155 0.931 . S
C145 N143 1.375 . S
C145 C147 1.350 . S
C145 H154 0.930 . S
N146 C144 1.347 . S
N146 C147 1.373 . S
C147 C145 1.350 . S
C147 N146 1.373 . S
C147 H161 0.931 . S
C148 O151 1.256 . S
C148 O152 1.255 . S
O149 Co132 2.021 . S
O149 C142 1.259 . S
O150 Co134 2.117 . S
O150 C142 1.258 . S
O151 Co134 2.020 . S
O151 C148 1.256 . S
O152 Co132 2.062 . S
O152 C148 1.255 . S
O153 C133 1.259 . S
O153 Co134 2.021 . S
H154 C145 0.930 . S
H155 C144 0.931 . S
O156 Co132 2.117 . S
O156 C133 1.258 . S
O157 Co132 2.020 . S
O157 C159 1.256 . S
O158 Co134 2.062 . S
O158 C159 1.255 . S
C159 O157 1.256 . S
C159 O158 1.255 . S
H160 C139 0.931 . S
H161 C147 0.931 . S
Co162 N167 2.057 . S
Co162 O179 2.021 1_455 S
Co162 O182 2.062 1_455 S
Co162 O186 2.117 . S
Co162 O187 2.020 . S
C163 O183 1.259 . S
C163 O186 1.258 . S
Co164 N173 2.057 . S
Co164 O180 2.117 . S
Co164 O181 2.020 . S
Co164 O183 2.021 1_655 S
Co164 O188 2.062 1_655 S
C165 N167 1.316 . S
C165 N168 1.347 . S
C165 H170 0.931 1_455 S
C166 N167 1.375 . S
C166 C169 1.350 . S
C166 H171 0.930 . S
N167 Co162 2.057 . S
N167 C165 1.316 . S
N167 C166 1.375 . S
N168 C165 1.347 . S
N168 C169 1.373 . S
C169 C166 1.350 . S
C169 N168 1.373 . S
C169 H190 0.931 . S
H170 C165 0.931 1_655 S
H171 C166 0.930 . S
C172 O179 1.259 . S
C172 O180 1.258 . S
N173 Co164 2.057 . S
N173 C174 1.316 . S
N173 C175 1.375 . S
C174 N173 1.316 . S
C174 N176 1.347 . S
C174 H185 0.931 1_655 S
C175 N173 1.375 . S
C175 C177 1.350 . S
C175 H184 0.930 . S
N176 C174 1.347 . S
N176 C177 1.373 . S
C177 C175 1.350 . S
C177 N176 1.373 . S
C177 H191 0.931 . S
C178 O181 1.256 . S
C178 O182 1.255 . S
O179 Co162 2.021 1_655 S
O179 C172 1.259 . S
O180 Co164 2.117 . S
O180 C172 1.258 . S
O181 Co164 2.020 . S
O181 C178 1.256 . S
O182 Co162 2.062 1_655 S
O182 C178 1.255 . S
O183 C163 1.259 . S
O183 Co164 2.021 1_455 S
H184 C175 0.930 . S
H185 C174 0.931 1_455 S
O186 Co162 2.117 . S
O186 C163 1.258 . S
O187 Co162 2.020 . S
O187 C189 1.256 . S
O188 Co164 2.062 1_455 S
O188 C189 1.255 . S
C189 O187 1.256 . S
C189 O188 1.255 . S
H190 C169 0.931 . S
H191 C177 0.931 . S
H192 C200 0.929 . S
H193 C202 0.930 . S
H194 C204 0.930 . S
H195 C207 0.929 . S
H196 C210 0.930 . S
H197 C212 0.960 . S
H198 C212 0.960 . S
H199 C212 0.960 . S
C200 H192 0.929 . S
C200 C201 1.377 . S
C200 C202 1.384 . S
C201 C200 1.377 . S
C201 C207 1.390 . S
C202 H193 0.930 . S
C202 C200 1.384 . S
C202 C203 1.372 . S
C203 C202 1.372 . S
C203 C204 1.400 . S
C203 C208 1.490 . S
C204 H194 0.930 . S
C204 C203 1.400 . S
C204 C207 1.386 . S
H205 C221 0.930 1_565 S
H206 C222 0.931 . S
C207 H195 0.929 . S
C207 C201 1.390 . S
C207 C204 1.386 . S
C208 C203 1.490 . S
C208 C210 1.395 . S
C208 C211 1.403 . S
H209 C215 0.930 . S
C210 H196 0.930 . S
C210 C208 1.395 . S
C210 C213 1.403 . S
C211 C208 1.403 . S
C211 C212 1.524 . S
C211 C215 1.400 . S
C212 H197 0.960 . S
C212 H198 0.960 . S
C212 H199 0.960 . S
C212 C211 1.524 . S
C213 C210 1.403 . S
C213 C214 1.392 . S
C213 C217 1.495 . S
C214 C213 1.392 . S
C214 C215 1.385 . S
C214 C216 1.478 . S
C215 H209 0.930 . S
C215 C211 1.400 . S
C215 C214 1.385 . S
C216 C214 1.478 . S
C216 C218 1.381 . S
C216 C222 1.383 . S
C217 C213 1.495 . S
C217 H223 0.959 . S
C217 H224 0.961 . S
C217 H225 0.960 . S
C218 C216 1.381 . S
C218 C219 1.394 . S
C218 H226 0.930 . S
C219 C218 1.394 . S
C219 C220 1.383 . S
C219 H227 0.929 . S
C220 C219 1.383 . S
C220 C221 1.377 . S
C221 H205 0.930 1_545 S
C221 C220 1.377 . S
C221 C222 1.379 . S
C222 H206 0.931 . S
C222 C216 1.383 . S
C222 C221 1.379 . S
H223 C217 0.959 . S
H224 C217 0.961 . S
H225 C217 0.960 . S
H226 C218 0.930 . S
H227 C219 0.929 . S
H228 C236 0.929 . S
H229 C238 0.930 . S
H230 C240 0.930 . S
H231 C243 0.929 . S
H232 C246 0.930 . S
H233 C248 0.960 . S
H234 C248 0.960 . S
H235 C248 0.960 . S
C236 H228 0.929 . S
C236 C237 1.377 . S
C236 C238 1.384 . S
C237 C236 1.377 . S
C237 C243 1.390 . S
C238 H229 0.930 . S
C238 C236 1.384 . S
C238 C239 1.372 . S
C239 C238 1.372 . S
C239 C240 1.400 . S
C239 C244 1.490 . S
C240 H230 0.930 . S
C240 C239 1.400 . S
C240 C243 1.386 . S
H241 C257 0.930 . S
H242 C258 0.931 . S
C243 H231 0.929 . S
C243 C237 1.390 . S
C243 C240 1.386 . S
C244 C239 1.490 . S
C244 C246 1.395 . S
C244 C247 1.403 . S
H245 C251 0.930 . S
C246 H232 0.930 . S
C246 C244 1.395 . S
C246 C249 1.403 . S
C247 C244 1.403 . S
C247 C248 1.524 . S
C247 C251 1.400 . S
C248 H233 0.960 . S
C248 H234 0.960 . S
C248 H235 0.960 . S
C248 C247 1.524 . S
C249 C246 1.403 . S
C249 C250 1.392 . S
C249 C253 1.495 . S
C250 C249 1.392 . S
C250 C251 1.385 . S
C250 C252 1.478 . S
C251 H245 0.930 . S
C251 C247 1.400 . S
C251 C250 1.385 . S
C252 C250 1.478 . S
C252 C254 1.381 . S
C252 C258 1.383 . S
C253 C249 1.495 . S
C253 H259 0.959 . S
C253 H260 0.961 . S
C253 H261 0.960 . S
C254 C252 1.381 . S
C254 C255 1.394 . S
C254 H262 0.930 . S
C255 C254 1.394 . S
C255 C256 1.383 . S
C255 H263 0.929 . S
C256 C255 1.383 . S
C256 C257 1.377 . S
C257 H241 0.930 . S
C257 C256 1.377 . S
C257 C258 1.379 . S
C258 H242 0.931 . S
C258 C252 1.383 . S
C258 C257 1.379 . S
H259 C253 0.959 . S
H260 C253 0.961 . S
H261 C253 0.960 . S
H262 C254 0.930 . S
H263 C255 0.929 . S
H264 C272 0.929 . S
H265 C274 0.930 . S
H266 C276 0.930 . S
H267 C279 0.929 . S
H268 C282 0.930 . S
H269 C284 0.960 . S
H270 C284 0.960 . S
H271 C284 0.960 . S
C272 H264 0.929 . S
C272 C273 1.377 . S
C272 C274 1.384 . S
C273 C272 1.377 . S
C273 C279 1.390 . S
C274 H265 0.930 . S
C274 C272 1.384 . S
C274 C275 1.372 . S
C275 C274 1.372 . S
C275 C276 1.400 . S
C275 C280 1.490 . S
C276 H266 0.930 . S
C276 C275 1.400 . S
C276 C279 1.386 . S
H277 C293 0.930 . S
H278 C294 0.931 . S
C279 H267 0.929 . S
C279 C273 1.390 . S
C279 C276 1.386 . S
C280 C275 1.490 . S
C280 C282 1.395 . S
C280 C283 1.403 . S
H281 C287 0.930 . S
C282 H268 0.930 . S
C282 C280 1.395 . S
C282 C285 1.403 . S
C283 C280 1.403 . S
C283 C284 1.524 . S
C283 C287 1.400 . S
C284 H269 0.960 . S
C284 H270 0.960 . S
C284 H271 0.960 . S
C284 C283 1.524 . S
C285 C282 1.403 . S
C285 C286 1.392 . S
C285 C289 1.495 . S
C286 C285 1.392 . S
C286 C287 1.385 . S
C286 C288 1.478 . S
C287 H281 0.930 . S
C287 C283 1.400 . S
C287 C286 1.385 . S
C288 C286 1.478 . S
C288 C290 1.381 . S
C288 C294 1.383 . S
C289 C285 1.495 . S
C289 H295 0.959 . S
C289 H296 0.961 . S
C289 H297 0.960 . S
C290 C288 1.381 . S
C290 C291 1.394 . S
C290 H298 0.930 . S
C291 C290 1.394 . S
C291 C292 1.383 . S
C291 H299 0.929 . S
C292 C291 1.383 . S
C292 C293 1.377 . S
C293 H277 0.930 . S
C293 C292 1.377 . S
C293 C294 1.379 . S
C294 H278 0.931 . S
C294 C288 1.383 . S
C294 C293 1.379 . S
H295 C289 0.959 . S
H296 C289 0.961 . S
H297 C289 0.960 . S
H298 C290 0.930 . S
H299 C291 0.929 . S
H300 C308 0.929 . S
H301 C310 0.930 . S
H302 C312 0.930 . S
H303 C315 0.929 . S
H304 C318 0.930 . S
H305 C320 0.960 . S
H306 C320 0.960 . S
H307 C320 0.960 . S
C308 H300 0.929 . S
C308 C309 1.403 . S
C308 C310 1.384 . S
C309 C308 1.403 . S
C309 C315 1.365 1_655 S
C310 H301 0.930 . S
C310 C308 1.384 . S
C310 C311 1.372 . S
C311 C310 1.372 . S
C311 C312 1.400 1_655 S
C311 C316 1.490 . S
C312 H302 0.930 . S
C312 C311 1.400 1_455 S
C312 C315 1.386 . S
H313 C329 0.930 . S
H314 C330 0.931 . S
C315 H303 0.929 . S
C315 C309 1.365 1_455 S
C315 C312 1.386 . S
C316 C311 1.490 . S
C316 C318 1.395 . S
C316 C319 1.403 1_655 S
H317 C323 0.930 . S
C318 H304 0.930 . S
C318 C316 1.395 . S
C318 C321 1.403 . S
C319 C316 1.403 1_455 S
C319 C320 1.524 . S
C319 C323 1.400 . S
C320 H305 0.960 . S
C320 H306 0.960 . S
C320 H307 0.960 . S
C320 C319 1.524 . S
C321 C318 1.403 . S
C321 C322 1.392 . S
C321 C325 1.495 . S
C322 C321 1.392 . S
C322 C323 1.385 1_655 S
C322 C324 1.478 . S
C323 H317 0.930 . S
C323 C319 1.400 . S
C323 C322 1.385 1_455 S
C324 C322 1.478 . S
C324 C326 1.381 . S
C324 C330 1.383 1_655 S
C325 C321 1.495 . S
C325 H331 0.959 . S
C325 H332 0.961 . S
C325 H333 0.960 . S
C326 C324 1.381 . S
C326 C327 1.394 . S
C326 H334 0.930 . S
C327 C326 1.394 . S
C327 C328 1.383 . S
C327 H335 0.929 . S
C328 C327 1.383 . S
C328 C329 1.377 1_655 S
C329 H313 0.930 . S
C329 C328 1.377 1_455 S
C329 C330 1.379 . S
C330 H314 0.931 . S
C330 C324 1.383 1_455 S
C330 C329 1.379 . S
H331 C325 0.959 . S
H332 C325 0.961 . S
H333 C325 0.960 . S
H334 C326 0.930 . S
H335 C327 0.929 . S
H336 C344 0.929 1_556 S
H337 C346 0.930 . S
H338 C348 0.930 . S
H339 C351 0.929 . S
H340 C354 0.930 . S
H341 C356 0.960 . S
H342 C356 0.960 . S
H343 C356 0.960 . S
C344 H336 0.929 1_554 S
C344 C345 1.377 . S
C344 C346 1.384 1_554 S
C345 C344 1.377 . S
C345 C351 1.390 . S
C346 H337 0.930 . S
C346 C344 1.384 1_556 S
C346 C347 1.372 . S
C347 C346 1.372 . S
C347 C348 1.400 1_556 S
C347 C352 1.490 . S
C348 H338 0.930 . S
C348 C347 1.400 1_554 S
C348 C351 1.386 . S
H349 C365 0.930 . S
H350 C366 0.931 . S
C351 H339 0.929 . S
C351 C345 1.390 . S
C351 C348 1.386 . S
C352 C347 1.490 . S
C352 C354 1.395 . S
C352 C355 1.403 . S
H353 C359 0.930 . S
C354 H340 0.930 . S
C354 C352 1.395 . S
C354 C357 1.403 . S
C355 C352 1.403 . S
C355 C356 1.524 . S
C355 C359 1.400 . S
C356 H341 0.960 . S
C356 H342 0.960 . S
C356 H343 0.960 . S
C356 C355 1.524 . S
C357 C354 1.403 . S
C357 C358 1.392 . S
C357 C361 1.495 1_565 S
C358 C357 1.392 . S
C358 C359 1.385 . S
C358 C360 1.478 . S
C359 H353 0.930 . S
C359 C355 1.400 . S
C359 C358 1.385 . S
C360 C358 1.478 . S
C360 C362 1.381 1_565 S
C360 C366 1.383 . S
C361 C357 1.495 1_545 S
C361 H367 0.959 . S
C361 H368 0.961 . S
C361 H369 0.960 . S
C362 C360 1.381 1_545 S
C362 C363 1.394 . S
C362 H370 0.930 . S
C363 C362 1.394 . S
C363 C364 1.372 1_545 S
C363 H371 0.929 . S
C364 C363 1.372 1_565 S
C364 C365 1.400 . S
C365 H349 0.930 . S
C365 C364 1.400 . S
C365 C366 1.379 . S
C366 H350 0.931 . S
C366 C360 1.383 . S
C366 C365 1.379 . S
H367 C361 0.959 . S
H368 C361 0.961 . S
H369 C361 0.960 . S
H370 C362 0.930 . S
H371 C363 0.929 . S
H372 C380 0.929 1_556 S
H373 C382 0.930 . S
H374 C384 0.930 . S
H375 C387 0.929 . S
H376 C390 0.930 . S
H377 C392 0.960 . S
H378 C392 0.960 . S
H379 C392 0.960 . S
C380 H372 0.929 1_554 S
C380 C381 1.377 . S
C380 C382 1.384 1_554 S
C381 C380 1.377 . S
C381 C387 1.390 . S
C382 H373 0.930 . S
C382 C380 1.384 1_556 S
C382 C383 1.372 1_556 S
C383 C382 1.372 1_554 S
C383 C384 1.400 . S
C383 C388 1.490 1_554 S
C384 H374 0.930 . S
C384 C383 1.400 . S
C384 C387 1.386 . S
H385 C401 0.930 . S
H386 C402 0.931 . S
C387 H375 0.929 . S
C387 C381 1.390 . S
C387 C384 1.386 . S
C388 C383 1.490 1_556 S
C388 C390 1.395 . S
C388 C391 1.403 . S
H389 C395 0.930 . S
C390 H376 0.930 . S
C390 C388 1.395 . S
C390 C393 1.403 . S
C391 C388 1.403 . S
C391 C392 1.524 1_556 S
C391 C395 1.400 . S
C392 H377 0.960 . S
C392 H378 0.960 . S
C392 H379 0.960 . S
C392 C391 1.524 1_554 S
C393 C390 1.403 . S
C393 C394 1.392 . S
C393 C397 1.495 . S
C394 C393 1.392 . S
C394 C395 1.385 . S
C394 C396 1.478 . S
C395 H389 0.930 . S
C395 C391 1.400 . S
C395 C394 1.385 . S
C396 C394 1.478 . S
C396 C398 1.381 . S
C396 C402 1.383 . S
C397 C393 1.495 . S
C397 H403 0.959 . S
C397 H404 0.961 . S
C397 H405 0.960 . S
C398 C396 1.381 . S
C398 C399 1.394 . S
C398 H406 0.930 . S
C399 C398 1.394 . S
C399 C400 1.383 . S
C399 H407 0.929 . S
C400 C399 1.383 . S
C400 C401 1.377 . S
C401 H385 0.930 . S
C401 C400 1.377 . S
C401 C402 1.379 . S
C402 H386 0.931 . S
C402 C396 1.383 . S
C402 C401 1.379 . S
H403 C397 0.959 . S
H404 C397 0.961 . S
H405 C397 0.960 . S
H406 C398 0.930 . S
H407 C399 0.929 . S
H408 C416 0.929 . S
H409 C418 0.930 1_556 S
H410 C420 0.930 . S
H411 C423 0.929 . S
H412 C426 0.930 1_554 S
H413 C428 0.960 . S
H414 C428 0.960 . S
H415 C428 0.960 1_554 S
C416 H408 0.929 . S
C416 C417 1.377 . S
C416 C418 1.384 . S
C417 C416 1.377 . S
C417 C423 1.390 . S
C418 H409 0.930 1_554 S
C418 C416 1.384 . S
C418 C419 1.372 . S
C419 C418 1.372 . S
C419 C420 1.400 . S
C419 C424 1.490 1_554 S
C420 H410 0.930 . S
C420 C419 1.400 . S
C420 C423 1.386 . S
H421 C437 0.930 . S
H422 C438 0.931 . S
C423 H411 0.929 . S
C423 C417 1.390 . S
C423 C420 1.386 . S
C424 C419 1.490 1_556 S
C424 C426 1.395 . S
C424 C427 1.403 . S
H425 C431 0.930 . S
C426 H412 0.930 1_556 S
C426 C424 1.395 . S
C426 C429 1.403 . S
C427 C424 1.403 . S
C427 C428 1.524 . S
C427 C431 1.400 . S
C428 H413 0.960 . S
C428 H414 0.960 . S
C428 H415 0.960 1_556 S
C428 C427 1.524 . S
C429 C426 1.403 . S
C429 C430 1.392 . S
C429 C433 1.495 . S
C430 C429 1.392 . S
C430 C431 1.385 . S
C430 C432 1.478 . S
C431 H425 0.930 . S
C431 C427 1.400 . S
C431 C430 1.385 . S
C432 C430 1.478 . S
C432 C434 1.381 . S
C432 C438 1.383 . S
C433 C429 1.495 . S
C433 H439 0.959 . S
C433 H440 0.961 . S
C433 H441 0.960 . S
C434 C432 1.381 . S
C434 C435 1.394 . S
C434 H442 0.930 . S
C435 C434 1.394 . S
C435 C436 1.383 . S
C435 H443 0.929 . S
C436 C435 1.383 . S
C436 C437 1.377 . S
C437 H421 0.930 . S
C437 C436 1.377 . S
C437 C438 1.379 . S
C438 H422 0.931 . S
C438 C432 1.383 . S
C438 C437 1.379 . S
H439 C433 0.959 . S
H440 C433 0.961 . S
H441 C433 0.960 . S
H442 C434 0.930 . S
H443 C435 0.929 . S
H444 C452 0.929 . S
H445 C454 0.930 . S
H446 C456 0.930 . S
H447 C459 0.929 . S
H448 C462 0.930 . S
H449 C464 0.960 . S
H450 C464 0.960 . S
H451 C464 0.960 . S
C452 H444 0.929 . S
C452 C453 1.376 1_655 S
C452 C454 1.384 . S
C453 C452 1.376 1_455 S
C453 C459 1.391 . S
C454 H445 0.930 . S
C454 C452 1.384 . S
C454 C455 1.372 1_655 S
C455 C454 1.372 1_455 S
C455 C456 1.400 . S
C455 C460 1.490 1_554 S
C456 H446 0.930 . S
C456 C455 1.400 . S
C456 C459 1.386 . S
H457 C473 0.930 . S
H458 C474 0.931 . S
C459 H447 0.929 . S
C459 C453 1.391 . S
C459 C456 1.386 . S
C460 C455 1.490 1_556 S
C460 C462 1.395 1_455 S
C460 C463 1.403 1_556 S
H461 C467 0.930 . S
C462 H448 0.930 . S
C462 C460 1.395 1_655 S
C462 C465 1.403 . S
C463 C460 1.403 1_554 S
C463 C464 1.524 . S
C463 C467 1.400 1_554 S
C464 H449 0.960 . S
C464 H450 0.960 . S
C464 H451 0.960 . S
C464 C463 1.524 . S
C465 C462 1.403 . S
C465 C466 1.392 1_655 S
C465 C469 1.495 . S
C466 C465 1.392 1_455 S
C466 C467 1.385 . S
C466 C468 1.478 . S
C467 H461 0.930 . S
C467 C463 1.400 1_556 S
C467 C466 1.385 . S
C468 C466 1.478 . S
C468 C470 1.381 1_455 S
C468 C474 1.383 . S
C469 C465 1.495 . S
C469 H475 0.959 . S
C469 H476 0.961 1_655 S
C469 H477 0.960 . S
C470 C468 1.381 1_655 S
C470 C471 1.394 . S
C470 H478 0.930 . S
C471 C470 1.394 . S
C471 C472 1.383 1_655 S
C471 H479 0.929 . S
C472 C471 1.383 1_455 S
C472 C473 1.377 . S
C473 H457 0.930 . S
C473 C472 1.377 . S
C473 C474 1.379 . S
C474 H458 0.931 . S
C474 C468 1.383 . S
C474 C473 1.379 . S
H475 C469 0.959 . S
H476 C469 0.961 1_455 S
H477 C469 0.960 . S
H478 C470 0.930 . S
H479 C471 0.929 . S
H480 C488 0.929 . S
H481 C490 0.930 . S
H482 C492 0.930 . S
H483 C495 0.929 . S
H484 C498 0.930 . S
H485 C500 0.960 . S
H486 C500 0.960 . S
H487 C500 0.960 . S
C488 H480 0.929 . S
C488 C489 1.377 . S
C488 C490 1.384 . S
C489 C488 1.377 . S
C489 C495 1.390 1_455 S
C490 H481 0.930 . S
C490 C488 1.384 . S
C490 C491 1.372 1_455 S
C491 C490 1.372 1_655 S
C491 C492 1.400 . S
C491 C496 1.490 . S
C492 H482 0.930 . S
C492 C491 1.400 . S
C492 C495 1.386 . S
H493 C509 0.930 . S
H494 C510 0.931 . S
C495 H483 0.929 . S
C495 C489 1.390 1_655 S
C495 C492 1.386 . S
C496 C491 1.490 . S
C496 C498 1.395 1_655 S
C496 C499 1.403 . S
H497 C503 0.930 . S
C498 H484 0.930 . S
C498 C496 1.395 1_455 S
C498 C501 1.403 . S
C499 C496 1.403 . S
C499 C500 1.524 . S
C499 C503 1.400 . S
C500 H485 0.960 . S
C500 H486 0.960 . S
C500 H487 0.960 . S
C500 C499 1.524 . S
C501 C498 1.403 . S
C501 C502 1.392 1_455 S
C501 C505 1.495 . S
C502 C501 1.392 1_655 S
C502 C503 1.385 . S
C502 C504 1.478 . S
C503 H497 0.930 . S
C503 C499 1.400 . S
C503 C502 1.385 . S
C504 C502 1.478 . S
C504 C506 1.381 1_655 S
C504 C510 1.383 . S
C505 C501 1.495 . S
C505 H511 0.959 . S
C505 H512 0.961 . S
C505 H513 0.960 . S
C506 C504 1.381 1_455 S
C506 C507 1.394 . S
C506 H514 0.930 . S
C507 C506 1.394 . S
C507 C508 1.383 1_455 S
C507 H515 0.929 . S
C508 C507 1.383 1_655 S
C508 C509 1.377 . S
C509 H493 0.930 . S
C509 C508 1.377 . S
C509 C510 1.379 . S
C510 H494 0.931 . S
C510 C504 1.383 . S
C510 C509 1.379 . S
H511 C505 0.959 . S
H512 C505 0.961 . S
H513 C505 0.960 . S
H514 C506 0.930 . S
H515 C507 0.929 . S
H516 C524 0.929 . S
H517 C526 0.930 . S
H518 C528 0.930 . S
H519 C531 0.929 . S
H520 C534 0.930 . S
H521 C536 0.960 . S
H522 C536 0.960 . S
H523 C536 0.960 . S
C524 H516 0.929 . S
C524 C525 1.377 . S
C524 C526 1.384 . S
C525 C524 1.377 . S
C525 C531 1.390 . S
C526 H517 0.930 . S
C526 C524 1.384 . S
C526 C527 1.372 . S
C527 C526 1.372 . S
C527 C528 1.400 . S
C527 C532 1.490 . S
C528 H518 0.930 . S
C528 C527 1.400 . S
C528 C531 1.386 . S
H529 C545 0.930 . S
H530 C546 0.931 . S
C531 H519 0.929 . S
C531 C525 1.390 . S
C531 C528 1.386 . S
C532 C527 1.490 . S
C532 C534 1.395 . S
C532 C535 1.403 . S
H533 C539 0.930 . S
C534 H520 0.930 . S
C534 C532 1.395 . S
C534 C537 1.403 . S
C535 C532 1.403 . S
C535 C536 1.524 . S
C535 C539 1.400 . S
C536 H521 0.960 . S
C536 H522 0.960 . S
C536 H523 0.960 . S
C536 C535 1.524 . S
C537 C534 1.403 . S
C537 C538 1.392 . S
C537 C541 1.477 1_545 S
C538 C537 1.392 . S
C538 C539 1.385 . S
C538 C540 1.478 . S
C539 H533 0.930 . S
C539 C535 1.400 . S
C539 C538 1.385 . S
C540 C538 1.478 . S
C540 C542 1.381 . S
C540 C546 1.383 . S
C541 C537 1.477 1_565 S
C541 H547 0.968 . S
C541 H548 0.964 . S
C541 H549 0.967 . S
C542 C540 1.381 . S
C542 C543 1.394 . S
C542 H550 0.930 . S
C543 C542 1.394 . S
C543 C544 1.383 . S
C543 H551 0.929 1_545 S
C544 C543 1.383 . S
C544 C545 1.377 . S
C545 H529 0.930 . S
C545 C544 1.377 . S
C545 C546 1.379 . S
C546 H530 0.931 . S
C546 C540 1.383 . S
C546 C545 1.379 . S
H547 C541 0.968 . S
H548 C541 0.964 . S
H549 C541 0.967 . S
H550 C542 0.930 . S
H551 C543 0.929 1_565 S
H552 C560 0.929 . S
H553 C562 0.930 . S
H554 C564 0.930 . S
H555 C567 0.929 . S
H556 C570 0.930 . S
H557 C572 0.960 . S
H558 C572 0.960 . S
H559 C572 0.960 . S
C560 H552 0.929 . S
C560 C561 1.377 . S
C560 C562 1.384 . S
C561 C560 1.377 . S
C561 C567 1.390 . S
C562 H553 0.930 . S
C562 C560 1.384 . S
C562 C563 1.372 . S
C563 C562 1.372 . S
C563 C564 1.400 . S
C563 C568 1.490 . S
C564 H554 0.930 . S
C564 C563 1.400 . S
C564 C567 1.386 . S
H565 C581 0.930 . S
H566 C582 0.931 . S
C567 H555 0.929 . S
C567 C561 1.390 . S
C567 C564 1.386 . S
C568 C563 1.490 . S
C568 C570 1.395 . S
C568 C571 1.403 . S
H569 C575 0.930 . S
C570 H556 0.930 . S
C570 C568 1.395 . S
C570 C573 1.403 . S
C571 C568 1.403 . S
C571 C572 1.524 . S
C571 C575 1.400 . S
C572 H557 0.960 . S
C572 H558 0.960 . S
C572 H559 0.960 . S
C572 C571 1.524 . S
C573 C570 1.403 . S
C573 C574 1.392 . S
C573 C577 1.495 . S
C574 C573 1.392 . S
C574 C575 1.385 . S
C574 C576 1.478 . S
C575 H569 0.930 . S
C575 C571 1.400 . S
C575 C574 1.385 . S
C576 C574 1.478 . S
C576 C578 1.381 . S
C576 C582 1.383 . S
C577 C573 1.495 . S
C577 H583 0.959 . S
C577 H584 0.961 . S
C577 H585 0.960 . S
C578 C576 1.381 . S
C578 C579 1.394 . S
C578 H586 0.930 . S
C579 C578 1.394 . S
C579 C580 1.383 . S
C579 H587 0.929 . S
C580 C579 1.383 . S
C580 C581 1.377 . S
C581 H565 0.930 . S
C581 C580 1.377 . S
C581 C582 1.379 . S
C582 H566 0.931 . S
C582 C576 1.383 . S
C582 C581 1.379 . S
H583 C577 0.959 . S
H584 C577 0.961 . S
H585 C577 0.960 . S
H586 C578 0.930 . S
H587 C579 0.929 . S
H588 C596 0.929 . S
H589 C598 0.930 . S
H590 C600 0.930 . S
H591 C603 0.929 . S
H592 C606 0.930 . S
H593 C608 0.960 . S
H594 C608 0.960 . S
H595 C608 0.960 . S
C596 H588 0.929 . S
C596 C597 1.377 . S
C596 C598 1.384 . S
C597 C596 1.377 . S
C597 C603 1.390 . S
C598 H589 0.930 . S
C598 C596 1.384 . S
C598 C599 1.372 . S
C599 C598 1.372 . S
C599 C600 1.400 . S
C599 C604 1.490 . S
C600 H590 0.930 . S
C600 C599 1.400 . S
C600 C603 1.386 . S
H601 C617 0.930 . S
H602 C618 0.931 . S
C603 H591 0.929 . S
C603 C597 1.390 . S
C603 C600 1.386 . S
C604 C599 1.490 . S
C604 C606 1.395 . S
C604 C607 1.403 . S
H605 C611 0.930 . S
C606 H592 0.930 . S
C606 C604 1.395 . S
C606 C609 1.403 . S
C607 C604 1.403 . S
C607 C608 1.524 . S
C607 C611 1.400 . S
C608 H593 0.960 . S
C608 H594 0.960 . S
C608 H595 0.960 . S
C608 C607 1.524 . S
C609 C606 1.403 . S
C609 C610 1.392 . S
C609 C613 1.495 . S
C610 C609 1.392 . S
C610 C611 1.385 . S
C610 C612 1.478 . S
C611 H605 0.930 . S
C611 C607 1.400 . S
C611 C610 1.385 . S
C612 C610 1.478 . S
C612 C614 1.381 . S
C612 C618 1.383 . S
C613 C609 1.495 . S
C613 H619 0.959 . S
C613 H620 0.961 . S
C613 H621 0.960 . S
C614 C612 1.381 . S
C614 C615 1.394 . S
C614 H622 0.930 . S
C615 C614 1.394 . S
C615 C616 1.383 . S
C615 H623 0.929 . S
C616 C615 1.383 . S
C616 C617 1.377 . S
C617 H601 0.930 . S
C617 C616 1.377 . S
C617 C618 1.379 . S
C618 H602 0.931 . S
C618 C612 1.383 . S
C618 C617 1.379 . S
H619 C613 0.959 . S
H620 C613 0.961 . S
H621 C613 0.960 . S
H622 C614 0.930 . S
H623 C615 0.929 . S
H624 C632 0.929 . S
H625 C634 0.930 . S
H626 C636 0.930 1_556 S
H627 C639 0.929 . S
H628 C642 0.930 . S
H629 C644 0.960 1_556 S
H630 C644 0.960 . S
H631 C644 0.960 1_556 S
C632 H624 0.929 . S
C632 C633 1.377 1_455 S
C632 C634 1.384 . S
C633 C632 1.377 1_655 S
C633 C639 1.390 . S
C634 H625 0.930 . S
C634 C632 1.384 . S
C634 C635 1.372 . S
C635 C634 1.372 . S
C635 C636 1.400 1_455 S
C635 C640 1.490 1_554 S
C636 H626 0.930 1_554 S
C636 C635 1.400 1_655 S
C636 C639 1.386 . S
H637 C653 0.930 1_655 S
H638 C654 0.931 1_655 S
C639 H627 0.929 . S
C639 C633 1.390 . S
C639 C636 1.386 . S
C640 C635 1.490 1_556 S
C640 C642 1.395 . S
C640 C643 1.403 1_455 S
H641 C647 0.930 . S
C642 H628 0.930 . S
C642 C640 1.395 . S
C642 C645 1.403 . S
C643 C640 1.403 1_655 S
C643 C644 1.524 1_556 S
C643 C647 1.400 . S
C644 H629 0.960 1_554 S
C644 H630 0.960 . S
C644 H631 0.960 1_554 S
C644 C643 1.524 1_554 S
C645 C642 1.403 . S
C645 C646 1.392 . S
C645 C649 1.495 . S
C646 C645 1.392 . S
C646 C647 1.385 1_455 S
C646 C648 1.478 . S
C647 H641 0.930 . S
C647 C643 1.400 . S
C647 C646 1.385 1_655 S
C648 C646 1.478 . S
C648 C650 1.381 . S
C648 C654 1.383 . S
C649 C645 1.495 . S
C649 H655 0.959 . S
C649 H656 0.961 . S
C649 H657 0.960 . S
C650 C648 1.381 . S
C650 C651 1.394 . S
C650 H658 0.930 . S
C651 C650 1.394 . S
C651 C652 1.383 . S
C651 H659 0.929 . S
C652 C651 1.383 . S
C652 C653 1.377 . S
C653 H637 0.930 1_455 S
C653 C652 1.377 . S
C653 C654 1.379 . S
C654 H638 0.931 1_455 S
C654 C648 1.383 . S
C654 C653 1.379 . S
H655 C649 0.959 . S
H656 C649 0.961 . S
H657 C649 0.960 . S
H658 C650 0.930 . S
H659 C651 0.929 . S
H660 C668 0.929 . S
H661 C670 0.930 . S
H662 C672 0.930 . S
H663 C675 0.929 . S
H664 C678 0.930 . S
H665 C680 0.960 1_545 S
H666 C680 0.960 . S
H667 C680 0.960 1_554 S
C668 H660 0.929 . S
C668 C669 1.377 1_556 S
C668 C670 1.384 . S
C669 C668 1.377 1_554 S
C669 C675 1.390 . S
C670 H661 0.930 . S
C670 C668 1.384 . S
C670 C671 1.372 . S
C671 C670 1.372 . S
C671 C672 1.400 1_556 S
C671 C676 1.490 . S
C672 H662 0.930 . S
C672 C671 1.400 1_554 S
C672 C675 1.386 . S
H673 C689 0.920 1_545 S
H674 C690 0.931 . S
C675 H663 0.929 . S
C675 C669 1.390 . S
C675 C672 1.386 . S
C676 C671 1.490 . S
C676 C678 1.395 . S
C676 C679 1.403 . S
H677 C683 0.930 1_545 S
C678 H664 0.930 . S
C678 C676 1.395 . S
C678 C681 1.403 . S
C679 C676 1.403 . S
C679 C680 1.524 . S
C679 C683 1.400 . S
C680 H665 0.960 1_565 S
C680 H666 0.960 . S
C680 H667 0.960 1_556 S
C680 C679 1.524 . S
C681 C678 1.403 . S
C681 C682 1.392 . S
C681 C685 1.495 . S
C682 C681 1.392 . S
C682 C683 1.385 . S
C682 C684 1.478 . S
C683 H677 0.930 1_565 S
C683 C679 1.400 . S
C683 C682 1.385 . S
C684 C682 1.478 . S
C684 C686 1.381 . S
C684 C690 1.383 . S
C685 C681 1.495 . S
C685 H691 0.959 . S
C685 H692 0.961 . S
C685 H693 0.960 . S
C686 C684 1.381 . S
C686 C687 1.394 . S
C686 H694 0.930 . S
C687 C686 1.394 . S
C687 C688 1.383 1_565 S
C687 H695 0.928 1_565 S
C688 C687 1.383 1_545 S
C688 C689 1.375 1_545 S
C689 H673 0.920 1_565 S
C689 C688 1.375 1_565 S
C689 C690 1.392 . S
C690 H674 0.931 . S
C690 C684 1.383 . S
C690 C689 1.392 . S
H691 C685 0.959 . S
H692 C685 0.961 . S
H693 C685 0.960 . S
H694 C686 0.930 . S
H695 C687 0.928 1_545 S
H696 C704 0.929 1_556 S
H697 C706 0.930 . S
H698 C708 0.930 . S
H699 C711 0.929 . S
H700 C714 0.930 . S
H701 C716 0.960 . S
H702 C716 0.960 1_556 S
H703 C716 0.960 . S
C704 H696 0.929 1_554 S
C704 C705 1.377 . S
C704 C706 1.384 1_554 S
C705 C704 1.377 . S
C705 C711 1.390 . S
C706 H697 0.930 . S
C706 C704 1.384 1_556 S
C706 C707 1.372 1_556 S
C707 C706 1.372 1_554 S
C707 C708 1.400 . S
C707 C712 1.490 1_554 S
C708 H698 0.930 . S
C708 C707 1.400 . S
C708 C711 1.386 . S
H709 C725 0.930 . S
H710 C726 0.931 . S
C711 H699 0.929 . S
C711 C705 1.390 . S
C711 C708 1.386 . S
C712 C707 1.490 1_556 S
C712 C714 1.395 . S
C712 C715 1.403 . S
H713 C719 0.930 . S
C714 H700 0.930 . S
C714 C712 1.395 . S
C714 C717 1.403 . S
C715 C712 1.403 . S
C715 C716 1.524 1_556 S
C715 C719 1.400 . S
C716 H701 0.960 . S
C716 H702 0.960 1_554 S
C716 H703 0.960 . S
C716 C715 1.524 1_554 S
C717 C714 1.403 . S
C717 C718 1.392 . S
C717 C721 1.495 . S
C718 C717 1.392 . S
C718 C719 1.385 . S
C718 C720 1.478 . S
C719 H713 0.930 . S
C719 C715 1.400 . S
C719 C718 1.385 . S
C720 C718 1.478 . S
C720 C722 1.381 . S
C720 C726 1.383 . S
C721 C717 1.495 . S
C721 H727 0.959 . S
C721 H728 0.961 . S
C721 H729 0.960 . S
C722 C720 1.381 . S
C722 C723 1.394 . S
C722 H730 0.930 . S
C723 C722 1.394 . S
C723 C724 1.383 . S
C723 H731 0.929 . S
C724 C723 1.383 . S
C724 C725 1.377 . S
C725 H709 0.930 . S
C725 C724 1.377 . S
C725 C726 1.379 . S
C726 H710 0.931 . S
C726 C720 1.383 . S
C726 C725 1.379 . S
H727 C721 0.959 . S
H728 C721 0.961 . S
H729 C721 0.960 . S
H730 C722 0.930 . S
H731 C723 0.929 . S
H732 C740 0.929 . S
H733 C742 0.930 . S
H734 C744 0.930 . S
H735 C747 0.929 . S
H736 C750 0.930 . S
H737 C752 0.960 . S
H738 C752 0.960 . S
H739 C752 0.960 . S
C740 H732 0.929 . S
C740 C741 1.377 . S
C740 C742 1.384 . S
C741 C740 1.377 . S
C741 C747 1.390 . S
C742 H733 0.930 . S
C742 C740 1.384 . S
C742 C743 1.372 . S
C743 C742 1.372 . S
C743 C744 1.400 . S
C743 C748 1.490 1_554 S
C744 H734 0.930 . S
C744 C743 1.400 . S
C744 C747 1.386 . S
H745 C761 0.930 . S
H746 C762 0.931 . S
C747 H735 0.929 . S
C747 C741 1.390 . S
C747 C744 1.386 . S
C748 C743 1.490 1_556 S
C748 C750 1.395 1_556 S
C748 C751 1.403 . S
H749 C755 0.930 . S
C750 H736 0.930 . S
C750 C748 1.395 1_554 S
C750 C753 1.403 1_554 S
C751 C748 1.403 . S
C751 C752 1.524 . S
C751 C755 1.400 . S
C752 H737 0.960 . S
C752 H738 0.960 . S
C752 H739 0.960 . S
C752 C751 1.524 . S
C753 C750 1.403 1_556 S
C753 C754 1.392 . S
C753 C757 1.495 1_556 S
C754 C753 1.392 . S
C754 C755 1.385 . S
C754 C756 1.478 . S
C755 H749 0.930 . S
C755 C751 1.400 . S
C755 C754 1.385 . S
C756 C754 1.478 . S
C756 C758 1.381 . S
C756 C762 1.383 . S
C757 C753 1.495 1_554 S
C757 H763 0.959 . S
C757 H764 0.961 . S
C757 H765 0.960 . S
C758 C756 1.381 . S
C758 C759 1.394 . S
C758 H766 0.930 . S
C759 C758 1.394 . S
C759 C760 1.383 . S
C759 H767 0.929 . S
C760 C759 1.383 . S
C760 C761 1.377 . S
C761 H745 0.930 . S
C761 C760 1.377 . S
C761 C762 1.379 . S
C762 H746 0.931 . S
C762 C756 1.383 . S
C762 C761 1.379 . S
H763 C757 0.959 . S
H764 C757 0.961 . S
H765 C757 0.960 . S
H766 C758 0.930 . S
H767 C759 0.929 . S
H768 C776 0.929 . S
H769 C778 0.930 . S
H770 C780 0.930 . S
H771 C783 0.929 . S
H772 C786 0.930 . S
H773 C788 0.960 . S
H774 C788 0.960 . S
H775 C788 0.960 . S
C776 H768 0.929 . S
C776 C777 1.387 . S
C776 C778 1.384 . S
C777 C776 1.387 . S
C777 C783 1.381 1_455 S
C778 H769 0.930 . S
C778 C776 1.384 . S
C778 C779 1.372 . S
C779 C778 1.372 . S
C779 C780 1.400 1_455 S
C779 C784 1.490 . S
C780 H770 0.930 . S
C780 C779 1.400 1_655 S
C780 C783 1.386 . S
H781 C797 0.930 . S
H782 C798 0.931 . S
C783 H771 0.929 . S
C783 C777 1.381 1_655 S
C783 C780 1.386 . S
C784 C779 1.490 . S
C784 C786 1.395 . S
C784 C787 1.403 1_455 S
H785 C791 0.930 . S
C786 H772 0.930 . S
C786 C784 1.395 . S
C786 C789 1.403 . S
C787 C784 1.403 1_655 S
C787 C788 1.524 . S
C787 C791 1.400 . S
C788 H773 0.960 . S
C788 H774 0.960 . S
C788 H775 0.960 . S
C788 C787 1.524 . S
C789 C786 1.403 . S
C789 C790 1.392 . S
C789 C793 1.495 . S
C790 C789 1.392 . S
C790 C791 1.385 1_455 S
C790 C792 1.478 . S
C791 H785 0.930 . S
C791 C787 1.400 . S
C791 C790 1.385 1_655 S
C792 C790 1.478 . S
C792 C794 1.381 1_554 S
C792 C798 1.383 . S
C793 C789 1.495 . S
C793 H799 0.959 . S
C793 H800 0.961 . S
C793 H801 0.960 . S
C794 C792 1.381 1_556 S
C794 C795 1.394 . S
C794 H802 0.930 . S
C795 C794 1.394 . S
C795 C796 1.383 . S
C795 H803 0.929 . S
C796 C795 1.383 . S
C796 C797 1.377 1_556 S
C797 H781 0.930 . S
C797 C796 1.377 1_554 S
C797 C798 1.379 . S
C798 H782 0.931 . S
C798 C792 1.383 . S
C798 C797 1.379 . S
H799 C793 0.959 . S
H800 C793 0.961 . S
H801 C793 0.960 . S
H802 C794 0.930 . S
H803 C795 0.929 . S
H804 C812 0.929 . S
H805 C814 0.930 . S
H806 C816 0.930 . S
H807 C819 0.929 . S
H808 C822 0.930 . S
H809 C824 0.960 . S
H810 C824 0.960 . S
H811 C824 0.960 . S
C812 H804 0.929 . S
C812 C813 1.377 . S
C812 C814 1.384 . S
C813 C812 1.377 . S
C813 C819 1.390 . S
C814 H805 0.930 . S
C814 C812 1.384 . S
C814 C815 1.372 . S
C815 C814 1.372 . S
C815 C816 1.400 . S
C815 C820 1.490 . S
C816 H806 0.930 . S
C816 C815 1.400 . S
C816 C819 1.386 . S
H817 C833 0.930 . S
H818 C834 0.931 . S
C819 H807 0.929 . S
C819 C813 1.390 . S
C819 C816 1.386 . S
C820 C815 1.490 . S
C820 C822 1.395 . S
C820 C823 1.403 . S
H821 C827 0.930 . S
C822 H808 0.930 . S
C822 C820 1.395 . S
C822 C825 1.403 . S
C823 C820 1.403 . S
C823 C824 1.524 . S
C823 C827 1.400 . S
C824 H809 0.960 . S
C824 H810 0.960 . S
C824 H811 0.960 . S
C824 C823 1.524 . S
C825 C822 1.403 . S
C825 C826 1.392 . S
C825 C829 1.495 . S
C826 C825 1.392 . S
C826 C827 1.385 . S
C826 C828 1.478 . S
C827 H821 0.930 . S
C827 C823 1.400 . S
C827 C826 1.385 . S
C828 C826 1.478 . S
C828 C830 1.381 . S
C828 C834 1.383 . S
C829 C825 1.495 . S
C829 H835 0.959 . S
C829 H836 0.961 . S
C829 H837 0.960 . S
C830 C828 1.381 . S
C830 C831 1.394 . S
C830 H838 0.930 . S
C831 C830 1.394 . S
C831 C832 1.383 1_554 S
C831 H839 0.929 1_554 S
C832 C831 1.383 1_556 S
C832 C833 1.377 1_556 S
C833 H817 0.930 . S
C833 C832 1.377 1_554 S
C833 C834 1.379 . S
C834 H818 0.931 . S
C834 C828 1.383 . S
C834 C833 1.379 . S
H835 C829 0.959 . S
H836 C829 0.961 . S
H837 C829 0.960 . S
H838 C830 0.930 . S
H839 C831 0.929 1_556 S
H840 C848 0.929 . S
H841 C850 0.930 . S
H842 C852 0.930 . S
H843 C855 0.929 . S
H844 C858 0.930 . S
H845 C860 0.960 . S
H846 C860 0.960 . S
H847 C860 0.960 . S
C848 H840 0.929 . S
C848 C849 1.377 . S
C848 C850 1.384 . S
C849 C848 1.377 . S
C849 C855 1.390 . S
C850 H841 0.930 . S
C850 C848 1.384 . S
C850 C851 1.372 . S
C851 C850 1.372 . S
C851 C852 1.400 . S
C851 C856 1.490 . S
C852 H842 0.930 . S
C852 C851 1.400 . S
C852 C855 1.386 . S
H853 C869 0.930 . S
H854 C870 0.931 . S
C855 H843 0.929 . S
C855 C849 1.390 . S
C855 C852 1.386 . S
C856 C851 1.490 . S
C856 C858 1.395 . S
C856 C859 1.403 . S
H857 C863 0.930 . S
C858 H844 0.930 . S
C858 C856 1.395 . S
C858 C861 1.403 . S
C859 C856 1.403 . S
C859 C860 1.524 . S
C859 C863 1.400 . S
C860 H845 0.960 . S
C860 H846 0.960 . S
C860 H847 0.960 . S
C860 C859 1.524 . S
C861 C858 1.403 . S
C861 C862 1.392 . S
C861 C865 1.495 . S
C862 C861 1.392 . S
C862 C863 1.385 . S
C862 C864 1.478 . S
C863 H857 0.930 . S
C863 C859 1.400 . S
C863 C862 1.385 . S
C864 C862 1.478 . S
C864 C866 1.381 . S
C864 C870 1.383 1_554 S
C865 C861 1.495 . S
C865 H871 0.959 . S
C865 H872 0.961 . S
C865 H873 0.960 . S
C866 C864 1.381 . S
C866 C867 1.394 1_554 S
C866 H874 0.930 . S
C867 C866 1.394 1_556 S
C867 C868 1.383 . S
C867 H875 0.929 . S
C868 C867 1.383 . S
C868 C869 1.377 . S
C869 H853 0.930 . S
C869 C868 1.377 . S
C869 C870 1.379 . S
C870 H854 0.931 . S
C870 C864 1.383 1_556 S
C870 C869 1.379 . S
H871 C865 0.959 . S
H872 C865 0.961 . S
H873 C865 0.960 . S
H874 C866 0.930 . S
H875 C867 0.929 . S
H876 C884 0.929 . S
H877 C886 0.930 . S
H878 C888 0.930 . S
H879 C891 0.929 . S
H880 C894 0.930 . S
H881 C896 0.960 . S
H882 C896 0.960 . S
H883 C896 0.960 . S
C884 H876 0.929 . S
C884 C885 1.377 . S
C884 C886 1.384 . S
C885 C884 1.377 . S
C885 C891 1.390 . S
C886 H877 0.930 . S
C886 C884 1.384 . S
C886 C887 1.372 . S
C887 C886 1.372 . S
C887 C888 1.400 . S
C887 C892 1.490 . S
C888 H878 0.930 . S
C888 C887 1.400 . S
C888 C891 1.386 . S
H889 C905 0.930 . S
H890 C906 0.931 1_554 S
C891 H879 0.929 . S
C891 C885 1.390 . S
C891 C888 1.386 . S
C892 C887 1.490 . S
C892 C894 1.395 . S
C892 C895 1.403 . S
H893 C899 0.930 . S
C894 H880 0.930 . S
C894 C892 1.395 . S
C894 C897 1.403 . S
C895 C892 1.403 . S
C895 C896 1.524 . S
C895 C899 1.400 . S
C896 H881 0.960 . S
C896 H882 0.960 . S
C896 H883 0.960 . S
C896 C895 1.524 . S
C897 C894 1.403 . S
C897 C898 1.392 . S
C897 C901 1.495 1_554 S
C898 C897 1.392 . S
C898 C899 1.385 . S
C898 C900 1.478 1_554 S
C899 H893 0.930 . S
C899 C895 1.400 . S
C899 C898 1.385 . S
C900 C898 1.478 1_556 S
C900 C902 1.381 . S
C900 C906 1.383 . S
C901 C897 1.495 1_556 S
C901 H907 0.959 . S
C901 H908 0.961 . S
C901 H909 0.960 . S
C902 C900 1.381 . S
C902 C903 1.394 . S
C902 H910 0.930 . S
C903 C902 1.394 . S
C903 C904 1.383 . S
C903 H911 0.929 . S
C904 C903 1.383 . S
C904 C905 1.377 . S
C905 H889 0.930 . S
C905 C904 1.377 . S
C905 C906 1.379 . S
C906 H890 0.931 1_556 S
C906 C900 1.383 . S
C906 C905 1.379 . S
H907 C901 0.959 . S
H908 C901 0.961 . S
H909 C901 0.960 . S
H910 C902 0.930 . S
H911 C903 0.929 . S
H912 C920 0.929 . S
H913 C922 0.930 . S
H914 C924 0.930 . S
H915 C927 0.929 . S
H916 C930 0.930 . S
H917 C932 0.960 . S
H918 C932 0.960 . S
H919 C932 0.960 1_455 S
C920 H912 0.929 . S
C920 C921 1.421 . S
C920 C922 1.384 . S
C921 C920 1.421 . S
C921 C927 1.348 1_655 S
C922 H913 0.930 . S
C922 C920 1.384 . S
C922 C923 1.372 . S
C923 C922 1.372 . S
C923 C924 1.400 1_655 S
C923 C928 1.490 . S
C924 H914 0.930 . S
C924 C923 1.400 1_455 S
C924 C927 1.386 . S
H925 C941 0.930 . S
H926 C942 0.931 . S
C927 H915 0.929 . S
C927 C921 1.348 1_455 S
C927 C924 1.386 . S
C928 C923 1.490 . S
C928 C930 1.395 . S
C928 C931 1.403 . S
H929 C935 0.930 . S
C930 H916 0.930 . S
C930 C928 1.395 . S
C930 C933 1.403 . S
C931 C928 1.403 . S
C931 C932 1.524 . S
C931 C935 1.400 . S
C932 H917 0.960 . S
C932 H918 0.960 . S
C932 H919 0.960 1_655 S
C932 C931 1.524 . S
C933 C930 1.403 . S
C933 C934 1.392 . S
C933 C937 1.495 . S
C934 C933 1.392 . S
C934 C935 1.385 . S
C934 C936 1.478 . S
C935 H929 0.930 . S
C935 C931 1.400 . S
C935 C934 1.385 . S
C936 C934 1.478 . S
C936 C938 1.381 . S
C936 C942 1.383 1_655 S
C937 C933 1.495 . S
C937 H943 0.959 . S
C937 H944 1.001 . S
C937 H945 0.960 . S
C938 C936 1.381 . S
C938 C939 1.394 . S
C938 H946 0.930 . S
C939 C938 1.394 . S
C939 C940 1.383 . S
C939 H947 0.929 . S
C940 C939 1.383 . S
C940 C941 1.377 1_655 S
C941 H925 0.930 . S
C941 C940 1.377 1_455 S
C941 C942 1.379 . S
C942 H926 0.931 . S
C942 C936 1.383 1_455 S
C942 C941 1.379 . S
H943 C937 0.959 . S
H944 C937 1.001 . S
H945 C937 0.960 . S
H946 C938 0.930 . S
H947 C939 0.929 . S
H948 C956 0.929 . S
H949 C958 0.930 . S
H950 C960 0.930 . S
H951 C963 0.929 . S
H952 C966 0.930 . S
H953 C968 0.960 . S
H954 C968 0.960 . S
H955 C968 0.960 . S
C956 H948 0.929 . S
C956 C957 1.377 . S
C956 C958 1.384 . S
C957 C956 1.377 . S
C957 C963 1.390 . S
C958 H949 0.930 . S
C958 C956 1.384 . S
C958 C959 1.372 . S
C959 C958 1.372 . S
C959 C960 1.400 . S
C959 C964 1.490 . S
C960 H950 0.930 . S
C960 C959 1.400 . S
C960 C963 1.386 . S
H961 C977 0.930 . S
H962 C978 0.931 . S
C963 H951 0.929 . S
C963 C957 1.390 . S
C963 C960 1.386 . S
C964 C959 1.490 . S
C964 C966 1.395 . S
C964 C967 1.403 . S
H965 C971 0.930 . S
C966 H952 0.930 . S
C966 C964 1.395 . S
C966 C969 1.403 . S
C967 C964 1.403 . S
C967 C968 1.524 . S
C967 C971 1.400 . S
C968 H953 0.960 . S
C968 H954 0.960 . S
C968 H955 0.960 . S
C968 C967 1.524 . S
C969 C966 1.403 . S
C969 C970 1.392 . S
C969 C973 1.495 . S
C970 C969 1.392 . S
C970 C971 1.385 . S
C970 C972 1.478 . S
C971 H965 0.930 . S
C971 C967 1.400 . S
C971 C970 1.385 . S
C972 C970 1.478 . S
C972 C974 1.381 . S
C972 C978 1.383 . S
C973 C969 1.495 . S
C973 H979 0.959 . S
C973 H980 0.961 . S
C973 H981 0.960 . S
C974 C972 1.381 . S
C974 C975 1.394 . S
C974 H982 0.930 . S
C975 C974 1.394 . S
C975 C976 1.383 . S
C975 H983 0.929 1_565 S
C976 C975 1.383 . S
C976 C977 1.377 . S
C977 H961 0.930 . S
C977 C976 1.377 . S
C977 C978 1.379 . S
C978 H962 0.931 . S
C978 C972 1.383 . S
C978 C977 1.379 . S
H979 C973 0.959 . S
H980 C973 0.961 . S
H981 C973 0.960 . S
H982 C974 0.930 . S
H983 C975 0.929 1_545 S
H984 C992 0.929 . S
H985 C994 0.930 . S
H986 C996 0.930 . S
H987 C999 0.929 . S
H988 C1002 0.930 . S
H989 C1004 0.960 . S
H990 C1004 0.960 . S
H991 C1004 0.960 . S
C992 H984 0.929 . S
C992 C993 1.377 . S
C992 C994 1.384 . S
C993 C992 1.377 . S
C993 C999 1.390 . S
C994 H985 0.930 . S
C994 C992 1.384 . S
C994 C995 1.372 . S
C995 C994 1.372 . S
C995 C996 1.400 . S
C995 C1000 1.490 . S
C996 H986 0.930 . S
C996 C995 1.400 . S
C996 C999 1.386 . S
H997 C1013 0.930 . S
H998 C1014 0.931 . S
C999 H987 0.929 . S
C999 C993 1.390 . S
C999 C996 1.386 . S
C1000 C995 1.490 . S
C1000 C1002 1.395 . S
C1000 C1003 1.403 . S
H1001 C1007 0.930 . S
C1002 H988 0.930 . S
C1002 C1000 1.395 . S
C1002 C1005 1.403 . S
C1003 C1000 1.403 . S
C1003 C1004 1.524 . S
C1003 C1007 1.400 . S
C1004 H989 0.960 . S
C1004 H990 0.960 . S
C1004 H991 0.960 . S
C1004 C1003 1.524 . S
C1005 C1002 1.403 . S
C1005 C1006 1.392 . S
C1005 C1009 1.495 . S
C1006 C1005 1.392 . S
C1006 C1007 1.385 . S
C1006 C1008 1.478 . S
C1007 H1001 0.930 . S
C1007 C1003 1.400 . S
C1007 C1006 1.385 . S
C1008 C1006 1.478 . S
C1008 C1010 1.381 . S
C1008 C1014 1.383 . S
C1009 C1005 1.495 . S
C1009 H1015 0.959 . S
C1009 H1016 0.961 . S
C1009 H1017 0.960 . S
C1010 C1008 1.381 . S
C1010 C1011 1.394 . S
C1010 H1018 0.930 . S
C1011 C1010 1.394 . S
C1011 C1012 1.383 . S
C1011 H1019 0.929 . S
C1012 C1011 1.383 . S
C1012 C1013 1.377 . S
C1013 H997 0.930 . S
C1013 C1012 1.377 . S
C1013 C1014 1.379 . S
C1014 H998 0.931 . S
C1014 C1008 1.383 . S
C1014 C1013 1.379 . S
H1015 C1009 0.959 . S
H1016 C1009 0.961 . S
H1017 C1009 0.960 . S
H1018 C1010 0.930 . S
H1019 C1011 0.929 . S
H1020 C1028 0.929 . S
H1021 C1030 0.930 . S
H1022 C1032 0.930 . S
H1023 C1035 0.929 . S
H1024 C1038 0.930 . S
H1025 C1040 0.960 . S
H1026 C1040 0.960 . S
H1027 C1040 0.960 . S
C1028 H1020 0.929 . S
C1028 C1029 1.377 . S
C1028 C1030 1.384 . S
C1029 C1028 1.377 . S
C1029 C1035 1.390 . S
C1030 H1021 0.930 . S
C1030 C1028 1.384 . S
C1030 C1031 1.372 . S
C1031 C1030 1.372 . S
C1031 C1032 1.400 . S
C1031 C1036 1.490 . S
C1032 H1022 0.930 . S
C1032 C1031 1.400 . S
C1032 C1035 1.386 . S
H1033 C1049 0.930 . S
H1034 C1050 0.931 . S
C1035 H1023 0.929 . S
C1035 C1029 1.390 . S
C1035 C1032 1.386 . S
C1036 C1031 1.490 . S
C1036 C1038 1.395 . S
C1036 C1039 1.403 . S
H1037 C1043 0.930 . S
C1038 H1024 0.930 . S
C1038 C1036 1.395 . S
C1038 C1041 1.403 . S
C1039 C1036 1.403 . S
C1039 C1040 1.524 . S
C1039 C1043 1.400 . S
C1040 H1025 0.960 . S
C1040 H1026 0.960 . S
C1040 H1027 0.960 . S
C1040 C1039 1.524 . S
C1041 C1038 1.403 . S
C1041 C1042 1.392 . S
C1041 C1045 1.495 . S
C1042 C1041 1.392 . S
C1042 C1043 1.385 . S
C1042 C1044 1.478 . S
C1043 H1037 0.930 . S
C1043 C1039 1.400 . S
C1043 C1042 1.385 . S
C1044 C1042 1.478 . S
C1044 C1046 1.381 . S
C1044 C1050 1.383 . S
C1045 C1041 1.495 . S
C1045 H1051 0.959 . S
C1045 H1052 0.961 . S
C1045 H1053 0.960 . S
C1046 C1044 1.381 . S
C1046 C1047 1.394 . S
C1046 H1054 0.930 . S
C1047 C1046 1.394 . S
C1047 C1048 1.383 . S
C1047 H1055 0.929 . S
C1048 C1047 1.383 . S
C1048 C1049 1.377 . S
C1049 H1033 0.930 . S
C1049 C1048 1.377 . S
C1049 C1050 1.379 . S
C1050 H1034 0.931 . S
C1050 C1044 1.383 . S
C1050 C1049 1.379 . S
H1051 C1045 0.959 . S
H1052 C1045 0.961 . S
H1053 C1045 0.960 . S
H1054 C1046 0.930 . S
H1055 C1047 0.929 . S
C201 C61 1.623 . S
C220 C82 1.630 . S
C256 C112 1.652 . S
C237 C70 1.643 . S
C292 N146 1.440 . S
C273 C43 1.473 . S
C328 N176 1.188 . S
C309 C52 1.199 . S
C364 C73 1.646 1_565 S
C345 C25 1.632 . S
C381 C34 1.641 . S
C400 C103 1.652 . S
C417 C7 1.476 . S
C436 N138 1.442 . S
C453 C16 1.200 1_455 S
C472 N168 1.203 . S
C508 C88 0.479 . S
C489 C50 0.487 1_455 S
C544 C118 0.329 . S
C525 C59 0.405 . S
C580 C159 0.367 . S
C561 C67 0.399 . S
C597 C41 0.361 . S
C616 C189 0.243 . S
C633 C14 0.487 . S
C652 C99 0.555 . S
C688 C129 0.159 . S
C669 C23 0.366 . S
C724 C148 0.367 . S
C705 C31 0.415 . S
C741 C5 0.370 . S
C760 C178 0.319 . S
C777 C49 1.332 1_455 S
C796 N78 1.342 . S
C813 C58 1.462 . S
C832 N108 1.450 . S
C868 C133 1.589 . S
C849 C68 1.548 . S
C904 C163 1.758 . S
C885 C40 1.701 . S
C921 C13 1.323 . S
C940 N86 1.335 . S
C976 N116 1.448 . S
C957 C22 1.460 . S
C1012 C142 1.590 . S
C993 C32 1.559 . S
C1029 C4 1.709 . S
C1048 C172 1.762 . S
