# Generated by pormake.
# Topology zzz, (3,6)-cn, num edge types: 1
# Building blocks:
#     Node 0, Type 0, BuildingBlock: CUQRIR_clean_linker_1, # of connection points: 3
#     Node 1, Type 0, BuildingBlock: CUQRIR_clean_linker_1, # of connection points: 3
#     Node 2, Type 0, BuildingBlock: CUQRIR_clean_linker_1, # of connection points: 3
#     Node 3, Type 0, BuildingBlock: CUQRIR_clean_linker_1, # of connection points: 3
#     Node 4, Type 0, BuildingBlock: CUQRIR_clean_linker_1, # of connection points: 3
#     Node 5, Type 0, BuildingBlock: CUQRIR_clean_linker_1, # of connection points: 3
#     Node 6, Type 0, BuildingBlock: CUQRIR_clean_linker_1, # of connection points: 3
#     Node 7, Type 0, BuildingBlock: CUQRIR_clean_linker_1, # of connection points: 3
#     Node 8, Type 1, BuildingBlock: BETFAJ_clean_sbu_0, # of connection points: 6
#     Node 9, Type 1, BuildingBlock: BETFAJ_clean_sbu_0, # of connection points: 6
#     Node 10, Type 1, BuildingBlock: BETFAJ_clean_sbu_0, # of connection points: 6
#     Node 11, Type 1, BuildingBlock: BETFAJ_clean_sbu_0, # of connection points: 6
#     Edge 12, Type (0, 1), BuildingBlock: AJUNOK_clean_linker_0, # of connection points: 2
#     Edge 13, Type (0, 1), BuildingBlock: AJUNOK_clean_linker_0, # of connection points: 2
#     Edge 14, Type (0, 1), BuildingBlock: AJUNOK_clean_linker_0, # of connection points: 2
#     Edge 15, Type (0, 1), BuildingBlock: AJUNOK_clean_linker_0, # of connection points: 2
#     Edge 16, Type (0, 1), BuildingBlock: AJUNOK_clean_linker_0, # of connection points: 2
#     Edge 17, Type (0, 1), BuildingBlock: AJUNOK_clean_linker_0, # of connection points: 2
#     Edge 18, Type (0, 1), BuildingBlock: AJUNOK_clean_linker_0, # of connection points: 2
#     Edge 19, Type (0, 1), BuildingBlock: AJUNOK_clean_linker_0, # of connection points: 2
#     Edge 20, Type (0, 1), BuildingBlock: AJUNOK_clean_linker_0, # of connection points: 2
#     Edge 21, Type (0, 1), BuildingBlock: AJUNOK_clean_linker_0, # of connection points: 2
#     Edge 22, Type (0, 1), BuildingBlock: AJUNOK_clean_linker_0, # of connection points: 2
#     Edge 23, Type (0, 1), BuildingBlock: AJUNOK_clean_linker_0, # of connection points: 2
#     Edge 24, Type (0, 1), BuildingBlock: AJUNOK_clean_linker_0, # of connection points: 2
#     Edge 25, Type (0, 1), BuildingBlock: AJUNOK_clean_linker_0, # of connection points: 2
#     Edge 26, Type (0, 1), BuildingBlock: AJUNOK_clean_linker_0, # of connection points: 2
#     Edge 27, Type (0, 1), BuildingBlock: AJUNOK_clean_linker_0, # of connection points: 2
#     Edge 28, Type (0, 1), BuildingBlock: AJUNOK_clean_linker_0, # of connection points: 2
#     Edge 29, Type (0, 1), BuildingBlock: AJUNOK_clean_linker_0, # of connection points: 2
#     Edge 30, Type (0, 1), BuildingBlock: AJUNOK_clean_linker_0, # of connection points: 2
#     Edge 31, Type (0, 1), BuildingBlock: AJUNOK_clean_linker_0, # of connection points: 2
#     Edge 32, Type (0, 1), BuildingBlock: AJUNOK_clean_linker_0, # of connection points: 2
#     Edge 33, Type (0, 1), BuildingBlock: AJUNOK_clean_linker_0, # of connection points: 2
#     Edge 34, Type (0, 1), BuildingBlock: AJUNOK_clean_linker_0, # of connection points: 2
#     Edge 35, Type (0, 1), BuildingBlock: AJUNOK_clean_linker_0, # of connection points: 2
# Relax obj value: 0.449
# Max RMSD: 0.222
# Mean RMSD: 0.156
data_MOF--net-zzz--node1-BETFAJ_clean_sbu_0--node2-CUQRIR_clean_linker_1--edge1-AJUNOK_clean_linker_0
_symmetry_space_group_name_H-M    P1
_symmetry_Int_Tables_number       1
_symmetry_cell_setting            triclinic
loop_
_symmetry_equiv_pos_as_xyz
'x, y, z'
_cell_length_a     34.602951
_cell_length_b     34.672419
_cell_length_c     8.9410244
_cell_angle_alpha  89.679025
_cell_angle_beta   90.007586
_cell_angle_gamma 90.134401
loop_
_atom_site_label
_atom_site_type_symbol
_atom_site_fract_x
_atom_site_fract_y
_atom_site_fract_z
_atom_type_partial_charge
C0 C 0.75767 0.54147 0.50054 0.0
N1 N 0.79681 0.5376 0.47804 0.0
N2 N 0.73837 0.54617 0.36637 0.0
C3 C 0.73835 0.53762 0.64945 0.0
C4 C 0.76755 0.54659 0.26658 0.0
N5 N 0.80128 0.53761 0.33104 0.0
C6 C 0.76344 0.55328 0.10028 0.0
H7 H 0.73468 0.50652 0.67606 0.0
H8 H 0.70943 0.55139 0.64754 0.0
H9 H 0.75667 0.5506 0.73785 0.0
H10 H 0.73613 0.56845 0.07266 0.0
H11 H 0.76446 0.52539 0.04031 0.0
H12 H 0.78829 0.57068 0.05938 0.0
C13 C 1.01427 0.76156 0.42917 0.0
N14 N 0.04109 0.7883 0.47521 0.0
N15 N 1.03117 0.73227 0.34968 0.0
C16 C 0.97166 0.76542 0.45223 0.0
C17 C 0.06873 0.74267 0.34732 0.0
N18 N 0.0748 0.77597 0.42196 0.0
C19 C 0.09881 0.72229 0.25575 0.0
H20 H 0.96567 0.77951 0.56093 0.0
H21 H 0.95738 0.73675 0.44782 0.0
H22 H 0.95962 0.78385 0.3618 0.0
H23 H 0.09316 0.69098 0.25844 0.0
H24 H 0.12843 0.72898 0.29552 0.0
H25 H 0.09636 0.73095 0.13673 0.0
C26 C 0.80104 1.01359 0.46269 0.0
N27 N 0.77438 0.04064 0.50708 0.0
N28 N 0.82897 1.02964 0.37217 0.0
C29 C 0.79821 0.97132 0.49566 0.0
C30 C 0.81769 0.06679 0.36056 0.0
N31 N 0.78523 0.07335 0.43997 0.0
C32 C 0.83276 0.09447 0.24338 0.0
H33 H 0.82755 0.95871 0.50609 0.0
H34 H 0.78334 0.95694 0.40114 0.0
H35 H 0.78145 0.96595 0.59948 0.0
H36 H 0.81556 0.09098 0.1395 0.0
H37 H 0.86338 0.08859 0.21636 0.0
H38 H 0.82944 0.12472 0.28082 0.0
C39 C 0.53364 0.80248 0.46205 0.0
N40 N 0.51797 0.76606 0.45462 0.0
N41 N 0.53207 0.82095 0.32522 0.0
C42 C 0.54954 0.82019 0.60138 0.0
C43 C 0.51732 0.79339 0.23568 0.0
N44 N 0.50587 0.76249 0.3146 0.0
C45 C 0.51927 0.79375 0.06672 0.0
H46 H 0.54018 0.85071 0.60936 0.0
H47 H 0.58156 0.8199 0.59571 0.0
H48 H 0.54008 0.80393 0.70217 0.0
H49 H 0.53399 0.76721 0.02818 0.0
H50 H 0.53567 0.81886 1.02256 0.0
H51 H 0.48971 0.79336 1.01861 0.0
C52 C 0.29621 0.51323 0.31103 0.0
N53 N 0.27171 0.54124 0.25805 0.0
N54 N 0.32557 0.52878 0.39428 0.0
C55 C 0.28955 0.47084 0.29397 0.0
C56 C 0.31745 0.56677 0.39322 0.0
N57 N 0.28557 0.57448 0.31049 0.0
C58 C 0.33709 0.59524 0.4949 0.0
H59 H 0.27292 0.46016 0.39195 0.0
H60 H 0.31757 0.45534 0.29098 0.0
H61 H 0.27265 0.4648 0.19121 0.0
H62 H 0.36806 0.58832 0.50627 0.0
H63 H 0.32471 0.59255 0.6089 0.0
H64 H 0.33318 0.62529 0.45486 0.0
C65 C 0.04741 0.29056 0.28832 0.0
N66 N 1.02047 0.265 0.23489 0.0
N67 N 1.03028 0.32098 0.35973 0.0
C68 C 0.09013 0.28428 0.28197 0.0
C69 C 0.99223 0.31258 0.3489 0.0
N70 N 0.98624 0.27923 0.27441 0.0
C71 C 0.96072 0.33426 0.42852 0.0
H72 H 0.09911 0.26752 0.38212 0.0
H73 H 0.10567 0.31232 0.28252 0.0
H74 H 0.09794 0.2676 0.18082 0.0
H75 H 0.97081 0.36264 0.46751 0.0
H76 H 0.95131 0.31807 0.52926 0.0
H77 H 0.93531 0.33746 0.35377 0.0
C78 C 0.26864 0.04108 0.30905 0.0
N79 N 0.29579 1.01423 0.26886 0.0
N80 N 0.23968 1.0249 0.39376 0.0
C81 C 0.27192 0.08327 0.27552 0.0
C82 C 0.25056 0.98766 0.40517 0.0
N83 N 0.28376 0.98104 0.32949 0.0
C84 C 0.23091 0.95873 0.50615 0.0
H85 H 0.29154 0.09665 0.35868 0.0
H86 H 0.24323 0.09739 0.28265 0.0
H87 H 0.28458 0.0878 0.16271 0.0
H88 H 0.19954 0.96451 0.51265 0.0
H89 H 0.24247 0.96171 0.62123 0.0
H90 H 0.23608 0.92881 0.46785 0.0
C91 C 0.51608 0.2695 0.31541 0.0
N92 N 0.54275 0.29662 0.27172 0.0
N93 N 0.53266 0.24114 0.40129 0.0
C94 C 0.47367 0.27248 0.28519 0.0
C95 C 0.57004 0.25233 0.40899 0.0
N96 N 0.57628 0.28513 0.33004 0.0
C97 C 0.59977 0.23344 0.50778 0.0
H98 H 0.46067 0.29253 0.36722 0.0
H99 H 0.45946 0.24389 0.29658 0.0
H100 H 0.4687 0.28445 0.17141 0.0
H101 H 0.62898 0.2358 0.45744 0.0
H102 H 0.59216 0.20306 0.52962 0.0
H103 H 0.60029 0.24786 0.61804 0.0
Sm104 Sm 0.05214 1.01664 0.98254 0.0
Sm105 Sm 1.00931 0.03399 0.75848 0.0
C106 C 0.08815 0.99341 0.22775 0.0
C107 C 0.11745 0.96726 0.2855 0.0
C108 C 0.11165 0.95137 0.42715 0.0
C109 C 0.13306 0.91968 0.47222 0.0
C110 C 0.16021 0.90327 0.37378 0.0
C111 C 0.17184 0.92486 0.24753 0.0
C112 C 0.14951 0.95613 0.20027 0.0
C113 C 0.10135 0.04274 0.75392 0.0
C114 C 0.03437 0.94507 0.74479 0.0
C115 C 0.97315 0.05722 0.51377 0.0
C116 C 0.94487 0.0842 0.45467 0.0
C117 C 0.91532 0.09938 0.54358 0.0
C118 C 0.89482 0.13151 0.49294 0.0
C119 C 0.90519 0.14934 0.35658 0.0
C120 C 0.93036 0.12982 0.25924 0.0
C121 C 0.95002 0.09744 0.30863 0.0
C122 C 0.96083 1.00884 0.99302 0.0
C123 C 1.02688 0.10598 0.98957 0.0
O124 O 0.05601 0.9779 0.18049 0.0
O125 O 0.10005 1.02185 0.14422 0.0
O126 O 0.07366 1.01893 0.73732 0.0
O127 O 0.10115 0.05512 0.88964 0.0
O128 O 0.04315 0.95278 0.88629 0.0
O129 O 1.02535 0.97467 0.6602 0.0
O130 O 1.00605 0.07174 0.55779 0.0
O131 O 0.96038 1.02992 0.60105 0.0
O132 O 0.9886 0.03258 1.0049 0.0
O133 O 0.95967 0.99654 0.85714 0.0
O134 O 1.01873 0.09789 0.8483 0.0
O135 O 0.03538 0.07659 0.07665 0.0
H136 H 0.0883 0.96132 0.49724 0.0
H137 H 0.12407 0.90511 0.57389 0.0
H138 H 0.1944 0.91433 0.17452 0.0
H139 H 0.15552 0.9696 0.09313 0.0
H140 H 0.91026 0.08846 0.65567 0.0
H141 H 0.87484 0.14543 0.56859 0.0
H142 H 0.93911 0.14211 0.15295 0.0
H143 H 0.97183 0.08484 0.23752 0.0
Sm144 Sm 0.54031 0.05901 0.99407 0.0
Sm145 Sm 0.5279 1.01059 0.7772 0.0
C146 C 0.5592 0.10106 0.22896 0.0
C147 C 0.58622 0.13082 0.27526 0.0
C148 C 0.60188 0.157 0.17129 0.0
C149 C 0.63711 0.17482 0.20282 0.0
C150 C 0.65672 0.16469 0.33472 0.0
C151 C 0.63627 0.14663 0.45127 0.0
C152 C 0.6015 0.12841 0.41968 0.0
C153 C 0.51218 0.10126 0.75085 0.0
C154 C 0.61608 0.03927 0.77074 0.0
C155 C 0.50896 0.96704 0.54543 0.0
C156 C 0.47897 0.94155 0.4867 0.0
C157 C 0.46074 0.95277 0.3546 0.0
C158 C 0.42759 0.93402 0.30796 0.0
C159 C 0.41232 0.90299 0.39109 0.0
C160 C 0.43339 0.88867 0.5139 0.0
C161 C 0.46653 0.90811 0.56247 0.0
C162 C 0.55207 0.97025 0.03492 0.0
C163 C 0.45311 1.0273 1.00237 0.0
O164 O 0.57416 0.0672 0.20219 0.0
O165 O 0.53297 0.11111 0.13214 0.0
O166 O 0.53856 0.07574 0.74414 0.0
O167 O 0.49776 0.10122 0.88395 0.0
O168 O 0.60546 0.05323 0.90316 0.0
O169 O 0.58901 1.02397 0.68759 0.0
O170 O 0.49994 1.0035 0.55617 0.0
O171 O 0.52942 0.95467 0.65787 0.0
O172 O 0.52621 0.9958 0.0267 0.0
O173 O 0.56863 0.96839 0.9055 0.0
O174 O 0.46265 1.01799 0.86287 0.0
O175 O 0.48135 0.0388 0.08959 0.0
H176 H 0.58979 0.15973 0.05997 0.0
H177 H 0.65233 0.18936 0.11279 0.0
H178 H 0.65061 0.13957 0.55572 0.0
H179 H 0.5891 0.10899 0.50216 0.0
H180 H 0.47089 0.97763 0.29205 0.0
H181 H 0.41211 0.94625 0.21386 0.0
H182 H 0.42199 0.86517 0.58112 0.0
H183 H 0.48076 0.89848 0.66381 0.0
Sm184 Sm 0.50453 0.54203 1.00329 0.0
Sm185 Sm 0.55031 0.52593 0.78202 0.0
C186 C 0.4663 0.56597 0.24037 0.0
C187 C 0.43437 0.59185 0.27171 0.0
C188 C 0.43601 0.61399 0.40124 0.0
C189 C 0.41369 0.64709 0.41084 0.0
C190 C 0.39279 0.65968 0.28413 0.0
C191 C 0.38349 0.63249 0.1738 0.0
C192 C 0.4055 0.59892 0.16447 0.0
C193 C 0.45778 0.51531 0.77067 0.0
C194 C 0.5226 0.61418 0.76577 0.0
C195 C 0.58967 0.50593 0.54096 0.0
C196 C 0.61719 0.47897 0.47704 0.0
C197 C 0.65032 0.46644 0.55343 0.0
C198 C 0.67073 0.43454 0.50032 0.0
C199 C 0.65715 0.41453 0.37391 0.0
C200 C 0.62733 0.43099 0.28801 0.0
C201 C 0.60749 0.46278 0.33995 0.0
C202 C 0.59465 0.54798 0.03341 0.0
C203 C 0.53138 0.45334 1.00947 0.0
O204 O 0.49828 0.58232 0.19427 0.0
O205 O 0.45759 0.53493 0.16657 0.0
O206 O 0.48557 0.5392 0.75547 0.0
O207 O 0.45579 0.50416 0.90816 0.0
O208 O 0.51308 0.60629 0.90662 0.0
O209 O 0.53289 0.58485 0.68356 0.0
O210 O 0.55566 0.4919 0.57454 0.0
O211 O 0.60231 0.53087 0.63776 0.0
O212 O 0.56712 0.5241 0.03126 0.0
O213 O 0.59778 0.56279 0.90088 0.0
O214 O 0.53991 0.46195 0.86855 0.0
O215 O 0.52239 0.4822 0.09744 0.0
H216 H 0.4571 0.60786 0.48782 0.0
H217 H 0.4196 0.6664 0.503 0.0
H218 H 0.36615 0.6409 0.07819 0.0
H219 H 0.40308 0.58114 0.06558 0.0
H220 H 0.65861 0.47924 0.65895 0.0
H221 H 0.69368 0.42255 0.56846 0.0
H222 H 0.61594 0.4168 0.18981 0.0
H223 H 0.58272 0.47311 0.27793 0.0
Sm224 Sm 1.0292 0.5036 0.96285 0.0
Sm225 Sm 0.04231 0.54833 0.74545 0.0
C226 C 1.00994 0.45903 0.19164 0.0
C227 C 0.97967 0.4305 0.21199 0.0
C228 C 0.96013 0.43011 0.34859 0.0
C229 C 0.92104 0.42091 0.35097 0.0
C230 C 0.90159 0.41698 0.21409 0.0
C231 C 0.92268 0.40706 0.08649 0.0
C232 C 0.96224 0.41441 0.08474 0.0
C233 C 0.05371 0.45813 0.7221 0.0
C234 C 0.95297 0.52358 0.74588 0.0
C235 C 0.06496 0.58561 0.50192 0.0
C236 C 0.09284 0.61388 0.44861 0.0
C237 C 0.10762 0.60937 0.30494 0.0
C238 C 0.14044 0.62952 0.2619 0.0
C239 C 0.15857 0.65509 0.3623 0.0
C240 C 0.13942 0.66425 0.4968 0.0
C241 C 0.1071 0.64305 0.5414 0.0
C242 C 1.01649 0.5955 0.97917 0.0
C243 C 0.11589 0.5336 0.97895 0.0
O244 O 0.99757 0.49435 0.17517 0.0
O245 O 0.03678 0.4502 0.09632 0.0
O246 O 1.02815 0.48432 0.71624 0.0
O247 O 0.06999 0.45917 0.85194 0.0
O248 O 0.96388 0.51055 0.87901 0.0
O249 O 0.98058 0.53595 0.65734 0.0
O250 O 0.07861 0.55194 0.54077 0.0
O251 O 0.03829 0.59807 0.59168 0.0
O252 O 0.04125 0.56851 0.99231 0.0
O253 O 1.00332 0.59569 0.84422 0.0
O254 O 0.10712 0.54189 0.83774 0.0
O255 O 0.08714 0.52304 0.0647 0.0
H256 H 0.97341 0.44188 0.44829 0.0
H257 H 0.90501 0.42687 0.45245 0.0
H258 H 0.908 0.40266 0.98088 0.0
H259 H 0.97711 0.4143 0.97819 0.0
H260 H 0.09565 0.58792 0.23056 0.0
H261 H 0.15359 0.62149 0.15688 0.0
H262 H 0.15189 0.68468 0.57444 0.0
H263 H 0.095 0.64765 0.65162 0.0
C264 C 0.16979 0.04161 0.41125 0.0
C265 C 0.20707 0.04135 0.47547 0.0
C266 C 0.13576 0.04359 0.50032 0.0
C267 C 0.1374 0.0448 0.65772 0.0
H268 H 0.16702 0.03804 0.29163 0.0
H269 H 0.10783 0.04334 0.44632 0.0
S270 S 0.22788 0.0495 0.88078 0.0
N271 N 0.24319 0.04614 0.70631 0.0
N272 N 0.18025 0.04974 0.87217 0.0
C273 C 0.1746 0.04738 0.72214 0.0
C274 C 0.20902 0.04556 0.63175 0.0
C275 C 0.51011 0.17281 0.41702 0.0
C276 C 0.51623 0.20885 0.48578 0.0
C277 C 0.50761 0.13803 0.50196 0.0
C278 C 0.51162 0.13791 0.6589 0.0
H279 H 0.50955 0.17138 0.29622 0.0
H280 H 0.50348 0.11096 0.4445 0.0
S281 S 0.52279 0.22497 0.89452 0.0
N282 N 0.52183 0.2422 0.72189 0.0
N283 N 0.51783 0.17787 0.8796 0.0
C284 C 0.51479 0.17411 0.72889 0.0
C285 C 0.51691 0.20921 0.64312 0.0
C286 C 0.39387 0.51235 0.42382 0.0
C287 C 0.35626 0.51185 0.48501 0.0
C288 C 0.42704 0.51367 0.51327 0.0
C289 C 0.42344 0.51182 0.66699 0.0
H290 H 0.39684 0.51572 0.30421 0.0
H291 H 0.45537 0.516 0.46325 0.0
S292 S 0.33098 0.48507 0.91969 0.0
N293 N 0.3642 0.49694 0.78238 0.0
N294 N 0.37613 0.49344 0.86165 0.0
C295 C 0.3827 0.50377 0.72562 0.0
C296 C 0.34827 0.50636 0.64047 0.0
C297 C 0.05506 0.38821 0.38621 0.0
C298 C 0.04621 0.35208 0.45103 0.0
C299 C 0.05835 0.42224 0.47366 0.0
C300 C 0.05298 0.42161 0.63006 0.0
H301 H 0.05741 0.39038 0.26585 0.0
H302 H 0.06444 0.44941 0.41827 0.0
S303 S 0.03257 0.33369 0.85677 0.0
N304 N 0.0344 0.3177 0.68314 0.0
N305 N 0.04145 0.38048 0.8466 0.0
C306 C 0.04656 0.38514 0.69694 0.0
C307 C 0.04294 0.35079 0.60801 0.0
C308 C 0.89583 1.00668 0.33842 0.0
C309 C 0.85873 1.01269 0.27692 0.0
C310 C 0.92913 1.00453 0.24941 0.0
C311 C 0.92597 1.00742 0.09519 0.0
H312 H 0.89901 1.00675 0.45875 0.0
H313 H 0.95724 1.0014 0.30098 0.0
S314 S 0.83176 1.01094 0.83249 0.0
N315 N 0.86591 1.00915 0.9732 0.0
N316 N 0.87743 1.00772 0.89266 0.0
C317 C 0.88485 1.00894 0.03352 0.0
C318 C 0.85086 1.01286 0.11998 0.0
C319 C 0.56835 0.88383 0.30241 0.0
C320 C 0.53458 0.86161 0.28043 0.0
C321 C 0.57385 0.91974 0.22714 0.0
C322 C 0.54611 0.93427 0.12535 0.0
H323 H 0.59134 0.8726 0.37203 0.0
H324 H 0.60045 0.93557 0.24502 0.0
S325 S 0.45452 0.8865 1.01907 0.0
N326 N 0.47231 0.85889 0.15312 0.0
N327 N 0.48548 0.92235 0.99966 0.0
C328 C 0.51256 0.91247 0.10322 0.0
C329 C 0.50595 0.87749 0.18469 0.0
C330 C 0.67056 0.5698 0.33883 0.0
C331 C 0.69817 0.54042 0.32025 0.0
C332 C 0.63648 0.57122 0.25026 0.0
C333 C 0.62892 0.5442 0.13648 0.0
H334 H 0.67649 0.59314 0.41547 0.0
H335 H 0.6167 0.59458 0.26637 0.0
S336 S 0.69197 0.46188 0.03933 0.0
N337 N 0.71374 0.48202 0.18366 0.0
N338 N 0.65254 0.48752 1.00931 0.0
C339 C 0.65584 0.5144 0.11865 0.0
C340 C 0.68934 0.51166 0.21323 0.0
C341 C 1.01296 0.66293 0.32401 0.0
C342 C 1.01555 0.70036 0.26146 0.0
C343 C 1.01212 0.62923 0.23349 0.0
C344 C 1.01451 0.63131 0.07609 0.0
H345 H 1.01382 0.65972 0.44434 0.0
H346 H 1.01037 0.60123 0.28698 0.0
S347 S 1.01949 0.72249 0.85534 0.0
N348 N 1.0183 0.73711 0.03082 0.0
N349 N 1.01709 0.67492 0.86225 0.0
C350 C 1.01493 0.66874 1.01227 0.0
C351 C 1.01543 0.7028 0.10413 0.0
C352 C 0.94521 0.24208 0.44253 0.0
C353 C 0.95277 0.25571 0.29775 0.0
C354 C 0.91978 0.21168 0.46617 0.0
C355 C 0.90397 0.19178 0.34369 0.0
H356 H 0.96205 0.25232 0.53643 0.0
H357 H 0.91867 0.19975 0.5783 0.0
S358 S 0.90497 0.22493 0.94898 0.0
N359 N 0.9343 0.25505 0.03629 0.0
N360 N 0.88806 0.19516 0.07866 0.0
C361 C 0.90577 0.20962 0.2019 0.0
C362 C 0.93089 0.24163 0.17857 0.0
C363 C 0.31964 0.93633 0.49026 0.0
C364 C 0.30704 0.9472 0.34706 0.0
C365 C 0.34998 0.91042 0.50816 0.0
C366 C 0.37016 0.89721 0.38215 0.0
H367 H 0.3086 0.95062 0.58808 0.0
H368 H 0.36206 0.90724 0.61938 0.0
S369 S 0.33621 0.90296 0.98993 0.0
N370 N 0.3069 0.93178 0.08293 0.0
N371 N 0.36579 0.88413 0.11576 0.0
C372 C 0.35187 0.90057 0.24209 0.0
C373 C 0.32053 0.92661 0.22388 0.0
C374 C 0.62118 0.32249 0.48331 0.0
C375 C 0.61016 0.30874 0.34252 0.0
C376 C 0.6474 0.35273 0.49615 0.0
C377 C 0.66061 0.37214 0.36726 0.0
H378 H 0.60666 0.31255 0.58314 0.0
H379 H 0.65096 0.36524 0.60611 0.0
S380 S 0.65237 0.3368 0.97834 0.0
N381 N 0.62431 0.30757 0.077 0.0
N382 N 0.67179 0.36705 0.09948 0.0
C383 C 0.65623 0.35344 0.22888 0.0
C384 C 0.63021 0.32179 0.21623 0.0
C385 C 0.25086 0.62079 0.46473 0.0
C386 C 0.26352 0.60921 0.32313 0.0
C387 C 0.2214 0.64753 0.47931 0.0
C388 C 0.20098 0.65988 0.35177 0.0
H389 H 0.26091 0.60638 0.56456 0.0
H390 H 0.21003 0.65162 0.59088 0.0
S391 S 0.23561 0.65267 0.96099 0.0
N392 N 0.26444 0.62382 0.05746 0.0
N393 N 0.20587 0.67216 0.08397 0.0
C394 C 0.21936 0.65587 0.21221 0.0
C395 C 0.25055 0.62953 0.19743 0.0
C396 C 0.13061 0.81119 0.52426 0.0
C397 C 0.10808 0.79998 0.40178 0.0
C398 C 0.15814 0.84065 0.50805 0.0
C399 C 0.1618 0.86058 0.37058 0.0
H400 H 0.12483 0.79927 0.6342 0.0
H401 H 0.17126 0.85231 0.60819 0.0
S402 S 0.11983 0.83083 1.00725 0.0
N403 N 0.09783 0.80389 0.13368 0.0
N404 N 0.15165 0.85655 0.10103 0.0
C405 C 0.14584 0.84319 0.2426 0.0
C406 C 0.11712 0.81439 0.25951 0.0
C407 C 0.75703 0.1386 0.44356 0.0
C408 C 0.75775 0.10084 0.3884 0.0
C409 C 0.72567 0.16268 0.41045 0.0
C410 C 0.69565 0.14941 0.3182 0.0
H411 H 0.7791 0.14824 0.52073 0.0
H412 H 0.72321 0.19016 0.46667 0.0
S413 S 0.68722 0.05276 0.14353 0.0
N414 N 0.72901 0.05219 0.23146 0.0
N415 N 0.66986 0.0965 0.16922 0.0
C416 C 0.69855 0.11274 0.25199 0.0
C417 C 0.72985 0.08861 0.28723 0.0
C418 C 0.46828 0.71915 0.15625 0.0
C419 C 0.4704 0.74363 0.27896 0.0
C420 C 0.43457 0.69841 0.12808 0.0
C421 C 0.40403 0.69851 0.23309 0.0
H422 H 0.49363 0.71422 0.08872 0.0
H423 H 0.43586 0.67672 0.04151 0.0
S424 S 0.39083 0.76924 0.53632 0.0
N425 N 0.43514 0.77713 0.47421 0.0
N426 N 0.37293 0.73429 0.43186 0.0
C427 C 0.40306 0.7285 0.33737 0.0
C428 C 0.4368 0.75091 0.3621 0.0
C429 C 0.81022 0.46898 0.2861 0.0
C430 C 0.82279 0.50735 0.26631 0.0
C431 C 0.83436 0.43828 0.2505 0.0
C432 C 0.87125 0.44569 0.1938 0.0
H433 H 0.78276 0.46301 0.33961 0.0
H434 H 0.82562 0.40916 0.27945 0.0
S435 S 0.91548 0.54203 0.12324 0.0
N436 N 0.87165 0.55154 0.18336 0.0
N437 N 0.91827 0.49448 0.11691 0.0
C438 C 0.88249 0.48425 0.16397 0.0
C439 C 0.85786 0.5151 0.20068 0.0
C440 C 1.01793 0.21812 1.02012 0.0
C441 C 1.02605 0.22612 0.17203 0.0
C442 C 1.01827 0.17985 0.96192 0.0
C443 C 1.02676 0.14725 0.05242 0.0
H444 H 1.0106 0.24172 0.94574 0.0
H445 H 1.0115 0.17585 0.84477 0.0
S446 S 0.04972 0.15258 0.45967 0.0
N447 N 0.04222 0.19799 0.41157 0.0
N448 N 0.04393 0.12712 0.30559 0.0
C449 C 0.0353 0.15526 0.20481 0.0
C450 C 0.03468 0.19415 0.26341 0.0
C451 C 0.36738 1.02685 0.28611 0.0
C452 C 0.33406 1.02037 0.19878 0.0
C453 C 0.40492 1.02969 0.22148 0.0
C454 C 0.41182 1.02486 0.06586 0.0
H455 H 0.36441 1.02945 0.40618 0.0
H456 H 0.42899 0.03509 0.29586 0.0
S457 S 0.33412 1.00938 0.78596 0.0
N458 N 0.31053 1.01114 0.94642 0.0
N459 N 0.38034 1.01491 0.82668 0.0
C460 C 0.37852 1.01874 0.97746 0.0
C461 C 0.34013 1.01679 0.04314 0.0
C462 C 0.53109 0.36778 0.29211 0.0
C463 C 0.53618 0.33475 0.2031 0.0
C464 C 0.52885 0.40539 0.22867 0.0
C465 C 0.53275 0.41231 0.07272 0.0
H466 H 0.52935 0.36452 0.41244 0.0
H467 H 0.52475 0.4294 0.30385 0.0
S468 S 0.54574 0.33549 0.78965 0.0
N469 N 0.54397 0.31164 0.94999 0.0
N470 N 0.54101 0.38153 0.83173 0.0
C471 C 0.53759 0.37934 0.9828 0.0
C472 C 0.53908 0.34099 0.04744 0.0
C473 C 0.19962 0.53252 0.27007 0.0
C474 C 0.23369 0.53669 0.18509 0.0
C475 C 0.16244 0.53131 0.20227 0.0
C476 C 0.15681 0.53528 0.04538 0.0
H477 H 0.20174 0.53051 0.39069 0.0
H478 H 0.13768 0.52768 0.27503 0.0
S479 S 0.23689 0.54581 0.77116 0.0
N480 N 0.25931 0.54373 0.9342 0.0
N481 N 0.1902 0.54252 0.80794 0.0
C482 C 0.19087 0.53936 0.95931 0.0
C483 C 0.22884 0.53987 0.02851 0.0
C484 C 0.04557 0.83323 0.69671 0.0
C485 C 0.03537 0.82636 0.54564 0.0
C486 C 0.04475 0.87093 0.76097 0.0
C487 C 0.03432 0.90415 0.67727 0.0
H488 H 0.05481 0.80918 0.7655 0.0
H489 H 0.05273 0.87412 0.87725 0.0
S490 S 1.00521 0.90178 0.27511 0.0
N491 N 1.0147 0.85622 0.31478 0.0
N492 N 1.01279 0.92596 0.43111 0.0
C493 C 1.02376 0.89722 0.52574 0.0
C494 C 1.02449 0.85891 0.46139 0.0
C495 C 0.70899 1.0089 0.55232 0.0
C496 C 0.73724 0.03677 0.5898 0.0
C497 C 0.67076 1.00983 0.61266 0.0
C498 C 0.65806 0.0388 0.71336 0.0
H499 H 0.71585 0.98703 0.47076 0.0
H500 H 0.65063 0.98768 0.57776 0.0
S501 S 0.71954 0.12028 0.84016 0.0
N502 N 0.74907 0.09421 0.73693 0.0
N503 N 0.67736 0.09787 0.83639 0.0
C504 C 0.68591 0.06702 0.74989 0.0
C505 C 0.72509 0.06547 0.69207 0.0
C506 C 0.50528 0.72493 0.68816 0.0
C507 C 0.52376 0.73137 0.54859 0.0
C508 C 0.50537 0.68769 0.75987 0.0
C509 C 0.52322 0.65492 0.69511 0.0
H510 H 0.48946 0.74826 0.73953 0.0
H511 H 0.49 0.6841 0.86386 0.0
S512 S 0.5727 0.65661 0.32484 0.0
N513 N 0.55916 0.70154 0.34873 0.0
N514 N 0.55858 0.63301 0.476 0.0
C515 C 0.54133 0.66158 0.55494 0.0
C516 C 0.54174 0.69913 0.48456 0.0
C517 C 0.84226 0.50487 0.66518 0.0
C518 C 0.83112 0.53731 0.57759 0.0
C519 C 0.88064 0.50091 0.72591 0.0
C520 C 0.9104 0.5284 0.69721 0.0
H521 H 0.8218 0.48155 0.6812 0.0
H522 H 0.88752 0.47515 0.78946 0.0
S523 S 0.89617 0.61901 0.47929 0.0
N524 N 0.85337 0.59792 0.47366 0.0
N525 N 0.92406 0.59006 0.57871 0.0
C526 C 0.899 0.56105 0.61268 0.0
C527 C 0.86013 0.5655 0.55551 0.0
loop_
_geom_bond_atom_site_label_1
_geom_bond_atom_site_label_2
_geom_bond_distance
_geom_bond_site_symmetry_2
_ccdc_geom_bond_type
C0 N1 1.317 . S
C0 N2 1.348 . S
C0 C3 1.485 . S
N1 C0 1.317 . S
N1 N5 1.370 . S
N2 C0 1.348 . S
N2 C4 1.346 . S
C3 C0 1.485 . S
C3 H7 0.960 . S
C3 H8 0.961 . S
C3 H9 0.960 . S
C4 N2 1.346 . S
C4 N5 1.307 . S
C4 C6 1.486 . S
N5 N1 1.370 . S
N5 C4 1.307 . S
C6 C4 1.486 . S
C6 H10 0.960 . S
C6 H11 0.960 . S
C6 H12 0.959 . S
H7 C3 0.960 . S
H8 C3 0.961 . S
H9 C3 0.960 . S
H10 C6 0.960 . S
H11 C6 0.960 . S
H12 C6 0.959 . S
C13 N14 1.317 . S
C13 N15 1.348 . S
C13 C16 1.485 . S
N14 C13 1.317 . S
N14 N18 1.371 . S
N15 C13 1.348 . S
N15 C17 1.346 1_655 S
C16 C13 1.485 . S
C16 H20 0.960 1_655 S
C16 H21 0.961 . S
C16 H22 0.960 . S
C17 N15 1.346 1_455 S
C17 N18 1.307 1_455 S
C17 C19 1.486 . S
N18 N14 1.371 . S
N18 C17 1.307 1_655 S
C19 C17 1.486 . S
C19 H23 0.960 1_455 S
C19 H24 0.960 . S
C19 H25 0.959 . S
H20 C16 0.960 1_455 S
H21 C16 0.961 . S
H22 C16 0.960 . S
H23 C19 0.960 1_655 S
H24 C19 0.960 . S
H25 C19 0.959 . S
C26 N27 1.317 . S
C26 N28 1.348 . S
C26 C29 1.485 . S
N27 C26 1.317 . S
N27 N31 1.371 . S
N28 C26 1.348 . S
N28 C30 1.346 1_565 S
C29 C26 1.485 . S
C29 H33 0.960 1_565 S
C29 H34 0.961 . S
C29 H35 0.960 . S
C30 N28 1.346 1_545 S
C30 N31 1.307 1_545 S
C30 C32 1.486 . S
N31 N27 1.371 . S
N31 C30 1.307 1_565 S
C32 C30 1.486 . S
C32 H36 0.960 1_545 S
C32 H37 0.960 . S
C32 H38 0.959 . S
H33 C29 0.960 1_545 S
H34 C29 0.961 . S
H35 C29 0.960 . S
H36 C32 0.960 1_565 S
H37 C32 0.960 . S
H38 C32 0.959 . S
C39 N40 1.317 . S
C39 N41 1.348 . S
C39 C42 1.485 . S
N40 C39 1.317 . S
N40 N44 1.370 . S
N41 C39 1.348 . S
N41 C43 1.346 . S
C42 C39 1.485 . S
C42 H46 0.960 . S
C42 H47 0.961 . S
C42 H48 0.960 . S
C43 N41 1.346 . S
C43 N44 1.307 . S
C43 C45 1.486 . S
N44 N40 1.370 . S
N44 C43 1.307 . S
C45 C43 1.486 . S
C45 H49 0.960 . S
C45 H50 0.960 . S
C45 H51 0.959 . S
H46 C42 0.960 . S
H47 C42 0.961 . S
H48 C42 0.960 . S
H49 C45 0.960 . S
H50 C45 0.960 . S
H51 C45 0.959 . S
C52 N53 1.317 . S
C52 N54 1.348 1_556 S
C52 C55 1.485 . S
N53 C52 1.317 . S
N53 N57 1.370 1_556 S
N54 C52 1.348 1_554 S
N54 C56 1.346 . S
C55 C52 1.485 . S
C55 H59 0.960 . S
C55 H60 0.961 . S
C55 H61 0.960 . S
C56 N54 1.346 . S
C56 N57 1.307 . S
C56 C58 1.486 . S
N57 N53 1.370 1_554 S
N57 C56 1.307 . S
C58 C56 1.486 . S
C58 H62 0.960 . S
C58 H63 0.960 . S
C58 H64 0.959 . S
H59 C55 0.960 . S
H60 C55 0.961 . S
H61 C55 0.960 . S
H62 C58 0.960 . S
H63 C58 0.960 . S
H64 C58 0.959 . S
C65 N66 1.317 . S
C65 N67 1.350 1_556 S
C65 C68 1.485 . S
N66 C65 1.317 . S
N66 N70 1.371 1_556 S
N67 C65 1.350 1_554 S
N67 C69 1.345 1_655 S
C68 C65 1.485 . S
C68 H72 0.960 1_655 S
C68 H73 0.961 . S
C68 H74 0.960 . S
C69 N67 1.345 1_455 S
C69 N70 1.307 1_455 S
C69 C71 1.487 . S
N70 N66 1.371 1_554 S
N70 C69 1.307 1_655 S
C71 C69 1.487 . S
C71 H75 0.960 1_455 S
C71 H76 0.960 . S
C71 H77 0.959 . S
H72 C68 0.960 1_455 S
H73 C68 0.961 . S
H74 C68 0.960 . S
H75 C71 0.960 1_655 S
H76 C71 0.960 . S
H77 C71 0.959 . S
C78 N79 1.317 . S
C78 N80 1.350 1_556 S
C78 C81 1.485 . S
N79 C78 1.317 . S
N79 N83 1.371 1_556 S
N80 C78 1.350 1_554 S
N80 C82 1.345 1_565 S
C81 C78 1.485 . S
C81 H85 0.960 1_565 S
C81 H86 0.961 . S
C81 H87 0.960 . S
C82 N80 1.345 1_545 S
C82 N83 1.307 1_545 S
C82 C84 1.487 . S
N83 N79 1.371 1_554 S
N83 C82 1.307 1_565 S
C84 C82 1.487 . S
C84 H88 0.960 1_545 S
C84 H89 0.960 . S
C84 H90 0.959 . S
H85 C81 0.960 1_545 S
H86 C81 0.961 . S
H87 C81 0.960 . S
H88 C84 0.960 1_565 S
H89 C84 0.960 . S
H90 C84 0.959 . S
C91 N92 1.317 . S
C91 N93 1.348 1_556 S
C91 C94 1.485 . S
N92 C91 1.317 . S
N92 N96 1.370 1_556 S
N93 C91 1.348 1_554 S
N93 C95 1.346 . S
C94 C91 1.485 . S
C94 H98 0.960 . S
C94 H99 0.961 . S
C94 H100 0.960 . S
C95 N93 1.346 . S
C95 N96 1.307 . S
C95 C97 1.486 . S
N96 N92 1.370 1_554 S
N96 C95 1.307 . S
C97 C95 1.486 . S
C97 H101 0.960 . S
C97 H102 0.960 . S
C97 H103 0.959 . S
H98 C94 0.960 . S
H99 C94 0.961 . S
H100 C94 0.960 . S
H101 C97 0.960 . S
H102 C97 0.960 . S
H103 C97 0.959 . S
Sm104 C106 2.846 1_556 S
Sm104 O124 2.543 1_556 S
Sm104 O125 2.450 1_556 S
Sm104 O126 2.681 1_565 S
Sm104 O127 2.464 . S
Sm104 O128 2.396 . S
Sm104 O132 2.386 1_455 S
Sm104 O135 2.408 1_565 S
Sm105 C115 2.846 . S
Sm105 O126 2.386 1_655 S
Sm105 O129 2.408 1_545 S
Sm105 O130 2.543 . S
Sm105 O131 2.450 . S
Sm105 O132 2.681 1_545 S
Sm105 O133 2.464 . S
Sm105 O134 2.396 . S
C106 Sm104 2.846 1_554 S
C106 C107 1.506 . S
C106 O124 1.261 . S
C106 O125 1.242 . S
C107 C106 1.506 . S
C107 C108 1.358 . S
C107 C112 1.382 . S
C108 C107 1.358 . S
C108 C109 1.385 . S
C108 H136 0.930 1_455 S
C109 C108 1.385 . S
C109 C110 1.395 . S
C109 H137 0.929 . S
C110 C109 1.395 . S
C110 C111 1.335 . S
C111 C110 1.335 . S
C111 C112 1.398 . S
C111 H138 0.930 . S
C112 C107 1.382 . S
C112 C111 1.398 . S
C112 H139 0.929 . S
C113 O126 1.271 1_565 S
C113 O127 1.251 . S
C114 O128 1.252 1_655 S
C114 O129 1.272 . S
C115 Sm105 2.846 . S
C115 C116 1.506 . S
C115 O130 1.261 . S
C115 O131 1.242 . S
C116 C115 1.506 . S
C116 C117 1.358 . S
C116 C121 1.382 . S
C117 C116 1.358 . S
C117 C118 1.385 . S
C117 H140 0.930 1_655 S
C118 C117 1.385 . S
C118 C119 1.395 . S
C118 H141 0.929 . S
C119 C118 1.395 . S
C119 C120 1.335 . S
C120 C119 1.335 . S
C120 C121 1.398 . S
C120 H142 0.930 . S
C121 C116 1.382 . S
C121 C120 1.398 . S
C121 H143 0.929 . S
C122 O132 1.271 1_545 S
C122 O133 1.251 . S
C123 O134 1.252 1_455 S
C123 O135 1.272 . S
O124 Sm104 2.543 1_554 S
O124 C106 1.261 . S
O125 Sm104 2.450 1_554 S
O125 C106 1.242 . S
O126 Sm104 2.681 1_545 S
O126 Sm105 2.386 1_455 S
O126 C113 1.271 1_545 S
O127 Sm104 2.464 . S
O127 C113 1.251 . S
O128 Sm104 2.396 . S
O128 C114 1.252 1_455 S
O129 Sm105 2.408 1_565 S
O129 C114 1.272 . S
O130 Sm105 2.543 . S
O130 C115 1.261 . S
O131 Sm105 2.450 . S
O131 C115 1.242 . S
O132 Sm104 2.386 1_655 S
O132 Sm105 2.681 1_565 S
O132 C122 1.271 1_565 S
O133 Sm105 2.464 . S
O133 C122 1.251 . S
O134 Sm105 2.396 . S
O134 C123 1.252 1_655 S
O135 Sm104 2.408 1_545 S
O135 C123 1.272 . S
H136 C108 0.930 1_655 S
H137 C109 0.929 . S
H138 C111 0.930 . S
H139 C112 0.929 . S
H140 C117 0.930 1_455 S
H141 C118 0.929 . S
H142 C120 0.930 . S
H143 C121 0.929 . S
Sm144 C146 2.846 1_556 S
Sm144 O164 2.543 1_556 S
Sm144 O165 2.450 1_556 S
Sm144 O166 2.681 . S
Sm144 O167 2.464 . S
Sm144 O168 2.396 . S
Sm144 O172 2.386 1_545 S
Sm144 O175 2.408 . S
Sm145 C155 2.846 . S
Sm145 O166 2.386 1_565 S
Sm145 O169 2.408 . S
Sm145 O170 2.543 . S
Sm145 O171 2.450 . S
Sm145 O172 2.681 . S
Sm145 O173 2.464 . S
Sm145 O174 2.396 . S
C146 Sm144 2.846 1_554 S
C146 C147 1.506 . S
C146 O164 1.261 . S
C146 O165 1.242 . S
C147 C146 1.506 . S
C147 C148 1.358 . S
C147 C152 1.382 . S
C148 C147 1.358 . S
C148 C149 1.385 . S
C148 H176 0.930 1_545 S
C149 C148 1.385 . S
C149 C150 1.395 . S
C149 H177 0.929 . S
C150 C149 1.395 . S
C150 C151 1.335 . S
C151 C150 1.335 . S
C151 C152 1.398 . S
C151 H178 0.930 . S
C152 C147 1.382 . S
C152 C151 1.398 . S
C152 H179 0.929 . S
C153 O166 1.271 . S
C153 O167 1.251 . S
C154 O168 1.252 1_565 S
C154 O169 1.272 . S
C155 Sm145 2.846 . S
C155 C156 1.506 . S
C155 O170 1.261 . S
C155 O171 1.242 . S
C156 C155 1.506 . S
C156 C157 1.358 . S
C156 C161 1.382 . S
C157 C156 1.358 . S
C157 C158 1.385 . S
C157 H180 0.930 1_565 S
C158 C157 1.385 . S
C158 C159 1.395 . S
C158 H181 0.929 . S
C159 C158 1.395 . S
C159 C160 1.335 . S
C160 C159 1.335 . S
C160 C161 1.398 . S
C160 H182 0.930 . S
C161 C156 1.382 . S
C161 C160 1.398 . S
C161 H183 0.929 . S
C162 O172 1.271 . S
C162 O173 1.251 . S
C163 O174 1.252 1_545 S
C163 O175 1.272 . S
O164 Sm144 2.543 1_554 S
O164 C146 1.261 . S
O165 Sm144 2.450 1_554 S
O165 C146 1.242 . S
O166 Sm144 2.681 . S
O166 Sm145 2.386 1_545 S
O166 C153 1.271 . S
O167 Sm144 2.464 . S
O167 C153 1.251 . S
O168 Sm144 2.396 . S
O168 C154 1.252 1_545 S
O169 Sm145 2.408 . S
O169 C154 1.272 . S
O170 Sm145 2.543 . S
O170 C155 1.261 . S
O171 Sm145 2.450 . S
O171 C155 1.242 . S
O172 Sm144 2.386 1_565 S
O172 Sm145 2.681 . S
O172 C162 1.271 . S
O173 Sm145 2.464 . S
O173 C162 1.251 . S
O174 Sm145 2.396 . S
O174 C163 1.252 1_565 S
O175 Sm144 2.408 . S
O175 C163 1.272 . S
H176 C148 0.930 1_565 S
H177 C149 0.929 . S
H178 C151 0.930 . S
H179 C152 0.929 . S
H180 C157 0.930 1_545 S
H181 C158 0.929 . S
H182 C160 0.930 . S
H183 C161 0.929 . S
Sm184 C186 2.846 1_556 S
Sm184 O204 2.543 1_556 S
Sm184 O205 2.450 1_556 S
Sm184 O206 2.681 . S
Sm184 O207 2.464 . S
Sm184 O208 2.396 . S
Sm184 O212 2.386 . S
Sm184 O215 2.408 . S
Sm185 C195 2.846 . S
Sm185 O206 2.386 . S
Sm185 O209 2.408 . S
Sm185 O210 2.543 . S
Sm185 O211 2.450 . S
Sm185 O212 2.681 . S
Sm185 O213 2.464 . S
Sm185 O214 2.396 . S
C186 Sm184 2.846 1_554 S
C186 C187 1.506 . S
C186 O204 1.261 . S
C186 O205 1.242 . S
C187 C186 1.506 . S
C187 C188 1.358 . S
C187 C192 1.382 . S
C188 C187 1.358 . S
C188 C189 1.385 . S
C188 H216 0.930 . S
C189 C188 1.385 . S
C189 C190 1.395 . S
C189 H217 0.929 . S
C190 C189 1.395 . S
C190 C191 1.335 . S
C191 C190 1.335 . S
C191 C192 1.398 . S
C191 H218 0.930 . S
C192 C187 1.382 . S
C192 C191 1.398 . S
C192 H219 0.929 . S
C193 O206 1.271 . S
C193 O207 1.251 . S
C194 O208 1.252 . S
C194 O209 1.272 . S
C195 Sm185 2.846 . S
C195 C196 1.506 . S
C195 O210 1.261 . S
C195 O211 1.242 . S
C196 C195 1.506 . S
C196 C197 1.358 . S
C196 C201 1.382 . S
C197 C196 1.358 . S
C197 C198 1.385 . S
C197 H220 0.930 . S
C198 C197 1.385 . S
C198 C199 1.395 . S
C198 H221 0.929 . S
C199 C198 1.395 . S
C199 C200 1.335 . S
C200 C199 1.335 . S
C200 C201 1.398 . S
C200 H222 0.930 . S
C201 C196 1.382 . S
C201 C200 1.398 . S
C201 H223 0.929 . S
C202 O212 1.271 . S
C202 O213 1.251 . S
C203 O214 1.252 . S
C203 O215 1.272 . S
O204 Sm184 2.543 1_554 S
O204 C186 1.261 . S
O205 Sm184 2.450 1_554 S
O205 C186 1.242 . S
O206 Sm184 2.681 . S
O206 Sm185 2.386 . S
O206 C193 1.271 . S
O207 Sm184 2.464 . S
O207 C193 1.251 . S
O208 Sm184 2.396 . S
O208 C194 1.252 . S
O209 Sm185 2.408 . S
O209 C194 1.272 . S
O210 Sm185 2.543 . S
O210 C195 1.261 . S
O211 Sm185 2.450 . S
O211 C195 1.242 . S
O212 Sm184 2.386 . S
O212 Sm185 2.681 . S
O212 C202 1.271 . S
O213 Sm185 2.464 . S
O213 C202 1.251 . S
O214 Sm185 2.396 . S
O214 C203 1.252 . S
O215 Sm184 2.408 . S
O215 C203 1.272 . S
H216 C188 0.930 . S
H217 C189 0.929 . S
H218 C191 0.930 . S
H219 C192 0.929 . S
H220 C197 0.930 . S
H221 C198 0.929 . S
H222 C200 0.930 . S
H223 C201 0.929 . S
Sm224 C226 2.846 1_556 S
Sm224 O244 2.543 1_556 S
Sm224 O245 2.450 1_556 S
Sm224 O246 2.681 1_655 S
Sm224 O247 2.464 . S
Sm224 O248 2.396 . S
Sm224 O252 2.386 . S
Sm224 O255 2.408 1_655 S
Sm225 C235 2.846 . S
Sm225 O246 2.386 . S
Sm225 O249 2.408 1_455 S
Sm225 O250 2.543 . S
Sm225 O251 2.450 . S
Sm225 O252 2.681 1_455 S
Sm225 O253 2.464 . S
Sm225 O254 2.396 . S
C226 Sm224 2.846 1_554 S
C226 C227 1.506 . S
C226 O244 1.261 . S
C226 O245 1.242 . S
C227 C226 1.506 . S
C227 C228 1.358 . S
C227 C232 1.382 . S
C228 C227 1.358 . S
C228 C229 1.385 . S
C228 H256 0.930 . S
C229 C228 1.385 . S
C229 C230 1.395 . S
C229 H257 0.929 . S
C230 C229 1.395 . S
C230 C231 1.335 . S
C231 C230 1.335 . S
C231 C232 1.398 . S
C231 H258 0.930 . S
C232 C227 1.382 . S
C232 C231 1.398 . S
C232 H259 0.929 . S
C233 O246 1.266 1_655 S
C233 O247 1.260 . S
C234 O248 1.252 . S
C234 O249 1.272 . S
C235 Sm225 2.846 . S
C235 C236 1.506 . S
C235 O250 1.261 . S
C235 O251 1.242 . S
C236 C235 1.506 . S
C236 C237 1.358 . S
C236 C241 1.382 . S
C237 C236 1.358 . S
C237 C238 1.385 . S
C237 H260 0.930 . S
C238 C237 1.385 . S
C238 C239 1.395 . S
C238 H261 0.929 . S
C239 C238 1.395 . S
C239 C240 1.335 . S
C240 C239 1.335 . S
C240 C241 1.398 . S
C240 H262 0.930 . S
C241 C236 1.382 . S
C241 C240 1.398 . S
C241 H263 0.929 . S
C242 O252 1.264 1_455 S
C242 O253 1.264 . S
C243 O254 1.252 . S
C243 O255 1.272 . S
O244 Sm224 2.543 1_554 S
O244 C226 1.261 . S
O245 Sm224 2.450 1_554 S
O245 C226 1.242 . S
O246 Sm224 2.681 1_455 S
O246 Sm225 2.386 . S
O246 C233 1.266 1_455 S
O247 Sm224 2.464 . S
O247 C233 1.260 . S
O248 Sm224 2.396 . S
O248 C234 1.252 . S
O249 Sm225 2.408 1_655 S
O249 C234 1.272 . S
O250 Sm225 2.543 . S
O250 C235 1.261 . S
O251 Sm225 2.450 . S
O251 C235 1.242 . S
O252 Sm224 2.386 . S
O252 Sm225 2.681 1_655 S
O252 C242 1.264 1_655 S
O253 Sm225 2.464 . S
O253 C242 1.264 . S
O254 Sm225 2.396 . S
O254 C243 1.252 . S
O255 Sm224 2.408 1_455 S
O255 C243 1.272 . S
H256 C228 0.930 . S
H257 C229 0.929 . S
H258 C231 0.930 . S
H259 C232 0.929 . S
H260 C237 0.930 . S
H261 C238 0.929 . S
H262 C240 0.930 . S
H263 C241 0.929 . S
C264 C265 1.354 1_565 S
C264 C266 1.419 . S
C264 H268 0.930 . S
C265 C264 1.354 1_545 S
C265 C274 1.444 . S
C266 C264 1.419 . S
C266 C267 1.347 1_565 S
C266 H269 0.929 . S
C267 C266 1.347 1_545 S
C267 C273 1.445 . S
H268 C264 0.930 . S
H269 C266 0.929 . S
S270 N271 1.613 . S
S270 N272 1.610 . S
N271 S270 1.613 . S
N271 C274 1.350 . S
N272 S270 1.610 . S
N272 C273 1.351 . S
C273 C267 1.445 . S
C273 N272 1.351 . S
C273 C274 1.434 . S
C274 C265 1.444 . S
C274 N271 1.350 . S
C274 C273 1.434 . S
C275 C276 1.369 . S
C275 C277 1.419 . S
C275 H279 0.930 . S
C276 C275 1.369 . S
C276 C285 1.429 . S
C277 C275 1.419 . S
C277 C278 1.363 . S
C277 H280 0.929 . S
C278 C277 1.363 . S
C278 C284 1.428 . S
H279 C275 0.930 . S
H280 C277 0.929 . S
S281 N282 1.613 . S
S281 N283 1.610 . S
N282 S281 1.613 . S
N282 C285 1.350 . S
N283 S281 1.610 . S
N283 C284 1.351 . S
C284 C278 1.428 . S
C284 N283 1.351 . S
C284 C285 1.434 . S
C285 C276 1.429 . S
C285 N282 1.350 . S
C285 C284 1.434 . S
C286 C287 1.369 . S
C286 C288 1.419 . S
C286 H290 0.930 . S
C287 C286 1.369 . S
C287 C296 1.429 . S
C288 C286 1.419 . S
C288 C289 1.363 . S
C288 H291 0.929 . S
C289 C288 1.363 . S
C289 C295 1.428 . S
H290 C286 0.930 . S
H291 C288 0.929 . S
S292 N293 1.613 . S
S292 N294 1.610 . S
N293 S292 1.613 . S
N293 C296 1.350 . S
N294 S292 1.610 . S
N294 C295 1.351 . S
C295 C289 1.428 . S
C295 N294 1.351 . S
C295 C296 1.434 . S
C296 C287 1.429 . S
C296 N293 1.350 . S
C296 C295 1.434 . S
C297 C298 1.353 1_655 S
C297 C299 1.419 . S
C297 H301 0.930 . S
C298 C297 1.353 1_455 S
C298 C307 1.446 . S
C299 C297 1.419 . S
C299 C300 1.363 1_655 S
C299 H302 0.929 . S
C300 C299 1.363 1_455 S
C300 C306 1.428 . S
H301 C297 0.930 . S
H302 C299 0.929 . S
S303 N304 1.613 . S
S303 N305 1.610 . S
N304 S303 1.613 . S
N304 C307 1.350 . S
N305 S303 1.610 . S
N305 C306 1.351 . S
C306 C300 1.428 . S
C306 N305 1.351 . S
C306 C307 1.434 . S
C307 C298 1.446 . S
C307 N304 1.350 . S
C307 C306 1.434 . S
C308 C309 1.368 1_545 S
C308 C310 1.419 . S
C308 H312 0.930 . S
C309 C308 1.368 1_565 S
C309 C318 1.429 . S
C310 C308 1.419 . S
C310 C311 1.362 1_545 S
C310 H313 0.929 . S
C311 C310 1.362 1_565 S
C311 C317 1.429 . S
H312 C308 0.930 . S
H313 C310 0.929 . S
S314 N315 1.613 . S
S314 N316 1.610 . S
N315 S314 1.613 . S
N315 C318 1.350 . S
N316 S314 1.610 . S
N316 C317 1.351 . S
C317 C311 1.429 . S
C317 N316 1.351 . S
C317 C318 1.434 . S
C318 C309 1.429 . S
C318 N315 1.350 . S
C318 C317 1.434 . S
C319 C320 1.369 . S
C319 C321 1.419 . S
C319 H323 0.930 . S
C320 C319 1.369 . S
C320 C329 1.429 . S
C321 C319 1.419 . S
C321 C322 1.363 . S
C321 H324 0.929 . S
C322 C321 1.363 . S
C322 C328 1.428 . S
H323 C319 0.930 . S
H324 C321 0.929 . S
S325 N326 1.613 . S
S325 N327 1.610 . S
N326 S325 1.613 . S
N326 C329 1.350 . S
N327 S325 1.610 . S
N327 C328 1.351 . S
C328 C322 1.428 . S
C328 N327 1.351 . S
C328 C329 1.434 . S
C329 C320 1.429 . S
C329 N326 1.350 . S
C329 C328 1.434 . S
C330 C331 1.369 . S
C330 C332 1.419 . S
C330 H334 0.930 . S
C331 C330 1.369 . S
C331 C340 1.429 . S
C332 C330 1.419 . S
C332 C333 1.363 . S
C332 H335 0.929 . S
C333 C332 1.363 . S
C333 C339 1.428 . S
H334 C330 0.930 . S
H335 C332 0.929 . S
S336 N337 1.613 . S
S336 N338 1.610 . S
N337 S336 1.613 . S
N337 C340 1.350 . S
N338 S336 1.610 . S
N338 C339 1.351 . S
C339 C333 1.428 . S
C339 N338 1.351 . S
C339 C340 1.434 . S
C340 C331 1.429 . S
C340 N337 1.350 . S
C340 C339 1.434 . S
C341 C342 1.365 1_455 S
C341 C343 1.419 . S
C341 H345 0.930 . S
C342 C341 1.365 1_655 S
C342 C351 1.434 . S
C343 C341 1.419 . S
C343 C344 1.363 1_455 S
C343 H346 0.929 . S
C344 C343 1.363 1_655 S
C344 C350 1.428 . S
H345 C341 0.930 . S
H346 C343 0.929 . S
S347 N348 1.613 . S
S347 N349 1.610 . S
N348 S347 1.613 . S
N348 C351 1.350 . S
N349 S347 1.610 . S
N349 C350 1.351 . S
C350 C344 1.428 . S
C350 N349 1.351 . S
C350 C351 1.434 . S
C351 C342 1.434 . S
C351 N348 1.350 . S
C351 C350 1.434 . S
C352 C353 1.369 . S
C352 C354 1.419 . S
C352 H356 0.930 1_655 S
C353 C352 1.369 . S
C353 C362 1.429 . S
C354 C352 1.419 . S
C354 C355 1.363 . S
C354 H357 0.929 . S
C355 C354 1.363 . S
C355 C361 1.428 . S
H356 C352 0.930 1_455 S
H357 C354 0.929 . S
S358 N359 1.613 . S
S358 N360 1.610 . S
N359 S358 1.613 . S
N359 C362 1.350 . S
N360 S358 1.610 . S
N360 C361 1.351 . S
C361 C355 1.428 . S
C361 N360 1.351 . S
C361 C362 1.434 . S
C362 C353 1.429 . S
C362 N359 1.350 . S
C362 C361 1.434 . S
C363 C364 1.369 . S
C363 C365 1.419 . S
C363 H367 0.930 1_565 S
C364 C363 1.369 . S
C364 C373 1.429 . S
C365 C363 1.419 . S
C365 C366 1.363 . S
C365 H368 0.929 . S
C366 C365 1.363 . S
C366 C372 1.428 . S
H367 C363 0.930 1_545 S
H368 C365 0.929 . S
S369 N370 1.613 . S
S369 N371 1.610 1_556 S
N370 S369 1.613 . S
N370 C373 1.350 1_556 S
N371 S369 1.610 1_554 S
N371 C372 1.351 . S
C372 C366 1.428 . S
C372 N371 1.351 . S
C372 C373 1.434 . S
C373 C364 1.429 . S
C373 N370 1.350 1_554 S
C373 C372 1.434 . S
C374 C375 1.369 . S
C374 C376 1.419 . S
C374 H378 0.930 . S
C375 C374 1.369 . S
C375 C384 1.429 . S
C376 C374 1.419 . S
C376 C377 1.363 . S
C376 H379 0.929 . S
C377 C376 1.363 . S
C377 C383 1.428 . S
H378 C374 0.930 . S
H379 C376 0.929 . S
S380 N381 1.613 . S
S380 N382 1.610 . S
N381 S380 1.613 . S
N381 C384 1.350 . S
N382 S380 1.610 . S
N382 C383 1.351 . S
C383 C377 1.428 . S
C383 N382 1.351 . S
C383 C384 1.434 . S
C384 C375 1.429 . S
C384 N381 1.350 . S
C384 C383 1.434 . S
C385 C386 1.369 . S
C385 C387 1.419 . S
C385 H389 0.930 . S
C386 C385 1.369 . S
C386 C395 1.429 . S
C387 C385 1.419 . S
C387 C388 1.363 . S
C387 H390 0.929 . S
C388 C387 1.363 . S
C388 C394 1.428 . S
H389 C385 0.930 . S
H390 C387 0.929 . S
S391 N392 1.613 1_556 S
S391 N393 1.610 1_556 S
N392 S391 1.613 1_554 S
N392 C395 1.350 . S
N393 S391 1.610 1_554 S
N393 C394 1.351 . S
C394 C388 1.428 . S
C394 N393 1.351 . S
C394 C395 1.434 . S
C395 C386 1.429 . S
C395 N392 1.350 . S
C395 C394 1.434 . S
C396 C397 1.369 . S
C396 C398 1.419 . S
C396 H400 0.930 . S
C397 C396 1.369 . S
C397 C406 1.429 . S
C398 C396 1.419 . S
C398 C399 1.363 . S
C398 H401 0.929 . S
C399 C398 1.363 . S
C399 C405 1.428 . S
H400 C396 0.930 . S
H401 C398 0.929 . S
S402 N403 1.613 . S
S402 N404 1.610 . S
N403 S402 1.613 . S
N403 C406 1.350 . S
N404 S402 1.610 . S
N404 C405 1.351 . S
C405 C399 1.428 . S
C405 N404 1.351 . S
C405 C406 1.434 . S
C406 C397 1.429 . S
C406 N403 1.350 . S
C406 C405 1.434 . S
C407 C408 1.369 . S
C407 C409 1.419 . S
C407 H411 0.930 . S
C408 C407 1.369 . S
C408 C417 1.429 1_545 S
C409 C407 1.419 . S
C409 C410 1.363 . S
C409 H412 0.929 . S
C410 C409 1.363 . S
C410 C416 1.428 . S
H411 C407 0.930 . S
H412 C409 0.929 . S
S413 N414 1.613 . S
S413 N415 1.610 1_565 S
N414 S413 1.613 . S
N414 C417 1.350 . S
N415 S413 1.610 1_545 S
N415 C416 1.351 . S
C416 C410 1.428 . S
C416 N415 1.351 . S
C416 C417 1.434 1_545 S
C417 C408 1.429 1_565 S
C417 N414 1.350 . S
C417 C416 1.434 1_565 S
C418 C419 1.369 . S
C418 C420 1.419 . S
C418 H422 0.930 . S
C419 C418 1.369 . S
C419 C428 1.429 . S
C420 C418 1.419 . S
C420 C421 1.363 . S
C420 H423 0.929 . S
C421 C420 1.363 . S
C421 C427 1.428 . S
H422 C418 0.930 . S
H423 C420 0.929 . S
S424 N425 1.613 . S
S424 N426 1.610 . S
N425 S424 1.613 . S
N425 C428 1.350 . S
N426 S424 1.610 . S
N426 C427 1.351 . S
C427 C421 1.428 . S
C427 N426 1.351 . S
C427 C428 1.434 . S
C428 C419 1.429 . S
C428 N425 1.350 . S
C428 C427 1.434 . S
C429 C430 1.369 . S
C429 C431 1.419 . S
C429 H433 0.930 . S
C430 C429 1.369 . S
C430 C439 1.429 . S
C431 C429 1.419 . S
C431 C432 1.363 . S
C431 H434 0.929 . S
C432 C431 1.363 . S
C432 C438 1.428 . S
H433 C429 0.930 . S
H434 C431 0.929 . S
S435 N436 1.613 . S
S435 N437 1.610 . S
N436 S435 1.613 . S
N436 C439 1.350 . S
N437 S435 1.610 . S
N437 C438 1.351 . S
C438 C432 1.428 . S
C438 N437 1.351 . S
C438 C439 1.434 . S
C439 C430 1.429 . S
C439 N436 1.350 . S
C439 C438 1.434 . S
C440 C441 1.369 1_655 S
C440 C442 1.419 . S
C440 H444 0.930 . S
C441 C440 1.369 1_455 S
C441 C450 1.429 . S
C442 C440 1.419 . S
C442 C443 1.363 1_655 S
C442 H445 0.929 . S
C443 C442 1.363 1_455 S
C443 C449 1.428 . S
H444 C440 0.930 . S
H445 C442 0.929 . S
S446 N447 1.613 . S
S446 N448 1.610 . S
N447 S446 1.613 . S
N447 C450 1.350 . S
N448 S446 1.610 . S
N448 C449 1.351 . S
C449 C443 1.428 . S
C449 N448 1.351 . S
C449 C450 1.434 . S
C450 C441 1.429 . S
C450 N447 1.350 . S
C450 C449 1.434 . S
C451 C452 1.369 . S
C451 C453 1.419 . S
C451 H455 0.930 . S
C452 C451 1.369 . S
C452 C461 1.429 1_546 S
C453 C451 1.419 . S
C453 C454 1.363 . S
C453 H456 0.929 . S
C454 C453 1.363 . S
C454 C460 1.428 1_546 S
H455 C451 0.930 . S
H456 C453 0.929 . S
S457 N458 1.613 . S
S457 N459 1.610 . S
N458 S457 1.613 . S
N458 C461 1.350 . S
N459 S457 1.610 . S
N459 C460 1.351 . S
C460 C454 1.428 1_564 S
C460 N459 1.351 . S
C460 C461 1.434 . S
C461 C452 1.429 1_564 S
C461 N458 1.350 . S
C461 C460 1.434 . S
C462 C463 1.369 . S
C462 C464 1.419 . S
C462 H466 0.930 . S
C463 C462 1.369 . S
C463 C472 1.429 . S
C464 C462 1.419 . S
C464 C465 1.363 . S
C464 H467 0.929 . S
C465 C464 1.363 . S
C465 C471 1.428 . S
H466 C462 0.930 . S
H467 C464 0.929 . S
S468 N469 1.613 . S
S468 N470 1.610 . S
N469 S468 1.613 . S
N469 C472 1.350 . S
N470 S468 1.610 . S
N470 C471 1.351 . S
C471 C465 1.428 . S
C471 N470 1.351 . S
C471 C472 1.434 . S
C472 C463 1.429 . S
C472 N469 1.350 . S
C472 C471 1.434 . S
C473 C474 1.369 . S
C473 C475 1.419 . S
C473 H477 0.930 . S
C474 C473 1.369 . S
C474 C483 1.429 1_556 S
C475 C473 1.419 . S
C475 C476 1.363 . S
C475 H478 0.929 . S
C476 C475 1.363 . S
C476 C482 1.428 1_556 S
H477 C473 0.930 . S
H478 C475 0.929 . S
S479 N480 1.613 . S
S479 N481 1.610 . S
N480 S479 1.613 . S
N480 C483 1.350 . S
N481 S479 1.610 . S
N481 C482 1.351 . S
C482 C476 1.428 1_554 S
C482 N481 1.351 . S
C482 C483 1.434 . S
C483 C474 1.429 1_554 S
C483 N480 1.350 . S
C483 C482 1.434 . S
C484 C485 1.369 . S
C484 C486 1.419 . S
C484 H488 0.930 . S
C485 C484 1.369 . S
C485 C494 1.429 . S
C486 C484 1.419 . S
C486 C487 1.363 . S
C486 H489 0.929 . S
C487 C486 1.363 . S
C487 C493 1.428 . S
H488 C484 0.930 . S
H489 C486 0.929 . S
S490 N491 1.613 . S
S490 N492 1.610 1_455 S
N491 S490 1.613 . S
N491 C494 1.350 1_455 S
N492 S490 1.610 1_655 S
N492 C493 1.351 . S
C493 C487 1.428 . S
C493 N492 1.351 . S
C493 C494 1.434 . S
C494 C485 1.429 . S
C494 N491 1.350 1_655 S
C494 C493 1.434 . S
C495 C496 1.369 . S
C495 C497 1.419 . S
C495 H499 0.930 . S
C496 C495 1.369 . S
C496 C505 1.431 . S
C497 C495 1.419 . S
C497 C498 1.363 . S
C497 H500 0.929 . S
C498 C497 1.363 . S
C498 C504 1.428 . S
H499 C495 0.930 . S
H500 C497 0.929 . S
S501 N502 1.613 . S
S501 N503 1.610 1_545 S
N502 S501 1.613 . S
N502 C505 1.347 1_544 S
N503 S501 1.610 1_565 S
N503 C504 1.351 1_554 S
C504 C498 1.428 . S
C504 N503 1.351 1_556 S
C504 C505 1.436 . S
C505 C496 1.431 . S
C505 N502 1.347 1_566 S
C505 C504 1.436 . S
C506 C507 1.369 . S
C506 C508 1.419 . S
C506 H510 0.930 . S
C507 C506 1.369 . S
C507 C516 1.429 . S
C508 C506 1.419 . S
C508 C509 1.363 . S
C508 H511 0.929 . S
C509 C508 1.363 . S
C509 C515 1.428 . S
H510 C506 0.930 . S
H511 C508 0.929 . S
S512 N513 1.613 . S
S512 N514 1.610 . S
N513 S512 1.613 . S
N513 C516 1.350 . S
N514 S512 1.610 . S
N514 C515 1.351 . S
C515 C509 1.428 . S
C515 N514 1.351 . S
C515 C516 1.434 . S
C516 C507 1.429 . S
C516 N513 1.350 . S
C516 C515 1.434 . S
C517 C518 1.369 . S
C517 C519 1.419 . S
C517 H521 0.930 . S
C518 C517 1.369 . S
C518 C527 1.429 . S
C519 C517 1.419 . S
C519 C520 1.363 . S
C519 H522 0.929 . S
C520 C519 1.363 . S
C520 C526 1.428 . S
H521 C517 0.930 . S
H522 C519 0.929 . S
S523 N524 1.613 . S
S523 N525 1.610 . S
N524 S523 1.613 . S
N524 C527 1.350 . S
N525 S523 1.610 . S
N525 C526 1.351 . S
C526 C520 1.428 . S
C526 N525 1.351 . S
C526 C527 1.434 . S
C527 C518 1.429 . S
C527 N524 1.350 . S
C527 C526 1.434 . S
C265 N80 1.991 1_545 S
C267 C113 2.160 1_545 S
C278 C153 2.180 . S
C276 N93 2.008 . S
C289 C193 2.193 . S
C287 N54 2.027 . S
C300 C233 2.176 1_455 S
C298 N67 2.004 1_455 S
C311 C122 2.162 1_564 S
C309 N28 1.989 . S
C320 N41 2.013 . S
C322 C162 2.181 1_554 S
C331 N2 2.026 . S
C333 C202 2.192 1_554 S
C342 N15 2.014 . S
C344 C242 2.175 1_654 S
C355 C119 0.824 . S
C353 N70 0.834 . S
C366 C159 0.826 . S
C364 N83 0.824 . S
C377 C199 0.812 . S
C375 N96 0.827 . S
C386 N57 0.820 . S
C388 C239 0.822 . S
C397 N18 0.835 1_455 S
C399 C110 0.827 . S
C410 C150 0.809 . S
C408 N31 0.844 1_545 S
C421 C190 0.814 . S
C419 N44 0.831 . S
C430 N5 0.840 . S
C432 C230 0.809 . S
C441 N66 2.410 1_455 S
C443 C123 2.519 . S
C452 N79 2.359 1_545 S
C454 C163 2.472 . S
C465 C203 2.454 . S
C463 N92 2.351 . S
C476 C243 2.504 . S
C474 N53 2.389 . S
C485 N14 2.393 . S
C487 C114 2.524 . S
C498 C154 2.473 . S
C496 N27 2.353 . S
C509 C194 2.458 . S
C507 N40 2.330 . S
C518 N1 2.373 . S
C520 C234 2.509 . S
