# Generated by pormake.
# Topology anh, (6,3)-cn, num edge types: 1
# Building blocks:
#     Node 0, Type 0, BuildingBlock: BETDIP_clean_sbu_0, # of connection points: 6
#     Node 1, Type 0, BuildingBlock: BETDIP_clean_sbu_0, # of connection points: 6
#     Node 2, Type 0, BuildingBlock: BETDIP_clean_sbu_0, # of connection points: 6
#     Node 3, Type 1, BuildingBlock: BELTOD_clean_linker_0, # of connection points: 3
#     Node 4, Type 1, BuildingBlock: BELTOD_clean_linker_0, # of connection points: 3
#     Node 5, Type 1, BuildingBlock: BELTOD_clean_linker_0, # of connection points: 3
#     Node 6, Type 1, BuildingBlock: BELTOD_clean_linker_0, # of connection points: 3
#     Node 7, Type 1, BuildingBlock: BELTOD_clean_linker_0, # of connection points: 3
#     Node 8, Type 1, BuildingBlock: BELTOD_clean_linker_0, # of connection points: 3
#     Edge 9, Type (0, 1), BuildingBlock: XIVTED_clean_linker_0, # of connection points: 2
#     Edge 10, Type (0, 1), BuildingBlock: XIVTED_clean_linker_0, # of connection points: 2
#     Edge 11, Type (0, 1), BuildingBlock: XIVTED_clean_linker_0, # of connection points: 2
#     Edge 12, Type (0, 1), BuildingBlock: XIVTED_clean_linker_0, # of connection points: 2
#     Edge 13, Type (0, 1), BuildingBlock: XIVTED_clean_linker_0, # of connection points: 2
#     Edge 14, Type (0, 1), BuildingBlock: XIVTED_clean_linker_0, # of connection points: 2
#     Edge 15, Type (0, 1), BuildingBlock: XIVTED_clean_linker_0, # of connection points: 2
#     Edge 16, Type (0, 1), BuildingBlock: XIVTED_clean_linker_0, # of connection points: 2
#     Edge 17, Type (0, 1), BuildingBlock: XIVTED_clean_linker_0, # of connection points: 2
#     Edge 18, Type (0, 1), BuildingBlock: XIVTED_clean_linker_0, # of connection points: 2
#     Edge 19, Type (0, 1), BuildingBlock: XIVTED_clean_linker_0, # of connection points: 2
#     Edge 20, Type (0, 1), BuildingBlock: XIVTED_clean_linker_0, # of connection points: 2
#     Edge 21, Type (0, 1), BuildingBlock: XIVTED_clean_linker_0, # of connection points: 2
#     Edge 22, Type (0, 1), BuildingBlock: XIVTED_clean_linker_0, # of connection points: 2
#     Edge 23, Type (0, 1), BuildingBlock: XIVTED_clean_linker_0, # of connection points: 2
#     Edge 24, Type (0, 1), BuildingBlock: XIVTED_clean_linker_0, # of connection points: 2
#     Edge 25, Type (0, 1), BuildingBlock: XIVTED_clean_linker_0, # of connection points: 2
#     Edge 26, Type (0, 1), BuildingBlock: XIVTED_clean_linker_0, # of connection points: 2
# Relax obj value: 0.250
# Max RMSD: 0.179
# Mean RMSD: 0.148
data_MOF--net-anh--node1-BETDIP_clean_sbu_0--node2-BELTOD_clean_linker_0--edge1-XIVTED_clean_linker_0
_symmetry_space_group_name_H-M    P1
_symmetry_Int_Tables_number       1
_symmetry_cell_setting            triclinic
loop_
_symmetry_equiv_pos_as_xyz
'x, y, z'
_cell_length_a     34.372108
_cell_length_b     34.244019
_cell_length_c     61.509216
_cell_angle_alpha  89.325646
_cell_angle_beta   89.673388
_cell_angle_gamma 120.33521
loop_
_atom_site_label
_atom_site_type_symbol
_atom_site_fract_x
_atom_site_fract_y
_atom_site_fract_z
_atom_type_partial_charge
Tb0 Tb 0.12897 0.61909 0.17131 0.0
Tb1 Tb 1.08292 0.52429 0.15454 0.0
C2 C 0.17608 0.68631 0.1944 0.0
C3 C 0.22485 0.71425 0.19743 0.0
C4 C 0.24148 0.73881 0.21651 0.0
C5 C 0.28791 0.76597 0.21936 0.0
C6 C 0.31836 0.7689 0.20314 0.0
C7 C 0.30146 0.74341 0.18421 0.0
C8 C 0.25507 0.71625 0.18139 0.0
C9 C 0.11725 0.61303 0.12937 0.0
C10 C 0.18788 0.57112 0.15875 0.0
C11 C 1.03545 0.45641 0.13181 0.0
C12 C 0.99385 0.44316 0.11976 0.0
C13 C 0.98556 0.47611 0.11068 0.0
C14 C 0.94262 0.46407 0.10328 0.0
C15 C 0.90729 0.41889 0.10485 0.0
C16 C 0.91691 0.38557 0.11221 0.0
C17 C 0.95979 0.39767 0.11966 0.0
C18 C 1.09317 0.53173 0.19709 0.0
C19 C 1.0264 0.57554 0.16159 0.0
O20 O 0.15775 0.64448 0.20161 0.0
O21 O 0.16164 0.68919 0.17513 0.0
O22 O 0.12736 0.5893 0.14117 0.0
O23 O 0.11725 0.6446 0.14083 0.0
O24 O 0.18629 0.60592 0.1674 0.0
O25 O 0.15094 0.53538 0.15157 0.0
O26 O 1.07177 0.4925 0.12447 0.0
O27 O 1.03143 0.45629 0.15301 0.0
O28 O 1.08277 0.55451 0.18472 0.0
O29 O 0.09563 0.50121 0.18578 0.0
O30 O 1.03076 0.54384 0.15151 0.0
O31 O 1.0597 0.60645 0.17343 0.0
H32 H 0.21855 0.73742 0.22907 0.0
H33 H 0.2999 0.7857 0.23399 0.0
H34 H 0.3241 0.74463 0.17155 0.0
H35 H 0.2428 0.69721 0.16659 0.0
H36 H 1.01145 0.51151 0.11046 0.0
H37 H 0.93641 0.49047 0.09759 0.0
H38 H 0.89045 0.35051 0.11396 0.0
H39 H 0.96553 0.37181 0.1266 0.0
Tb40 Tb 0.61442 1.04826 0.50436 0.0
Tb41 Tb 0.56375 0.09514 0.49187 0.0
C42 C 0.64149 1.00201 0.52393 0.0
C43 C 0.63753 0.95731 0.52209 0.0
C44 C 0.59697 0.91672 0.52653 0.0
C45 C 0.59555 0.87517 0.52559 0.0
C46 C 0.63452 0.87371 0.52001 0.0
C47 C 0.67463 0.91436 0.5152 0.0
C48 C 0.67614 0.95561 0.51633 0.0
C49 C 0.61721 0.06614 0.46269 0.0
C50 C 0.50732 0.98871 0.49338 0.0
C51 C 0.53991 0.14585 0.47395 0.0
C52 C 0.56649 0.19169 0.46434 0.0
C53 C 0.60328 0.20308 0.4503 0.0
C54 C 0.63487 0.24843 0.44576 0.0
C55 C 0.63066 0.28309 0.4555 0.0
C56 C 0.59132 0.27137 0.46767 0.0
C57 C 0.55951 0.22605 0.472 0.0
C58 C 0.56482 0.0785 0.53398 0.0
C59 C 0.67133 0.1524 0.49696 0.0
O60 O 0.60573 1.00362 0.53012 0.0
O61 O 0.66396 1.0308 0.50814 0.0
O62 O 0.58435 1.05442 0.47548 0.0
O63 O 0.6484 1.06277 0.47273 0.0
O64 O 0.54449 0.98998 0.50062 0.0
O65 O 0.50745 1.02633 0.48783 0.0
O66 O 0.54157 0.11327 0.46386 0.0
O67 O 0.54395 0.14355 0.495 0.0
O68 O 0.59688 0.09141 0.52057 0.0
O69 O 0.53081 0.07703 0.52416 0.0
O70 O 0.63536 0.14823 0.48692 0.0
O71 O 0.66807 0.11849 0.509 0.0
H72 H 0.56662 0.91705 0.53103 0.0
H73 H 0.56426 0.84431 0.52945 0.0
H74 H 0.70554 0.91455 0.5114 0.0
H75 H 0.70791 0.98642 0.51306 0.0
H76 H 0.6095 0.17728 0.44407 0.0
H77 H 0.66434 0.2563 0.43598 0.0
H78 H 0.58696 0.29702 0.47557 0.0
H79 H 0.53132 0.218 0.48279 0.0
Tb80 Tb 0.58017 0.56081 0.83606 0.0
Tb81 Tb 0.67771 0.61284 0.82248 0.0
C82 C 0.5086 0.53689 0.85687 0.0
C83 C 0.48143 0.55852 0.85935 0.0
C84 C 0.45527 0.55056 0.87818 0.0
C85 C 0.43129 0.5731 0.8811 0.0
C86 C 0.4334 0.60414 0.86525 0.0
C87 C 0.46003 0.61218 0.84646 0.0
C88 C 0.48375 0.58949 0.84353 0.0
C89 C 0.59523 0.56411 0.79405 0.0
C90 C 0.63068 0.67041 0.82717 0.0
C91 C 0.74999 0.63778 0.80188 0.0
C92 C 0.76382 0.61235 0.78785 0.0
C93 C 0.73121 0.57288 0.77767 0.0
C94 C 0.74292 0.54302 0.76856 0.0
C95 C 0.78748 0.5521 0.76966 0.0
C96 C 0.82084 0.59394 0.77789 0.0
C97 C 0.80901 0.62374 0.787 0.0
C98 C 0.66223 0.60886 0.86479 0.0
C99 C 0.6247 0.50368 0.82639 0.0
O100 O 0.54857 0.55887 0.86559 0.0
O101 O 0.50969 0.52248 0.83736 0.0
O102 O 0.61586 0.59511 0.80747 0.0
O103 O 0.56214 0.52935 0.80391 0.0
O104 O 0.59406 0.63215 0.83384 0.0
O105 O 0.66786 0.67077 0.82105 0.0
O106 O 0.71735 0.6432 0.79454 0.0
O107 O 0.74417 0.62552 0.82244 0.0
O108 O 0.64175 0.57754 0.85141 0.0
O109 O 0.69518 0.64342 0.85474 0.0
O110 O 0.65654 0.54099 0.81643 0.0
O111 O 0.59359 0.50488 0.83872 0.0
H112 H 0.45347 0.52702 0.89062 0.0
H113 H 0.4105 0.56563 0.89559 0.0
H114 H 0.46279 0.63623 0.83408 0.0
H115 H 0.50413 0.59635 0.82893 0.0
H116 H 0.69619 0.56355 0.77813 0.0
H117 H 0.71662 0.51124 0.76223 0.0
H118 H 0.85546 0.60178 0.77924 0.0
H119 H 0.83466 0.65404 0.79477 0.0
P120 P 0.70184 0.19401 0.24163 0.0
H121 H 0.70372 0.13545 0.20805 0.0
H122 H 0.65343 1.0552 0.20015 0.0
H123 H 0.5724 1.04234 0.25674 0.0
H124 H 0.62237 0.12155 0.26454 0.0
H125 H 0.74103 0.29038 0.23442 0.0
H126 H 0.73403 0.33354 0.20463 0.0
H127 H 0.62074 0.21119 0.18021 0.0
H128 H 0.62858 0.16811 0.21 0.0
H129 H 0.75298 0.19409 0.27889 0.0
H130 H 0.64071 0.21379 0.26641 0.0
O131 O 0.75515 0.20932 0.23564 0.0
H132 H 0.73914 0.19212 0.3178 0.0
H133 H 0.6265 0.21195 0.30566 0.0
C134 C 0.66724 0.13434 0.23705 0.0
C135 C 0.67551 0.11502 0.21892 0.0
C136 C 0.64672 0.06931 0.21438 0.0
C137 C 0.60925 1.04235 0.22796 0.0
C138 C 0.60156 1.06187 0.24626 0.0
C139 C 0.63011 0.10746 0.25067 0.0
C140 C 0.68623 0.22604 0.22409 0.0
C141 C 0.71378 0.2731 0.22305 0.0
C142 C 0.70934 0.29782 0.20604 0.0
C143 C 0.6772 0.27573 0.18971 0.0
C144 C 0.64634 0.22911 0.19226 0.0
C145 C 0.65092 0.2044 0.20931 0.0
C146 C 0.69829 0.20474 0.26984 0.0
C147 C 0.72628 0.19959 0.28459 0.0
C148 C 0.71831 0.19853 0.30688 0.0
C149 C 0.68172 0.20194 0.31483 0.0
C150 C 0.65485 0.20911 0.3 0.0
C151 C 0.66317 0.21059 0.27762 0.0
P152 P 0.8465 0.63497 0.59422 0.0
H153 H 0.87808 0.65282 0.5499 0.0
H154 H 0.86496 0.60324 0.51921 0.0
H155 H 0.80371 0.48717 0.56279 0.0
H156 H 0.81716 0.53708 0.59355 0.0
H157 H 0.86248 0.72666 0.58579 0.0
H158 H 0.81637 0.75399 0.56848 0.0
H159 H 0.70946 0.61618 0.55978 0.0
H160 H 0.75616 0.58894 0.57615 0.0
H161 H 0.87566 0.66373 0.63847 0.0
H162 H 0.76039 0.55423 0.60761 0.0
O163 O 0.89908 0.67765 0.59749 0.0
H164 H 0.8343 0.64398 0.6729 0.0
H165 H 0.71822 0.53539 0.64185 0.0
C166 C 0.84787 0.59849 0.57389 0.0
C167 C 0.86295 0.61677 0.55295 0.0
C168 C 0.85531 0.58851 0.53542 0.0
C169 C 0.83289 0.54146 0.53862 0.0
C170 C 0.82122 0.52342 0.55991 0.0
C171 C 0.82854 0.55184 0.57749 0.0
C172 C 0.81253 0.6558 0.58251 0.0
C173 C 0.82918 0.70234 0.58018 0.0
C174 C 0.80294 0.71788 0.57026 0.0
C175 C 0.7595 0.68701 0.5629 0.0
C176 C 0.74271 0.64049 0.56552 0.0
C177 C 0.76927 0.62502 0.57502 0.0
C178 C 0.82127 0.61058 0.62035 0.0
C179 C 0.84188 0.63466 0.63916 0.0
C180 C 0.81795 0.62365 0.65884 0.0
C181 C 0.7726 0.58872 0.66003 0.0
C182 C 0.7531 0.56242 0.64154 0.0
C183 C 0.77724 0.57334 0.62186 0.0
P184 P 1.03445 0.61163 0.9022 0.0
H185 H 0.11966 0.69067 0.9145 0.0
H186 H 0.19879 0.71383 0.90649 0.0
H187 H 0.15414 0.59431 0.86799 0.0
H188 H 1.07624 0.57074 0.87646 0.0
H189 H 1.02652 0.61936 0.85621 0.0
H190 H 0.98294 0.56577 0.82833 0.0
H191 H 0.92186 0.45872 0.877 0.0
H192 H 0.9659 0.51335 0.90512 0.0
H193 H 1.04392 0.54123 0.92459 0.0
H194 H 1.00627 0.63994 0.94087 0.0
O195 O 1.02718 0.65613 0.89982 0.0
H196 H 1.04313 0.52281 0.96321 0.0
H197 H 1.00738 0.62351 0.97928 0.0
C198 C 1.0921 0.62973 0.89557 0.0
C199 C 0.1271 0.66983 0.90415 0.0
C200 C 0.17207 0.68298 0.89961 0.0
C201 C 0.18226 0.65631 0.88624 0.0
C202 C 0.14706 0.61609 0.87783 0.0
C203 C 0.10242 0.60262 0.88269 0.0
C204 C 0.9991 0.57049 0.8827 0.0
C205 C 1.00378 0.58435 0.86091 0.0
C206 C 0.97944 0.55336 0.84491 0.0
C207 C 0.94955 0.50761 0.85035 0.0
C208 C 0.94494 0.49362 0.87229 0.0
C209 C 0.96984 0.52488 0.88838 0.0
C210 C 1.02492 0.59172 0.92992 0.0
C211 C 1.03466 0.5583 0.93649 0.0
C212 C 1.03465 0.54818 0.95857 0.0
C213 C 1.02555 0.57189 0.97445 0.0
C214 C 1.01384 0.60397 0.96761 0.0
C215 C 1.01347 0.61368 0.94556 0.0
P216 P 0.11898 0.54487 0.43653 0.0
H217 H 0.16264 0.57792 0.47865 0.0
H218 H 0.22281 0.65213 0.49027 0.0
H219 H 0.21187 0.71155 0.42999 0.0
H220 H 0.15145 0.63756 0.41872 0.0
H221 H 1.08101 0.4498 0.44915 0.0
H222 H 1.00746 0.39003 0.46131 0.0
H223 H 0.95922 0.48452 0.46142 0.0
H224 H 1.03431 0.54524 0.44894 0.0
H225 H 0.18398 0.56324 0.40165 0.0
H226 H 1.04671 0.53422 0.40646 0.0
O227 O 0.15232 0.52312 0.44055 0.0
H228 H 0.1799 0.56311 0.36207 0.0
H229 H 1.04225 0.53379 0.36666 0.0
C230 C 0.15172 0.60161 0.44785 0.0
C231 C 0.17212 0.60714 0.46821 0.0
C232 C 0.20733 0.64975 0.47469 0.0
C233 C 0.22326 0.68838 0.46101 0.0
C234 C 0.20082 0.68311 0.44115 0.0
C235 C 0.16578 0.64042 0.43465 0.0
C236 C 1.06422 0.50288 0.44849 0.0
C237 C 1.05523 0.45842 0.45217 0.0
C238 C 1.0126 0.42377 0.45923 0.0
C239 C 0.97678 0.43188 0.46267 0.0
C240 C 0.98565 0.47656 0.45895 0.0
C241 C 1.02885 0.51161 0.45199 0.0
C242 C 0.11536 0.54772 0.40714 0.0
C243 C 0.15281 0.55668 0.3942 0.0
C244 C 0.15039 0.55644 0.37149 0.0
C245 C 0.11051 0.54773 0.36106 0.0
C246 C 1.07351 0.5406 0.37409 0.0
C247 C 1.07592 0.54059 0.39691 0.0
P248 P 0.64587 0.10004 0.76889 0.0
H249 H 0.67716 0.15549 0.8082 0.0
H250 H 0.66755 0.21789 0.82079 0.0
H251 H 0.56429 0.18418 0.77312 0.0
H252 H 0.57266 0.12088 0.76121 0.0
H253 H 0.70087 1.05849 0.76464 0.0
H254 H 0.69419 0.9878 0.77668 0.0
H255 H 0.56942 0.9519 0.81015 0.0
H256 H 0.57614 1.02375 0.79732 0.0
H257 H 0.64887 0.1625 0.73533 0.0
H258 H 0.60407 1.02009 0.74008 0.0
O259 O 0.70147 0.13518 0.76685 0.0
H260 H 0.62915 0.15428 0.69683 0.0
H261 H 0.58611 1.01228 0.7013 0.0
C262 C 0.62607 0.13326 0.78353 0.0
C263 C 0.65117 0.16029 0.80099 0.0
C264 C 0.64592 0.19641 0.80808 0.0
C265 C 0.61584 0.20695 0.79767 0.0
C266 C 0.58845 0.1778 0.78125 0.0
C267 C 0.59306 0.14115 0.77451 0.0
C268 C 0.63981 1.04762 0.78054 0.0
C269 C 0.67234 1.03603 0.77492 0.0
C270 C 0.66847 0.99512 0.78193 0.0
C271 C 0.63167 0.9637 0.79488 0.0
C272 C 0.59838 0.97492 0.80027 0.0
C273 C 0.60234 1.01634 0.79312 0.0
C274 C 0.62711 0.09182 0.74088 0.0
C275 C 0.63418 0.1293 0.72822 0.0
C276 C 0.62306 0.12464 0.70617 0.0
C277 C 0.60594 0.08261 0.69606 0.0
C278 C 0.59927 1.0451 0.70866 0.0
C279 C 0.60942 1.04957 0.7309 0.0
P280 P 0.59788 0.55057 0.10294 0.0
H281 H 0.61979 0.50886 0.13943 0.0
H282 H 0.69057 0.516 0.15167 0.0
H283 H 0.76464 0.63227 0.10917 0.0
H284 H 0.69341 0.62474 0.09685 0.0
H285 H 0.52935 0.55955 0.07929 0.0
H286 H 0.46609 0.56787 0.09013 0.0
H287 H 0.50962 0.58453 0.15672 0.0
H288 H 0.57445 0.57666 0.14551 0.0
H289 H 0.60354 0.49657 0.06779 0.0
H290 H 0.62206 0.63002 0.07439 0.0
O291 O 0.5669 0.49434 0.10553 0.0
H292 H 0.61625 0.50888 0.02866 0.0
H293 H 0.63397 0.64246 0.03496 0.0
C294 C 0.6506 0.56612 0.11708 0.0
C295 C 0.65116 0.53666 0.13306 0.0
C296 C 0.69196 0.54044 0.13989 0.0
C297 C 0.73382 0.57421 0.13118 0.0
C298 C 0.73338 0.60576 0.11632 0.0
C299 C 0.69237 0.60162 0.1093 0.0
C300 C 0.55843 0.56918 0.11132 0.0
C301 C 0.52677 0.5667 0.09616 0.0
C302 C 0.48963 0.57062 0.10249 0.0
C303 C 0.48195 0.5765 0.1244 0.0
C304 C 0.51435 0.58043 0.13966 0.0
C305 C 0.55178 0.57621 0.13323 0.0
C306 C 0.61073 0.56194 0.07404 0.0
C307 C 0.61012 0.52855 0.06081 0.0
C308 C 0.61718 0.53558 0.03831 0.0
C309 C 0.62539 0.5764 0.02842 0.0
C310 C 0.62782 0.6106 0.0419 0.0
C311 C 0.62077 0.60348 0.06448 0.0
H312 H 0.27402 0.63585 0.17223 0.0
H313 H 0.39608 0.52021 0.10986 0.0
H314 H 0.20426 0.51068 0.13742 0.0
H315 H 0.46838 0.63 0.15405 0.0
H316 H 0.32671 0.5197 0.11895 0.0
H317 H 0.34568 0.63763 0.16521 0.0
C318 C 0.27353 0.60868 0.16319 0.0
C319 C 0.23244 0.57302 0.15547 0.0
C320 C 0.3576 0.544 0.12674 0.0
C321 C 0.31502 0.5751 0.14718 0.0
C322 C 0.3976 0.54452 0.12143 0.0
C323 C 0.43884 0.5755 0.13097 0.0
C324 C 0.35797 0.57493 0.14172 0.0
C325 C 0.43769 0.60537 0.14625 0.0
C326 C 0.31462 0.60972 0.15919 0.0
C327 C 0.23457 0.53892 0.14381 0.0
N328 N 0.3982 0.60458 0.151 0.0
N329 N 0.27474 0.54098 0.14 0.0
H330 H 0.75364 0.17649 0.51558 0.0
H331 H 0.89206 0.41493 0.45018 0.0
H332 H 0.69249 0.22578 0.47034 0.0
H333 H 0.95519 0.35968 0.49073 0.0
H334 H 0.81829 0.349 0.4595 0.0
H335 H 0.82681 0.24521 0.50852 0.0
C336 C 0.75536 0.20179 0.50426 0.0
C337 C 0.71626 0.19508 0.49369 0.0
C338 C 0.84829 0.35132 0.4664 0.0
C339 C 0.80076 0.27447 0.48536 0.0
C340 C 0.89063 0.38933 0.46119 0.0
C341 C 0.93061 0.39328 0.46945 0.0
C342 C 0.84532 0.31662 0.48011 0.0
C343 C 0.92584 0.3582 0.48353 0.0
C344 C 0.79735 0.24115 0.50019 0.0
C345 C 0.72125 0.22933 0.47908 0.0
N346 N 0.88437 0.32167 0.48832 0.0
N347 N 0.76238 0.26717 0.47536 0.0
H348 H 0.70198 0.75663 0.82081 0.0
H349 H 0.55603 0.87747 0.80065 0.0
H350 H 0.55717 0.6839 0.82773 0.0
H351 H 0.70085 0.94871 0.80618 0.0
H352 H 0.55415 0.8065 0.81018 0.0
H353 H 0.70075 0.8265 0.81472 0.0
C354 C 0.66977 0.75519 0.82115 0.0
C355 C 0.6296 0.71375 0.82483 0.0
C356 C 0.58629 0.83775 0.80934 0.0
C357 C 0.62793 0.7949 0.81756 0.0
C358 C 0.58743 0.87855 0.804 0.0
C359 C 0.62875 0.91979 0.80222 0.0
C360 C 0.62674 0.83775 0.81294 0.0
C361 C 0.66814 0.91816 0.80668 0.0
C362 C 0.66912 0.79541 0.81766 0.0
C363 C 0.58907 0.71476 0.82507 0.0
N364 N 0.66612 0.87822 0.81163 0.0
N365 N 0.58923 0.75442 0.82134 0.0
H366 H 1.00962 0.64582 0.16842 0.0
H367 H 0.7477 0.50186 0.13575 0.0
H368 H 0.94422 0.50725 0.14779 0.0
H369 H 0.8194 0.64747 0.13891 0.0
H370 H 0.81763 0.50257 0.14394 0.0
H371 H 0.93936 0.64646 0.16154 0.0
C372 C 0.98053 0.6154 0.16262 0.0
C373 C 0.98329 0.57641 0.15871 0.0
C374 C 0.81819 0.53445 0.14291 0.0
C375 C 0.90213 0.57689 0.15085 0.0
C376 C 0.77798 0.53409 0.13836 0.0
C377 C 0.77702 0.57469 0.13666 0.0
C378 C 0.85839 0.57569 0.14614 0.0
C379 C 0.81812 0.61527 0.13988 0.0
C380 C 0.94038 0.61589 0.15858 0.0
C381 C 0.94419 0.53824 0.15101 0.0
N382 N 0.85679 0.61471 0.14455 0.0
N383 N 0.90558 0.53941 0.14748 0.0
H384 H 0.49115 0.90204 0.50221 0.0
H385 H 0.24026 0.77565 0.45307 0.0
H386 H 0.42634 0.97213 0.47636 0.0
H387 H 0.30086 0.70431 0.48224 0.0
H388 H 0.30808 0.84745 0.46139 0.0
H389 H 0.42236 0.82964 0.4952 0.0
C390 C 0.46256 0.90241 0.49513 0.0
C391 C 0.46505 0.94379 0.48992 0.0
C392 C 0.30657 0.81612 0.46605 0.0
C393 C 0.38552 0.8602 0.48168 0.0
C394 C 0.2677 0.77483 0.46118 0.0
C395 C 0.26417 0.73317 0.46688 0.0
C396 C 0.34292 0.81643 0.47666 0.0
C397 C 0.30123 0.73512 0.47771 0.0
C398 C 0.42313 0.86086 0.49111 0.0
C399 C 0.42646 0.94149 0.48073 0.0
N400 N 0.33878 0.77572 0.48212 0.0
N401 N 0.3887 0.90075 0.47689 0.0
H402 H 0.65359 0.47861 0.7904 0.0
H403 H 0.61392 0.24215 0.8378 0.0
H404 H 0.59131 0.42757 0.85325 0.0
H405 H 0.61752 0.27023 0.76911 0.0
H406 H 0.61511 0.31335 0.84521 0.0
H407 H 0.65061 0.40672 0.78374 0.0
C408 C 0.63968 0.45247 0.80292 0.0
C409 C 0.62296 0.45958 0.82249 0.0
C410 C 0.61546 0.3038 0.82853 0.0
C411 C 0.61963 0.37649 0.81496 0.0
C412 C 0.61494 0.26319 0.82426 0.0
C413 C 0.61528 0.24969 0.80275 0.0
C414 C 0.61753 0.33204 0.81119 0.0
C415 C 0.61661 0.27866 0.78594 0.0
C416 C 0.63767 0.41117 0.79902 0.0
C417 C 0.60455 0.42378 0.83791 0.0
N418 N 0.6181 0.31836 0.79049 0.0
N419 N 0.60376 0.38411 0.83393 0.0
H420 H 0.59854 0.80768 0.55175 0.0
H421 H 0.78212 0.74379 0.5279 0.0
H422 H 0.67411 0.84341 0.49136 0.0
H423 H 0.67452 0.66735 0.57424 0.0
H424 H 0.73898 0.7763 0.5127 0.0
H425 H 0.6189 0.74979 0.55846 0.0
C426 C 0.61825 0.80241 0.53958 0.0
C427 C 0.63567 0.83112 0.52125 0.0
C428 C 0.72437 0.75189 0.52597 0.0
C429 C 0.65999 0.76599 0.52907 0.0
C430 C 0.74917 0.73371 0.53472 0.0
C431 C 0.73193 0.70351 0.55246 0.0
C432 C 0.68255 0.74059 0.53539 0.0
C433 C 0.68889 0.69084 0.5606 0.0
C434 C 0.63011 0.76954 0.54348 0.0
C435 C 0.66112 0.82284 0.50603 0.0
N436 N 0.66592 0.71014 0.55226 0.0
N437 N 0.67339 0.79173 0.51052 0.0
H438 H 0.8597 0.55333 0.74942 0.0
H439 H 0.85895 0.44654 0.85357 0.0
H440 H 0.73876 0.46647 0.78651 0.0
H441 H 0.97067 0.49946 0.80808 0.0
H442 H 0.80737 0.4241 0.82333 0.0
H443 H 0.89155 0.50756 0.76165 0.0
C444 C 0.83914 0.5235 0.75944 0.0
C445 C 0.7975 0.51496 0.76781 0.0
C446 C 0.84307 0.4393 0.81979 0.0
C447 C 0.83424 0.46362 0.78265 0.0
C448 C 0.87266 0.45192 0.8372 0.0
C449 C 0.9193 0.4773 0.83332 0.0
C450 C 0.86053 0.45372 0.79858 0.0
C451 C 0.93489 0.4822 0.81175 0.0
C452 C 0.85732 0.49728 0.76652 0.0
C453 C 0.77166 0.47515 0.78019 0.0
N454 N 0.90569 0.47223 0.79513 0.0
N455 N 0.79112 0.45191 0.78795 0.0
H456 H 0.37018 0.78433 0.23928 0.0
H457 H 0.5749 1.00918 0.18793 0.0
H458 H 0.3779 0.82624 0.17218 0.0
H459 H 0.56697 0.96827 0.25521 0.0
H460 H 0.51016 0.93505 0.1802 0.0
H461 H 0.4484 0.84431 0.24387 0.0
C462 C 0.3885 0.80593 0.22547 0.0
C463 C 0.36733 0.80076 0.20542 0.0
C464 C 0.52297 0.942 0.1966 0.0
C465 C 0.45676 0.86939 0.21052 0.0
C466 C 0.56018 0.98424 0.20099 0.0
C467 C 0.57583 0.99516 0.22233 0.0
C468 C 0.50114 0.91062 0.2137 0.0
C469 C 0.55526 0.96159 0.23862 0.0
C470 C 0.4332 0.84001 0.22806 0.0
C471 C 0.39288 0.82901 0.18793 0.0
N472 N 0.51857 0.92106 0.23404 0.0
N473 N 0.43607 0.86252 0.19097 0.0
H474 H 0.63301 0.36488 0.45442 0.0
H475 H 0.83932 0.46625 0.5307 0.0
H476 H 0.71885 0.30742 0.4607 0.0
H477 H 0.78733 0.5476 0.50401 0.0
H478 H 0.80036 0.41059 0.50231 0.0
H479 H 0.69359 0.43597 0.46861 0.0
C480 C 0.6649 0.36745 0.45833 0.0
C481 C 0.67027 0.32953 0.45706 0.0
C482 C 0.79827 0.4411 0.50237 0.0
C483 C 0.73939 0.41041 0.47356 0.0
C484 C 0.8203 0.47266 0.51863 0.0
C485 C 0.81616 0.51123 0.51974 0.0
C486 C 0.77098 0.4477 0.48757 0.0
C487 C 0.7914 0.51826 0.50366 0.0
C488 C 0.69953 0.40807 0.46639 0.0
C489 C 0.71277 0.33528 0.46181 0.0
N490 N 0.76896 0.48632 0.48849 0.0
N491 N 0.74527 0.37448 0.47042 0.0
H492 H 0.41849 0.63919 0.90222 0.0
H493 H 0.22194 0.66148 0.8471 0.0
H494 H 0.38619 0.61953 0.83403 0.0
H495 H 0.24824 0.6758 0.91585 0.0
H496 H 0.29293 0.66301 0.84102 0.0
H497 H 0.36641 0.66758 0.90664 0.0
C498 C 0.40068 0.64112 0.88816 0.0
C499 C 0.40616 0.62629 0.8678 0.0
C500 C 0.28369 0.66663 0.85741 0.0
C501 C 0.34698 0.65911 0.87268 0.0
C502 C 0.24327 0.66586 0.86085 0.0
C503 C 0.22916 0.66783 0.88202 0.0
C504 C 0.30977 0.66863 0.87533 0.0
C505 C 0.25802 0.67401 0.8993 0.0
C506 C 0.37124 0.65765 0.89066 0.0
C507 C 0.38314 0.63063 0.85003 0.0
N508 N 0.29668 0.67331 0.89563 0.0
N509 N 0.35418 0.64612 0.85294 0.0
H510 H 0.83574 0.344 0.08676 0.0
H511 H 0.70001 0.36425 0.18112 0.0
H512 H 0.86946 0.46719 0.1199 0.0
H513 H 0.66967 0.24067 0.14915 0.0
H514 H 0.74047 0.40689 0.14842 0.0
H515 H 0.75705 0.31298 0.09769 0.0
C516 C 0.82639 0.36506 0.09578 0.0
C517 C 0.85955 0.40739 0.10333 0.0
C518 C 0.72366 0.37029 0.14829 0.0
C519 C 0.76991 0.37186 0.11631 0.0
C520 C 0.70056 0.34591 0.16701 0.0
C521 C 0.68338 0.29901 0.16832 0.0
C522 C 0.73007 0.34752 0.131 0.0
C523 C 0.68345 0.2769 0.14923 0.0
C524 C 0.7814 0.34738 0.10202 0.0
C525 C 0.84531 0.43386 0.11426 0.0
N526 N 0.70781 0.30146 0.13161 0.0
N527 N 0.80178 0.41511 0.12107 0.0
H528 H 1.05874 0.63281 0.10961 0.0
H529 H 1.0906 0.5586 0.99294 0.0
H530 H 0.13612 0.56721 0.0991 0.0
H531 H 0.97727 0.57466 0.00969 0.0
H532 H 0.10832 0.56151 0.03139 0.0
H533 H 1.03009 0.61393 0.07259 0.0
C534 C 1.06976 0.61453 0.09941 0.0
C535 C 0.09999 0.60176 0.10719 0.0
C536 C 1.07922 0.56379 0.02665 0.0
C537 C 1.0676 0.58017 0.06499 0.0
C538 C 1.0688 0.56179 0.00466 0.0
C539 C 1.03257 0.56687 -0.00208 0.0
C540 C 1.05373 0.57164 0.04201 0.0
C541 C 1.00618 0.57173 0.01401 0.0
C542 C 1.05311 0.60339 0.07841 0.0
C543 C 0.11282 0.57761 0.09357 0.0
N544 N 1.01766 0.57465 0.03526 0.0
N545 N 0.09691 0.56795 0.07298 0.0
H546 H 0.69746 0.13115 0.44612 0.0
H547 H 0.5975 0.14912 0.3328 0.0
H548 H 0.55494 1.06024 0.43335 0.0
H549 H 0.73727 0.23243 0.35001 0.0
H550 H 0.57944 0.1223 0.37053 0.0
H551 H 0.71139 0.17324 0.41197 0.0
C552 C 0.66909 0.12441 0.43601 0.0
C553 C 0.62506 0.09192 0.4423 0.0
C554 C 0.61393 0.147 0.36613 0.0
C555 C 0.64062 0.13982 0.40315 0.0
C556 C 0.62423 0.16264 0.34462 0.0
C557 C 0.66909 0.19263 0.3382 0.0
C558 C 0.6488 0.16124 0.38125 0.0
C559 C 0.70239 0.2086 0.35417 0.0
C560 C 0.67698 0.1487 0.4166 0.0
C561 C 0.58939 0.085 0.4289 0.0
N562 N 0.69166 0.19226 0.37488 0.0
N563 N 0.59797 0.10843 0.40977 0.0
H564 H 0.58366 0.49192 0.77004 0.0
H565 H 0.77356 0.65566 0.68392 0.0
H566 H 0.64788 0.6374 0.76876 0.0
H567 H 0.70677 0.51012 0.68028 0.0
H568 H 0.72617 0.64807 0.71492 0.0
H569 H 0.62456 0.496 0.73631 0.0
C570 C 0.60565 0.52457 0.76238 0.0
C571 C 0.61299 0.56448 0.77219 0.0
C572 C 0.72173 0.61765 0.70743 0.0
C573 C 0.65994 0.56948 0.73405 0.0
C574 C 0.74927 0.62198 0.68982 0.0
C575 C 0.74461 0.58346 0.67959 0.0
C576 C 0.68897 0.57443 0.71503 0.0
C577 C 0.71147 0.54073 0.68765 0.0
C578 C 0.6292 0.52693 0.74328 0.0
C579 C 0.6419 0.60594 0.76182 0.0
N580 N 0.68497 0.53732 0.70497 0.0
N581 N 0.6646 0.60739 0.74345 0.0
H582 H 0.63262 0.07677 0.55624 0.0
H583 H 0.55578 0.11033 0.67315 0.0
H584 H 0.50726 0.07461 0.56612 0.0
H585 H 0.6353 1.04639 0.66494 0.0
H586 H 0.54354 0.10647 0.63372 0.0
H587 H 0.64035 0.07429 0.59578 0.0
C588 C 0.60655 0.07544 0.56673 0.0
C589 C 0.56904 0.07552 0.55787 0.0
C590 C 0.56343 0.09304 0.64058 0.0
C591 C 0.5783 0.0739 0.60314 0.0
C592 C 0.57056 0.09539 0.66303 0.0
C593 C 0.59649 0.07854 0.67233 0.0
C594 C 0.58328 0.07471 0.62721 0.0
C595 C 0.6148 1.05943 0.65847 0.0
C596 C 0.61101 0.07405 0.58929 0.0
C597 C 0.53659 0.07436 0.57226 0.0
N598 N 0.60828 1.05849 0.6366 0.0
N599 N 0.54218 0.07406 0.59418 0.0
H600 H 0.60338 0.53333 0.88861 0.0
H601 H 0.68308 0.65333 0.00443 0.0
H602 H 0.70544 0.67346 0.8956 0.0
H603 H 0.57936 0.51378 -0.00318 0.0
H604 H 0.69101 0.66196 0.96479 0.0
H605 H 0.59352 0.52597 0.92822 0.0
C606 C 0.62357 0.56263 0.89849 0.0
C607 C 0.65519 0.60411 0.88877 0.0
C608 C 0.66651 0.62944 0.9718 0.0
C609 C 0.64438 0.59591 0.93427 0.0
C610 C 0.66177 0.62453 -0.00551 0.0
C611 C 0.63061 0.58266 0.00418 0.0
C612 C 0.63988 0.59229 0.95854 0.0
C613 C 0.60441 0.54651 0.99027 0.0
C614 C 0.61802 0.55841 0.92113 0.0
C615 C 0.68067 0.64084 0.90241 0.0
N616 N 0.60966 0.55216 0.96828 0.0
N617 N 0.67477 0.63589 0.92442 0.0
H618 H 1.07157 0.58227 0.22345 0.0
H619 H 0.1428 0.50779 0.33354 0.0
H620 H 0.12073 0.48878 0.22557 0.0
H621 H 1.07148 0.5814 0.33304 0.0
H622 H 0.13912 0.50456 0.2939 0.0
H623 H 1.07534 0.58643 0.26326 0.0
C624 C 1.08328 0.56271 0.2323 0.0
C625 C 0.09589 0.53514 0.22116 0.0
C626 C 0.12421 0.52141 0.30242 0.0
C627 C 0.10031 0.53972 0.26679 0.0
C628 C 0.12654 0.52353 0.32511 0.0
C629 C 0.1076 0.5451 0.33678 0.0
C630 C 0.10302 0.54125 0.29107 0.0
C631 C 1.08628 0.56413 0.32483 0.0
C632 C 1.08529 0.56498 0.25504 0.0
C633 C 0.11063 0.51041 0.23348 0.0
N634 N 1.08476 0.56196 0.30268 0.0
N635 N 0.11254 0.51337 0.25556 0.0
loop_
_geom_bond_atom_site_label_1
_geom_bond_atom_site_label_2
_geom_bond_distance
_geom_bond_site_symmetry_2
_ccdc_geom_bond_type
Tb0 C2 2.809 . S
Tb0 O20 2.484 . S
Tb0 O21 2.440 . S
Tb0 O22 2.658 . S
Tb0 O23 2.409 . S
Tb0 O24 2.378 . S
Tb0 O28 2.325 . S
Tb0 O31 2.341 1_455 S
Tb1 C11 2.809 . S
Tb1 O22 2.325 1_655 S
Tb1 O25 2.341 1_655 S
Tb1 O26 2.484 . S
Tb1 O27 2.440 . S
Tb1 O28 2.658 1_655 S
Tb1 O29 2.409 1_655 S
Tb1 O30 2.378 . S
C2 Tb0 2.809 . S
C2 C3 1.514 . S
C2 O20 1.248 . S
C2 O21 1.266 . S
C3 C2 1.514 . S
C3 C4 1.359 . S
C3 C8 1.348 . S
C4 C3 1.359 . S
C4 C5 1.380 . S
C4 H32 0.929 . S
C5 C4 1.380 . S
C5 C6 1.347 . S
C5 H33 0.931 . S
C6 C5 1.347 . S
C6 C7 1.369 . S
C7 C6 1.369 . S
C7 C8 1.408 . S
C7 H34 0.930 . S
C8 C3 1.348 . S
C8 C7 1.408 . S
C8 H35 0.930 . S
C9 O22 1.281 . S
C9 O23 1.254 . S
C10 O24 1.236 . S
C10 O25 1.266 . S
C11 Tb1 2.809 . S
C11 C12 1.514 . S
C11 O26 1.248 . S
C11 O27 1.266 . S
C12 C11 1.514 . S
C12 C13 1.359 . S
C12 C17 1.348 . S
C13 C12 1.359 . S
C13 C14 1.380 . S
C13 H36 0.929 . S
C14 C13 1.380 . S
C14 C15 1.347 . S
C14 H37 0.931 . S
C15 C14 1.347 . S
C15 C16 1.369 . S
C16 C15 1.369 . S
C16 C17 1.408 . S
C16 H38 0.930 . S
C17 C12 1.348 . S
C17 C16 1.408 . S
C17 H39 0.930 . S
C18 O28 1.281 . S
C18 O29 1.254 . S
C19 O30 1.236 . S
C19 O31 1.266 . S
O20 Tb0 2.484 . S
O20 C2 1.248 . S
O21 Tb0 2.440 . S
O21 C2 1.266 . S
O22 Tb0 2.658 . S
O22 Tb1 2.325 1_455 S
O22 C9 1.281 . S
O23 Tb0 2.409 . S
O23 C9 1.254 . S
O24 Tb0 2.378 . S
O24 C10 1.236 . S
O25 Tb1 2.341 1_455 S
O25 C10 1.266 . S
O26 Tb1 2.484 . S
O26 C11 1.248 . S
O27 Tb1 2.440 . S
O27 C11 1.266 . S
O28 Tb0 2.325 . S
O28 Tb1 2.658 1_455 S
O28 C18 1.281 . S
O29 Tb1 2.409 1_455 S
O29 C18 1.254 . S
O30 Tb1 2.378 . S
O30 C19 1.236 . S
O31 Tb0 2.341 1_655 S
O31 C19 1.266 . S
H32 C4 0.929 . S
H33 C5 0.931 . S
H34 C7 0.930 . S
H35 C8 0.930 . S
H36 C13 0.929 . S
H37 C14 0.931 . S
H38 C16 0.930 . S
H39 C17 0.930 . S
Tb40 C42 2.795 1_545 S
Tb40 O60 2.473 1_545 S
Tb40 O61 2.428 1_545 S
Tb40 O62 2.670 . S
Tb40 O63 2.411 . S
Tb40 O64 2.376 1_545 S
Tb40 O68 2.331 . S
Tb40 O71 2.353 . S
Tb41 C51 2.809 . S
Tb41 O62 2.325 . S
Tb41 O65 2.341 1_545 S
Tb41 O66 2.484 . S
Tb41 O67 2.440 . S
Tb41 O68 2.658 . S
Tb41 O69 2.409 . S
Tb41 O70 2.378 . S
C42 Tb40 2.795 1_565 S
C42 C43 1.514 . S
C42 O60 1.248 . S
C42 O61 1.266 . S
C43 C42 1.514 . S
C43 C44 1.359 . S
C43 C48 1.348 . S
C44 C43 1.359 . S
C44 C45 1.380 . S
C44 H72 0.929 . S
C45 C44 1.380 . S
C45 C46 1.347 . S
C45 H73 0.931 . S
C46 C45 1.347 . S
C46 C47 1.369 . S
C47 C46 1.369 . S
C47 C48 1.408 . S
C47 H74 0.930 . S
C48 C43 1.348 . S
C48 C47 1.408 . S
C48 H75 0.930 . S
C49 O62 1.281 . S
C49 O63 1.254 . S
C50 O64 1.236 . S
C50 O65 1.266 . S
C51 Tb41 2.809 . S
C51 C52 1.514 . S
C51 O66 1.248 . S
C51 O67 1.266 . S
C52 C51 1.514 . S
C52 C53 1.359 . S
C52 C57 1.348 . S
C53 C52 1.359 . S
C53 C54 1.380 . S
C53 H76 0.929 . S
C54 C53 1.380 . S
C54 C55 1.347 . S
C54 H77 0.931 . S
C55 C54 1.347 . S
C55 C56 1.369 . S
C56 C55 1.369 . S
C56 C57 1.408 . S
C56 H78 0.930 . S
C57 C52 1.348 . S
C57 C56 1.408 . S
C57 H79 0.930 . S
C58 O68 1.281 . S
C58 O69 1.254 . S
C59 O70 1.236 . S
C59 O71 1.266 . S
O60 Tb40 2.473 1_565 S
O60 C42 1.248 . S
O61 Tb40 2.428 1_565 S
O61 C42 1.266 . S
O62 Tb40 2.670 . S
O62 Tb41 2.325 . S
O62 C49 1.281 . S
O63 Tb40 2.411 . S
O63 C49 1.254 . S
O64 Tb40 2.376 1_565 S
O64 C50 1.236 . S
O65 Tb41 2.341 1_565 S
O65 C50 1.266 . S
O66 Tb41 2.484 . S
O66 C51 1.248 . S
O67 Tb41 2.440 . S
O67 C51 1.266 . S
O68 Tb40 2.331 . S
O68 Tb41 2.658 . S
O68 C58 1.281 . S
O69 Tb41 2.409 . S
O69 C58 1.254 . S
O70 Tb41 2.378 . S
O70 C59 1.236 . S
O71 Tb40 2.353 . S
O71 C59 1.266 . S
H72 C44 0.929 . S
H73 C45 0.931 . S
H74 C47 0.930 . S
H75 C48 0.930 . S
H76 C53 0.929 . S
H77 C54 0.931 . S
H78 C56 0.930 . S
H79 C57 0.930 . S
Tb80 C82 2.809 . S
Tb80 O100 2.484 . S
Tb80 O101 2.440 . S
Tb80 O102 2.658 . S
Tb80 O103 2.409 . S
Tb80 O104 2.378 . S
Tb80 O108 2.325 . S
Tb80 O111 2.341 . S
Tb81 C91 2.809 . S
Tb81 O102 2.325 . S
Tb81 O105 2.341 . S
Tb81 O106 2.484 . S
Tb81 O107 2.440 . S
Tb81 O108 2.658 . S
Tb81 O109 2.409 . S
Tb81 O110 2.378 . S
C82 Tb80 2.809 . S
C82 C83 1.514 . S
C82 O100 1.248 . S
C82 O101 1.266 . S
C83 C82 1.514 . S
C83 C84 1.359 . S
C83 C88 1.348 . S
C84 C83 1.359 . S
C84 C85 1.380 . S
C84 H112 0.929 . S
C85 C84 1.380 . S
C85 C86 1.347 . S
C85 H113 0.931 . S
C86 C85 1.347 . S
C86 C87 1.369 . S
C87 C86 1.369 . S
C87 C88 1.408 . S
C87 H114 0.930 . S
C88 C83 1.348 . S
C88 C87 1.408 . S
C88 H115 0.930 . S
C89 O102 1.281 . S
C89 O103 1.254 . S
C90 O104 1.236 . S
C90 O105 1.266 . S
C91 Tb81 2.809 . S
C91 C92 1.514 . S
C91 O106 1.248 . S
C91 O107 1.266 . S
C92 C91 1.514 . S
C92 C93 1.359 . S
C92 C97 1.348 . S
C93 C92 1.359 . S
C93 C94 1.380 . S
C93 H116 0.929 . S
C94 C93 1.380 . S
C94 C95 1.347 . S
C94 H117 0.931 . S
C95 C94 1.347 . S
C95 C96 1.369 . S
C96 C95 1.369 . S
C96 C97 1.408 . S
C96 H118 0.930 . S
C97 C92 1.348 . S
C97 C96 1.408 . S
C97 H119 0.930 . S
C98 O108 1.281 . S
C98 O109 1.254 . S
C99 O110 1.236 . S
C99 O111 1.266 . S
O100 Tb80 2.484 . S
O100 C82 1.248 . S
O101 Tb80 2.440 . S
O101 C82 1.266 . S
O102 Tb80 2.658 . S
O102 Tb81 2.325 . S
O102 C89 1.281 . S
O103 Tb80 2.409 . S
O103 C89 1.254 . S
O104 Tb80 2.378 . S
O104 C90 1.236 . S
O105 Tb81 2.341 . S
O105 C90 1.266 . S
O106 Tb81 2.484 . S
O106 C91 1.248 . S
O107 Tb81 2.440 . S
O107 C91 1.266 . S
O108 Tb80 2.325 . S
O108 Tb81 2.658 . S
O108 C98 1.281 . S
O109 Tb81 2.409 . S
O109 C98 1.254 . S
O110 Tb81 2.378 . S
O110 C99 1.236 . S
O111 Tb80 2.341 . S
O111 C99 1.266 . S
H112 C84 0.929 . S
H113 C85 0.931 . S
H114 C87 0.930 . S
H115 C88 0.930 . S
H116 C93 0.929 . S
H117 C94 0.931 . S
H118 C96 0.930 . S
H119 C97 0.930 . S
P120 O131 1.490 1_545 S
P120 C134 1.812 1_545 S
P120 C140 1.803 . S
P120 C146 1.819 . S
H121 C135 0.941 . S
H122 C136 0.939 . S
H123 C138 0.940 . S
H124 C139 0.940 1_545 S
H125 C141 0.939 . S
H126 C142 0.942 . S
H127 C144 0.940 . S
H128 C145 0.939 . S
H129 C147 0.941 . S
H130 C151 0.939 . S
O131 P120 1.490 1_565 S
H132 C148 0.939 1_565 S
H133 C150 0.940 . S
C134 P120 1.812 1_565 S
C134 C135 1.389 . S
C134 C139 1.391 . S
C135 H121 0.941 . S
C135 C134 1.389 . S
C135 C136 1.397 . S
C136 H122 0.939 . S
C136 C135 1.397 . S
C136 C137 1.378 . S
C137 C136 1.378 . S
C137 C138 1.378 . S
C138 H123 0.940 . S
C138 C137 1.378 . S
C138 C139 1.396 . S
C139 H124 0.940 1_565 S
C139 C134 1.391 . S
C139 C138 1.396 . S
C140 P120 1.803 . S
C140 C141 1.378 . S
C140 C145 1.400 . S
C141 H125 0.939 . S
C141 C140 1.378 . S
C141 C142 1.361 . S
C142 H126 0.942 . S
C142 C141 1.361 . S
C142 C143 1.369 . S
C143 C142 1.369 . S
C143 C144 1.404 . S
C144 H127 0.940 . S
C144 C143 1.404 . S
C144 C145 1.389 . S
C145 H128 0.939 . S
C145 C140 1.400 . S
C145 C144 1.389 . S
C146 P120 1.819 . S
C146 C147 1.391 1_545 S
C146 C151 1.391 . S
C147 H129 0.941 . S
C147 C146 1.391 1_565 S
C147 C148 1.396 1_565 S
C148 H132 0.939 1_545 S
C148 C147 1.396 1_545 S
C148 C149 1.397 . S
C149 C148 1.397 . S
C149 C150 1.385 . S
C150 H133 0.940 . S
C150 C149 1.385 . S
C150 C151 1.388 . S
C151 H130 0.939 . S
C151 C146 1.391 . S
C151 C150 1.388 . S
P152 O163 1.490 . S
P152 C166 1.812 . S
P152 C172 1.803 . S
P152 C178 1.819 . S
H153 C167 0.941 . S
H154 C168 0.939 . S
H155 C170 0.940 . S
H156 C171 0.940 . S
H157 C173 0.939 . S
H158 C174 0.942 . S
H159 C176 0.940 . S
H160 C177 0.939 . S
H161 C179 0.941 . S
H162 C183 0.939 . S
O163 P152 1.490 . S
H164 C180 0.939 . S
H165 C182 0.940 . S
C166 P152 1.812 . S
C166 C167 1.389 . S
C166 C171 1.391 . S
C167 H153 0.941 . S
C167 C166 1.389 . S
C167 C168 1.397 . S
C168 H154 0.939 . S
C168 C167 1.397 . S
C168 C169 1.378 . S
C169 C168 1.378 . S
C169 C170 1.378 . S
C170 H155 0.940 . S
C170 C169 1.378 . S
C170 C171 1.396 . S
C171 H156 0.940 . S
C171 C166 1.391 . S
C171 C170 1.396 . S
C172 P152 1.803 . S
C172 C173 1.378 . S
C172 C177 1.400 . S
C173 H157 0.939 . S
C173 C172 1.378 . S
C173 C174 1.361 . S
C174 H158 0.942 . S
C174 C173 1.361 . S
C174 C175 1.369 . S
C175 C174 1.369 . S
C175 C176 1.404 . S
C176 H159 0.940 . S
C176 C175 1.404 . S
C176 C177 1.389 . S
C177 H160 0.939 . S
C177 C172 1.400 . S
C177 C176 1.389 . S
C178 P152 1.819 . S
C178 C179 1.391 . S
C178 C183 1.391 . S
C179 H161 0.941 . S
C179 C178 1.391 . S
C179 C180 1.396 . S
C180 H164 0.939 . S
C180 C179 1.396 . S
C180 C181 1.397 . S
C181 C180 1.397 . S
C181 C182 1.385 . S
C182 H165 0.940 . S
C182 C181 1.385 . S
C182 C183 1.388 . S
C183 H162 0.939 . S
C183 C178 1.391 . S
C183 C182 1.388 . S
P184 O195 1.490 . S
P184 C198 1.812 . S
P184 C204 1.803 1_455 S
P184 C210 1.819 . S
H185 C199 0.941 . S
H186 C200 0.939 . S
H187 C202 0.940 . S
H188 C203 0.940 . S
H189 C205 0.939 . S
H190 C206 0.942 . S
H191 C208 0.940 . S
H192 C209 0.939 . S
H193 C211 0.941 . S
H194 C215 0.939 . S
O195 P184 1.490 . S
H196 C212 0.939 . S
H197 C214 0.940 . S
C198 P184 1.812 . S
C198 C199 1.389 . S
C198 C203 1.391 . S
C199 H185 0.941 . S
C199 C198 1.389 . S
C199 C200 1.397 . S
C200 H186 0.939 . S
C200 C199 1.397 . S
C200 C201 1.378 . S
C201 C200 1.378 . S
C201 C202 1.378 . S
C202 H187 0.940 . S
C202 C201 1.378 . S
C202 C203 1.396 . S
C203 H188 0.940 . S
C203 C198 1.391 . S
C203 C202 1.396 . S
C204 P184 1.803 1_655 S
C204 C205 1.378 . S
C204 C209 1.400 . S
C205 H189 0.939 . S
C205 C204 1.378 . S
C205 C206 1.361 . S
C206 H190 0.942 . S
C206 C205 1.361 . S
C206 C207 1.369 . S
C207 C206 1.369 . S
C207 C208 1.404 . S
C208 H191 0.940 . S
C208 C207 1.404 . S
C208 C209 1.389 . S
C209 H192 0.939 . S
C209 C204 1.400 . S
C209 C208 1.389 . S
C210 P184 1.819 . S
C210 C211 1.391 . S
C210 C215 1.391 1_455 S
C211 H193 0.941 . S
C211 C210 1.391 . S
C211 C212 1.396 . S
C212 H196 0.939 . S
C212 C211 1.396 . S
C212 C213 1.397 . S
C213 C212 1.397 . S
C213 C214 1.385 1_455 S
C214 H197 0.940 . S
C214 C213 1.385 1_655 S
C214 C215 1.388 . S
C215 H194 0.939 . S
C215 C210 1.391 1_655 S
C215 C214 1.388 . S
P216 O227 1.490 . S
P216 C230 1.812 . S
P216 C236 1.803 . S
P216 C242 1.819 . S
H217 C231 0.941 . S
H218 C232 0.939 . S
H219 C234 0.940 . S
H220 C235 0.940 . S
H221 C237 0.939 . S
H222 C238 0.942 . S
H223 C240 0.940 . S
H224 C241 0.939 . S
H225 C243 0.941 . S
H226 C247 0.939 1_655 S
O227 P216 1.490 . S
H228 C244 0.939 . S
H229 C246 0.940 1_655 S
C230 P216 1.812 . S
C230 C231 1.389 . S
C230 C235 1.391 . S
C231 H217 0.941 . S
C231 C230 1.389 . S
C231 C232 1.397 . S
C232 H218 0.939 . S
C232 C231 1.397 . S
C232 C233 1.378 . S
C233 C232 1.378 . S
C233 C234 1.378 . S
C234 H219 0.940 . S
C234 C233 1.378 . S
C234 C235 1.396 . S
C235 H220 0.940 . S
C235 C230 1.391 . S
C235 C234 1.396 . S
C236 P216 1.803 . S
C236 C237 1.378 . S
C236 C241 1.400 . S
C237 H221 0.939 . S
C237 C236 1.378 . S
C237 C238 1.361 1_455 S
C238 H222 0.942 . S
C238 C237 1.361 1_655 S
C238 C239 1.369 . S
C239 C238 1.369 . S
C239 C240 1.404 . S
C240 H223 0.940 . S
C240 C239 1.404 . S
C240 C241 1.389 1_655 S
C241 H224 0.939 . S
C241 C236 1.400 . S
C241 C240 1.389 1_455 S
C242 P216 1.819 . S
C242 C243 1.391 . S
C242 C247 1.391 . S
C243 H225 0.941 . S
C243 C242 1.391 . S
C243 C244 1.396 . S
C244 H228 0.939 . S
C244 C243 1.396 . S
C244 C245 1.397 . S
C245 C244 1.397 . S
C245 C246 1.385 . S
C246 H229 0.940 1_455 S
C246 C245 1.385 . S
C246 C247 1.388 . S
C247 H226 0.939 1_455 S
C247 C242 1.391 . S
C247 C246 1.388 . S
P248 O259 1.490 . S
P248 C262 1.812 . S
P248 C268 1.803 1_545 S
P248 C274 1.819 . S
H249 C263 0.941 . S
H250 C264 0.939 . S
H251 C266 0.940 . S
H252 C267 0.940 . S
H253 C269 0.939 . S
H254 C270 0.942 . S
H255 C272 0.940 . S
H256 C273 0.939 . S
H257 C275 0.941 . S
H258 C279 0.939 . S
O259 P248 1.490 . S
H260 C276 0.939 . S
H261 C278 0.940 . S
C262 P248 1.812 . S
C262 C263 1.389 . S
C262 C267 1.391 . S
C263 H249 0.941 . S
C263 C262 1.389 . S
C263 C264 1.397 . S
C264 H250 0.939 . S
C264 C263 1.397 . S
C264 C265 1.378 . S
C265 C264 1.378 . S
C265 C266 1.378 . S
C266 H251 0.940 . S
C266 C265 1.378 . S
C266 C267 1.396 . S
C267 H252 0.940 . S
C267 C262 1.391 . S
C267 C266 1.396 . S
C268 P248 1.803 1_565 S
C268 C269 1.378 . S
C268 C273 1.400 . S
C269 H253 0.939 . S
C269 C268 1.378 . S
C269 C270 1.361 . S
C270 H254 0.942 . S
C270 C269 1.361 . S
C270 C271 1.369 . S
C271 C270 1.369 . S
C271 C272 1.404 . S
C272 H255 0.940 . S
C272 C271 1.404 . S
C272 C273 1.389 . S
C273 H256 0.939 . S
C273 C268 1.400 . S
C273 C272 1.389 . S
C274 P248 1.819 . S
C274 C275 1.391 . S
C274 C279 1.391 1_545 S
C275 H257 0.941 . S
C275 C274 1.391 . S
C275 C276 1.396 . S
C276 H260 0.939 . S
C276 C275 1.396 . S
C276 C277 1.397 . S
C277 C276 1.397 . S
C277 C278 1.385 1_545 S
C278 H261 0.940 . S
C278 C277 1.385 1_565 S
C278 C279 1.388 . S
C279 H258 0.939 . S
C279 C274 1.391 1_565 S
C279 C278 1.388 . S
P280 O291 1.490 . S
P280 C294 1.812 . S
P280 C300 1.803 . S
P280 C306 1.819 . S
H281 C295 0.941 . S
H282 C296 0.939 . S
H283 C298 0.940 . S
H284 C299 0.940 . S
H285 C301 0.939 . S
H286 C302 0.942 . S
H287 C304 0.940 . S
H288 C305 0.939 . S
H289 C307 0.941 . S
H290 C311 0.939 . S
O291 P280 1.490 . S
H292 C308 0.939 . S
H293 C310 0.940 . S
C294 P280 1.812 . S
C294 C295 1.389 . S
C294 C299 1.391 . S
C295 H281 0.941 . S
C295 C294 1.389 . S
C295 C296 1.397 . S
C296 H282 0.939 . S
C296 C295 1.397 . S
C296 C297 1.378 . S
C297 C296 1.378 . S
C297 C298 1.378 . S
C298 H283 0.940 . S
C298 C297 1.378 . S
C298 C299 1.396 . S
C299 H284 0.940 . S
C299 C294 1.391 . S
C299 C298 1.396 . S
C300 P280 1.803 . S
C300 C301 1.378 . S
C300 C305 1.400 . S
C301 H285 0.939 . S
C301 C300 1.378 . S
C301 C302 1.361 . S
C302 H286 0.942 . S
C302 C301 1.361 . S
C302 C303 1.369 . S
C303 C302 1.369 . S
C303 C304 1.404 . S
C304 H287 0.940 . S
C304 C303 1.404 . S
C304 C305 1.389 . S
C305 H288 0.939 . S
C305 C300 1.400 . S
C305 C304 1.389 . S
C306 P280 1.819 . S
C306 C307 1.391 . S
C306 C311 1.391 . S
C307 H289 0.941 . S
C307 C306 1.391 . S
C307 C308 1.396 . S
C308 H292 0.939 . S
C308 C307 1.396 . S
C308 C309 1.397 . S
C309 C308 1.397 . S
C309 C310 1.385 . S
C310 H293 0.940 . S
C310 C309 1.385 . S
C310 C311 1.388 . S
C311 H290 0.939 . S
C311 C306 1.391 . S
C311 C310 1.388 . S
H312 C318 0.930 . S
H313 C322 0.930 . S
H314 C327 0.929 . S
H315 C325 0.929 . S
H316 C320 0.929 . S
H317 C326 0.929 . S
C318 H312 0.930 . S
C318 C319 1.367 . S
C318 C326 1.378 . S
C319 C318 1.367 . S
C319 C327 1.433 . S
C320 H316 0.929 . S
C320 C322 1.378 . S
C320 C324 1.350 . S
C321 C324 1.463 . S
C321 C326 1.350 . S
C321 N329 1.427 . S
C322 H313 0.930 . S
C322 C320 1.378 . S
C322 C323 1.367 . S
C323 C322 1.367 . S
C323 C325 1.433 . S
C324 C320 1.350 . S
C324 C321 1.463 . S
C324 N328 1.427 . S
C325 H315 0.929 . S
C325 C323 1.433 . S
C325 N328 1.384 . S
C326 H317 0.929 . S
C326 C318 1.378 . S
C326 C321 1.350 . S
C327 H314 0.929 . S
C327 C319 1.433 . S
C327 N329 1.384 . S
N328 C324 1.427 . S
N328 C325 1.384 . S
N329 C321 1.427 . S
N329 C327 1.384 . S
H330 C336 0.930 . S
H331 C340 0.930 . S
H332 C345 0.929 . S
H333 C343 0.929 . S
H334 C338 0.929 . S
H335 C344 0.929 . S
C336 H330 0.930 . S
C336 C337 1.367 . S
C336 C344 1.378 . S
C337 C336 1.367 . S
C337 C345 1.433 . S
C338 H334 0.929 . S
C338 C340 1.378 . S
C338 C342 1.350 . S
C339 C342 1.463 . S
C339 C344 1.350 . S
C339 N347 1.427 . S
C340 H331 0.930 . S
C340 C338 1.378 . S
C340 C341 1.367 . S
C341 C340 1.367 . S
C341 C343 1.433 . S
C342 C338 1.350 . S
C342 C339 1.463 . S
C342 N346 1.427 . S
C343 H333 0.929 . S
C343 C341 1.433 . S
C343 N346 1.384 . S
C344 H335 0.929 . S
C344 C336 1.378 . S
C344 C339 1.350 . S
C345 H332 0.929 . S
C345 C337 1.433 . S
C345 N347 1.384 . S
N346 C342 1.427 . S
N346 C343 1.384 . S
N347 C339 1.427 . S
N347 C345 1.384 . S
H348 C354 0.930 . S
H349 C358 0.930 . S
H350 C363 0.929 . S
H351 C361 0.929 . S
H352 C356 0.929 . S
H353 C362 0.929 . S
C354 H348 0.930 . S
C354 C355 1.367 . S
C354 C362 1.378 . S
C355 C354 1.367 . S
C355 C363 1.433 . S
C356 H352 0.929 . S
C356 C358 1.378 . S
C356 C360 1.350 . S
C357 C360 1.463 . S
C357 C362 1.350 . S
C357 N365 1.427 . S
C358 H349 0.930 . S
C358 C356 1.378 . S
C358 C359 1.367 . S
C359 C358 1.367 . S
C359 C361 1.433 . S
C360 C356 1.350 . S
C360 C357 1.463 . S
C360 N364 1.427 . S
C361 H351 0.929 . S
C361 C359 1.433 . S
C361 N364 1.384 . S
C362 H353 0.929 . S
C362 C354 1.378 . S
C362 C357 1.350 . S
C363 H350 0.929 . S
C363 C355 1.433 . S
C363 N365 1.384 . S
N364 C360 1.427 . S
N364 C361 1.384 . S
N365 C357 1.427 . S
N365 C363 1.384 . S
H366 C372 0.930 . S
H367 C376 0.930 . S
H368 C381 0.929 . S
H369 C379 0.929 . S
H370 C374 0.929 . S
H371 C380 0.929 . S
C372 H366 0.930 . S
C372 C373 1.367 . S
C372 C380 1.378 . S
C373 C372 1.367 . S
C373 C381 1.433 . S
C374 H370 0.929 . S
C374 C376 1.378 . S
C374 C378 1.350 . S
C375 C378 1.463 . S
C375 C380 1.350 . S
C375 N383 1.427 . S
C376 H367 0.930 . S
C376 C374 1.378 . S
C376 C377 1.367 . S
C377 C376 1.367 . S
C377 C379 1.433 . S
C378 C374 1.350 . S
C378 C375 1.463 . S
C378 N382 1.427 . S
C379 H369 0.929 . S
C379 C377 1.433 . S
C379 N382 1.384 . S
C380 H371 0.929 . S
C380 C372 1.378 . S
C380 C375 1.350 . S
C381 H368 0.929 . S
C381 C373 1.433 . S
C381 N383 1.384 . S
N382 C378 1.427 . S
N382 C379 1.384 . S
N383 C375 1.427 . S
N383 C381 1.384 . S
H384 C390 0.930 . S
H385 C394 0.930 . S
H386 C399 0.929 . S
H387 C397 0.929 . S
H388 C392 0.929 . S
H389 C398 0.929 . S
C390 H384 0.930 . S
C390 C391 1.367 . S
C390 C398 1.378 . S
C391 C390 1.367 . S
C391 C399 1.433 . S
C392 H388 0.929 . S
C392 C394 1.378 . S
C392 C396 1.350 . S
C393 C396 1.463 . S
C393 C398 1.350 . S
C393 N401 1.427 . S
C394 H385 0.930 . S
C394 C392 1.378 . S
C394 C395 1.367 . S
C395 C394 1.367 . S
C395 C397 1.433 . S
C396 C392 1.350 . S
C396 C393 1.463 . S
C396 N400 1.427 . S
C397 H387 0.929 . S
C397 C395 1.433 . S
C397 N400 1.384 . S
C398 H389 0.929 . S
C398 C390 1.378 . S
C398 C393 1.350 . S
C399 H386 0.929 . S
C399 C391 1.433 . S
C399 N401 1.384 . S
N400 C396 1.427 . S
N400 C397 1.384 . S
N401 C393 1.427 . S
N401 C399 1.384 . S
H402 C408 0.930 . S
H403 C412 0.930 . S
H404 C417 0.929 . S
H405 C415 0.929 . S
H406 C410 0.929 . S
H407 C416 0.929 . S
C408 H402 0.930 . S
C408 C409 1.367 . S
C408 C416 1.378 . S
C409 C408 1.367 . S
C409 C417 1.433 . S
C410 H406 0.929 . S
C410 C412 1.378 . S
C410 C414 1.350 . S
C411 C414 1.463 . S
C411 C416 1.350 . S
C411 N419 1.427 . S
C412 H403 0.930 . S
C412 C410 1.378 . S
C412 C413 1.367 . S
C413 C412 1.367 . S
C413 C415 1.433 . S
C414 C410 1.350 . S
C414 C411 1.463 . S
C414 N418 1.427 . S
C415 H405 0.929 . S
C415 C413 1.433 . S
C415 N418 1.384 . S
C416 H407 0.929 . S
C416 C408 1.378 . S
C416 C411 1.350 . S
C417 H404 0.929 . S
C417 C409 1.433 . S
C417 N419 1.384 . S
N418 C414 1.427 . S
N418 C415 1.384 . S
N419 C411 1.427 . S
N419 C417 1.384 . S
H420 C426 0.930 . S
H421 C430 0.930 . S
H422 C435 0.929 . S
H423 C433 0.929 . S
H424 C428 0.929 . S
H425 C434 0.929 . S
C426 H420 0.930 . S
C426 C427 1.367 . S
C426 C434 1.378 . S
C427 C426 1.367 . S
C427 C435 1.433 . S
C428 H424 0.929 . S
C428 C430 1.378 . S
C428 C432 1.350 . S
C429 C432 1.463 . S
C429 C434 1.350 . S
C429 N437 1.427 . S
C430 H421 0.930 . S
C430 C428 1.378 . S
C430 C431 1.367 . S
C431 C430 1.367 . S
C431 C433 1.433 . S
C432 C428 1.350 . S
C432 C429 1.463 . S
C432 N436 1.427 . S
C433 H423 0.929 . S
C433 C431 1.433 . S
C433 N436 1.384 . S
C434 H425 0.929 . S
C434 C426 1.378 . S
C434 C429 1.350 . S
C435 H422 0.929 . S
C435 C427 1.433 . S
C435 N437 1.384 . S
N436 C432 1.427 . S
N436 C433 1.384 . S
N437 C429 1.427 . S
N437 C435 1.384 . S
H438 C444 0.930 . S
H439 C448 0.930 . S
H440 C453 0.929 . S
H441 C451 0.929 . S
H442 C446 0.929 . S
H443 C452 0.929 . S
C444 H438 0.930 . S
C444 C445 1.367 . S
C444 C452 1.378 . S
C445 C444 1.367 . S
C445 C453 1.433 . S
C446 H442 0.929 . S
C446 C448 1.378 . S
C446 C450 1.350 . S
C447 C450 1.463 . S
C447 C452 1.350 . S
C447 N455 1.427 . S
C448 H439 0.930 . S
C448 C446 1.378 . S
C448 C449 1.367 . S
C449 C448 1.367 . S
C449 C451 1.433 . S
C450 C446 1.350 . S
C450 C447 1.463 . S
C450 N454 1.427 . S
C451 H441 0.929 . S
C451 C449 1.433 . S
C451 N454 1.384 . S
C452 H443 0.929 . S
C452 C444 1.378 . S
C452 C447 1.350 . S
C453 H440 0.929 . S
C453 C445 1.433 . S
C453 N455 1.384 . S
N454 C450 1.427 . S
N454 C451 1.384 . S
N455 C447 1.427 . S
N455 C453 1.384 . S
H456 C462 0.930 . S
H457 C466 0.930 . S
H458 C471 0.929 . S
H459 C469 0.929 . S
H460 C464 0.929 . S
H461 C470 0.929 . S
C462 H456 0.930 . S
C462 C463 1.367 . S
C462 C470 1.378 . S
C463 C462 1.367 . S
C463 C471 1.433 . S
C464 H460 0.929 . S
C464 C466 1.378 . S
C464 C468 1.350 . S
C465 C468 1.463 . S
C465 C470 1.350 . S
C465 N473 1.427 . S
C466 H457 0.930 . S
C466 C464 1.378 . S
C466 C467 1.367 . S
C467 C466 1.367 . S
C467 C469 1.433 . S
C468 C464 1.350 . S
C468 C465 1.463 . S
C468 N472 1.427 . S
C469 H459 0.929 . S
C469 C467 1.433 . S
C469 N472 1.384 . S
C470 H461 0.929 . S
C470 C462 1.378 . S
C470 C465 1.350 . S
C471 H458 0.929 . S
C471 C463 1.433 . S
C471 N473 1.384 . S
N472 C468 1.427 . S
N472 C469 1.384 . S
N473 C465 1.427 . S
N473 C471 1.384 . S
H474 C480 0.930 . S
H475 C484 0.930 . S
H476 C489 0.929 . S
H477 C487 0.929 . S
H478 C482 0.929 . S
H479 C488 0.929 . S
C480 H474 0.930 . S
C480 C481 1.367 . S
C480 C488 1.378 . S
C481 C480 1.367 . S
C481 C489 1.433 . S
C482 H478 0.929 . S
C482 C484 1.378 . S
C482 C486 1.350 . S
C483 C486 1.463 . S
C483 C488 1.350 . S
C483 N491 1.427 . S
C484 H475 0.930 . S
C484 C482 1.378 . S
C484 C485 1.367 . S
C485 C484 1.367 . S
C485 C487 1.433 . S
C486 C482 1.350 . S
C486 C483 1.463 . S
C486 N490 1.427 . S
C487 H477 0.929 . S
C487 C485 1.433 . S
C487 N490 1.384 . S
C488 H479 0.929 . S
C488 C480 1.378 . S
C488 C483 1.350 . S
C489 H476 0.929 . S
C489 C481 1.433 . S
C489 N491 1.384 . S
N490 C486 1.427 . S
N490 C487 1.384 . S
N491 C483 1.427 . S
N491 C489 1.384 . S
H492 C498 0.930 . S
H493 C502 0.930 . S
H494 C507 0.929 . S
H495 C505 0.929 . S
H496 C500 0.929 . S
H497 C506 0.929 . S
C498 H492 0.930 . S
C498 C499 1.367 . S
C498 C506 1.378 . S
C499 C498 1.367 . S
C499 C507 1.433 . S
C500 H496 0.929 . S
C500 C502 1.378 . S
C500 C504 1.350 . S
C501 C504 1.463 . S
C501 C506 1.350 . S
C501 N509 1.427 . S
C502 H493 0.930 . S
C502 C500 1.378 . S
C502 C503 1.367 . S
C503 C502 1.367 . S
C503 C505 1.433 . S
C504 C500 1.350 . S
C504 C501 1.463 . S
C504 N508 1.427 . S
C505 H495 0.929 . S
C505 C503 1.433 . S
C505 N508 1.384 . S
C506 H497 0.929 . S
C506 C498 1.378 . S
C506 C501 1.350 . S
C507 H494 0.929 . S
C507 C499 1.433 . S
C507 N509 1.384 . S
N508 C504 1.427 . S
N508 C505 1.384 . S
N509 C501 1.427 . S
N509 C507 1.384 . S
H510 C516 0.930 . S
H511 C520 0.930 . S
H512 C525 0.929 . S
H513 C523 0.929 . S
H514 C518 0.929 . S
H515 C524 0.929 . S
C516 H510 0.930 . S
C516 C517 1.367 . S
C516 C524 1.378 . S
C517 C516 1.367 . S
C517 C525 1.433 . S
C518 H514 0.929 . S
C518 C520 1.378 . S
C518 C522 1.350 . S
C519 C522 1.463 . S
C519 C524 1.350 . S
C519 N527 1.427 . S
C520 H511 0.930 . S
C520 C518 1.378 . S
C520 C521 1.367 . S
C521 C520 1.367 . S
C521 C523 1.433 . S
C522 C518 1.350 . S
C522 C519 1.463 . S
C522 N526 1.427 . S
C523 H513 0.929 . S
C523 C521 1.433 . S
C523 N526 1.384 . S
C524 H515 0.929 . S
C524 C516 1.378 . S
C524 C519 1.350 . S
C525 H512 0.929 . S
C525 C517 1.433 . S
C525 N527 1.384 . S
N526 C522 1.427 . S
N526 C523 1.384 . S
N527 C519 1.427 . S
N527 C525 1.384 . S
H528 C534 0.930 . S
H529 C538 0.930 1_556 S
H530 C543 0.929 . S
H531 C541 0.929 . S
H532 C536 0.929 . S
H533 C542 0.929 . S
C534 H528 0.930 . S
C534 C535 1.367 1_655 S
C534 C542 1.378 . S
C535 C534 1.367 1_455 S
C535 C543 1.433 . S
C536 H532 0.929 . S
C536 C538 1.378 . S
C536 C540 1.350 . S
C537 C540 1.463 . S
C537 C542 1.350 1_455 S
C537 N545 1.427 . S
C538 H529 0.930 1_554 S
C538 C536 1.378 . S
C538 C539 1.367 1_554 S
C539 C538 1.367 1_556 S
C539 C541 1.433 1_456 S
C540 C536 1.350 . S
C540 C537 1.463 . S
C540 N544 1.427 1_455 S
C541 H531 0.929 . S
C541 C539 1.433 1_654 S
C541 N544 1.384 . S
C542 H533 0.929 . S
C542 C534 1.378 . S
C542 C537 1.350 1_655 S
C543 H530 0.929 . S
C543 C535 1.433 . S
C543 N545 1.384 . S
N544 C540 1.427 1_655 S
N544 C541 1.384 . S
N545 C537 1.427 . S
N545 C543 1.384 . S
H546 C552 0.930 . S
H547 C556 0.930 . S
H548 C561 0.929 1_565 S
H549 C559 0.929 . S
H550 C554 0.929 . S
H551 C560 0.929 . S
C552 H546 0.930 . S
C552 C553 1.367 . S
C552 C560 1.378 . S
C553 C552 1.367 . S
C553 C561 1.433 . S
C554 H550 0.929 . S
C554 C556 1.378 . S
C554 C558 1.350 . S
C555 C558 1.463 . S
C555 C560 1.350 . S
C555 N563 1.427 . S
C556 H547 0.930 . S
C556 C554 1.378 . S
C556 C557 1.367 . S
C557 C556 1.367 . S
C557 C559 1.433 . S
C558 C554 1.350 . S
C558 C555 1.463 . S
C558 N562 1.427 . S
C559 H549 0.929 . S
C559 C557 1.433 . S
C559 N562 1.384 . S
C560 H551 0.929 . S
C560 C552 1.378 . S
C560 C555 1.350 . S
C561 H548 0.929 1_545 S
C561 C553 1.433 . S
C561 N563 1.384 . S
N562 C558 1.427 . S
N562 C559 1.384 . S
N563 C555 1.427 . S
N563 C561 1.384 . S
H564 C570 0.930 . S
H565 C574 0.930 . S
H566 C579 0.929 . S
H567 C577 0.929 . S
H568 C572 0.929 . S
H569 C578 0.929 . S
C570 H564 0.930 . S
C570 C571 1.367 . S
C570 C578 1.378 . S
C571 C570 1.367 . S
C571 C579 1.433 . S
C572 H568 0.929 . S
C572 C574 1.378 . S
C572 C576 1.350 . S
C573 C576 1.463 . S
C573 C578 1.350 . S
C573 N581 1.427 . S
C574 H565 0.930 . S
C574 C572 1.378 . S
C574 C575 1.367 . S
C575 C574 1.367 . S
C575 C577 1.433 . S
C576 C572 1.350 . S
C576 C573 1.463 . S
C576 N580 1.427 . S
C577 H567 0.929 . S
C577 C575 1.433 . S
C577 N580 1.384 . S
C578 H569 0.929 . S
C578 C570 1.378 . S
C578 C573 1.350 . S
C579 H566 0.929 . S
C579 C571 1.433 . S
C579 N581 1.384 . S
N580 C576 1.427 . S
N580 C577 1.384 . S
N581 C573 1.427 . S
N581 C579 1.384 . S
H582 C588 0.930 . S
H583 C592 0.930 . S
H584 C597 0.929 . S
H585 C595 0.929 . S
H586 C590 0.929 . S
H587 C596 0.929 . S
C588 H582 0.930 . S
C588 C589 1.367 1_565 S
C588 C596 1.378 . S
C589 C588 1.367 1_545 S
C589 C597 1.433 . S
C590 H586 0.929 . S
C590 C592 1.378 . S
C590 C594 1.350 . S
C591 C594 1.463 . S
C591 C596 1.350 1_545 S
C591 N599 1.427 . S
C592 H583 0.930 . S
C592 C590 1.378 . S
C592 C593 1.367 . S
C593 C592 1.367 . S
C593 C595 1.433 1_545 S
C594 C590 1.350 . S
C594 C591 1.463 . S
C594 N598 1.427 1_545 S
C595 H585 0.929 . S
C595 C593 1.433 1_565 S
C595 N598 1.384 . S
C596 H587 0.929 . S
C596 C588 1.378 . S
C596 C591 1.350 1_565 S
C597 H584 0.929 . S
C597 C589 1.433 . S
C597 N599 1.384 . S
N598 C594 1.427 1_565 S
N598 C595 1.384 . S
N599 C591 1.427 . S
N599 C597 1.384 . S
H600 C606 0.930 . S
H601 C610 0.930 . S
H602 C615 0.929 . S
H603 C613 0.929 . S
H604 C608 0.929 . S
H605 C614 0.929 . S
C606 H600 0.930 . S
C606 C607 1.367 . S
C606 C614 1.378 . S
C607 C606 1.367 . S
C607 C615 1.433 . S
C608 H604 0.929 . S
C608 C610 1.378 1_556 S
C608 C612 1.350 . S
C609 C612 1.463 . S
C609 C614 1.350 . S
C609 N617 1.427 . S
C610 H601 0.930 . S
C610 C608 1.378 1_554 S
C610 C611 1.367 . S
C611 C610 1.367 . S
C611 C613 1.433 . S
C612 C608 1.350 . S
C612 C609 1.463 . S
C612 N616 1.427 . S
C613 H603 0.929 . S
C613 C611 1.433 . S
C613 N616 1.384 1_554 S
C614 H605 0.929 . S
C614 C606 1.378 . S
C614 C609 1.350 . S
C615 H602 0.929 . S
C615 C607 1.433 . S
C615 N617 1.384 . S
N616 C612 1.427 . S
N616 C613 1.384 1_556 S
N617 C609 1.427 . S
N617 C615 1.384 . S
H618 C624 0.930 . S
H619 C628 0.930 . S
H620 C633 0.929 . S
H621 C631 0.929 . S
H622 C626 0.929 . S
H623 C632 0.929 . S
C624 H618 0.930 . S
C624 C625 1.367 . S
C624 C632 1.378 . S
C625 C624 1.367 . S
C625 C633 1.433 . S
C626 H622 0.929 . S
C626 C628 1.378 . S
C626 C630 1.350 . S
C627 C630 1.463 . S
C627 C632 1.350 . S
C627 N635 1.427 . S
C628 H619 0.930 . S
C628 C626 1.378 . S
C628 C629 1.367 . S
C629 C628 1.367 . S
C629 C631 1.433 . S
C630 C626 1.350 . S
C630 C627 1.463 . S
C630 N634 1.427 . S
C631 H621 0.929 . S
C631 C629 1.433 . S
C631 N634 1.384 . S
C632 H623 0.929 . S
C632 C624 1.378 . S
C632 C627 1.350 . S
C633 H620 0.929 . S
C633 C625 1.433 . S
C633 N635 1.384 . S
N634 C630 1.427 . S
N634 C631 1.384 . S
N635 C627 1.427 . S
N635 C633 1.384 . S
C319 C10 2.963 . S
C323 C303 2.917 . S
C337 C59 3.070 . S
C341 C239 3.008 . S
C355 C90 2.987 . S
C359 C271 2.948 . S
C373 C19 3.079 . S
C377 C297 3.023 . S
C395 C233 2.932 . S
C391 C50 2.968 . S
C413 C265 2.999 . S
C409 C99 3.053 . S
C427 C46 0.450 . S
C431 C175 0.427 . S
C445 C95 0.430 . S
C449 C207 0.406 . S
C463 C6 0.436 . S
C467 C137 0.491 . S
C485 C169 0.351 . S
C481 C55 0.443 . S
C503 C201 0.514 . S
C499 C86 0.478 . S
C517 C15 0.453 . S
C521 C143 0.410 . S
C539 C213 1.044 . S
C535 C9 1.068 . S
C553 C49 1.048 . S
C557 C149 1.052 . S
C571 C89 1.053 . S
C575 C181 1.066 . S
C593 C277 1.754 . S
C589 C58 1.718 . S
C611 C309 1.758 . S
C607 C98 1.710 . S
C625 C18 1.718 . S
C629 C245 1.756 . S
