# Generated by pormake.
# Topology rtl, (3,6)-cn, num edge types: 1
# Building blocks:
#     Node 0, Type 0, BuildingBlock: QEWDON_clean_linker_0, # of connection points: 3
#     Node 1, Type 0, BuildingBlock: QEWDON_clean_linker_0, # of connection points: 3
#     Node 2, Type 0, BuildingBlock: QEWDON_clean_linker_0, # of connection points: 3
#     Node 3, Type 0, BuildingBlock: QEWDON_clean_linker_0, # of connection points: 3
#     Node 4, Type 1, BuildingBlock: KUMJIN_clean_sbu_1, # of connection points: 6
#     Node 5, Type 1, BuildingBlock: KUMJIN_clean_sbu_1, # of connection points: 6
#     Edge 6, Type (0, 1), BuildingBlock: ZUJKAS_clean_linker_0, # of connection points: 2
#     Edge 7, Type (0, 1), BuildingBlock: ZUJKAS_clean_linker_0, # of connection points: 2
#     Edge 8, Type (0, 1), BuildingBlock: ZUJKAS_clean_linker_0, # of connection points: 2
#     Edge 9, Type (0, 1), BuildingBlock: ZUJKAS_clean_linker_0, # of connection points: 2
#     Edge 10, Type (0, 1), BuildingBlock: ZUJKAS_clean_linker_0, # of connection points: 2
#     Edge 11, Type (0, 1), BuildingBlock: ZUJKAS_clean_linker_0, # of connection points: 2
#     Edge 12, Type (0, 1), BuildingBlock: ZUJKAS_clean_linker_0, # of connection points: 2
#     Edge 13, Type (0, 1), BuildingBlock: ZUJKAS_clean_linker_0, # of connection points: 2
#     Edge 14, Type (0, 1), BuildingBlock: ZUJKAS_clean_linker_0, # of connection points: 2
#     Edge 15, Type (0, 1), BuildingBlock: ZUJKAS_clean_linker_0, # of connection points: 2
#     Edge 16, Type (0, 1), BuildingBlock: ZUJKAS_clean_linker_0, # of connection points: 2
#     Edge 17, Type (0, 1), BuildingBlock: ZUJKAS_clean_linker_0, # of connection points: 2
# Relax obj value: 0.084
# Max RMSD: 0.264
# Mean RMSD: 0.205
data_MOF--net-rtl--node1-KUMJIN_clean_sbu_1--node2-QEWDON_clean_linker_0--edge1-ZUJKAS_clean_linker_0
_symmetry_space_group_name_H-M    P1
_symmetry_Int_Tables_number       1
_symmetry_cell_setting            triclinic
loop_
_symmetry_equiv_pos_as_xyz
'x, y, z'
_cell_length_a     47.957439
_cell_length_b     47.67284
_cell_length_c     33.467455
_cell_angle_alpha  81.265741
_cell_angle_beta   100.42105
_cell_angle_gamma 90.829057
loop_
_atom_site_label
_atom_site_type_symbol
_atom_site_fract_x
_atom_site_fract_y
_atom_site_fract_z
_atom_type_partial_charge
H0 H 0.24219 0.84276 0.09769 0.0
C1 C 0.23206 0.845 0.06565 0.0
C2 C 0.20453 0.85657 0.05368 0.0
C3 C 0.24719 0.83748 0.03636 0.0
H4 H 0.17075 0.86904 1.0025 0.0
C5 C 0.1919 0.85986 0.01202 0.0
C6 C 0.20656 0.85265 0.9822 0.0
C7 C 0.23426 0.84129 0.99461 0.0
C8 C 0.27737 0.82829 0.04944 0.0
H9 H 0.24604 0.8363 0.97177 0.0
C10 C 0.2877 0.80332 0.03887 0.0
C11 C 0.31605 0.79427 0.05418 0.0
C12 C 0.29596 0.84454 0.07395 0.0
H13 H 0.28869 0.864 0.08202 0.0
C14 C 0.3241 0.836 0.08821 0.0
H15 H 0.27351 0.79046 0.02031 0.0
C16 C 0.33407 0.81099 0.07868 0.0
H17 H 0.35601 0.80473 0.09036 0.0
H18 H 0.33822 0.84873 0.107 0.0
H19 H 0.74894 0.70902 0.58888 0.0
C20 C 0.73451 0.70373 0.61028 0.0
C21 C 0.71011 0.68794 0.59888 0.0
C22 C 0.74147 0.71062 0.65039 0.0
H23 H 0.67333 0.6679 0.61869 0.0
C24 C 0.69227 0.67985 0.62749 0.0
C25 C 0.69878 0.68637 0.66754 0.0
C26 C 0.72305 0.70231 0.67845 0.0
C27 C 0.76949 0.72319 0.66493 0.0
H28 H 0.72832 0.70711 0.70953 0.0
C29 C 0.7813 0.7455 0.64053 0.0
C30 C 0.80826 0.75628 0.65504 0.0
C31 C 0.7851 0.71193 0.70372 0.0
H32 H 0.77712 0.69437 0.72282 0.0
C33 C 0.81146 0.72274 0.71824 0.0
H34 H 0.76969 0.75429 0.61047 0.0
C35 C 0.82295 0.74473 0.69425 0.0
H36 H 0.84337 0.75288 0.70665 0.0
H37 H 0.82312 0.71394 0.74822 0.0
H38 H 0.80145 0.18638 0.10065 0.0
C39 C 0.81183 0.18531 0.07471 0.0
C40 C 0.83955 0.174 0.08119 0.0
C41 C 0.79654 0.19302 0.03461 0.0
H42 H 0.87342 0.16298 0.05161 0.0
C43 C 0.85213 0.1717 0.04691 0.0
C44 C 0.83711 0.17922 1.00663 0.0
C45 C 0.80925 0.18983 1.00083 0.0
C46 C 0.7659 0.19997 0.02764 0.0
H47 H 0.79715 0.19515 0.96997 0.0
C48 C 0.75574 0.22593 0.03531 0.0
C49 C 0.72638 0.23236 0.02577 0.0
C50 C 0.74659 0.18032 0.01166 0.0
H51 H 0.75402 0.16028 1.00565 0.0
C52 C 0.71761 0.18627 1.00335 0.0
H53 H 0.77061 0.24133 0.0471 0.0
C54 C 0.70755 0.21206 0.01019 0.0
H55 H 0.68489 0.21614 1.00333 0.0
H56 H 0.70287 0.1709 0.99124 0.0
H57 H 0.34757 0.28965 0.49998 0.0
C58 C 0.35453 0.30243 0.47403 0.0
C59 C 0.36943 0.3276 0.47958 0.0
C60 C 0.35071 0.2926 0.4358 0.0
H61 H 0.39018 0.36321 0.45036 0.0
C62 C 0.37931 0.34348 0.44619 0.0
C63 C 0.3759 0.33406 0.40792 0.0
C64 C 0.36122 0.30875 0.40288 0.0
C65 C 0.33894 0.26396 0.43114 0.0
H66 H 0.35892 0.30094 0.3737 0.0
C67 C 0.31337 0.25481 0.44408 0.0
C68 C 0.3024 0.22786 0.43754 0.0
C69 C 0.35375 0.24548 0.41311 0.0
H70 H 0.37369 0.25166 0.40368 0.0
C71 C 0.34328 0.21873 0.40745 0.0
H72 H 0.30167 0.26888 0.45783 0.0
C73 C 0.31782 0.20999 0.41938 0.0
H74 H 0.31027 0.18899 0.41473 0.0
H75 H 0.35497 0.20469 0.39369 0.0
Eu76 Eu 0.04446 0.99446 0.50283 0.0
C77 C 0.96253 0.08906 0.51213 0.0
N78 N 0.99081 0.08803 0.52698 0.0
C79 C 0.99555 0.13581 0.49464 0.0
C80 C 0.94979 0.1132 0.48596 0.0
C81 C 1.00726 0.11125 0.52016 0.0
C82 C 0.96678 0.13663 0.47688 0.0
C83 C 0.91662 0.06709 0.51101 0.0
C84 C 0.94625 0.06629 0.52453 0.0
C85 C 0.90398 0.09034 0.48294 0.0
C86 C 0.92054 0.11339 0.47051 0.0
Eu87 Eu 1.0094 0.04532 0.56756 0.0
N88 N 0.95911 0.04435 0.55211 0.0
C89 C 0.90048 0.04502 0.52734 0.0
C90 C 0.94318 0.02428 0.57092 0.0
C91 C 0.91378 0.02384 0.55809 0.0
H92 H 0.02956 0.11041 0.53361 0.0
H93 H 0.90136 1.00737 0.57226 0.0
H94 H 1.00058 0.93777 0.50166 0.0
H95 H 0.1588 0.99441 0.55407 0.0
H96 H 0.95305 1.00856 0.59599 0.0
H97 H 0.87767 0.04481 0.51774 0.0
H98 H 0.11193 0.01411 0.51771 0.0
H99 H 1.00874 0.154 0.48844 0.0
H100 H 0.88131 0.09113 0.47173 0.0
H101 H 0.9104 0.13154 0.44978 0.0
H102 H 1.0 0.88874 0.53722 0.0
H103 H 0.95779 0.1556 0.45693 0.0
H104 H 0.1624 0.94577 0.59322 0.0
N105 N 0.04204 0.94616 0.53241 0.0
C106 C 0.06657 0.93438 0.5554 0.0
C107 C 0.01872 0.90148 0.54323 0.0
C108 C 0.06773 0.90583 0.57456 0.0
C109 C 0.01886 0.92963 0.52397 0.0
C110 C 0.04312 0.88966 0.56925 0.0
N111 N 0.08952 0.97746 0.53777 0.0
C112 C 0.11344 0.993 0.53514 0.0
C113 C 0.11735 0.93809 0.57823 0.0
C114 C 0.09112 0.95029 0.5574 0.0
C115 C 0.14186 0.95438 0.57752 0.0
C116 C 0.13992 0.98186 0.55549 0.0
H117 H 0.04312 0.86768 0.58354 0.0
H118 H 0.09486 0.87208 0.61181 0.0
H119 H 0.13836 0.90021 0.61439 0.0
O120 O 0.06022 1.00995 0.44632 0.0
O121 O 0.06535 1.00194 0.56711 0.0
O122 O 0.0281 1.0029 0.60036 0.0
O123 O 0.04967 0.96582 0.45943 0.0
O124 O 0.06125 0.03946 0.4983 0.0
O125 O 0.05387 0.0578 0.55642 0.0
O126 O 0.99131 0.06065 0.61678 0.0
O127 O 1.0094 0.0577 0.49903 0.0
O128 O 1.0023 0.01589 0.47354 0.0
O129 O 0.03668 0.06379 0.61586 0.0
O130 O 0.99626 0.99883 0.57228 0.0
O131 O 0.99805 0.98698 0.50846 0.0
C132 C 0.05399 0.99471 0.5999 0.0
C133 C 0.0457 0.98562 0.38977 0.0
C134 C 0.04963 0.97244 0.32322 0.0
C135 C 0.02294 0.98525 0.3066 0.0
C136 C 0.01911 0.99818 0.37276 0.0
C137 C 1.00784 0.99799 0.33129 0.0
C138 C 0.06082 0.97278 0.36504 0.0
C139 C 0.06725 0.05727 0.52523 0.0
C140 C 0.05814 0.98554 0.43319 0.0
C141 C 0.09361 0.89394 0.59678 0.0
C142 C 0.1184 0.90996 0.59828 0.0
C143 C 0.9976 0.04325 0.47018 0.0
C144 C 0.02094 0.08171 0.67238 0.0
C145 C 1.00405 0.09856 0.72951 0.0
C146 C 0.03209 0.10528 0.74555 0.0
C147 C 0.04872 0.08871 0.68919 0.0
C148 C 0.99852 0.08694 0.69253 0.0
C149 C 0.05417 0.10046 0.72544 0.0
C150 C 0.98698 0.98429 0.54213 0.0
C151 C 0.01601 0.0685 0.63444 0.0
H152 H 0.01356 0.98512 0.27467 0.0
H153 H 1.00716 1.00808 0.39151 0.0
H154 H 0.98729 1.00769 0.31824 0.0
H155 H 0.08152 0.96341 0.37834 0.0
H156 H 0.03691 0.11458 0.77356 0.0
H157 H 0.06637 0.08501 0.67444 0.0
H158 H 0.97701 0.08152 0.68003 0.0
H159 H 0.07565 0.10578 0.73806 0.0
Eu160 Eu 0.49576 0.50293 0.99291 0.0
C161 C 0.60613 0.568 0.0251 0.0
N162 N 0.60057 0.54254 0.04644 0.0
C163 C 0.64586 0.52425 0.04142 0.0
C164 C 0.63179 0.57228 0.01019 0.0
C165 C 0.62004 0.5209 0.05531 0.0
C166 C 0.65172 0.55 0.0186 0.0
C167 C 0.59066 0.61588 0.9941 0.0
C168 C 0.58558 0.58945 0.01686 0.0
C169 C 0.61603 0.62006 0.97873 0.0
C170 C 0.63655 0.59836 0.98683 0.0
Eu171 Eu 0.55645 0.53851 0.06826 0.0
N172 N 0.56089 0.58465 0.03145 0.0
C173 C 0.57032 0.63755 0.98812 0.0
C174 C 0.54245 0.60665 0.02909 0.0
C175 C 0.5464 0.63309 1.00644 0.0
H176 H 0.61567 0.5011 0.07325 0.0
H177 H 0.53129 0.6502 1.00391 0.0
H178 H 0.44041 0.54768 0.95904 0.0
H179 H 0.50095 0.39659 0.08344 0.0
H180 H 0.52519 0.60448 0.04578 0.0
H181 H 0.57342 0.65813 0.97082 0.0
H182 H 0.51898 0.43762 0.04236 0.0
H183 H 0.6612 0.50698 0.04828 0.0
H184 H 0.62011 0.64013 0.96087 0.0
H185 H 0.65604 0.60195 0.97482 0.0
H186 H 0.39022 0.551 0.96625 0.0
H187 H 0.67165 0.55246 0.00761 0.0
H188 H 0.45127 0.39646 0.09413 0.0
N189 N 0.44735 0.50732 0.99615 0.0
C190 C 0.43575 0.48493 0.01737 0.0
C191 C 0.40283 0.53238 0.98101 0.0
C192 C 0.40711 0.48573 0.02189 0.0
C193 C 0.43132 0.53065 0.97744 0.0
C194 C 0.39069 0.50989 1.0035 0.0
N195 N 0.48058 0.46154 0.0316 0.0
C196 C 0.49756 0.43833 0.04746 0.0
C197 C 0.44141 0.43801 0.05824 0.0
C198 C 0.45274 0.4613 0.03533 0.0
C199 C 0.45914 0.4147 0.07616 0.0
C200 C 0.48724 0.41476 0.07039 0.0
H201 H 0.36861 0.51131 1.00628 0.0
H202 H 0.3739 0.46286 0.04865 0.0
H203 H 0.40392 0.42115 0.08052 0.0
O204 O 0.50306 0.47409 0.95095 0.0
O205 O 0.48914 0.50386 0.05827 0.0
O206 O 0.53353 0.50158 0.09896 0.0
O207 O 0.46672 0.50244 0.9346 0.0
O208 O 0.53962 0.48162 0.00937 0.0
O209 O 0.56219 0.49093 0.07349 0.0
O210 O 0.55727 0.56515 0.11617 0.0
O211 O 0.56251 0.53229 1.00415 0.0
O212 O 0.5185 0.54085 0.96494 0.0
O213 O 0.59082 0.53456 0.12158 0.0
O214 O 0.51087 0.5554 0.05759 0.0
O215 O 0.49284 0.55052 0.99036 0.0
C216 C 0.50619 0.49658 0.09361 0.0
C217 C 0.48603 0.48886 0.8804 0.0
C218 C 0.47712 0.47619 0.81126 0.0
C219 C 0.49524 0.49809 0.79913 0.0
C220 C 0.50397 0.5106 0.8678 0.0
C221 C 0.5085 0.51518 0.82727 0.0
C222 C 0.47263 0.4718 0.85214 0.0
C223 C 0.55898 0.47574 0.04317 0.0
C224 C 0.48127 0.48336 0.92296 0.0
C225 C 0.39583 0.46257 0.04474 0.0
C226 C 0.41292 0.4388 0.06287 0.0
C227 C 0.54614 0.54283 0.96954 0.0
C228 C 0.57931 0.54553 0.18303 0.0
C229 C 0.59229 0.55566 0.25342 0.0
C230 C 0.57768 0.53121 0.26692 0.0
C231 C 0.56482 0.52136 0.19712 0.0
C232 C 0.59296 0.56263 0.21114 0.0
C233 C 0.56404 0.51427 0.23891 0.0
C234 C 0.49252 0.5626 0.02311 0.0
C235 C 0.58016 0.55335 0.13908 0.0
H236 H 0.49892 0.50221 0.7678 0.0
H237 H 0.51445 0.52393 0.88924 0.0
H238 H 0.52234 0.53201 0.81763 0.0
H239 H 0.45909 0.45478 0.86226 0.0
H240 H 0.57709 0.52492 0.29924 0.0
H241 H 0.55417 0.508 0.17587 0.0
H242 H 0.60376 0.58153 0.19993 0.0
H243 H 0.5529 0.49551 0.24965 0.0
H244 H 0.25946 0.20311 0.39085 0.0
H245 H 0.2183 0.1789 0.41275 0.0
H246 H 0.24188 0.20478 0.53206 0.0
H247 H 0.28366 0.22898 0.51039 0.0
H248 H 0.22937 0.13387 0.49373 0.0
H249 H 0.15013 0.21992 0.48554 0.0
H250 H 0.17564 0.22331 0.45144 0.0
H251 H 0.18723 0.22499 0.50496 0.0
C252 C 0.25575 0.20399 0.42162 0.0
C253 C 0.27501 0.21768 0.44907 0.0
C254 C 0.23216 0.19022 0.43401 0.0
C255 C 0.22711 0.19 0.47399 0.0
C256 C 0.24537 0.20488 0.50096 0.0
H257 H 0.08847 0.097 0.57423 0.0
H258 H 0.12767 0.12967 0.56575 0.0
C259 C 0.26913 0.21874 0.48852 0.0
C260 C 0.20433 0.17182 0.48805 0.0
H261 H 0.13518 0.17271 0.50045 0.0
C262 C 0.20886 0.14235 0.49566 0.0
C263 C 0.17775 0.18299 0.49082 0.0
C264 C 0.1721 0.21454 0.48279 0.0
C265 C 0.18725 0.12364 0.50494 0.0
C266 C 0.16012 0.13467 0.50563 0.0
C267 C 0.15591 0.16426 0.49964 0.0
C268 C 0.13564 0.11568 0.51027 0.0
C269 C 0.19368 0.09218 0.5137 0.0
C270 C 0.12668 0.09739 0.48146 0.0
C271 C 0.10441 0.07868 0.48621 0.0
C272 C 0.09034 0.07792 0.5198 0.0
C273 C 0.09887 0.09683 0.54811 0.0
C274 C 0.12125 0.11559 0.5433 0.0
H275 H 0.21674 0.0878 0.52429 0.0
H276 H 0.18208 0.08135 0.53742 0.0
H277 H 0.187 0.08286 0.48508 0.0
H278 H 0.13704 0.09751 0.45523 0.0
H279 H 0.09837 0.06471 0.46352 0.0
H280 H 0.31413 0.77578 0.9799 0.0
H281 H 0.33843 0.73377 0.96695 0.0
H282 H 0.36819 0.71053 0.09719 0.0
H283 H 0.3441 0.75215 0.11016 0.0
H284 H 0.39876 0.72336 0.99164 0.0
H285 H 0.33709 0.63553 0.06 0.0
H286 H 0.32325 0.67138 0.04487 0.0
H287 H 0.34736 0.66187 0.09274 0.0
C288 C 0.32537 0.76132 1.00571 0.0
C289 C 0.32728 0.76721 0.04602 0.0
C290 C 0.33934 0.73746 0.9983 0.0
C291 C 0.35492 0.71888 0.03115 0.0
C292 C 0.35597 0.72429 0.07143 0.0
H293 H 0.47464 0.58123 0.08753 0.0
H294 H 0.44005 0.61888 0.08518 0.0
C295 C 0.34233 0.74817 0.07878 0.0
C296 C 0.37203 0.69506 0.02375 0.0
H297 H 0.38332 0.62351 0.04983 0.0
C298 C 0.39515 0.70145 1.00369 0.0
C299 C 0.36735 0.66653 0.03974 0.0
C300 C 0.34226 0.6583 0.06023 0.0
C301 C 0.41455 0.68025 1.001 0.0
C302 C 0.41034 0.65179 0.01808 0.0
C303 C 0.38662 0.64531 0.03688 0.0
C304 C 0.43106 0.62869 0.01881 0.0
C305 C 0.44014 0.68876 0.98175 0.0
C306 C 0.43743 0.62147 0.98226 0.0
C307 C 0.45743 0.60007 0.98354 0.0
C308 C 0.47116 0.5852 0.02138 0.0
C309 C 0.46452 0.5923 0.05787 0.0
C310 C 0.44463 0.61374 0.05658 0.0
H311 H 0.44375 0.71199 0.97905 0.0
H312 H 0.45954 0.67754 0.99995 0.0
H313 H 0.43682 0.68294 0.95038 0.0
H314 H 0.42691 0.63235 0.95272 0.0
H315 H 0.46227 0.59531 0.95489 0.0
H316 H 0.78393 0.80641 0.61186 0.0
H317 H 0.80827 0.84724 0.57997 0.0
H318 H 0.8873 0.80015 0.61322 0.0
H319 H 0.86309 0.75931 0.64346 0.0
H320 H 0.84906 0.87763 0.61829 0.0
H321 H 0.89173 0.83415 0.49783 0.0
H322 H 0.86469 0.8163 0.52295 0.0
H323 H 0.9016 0.81174 0.54632 0.0
C324 C 0.80633 0.80455 0.61125 0.0
C325 C 0.82159 0.77966 0.63037 0.0
C326 C 0.82027 0.82796 0.5933 0.0
C327 C 0.84963 0.82676 0.59373 0.0
C328 C 0.86459 0.80153 0.61155 0.0
H329 H 0.97551 0.9551 0.61379 0.0
H330 H 0.93949 0.91902 0.62257 0.0
C331 C 0.85074 0.77824 0.62933 0.0
C332 C 0.86536 0.8524 0.57922 0.0
H333 H 0.91678 0.87428 0.52324 0.0
C334 C 0.86349 0.87705 0.59693 0.0
C335 C 0.8839 0.852 0.55081 0.0
C336 C 0.88536 0.8272 0.52807 0.0
C337 C 0.88075 0.90057 0.58884 0.0
C338 C 0.90099 0.89919 0.56315 0.0
C339 C 0.90169 0.87522 0.54356 0.0
C340 C 0.92238 0.92176 0.5576 0.0
C341 C 0.87717 0.92663 0.6081 0.0
C342 C 0.92544 0.93483 0.51808 0.0
C343 C 0.94629 0.95529 0.51299 0.0
C344 C 0.96453 0.96303 0.54732 0.0
C345 C 0.9615 0.94989 0.58679 0.0
C346 C 0.94079 0.92935 0.59185 0.0
H347 H 0.85537 0.9282 0.61457 0.0
H348 H 0.89215 0.92524 0.6378 0.0
H349 H 0.88158 0.94632 0.58798 0.0
H350 H 0.91166 0.92921 0.49116 0.0
H351 H 0.94813 0.96509 0.4822 0.0
H352 H 0.68794 0.26635 0.97045 0.0
H353 H 0.66373 0.30861 0.98079 0.0
H354 H 0.71358 0.30369 0.10261 0.0
H355 H 0.7381 0.26105 0.09232 0.0
H356 H 0.63138 0.30876 0.04299 0.0
H357 H 0.71713 0.38868 0.05415 0.0
H358 H 0.7201 0.35681 0.03202 0.0
H359 H 0.72427 0.35497 0.08673 0.0
C360 C 0.69397 0.27438 0.99935 0.0
C361 C 0.71476 0.26019 0.03073 0.0
C362 C 0.68014 0.29859 1.00518 0.0
C363 C 0.6868 0.30937 0.04244 0.0
C364 C 0.70833 0.29597 0.07339 0.0
H365 H 0.59962 0.45291 0.10893 0.0
H366 H 0.63137 0.41226 0.11297 0.0
C367 C 0.72233 0.27163 0.0675 0.0
C368 C 0.66953 0.33333 0.04924 0.0
H369 H 0.67164 0.40344 0.06079 0.0
C370 C 0.64025 0.32941 0.04714 0.0
C371 C 0.68112 0.36019 0.05506 0.0
C372 C 0.71234 0.36567 0.05689 0.0
C373 C 0.62216 0.35171 0.04967 0.0
C374 C 0.63353 0.37889 0.05374 0.0
C375 C 0.66296 0.38262 0.05748 0.0
C376 C 0.61484 0.40394 0.05143 0.0
C377 C 0.59094 0.34602 0.04769 0.0
C378 C 0.59527 0.41298 0.01535 0.0
C379 C 0.57721 0.43616 0.01286 0.0
C380 C 0.57832 0.45101 0.04639 0.0
C381 C 0.59816 0.44205 0.08248 0.0
C382 C 0.61636 0.41883 0.08486 0.0
H383 H 0.58691 0.32309 0.05634 0.0
H384 H 0.58191 0.35816 0.06827 0.0
H385 H 0.57958 0.35273 0.01576 0.0
H386 H 0.59402 0.4021 0.98893 0.0
H387 H 0.5624 0.44244 0.98445 0.0
H388 H 0.20097 0.83096 0.13202 0.0
H389 H 0.1749 0.84813 0.18053 0.0
H390 H 0.14834 0.92278 0.0923 0.0
H391 H 0.17443 0.90608 0.04411 0.0
H392 H 0.18024 0.90043 0.2135 0.0
H393 H 0.07334 0.88978 0.12116 0.0
H394 H 0.10446 0.87261 0.11218 0.0
H395 H 0.09753 0.90963 0.09298 0.0
C396 C 0.18968 0.85109 0.12308 0.0
C397 C 0.18943 0.86692 0.08393 0.0
C398 C 0.17473 0.86081 0.15074 0.0
C399 C 0.15921 0.88643 0.13965 0.0
C400 C 0.15956 0.90259 0.10108 0.0
H401 H 0.05608 0.9918 0.24405 0.0
H402 H 0.08303 0.96965 0.20142 0.0
C403 C 0.17446 0.89296 0.07353 0.0
C404 C 0.14283 0.89668 0.16831 0.0
H405 H 0.07613 0.91631 0.17653 0.0
C406 C 0.15744 0.90363 0.20571 0.0
C407 C 0.11309 0.90086 0.15798 0.0
C408 C 0.09609 0.89259 0.11907 0.0
C409 C 0.14322 0.91565 0.23239 0.0
C410 C 0.11354 0.92034 0.22165 0.0
C411 C 0.09889 0.91284 0.18462 0.0
C412 C 0.0973 0.93358 0.2479 0.0
C413 C 0.16023 0.92415 0.27112 0.0
C414 C 0.09605 0.92046 0.288 0.0
C415 C 0.08057 0.93303 0.31241 0.0
C416 C 0.06585 0.95889 0.29709 0.0
C417 C 0.0669 0.97176 0.25669 0.0
C418 C 0.08241 0.9592 0.23234 0.0
H419 H 0.18322 0.92552 0.26992 0.0
H420 H 0.15276 0.94495 0.27653 0.0
H421 H 0.15755 0.90803 0.29774 0.0
H422 H 0.10681 0.90035 0.30031 0.0
H423 H 0.0798 0.92228 0.34311 0.0
H424 H 0.6796 0.71248 0.72563 0.0
H425 H 0.65136 0.69145 0.77668 0.0
H426 H 0.65145 0.61155 0.7311 0.0
H427 H 0.67932 0.63234 0.6802 0.0
H428 H 0.59888 0.62578 0.74228 0.0
H429 H 0.67918 0.63637 0.88123 0.0
H430 H 0.66942 0.66898 0.84717 0.0
H431 H 0.68763 0.64155 0.83025 0.0
C432 C 0.67368 0.6904 0.7267 0.0
C433 C 0.68157 0.67415 0.69869 0.0
C434 C 0.65762 0.67839 0.75592 0.0
C435 C 0.6495 0.64981 0.75801 0.0
C436 C 0.65734 0.63365 0.73002 0.0
H437 H 0.59793 0.53285 0.95204 0.0
H438 H 0.62146 0.5604 0.90016 0.0
C439 C 0.67321 0.64562 0.7008 0.0
C440 C 0.63274 0.63644 0.78898 0.0
H441 H 0.63501 0.61738 0.89215 0.0
C442 C 0.6067 0.62408 0.77507 0.0
C443 C 0.6431 0.63397 0.83176 0.0
C444 C 0.67147 0.64568 0.84865 0.0
C445 C 0.59095 0.609 0.80267 0.0
C446 C 0.60125 0.60667 0.84542 0.0
C447 C 0.62708 0.61935 0.85937 0.0
C448 C 0.58638 0.58986 0.87614 0.0
C449 C 0.56397 0.5948 0.78579 0.0
C450 C 0.55878 0.59719 0.87982 0.0
C451 C 0.54524 0.58134 0.90937 0.0
C452 C 0.55927 0.55819 0.93606 0.0
C453 C 0.58672 0.55072 0.932 0.0
C454 C 0.60018 0.56645 0.90243 0.0
H455 H 0.56247 0.59307 0.75273 0.0
H456 H 0.5625 0.5732 0.80313 0.0
H457 H 0.54548 0.60749 0.7889 0.0
H458 H 0.54791 0.61545 0.86035 0.0
H459 H 0.52418 0.58772 0.91219 0.0
H460 H 0.84264 0.19654 0.15298 0.0
H461 H 0.86865 0.17712 0.22164 0.0
H462 H 0.89614 0.10561 0.17314 0.0
H463 H 0.8701 0.12448 0.10505 0.0
H464 H 0.86413 0.12268 0.27104 0.0
H465 H 0.97066 0.13861 0.22933 0.0
H466 H 0.93917 0.15614 0.19833 0.0
H467 H 0.9468 0.11981 0.19521 0.0
C468 C 0.85412 0.17662 0.15703 0.0
C469 C 0.85468 0.16235 0.1233 0.0
C470 C 0.86901 0.16559 0.19622 0.0
C471 C 0.88477 0.1402 0.20228 0.0
C472 C 0.8847 0.12558 0.16896 0.0
H473 H 0.95459 0.02212 0.41843 0.0
H474 H 0.92632 0.04727 0.35495 0.0
C475 C 0.86986 0.13649 0.12997 0.0
C476 C 0.90135 0.12871 0.24329 0.0
H477 H 0.96846 0.10889 0.29269 0.0
C478 C 0.88696 0.11987 0.27593 0.0
C479 C 0.93119 0.12537 0.24974 0.0
C480 C 0.94795 0.13572 0.21644 0.0
C481 C 0.90155 0.10687 0.31446 0.0
C482 C 0.9312 0.10235 0.32024 0.0
C483 C 0.94568 0.11208 0.28804 0.0
C484 C 0.94764 0.08732 0.3593 0.0
C485 C 0.88519 0.09813 0.34874 0.0
C486 C 0.96939 0.1013 0.38228 0.0
C487 C 0.98565 0.08693 0.41828 0.0
C488 C 0.98049 0.05831 0.43194 0.0
C489 C 0.95893 0.04422 0.40868 0.0
C490 C 0.94262 0.05863 0.37267 0.0
H491 H 0.86429 0.1092 0.34275 0.0
H492 H 0.88141 0.07495 0.35157 0.0
H493 H 0.89738 0.10264 0.37855 0.0
H494 H 0.97383 0.12334 0.37229 0.0
H495 H 1.00254 0.09811 0.4351 0.0
H496 H 0.33492 0.33347 0.53533 0.0
H497 H 0.34796 0.35341 0.59985 0.0
H498 H 0.43424 0.36228 0.57991 0.0
H499 H 0.42154 0.34209 0.51646 0.0
H500 H 0.42987 0.34126 0.66162 0.0
H501 H 0.3638 0.4388 0.60029 0.0
H502 H 0.34609 0.40532 0.59966 0.0
H503 H 0.37199 0.41452 0.56746 0.0
C504 C 0.3567 0.33935 0.54516 0.0
C505 C 0.37713 0.33667 0.52064 0.0
C506 C 0.36408 0.35092 0.58174 0.0
C507 C 0.39197 0.35979 0.59425 0.0
C508 C 0.41257 0.35577 0.57074 0.0
H509 H 0.50052 0.45289 0.75492 0.0
H510 H 0.47757 0.42284 0.70583 0.0
C511 C 0.40524 0.34438 0.53437 0.0
C512 C 0.40005 0.37435 0.63074 0.0
H513 H 0.39309 0.43747 0.66481 0.0
C514 C 0.42155 0.36213 0.66262 0.0
C515 C 0.38919 0.40159 0.63196 0.0
C516 C 0.36662 0.41605 0.59798 0.0
C517 C 0.43309 0.37677 0.69502 0.0
C518 C 0.42315 0.40453 0.69521 0.0
C519 C 0.40074 0.41623 0.66443 0.0
C520 C 0.43697 0.42244 0.72552 0.0
C521 C 0.4561 0.36255 0.72849 0.0
C522 C 0.42157 0.43277 0.7522 0.0
C523 C 0.43459 0.45015 0.78013 0.0
C524 C 0.46319 0.45778 0.78154 0.0
C525 C 0.47843 0.4476 0.75443 0.0
C526 C 0.46544 0.43015 0.72668 0.0
H527 H 0.45547 0.33908 0.73054 0.0
H528 H 0.47708 0.36964 0.72154 0.0
H529 H 0.4542 0.36829 0.75884 0.0
H530 H 0.39949 0.42731 0.75148 0.0
H531 H 0.42216 0.45794 0.80023 0.0
H532 H 0.71026 0.71786 0.52173 0.0
H533 H 0.6956 0.7007 0.45537 0.0
H534 H 0.68101 0.61772 0.51927 0.0
H535 H 0.69618 0.6344 0.585 0.0
H536 H 0.70815 0.61558 0.45349 0.0
H537 H 0.61226 0.68571 0.40867 0.0
H538 H 0.64575 0.70293 0.41993 0.0
H539 H 0.6326 0.68032 0.4602 0.0
C540 C 0.70426 0.6959 0.52145 0.0
C541 C 0.70391 0.6776 0.5585 0.0
C542 C 0.69567 0.68619 0.48361 0.0
C543 C 0.68671 0.65805 0.4824 0.0
C544 C 0.68763 0.63954 0.51942 0.0
H545 H 0.5735 0.57063 0.31995 0.0
H546 H 0.59843 0.59775 0.37148 0.0
C547 C 0.69612 0.64917 0.55698 0.0
C548 C 0.67539 0.64759 0.4431 0.0
H549 H 0.61803 0.65287 0.36505 0.0
C550 C 0.68867 0.62397 0.43375 0.0
C551 C 0.64978 0.65839 0.41773 0.0
C552 C 0.63404 0.6831 0.42708 0.0
C553 C 0.67656 0.61023 0.40061 0.0
C554 C 0.6507 0.62074 0.37562 0.0
C555 C 0.63791 0.64495 0.38413 0.0
C556 C 0.63537 0.6055 0.34283 0.0
C557 C 0.69078 0.58369 0.39401 0.0
C558 C 0.64764 0.60119 0.30917 0.0
C559 C 0.63356 0.58533 0.27985 0.0
C560 C 0.60683 0.57364 0.28347 0.0
C561 C 0.59428 0.5788 0.31659 0.0
C562 C 0.60839 0.59455 0.3459 0.0
H563 H 0.70706 0.57511 0.42099 0.0
H564 H 0.67497 0.56694 0.38775 0.0
H565 H 0.70143 0.58867 0.36703 0.0
H566 H 0.66823 0.60984 0.30579 0.0
H567 H 0.64393 0.58169 0.25488 0.0
H568 H 0.89118 0.19041 0.99343 0.0
H569 H 0.91343 0.17744 0.93842 0.0
H570 H 0.83451 0.14268 0.88443 0.0
H571 H 0.81224 0.15506 0.9399 0.0
H572 H 0.88072 0.10591 0.89414 0.0
H573 H 0.90465 0.21244 0.81705 0.0
H574 H 0.91716 0.20721 0.87159 0.0
H575 H 0.87969 0.20708 0.85189 0.0
C576 C 0.8785 0.18018 0.9697 0.0
C577 C 0.84991 0.17383 0.97105 0.0
C578 C 0.89117 0.17302 0.93804 0.0
C579 C 0.87554 0.15941 0.90697 0.0
C580 C 0.8469 0.15338 0.90789 0.0
H581 H 0.95285 0.12571 0.6987 0.0
H582 H 0.91772 0.13906 0.73796 0.0
C583 C 0.83416 0.16065 0.93946 0.0
C584 C 0.88968 0.14984 0.87526 0.0
H585 H 0.92939 0.1731 0.80196 0.0
C586 C 0.89104 0.12064 0.8736 0.0
C587 C 0.90283 0.16905 0.84806 0.0
C588 C 0.90081 0.20072 0.84685 0.0
C589 C 0.90635 0.11006 0.84692 0.0
C590 C 0.9209 0.12916 0.82149 0.0
C591 C 0.9184 0.15845 0.82167 0.0
C592 C 0.94058 0.11909 0.79695 0.0
C593 C 0.90713 0.07849 0.84654 0.0
C594 C 0.96491 0.10331 0.81703 0.0
C595 C 0.9849 0.09578 0.79481 0.0
C596 C 0.98105 0.10389 0.75196 0.0
C597 C 0.95624 0.11896 0.73163 0.0
C598 C 0.93628 0.12672 0.75402 0.0
H599 H 0.88873 0.06785 0.85806 0.0
H600 H 0.90724 0.07372 0.8151 0.0
H601 H 0.92675 0.0693 0.86692 0.0
H602 H 0.96891 0.09755 0.85016 0.0
H603 H 1.00373 0.08404 0.8113 0.0
H604 H 0.35479 0.34442 0.32468 0.0
H605 H 0.37729 0.3711 0.27056 0.0
H606 H 0.44957 0.38645 0.36129 0.0
H607 H 0.4279 0.35919 0.41521 0.0
H608 H 0.42074 0.43687 0.30114 0.0
H609 H 0.45325 0.34649 0.23124 0.0
H610 H 0.41794 0.34664 0.2427 0.0
H611 H 0.44788 0.34231 0.28389 0.0
C612 C 0.37562 0.35316 0.33307 0.0
C613 C 0.38936 0.34984 0.37445 0.0
C614 C 0.38839 0.36846 0.30214 0.0
C615 C 0.41507 0.38069 0.31204 0.0
C616 C 0.42891 0.37726 0.3531 0.0
H617 H 0.53264 0.45924 0.15963 0.0
H618 H 0.51064 0.43142 0.21344 0.0
C619 C 0.41633 0.36185 0.38391 0.0
C620 C 0.42841 0.39777 0.27994 0.0
H621 H 0.46297 0.39265 0.20052 0.0
C622 C 0.42991 0.42726 0.27904 0.0
C623 C 0.4406 0.38506 0.25157 0.0
C624 C 0.44009 0.35336 0.25222 0.0
C625 C 0.44313 0.44447 0.25019 0.0
C626 C 0.45505 0.43181 0.22145 0.0
C627 C 0.45377 0.40226 0.22259 0.0
C628 C 0.46853 0.44903 0.18957 0.0
C629 C 0.4446 0.47602 0.25098 0.0
C630 C 0.45214 0.46811 0.15849 0.0
C631 C 0.46464 0.48409 0.12806 0.0
C632 C 0.49376 0.48114 0.12788 0.0
C633 C 0.51023 0.46219 0.15924 0.0
C634 C 0.49766 0.44614 0.18974 0.0
H635 H 0.44021 0.48154 0.28035 0.0
H636 H 0.46578 0.48419 0.24644 0.0
H637 H 0.42853 0.48702 0.22556 0.0
H638 H 0.42958 0.4704 0.15748 0.0
H639 H 0.45139 0.49857 0.10438 0.0
H640 H 0.23047 0.8806 0.9193 0.0
H641 H 0.20563 0.90111 0.85055 0.0
H642 H 0.12791 0.86263 0.87745 0.0
H643 H 0.15257 0.84191 0.94591 0.0
H644 H 0.16861 0.87648 0.7827 0.0
H645 H 0.11297 0.95081 0.8558 0.0
H646 H 0.14453 0.93117 0.88242 0.0
H647 H 0.1109 0.91379 0.87581 0.0
C648 C 0.20829 0.87583 0.9101 0.0
C649 C 0.19339 0.85989 0.93812 0.0
C650 C 0.1941 0.8877 0.87095 0.0
C651 C 0.16485 0.88382 0.85934 0.0
C652 C 0.1504 0.86625 0.88614 0.0
H653 H 0.03377 0.95901 0.65945 0.0
H654 H 0.06119 0.93085 0.72105 0.0
C655 C 0.16452 0.8544 0.92516 0.0
C656 C 0.14893 0.89974 0.82065 0.0
H657 H 0.0989 0.95212 0.78416 0.0
C658 C 0.15347 0.89313 0.7829 0.0
C659 C 0.12915 0.92137 0.82115 0.0
C660 C 0.12415 0.92997 0.8609 0.0
C661 C 0.13826 0.90724 0.74552 0.0
C662 C 0.11845 0.92886 0.74602 0.0
C663 C 0.11405 0.93551 0.78384 0.0
C664 C 0.10207 0.94498 0.70771 0.0
C665 C 0.14263 0.89824 0.70583 0.0
C666 C 0.11592 0.96255 0.68006 0.0
C667 C 0.10029 0.97879 0.64506 0.0
C668 C 0.07054 0.9777 0.63702 0.0
C669 C 0.05669 0.96028 0.66488 0.0
C670 C 0.07232 0.94409 0.69994 0.0
H671 H 0.15481 0.87796 0.71101 0.0
H672 H 0.12182 0.89567 0.68607 0.0
H673 H 0.15447 0.91486 0.6891 0.0
H674 H 0.1388 0.96416 0.68596 0.0
H675 H 0.11147 0.99254 0.62463 0.0
loop_
_geom_bond_atom_site_label_1
_geom_bond_atom_site_label_2
_geom_bond_distance
_geom_bond_site_symmetry_2
_ccdc_geom_bond_type
H0 C1 0.949 . S
C1 H0 0.949 . S
C1 C2 1.395 . S
C1 C3 1.391 . S
C2 C1 1.395 . S
C2 C5 1.390 . S
C3 C1 1.391 . S
C3 C7 1.387 1_554 S
C3 C8 1.491 . S
H4 C5 0.950 . S
C5 C2 1.390 . S
C5 H4 0.950 . S
C5 C6 1.378 1_554 S
C6 C5 1.378 1_556 S
C6 C7 1.409 . S
C7 C3 1.387 1_556 S
C7 C6 1.409 . S
C7 H9 0.951 . S
C8 C3 1.491 . S
C8 C10 1.382 . S
C8 C12 1.404 1_554 S
H9 C7 0.951 . S
C10 C8 1.382 . S
C10 C11 1.390 . S
C10 H15 0.949 . S
C11 C10 1.390 . S
C11 C16 1.399 . S
C12 C8 1.404 1_556 S
C12 H13 0.950 . S
C12 C14 1.375 . S
H13 C12 0.950 . S
C14 C12 1.375 . S
C14 C16 1.382 1_556 S
C14 H18 0.950 . S
H15 C10 0.949 . S
C16 C11 1.399 . S
C16 C14 1.382 1_554 S
C16 H17 0.952 . S
H17 C16 0.952 . S
H18 C14 0.950 . S
H19 C20 0.949 . S
C20 H19 0.949 . S
C20 C21 1.395 . S
C20 C22 1.391 . S
C21 C20 1.395 . S
C21 C24 1.390 . S
C22 C20 1.391 . S
C22 C26 1.387 . S
C22 C27 1.491 . S
H23 C24 0.950 . S
C24 C21 1.390 . S
C24 H23 0.950 . S
C24 C25 1.378 . S
C25 C24 1.378 . S
C25 C26 1.409 . S
C26 C22 1.387 . S
C26 C25 1.409 . S
C26 H28 0.951 . S
C27 C22 1.491 . S
C27 C29 1.382 . S
C27 C31 1.404 . S
H28 C26 0.951 . S
C29 C27 1.382 . S
C29 C30 1.390 . S
C29 H34 0.949 . S
C30 C29 1.390 . S
C30 C35 1.399 . S
C31 C27 1.404 . S
C31 H32 0.950 . S
C31 C33 1.375 . S
H32 C31 0.950 . S
C33 C31 1.375 . S
C33 C35 1.382 . S
C33 H37 0.950 . S
H34 C29 0.949 . S
C35 C30 1.399 . S
C35 C33 1.382 . S
C35 H36 0.952 . S
H36 C35 0.952 . S
H37 C33 0.950 . S
H38 C39 0.949 . S
C39 H38 0.949 . S
C39 C40 1.395 . S
C39 C41 1.391 . S
C40 C39 1.395 . S
C40 C43 1.390 . S
C41 C39 1.391 . S
C41 C45 1.387 1_554 S
C41 C46 1.491 1_554 S
H42 C43 0.950 . S
C43 C40 1.390 . S
C43 H42 0.950 . S
C43 C44 1.378 1_554 S
C44 C43 1.378 1_556 S
C44 C45 1.409 . S
C45 C41 1.387 1_556 S
C45 C44 1.409 . S
C45 H47 0.951 . S
C46 C41 1.491 1_556 S
C46 C48 1.382 1_556 S
C46 C50 1.404 . S
H47 C45 0.951 . S
C48 C46 1.382 1_554 S
C48 C49 1.390 . S
C48 H53 0.949 . S
C49 C48 1.390 . S
C49 C54 1.399 1_554 S
C50 C46 1.404 . S
C50 H51 0.950 . S
C50 C52 1.375 . S
H51 C50 0.950 . S
C52 C50 1.375 . S
C52 C54 1.382 . S
C52 H56 0.950 . S
H53 C48 0.949 . S
C54 C49 1.399 1_556 S
C54 C52 1.382 . S
C54 H55 0.952 . S
H55 C54 0.952 . S
H56 C52 0.950 . S
H57 C58 0.949 . S
C58 H57 0.949 . S
C58 C59 1.395 . S
C58 C60 1.391 . S
C59 C58 1.395 . S
C59 C62 1.390 . S
C60 C58 1.391 . S
C60 C64 1.387 . S
C60 C65 1.491 . S
H61 C62 0.950 . S
C62 C59 1.390 . S
C62 H61 0.950 . S
C62 C63 1.378 . S
C63 C62 1.378 . S
C63 C64 1.409 . S
C64 C60 1.387 . S
C64 C63 1.409 . S
C64 H66 0.951 . S
C65 C60 1.491 . S
C65 C67 1.382 . S
C65 C69 1.404 . S
H66 C64 0.951 . S
C67 C65 1.382 . S
C67 C68 1.390 . S
C67 H72 0.949 . S
C68 C67 1.390 . S
C68 C73 1.399 . S
C69 C65 1.404 . S
C69 H70 0.950 . S
C69 C71 1.375 . S
H70 C69 0.950 . S
C71 C69 1.375 . S
C71 C73 1.382 . S
C71 H75 0.950 . S
H72 C67 0.949 . S
C73 C68 1.399 . S
C73 C71 1.382 . S
C73 H74 0.952 . S
H74 C73 0.952 . S
H75 C71 0.950 . S
Eu76 N105 2.600 . S
Eu76 N111 2.562 . S
Eu76 O120 2.462 . S
Eu76 O121 2.373 . S
Eu76 O123 2.432 . S
Eu76 O124 2.291 1_565 S
Eu76 O128 2.335 1_565 S
Eu76 O131 2.372 1_455 S
Eu76 C140 2.787 . S
C77 N78 1.365 . S
C77 C80 1.405 . S
C77 C84 1.448 . S
N78 C77 1.365 . S
N78 C81 1.319 1_655 S
N78 Eu87 2.600 . S
C79 C81 1.397 . S
C79 C82 1.367 1_455 S
C79 H99 0.931 . S
C80 C77 1.405 . S
C80 C82 1.403 . S
C80 C86 1.439 . S
C81 N78 1.319 1_455 S
C81 C79 1.397 . S
C81 H92 0.930 . S
C82 C79 1.367 1_655 S
C82 C80 1.403 . S
C82 H103 0.929 . S
C83 C84 1.430 . S
C83 C85 1.387 . S
C83 C89 1.404 . S
C84 C77 1.448 . S
C84 C83 1.430 . S
C84 N88 1.351 . S
C85 C83 1.387 . S
C85 C86 1.374 . S
C85 H100 0.931 . S
C86 C80 1.439 . S
C86 C85 1.374 . S
C86 H101 0.931 . S
Eu87 N78 2.600 . S
Eu87 N88 2.562 . S
Eu87 O122 2.335 1_655 S
Eu87 O125 2.372 1_655 S
Eu87 O126 2.462 . S
Eu87 O127 2.373 . S
Eu87 O129 2.432 1_655 S
Eu87 O130 2.291 1_545 S
Eu87 C151 2.787 . S
N88 C84 1.351 . S
N88 Eu87 2.562 . S
N88 C90 1.325 . S
C89 C83 1.404 . S
C89 C91 1.366 . S
C89 H97 0.930 . S
C90 N88 1.325 . S
C90 C91 1.416 . S
C90 H96 0.929 . S
C91 C89 1.366 . S
C91 C90 1.416 . S
C91 H93 0.930 . S
H92 C81 0.930 . S
H93 C91 0.930 . S
H94 C109 0.930 1_655 S
H95 C116 0.930 . S
H96 C90 0.929 . S
H97 C89 0.930 . S
H98 C112 0.929 . S
H99 C79 0.931 . S
H100 C85 0.931 . S
H101 C86 0.931 . S
H102 C107 0.931 1_655 S
H103 C82 0.929 . S
H104 C115 0.930 . S
N105 Eu76 2.600 . S
N105 C106 1.365 . S
N105 C109 1.319 . S
C106 N105 1.365 . S
C106 C108 1.405 . S
C106 C114 1.448 . S
C107 H102 0.931 1_455 S
C107 C109 1.397 . S
C107 C110 1.367 . S
C108 C106 1.405 . S
C108 C110 1.403 . S
C108 C141 1.439 . S
C109 H94 0.930 1_455 S
C109 N105 1.319 . S
C109 C107 1.397 . S
C110 C107 1.367 . S
C110 C108 1.403 . S
C110 H117 0.929 . S
N111 Eu76 2.562 . S
N111 C112 1.325 . S
N111 C114 1.351 . S
C112 H98 0.929 . S
C112 N111 1.325 . S
C112 C116 1.416 . S
C113 C114 1.430 . S
C113 C115 1.404 . S
C113 C142 1.387 . S
C114 C106 1.448 . S
C114 N111 1.351 . S
C114 C113 1.430 . S
C115 H104 0.930 . S
C115 C113 1.404 . S
C115 C116 1.366 . S
C116 H95 0.930 . S
C116 C112 1.416 . S
C116 C115 1.366 . S
H117 C110 0.929 . S
H118 C141 0.931 . S
H119 C142 0.931 . S
O120 Eu76 2.462 . S
O120 C140 1.252 . S
O121 Eu76 2.373 . S
O121 C132 1.249 . S
O122 Eu87 2.335 1_455 S
O122 C132 1.264 1_545 S
O123 Eu76 2.432 . S
O123 C140 1.268 . S
O124 Eu76 2.291 1_545 S
O124 C139 1.255 . S
O125 Eu87 2.372 1_455 S
O125 C139 1.257 . S
O126 Eu87 2.462 . S
O126 C151 1.252 . S
O127 Eu87 2.373 . S
O127 C143 1.249 . S
O128 Eu76 2.335 1_545 S
O128 C143 1.264 1_455 S
O129 Eu87 2.432 1_455 S
O129 C151 1.268 1_455 S
O130 Eu87 2.291 1_565 S
O130 C150 1.255 . S
O131 Eu76 2.372 1_655 S
O131 C150 1.257 . S
C132 O121 1.249 . S
C132 O122 1.264 1_565 S
C133 C136 1.382 . S
C133 C138 1.390 . S
C133 C140 1.506 . S
C134 C135 1.398 . S
C134 C138 1.392 . S
C135 C134 1.398 . S
C135 C137 1.372 . S
C135 H152 0.931 . S
C136 C133 1.382 . S
C136 C137 1.390 . S
C136 H153 0.931 . S
C137 C135 1.372 . S
C137 C136 1.390 . S
C137 H154 0.929 . S
C138 C133 1.390 . S
C138 C134 1.392 . S
C138 H155 0.930 . S
C139 O124 1.255 . S
C139 O125 1.257 . S
C140 Eu76 2.787 . S
C140 O120 1.252 . S
C140 O123 1.268 . S
C140 C133 1.506 . S
C141 C108 1.439 . S
C141 H118 0.931 . S
C141 C142 1.374 . S
C142 C113 1.387 . S
C142 H119 0.931 . S
C142 C141 1.374 . S
C143 O127 1.249 . S
C143 O128 1.264 1_655 S
C144 C147 1.382 . S
C144 C148 1.390 . S
C144 C151 1.506 . S
C145 C146 1.398 . S
C145 C148 1.392 . S
C146 C145 1.398 . S
C146 C149 1.372 . S
C146 H156 0.931 . S
C147 C144 1.382 . S
C147 C149 1.390 . S
C147 H157 0.931 1_655 S
C148 C144 1.390 . S
C148 C145 1.392 . S
C148 H158 0.930 . S
C149 C146 1.372 . S
C149 C147 1.390 . S
C149 H159 0.929 . S
C150 O130 1.255 . S
C150 O131 1.257 . S
C151 Eu87 2.787 . S
C151 O126 1.252 . S
C151 O129 1.268 1_655 S
C151 C144 1.506 . S
H152 C135 0.931 . S
H153 C136 0.931 . S
H154 C137 0.929 . S
H155 C138 0.930 . S
H156 C146 0.931 . S
H157 C147 0.931 1_455 S
H158 C148 0.930 . S
H159 C149 0.929 . S
Eu160 N189 2.600 . S
Eu160 N195 2.562 1_556 S
Eu160 O204 2.462 . S
Eu160 O205 2.373 1_556 S
Eu160 O207 2.432 . S
Eu160 O208 2.291 1_556 S
Eu160 O212 2.335 . S
Eu160 O215 2.372 1_556 S
Eu160 C224 2.787 . S
C161 N162 1.365 . S
C161 C164 1.405 . S
C161 C168 1.448 . S
N162 C161 1.365 . S
N162 C165 1.319 . S
N162 Eu171 2.600 . S
C163 C165 1.397 . S
C163 C166 1.367 . S
C163 H183 0.931 . S
C164 C161 1.405 . S
C164 C166 1.403 . S
C164 C170 1.439 . S
C165 N162 1.319 . S
C165 C163 1.397 . S
C165 H176 0.930 . S
C166 C163 1.367 . S
C166 C164 1.403 . S
C166 H187 0.929 . S
C167 C168 1.430 . S
C167 C169 1.387 . S
C167 C173 1.404 . S
C168 C161 1.448 . S
C168 C167 1.430 . S
C168 N172 1.351 . S
C169 C167 1.387 . S
C169 C170 1.374 . S
C169 H184 0.931 . S
C170 C164 1.439 . S
C170 C169 1.374 . S
C170 H185 0.931 . S
Eu171 N162 2.600 . S
Eu171 N172 2.562 . S
Eu171 O206 2.335 . S
Eu171 O209 2.372 . S
Eu171 O210 2.462 . S
Eu171 O211 2.373 . S
Eu171 O213 2.432 . S
Eu171 O214 2.291 . S
Eu171 C235 2.787 . S
N172 C168 1.351 . S
N172 Eu171 2.562 . S
N172 C174 1.325 . S
C173 C167 1.404 . S
C173 C175 1.366 . S
C173 H181 0.930 . S
C174 N172 1.325 . S
C174 C175 1.416 . S
C174 H180 0.929 . S
C175 C173 1.366 . S
C175 C174 1.416 . S
C175 H177 0.930 . S
H176 C165 0.930 . S
H177 C175 0.930 . S
H178 C193 0.930 . S
H179 C200 0.930 . S
H180 C174 0.929 . S
H181 C173 0.930 . S
H182 C196 0.929 . S
H183 C163 0.931 . S
H184 C169 0.931 . S
H185 C170 0.931 . S
H186 C191 0.931 . S
H187 C166 0.929 . S
H188 C199 0.930 . S
N189 Eu160 2.600 . S
N189 C190 1.365 1_556 S
N189 C193 1.319 . S
C190 N189 1.365 1_554 S
C190 C192 1.405 . S
C190 C198 1.448 . S
C191 H186 0.931 . S
C191 C193 1.397 . S
C191 C194 1.367 1_556 S
C192 C190 1.405 . S
C192 C194 1.403 . S
C192 C225 1.439 . S
C193 H178 0.930 . S
C193 N189 1.319 . S
C193 C191 1.397 . S
C194 C191 1.367 1_554 S
C194 C192 1.403 . S
C194 H201 0.929 . S
N195 Eu160 2.562 1_554 S
N195 C196 1.325 . S
N195 C198 1.351 . S
C196 H182 0.929 . S
C196 N195 1.325 . S
C196 C200 1.416 . S
C197 C198 1.430 . S
C197 C199 1.404 . S
C197 C226 1.387 . S
C198 C190 1.448 . S
C198 N195 1.351 . S
C198 C197 1.430 . S
C199 H188 0.930 . S
C199 C197 1.404 . S
C199 C200 1.366 . S
C200 H179 0.930 . S
C200 C196 1.416 . S
C200 C199 1.366 . S
H201 C194 0.929 . S
H202 C225 0.931 . S
H203 C226 0.931 . S
O204 Eu160 2.462 . S
O204 C224 1.252 . S
O205 Eu160 2.373 1_554 S
O205 C216 1.249 . S
O206 Eu171 2.335 . S
O206 C216 1.264 . S
O207 Eu160 2.432 . S
O207 C224 1.268 . S
O208 Eu160 2.291 1_554 S
O208 C223 1.255 . S
O209 Eu171 2.372 . S
O209 C223 1.257 . S
O210 Eu171 2.462 . S
O210 C235 1.252 . S
O211 Eu171 2.373 . S
O211 C227 1.249 1_554 S
O212 Eu160 2.335 . S
O212 C227 1.264 . S
O213 Eu171 2.432 . S
O213 C235 1.268 . S
O214 Eu171 2.291 . S
O214 C234 1.255 . S
O215 Eu160 2.372 1_554 S
O215 C234 1.257 . S
C216 O205 1.249 . S
C216 O206 1.264 . S
C217 C220 1.382 . S
C217 C222 1.390 . S
C217 C224 1.506 . S
C218 C219 1.398 . S
C218 C222 1.392 . S
C219 C218 1.398 . S
C219 C221 1.372 . S
C219 H236 0.931 . S
C220 C217 1.382 . S
C220 C221 1.390 . S
C220 H237 0.931 . S
C221 C219 1.372 . S
C221 C220 1.390 . S
C221 H238 0.929 . S
C222 C217 1.390 . S
C222 C218 1.392 . S
C222 H239 0.930 . S
C223 O208 1.255 . S
C223 O209 1.257 . S
C224 Eu160 2.787 . S
C224 O204 1.252 . S
C224 O207 1.268 . S
C224 C217 1.506 . S
C225 C192 1.439 . S
C225 H202 0.931 . S
C225 C226 1.374 . S
C226 C197 1.387 . S
C226 H203 0.931 . S
C226 C225 1.374 . S
C227 O211 1.249 1_556 S
C227 O212 1.264 . S
C228 C231 1.382 . S
C228 C232 1.390 . S
C228 C235 1.506 . S
C229 C230 1.398 . S
C229 C232 1.392 . S
C230 C229 1.398 . S
C230 C233 1.372 . S
C230 H240 0.931 . S
C231 C228 1.382 . S
C231 C233 1.390 . S
C231 H241 0.931 . S
C232 C228 1.390 . S
C232 C229 1.392 . S
C232 H242 0.930 . S
C233 C230 1.372 . S
C233 C231 1.390 . S
C233 H243 0.929 . S
C234 O214 1.255 . S
C234 O215 1.257 . S
C235 Eu171 2.787 . S
C235 O210 1.252 . S
C235 O213 1.268 . S
C235 C228 1.506 . S
H236 C219 0.931 . S
H237 C220 0.931 . S
H238 C221 0.929 . S
H239 C222 0.930 . S
H240 C230 0.931 . S
H241 C231 0.931 . S
H242 C232 0.930 . S
H243 C233 0.929 . S
H244 C252 0.929 . S
H245 C254 0.930 . S
H246 C256 0.930 . S
H247 C259 0.929 . S
H248 C262 0.930 . S
H249 C264 0.960 . S
H250 C264 0.960 . S
H251 C264 0.960 . S
C252 H244 0.929 . S
C252 C253 1.377 . S
C252 C254 1.384 . S
C253 C252 1.377 . S
C253 C259 1.390 . S
C254 H245 0.930 . S
C254 C252 1.384 . S
C254 C255 1.372 . S
C255 C254 1.372 . S
C255 C256 1.400 . S
C255 C260 1.490 . S
C256 H246 0.930 . S
C256 C255 1.400 . S
C256 C259 1.386 . S
H257 C273 0.930 . S
H258 C274 0.931 . S
C259 H247 0.929 . S
C259 C253 1.390 . S
C259 C256 1.386 . S
C260 C255 1.490 . S
C260 C262 1.395 . S
C260 C263 1.403 . S
H261 C267 0.930 . S
C262 H248 0.930 . S
C262 C260 1.395 . S
C262 C265 1.403 . S
C263 C260 1.403 . S
C263 C264 1.524 . S
C263 C267 1.400 . S
C264 H249 0.960 . S
C264 H250 0.960 . S
C264 H251 0.960 . S
C264 C263 1.524 . S
C265 C262 1.403 . S
C265 C266 1.392 . S
C265 C269 1.495 . S
C266 C265 1.392 . S
C266 C267 1.385 . S
C266 C268 1.478 . S
C267 H261 0.930 . S
C267 C263 1.400 . S
C267 C266 1.385 . S
C268 C266 1.478 . S
C268 C270 1.381 . S
C268 C274 1.383 . S
C269 C265 1.495 . S
C269 H275 0.959 . S
C269 H276 0.961 . S
C269 H277 0.960 . S
C270 C268 1.381 . S
C270 C271 1.394 . S
C270 H278 0.930 . S
C271 C270 1.394 . S
C271 C272 1.383 . S
C271 H279 0.929 . S
C272 C271 1.383 . S
C272 C273 1.377 . S
C273 H257 0.930 . S
C273 C272 1.377 . S
C273 C274 1.379 . S
C274 H258 0.931 . S
C274 C268 1.383 . S
C274 C273 1.379 . S
H275 C269 0.959 . S
H276 C269 0.961 . S
H277 C269 0.960 . S
H278 C270 0.930 . S
H279 C271 0.929 . S
H280 C288 0.929 1_556 S
H281 C290 0.930 1_556 S
H282 C292 0.930 . S
H283 C295 0.929 . S
H284 C298 0.930 . S
H285 C300 0.960 . S
H286 C300 0.960 . S
H287 C300 0.960 . S
C288 H280 0.929 1_554 S
C288 C289 1.377 . S
C288 C290 1.384 . S
C289 C288 1.377 . S
C289 C295 1.390 . S
C290 H281 0.930 1_554 S
C290 C288 1.384 . S
C290 C291 1.372 . S
C291 C290 1.372 . S
C291 C292 1.400 . S
C291 C296 1.490 . S
C292 H282 0.930 . S
C292 C291 1.400 . S
C292 C295 1.386 . S
H293 C309 0.930 . S
H294 C310 0.931 . S
C295 H283 0.929 . S
C295 C289 1.390 . S
C295 C292 1.386 . S
C296 C291 1.490 . S
C296 C298 1.395 . S
C296 C299 1.403 . S
H297 C303 0.930 . S
C298 H284 0.930 . S
C298 C296 1.395 . S
C298 C301 1.403 . S
C299 C296 1.403 . S
C299 C300 1.524 . S
C299 C303 1.400 . S
C300 H285 0.960 . S
C300 H286 0.960 . S
C300 H287 0.960 . S
C300 C299 1.524 . S
C301 C298 1.403 . S
C301 C302 1.392 . S
C301 C305 1.495 . S
C302 C301 1.392 . S
C302 C303 1.385 . S
C302 C304 1.478 . S
C303 H297 0.930 . S
C303 C299 1.400 . S
C303 C302 1.385 . S
C304 C302 1.478 . S
C304 C306 1.381 . S
C304 C310 1.383 . S
C305 C301 1.495 . S
C305 H311 0.959 . S
C305 H312 0.961 . S
C305 H313 0.960 1_554 S
C306 C304 1.381 . S
C306 C307 1.394 . S
C306 H314 0.930 1_554 S
C307 C306 1.394 . S
C307 C308 1.383 . S
C307 H315 0.929 1_554 S
C308 C307 1.383 . S
C308 C309 1.377 . S
C309 H293 0.930 . S
C309 C308 1.377 . S
C309 C310 1.379 . S
C310 H294 0.931 . S
C310 C304 1.383 . S
C310 C309 1.379 . S
H311 C305 0.959 . S
H312 C305 0.961 . S
H313 C305 0.960 1_556 S
H314 C306 0.930 1_556 S
H315 C307 0.929 1_556 S
H316 C324 0.929 . S
H317 C326 0.930 . S
H318 C328 0.930 . S
H319 C331 0.929 . S
H320 C334 0.930 . S
H321 C336 0.960 . S
H322 C336 0.960 . S
H323 C336 0.960 . S
C324 H316 0.929 . S
C324 C325 1.377 . S
C324 C326 1.384 . S
C325 C324 1.377 . S
C325 C331 1.390 . S
C326 H317 0.930 . S
C326 C324 1.384 . S
C326 C327 1.372 . S
C327 C326 1.372 . S
C327 C328 1.400 . S
C327 C332 1.490 . S
C328 H318 0.930 . S
C328 C327 1.400 . S
C328 C331 1.386 . S
H329 C345 0.930 . S
H330 C346 0.931 . S
C331 H319 0.929 . S
C331 C325 1.390 . S
C331 C328 1.386 . S
C332 C327 1.490 . S
C332 C334 1.395 . S
C332 C335 1.403 . S
H333 C339 0.930 . S
C334 H320 0.930 . S
C334 C332 1.395 . S
C334 C337 1.403 . S
C335 C332 1.403 . S
C335 C336 1.524 . S
C335 C339 1.400 . S
C336 H321 0.960 . S
C336 H322 0.960 . S
C336 H323 0.960 . S
C336 C335 1.524 . S
C337 C334 1.403 . S
C337 C338 1.392 . S
C337 C341 1.495 . S
C338 C337 1.392 . S
C338 C339 1.385 . S
C338 C340 1.478 . S
C339 H333 0.930 . S
C339 C335 1.400 . S
C339 C338 1.385 . S
C340 C338 1.478 . S
C340 C342 1.381 . S
C340 C346 1.383 . S
C341 C337 1.495 . S
C341 H347 0.959 . S
C341 H348 0.961 . S
C341 H349 0.960 . S
C342 C340 1.381 . S
C342 C343 1.394 . S
C342 H350 0.930 . S
C343 C342 1.394 . S
C343 C344 1.383 . S
C343 H351 0.929 . S
C344 C343 1.383 . S
C344 C345 1.377 . S
C345 H329 0.930 . S
C345 C344 1.377 . S
C345 C346 1.379 . S
C346 H330 0.931 . S
C346 C340 1.383 . S
C346 C345 1.379 . S
H347 C341 0.959 . S
H348 C341 0.961 . S
H349 C341 0.960 . S
H350 C342 0.930 . S
H351 C343 0.929 . S
H352 C360 0.929 . S
H353 C362 0.930 . S
H354 C364 0.930 . S
H355 C367 0.929 . S
H356 C370 0.930 . S
H357 C372 0.960 . S
H358 C372 0.960 1_556 S
H359 C372 0.960 . S
C360 H352 0.929 . S
C360 C361 1.377 1_556 S
C360 C362 1.384 . S
C361 C360 1.377 1_554 S
C361 C367 1.390 . S
C362 H353 0.930 . S
C362 C360 1.384 . S
C362 C363 1.372 1_556 S
C363 C362 1.372 1_554 S
C363 C364 1.400 . S
C363 C368 1.490 . S
C364 H354 0.930 . S
C364 C363 1.400 . S
C364 C367 1.386 . S
H365 C381 0.930 . S
H366 C382 0.931 . S
C367 H355 0.929 . S
C367 C361 1.390 . S
C367 C364 1.386 . S
C368 C363 1.490 . S
C368 C370 1.395 . S
C368 C371 1.403 . S
H369 C375 0.930 . S
C370 H356 0.930 . S
C370 C368 1.395 . S
C370 C373 1.403 . S
C371 C368 1.403 . S
C371 C372 1.524 . S
C371 C375 1.400 . S
C372 H357 0.960 . S
C372 H358 0.960 1_554 S
C372 H359 0.960 . S
C372 C371 1.524 . S
C373 C370 1.403 . S
C373 C374 1.392 . S
C373 C377 1.495 . S
C374 C373 1.392 . S
C374 C375 1.385 . S
C374 C376 1.478 . S
C375 H369 0.930 . S
C375 C371 1.400 . S
C375 C374 1.385 . S
C376 C374 1.478 . S
C376 C378 1.381 1_554 S
C376 C382 1.383 . S
C377 C373 1.495 . S
C377 H383 0.959 . S
C377 H384 0.961 . S
C377 H385 0.960 . S
C378 C376 1.381 1_556 S
C378 C379 1.394 . S
C378 H386 0.930 . S
C379 C378 1.394 . S
C379 C380 1.383 1_556 S
C379 H387 0.929 . S
C380 C379 1.383 1_554 S
C380 C381 1.377 . S
C381 H365 0.930 . S
C381 C380 1.377 . S
C381 C382 1.379 . S
C382 H366 0.931 . S
C382 C376 1.383 . S
C382 C381 1.379 . S
H383 C377 0.959 . S
H384 C377 0.961 . S
H385 C377 0.960 . S
H386 C378 0.930 . S
H387 C379 0.929 . S
H388 C396 0.929 . S
H389 C398 0.930 . S
H390 C400 0.930 . S
H391 C403 0.929 . S
H392 C406 0.930 . S
H393 C408 0.960 . S
H394 C408 0.960 . S
H395 C408 0.960 . S
C396 H388 0.929 . S
C396 C397 1.377 . S
C396 C398 1.384 . S
C397 C396 1.377 . S
C397 C403 1.390 . S
C398 H389 0.930 . S
C398 C396 1.384 . S
C398 C399 1.372 . S
C399 C398 1.372 . S
C399 C400 1.400 . S
C399 C404 1.490 . S
C400 H390 0.930 . S
C400 C399 1.400 . S
C400 C403 1.386 . S
H401 C417 0.930 . S
H402 C418 0.931 . S
C403 H391 0.929 . S
C403 C397 1.390 . S
C403 C400 1.386 . S
C404 C399 1.490 . S
C404 C406 1.395 . S
C404 C407 1.403 . S
H405 C411 0.930 . S
C406 H392 0.930 . S
C406 C404 1.395 . S
C406 C409 1.403 . S
C407 C404 1.403 . S
C407 C408 1.524 . S
C407 C411 1.400 . S
C408 H393 0.960 . S
C408 H394 0.960 . S
C408 H395 0.960 . S
C408 C407 1.524 . S
C409 C406 1.403 . S
C409 C410 1.392 . S
C409 C413 1.495 . S
C410 C409 1.392 . S
C410 C411 1.385 . S
C410 C412 1.478 . S
C411 H405 0.930 . S
C411 C407 1.400 . S
C411 C410 1.385 . S
C412 C410 1.478 . S
C412 C414 1.381 . S
C412 C418 1.383 . S
C413 C409 1.495 . S
C413 H419 0.959 . S
C413 H420 0.961 . S
C413 H421 0.960 . S
C414 C412 1.381 . S
C414 C415 1.394 . S
C414 H422 0.930 . S
C415 C414 1.394 . S
C415 C416 1.383 . S
C415 H423 0.929 . S
C416 C415 1.383 . S
C416 C417 1.377 . S
C417 H401 0.930 . S
C417 C416 1.377 . S
C417 C418 1.379 . S
C418 H402 0.931 . S
C418 C412 1.383 . S
C418 C417 1.379 . S
H419 C413 0.959 . S
H420 C413 0.961 . S
H421 C413 0.960 . S
H422 C414 0.930 . S
H423 C415 0.929 . S
H424 C432 0.929 . S
H425 C434 0.930 . S
H426 C436 0.930 . S
H427 C439 0.929 . S
H428 C442 0.930 . S
H429 C444 0.960 . S
H430 C444 0.960 . S
H431 C444 0.960 . S
C432 H424 0.929 . S
C432 C433 1.377 . S
C432 C434 1.384 . S
C433 C432 1.377 . S
C433 C439 1.390 . S
C434 H425 0.930 . S
C434 C432 1.384 . S
C434 C435 1.372 . S
C435 C434 1.372 . S
C435 C436 1.400 . S
C435 C440 1.490 . S
C436 H426 0.930 . S
C436 C435 1.400 . S
C436 C439 1.386 . S
H437 C453 0.930 . S
H438 C454 0.931 . S
C439 H427 0.929 . S
C439 C433 1.390 . S
C439 C436 1.386 . S
C440 C435 1.490 . S
C440 C442 1.395 . S
C440 C443 1.403 . S
H441 C447 0.930 . S
C442 H428 0.930 . S
C442 C440 1.395 . S
C442 C445 1.403 . S
C443 C440 1.403 . S
C443 C444 1.524 . S
C443 C447 1.400 . S
C444 H429 0.960 . S
C444 H430 0.960 . S
C444 H431 0.960 . S
C444 C443 1.524 . S
C445 C442 1.403 . S
C445 C446 1.392 . S
C445 C449 1.495 . S
C446 C445 1.392 . S
C446 C447 1.385 . S
C446 C448 1.478 . S
C447 H441 0.930 . S
C447 C443 1.400 . S
C447 C446 1.385 . S
C448 C446 1.478 . S
C448 C450 1.381 . S
C448 C454 1.383 . S
C449 C445 1.495 . S
C449 H455 0.959 . S
C449 H456 0.961 . S
C449 H457 0.960 . S
C450 C448 1.381 . S
C450 C451 1.394 . S
C450 H458 0.930 . S
C451 C450 1.394 . S
C451 C452 1.383 . S
C451 H459 0.929 . S
C452 C451 1.383 . S
C452 C453 1.377 . S
C453 H437 0.930 . S
C453 C452 1.377 . S
C453 C454 1.379 . S
C454 H438 0.931 . S
C454 C448 1.383 . S
C454 C453 1.379 . S
H455 C449 0.959 . S
H456 C449 0.961 . S
H457 C449 0.960 . S
H458 C450 0.930 . S
H459 C451 0.929 . S
H460 C468 0.929 . S
H461 C470 0.930 . S
H462 C472 0.930 . S
H463 C475 0.929 . S
H464 C478 0.930 . S
H465 C480 0.960 . S
H466 C480 0.960 . S
H467 C480 0.960 . S
C468 H460 0.929 . S
C468 C469 1.377 . S
C468 C470 1.384 . S
C469 C468 1.377 . S
C469 C475 1.390 . S
C470 H461 0.930 . S
C470 C468 1.384 . S
C470 C471 1.372 . S
C471 C470 1.372 . S
C471 C472 1.400 . S
C471 C476 1.490 . S
C472 H462 0.930 . S
C472 C471 1.400 . S
C472 C475 1.386 . S
H473 C489 0.930 . S
H474 C490 0.931 . S
C475 H463 0.929 . S
C475 C469 1.390 . S
C475 C472 1.386 . S
C476 C471 1.490 . S
C476 C478 1.395 . S
C476 C479 1.403 . S
H477 C483 0.930 . S
C478 H464 0.930 . S
C478 C476 1.395 . S
C478 C481 1.403 . S
C479 C476 1.403 . S
C479 C480 1.524 . S
C479 C483 1.400 . S
C480 H465 0.960 . S
C480 H466 0.960 . S
C480 H467 0.960 . S
C480 C479 1.524 . S
C481 C478 1.403 . S
C481 C482 1.392 . S
C481 C485 1.495 . S
C482 C481 1.392 . S
C482 C483 1.385 . S
C482 C484 1.478 . S
C483 H477 0.930 . S
C483 C479 1.400 . S
C483 C482 1.385 . S
C484 C482 1.478 . S
C484 C486 1.381 . S
C484 C490 1.383 . S
C485 C481 1.495 . S
C485 H491 0.959 . S
C485 H492 0.961 . S
C485 H493 0.960 . S
C486 C484 1.381 . S
C486 C487 1.394 . S
C486 H494 0.930 . S
C487 C486 1.394 . S
C487 C488 1.383 . S
C487 H495 0.929 . S
C488 C487 1.383 . S
C488 C489 1.377 . S
C489 H473 0.930 . S
C489 C488 1.377 . S
C489 C490 1.379 . S
C490 H474 0.931 . S
C490 C484 1.383 . S
C490 C489 1.379 . S
H491 C485 0.959 . S
H492 C485 0.961 . S
H493 C485 0.960 . S
H494 C486 0.930 . S
H495 C487 0.929 . S
H496 C504 0.929 . S
H497 C506 0.930 . S
H498 C508 0.930 . S
H499 C511 0.929 . S
H500 C514 0.930 . S
H501 C516 0.960 . S
H502 C516 0.960 . S
H503 C516 0.960 . S
C504 H496 0.929 . S
C504 C505 1.377 . S
C504 C506 1.384 . S
C505 C504 1.377 . S
C505 C511 1.390 . S
C506 H497 0.930 . S
C506 C504 1.384 . S
C506 C507 1.372 . S
C507 C506 1.372 . S
C507 C508 1.400 . S
C507 C512 1.490 . S
C508 H498 0.930 . S
C508 C507 1.400 . S
C508 C511 1.386 . S
H509 C525 0.930 . S
H510 C526 0.931 . S
C511 H499 0.929 . S
C511 C505 1.390 . S
C511 C508 1.386 . S
C512 C507 1.490 . S
C512 C514 1.395 . S
C512 C515 1.403 . S
H513 C519 0.930 . S
C514 H500 0.930 . S
C514 C512 1.395 . S
C514 C517 1.403 . S
C515 C512 1.403 . S
C515 C516 1.524 . S
C515 C519 1.400 . S
C516 H501 0.960 . S
C516 H502 0.960 . S
C516 H503 0.960 . S
C516 C515 1.524 . S
C517 C514 1.403 . S
C517 C518 1.392 . S
C517 C521 1.495 . S
C518 C517 1.392 . S
C518 C519 1.385 . S
C518 C520 1.478 . S
C519 H513 0.930 . S
C519 C515 1.400 . S
C519 C518 1.385 . S
C520 C518 1.478 . S
C520 C522 1.381 . S
C520 C526 1.383 . S
C521 C517 1.495 . S
C521 H527 0.959 . S
C521 H528 0.961 . S
C521 H529 0.960 . S
C522 C520 1.381 . S
C522 C523 1.394 . S
C522 H530 0.930 . S
C523 C522 1.394 . S
C523 C524 1.383 . S
C523 H531 0.929 . S
C524 C523 1.383 . S
C524 C525 1.377 . S
C525 H509 0.930 . S
C525 C524 1.377 . S
C525 C526 1.379 . S
C526 H510 0.931 . S
C526 C520 1.383 . S
C526 C525 1.379 . S
H527 C521 0.959 . S
H528 C521 0.961 . S
H529 C521 0.960 . S
H530 C522 0.930 . S
H531 C523 0.929 . S
H532 C540 0.929 . S
H533 C542 0.930 . S
H534 C544 0.930 . S
H535 C547 0.929 . S
H536 C550 0.930 . S
H537 C552 0.960 . S
H538 C552 0.960 . S
H539 C552 0.960 . S
C540 H532 0.929 . S
C540 C541 1.377 . S
C540 C542 1.384 . S
C541 C540 1.377 . S
C541 C547 1.390 . S
C542 H533 0.930 . S
C542 C540 1.384 . S
C542 C543 1.372 . S
C543 C542 1.372 . S
C543 C544 1.400 . S
C543 C548 1.490 . S
C544 H534 0.930 . S
C544 C543 1.400 . S
C544 C547 1.386 . S
H545 C561 0.930 . S
H546 C562 0.931 . S
C547 H535 0.929 . S
C547 C541 1.390 . S
C547 C544 1.386 . S
C548 C543 1.490 . S
C548 C550 1.395 . S
C548 C551 1.403 . S
H549 C555 0.930 . S
C550 H536 0.930 . S
C550 C548 1.395 . S
C550 C553 1.403 . S
C551 C548 1.403 . S
C551 C552 1.524 . S
C551 C555 1.400 . S
C552 H537 0.960 . S
C552 H538 0.960 . S
C552 H539 0.960 . S
C552 C551 1.524 . S
C553 C550 1.403 . S
C553 C554 1.392 . S
C553 C557 1.495 . S
C554 C553 1.392 . S
C554 C555 1.385 . S
C554 C556 1.478 . S
C555 H549 0.930 . S
C555 C551 1.400 . S
C555 C554 1.385 . S
C556 C554 1.478 . S
C556 C558 1.381 . S
C556 C562 1.383 . S
C557 C553 1.495 . S
C557 H563 0.959 . S
C557 H564 0.961 . S
C557 H565 0.960 . S
C558 C556 1.381 . S
C558 C559 1.394 . S
C558 H566 0.930 . S
C559 C558 1.394 . S
C559 C560 1.383 . S
C559 H567 0.929 . S
C560 C559 1.383 . S
C560 C561 1.377 . S
C561 H545 0.930 . S
C561 C560 1.377 . S
C561 C562 1.379 . S
C562 H546 0.931 . S
C562 C556 1.383 . S
C562 C561 1.379 . S
H563 C557 0.959 . S
H564 C557 0.961 . S
H565 C557 0.960 . S
H566 C558 0.930 . S
H567 C559 0.929 . S
H568 C576 0.929 . S
H569 C578 0.930 . S
H570 C580 0.930 . S
H571 C583 0.929 . S
H572 C586 0.930 . S
H573 C588 0.960 . S
H574 C588 0.960 . S
H575 C588 0.960 . S
C576 H568 0.929 . S
C576 C577 1.377 . S
C576 C578 1.384 . S
C577 C576 1.377 . S
C577 C583 1.390 . S
C578 H569 0.930 . S
C578 C576 1.384 . S
C578 C579 1.372 . S
C579 C578 1.372 . S
C579 C580 1.400 . S
C579 C584 1.490 . S
C580 H570 0.930 . S
C580 C579 1.400 . S
C580 C583 1.386 . S
H581 C597 0.930 . S
H582 C598 0.931 . S
C583 H571 0.929 . S
C583 C577 1.390 . S
C583 C580 1.386 . S
C584 C579 1.490 . S
C584 C586 1.395 . S
C584 C587 1.403 . S
H585 C591 0.930 . S
C586 H572 0.930 . S
C586 C584 1.395 . S
C586 C589 1.403 . S
C587 C584 1.403 . S
C587 C588 1.524 . S
C587 C591 1.400 . S
C588 H573 0.960 . S
C588 H574 0.960 . S
C588 H575 0.960 . S
C588 C587 1.524 . S
C589 C586 1.403 . S
C589 C590 1.392 . S
C589 C593 1.495 . S
C590 C589 1.392 . S
C590 C591 1.385 . S
C590 C592 1.478 . S
C591 H585 0.930 . S
C591 C587 1.400 . S
C591 C590 1.385 . S
C592 C590 1.478 . S
C592 C594 1.381 . S
C592 C598 1.383 . S
C593 C589 1.495 . S
C593 H599 0.959 . S
C593 H600 0.961 . S
C593 H601 0.960 . S
C594 C592 1.381 . S
C594 C595 1.394 . S
C594 H602 0.930 . S
C595 C594 1.394 . S
C595 C596 1.383 . S
C595 H603 0.929 . S
C596 C595 1.383 . S
C596 C597 1.377 . S
C597 H581 0.930 . S
C597 C596 1.377 . S
C597 C598 1.379 . S
C598 H582 0.931 . S
C598 C592 1.383 . S
C598 C597 1.379 . S
H599 C593 0.959 . S
H600 C593 0.961 . S
H601 C593 0.960 . S
H602 C594 0.930 . S
H603 C595 0.929 . S
H604 C612 0.929 . S
H605 C614 0.930 . S
H606 C616 0.930 . S
H607 C619 0.929 . S
H608 C622 0.930 . S
H609 C624 0.960 . S
H610 C624 0.960 . S
H611 C624 0.960 . S
C612 H604 0.929 . S
C612 C613 1.377 . S
C612 C614 1.384 . S
C613 C612 1.377 . S
C613 C619 1.390 . S
C614 H605 0.930 . S
C614 C612 1.384 . S
C614 C615 1.372 . S
C615 C614 1.372 . S
C615 C616 1.400 . S
C615 C620 1.490 . S
C616 H606 0.930 . S
C616 C615 1.400 . S
C616 C619 1.386 . S
H617 C633 0.930 . S
H618 C634 0.931 . S
C619 H607 0.929 . S
C619 C613 1.390 . S
C619 C616 1.386 . S
C620 C615 1.490 . S
C620 C622 1.395 . S
C620 C623 1.403 . S
H621 C627 0.930 . S
C622 H608 0.930 . S
C622 C620 1.395 . S
C622 C625 1.403 . S
C623 C620 1.403 . S
C623 C624 1.524 . S
C623 C627 1.400 . S
C624 H609 0.960 . S
C624 H610 0.960 . S
C624 H611 0.960 . S
C624 C623 1.524 . S
C625 C622 1.403 . S
C625 C626 1.392 . S
C625 C629 1.495 . S
C626 C625 1.392 . S
C626 C627 1.385 . S
C626 C628 1.478 . S
C627 H621 0.930 . S
C627 C623 1.400 . S
C627 C626 1.385 . S
C628 C626 1.478 . S
C628 C630 1.381 . S
C628 C634 1.383 . S
C629 C625 1.495 . S
C629 H635 0.959 . S
C629 H636 0.961 . S
C629 H637 0.960 . S
C630 C628 1.381 . S
C630 C631 1.394 . S
C630 H638 0.930 . S
C631 C630 1.394 . S
C631 C632 1.383 . S
C631 H639 0.929 . S
C632 C631 1.383 . S
C632 C633 1.377 . S
C633 H617 0.930 . S
C633 C632 1.377 . S
C633 C634 1.379 . S
C634 H618 0.931 . S
C634 C628 1.383 . S
C634 C633 1.379 . S
H635 C629 0.959 . S
H636 C629 0.961 . S
H637 C629 0.960 . S
H638 C630 0.930 . S
H639 C631 0.929 . S
H640 C648 0.929 . S
H641 C650 0.930 . S
H642 C652 0.930 . S
H643 C655 0.929 . S
H644 C658 0.930 . S
H645 C660 0.960 . S
H646 C660 0.960 . S
H647 C660 0.960 . S
C648 H640 0.929 . S
C648 C649 1.377 . S
C648 C650 1.384 . S
C649 C648 1.377 . S
C649 C655 1.390 . S
C650 H641 0.930 . S
C650 C648 1.384 . S
C650 C651 1.372 . S
C651 C650 1.372 . S
C651 C652 1.400 . S
C651 C656 1.490 . S
C652 H642 0.930 . S
C652 C651 1.400 . S
C652 C655 1.386 . S
H653 C669 0.930 . S
H654 C670 0.931 . S
C655 H643 0.929 . S
C655 C649 1.390 . S
C655 C652 1.386 . S
C656 C651 1.490 . S
C656 C658 1.395 . S
C656 C659 1.403 . S
H657 C663 0.930 . S
C658 H644 0.930 . S
C658 C656 1.395 . S
C658 C661 1.403 . S
C659 C656 1.403 . S
C659 C660 1.524 . S
C659 C663 1.400 . S
C660 H645 0.960 . S
C660 H646 0.960 . S
C660 H647 0.960 . S
C660 C659 1.524 . S
C661 C658 1.403 . S
C661 C662 1.392 . S
C661 C665 1.495 . S
C662 C661 1.392 . S
C662 C663 1.385 . S
C662 C664 1.478 . S
C663 H657 0.930 . S
C663 C659 1.400 . S
C663 C662 1.385 . S
C664 C662 1.478 . S
C664 C666 1.381 . S
C664 C670 1.383 . S
C665 C661 1.495 . S
C665 H671 0.959 . S
C665 H672 0.961 . S
C665 H673 0.960 . S
C666 C664 1.381 . S
C666 C667 1.394 . S
C666 H674 0.930 . S
C667 C666 1.394 . S
C667 C668 1.383 . S
C667 H675 0.929 . S
C668 C667 1.383 . S
C668 C669 1.377 . S
C669 H653 0.930 . S
C669 C668 1.377 . S
C669 C670 1.379 . S
C670 H654 0.931 . S
C670 C664 1.383 . S
C670 C669 1.379 . S
H671 C665 0.959 . S
H672 C665 0.961 . S
H673 C665 0.960 . S
H674 C666 0.930 . S
H675 C667 0.929 . S
C272 C139 1.736 . S
C253 C68 1.689 . S
C289 C11 1.609 . S
C308 C234 1.739 . S
C325 C30 1.664 . S
C344 C150 1.763 . S
C361 C49 1.653 . S
C380 C223 1.708 . S
C416 C134 1.559 . S
C397 C2 1.704 . S
C452 C227 1.825 . S
C433 C25 1.822 . S
C469 C40 1.712 . S
C488 C143 1.722 . S
C505 C59 1.692 . S
C524 C218 1.552 . S
C560 C229 1.434 . S
C541 C21 1.614 . S
C596 C145 1.489 . S
C577 C44 1.638 . S
C632 C216 1.694 . S
C613 C63 1.707 . S
C649 C6 1.646 . S
C668 C132 1.639 . S
