# Generated by pormake.
# Topology hwx, (6,3)-cn, num edge types: 1
# Building blocks:
#     Node 0, Type 0, BuildingBlock: IZENUY_clean_sbu_0, # of connection points: 6
#     Node 1, Type 0, BuildingBlock: IZENUY_clean_sbu_0, # of connection points: 6
#     Node 2, Type 0, BuildingBlock: IZENUY_clean_sbu_0, # of connection points: 6
#     Node 3, Type 0, BuildingBlock: IZENUY_clean_sbu_0, # of connection points: 6
#     Node 4, Type 1, BuildingBlock: QEWDON_clean_linker_0, # of connection points: 3
#     Node 5, Type 1, BuildingBlock: QEWDON_clean_linker_0, # of connection points: 3
#     Node 6, Type 1, BuildingBlock: QEWDON_clean_linker_0, # of connection points: 3
#     Node 7, Type 1, BuildingBlock: QEWDON_clean_linker_0, # of connection points: 3
#     Node 8, Type 1, BuildingBlock: QEWDON_clean_linker_0, # of connection points: 3
#     Node 9, Type 1, BuildingBlock: QEWDON_clean_linker_0, # of connection points: 3
#     Node 10, Type 1, BuildingBlock: QEWDON_clean_linker_0, # of connection points: 3
#     Node 11, Type 1, BuildingBlock: QEWDON_clean_linker_0, # of connection points: 3
#     Edge 12, Type (0, 1), BuildingBlock: KIFKEQ_clean_linker_1, # of connection points: 2
#     Edge 13, Type (0, 1), BuildingBlock: KIFKEQ_clean_linker_1, # of connection points: 2
#     Edge 14, Type (0, 1), BuildingBlock: KIFKEQ_clean_linker_1, # of connection points: 2
#     Edge 15, Type (0, 1), BuildingBlock: KIFKEQ_clean_linker_1, # of connection points: 2
#     Edge 16, Type (0, 1), BuildingBlock: KIFKEQ_clean_linker_1, # of connection points: 2
#     Edge 17, Type (0, 1), BuildingBlock: KIFKEQ_clean_linker_1, # of connection points: 2
#     Edge 18, Type (0, 1), BuildingBlock: KIFKEQ_clean_linker_1, # of connection points: 2
#     Edge 19, Type (0, 1), BuildingBlock: KIFKEQ_clean_linker_1, # of connection points: 2
#     Edge 20, Type (0, 1), BuildingBlock: KIFKEQ_clean_linker_1, # of connection points: 2
#     Edge 21, Type (0, 1), BuildingBlock: KIFKEQ_clean_linker_1, # of connection points: 2
#     Edge 22, Type (0, 1), BuildingBlock: KIFKEQ_clean_linker_1, # of connection points: 2
#     Edge 23, Type (0, 1), BuildingBlock: KIFKEQ_clean_linker_1, # of connection points: 2
#     Edge 24, Type (0, 1), BuildingBlock: KIFKEQ_clean_linker_1, # of connection points: 2
#     Edge 25, Type (0, 1), BuildingBlock: KIFKEQ_clean_linker_1, # of connection points: 2
#     Edge 26, Type (0, 1), BuildingBlock: KIFKEQ_clean_linker_1, # of connection points: 2
#     Edge 27, Type (0, 1), BuildingBlock: KIFKEQ_clean_linker_1, # of connection points: 2
#     Edge 28, Type (0, 1), BuildingBlock: KIFKEQ_clean_linker_1, # of connection points: 2
#     Edge 29, Type (0, 1), BuildingBlock: KIFKEQ_clean_linker_1, # of connection points: 2
#     Edge 30, Type (0, 1), BuildingBlock: KIFKEQ_clean_linker_1, # of connection points: 2
#     Edge 31, Type (0, 1), BuildingBlock: KIFKEQ_clean_linker_1, # of connection points: 2
#     Edge 32, Type (0, 1), BuildingBlock: KIFKEQ_clean_linker_1, # of connection points: 2
#     Edge 33, Type (0, 1), BuildingBlock: KIFKEQ_clean_linker_1, # of connection points: 2
#     Edge 34, Type (0, 1), BuildingBlock: KIFKEQ_clean_linker_1, # of connection points: 2
#     Edge 35, Type (0, 1), BuildingBlock: KIFKEQ_clean_linker_1, # of connection points: 2
# Relax obj value: 0.005
# Max RMSD: 0.117
# Mean RMSD: 0.091
data_MOF--net-hwx--node1-IZENUY_clean_sbu_0--node2-QEWDON_clean_linker_0--edge1-KIFKEQ_clean_linker_1
_symmetry_space_group_name_H-M    P1
_symmetry_Int_Tables_number       1
_symmetry_cell_setting            triclinic
loop_
_symmetry_equiv_pos_as_xyz
'x, y, z'
_cell_length_a     54.650917
_cell_length_b     54.645594
_cell_length_c     20.756076
_cell_angle_alpha  92.415604
_cell_angle_beta   92.504956
_cell_angle_gamma 89.941765
loop_
_atom_site_label
_atom_site_type_symbol
_atom_site_fract_x
_atom_site_fract_y
_atom_site_fract_z
_atom_type_partial_charge
Fe0 Fe 0.25156 0.26178 0.07241 0.0
Fe1 Fe 0.24962 0.25855 0.92391 0.0
O2 O 0.2385 0.2494 -0.00181 0.0
Fe3 Fe 0.21436 0.22772 -0.00159 0.0
O4 O 0.19502 0.24931 0.04061 0.0
O5 O 0.22274 0.26103 0.11541 0.0
O6 O 0.24363 0.29278 0.05173 0.0
C7 C 0.24982 0.3029 0.0014 0.0
C8 C 0.24597 0.21387 0.10256 0.0
O9 O 0.25678 0.29019 0.95299 0.0
C10 C 0.24164 0.20739 0.90267 0.0
O11 O 0.28277 0.26487 0.04311 0.0
O12 O 0.28019 0.24784 0.94524 0.0
O13 O 0.22507 0.21393 0.07373 0.0
O14 O 0.2605 0.2316 0.09841 0.0
C15 C 0.20028 0.25721 0.89407 0.0
O16 O 0.24457 0.22859 0.88157 0.0
O17 O 0.23202 0.20459 0.95597 0.0
C18 C 0.29276 0.25445 0.99531 0.0
O19 O 0.2197 0.26975 0.89705 0.0
O20 O 0.1991 0.23742 0.92334 0.0
C21 C 0.20057 0.25969 0.09462 0.0
Fe22 Fe 0.27228 0.76255 0.57971 0.0
Fe23 Fe 0.30732 0.72741 0.51046 0.0
O24 O 0.28439 0.75037 0.5072 0.0
Fe25 Fe 0.27358 0.7611 0.43155 0.0
O26 O 0.26826 0.7928 0.46208 0.0
O27 O 0.28217 0.7932 0.56313 0.0
O28 O 0.30099 0.75958 0.62834 0.0
C29 C 0.32305 0.75734 0.61243 0.0
C30 C 0.23047 0.75852 0.49392 0.0
O31 O 0.32806 0.74727 0.55888 0.0
C32 C 0.27871 0.70977 0.40748 0.0
O33 O 0.26164 0.73264 0.60153 0.0
O34 O 0.29593 0.71323 0.58181 0.0
O35 O 0.24242 0.75191 0.44556 0.0
O36 O 0.24132 0.76777 0.5444 0.0
C37 C 0.32284 0.75756 0.4125 0.0
O38 O 0.28821 0.70594 0.46253 0.0
O39 O 0.27694 0.73136 0.3875 0.0
C40 C 0.27512 0.71397 0.60629 0.0
O41 O 0.32297 0.73728 0.43973 0.0
O42 O 0.30404 0.77099 0.412 0.0
C43 C 0.27659 0.80438 0.51263 0.0
Fe44 Fe 0.77298 0.78748 0.93675 0.0
Fe45 Fe 0.77754 0.78555 0.08471 0.0
O46 O 0.78638 0.79827 0.01208 0.0
Fe47 Fe 0.80885 0.82174 0.0148 0.0
O48 O 0.79582 0.83725 0.94474 0.0
O49 O 0.76141 0.81777 0.91852 0.0
O50 O 0.74282 0.781 0.96853 0.0
C51 C 0.73289 0.78824 0.02006 0.0
C52 C 0.82304 0.794 0.91028 0.0
O53 O 0.74583 0.79431 0.07002 0.0
C54 C 0.82702 0.78987 0.10978 0.0
O55 O 0.78368 0.75642 0.94938 0.0
O56 O 0.77199 0.7546 0.04903 0.0
O57 O 0.82895 0.80313 0.96559 0.0
O58 O 0.80071 0.79202 0.8915 0.0
C59 C 0.78219 0.8364 0.11772 0.0
O60 O 0.8087 0.77577 0.10478 0.0
O61 O 0.82606 0.81073 0.08563 0.0
C62 C 0.77931 0.74413 -0.00224 0.0
O63 O 0.78138 0.81426 0.13355 0.0
O64 O 0.79028 0.84187 0.06422 0.0
C65 C 0.77448 0.83681 0.91856 0.0
Fe66 Fe 0.71448 0.32416 0.50691 0.0
Fe67 Fe 0.74822 0.28997 0.58379 0.0
O68 O 0.73653 0.30031 0.50884 0.0
Fe69 Fe 0.74692 0.28699 0.43564 0.0
O70 O 0.74406 0.3154 0.39087 0.0
O71 O 0.73463 0.34353 0.46441 0.0
O72 O 0.726 0.34005 0.58189 0.0
C73 C 0.74685 0.33945 0.61077 0.0
C74 C 0.698 0.29144 0.40461 0.0
O75 O 0.75967 0.32028 0.60818 0.0
C76 C 0.74369 0.24611 0.51579 0.0
O77 O 0.69296 0.30644 0.5495 0.0
O78 O 0.71938 0.29483 0.62533 0.0
O79 O 0.71612 0.27723 0.41022 0.0
O80 O 0.69868 0.3127 0.43151 0.0
C81 C 0.79022 0.29002 0.50724 0.0
O82 O 0.73779 0.25892 0.56466 0.0
O83 O 0.75168 0.25617 0.4669 0.0
C84 C 0.6975 0.29732 0.60349 0.0
O85 O 0.77904 0.28313 0.55558 0.0
O86 O 0.77847 0.29576 0.45633 0.0
C87 C 0.7433 0.33768 0.41067 0.0
H88 H 0.27001 0.54728 0.08903 0.0
C89 C 0.26596 0.55822 0.0475 0.0
C90 C 0.25602 0.58181 0.05622 0.0
C91 C 0.27232 0.5494 0.98583 0.0
H92 H 0.24401 0.61422 0.00894 0.0
C93 C 0.25162 0.59603 0.00217 0.0
C94 C 0.25888 0.58809 0.94068 0.0
C95 C 0.26897 0.5645 0.93282 0.0
C96 C 0.28617 0.52622 0.97854 0.0
H97 H 0.27541 0.55827 0.8863 0.0
C98 C 0.27568 0.50341 0.991 0.0
C99 C 0.28971 0.48179 0.98563 0.0
C100 C 0.31058 0.52715 0.96026 0.0
H101 H 0.31898 0.5445 0.95066 0.0
C102 C 0.3245 0.50581 0.9554 0.0
H103 H 0.25682 0.50252 0.00484 0.0
C104 C 0.31421 0.48329 0.96822 0.0
H105 H 0.32529 0.46692 0.96352 0.0
H106 H 0.34334 0.50673 0.94163 0.0
H107 H 0.98531 0.74223 0.42384 0.0
C108 C 0.97521 0.74685 0.46648 0.0
C109 C 0.95214 0.75816 0.46009 0.0
C110 C 0.9847 0.74054 0.52778 0.0
H111 H 0.92059 0.77106 0.51025 0.0
C112 C 0.93872 0.76305 0.51519 0.0
C113 C 0.94778 0.75661 0.57623 0.0
C114 C 0.97091 0.74565 0.58256 0.0
C115 C 1.00735 0.72575 0.5341 0.0
H116 H 0.97771 0.74012 0.62961 0.0
C117 C 0.03013 0.73442 0.51502 0.0
C118 C 0.05137 0.71985 0.52211 0.0
C119 C 1.00598 0.70248 0.55991 0.0
H120 H 0.98865 0.69543 0.57465 0.0
C121 C 0.02683 0.68797 0.56639 0.0
H122 H 0.0313 0.75241 0.49528 0.0
C123 C 0.04935 0.69654 0.54776 0.0
H124 H 0.06535 0.68506 0.55472 0.0
H125 H 0.02557 0.67005 0.58634 0.0
H126 H 0.80001 0.4956 0.93498 0.0
C127 C 0.7929 0.48688 0.97625 0.0
C128 C 0.78302 0.46316 0.96878 0.0
C129 C 0.79558 0.49841 0.03812 0.0
H130 H 0.76737 0.43325 0.01675 0.0
C131 C 0.77469 0.45168 0.02282 0.0
C132 C 0.77689 0.46296 0.08472 0.0
C133 C 0.78762 0.48633 0.09211 0.0
C134 C 0.81014 0.52118 0.04803 0.0
H135 H 0.7902 0.495 0.13987 0.0
C136 C 0.80177 0.54372 0.02475 0.0
C137 C 0.81629 0.56504 0.035 0.0
C138 C 0.83299 0.52009 0.08135 0.0
H139 H 0.83973 0.50292 0.09951 0.0
C140 C 0.84745 0.541 0.09099 0.0
H141 H 0.78409 0.54466 -0.00076 0.0
C142 C 0.83922 0.5633 0.06808 0.0
H143 H 0.85062 0.57936 0.07758 0.0
H144 H 0.86506 0.53996 0.11672 0.0
H145 H 0.03797 0.26516 0.57907 0.0
C146 C 0.04744 0.27021 0.53676 0.0
C147 C 0.07153 0.27933 0.54356 0.0
C148 C 0.03621 0.26596 0.47509 0.0
H149 H 0.10307 0.29021 0.49327 0.0
C150 C 0.08405 0.28456 0.48811 0.0
C151 C 0.0733 0.27996 0.42611 0.0
C152 C 0.0492 0.27091 0.42014 0.0
C153 C 1.01297 0.25207 0.46725 0.0
H154 H 0.04081 0.26673 0.37266 0.0
C155 C 0.99035 0.26243 0.48404 0.0
C156 C 0.96863 0.24843 0.47589 0.0
C157 C 1.0137 0.22783 0.44223 0.0
H158 H 0.03092 0.21958 0.42905 0.0
C159 C 0.99234 0.21395 0.43447 0.0
H160 H 0.98969 0.28116 0.5032 0.0
C161 C 0.96998 0.22411 0.45116 0.0
H162 H 0.95359 0.21303 0.44367 0.0
H163 H 0.9931 0.19526 0.41519 0.0
H164 H 0.77678 0.99342 0.43884 0.0
C165 C 0.76976 0.98615 0.48221 0.0
C166 C 0.76127 0.96186 0.48136 0.0
C167 C 0.77138 1.00034 0.5404 0.0
H168 H 0.74725 0.93346 0.53851 0.0
C169 C 0.75338 0.95234 0.53871 0.0
C170 C 0.7557 0.9659 0.59747 0.0
C171 C 0.76458 0.99004 0.59797 0.0
C172 C 0.78501 0.02371 0.5436 0.0
H173 H 0.76746 1.00032 0.64349 0.0
C174 C 0.77297 0.04651 0.54175 0.0
C175 C 0.78665 0.06844 0.54824 0.0
C176 C 0.81063 0.02296 0.55084 0.0
H177 H 0.82013 1.00556 0.55243 0.0
C178 C 0.82418 0.04458 0.55683 0.0
H179 H 0.75316 0.04717 0.53644 0.0
C180 C 0.81232 0.06717 0.55582 0.0
H181 H 0.82326 0.08372 0.56032 0.0
H182 H 0.84394 0.04383 0.56251 0.0
H183 H 0.54288 0.24074 0.07988 0.0
C184 C 0.55047 0.24792 0.03715 0.0
C185 C 0.57339 0.25977 0.04173 0.0
C186 C 0.53856 0.24325 0.97629 0.0
H187 H 0.60123 0.27708 0.98884 0.0
C188 C 0.58346 0.26816 0.98564 0.0
C189 C 0.57195 0.26339 0.92493 0.0
C190 C 0.54958 0.25079 0.92037 0.0
C191 C 0.51709 0.22675 0.96913 0.0
H192 H 0.54113 0.24615 0.8732 0.0
C193 C 0.49359 0.23428 0.98742 0.0
C194 C 0.47323 0.21843 0.97609 0.0
C195 C 0.52024 0.20332 0.94055 0.0
H196 H 0.53815 0.19727 0.92607 0.0
C197 C 0.50036 0.18757 0.92978 0.0
H198 H 0.49121 0.25239 0.0095 0.0
C199 C 0.47706 0.19505 0.94687 0.0
H200 H 0.46193 0.1826 0.93565 0.0
H201 H 0.50295 0.16959 0.90718 0.0
H202 H 0.28883 0.04837 0.58953 0.0
C203 C 0.28421 0.0591 0.54797 0.0
C204 C 0.27239 0.08179 0.55643 0.0
C205 C 0.29124 0.05094 0.48624 0.0
H206 H 0.25879 0.11384 0.51006 0.0
C207 C 0.26751 0.09614 0.503 0.0
C208 C 0.27505 0.08868 0.44151 0.0
C209 C 0.28656 0.06583 0.43329 0.0
C210 C 0.3064 0.0286 0.47799 0.0
H211 H 0.29291 0.06008 0.38626 0.0
C212 C 0.29798 1.00534 0.49425 0.0
C213 C 0.31292 0.98444 0.48555 0.0
C214 C 0.32977 0.03076 0.45324 0.0
H215 H 0.33664 0.04845 0.44068 0.0
C216 C 0.34461 1.01022 0.44507 0.0
H217 H 0.27993 1.00352 0.51318 0.0
C218 C 0.3363 0.98725 0.46102 0.0
H219 H 0.34806 0.97154 0.45302 0.0
H220 H 0.3626 1.0121 0.42598 0.0
H221 H 0.4802 0.7569 0.93244 0.0
C222 C 0.47312 0.76333 0.97811 0.0
C223 C 0.44911 0.7725 0.98025 0.0
C224 C 0.48728 0.76039 0.03554 0.0
H225 H 0.42126 0.78646 0.04228 0.0
C226 C 0.43989 0.7797 0.04023 0.0
C227 C 0.45334 0.77593 0.09796 0.0
C228 C 0.47718 0.76641 0.09534 0.0
C229 C 0.5104 0.74644 0.03395 0.0
H230 H 0.48738 0.76249 0.1397 0.0
C231 C 0.53338 0.7582 0.0368 0.0
C232 C 0.5551 0.7442 0.03849 0.0
C233 C 0.50925 0.72078 0.03178 0.0
H234 H 0.4917 0.71149 0.02969 0.0
C235 C 0.53066 0.70692 0.03308 0.0
H236 H 0.53433 0.77803 0.03876 0.0
C237 C 0.55343 0.7185 0.03667 0.0
H238 H 0.56982 0.70732 0.03729 0.0
H239 H 0.52962 0.68712 0.03151 0.0
H240 H 0.20478 0.27948 0.21822 0.0
H241 H 0.15108 0.25683 0.06846 0.0
H242 H 0.17202 0.28778 0.29211 0.0
H243 H 0.11838 0.26545 0.1422 0.0
H244 H 0.07511 0.24725 0.32297 0.0
H245 H 0.1044 0.24597 0.23809 0.0
H246 H 0.13643 0.31381 0.31546 0.0
H247 H 0.10684 0.31525 0.40047 0.0
C248 C 0.186 0.27658 0.20073 0.0
C249 C 0.18063 0.2672 0.13758 0.0
C250 C 0.16719 0.28149 0.24302 0.0
C251 C 0.14258 0.27713 0.22316 0.0
C252 C 0.13716 0.26867 0.15927 0.0
C253 C 0.15594 0.26382 0.11694 0.0
C254 C 0.08789 0.2623 0.32093 0.0
C255 C 0.08863 0.28133 0.36875 0.0
C256 C 0.10478 0.26152 0.27226 0.0
C257 C 0.1229 0.2797 0.27028 0.0
C258 C 0.12296 0.29932 0.3163 0.0
C259 C 0.10598 0.30016 0.36487 0.0
H260 H 0.29193 0.66701 0.60262 0.0
H261 H 0.24302 0.7157 0.70415 0.0
H262 H 0.2846 0.63523 0.67896 0.0
H263 H 0.23598 0.68392 0.78094 0.0
H264 H 0.26845 0.63734 0.94951 0.0
H265 H 0.26772 0.66622 0.86415 0.0
H266 H 0.24976 0.60791 0.7236 0.0
H267 H 0.24912 0.57868 0.8101 0.0
C268 C 0.27939 0.67082 0.6408 0.0
C269 C 0.26825 0.69395 0.64785 0.0
C270 C 0.27508 0.65256 0.68412 0.0
C271 C 0.25984 0.65719 0.73591 0.0
C272 C 0.24791 0.67996 0.74151 0.0
C273 C 0.2519 0.69809 0.69751 0.0
C274 C 0.26356 0.63057 0.90089 0.0
C275 C 0.25834 0.60559 0.88722 0.0
C276 C 0.2633 0.64722 0.85185 0.0
C277 C 0.25838 0.63936 0.78747 0.0
C278 C 0.25352 0.61442 0.77305 0.0
C279 C 0.25331 0.59771 0.82252 0.0
H280 H 0.86874 0.81683 0.13349 0.0
H281 H 0.83505 0.74845 0.17865 0.0
H282 H 0.90317 0.80846 0.20754 0.0
H283 H 0.86958 0.74024 0.25347 0.0
H284 H 0.94215 0.7255 0.35929 0.0
H285 H 0.91461 0.73188 0.26486 0.0
H286 H 0.9069 0.80795 0.32598 0.0
H287 H 0.93433 0.80149 0.41955 0.0
C288 C 0.86871 0.79991 0.15886 0.0
C289 C 0.84889 0.78347 0.15072 0.0
C290 C 0.88849 0.79515 0.2014 0.0
C291 C 0.88905 0.77379 0.23675 0.0
C292 C 0.8698 0.75678 0.22653 0.0
C293 C 0.84991 0.76158 0.18401 0.0
C294 C 0.93512 0.7437 0.35116 0.0
C295 C 0.94038 0.76305 0.39632 0.0
C296 C 0.91914 0.7473 0.2977 0.0
C297 C 0.90843 0.77037 0.28819 0.0
C298 C 0.91498 0.79001 0.33146 0.0
C299 C 0.93068 0.78635 0.38507 0.0
H300 H 0.7923 0.34744 0.66846 0.0
H301 H 0.72017 0.37947 0.64912 0.0
H302 H 0.805 0.38075 0.74427 0.0
H303 H 0.73258 0.41227 0.72655 0.0
H304 H 0.76288 0.47538 0.85083 0.0
H305 H 0.75721 0.44808 0.75422 0.0
H306 H 0.79663 0.39104 0.85299 0.0
H307 H 0.80282 0.41839 0.94734 0.0
C308 C 0.77915 0.3616 0.68032 0.0
C309 C 0.75511 0.36057 0.65345 0.0
C310 C 0.78642 0.3807 0.72388 0.0
C311 C 0.76976 0.39912 0.74217 0.0
C312 C 0.74601 0.39861 0.71315 0.0
C313 C 0.73881 0.37962 0.66913 0.0
C314 C 0.77082 0.4572 0.8508 0.0
C315 C 0.78304 0.44885 0.90652 0.0
C316 C 0.76738 0.44148 0.79593 0.0
C317 C 0.77625 0.41723 0.79591 0.0
C318 C 0.78975 0.40958 0.85063 0.0
C319 C 0.79314 0.4252 0.90507 0.0
H320 H 0.68977 0.24733 0.33964 0.0
H321 H 0.65839 0.31937 0.36889 0.0
H322 H 0.65688 0.23675 0.26037 0.0
H323 H 0.62583 0.30894 0.2885 0.0
H324 H 0.56175 0.27843 0.16187 0.0
H325 H 0.5896 0.28368 0.25784 0.0
H326 H 0.64754 0.24899 0.15211 0.0
H327 H 0.61982 0.24341 0.05806 0.0
C328 C 0.67583 0.2609 0.3294 0.0
C329 C 0.67697 0.28433 0.36002 0.0
C330 C 0.65697 0.25484 0.28382 0.0
C331 C 0.63882 0.27207 0.26754 0.0
C332 C 0.63936 0.29514 0.30023 0.0
C333 C 0.65819 0.30119 0.34597 0.0
C334 C 0.58033 0.27161 0.15996 0.0
C335 C 0.58875 0.26078 0.10252 0.0
C336 C 0.59632 0.27475 0.21452 0.0
C337 C 0.62085 0.26683 0.21264 0.0
C338 C 0.62876 0.25506 0.15577 0.0
C339 C 0.61293 0.25208 0.10157 0.0
H340 H 0.22101 0.16169 0.90153 0.0
H341 H 0.27542 0.20397 0.81013 0.0
H342 H 0.22898 0.12668 0.82755 0.0
H343 H 0.28368 0.16887 0.73744 0.0
H344 H 0.30633 0.09546 0.65011 0.0
H345 H 0.29997 0.12337 0.74356 0.0
H346 H 0.22205 0.12184 0.69969 0.0
H347 H 0.22854 0.0944 0.60547 0.0
C348 C 0.23488 0.16339 0.86628 0.0
C349 C 0.24748 0.18562 0.86126 0.0
C350 C 0.23939 0.14339 0.82401 0.0
C351 C 0.25702 0.14506 0.77712 0.0
C352 C 0.27018 0.167 0.77363 0.0
C353 C 0.26531 0.18714 0.81484 0.0
C354 C 0.28781 0.10045 0.66193 0.0
C355 C 0.26788 0.0927 0.62122 0.0
C356 C 0.28419 0.11656 0.71486 0.0
C357 C 0.26054 0.12483 0.72851 0.0
C358 C 0.24044 0.1156 0.69051 0.0
C359 C 0.24411 0.09988 0.63684 0.0
H360 H 0.36989 0.74242 0.43238 0.0
H361 H 0.32457 0.78785 0.31079 0.0
H362 H 0.40507 0.7508 0.36885 0.0
H363 H 0.35942 0.79531 0.24492 0.0
H364 H 0.42679 0.81445 0.14632 0.0
H365 H 0.39768 0.81341 0.2322 0.0
H366 H 0.41963 0.739 0.26861 0.0
H367 H 0.44924 0.74063 0.18501 0.0
C368 C 0.36745 0.75418 0.39184 0.0
C369 C 0.34439 0.76425 0.37611 0.0
C370 C 0.38763 0.75892 0.35517 0.0
C371 C 0.38519 0.77352 0.30103 0.0
C372 C 0.36222 0.78426 0.28668 0.0
C373 C 0.34212 0.77984 0.32414 0.0
C374 C 0.42583 0.7982 0.17425 0.0
C375 C 0.4403 0.77765 0.1592 0.0
C376 C 0.40893 0.79744 0.22289 0.0
C377 C 0.40586 0.77597 0.25689 0.0
C378 C 0.42153 0.75599 0.24432 0.0
C379 C 0.43863 0.75689 0.19632 0.0
H380 H 0.78645 0.8845 0.94403 0.0
H381 H 0.74433 0.8372 0.80955 0.0
H382 H 0.7772 0.91932 0.87783 0.0
H383 H 0.73613 0.87168 0.74094 0.0
H384 H 0.71729 0.9379 0.63211 0.0
H385 H 0.71749 0.90915 0.71916 0.0
H386 H 0.79015 0.93396 0.78205 0.0
H387 H 0.78926 0.9632 0.69719 0.0
C388 C 0.77514 0.8816 0.90018 0.0
C389 C 0.76632 0.85811 0.88154 0.0
C390 C 0.76994 0.90154 0.86192 0.0
C391 C 0.75623 0.89842 0.80316 0.0
C392 C 0.7465 0.87501 0.78608 0.0
C393 C 0.7513 0.85513 0.82518 0.0
C394 C 0.73294 0.93762 0.66598 0.0
C395 C 0.75322 0.95282 0.65809 0.0
C396 C 0.73323 0.92094 0.71538 0.0
C397 C 0.75399 0.91881 0.75741 0.0
C398 C 0.77365 0.93515 0.75157 0.0
C399 C 0.77318 0.95203 0.7028 0.0
H400 H 0.81725 0.78401 0.7807 0.0
H401 H 0.87253 0.7895 0.93594 0.0
H402 H 0.84854 0.77403 0.70466 0.0
H403 H 0.904 0.77854 0.85974 0.0
H404 H 0.95537 0.78478 0.68751 0.0
H405 H 0.92591 0.7932 0.7715 0.0
H406 H 0.87498 0.74229 0.67291 0.0
H407 H 0.90396 0.73496 0.58838 0.0
C408 C 0.83609 0.78284 0.79878 0.0
C409 C 0.84234 0.78755 0.86449 0.0
C410 C 0.85409 0.77692 0.75512 0.0
C411 C 0.87887 0.7752 0.77596 0.0
C412 C 0.88517 0.77991 0.84179 0.0
C413 C 0.86711 0.78609 0.88554 0.0
C414 C 0.93794 0.77529 0.68463 0.0
C415 C 0.93173 0.75943 0.63156 0.0
C416 C 0.92108 0.78001 0.73266 0.0
C417 C 0.89784 0.76872 0.72859 0.0
C418 C 0.89235 0.75187 0.67684 0.0
C419 C 0.909 0.74746 0.62868 0.0
H420 H 0.74661 0.33387 0.27975 0.0
H421 H 0.75328 0.38592 0.44221 0.0
H422 H 0.75365 0.36668 0.20655 0.0
H423 H 0.76065 0.41874 0.36849 0.0
H424 H 0.80198 0.45884 0.20154 0.0
H425 H 0.7938 0.42985 0.28496 0.0
H426 H 0.72852 0.4054 0.17676 0.0
H427 H 0.73612 0.43476 0.09467 0.0
C428 C 0.7498 0.35225 0.29992 0.0
C429 C 0.74928 0.35729 0.36678 0.0
C430 C 0.75365 0.37106 0.25795 0.0
C431 C 0.75746 0.39526 0.28192 0.0
C432 C 0.75774 0.40024 0.34885 0.0
C433 C 0.75346 0.38147 0.39088 0.0
C434 C 0.78551 0.4478 0.1965 0.0
C435 C 0.76988 0.44888 0.14098 0.0
C436 C 0.78094 0.43111 0.24404 0.0
C437 C 0.76081 0.41509 0.23651 0.0
C438 C 0.74445 0.41719 0.18302 0.0
C439 C 0.74882 0.43402 0.13612 0.0
H440 H 0.20031 0.28732 0.79165 0.0
H441 H 0.15277 0.24269 0.89901 0.0
H442 H 0.16649 0.29517 0.71489 0.0
H443 H 0.11865 0.25138 0.82422 0.0
H444 H 0.07572 0.24271 0.6282 0.0
H445 H 0.10514 0.23988 0.71888 0.0
H446 H 0.12865 0.31416 0.69186 0.0
H447 H 0.09969 0.31647 0.59929 0.0
C448 C 0.18251 0.27955 0.79949 0.0
C449 C 0.17931 0.26412 0.85087 0.0
C450 C 0.163 0.28419 0.7557 0.0
C451 C 0.13972 0.27378 0.76281 0.0
C452 C 0.13636 0.25926 0.8161 0.0
C453 C 0.15593 0.25435 0.85925 0.0
C454 C 0.08671 0.25865 0.64279 0.0
C455 C 0.08543 0.2798 0.6067 0.0
C456 C 0.10367 0.25706 0.69489 0.0
C457 C 0.1196 0.27671 0.71261 0.0
C458 C 0.11716 0.29845 0.67882 0.0
C459 C 0.10038 0.2999 0.62622 0.0
H460 H 0.28592 0.66095 0.42762 0.0
H461 H 0.25566 0.71039 0.28783 0.0
H462 H 0.27646 0.62624 0.35283 0.0
H463 H 0.24644 0.67573 0.21314 0.0
H464 H 0.21844 0.60979 0.10216 0.0
H465 H 0.22082 0.63873 0.19517 0.0
H466 H 0.29247 0.61091 0.24918 0.0
H467 H 0.29011 0.5821 0.15623 0.0
C468 C 0.27712 0.66444 0.38114 0.0
C469 C 0.27175 0.68853 0.36353 0.0
C470 C 0.27175 0.64452 0.33828 0.0
C471 C 0.26068 0.64819 0.27708 0.0
C472 C 0.25466 0.67221 0.26027 0.0
C473 C 0.26016 0.69213 0.3029 0.0
C474 C 0.23442 0.60945 0.1349 0.0
C475 C 0.2542 0.59384 0.12145 0.0
C476 C 0.23585 0.62613 0.18788 0.0
C477 C 0.25704 0.62747 0.22878 0.0
C478 C 0.27586 0.61032 0.21873 0.0
C479 C 0.27445 0.59368 0.16557 0.0
H480 H 0.37244 0.7489 0.60335 0.0
H481 H 0.31907 0.77941 0.73183 0.0
H482 H 0.40437 0.75435 0.68911 0.0
H483 H 0.35093 0.78509 0.81658 0.0
H484 H 0.40242 0.75542 0.97218 0.0
H485 H 0.3735 0.75459 0.88034 0.0
H486 H 0.4283 0.78498 0.763 0.0
H487 H 0.45763 0.78608 0.85648 0.0
C488 C 0.36756 0.75708 0.64946 0.0
C489 C 0.34308 0.76331 0.66106 0.0
C490 C 0.3859 0.76031 0.69842 0.0
C491 C 0.38007 0.7698 0.75983 0.0
C492 C 0.35588 0.77726 0.77013 0.0
C493 C 0.33763 0.77406 0.72143 0.0
C494 C 0.40831 0.76232 0.9272 0.0
C495 C 0.43218 0.7714 0.9221 0.0
C496 C 0.39169 0.76181 0.87445 0.0
C497 C 0.39845 0.77018 0.81477 0.0
C498 C 0.42257 0.77851 0.80859 0.0
C499 C 0.43932 0.77913 0.86193 0.0
H500 H 0.76239 0.83133 0.23468 0.0
H501 H 0.78864 0.88612 0.11014 0.0
H502 H 0.75592 0.86287 0.31816 0.0
H503 H 0.7825 0.91778 0.19482 0.0
H504 H 0.74829 0.96953 0.35379 0.0
H505 H 0.75151 0.94016 0.26139 0.0
H506 H 0.78423 0.88741 0.38828 0.0
H507 H 0.78105 0.91635 0.47924 0.0
C508 C 0.76674 0.85012 0.22497 0.0
C509 C 0.7764 0.8561 0.16601 0.0
C510 C 0.76309 0.86821 0.27299 0.0
C511 C 0.76907 0.89278 0.26351 0.0
C512 C 0.77768 0.89903 0.20352 0.0
C513 C 0.78131 0.88085 0.15519 0.0
C514 C 0.75621 0.95166 0.36152 0.0
C515 C 0.76387 0.94503 0.42394 0.0
C516 C 0.75808 0.93488 0.3088 0.0
C517 C 0.76767 0.91128 0.31781 0.0
C518 C 0.77606 0.90513 0.37993 0.0
C519 C 0.77423 0.92176 0.43214 0.0
H520 H 0.65172 0.31755 0.60131 0.0
H521 H 0.6969 0.26427 0.69823 0.0
H522 H 0.61832 0.30922 0.67231 0.0
H523 H 0.66324 0.25558 0.76796 0.0
H524 H 0.58782 0.23067 0.83408 0.0
H525 H 0.61681 0.23828 0.75011 0.0
H526 H 0.61596 0.31551 0.80274 0.0
H527 H 0.58749 0.30778 0.88784 0.0
C528 C 0.65442 0.3039 0.63729 0.0
C529 C 0.67695 0.29162 0.64448 0.0
C530 C 0.63534 0.2992 0.67787 0.0
C531 C 0.63824 0.28171 0.7252 0.0
C532 C 0.66052 0.26901 0.73139 0.0
C533 C 0.6798 0.2741 0.69186 0.0
C534 C 0.5934 0.24931 0.82649 0.0
C535 C 0.58538 0.2687 0.86682 0.0
C536 C 0.61008 0.25362 0.77901 0.0
C537 C 0.6186 0.27745 0.77031 0.0
C538 C 0.60953 0.29701 0.80833 0.0
C539 C 0.59327 0.29262 0.85677 0.0
H540 H 0.28727 0.20921 0.18122 0.0
H541 H 0.21878 0.17329 0.12441 0.0
H542 H 0.29616 0.17757 0.25838 0.0
H543 H 0.22751 0.14199 0.20221 0.0
H544 H 0.25935 0.07863 0.31558 0.0
H545 H 0.2544 0.10756 0.22888 0.0
H546 H 0.28012 0.16627 0.36046 0.0
H547 H 0.28569 0.13742 0.4459 0.0
C548 C 0.27414 0.19456 0.18497 0.0
C549 C 0.25219 0.19397 0.14697 0.0
C550 C 0.27919 0.17646 0.22941 0.0
C551 C 0.26247 0.15732 0.23678 0.0
C552 C 0.2409 0.15633 0.19738 0.0
C553 C 0.23581 0.17442 0.15307 0.0
C554 C 0.26416 0.09768 0.32559 0.0
C555 C 0.27263 0.10579 0.38774 0.0
C556 C 0.26117 0.11427 0.27616 0.0
C557 C 0.26682 0.13926 0.28777 0.0
C558 C 0.27583 0.14716 0.34958 0.0
C559 C 0.27871 0.13066 0.39885 0.0
H560 H 0.25065 0.33545 0.10562 0.0
H561 H 0.25316 0.33185 0.89766 0.0
H562 H 0.25667 0.37978 0.10632 0.0
H563 H 0.25891 0.37624 0.89858 0.0
H564 H 0.30634 0.4485 0.07076 0.0
H565 H 0.2932 0.40594 0.07744 0.0
H566 H 0.23712 0.41691 0.92849 0.0
H567 H 0.25014 0.45976 0.92261 0.0
C568 C 0.25219 0.34412 0.05999 0.0
C569 C 0.2516 0.33004 0.00157 0.0
C570 C 0.25571 0.36951 0.06049 0.0
C571 C 0.25827 0.38148 0.00253 0.0
C572 C 0.25678 0.36756 0.94396 0.0
C573 C 0.25366 0.34211 0.94351 0.0
C574 C 0.29087 0.44191 0.04047 0.0
C575 C 0.27918 0.45736 0.99633 0.0
C576 C 0.28333 0.4176 0.04434 0.0
C577 C 0.2642 0.40806 0.00328 0.0
C578 C 0.252 0.42374 0.96045 0.0
C579 C 0.25928 0.44826 0.95745 0.0
H580 H 0.19862 0.77175 0.58763 0.0
H581 H 0.20072 0.73957 0.39415 0.0
H582 H 0.15454 0.76516 0.58615 0.0
H583 H 0.15649 0.73341 0.39233 0.0
H584 H 0.08624 0.69498 0.45563 0.0
H585 H 0.12867 0.70677 0.44353 0.0
H586 H 0.11481 0.77689 0.53898 0.0
H587 H 0.07231 0.7647 0.55265 0.0
C588 C 0.18966 0.76354 0.54442 0.0
C589 C 0.20333 0.75608 0.49115 0.0
C590 C 0.16429 0.75993 0.54341 0.0
C591 C 0.15189 0.74871 0.48916 0.0
C592 C 0.16547 0.74183 0.43522 0.0
C593 C 0.19084 0.74547 0.43619 0.0
C594 C 0.09219 0.71302 0.47351 0.0
C595 C 0.07597 0.72881 0.50567 0.0
C596 C 0.1165 0.71988 0.46609 0.0
C597 C 0.12528 0.74273 0.49071 0.0
C598 C 0.10875 0.75901 0.52024 0.0
C599 C 0.08433 0.75216 0.52743 0.0
H600 H 0.79811 0.7148 0.90095 0.0
H601 H 0.76613 0.71186 0.08725 0.0
H602 H 0.80397 0.67041 0.89919 0.0
H603 H 0.77228 0.66779 0.08576 0.0
H604 H 0.77133 0.58611 0.05151 0.0
H605 H 0.7596 0.62861 0.0336 0.0
H606 H 0.83041 0.64189 0.95716 0.0
H607 H 0.84182 0.59942 0.97368 0.0
C608 C 0.79217 0.70472 0.94129 0.0
C609 C 0.78174 0.71699 0.99435 0.0
C610 C 0.79562 0.67927 0.94039 0.0
C611 C 0.78858 0.66548 0.99232 0.0
C612 C 0.77758 0.67771 0.0445 0.0
C613 C 0.77426 0.7031 0.04557 0.0
C614 C 0.78412 0.59797 0.02941 0.0
C615 C 0.80757 0.58947 0.01454 0.0
C616 C 0.77753 0.62239 0.01978 0.0
C617 C 0.79417 0.63878 0.99463 0.0
C618 C 0.81707 0.62982 0.97629 0.0
C619 C 0.82369 0.60549 0.98623 0.0
H620 H 0.8213 0.27786 0.60775 0.0
H621 H 0.82095 0.29854 0.40902 0.0
H622 H 0.8654 0.27172 0.6073 0.0
H623 H 0.86515 0.29199 0.40842 0.0
H624 H 0.94834 0.29191 0.43908 0.0
H625 H 0.90598 0.30564 0.45167 0.0
H626 H 0.89154 0.24117 0.55745 0.0
H627 H 0.93367 0.22785 0.54578 0.0
C628 C 0.83061 0.28124 0.56398 0.0
C629 C 0.81743 0.28842 0.50815 0.0
C630 C 0.85594 0.27763 0.56371 0.0
C631 C 0.86884 0.28113 0.50767 0.0
C632 C 0.85586 0.28931 0.45261 0.0
C633 C 0.83045 0.29291 0.45283 0.0
C634 C 0.93619 0.28102 0.4662 0.0
C635 C 0.94427 0.25876 0.49122 0.0
C636 C 0.91188 0.28872 0.47282 0.0
C637 C 0.89528 0.27445 0.50525 0.0
C638 C 0.9038 0.25277 0.53271 0.0
C639 C 0.92794 0.24502 0.52568 0.0
H640 H 0.75404 0.21215 0.41972 0.0
H641 H 0.73547 0.21849 0.62002 0.0
H642 H 0.75988 0.16812 0.42899 0.0
H643 H 0.74125 0.17448 0.62897 0.0
H644 H 0.79303 0.10635 0.63631 0.0
H645 H 0.77842 0.14833 0.62812 0.0
H646 H 0.73928 0.12807 0.44854 0.0
H647 H 0.75407 0.08581 0.45698 0.0
C648 C 0.75089 0.20415 0.4655 0.0
C649 C 0.74455 0.21898 0.5193 0.0
C650 C 0.75408 0.17885 0.47066 0.0
C651 C 0.75118 0.16781 0.52984 0.0
C652 C 0.7439 0.18248 0.58291 0.0
C653 C 0.74051 0.20772 0.57765 0.0
C654 C 0.781 0.1108 0.59559 0.0
C655 C 0.77474 0.09287 0.54718 0.0
C656 C 0.77251 0.13481 0.59103 0.0
C657 C 0.75775 0.14159 0.53755 0.0
C658 C 0.75078 0.12345 0.49009 0.0
C659 C 0.75905 0.09925 0.49514 0.0
H660 H 0.31817 0.2202 0.92662 0.0
H661 H 0.32818 0.28026 0.06738 0.0
H662 H 0.36237 0.21318 0.93006 0.0
H663 H 0.37269 0.27352 0.06929 0.0
H664 H 0.45149 0.26377 0.96401 0.0
H665 H 0.40811 0.27403 0.97468 0.0
H666 H 0.39368 0.20044 0.02983 0.0
H667 H 0.43693 0.19039 0.02266 0.0
C668 C 0.32982 0.23202 0.95794 0.0
C669 C 0.31967 0.25076 0.9968 0.0
C670 C 0.35509 0.22793 0.96005 0.0
C671 C 0.37086 0.2428 0.0 0.0
C672 C 0.36088 0.26186 0.03802 0.0
C673 C 0.33546 0.26562 0.03707 0.0
C674 C 0.43925 0.24995 0.98017 0.0
C675 C 0.44776 0.22609 0.9913 0.0
C676 C 0.41439 0.25583 0.98591 0.0
C677 C 0.39758 0.23789 0.00209 0.0
C678 C 0.40624 0.21448 0.01629 0.0
C679 C 0.43102 0.20874 0.01174 0.0
H680 H 0.26486 0.83535 0.41507 0.0
H681 H 0.29381 0.83505 0.61217 0.0
H682 H 0.27097 0.87959 0.41507 0.0
H683 H 0.29953 0.87925 0.61233 0.0
H684 H 0.33793 0.94971 0.55205 0.0
H685 H 0.32691 0.90692 0.56209 0.0
H686 H 0.2576 0.91954 0.46083 0.0
H687 H 0.26898 0.9625 0.44969 0.0
C688 C 0.27229 0.84471 0.45862 0.0
C689 C 0.27896 0.83152 0.51348 0.0
C690 C 0.27563 0.87014 0.45876 0.0
C691 C 0.2858 0.88301 0.51365 0.0
C692 C 0.29194 0.8699 0.56895 0.0
C693 C 0.28855 0.84452 0.5689 0.0
C694 C 0.32023 0.94341 0.53247 0.0
C695 C 0.30439 0.95945 0.49972 0.0
C696 C 0.31382 0.9189 0.5386 0.0
C697 C 0.29141 0.9097 0.51195 0.0
C698 C 0.27513 0.92596 0.48124 0.0
C699 C 0.2815 0.95062 0.47549 0.0
H700 H 0.69869 0.77941 0.92133 0.0
H701 H 0.70571 0.79334 0.12783 0.0
H702 H 0.65474 0.77304 0.92914 0.0
H703 H 0.66174 0.78701 0.13536 0.0
H704 H 0.59316 0.73541 0.12312 0.0
H705 H 0.63527 0.74996 0.12024 0.0
H706 H 0.61501 0.79342 0.95727 0.0
H707 H 0.57265 0.7787 0.96029 0.0
C708 C 0.69085 0.78138 0.96831 0.0
C709 C 0.70584 0.78664 0.02402 0.0
C710 C 0.6656 0.7779 0.97268 0.0
C711 C 0.65476 0.7794 0.03291 0.0
C712 C 0.66959 0.78548 0.08834 0.0
C713 C 0.69479 0.78918 0.08393 0.0
C714 C 0.59765 0.74835 0.08727 0.0
C715 C 0.57969 0.75586 0.04177 0.0
C716 C 0.62173 0.7568 0.08582 0.0
C717 C 0.62852 0.77278 0.03836 0.0
C718 C 0.61036 0.78096 0.9941 0.0
C719 C 0.58611 0.77273 0.99613 0.0
loop_
_geom_bond_atom_site_label_1
_geom_bond_atom_site_label_2
_geom_bond_distance
_geom_bond_site_symmetry_2
_ccdc_geom_bond_type
Fe0 O2 1.918 . S
Fe0 O5 1.997 . S
Fe0 O6 2.002 . S
Fe0 O11 1.976 . S
Fe0 O14 1.996 . S
Fe1 O2 1.918 1_556 S
Fe1 O9 1.997 . S
Fe1 O12 1.996 . S
Fe1 O16 1.976 . S
Fe1 O19 2.002 . S
O2 Fe0 1.918 . S
O2 Fe1 1.918 1_554 S
O2 Fe3 1.919 1_554 S
Fe3 O2 1.919 1_556 S
Fe3 O4 1.992 1_556 S
Fe3 O13 1.965 1_556 S
Fe3 O17 2.007 . S
Fe3 O20 2.008 . S
O4 Fe3 1.992 1_554 S
O4 C21 1.295 . S
O5 Fe0 1.997 . S
O5 C21 1.235 . S
O6 Fe0 2.002 . S
O6 C7 1.295 . S
C7 O6 1.295 . S
C7 O9 1.235 1_554 S
C8 O13 1.287 . S
C8 O14 1.255 . S
O9 Fe1 1.997 . S
O9 C7 1.235 1_556 S
C10 O16 1.287 . S
C10 O17 1.255 . S
O11 Fe0 1.976 . S
O11 C18 1.287 . S
O12 Fe1 1.996 . S
O12 C18 1.255 1_556 S
O13 Fe3 1.965 1_554 S
O13 C8 1.287 . S
O14 Fe0 1.996 . S
O14 C8 1.255 . S
C15 O19 1.295 . S
C15 O20 1.235 . S
O16 Fe1 1.976 . S
O16 C10 1.287 . S
O17 Fe3 2.007 . S
O17 C10 1.255 . S
C18 O11 1.287 . S
C18 O12 1.255 1_554 S
O19 Fe1 2.002 . S
O19 C15 1.295 . S
O20 Fe3 2.008 . S
O20 C15 1.235 . S
C21 O4 1.295 . S
C21 O5 1.235 . S
Fe22 O24 1.918 . S
Fe22 O27 1.997 . S
Fe22 O28 2.002 . S
Fe22 O33 1.976 . S
Fe22 O36 1.996 . S
Fe23 O24 1.918 . S
Fe23 O31 1.997 . S
Fe23 O34 1.996 . S
Fe23 O38 1.976 . S
Fe23 O41 2.002 . S
O24 Fe22 1.918 . S
O24 Fe23 1.918 . S
O24 Fe25 1.918 . S
Fe25 O24 1.918 . S
Fe25 O26 2.002 . S
Fe25 O35 1.976 . S
Fe25 O39 1.996 . S
Fe25 O42 1.997 . S
O26 Fe25 2.002 . S
O26 C43 1.295 . S
O27 Fe22 1.997 . S
O27 C43 1.235 . S
O28 Fe22 2.002 . S
O28 C29 1.295 . S
C29 O28 1.295 . S
C29 O31 1.235 . S
C30 O35 1.287 . S
C30 O36 1.255 . S
O31 Fe23 1.997 . S
O31 C29 1.235 . S
C32 O38 1.287 . S
C32 O39 1.255 . S
O33 Fe22 1.976 . S
O33 C40 1.287 . S
O34 Fe23 1.996 . S
O34 C40 1.255 . S
O35 Fe25 1.976 . S
O35 C30 1.287 . S
O36 Fe22 1.996 . S
O36 C30 1.255 . S
C37 O41 1.295 . S
C37 O42 1.235 . S
O38 Fe23 1.976 . S
O38 C32 1.287 . S
O39 Fe25 1.996 . S
O39 C32 1.255 . S
C40 O33 1.287 . S
C40 O34 1.255 . S
O41 Fe23 2.002 . S
O41 C37 1.295 . S
O42 Fe25 1.997 . S
O42 C37 1.235 . S
C43 O26 1.295 . S
C43 O27 1.235 . S
Fe44 O46 1.918 1_556 S
Fe44 O49 1.997 . S
Fe44 O50 2.002 . S
Fe44 O55 1.976 . S
Fe44 O58 1.996 . S
Fe45 O46 1.918 . S
Fe45 O53 1.997 . S
Fe45 O56 1.996 . S
Fe45 O60 1.976 . S
Fe45 O63 2.002 . S
O46 Fe44 1.918 1_554 S
O46 Fe45 1.918 . S
O46 Fe47 1.918 . S
Fe47 O46 1.918 . S
Fe47 O48 2.002 1_554 S
Fe47 O57 1.976 1_554 S
Fe47 O61 1.996 . S
Fe47 O64 1.997 . S
O48 Fe47 2.002 1_556 S
O48 C65 1.295 . S
O49 Fe44 1.997 . S
O49 C65 1.235 . S
O50 Fe44 2.002 . S
O50 C51 1.295 1_556 S
C51 O50 1.295 1_554 S
C51 O53 1.235 . S
C52 O57 1.287 . S
C52 O58 1.255 . S
O53 Fe45 1.997 . S
O53 C51 1.235 . S
C54 O60 1.287 . S
C54 O61 1.255 . S
O55 Fe44 1.976 . S
O55 C62 1.287 1_556 S
O56 Fe45 1.996 . S
O56 C62 1.255 . S
O57 Fe47 1.976 1_556 S
O57 C52 1.287 . S
O58 Fe44 1.996 . S
O58 C52 1.255 . S
C59 O63 1.295 . S
C59 O64 1.235 . S
O60 Fe45 1.976 . S
O60 C54 1.287 . S
O61 Fe47 1.996 . S
O61 C54 1.255 . S
C62 O55 1.287 1_554 S
C62 O56 1.255 . S
O63 Fe45 2.002 . S
O63 C59 1.295 . S
O64 Fe47 1.997 . S
O64 C59 1.235 . S
C65 O48 1.295 . S
C65 O49 1.235 . S
Fe66 O68 1.918 . S
Fe66 O71 1.997 . S
Fe66 O72 2.002 . S
Fe66 O77 1.976 . S
Fe66 O80 1.996 . S
Fe67 O68 1.918 . S
Fe67 O75 1.997 . S
Fe67 O78 1.996 . S
Fe67 O82 1.976 . S
Fe67 O85 2.002 . S
O68 Fe66 1.918 . S
O68 Fe67 1.918 . S
O68 Fe69 1.918 . S
Fe69 O68 1.918 . S
Fe69 O70 2.002 . S
Fe69 O79 1.976 . S
Fe69 O83 1.996 . S
Fe69 O86 1.997 . S
O70 Fe69 2.002 . S
O70 C87 1.295 . S
O71 Fe66 1.997 . S
O71 C87 1.235 . S
O72 Fe66 2.002 . S
O72 C73 1.295 . S
C73 O72 1.295 . S
C73 O75 1.235 . S
C74 O79 1.287 . S
C74 O80 1.255 . S
O75 Fe67 1.997 . S
O75 C73 1.235 . S
C76 O82 1.287 . S
C76 O83 1.255 . S
O77 Fe66 1.976 . S
O77 C84 1.287 . S
O78 Fe67 1.996 . S
O78 C84 1.255 . S
O79 Fe69 1.976 . S
O79 C74 1.287 . S
O80 Fe66 1.996 . S
O80 C74 1.255 . S
C81 O85 1.295 . S
C81 O86 1.235 . S
O82 Fe67 1.976 . S
O82 C76 1.287 . S
O83 Fe69 1.996 . S
O83 C76 1.255 . S
C84 O77 1.287 . S
C84 O78 1.255 . S
O85 Fe67 2.002 . S
O85 C81 1.295 . S
O86 Fe69 1.997 . S
O86 C81 1.235 . S
C87 O70 1.295 . S
C87 O71 1.235 . S
H88 C89 0.949 . S
C89 H88 0.949 . S
C89 C90 1.395 . S
C89 C91 1.391 1_554 S
C90 C89 1.395 . S
C90 C93 1.390 . S
C91 C89 1.391 1_556 S
C91 C95 1.387 . S
C91 C96 1.491 . S
H92 C93 0.950 . S
C93 C90 1.390 . S
C93 H92 0.950 . S
C93 C94 1.378 1_554 S
C94 C93 1.378 1_556 S
C94 C95 1.409 . S
C95 C91 1.387 . S
C95 C94 1.409 . S
C95 H97 0.951 . S
C96 C91 1.491 . S
C96 C98 1.382 1_556 S
C96 C100 1.404 . S
H97 C95 0.951 . S
C98 C96 1.382 1_554 S
C98 C99 1.390 1_554 S
C98 H103 0.949 . S
C99 C98 1.390 1_556 S
C99 C104 1.399 . S
C100 C96 1.404 . S
C100 H101 0.950 . S
C100 C102 1.375 . S
H101 C100 0.950 . S
C102 C100 1.375 . S
C102 C104 1.382 . S
C102 H106 0.950 . S
H103 C98 0.949 . S
C104 C99 1.399 . S
C104 C102 1.382 . S
C104 H105 0.952 . S
H105 C104 0.952 . S
H106 C102 0.950 . S
H107 C108 0.949 . S
C108 H107 0.949 . S
C108 C109 1.395 . S
C108 C110 1.391 . S
C109 C108 1.395 . S
C109 C112 1.390 . S
C110 C108 1.391 . S
C110 C114 1.387 . S
C110 C115 1.491 1_655 S
H111 C112 0.950 . S
C112 C109 1.390 . S
C112 H111 0.950 . S
C112 C113 1.378 . S
C113 C112 1.378 . S
C113 C114 1.409 . S
C114 C110 1.387 . S
C114 C113 1.409 . S
C114 H116 0.951 . S
C115 C110 1.491 1_455 S
C115 C117 1.382 . S
C115 C119 1.404 . S
H116 C114 0.951 . S
C117 C115 1.382 . S
C117 C118 1.390 . S
C117 H122 0.949 . S
C118 C117 1.390 . S
C118 C123 1.399 . S
C119 C115 1.404 . S
C119 H120 0.950 . S
C119 C121 1.375 . S
H120 C119 0.950 . S
C121 C119 1.375 . S
C121 C123 1.382 . S
C121 H125 0.950 . S
H122 C117 0.949 . S
C123 C118 1.399 . S
C123 C121 1.382 . S
C123 H124 0.952 . S
H124 C123 0.952 . S
H125 C121 0.950 . S
H126 C127 0.949 . S
C127 H126 0.949 . S
C127 C128 1.395 . S
C127 C129 1.391 1_556 S
C128 C127 1.395 . S
C128 C131 1.390 1_556 S
C129 C127 1.391 1_554 S
C129 C133 1.387 . S
C129 C134 1.491 . S
H130 C131 0.950 . S
C131 C128 1.390 1_554 S
C131 H130 0.950 . S
C131 C132 1.378 . S
C132 C131 1.378 . S
C132 C133 1.409 . S
C133 C129 1.387 . S
C133 C132 1.409 . S
C133 H135 0.951 . S
C134 C129 1.491 . S
C134 C136 1.382 . S
C134 C138 1.404 . S
H135 C133 0.951 . S
C136 C134 1.382 . S
C136 C137 1.390 . S
C136 H141 0.949 1_554 S
C137 C136 1.390 . S
C137 C142 1.399 . S
C138 C134 1.404 . S
C138 H139 0.950 . S
C138 C140 1.375 . S
H139 C138 0.950 . S
C140 C138 1.375 . S
C140 C142 1.382 . S
C140 H144 0.950 . S
H141 C136 0.949 1_556 S
C142 C137 1.399 . S
C142 C140 1.382 . S
C142 H143 0.952 . S
H143 C142 0.952 . S
H144 C140 0.950 . S
H145 C146 0.949 . S
C146 H145 0.949 . S
C146 C147 1.395 . S
C146 C148 1.391 . S
C147 C146 1.395 . S
C147 C150 1.390 . S
C148 C146 1.391 . S
C148 C152 1.387 . S
C148 C153 1.491 1_455 S
H149 C150 0.950 . S
C150 C147 1.390 . S
C150 H149 0.950 . S
C150 C151 1.378 . S
C151 C150 1.378 . S
C151 C152 1.409 . S
C152 C148 1.387 . S
C152 C151 1.409 . S
C152 H154 0.951 . S
C153 C148 1.491 1_655 S
C153 C155 1.382 . S
C153 C157 1.404 . S
H154 C152 0.951 . S
C155 C153 1.382 . S
C155 C156 1.390 . S
C155 H160 0.949 . S
C156 C155 1.390 . S
C156 C161 1.399 . S
C157 C153 1.404 . S
C157 H158 0.950 . S
C157 C159 1.375 . S
H158 C157 0.950 . S
C159 C157 1.375 . S
C159 C161 1.382 . S
C159 H163 0.950 . S
H160 C155 0.949 . S
C161 C156 1.399 . S
C161 C159 1.382 . S
C161 H162 0.952 . S
H162 C161 0.952 . S
H163 C159 0.950 . S
H164 C165 0.949 . S
C165 H164 0.949 . S
C165 C166 1.395 . S
C165 C167 1.391 . S
C166 C165 1.395 . S
C166 C169 1.390 . S
C167 C165 1.391 . S
C167 C171 1.387 . S
C167 C172 1.491 1_565 S
H168 C169 0.950 . S
C169 C166 1.390 . S
C169 H168 0.950 . S
C169 C170 1.378 . S
C170 C169 1.378 . S
C170 C171 1.409 . S
C171 C167 1.387 . S
C171 C170 1.409 . S
C171 H173 0.951 . S
C172 C167 1.491 1_545 S
C172 C174 1.382 . S
C172 C176 1.404 . S
H173 C171 0.951 . S
C174 C172 1.382 . S
C174 C175 1.390 . S
C174 H179 0.949 . S
C175 C174 1.390 . S
C175 C180 1.399 . S
C176 C172 1.404 . S
C176 H177 0.950 . S
C176 C178 1.375 . S
H177 C176 0.950 . S
C178 C176 1.375 . S
C178 C180 1.382 . S
C178 H182 0.950 . S
H179 C174 0.949 . S
C180 C175 1.399 . S
C180 C178 1.382 . S
C180 H181 0.952 . S
H181 C180 0.952 . S
H182 C178 0.950 . S
H183 C184 0.949 . S
C184 H183 0.949 . S
C184 C185 1.395 . S
C184 C186 1.391 1_554 S
C185 C184 1.395 . S
C185 C188 1.390 . S
C186 C184 1.391 1_556 S
C186 C190 1.387 . S
C186 C191 1.491 . S
H187 C188 0.950 . S
C188 C185 1.390 . S
C188 H187 0.950 . S
C188 C189 1.378 1_554 S
C189 C188 1.378 1_556 S
C189 C190 1.409 . S
C190 C186 1.387 . S
C190 C189 1.409 . S
C190 H192 0.951 . S
C191 C186 1.491 . S
C191 C193 1.382 1_556 S
C191 C195 1.404 . S
H192 C190 0.951 . S
C193 C191 1.382 1_554 S
C193 C194 1.390 1_554 S
C193 H198 0.949 . S
C194 C193 1.390 1_556 S
C194 C199 1.399 . S
C195 C191 1.404 . S
C195 H196 0.950 . S
C195 C197 1.375 . S
H196 C195 0.950 . S
C197 C195 1.375 . S
C197 C199 1.382 . S
C197 H201 0.950 . S
H198 C193 0.949 . S
C199 C194 1.399 . S
C199 C197 1.382 . S
C199 H200 0.952 . S
H200 C199 0.952 . S
H201 C197 0.950 . S
H202 C203 0.949 . S
C203 H202 0.949 . S
C203 C204 1.395 . S
C203 C205 1.391 . S
C204 C203 1.395 . S
C204 C207 1.390 . S
C205 C203 1.391 . S
C205 C209 1.387 . S
C205 C210 1.491 1_545 S
H206 C207 0.950 . S
C207 C204 1.390 . S
C207 H206 0.950 . S
C207 C208 1.378 . S
C208 C207 1.378 . S
C208 C209 1.409 . S
C209 C205 1.387 . S
C209 C208 1.409 . S
C209 H211 0.951 . S
C210 C205 1.491 1_565 S
C210 C212 1.382 . S
C210 C214 1.404 . S
H211 C209 0.951 . S
C212 C210 1.382 . S
C212 C213 1.390 . S
C212 H217 0.949 . S
C213 C212 1.390 . S
C213 C218 1.399 . S
C214 C210 1.404 . S
C214 H215 0.950 . S
C214 C216 1.375 . S
H215 C214 0.950 . S
C216 C214 1.375 . S
C216 C218 1.382 . S
C216 H220 0.950 . S
H217 C212 0.949 . S
C218 C213 1.399 . S
C218 C216 1.382 . S
C218 H219 0.952 . S
H219 C218 0.952 . S
H220 C216 0.950 . S
H221 C222 0.949 . S
C222 H221 0.949 . S
C222 C223 1.395 . S
C222 C224 1.391 1_556 S
C223 C222 1.395 . S
C223 C226 1.390 1_556 S
C224 C222 1.391 1_554 S
C224 C228 1.387 . S
C224 C229 1.491 . S
H225 C226 0.950 . S
C226 C223 1.390 1_554 S
C226 H225 0.950 . S
C226 C227 1.378 . S
C227 C226 1.378 . S
C227 C228 1.409 . S
C228 C224 1.387 . S
C228 C227 1.409 . S
C228 H230 0.951 . S
C229 C224 1.491 . S
C229 C231 1.382 . S
C229 C233 1.404 . S
H230 C228 0.951 . S
C231 C229 1.382 . S
C231 C232 1.390 . S
C231 H236 0.949 1_554 S
C232 C231 1.390 . S
C232 C237 1.399 . S
C233 C229 1.404 . S
C233 H234 0.950 . S
C233 C235 1.375 . S
H234 C233 0.950 . S
C235 C233 1.375 . S
C235 C237 1.382 . S
C235 H239 0.950 . S
H236 C231 0.949 1_556 S
C237 C232 1.399 . S
C237 C235 1.382 . S
C237 H238 0.952 . S
H238 C237 0.952 . S
H239 C235 0.950 . S
H240 C248 0.950 . S
H241 C253 0.950 . S
H242 C250 0.950 . S
H243 C252 0.950 . S
H244 C254 0.950 . S
H245 C256 0.950 . S
H246 C258 0.950 . S
H247 C259 0.950 . S
C248 H240 0.950 . S
C248 C249 1.386 . S
C248 C250 1.391 . S
C249 C248 1.386 . S
C249 C253 1.393 . S
C250 H242 0.950 . S
C250 C248 1.391 . S
C250 C251 1.400 . S
C251 C250 1.400 . S
C251 C252 1.398 . S
C251 C257 1.491 . S
C252 H243 0.950 . S
C252 C251 1.398 . S
C252 C253 1.391 . S
C253 H241 0.950 . S
C253 C249 1.393 . S
C253 C252 1.391 . S
C254 H244 0.950 . S
C254 C255 1.386 . S
C254 C256 1.391 . S
C255 C254 1.386 . S
C255 C259 1.393 . S
C256 H245 0.950 . S
C256 C254 1.391 . S
C256 C257 1.400 . S
C257 C251 1.491 . S
C257 C256 1.400 . S
C257 C258 1.398 . S
C258 H246 0.950 . S
C258 C257 1.398 . S
C258 C259 1.391 . S
C259 H247 0.950 . S
C259 C255 1.393 . S
C259 C258 1.391 . S
H260 C268 0.950 . S
H261 C273 0.950 . S
H262 C270 0.950 . S
H263 C272 0.950 . S
H264 C274 0.950 . S
H265 C276 0.950 . S
H266 C278 0.950 . S
H267 C279 0.950 . S
C268 H260 0.950 . S
C268 C269 1.386 . S
C268 C270 1.391 . S
C269 C268 1.386 . S
C269 C273 1.393 . S
C270 H262 0.950 . S
C270 C268 1.391 . S
C270 C271 1.400 . S
C271 C270 1.400 . S
C271 C272 1.398 . S
C271 C277 1.491 . S
C272 H263 0.950 . S
C272 C271 1.398 . S
C272 C273 1.391 . S
C273 H261 0.950 . S
C273 C269 1.393 . S
C273 C272 1.391 . S
C274 H264 0.950 . S
C274 C275 1.386 . S
C274 C276 1.391 . S
C275 C274 1.386 . S
C275 C279 1.393 . S
C276 H265 0.950 . S
C276 C274 1.391 . S
C276 C277 1.400 . S
C277 C271 1.491 . S
C277 C276 1.400 . S
C277 C278 1.398 . S
C278 H266 0.950 . S
C278 C277 1.398 . S
C278 C279 1.391 . S
C279 H267 0.950 . S
C279 C275 1.393 . S
C279 C278 1.391 . S
H280 C288 0.950 . S
H281 C293 0.950 . S
H282 C290 0.950 . S
H283 C292 0.950 . S
H284 C294 0.950 . S
H285 C296 0.950 . S
H286 C298 0.950 . S
H287 C299 0.950 . S
C288 H280 0.950 . S
C288 C289 1.386 . S
C288 C290 1.391 . S
C289 C288 1.386 . S
C289 C293 1.393 . S
C290 H282 0.950 . S
C290 C288 1.391 . S
C290 C291 1.400 . S
C291 C290 1.400 . S
C291 C292 1.398 . S
C291 C297 1.491 . S
C292 H283 0.950 . S
C292 C291 1.398 . S
C292 C293 1.391 . S
C293 H281 0.950 . S
C293 C289 1.393 . S
C293 C292 1.391 . S
C294 H284 0.950 . S
C294 C295 1.386 . S
C294 C296 1.391 . S
C295 C294 1.386 . S
C295 C299 1.393 . S
C296 H285 0.950 . S
C296 C294 1.391 . S
C296 C297 1.400 . S
C297 C291 1.491 . S
C297 C296 1.400 . S
C297 C298 1.398 . S
C298 H286 0.950 . S
C298 C297 1.398 . S
C298 C299 1.391 . S
C299 H287 0.950 . S
C299 C295 1.393 . S
C299 C298 1.391 . S
H300 C308 0.950 . S
H301 C313 0.950 . S
H302 C310 0.950 . S
H303 C312 0.950 . S
H304 C314 0.950 . S
H305 C316 0.950 . S
H306 C318 0.950 . S
H307 C319 0.950 . S
C308 H300 0.950 . S
C308 C309 1.386 . S
C308 C310 1.391 . S
C309 C308 1.386 . S
C309 C313 1.393 . S
C310 H302 0.950 . S
C310 C308 1.391 . S
C310 C311 1.400 . S
C311 C310 1.400 . S
C311 C312 1.398 . S
C311 C317 1.491 . S
C312 H303 0.950 . S
C312 C311 1.398 . S
C312 C313 1.391 . S
C313 H301 0.950 . S
C313 C309 1.393 . S
C313 C312 1.391 . S
C314 H304 0.950 . S
C314 C315 1.386 . S
C314 C316 1.391 . S
C315 C314 1.386 . S
C315 C319 1.393 . S
C316 H305 0.950 . S
C316 C314 1.391 . S
C316 C317 1.400 . S
C317 C311 1.491 . S
C317 C316 1.400 . S
C317 C318 1.398 . S
C318 H306 0.950 . S
C318 C317 1.398 . S
C318 C319 1.391 . S
C319 H307 0.950 . S
C319 C315 1.393 . S
C319 C318 1.391 . S
H320 C328 0.950 . S
H321 C333 0.950 . S
H322 C330 0.950 . S
H323 C332 0.950 . S
H324 C334 0.950 . S
H325 C336 0.950 . S
H326 C338 0.950 . S
H327 C339 0.950 . S
C328 H320 0.950 . S
C328 C329 1.386 . S
C328 C330 1.391 . S
C329 C328 1.386 . S
C329 C333 1.393 . S
C330 H322 0.950 . S
C330 C328 1.391 . S
C330 C331 1.400 . S
C331 C330 1.400 . S
C331 C332 1.398 . S
C331 C337 1.491 . S
C332 H323 0.950 . S
C332 C331 1.398 . S
C332 C333 1.391 . S
C333 H321 0.950 . S
C333 C329 1.393 . S
C333 C332 1.391 . S
C334 H324 0.950 . S
C334 C335 1.386 . S
C334 C336 1.391 . S
C335 C334 1.386 . S
C335 C339 1.393 . S
C336 H325 0.950 . S
C336 C334 1.391 . S
C336 C337 1.400 . S
C337 C331 1.491 . S
C337 C336 1.400 . S
C337 C338 1.398 . S
C338 H326 0.950 . S
C338 C337 1.398 . S
C338 C339 1.391 . S
C339 H327 0.950 . S
C339 C335 1.393 . S
C339 C338 1.391 . S
H340 C348 0.950 . S
H341 C353 0.950 . S
H342 C350 0.950 . S
H343 C352 0.950 . S
H344 C354 0.950 . S
H345 C356 0.950 . S
H346 C358 0.950 . S
H347 C359 0.950 . S
C348 H340 0.950 . S
C348 C349 1.386 . S
C348 C350 1.391 . S
C349 C348 1.386 . S
C349 C353 1.393 . S
C350 H342 0.950 . S
C350 C348 1.391 . S
C350 C351 1.400 . S
C351 C350 1.400 . S
C351 C352 1.398 . S
C351 C357 1.491 . S
C352 H343 0.950 . S
C352 C351 1.398 . S
C352 C353 1.391 . S
C353 H341 0.950 . S
C353 C349 1.393 . S
C353 C352 1.391 . S
C354 H344 0.950 . S
C354 C355 1.386 . S
C354 C356 1.391 . S
C355 C354 1.386 . S
C355 C359 1.393 . S
C356 H345 0.950 . S
C356 C354 1.391 . S
C356 C357 1.400 . S
C357 C351 1.491 . S
C357 C356 1.400 . S
C357 C358 1.398 . S
C358 H346 0.950 . S
C358 C357 1.398 . S
C358 C359 1.391 . S
C359 H347 0.950 . S
C359 C355 1.393 . S
C359 C358 1.391 . S
H360 C368 0.950 . S
H361 C373 0.950 . S
H362 C370 0.950 . S
H363 C372 0.950 . S
H364 C374 0.950 . S
H365 C376 0.950 . S
H366 C378 0.950 . S
H367 C379 0.950 . S
C368 H360 0.950 . S
C368 C369 1.386 . S
C368 C370 1.391 . S
C369 C368 1.386 . S
C369 C373 1.393 . S
C370 H362 0.950 . S
C370 C368 1.391 . S
C370 C371 1.400 . S
C371 C370 1.400 . S
C371 C372 1.398 . S
C371 C377 1.491 . S
C372 H363 0.950 . S
C372 C371 1.398 . S
C372 C373 1.391 . S
C373 H361 0.950 . S
C373 C369 1.393 . S
C373 C372 1.391 . S
C374 H364 0.950 . S
C374 C375 1.386 . S
C374 C376 1.391 . S
C375 C374 1.386 . S
C375 C379 1.393 . S
C376 H365 0.950 . S
C376 C374 1.391 . S
C376 C377 1.400 . S
C377 C371 1.491 . S
C377 C376 1.400 . S
C377 C378 1.398 . S
C378 H366 0.950 . S
C378 C377 1.398 . S
C378 C379 1.391 . S
C379 H367 0.950 . S
C379 C375 1.393 . S
C379 C378 1.391 . S
H380 C388 0.950 . S
H381 C393 0.950 . S
H382 C390 0.950 . S
H383 C392 0.950 . S
H384 C394 0.950 . S
H385 C396 0.950 . S
H386 C398 0.950 . S
H387 C399 0.950 . S
C388 H380 0.950 . S
C388 C389 1.386 . S
C388 C390 1.391 . S
C389 C388 1.386 . S
C389 C393 1.393 . S
C390 H382 0.950 . S
C390 C388 1.391 . S
C390 C391 1.400 . S
C391 C390 1.400 . S
C391 C392 1.398 . S
C391 C397 1.491 . S
C392 H383 0.950 . S
C392 C391 1.398 . S
C392 C393 1.391 . S
C393 H381 0.950 . S
C393 C389 1.393 . S
C393 C392 1.391 . S
C394 H384 0.950 . S
C394 C395 1.386 . S
C394 C396 1.391 . S
C395 C394 1.386 . S
C395 C399 1.393 . S
C396 H385 0.950 . S
C396 C394 1.391 . S
C396 C397 1.400 . S
C397 C391 1.491 . S
C397 C396 1.400 . S
C397 C398 1.398 . S
C398 H386 0.950 . S
C398 C397 1.398 . S
C398 C399 1.391 . S
C399 H387 0.950 . S
C399 C395 1.393 . S
C399 C398 1.391 . S
H400 C408 0.950 . S
H401 C413 0.950 . S
H402 C410 0.950 . S
H403 C412 0.950 . S
H404 C414 0.950 . S
H405 C416 0.950 . S
H406 C418 0.950 . S
H407 C419 0.950 . S
C408 H400 0.950 . S
C408 C409 1.386 . S
C408 C410 1.391 . S
C409 C408 1.386 . S
C409 C413 1.393 . S
C410 H402 0.950 . S
C410 C408 1.391 . S
C410 C411 1.400 . S
C411 C410 1.400 . S
C411 C412 1.398 . S
C411 C417 1.491 . S
C412 H403 0.950 . S
C412 C411 1.398 . S
C412 C413 1.391 . S
C413 H401 0.950 . S
C413 C409 1.393 . S
C413 C412 1.391 . S
C414 H404 0.950 . S
C414 C415 1.386 . S
C414 C416 1.391 . S
C415 C414 1.386 . S
C415 C419 1.393 . S
C416 H405 0.950 . S
C416 C414 1.391 . S
C416 C417 1.400 . S
C417 C411 1.491 . S
C417 C416 1.400 . S
C417 C418 1.398 . S
C418 H406 0.950 . S
C418 C417 1.398 . S
C418 C419 1.391 . S
C419 H407 0.950 . S
C419 C415 1.393 . S
C419 C418 1.391 . S
H420 C428 0.950 . S
H421 C433 0.950 . S
H422 C430 0.950 . S
H423 C432 0.950 . S
H424 C434 0.950 . S
H425 C436 0.950 . S
H426 C438 0.950 . S
H427 C439 0.950 . S
C428 H420 0.950 . S
C428 C429 1.386 . S
C428 C430 1.391 . S
C429 C428 1.386 . S
C429 C433 1.393 . S
C430 H422 0.950 . S
C430 C428 1.391 . S
C430 C431 1.400 . S
C431 C430 1.400 . S
C431 C432 1.398 . S
C431 C437 1.491 . S
C432 H423 0.950 . S
C432 C431 1.398 . S
C432 C433 1.391 . S
C433 H421 0.950 . S
C433 C429 1.393 . S
C433 C432 1.391 . S
C434 H424 0.950 . S
C434 C435 1.386 . S
C434 C436 1.391 . S
C435 C434 1.386 . S
C435 C439 1.393 . S
C436 H425 0.950 . S
C436 C434 1.391 . S
C436 C437 1.400 . S
C437 C431 1.491 . S
C437 C436 1.400 . S
C437 C438 1.398 . S
C438 H426 0.950 . S
C438 C437 1.398 . S
C438 C439 1.391 . S
C439 H427 0.950 . S
C439 C435 1.393 . S
C439 C438 1.391 . S
H440 C448 0.950 . S
H441 C453 0.950 . S
H442 C450 0.950 . S
H443 C452 0.950 . S
H444 C454 0.950 . S
H445 C456 0.950 . S
H446 C458 0.950 . S
H447 C459 0.950 . S
C448 H440 0.950 . S
C448 C449 1.386 . S
C448 C450 1.391 . S
C449 C448 1.386 . S
C449 C453 1.393 . S
C450 H442 0.950 . S
C450 C448 1.391 . S
C450 C451 1.400 . S
C451 C450 1.400 . S
C451 C452 1.398 . S
C451 C457 1.491 . S
C452 H443 0.950 . S
C452 C451 1.398 . S
C452 C453 1.391 . S
C453 H441 0.950 . S
C453 C449 1.393 . S
C453 C452 1.391 . S
C454 H444 0.950 . S
C454 C455 1.386 . S
C454 C456 1.391 . S
C455 C454 1.386 . S
C455 C459 1.393 . S
C456 H445 0.950 . S
C456 C454 1.391 . S
C456 C457 1.400 . S
C457 C451 1.491 . S
C457 C456 1.400 . S
C457 C458 1.398 . S
C458 H446 0.950 . S
C458 C457 1.398 . S
C458 C459 1.391 . S
C459 H447 0.950 . S
C459 C455 1.393 . S
C459 C458 1.391 . S
H460 C468 0.950 . S
H461 C473 0.950 . S
H462 C470 0.950 . S
H463 C472 0.950 . S
H464 C474 0.950 . S
H465 C476 0.950 . S
H466 C478 0.950 . S
H467 C479 0.950 . S
C468 H460 0.950 . S
C468 C469 1.386 . S
C468 C470 1.391 . S
C469 C468 1.386 . S
C469 C473 1.393 . S
C470 H462 0.950 . S
C470 C468 1.391 . S
C470 C471 1.400 . S
C471 C470 1.400 . S
C471 C472 1.398 . S
C471 C477 1.491 . S
C472 H463 0.950 . S
C472 C471 1.398 . S
C472 C473 1.391 . S
C473 H461 0.950 . S
C473 C469 1.393 . S
C473 C472 1.391 . S
C474 H464 0.950 . S
C474 C475 1.386 . S
C474 C476 1.391 . S
C475 C474 1.386 . S
C475 C479 1.393 . S
C476 H465 0.950 . S
C476 C474 1.391 . S
C476 C477 1.400 . S
C477 C471 1.491 . S
C477 C476 1.400 . S
C477 C478 1.398 . S
C478 H466 0.950 . S
C478 C477 1.398 . S
C478 C479 1.391 . S
C479 H467 0.950 . S
C479 C475 1.393 . S
C479 C478 1.391 . S
H480 C488 0.950 . S
H481 C493 0.950 . S
H482 C490 0.950 . S
H483 C492 0.950 . S
H484 C494 0.950 . S
H485 C496 0.950 . S
H486 C498 0.950 . S
H487 C499 0.950 . S
C488 H480 0.950 . S
C488 C489 1.386 . S
C488 C490 1.391 . S
C489 C488 1.386 . S
C489 C493 1.393 . S
C490 H482 0.950 . S
C490 C488 1.391 . S
C490 C491 1.400 . S
C491 C490 1.400 . S
C491 C492 1.398 . S
C491 C497 1.491 . S
C492 H483 0.950 . S
C492 C491 1.398 . S
C492 C493 1.391 . S
C493 H481 0.950 . S
C493 C489 1.393 . S
C493 C492 1.391 . S
C494 H484 0.950 . S
C494 C495 1.386 . S
C494 C496 1.391 . S
C495 C494 1.386 . S
C495 C499 1.393 . S
C496 H485 0.950 . S
C496 C494 1.391 . S
C496 C497 1.400 . S
C497 C491 1.491 . S
C497 C496 1.400 . S
C497 C498 1.398 . S
C498 H486 0.950 . S
C498 C497 1.398 . S
C498 C499 1.391 . S
C499 H487 0.950 . S
C499 C495 1.393 . S
C499 C498 1.391 . S
H500 C508 0.950 . S
H501 C513 0.950 . S
H502 C510 0.950 . S
H503 C512 0.950 . S
H504 C514 0.950 . S
H505 C516 0.950 . S
H506 C518 0.950 . S
H507 C519 0.950 . S
C508 H500 0.950 . S
C508 C509 1.386 . S
C508 C510 1.391 . S
C509 C508 1.386 . S
C509 C513 1.393 . S
C510 H502 0.950 . S
C510 C508 1.391 . S
C510 C511 1.400 . S
C511 C510 1.400 . S
C511 C512 1.398 . S
C511 C517 1.491 . S
C512 H503 0.950 . S
C512 C511 1.398 . S
C512 C513 1.391 . S
C513 H501 0.950 . S
C513 C509 1.393 . S
C513 C512 1.391 . S
C514 H504 0.950 . S
C514 C515 1.386 . S
C514 C516 1.391 . S
C515 C514 1.386 . S
C515 C519 1.393 . S
C516 H505 0.950 . S
C516 C514 1.391 . S
C516 C517 1.400 . S
C517 C511 1.491 . S
C517 C516 1.400 . S
C517 C518 1.398 . S
C518 H506 0.950 . S
C518 C517 1.398 . S
C518 C519 1.391 . S
C519 H507 0.950 . S
C519 C515 1.393 . S
C519 C518 1.391 . S
H520 C528 0.950 . S
H521 C533 0.950 . S
H522 C530 0.950 . S
H523 C532 0.950 . S
H524 C534 0.950 . S
H525 C536 0.950 . S
H526 C538 0.950 . S
H527 C539 0.950 . S
C528 H520 0.950 . S
C528 C529 1.386 . S
C528 C530 1.391 . S
C529 C528 1.386 . S
C529 C533 1.393 . S
C530 H522 0.950 . S
C530 C528 1.391 . S
C530 C531 1.400 . S
C531 C530 1.400 . S
C531 C532 1.398 . S
C531 C537 1.491 . S
C532 H523 0.950 . S
C532 C531 1.398 . S
C532 C533 1.391 . S
C533 H521 0.950 . S
C533 C529 1.393 . S
C533 C532 1.391 . S
C534 H524 0.950 . S
C534 C535 1.386 . S
C534 C536 1.391 . S
C535 C534 1.386 . S
C535 C539 1.393 . S
C536 H525 0.950 . S
C536 C534 1.391 . S
C536 C537 1.400 . S
C537 C531 1.491 . S
C537 C536 1.400 . S
C537 C538 1.398 . S
C538 H526 0.950 . S
C538 C537 1.398 . S
C538 C539 1.391 . S
C539 H527 0.950 . S
C539 C535 1.393 . S
C539 C538 1.391 . S
H540 C548 0.950 . S
H541 C553 0.950 . S
H542 C550 0.950 . S
H543 C552 0.950 . S
H544 C554 0.950 . S
H545 C556 0.950 . S
H546 C558 0.950 . S
H547 C559 0.950 . S
C548 H540 0.950 . S
C548 C549 1.386 . S
C548 C550 1.391 . S
C549 C548 1.386 . S
C549 C553 1.393 . S
C550 H542 0.950 . S
C550 C548 1.391 . S
C550 C551 1.400 . S
C551 C550 1.400 . S
C551 C552 1.398 . S
C551 C557 1.491 . S
C552 H543 0.950 . S
C552 C551 1.398 . S
C552 C553 1.391 . S
C553 H541 0.950 . S
C553 C549 1.393 . S
C553 C552 1.391 . S
C554 H544 0.950 . S
C554 C555 1.386 . S
C554 C556 1.391 . S
C555 C554 1.386 . S
C555 C559 1.393 . S
C556 H545 0.950 . S
C556 C554 1.391 . S
C556 C557 1.400 . S
C557 C551 1.491 . S
C557 C556 1.400 . S
C557 C558 1.398 . S
C558 H546 0.950 . S
C558 C557 1.398 . S
C558 C559 1.391 . S
C559 H547 0.950 . S
C559 C555 1.393 . S
C559 C558 1.391 . S
H560 C568 0.950 . S
H561 C573 0.950 1_556 S
H562 C570 0.950 . S
H563 C572 0.950 1_556 S
H564 C574 0.950 1_556 S
H565 C576 0.950 1_556 S
H566 C578 0.950 . S
H567 C579 0.950 . S
C568 H560 0.950 . S
C568 C569 1.386 . S
C568 C570 1.391 . S
C569 C568 1.386 . S
C569 C573 1.393 . S
C570 H562 0.950 . S
C570 C568 1.391 . S
C570 C571 1.400 . S
C571 C570 1.400 . S
C571 C572 1.398 . S
C571 C577 1.491 . S
C572 H563 0.950 1_554 S
C572 C571 1.398 . S
C572 C573 1.391 . S
C573 H561 0.950 1_554 S
C573 C569 1.393 . S
C573 C572 1.391 . S
C574 H564 0.950 1_554 S
C574 C575 1.386 . S
C574 C576 1.391 . S
C575 C574 1.386 . S
C575 C579 1.393 . S
C576 H565 0.950 1_554 S
C576 C574 1.391 . S
C576 C577 1.400 . S
C577 C571 1.491 . S
C577 C576 1.400 . S
C577 C578 1.398 . S
C578 H566 0.950 . S
C578 C577 1.398 . S
C578 C579 1.391 . S
C579 H567 0.950 . S
C579 C575 1.393 . S
C579 C578 1.391 . S
H580 C588 0.950 . S
H581 C593 0.950 . S
H582 C590 0.950 . S
H583 C592 0.950 . S
H584 C594 0.950 . S
H585 C596 0.950 . S
H586 C598 0.950 . S
H587 C599 0.950 . S
C588 H580 0.950 . S
C588 C589 1.386 . S
C588 C590 1.391 . S
C589 C588 1.386 . S
C589 C593 1.393 . S
C590 H582 0.950 . S
C590 C588 1.391 . S
C590 C591 1.400 . S
C591 C590 1.400 . S
C591 C592 1.398 . S
C591 C597 1.491 . S
C592 H583 0.950 . S
C592 C591 1.398 . S
C592 C593 1.391 . S
C593 H581 0.950 . S
C593 C589 1.393 . S
C593 C592 1.391 . S
C594 H584 0.950 . S
C594 C595 1.386 . S
C594 C596 1.391 . S
C595 C594 1.386 . S
C595 C599 1.393 . S
C596 H585 0.950 . S
C596 C594 1.391 . S
C596 C597 1.400 . S
C597 C591 1.491 . S
C597 C596 1.400 . S
C597 C598 1.398 . S
C598 H586 0.950 . S
C598 C597 1.398 . S
C598 C599 1.391 . S
C599 H587 0.950 . S
C599 C595 1.393 . S
C599 C598 1.391 . S
H600 C608 0.950 . S
H601 C613 0.950 . S
H602 C610 0.950 . S
H603 C612 0.950 . S
H604 C614 0.950 . S
H605 C616 0.950 . S
H606 C618 0.950 . S
H607 C619 0.950 . S
C608 H600 0.950 . S
C608 C609 1.386 1_556 S
C608 C610 1.391 . S
C609 C608 1.386 1_554 S
C609 C613 1.393 . S
C610 H602 0.950 . S
C610 C608 1.391 . S
C610 C611 1.400 1_556 S
C611 C610 1.400 1_554 S
C611 C612 1.398 . S
C611 C617 1.491 . S
C612 H603 0.950 . S
C612 C611 1.398 . S
C612 C613 1.391 . S
C613 H601 0.950 . S
C613 C609 1.393 . S
C613 C612 1.391 . S
C614 H604 0.950 . S
C614 C615 1.386 . S
C614 C616 1.391 . S
C615 C614 1.386 . S
C615 C619 1.393 1_554 S
C616 H605 0.950 . S
C616 C614 1.391 . S
C616 C617 1.400 . S
C617 C611 1.491 . S
C617 C616 1.400 . S
C617 C618 1.398 1_554 S
C618 H606 0.950 . S
C618 C617 1.398 1_556 S
C618 C619 1.391 . S
C619 H607 0.950 . S
C619 C615 1.393 1_556 S
C619 C618 1.391 . S
H620 C628 0.950 . S
H621 C633 0.950 . S
H622 C630 0.950 . S
H623 C632 0.950 . S
H624 C634 0.950 . S
H625 C636 0.950 . S
H626 C638 0.950 . S
H627 C639 0.950 . S
C628 H620 0.950 . S
C628 C629 1.386 . S
C628 C630 1.391 . S
C629 C628 1.386 . S
C629 C633 1.393 . S
C630 H622 0.950 . S
C630 C628 1.391 . S
C630 C631 1.400 . S
C631 C630 1.400 . S
C631 C632 1.398 . S
C631 C637 1.491 . S
C632 H623 0.950 . S
C632 C631 1.398 . S
C632 C633 1.391 . S
C633 H621 0.950 . S
C633 C629 1.393 . S
C633 C632 1.391 . S
C634 H624 0.950 . S
C634 C635 1.386 . S
C634 C636 1.391 . S
C635 C634 1.386 . S
C635 C639 1.393 . S
C636 H625 0.950 . S
C636 C634 1.391 . S
C636 C637 1.400 . S
C637 C631 1.491 . S
C637 C636 1.400 . S
C637 C638 1.398 . S
C638 H626 0.950 . S
C638 C637 1.398 . S
C638 C639 1.391 . S
C639 H627 0.950 . S
C639 C635 1.393 . S
C639 C638 1.391 . S
H640 C648 0.950 . S
H641 C653 0.950 . S
H642 C650 0.950 . S
H643 C652 0.950 . S
H644 C654 0.950 . S
H645 C656 0.950 . S
H646 C658 0.950 . S
H647 C659 0.950 . S
C648 H640 0.950 . S
C648 C649 1.386 . S
C648 C650 1.391 . S
C649 C648 1.386 . S
C649 C653 1.393 . S
C650 H642 0.950 . S
C650 C648 1.391 . S
C650 C651 1.400 . S
C651 C650 1.400 . S
C651 C652 1.398 . S
C651 C657 1.491 . S
C652 H643 0.950 . S
C652 C651 1.398 . S
C652 C653 1.391 . S
C653 H641 0.950 . S
C653 C649 1.393 . S
C653 C652 1.391 . S
C654 H644 0.950 . S
C654 C655 1.386 . S
C654 C656 1.391 . S
C655 C654 1.386 . S
C655 C659 1.393 . S
C656 H645 0.950 . S
C656 C654 1.391 . S
C656 C657 1.400 . S
C657 C651 1.491 . S
C657 C656 1.400 . S
C657 C658 1.398 . S
C658 H646 0.950 . S
C658 C657 1.398 . S
C658 C659 1.391 . S
C659 H647 0.950 . S
C659 C655 1.393 . S
C659 C658 1.391 . S
H660 C668 0.950 . S
H661 C673 0.950 . S
H662 C670 0.950 . S
H663 C672 0.950 . S
H664 C674 0.950 . S
H665 C676 0.950 . S
H666 C678 0.950 1_556 S
H667 C679 0.950 1_556 S
C668 H660 0.950 . S
C668 C669 1.386 1_556 S
C668 C670 1.391 . S
C669 C668 1.386 1_554 S
C669 C673 1.393 . S
C670 H662 0.950 . S
C670 C668 1.391 . S
C670 C671 1.400 1_556 S
C671 C670 1.400 1_554 S
C671 C672 1.398 . S
C671 C677 1.491 . S
C672 H663 0.950 . S
C672 C671 1.398 . S
C672 C673 1.391 . S
C673 H661 0.950 . S
C673 C669 1.393 . S
C673 C672 1.391 . S
C674 H664 0.950 . S
C674 C675 1.386 . S
C674 C676 1.391 . S
C675 C674 1.386 . S
C675 C679 1.393 . S
C676 H665 0.950 . S
C676 C674 1.391 . S
C676 C677 1.400 . S
C677 C671 1.491 . S
C677 C676 1.400 . S
C677 C678 1.398 . S
C678 H666 0.950 1_554 S
C678 C677 1.398 . S
C678 C679 1.391 . S
C679 H667 0.950 1_554 S
C679 C675 1.393 . S
C679 C678 1.391 . S
H680 C688 0.950 . S
H681 C693 0.950 . S
H682 C690 0.950 . S
H683 C692 0.950 . S
H684 C694 0.950 . S
H685 C696 0.950 . S
H686 C698 0.950 . S
H687 C699 0.950 . S
C688 H680 0.950 . S
C688 C689 1.386 . S
C688 C690 1.391 . S
C689 C688 1.386 . S
C689 C693 1.393 . S
C690 H682 0.950 . S
C690 C688 1.391 . S
C690 C691 1.400 . S
C691 C690 1.400 . S
C691 C692 1.398 . S
C691 C697 1.491 . S
C692 H683 0.950 . S
C692 C691 1.398 . S
C692 C693 1.391 . S
C693 H681 0.950 . S
C693 C689 1.393 . S
C693 C692 1.391 . S
C694 H684 0.950 . S
C694 C695 1.386 . S
C694 C696 1.391 . S
C695 C694 1.386 . S
C695 C699 1.393 . S
C696 H685 0.950 . S
C696 C694 1.391 . S
C696 C697 1.400 . S
C697 C691 1.491 . S
C697 C696 1.400 . S
C697 C698 1.398 . S
C698 H686 0.950 . S
C698 C697 1.398 . S
C698 C699 1.391 . S
C699 H687 0.950 . S
C699 C695 1.393 . S
C699 C698 1.391 . S
H700 C708 0.950 . S
H701 C713 0.950 . S
H702 C710 0.949 1_556 S
H703 C712 0.950 . S
H704 C714 0.950 . S
H705 C716 0.950 . S
H706 C718 0.950 . S
H707 C719 0.950 . S
C708 H700 0.950 . S
C708 C709 1.386 . S
C708 C710 1.391 . S
C709 C708 1.386 . S
C709 C713 1.393 . S
C710 H702 0.949 1_554 S
C710 C708 1.391 . S
C710 C711 1.400 . S
C711 C710 1.400 . S
C711 C712 1.398 . S
C711 C717 1.491 . S
C712 H703 0.950 . S
C712 C711 1.398 . S
C712 C713 1.391 . S
C713 H701 0.950 . S
C713 C709 1.393 . S
C713 C712 1.391 . S
C714 H704 0.950 . S
C714 C715 1.386 . S
C714 C716 1.391 . S
C715 C714 1.386 . S
C715 C719 1.393 1_554 S
C716 H705 0.950 . S
C716 C714 1.391 . S
C716 C717 1.400 . S
C717 C711 1.491 . S
C717 C716 1.400 . S
C717 C718 1.398 1_554 S
C718 H706 0.950 . S
C718 C717 1.398 1_556 S
C718 C719 1.391 . S
C719 H707 0.950 . S
C719 C715 1.393 1_556 S
C719 C718 1.391 . S
C249 C21 1.524 . S
C255 C151 1.529 . S
C269 C40 1.504 . S
C275 C94 1.500 . S
C295 C109 1.486 . S
C289 C54 1.518 . S
C309 C73 1.540 . S
C315 C128 1.500 . S
C335 C185 1.459 . S
C329 C74 1.501 . S
C355 C204 1.495 . S
C349 C10 1.535 . S
C375 C227 1.549 . S
C369 C37 1.537 . S
C395 C170 1.519 . S
C389 C65 1.502 . S
C409 C52 1.471 . S
C415 C113 1.471 . S
C429 C87 1.522 . S
C435 C132 1.528 . S
C449 C15 1.568 . S
C455 C147 1.546 . S
C475 C90 1.470 . S
C469 C32 1.522 . S
C489 C29 1.558 . S
C495 C223 1.524 . S
C515 C166 1.511 . S
C509 C59 1.558 . S
C535 C189 1.479 . S
C529 C84 1.488 . S
C549 C8 1.486 . S
C555 C208 1.488 . S
C575 C99 1.379 1_554 S
C569 C7 1.504 . S
C595 C118 1.367 . S
C589 C30 1.482 . S
C609 C62 1.498 . S
C615 C137 1.407 . S
C629 C81 1.514 . S
C635 C156 1.414 . S
C655 C175 1.388 . S
C649 C76 1.497 . S
C669 C18 1.484 . S
C675 C194 1.384 1_554 S
C689 C43 1.500 . S
C695 C213 1.391 . S
C709 C51 1.519 . S
C715 C232 1.410 . S
