# Generated by pormake.
# Topology zzz, (3,6)-cn, num edge types: 1
# Building blocks:
#     Node 0, Type 0, BuildingBlock: KAKCAD_clean_linker_0, # of connection points: 3
#     Node 1, Type 0, BuildingBlock: KAKCAD_clean_linker_0, # of connection points: 3
#     Node 2, Type 0, BuildingBlock: KAKCAD_clean_linker_0, # of connection points: 3
#     Node 3, Type 0, BuildingBlock: KAKCAD_clean_linker_0, # of connection points: 3
#     Node 4, Type 0, BuildingBlock: KAKCAD_clean_linker_0, # of connection points: 3
#     Node 5, Type 0, BuildingBlock: KAKCAD_clean_linker_0, # of connection points: 3
#     Node 6, Type 0, BuildingBlock: KAKCAD_clean_linker_0, # of connection points: 3
#     Node 7, Type 0, BuildingBlock: KAKCAD_clean_linker_0, # of connection points: 3
#     Node 8, Type 1, BuildingBlock: BETFAJ_clean_sbu_0, # of connection points: 6
#     Node 9, Type 1, BuildingBlock: BETFAJ_clean_sbu_0, # of connection points: 6
#     Node 10, Type 1, BuildingBlock: BETFAJ_clean_sbu_0, # of connection points: 6
#     Node 11, Type 1, BuildingBlock: BETFAJ_clean_sbu_0, # of connection points: 6
#     Edge 12, Type (0, 1), BuildingBlock: KIFKEQ_clean_linker_1, # of connection points: 2
#     Edge 13, Type (0, 1), BuildingBlock: KIFKEQ_clean_linker_1, # of connection points: 2
#     Edge 14, Type (0, 1), BuildingBlock: KIFKEQ_clean_linker_1, # of connection points: 2
#     Edge 15, Type (0, 1), BuildingBlock: KIFKEQ_clean_linker_1, # of connection points: 2
#     Edge 16, Type (0, 1), BuildingBlock: KIFKEQ_clean_linker_1, # of connection points: 2
#     Edge 17, Type (0, 1), BuildingBlock: KIFKEQ_clean_linker_1, # of connection points: 2
#     Edge 18, Type (0, 1), BuildingBlock: KIFKEQ_clean_linker_1, # of connection points: 2
#     Edge 19, Type (0, 1), BuildingBlock: KIFKEQ_clean_linker_1, # of connection points: 2
#     Edge 20, Type (0, 1), BuildingBlock: KIFKEQ_clean_linker_1, # of connection points: 2
#     Edge 21, Type (0, 1), BuildingBlock: KIFKEQ_clean_linker_1, # of connection points: 2
#     Edge 22, Type (0, 1), BuildingBlock: KIFKEQ_clean_linker_1, # of connection points: 2
#     Edge 23, Type (0, 1), BuildingBlock: KIFKEQ_clean_linker_1, # of connection points: 2
#     Edge 24, Type (0, 1), BuildingBlock: KIFKEQ_clean_linker_1, # of connection points: 2
#     Edge 25, Type (0, 1), BuildingBlock: KIFKEQ_clean_linker_1, # of connection points: 2
#     Edge 26, Type (0, 1), BuildingBlock: KIFKEQ_clean_linker_1, # of connection points: 2
#     Edge 27, Type (0, 1), BuildingBlock: KIFKEQ_clean_linker_1, # of connection points: 2
#     Edge 28, Type (0, 1), BuildingBlock: KIFKEQ_clean_linker_1, # of connection points: 2
#     Edge 29, Type (0, 1), BuildingBlock: KIFKEQ_clean_linker_1, # of connection points: 2
#     Edge 30, Type (0, 1), BuildingBlock: KIFKEQ_clean_linker_1, # of connection points: 2
#     Edge 31, Type (0, 1), BuildingBlock: KIFKEQ_clean_linker_1, # of connection points: 2
#     Edge 32, Type (0, 1), BuildingBlock: KIFKEQ_clean_linker_1, # of connection points: 2
#     Edge 33, Type (0, 1), BuildingBlock: KIFKEQ_clean_linker_1, # of connection points: 2
#     Edge 34, Type (0, 1), BuildingBlock: KIFKEQ_clean_linker_1, # of connection points: 2
#     Edge 35, Type (0, 1), BuildingBlock: KIFKEQ_clean_linker_1, # of connection points: 2
# Relax obj value: 0.443
# Max RMSD: 0.271
# Mean RMSD: 0.254
data_MOF--net-zzz--node1-BETFAJ_clean_sbu_0--node2-KAKCAD_clean_linker_0--edge1-KIFKEQ_clean_linker_1
_symmetry_space_group_name_H-M    P1
_symmetry_Int_Tables_number       1
_symmetry_cell_setting            triclinic
loop_
_symmetry_equiv_pos_as_xyz
'x, y, z'
_cell_length_a     60.405278
_cell_length_b     60.474158
_cell_length_c     18.486732
_cell_angle_alpha  89.876938
_cell_angle_beta   90.248301
_cell_angle_gamma 89.984011
loop_
_atom_site_label
_atom_site_type_symbol
_atom_site_fract_x
_atom_site_fract_y
_atom_site_fract_z
_atom_type_partial_charge
C0 C 0.77308 0.42717 0.09114 0.0
C1 C 0.79081 0.41552 0.12313 0.0
C2 C 0.75947 0.44073 0.13301 0.0
C3 C 0.76276 0.44226 0.20819 0.0
C4 C 0.77789 0.42768 0.24116 0.0
C5 C 0.79199 0.41475 0.19923 0.0
C6 C 0.75344 0.46118 0.24978 0.0
C7 C 0.73281 0.47042 0.2323 0.0
C8 C 0.72582 0.49037 0.26377 0.0
C9 C 0.73948 0.50099 0.31527 0.0
C10 C 0.75975 0.49123 0.33621 0.0
C11 C 0.76658 0.47169 0.30221 0.0
C12 C 0.77492 0.50099 0.39131 0.0
C13 C 0.78376 0.5223 0.38279 0.0
C14 C 0.78375 0.48721 0.44555 0.0
C15 C 0.80207 0.4938 0.48643 0.0
C16 C 0.81207 0.51453 0.47494 0.0
C17 C 0.70462 0.50001 0.23812 0.0
C18 C 0.70465 0.51835 0.1915 0.0
C19 C 0.68483 0.48829 0.2483 0.0
C20 C 0.66568 0.49406 0.20978 0.0
C21 C 0.66598 0.51144 0.15891 0.0
C22 C 0.68555 0.52399 0.15214 0.0
C23 C 0.80214 0.52902 0.42426 0.0
H24 H 0.77076 0.42732 0.03306 0.0
H25 H 0.74773 0.45134 0.10536 0.0
H26 H 0.78016 0.42758 0.29931 0.0
H27 H 0.80505 0.40587 0.22702 0.0
H28 H 0.72235 0.46249 0.19223 0.0
H29 H 0.78291 0.46526 0.31462 0.0
H30 H 0.73424 0.51642 0.33948 0.0
H31 H 0.77739 0.53321 0.34108 0.0
H32 H 0.77728 0.47066 0.45328 0.0
H33 H 0.80915 0.48195 0.52388 0.0
H34 H 0.71985 0.52736 0.18174 0.0
H35 H 0.68447 0.47396 0.28359 0.0
H36 H 0.80901 0.54529 0.41475 0.0
H37 H 0.68658 0.53734 0.11321 0.0
H38 H 0.65086 0.48433 0.21802 0.0
C39 C 0.09964 0.7841 0.08065 0.0
C40 C 0.11293 0.80101 0.11017 0.0
C41 C 0.08663 0.77079 0.12543 0.0
C42 C 0.08727 0.7735 0.20096 0.0
C43 C 0.10332 0.78774 0.23049 0.0
C44 C 0.1157 0.80159 0.18585 0.0
C45 C 0.06923 0.7645 0.24737 0.0
C46 C 0.05857 0.74452 0.23094 0.0
C47 C 0.03946 0.73797 0.26837 0.0
C48 C 0.03108 0.75132 0.32442 0.0
C49 C 0.04214 0.77099 0.34334 0.0
C50 C 0.06088 0.77742 0.30404 0.0
C51 C 0.03425 0.78622 0.40072 0.0
C52 C 0.0135 0.79662 0.39512 0.0
C53 C 0.04951 0.79397 0.45239 0.0
C54 C 0.04505 0.81295 0.4926 0.0
C55 C 0.02513 0.82453 0.48262 0.0
C56 C 0.02812 0.71764 0.24418 0.0
C57 C 1.01306 0.71873 0.18633 0.0
C58 C 0.03564 0.69692 0.26798 0.0
C59 C 0.02901 0.67762 0.23221 0.0
C60 C 0.01495 0.6787 0.17125 0.0
C61 C 1.00649 0.69947 0.1503 0.0
C62 C 1.00893 0.81564 0.43606 0.0
H63 H 0.09789 0.78221 0.02271 0.0
H64 H 0.07482 0.75974 0.10021 0.0
H65 H 0.10511 0.7895 0.28851 0.0
H66 H 0.12588 0.81399 0.21176 0.0
H67 H 0.06476 0.73418 0.18765 0.0
H68 H 0.06826 0.79337 0.31565 0.0
H69 H 0.01621 0.74644 0.35286 0.0
H70 H 1.00156 0.79115 0.35512 0.0
H71 H 0.06562 0.78624 0.45783 0.0
H72 H 0.0577 0.81926 0.52879 0.0
H73 H 1.00747 0.73463 0.16614 0.0
H74 H 0.04756 0.69578 0.3118 0.0
H75 H 0.99344 0.82429 0.4273 0.0
H76 H 0.9959 0.70107 0.10319 0.0
H77 H 0.03557 0.66192 0.25066 0.0
C78 C 0.74285 0.10579 0.09556 0.0
C79 C 0.72408 0.11542 0.12768 0.0
C80 C 0.75761 0.09314 0.13681 0.0
C81 C 0.75434 0.09041 0.21158 0.0
C82 C 0.73761 0.10285 0.24507 0.0
C83 C 0.72246 0.11493 0.20363 0.0
C84 C 0.76551 0.07204 0.25149 0.0
C85 C 0.78706 0.06521 0.23416 0.0
C86 C 0.79581 0.04537 0.26214 0.0
C87 C 0.78296 0.03242 0.30967 0.0
C88 C 0.7618 0.03975 0.3303 0.0
C89 C 0.75329 0.05933 0.30079 0.0
C90 C 0.74705 0.02691 0.37831 0.0
C91 C 0.73389 1.01002 0.34899 0.0
C92 C 0.74169 0.03549 0.44655 0.0
C93 C 0.72263 0.02841 0.48264 0.0
C94 C 0.70836 0.01284 0.45058 0.0
C95 C 0.81775 0.03792 0.23613 0.0
C96 C 0.81955 0.01897 0.19287 0.0
C97 C 0.83635 0.05155 0.24515 0.0
C98 C 0.85611 0.04689 0.20906 0.0
C99 C 0.85761 0.02875 0.16159 0.0
C100 C 0.83922 0.01449 0.15565 0.0
C101 C 0.7147 1.00305 0.38477 0.0
H102 H 0.74531 0.10661 0.03765 0.0
H103 H 0.77043 0.08409 0.1088 0.0
H104 H 0.73511 0.10191 0.30297 0.0
H105 H 0.7085 0.1222 0.23124 0.0
H106 H 0.7968 0.07484 0.19637 0.0
H107 H 0.73639 0.06386 0.31352 0.0
H108 H 0.78935 0.0169 0.3304 0.0
H109 H 0.73744 1.00352 0.29571 0.0
H110 H 0.75132 0.0489 0.46934 0.0
H111 H 0.71818 0.03643 0.53285 0.0
H112 H 0.8053 1.0084 0.18428 0.0
H113 H 0.83534 0.06627 0.27829 0.0
H114 H 0.7042 0.99085 0.35904 0.0
H115 H 0.83952 1.0005 0.11926 0.0
H116 H 0.87001 0.05794 0.21687 0.0
C117 C 0.48687 0.73232 0.4798 0.0
C118 C 0.50438 0.71957 0.4523 0.0
C119 C 0.47975 0.75139 0.44347 0.0
C120 C 0.4902 0.75832 0.37953 0.0
C121 C 0.50883 0.74666 0.35526 0.0
C122 C 0.5158 0.7274 0.3911 0.0
C123 C 0.47854 0.77377 0.3299 0.0
C124 C 0.48835 0.79328 0.30313 0.0
C125 C 0.47719 0.8061 0.25049 0.0
C126 C 0.45692 0.7986 0.22209 0.0
C127 C 0.44755 0.77877 0.24636 0.0
C128 C 0.45802 0.76698 0.30207 0.0
C129 C 0.42992 0.7676 0.20442 0.0
C130 C 0.41212 0.75738 0.23979 0.0
C131 C 0.43371 0.76281 0.13135 0.0
C132 C 0.42187 0.746 0.09709 0.0
C133 C 0.40574 0.73381 0.13499 0.0
C134 C 0.48716 0.82617 0.21819 0.0
C135 C 0.47634 0.84664 0.2243 0.0
C136 C 0.50507 0.8242 0.17054 0.0
C137 C 0.51112 0.84202 0.1263 0.0
C138 C 0.49958 0.86221 0.12978 0.0
C139 C 0.48266 0.8646 0.18109 0.0
C140 C 0.3999 0.74086 0.20499 0.0
H141 H 0.47762 0.72671 0.52642 0.0
H142 H 0.46513 0.75991 0.46259 0.0
H143 H 0.51692 0.75144 0.30543 0.0
H144 H 0.52949 0.71807 0.36902 0.0
H145 H 0.50452 0.79834 0.32259 0.0
H146 H 0.45121 0.75121 0.31918 0.0
H147 H 0.44906 0.80757 0.17806 0.0
H148 H 0.40876 0.76099 0.29607 0.0
H149 H 0.44744 0.77034 0.10296 0.0
H150 H 0.42707 0.74122 0.04342 0.0
H151 H 0.46227 0.84841 0.25999 0.0
H152 H 0.51341 0.80847 0.16411 0.0
H153 H 0.38706 0.73247 0.2351 0.0
H154 H 0.47337 0.87988 0.18446 0.0
H155 H 0.52424 0.83976 0.08723 0.0
C156 C 0.27019 0.48273 0.38944 0.0
C157 C 0.25023 0.47088 0.3929 0.0
C158 C 0.28182 0.48411 0.32458 0.0
C159 C 0.27392 0.47331 0.26224 0.0
C160 C 0.25557 0.4592 0.26837 0.0
C161 C 0.24377 0.45806 0.33295 0.0
C162 C 0.28293 0.47916 0.19008 0.0
C163 C 0.30544 0.48363 0.18166 0.0
C164 C 0.31362 0.49278 0.11738 0.0
C165 C 0.29899 0.49703 0.05911 0.0
C166 C 0.27633 0.49154 0.06586 0.0
C167 C 0.26858 0.4828 0.13141 0.0
C168 C 0.25967 0.49525 1.00778 0.0
C169 C 0.25025 0.51627 0.99773 0.0
C170 C 0.24919 0.47687 0.97641 0.0
C171 C 0.22901 0.47922 0.93968 0.0
C172 C 0.21863 0.50001 0.93401 0.0
C173 C 0.33741 0.49863 0.11748 0.0
C174 C 0.34376 0.51943 0.14416 0.0
C175 C 0.35299 0.48139 0.118 0.0
C176 C 0.37353 0.48412 0.15219 0.0
C177 C 0.37887 0.50415 0.18669 0.0
C178 C 0.36436 0.52221 0.17828 0.0
C179 C 0.22996 0.51865 0.96096 0.0
H180 H 0.27586 0.49241 0.43515 0.0
H181 H 0.29595 0.49509 0.32214 0.0
H182 H 0.24944 0.45016 0.22189 0.0
H183 H 0.22848 0.44872 0.33341 0.0
H184 H 0.31673 0.48065 0.22645 0.0
H185 H 0.25098 0.47982 0.13749 0.0
H186 H 0.30511 0.50434 0.00953 0.0
H187 H 0.2577 0.53062 0.02301 0.0
H188 H 0.25592 0.46043 0.98449 0.0
H189 H 0.22103 0.46455 0.91848 0.0
H190 H 0.33185 0.53281 0.14605 0.0
H191 H 0.34834 0.46508 0.09912 0.0
H192 H 0.22246 0.5349 0.9581 0.0
H193 H 0.36789 0.53783 0.20441 0.0
H194 H 0.38447 0.46999 0.15678 0.0
C195 C 0.90844 0.25343 0.23078 0.0
C196 C 0.91441 0.2459 0.30045 0.0
C197 C 0.92226 0.26787 0.19279 0.0
C198 C 0.94179 0.27572 0.22484 0.0
C199 C 0.94648 0.27033 0.29697 0.0
C200 C 0.93307 0.25545 0.33423 0.0
C201 C 0.95915 0.28621 0.18074 0.0
C202 C 0.96808 0.30663 0.20051 0.0
C203 C 0.98713 0.31494 0.16631 0.0
C204 C 0.9977 0.30198 0.11302 0.0
C205 C 0.98848 0.28151 0.09222 0.0
C206 C 0.96907 0.27403 0.12552 0.0
C207 C 0.99927 0.26636 0.04046 0.0
C208 C 0.98955 0.26283 0.97241 0.0
C209 C 0.01536 0.25143 0.06556 0.0
C210 C 0.02055 0.23248 0.02548 0.0
C211 C 1.00971 0.22806 0.9594 0.0
C212 C 0.99601 0.33658 0.19118 0.0
C213 C 0.98142 0.3544 0.20113 0.0
C214 C 0.01797 0.33865 0.21553 0.0
C215 C 0.02463 0.35749 0.25423 0.0
C216 C 1.00945 0.3746 0.26925 0.0
C217 C 0.988 0.37312 0.23972 0.0
C218 C 0.99485 0.24402 0.932 0.0
H219 H 0.89384 0.24714 0.20365 0.0
H220 H 0.91829 0.27203 0.13719 0.0
H221 H 0.96159 0.27611 0.3225 0.0
H222 H 0.9386 0.25011 0.38718 0.0
H223 H 0.96057 0.31572 0.24457 0.0
H224 H 0.96249 0.25788 0.11161 0.0
H225 H 1.01282 0.30775 0.08798 0.0
H226 H 0.97679 0.27392 0.9526 0.0
H227 H 0.02264 0.25351 0.11879 0.0
H228 H 0.03191 0.22057 0.04889 0.0
H229 H 0.96442 0.35333 0.18246 0.0
H230 H 0.02957 0.32516 0.20876 0.0
H231 H 0.98652 0.24149 0.88071 0.0
H232 H 0.97571 0.38572 0.25031 0.0
H233 H 0.04141 0.35822 0.27485 0.0
C234 C 0.28168 0.90935 0.16603 0.0
C235 C 0.29021 0.91364 0.23566 0.0
C236 C 0.26567 0.92327 0.13548 0.0
C237 C 0.2574 0.94124 0.1749 0.0
C238 C 0.26363 0.94373 0.2475 0.0
C239 C 0.27997 0.93019 0.2775 0.0
C240 C 0.24652 0.9599 0.13736 0.0
C241 C 0.22681 0.96901 0.16327 0.0
C242 C 0.21871 0.98923 0.13582 0.0
C243 C 0.23124 1.00072 0.08325 0.0
C244 C 0.25095 0.99138 0.05639 0.0
C245 C 0.25811 0.97087 0.08276 0.0
C246 C 0.26592 1.00308 1.00601 0.0
C247 C 0.26882 0.99478 0.93588 0.0
C248 C 0.28152 0.01807 0.03373 0.0
C249 C 0.30055 0.02336 0.99414 0.0
C250 C 0.30437 0.01372 0.92596 0.0
C251 C 0.19789 0.99838 0.16671 0.0
C252 C 0.17976 0.98429 0.17905 0.0
C253 C 0.19679 0.02026 0.19188 0.0
C254 C 0.17862 0.02736 0.23288 0.0
C255 C 0.16115 0.01275 0.24941 0.0
C256 C 0.16169 0.99134 0.21988 0.0
C257 C 0.28772 1.00019 0.89601 0.0
H258 H 0.28853 0.8963 0.13295 0.0
H259 H 0.26091 0.92095 0.07943 0.0
H260 H 0.25756 0.95758 0.27881 0.0
H261 H 0.28597 0.93428 0.33105 0.0
H262 H 0.21822 0.9607 0.20696 0.0
H263 H 0.27379 0.96419 0.06432 0.0
H264 H 0.22574 0.01669 0.06343 0.0
H265 H 0.25721 0.98287 0.91393 0.0
H266 H 0.27992 0.02421 0.08848 0.0
H267 H 0.31299 0.03369 0.0194 0.0
H268 H 0.17999 0.9674 0.15964 0.0
H269 H 0.21048 0.0315 0.18338 0.0
H270 H 0.28978 0.99286 0.84309 0.0
H271 H 0.14874 0.9795 0.23162 0.0
H272 H 0.17862 0.0441 0.25358 0.0
C273 C 0.50746 0.30114 0.95134 0.0
C274 C 0.52356 0.3127 0.91092 0.0
C275 C 0.51329 0.28254 0.99313 0.0
C276 C 0.5353 0.27509 0.99508 0.0
C277 C 0.55091 0.28551 0.95037 0.0
C278 C 0.5452 0.30406 0.90928 0.0
C279 C 0.54331 0.25989 0.05303 0.0
C280 C 0.53454 0.23853 0.06479 0.0
C281 C 0.54364 0.22486 0.11955 0.0
C282 C 0.56089 0.23304 0.16331 0.0
C283 C 0.56903 0.25453 0.15422 0.0
C284 C 0.56019 0.26768 0.0987 0.0
C285 C 0.5853 0.26417 0.20605 0.0
C286 C 0.58368 0.25979 0.28059 0.0
C287 C 0.60085 0.27987 0.1825 0.0
C288 C 0.6124 0.2928 0.23233 0.0
C289 C 0.60905 0.29002 0.3071 0.0
C290 C 0.53522 0.20224 0.13535 0.0
C291 C 0.51294 0.19867 0.15334 0.0
C292 C 0.55041 0.1849 0.14549 0.0
C293 C 0.54399 0.16518 0.17871 0.0
C294 C 0.52206 0.16209 0.20227 0.0
C295 C 0.50641 0.17877 0.18639 0.0
C296 C 0.59565 0.27239 0.33048 0.0
H297 H 0.49051 0.30692 0.95292 0.0
H298 H 0.50095 0.27493 0.02742 0.0
H299 H 0.56804 0.28014 0.95094 0.0
H300 H 0.55825 0.3124 0.88 0.0
H301 H 0.52122 0.23246 0.03083 0.0
H302 H 0.56584 0.28458 0.09238 0.0
H303 H 0.56767 0.22273 0.20601 0.0
H304 H 0.57201 0.24774 0.30102 0.0
H305 H 0.60312 0.28314 0.12539 0.0
H306 H 0.62256 0.3061 0.21161 0.0
H307 H 0.50089 0.21178 0.14636 0.0
H308 H 0.5677 0.18715 0.13188 0.0
H309 H 0.59321 0.26923 0.38756 0.0
H310 H 0.48928 0.17687 0.20208 0.0
H311 H 0.5567 0.15304 0.19015 0.0
Sm312 Sm 0.02885 0.0188 0.78979 0.0
Sm313 Sm 0.99872 0.03117 0.65879 0.0
C314 C 0.04407 1.00246 0.91225 0.0
C315 C 0.05917 0.98378 0.92585 0.0
C316 C 0.05805 0.96486 0.88217 0.0
C317 C 0.07272 0.94739 0.89297 0.0
C318 C 0.08915 0.9485 0.94701 0.0
C319 C 0.0905 0.96767 0.99 0.0
C320 C 0.07561 0.98517 0.97945 0.0
C321 C 0.05532 0.02199 0.66773 0.0
C322 C 0.01444 0.98086 0.67283 0.0
C323 C 0.97832 0.04675 0.54251 0.0
C324 C 0.96226 0.06416 0.52507 0.0
C325 C 0.9597 0.08258 0.57024 0.0
C326 C 0.94537 0.09972 0.55031 0.0
C327 C 0.93335 0.0986 0.48506 0.0
C328 C 0.93518 0.07954 0.44199 0.0
C329 C 0.94957 0.06249 0.46182 0.0
C330 C 0.97684 0.01886 0.78357 0.0
C331 C 0.01653 0.07118 0.76769 0.0
O332 O 0.02453 0.99733 0.88579 0.0
O333 O 0.05302 0.01969 0.8807 0.0
O334 O 0.03475 0.02492 0.67095 0.0
O335 O 0.06281 0.01747 0.73177 0.0
O336 O 0.01739 0.98517 0.74235 0.0
O337 O 1.01114 0.99693 0.62566 0.0
O338 O 0.99802 0.05331 0.56316 0.0
O339 O 0.9708 0.03013 0.5804 0.0
O340 O 0.99364 0.03116 0.78023 0.0
O341 O 0.9707 0.01298 0.71914 0.0
O342 O 1.00603 0.06578 0.70708 0.0
O343 O 0.02568 0.05614 0.8105 0.0
H344 H 0.04573 0.96347 0.83967 0.0
H345 H 0.07076 0.93276 0.85987 0.0
H346 H 0.10305 0.96918 0.03169 0.0
H347 H 0.07697 0.99979 0.0129 0.0
H348 H 0.96921 0.08399 0.61982 0.0
H349 H 0.94452 0.11426 0.5843 0.0
H350 H 0.9259 0.07806 0.39195 0.0
H351 H 0.95116 0.0482 0.42691 0.0
Sm352 Sm 0.51349 0.03189 0.74074 0.0
Sm353 Sm 0.49834 1.00252 0.60921 0.0
C354 C 0.52348 0.05338 0.86062 0.0
C355 C 0.54207 0.06776 0.88095 0.0
C356 C 0.56205 0.06651 0.84292 0.0
C357 C 0.5799 0.07987 0.86248 0.0
C358 C 0.57807 0.09499 0.91999 0.0
C359 C 0.55775 0.09656 0.95678 0.0
C360 C 0.5399 0.08302 0.93739 0.0
C361 C 0.51384 0.0524 0.60753 0.0
C362 C 0.55135 1.01094 0.63954 0.0
C363 C 0.4853 0.98826 0.48099 0.0
C364 C 0.46983 0.97124 0.4557 0.0
C365 C 0.45308 0.96338 0.50134 0.0
C366 C 0.43744 0.94831 0.47545 0.0
C367 C 0.43837 0.94077 0.40358 0.0
C368 C 0.45589 0.9479 0.35928 0.0
C369 C 0.47146 0.96307 0.38515 0.0
C370 C 0.50442 0.97544 0.72872 0.0
C371 C 0.46023 0.01828 0.72257 0.0
O372 O 0.52842 0.0325 0.85035 0.0
O373 O 0.51012 0.06139 0.81111 0.0
O374 O 0.49906 0.03936 0.62983 0.0
O375 O 0.52872 0.05568 0.65707 0.0
O376 O 0.54673 0.0167 0.7068 0.0
O377 O 0.53564 1.00838 0.59011 0.0
O378 O 0.47637 1.00528 0.51349 0.0
O379 O 0.50322 0.98103 0.51331 0.0
O380 O 0.50708 0.99604 0.72579 0.0
O381 O 0.4983 0.96822 0.6658 0.0
O382 O 0.46435 1.00861 0.65998 0.0
O383 O 0.47605 0.02721 0.76292 0.0
H384 H 0.56396 0.05495 0.79867 0.0
H385 H 0.59534 0.07782 0.83377 0.0
H386 H 0.55568 0.10817 1.00077 0.0
H387 H 0.52446 0.08436 0.9667 0.0
H388 H 0.45172 0.96939 0.55633 0.0
H389 H 0.42404 0.94341 0.51076 0.0
H390 H 0.45726 0.94217 0.30401 0.0
H391 H 0.48449 0.96879 0.3496 0.0
Sm392 Sm 0.50027 0.52323 0.75469 0.0
Sm393 Sm 0.53377 0.51216 0.62978 0.0
C394 C 0.48341 0.53669 0.8784 0.0
C395 C 0.46729 0.55327 0.90203 0.0
C396 C 0.46119 0.57082 0.85638 0.0
C397 C 0.44698 0.58736 0.88129 0.0
C398 C 0.43862 0.58655 0.95219 0.0
C399 C 0.44408 0.56837 0.99649 0.0
C400 C 0.45833 0.55189 0.97158 0.0
C401 C 0.47699 0.51894 0.6256 0.0
C402 C 0.5167 0.56251 0.64238 0.0
C403 C 0.55711 0.49583 0.5216 0.0
C404 C 0.56961 0.47524 0.51115 0.0
C405 C 0.56237 0.45545 0.54277 0.0
C406 C 0.57471 0.43612 0.53529 0.0
C407 C 0.59466 0.4362 0.49632 0.0
C408 C 0.60199 0.45613 0.46515 0.0
C409 C 0.58956 0.47552 0.47267 0.0
C410 C 0.55233 0.52475 0.76017 0.0
C411 C 0.51447 0.47138 0.73325 0.0
O412 O 0.50199 0.54444 0.85185 0.0
O413 O 0.47538 0.51991 0.84193 0.0
O414 O 0.49749 0.51711 0.63548 0.0
O415 O 0.46759 0.52277 0.68729 0.0
O416 O 0.51025 0.55761 0.70904 0.0
O417 O 0.52337 0.54713 0.59668 0.0
O418 O 0.53553 0.49402 0.52574 0.0
O419 O 0.56537 0.50936 0.56962 0.0
O420 O 0.53599 0.51197 0.75217 0.0
O421 O 0.5596 0.53116 0.6976 0.0
O422 O 0.52517 0.47717 0.67369 0.0
O423 O 0.50502 0.48609 0.77598 0.0
H424 H 0.46789 0.57204 0.80223 0.0
H425 H 0.44332 0.60124 0.8461 0.0
H426 H 0.43767 0.56712 0.05099 0.0
H427 H 0.46272 0.5383 1.00718 0.0
H428 H 0.5471 0.45485 0.57303 0.0
H429 H 0.5683 0.421 0.55864 0.0
H430 H 0.61733 0.45676 0.43511 0.0
H431 H 0.59554 0.49073 0.44867 0.0
Sm432 Sm 1.00454 0.50839 0.80508 0.0
Sm433 Sm 0.01957 0.53725 0.6714 0.0
C434 C 0.9876 0.49413 0.92738 0.0
C435 C 0.96968 0.47824 0.94167 0.0
C436 C 0.95086 0.47779 0.89695 0.0
C437 C 0.9343 0.46214 0.90823 0.0
C438 C 0.9363 0.44631 0.96381 0.0
C439 C 0.95537 0.4466 1.0079 0.0
C440 C 0.97191 0.46246 0.99689 0.0
C441 C 1.0103 0.48121 0.68571 0.0
C442 C 0.96769 0.52515 0.682 0.0
C443 C 0.04233 0.55233 0.56163 0.0
C444 C 0.06369 0.54325 0.53779 0.0
C445 C 0.0665 0.52021 0.53429 0.0
C446 C 0.08755 0.51103 0.53003 0.0
C447 C 0.10632 0.52466 0.52934 0.0
C448 C 0.10354 0.54776 0.52948 0.0
C449 C 0.08234 0.55699 0.5337 0.0
C450 C 1.00566 0.56041 0.79108 0.0
C451 C 0.05719 0.51544 0.78131 0.0
O452 O 0.98169 0.51293 0.89718 0.0
O453 O 1.00557 0.48561 0.89933 0.0
O454 O 1.01294 0.50174 0.68959 0.0
O455 O 1.00437 0.47394 0.74865 0.0
O456 O 0.97151 0.51945 0.75037 0.0
O457 O 0.98386 0.53033 0.63703 0.0
O458 O 0.02503 0.53948 0.55291 0.0
O459 O 0.04301 0.5617 0.62537 0.0
O460 O 0.01747 0.54318 0.79188 0.0
O461 O 1.00147 0.56651 0.7249 0.0
O462 O 0.05215 0.52182 0.71475 0.0
O463 O 0.0417 0.51193 0.83033 0.0
H464 H 0.94887 0.48957 0.85316 0.0
H465 H 0.91968 0.46281 0.87418 0.0
H466 H 0.95755 0.43456 0.05077 0.0
H467 H 0.98652 0.46231 0.03114 0.0
H468 H 0.05255 0.50911 0.53921 0.0
H469 H 0.08913 0.49318 0.53092 0.0
H470 H 0.11774 0.55867 0.52794 0.0
H471 H 0.0806 0.57478 0.53761 0.0
H472 H 0.11681 1.00168 0.2482 0.0
H473 H 0.16578 0.03722 0.3732 0.0
H474 H 0.09021 1.00619 0.34606 0.0
H475 H 0.13891 0.04268 0.46888 0.0
H476 H 0.09972 0.01736 0.66241 0.0
H477 H 0.12367 0.01819 0.55749 0.0
H478 H 0.06706 0.03067 0.41959 0.0
H479 H 0.0428 0.02941 0.52602 0.0
C480 C 0.12184 1.01074 0.29598 0.0
C481 C 0.14364 0.0188 0.30289 0.0
C482 C 0.10646 0.01354 0.35184 0.0
C483 C 0.11248 0.0245 0.416 0.0
C484 C 0.13382 0.03374 0.42091 0.0
C485 C 0.14919 0.03088 0.36534 0.0
C486 C 0.09234 0.02041 0.60981 0.0
C487 C 0.06939 0.02336 0.60247 0.0
C488 C 0.10613 0.02108 0.54952 0.0
C489 C 0.0974 0.02474 0.47988 0.0
C490 C 0.07435 0.02774 0.47236 0.0
C491 C 0.06046 0.02712 0.5332 0.0
H492 H 0.53874 0.11957 0.19719 0.0
H493 H 0.4929 0.16046 0.31649 0.0
H494 H 0.53516 0.09071 0.28881 0.0
H495 H 0.4885 0.13094 0.4053 0.0
H496 H 0.4775 0.06308 0.52489 0.0
H497 H 0.47653 0.08746 0.41807 0.0
H498 H 0.5476 0.09398 0.42863 0.0
H499 H 0.54849 0.07037 0.53614 0.0
C500 C 0.52768 0.1224 0.24216 0.0
C501 C 0.51646 0.14271 0.2496 0.0
C502 C 0.52553 0.10573 0.29433 0.0
C503 C 0.51167 0.10866 0.35429 0.0
C504 C 0.49919 0.12819 0.35929 0.0
C505 C 0.50166 0.14508 0.30791 0.0
C506 C 0.49289 0.06957 0.50373 0.0
C507 C 0.51307 0.06496 0.5388 0.0
C508 C 0.49232 0.08353 0.44294 0.0
C509 C 0.512 0.09254 0.41509 0.0
C510 C 0.53221 0.08713 0.44858 0.0
C511 C 0.53271 0.0737 0.51023 0.0
H512 H 0.3883 0.47352 0.29016 0.0
H513 H 0.40995 0.53699 0.20967 0.0
H514 H 0.41413 0.47653 0.39116 0.0
H515 H 0.43613 0.53986 0.3116 0.0
H516 H 0.49311 0.52077 0.48649 0.0
H517 H 0.47173 0.51689 0.37319 0.0
H518 H 0.41227 0.50645 0.49708 0.0
H519 H 0.43327 0.51085 0.60909 0.0
C520 C 0.399 0.48786 0.29283 0.0
C521 C 0.39709 0.50498 0.24146 0.0
C522 C 0.41368 0.48964 0.35113 0.0
C523 C 0.42708 0.50843 0.35929 0.0
C524 C 0.42606 0.52513 0.30629 0.0
C525 C 0.41103 0.52353 0.24826 0.0
C526 C 0.47548 0.51761 0.48916 0.0
C527 C 0.46484 0.51603 0.5565 0.0
C528 C 0.46328 0.51551 0.42455 0.0
C529 C 0.44038 0.51127 0.42651 0.0
C530 C 0.42991 0.50954 0.49396 0.0
C531 C 0.44194 0.5121 0.55806 0.0
H532 H 0.03456 0.37171 0.39297 0.0
H533 H 0.99625 0.4183 0.26654 0.0
H534 H 0.0384 0.39895 0.48842 0.0
H535 H 0.99891 0.44509 0.36436 0.0
H536 H 0.01596 0.49395 0.54413 0.0
H537 H 0.02022 0.46985 0.43848 0.0
H538 H 0.01386 0.41258 0.57721 0.0
H539 H 1.01064 0.43656 0.68174 0.0
C540 C 0.02726 0.38787 0.38472 0.0
C541 C 0.01484 0.39258 0.32198 0.0
C542 C 0.02916 0.40344 0.44026 0.0
C543 C 0.01853 0.42411 0.43513 0.0
C544 C 1.00731 0.42938 0.37051 0.0
C545 C 1.00556 0.41386 0.31459 0.0
C546 C 0.01597 0.47621 0.55177 0.0
C547 C 0.01329 0.46713 0.62114 0.0
C548 C 0.01815 0.46237 0.49128 0.0
C549 C 0.01758 0.43918 0.49908 0.0
C550 C 0.01493 0.43027 0.5689 0.0
C551 C 1.01284 0.44405 0.62898 0.0
H552 H 0.88351 0.06094 0.09986 0.0
H553 H 0.87684 0.98987 0.11455 0.0
H554 H 0.91434 0.0565 0.01744 0.0
H555 H 0.90739 0.98559 0.02948 0.0
H556 H 0.93997 0.99338 0.79882 0.0
H557 H 0.91309 0.99419 0.89724 0.0
H558 H 0.95328 0.04218 0.00997 0.0
H559 H 0.98023 0.0413 0.91147 0.0
C560 C 0.88881 0.04433 0.08685 0.0
C561 C 0.87753 0.02577 0.11456 0.0
C562 C 0.90652 0.04181 0.03912 0.0
C563 C 0.91335 0.0207 0.01686 0.0
C564 C 0.90239 1.0021 0.04511 0.0
C565 C 0.88479 1.00459 0.09369 0.0
C566 C 0.94321 1.00386 0.84514 0.0
C567 C 0.9621 0.0174 0.84722 0.0
C568 C 0.92787 1.00424 0.90168 0.0
C569 C 0.93097 0.01836 0.96121 0.0
C570 C 0.9503 0.0313 0.96446 0.0
C571 C 0.96579 0.03072 0.90827 0.0
H572 H 0.4991 0.85724 0.98435 0.0
H573 H 0.50752 0.90657 0.15012 0.0
H574 H 0.50197 0.88545 0.89179 0.0
H575 H 0.51196 0.93509 0.0571 0.0
H576 H 0.49437 0.98369 0.87081 0.0
H577 H 0.49481 0.95696 0.97057 0.0
H578 H 0.52414 0.90839 0.8284 0.0
H579 H 0.5218 0.93448 0.72881 0.0
C580 C 0.50216 0.87415 1.00081 0.0
C581 C 0.5033 0.87966 0.07437 0.0
C582 C 0.50397 0.89046 0.94757 0.0
C583 C 0.50754 0.9128 0.96608 0.0
C584 C 0.50897 0.91824 0.04016 0.0
C585 C 0.50663 0.90188 0.09366 0.0
C586 C 0.50106 0.96731 0.86168 0.0
C587 C 0.50784 0.96099 0.79224 0.0
C588 C 0.50141 0.95193 0.91884 0.0
C589 C 0.50908 0.93012 0.90793 0.0
C590 C 0.51725 0.92457 0.839 0.0
C591 C 0.51622 0.93964 0.78179 0.0
H592 H 0.64974 0.55086 0.10439 0.0
H593 H 0.63867 0.48028 0.09808 0.0
H594 H 0.62028 0.5561 0.01493 0.0
H595 H 0.60913 0.48562 0.01033 0.0
H596 H 0.54645 0.50234 0.88764 0.0
H597 H 0.57183 0.50083 0.99113 0.0
H598 H 0.61477 0.5479 0.88568 0.0
H599 H 0.58935 0.5495 0.78285 0.0
C600 C 0.64103 0.53646 0.08437 0.0
C601 C 0.64671 0.51513 0.10895 0.0
C602 C 0.62408 0.53949 0.03313 0.0
C603 C 0.61228 0.52129 1.00542 0.0
C604 C 0.61756 0.50006 0.03135 0.0
C605 C 0.63456 0.49702 0.08207 0.0
C606 C 0.56114 0.51261 0.88717 0.0
C607 C 0.56599 0.52592 0.8269 0.0
C608 C 0.57577 0.51164 0.94622 0.0
C609 C 0.59547 0.5241 0.94657 0.0
C610 C 0.59971 0.53821 0.88763 0.0
C611 C 0.58518 0.53906 0.82846 0.0
H612 H 0.04432 0.64591 0.13656 0.0
H613 H 0.97665 0.66645 0.10026 0.0
H614 H 0.03928 0.61559 0.05214 0.0
H615 H 0.9717 0.63607 0.0148 0.0
H616 H 0.98511 0.60053 0.79483 0.0
H617 H 0.98508 0.62719 0.89368 0.0
H618 H 0.02053 0.58062 0.02868 0.0
H619 H 0.0208 0.55405 0.92916 0.0
C620 C 0.02818 0.6437 0.11194 0.0
C621 C 1.01091 0.65875 0.12545 0.0
C622 C 0.02531 0.62626 0.06323 0.0
C623 C 1.00511 0.62339 0.02635 0.0
C624 C 0.98758 0.63798 0.04146 0.0
C625 C 0.99043 0.65541 0.09048 0.0
C626 C 0.99264 0.59588 0.84595 0.0
C627 C 1.00315 0.5753 0.85401 0.0
C628 C 0.99252 0.61113 0.90282 0.0
C629 C 1.00296 0.60615 0.96908 0.0
C630 C 1.01264 0.58513 0.97804 0.0
C631 C 1.01268 0.56986 0.92119 0.0
H632 H 0.8959 0.21057 0.22836 0.0
H633 H 0.90946 0.23445 0.44462 0.0
H634 H 0.89022 0.17387 0.27572 0.0
H635 H 0.90628 0.19705 0.49054 0.0
H636 H 0.90625 0.12686 0.56071 0.0
H637 H 0.8911 0.16215 0.51843 0.0
H638 H 0.91891 0.14999 0.30692 0.0
H639 H 0.93337 0.11507 0.34848 0.0
C640 C 0.89717 0.20831 0.28628 0.0
C641 C 0.90417 0.22558 0.33203 0.0
C642 C 0.89427 0.18698 0.31335 0.0
C643 C 0.89893 0.1822 0.38627 0.0
C644 C 0.90292 0.19992 0.43373 0.0
C645 C 0.90517 0.22144 0.40699 0.0
C646 C 0.9087 0.13167 0.50485 0.0
C647 C 0.92109 0.11823 0.45802 0.0
C648 C 0.90004 0.15187 0.4806 0.0
C649 C 0.90377 0.15907 0.40923 0.0
C650 C 0.91515 0.14495 0.36172 0.0
C651 C 0.92361 0.12481 0.38571 0.0
H652 H 0.3053 0.90432 0.37392 0.0
H653 H 0.32554 0.90257 0.14975 0.0
H654 H 0.34387 0.90331 0.41103 0.0
H655 H 0.36372 0.89943 0.18722 0.0
H656 H 0.41888 0.94588 0.27177 0.0
H657 H 0.38483 0.9296 0.229 0.0
H658 H 0.38091 0.88984 0.42322 0.0
H659 H 0.41537 0.90651 0.46666 0.0
C660 C 0.31784 0.90302 0.33249 0.0
C661 C 0.31214 0.90457 0.25871 0.0
C662 C 0.34005 0.90208 0.35392 0.0
C663 C 0.35698 0.90214 0.30192 0.0
C664 C 0.35111 0.9002 0.22861 0.0
C665 C 0.32899 0.90164 0.20714 0.0
C666 C 0.41123 0.93315 0.3045 0.0
C667 C 0.41979 0.92766 0.37293 0.0
C668 C 0.39161 0.92368 0.27979 0.0
C669 C 0.37997 0.90839 0.3227 0.0
C670 C 0.38927 0.90179 0.38924 0.0
C671 C 0.40898 0.91135 0.41414 0.0
H672 H 0.64666 0.31612 0.30358 0.0
H673 H 0.58685 0.30479 0.4263 0.0
H674 H 0.6514 0.35162 0.36457 0.0
H675 H 0.59222 0.33935 0.48838 0.0
H676 H 0.60227 0.40269 0.59335 0.0
H677 H 0.61427 0.36511 0.56555 0.0
H678 H 0.62628 0.38457 0.34429 0.0
H679 H 0.614 0.42189 0.3715 0.0
C680 C 0.63486 0.32082 0.34469 0.0
C681 C 0.61604 0.30772 0.35835 0.0
C682 C 0.63769 0.34108 0.37991 0.0
C683 C 0.62203 0.34837 0.43047 0.0
C684 C 0.60471 0.33414 0.45011 0.0
C685 C 0.60167 0.31413 0.41428 0.0
C686 C 0.60785 0.39902 0.53908 0.0
C687 C 0.60667 0.41512 0.48417 0.0
C688 C 0.61487 0.37756 0.5234 0.0
C689 C 0.62098 0.37186 0.45264 0.0
C690 C 0.62188 0.3885 0.39954 0.0
C691 C 0.61475 0.40993 0.41511 0.0
H692 H 0.24167 0.51076 0.45494 0.0
H693 H 0.22117 0.44227 0.45917 0.0
H694 H 0.20774 0.52139 0.51366 0.0
H695 H 0.18674 0.45314 0.51809 0.0
H696 H 0.12057 0.48897 0.45293 0.0
H697 H 0.15733 0.47287 0.45177 0.0
H698 H 0.17948 0.5212 0.60805 0.0
H699 H 0.14239 0.53744 0.60912 0.0
C700 C 0.23043 0.49777 0.47143 0.0
C701 C 0.2339 0.47568 0.4505 0.0
C702 C 0.21083 0.50395 0.50521 0.0
C703 C 0.19431 0.48817 0.51857 0.0
C704 C 0.19901 0.46571 0.5066 0.0
C705 C 0.2187 0.4595 0.4729 0.0
C706 C 0.13314 0.49593 0.48808 0.0
C707 C 0.12866 0.51461 0.53053 0.0
C708 C 0.15419 0.48656 0.48802 0.0
C709 C 0.17128 0.49565 0.53031 0.0
C710 C 0.16664 0.5139 0.57472 0.0
C711 C 0.14551 0.52331 0.57473 0.0
H712 H 0.09305 0.81727 0.98687 0.0
H713 H 0.14863 0.82943 0.13037 0.0
H714 H 0.09738 0.85355 0.9356 0.0
H715 H 0.15158 0.86686 0.08159 0.0
H716 H 0.10741 0.91998 0.8483 0.0
H717 H 0.12249 0.88328 0.87329 0.0
H718 H 0.11925 0.89624 0.10237 0.0
H719 H 0.1033 0.93244 0.07811 0.0
C720 C 0.10676 0.82716 1.00616 0.0
C721 C 0.12005 0.82028 0.06493 0.0
C722 C 0.10913 0.84821 0.97651 0.0
C723 C 0.12454 0.86311 1.00556 0.0
C724 C 0.13935 0.8557 0.059 0.0
C725 C 0.13742 0.83432 0.08743 0.0
C726 C 0.11019 0.91515 0.90405 0.0
C727 C 0.1035 0.92894 0.96125 0.0
C728 C 0.11908 0.89425 0.91814 0.0
C729 C 0.12187 0.88693 0.98965 0.0
C730 C 0.11747 0.90158 0.04667 0.0
C731 C 0.10826 0.92236 0.03266 0.0
H732 H 0.69234 0.14742 0.15594 0.0
H733 H 0.71075 0.09816 0.99745 0.0
H734 H 0.65578 0.15015 0.09961 0.0
H735 H 0.67512 0.10207 0.93987 0.0
H736 H 0.6105 0.11386 0.83641 0.0
H737 H 0.64661 0.12711 0.87726 0.0
H738 H 0.62647 0.11858 0.09924 0.0
H739 H 0.59073 0.10463 0.05897 0.0
C740 C 0.68894 0.13756 0.10839 0.0
C741 C 0.70457 0.12216 0.08272 0.0
C742 C 0.66803 0.13931 0.07587 0.0
C743 C 0.66259 0.12619 0.01583 0.0
C744 C 0.67891 0.11257 0.9857 0.0
C745 C 0.69955 0.11044 0.01893 0.0
C746 C 0.61366 0.11504 0.89398 0.0
C747 C 0.59787 0.10764 0.94434 0.0
C748 C 0.63425 0.12283 0.91723 0.0
C749 C 0.63936 0.1237 0.99131 0.0
C750 C 0.6229 0.11829 0.04177 0.0
C751 C 0.60238 0.11025 0.01856 0.0
H752 H 0.39674 0.69639 0.21417 0.0
H753 H 0.39931 0.72028 0.99354 0.0
H754 H 0.39642 0.65878 0.1709 0.0
H755 H 0.40111 0.68238 0.95078 0.0
H756 H 0.40585 0.6112 0.88671 0.0
H757 H 0.38904 0.6453 0.9317 0.0
H758 H 0.4274 0.63918 0.12879 0.0
H759 H 0.4437 0.60536 0.08458 0.0
C760 C 0.39663 0.69382 0.15628 0.0
C761 C 0.3988 0.71163 0.1076 0.0
C762 C 0.39685 0.67205 0.13148 0.0
C763 C 0.39971 0.66749 0.05762 0.0
C764 C 0.39917 0.6852 0.00822 0.0
C765 C 0.39847 0.70704 0.03294 0.0
C766 C 0.4104 0.61707 0.94005 0.0
C767 C 0.42615 0.6056 0.98202 0.0
C768 C 0.40077 0.63659 0.96583 0.0
C769 C 0.40679 0.64506 0.03396 0.0
C770 C 0.42187 0.63299 0.07685 0.0
C771 C 0.43135 0.61353 0.05133 0.0
H772 H 0.82118 0.38192 0.15054 0.0
H773 H 0.80548 0.43336 0.99504 0.0
H774 H 0.85877 0.38034 0.10287 0.0
H775 H 0.84203 0.43039 0.9454 0.0
H776 H 0.90949 0.42519 0.86538 0.0
H777 H 0.8739 0.40762 0.88988 0.0
H778 H 0.88571 0.41413 0.11921 0.0
H779 H 0.92073 0.43242 0.09528 0.0
C780 C 0.82535 0.39245 0.10519 0.0
C781 C 0.81026 0.40841 0.079 0.0
C782 C 0.84685 0.39129 0.07746 0.0
C783 C 0.85335 0.40548 0.02129 0.0
C784 C 0.83745 0.41916 0.98858 0.0
C785 C 0.81624 0.42076 0.01734 0.0
C786 C 0.90465 0.42259 0.9211 0.0
C787 C 0.9177 0.43082 0.97834 0.0
C788 C 0.88441 0.41229 0.93496 0.0
C789 C 0.87702 0.40968 1.00632 0.0
C790 C 0.89111 0.41572 0.06363 0.0
C791 C 0.91121 0.42629 0.04981 0.0
H792 H 0.97758 0.20356 0.89153 0.0
H793 H 0.04717 0.20218 0.94657 0.0
H794 H 0.98052 0.16669 0.84069 0.0
H795 H 0.04999 0.16496 0.89629 0.0
H796 H 0.03772 0.08922 0.88511 0.0
H797 H 0.03722 0.12753 0.9256 0.0
H798 H 0.9964 0.14524 0.7421 0.0
H799 H 0.99665 0.10685 0.70189 0.0
C800 C 0.99365 0.19563 0.89158 0.0
C801 C 1.01216 0.20607 0.92315 0.0
C802 C 0.9953 0.17435 0.86249 0.0
C803 C 0.01548 0.16276 0.8644 0.0
C804 C 0.03411 0.17327 0.89478 0.0
C805 C 0.03249 0.19465 0.92363 0.0
C806 C 0.0287 0.10126 0.85307 0.0
C807 C 0.01712 0.09481 0.79032 0.0
C808 C 0.02856 0.12331 0.87612 0.0
C809 C 0.01674 0.13953 0.83727 0.0
C810 C 1.00546 0.13316 0.77387 0.0
C811 C 1.00569 0.11112 0.75061 0.0
H812 H 0.33196 0.05011 0.91925 0.0
H813 H 0.32733 0.98181 0.85267 0.0
H814 H 0.36913 0.05219 0.86794 0.0
H815 H 0.36416 0.98401 0.80109 0.0
H816 H 0.42327 1.00017 0.6594 0.0
H817 H 0.38537 1.00049 0.70389 0.0
H818 H 0.40639 0.03773 0.89102 0.0
H819 H 0.4443 0.03773 0.84607 0.0
C820 C 0.33878 0.03556 0.89359 0.0
C821 C 0.32644 0.01583 0.88993 0.0
C822 C 0.36014 0.03675 0.86422 0.0
C823 C 0.3697 0.01827 0.83023 0.0
C824 C 0.35723 0.99869 0.82563 0.0
C825 C 0.33598 0.99747 0.85513 0.0
C826 C 0.41986 1.00852 0.70992 0.0
C827 C 0.43697 0.01887 0.74913 0.0
C828 C 0.39808 1.00861 0.73565 0.0
C829 C 0.39276 0.01909 0.80122 0.0
C830 C 0.4098 0.02972 0.83992 0.0
C831 C 0.43161 0.02958 0.81431 0.0
H832 H 0.54107 0.33045 0.78576 0.0
H833 H 0.49513 0.34534 0.95748 0.0
H834 H 0.53802 0.36811 0.74191 0.0
H835 H 0.4905 0.38242 0.90961 0.0
H836 H 0.5082 0.4544 0.86854 0.0
H837 H 0.50853 0.41593 0.90616 0.0
H838 H 0.51864 0.39593 0.68421 0.0
H839 H 0.51941 0.43467 0.64754 0.0
C840 C 0.53008 0.34162 0.81387 0.0
C841 C 0.51868 0.33468 0.87629 0.0
C842 C 0.52805 0.36331 0.78781 0.0
C843 C 0.51422 0.37872 0.82246 0.0
C844 C 0.50181 0.37138 0.88231 0.0
C845 C 0.50413 0.3498 0.90911 0.0
C846 C 0.51043 0.44179 0.82768 0.0
C847 C 0.51389 0.44768 0.75502 0.0
C848 C 0.51044 0.41958 0.84919 0.0
C849 C 0.51351 0.40248 0.79849 0.0
C850 C 0.51662 0.40845 0.7254 0.0
C851 C 0.51698 0.43074 0.70411 0.0
H852 H 0.20008 0.53224 0.84661 0.0
H853 H 0.18401 0.47199 0.96061 0.0
H854 H 0.16137 0.53577 0.80843 0.0
H855 H 0.14569 0.47519 0.92108 0.0
H856 H 0.07465 0.50153 0.91105 0.0
H857 H 0.11352 0.49786 0.94487 0.0
H858 H 0.13281 0.51917 0.73126 0.0
H859 H 0.0939 0.52319 0.69749 0.0
C860 C 0.18836 0.51969 0.86325 0.0
C861 C 0.1953 0.50179 0.90657 0.0
C862 C 0.16617 0.52162 0.84087 0.0
C863 C 0.15028 0.50582 0.86189 0.0
C864 C 0.15732 0.48783 0.90453 0.0
C865 C 0.17945 0.48584 0.92644 0.0
C866 C 0.08713 0.5054 0.87109 0.0
C867 C 0.08099 0.51263 0.80146 0.0
C868 C 0.10949 0.50319 0.89041 0.0
C869 C 0.12641 0.50818 0.84079 0.0
C870 C 0.12028 0.51541 0.77112 0.0
C871 C 0.0979 0.51756 0.75164 0.0
H872 H 0.05402 0.85859 0.47098 0.0
H873 H 0.99073 0.84146 0.56282 0.0
H874 H 0.05054 0.89607 0.51842 0.0
H875 H 0.98741 0.87918 0.61179 0.0
H876 H 1.00924 0.94265 0.75161 0.0
H877 H 1.01051 0.90445 0.70709 0.0
H878 H 0.02278 0.92855 0.49118 0.0
H879 H 0.02113 0.96657 0.53485 0.0
C880 C 0.03944 0.86282 0.50198 0.0
C881 C 0.02269 0.84708 0.5136 0.0
C882 C 0.0374 0.8843 0.52872 0.0
C883 C 0.01873 0.89052 0.56876 0.0
C884 C 1.00204 0.87475 0.58138 0.0
C885 C 1.00387 0.85327 0.5532 0.0
C886 C 1.01212 0.93978 0.69461 0.0
C887 C 0.01508 0.95766 0.64677 0.0
C888 C 1.0127 0.91794 0.66915 0.0
C889 C 0.01674 0.91357 0.59573 0.0
C890 C 0.01972 0.93144 0.54808 0.0
C891 C 0.01871 0.95321 0.57314 0.0
H892 H 0.66921 1.01148 0.37695 0.0
H893 H 0.69633 1.0066 0.59275 0.0
H894 H 0.63202 1.0094 0.4254 0.0
H895 H 0.6589 1.00386 0.6418 0.0
H896 H 0.58869 0.02679 0.70707 0.0
H897 H 0.62677 0.02521 0.6638 0.0
H898 H 0.60512 0.98716 0.47888 0.0
H899 H 0.5671 0.9896 0.52058 0.0
C900 C 0.66724 1.00938 0.43477 0.0
C901 C 0.68581 1.00907 0.48085 0.0
C902 C 0.64581 1.00818 0.46277 0.0
C903 C 0.64225 1.00642 0.5378 0.0
C904 C 0.66088 1.00557 0.58388 0.0
C905 C 0.68238 1.00699 0.55578 0.0
C906 C 0.59212 0.01797 0.65743 0.0
C907 C 0.5748 1.0085 0.61699 0.0
C908 C 0.61402 0.01695 0.63269 0.0
C909 C 0.61918 1.00621 0.56728 0.0
C910 C 0.60186 0.99605 0.52846 0.0
C911 C 0.57999 0.99733 0.55265 0.0
H912 H 0.51056 0.68124 0.37768 0.0
H913 H 0.50774 0.70695 0.59498 0.0
H914 H 0.51427 0.64395 0.42519 0.0
H915 H 0.51223 0.66956 0.64324 0.0
H916 H 0.49508 0.59777 0.70329 0.0
H917 H 0.49349 0.63579 0.6592 0.0
H918 H 0.53707 0.61842 0.48328 0.0
H919 H 0.53779 0.58036 0.52557 0.0
C920 C 0.51127 0.67897 0.43579 0.0
C921 C 0.50897 0.69713 0.48248 0.0
C922 C 0.51342 0.65749 0.46325 0.0
C923 C 0.51357 0.65351 0.53837 0.0
C924 C 0.51178 0.6718 0.58514 0.0
C925 C 0.50937 0.6933 0.55754 0.0
C926 C 0.50435 0.60211 0.65528 0.0
C927 C 0.51643 0.58594 0.61773 0.0
C928 C 0.50358 0.624 0.63013 0.0
C929 C 0.51508 0.63037 0.56723 0.0
C930 C 0.52756 0.6142 0.53086 0.0
C931 C 0.52809 0.5923 0.55543 0.0
H932 H 0.82655 0.50272 0.61157 0.0
H933 H 0.84723 0.53829 0.42048 0.0
H934 H 0.86352 0.50613 0.66171 0.0
H935 H 0.88368 0.54343 0.47345 0.0
H936 H 0.95369 0.52471 0.54125 0.0
H937 H 0.91602 0.52415 0.49519 0.0
H938 H 0.89121 0.52711 0.71408 0.0
H939 H 0.9291 0.52646 0.76005 0.0
C940 C 0.83886 0.51152 0.58037 0.0
C941 C 0.83373 0.51988 0.51107 0.0
C942 C 0.86015 0.51379 0.60987 0.0
C943 C 0.87697 0.52485 0.57164 0.0
C944 C 0.87149 0.53428 0.50409 0.0
C945 C 0.85029 0.5317 0.47408 0.0
C946 C 0.94021 0.52531 0.57963 0.0
C947 C 0.94449 0.52561 0.65443 0.0
C948 C 0.91846 0.52518 0.55311 0.0
C949 C 0.90025 0.5257 0.60052 0.0
C950 C 0.90462 0.52631 0.67553 0.0
C951 C 0.92642 0.52608 0.70209 0.0
loop_
_geom_bond_atom_site_label_1
_geom_bond_atom_site_label_2
_geom_bond_distance
_geom_bond_site_symmetry_2
_ccdc_geom_bond_type
C0 C1 1.386 . S
C0 C2 1.397 . S
C0 H24 0.931 . S
C1 C0 1.386 . S
C1 C5 1.397 . S
C2 C0 1.397 . S
C2 C3 1.384 . S
C2 H25 0.930 . S
C3 C2 1.384 . S
C3 C4 1.377 . S
C3 C6 1.481 . S
C4 C3 1.377 . S
C4 C5 1.389 . S
C4 H26 0.929 . S
C5 C1 1.397 . S
C5 C4 1.389 . S
C5 H27 0.931 . S
C6 C3 1.481 . S
C6 C7 1.387 . S
C6 C11 1.390 . S
C7 C6 1.387 . S
C7 C8 1.401 . S
C7 H28 0.930 . S
C8 C7 1.401 . S
C8 C9 1.376 . S
C8 C17 1.511 . S
C9 C8 1.376 . S
C9 C10 1.392 . S
C9 H30 0.931 . S
C10 C9 1.392 . S
C10 C11 1.361 . S
C10 C12 1.500 . S
C11 C6 1.390 . S
C11 C10 1.361 . S
C11 H29 0.931 . S
C12 C10 1.500 . S
C12 C13 1.371 . S
C12 C14 1.365 . S
C13 C12 1.371 . S
C13 C23 1.386 . S
C13 H31 0.931 . S
C14 C12 1.365 . S
C14 C15 1.409 . S
C14 H32 0.929 . S
C15 C14 1.409 . S
C15 C16 1.380 . S
C15 H33 0.930 . S
C16 C15 1.380 . S
C16 C23 1.357 . S
C17 C8 1.511 . S
C17 C18 1.341 . S
C17 C19 1.371 . S
C18 C17 1.341 . S
C18 C22 1.394 . S
C18 H34 0.930 . S
C19 C17 1.371 . S
C19 C20 1.392 . S
C19 H35 0.931 . S
C20 C19 1.392 . S
C20 C21 1.331 . S
C20 H38 0.932 . S
C21 C20 1.331 . S
C21 C22 1.336 . S
C22 C18 1.394 . S
C22 C21 1.336 . S
C22 H37 0.929 . S
C23 C13 1.386 . S
C23 C16 1.357 . S
C23 H36 0.928 . S
H24 C0 0.931 . S
H25 C2 0.930 . S
H26 C4 0.929 . S
H27 C5 0.931 . S
H28 C7 0.930 . S
H29 C11 0.931 . S
H30 C9 0.931 . S
H31 C13 0.931 . S
H32 C14 0.929 . S
H33 C15 0.930 . S
H34 C18 0.930 . S
H35 C19 0.931 . S
H36 C23 0.928 . S
H37 C22 0.929 . S
H38 C20 0.932 . S
C39 C40 1.394 . S
C39 C41 1.397 . S
C39 H63 0.931 . S
C40 C39 1.394 . S
C40 C44 1.389 1_655 S
C41 C39 1.397 . S
C41 C42 1.389 . S
C41 H64 0.930 . S
C42 C41 1.389 . S
C42 C43 1.373 1_655 S
C42 C45 1.480 . S
C43 C42 1.373 1_455 S
C43 C44 1.389 . S
C43 H65 0.929 . S
C44 C40 1.389 1_455 S
C44 C43 1.389 . S
C44 H66 0.931 . S
C45 C42 1.480 . S
C45 C46 1.388 . S
C45 C50 1.390 . S
C46 C45 1.388 . S
C46 C47 1.402 . S
C46 H67 0.930 . S
C47 C46 1.402 . S
C47 C48 1.376 . S
C47 C56 1.513 . S
C48 C47 1.376 . S
C48 C49 1.392 . S
C48 H69 0.934 . S
C49 C48 1.392 . S
C49 C50 1.361 . S
C49 C51 1.499 1_655 S
C50 C45 1.390 . S
C50 C49 1.361 . S
C50 H68 0.931 . S
C51 C49 1.499 1_455 S
C51 C52 1.362 1_455 S
C51 C53 1.374 . S
C52 C51 1.362 1_655 S
C52 C62 1.386 . S
C52 H70 0.931 . S
C53 C51 1.374 . S
C53 C54 1.409 . S
C53 H71 0.929 . S
C54 C53 1.409 . S
C54 C55 1.379 . S
C54 H72 0.930 . S
C55 C54 1.379 . S
C55 C62 1.359 1_455 S
C56 C47 1.513 . S
C56 C57 1.341 . S
C56 C58 1.371 1_655 S
C57 C56 1.341 . S
C57 C61 1.394 . S
C57 H73 0.930 . S
C58 C56 1.371 1_455 S
C58 C59 1.392 . S
C58 H74 0.931 . S
C59 C58 1.392 . S
C59 C60 1.322 1_455 S
C59 H77 0.932 . S
C60 C59 1.322 1_655 S
C60 C61 1.345 . S
C61 C57 1.394 . S
C61 C60 1.345 . S
C61 H76 0.929 . S
C62 C52 1.386 . S
C62 C55 1.359 1_655 S
C62 H75 0.928 . S
H63 C39 0.931 . S
H64 C41 0.930 . S
H65 C43 0.929 . S
H66 C44 0.931 . S
H67 C46 0.930 . S
H68 C50 0.931 . S
H69 C48 0.934 . S
H70 C52 0.931 . S
H71 C53 0.929 . S
H72 C54 0.930 . S
H73 C57 0.930 . S
H74 C58 0.931 . S
H75 C62 0.928 . S
H76 C61 0.929 . S
H77 C59 0.932 . S
C78 C79 1.394 . S
C78 C80 1.397 . S
C78 H102 0.931 . S
C79 C78 1.394 . S
C79 C83 1.389 1_565 S
C80 C78 1.397 . S
C80 C81 1.389 . S
C80 H103 0.930 . S
C81 C80 1.389 . S
C81 C82 1.373 1_565 S
C81 C84 1.480 . S
C82 C81 1.373 1_545 S
C82 C83 1.389 . S
C82 H104 0.929 . S
C83 C79 1.389 1_545 S
C83 C82 1.389 . S
C83 H105 0.931 . S
C84 C81 1.480 . S
C84 C85 1.388 . S
C84 C89 1.390 . S
C85 C84 1.388 . S
C85 C86 1.402 . S
C85 H106 0.930 . S
C86 C85 1.402 . S
C86 C87 1.376 . S
C86 C95 1.513 . S
C87 C86 1.376 . S
C87 C88 1.392 . S
C87 H108 0.934 . S
C88 C87 1.392 . S
C88 C89 1.361 . S
C88 C90 1.499 1_565 S
C89 C84 1.390 . S
C89 C88 1.361 . S
C89 H107 0.931 . S
C90 C88 1.499 1_545 S
C90 C91 1.362 1_545 S
C90 C92 1.374 . S
C91 C90 1.362 1_565 S
C91 C101 1.386 . S
C91 H109 0.931 . S
C92 C90 1.374 . S
C92 C93 1.409 . S
C92 H110 0.929 . S
C93 C92 1.409 . S
C93 C94 1.379 . S
C93 H111 0.930 . S
C94 C93 1.379 . S
C94 C101 1.359 1_545 S
C95 C86 1.513 . S
C95 C96 1.341 . S
C95 C97 1.371 1_565 S
C96 C95 1.341 . S
C96 C100 1.394 . S
C96 H112 0.930 . S
C97 C95 1.371 1_545 S
C97 C98 1.392 . S
C97 H113 0.931 . S
C98 C97 1.392 . S
C98 C99 1.322 1_545 S
C98 H116 0.932 . S
C99 C98 1.322 1_565 S
C99 C100 1.345 . S
C100 C96 1.394 . S
C100 C99 1.345 . S
C100 H115 0.929 . S
C101 C91 1.386 . S
C101 C94 1.359 1_565 S
C101 H114 0.928 . S
H102 C78 0.931 . S
H103 C80 0.930 . S
H104 C82 0.929 . S
H105 C83 0.931 . S
H106 C85 0.930 . S
H107 C89 0.931 . S
H108 C87 0.934 . S
H109 C91 0.931 . S
H110 C92 0.929 . S
H111 C93 0.930 . S
H112 C96 0.930 . S
H113 C97 0.931 . S
H114 C101 0.928 . S
H115 C100 0.929 . S
H116 C98 0.932 . S
C117 C118 1.386 . S
C117 C119 1.397 . S
C117 H141 0.931 . S
C118 C117 1.386 . S
C118 C122 1.397 . S
C119 C117 1.397 . S
C119 C120 1.384 . S
C119 H142 0.930 . S
C120 C119 1.384 . S
C120 C121 1.377 . S
C120 C123 1.481 . S
C121 C120 1.377 . S
C121 C122 1.389 . S
C121 H143 0.929 . S
C122 C118 1.397 . S
C122 C121 1.389 . S
C122 H144 0.931 . S
C123 C120 1.481 . S
C123 C124 1.387 . S
C123 C128 1.390 . S
C124 C123 1.387 . S
C124 C125 1.401 . S
C124 H145 0.930 . S
C125 C124 1.401 . S
C125 C126 1.376 . S
C125 C134 1.511 . S
C126 C125 1.376 . S
C126 C127 1.392 . S
C126 H147 0.931 . S
C127 C126 1.392 . S
C127 C128 1.361 . S
C127 C129 1.500 . S
C128 C123 1.390 . S
C128 C127 1.361 . S
C128 H146 0.931 . S
C129 C127 1.500 . S
C129 C130 1.371 . S
C129 C131 1.365 . S
C130 C129 1.371 . S
C130 C140 1.386 . S
C130 H148 0.931 . S
C131 C129 1.365 . S
C131 C132 1.409 . S
C131 H149 0.929 . S
C132 C131 1.409 . S
C132 C133 1.380 . S
C132 H150 0.930 . S
C133 C132 1.380 . S
C133 C140 1.357 . S
C134 C125 1.511 . S
C134 C135 1.341 . S
C134 C136 1.371 . S
C135 C134 1.341 . S
C135 C139 1.394 . S
C135 H151 0.930 . S
C136 C134 1.371 . S
C136 C137 1.392 . S
C136 H152 0.931 . S
C137 C136 1.392 . S
C137 C138 1.331 . S
C137 H155 0.932 . S
C138 C137 1.331 . S
C138 C139 1.336 . S
C139 C135 1.394 . S
C139 C138 1.336 . S
C139 H154 0.929 . S
C140 C130 1.386 . S
C140 C133 1.357 . S
C140 H153 0.928 . S
H141 C117 0.931 . S
H142 C119 0.930 . S
H143 C121 0.929 . S
H144 C122 0.931 . S
H145 C124 0.930 . S
H146 C128 0.931 . S
H147 C126 0.931 . S
H148 C130 0.931 . S
H149 C131 0.929 . S
H150 C132 0.930 . S
H151 C135 0.930 . S
H152 C136 0.931 . S
H153 C140 0.928 . S
H154 C139 0.929 . S
H155 C137 0.932 . S
C156 C157 1.386 . S
C156 C158 1.397 . S
C156 H180 0.931 . S
C157 C156 1.386 . S
C157 C161 1.397 . S
C158 C156 1.397 . S
C158 C159 1.384 . S
C158 H181 0.930 . S
C159 C158 1.384 . S
C159 C160 1.377 . S
C159 C162 1.481 . S
C160 C159 1.377 . S
C160 C161 1.389 . S
C160 H182 0.929 . S
C161 C157 1.397 . S
C161 C160 1.389 . S
C161 H183 0.931 . S
C162 C159 1.481 . S
C162 C163 1.387 . S
C162 C167 1.390 . S
C163 C162 1.387 . S
C163 C164 1.401 . S
C163 H184 0.930 . S
C164 C163 1.401 . S
C164 C165 1.376 1_554 S
C164 C173 1.511 . S
C165 C164 1.376 1_556 S
C165 C166 1.392 . S
C165 H186 0.931 . S
C166 C165 1.392 . S
C166 C167 1.361 1_556 S
C166 C168 1.500 . S
C167 C162 1.390 . S
C167 C166 1.361 1_554 S
C167 H185 0.931 . S
C168 C166 1.500 . S
C168 C169 1.371 . S
C168 C170 1.365 . S
C169 C168 1.371 . S
C169 C179 1.386 . S
C169 H187 0.931 . S
C170 C168 1.365 . S
C170 C171 1.409 . S
C170 H188 0.929 . S
C171 C170 1.409 . S
C171 C172 1.380 . S
C171 H189 0.930 . S
C172 C171 1.380 . S
C172 C179 1.357 . S
C173 C164 1.511 . S
C173 C174 1.341 . S
C173 C175 1.371 . S
C174 C173 1.341 . S
C174 C178 1.394 . S
C174 H190 0.930 . S
C175 C173 1.371 . S
C175 C176 1.392 . S
C175 H191 0.931 1_554 S
C176 C175 1.392 . S
C176 C177 1.331 . S
C176 H194 0.932 . S
C177 C176 1.331 . S
C177 C178 1.336 . S
C178 C174 1.394 . S
C178 C177 1.336 . S
C178 H193 0.929 . S
C179 C169 1.386 . S
C179 C172 1.357 . S
C179 H192 0.928 . S
H180 C156 0.931 . S
H181 C158 0.930 . S
H182 C160 0.929 . S
H183 C161 0.931 . S
H184 C163 0.930 . S
H185 C167 0.931 . S
H186 C165 0.931 . S
H187 C169 0.931 . S
H188 C170 0.929 . S
H189 C171 0.930 . S
H190 C174 0.930 . S
H191 C175 0.931 1_556 S
H192 C179 0.928 . S
H193 C178 0.929 . S
H194 C176 0.932 . S
C195 C196 1.387 . S
C195 C197 1.397 . S
C195 H219 0.931 . S
C196 C195 1.387 . S
C196 C200 1.396 1_655 S
C197 C195 1.397 . S
C197 C198 1.381 . S
C197 H220 0.930 . S
C198 C197 1.381 . S
C198 C199 1.380 1_655 S
C198 C201 1.480 . S
C199 C198 1.380 1_455 S
C199 C200 1.389 . S
C199 H221 0.929 . S
C200 C196 1.396 1_455 S
C200 C199 1.389 . S
C200 H222 0.931 . S
C201 C198 1.480 . S
C201 C202 1.388 . S
C201 C206 1.390 . S
C202 C201 1.388 . S
C202 C203 1.402 . S
C202 H223 0.930 . S
C203 C202 1.402 . S
C203 C204 1.376 1_554 S
C203 C212 1.512 . S
C204 C203 1.376 1_556 S
C204 C205 1.392 1_655 S
C204 H225 0.933 . S
C205 C204 1.392 1_455 S
C205 C206 1.361 1_456 S
C205 C207 1.499 . S
C206 C201 1.390 . S
C206 C205 1.361 1_654 S
C206 H224 0.931 . S
C207 C205 1.499 . S
C207 C208 1.357 1_455 S
C207 C209 1.380 . S
C208 C207 1.357 1_655 S
C208 C218 1.386 . S
C208 H226 0.931 . S
C209 C207 1.380 . S
C209 C210 1.409 . S
C209 H227 0.929 . S
C210 C209 1.409 . S
C210 C211 1.384 . S
C210 H228 0.930 . S
C211 C210 1.384 . S
C211 C218 1.353 1_455 S
C212 C203 1.512 . S
C212 C213 1.341 . S
C212 C214 1.371 1_655 S
C213 C212 1.341 . S
C213 C217 1.394 . S
C213 H229 0.930 . S
C214 C212 1.371 1_455 S
C214 C215 1.392 . S
C214 H230 0.931 1_554 S
C215 C214 1.392 . S
C215 C216 1.326 1_455 S
C215 H233 0.932 . S
C216 C215 1.326 1_655 S
C216 C217 1.341 . S
C217 C213 1.394 . S
C217 C216 1.341 . S
C217 H232 0.929 . S
C218 C208 1.386 . S
C218 C211 1.353 1_655 S
C218 H231 0.928 . S
H219 C195 0.931 . S
H220 C197 0.930 . S
H221 C199 0.929 . S
H222 C200 0.931 . S
H223 C202 0.930 . S
H224 C206 0.931 . S
H225 C204 0.933 . S
H226 C208 0.931 . S
H227 C209 0.929 . S
H228 C210 0.930 . S
H229 C213 0.930 . S
H230 C214 0.931 1_556 S
H231 C218 0.928 . S
H232 C217 0.929 . S
H233 C215 0.932 . S
C234 C235 1.387 . S
C234 C236 1.397 . S
C234 H258 0.931 . S
C235 C234 1.387 . S
C235 C239 1.396 1_565 S
C236 C234 1.397 . S
C236 C237 1.381 . S
C236 H259 0.930 . S
C237 C236 1.381 . S
C237 C238 1.380 1_565 S
C237 C240 1.480 . S
C238 C237 1.380 1_545 S
C238 C239 1.389 . S
C238 H260 0.929 . S
C239 C235 1.396 1_545 S
C239 C238 1.389 . S
C239 H261 0.931 . S
C240 C237 1.480 . S
C240 C241 1.388 . S
C240 C245 1.390 . S
C241 C240 1.388 . S
C241 C242 1.402 . S
C241 H262 0.930 . S
C242 C241 1.402 . S
C242 C243 1.376 1_554 S
C242 C251 1.512 . S
C243 C242 1.376 1_556 S
C243 C244 1.392 1_565 S
C243 H264 0.933 . S
C244 C243 1.392 1_545 S
C244 C245 1.361 1_546 S
C244 C246 1.499 . S
C245 C240 1.390 . S
C245 C244 1.361 1_564 S
C245 H263 0.931 . S
C246 C244 1.499 . S
C246 C247 1.357 1_545 S
C246 C248 1.380 . S
C247 C246 1.357 1_565 S
C247 C257 1.386 . S
C247 H265 0.931 . S
C248 C246 1.380 . S
C248 C249 1.409 . S
C248 H266 0.929 . S
C249 C248 1.409 . S
C249 C250 1.384 . S
C249 H267 0.930 . S
C250 C249 1.384 . S
C250 C257 1.353 1_545 S
C251 C242 1.512 . S
C251 C252 1.341 . S
C251 C253 1.371 1_565 S
C252 C251 1.341 . S
C252 C256 1.394 . S
C252 H268 0.930 . S
C253 C251 1.371 1_545 S
C253 C254 1.392 . S
C253 H269 0.931 1_554 S
C254 C253 1.392 . S
C254 C255 1.326 1_545 S
C254 H272 0.932 . S
C255 C254 1.326 1_565 S
C255 C256 1.341 . S
C256 C252 1.394 . S
C256 C255 1.341 . S
C256 H271 0.929 . S
C257 C247 1.386 . S
C257 C250 1.353 1_565 S
C257 H270 0.928 . S
H258 C234 0.931 . S
H259 C236 0.930 . S
H260 C238 0.929 . S
H261 C239 0.931 . S
H262 C241 0.930 . S
H263 C245 0.931 . S
H264 C243 0.933 . S
H265 C247 0.931 . S
H266 C248 0.929 . S
H267 C249 0.930 . S
H268 C252 0.930 . S
H269 C253 0.931 1_556 S
H270 C257 0.928 . S
H271 C256 0.929 . S
H272 C254 0.932 . S
C273 C274 1.386 . S
C273 C275 1.397 . S
C273 H297 0.931 . S
C274 C273 1.386 . S
C274 C278 1.397 . S
C275 C273 1.397 . S
C275 C276 1.384 . S
C275 H298 0.930 . S
C276 C275 1.384 . S
C276 C277 1.377 . S
C276 C279 1.481 . S
C277 C276 1.377 . S
C277 C278 1.389 . S
C277 H299 0.929 . S
C278 C274 1.397 . S
C278 C277 1.389 . S
C278 H300 0.931 . S
C279 C276 1.481 . S
C279 C280 1.387 . S
C279 C284 1.390 1_556 S
C280 C279 1.387 . S
C280 C281 1.401 1_556 S
C280 H301 0.930 . S
C281 C280 1.401 1_554 S
C281 C282 1.376 . S
C281 C290 1.511 . S
C282 C281 1.376 . S
C282 C283 1.392 . S
C282 H303 0.931 . S
C283 C282 1.392 . S
C283 C284 1.361 . S
C283 C285 1.500 . S
C284 C279 1.390 1_554 S
C284 C283 1.361 . S
C284 H302 0.931 . S
C285 C283 1.500 . S
C285 C286 1.371 . S
C285 C287 1.365 . S
C286 C285 1.371 . S
C286 C296 1.386 . S
C286 H304 0.931 . S
C287 C285 1.365 . S
C287 C288 1.409 . S
C287 H305 0.929 . S
C288 C287 1.409 . S
C288 C289 1.380 . S
C288 H306 0.930 . S
C289 C288 1.380 . S
C289 C296 1.357 . S
C290 C281 1.511 . S
C290 C291 1.341 . S
C290 C292 1.371 . S
C291 C290 1.341 . S
C291 C295 1.394 . S
C291 H307 0.930 1_554 S
C292 C290 1.371 . S
C292 C293 1.392 . S
C292 H308 0.931 . S
C293 C292 1.392 . S
C293 C294 1.331 . S
C293 H311 0.932 . S
C294 C293 1.331 . S
C294 C295 1.336 . S
C295 C291 1.394 . S
C295 C294 1.336 . S
C295 H310 0.929 . S
C296 C286 1.386 . S
C296 C289 1.357 . S
C296 H309 0.928 . S
H297 C273 0.931 . S
H298 C275 0.930 . S
H299 C277 0.929 . S
H300 C278 0.931 . S
H301 C280 0.930 . S
H302 C284 0.931 . S
H303 C282 0.931 . S
H304 C286 0.931 . S
H305 C287 0.929 . S
H306 C288 0.930 . S
H307 C291 0.930 1_556 S
H308 C292 0.931 . S
H309 C296 0.928 . S
H310 C295 0.929 . S
H311 C293 0.932 . S
Sm312 C314 2.846 . S
Sm312 O332 2.543 . S
Sm312 O333 2.450 . S
Sm312 O334 2.681 1_565 S
Sm312 O335 2.464 . S
Sm312 O336 2.396 . S
Sm312 O340 2.386 1_455 S
Sm312 O343 2.408 1_565 S
Sm313 C323 2.846 . S
Sm313 O334 2.386 1_655 S
Sm313 O337 2.408 1_545 S
Sm313 O338 2.543 . S
Sm313 O339 2.450 . S
Sm313 O340 2.681 1_545 S
Sm313 O341 2.464 . S
Sm313 O342 2.396 . S
C314 Sm312 2.846 . S
C314 C315 1.506 . S
C314 O332 1.261 . S
C314 O333 1.242 . S
C315 C314 1.506 . S
C315 C316 1.358 . S
C315 C320 1.382 . S
C316 C315 1.358 . S
C316 C317 1.385 . S
C316 H344 0.930 1_455 S
C317 C316 1.385 . S
C317 C318 1.395 . S
C317 H345 0.929 1_455 S
C318 C317 1.395 . S
C318 C319 1.335 . S
C319 C318 1.335 . S
C319 C320 1.398 . S
C319 H346 0.930 . S
C320 C315 1.382 . S
C320 C319 1.398 . S
C320 H347 0.929 . S
C321 O334 1.271 1_565 S
C321 O335 1.251 . S
C322 O336 1.252 1_655 S
C322 O337 1.272 . S
C323 Sm313 2.846 . S
C323 C324 1.506 . S
C323 O338 1.261 . S
C323 O339 1.242 . S
C324 C323 1.506 . S
C324 C325 1.358 . S
C324 C329 1.382 . S
C325 C324 1.358 . S
C325 C326 1.385 . S
C325 H348 0.930 1_655 S
C326 C325 1.385 . S
C326 C327 1.395 . S
C326 H349 0.929 1_655 S
C327 C326 1.395 . S
C327 C328 1.335 . S
C328 C327 1.335 . S
C328 C329 1.398 . S
C328 H350 0.930 . S
C329 C324 1.382 . S
C329 C328 1.398 . S
C329 H351 0.929 . S
C330 O340 1.271 1_545 S
C330 O341 1.251 . S
C331 O342 1.252 1_455 S
C331 O343 1.272 . S
O332 Sm312 2.543 . S
O332 C314 1.261 . S
O333 Sm312 2.450 . S
O333 C314 1.242 . S
O334 Sm312 2.681 1_545 S
O334 Sm313 2.386 1_455 S
O334 C321 1.271 1_545 S
O335 Sm312 2.464 . S
O335 C321 1.251 . S
O336 Sm312 2.396 . S
O336 C322 1.252 1_455 S
O337 Sm313 2.408 1_565 S
O337 C322 1.272 . S
O338 Sm313 2.543 . S
O338 C323 1.261 . S
O339 Sm313 2.450 . S
O339 C323 1.242 . S
O340 Sm312 2.386 1_655 S
O340 Sm313 2.681 1_565 S
O340 C330 1.271 1_565 S
O341 Sm313 2.464 . S
O341 C330 1.251 . S
O342 Sm313 2.396 . S
O342 C331 1.252 1_655 S
O343 Sm312 2.408 1_545 S
O343 C331 1.272 . S
H344 C316 0.930 1_655 S
H345 C317 0.929 1_655 S
H346 C319 0.930 . S
H347 C320 0.929 . S
H348 C325 0.930 1_455 S
H349 C326 0.929 1_455 S
H350 C328 0.930 . S
H351 C329 0.929 . S
Sm352 C354 2.846 . S
Sm352 O372 2.543 . S
Sm352 O373 2.450 . S
Sm352 O374 2.681 . S
Sm352 O375 2.464 . S
Sm352 O376 2.396 . S
Sm352 O380 2.386 1_545 S
Sm352 O383 2.408 . S
Sm353 C363 2.846 . S
Sm353 O374 2.386 1_565 S
Sm353 O377 2.408 . S
Sm353 O378 2.543 . S
Sm353 O379 2.450 . S
Sm353 O380 2.681 . S
Sm353 O381 2.464 . S
Sm353 O382 2.396 . S
C354 Sm352 2.846 . S
C354 C355 1.506 . S
C354 O372 1.261 . S
C354 O373 1.242 . S
C355 C354 1.506 . S
C355 C356 1.358 . S
C355 C360 1.382 . S
C356 C355 1.358 . S
C356 C357 1.385 . S
C356 H384 0.930 1_545 S
C357 C356 1.385 . S
C357 C358 1.395 . S
C357 H385 0.929 1_545 S
C358 C357 1.395 . S
C358 C359 1.335 . S
C359 C358 1.335 . S
C359 C360 1.398 . S
C359 H386 0.930 . S
C360 C355 1.382 . S
C360 C359 1.398 . S
C360 H387 0.929 . S
C361 O374 1.271 . S
C361 O375 1.251 . S
C362 O376 1.252 1_565 S
C362 O377 1.272 . S
C363 Sm353 2.846 . S
C363 C364 1.506 . S
C363 O378 1.261 . S
C363 O379 1.242 . S
C364 C363 1.506 . S
C364 C365 1.358 . S
C364 C369 1.382 . S
C365 C364 1.358 . S
C365 C366 1.385 . S
C365 H388 0.930 1_565 S
C366 C365 1.385 . S
C366 C367 1.395 . S
C366 H389 0.929 1_565 S
C367 C366 1.395 . S
C367 C368 1.335 . S
C368 C367 1.335 . S
C368 C369 1.398 . S
C368 H390 0.930 . S
C369 C364 1.382 . S
C369 C368 1.398 . S
C369 H391 0.929 . S
C370 O380 1.271 . S
C370 O381 1.251 . S
C371 O382 1.252 1_545 S
C371 O383 1.272 . S
O372 Sm352 2.543 . S
O372 C354 1.261 . S
O373 Sm352 2.450 . S
O373 C354 1.242 . S
O374 Sm352 2.681 . S
O374 Sm353 2.386 1_545 S
O374 C361 1.271 . S
O375 Sm352 2.464 . S
O375 C361 1.251 . S
O376 Sm352 2.396 . S
O376 C362 1.252 1_545 S
O377 Sm353 2.408 . S
O377 C362 1.272 . S
O378 Sm353 2.543 . S
O378 C363 1.261 . S
O379 Sm353 2.450 . S
O379 C363 1.242 . S
O380 Sm352 2.386 1_565 S
O380 Sm353 2.681 . S
O380 C370 1.271 . S
O381 Sm353 2.464 . S
O381 C370 1.251 . S
O382 Sm353 2.396 . S
O382 C371 1.252 1_565 S
O383 Sm352 2.408 . S
O383 C371 1.272 . S
H384 C356 0.930 1_565 S
H385 C357 0.929 1_565 S
H386 C359 0.930 . S
H387 C360 0.929 . S
H388 C365 0.930 1_545 S
H389 C366 0.929 1_545 S
H390 C368 0.930 . S
H391 C369 0.929 . S
Sm392 C394 2.846 . S
Sm392 O412 2.543 . S
Sm392 O413 2.450 . S
Sm392 O414 2.681 . S
Sm392 O415 2.464 . S
Sm392 O416 2.396 . S
Sm392 O420 2.386 . S
Sm392 O423 2.408 . S
Sm393 C403 2.846 . S
Sm393 O414 2.386 . S
Sm393 O417 2.408 . S
Sm393 O418 2.543 . S
Sm393 O419 2.450 . S
Sm393 O420 2.681 . S
Sm393 O421 2.464 . S
Sm393 O422 2.396 . S
C394 Sm392 2.846 . S
C394 C395 1.506 . S
C394 O412 1.261 . S
C394 O413 1.242 . S
C395 C394 1.506 . S
C395 C396 1.358 . S
C395 C400 1.382 . S
C396 C395 1.358 . S
C396 C397 1.385 . S
C396 H424 0.930 . S
C397 C396 1.385 . S
C397 C398 1.395 . S
C397 H425 0.929 . S
C398 C397 1.395 . S
C398 C399 1.335 . S
C399 C398 1.335 . S
C399 C400 1.398 . S
C399 H426 0.930 . S
C400 C395 1.382 . S
C400 C399 1.398 . S
C400 H427 0.929 . S
C401 O414 1.271 . S
C401 O415 1.251 . S
C402 O416 1.252 . S
C402 O417 1.272 . S
C403 Sm393 2.846 . S
C403 C404 1.506 . S
C403 O418 1.261 . S
C403 O419 1.242 . S
C404 C403 1.506 . S
C404 C405 1.358 . S
C404 C409 1.382 . S
C405 C404 1.358 . S
C405 C406 1.385 . S
C405 H428 0.930 . S
C406 C405 1.385 . S
C406 C407 1.395 . S
C406 H429 0.929 . S
C407 C406 1.395 . S
C407 C408 1.335 . S
C408 C407 1.335 . S
C408 C409 1.398 . S
C408 H430 0.930 . S
C409 C404 1.382 . S
C409 C408 1.398 . S
C409 H431 0.929 . S
C410 O420 1.271 . S
C410 O421 1.251 . S
C411 O422 1.252 . S
C411 O423 1.272 . S
O412 Sm392 2.543 . S
O412 C394 1.261 . S
O413 Sm392 2.450 . S
O413 C394 1.242 . S
O414 Sm392 2.681 . S
O414 Sm393 2.386 . S
O414 C401 1.271 . S
O415 Sm392 2.464 . S
O415 C401 1.251 . S
O416 Sm392 2.396 . S
O416 C402 1.252 . S
O417 Sm393 2.408 . S
O417 C402 1.272 . S
O418 Sm393 2.543 . S
O418 C403 1.261 . S
O419 Sm393 2.450 . S
O419 C403 1.242 . S
O420 Sm392 2.386 . S
O420 Sm393 2.681 . S
O420 C410 1.271 . S
O421 Sm393 2.464 . S
O421 C410 1.251 . S
O422 Sm393 2.396 . S
O422 C411 1.252 . S
O423 Sm392 2.408 . S
O423 C411 1.272 . S
H424 C396 0.930 . S
H425 C397 0.929 . S
H426 C399 0.930 . S
H427 C400 0.929 . S
H428 C405 0.930 . S
H429 C406 0.929 . S
H430 C408 0.930 . S
H431 C409 0.929 . S
Sm432 C434 2.846 . S
Sm432 O452 2.543 . S
Sm432 O453 2.450 . S
Sm432 O454 2.681 1_655 S
Sm432 O455 2.464 . S
Sm432 O456 2.396 . S
Sm432 O460 2.386 . S
Sm432 O463 2.408 1_655 S
Sm433 C443 2.846 . S
Sm433 O454 2.386 . S
Sm433 O457 2.408 1_455 S
Sm433 O458 2.543 . S
Sm433 O459 2.450 . S
Sm433 O460 2.681 1_455 S
Sm433 O461 2.464 . S
Sm433 O462 2.396 . S
C434 Sm432 2.846 . S
C434 C435 1.506 . S
C434 O452 1.261 . S
C434 O453 1.242 . S
C435 C434 1.506 . S
C435 C436 1.358 . S
C435 C440 1.382 . S
C436 C435 1.358 . S
C436 C437 1.385 . S
C436 H464 0.930 . S
C437 C436 1.385 . S
C437 C438 1.395 . S
C437 H465 0.929 . S
C438 C437 1.395 . S
C438 C439 1.335 . S
C439 C438 1.335 . S
C439 C440 1.398 . S
C439 H466 0.930 . S
C440 C435 1.382 . S
C440 C439 1.398 . S
C440 H467 0.929 . S
C441 O454 1.260 1_655 S
C441 O455 1.270 . S
C442 O456 1.252 . S
C442 O457 1.272 . S
C443 Sm433 2.846 . S
C443 C444 1.506 . S
C443 O458 1.261 . S
C443 O459 1.242 . S
C444 C443 1.506 . S
C444 C445 1.358 . S
C444 C449 1.382 . S
C445 C444 1.358 . S
C445 C446 1.385 . S
C445 H468 0.930 . S
C446 C445 1.385 . S
C446 C447 1.395 . S
C446 H469 0.929 . S
C447 C446 1.395 . S
C447 C448 1.335 . S
C448 C447 1.335 . S
C448 C449 1.398 . S
C448 H470 0.930 . S
C449 C444 1.382 . S
C449 C448 1.398 . S
C449 H471 0.929 . S
C450 O460 1.257 1_455 S
C450 O461 1.277 . S
C451 O462 1.252 . S
C451 O463 1.272 . S
O452 Sm432 2.543 . S
O452 C434 1.261 . S
O453 Sm432 2.450 . S
O453 C434 1.242 . S
O454 Sm432 2.681 1_455 S
O454 Sm433 2.386 . S
O454 C441 1.260 1_455 S
O455 Sm432 2.464 . S
O455 C441 1.270 . S
O456 Sm432 2.396 . S
O456 C442 1.252 . S
O457 Sm433 2.408 1_655 S
O457 C442 1.272 . S
O458 Sm433 2.543 . S
O458 C443 1.261 . S
O459 Sm433 2.450 . S
O459 C443 1.242 . S
O460 Sm432 2.386 . S
O460 Sm433 2.681 1_655 S
O460 C450 1.257 1_655 S
O461 Sm433 2.464 . S
O461 C450 1.277 . S
O462 Sm433 2.396 . S
O462 C451 1.252 . S
O463 Sm432 2.408 1_455 S
O463 C451 1.272 . S
H464 C436 0.930 . S
H465 C437 0.929 . S
H466 C439 0.930 . S
H467 C440 0.929 . S
H468 C445 0.930 . S
H469 C446 0.929 . S
H470 C448 0.930 . S
H471 C449 0.929 . S
H472 C480 0.950 . S
H473 C485 0.950 . S
H474 C482 0.950 . S
H475 C484 0.950 . S
H476 C486 0.950 . S
H477 C488 0.950 . S
H478 C490 0.950 . S
H479 C491 0.950 . S
C480 H472 0.950 . S
C480 C481 1.376 1_565 S
C480 C482 1.391 . S
C481 C480 1.376 1_545 S
C481 C485 1.402 . S
C482 H474 0.950 . S
C482 C480 1.391 . S
C482 C483 1.373 1_565 S
C483 C482 1.373 1_545 S
C483 C484 1.425 . S
C483 C489 1.490 . S
C484 H475 0.950 . S
C484 C483 1.425 . S
C484 C485 1.391 . S
C485 H473 0.950 . S
C485 C481 1.402 . S
C485 C484 1.391 . S
C486 H476 0.950 . S
C486 C487 1.386 . S
C486 C488 1.391 . S
C487 C486 1.386 . S
C487 C491 1.393 1_545 S
C488 H477 0.950 . S
C488 C486 1.391 . S
C488 C489 1.439 . S
C489 C483 1.490 . S
C489 C488 1.439 . S
C489 C490 1.361 1_545 S
C490 H478 0.950 . S
C490 C489 1.361 1_565 S
C490 C491 1.391 . S
C491 H479 0.950 . S
C491 C487 1.393 1_565 S
C491 C490 1.391 . S
H492 C500 0.950 . S
H493 C505 0.950 . S
H494 C502 0.950 . S
H495 C504 0.950 . S
H496 C506 0.950 . S
H497 C508 0.950 . S
H498 C510 0.950 . S
H499 C511 0.950 . S
C500 H492 0.950 . S
C500 C501 1.386 . S
C500 C502 1.391 . S
C501 C500 1.386 . S
C501 C505 1.393 . S
C502 H494 0.950 . S
C502 C500 1.391 . S
C502 C503 1.400 . S
C503 C502 1.400 . S
C503 C504 1.398 . S
C503 C509 1.491 . S
C504 H495 0.950 . S
C504 C503 1.398 . S
C504 C505 1.391 . S
C505 H493 0.950 . S
C505 C501 1.393 . S
C505 C504 1.391 . S
C506 H496 0.950 . S
C506 C507 1.386 . S
C506 C508 1.391 . S
C507 C506 1.386 . S
C507 C511 1.393 . S
C508 H497 0.950 . S
C508 C506 1.391 . S
C508 C509 1.400 . S
C509 C503 1.491 . S
C509 C508 1.400 . S
C509 C510 1.398 . S
C510 H498 0.950 . S
C510 C509 1.398 . S
C510 C511 1.391 . S
C511 H499 0.950 . S
C511 C507 1.393 . S
C511 C510 1.391 . S
H512 C520 0.950 . S
H513 C525 0.950 . S
H514 C522 0.950 . S
H515 C524 0.950 . S
H516 C526 0.950 . S
H517 C528 0.950 . S
H518 C530 0.950 . S
H519 C531 0.950 . S
C520 H512 0.950 . S
C520 C521 1.386 . S
C520 C522 1.391 . S
C521 C520 1.386 . S
C521 C525 1.393 . S
C522 H514 0.950 . S
C522 C520 1.391 . S
C522 C523 1.400 . S
C523 C522 1.400 . S
C523 C524 1.398 . S
C523 C529 1.491 . S
C524 H515 0.950 . S
C524 C523 1.398 . S
C524 C525 1.391 . S
C525 H513 0.950 . S
C525 C521 1.393 . S
C525 C524 1.391 . S
C526 H516 0.950 . S
C526 C527 1.386 . S
C526 C528 1.391 . S
C527 C526 1.386 . S
C527 C531 1.393 . S
C528 H517 0.950 . S
C528 C526 1.391 . S
C528 C529 1.400 . S
C529 C523 1.491 . S
C529 C528 1.400 . S
C529 C530 1.398 . S
C530 H518 0.950 . S
C530 C529 1.398 . S
C530 C531 1.391 . S
C531 H519 0.950 . S
C531 C527 1.393 . S
C531 C530 1.391 . S
H532 C540 0.950 . S
H533 C545 0.950 . S
H534 C542 0.950 . S
H535 C544 0.950 . S
H536 C546 0.950 . S
H537 C548 0.950 . S
H538 C550 0.950 . S
H539 C551 0.950 . S
C540 H532 0.950 . S
C540 C541 1.400 . S
C540 C542 1.391 . S
C541 C540 1.400 . S
C541 C545 1.379 1_455 S
C542 H534 0.950 . S
C542 C540 1.391 . S
C542 C543 1.437 . S
C543 C542 1.437 . S
C543 C544 1.362 1_455 S
C543 C549 1.491 . S
C544 H535 0.950 . S
C544 C543 1.362 1_655 S
C544 C545 1.391 . S
C545 H533 0.950 . S
C545 C541 1.379 1_655 S
C545 C544 1.391 . S
C546 H536 0.950 . S
C546 C547 1.386 1_655 S
C546 C548 1.391 . S
C547 C546 1.386 1_455 S
C547 C551 1.393 . S
C548 H537 0.950 . S
C548 C546 1.391 . S
C548 C549 1.355 1_655 S
C549 C543 1.491 . S
C549 C548 1.355 1_455 S
C549 C550 1.445 . S
C550 H538 0.950 . S
C550 C549 1.445 . S
C550 C551 1.391 . S
C551 H539 0.950 . S
C551 C547 1.393 . S
C551 C550 1.391 . S
H552 C560 0.950 . S
H553 C565 0.950 . S
H554 C562 0.950 . S
H555 C564 0.950 . S
H556 C566 0.950 . S
H557 C568 0.950 . S
H558 C570 0.950 1_554 S
H559 C571 0.950 . S
C560 H552 0.950 . S
C560 C561 1.363 1_545 S
C560 C562 1.391 . S
C561 C560 1.363 1_565 S
C561 C565 1.417 . S
C562 H554 0.950 . S
C562 C560 1.391 . S
C562 C563 1.375 1_545 S
C563 C562 1.375 1_565 S
C563 C564 1.425 . S
C563 C569 1.490 1_554 S
C564 H555 0.950 . S
C564 C563 1.425 . S
C564 C565 1.391 . S
C565 H553 0.950 . S
C565 C561 1.417 . S
C565 C564 1.391 . S
C566 H556 0.950 . S
C566 C567 1.397 . S
C566 C568 1.391 . S
C567 C566 1.397 . S
C567 C571 1.382 1_565 S
C568 H557 0.950 . S
C568 C566 1.391 . S
C568 C569 1.409 . S
C569 C563 1.490 1_556 S
C569 C568 1.409 . S
C569 C570 1.389 1_565 S
C570 H558 0.950 1_556 S
C570 C569 1.389 1_545 S
C570 C571 1.391 . S
C571 H559 0.950 . S
C571 C567 1.382 1_545 S
C571 C570 1.391 . S
H572 C580 0.950 . S
H573 C585 0.950 . S
H574 C582 0.950 . S
H575 C584 0.950 . S
H576 C586 0.950 . S
H577 C588 0.950 1_554 S
H578 C590 0.950 . S
H579 C591 0.950 . S
C580 H572 0.950 . S
C580 C581 1.386 . S
C580 C582 1.391 . S
C581 C580 1.386 . S
C581 C585 1.393 . S
C582 H574 0.950 . S
C582 C580 1.391 . S
C582 C583 1.400 . S
C583 C582 1.400 . S
C583 C584 1.398 . S
C583 C589 1.491 1_554 S
C584 H575 0.950 . S
C584 C583 1.398 . S
C584 C585 1.391 . S
C585 H573 0.950 . S
C585 C581 1.393 . S
C585 C584 1.391 . S
C586 H576 0.950 . S
C586 C587 1.386 . S
C586 C588 1.391 . S
C587 C586 1.386 . S
C587 C591 1.393 . S
C588 H577 0.950 1_556 S
C588 C586 1.391 . S
C588 C589 1.400 . S
C589 C583 1.491 1_556 S
C589 C588 1.400 . S
C589 C590 1.398 . S
C590 H578 0.950 . S
C590 C589 1.398 . S
C590 C591 1.391 . S
C591 H579 0.950 . S
C591 C587 1.393 . S
C591 C590 1.391 . S
H592 C600 0.950 . S
H593 C605 0.950 . S
H594 C602 0.950 . S
H595 C604 0.950 . S
H596 C606 0.950 . S
H597 C608 0.950 1_554 S
H598 C610 0.950 . S
H599 C611 0.950 . S
C600 H592 0.950 . S
C600 C601 1.386 . S
C600 C602 1.391 . S
C601 C600 1.386 . S
C601 C605 1.393 . S
C602 H594 0.950 . S
C602 C600 1.391 . S
C602 C603 1.400 . S
C603 C602 1.400 . S
C603 C604 1.398 . S
C603 C609 1.491 1_554 S
C604 H595 0.950 . S
C604 C603 1.398 . S
C604 C605 1.391 . S
C605 H593 0.950 . S
C605 C601 1.393 . S
C605 C604 1.391 . S
C606 H596 0.950 . S
C606 C607 1.386 . S
C606 C608 1.391 . S
C607 C606 1.386 . S
C607 C611 1.393 . S
C608 H597 0.950 1_556 S
C608 C606 1.391 . S
C608 C609 1.400 . S
C609 C603 1.491 1_556 S
C609 C608 1.400 . S
C609 C610 1.398 . S
C610 H598 0.950 . S
C610 C609 1.398 . S
C610 C611 1.391 . S
C611 H599 0.950 . S
C611 C607 1.393 . S
C611 C610 1.391 . S
H612 C620 0.950 . S
H613 C625 0.950 . S
H614 C622 0.950 . S
H615 C624 0.950 . S
H616 C626 0.950 . S
H617 C628 0.950 . S
H618 C630 0.950 1_554 S
H619 C631 0.950 . S
C620 H612 0.950 . S
C620 C621 1.353 1_455 S
C620 C622 1.391 . S
C621 C620 1.353 1_655 S
C621 C625 1.427 . S
C622 H614 0.950 . S
C622 C620 1.391 . S
C622 C623 1.400 1_455 S
C623 C622 1.400 1_655 S
C623 C624 1.398 . S
C623 C629 1.492 1_554 S
C624 H615 0.950 . S
C624 C623 1.398 . S
C624 C625 1.391 . S
C625 H613 0.950 . S
C625 C621 1.427 . S
C625 C624 1.391 . S
C626 H616 0.950 . S
C626 C627 1.414 . S
C626 C628 1.391 . S
C627 C626 1.414 . S
C627 C631 1.364 1_655 S
C628 H617 0.950 . S
C628 C626 1.391 . S
C628 C629 1.424 . S
C629 C623 1.492 1_556 S
C629 C628 1.424 . S
C629 C630 1.375 1_655 S
C630 H618 0.950 1_556 S
C630 C629 1.375 1_455 S
C630 C631 1.391 . S
C631 H619 0.950 . S
C631 C627 1.364 1_455 S
C631 C630 1.391 . S
H632 C640 0.950 . S
H633 C645 0.950 . S
H634 C642 0.950 . S
H635 C644 0.950 . S
H636 C646 0.950 . S
H637 C648 0.986 . S
H638 C650 0.950 . S
H639 C651 0.950 . S
C640 H632 0.950 . S
C640 C641 1.386 1_655 S
C640 C642 1.391 . S
C641 C640 1.386 1_455 S
C641 C645 1.393 . S
C642 H634 0.950 . S
C642 C640 1.391 . S
C642 C643 1.400 . S
C643 C642 1.400 . S
C643 C644 1.398 1_655 S
C643 C649 1.491 . S
C644 H635 0.950 . S
C644 C643 1.398 1_455 S
C644 C645 1.391 . S
C645 H633 0.950 . S
C645 C641 1.393 . S
C645 C644 1.391 . S
C646 H636 0.950 . S
C646 C647 1.386 . S
C646 C648 1.391 . S
C647 C646 1.386 . S
C647 C651 1.393 . S
C648 H637 0.986 . S
C648 C646 1.391 . S
C648 C649 1.400 . S
C649 C643 1.491 . S
C649 C648 1.400 . S
C649 C650 1.398 . S
C650 H638 0.950 . S
C650 C649 1.398 . S
C650 C651 1.391 . S
C651 H639 0.950 . S
C651 C647 1.393 . S
C651 C650 1.391 . S
H652 C660 0.950 . S
H653 C665 0.950 . S
H654 C662 0.950 . S
H655 C664 0.950 . S
H656 C666 0.950 . S
H657 C668 0.950 . S
H658 C670 0.948 . S
H659 C671 0.950 . S
C660 H652 0.950 . S
C660 C661 1.386 . S
C660 C662 1.391 . S
C661 C660 1.386 . S
C661 C665 1.393 1_545 S
C662 H654 0.950 . S
C662 C660 1.391 . S
C662 C663 1.400 1_545 S
C663 C662 1.400 1_565 S
C663 C664 1.398 . S
C663 C669 1.491 . S
C664 H655 0.950 . S
C664 C663 1.398 . S
C664 C665 1.391 . S
C665 H653 0.950 . S
C665 C661 1.393 1_565 S
C665 C664 1.391 . S
C666 H656 0.950 . S
C666 C667 1.386 . S
C666 C668 1.391 . S
C667 C666 1.386 . S
C667 C671 1.393 . S
C668 H657 0.950 . S
C668 C666 1.391 . S
C668 C669 1.400 . S
C669 C663 1.491 . S
C669 C668 1.400 . S
C669 C670 1.398 . S
C670 H658 0.948 . S
C670 C669 1.398 . S
C670 C671 1.391 . S
C671 H659 0.950 . S
C671 C667 1.393 . S
C671 C670 1.391 . S
H672 C680 0.950 . S
H673 C685 0.950 . S
H674 C682 0.950 . S
H675 C684 0.950 . S
H676 C686 0.950 . S
H677 C688 0.950 . S
H678 C690 0.950 . S
H679 C691 0.950 . S
C680 H672 0.950 . S
C680 C681 1.386 . S
C680 C682 1.391 . S
C681 C680 1.386 . S
C681 C685 1.393 . S
C682 H674 0.950 . S
C682 C680 1.391 . S
C682 C683 1.400 . S
C683 C682 1.400 . S
C683 C684 1.398 . S
C683 C689 1.491 . S
C684 H675 0.950 . S
C684 C683 1.398 . S
C684 C685 1.391 . S
C685 H673 0.950 . S
C685 C681 1.393 . S
C685 C684 1.391 . S
C686 H676 0.950 . S
C686 C687 1.386 . S
C686 C688 1.391 . S
C687 C686 1.386 . S
C687 C691 1.393 . S
C688 H677 0.950 . S
C688 C686 1.391 . S
C688 C689 1.400 . S
C689 C683 1.491 . S
C689 C688 1.400 . S
C689 C690 1.398 . S
C690 H678 0.950 . S
C690 C689 1.398 . S
C690 C691 1.391 . S
C691 H679 0.950 . S
C691 C687 1.393 . S
C691 C690 1.391 . S
H692 C700 0.950 . S
H693 C705 0.950 . S
H694 C702 0.950 . S
H695 C704 0.950 . S
H696 C706 0.950 . S
H697 C708 0.950 . S
H698 C710 0.950 . S
H699 C711 0.950 . S
C700 H692 0.950 . S
C700 C701 1.386 . S
C700 C702 1.391 . S
C701 C700 1.386 . S
C701 C705 1.393 . S
C702 H694 0.950 . S
C702 C700 1.391 . S
C702 C703 1.400 . S
C703 C702 1.400 . S
C703 C704 1.398 . S
C703 C709 1.491 . S
C704 H695 0.950 . S
C704 C703 1.398 . S
C704 C705 1.391 . S
C705 H693 0.950 . S
C705 C701 1.393 . S
C705 C704 1.391 . S
C706 H696 0.950 . S
C706 C707 1.386 . S
C706 C708 1.391 . S
C707 C706 1.386 . S
C707 C711 1.393 . S
C708 H697 0.950 . S
C708 C706 1.391 . S
C708 C709 1.400 . S
C709 C703 1.491 . S
C709 C708 1.400 . S
C709 C710 1.398 . S
C710 H698 0.950 . S
C710 C709 1.398 . S
C710 C711 1.391 . S
C711 H699 0.950 . S
C711 C707 1.393 . S
C711 C710 1.391 . S
H712 C720 0.950 . S
H713 C725 0.950 . S
H714 C722 0.950 . S
H715 C724 0.950 1_556 S
H716 C726 0.950 . S
H717 C728 0.950 . S
H718 C730 0.950 . S
H719 C731 0.950 . S
C720 H712 0.950 . S
C720 C721 1.386 1_455 S
C720 C722 1.391 . S
C721 C720 1.386 1_655 S
C721 C725 1.393 . S
C722 H714 0.950 . S
C722 C720 1.391 . S
C722 C723 1.400 . S
C723 C722 1.400 . S
C723 C724 1.398 . S
C723 C729 1.491 . S
C724 H715 0.950 1_554 S
C724 C723 1.398 . S
C724 C725 1.391 1_455 S
C725 H713 0.950 . S
C725 C721 1.393 . S
C725 C724 1.391 1_655 S
C726 H716 0.950 . S
C726 C727 1.386 . S
C726 C728 1.391 . S
C727 C726 1.386 . S
C727 C731 1.393 1_556 S
C728 H717 0.950 . S
C728 C726 1.391 . S
C728 C729 1.400 1_556 S
C729 C723 1.491 . S
C729 C728 1.400 1_554 S
C729 C730 1.398 . S
C730 H718 0.950 . S
C730 C729 1.398 . S
C730 C731 1.391 . S
C731 H719 0.950 . S
C731 C727 1.393 1_554 S
C731 C730 1.391 . S
H732 C740 0.950 . S
H733 C745 0.950 . S
H734 C742 0.950 . S
H735 C744 0.950 1_556 S
H736 C746 0.950 . S
H737 C748 0.950 1_565 S
H738 C750 0.950 . S
H739 C751 0.950 . S
C740 H732 0.950 . S
C740 C741 1.386 1_545 S
C740 C742 1.391 . S
C741 C740 1.386 1_565 S
C741 C745 1.393 . S
C742 H734 0.950 . S
C742 C740 1.391 . S
C742 C743 1.400 . S
C743 C742 1.400 . S
C743 C744 1.398 1_545 S
C743 C749 1.491 . S
C744 H735 0.950 1_554 S
C744 C743 1.398 1_565 S
C744 C745 1.391 . S
C745 H733 0.950 . S
C745 C741 1.393 . S
C745 C744 1.391 . S
C746 H736 0.950 . S
C746 C747 1.386 . S
C746 C748 1.391 . S
C747 C746 1.386 . S
C747 C751 1.393 1_556 S
C748 H737 0.950 1_545 S
C748 C746 1.391 . S
C748 C749 1.400 1_556 S
C749 C743 1.491 . S
C749 C748 1.400 1_554 S
C749 C750 1.398 . S
C750 H738 0.950 . S
C750 C749 1.398 . S
C750 C751 1.391 . S
C751 H739 0.950 . S
C751 C747 1.393 1_554 S
C751 C750 1.391 . S
H752 C760 0.950 . S
H753 C765 0.950 . S
H754 C762 0.950 . S
H755 C764 0.950 1_556 S
H756 C766 0.950 . S
H757 C768 0.950 . S
H758 C770 0.950 . S
H759 C771 0.948 1_554 S
C760 H752 0.950 . S
C760 C761 1.386 . S
C760 C762 1.391 . S
C761 C760 1.386 . S
C761 C765 1.393 . S
C762 H754 0.950 . S
C762 C760 1.391 . S
C762 C763 1.400 . S
C763 C762 1.400 . S
C763 C764 1.398 . S
C763 C769 1.491 . S
C764 H755 0.950 1_554 S
C764 C763 1.398 . S
C764 C765 1.391 . S
C765 H753 0.950 . S
C765 C761 1.393 . S
C765 C764 1.391 . S
C766 H756 0.950 . S
C766 C767 1.386 . S
C766 C768 1.391 . S
C767 C766 1.386 . S
C767 C771 1.398 . S
C768 H757 0.950 . S
C768 C766 1.391 . S
C768 C769 1.400 1_556 S
C769 C763 1.491 . S
C769 C768 1.400 1_554 S
C769 C770 1.398 . S
C770 H758 0.950 . S
C770 C769 1.398 . S
C770 C771 1.387 1_554 S
C771 H759 0.948 1_556 S
C771 C767 1.398 . S
C771 C770 1.387 1_556 S
H772 C780 0.950 . S
H773 C785 0.950 . S
H774 C782 0.950 . S
H775 C784 0.950 1_556 S
H776 C786 0.950 . S
H777 C788 0.950 . S
H778 C790 0.950 . S
H779 C791 0.950 . S
C780 H772 0.950 . S
C780 C781 1.386 . S
C780 C782 1.391 . S
C781 C780 1.386 . S
C781 C785 1.393 . S
C782 H774 0.950 . S
C782 C780 1.391 . S
C782 C783 1.400 . S
C783 C782 1.400 . S
C783 C784 1.398 . S
C783 C789 1.491 . S
C784 H775 0.950 1_554 S
C784 C783 1.398 . S
C784 C785 1.391 . S
C785 H773 0.950 . S
C785 C781 1.393 . S
C785 C784 1.391 . S
C786 H776 0.950 . S
C786 C787 1.386 . S
C786 C788 1.391 . S
C787 C786 1.386 . S
C787 C791 1.393 1_556 S
C788 H777 0.950 . S
C788 C786 1.391 . S
C788 C789 1.400 1_556 S
C789 C783 1.491 . S
C789 C788 1.400 1_554 S
C789 C790 1.398 . S
C790 H778 0.950 . S
C790 C789 1.398 . S
C790 C791 1.391 . S
C791 H779 0.950 . S
C791 C787 1.393 1_554 S
C791 C790 1.391 . S
H792 C800 0.950 . S
H793 C805 0.950 . S
H794 C802 0.950 . S
H795 C804 0.950 . S
H796 C806 0.950 . S
H797 C808 0.950 . S
H798 C810 0.950 . S
H799 C811 0.950 . S
C800 H792 0.950 . S
C800 C801 1.386 1_655 S
C800 C802 1.391 . S
C801 C800 1.386 1_455 S
C801 C805 1.393 . S
C802 H794 0.950 . S
C802 C800 1.391 . S
C802 C803 1.400 1_655 S
C803 C802 1.400 1_455 S
C803 C804 1.398 . S
C803 C809 1.491 . S
C804 H795 0.950 . S
C804 C803 1.398 . S
C804 C805 1.391 . S
C805 H793 0.950 . S
C805 C801 1.393 . S
C805 C804 1.391 . S
C806 H796 0.950 . S
C806 C807 1.386 . S
C806 C808 1.391 . S
C807 C806 1.386 . S
C807 C811 1.393 1_455 S
C808 H797 0.950 . S
C808 C806 1.391 . S
C808 C809 1.400 . S
C809 C803 1.491 . S
C809 C808 1.400 . S
C809 C810 1.398 1_455 S
C810 H798 0.950 . S
C810 C809 1.398 1_655 S
C810 C811 1.391 . S
C811 H799 0.950 . S
C811 C807 1.393 1_655 S
C811 C810 1.391 . S
H812 C820 0.950 . S
H813 C825 0.950 . S
H814 C822 0.950 . S
H815 C824 0.950 . S
H816 C826 0.950 . S
H817 C828 0.950 . S
H818 C830 0.950 . S
H819 C831 0.950 . S
C820 H812 0.950 . S
C820 C821 1.386 . S
C820 C822 1.391 . S
C821 C820 1.386 . S
C821 C825 1.393 1_545 S
C822 H814 0.950 . S
C822 C820 1.391 . S
C822 C823 1.400 . S
C823 C822 1.400 . S
C823 C824 1.398 1_545 S
C823 C829 1.491 . S
C824 H815 0.950 . S
C824 C823 1.398 1_565 S
C824 C825 1.391 . S
C825 H813 0.950 . S
C825 C821 1.393 1_565 S
C825 C824 1.391 . S
C826 H816 0.950 . S
C826 C827 1.386 1_565 S
C826 C828 1.391 . S
C827 C826 1.386 1_545 S
C827 C831 1.393 . S
C828 H817 0.950 . S
C828 C826 1.391 . S
C828 C829 1.400 1_565 S
C829 C823 1.491 . S
C829 C828 1.400 1_545 S
C829 C830 1.398 . S
C830 H818 0.950 . S
C830 C829 1.398 . S
C830 C831 1.391 . S
C831 H819 0.950 . S
C831 C827 1.393 . S
C831 C830 1.391 . S
H832 C840 0.950 . S
H833 C845 0.950 . S
H834 C842 0.950 . S
H835 C844 0.950 . S
H836 C846 0.950 . S
H837 C848 0.950 . S
H838 C850 0.950 . S
H839 C851 0.950 . S
C840 H832 0.950 . S
C840 C841 1.386 . S
C840 C842 1.391 . S
C841 C840 1.386 . S
C841 C845 1.393 . S
C842 H834 0.950 . S
C842 C840 1.391 . S
C842 C843 1.400 . S
C843 C842 1.400 . S
C843 C844 1.398 . S
C843 C849 1.491 . S
C844 H835 0.950 . S
C844 C843 1.398 . S
C844 C845 1.391 . S
C845 H833 0.950 . S
C845 C841 1.393 . S
C845 C844 1.391 . S
C846 H836 0.950 . S
C846 C847 1.386 . S
C846 C848 1.391 . S
C847 C846 1.386 . S
C847 C851 1.393 . S
C848 H837 0.950 . S
C848 C846 1.391 . S
C848 C849 1.400 . S
C849 C843 1.491 . S
C849 C848 1.400 . S
C849 C850 1.398 . S
C850 H838 0.950 . S
C850 C849 1.398 . S
C850 C851 1.391 . S
C851 H839 0.950 . S
C851 C847 1.393 . S
C851 C850 1.391 . S
H852 C860 0.950 . S
H853 C865 0.950 . S
H854 C862 0.950 . S
H855 C864 0.950 . S
H856 C866 0.950 . S
H857 C868 0.950 . S
H858 C870 0.950 . S
H859 C871 0.950 . S
C860 H852 0.950 . S
C860 C861 1.386 . S
C860 C862 1.391 . S
C861 C860 1.386 . S
C861 C865 1.393 . S
C862 H854 0.950 . S
C862 C860 1.391 . S
C862 C863 1.400 . S
C863 C862 1.400 . S
C863 C864 1.398 . S
C863 C869 1.491 . S
C864 H855 0.950 . S
C864 C863 1.398 . S
C864 C865 1.391 . S
C865 H853 0.950 . S
C865 C861 1.393 . S
C865 C864 1.391 . S
C866 H856 0.950 . S
C866 C867 1.386 . S
C866 C868 1.391 . S
C867 C866 1.386 . S
C867 C871 1.393 . S
C868 H857 0.950 . S
C868 C866 1.391 . S
C868 C869 1.400 . S
C869 C863 1.491 . S
C869 C868 1.400 . S
C869 C870 1.398 . S
C870 H858 0.950 . S
C870 C869 1.398 . S
C870 C871 1.391 . S
C871 H859 0.950 . S
C871 C867 1.393 . S
C871 C870 1.391 . S
H872 C880 0.950 . S
H873 C885 0.950 . S
H874 C882 0.950 . S
H875 C884 0.950 . S
H876 C886 0.950 . S
H877 C888 0.950 . S
H878 C890 0.950 . S
H879 C891 0.950 . S
C880 H872 0.950 . S
C880 C881 1.386 1_455 S
C880 C882 1.391 . S
C881 C880 1.386 1_655 S
C881 C885 1.393 . S
C882 H874 0.950 . S
C882 C880 1.391 . S
C882 C883 1.400 1_455 S
C883 C882 1.400 1_655 S
C883 C884 1.398 . S
C883 C889 1.491 . S
C884 H875 0.950 . S
C884 C883 1.398 . S
C884 C885 1.391 . S
C885 H873 0.950 . S
C885 C881 1.393 . S
C885 C884 1.391 . S
C886 H876 0.950 . S
C886 C887 1.386 . S
C886 C888 1.391 . S
C887 C886 1.386 . S
C887 C891 1.393 1_655 S
C888 H877 0.950 . S
C888 C886 1.391 . S
C888 C889 1.400 . S
C889 C883 1.491 . S
C889 C888 1.400 . S
C889 C890 1.398 1_655 S
C890 H878 0.950 . S
C890 C889 1.398 1_455 S
C890 C891 1.391 . S
C891 H879 0.950 . S
C891 C887 1.393 1_455 S
C891 C890 1.391 . S
H892 C900 0.950 . S
H893 C905 0.950 . S
H894 C902 0.950 . S
H895 C904 0.950 . S
H896 C906 0.950 . S
H897 C908 0.950 . S
H898 C910 0.950 . S
H899 C911 0.950 . S
C900 H892 0.950 . S
C900 C901 1.386 . S
C900 C902 1.391 . S
C901 C900 1.386 . S
C901 C905 1.393 1_565 S
C902 H894 0.950 . S
C902 C900 1.391 . S
C902 C903 1.400 . S
C903 C902 1.400 . S
C903 C904 1.398 1_565 S
C903 C909 1.491 . S
C904 H895 0.950 . S
C904 C903 1.398 1_545 S
C904 C905 1.391 . S
C905 H893 0.950 . S
C905 C901 1.393 1_545 S
C905 C904 1.391 . S
C906 H896 0.950 . S
C906 C907 1.386 1_545 S
C906 C908 1.391 . S
C907 C906 1.386 1_565 S
C907 C911 1.393 . S
C908 H897 0.950 . S
C908 C906 1.391 . S
C908 C909 1.400 1_545 S
C909 C903 1.491 . S
C909 C908 1.400 1_565 S
C909 C910 1.398 . S
C910 H898 0.950 . S
C910 C909 1.398 . S
C910 C911 1.391 . S
C911 H899 0.950 . S
C911 C907 1.393 . S
C911 C910 1.391 . S
H912 C920 0.950 . S
H913 C925 0.950 . S
H914 C922 0.950 . S
H915 C924 0.950 . S
H916 C926 0.950 . S
H917 C928 0.950 . S
H918 C930 0.950 . S
H919 C931 0.950 . S
C920 H912 0.950 . S
C920 C921 1.386 . S
C920 C922 1.391 . S
C921 C920 1.386 . S
C921 C925 1.393 . S
C922 H914 0.950 . S
C922 C920 1.391 . S
C922 C923 1.400 . S
C923 C922 1.400 . S
C923 C924 1.398 . S
C923 C929 1.491 . S
C924 H915 0.950 . S
C924 C923 1.398 . S
C924 C925 1.391 . S
C925 H913 0.950 . S
C925 C921 1.393 . S
C925 C924 1.391 . S
C926 H916 0.950 . S
C926 C927 1.386 . S
C926 C928 1.391 . S
C927 C926 1.386 . S
C927 C931 1.393 . S
C928 H917 0.950 . S
C928 C926 1.391 . S
C928 C929 1.400 . S
C929 C923 1.491 . S
C929 C928 1.400 . S
C929 C930 1.398 . S
C930 H918 0.950 . S
C930 C929 1.398 . S
C930 C931 1.391 . S
C931 H919 0.950 . S
C931 C927 1.393 . S
C931 C930 1.391 . S
H932 C940 0.950 . S
H933 C945 0.950 . S
H934 C942 0.950 . S
H935 C944 0.950 . S
H936 C946 0.950 . S
H937 C948 0.950 . S
H938 C950 0.950 . S
H939 C951 0.950 . S
C940 H932 0.950 . S
C940 C941 1.386 . S
C940 C942 1.391 . S
C941 C940 1.386 . S
C941 C945 1.393 . S
C942 H934 0.950 . S
C942 C940 1.391 . S
C942 C943 1.400 . S
C943 C942 1.400 . S
C943 C944 1.398 . S
C943 C949 1.491 . S
C944 H935 0.950 . S
C944 C943 1.398 . S
C944 C945 1.391 . S
C945 H933 0.950 . S
C945 C941 1.393 . S
C945 C944 1.391 . S
C946 H936 0.950 . S
C946 C947 1.386 . S
C946 C948 1.391 . S
C947 C946 1.386 . S
C947 C951 1.393 . S
C948 H937 0.950 . S
C948 C946 1.391 . S
C948 C949 1.400 . S
C949 C943 1.491 . S
C949 C948 1.400 . S
C949 C950 1.398 . S
C950 H938 0.950 . S
C950 C949 1.398 . S
C950 C951 1.391 . S
C951 H939 0.950 . S
C951 C947 1.393 . S
C951 C950 1.391 . S
C481 C255 2.134 1_545 S
C487 C321 2.323 1_545 S
C507 C361 2.341 . S
C501 C294 2.118 . S
C527 C401 2.334 . S
C521 C177 2.168 . S
C547 C441 2.335 1_455 S
C541 C216 2.169 1_455 S
C567 C330 2.325 1_565 S
C561 C99 2.160 . S
C581 C138 2.134 . S
C587 C370 2.350 . S
C601 C21 2.146 . S
C607 C410 2.335 . S
C621 C60 2.163 . S
C627 C450 2.332 1_655 S
C647 C327 0.460 . S
C641 C196 0.425 1_455 S
C667 C367 0.400 . S
C661 C235 0.418 1_545 S
C687 C407 0.443 . S
C681 C289 0.408 . S
C701 C157 0.377 . S
C707 C447 0.395 . S
C721 C40 0.407 . S
C727 C318 0.392 . S
C747 C358 0.415 . S
C741 C79 0.430 . S
C767 C398 0.414 . S
C761 C133 0.430 . S
C781 C1 0.414 . S
C787 C438 0.405 . S
C801 C211 2.828 . S
C807 C331 3.201 . S
C821 C250 2.785 . S
C827 C371 3.188 . S
C847 C411 3.187 . S
C841 C274 2.813 . S
C867 C451 3.191 . S
C861 C172 2.803 . S
C881 C55 2.809 1_655 S
C887 C322 3.209 . S
C907 C362 3.191 . S
C901 C94 2.807 1_565 S
C927 C402 3.185 . S
C921 C118 2.812 . S
C941 C16 2.799 . S
C947 C442 3.205 . S
