# Generated by pormake.
# Topology ssb, (4,4)-cn, num edge types: 1
# Building blocks:
#     Node 0, Type 0, BuildingBlock: NAWXER_clean_linker_0, # of connection points: 4
#     Node 1, Type 0, BuildingBlock: NAWXER_clean_linker_0, # of connection points: 4
#     Node 2, Type 0, BuildingBlock: NAWXER_clean_linker_0, # of connection points: 4
#     Node 3, Type 0, BuildingBlock: NAWXER_clean_linker_0, # of connection points: 4
#     Node 4, Type 0, BuildingBlock: NAWXER_clean_linker_0, # of connection points: 4
#     Node 5, Type 0, BuildingBlock: NAWXER_clean_linker_0, # of connection points: 4
#     Node 6, Type 0, BuildingBlock: NAWXER_clean_linker_0, # of connection points: 4
#     Node 7, Type 0, BuildingBlock: NAWXER_clean_linker_0, # of connection points: 4
#     Node 8, Type 1, BuildingBlock: KOZSID_clean_sbu_0, # of connection points: 4
#     Node 9, Type 1, BuildingBlock: KOZSID_clean_sbu_0, # of connection points: 4
#     Node 10, Type 1, BuildingBlock: KOZSID_clean_sbu_0, # of connection points: 4
#     Node 11, Type 1, BuildingBlock: KOZSID_clean_sbu_0, # of connection points: 4
#     Node 12, Type 1, BuildingBlock: KOZSID_clean_sbu_0, # of connection points: 4
#     Node 13, Type 1, BuildingBlock: KOZSID_clean_sbu_0, # of connection points: 4
#     Node 14, Type 1, BuildingBlock: KOZSID_clean_sbu_0, # of connection points: 4
#     Node 15, Type 1, BuildingBlock: KOZSID_clean_sbu_0, # of connection points: 4
#     Edge 16, Type (0, 1), BuildingBlock: OJICUG_clean_linker_0, # of connection points: 2
#     Edge 17, Type (0, 1), BuildingBlock: OJICUG_clean_linker_0, # of connection points: 2
#     Edge 18, Type (0, 1), BuildingBlock: OJICUG_clean_linker_0, # of connection points: 2
#     Edge 19, Type (0, 1), BuildingBlock: OJICUG_clean_linker_0, # of connection points: 2
#     Edge 20, Type (0, 1), BuildingBlock: OJICUG_clean_linker_0, # of connection points: 2
#     Edge 21, Type (0, 1), BuildingBlock: OJICUG_clean_linker_0, # of connection points: 2
#     Edge 22, Type (0, 1), BuildingBlock: OJICUG_clean_linker_0, # of connection points: 2
#     Edge 23, Type (0, 1), BuildingBlock: OJICUG_clean_linker_0, # of connection points: 2
#     Edge 24, Type (0, 1), BuildingBlock: OJICUG_clean_linker_0, # of connection points: 2
#     Edge 25, Type (0, 1), BuildingBlock: OJICUG_clean_linker_0, # of connection points: 2
#     Edge 26, Type (0, 1), BuildingBlock: OJICUG_clean_linker_0, # of connection points: 2
#     Edge 27, Type (0, 1), BuildingBlock: OJICUG_clean_linker_0, # of connection points: 2
#     Edge 28, Type (0, 1), BuildingBlock: OJICUG_clean_linker_0, # of connection points: 2
#     Edge 29, Type (0, 1), BuildingBlock: OJICUG_clean_linker_0, # of connection points: 2
#     Edge 30, Type (0, 1), BuildingBlock: OJICUG_clean_linker_0, # of connection points: 2
#     Edge 31, Type (0, 1), BuildingBlock: OJICUG_clean_linker_0, # of connection points: 2
#     Edge 32, Type (0, 1), BuildingBlock: OJICUG_clean_linker_0, # of connection points: 2
#     Edge 33, Type (0, 1), BuildingBlock: OJICUG_clean_linker_0, # of connection points: 2
#     Edge 34, Type (0, 1), BuildingBlock: OJICUG_clean_linker_0, # of connection points: 2
#     Edge 35, Type (0, 1), BuildingBlock: OJICUG_clean_linker_0, # of connection points: 2
#     Edge 36, Type (0, 1), BuildingBlock: OJICUG_clean_linker_0, # of connection points: 2
#     Edge 37, Type (0, 1), BuildingBlock: OJICUG_clean_linker_0, # of connection points: 2
#     Edge 38, Type (0, 1), BuildingBlock: OJICUG_clean_linker_0, # of connection points: 2
#     Edge 39, Type (0, 1), BuildingBlock: OJICUG_clean_linker_0, # of connection points: 2
#     Edge 40, Type (0, 1), BuildingBlock: OJICUG_clean_linker_0, # of connection points: 2
#     Edge 41, Type (0, 1), BuildingBlock: OJICUG_clean_linker_0, # of connection points: 2
#     Edge 42, Type (0, 1), BuildingBlock: OJICUG_clean_linker_0, # of connection points: 2
#     Edge 43, Type (0, 1), BuildingBlock: OJICUG_clean_linker_0, # of connection points: 2
#     Edge 44, Type (0, 1), BuildingBlock: OJICUG_clean_linker_0, # of connection points: 2
#     Edge 45, Type (0, 1), BuildingBlock: OJICUG_clean_linker_0, # of connection points: 2
#     Edge 46, Type (0, 1), BuildingBlock: OJICUG_clean_linker_0, # of connection points: 2
#     Edge 47, Type (0, 1), BuildingBlock: OJICUG_clean_linker_0, # of connection points: 2
# Relax obj value: 0.004
# Max RMSD: 0.038
# Mean RMSD: 0.023
data_MOF--net-ssb--node1-KOZSID_clean_sbu_0--node2-NAWXER_clean_linker_0--edge1-OJICUG_clean_linker_0
_symmetry_space_group_name_H-M    P1
_symmetry_Int_Tables_number       1
_symmetry_cell_setting            triclinic
loop_
_symmetry_equiv_pos_as_xyz
'x, y, z'
_cell_length_a     50.290792
_cell_length_b     49.988755
_cell_length_c     36.933844
_cell_angle_alpha  92.674922
_cell_angle_beta   95.46964
_cell_angle_gamma 90.004949
loop_
_atom_site_label
_atom_site_type_symbol
_atom_site_fract_x
_atom_site_fract_y
_atom_site_fract_z
_atom_type_partial_charge
C0 C 0.31606 0.24909 0.17621 0.0
C1 C 0.34232 0.24806 0.19306 0.0
C2 C 0.29423 0.24805 0.19684 0.0
C3 C 0.2982 0.24623 0.2348 0.0
C4 C 0.34616 0.24535 0.23096 0.0
C5 C 0.32429 0.2443 0.25158 0.0
C6 C 0.2753 0.2466 0.25716 0.0
C7 C 0.28052 0.32799 0.20836 0.0
C8 C 0.25763 0.33559 0.18615 0.0
C9 C 0.2799 0.30604 0.2308 0.0
C10 C 0.2565 0.29059 0.23138 0.0
C11 C 0.23406 0.32047 0.18746 0.0
C12 C 0.2335 0.29844 0.2098 0.0
C13 C 0.25554 0.26684 0.25494 0.0
C14 C 0.19357 0.24562 0.38231 0.0
C15 C 0.16735 0.24943 0.36653 0.0
C16 C 0.21492 0.24432 0.36068 0.0
C17 C 0.21038 0.24627 0.32277 0.0
C18 C 0.163 0.25213 0.32871 0.0
C19 C 0.18433 0.25066 0.30708 0.0
C20 C 0.23269 0.2447 0.29939 0.0
C21 C 0.22612 0.16487 0.35123 0.0
C22 C 0.24973 0.15469 0.36894 0.0
C23 C 0.22683 0.18672 0.32861 0.0
C24 C 0.25107 0.19997 0.32431 0.0
C25 C 0.27409 0.16697 0.36328 0.0
C26 C 0.27473 0.18934 0.34149 0.0
C27 C 0.25222 0.22411 0.3012 0.0
H28 H 0.31236 0.25056 0.147 0.0
H29 H 0.27422 0.24888 0.18319 0.0
H30 H 0.36609 0.24468 0.24486 0.0
H31 H 0.32779 0.24273 0.2808 0.0
H32 H 0.29891 0.33933 0.20897 0.0
H33 H 0.29777 0.3013 0.24798 0.0
H34 H 0.21603 0.32535 0.17072 0.0
H35 H 0.21507 0.28722 0.20975 0.0
H36 H 0.19762 0.24397 0.41145 0.0
H37 H 0.23497 0.24174 0.37354 0.0
H38 H 0.14303 0.25491 0.31571 0.0
H39 H 0.18041 0.25253 0.27795 0.0
H40 H 0.20707 0.15556 0.35433 0.0
H41 H 0.20828 0.19307 0.31438 0.0
H42 H 0.29268 0.15959 0.37632 0.0
H43 H 0.29384 0.19854 0.33844 0.0
N44 N 0.27292 0.22624 0.28013 0.0
N45 N 0.23499 0.26487 0.27614 0.0
C46 C 0.66481 0.27735 0.21044 0.0
C47 C 0.6586 0.25733 0.1829 0.0
C48 C 0.68984 0.27797 0.23045 0.0
C49 C 0.70917 0.2587 0.22312 0.0
C50 C 0.67791 0.23792 0.1759 0.0
C51 C 0.70289 0.23851 0.196 0.0
C52 C 0.7354 0.2585 0.24489 0.0
C53 C 0.73495 0.33251 0.18163 0.0
C54 C 0.73711 0.3565 0.20311 0.0
C55 C 0.73952 0.30802 0.1975 0.0
C56 C 0.74594 0.30706 0.2352 0.0
C57 C 0.74366 0.35554 0.24084 0.0
C58 C 0.74811 0.33096 0.25675 0.0
C59 C 0.75191 0.28135 0.25198 0.0
C60 C 0.85103 0.23476 0.33076 0.0
C61 C 0.85714 0.25531 0.35757 0.0
C62 C 0.82707 0.23513 0.30829 0.0
C63 C 0.80863 0.2559 0.31245 0.0
C64 C 0.83897 0.27645 0.36097 0.0
C65 C 0.81501 0.27679 0.3385 0.0
C66 C 0.78284 0.2562 0.28951 0.0
C67 C 0.77379 0.18615 0.35918 0.0
C68 C 0.76969 0.16132 0.34007 0.0
C69 C 0.77396 0.20965 0.34044 0.0
C70 C 0.77035 0.20865 0.30228 0.0
C71 C 0.76709 0.16022 0.30186 0.0
C72 C 0.76721 0.18379 0.28308 0.0
C73 C 0.76613 0.23348 0.28275 0.0
H74 H 0.65039 0.29265 0.21634 0.0
H75 H 0.69397 0.29334 0.25191 0.0
H76 H 0.67357 0.22202 0.15524 0.0
H77 H 0.71738 0.22323 0.19027 0.0
H78 H 0.73062 0.33271 0.15235 0.0
H79 H 0.73861 0.28988 0.18018 0.0
H80 H 0.74545 0.37376 0.25796 0.0
H81 H 0.75329 0.3306 0.28588 0.0
H82 H 0.86456 0.21815 0.32752 0.0
H83 H 0.82295 0.21913 0.28773 0.0
H84 H 0.84331 0.29283 0.3809 0.0
H85 H 0.80125 0.29319 0.34191 0.0
H86 H 0.77605 0.18745 0.38868 0.0
H87 H 0.77568 0.22864 0.35586 0.0
H88 H 0.76369 0.14131 0.28657 0.0
H89 H 0.76403 0.18271 0.25362 0.0
N90 N 0.7432 0.23543 0.26052 0.0
N91 N 0.77498 0.27936 0.27403 0.0
C92 C 0.67587 0.75063 0.16051 0.0
C93 C 0.65129 0.74606 0.17461 0.0
C94 C 0.69953 0.75266 0.1835 0.0
C95 C 0.69915 0.75058 0.22115 0.0
C96 C 0.65109 0.74403 0.21254 0.0
C97 C 0.67477 0.74663 0.23561 0.0
C98 C 0.72422 0.7529 0.24526 0.0
C99 C 0.72213 0.66992 0.19035 0.0
C100 C 0.7432 0.66376 0.16881 0.0
C101 C 0.7229 0.69309 0.21349 0.0
C102 C 0.7446 0.7111 0.21556 0.0
C103 C 0.76505 0.68167 0.17125 0.0
C104 C 0.76578 0.70487 0.1944 0.0
C105 C 0.74606 0.73555 0.24097 0.0
C106 C 0.8244 0.76258 0.3675 0.0
C107 C 0.8482 0.76568 0.35077 0.0
C108 C 0.7996 0.76239 0.34689 0.0
C109 C 0.79812 0.76489 0.30912 0.0
C110 C 0.84639 0.76884 0.31291 0.0
C111 C 0.82164 0.76803 0.29227 0.0
C112 C 0.77235 0.76215 0.28673 0.0
C113 C 0.77434 0.84504 0.34206 0.0
C114 C 0.75345 0.85101 0.36401 0.0
C115 C 0.77353 0.82191 0.31879 0.0
C116 C 0.75195 0.80376 0.31695 0.0
C117 C 0.73172 0.83296 0.36179 0.0
C118 C 0.73094 0.80982 0.33849 0.0
C119 C 0.75042 0.77935 0.29139 0.0
H120 H 0.6769 0.75308 0.13171 0.0
H121 H 0.71816 0.75616 0.17192 0.0
H122 H 0.63273 0.74012 0.22448 0.0
H123 H 0.67414 0.745 0.26466 0.0
H124 H 0.70486 0.65687 0.18927 0.0
H125 H 0.70662 0.69662 0.23025 0.0
H126 H 0.78193 0.67755 0.15576 0.0
H127 H 0.78299 0.71804 0.19567 0.0
H128 H 0.82486 0.75956 0.39638 0.0
H129 H 0.78163 0.75947 0.36026 0.0
H130 H 0.86408 0.77193 0.29905 0.0
H131 H 0.82082 0.76994 0.26308 0.0
H132 H 0.79151 0.8582 0.34292 0.0
H133 H 0.78967 0.81856 0.30174 0.0
H134 H 0.71498 0.83691 0.37759 0.0
H135 H 0.71382 0.79655 0.33739 0.0
N136 N 0.72712 0.7739 0.27034 0.0
N137 N 0.76935 0.7411 0.26182 0.0
C138 C 0.33172 0.72572 0.17824 0.0
C139 C 0.33806 0.7472 0.15731 0.0
C140 C 0.30925 0.7269 0.19793 0.0
C141 C 0.29223 0.74924 0.19613 0.0
C142 C 0.32128 0.76965 0.15597 0.0
C143 C 0.29863 0.77063 0.17512 0.0
C144 C 0.2691 0.75181 0.21825 0.0
C145 C 0.25401 0.67731 0.14741 0.0
C146 C 0.25008 0.65403 0.16628 0.0
C147 C 0.25379 0.70248 0.16525 0.0
C148 C 0.25065 0.70479 0.2026 0.0
C149 C 0.24582 0.65656 0.20334 0.0
C150 C 0.24622 0.68168 0.22132 0.0
C151 C 0.25058 0.7311 0.22226 0.0
C152 C 0.16938 0.78601 0.31185 0.0
C153 C 0.16322 0.76405 0.33204 0.0
C154 C 0.19059 0.78466 0.28983 0.0
C155 C 0.20653 0.76156 0.28831 0.0
C156 C 0.1789 0.74086 0.33007 0.0
C157 C 0.20028 0.73965 0.3085 0.0
C158 C 0.2287 0.75914 0.26436 0.0
C159 C 0.25386 0.82999 0.33965 0.0
C160 C 0.25653 0.85398 0.3219 0.0
C161 C 0.24999 0.8058 0.31957 0.0
C162 C 0.24841 0.80533 0.28146 0.0
C163 C 0.25493 0.85343 0.28374 0.0
C164 C 0.25106 0.82923 0.26368 0.0
C165 C 0.24714 0.7798 0.26012 0.0
H166 H 0.34455 0.70834 0.18017 0.0
H167 H 0.3055 0.71057 0.21503 0.0
H168 H 0.32562 0.78643 0.13992 0.0
H169 H 0.28608 0.78825 0.17361 0.0
H170 H 0.25756 0.67616 0.11893 0.0
H171 H 0.25618 0.72008 0.14983 0.0
H172 H 0.24202 0.63917 0.21851 0.0
H173 H 0.24319 0.68303 0.25001 0.0
H174 H 0.15737 0.80398 0.31237 0.0
H175 H 0.19413 0.8015 0.27352 0.0
H176 H 0.17475 0.72368 0.34549 0.0
H177 H 0.21204 0.7215 0.30769 0.0
H178 H 0.25469 0.82994 0.36907 0.0
H179 H 0.24879 0.78745 0.33383 0.0
H180 H 0.25714 0.87162 0.26946 0.0
H181 H 0.25037 0.82911 0.23426 0.0
N182 N 0.2664 0.77536 0.23722 0.0
N183 N 0.2313 0.73558 0.24523 0.0
C184 C 0.16665 0.79016 0.68407 0.0
C185 C 0.15874 0.76779 0.66106 0.0
C186 C 0.19082 0.79001 0.70613 0.0
C187 C 0.20752 0.76751 0.70551 0.0
C188 C 0.1756 0.74539 0.66032 0.0
C189 C 0.19966 0.74518 0.68258 0.0
C190 C 0.23212 0.76627 0.73065 0.0
C191 C 0.24939 0.82932 0.65027 0.0
C192 C 0.24887 0.85582 0.66544 0.0
C193 C 0.25 0.80705 0.67232 0.0
C194 C 0.25065 0.81039 0.7104 0.0
C195 C 0.2493 0.85889 0.70379 0.0
C196 C 0.25058 0.8366 0.72584 0.0
C197 C 0.25183 0.78671 0.73406 0.0
C198 C 0.34162 0.73354 0.82165 0.0
C199 C 0.35149 0.75468 0.84559 0.0
C200 C 0.31727 0.73598 0.80057 0.0
C201 C 0.30219 0.75953 0.80316 0.0
C202 C 0.33649 0.77836 0.84789 0.0
C203 C 0.31215 0.78083 0.82662 0.0
C204 C 0.27666 0.76226 0.78025 0.0
C205 C 0.26189 0.7009 0.86279 0.0
C206 C 0.25826 0.67448 0.84808 0.0
C207 C 0.26153 0.72275 0.84007 0.0
C208 C 0.25727 0.71891 0.80193 0.0
C209 C 0.25396 0.67068 0.8099 0.0
C210 C 0.25313 0.6926 0.78721 0.0
C211 C 0.25655 0.74222 0.77756 0.0
H212 H 0.15411 0.80774 0.68508 0.0
H213 H 0.19612 0.80722 0.72429 0.0
H214 H 0.16987 0.72776 0.6432 0.0
H215 H 0.2121 0.7275 0.68203 0.0
H216 H 0.24979 0.82551 0.62127 0.0
H217 H 0.2504 0.78711 0.65958 0.0
H218 H 0.2483 0.87853 0.71715 0.0
H219 H 0.25098 0.83985 0.75509 0.0
H220 H 0.35264 0.71502 0.81939 0.0
H221 H 0.31034 0.71951 0.78196 0.0
H222 H 0.34378 0.79513 0.86572 0.0
H223 H 0.301 0.79929 0.82867 0.0
H224 H 0.26536 0.70468 0.89197 0.0
H225 H 0.26435 0.74276 0.85241 0.0
H226 H 0.2508 0.65072 0.79753 0.0
H227 H 0.24961 0.68895 0.758 0.0
N228 N 0.23521 0.74494 0.75245 0.0
N229 N 0.27341 0.78381 0.75881 0.0
C230 C 0.34372 0.2821 0.84664 0.0
C231 C 0.34979 0.2625 0.87223 0.0
C232 C 0.31902 0.28185 0.82576 0.0
C233 C 0.29984 0.26217 0.83037 0.0
C234 C 0.33075 0.2425 0.87616 0.0
C235 C 0.30609 0.24228 0.85531 0.0
C236 C 0.27356 0.2616 0.80858 0.0
C237 C 0.2723 0.33659 0.87969 0.0
C238 C 0.26717 0.36034 0.86138 0.0
C239 C 0.2698 0.31184 0.86078 0.0
C240 C 0.26296 0.31042 0.82302 0.0
C241 C 0.26069 0.35889 0.82348 0.0
C242 C 0.2586 0.33412 0.80449 0.0
C243 C 0.25737 0.28444 0.80336 0.0
C244 C 0.15641 0.2383 0.72278 0.0
C245 C 0.15135 0.25756 0.69644 0.0
C246 C 0.18045 0.23867 0.74514 0.0
C247 C 0.20004 0.25809 0.74128 0.0
C248 C 0.17073 0.2774 0.69335 0.0
C249 C 0.19477 0.27771 0.71566 0.0
C250 C 0.22583 0.25852 0.76426 0.0
C251 C 0.22667 0.18291 0.69477 0.0
C252 C 0.22756 0.15943 0.71434 0.0
C253 C 0.23083 0.20778 0.7129 0.0
C254 C 0.23564 0.20961 0.75094 0.0
C255 C 0.23227 0.16131 0.75247 0.0
C256 C 0.2364 0.18627 0.77063 0.0
C257 C 0.2418 0.23563 0.76996 0.0
H258 H 0.35792 0.29781 0.84303 0.0
H259 H 0.31496 0.29701 0.80598 0.0
H260 H 0.33501 0.22682 0.89512 0.0
H261 H 0.29174 0.22669 0.85896 0.0
H262 H 0.27765 0.33706 0.90882 0.0
H263 H 0.27237 0.29386 0.87596 0.0
H264 H 0.25622 0.37679 0.80867 0.0
H265 H 0.25292 0.33342 0.77541 0.0
H266 H 0.14196 0.22269 0.72577 0.0
H267 H 0.18372 0.22374 0.76541 0.0
H268 H 0.16725 0.29283 0.67382 0.0
H269 H 0.20945 0.2931 0.71254 0.0
H270 H 0.22381 0.18202 0.66529 0.0
H271 H 0.23102 0.2255 0.69712 0.0
H272 H 0.23304 0.1435 0.76815 0.0
H273 H 0.24035 0.18738 0.80002 0.0
N274 N 0.265 0.23799 0.79188 0.0
N275 N 0.23427 0.28207 0.78118 0.0
C276 C 0.83093 0.23162 0.70173 0.0
C277 C 0.83668 0.2544 0.68296 0.0
C278 C 0.80923 0.23147 0.72268 0.0
C279 C 0.79236 0.25383 0.72445 0.0
C280 C 0.82021 0.27698 0.68539 0.0
C281 C 0.79826 0.27669 0.70593 0.0
C282 C 0.76972 0.25427 0.74744 0.0
C283 C 0.75122 0.18699 0.66204 0.0
C284 C 0.75275 0.16107 0.6758 0.0
C285 C 0.75101 0.20997 0.68547 0.0
C286 C 0.75215 0.20787 0.72343 0.0
C287 C 0.7537 0.15915 0.71395 0.0
C288 C 0.75309 0.18215 0.7373 0.0
C289 C 0.75199 0.23229 0.74861 0.0
C290 C 0.666 0.27565 0.8339 0.0
C291 C 0.66564 0.25863 0.86322 0.0
C292 C 0.68724 0.27501 0.8121 0.0
C293 C 0.70832 0.25702 0.81867 0.0
C294 C 0.68711 0.24079 0.86978 0.0
C295 C 0.70802 0.23974 0.84738 0.0
C296 C 0.73054 0.2562 0.79535 0.0
C297 C 0.74713 0.3246 0.87912 0.0
C298 C 0.74523 0.35028 0.86471 0.0
C299 C 0.74786 0.30139 0.85627 0.0
C300 C 0.74681 0.303 0.81824 0.0
C301 C 0.74436 0.35175 0.8265 0.0
C302 C 0.74541 0.3285 0.8037 0.0
C303 C 0.74785 0.27829 0.79378 0.0
H304 H 0.84363 0.21414 0.70093 0.0
H305 H 0.806 0.21401 0.73799 0.0
H306 H 0.82418 0.29479 0.67113 0.0
H307 H 0.7858 0.29433 0.70726 0.0
H308 H 0.74977 0.18968 0.63303 0.0
H309 H 0.74971 0.22947 0.67382 0.0
H310 H 0.75534 0.13987 0.72609 0.0
H311 H 0.75395 0.17985 0.76641 0.0
H312 H 0.64969 0.28923 0.82726 0.0
H313 H 0.68705 0.28833 0.78976 0.0
H314 H 0.68801 0.22775 0.89244 0.0
H315 H 0.72425 0.22581 0.8529 0.0
H316 H 0.74857 0.32232 0.90823 0.0
H317 H 0.7497 0.28212 0.86848 0.0
H318 H 0.7425 0.37087 0.81394 0.0
H319 H 0.74466 0.33043 0.77453 0.0
N320 N 0.76675 0.27643 0.76976 0.0
N321 N 0.7332 0.23411 0.77287 0.0
C322 C 0.81619 0.76253 0.65114 0.0
C323 C 0.84254 0.75936 0.66683 0.0
C324 C 0.7946 0.76003 0.67201 0.0
C325 C 0.79891 0.75419 0.70895 0.0
C326 C 0.84679 0.75354 0.70382 0.0
C327 C 0.82516 0.7507 0.72455 0.0
C328 C 0.77613 0.75094 0.73109 0.0
C329 C 0.77975 0.83804 0.70912 0.0
C330 C 0.75677 0.84769 0.68939 0.0
C331 C 0.77959 0.81279 0.72353 0.0
C332 C 0.75661 0.79664 0.71781 0.0
C333 C 0.73358 0.83179 0.68454 0.0
C334 C 0.7335 0.80648 0.69874 0.0
C335 C 0.75581 0.77025 0.73366 0.0
C336 C 0.6932 0.733 0.85165 0.0
C337 C 0.66697 0.73767 0.83649 0.0
C338 C 0.71464 0.73375 0.83017 0.0
C339 C 0.71027 0.73921 0.7931 0.0
C340 C 0.66266 0.74293 0.79932 0.0
C341 C 0.68413 0.74393 0.77796 0.0
C342 C 0.73295 0.74192 0.7706 0.0
C343 C 0.72833 0.6567 0.79806 0.0
C344 C 0.75068 0.64818 0.8202 0.0
C345 C 0.72929 0.68058 0.78022 0.0
C346 C 0.75247 0.69649 0.78481 0.0
C347 C 0.77433 0.66339 0.82311 0.0
C348 C 0.77522 0.68736 0.80543 0.0
C349 C 0.75323 0.72256 0.76803 0.0
H350 H 0.81231 0.76708 0.62274 0.0
H351 H 0.7745 0.76239 0.6592 0.0
H352 H 0.86683 0.75066 0.71652 0.0
H353 H 0.82893 0.74598 0.75291 0.0
H354 H 0.79774 0.85013 0.71362 0.0
H355 H 0.79732 0.80603 0.73944 0.0
H356 H 0.71569 0.8387 0.66911 0.0
H357 H 0.71545 0.79443 0.69448 0.0
H358 H 0.69714 0.7288 0.88016 0.0
H359 H 0.73469 0.7306 0.84269 0.0
H360 H 0.64275 0.74695 0.78696 0.0
H361 H 0.68032 0.7485 0.74954 0.0
H362 H 0.71001 0.64506 0.79494 0.0
H363 H 0.71182 0.68678 0.76328 0.0
H364 H 0.79178 0.65731 0.84021 0.0
H365 H 0.7934 0.69922 0.80886 0.0
N366 N 0.77413 0.72785 0.74862 0.0
N367 N 0.73498 0.76495 0.75308 0.0
C368 C 0.04133 0.27986 0.58928 0.0
C369 C 0.04923 0.30467 0.60512 0.0
C370 C 0.03521 0.3234 0.58559 0.0
C371 C 0.01954 0.30901 0.55916 0.0
N372 N 0.02248 0.28218 0.56087 0.0
Co373 Co 0.00375 0.25376 0.52774 0.0
N374 N 0.98536 0.28136 0.49661 0.0
C375 C 0.98849 0.30827 0.50045 0.0
C376 C 0.97316 0.32199 0.4749 0.0
C377 C 0.95916 0.30274 0.45368 0.0
C378 C 0.96671 0.27831 0.46775 0.0
N379 N 0.98448 0.22534 0.49506 0.0
C380 C 0.96539 0.22771 0.4669 0.0
C381 C 0.95605 0.20288 0.45274 0.0
C382 C 0.96957 0.18414 0.47283 0.0
C383 C 0.98622 0.19851 0.4981 0.0
N384 N 0.02272 0.22615 0.55837 0.0
C385 C 0.02055 0.19921 0.55353 0.0
C386 C 0.03706 0.18546 0.57774 0.0
C387 C 0.05096 0.20475 0.599 0.0
C388 C 0.04197 0.22924 0.58653 0.0
N389 N 0.97358 0.25432 0.55886 0.0
C390 C 0.9291 0.25471 0.60019 0.0
C391 C 0.94253 0.23093 0.59251 0.0
C392 C 0.9644 0.23117 0.57189 0.0
C393 C 0.93867 0.27836 0.58724 0.0
C394 C 0.96082 0.27774 0.56708 0.0
N395 N 0.03386 0.25319 0.4966 0.0
C396 C 0.06514 0.22857 0.46208 0.0
C397 C 0.07758 0.25227 0.45411 0.0
C398 C 0.06764 0.27646 0.46756 0.0
C399 C 0.046 0.27646 0.48862 0.0
C400 C 0.04346 0.22948 0.48308 0.0
H401 H 0.0396 0.29553 0.49837 0.0
H402 H 0.03487 0.21072 0.48808 0.0
H403 H 0.9734 0.21231 0.56671 0.0
H404 H 0.96703 0.29646 0.55811 0.0
C405 C 0.00403 0.3201 0.53029 0.0
C406 C 0.05324 0.25481 0.60109 0.0
C407 C 0.95459 0.25296 0.45392 0.0
C408 C 0.00326 0.18743 0.52545 0.0
H409 H 0.06411 0.30878 0.62787 0.0
H410 H 0.03695 0.34495 0.58937 0.0
H411 H 0.97166 0.34347 0.47271 0.0
H412 H 0.94452 0.30628 0.43099 0.0
H413 H 0.94068 0.19873 0.43064 0.0
H414 H 0.96715 0.1626 0.46985 0.0
H415 H 0.03915 0.16398 0.57925 0.0
H416 H 0.06635 0.20118 0.62075 0.0
H417 H 0.93636 0.2121 0.60249 0.0
H418 H 0.92889 0.29732 0.59199 0.0
H419 H 0.07189 0.20933 0.45184 0.0
H420 H 0.07679 0.29536 0.46242 0.0
C421 C 0.72919 0.05235 0.56207 0.0
C422 C 0.7043 0.06235 0.56894 0.0
C423 C 0.68568 0.04598 0.54994 0.0
C424 C 0.70008 0.02703 0.53237 0.0
N425 N 0.72684 0.03033 0.53876 0.0
Co426 Co 0.75481 0.00703 0.51788 0.0
N427 N 0.7272 0.98367 0.4886 0.0
C428 C 0.70044 0.98724 0.48626 0.0
C429 C 0.68639 0.96876 0.46343 0.0
C430 C 0.70526 0.95233 0.45032 0.0
C431 C 0.72988 0.96159 0.46621 0.0
N432 N 0.78273 0.98305 0.49814 0.0
C433 C 0.7803 0.9605 0.47584 0.0
C434 C 0.80505 0.94932 0.47096 0.0
C435 C 0.82373 0.96534 0.49054 0.0
C436 C 0.80945 0.98522 0.5065 0.0
N437 N 0.78243 0.03105 0.546 0.0
C438 C 0.80924 0.02862 0.54619 0.0
C439 C 0.82334 0.04781 0.56771 0.0
C440 C 0.80447 0.06365 0.58195 0.0
C441 C 0.77974 0.05329 0.56813 0.0
N442 N 0.75423 0.98377 0.5596 0.0
C443 C 0.75506 0.94489 0.61197 0.0
C444 C 0.77812 0.95918 0.60693 0.0
C445 C 0.77727 0.97836 0.58078 0.0
C446 C 0.73111 0.95187 0.59244 0.0
C447 C 0.73111 0.97148 0.56683 0.0
N448 N 0.75555 0.03027 0.47616 0.0
C449 C 0.78079 0.0552 0.43661 0.0
C450 C 0.75774 0.06832 0.42316 0.0
C451 C 0.73333 0.06086 0.4348 0.0
C452 C 0.73268 0.04179 0.461 0.0
C453 C 0.77923 0.03631 0.46284 0.0
H454 H 0.71355 0.03722 0.46916 0.0
H455 H 0.7976 0.0275 0.47266 0.0
H456 H 0.79571 0.98793 0.57763 0.0
H457 H 0.71234 0.97571 0.55245 0.0
C458 C 0.68907 0.00715 0.50757 0.0
C459 C 0.75436 0.06498 0.57761 0.0
C460 C 0.75513 0.94862 0.45912 0.0
C461 C 0.82055 0.00684 0.52817 0.0
H462 H 0.69993 0.07994 0.58547 0.0
H463 H 0.66418 0.04803 0.54844 0.0
H464 H 0.66494 0.96722 0.4574 0.0
H465 H 0.70129 0.93533 0.43134 0.0
H466 H 0.80922 0.93137 0.45501 0.0
H467 H 0.84519 0.96282 0.49281 0.0
H468 H 0.84481 0.04971 0.57306 0.0
H469 H 0.80855 0.08066 0.60084 0.0
H470 H 0.79698 0.95506 0.62233 0.0
H471 H 0.71264 0.94144 0.59555 0.0
H472 H 0.80015 0.06038 0.4283 0.0
H473 H 0.71488 0.07017 0.42439 0.0
C474 C 0.04527 0.7918 0.56148 0.0
C475 C 0.05482 0.81677 0.57487 0.0
C476 C 0.03992 0.83534 0.55625 0.0
C477 C 0.02235 0.82076 0.5325 0.0
N478 N 0.02475 0.79395 0.53518 0.0
Co479 Co 0.00477 0.76539 0.50356 0.0
N480 N 0.98395 0.7928 0.47487 0.0
C481 C 0.98591 0.81974 0.47965 0.0
C482 C 0.96854 0.83336 0.4564 0.0
C483 C 0.95415 0.81397 0.43605 0.0
C484 C 0.96354 0.78955 0.44832 0.0
N485 N 0.98535 0.73685 0.47124 0.0
C486 C 0.96476 0.73893 0.44499 0.0
C487 C 0.95628 0.71393 0.43032 0.0
C488 C 0.972 0.69545 0.44793 0.0
C489 C 0.98903 0.71007 0.47241 0.0
N490 N 0.02498 0.73798 0.53301 0.0
C491 C 0.02212 0.71105 0.52925 0.0
C492 C 0.03877 0.69744 0.55347 0.0
C493 C 0.05338 0.71681 0.57364 0.0
C494 C 0.04488 0.74118 0.56029 0.0
N495 N 0.97609 0.76502 0.53717 0.0
C496 C 0.93293 0.76444 0.58076 0.0
C497 C 0.94242 0.74077 0.56521 0.0
C498 C 0.96394 0.74148 0.54402 0.0
C499 C 0.94584 0.7884 0.57491 0.0
C500 C 0.96712 0.78826 0.55302 0.0
N501 N 0.03341 0.76568 0.46981 0.0
C502 C 0.06688 0.74221 0.43771 0.0
C503 C 0.07509 0.76593 0.42337 0.0
C504 C 0.06189 0.78954 0.43272 0.0
C505 C 0.04142 0.78899 0.45585 0.0
C506 C 0.04616 0.74251 0.46037 0.0
H507 H 0.03244 0.80771 0.46209 0.0
H508 H 0.041 0.72371 0.47015 0.0
H509 H 0.97016 0.72268 0.53316 0.0
H510 H 0.97574 0.80723 0.54886 0.0
C511 C 0.00401 0.83164 0.50658 0.0
C512 C 0.05726 0.76667 0.57313 0.0
C513 C 0.95153 0.76394 0.43512 0.0
C514 C 0.00578 0.69915 0.50024 0.0
H515 H 0.07127 0.82122 0.59531 0.0
H516 H 0.04213 0.8569 0.55902 0.0
H517 H 0.96629 0.85483 0.45489 0.0
H518 H 0.93815 0.8174 0.41505 0.0
H519 H 0.9398 0.70927 0.41004 0.0
H520 H 0.97023 0.67387 0.44468 0.0
H521 H 0.04075 0.67597 0.55531 0.0
H522 H 0.06907 0.71337 0.59507 0.0
H523 H 0.93335 0.72166 0.56952 0.0
H524 H 0.93912 0.80727 0.5864 0.0
H525 H 0.07664 0.72338 0.43203 0.0
H526 H 0.0671 0.80845 0.42205 0.0
C527 C 0.27198 0.96322 0.56778 0.0
C528 C 0.29676 0.95466 0.58269 0.0
C529 C 0.31522 0.97245 0.57345 0.0
C530 C 0.30091 0.99067 0.5531 0.0
N531 N 0.27434 0.98559 0.5485 0.0
Co532 Co 0.24677 0.00674 0.51882 0.0
N533 N 0.27421 0.03281 0.50494 0.0
C534 C 0.30068 0.03256 0.51575 0.0
C535 C 0.31465 0.05315 0.5032 0.0
C536 C 0.2961 0.06738 0.48283 0.0
C537 C 0.27173 0.05444 0.48368 0.0
N538 N 0.2192 0.02798 0.48918 0.0
C539 C 0.22179 0.04954 0.46837 0.0
C540 C 0.19732 0.05673 0.45091 0.0
C541 C 0.17867 0.03966 0.46145 0.0
C542 C 0.19264 0.02279 0.48437 0.0
N543 N 0.21934 0.98056 0.53256 0.0
C544 C 0.19277 0.98117 0.52241 0.0
C545 C 0.17859 0.96159 0.53691 0.0
C546 C 0.19713 0.94752 0.55755 0.0
C547 C 0.22182 0.95913 0.55423 0.0
N548 N 0.24116 0.02966 0.56249 0.0
C549 C 0.23292 0.06519 0.62142 0.0
C550 C 0.21137 0.05287 0.6006 0.0
C551 C 0.2159 0.03539 0.57145 0.0
C552 C 0.25872 0.05839 0.61346 0.0
C553 C 0.26235 0.04056 0.58424 0.0
N554 N 0.25228 0.98382 0.4752 0.0
C555 C 0.23388 0.956 0.42389 0.0
C556 C 0.25938 0.94791 0.41642 0.0
C557 C 0.28139 0.95896 0.43776 0.0
C558 C 0.2774 0.97697 0.4667 0.0
C559 C 0.23083 0.97382 0.45314 0.0
H560 H 0.29489 0.98467 0.48214 0.0
H561 H 0.21087 0.97862 0.45781 0.0
H562 H 0.1986 0.02722 0.55629 0.0
H563 H 0.28245 0.0364 0.57936 0.0
C564 C 0.31187 0.01262 0.53763 0.0
C565 C 0.2469 0.94928 0.57274 0.0
C566 C 0.24692 0.06356 0.46369 0.0
C567 C 0.1816 1.00103 0.50026 0.0
H568 H 0.30118 0.93727 0.59851 0.0
H569 H 0.3366 0.97204 0.58053 0.0
H570 H 0.33582 0.05734 0.5083 0.0
H571 H 0.30017 0.08531 0.46899 0.0
H572 H 0.19326 0.07242 0.43199 0.0
H573 H 0.15749 0.03923 0.45278 0.0
H574 H 0.15722 0.95823 0.53338 0.0
H575 H 0.19277 0.93079 0.57359 0.0
H576 H 0.191 0.05714 0.60622 0.0
H577 H 0.27611 0.06757 0.62866 0.0
H578 H 0.2162 0.94769 0.40831 0.0
H579 H 0.30154 0.95338 0.43256 0.0
C580 C 0.54374 0.76841 0.06345 0.0
C581 C 0.5528 0.79306 0.07881 0.0
C582 C 0.53926 0.81221 0.05957 0.0
C583 C 0.52287 0.79833 0.03353 0.0
N584 N 0.52501 0.7714 0.035 0.0
Co585 Co 0.50508 0.74383 1.00164 0.0
N586 N 0.48696 0.77218 0.97169 0.0
C587 C 0.49164 0.79885 0.97508 0.0
C588 C 0.47622 0.81327 0.9504 0.0
C589 C 0.46048 0.79473 0.93032 0.0
C590 C 0.46712 0.77002 0.94423 0.0
N591 N 0.48407 0.71635 0.96931 0.0
C592 C 0.46356 0.71961 0.94327 0.0
C593 C 0.45275 0.6952 0.92966 0.0
C594 C 0.46677 0.67583 0.94793 0.0
C595 C 0.48511 0.68945 0.97173 0.0
N596 N 0.52409 0.71543 0.03064 0.0
C597 C 0.52156 0.68861 0.02459 0.0
C598 C 0.53763 0.6741 0.04839 0.0
C599 C 0.55163 0.69275 0.07065 0.0
C600 C 0.54333 0.71768 0.05896 0.0
N601 N 0.47573 0.74482 0.0341 0.0
C602 C 0.43179 0.74559 0.07654 0.0
C603 C 0.44548 0.72185 0.06946 0.0
C604 C 0.46705 0.72188 0.04827 0.0
C605 C 0.441 0.76907 0.06255 0.0
C606 C 0.46293 0.76829 0.04192 0.0
N607 N 0.53449 0.74275 0.96902 0.0
C608 C 0.56252 0.71786 0.92963 0.0
C609 C 0.57758 0.74073 0.92511 0.0
C610 C 0.57048 0.7647 0.94256 0.0
C611 C 0.54898 0.7653 0.96395 0.0
C612 C 0.54136 0.71927 0.95161 0.0
H613 H 0.54461 0.78427 0.97621 0.0
H614 H 0.53107 0.70099 0.95433 0.0
H615 H 0.47623 0.70302 0.04348 0.0
H616 H 0.46895 0.78688 0.03213 0.0
C617 C 0.50777 0.80996 0.00477 0.0
C618 C 0.55467 0.74282 0.07531 0.0
C619 C 0.45287 0.74539 0.93207 0.0
C620 C 0.50303 0.67766 0.99738 0.0
H621 H 0.56822 0.79701 0.10086 0.0
H622 H 0.54192 0.83369 0.06314 0.0
H623 H 0.4756 0.8348 0.94839 0.0
H624 H 0.44517 0.79897 0.90874 0.0
H625 H 0.43605 0.6917 0.90928 0.0
H626 H 0.46349 0.65441 0.94492 0.0
H627 H 0.53892 0.65253 0.04952 0.0
H628 H 0.56637 0.68848 0.09291 0.0
H629 H 0.4397 0.70317 0.08026 0.0
H630 H 0.43107 0.78802 0.06678 0.0
H631 H 0.56738 0.69876 0.91686 0.0
H632 H 0.58132 0.78305 0.93945 0.0
C633 C 0.23254 0.53747 0.07468 0.0
C634 C 0.20739 0.54251 0.08595 0.0
C635 C 0.18956 0.52892 0.06163 0.0
C636 C 0.20484 0.51629 0.03725 0.0
N637 N 0.23136 0.52074 0.04478 0.0
Co638 Co 0.26088 0.50551 0.01763 0.0
N639 N 0.23465 0.48816 0.9796 0.0
C640 C 0.20775 0.49048 0.97682 0.0
C641 C 0.19518 0.47701 0.94681 0.0
C642 C 0.21525 0.46523 0.92953 0.0
C643 C 0.23894 0.47211 0.95029 0.0
N644 N 0.29043 0.48918 0.99134 0.0
C645 C 0.28925 0.47178 0.96204 0.0
C646 C 0.31455 0.46393 0.95373 0.0
C647 C 0.33235 0.47678 0.97877 0.0
C648 C 0.31698 0.49148 1.00096 0.0
N649 N 0.2871 0.52399 0.05482 0.0
C650 C 0.31404 0.52357 0.05579 0.0
C651 C 0.32672 0.53981 0.08293 0.0
C652 C 0.30667 0.55175 0.1 0.0
C653 C 0.28281 0.54183 0.08235 0.0
N654 N 0.26079 0.47296 0.04772 0.0
C655 C 0.26007 0.42765 0.09213 0.0
C656 C 0.28356 0.44236 0.08967 0.0
C657 C 0.2835 0.46458 0.06757 0.0
C658 C 0.23707 0.43603 0.07126 0.0
C659 C 0.23786 0.45835 0.04953 0.0
N660 N 0.26082 0.53803 0.98751 0.0
C661 C 0.28395 0.5693 0.9526 0.0
C662 C 0.26031 0.58312 0.94284 0.0
C663 C 0.237 0.57408 0.9564 0.0
C664 C 0.23764 0.55167 0.97816 0.0
C665 C 0.28383 0.54729 0.97503 0.0
H666 H 0.21901 0.54567 0.98692 0.0
H667 H 0.30268 0.5381 0.98191 0.0
H668 H 0.30211 0.47476 0.06712 0.0
H669 H 0.21957 0.46341 0.0344 0.0
C670 C 0.19484 0.50297 0.00477 0.0
C671 C 0.25659 0.551 0.09112 0.0
C672 C 0.2647 0.46114 0.9427 0.0
C673 C 0.32686 0.50797 0.03059 0.0
H674 H 0.20246 0.55553 0.10857 0.0
H675 H 0.168 0.5292 0.06088 0.0
H676 H 0.17392 0.47517 0.93914 0.0
H677 H 0.21278 0.45231 0.90508 0.0
H678 H 0.31971 0.45006 0.93219 0.0
H679 H 0.35392 0.47535 0.9808 0.0
H680 H 0.34799 0.54304 0.08907 0.0
H681 H 0.3095 0.56651 0.12236 0.0
H682 H 0.302 0.43713 0.10526 0.0
H683 H 0.2184 0.42525 0.07122 0.0
H684 H 0.30266 0.57566 0.9434 0.0
H685 H 0.21811 0.58389 0.94961 0.0
C686 C 0.46456 0.28603 0.97412 0.0
C687 C 0.45683 0.31117 0.9627 0.0
C688 C 0.47219 0.32936 0.98403 0.0
C689 C 0.48835 0.31436 0.00714 0.0
N690 N 0.4844 0.28767 1.00166 0.0
Co691 Co 0.50366 0.25862 0.02901 0.0
N692 N 0.52334 0.28545 0.06383 0.0
C693 C 0.52026 0.31235 0.06482 0.0
C694 C 0.53658 0.32557 0.09167 0.0
C695 C 0.55114 0.30597 0.10867 0.0
C696 C 0.54282 0.28182 0.09108 0.0
N697 N 0.52392 0.22961 0.05517 0.0
C698 C 0.54427 0.23141 0.08202 0.0
C699 C 0.55403 0.20637 0.09101 0.0
C700 C 0.5397 0.18808 0.06851 0.0
C701 C 0.5221 0.20295 0.04718 0.0
N702 N 0.48283 0.23176 0.99551 0.0
C703 C 0.48454 0.20476 0.99595 0.0
C704 C 0.46666 0.19157 0.971 0.0
C705 C 0.45226 0.21132 0.95406 0.0
C706 C 0.46231 0.23547 0.96975 0.0
N707 N 0.53243 0.25983 0.99563 0.0
C708 C 0.57556 0.26026 0.95172 0.0
C709 C 0.55938 0.23757 0.95252 0.0
C710 C 0.53839 0.23769 0.97468 0.0
C711 C 0.56919 0.28299 0.9727 0.0
C712 C 0.54755 0.28247 0.99379 0.0
N713 N 0.47501 0.25733 0.06232 0.0
C714 C 0.44584 0.23182 0.09624 0.0
C715 C 0.43259 0.25503 0.10686 0.0
C716 C 0.44125 0.27949 0.0952 0.0
C717 C 0.46233 0.28019 0.07318 0.0
C718 C 0.46683 0.23341 0.07426 0.0
H719 H 0.46792 0.29943 0.06507 0.0
H720 H 0.47589 0.21495 0.06691 0.0
H721 H 0.52748 0.21946 0.97446 0.0
H722 H 0.54372 0.3006 0.0087 0.0
C723 C 0.50461 0.32473 0.03724 0.0
C724 C 0.45128 0.26134 0.95982 0.0
C725 C 0.55556 0.2563 0.09901 0.0
C726 C 0.50342 0.19247 0.01983 0.0
H727 H 0.44112 0.31593 0.94193 0.0
H728 H 0.47085 0.35097 0.98387 0.0
H729 H 0.53858 0.34697 0.0971 0.0
H730 H 0.56682 0.30925 0.13058 0.0
H731 H 0.57009 0.20186 0.11143 0.0
H732 H 0.54202 0.16654 0.06755 0.0
H733 H 0.46421 0.17017 0.96597 0.0
H734 H 0.43602 0.20832 0.93282 0.0
H735 H 0.56271 0.21961 0.93609 0.0
H736 H 0.58106 0.30111 0.97356 0.0
H737 H 0.43973 0.21233 0.10417 0.0
H738 H 0.43192 0.2981 0.10315 0.0
C739 C 0.71686 0.55431 0.05723 0.0
C740 C 0.69219 0.56611 0.06074 0.0
C741 C 0.67355 0.55005 0.04116 0.0
C742 C 0.68778 0.52952 0.02659 0.0
N743 N 0.71443 0.53136 0.03574 0.0
Co744 Co 0.74233 0.50618 0.01856 0.0
N745 N 0.71472 0.48198 0.99076 0.0
C746 C 0.6879 0.48499 0.9894 0.0
C747 C 0.67384 0.46559 0.96823 0.0
C748 C 0.69273 0.44906 0.95536 0.0
C749 C 0.71743 0.45925 0.96959 0.0
N750 N 0.7703 0.48156 1.00029 0.0
C751 C 0.76796 0.45915 0.97771 0.0
C752 C 0.79281 0.44834 0.97236 0.0
C753 C 0.81143 0.46461 0.99154 0.0
C754 C 0.79705 0.48431 0.00769 0.0
N755 N 0.7699 0.52981 0.04743 0.0
C756 C 0.7966 0.52577 0.05092 0.0
C757 C 0.81058 0.54457 0.07329 0.0
C758 C 0.79172 0.56169 0.08493 0.0
C759 C 0.76718 0.55245 0.06871 0.0
N760 N 0.74016 0.48453 0.06167 0.0
C761 C 0.73633 0.44964 0.11834 0.0
C762 C 0.76112 0.45601 0.10687 0.0
C763 C 0.76258 0.47347 0.07882 0.0
C764 C 0.71367 0.46217 0.10242 0.0
C765 C 0.71603 0.47947 0.0744 0.0
N766 N 0.74436 0.52781 0.97545 0.0
C767 C 0.76953 0.55576 0.93937 0.0
C768 C 0.74631 0.56215 0.91774 0.0
C769 C 0.72239 0.54997 0.92429 0.0
C770 C 0.72185 0.53311 0.95311 0.0
C771 C 0.76814 0.53849 0.96769 0.0
H772 H 0.70287 0.525 0.95703 0.0
H773 H 0.78646 0.53454 0.98337 0.0
H774 H 0.78197 0.47711 0.07091 0.0
H775 H 0.69796 0.48801 0.06302 0.0
C776 C 0.67663 0.50751 0.00577 0.0
C777 C 0.74195 0.56586 0.07465 0.0
C778 C 0.74282 0.44701 0.96126 0.0
C779 C 0.80803 0.5048 0.03152 0.0
H780 H 0.68806 0.58444 0.0759 0.0
H781 H 0.65213 0.55291 0.03814 0.0
H782 H 0.6524 0.46404 0.9621 0.0
H783 H 0.68869 0.43174 0.937 0.0
H784 H 0.79712 0.43037 0.95656 0.0
H785 H 0.8329 0.46213 0.9939 0.0
H786 H 0.83197 0.54579 0.08012 0.0
H787 H 0.79564 0.57904 0.1033 0.0
H788 H 0.77927 0.44666 0.11827 0.0
H789 H 0.69408 0.45821 0.11095 0.0
H790 H 0.78857 0.56475 0.93542 0.0
H791 H 0.70397 0.55377 0.90765 0.0
C792 C 0.14277 0.23205 0.41669 0.0
C793 C 0.14458 0.25044 0.38937 0.0
H794 H 0.12028 0.21829 0.45863 0.0
C795 C 0.12431 0.26958 0.38371 0.0
H796 H 0.15794 0.21692 0.42149 0.0
C797 C 0.10267 0.27028 0.40483 0.0
C798 C 0.10074 0.25175 0.43196 0.0
H799 H 0.12527 0.28417 0.36308 0.0
H800 H 0.08725 0.28509 0.39956 0.0
C801 C 0.12105 0.23266 0.43768 0.0
C802 C 0.77923 0.11311 0.35136 0.0
C803 C 0.76611 0.13699 0.36013 0.0
H804 H 0.78669 0.0723 0.36446 0.0
C805 C 0.7492 0.13765 0.38827 0.0
H806 H 0.79234 0.11217 0.32971 0.0
C807 C 0.74593 0.11502 0.40792 0.0
C808 C 0.75953 0.0913 0.39986 0.0
H809 H 0.73852 0.15572 0.39514 0.0
H810 H 0.73333 0.11636 0.43015 0.0
C811 C 0.77608 0.09043 0.37125 0.0
C812 C 0.89723 0.75426 0.35708 0.0
C813 C 0.87476 0.76508 0.3725 0.0
H814 H 0.93922 0.74598 0.36458 0.0
C815 C 0.87793 0.77521 0.40889 0.0
H816 H 0.89564 0.74578 0.32945 0.0
C817 C 0.90274 0.77428 0.4293 0.0
C818 C 0.92501 0.76365 0.41364 0.0
H819 H 0.86138 0.78423 0.4216 0.0
H820 H 0.90465 0.78218 0.45726 0.0
C821 C 0.92216 0.75393 0.37729 0.0
C822 C 0.27785 0.88111 0.3753 0.0
C823 C 0.26034 0.87954 0.34331 0.0
H824 H 0.29142 0.90434 0.42355 0.0
C825 C 0.24521 0.90203 0.33312 0.0
H826 H 0.29008 0.86417 0.38337 0.0
C827 C 0.24625 0.92512 0.35582 0.0
C828 C 0.26242 0.92604 0.38902 0.0
H829 H 0.23154 0.90132 0.30858 0.0
H830 H 0.23355 0.94184 0.34818 0.0
C831 C 0.2789 0.90421 0.39799 0.0
C832 C 0.13085 0.75805 0.60193 0.0
C833 C 0.13271 0.76757 0.63852 0.0
H834 H 0.10529 0.75059 0.55253 0.0
C835 C 0.10947 0.77657 0.65358 0.0
H836 H 0.14844 0.75115 0.58956 0.0
C837 C 0.08488 0.77607 0.63246 0.0
C838 C 0.08321 0.76688 0.59587 0.0
H839 H 0.11025 0.78363 0.68184 0.0
H840 H 0.06717 0.78292 0.6446 0.0
C841 C 0.10629 0.75778 0.58077 0.0
C842 C 0.24432 0.11299 0.70368 0.0
C843 C 0.22577 0.13313 0.69441 0.0
H844 H 0.26078 0.0752 0.68808 0.0
C845 C 0.20741 0.12909 0.66357 0.0
H846 H 0.25877 0.11563 0.72726 0.0
C847 C 0.20886 0.10624 0.64087 0.0
C848 C 0.22859 0.0869 0.64875 0.0
H849 H 0.19266 0.14416 0.65614 0.0
H850 H 0.1955 0.10455 0.61608 0.0
C851 C 0.24568 0.09002 0.68104 0.0
C852 C 0.87804 0.27638 0.6653 0.0
C853 C 0.86009 0.25469 0.66144 0.0
H854 H 0.91422 0.29309 0.64999 0.0
C855 C 0.86481 0.2331 0.63723 0.0
H856 H 0.87503 0.29313 0.68412 0.0
C857 C 0.88702 0.23321 0.6172 0.0
C858 C 0.90525 0.25477 0.62127 0.0
H859 H 0.8511 0.21626 0.63343 0.0
H860 H 0.88968 0.21649 0.5982 0.0
C861 C 0.90044 0.27636 0.64561 0.0
C862 C 0.7785 0.88006 0.65233 0.0
C863 C 0.75728 0.87375 0.67245 0.0
H864 H 0.79417 0.90727 0.61696 0.0
C865 C 0.73601 0.89176 0.67459 0.0
H866 H 0.79494 0.8663 0.64985 0.0
C867 C 0.73565 0.91545 0.65603 0.0
C868 C 0.75648 0.92137 0.63487 0.0
H869 H 0.71955 0.8874 0.69033 0.0
H870 H 0.71893 0.92894 0.65787 0.0
C871 C 0.77807 0.90359 0.63361 0.0
C872 C 0.86475 0.74792 0.61013 0.0
C873 C 0.86546 0.76139 0.64446 0.0
H874 H 0.88552 0.7383 0.56322 0.0
C875 C 0.88834 0.77641 0.65743 0.0
H876 H 0.84748 0.73605 0.59953 0.0
C877 C 0.91008 0.77786 0.63651 0.0
C878 C 0.90953 0.76395 0.60248 0.0
H879 H 0.88937 0.78715 0.68369 0.0
H880 H 0.92753 0.7894 0.64727 0.0
C881 C 0.8866 0.74904 0.58949 0.0
C882 C 0.23769 0.87799 0.6046 0.0
C883 C 0.24808 0.87994 0.64162 0.0
H884 H 0.22977 0.89765 0.55409 0.0
C885 C 0.25783 0.90531 0.65546 0.0
H886 H 0.22936 0.85936 0.59245 0.0
C887 C 0.25697 0.92763 0.63348 0.0
C888 C 0.247 0.92538 0.59656 0.0
H889 H 0.2666 0.90813 0.68325 0.0
H890 H 0.26446 0.94672 0.64533 0.0
C891 C 0.2375 0.90018 0.58244 0.0
C892 C 0.10159 0.25109 0.68567 0.0
C893 C 0.12607 0.25689 0.67209 0.0
H894 H 0.0592 0.24598 0.67355 0.0
C895 C 0.12624 0.26198 0.63496 0.0
H896 H 0.10073 0.24742 0.7142 0.0
C897 C 0.10251 0.2613 0.61198 0.0
C898 C 0.07826 0.25543 0.62568 0.0
H899 H 0.14477 0.26614 0.62352 0.0
H900 H 0.10307 0.26521 0.58345 0.0
C901 C 0.07787 0.25039 0.66261 0.0
C902 C 0.74249 0.1117 0.65973 0.0
C903 C 0.75328 0.13632 0.6506 0.0
H904 H 0.73475 0.07016 0.64444 0.0
C905 C 0.76455 0.13696 0.61704 0.0
H906 H 0.73314 0.11011 0.68473 0.0
C907 C 0.76476 0.11403 0.59348 0.0
C908 C 0.75412 0.08958 0.60288 0.0
H909 H 0.77359 0.15511 0.60893 0.0
H910 H 0.77338 0.11538 0.56784 0.0
C911 C 0.74311 0.0887 0.63639 0.0
C912 C 0.90644 0.24675 0.36869 0.0
C913 C 0.88223 0.25457 0.38219 0.0
H914 H 0.94849 0.24021 0.3811 0.0
C915 C 0.88211 0.26162 0.4195 0.0
H916 H 0.90726 0.24152 0.34003 0.0
C917 C 0.90565 0.26092 0.44274 0.0
C918 C 0.92967 0.25311 0.42912 0.0
H919 H 0.86376 0.26737 0.43084 0.0
H920 H 0.90515 0.26643 0.4714 0.0
C921 C 0.93 0.24608 0.39201 0.0
C922 C 0.74403 0.87604 0.42299 0.0
C923 C 0.75416 0.87602 0.38864 0.0
H924 H 0.73661 0.89871 0.472 0.0
C925 C 0.76486 0.90024 0.37803 0.0
H926 H 0.73596 0.85787 0.43255 0.0
C927 C 0.76531 0.9236 0.40085 0.0
C928 C 0.75512 0.92348 0.43498 0.0
H929 H 0.77251 0.90135 0.35171 0.0
H930 H 0.77343 0.9419 0.39169 0.0
C931 C 0.74452 0.89941 0.44579 0.0
C932 C 0.1222 0.74348 0.35306 0.0
C933 C 0.14027 0.76503 0.35465 0.0
H934 H 0.08718 0.72718 0.37229 0.0
C935 C 0.13645 0.78723 0.37832 0.0
H936 H 0.12439 0.72627 0.33466 0.0
C937 C 0.11532 0.78762 0.40046 0.0
C938 C 0.09729 0.76594 0.39915 0.0
H939 H 0.15021 0.80403 0.38035 0.0
H940 H 0.11352 0.8047 0.41917 0.0
C941 C 0.10091 0.74399 0.37482 0.0
C942 C 0.2326 0.13182 0.42203 0.0
C943 C 0.24891 0.13132 0.39305 0.0
H944 H 0.21985 0.11148 0.46755 0.0
C945 C 0.26441 0.10832 0.38735 0.0
H946 H 0.22054 0.14925 0.42737 0.0
C947 C 0.26336 0.08633 0.40968 0.0
C948 C 0.24735 0.08694 0.43902 0.0
H949 H 0.27708 0.10718 0.3652 0.0
H950 H 0.27525 0.0688 0.40414 0.0
C951 C 0.23215 0.11013 0.445 0.0
C952 C 0.62004 0.72495 0.84706 0.0
C953 C 0.64426 0.73788 0.85951 0.0
H954 H 0.58005 0.71566 0.85801 0.0
C955 C 0.64644 0.75152 0.89383 0.0
H956 H 0.61781 0.71414 0.82084 0.0
C957 C 0.62481 0.75249 0.91503 0.0
C958 C 0.60058 0.73958 0.90258 0.0
H959 H 0.66475 0.76188 0.90404 0.0
H960 H 0.62712 0.76317 0.94135 0.0
C961 C 0.5985 0.72566 0.86845 0.0
C962 C 0.24527 0.652 0.90412 0.0
C963 C 0.25885 0.65108 0.87243 0.0
H964 H 0.23484 0.63154 0.95075 0.0
C965 C 0.273 0.62758 0.86425 0.0
H966 H 0.23401 0.66962 0.91125 0.0
C967 C 0.27374 0.60581 0.88718 0.0
C968 C 0.25992 0.60662 0.91867 0.0
H969 H 0.28386 0.62613 0.84029 0.0
H970 H 0.28483 0.58811 0.87991 0.0
C971 C 0.24559 0.63004 0.92668 0.0
C972 C 0.37716 0.25725 0.93189 0.0
C973 C 0.37588 0.26281 0.89477 0.0
H974 H 0.40228 0.25258 0.98151 0.0
C975 C 0.39969 0.26837 0.87934 0.0
H976 H 0.35916 0.25326 0.9447 0.0
C977 C 0.42425 0.26812 0.90053 0.0
C978 C 0.42533 0.26241 0.93742 0.0
H979 H 0.39941 0.27241 0.85075 0.0
H980 H 0.44242 0.27214 0.88812 0.0
C981 C 0.4017 0.25702 0.953 0.0
C982 C 0.7326 0.37491 0.92258 0.0
C983 C 0.74436 0.37524 0.88935 0.0
H984 H 0.7232 0.39691 0.97118 0.0
C985 C 0.75541 0.3997 0.88013 0.0
H986 H 0.72339 0.35685 0.9307 0.0
C987 C 0.75465 0.42286 0.90314 0.0
C988 C 0.74313 0.42228 0.93631 0.0
H989 H 0.76509 0.401 0.85534 0.0
H990 H 0.7633 0.44127 0.89512 0.0
C991 C 0.73218 0.398 0.94577 0.0
C992 C 0.62999 0.2516 0.12361 0.0
C993 C 0.63206 0.25665 0.16156 0.0
H994 H 0.60389 0.24767 0.07415 0.0
C995 C 0.60863 0.26111 0.17891 0.0
H996 H 0.64769 0.24836 0.10944 0.0
C997 C 0.58368 0.26067 0.15868 0.0
C998 C 0.58182 0.25597 0.12083 0.0
H999 H 0.60957 0.26469 0.20816 0.0
H1000 H 0.56584 0.26417 0.17248 0.0
C1001 C 0.60505 0.25128 0.10342 0.0
C1002 C 0.75304 0.63849 0.11025 0.0
C1003 C 0.74257 0.63869 0.14438 0.0
H1004 H 0.76086 0.61556 0.06162 0.0
C1005 C 0.73163 0.61459 0.155 0.0
H1006 H 0.76129 0.65658 0.10069 0.0
C1007 C 0.73129 0.59115 0.13238 0.0
C1008 C 0.74185 0.59109 0.09851 0.0
H1009 H 0.72373 0.61364 0.18116 0.0
H1010 H 0.72297 0.57294 0.14151 0.0
C1011 C 0.75267 0.61503 0.08767 0.0
C1012 C 0.36781 0.72405 0.11499 0.0
C1013 C 0.36231 0.74648 0.1373 0.0
H1014 H 0.39334 0.70647 0.07749 0.0
C1015 C 0.37992 0.76845 0.14001 0.0
H1016 H 0.35441 0.70696 0.11211 0.0
C1017 C 0.40257 0.76803 0.12077 0.0
C1018 C 0.40798 0.74578 0.09788 0.0
H1019 H 0.37633 0.78587 0.1574 0.0
H1020 H 0.41594 0.78512 0.12418 0.0
C1021 C 0.39025 0.72378 0.09529 0.0
C1022 C 0.28106 0.36488 0.14416 0.0
C1023 C 0.25828 0.35918 0.16202 0.0
H1024 H 0.29943 0.39003 0.10806 0.0
C1025 C 0.23613 0.37632 0.15656 0.0
H1026 H 0.29842 0.35206 0.147 0.0
C1027 C 0.23673 0.39829 0.13414 0.0
C1028 C 0.25949 0.40399 0.11621 0.0
H1029 H 0.21835 0.37308 0.17016 0.0
H1030 H 0.21938 0.41111 0.13144 0.0
C1031 C 0.28165 0.38683 0.12167 0.0
C1032 C 0.38827 0.234 0.17847 0.0
C1033 C 0.36557 0.25 0.17122 0.0
H1034 H 0.42729 0.2233 0.16434 0.0
C1035 C 0.36526 0.26795 0.14297 0.0
H1036 H 0.3891 0.2198 0.19981 0.0
C1037 C 0.38703 0.26972 0.12232 0.0
C1038 C 0.40968 0.25361 0.12943 0.0
H1039 H 0.34824 0.28082 0.13695 0.0
H1040 H 0.38593 0.28345 0.1004 0.0
C1041 C 0.41006 0.23579 0.15784 0.0
C1042 C 0.71411 0.38587 0.15719 0.0
C1043 C 0.73433 0.38238 0.18546 0.0
H1044 H 0.69897 0.40992 0.1137 0.0
C1045 C 0.75338 0.40276 0.19438 0.0
H1046 H 0.69899 0.37059 0.15011 0.0
C1047 C 0.75322 0.42547 0.17379 0.0
C1048 C 0.73399 0.42814 0.14401 0.0
H1049 H 0.76926 0.40053 0.21598 0.0
H1050 H 0.76869 0.44047 0.18036 0.0
C1051 C 0.71395 0.40853 0.13663 0.0
C1052 C 0.60174 0.75351 0.16131 0.0
C1053 C 0.62606 0.7439 0.14985 0.0
H1054 H 0.55996 0.7601 0.14686 0.0
C1055 C 0.62619 0.73278 0.11409 0.0
H1056 H 0.60076 0.76252 0.18836 0.0
C1057 C 0.60297 0.7323 0.0901 0.0
C1058 C 0.57898 0.74237 0.10151 0.0
H1059 H 0.64424 0.72448 0.10444 0.0
H1060 H 0.60376 0.72423 0.06248 0.0
C1061 C 0.57838 0.75243 0.1375 0.0
C1062 C 0.26184 0.60525 0.16598 0.0
C1063 C 0.25072 0.62723 0.1475 0.0
H1064 H 0.27174 0.56354 0.16264 0.0
C1065 C 0.24064 0.62348 0.11076 0.0
H1066 H 0.27009 0.60744 0.19413 0.0
C1067 C 0.24249 0.5986 0.09263 0.0
C1068 C 0.25402 0.57698 0.11106 0.0
H1069 H 0.23134 0.63973 0.09592 0.0
H1070 H 0.2351 0.59624 0.06412 0.0
C1071 C 0.26312 0.58022 0.14799 0.0
C1072 C 0.38029 0.76076 0.90476 0.0
C1073 C 0.37746 0.75205 0.86783 0.0
H1074 H 0.40652 0.76507 0.95407 0.0
C1075 C 0.39961 0.74077 0.85229 0.0
H1076 H 0.36353 0.7693 0.91756 0.0
C1077 C 0.42409 0.73838 0.87319 0.0
C1078 C 0.42673 0.74696 0.91002 0.0
H1079 H 0.39814 0.73422 0.8238 0.0
H1080 H 0.44102 0.73002 0.86059 0.0
C1081 C 0.40473 0.75821 0.92567 0.0
C1082 C 0.25611 0.38804 0.91587 0.0
C1083 C 0.26692 0.38634 0.8821 0.0
H1084 H 0.24725 0.41333 0.96151 0.0
C1085 C 0.27671 0.40968 0.86804 0.0
H1086 H 0.24779 0.37059 0.92704 0.0
C1087 C 0.27575 0.43421 0.88748 0.0
C1088 C 0.26537 0.43557 0.92137 0.0
H1089 H 0.2853 0.40897 0.84222 0.0
H1090 H 0.2833 0.45205 0.87632 0.0
C1091 C 0.25549 0.41245 0.93541 0.0
C1092 C 0.62895 0.28314 0.8931 0.0
C1093 C 0.64285 0.25923 0.88644 0.0
H1094 H 0.59659 0.30215 0.91738 0.0
C1095 C 0.63454 0.23579 0.90188 0.0
H1096 H 0.63492 0.30177 0.88239 0.0
C1097 C 0.61314 0.23626 0.92338 0.0
C1098 C 0.59887 0.26003 0.92942 0.0
H1099 H 0.6443 0.21684 0.89707 0.0
H1100 H 0.60795 0.21786 0.93539 0.0
C1101 C 0.60713 0.28347 0.91391 0.0
C1102 C 0.7268 0.62215 0.86292 0.0
C1103 C 0.74871 0.6247 0.84249 0.0
H1104 H 0.70917 0.60077 0.90318 0.0
C1105 C 0.76929 0.60573 0.84541 0.0
H1106 H 0.7109 0.63681 0.86163 0.0
C1107 C 0.76822 0.58484 0.86904 0.0
C1108 C 0.74663 0.58274 0.89029 0.0
H1109 H 0.7863 0.6072 0.82967 0.0
H1110 H 0.78438 0.5705 0.87089 0.0
C1111 C 0.72581 0.60146 0.88666 0.0
loop_
_geom_bond_atom_site_label_1
_geom_bond_atom_site_label_2
_geom_bond_distance
_geom_bond_site_symmetry_2
_ccdc_geom_bond_type
C0 C1 1.384 . S
C0 C2 1.384 . S
C0 H28 0.931 . S
C1 C0 1.384 . S
C1 C4 1.382 . S
C2 C0 1.384 . S
C2 C3 1.381 . S
C2 H29 0.930 . S
C3 C2 1.381 . S
C3 C5 1.381 . S
C3 C6 1.487 . S
C4 C1 1.382 . S
C4 C5 1.387 . S
C4 H30 0.930 . S
C5 C3 1.381 . S
C5 C4 1.387 . S
C5 H31 0.931 . S
C6 C3 1.487 . S
C6 C13 1.399 . S
C6 N44 1.343 . S
C7 C8 1.384 . S
C7 C9 1.384 . S
C7 H32 0.931 . S
C8 C7 1.384 . S
C8 C11 1.382 . S
C9 C7 1.384 . S
C9 C10 1.381 . S
C9 H33 0.930 . S
C10 C9 1.381 . S
C10 C12 1.381 . S
C10 C13 1.487 . S
C11 C8 1.382 . S
C11 C12 1.387 . S
C11 H34 0.930 . S
C12 C10 1.381 . S
C12 C11 1.387 . S
C12 H35 0.931 . S
C13 C6 1.399 . S
C13 C10 1.487 . S
C13 N45 1.343 . S
C14 C15 1.384 . S
C14 C16 1.384 . S
C14 H36 0.931 . S
C15 C14 1.384 . S
C15 C18 1.382 . S
C16 C14 1.384 . S
C16 C17 1.381 . S
C16 H37 0.930 . S
C17 C16 1.381 . S
C17 C19 1.381 . S
C17 C20 1.487 . S
C18 C15 1.382 . S
C18 C19 1.387 . S
C18 H38 0.930 . S
C19 C17 1.381 . S
C19 C18 1.387 . S
C19 H39 0.931 . S
C20 C17 1.487 . S
C20 C27 1.399 . S
C20 N45 1.343 . S
C21 C22 1.384 . S
C21 C23 1.384 . S
C21 H40 0.931 . S
C22 C21 1.384 . S
C22 C25 1.382 . S
C23 C21 1.384 . S
C23 C24 1.381 . S
C23 H41 0.930 . S
C24 C23 1.381 . S
C24 C26 1.381 . S
C24 C27 1.487 . S
C25 C22 1.382 . S
C25 C26 1.387 . S
C25 H42 0.930 . S
C26 C24 1.381 . S
C26 C25 1.387 . S
C26 H43 0.931 . S
C27 C20 1.399 . S
C27 C24 1.487 . S
C27 N44 1.343 . S
H28 C0 0.931 . S
H29 C2 0.930 . S
H30 C4 0.930 . S
H31 C5 0.931 . S
H32 C7 0.931 . S
H33 C9 0.930 . S
H34 C11 0.930 . S
H35 C12 0.931 . S
H36 C14 0.931 . S
H37 C16 0.930 . S
H38 C18 0.930 . S
H39 C19 0.931 . S
H40 C21 0.931 . S
H41 C23 0.930 . S
H42 C25 0.930 . S
H43 C26 0.931 . S
N44 C6 1.343 . S
N44 C27 1.343 . S
N45 C13 1.343 . S
N45 C20 1.343 . S
C46 C47 1.384 . S
C46 C48 1.384 . S
C46 H74 0.931 . S
C47 C46 1.384 . S
C47 C50 1.382 . S
C48 C46 1.384 . S
C48 C49 1.381 . S
C48 H75 0.930 . S
C49 C48 1.381 . S
C49 C51 1.381 . S
C49 C52 1.487 . S
C50 C47 1.382 . S
C50 C51 1.387 . S
C50 H76 0.930 . S
C51 C49 1.381 . S
C51 C50 1.387 . S
C51 H77 0.931 . S
C52 C49 1.487 . S
C52 C59 1.399 . S
C52 N90 1.343 . S
C53 C54 1.384 . S
C53 C55 1.384 . S
C53 H78 0.931 . S
C54 C53 1.384 . S
C54 C57 1.382 . S
C55 C53 1.384 . S
C55 C56 1.381 . S
C55 H79 0.930 . S
C56 C55 1.381 . S
C56 C58 1.381 . S
C56 C59 1.487 . S
C57 C54 1.382 . S
C57 C58 1.387 . S
C57 H80 0.930 . S
C58 C56 1.381 . S
C58 C57 1.387 . S
C58 H81 0.931 . S
C59 C52 1.399 . S
C59 C56 1.487 . S
C59 N91 1.343 . S
C60 C61 1.384 . S
C60 C62 1.384 . S
C60 H82 0.931 . S
C61 C60 1.384 . S
C61 C64 1.382 . S
C62 C60 1.384 . S
C62 C63 1.381 . S
C62 H83 0.930 . S
C63 C62 1.381 . S
C63 C65 1.381 . S
C63 C66 1.487 . S
C64 C61 1.382 . S
C64 C65 1.387 . S
C64 H84 0.930 . S
C65 C63 1.381 . S
C65 C64 1.387 . S
C65 H85 0.931 . S
C66 C63 1.487 . S
C66 C73 1.399 . S
C66 N91 1.343 . S
C67 C68 1.384 . S
C67 C69 1.384 . S
C67 H86 0.931 . S
C68 C67 1.384 . S
C68 C71 1.382 . S
C69 C67 1.384 . S
C69 C70 1.381 . S
C69 H87 0.930 . S
C70 C69 1.381 . S
C70 C72 1.381 . S
C70 C73 1.487 . S
C71 C68 1.382 . S
C71 C72 1.387 . S
C71 H88 0.930 . S
C72 C70 1.381 . S
C72 C71 1.387 . S
C72 H89 0.931 . S
C73 C66 1.399 . S
C73 C70 1.487 . S
C73 N90 1.343 . S
H74 C46 0.931 . S
H75 C48 0.930 . S
H76 C50 0.930 . S
H77 C51 0.931 . S
H78 C53 0.931 . S
H79 C55 0.930 . S
H80 C57 0.930 . S
H81 C58 0.931 . S
H82 C60 0.931 . S
H83 C62 0.930 . S
H84 C64 0.930 . S
H85 C65 0.931 . S
H86 C67 0.931 . S
H87 C69 0.930 . S
H88 C71 0.930 . S
H89 C72 0.931 . S
N90 C52 1.343 . S
N90 C73 1.343 . S
N91 C59 1.343 . S
N91 C66 1.343 . S
C92 C93 1.384 . S
C92 C94 1.384 . S
C92 H120 0.931 . S
C93 C92 1.384 . S
C93 C96 1.382 . S
C94 C92 1.384 . S
C94 C95 1.381 . S
C94 H121 0.930 . S
C95 C94 1.381 . S
C95 C97 1.381 . S
C95 C98 1.487 . S
C96 C93 1.382 . S
C96 C97 1.387 . S
C96 H122 0.930 . S
C97 C95 1.381 . S
C97 C96 1.387 . S
C97 H123 0.931 . S
C98 C95 1.487 . S
C98 C105 1.399 . S
C98 N136 1.343 . S
C99 C100 1.384 . S
C99 C101 1.384 . S
C99 H124 0.931 . S
C100 C99 1.384 . S
C100 C103 1.382 . S
C101 C99 1.384 . S
C101 C102 1.381 . S
C101 H125 0.930 . S
C102 C101 1.381 . S
C102 C104 1.381 . S
C102 C105 1.487 . S
C103 C100 1.382 . S
C103 C104 1.387 . S
C103 H126 0.930 . S
C104 C102 1.381 . S
C104 C103 1.387 . S
C104 H127 0.931 . S
C105 C98 1.399 . S
C105 C102 1.487 . S
C105 N137 1.343 . S
C106 C107 1.384 . S
C106 C108 1.384 . S
C106 H128 0.931 . S
C107 C106 1.384 . S
C107 C110 1.382 . S
C108 C106 1.384 . S
C108 C109 1.381 . S
C108 H129 0.930 . S
C109 C108 1.381 . S
C109 C111 1.381 . S
C109 C112 1.487 . S
C110 C107 1.382 . S
C110 C111 1.387 . S
C110 H130 0.930 . S
C111 C109 1.381 . S
C111 C110 1.387 . S
C111 H131 0.931 . S
C112 C109 1.487 . S
C112 C119 1.399 . S
C112 N137 1.343 . S
C113 C114 1.384 . S
C113 C115 1.384 . S
C113 H132 0.931 . S
C114 C113 1.384 . S
C114 C117 1.382 . S
C115 C113 1.384 . S
C115 C116 1.381 . S
C115 H133 0.930 . S
C116 C115 1.381 . S
C116 C118 1.381 . S
C116 C119 1.487 . S
C117 C114 1.382 . S
C117 C118 1.387 . S
C117 H134 0.930 . S
C118 C116 1.381 . S
C118 C117 1.387 . S
C118 H135 0.931 . S
C119 C112 1.399 . S
C119 C116 1.487 . S
C119 N136 1.343 . S
H120 C92 0.931 . S
H121 C94 0.930 . S
H122 C96 0.930 . S
H123 C97 0.931 . S
H124 C99 0.931 . S
H125 C101 0.930 . S
H126 C103 0.930 . S
H127 C104 0.931 . S
H128 C106 0.931 . S
H129 C108 0.930 . S
H130 C110 0.930 . S
H131 C111 0.931 . S
H132 C113 0.931 . S
H133 C115 0.930 . S
H134 C117 0.930 . S
H135 C118 0.931 . S
N136 C98 1.343 . S
N136 C119 1.343 . S
N137 C105 1.343 . S
N137 C112 1.343 . S
C138 C139 1.384 . S
C138 C140 1.384 . S
C138 H166 0.931 . S
C139 C138 1.384 . S
C139 C142 1.382 . S
C140 C138 1.384 . S
C140 C141 1.381 . S
C140 H167 0.930 . S
C141 C140 1.381 . S
C141 C143 1.381 . S
C141 C144 1.487 . S
C142 C139 1.382 . S
C142 C143 1.387 . S
C142 H168 0.930 . S
C143 C141 1.381 . S
C143 C142 1.387 . S
C143 H169 0.931 . S
C144 C141 1.487 . S
C144 C151 1.399 . S
C144 N182 1.343 . S
C145 C146 1.384 . S
C145 C147 1.384 . S
C145 H170 0.931 . S
C146 C145 1.384 . S
C146 C149 1.382 . S
C147 C145 1.384 . S
C147 C148 1.381 . S
C147 H171 0.930 . S
C148 C147 1.381 . S
C148 C150 1.381 . S
C148 C151 1.487 . S
C149 C146 1.382 . S
C149 C150 1.387 . S
C149 H172 0.930 . S
C150 C148 1.381 . S
C150 C149 1.387 . S
C150 H173 0.931 . S
C151 C144 1.399 . S
C151 C148 1.487 . S
C151 N183 1.343 . S
C152 C153 1.384 . S
C152 C154 1.384 . S
C152 H174 0.931 . S
C153 C152 1.384 . S
C153 C156 1.382 . S
C154 C152 1.384 . S
C154 C155 1.381 . S
C154 H175 0.930 . S
C155 C154 1.381 . S
C155 C157 1.381 . S
C155 C158 1.487 . S
C156 C153 1.382 . S
C156 C157 1.387 . S
C156 H176 0.930 . S
C157 C155 1.381 . S
C157 C156 1.387 . S
C157 H177 0.931 . S
C158 C155 1.487 . S
C158 C165 1.399 . S
C158 N183 1.343 . S
C159 C160 1.384 . S
C159 C161 1.384 . S
C159 H178 0.931 . S
C160 C159 1.384 . S
C160 C163 1.382 . S
C161 C159 1.384 . S
C161 C162 1.381 . S
C161 H179 0.930 . S
C162 C161 1.381 . S
C162 C164 1.381 . S
C162 C165 1.487 . S
C163 C160 1.382 . S
C163 C164 1.387 . S
C163 H180 0.930 . S
C164 C162 1.381 . S
C164 C163 1.387 . S
C164 H181 0.931 . S
C165 C158 1.399 . S
C165 C162 1.487 . S
C165 N182 1.343 . S
H166 C138 0.931 . S
H167 C140 0.930 . S
H168 C142 0.930 . S
H169 C143 0.931 . S
H170 C145 0.931 . S
H171 C147 0.930 . S
H172 C149 0.930 . S
H173 C150 0.931 . S
H174 C152 0.931 . S
H175 C154 0.930 . S
H176 C156 0.930 . S
H177 C157 0.931 . S
H178 C159 0.931 . S
H179 C161 0.930 . S
H180 C163 0.930 . S
H181 C164 0.931 . S
N182 C144 1.343 . S
N182 C165 1.343 . S
N183 C151 1.343 . S
N183 C158 1.343 . S
C184 C185 1.384 . S
C184 C186 1.384 . S
C184 H212 0.931 . S
C185 C184 1.384 . S
C185 C188 1.382 . S
C186 C184 1.384 . S
C186 C187 1.381 . S
C186 H213 0.930 . S
C187 C186 1.381 . S
C187 C189 1.381 . S
C187 C190 1.487 . S
C188 C185 1.382 . S
C188 C189 1.387 . S
C188 H214 0.930 . S
C189 C187 1.381 . S
C189 C188 1.387 . S
C189 H215 0.931 . S
C190 C187 1.487 . S
C190 C197 1.399 . S
C190 N228 1.343 . S
C191 C192 1.384 . S
C191 C193 1.384 . S
C191 H216 0.931 . S
C192 C191 1.384 . S
C192 C195 1.382 . S
C193 C191 1.384 . S
C193 C194 1.381 . S
C193 H217 0.930 . S
C194 C193 1.381 . S
C194 C196 1.381 . S
C194 C197 1.487 . S
C195 C192 1.382 . S
C195 C196 1.387 . S
C195 H218 0.930 . S
C196 C194 1.381 . S
C196 C195 1.387 . S
C196 H219 0.931 . S
C197 C190 1.399 . S
C197 C194 1.487 . S
C197 N229 1.343 . S
C198 C199 1.384 . S
C198 C200 1.384 . S
C198 H220 0.931 . S
C199 C198 1.384 . S
C199 C202 1.382 . S
C200 C198 1.384 . S
C200 C201 1.381 . S
C200 H221 0.930 . S
C201 C200 1.381 . S
C201 C203 1.381 . S
C201 C204 1.487 . S
C202 C199 1.382 . S
C202 C203 1.387 . S
C202 H222 0.930 . S
C203 C201 1.381 . S
C203 C202 1.387 . S
C203 H223 0.931 . S
C204 C201 1.487 . S
C204 C211 1.399 . S
C204 N229 1.343 . S
C205 C206 1.384 . S
C205 C207 1.384 . S
C205 H224 0.931 . S
C206 C205 1.384 . S
C206 C209 1.382 . S
C207 C205 1.384 . S
C207 C208 1.381 . S
C207 H225 0.930 . S
C208 C207 1.381 . S
C208 C210 1.381 . S
C208 C211 1.487 . S
C209 C206 1.382 . S
C209 C210 1.387 . S
C209 H226 0.930 . S
C210 C208 1.381 . S
C210 C209 1.387 . S
C210 H227 0.931 . S
C211 C204 1.399 . S
C211 C208 1.487 . S
C211 N228 1.343 . S
H212 C184 0.931 . S
H213 C186 0.930 . S
H214 C188 0.930 . S
H215 C189 0.931 . S
H216 C191 0.931 . S
H217 C193 0.930 . S
H218 C195 0.930 . S
H219 C196 0.931 . S
H220 C198 0.931 . S
H221 C200 0.930 . S
H222 C202 0.930 . S
H223 C203 0.931 . S
H224 C205 0.931 . S
H225 C207 0.930 . S
H226 C209 0.930 . S
H227 C210 0.931 . S
N228 C190 1.343 . S
N228 C211 1.343 . S
N229 C197 1.343 . S
N229 C204 1.343 . S
C230 C231 1.384 . S
C230 C232 1.384 . S
C230 H258 0.931 . S
C231 C230 1.384 . S
C231 C234 1.382 . S
C232 C230 1.384 . S
C232 C233 1.381 . S
C232 H259 0.930 . S
C233 C232 1.381 . S
C233 C235 1.381 . S
C233 C236 1.487 . S
C234 C231 1.382 . S
C234 C235 1.387 . S
C234 H260 0.930 . S
C235 C233 1.381 . S
C235 C234 1.387 . S
C235 H261 0.931 . S
C236 C233 1.487 . S
C236 C243 1.399 . S
C236 N274 1.343 . S
C237 C238 1.384 . S
C237 C239 1.384 . S
C237 H262 0.931 . S
C238 C237 1.384 . S
C238 C241 1.382 . S
C239 C237 1.384 . S
C239 C240 1.381 . S
C239 H263 0.930 . S
C240 C239 1.381 . S
C240 C242 1.381 . S
C240 C243 1.487 . S
C241 C238 1.382 . S
C241 C242 1.387 . S
C241 H264 0.930 . S
C242 C240 1.381 . S
C242 C241 1.387 . S
C242 H265 0.931 . S
C243 C236 1.399 . S
C243 C240 1.487 . S
C243 N275 1.343 . S
C244 C245 1.384 . S
C244 C246 1.384 . S
C244 H266 0.931 . S
C245 C244 1.384 . S
C245 C248 1.382 . S
C246 C244 1.384 . S
C246 C247 1.381 . S
C246 H267 0.930 . S
C247 C246 1.381 . S
C247 C249 1.381 . S
C247 C250 1.487 . S
C248 C245 1.382 . S
C248 C249 1.387 . S
C248 H268 0.930 . S
C249 C247 1.381 . S
C249 C248 1.387 . S
C249 H269 0.931 . S
C250 C247 1.487 . S
C250 C257 1.399 . S
C250 N275 1.343 . S
C251 C252 1.384 . S
C251 C253 1.384 . S
C251 H270 0.931 . S
C252 C251 1.384 . S
C252 C255 1.382 . S
C253 C251 1.384 . S
C253 C254 1.381 . S
C253 H271 0.930 . S
C254 C253 1.381 . S
C254 C256 1.381 . S
C254 C257 1.487 . S
C255 C252 1.382 . S
C255 C256 1.387 . S
C255 H272 0.930 . S
C256 C254 1.381 . S
C256 C255 1.387 . S
C256 H273 0.931 . S
C257 C250 1.399 . S
C257 C254 1.487 . S
C257 N274 1.343 . S
H258 C230 0.931 . S
H259 C232 0.930 . S
H260 C234 0.930 . S
H261 C235 0.931 . S
H262 C237 0.931 . S
H263 C239 0.930 . S
H264 C241 0.930 . S
H265 C242 0.931 . S
H266 C244 0.931 . S
H267 C246 0.930 . S
H268 C248 0.930 . S
H269 C249 0.931 . S
H270 C251 0.931 . S
H271 C253 0.930 . S
H272 C255 0.930 . S
H273 C256 0.931 . S
N274 C236 1.343 . S
N274 C257 1.343 . S
N275 C243 1.343 . S
N275 C250 1.343 . S
C276 C277 1.384 . S
C276 C278 1.384 . S
C276 H304 0.931 . S
C277 C276 1.384 . S
C277 C280 1.382 . S
C278 C276 1.384 . S
C278 C279 1.381 . S
C278 H305 0.930 . S
C279 C278 1.381 . S
C279 C281 1.381 . S
C279 C282 1.487 . S
C280 C277 1.382 . S
C280 C281 1.387 . S
C280 H306 0.930 . S
C281 C279 1.381 . S
C281 C280 1.387 . S
C281 H307 0.931 . S
C282 C279 1.487 . S
C282 C289 1.399 . S
C282 N320 1.343 . S
C283 C284 1.384 . S
C283 C285 1.384 . S
C283 H308 0.931 . S
C284 C283 1.384 . S
C284 C287 1.382 . S
C285 C283 1.384 . S
C285 C286 1.381 . S
C285 H309 0.930 . S
C286 C285 1.381 . S
C286 C288 1.381 . S
C286 C289 1.487 . S
C287 C284 1.382 . S
C287 C288 1.387 . S
C287 H310 0.930 . S
C288 C286 1.381 . S
C288 C287 1.387 . S
C288 H311 0.931 . S
C289 C282 1.399 . S
C289 C286 1.487 . S
C289 N321 1.343 . S
C290 C291 1.384 . S
C290 C292 1.384 . S
C290 H312 0.931 . S
C291 C290 1.384 . S
C291 C294 1.382 . S
C292 C290 1.384 . S
C292 C293 1.381 . S
C292 H313 0.930 . S
C293 C292 1.381 . S
C293 C295 1.381 . S
C293 C296 1.487 . S
C294 C291 1.382 . S
C294 C295 1.387 . S
C294 H314 0.930 . S
C295 C293 1.381 . S
C295 C294 1.387 . S
C295 H315 0.931 . S
C296 C293 1.487 . S
C296 C303 1.399 . S
C296 N321 1.343 . S
C297 C298 1.384 . S
C297 C299 1.384 . S
C297 H316 0.931 . S
C298 C297 1.384 . S
C298 C301 1.382 . S
C299 C297 1.384 . S
C299 C300 1.381 . S
C299 H317 0.930 . S
C300 C299 1.381 . S
C300 C302 1.381 . S
C300 C303 1.487 . S
C301 C298 1.382 . S
C301 C302 1.387 . S
C301 H318 0.930 . S
C302 C300 1.381 . S
C302 C301 1.387 . S
C302 H319 0.931 . S
C303 C296 1.399 . S
C303 C300 1.487 . S
C303 N320 1.343 . S
H304 C276 0.931 . S
H305 C278 0.930 . S
H306 C280 0.930 . S
H307 C281 0.931 . S
H308 C283 0.931 . S
H309 C285 0.930 . S
H310 C287 0.930 . S
H311 C288 0.931 . S
H312 C290 0.931 . S
H313 C292 0.930 . S
H314 C294 0.930 . S
H315 C295 0.931 . S
H316 C297 0.931 . S
H317 C299 0.930 . S
H318 C301 0.930 . S
H319 C302 0.931 . S
N320 C282 1.343 . S
N320 C303 1.343 . S
N321 C289 1.343 . S
N321 C296 1.343 . S
C322 C323 1.384 . S
C322 C324 1.384 . S
C322 H350 0.931 . S
C323 C322 1.384 . S
C323 C326 1.382 . S
C324 C322 1.384 . S
C324 C325 1.381 . S
C324 H351 0.930 . S
C325 C324 1.381 . S
C325 C327 1.381 . S
C325 C328 1.487 . S
C326 C323 1.382 . S
C326 C327 1.387 . S
C326 H352 0.930 . S
C327 C325 1.381 . S
C327 C326 1.387 . S
C327 H353 0.931 . S
C328 C325 1.487 . S
C328 C335 1.399 . S
C328 N366 1.343 . S
C329 C330 1.384 . S
C329 C331 1.384 . S
C329 H354 0.931 . S
C330 C329 1.384 . S
C330 C333 1.382 . S
C331 C329 1.384 . S
C331 C332 1.381 . S
C331 H355 0.930 . S
C332 C331 1.381 . S
C332 C334 1.381 . S
C332 C335 1.487 . S
C333 C330 1.382 . S
C333 C334 1.387 . S
C333 H356 0.930 . S
C334 C332 1.381 . S
C334 C333 1.387 . S
C334 H357 0.931 . S
C335 C328 1.399 . S
C335 C332 1.487 . S
C335 N367 1.343 . S
C336 C337 1.384 . S
C336 C338 1.384 . S
C336 H358 0.931 . S
C337 C336 1.384 . S
C337 C340 1.382 . S
C338 C336 1.384 . S
C338 C339 1.381 . S
C338 H359 0.930 . S
C339 C338 1.381 . S
C339 C341 1.381 . S
C339 C342 1.487 . S
C340 C337 1.382 . S
C340 C341 1.387 . S
C340 H360 0.930 . S
C341 C339 1.381 . S
C341 C340 1.387 . S
C341 H361 0.931 . S
C342 C339 1.487 . S
C342 C349 1.399 . S
C342 N367 1.343 . S
C343 C344 1.384 . S
C343 C345 1.384 . S
C343 H362 0.931 . S
C344 C343 1.384 . S
C344 C347 1.382 . S
C345 C343 1.384 . S
C345 C346 1.381 . S
C345 H363 0.930 . S
C346 C345 1.381 . S
C346 C348 1.381 . S
C346 C349 1.487 . S
C347 C344 1.382 . S
C347 C348 1.387 . S
C347 H364 0.930 . S
C348 C346 1.381 . S
C348 C347 1.387 . S
C348 H365 0.931 . S
C349 C342 1.399 . S
C349 C346 1.487 . S
C349 N366 1.343 . S
H350 C322 0.931 . S
H351 C324 0.930 . S
H352 C326 0.930 . S
H353 C327 0.931 . S
H354 C329 0.931 . S
H355 C331 0.930 . S
H356 C333 0.930 . S
H357 C334 0.931 . S
H358 C336 0.931 . S
H359 C338 0.930 . S
H360 C340 0.930 . S
H361 C341 0.931 . S
H362 C343 0.931 . S
H363 C345 0.930 . S
H364 C347 0.930 . S
H365 C348 0.931 . S
N366 C328 1.343 . S
N366 C349 1.343 . S
N367 C335 1.343 . S
N367 C342 1.343 . S
C368 C369 1.443 . S
C368 N372 1.376 . S
C368 C406 1.389 . S
C369 C368 1.443 . S
C369 C370 1.340 . S
C369 H409 0.951 . S
C370 C369 1.340 . S
C370 C371 1.439 . S
C370 H410 0.950 . S
C371 C370 1.439 . S
C371 N372 1.374 . S
C371 C405 1.395 . S
N372 C368 1.376 . S
N372 C371 1.374 . S
N372 Co373 2.008 . S
Co373 N372 2.008 . S
Co373 N374 1.995 1_455 S
Co373 N379 2.008 1_455 S
Co373 N384 1.995 . S
Co373 N389 2.282 1_455 S
Co373 N395 2.282 . S
N374 Co373 1.995 1_655 S
N374 C375 1.376 . S
N374 C378 1.383 . S
C375 N374 1.376 . S
C375 C376 1.446 . S
C375 C405 1.391 1_655 S
C376 C375 1.446 . S
C376 C377 1.339 . S
C376 H411 0.949 . S
C377 C376 1.339 . S
C377 C378 1.439 . S
C377 H412 0.950 . S
C378 N374 1.383 . S
C378 C377 1.439 . S
C378 C407 1.392 . S
N379 Co373 2.008 1_655 S
N379 C380 1.376 . S
N379 C383 1.374 . S
C380 N379 1.376 . S
C380 C381 1.443 . S
C380 C407 1.389 . S
C381 C380 1.443 . S
C381 C382 1.340 . S
C381 H413 0.951 . S
C382 C381 1.340 . S
C382 C383 1.439 . S
C382 H414 0.950 . S
C383 N379 1.374 . S
C383 C382 1.439 . S
C383 C408 1.416 . S
N384 Co373 1.995 . S
N384 C385 1.376 . S
N384 C388 1.383 . S
C385 N384 1.376 . S
C385 C386 1.446 . S
C385 C408 1.369 1_455 S
C386 C385 1.446 . S
C386 C387 1.339 . S
C386 H415 0.949 . S
C387 C386 1.339 . S
C387 C388 1.439 . S
C387 H416 0.950 . S
C388 N384 1.383 . S
C388 C387 1.439 . S
C388 C406 1.392 . S
N389 Co373 2.282 1_655 S
N389 C392 1.332 . S
N389 C394 1.332 . S
C390 C391 1.386 . S
C390 C393 1.388 . S
C391 C390 1.386 . S
C391 C392 1.382 . S
C391 H417 0.950 . S
C392 N389 1.332 . S
C392 C391 1.382 . S
C392 H403 0.952 . S
C393 C390 1.388 . S
C393 C394 1.382 . S
C393 H418 0.950 . S
C394 N389 1.332 . S
C394 C393 1.382 . S
C394 H404 0.948 . S
N395 Co373 2.282 . S
N395 C399 1.332 . S
N395 C400 1.332 . S
C396 C397 1.388 . S
C396 C400 1.382 . S
C396 H419 0.950 . S
C397 C396 1.388 . S
C397 C398 1.386 . S
C398 C397 1.386 . S
C398 C399 1.382 . S
C398 H420 0.950 . S
C399 N395 1.332 . S
C399 C398 1.382 . S
C399 H401 0.952 . S
C400 N395 1.332 . S
C400 C396 1.382 . S
C400 H402 0.948 . S
H401 C399 0.952 . S
H402 C400 0.948 . S
H403 C392 0.952 . S
H404 C394 0.948 . S
C405 C371 1.395 . S
C405 C375 1.391 1_455 S
C406 C368 1.389 . S
C406 C388 1.392 . S
C407 C378 1.392 . S
C407 C380 1.389 . S
C408 C383 1.416 . S
C408 C385 1.369 1_655 S
H409 C369 0.951 . S
H410 C370 0.950 . S
H411 C376 0.949 . S
H412 C377 0.950 . S
H413 C381 0.951 . S
H414 C382 0.950 . S
H415 C386 0.949 . S
H416 C387 0.950 . S
H417 C391 0.950 . S
H418 C393 0.950 . S
H419 C396 0.950 . S
H420 C398 0.950 . S
C421 C422 1.443 . S
C421 N425 1.376 . S
C421 C459 1.389 . S
C422 C421 1.443 . S
C422 C423 1.340 . S
C422 H462 0.951 . S
C423 C422 1.340 . S
C423 C424 1.439 . S
C423 H463 0.950 . S
C424 C423 1.439 . S
C424 N425 1.374 . S
C424 C458 1.395 . S
N425 C421 1.376 . S
N425 C424 1.374 . S
N425 Co426 2.008 . S
Co426 N425 2.008 . S
Co426 N427 1.995 1_545 S
Co426 N432 2.008 1_545 S
Co426 N437 1.995 . S
Co426 N442 2.282 1_545 S
Co426 N448 2.282 . S
N427 Co426 1.995 1_565 S
N427 C428 1.376 . S
N427 C431 1.383 . S
C428 N427 1.376 . S
C428 C429 1.446 . S
C428 C458 1.391 1_565 S
C429 C428 1.446 . S
C429 C430 1.339 . S
C429 H464 0.949 . S
C430 C429 1.339 . S
C430 C431 1.439 . S
C430 H465 0.950 . S
C431 N427 1.383 . S
C431 C430 1.439 . S
C431 C460 1.392 . S
N432 Co426 2.008 1_565 S
N432 C433 1.376 . S
N432 C436 1.374 . S
C433 N432 1.376 . S
C433 C434 1.443 . S
C433 C460 1.389 . S
C434 C433 1.443 . S
C434 C435 1.340 . S
C434 H466 0.951 . S
C435 C434 1.340 . S
C435 C436 1.439 . S
C435 H467 0.950 . S
C436 N432 1.374 . S
C436 C435 1.439 . S
C436 C461 1.420 . S
N437 Co426 1.995 . S
N437 C438 1.376 . S
N437 C441 1.383 . S
C438 N437 1.376 . S
C438 C439 1.446 . S
C438 C461 1.365 1_545 S
C439 C438 1.446 . S
C439 C440 1.339 . S
C439 H468 0.949 . S
C440 C439 1.339 . S
C440 C441 1.439 . S
C440 H469 0.950 . S
C441 N437 1.383 . S
C441 C440 1.439 . S
C441 C459 1.392 . S
N442 Co426 2.282 1_565 S
N442 C445 1.332 . S
N442 C447 1.332 . S
C443 C444 1.386 . S
C443 C446 1.388 . S
C444 C443 1.386 . S
C444 C445 1.382 . S
C444 H470 0.950 . S
C445 N442 1.332 . S
C445 C444 1.382 . S
C445 H456 0.952 . S
C446 C443 1.388 . S
C446 C447 1.382 . S
C446 H471 0.950 . S
C447 N442 1.332 . S
C447 C446 1.382 . S
C447 H457 0.948 . S
N448 Co426 2.282 . S
N448 C452 1.332 . S
N448 C453 1.332 . S
C449 C450 1.388 . S
C449 C453 1.382 . S
C449 H472 0.950 . S
C450 C449 1.388 . S
C450 C451 1.386 . S
C451 C450 1.386 . S
C451 C452 1.382 . S
C451 H473 0.950 . S
C452 N448 1.332 . S
C452 C451 1.382 . S
C452 H454 0.952 . S
C453 N448 1.332 . S
C453 C449 1.382 . S
C453 H455 0.948 . S
H454 C452 0.952 . S
H455 C453 0.948 . S
H456 C445 0.952 . S
H457 C447 0.948 . S
C458 C424 1.395 . S
C458 C428 1.391 1_545 S
C459 C421 1.389 . S
C459 C441 1.392 . S
C460 C431 1.392 . S
C460 C433 1.389 . S
C461 C436 1.420 . S
C461 C438 1.365 1_565 S
H462 C422 0.951 . S
H463 C423 0.950 . S
H464 C429 0.949 . S
H465 C430 0.950 . S
H466 C434 0.951 . S
H467 C435 0.950 . S
H468 C439 0.949 . S
H469 C440 0.950 . S
H470 C444 0.950 . S
H471 C446 0.950 . S
H472 C449 0.950 . S
H473 C451 0.950 . S
C474 C475 1.443 . S
C474 N478 1.376 . S
C474 C512 1.389 . S
C475 C474 1.443 . S
C475 C476 1.340 . S
C475 H515 0.951 . S
C476 C475 1.340 . S
C476 C477 1.439 . S
C476 H516 0.950 . S
C477 C476 1.439 . S
C477 N478 1.374 . S
C477 C511 1.395 . S
N478 C474 1.376 . S
N478 C477 1.374 . S
N478 Co479 2.008 . S
Co479 N478 2.008 . S
Co479 N480 1.995 1_455 S
Co479 N485 2.008 1_455 S
Co479 N490 1.995 . S
Co479 N495 2.282 1_455 S
Co479 N501 2.282 . S
N480 Co479 1.995 1_655 S
N480 C481 1.376 . S
N480 C484 1.383 . S
C481 N480 1.376 . S
C481 C482 1.446 . S
C481 C511 1.391 1_655 S
C482 C481 1.446 . S
C482 C483 1.339 . S
C482 H517 0.949 . S
C483 C482 1.339 . S
C483 C484 1.439 . S
C483 H518 0.950 . S
C484 N480 1.383 . S
C484 C483 1.439 . S
C484 C513 1.392 . S
N485 Co479 2.008 1_655 S
N485 C486 1.376 . S
N485 C489 1.374 . S
C486 N485 1.376 . S
C486 C487 1.443 . S
C486 C513 1.389 . S
C487 C486 1.443 . S
C487 C488 1.340 . S
C487 H519 0.951 . S
C488 C487 1.340 . S
C488 C489 1.439 . S
C488 H520 0.950 . S
C489 N485 1.374 . S
C489 C488 1.439 . S
C489 C514 1.395 . S
N490 Co479 1.995 . S
N490 C491 1.376 . S
N490 C494 1.383 . S
C491 N490 1.376 . S
C491 C492 1.446 . S
C491 C514 1.391 1_455 S
C492 C491 1.446 . S
C492 C493 1.339 . S
C492 H521 0.949 . S
C493 C492 1.339 . S
C493 C494 1.439 . S
C493 H522 0.950 . S
C494 N490 1.383 . S
C494 C493 1.439 . S
C494 C512 1.392 . S
N495 Co479 2.282 1_655 S
N495 C498 1.332 . S
N495 C500 1.332 . S
C496 C497 1.386 . S
C496 C499 1.388 . S
C497 C496 1.386 . S
C497 C498 1.382 . S
C497 H523 0.950 . S
C498 N495 1.332 . S
C498 C497 1.382 . S
C498 H509 0.952 . S
C499 C496 1.388 . S
C499 C500 1.382 . S
C499 H524 0.950 . S
C500 N495 1.332 . S
C500 C499 1.382 . S
C500 H510 0.948 . S
N501 Co479 2.282 . S
N501 C505 1.332 . S
N501 C506 1.332 . S
C502 C503 1.388 . S
C502 C506 1.382 . S
C502 H525 0.950 . S
C503 C502 1.388 . S
C503 C504 1.386 . S
C504 C503 1.386 . S
C504 C505 1.382 . S
C504 H526 0.950 . S
C505 N501 1.332 . S
C505 C504 1.382 . S
C505 H507 0.952 . S
C506 N501 1.332 . S
C506 C502 1.382 . S
C506 H508 0.948 . S
H507 C505 0.952 . S
H508 C506 0.948 . S
H509 C498 0.952 . S
H510 C500 0.948 . S
C511 C477 1.395 . S
C511 C481 1.391 1_455 S
C512 C474 1.389 . S
C512 C494 1.392 . S
C513 C484 1.392 . S
C513 C486 1.389 . S
C514 C489 1.395 . S
C514 C491 1.391 1_655 S
H515 C475 0.951 . S
H516 C476 0.950 . S
H517 C482 0.949 . S
H518 C483 0.950 . S
H519 C487 0.951 . S
H520 C488 0.950 . S
H521 C492 0.949 . S
H522 C493 0.950 . S
H523 C497 0.950 . S
H524 C499 0.950 . S
H525 C502 0.950 . S
H526 C504 0.950 . S
C527 C528 1.443 . S
C527 N531 1.376 . S
C527 C565 1.389 . S
C528 C527 1.443 . S
C528 C529 1.340 . S
C528 H568 0.951 . S
C529 C528 1.340 . S
C529 C530 1.439 . S
C529 H569 0.950 . S
C530 C529 1.439 . S
C530 N531 1.374 . S
C530 C564 1.423 . S
N531 C527 1.376 . S
N531 C530 1.374 . S
N531 Co532 2.008 1_565 S
Co532 N531 2.008 1_545 S
Co532 N533 1.995 . S
Co532 N538 2.008 . S
Co532 N543 1.995 1_545 S
Co532 N548 2.282 . S
Co532 N554 2.282 1_545 S
N533 Co532 1.995 . S
N533 C534 1.376 . S
N533 C537 1.383 . S
C534 N533 1.376 . S
C534 C535 1.446 . S
C534 C564 1.362 1_545 S
C535 C534 1.446 . S
C535 C536 1.339 . S
C535 H570 0.949 . S
C536 C535 1.339 . S
C536 C537 1.439 . S
C536 H571 0.950 . S
C537 N533 1.383 . S
C537 C536 1.439 . S
C537 C566 1.392 . S
N538 Co532 2.008 . S
N538 C539 1.376 . S
N538 C542 1.374 . S
C539 N538 1.376 . S
C539 C540 1.443 . S
C539 C566 1.389 . S
C540 C539 1.443 . S
C540 C541 1.340 . S
C540 H572 0.951 . S
C541 C540 1.340 . S
C541 C542 1.439 . S
C541 H573 0.950 . S
C542 N538 1.374 . S
C542 C541 1.439 . S
C542 C567 1.395 . S
N543 Co532 1.995 1_565 S
N543 C544 1.376 . S
N543 C547 1.383 . S
C544 N543 1.376 . S
C544 C545 1.446 . S
C544 C567 1.391 1_565 S
C545 C544 1.446 . S
C545 C546 1.339 . S
C545 H574 0.949 . S
C546 C545 1.339 . S
C546 C547 1.439 . S
C546 H575 0.950 . S
C547 N543 1.383 . S
C547 C546 1.439 . S
C547 C565 1.392 . S
N548 Co532 2.282 . S
N548 C551 1.332 . S
N548 C553 1.332 . S
C549 C550 1.386 . S
C549 C552 1.388 . S
C550 C549 1.386 . S
C550 C551 1.382 . S
C550 H576 0.950 . S
C551 N548 1.332 . S
C551 C550 1.382 . S
C551 H562 0.952 . S
C552 C549 1.388 . S
C552 C553 1.382 . S
C552 H577 0.950 . S
C553 N548 1.332 . S
C553 C552 1.382 . S
C553 H563 0.948 . S
N554 Co532 2.282 1_565 S
N554 C558 1.332 . S
N554 C559 1.332 . S
C555 C556 1.388 . S
C555 C559 1.382 . S
C555 H578 0.950 . S
C556 C555 1.388 . S
C556 C557 1.386 . S
C557 C556 1.386 . S
C557 C558 1.382 . S
C557 H579 0.950 . S
C558 N554 1.332 . S
C558 C557 1.382 . S
C558 H560 0.952 . S
C559 N554 1.332 . S
C559 C555 1.382 . S
C559 H561 0.948 . S
H560 C558 0.952 . S
H561 C559 0.948 . S
H562 C551 0.952 . S
H563 C553 0.948 . S
C564 C530 1.423 . S
C564 C534 1.362 1_565 S
C565 C527 1.389 . S
C565 C547 1.392 . S
C566 C537 1.392 . S
C566 C539 1.389 . S
C567 C542 1.395 . S
C567 C544 1.391 1_545 S
H568 C528 0.951 . S
H569 C529 0.950 . S
H570 C535 0.949 . S
H571 C536 0.950 . S
H572 C540 0.951 . S
H573 C541 0.950 . S
H574 C545 0.949 . S
H575 C546 0.950 . S
H576 C550 0.950 . S
H577 C552 0.950 . S
H578 C555 0.950 . S
H579 C557 0.950 . S
C580 C581 1.443 . S
C580 N584 1.376 . S
C580 C618 1.389 . S
C581 C580 1.443 . S
C581 C582 1.340 . S
C581 H621 0.951 . S
C582 C581 1.340 . S
C582 C583 1.439 . S
C582 H622 0.950 . S
C583 C582 1.439 . S
C583 N584 1.374 . S
C583 C617 1.384 1_554 S
N584 C580 1.376 . S
N584 C583 1.374 . S
N584 Co585 2.008 . S
Co585 N584 2.008 . S
Co585 N586 1.995 1_554 S
Co585 N591 2.008 1_554 S
Co585 N596 1.995 . S
Co585 N601 2.282 . S
Co585 N607 2.282 1_554 S
N586 Co585 1.995 1_556 S
N586 C587 1.376 . S
N586 C590 1.383 . S
C587 N586 1.376 . S
C587 C588 1.446 . S
C587 C617 1.402 . S
C588 C587 1.446 . S
C588 C589 1.339 . S
C588 H623 0.949 . S
C589 C588 1.339 . S
C589 C590 1.439 . S
C589 H624 0.950 . S
C590 N586 1.383 . S
C590 C589 1.439 . S
C590 C619 1.392 . S
N591 Co585 2.008 1_556 S
N591 C592 1.376 . S
N591 C595 1.374 . S
C592 N591 1.376 . S
C592 C593 1.443 . S
C592 C619 1.389 . S
C593 C592 1.443 . S
C593 C594 1.340 . S
C593 H625 0.951 . S
C594 C593 1.340 . S
C594 C595 1.439 . S
C594 H626 0.950 . S
C595 N591 1.374 . S
C595 C594 1.439 . S
C595 C620 1.380 1_556 S
N596 Co585 1.995 . S
N596 C597 1.376 . S
N596 C600 1.383 . S
C597 N596 1.376 . S
C597 C598 1.446 . S
C597 C620 1.405 . S
C598 C597 1.446 . S
C598 C599 1.339 . S
C598 H627 0.949 . S
C599 C598 1.339 . S
C599 C600 1.439 . S
C599 H628 0.950 . S
C600 N596 1.383 . S
C600 C599 1.439 . S
C600 C618 1.392 . S
N601 Co585 2.282 . S
N601 C604 1.332 . S
N601 C606 1.332 . S
C602 C603 1.386 . S
C602 C605 1.388 . S
C603 C602 1.386 . S
C603 C604 1.382 . S
C603 H629 0.950 . S
C604 N601 1.332 . S
C604 C603 1.382 . S
C604 H615 0.952 . S
C605 C602 1.388 . S
C605 C606 1.382 . S
C605 H630 0.950 . S
C606 N601 1.332 . S
C606 C605 1.382 . S
C606 H616 0.948 . S
N607 Co585 2.282 1_556 S
N607 C611 1.332 . S
N607 C612 1.332 . S
C608 C609 1.388 . S
C608 C612 1.382 . S
C608 H631 0.950 . S
C609 C608 1.388 . S
C609 C610 1.386 . S
C610 C609 1.386 . S
C610 C611 1.382 . S
C610 H632 0.950 . S
C611 N607 1.332 . S
C611 C610 1.382 . S
C611 H613 0.952 . S
C612 N607 1.332 . S
C612 C608 1.382 . S
C612 H614 0.948 . S
H613 C611 0.952 . S
H614 C612 0.948 . S
H615 C604 0.952 . S
H616 C606 0.948 . S
C617 C583 1.384 1_556 S
C617 C587 1.402 . S
C618 C580 1.389 . S
C618 C600 1.392 . S
C619 C590 1.392 . S
C619 C592 1.389 . S
C620 C595 1.380 1_554 S
C620 C597 1.405 . S
H621 C581 0.951 . S
H622 C582 0.950 . S
H623 C588 0.949 . S
H624 C589 0.950 . S
H625 C593 0.951 . S
H626 C594 0.950 . S
H627 C598 0.949 . S
H628 C599 0.950 . S
H629 C603 0.950 . S
H630 C605 0.950 . S
H631 C608 0.950 . S
H632 C610 0.950 . S
C633 C634 1.443 . S
C633 N637 1.376 . S
C633 C671 1.389 . S
C634 C633 1.443 . S
C634 C635 1.340 . S
C634 H674 0.951 . S
C635 C634 1.340 . S
C635 C636 1.439 . S
C635 H675 0.950 . S
C636 C635 1.439 . S
C636 N637 1.374 . S
C636 C670 1.379 1_554 S
N637 C633 1.376 . S
N637 C636 1.374 . S
N637 Co638 2.008 . S
Co638 N637 2.008 . S
Co638 N639 1.995 1_554 S
Co638 N644 2.008 1_554 S
Co638 N649 1.995 . S
Co638 N654 2.282 . S
Co638 N660 2.282 1_554 S
N639 Co638 1.995 1_556 S
N639 C640 1.376 . S
N639 C643 1.383 . S
C640 N639 1.376 . S
C640 C641 1.446 . S
C640 C670 1.406 . S
C641 C640 1.446 . S
C641 C642 1.339 . S
C641 H676 0.949 . S
C642 C641 1.339 . S
C642 C643 1.439 . S
C642 H677 0.950 . S
C643 N639 1.383 . S
C643 C642 1.439 . S
C643 C672 1.392 . S
N644 Co638 2.008 1_556 S
N644 C645 1.376 . S
N644 C648 1.374 1_556 S
C645 N644 1.376 . S
C645 C646 1.443 . S
C645 C672 1.389 . S
C646 C645 1.443 . S
C646 C647 1.340 . S
C646 H678 0.951 . S
C647 C646 1.340 . S
C647 C648 1.439 1_556 S
C647 H679 0.950 . S
C648 N644 1.374 1_554 S
C648 C647 1.439 1_554 S
C648 C673 1.395 . S
N649 Co638 1.995 . S
N649 C650 1.376 . S
N649 C653 1.383 . S
C650 N649 1.376 . S
C650 C651 1.446 . S
C650 C673 1.391 . S
C651 C650 1.446 . S
C651 C652 1.339 . S
C651 H680 0.949 . S
C652 C651 1.339 . S
C652 C653 1.439 . S
C652 H681 0.950 . S
C653 N649 1.383 . S
C653 C652 1.439 . S
C653 C671 1.392 . S
N654 Co638 2.282 . S
N654 C657 1.332 . S
N654 C659 1.332 . S
C655 C656 1.386 . S
C655 C658 1.388 . S
C656 C655 1.386 . S
C656 C657 1.382 . S
C656 H682 0.950 . S
C657 N654 1.332 . S
C657 C656 1.382 . S
C657 H668 0.952 . S
C658 C655 1.388 . S
C658 C659 1.382 . S
C658 H683 0.950 . S
C659 N654 1.332 . S
C659 C658 1.382 . S
C659 H669 0.948 . S
N660 Co638 2.282 1_556 S
N660 C664 1.332 . S
N660 C665 1.332 . S
C661 C662 1.388 . S
C661 C665 1.382 . S
C661 H684 0.950 . S
C662 C661 1.388 . S
C662 C663 1.386 . S
C663 C662 1.386 . S
C663 C664 1.382 . S
C663 H685 0.950 . S
C664 N660 1.332 . S
C664 C663 1.382 . S
C664 H666 0.952 . S
C665 N660 1.332 . S
C665 C661 1.382 . S
C665 H667 0.948 . S
H666 C664 0.952 . S
H667 C665 0.948 . S
H668 C657 0.952 . S
H669 C659 0.948 . S
C670 C636 1.379 1_556 S
C670 C640 1.406 . S
C671 C633 1.389 . S
C671 C653 1.392 . S
C672 C643 1.392 . S
C672 C645 1.389 . S
C673 C648 1.395 . S
C673 C650 1.391 . S
H674 C634 0.951 . S
H675 C635 0.950 . S
H676 C641 0.949 . S
H677 C642 0.950 . S
H678 C646 0.951 . S
H679 C647 0.950 . S
H680 C651 0.949 . S
H681 C652 0.950 . S
H682 C656 0.950 . S
H683 C658 0.950 . S
H684 C661 0.950 . S
H685 C663 0.950 . S
C686 C687 1.443 . S
C686 N690 1.376 1_556 S
C686 C724 1.389 . S
C687 C686 1.443 . S
C687 C688 1.352 . S
C687 H727 0.951 . S
C688 C687 1.352 . S
C688 C689 1.429 1_556 S
C688 H728 0.949 1_556 S
C689 C688 1.429 1_554 S
C689 N690 1.374 . S
C689 C723 1.395 . S
N690 C686 1.376 1_554 S
N690 C689 1.374 . S
N690 Co691 2.008 . S
Co691 N690 2.008 . S
Co691 N692 1.995 . S
Co691 N697 2.008 . S
Co691 N702 1.995 1_554 S
Co691 N707 2.282 1_554 S
Co691 N713 2.282 . S
N692 Co691 1.995 . S
N692 C693 1.376 . S
N692 C696 1.383 . S
C693 N692 1.376 . S
C693 C694 1.446 . S
C693 C723 1.391 . S
C694 C693 1.446 . S
C694 C695 1.339 . S
C694 H729 0.949 . S
C695 C694 1.339 . S
C695 C696 1.439 . S
C695 H730 0.950 . S
C696 N692 1.383 . S
C696 C695 1.439 . S
C696 C725 1.392 . S
N697 Co691 2.008 . S
N697 C698 1.376 . S
N697 C701 1.374 . S
C698 N697 1.376 . S
C698 C699 1.443 . S
C698 C725 1.389 . S
C699 C698 1.443 . S
C699 C700 1.340 . S
C699 H731 0.951 . S
C700 C699 1.340 . S
C700 C701 1.439 . S
C700 H732 0.950 . S
C701 N697 1.374 . S
C701 C700 1.439 . S
C701 C726 1.395 . S
N702 Co691 1.995 1_556 S
N702 C703 1.376 . S
N702 C706 1.383 . S
C703 N702 1.376 . S
C703 C704 1.446 . S
C703 C726 1.391 1_556 S
C704 C703 1.446 . S
C704 C705 1.339 . S
C704 H733 0.949 . S
C705 C704 1.339 . S
C705 C706 1.439 . S
C705 H734 0.950 . S
C706 N702 1.383 . S
C706 C705 1.439 . S
C706 C724 1.392 . S
N707 Co691 2.282 1_556 S
N707 C710 1.332 . S
N707 C712 1.332 . S
C708 C709 1.386 . S
C708 C711 1.388 . S
C709 C708 1.386 . S
C709 C710 1.382 . S
C709 H735 0.950 . S
C710 N707 1.332 . S
C710 C709 1.382 . S
C710 H721 0.952 . S
C711 C708 1.388 . S
C711 C712 1.382 . S
C711 H736 0.950 . S
C712 N707 1.332 . S
C712 C711 1.382 . S
C712 H722 0.948 1_556 S
N713 Co691 2.282 . S
N713 C717 1.332 . S
N713 C718 1.332 . S
C714 C715 1.388 . S
C714 C718 1.382 . S
C714 H737 0.950 . S
C715 C714 1.388 . S
C715 C716 1.386 . S
C716 C715 1.386 . S
C716 C717 1.382 . S
C716 H738 0.950 . S
C717 N713 1.332 . S
C717 C716 1.382 . S
C717 H719 0.952 . S
C718 N713 1.332 . S
C718 C714 1.382 . S
C718 H720 0.948 . S
H719 C717 0.952 . S
H720 C718 0.948 . S
H721 C710 0.952 . S
H722 C712 0.948 1_554 S
C723 C689 1.395 . S
C723 C693 1.391 . S
C724 C686 1.389 . S
C724 C706 1.392 . S
C725 C696 1.392 . S
C725 C698 1.389 . S
C726 C701 1.395 . S
C726 C703 1.391 1_554 S
H727 C687 0.951 . S
H728 C688 0.949 1_554 S
H729 C694 0.949 . S
H730 C695 0.950 . S
H731 C699 0.951 . S
H732 C700 0.950 . S
H733 C704 0.949 . S
H734 C705 0.950 . S
H735 C709 0.950 . S
H736 C711 0.950 . S
H737 C714 0.950 . S
H738 C716 0.950 . S
C739 C740 1.443 . S
C739 N743 1.376 . S
C739 C777 1.389 . S
C740 C739 1.443 . S
C740 C741 1.340 . S
C740 H780 0.951 . S
C741 C740 1.340 . S
C741 C742 1.439 . S
C741 H781 0.950 . S
C742 C741 1.439 . S
C742 N743 1.374 . S
C742 C776 1.395 1_554 S
N743 C739 1.376 . S
N743 C742 1.374 . S
N743 Co744 2.008 . S
Co744 N743 2.008 . S
Co744 N745 1.995 1_554 S
Co744 N750 2.008 1_554 S
Co744 N755 1.995 . S
Co744 N760 2.282 . S
Co744 N766 2.282 1_554 S
N745 Co744 1.995 1_556 S
N745 C746 1.376 . S
N745 C749 1.383 . S
C746 N745 1.376 . S
C746 C747 1.446 . S
C746 C776 1.391 . S
C747 C746 1.446 . S
C747 C748 1.339 . S
C747 H782 0.949 . S
C748 C747 1.339 . S
C748 C749 1.439 . S
C748 H783 0.950 . S
C749 N745 1.383 . S
C749 C748 1.439 . S
C749 C778 1.392 . S
N750 Co744 2.008 1_556 S
N750 C751 1.376 . S
N750 C754 1.374 1_556 S
C751 N750 1.376 . S
C751 C752 1.443 . S
C751 C778 1.389 . S
C752 C751 1.443 . S
C752 C753 1.340 . S
C752 H784 0.951 . S
C753 C752 1.340 . S
C753 C754 1.439 1_556 S
C753 H785 0.950 . S
C754 N750 1.374 1_554 S
C754 C753 1.439 1_554 S
C754 C779 1.395 . S
N755 Co744 1.995 . S
N755 C756 1.376 . S
N755 C759 1.383 . S
C756 N755 1.376 . S
C756 C757 1.446 . S
C756 C779 1.391 . S
C757 C756 1.446 . S
C757 C758 1.339 . S
C757 H786 0.949 . S
C758 C757 1.339 . S
C758 C759 1.439 . S
C758 H787 0.950 . S
C759 N755 1.383 . S
C759 C758 1.439 . S
C759 C777 1.392 . S
N760 Co744 2.282 . S
N760 C763 1.332 . S
N760 C765 1.332 . S
C761 C762 1.386 . S
C761 C764 1.388 . S
C762 C761 1.386 . S
C762 C763 1.382 . S
C762 H788 0.950 . S
C763 N760 1.332 . S
C763 C762 1.382 . S
C763 H774 0.952 . S
C764 C761 1.388 . S
C764 C765 1.382 . S
C764 H789 0.950 . S
C765 N760 1.332 . S
C765 C764 1.382 . S
C765 H775 0.948 . S
N766 Co744 2.282 1_556 S
N766 C770 1.332 . S
N766 C771 1.332 . S
C767 C768 1.388 . S
C767 C771 1.382 . S
C767 H790 0.950 . S
C768 C767 1.388 . S
C768 C769 1.386 . S
C769 C768 1.386 . S
C769 C770 1.382 . S
C769 H791 0.950 . S
C770 N766 1.332 . S
C770 C769 1.382 . S
C770 H772 0.952 . S
C771 N766 1.332 . S
C771 C767 1.382 . S
C771 H773 0.948 . S
H772 C770 0.952 . S
H773 C771 0.948 . S
H774 C763 0.952 . S
H775 C765 0.948 . S
C776 C742 1.395 1_556 S
C776 C746 1.391 . S
C777 C739 1.389 . S
C777 C759 1.392 . S
C778 C749 1.392 . S
C778 C751 1.389 . S
C779 C754 1.395 . S
C779 C756 1.391 . S
H780 C740 0.951 . S
H781 C741 0.950 . S
H782 C747 0.949 . S
H783 C748 0.950 . S
H784 C752 0.951 . S
H785 C753 0.950 . S
H786 C757 0.949 . S
H787 C758 0.950 . S
H788 C762 0.950 . S
H789 C764 0.950 . S
H790 C767 0.950 . S
H791 C769 0.950 . S
C792 C793 1.387 . S
C792 H796 0.950 . S
C792 C801 1.390 . S
C793 C792 1.387 . S
C793 C795 1.387 . S
H794 C801 0.950 . S
C795 C793 1.387 . S
C795 C797 1.390 . S
C795 H799 0.950 . S
H796 C792 0.950 . S
C797 C795 1.390 . S
C797 C798 1.387 . S
C797 H800 0.950 . S
C798 C797 1.387 . S
C798 C801 1.387 . S
H799 C795 0.950 . S
H800 C797 0.950 . S
C801 C792 1.390 . S
C801 H794 0.950 . S
C801 C798 1.387 . S
C802 C803 1.387 . S
C802 H806 0.950 . S
C802 C811 1.390 . S
C803 C802 1.387 . S
C803 C805 1.387 . S
H804 C811 0.950 . S
C805 C803 1.387 . S
C805 C807 1.390 . S
C805 H809 0.950 . S
H806 C802 0.950 . S
C807 C805 1.390 . S
C807 C808 1.387 . S
C807 H810 0.950 . S
C808 C807 1.387 . S
C808 C811 1.387 . S
H809 C805 0.950 . S
H810 C807 0.950 . S
C811 C802 1.390 . S
C811 H804 0.950 . S
C811 C808 1.387 . S
C812 C813 1.387 . S
C812 H816 0.950 . S
C812 C821 1.390 . S
C813 C812 1.387 . S
C813 C815 1.387 . S
H814 C821 0.950 . S
C815 C813 1.387 . S
C815 C817 1.390 . S
C815 H819 0.950 . S
H816 C812 0.950 . S
C817 C815 1.390 . S
C817 C818 1.387 . S
C817 H820 0.950 . S
C818 C817 1.387 . S
C818 C821 1.387 . S
H819 C815 0.950 . S
H820 C817 0.950 . S
C821 C812 1.390 . S
C821 H814 0.950 . S
C821 C818 1.387 . S
C822 C823 1.387 . S
C822 H826 0.950 . S
C822 C831 1.390 . S
C823 C822 1.387 . S
C823 C825 1.387 . S
H824 C831 0.950 . S
C825 C823 1.387 . S
C825 C827 1.390 . S
C825 H829 0.950 . S
H826 C822 0.950 . S
C827 C825 1.390 . S
C827 C828 1.387 . S
C827 H830 0.950 . S
C828 C827 1.387 . S
C828 C831 1.387 . S
H829 C825 0.950 . S
H830 C827 0.950 . S
C831 C822 1.390 . S
C831 H824 0.950 . S
C831 C828 1.387 . S
C832 C833 1.387 . S
C832 H836 0.950 . S
C832 C841 1.390 . S
C833 C832 1.387 . S
C833 C835 1.387 . S
H834 C841 0.950 . S
C835 C833 1.387 . S
C835 C837 1.390 . S
C835 H839 0.950 . S
H836 C832 0.950 . S
C837 C835 1.390 . S
C837 C838 1.387 . S
C837 H840 0.950 . S
C838 C837 1.387 . S
C838 C841 1.387 . S
H839 C835 0.950 . S
H840 C837 0.950 . S
C841 C832 1.390 . S
C841 H834 0.950 . S
C841 C838 1.387 . S
C842 C843 1.387 . S
C842 H846 0.950 . S
C842 C851 1.390 . S
C843 C842 1.387 . S
C843 C845 1.387 . S
H844 C851 0.950 . S
C845 C843 1.387 . S
C845 C847 1.390 . S
C845 H849 0.950 . S
H846 C842 0.950 . S
C847 C845 1.390 . S
C847 C848 1.387 . S
C847 H850 0.950 . S
C848 C847 1.387 . S
C848 C851 1.387 . S
H849 C845 0.950 . S
H850 C847 0.950 . S
C851 C842 1.390 . S
C851 H844 0.950 . S
C851 C848 1.387 . S
C852 C853 1.387 . S
C852 H856 0.950 . S
C852 C861 1.390 . S
C853 C852 1.387 . S
C853 C855 1.387 . S
H854 C861 0.950 . S
C855 C853 1.387 . S
C855 C857 1.390 . S
C855 H859 0.950 . S
H856 C852 0.950 . S
C857 C855 1.390 . S
C857 C858 1.387 . S
C857 H860 0.950 . S
C858 C857 1.387 . S
C858 C861 1.387 . S
H859 C855 0.950 . S
H860 C857 0.950 . S
C861 C852 1.390 . S
C861 H854 0.950 . S
C861 C858 1.387 . S
C862 C863 1.387 . S
C862 H866 0.950 . S
C862 C871 1.390 . S
C863 C862 1.387 . S
C863 C865 1.387 . S
H864 C871 0.950 . S
C865 C863 1.387 . S
C865 C867 1.390 . S
C865 H869 0.950 . S
H866 C862 0.950 . S
C867 C865 1.390 . S
C867 C868 1.387 . S
C867 H870 0.950 . S
C868 C867 1.387 . S
C868 C871 1.387 . S
H869 C865 0.950 . S
H870 C867 0.950 . S
C871 C862 1.390 . S
C871 H864 0.950 . S
C871 C868 1.387 . S
C872 C873 1.387 . S
C872 H876 0.950 . S
C872 C881 1.390 . S
C873 C872 1.387 . S
C873 C875 1.387 . S
H874 C881 0.950 . S
C875 C873 1.387 . S
C875 C877 1.390 . S
C875 H879 0.950 . S
H876 C872 0.950 . S
C877 C875 1.390 . S
C877 C878 1.387 . S
C877 H880 0.950 . S
C878 C877 1.387 . S
C878 C881 1.387 . S
H879 C875 0.950 . S
H880 C877 0.950 . S
C881 C872 1.390 . S
C881 H874 0.950 . S
C881 C878 1.387 . S
C882 C883 1.387 . S
C882 H886 0.950 . S
C882 C891 1.390 . S
C883 C882 1.387 . S
C883 C885 1.387 . S
H884 C891 0.950 . S
C885 C883 1.387 . S
C885 C887 1.390 . S
C885 H889 0.950 . S
H886 C882 0.950 . S
C887 C885 1.390 . S
C887 C888 1.387 . S
C887 H890 0.950 . S
C888 C887 1.387 . S
C888 C891 1.387 . S
H889 C885 0.950 . S
H890 C887 0.950 . S
C891 C882 1.390 . S
C891 H884 0.950 . S
C891 C888 1.387 . S
C892 C893 1.387 . S
C892 H896 0.950 . S
C892 C901 1.390 . S
C893 C892 1.387 . S
C893 C895 1.387 . S
H894 C901 0.950 . S
C895 C893 1.387 . S
C895 C897 1.390 . S
C895 H899 0.950 . S
H896 C892 0.950 . S
C897 C895 1.390 . S
C897 C898 1.387 . S
C897 H900 0.950 . S
C898 C897 1.387 . S
C898 C901 1.387 . S
H899 C895 0.950 . S
H900 C897 0.950 . S
C901 C892 1.390 . S
C901 H894 0.950 . S
C901 C898 1.387 . S
C902 C903 1.387 . S
C902 H906 0.950 . S
C902 C911 1.390 . S
C903 C902 1.387 . S
C903 C905 1.387 . S
H904 C911 0.950 . S
C905 C903 1.387 . S
C905 C907 1.390 . S
C905 H909 0.950 . S
H906 C902 0.950 . S
C907 C905 1.390 . S
C907 C908 1.387 . S
C907 H910 0.950 . S
C908 C907 1.387 . S
C908 C911 1.387 . S
H909 C905 0.950 . S
H910 C907 0.950 . S
C911 C902 1.390 . S
C911 H904 0.950 . S
C911 C908 1.387 . S
C912 C913 1.387 . S
C912 H916 0.950 . S
C912 C921 1.390 . S
C913 C912 1.387 . S
C913 C915 1.387 . S
H914 C921 0.950 . S
C915 C913 1.387 . S
C915 C917 1.390 . S
C915 H919 0.950 . S
H916 C912 0.950 . S
C917 C915 1.390 . S
C917 C918 1.387 . S
C917 H920 0.950 . S
C918 C917 1.387 . S
C918 C921 1.387 . S
H919 C915 0.950 . S
H920 C917 0.950 . S
C921 C912 1.390 . S
C921 H914 0.950 . S
C921 C918 1.387 . S
C922 C923 1.387 . S
C922 H926 0.950 . S
C922 C931 1.390 . S
C923 C922 1.387 . S
C923 C925 1.387 . S
H924 C931 0.950 . S
C925 C923 1.387 . S
C925 C927 1.390 . S
C925 H929 0.950 . S
H926 C922 0.950 . S
C927 C925 1.390 . S
C927 C928 1.387 . S
C927 H930 0.950 . S
C928 C927 1.387 . S
C928 C931 1.387 . S
H929 C925 0.950 . S
H930 C927 0.950 . S
C931 C922 1.390 . S
C931 H924 0.950 . S
C931 C928 1.387 . S
C932 C933 1.387 . S
C932 H936 0.950 . S
C932 C941 1.390 . S
C933 C932 1.387 . S
C933 C935 1.387 . S
H934 C941 0.950 . S
C935 C933 1.387 . S
C935 C937 1.390 . S
C935 H939 0.950 . S
H936 C932 0.950 . S
C937 C935 1.390 . S
C937 C938 1.387 . S
C937 H940 0.950 . S
C938 C937 1.387 . S
C938 C941 1.387 . S
H939 C935 0.950 . S
H940 C937 0.950 . S
C941 C932 1.390 . S
C941 H934 0.950 . S
C941 C938 1.387 . S
C942 C943 1.387 . S
C942 H946 0.950 . S
C942 C951 1.390 . S
C943 C942 1.387 . S
C943 C945 1.387 . S
H944 C951 0.950 . S
C945 C943 1.387 . S
C945 C947 1.390 . S
C945 H949 0.950 . S
H946 C942 0.950 . S
C947 C945 1.390 . S
C947 C948 1.387 . S
C947 H950 0.950 . S
C948 C947 1.387 . S
C948 C951 1.387 . S
H949 C945 0.950 . S
H950 C947 0.950 . S
C951 C942 1.390 . S
C951 H944 0.950 . S
C951 C948 1.387 . S
C952 C953 1.387 . S
C952 H956 0.950 . S
C952 C961 1.390 . S
C953 C952 1.387 . S
C953 C955 1.387 . S
H954 C961 0.950 . S
C955 C953 1.387 . S
C955 C957 1.390 . S
C955 H959 0.950 . S
H956 C952 0.950 . S
C957 C955 1.390 . S
C957 C958 1.387 . S
C957 H960 0.950 . S
C958 C957 1.387 . S
C958 C961 1.387 . S
H959 C955 0.950 . S
H960 C957 0.950 . S
C961 C952 1.390 . S
C961 H954 0.950 . S
C961 C958 1.387 . S
C962 C963 1.387 . S
C962 H966 0.950 . S
C962 C971 1.390 . S
C963 C962 1.387 . S
C963 C965 1.387 . S
H964 C971 0.950 . S
C965 C963 1.387 . S
C965 C967 1.390 . S
C965 H969 0.950 . S
H966 C962 0.950 . S
C967 C965 1.390 . S
C967 C968 1.387 . S
C967 H970 0.950 . S
C968 C967 1.387 . S
C968 C971 1.387 . S
H969 C965 0.950 . S
H970 C967 0.950 . S
C971 C962 1.390 . S
C971 H964 0.950 . S
C971 C968 1.387 . S
C972 C973 1.387 . S
C972 H976 0.950 . S
C972 C981 1.390 . S
C973 C972 1.387 . S
C973 C975 1.387 . S
H974 C981 0.950 . S
C975 C973 1.387 . S
C975 C977 1.390 . S
C975 H979 0.950 . S
H976 C972 0.950 . S
C977 C975 1.390 . S
C977 C978 1.387 . S
C977 H980 0.950 . S
C978 C977 1.387 . S
C978 C981 1.387 . S
H979 C975 0.950 . S
H980 C977 0.950 . S
C981 C972 1.390 . S
C981 H974 0.950 . S
C981 C978 1.387 . S
C982 C983 1.387 . S
C982 H986 0.950 . S
C982 C991 1.390 . S
C983 C982 1.387 . S
C983 C985 1.387 . S
H984 C991 0.950 . S
C985 C983 1.387 . S
C985 C987 1.390 . S
C985 H989 0.950 . S
H986 C982 0.950 . S
C987 C985 1.390 . S
C987 C988 1.387 . S
C987 H990 0.950 . S
C988 C987 1.387 . S
C988 C991 1.387 . S
H989 C985 0.950 . S
H990 C987 0.950 . S
C991 C982 1.390 . S
C991 H984 0.950 . S
C991 C988 1.387 . S
C992 C993 1.387 . S
C992 H996 0.950 . S
C992 C1001 1.390 . S
C993 C992 1.387 . S
C993 C995 1.387 . S
H994 C1001 0.950 . S
C995 C993 1.387 . S
C995 C997 1.390 . S
C995 H999 0.950 . S
H996 C992 0.950 . S
C997 C995 1.390 . S
C997 C998 1.387 . S
C997 H1000 0.950 . S
C998 C997 1.387 . S
C998 C1001 1.387 . S
H999 C995 0.950 . S
H1000 C997 0.950 . S
C1001 C992 1.390 . S
C1001 H994 0.950 . S
C1001 C998 1.387 . S
C1002 C1003 1.387 . S
C1002 H1006 0.950 . S
C1002 C1011 1.390 . S
C1003 C1002 1.387 . S
C1003 C1005 1.387 . S
H1004 C1011 0.950 . S
C1005 C1003 1.387 . S
C1005 C1007 1.390 . S
C1005 H1009 0.950 . S
H1006 C1002 0.950 . S
C1007 C1005 1.390 . S
C1007 C1008 1.387 . S
C1007 H1010 0.950 . S
C1008 C1007 1.387 . S
C1008 C1011 1.387 . S
H1009 C1005 0.950 . S
H1010 C1007 0.950 . S
C1011 C1002 1.390 . S
C1011 H1004 0.950 . S
C1011 C1008 1.387 . S
C1012 C1013 1.387 . S
C1012 H1016 0.950 . S
C1012 C1021 1.390 . S
C1013 C1012 1.387 . S
C1013 C1015 1.387 . S
H1014 C1021 0.950 . S
C1015 C1013 1.387 . S
C1015 C1017 1.390 . S
C1015 H1019 0.950 . S
H1016 C1012 0.950 . S
C1017 C1015 1.390 . S
C1017 C1018 1.387 . S
C1017 H1020 0.950 . S
C1018 C1017 1.387 . S
C1018 C1021 1.387 . S
H1019 C1015 0.950 . S
H1020 C1017 0.950 . S
C1021 C1012 1.390 . S
C1021 H1014 0.950 . S
C1021 C1018 1.387 . S
C1022 C1023 1.387 . S
C1022 H1026 0.950 . S
C1022 C1031 1.390 . S
C1023 C1022 1.387 . S
C1023 C1025 1.387 . S
H1024 C1031 0.950 . S
C1025 C1023 1.387 . S
C1025 C1027 1.390 . S
C1025 H1029 0.950 . S
H1026 C1022 0.950 . S
C1027 C1025 1.390 . S
C1027 C1028 1.387 . S
C1027 H1030 0.950 . S
C1028 C1027 1.387 . S
C1028 C1031 1.387 . S
H1029 C1025 0.950 . S
H1030 C1027 0.950 . S
C1031 C1022 1.390 . S
C1031 H1024 0.950 . S
C1031 C1028 1.387 . S
C1032 C1033 1.387 . S
C1032 H1036 0.950 . S
C1032 C1041 1.390 . S
C1033 C1032 1.387 . S
C1033 C1035 1.387 . S
H1034 C1041 0.950 . S
C1035 C1033 1.387 . S
C1035 C1037 1.390 . S
C1035 H1039 0.950 . S
H1036 C1032 0.950 . S
C1037 C1035 1.390 . S
C1037 C1038 1.387 . S
C1037 H1040 0.950 . S
C1038 C1037 1.387 . S
C1038 C1041 1.387 . S
H1039 C1035 0.950 . S
H1040 C1037 0.950 . S
C1041 C1032 1.390 . S
C1041 H1034 0.950 . S
C1041 C1038 1.387 . S
C1042 C1043 1.387 . S
C1042 H1046 0.950 . S
C1042 C1051 1.390 . S
C1043 C1042 1.387 . S
C1043 C1045 1.387 . S
H1044 C1051 0.950 . S
C1045 C1043 1.387 . S
C1045 C1047 1.390 . S
C1045 H1049 0.950 . S
H1046 C1042 0.950 . S
C1047 C1045 1.390 . S
C1047 C1048 1.387 . S
C1047 H1050 0.950 . S
C1048 C1047 1.387 . S
C1048 C1051 1.387 . S
H1049 C1045 0.950 . S
H1050 C1047 0.950 . S
C1051 C1042 1.390 . S
C1051 H1044 0.950 . S
C1051 C1048 1.387 . S
C1052 C1053 1.387 . S
C1052 H1056 0.950 . S
C1052 C1061 1.390 . S
C1053 C1052 1.387 . S
C1053 C1055 1.387 . S
H1054 C1061 0.950 . S
C1055 C1053 1.387 . S
C1055 C1057 1.390 . S
C1055 H1059 0.950 . S
H1056 C1052 0.950 . S
C1057 C1055 1.390 . S
C1057 C1058 1.387 . S
C1057 H1060 0.950 . S
C1058 C1057 1.387 . S
C1058 C1061 1.387 . S
H1059 C1055 0.950 . S
H1060 C1057 0.950 . S
C1061 C1052 1.390 . S
C1061 H1054 0.950 . S
C1061 C1058 1.387 . S
C1062 C1063 1.387 . S
C1062 H1066 0.950 . S
C1062 C1071 1.390 . S
C1063 C1062 1.387 . S
C1063 C1065 1.387 . S
H1064 C1071 0.950 . S
C1065 C1063 1.387 . S
C1065 C1067 1.390 . S
C1065 H1069 0.950 . S
H1066 C1062 0.950 . S
C1067 C1065 1.390 . S
C1067 C1068 1.387 . S
C1067 H1070 0.950 . S
C1068 C1067 1.387 . S
C1068 C1071 1.387 . S
H1069 C1065 0.950 . S
H1070 C1067 0.950 . S
C1071 C1062 1.390 . S
C1071 H1064 0.950 . S
C1071 C1068 1.387 . S
C1072 C1073 1.387 . S
C1072 H1076 0.950 . S
C1072 C1081 1.390 . S
C1073 C1072 1.387 . S
C1073 C1075 1.387 . S
H1074 C1081 0.950 . S
C1075 C1073 1.387 . S
C1075 C1077 1.390 . S
C1075 H1079 0.950 . S
H1076 C1072 0.950 . S
C1077 C1075 1.390 . S
C1077 C1078 1.387 . S
C1077 H1080 0.950 . S
C1078 C1077 1.387 . S
C1078 C1081 1.387 . S
H1079 C1075 0.950 . S
H1080 C1077 0.950 . S
C1081 C1072 1.390 . S
C1081 H1074 0.950 . S
C1081 C1078 1.387 . S
C1082 C1083 1.387 . S
C1082 H1086 0.950 . S
C1082 C1091 1.390 . S
C1083 C1082 1.387 . S
C1083 C1085 1.387 . S
H1084 C1091 0.950 . S
C1085 C1083 1.387 . S
C1085 C1087 1.390 . S
C1085 H1089 0.950 . S
H1086 C1082 0.950 . S
C1087 C1085 1.390 . S
C1087 C1088 1.387 . S
C1087 H1090 0.950 . S
C1088 C1087 1.387 . S
C1088 C1091 1.387 . S
H1089 C1085 0.950 . S
H1090 C1087 0.950 . S
C1091 C1082 1.390 . S
C1091 H1084 0.950 . S
C1091 C1088 1.387 . S
C1092 C1093 1.387 . S
C1092 H1096 0.950 . S
C1092 C1101 1.390 . S
C1093 C1092 1.387 . S
C1093 C1095 1.387 . S
H1094 C1101 0.950 . S
C1095 C1093 1.387 . S
C1095 C1097 1.390 . S
C1095 H1099 0.950 . S
H1096 C1092 0.950 . S
C1097 C1095 1.390 . S
C1097 C1098 1.387 . S
C1097 H1100 0.950 . S
C1098 C1097 1.387 . S
C1098 C1101 1.387 . S
H1099 C1095 0.950 . S
H1100 C1097 0.950 . S
C1101 C1092 1.390 . S
C1101 H1094 0.950 . S
C1101 C1098 1.387 . S
C1102 C1103 1.387 . S
C1102 H1106 0.950 . S
C1102 C1111 1.390 . S
C1103 C1102 1.387 . S
C1103 C1105 1.387 . S
H1104 C1111 0.950 . S
C1105 C1103 1.387 . S
C1105 C1107 1.390 . S
C1105 H1109 0.950 . S
H1106 C1102 0.950 . S
C1107 C1105 1.390 . S
C1107 C1108 1.387 . S
C1107 H1110 0.950 . S
C1108 C1107 1.387 . S
C1108 C1111 1.387 . S
H1109 C1105 0.950 . S
H1110 C1107 0.950 . S
C1111 C1102 1.390 . S
C1111 H1104 0.950 . S
C1111 C1108 1.387 . S
C798 C397 1.472 . S
C793 C15 1.478 . S
C808 C450 1.313 . S
C803 C68 1.310 . S
C818 C513 1.547 . S
C813 C107 1.551 . S
C828 C556 1.251 . S
C823 C160 1.251 . S
C833 C185 1.551 . S
C838 C512 1.549 . S
C848 C549 1.323 . S
C843 C252 1.323 . S
C858 C390 1.470 . S
C853 C277 1.470 . S
C868 C443 1.244 . S
C863 C330 1.242 . S
C878 C496 1.483 . S
C873 C323 1.475 . S
C888 C565 1.803 . S
C883 C192 1.807 . S
C898 C406 1.562 . S
C893 C245 1.561 . S
C908 C459 1.740 . S
C903 C284 1.741 . S
C918 C407 1.548 . S
C913 C61 1.546 . S
C928 C460 1.811 . S
C923 C114 1.813 . S
C938 C503 1.496 . S
C933 C153 1.493 . S
C948 C566 1.723 . S
C943 C22 1.723 . S
C958 C609 1.441 . S
C953 C337 1.447 . S
C963 C206 1.668 . S
C968 C662 1.667 . S
C973 C231 1.597 . S
C978 C724 1.594 . S
C983 C298 1.683 . S
C988 C778 1.687 . S
C993 C47 1.515 . S
C998 C725 1.514 . S
C1003 C100 1.766 . S
C1008 C777 1.764 . S
C1013 C139 1.512 . S
C1018 C602 1.511 . S
C1028 C655 1.603 . S
C1023 C8 1.601 . S
C1038 C715 1.468 . S
C1033 C1 1.458 . S
C1043 C54 1.374 . S
C1048 C761 1.368 . S
C1053 C93 1.588 . S
C1058 C618 1.589 . S
C1063 C146 1.318 . S
C1068 C671 1.315 . S
C1078 C619 1.530 . S
C1073 C199 1.528 . S
C1088 C672 1.401 . S
C1083 C238 1.408 . S
C1093 C291 1.514 . S
C1098 C708 1.517 . S
C1108 C768 1.302 . S
C1103 C344 1.298 . S
