# Generated by pormake.
# Topology rtl, (3,6)-cn, num edge types: 1
# Building blocks:
#     Node 0, Type 0, BuildingBlock: ESEHIV_clean_linker_0, # of connection points: 3
#     Node 1, Type 0, BuildingBlock: ESEHIV_clean_linker_0, # of connection points: 3
#     Node 2, Type 0, BuildingBlock: ESEHIV_clean_linker_0, # of connection points: 3
#     Node 3, Type 0, BuildingBlock: ESEHIV_clean_linker_0, # of connection points: 3
#     Node 4, Type 1, BuildingBlock: VOLQOD_clean_sbu_1, # of connection points: 6
#     Node 5, Type 1, BuildingBlock: VOLQOD_clean_sbu_1, # of connection points: 6
#     Edge 6, Type (0, 1), BuildingBlock: UVAHIK_clean_linker_0, # of connection points: 2
#     Edge 7, Type (0, 1), BuildingBlock: UVAHIK_clean_linker_0, # of connection points: 2
#     Edge 8, Type (0, 1), BuildingBlock: UVAHIK_clean_linker_0, # of connection points: 2
#     Edge 9, Type (0, 1), BuildingBlock: UVAHIK_clean_linker_0, # of connection points: 2
#     Edge 10, Type (0, 1), BuildingBlock: UVAHIK_clean_linker_0, # of connection points: 2
#     Edge 11, Type (0, 1), BuildingBlock: UVAHIK_clean_linker_0, # of connection points: 2
#     Edge 12, Type (0, 1), BuildingBlock: UVAHIK_clean_linker_0, # of connection points: 2
#     Edge 13, Type (0, 1), BuildingBlock: UVAHIK_clean_linker_0, # of connection points: 2
#     Edge 14, Type (0, 1), BuildingBlock: UVAHIK_clean_linker_0, # of connection points: 2
#     Edge 15, Type (0, 1), BuildingBlock: UVAHIK_clean_linker_0, # of connection points: 2
#     Edge 16, Type (0, 1), BuildingBlock: UVAHIK_clean_linker_0, # of connection points: 2
#     Edge 17, Type (0, 1), BuildingBlock: UVAHIK_clean_linker_0, # of connection points: 2
# Relax obj value: 0.079
# Max RMSD: 0.156
# Mean RMSD: 0.088
data_MOF--net-rtl--node1-VOLQOD_clean_sbu_1--node2-ESEHIV_clean_linker_0--edge1-UVAHIK_clean_linker_0
_symmetry_space_group_name_H-M    P1
_symmetry_Int_Tables_number       1
_symmetry_cell_setting            triclinic
loop_
_symmetry_equiv_pos_as_xyz
'x, y, z'
_cell_length_a     45.142373
_cell_length_b     38.895907
_cell_length_c     29.520339
_cell_angle_alpha  89.930601
_cell_angle_beta   90.347219
_cell_angle_gamma 89.873434
loop_
_atom_site_label
_atom_site_type_symbol
_atom_site_fract_x
_atom_site_fract_y
_atom_site_fract_z
_atom_type_partial_charge
H0 H 0.0758 0.76008 0.00202 0.0
H1 H 0.13416 0.68823 0.06797 0.0
H2 H 0.13117 0.6941 0.92222 0.0
C3 C 0.09173 0.73923 -0.0001 0.0
C4 C 0.10164 0.72831 0.95739 0.0
C5 C 0.1032 0.72476 0.03982 0.0
C6 C 0.1242 0.69822 0.03712 0.0
C7 C 0.13459 0.68714 -0.00528 0.0
C8 C 0.12273 0.70186 0.95497 0.0
H9 H 0.57504 0.74963 0.49448 0.0
H10 H 0.63703 0.81691 0.42974 0.0
H11 H 0.63136 0.81407 0.57549 0.0
C12 C 0.59187 0.76942 0.49693 0.0
C13 C 0.60144 0.78053 0.53965 0.0
C14 C 0.60464 0.78226 0.45728 0.0
C15 C 0.62633 0.80791 0.4603 0.0
C16 C 0.63613 0.81954 0.50297 0.0
C17 C 0.62331 0.806 0.54252 0.0
H18 H 0.93459 0.26201 0.98317 0.0
H19 H 0.86826 0.31568 0.06003 0.0
H20 H 0.87121 0.32696 0.91554 0.0
C21 C 0.91623 0.27989 0.9847 0.0
C22 C 0.90438 0.29321 0.9442 0.0
C23 C 0.90347 0.28767 0.02687 0.0
C24 C 0.87927 0.31052 0.02823 0.0
C25 C 0.86757 0.32462 0.98812 0.0
C26 C 0.88046 0.31622 0.94645 0.0
H27 H 0.43502 0.24924 0.51009 0.0
H28 H 0.36472 0.19189 0.57128 0.0
H29 H 0.37028 0.19849 0.42607 0.0
C30 C 0.41599 0.23246 0.50664 0.0
C31 C 0.40472 0.22488 0.46333 0.0
C32 C 0.40156 0.22084 0.5456 0.0
C33 C 0.37624 0.20039 0.54114 0.0
C34 C 0.36515 0.19169 0.49814 0.0
C35 C 0.3797 0.20363 0.45924 0.0
O36 O 0.92683 0.0091 0.49084 0.0
Zn37 Zn 0.96475 0.03634 0.49025 0.0
O38 O -0.00064 0.00599 0.49111 0.0
Zn39 Zn 0.02397 0.01633 0.54408 0.0
Zn40 Zn 0.98663 0.95788 0.49393 0.0
Zn41 Zn 0.02222 0.0136 0.43607 0.0
O42 O 0.06519 0.0296 0.52574 0.0
O43 O 0.06346 0.03005 0.45056 0.0
O44 O 0.96483 0.06759 0.54435 0.0
O45 O 0.00686 0.0554 0.58036 0.0
O46 O 0.02758 0.9753 0.58521 0.0
O47 O 0.00246 0.93427 0.54983 0.0
O48 O 0.00142 0.93086 0.44021 0.0
O49 O 0.96426 0.06682 0.43509 0.0
O50 O 0.02626 0.96984 0.40082 0.0
O51 O 0.00316 0.04914 0.39575 0.0
C52 C 0.92138 0.97705 0.49374 0.0
C53 C 0.07752 0.03449 0.4876 0.0
C54 C 0.01822 0.94449 0.58306 0.0
C55 C 0.98306 0.07285 0.57666 0.0
C56 C 0.0171 0.93917 0.4062 0.0
C57 C 0.98067 0.06861 0.40027 0.0
O58 O 0.94214 0.95485 0.49565 0.0
O59 O 0.57265 0.50845 -0.00014 0.0
Zn60 Zn 0.5339 0.5344 -0.00113 0.0
O61 O 0.49974 0.50355 0.00042 0.0
Zn62 Zn 0.47466 0.51081 0.94699 0.0
Zn63 Zn 0.51389 0.45604 0.0008 0.0
Zn64 Zn 0.47666 0.51286 0.05498 0.0
O65 O 0.43306 0.52305 0.96455 0.0
O66 O 0.43429 0.52516 0.03968 0.0
O67 O 0.53261 0.56376 0.94298 0.0
O68 O 0.49069 0.5492 0.90824 0.0
O69 O 0.4718 0.46794 0.90906 0.0
O70 O 0.49932 0.4299 0.94658 0.0
O71 O 0.50016 0.43112 0.05656 0.0
O72 O 0.53402 0.56666 0.05184 0.0
O73 O 0.47611 0.47116 0.09554 0.0
O74 O 0.49376 0.55248 0.09028 0.0
C75 C 0.57867 0.47646 -0.00046 0.0
C76 C 0.42025 0.52791 0.0023 0.0
C77 C 0.48275 0.43789 0.91318 0.0
C78 C 0.51405 0.56747 0.91068 0.0
C79 C 0.48581 0.44053 0.09144 0.0
C80 C 0.51661 0.57119 0.08503 0.0
O81 O 0.5583 0.45389 -0.00053 0.0
C82 C 0.31207 0.18507 0.51876 0.0
C83 C 0.33663 0.17327 0.49434 0.0
C84 C 0.28515 0.16771 0.51642 0.0
C85 C 0.24281 0.10397 0.449 0.0
H86 H 0.19574 0.1006 0.55831 0.0
C87 C 0.11996 0.06263 0.44797 0.0
C88 C 0.10866 0.04605 0.48645 0.0
C89 C 0.14895 0.07517 0.4479 0.0
C90 C 0.20871 0.10072 0.52757 0.0
H91 H 0.3524 0.13448 0.44781 0.0
H92 H 0.30537 0.10322 0.44461 0.0
H93 H 0.24419 0.1271 0.56041 0.0
H94 H 0.11927 0.02811 0.55421 0.0
H95 H 0.17008 0.04874 0.55355 0.0
H96 H 0.20761 0.07643 0.41662 0.0
C97 C 0.30676 0.12629 0.46499 0.0
C98 C 0.23638 0.11653 0.52859 0.0
C99 C 0.33369 0.14402 0.46691 0.0
C100 C 0.12722 0.04123 0.52428 0.0
C101 C 0.15633 0.05324 0.52395 0.0
C102 C 0.2152 0.08772 0.44811 0.0
C103 C 0.28221 0.1378 0.49006 0.0
C104 C 0.25359 0.11891 0.48918 0.0
C105 C 0.16743 0.07094 0.48608 0.0
C106 C 0.19761 0.08629 0.48728 0.0
H107 H 0.31362 0.208 0.53944 0.0
H108 H 0.26657 0.17796 0.53512 0.0
H109 H 0.25536 0.10548 0.41792 0.0
H110 H 0.10614 0.06683 0.41835 0.0
H111 H 0.15651 0.08908 0.41838 0.0
C112 C 0.16282 0.63437 0.01911 0.0
C113 C 0.16071 0.66408 0.99218 0.0
C114 C 0.18863 0.61433 0.0188 0.0
C115 C 0.25852 0.60061 0.95425 0.0
H116 H 0.28783 0.56509 0.06879 0.0
C117 C 0.37053 0.53045 0.96465 0.0
C118 C 0.38855 0.5375 0.00245 0.0
C119 C 0.34089 0.54081 0.96378 0.0
C120 C 0.28008 0.57504 0.03655 0.0
H121 H 0.18405 0.69642 0.94442 0.0
H122 H 0.22898 0.66218 0.94447 0.0
H123 H 0.23964 0.59316 0.06549 0.0
H124 H 0.38955 0.56047 0.06929 0.0
H125 H 0.33824 0.57986 0.06712 0.0
H126 H 0.29959 0.58461 0.92579 0.0
C127 C 0.21054 0.65347 0.96474 0.0
C128 C 0.25218 0.59068 0.03451 0.0
C129 C 0.18474 0.67321 0.96473 0.0
C130 C 0.37617 0.55455 0.03974 0.0
C131 C 0.34664 0.56544 0.03858 0.0
C132 C 0.28652 0.58542 0.9564 0.0
C133 C 0.21294 0.62387 0.99193 0.0
C134 C 0.24126 0.60419 0.99345 0.0
C135 C 0.32867 0.55903 0.00036 0.0
C136 C 0.29789 0.57284 -0.00231 0.0
H137 H 0.14457 0.62674 0.04052 0.0
H138 H 0.18955 0.59147 0.03974 0.0
H139 H 0.25064 0.6101 0.92184 0.0
H140 H 0.37933 0.51692 0.93561 0.0
H141 H 0.32763 0.53465 0.93421 0.0
C142 C 0.66482 0.87173 0.4791 0.0
C143 C 0.66235 0.84224 0.50629 0.0
C144 C 0.69067 0.89153 0.48028 0.0
C145 C 0.76055 0.90437 0.54683 0.0
H146 H 0.79079 0.93824 0.4325 0.0
C147 C 0.88353 0.93322 0.51498 0.0
C148 C 0.8903 0.96536 0.49594 0.0
C149 C 0.85419 0.9223 0.51799 0.0
C150 C 0.7824 0.92926 0.46471 0.0
H151 H 0.68496 0.81011 0.55562 0.0
H152 H 0.73008 0.84382 0.55692 0.0
H153 H 0.74176 0.91198 0.43508 0.0
H154 H 0.87166 0.01107 0.46455 0.0
H155 H 0.82022 0.99133 0.46868 0.0
H156 H 0.80201 0.92007 0.57574 0.0
C157 C 0.71188 0.85259 0.53578 0.0
C158 C 0.75426 0.91437 0.46633 0.0
C159 C 0.686 0.83312 0.53498 0.0
C160 C 0.8671 0.98622 0.47952 0.0
C161 C 0.83774 0.97495 0.48174 0.0
C162 C 0.78882 0.91871 0.54501 0.0
C163 C 0.71469 0.88194 0.50825 0.0
C164 C 0.74319 0.90113 0.50728 0.0
C165 C 0.83107 0.943 0.50129 0.0
C166 C 0.80016 0.93076 0.50382 0.0
H167 H 0.64682 0.87935 0.4568 0.0
H168 H 0.69186 0.91422 0.45909 0.0
H169 H 0.75251 0.8953 0.57918 0.0
H170 H 0.9009 0.91664 0.5281 0.0
H171 H 0.84957 0.89741 0.53285 0.0
C172 C 0.81617 0.33558 0.96049 0.0
C173 C 0.8398 0.3449 0.98896 0.0
C174 C 0.78958 0.35381 0.96142 0.0
C175 C 0.74565 0.41346 0.03237 0.0
H176 H 0.69944 0.42152 0.9216 0.0
C177 C 0.63273 0.48636 0.01471 0.0
C178 C 0.60989 0.46509 -0.00161 0.0
C179 C 0.6622 0.47514 0.0138 0.0
C180 C 0.7122 0.41952 0.95271 0.0
H181 H 0.85437 0.38056 0.04068 0.0
H182 H 0.80801 0.41341 0.04144 0.0
H183 H 0.74905 0.39686 0.91898 0.0
H184 H 0.59999 0.41572 0.96775 0.0
H185 H 0.65151 0.39666 0.96503 0.0
H186 H 0.70854 0.4368 0.06567 0.0
C187 C 0.80981 0.39154 0.01897 0.0
C188 C 0.74052 0.40518 0.95137 0.0
C189 C 0.83639 0.3729 0.01845 0.0
C190 C 0.61709 0.43262 0.98074 0.0
C191 C 0.64652 0.42177 0.97895 0.0
C192 C 0.71744 0.42842 0.03351 0.0
C193 C 0.78605 0.38218 0.99043 0.0
C194 C 0.75732 0.40105 0.99137 0.0
C195 C 0.66928 0.44287 -0.00443 0.0
C196 C 0.70027 0.43077 0.99385 0.0
H197 H 0.81803 0.31364 0.93809 0.0
H198 H 0.77159 0.34512 0.93991 0.0
H199 H 0.75775 0.41045 0.0639 0.0
H200 H 0.62778 0.51146 0.02866 0.0
H201 H 0.67948 0.4918 0.02675 0.0
C202 C 0.08565 0.72187 0.12046 0.0
C203 C 0.09634 0.74106 0.0837 0.0
C204 C 0.07847 0.73833 0.16119 0.0
C205 C 0.09406 0.81659 0.22644 0.0
H206 H 0.01462 0.80791 0.27436 0.0
C207 C 0.04303 0.92175 0.33526 0.0
C208 C 0.02589 0.9126 0.37296 0.0
C209 C 0.05259 0.89681 0.30479 0.0
C210 C 0.03706 0.81015 0.26193 0.0
H211 H 0.10896 0.79188 0.06082 0.0
H212 H 0.09682 0.82042 0.13166 0.0
H213 H 0.03072 0.77004 0.21296 0.0
H214 H 0.00498 0.86994 0.40775 0.0
H215 H 0.02185 0.82622 0.35422 0.0
H216 H 0.10038 0.85706 0.27437 0.0
C217 C 0.09377 0.79286 0.1292 0.0
C218 C 0.04625 0.78847 0.22688 0.0
C219 C 0.10047 0.7766 0.08857 0.0
C220 C 0.01814 0.87787 0.37904 0.0
C221 C 0.02774 0.85283 0.34838 0.0
C222 C 0.08498 0.83807 0.26147 0.0
C223 C 0.08258 0.77399 0.16583 0.0
C224 C 0.07451 0.79232 0.20789 0.0
C225 C 0.04534 0.86204 0.3112 0.0
C226 C 0.05605 0.8359 0.27856 0.0
H227 H 0.08235 0.6944 0.11735 0.0
H228 H 0.06989 0.72328 0.18905 0.0
H229 H 0.11614 0.81968 0.21284 0.0
H230 H 0.04927 0.94823 0.32927 0.0
H231 H 0.06554 0.90488 0.27591 0.0
C232 C 0.58943 0.7265 0.58096 0.0
C233 C 0.5907 0.76258 0.58064 0.0
C234 C 0.57855 0.70898 0.61841 0.0
C235 C 0.56482 0.71648 0.74035 0.0
H236 H 0.51652 0.63585 0.71782 0.0
C237 C 0.5472 0.61079 0.87412 0.0
C238 C 0.51984 0.59362 0.87539 0.0
C239 C 0.55301 0.63492 0.8403 0.0
C240 C 0.52957 0.65857 0.7249 0.0
H241 H 0.58234 0.80863 0.61974 0.0
H242 H 0.563 0.77777 0.68583 0.0
H243 H 0.53133 0.67199 0.6548 0.0
H244 H 0.47677 0.58918 0.84289 0.0
H245 H 0.48678 0.63167 0.78426 0.0
H246 H 0.56285 0.70306 0.81063 0.0
C247 C 0.57052 0.76316 0.65687 0.0
C248 C 0.5384 0.67905 0.68866 0.0
C249 C 0.58155 0.7808 0.61917 0.0
C250 C 0.49819 0.60168 0.84262 0.0
C251 C 0.50395 0.62598 0.80894 0.0
C252 C 0.55587 0.69601 0.77674 0.0
C253 C 0.56862 0.72704 0.65659 0.0
C254 C 0.5567 0.70776 0.69582 0.0
C255 C 0.53155 0.64262 0.8071 0.0
C256 C 0.53864 0.66641 0.7693 0.0
H257 H 0.59706 0.71172 0.55219 0.0
H258 H 0.5782 0.68114 0.61759 0.0
H259 H 0.57896 0.73839 0.74696 0.0
H260 H 0.5644 0.6052 0.89879 0.0
H261 H 0.57468 0.64679 0.83948 0.0
C262 C 0.91337 0.28552 0.11124 0.0
C263 C 0.91362 0.26932 0.06857 0.0
C264 C 0.92195 0.26749 0.15028 0.0
C265 C 0.96807 0.19757 0.18997 0.0
H266 H 0.91029 0.18118 0.28414 0.0
C267 C 0.98473 0.08986 0.32062 0.0
C268 C 0.97378 0.09417 0.36464 0.0
C269 C 0.97839 0.11404 0.28693 0.0
C270 C 0.92698 0.18602 0.25876 0.0
H271 H 0.9224 0.22085 0.03435 0.0
H272 H 0.93881 0.19047 0.10182 0.0
H273 H 0.89824 0.22011 0.22172 0.0
H274 H 0.94801 0.12749 0.40819 0.0
H275 H 0.93787 0.1704 0.34993 0.0
H276 H 0.99709 0.16416 0.22673 0.0
C277 C 0.932 0.2171 0.10481 0.0
C278 C 0.91997 0.20825 0.22299 0.0
C279 C 0.92283 0.23474 0.06608 0.0
C280 C 0.95653 0.12331 0.37441 0.0
C281 C 0.95062 0.14785 0.3409 0.0
C282 C 0.97532 0.17589 0.22608 0.0
C283 C 0.93149 0.23323 0.14718 0.0
C284 C 0.94023 0.21355 0.18788 0.0
C285 C 0.96141 0.1435 0.29663 0.0
C286 C 0.95461 0.1691 0.26041 0.0
H287 H 0.90667 0.31214 0.11451 0.0
H288 H 0.92143 0.28036 0.18279 0.0
H289 H 0.98408 0.20154 0.16328 0.0
H290 H 0.99788 0.0675 0.31196 0.0
H291 H 0.98649 0.10925 0.25308 0.0
C292 C 0.38986 0.25128 0.61743 0.0
C293 C 0.41064 0.23417 0.59041 0.0
C294 C 0.39882 0.26814 0.65682 0.0
C295 C 0.46602 0.30611 0.7091 0.0
H296 H 0.41246 0.321 0.80948 0.0
C297 C 0.49502 0.38368 0.87178 0.0
C298 C 0.47569 0.41152 0.87893 0.0
C299 C 0.48827 0.35869 0.83937 0.0
C300 C 0.42762 0.31689 0.78167 0.0
H301 H 0.45673 0.21967 0.58417 0.0
H302 H 0.47239 0.24781 0.65429 0.0
H303 H 0.39891 0.28057 0.74975 0.0
H304 H 0.434 0.43479 0.85847 0.0
H305 H 0.42186 0.39047 0.80265 0.0
H306 H 0.49488 0.34215 0.74197 0.0
C307 C 0.44929 0.24924 0.6444 0.0
C308 C 0.41985 0.29394 0.74729 0.0
C309 C 0.44035 0.23287 0.60448 0.0
C310 C 0.44936 0.41372 0.85348 0.0
C311 C 0.44232 0.38832 0.82184 0.0
C312 C 0.47402 0.32851 0.744 0.0
C313 C 0.42875 0.26785 0.67051 0.0
C314 C 0.43861 0.28889 0.70992 0.0
C315 C 0.46178 0.36074 0.81444 0.0
C316 C 0.45458 0.33462 0.77996 0.0
H317 H 0.36687 0.2531 0.60687 0.0
H318 H 0.3824 0.28269 0.67532 0.0
H319 H 0.48087 0.30344 0.68066 0.0
H320 H 0.51551 0.38143 0.89084 0.0
H321 H 0.50356 0.33759 0.83408 0.0
C322 C 0.58769 0.78409 0.37594 0.0
C323 C 0.59758 0.76532 0.41378 0.0
C324 C 0.57814 0.76683 0.33682 0.0
C325 C 0.54852 0.68241 0.30359 0.0
H326 H 0.56827 0.70884 0.18081 0.0
C327 C 0.50277 0.60682 0.15232 0.0
C328 C 0.52329 0.59845 0.11847 0.0
C329 C 0.50963 0.63144 0.18509 0.0
C330 C 0.56261 0.70116 0.21495 0.0
H331 H 0.60752 0.71437 0.43956 0.0
H332 H 0.59139 0.68445 0.37158 0.0
H333 H 0.58612 0.74357 0.24448 0.0
H334 H 0.5668 0.61019 0.09169 0.0
H335 H 0.57905 0.65245 0.14956 0.0
H336 H 0.52608 0.63942 0.27482 0.0
C337 C 0.59 0.71225 0.37229 0.0
C338 C 0.57259 0.72121 0.25129 0.0
C339 C 0.59934 0.72936 0.41112 0.0
C340 C 0.5505 0.61597 0.11736 0.0
C341 C 0.55744 0.64044 0.15033 0.0
C342 C 0.53862 0.66244 0.26747 0.0
C343 C 0.57852 0.73066 0.33519 0.0
C344 C 0.56612 0.71159 0.29602 0.0
C345 C 0.53727 0.64806 0.18499 0.0
C346 C 0.54586 0.67125 0.22274 0.0
H347 H 0.58626 0.81188 0.37729 0.0
H348 H 0.56946 0.78165 0.30861 0.0
H349 H 0.54272 0.67467 0.33766 0.0
H350 H 0.48145 0.59414 0.15383 0.0
H351 H 0.49339 0.63715 0.21088 0.0
C352 C 0.89352 0.2717 0.86583 0.0
C353 C 0.91443 0.27947 0.89981 0.0
C354 C 0.90196 0.25411 0.82684 0.0
C355 C 0.96674 0.22326 0.76067 0.0
H356 H 0.91182 0.15137 0.72548 0.0
C357 C 0.99729 0.10883 0.64388 0.0
C358 C 0.97629 0.09965 0.61065 0.0
C359 C 0.99054 0.13369 0.67641 0.0
C360 C 0.92724 0.17158 0.73452 0.0
H361 H 0.96107 0.27679 0.91771 0.0
H362 H 0.97557 0.24476 0.85049 0.0
H363 H 0.89879 0.19048 0.78627 0.0
H364 H 0.93191 0.10988 0.58517 0.0
H365 H 0.92017 0.153 0.64207 0.0
H366 H 0.99554 0.2033 0.70943 0.0
C367 C 0.95268 0.25269 0.85378 0.0
C368 C 0.91974 0.19414 0.76927 0.0
C369 C 0.94429 0.2707 0.89263 0.0
C370 C 0.94857 0.1162 0.61034 0.0
C371 C 0.94178 0.14083 0.64302 0.0
C372 C 0.97436 0.20042 0.72603 0.0
C373 C 0.93142 0.24333 0.82105 0.0
C374 C 0.93935 0.22031 0.7828 0.0
C375 C 0.96259 0.14965 0.67656 0.0
C376 C 0.95464 0.17438 0.71265 0.0
H377 H 0.87027 0.27765 0.87018 0.0
H378 H 0.88512 0.24804 0.80183 0.0
H379 H 0.98224 0.24329 0.76994 0.0
H380 H 0.01889 0.09668 0.64499 0.0
H381 H 0.00691 0.1398 0.70212 0.0
C382 C 0.42202 0.22591 0.38231 0.0
C383 C 0.41669 0.2431 0.42331 0.0
C384 C 0.43273 0.24398 0.34473 0.0
C385 C 0.46888 0.32661 0.31397 0.0
H386 H 0.43503 0.31009 0.19495 0.0
C387 C 0.47164 0.42662 0.17115 0.0
C388 C 0.4803 0.41536 0.128 0.0
C389 C 0.46659 0.40297 0.20581 0.0
C390 C 0.44492 0.31466 0.22792 0.0
H391 H 0.41723 0.29279 0.45657 0.0
H392 H 0.43539 0.32413 0.39151 0.0
H393 H 0.42146 0.27283 0.25829 0.0
H394 H 0.49011 0.37039 0.08723 0.0
H395 H 0.4807 0.32898 0.14791 0.0
H396 H 0.49137 0.36924 0.28396 0.0
C397 C 0.43238 0.29661 0.38848 0.0
C398 C 0.43726 0.29329 0.26414 0.0
C399 C 0.4219 0.27863 0.42584 0.0
C400 C 0.48357 0.37988 0.12017 0.0
C401 C 0.47807 0.35617 0.15474 0.0
C402 C 0.47625 0.34811 0.27797 0.0
C403 C 0.43807 0.27957 0.3475 0.0
C404 C 0.44866 0.29951 0.30782 0.0
C405 C 0.46971 0.36755 0.19792 0.0
C406 C 0.4639 0.34276 0.23484 0.0
H407 H 0.41814 0.19852 0.37947 0.0
H408 H 0.43701 0.23007 0.3137 0.0
H409 H 0.47866 0.33161 0.34689 0.0
H410 H 0.46897 0.45376 0.17831 0.0
H411 H 0.45984 0.41238 0.23871 0.0
C412 C 0.09421 0.78365 0.91621 0.0
C413 C 0.09274 0.74759 0.91621 0.0
C414 C 0.08673 0.80232 0.87751 0.0
C415 C 0.04313 0.79994 0.77354 0.0
H416 H 0.09508 0.87417 0.73712 0.0
C417 C 0.02032 0.8847 0.61514 0.0
C418 C 0.02632 0.92001 0.61955 0.0
C419 C 0.02886 0.86158 0.64915 0.0
C420 C 0.08016 0.85378 0.74708 0.0
H421 H 0.08225 0.7027 0.87588 0.0
H422 H 0.06869 0.73567 0.80771 0.0
H423 H 0.10926 0.8372 0.80026 0.0
H424 H 0.0454 0.95879 0.6637 0.0
H425 H 0.05962 0.91874 0.72319 0.0
H426 H 0.01359 0.81715 0.72115 0.0
C427 C 0.07569 0.7493 0.83789 0.0
C428 C 0.08837 0.83253 0.7831 0.0
C429 C 0.08354 0.7305 0.87666 0.0
C430 C 0.04064 0.93174 0.65897 0.0
C431 C 0.049 0.9087 0.693 0.0
C432 C 0.03476 0.82143 0.73761 0.0
C433 C 0.07745 0.78539 0.83795 0.0
C434 C 0.06974 0.80576 0.79715 0.0
C435 C 0.04346 0.87331 0.68836 0.0
C436 C 0.05299 0.84897 0.72448 0.0
H437 H 0.10162 0.79747 0.94603 0.0
H438 H 0.08801 0.83012 0.87863 0.0
H439 H 0.02828 0.77959 0.78393 0.0
H440 H 0.0094 0.87479 0.58512 0.0
H441 H 0.02448 0.83447 0.64432 0.0
loop_
_geom_bond_atom_site_label_1
_geom_bond_atom_site_label_2
_geom_bond_distance
_geom_bond_site_symmetry_2
_ccdc_geom_bond_type
H0 C3 0.931 . S
H1 C6 0.928 . S
H2 C8 0.930 . S
C3 H0 0.931 . S
C3 C4 1.413 1_554 S
C3 C5 1.360 . S
C4 C3 1.413 1_556 S
C4 C8 1.429 . S
C5 C3 1.360 . S
C5 C6 1.372 . S
C6 H1 0.928 . S
C6 C5 1.372 . S
C6 C7 1.404 . S
C7 C6 1.404 . S
C7 C8 1.391 1_554 S
C8 H2 0.930 . S
C8 C4 1.429 . S
C8 C7 1.391 1_556 S
H9 C12 0.931 . S
H10 C15 0.928 . S
H11 C17 0.930 . S
C12 H9 0.931 . S
C12 C13 1.413 . S
C12 C14 1.360 . S
C13 C12 1.413 . S
C13 C17 1.429 . S
C14 C12 1.360 . S
C14 C15 1.372 . S
C15 H10 0.928 . S
C15 C14 1.372 . S
C15 C16 1.404 . S
C16 C15 1.404 . S
C16 C17 1.391 . S
C17 H11 0.930 . S
C17 C13 1.429 . S
C17 C16 1.391 . S
H18 C21 0.931 . S
H19 C24 0.928 . S
H20 C26 0.930 . S
C21 H18 0.931 . S
C21 C22 1.413 1_554 S
C21 C23 1.360 . S
C22 C21 1.413 1_556 S
C22 C26 1.429 . S
C23 C21 1.360 . S
C23 C24 1.372 . S
C24 H19 0.928 . S
C24 C23 1.372 . S
C24 C25 1.404 . S
C25 C24 1.404 . S
C25 C26 1.391 1_554 S
C26 H20 0.930 . S
C26 C22 1.429 . S
C26 C25 1.391 1_556 S
H27 C30 0.931 . S
H28 C33 0.928 . S
H29 C35 0.930 . S
C30 H27 0.931 . S
C30 C31 1.413 . S
C30 C32 1.360 . S
C31 C30 1.413 . S
C31 C35 1.429 . S
C32 C30 1.360 . S
C32 C33 1.372 . S
C33 H28 0.928 . S
C33 C32 1.372 . S
C33 C34 1.404 . S
C34 C33 1.404 . S
C34 C35 1.391 . S
C35 H29 0.930 . S
C35 C31 1.429 . S
C35 C34 1.391 . S
O36 Zn37 1.953 1_565 S
O36 C52 1.225 . S
Zn37 O36 1.953 1_545 S
Zn37 O38 1.949 1_655 S
Zn37 O44 1.919 . S
Zn37 O49 1.924 . S
O38 Zn37 1.949 1_455 S
O38 Zn39 1.923 . S
O38 Zn40 1.950 1_445 S
O38 Zn41 1.945 . S
Zn39 O38 1.923 . S
Zn39 O42 1.933 . S
Zn39 O45 1.941 . S
Zn39 O46 1.965 1_545 S
Zn40 O38 1.950 1_665 S
Zn40 O47 1.938 1_655 S
Zn40 O48 1.906 1_655 S
Zn40 O58 1.953 . S
Zn41 O38 1.945 . S
Zn41 O43 1.932 . S
Zn41 O50 1.977 1_545 S
Zn41 O51 1.910 1_455 S
O42 Zn39 1.933 . S
O42 C53 1.226 . S
O43 Zn41 1.932 . S
O43 C53 1.307 . S
O44 Zn37 1.919 . S
O44 C55 1.253 . S
O45 Zn39 1.941 . S
O45 C55 1.283 1_455 S
O46 Zn39 1.965 1_565 S
O46 C54 1.303 . S
O47 Zn40 1.938 1_455 S
O47 C54 1.247 . S
O48 Zn40 1.906 1_455 S
O48 C56 1.304 . S
O49 Zn37 1.924 . S
O49 C57 1.311 . S
O50 Zn41 1.977 1_565 S
O50 C56 1.272 . S
O51 Zn41 1.910 1_655 S
O51 C57 1.231 . S
C52 O36 1.225 . S
C52 O58 1.298 . S
C53 O42 1.226 . S
C53 O43 1.307 . S
C54 O46 1.303 . S
C54 O47 1.247 . S
C55 O44 1.253 . S
C55 O45 1.283 1_655 S
C56 O48 1.304 . S
C56 O50 1.272 . S
C57 O49 1.311 . S
C57 O51 1.231 . S
O58 Zn40 1.953 . S
O58 C52 1.298 . S
O59 Zn60 1.953 . S
O59 C75 1.225 1_556 S
Zn60 O59 1.953 . S
Zn60 O61 1.949 1_556 S
Zn60 O67 1.919 . S
Zn60 O72 1.924 1_556 S
O61 Zn60 1.949 1_554 S
O61 Zn62 1.923 1_554 S
O61 Zn63 1.950 . S
O61 Zn64 1.945 . S
Zn62 O61 1.923 1_556 S
Zn62 O65 1.933 . S
Zn62 O68 1.941 . S
Zn62 O69 1.965 . S
Zn63 O61 1.950 . S
Zn63 O70 1.938 1_554 S
Zn63 O71 1.906 . S
Zn63 O81 1.953 . S
Zn64 O61 1.945 . S
Zn64 O66 1.932 . S
Zn64 O73 1.977 . S
Zn64 O74 1.910 . S
O65 Zn62 1.933 . S
O65 C76 1.226 1_556 S
O66 Zn64 1.932 . S
O66 C76 1.307 . S
O67 Zn60 1.919 . S
O67 C78 1.253 . S
O68 Zn62 1.941 . S
O68 C78 1.283 . S
O69 Zn62 1.965 . S
O69 C77 1.303 . S
O70 Zn63 1.938 1_556 S
O70 C77 1.247 . S
O71 Zn63 1.906 . S
O71 C79 1.304 . S
O72 Zn60 1.924 1_554 S
O72 C80 1.311 . S
O73 Zn64 1.977 . S
O73 C79 1.272 . S
O74 Zn64 1.910 . S
O74 C80 1.231 . S
C75 O59 1.225 1_554 S
C75 O81 1.298 . S
C76 O65 1.226 1_554 S
C76 O66 1.307 . S
C77 O69 1.303 . S
C77 O70 1.247 . S
C78 O67 1.253 . S
C78 O68 1.283 . S
C79 O71 1.304 . S
C79 O73 1.272 . S
C80 O72 1.311 . S
C80 O74 1.231 . S
O81 Zn63 1.953 . S
O81 C75 1.298 . S
C82 C83 1.349 . S
C82 C84 1.327 . S
C82 H107 0.950 . S
C83 C82 1.349 . S
C83 C99 1.349 . S
C84 C82 1.327 . S
C84 C103 1.429 . S
C84 H108 0.950 . S
C85 C102 1.574 . S
C85 C104 1.368 . S
C85 H109 0.949 . S
H86 C90 0.949 . S
C87 C88 1.349 . S
C87 C89 1.327 . S
C87 H110 0.950 . S
C88 C87 1.349 . S
C88 C100 1.349 . S
C89 C87 1.327 . S
C89 C105 1.429 . S
C89 H111 0.950 . S
C90 H86 0.949 . S
C90 C98 1.574 . S
C90 C106 1.368 . S
H91 C99 0.950 . S
H92 C97 0.950 . S
H93 C98 0.949 . S
H94 C100 0.950 . S
H95 C101 0.950 . S
H96 C102 0.949 . S
C97 H92 0.950 . S
C97 C99 1.327 . S
C97 C103 1.429 . S
C98 C90 1.574 . S
C98 H93 0.949 . S
C98 C104 1.368 . S
C99 C83 1.349 . S
C99 H91 0.950 . S
C99 C97 1.327 . S
C100 C88 1.349 . S
C100 H94 0.950 . S
C100 C101 1.327 . S
C101 H95 0.950 . S
C101 C100 1.327 . S
C101 C105 1.429 . S
C102 C85 1.574 . S
C102 H96 0.949 . S
C102 C106 1.368 . S
C103 C84 1.429 . S
C103 C97 1.429 . S
C103 C104 1.523 . S
C104 C85 1.368 . S
C104 C98 1.368 . S
C104 C103 1.523 . S
C105 C89 1.429 . S
C105 C101 1.429 . S
C105 C106 1.523 . S
C106 C90 1.368 . S
C106 C102 1.368 . S
C106 C105 1.523 . S
H107 C82 0.950 . S
H108 C84 0.950 . S
H109 C85 0.949 . S
H110 C87 0.950 . S
H111 C89 0.950 . S
C112 C113 1.349 . S
C112 C114 1.327 . S
C112 H137 0.950 . S
C113 C112 1.349 . S
C113 C129 1.349 1_554 S
C114 C112 1.327 . S
C114 C133 1.429 . S
C114 H138 0.950 . S
C115 C132 1.574 . S
C115 C134 1.368 1_556 S
C115 H139 0.949 . S
H116 C120 0.949 . S
C117 C118 1.349 1_556 S
C117 C119 1.327 . S
C117 H140 0.950 . S
C118 C117 1.349 1_554 S
C118 C130 1.349 . S
C119 C117 1.327 . S
C119 C135 1.429 1_556 S
C119 H141 0.950 . S
C120 H116 0.949 . S
C120 C128 1.574 . S
C120 C136 1.368 . S
H121 C129 0.950 . S
H122 C127 0.950 . S
H123 C128 0.949 . S
H124 C130 0.950 . S
H125 C131 0.950 . S
H126 C132 0.949 . S
C127 H122 0.950 . S
C127 C129 1.327 . S
C127 C133 1.429 1_556 S
C128 C120 1.574 . S
C128 H123 0.949 . S
C128 C134 1.368 . S
C129 C113 1.349 1_556 S
C129 H121 0.950 . S
C129 C127 1.327 . S
C130 C118 1.349 . S
C130 H124 0.950 . S
C130 C131 1.327 . S
C131 H125 0.950 . S
C131 C130 1.327 . S
C131 C135 1.429 . S
C132 C115 1.574 . S
C132 H126 0.949 . S
C132 C136 1.368 1_556 S
C133 C114 1.429 . S
C133 C127 1.429 1_554 S
C133 C134 1.523 . S
C134 C115 1.368 1_554 S
C134 C128 1.368 . S
C134 C133 1.523 . S
C135 C119 1.429 1_554 S
C135 C131 1.429 . S
C135 C136 1.523 . S
C136 C120 1.368 . S
C136 C132 1.368 1_554 S
C136 C135 1.523 . S
H137 C112 0.950 . S
H138 C114 0.950 . S
H139 C115 0.949 . S
H140 C117 0.950 . S
H141 C119 0.950 . S
C142 C143 1.349 . S
C142 C144 1.327 . S
C142 H167 0.950 . S
C143 C142 1.349 . S
C143 C159 1.349 . S
C144 C142 1.327 . S
C144 C163 1.429 . S
C144 H168 0.950 . S
C145 C162 1.574 . S
C145 C164 1.368 . S
C145 H169 0.949 . S
H146 C150 0.949 . S
C147 C148 1.349 . S
C147 C149 1.327 . S
C147 H170 0.950 . S
C148 C147 1.349 . S
C148 C160 1.349 . S
C149 C147 1.327 . S
C149 C165 1.429 . S
C149 H171 0.950 . S
C150 H146 0.949 . S
C150 C158 1.574 . S
C150 C166 1.368 . S
H151 C159 0.950 . S
H152 C157 0.950 . S
H153 C158 0.949 . S
H154 C160 0.950 . S
H155 C161 0.950 . S
H156 C162 0.949 . S
C157 H152 0.950 . S
C157 C159 1.327 . S
C157 C163 1.429 . S
C158 C150 1.574 . S
C158 H153 0.949 . S
C158 C164 1.368 . S
C159 C143 1.349 . S
C159 H151 0.950 . S
C159 C157 1.327 . S
C160 C148 1.349 . S
C160 H154 0.950 . S
C160 C161 1.327 . S
C161 H155 0.950 . S
C161 C160 1.327 . S
C161 C165 1.429 . S
C162 C145 1.574 . S
C162 H156 0.949 . S
C162 C166 1.368 . S
C163 C144 1.429 . S
C163 C157 1.429 . S
C163 C164 1.523 . S
C164 C145 1.368 . S
C164 C158 1.368 . S
C164 C163 1.523 . S
C165 C149 1.429 . S
C165 C161 1.429 . S
C165 C166 1.523 . S
C166 C150 1.368 . S
C166 C162 1.368 . S
C166 C165 1.523 . S
H167 C142 0.950 . S
H168 C144 0.950 . S
H169 C145 0.949 . S
H170 C147 0.950 . S
H171 C149 0.950 . S
C172 C173 1.349 1_556 S
C172 C174 1.327 . S
C172 H197 0.950 . S
C173 C172 1.349 1_554 S
C173 C189 1.349 . S
C174 C172 1.327 . S
C174 C193 1.429 1_556 S
C174 H198 0.950 . S
C175 C192 1.574 . S
C175 C194 1.368 . S
C175 H199 0.949 . S
H176 C180 0.949 . S
C177 C178 1.349 . S
C177 C179 1.327 . S
C177 H200 0.950 . S
C178 C177 1.349 . S
C178 C190 1.349 1_554 S
C179 C177 1.327 . S
C179 C195 1.429 . S
C179 H201 0.950 . S
C180 H176 0.949 . S
C180 C188 1.574 . S
C180 C196 1.368 1_556 S
H181 C189 0.950 . S
H182 C187 0.950 . S
H183 C188 0.949 . S
H184 C190 0.950 . S
H185 C191 0.950 . S
H186 C192 0.949 . S
C187 H182 0.950 . S
C187 C189 1.327 . S
C187 C193 1.429 . S
C188 C180 1.574 . S
C188 H183 0.949 . S
C188 C194 1.368 1_556 S
C189 C173 1.349 . S
C189 H181 0.950 . S
C189 C187 1.327 . S
C190 C178 1.349 1_556 S
C190 H184 0.950 . S
C190 C191 1.327 . S
C191 H185 0.950 . S
C191 C190 1.327 . S
C191 C195 1.429 1_556 S
C192 C175 1.574 . S
C192 H186 0.949 . S
C192 C196 1.368 . S
C193 C174 1.429 1_554 S
C193 C187 1.429 . S
C193 C194 1.523 . S
C194 C175 1.368 . S
C194 C188 1.368 1_554 S
C194 C193 1.523 . S
C195 C179 1.429 . S
C195 C191 1.429 1_554 S
C195 C196 1.523 . S
C196 C180 1.368 1_554 S
C196 C192 1.368 . S
C196 C195 1.523 . S
H197 C172 0.950 . S
H198 C174 0.950 . S
H199 C175 0.949 . S
H200 C177 0.950 . S
H201 C179 0.950 . S
C202 C203 1.349 . S
C202 C204 1.327 . S
C202 H227 0.950 . S
C203 C202 1.349 . S
C203 C219 1.349 . S
C204 C202 1.327 . S
C204 C223 1.429 . S
C204 H228 0.950 . S
C205 C222 1.574 . S
C205 C224 1.368 . S
C205 H229 0.949 . S
H206 C210 0.949 . S
C207 C208 1.349 . S
C207 C209 1.327 . S
C207 H230 0.950 . S
C208 C207 1.349 . S
C208 C220 1.349 . S
C209 C207 1.327 . S
C209 C225 1.429 . S
C209 H231 0.950 . S
C210 H206 0.949 . S
C210 C218 1.574 . S
C210 C226 1.368 . S
H211 C219 0.950 . S
H212 C217 0.950 . S
H213 C218 0.949 . S
H214 C220 0.950 . S
H215 C221 0.950 . S
H216 C222 0.949 . S
C217 H212 0.950 . S
C217 C219 1.327 . S
C217 C223 1.429 . S
C218 C210 1.574 . S
C218 H213 0.949 . S
C218 C224 1.368 . S
C219 C203 1.349 . S
C219 H211 0.950 . S
C219 C217 1.327 . S
C220 C208 1.349 . S
C220 H214 0.950 . S
C220 C221 1.327 . S
C221 H215 0.950 . S
C221 C220 1.327 . S
C221 C225 1.429 . S
C222 C205 1.574 . S
C222 H216 0.949 . S
C222 C226 1.368 . S
C223 C204 1.429 . S
C223 C217 1.429 . S
C223 C224 1.523 . S
C224 C205 1.368 . S
C224 C218 1.368 . S
C224 C223 1.523 . S
C225 C209 1.429 . S
C225 C221 1.429 . S
C225 C226 1.523 . S
C226 C210 1.368 . S
C226 C222 1.368 . S
C226 C225 1.523 . S
H227 C202 0.950 . S
H228 C204 0.950 . S
H229 C205 0.949 . S
H230 C207 0.950 . S
H231 C209 0.950 . S
C232 C233 1.349 . S
C232 C234 1.327 . S
C232 H257 0.950 . S
C233 C232 1.349 . S
C233 C249 1.349 . S
C234 C232 1.327 . S
C234 C253 1.429 . S
C234 H258 0.950 . S
C235 C252 1.574 . S
C235 C254 1.368 . S
C235 H259 0.949 . S
H236 C240 0.949 . S
C237 C238 1.349 . S
C237 C239 1.327 . S
C237 H260 0.950 . S
C238 C237 1.349 . S
C238 C250 1.349 . S
C239 C237 1.327 . S
C239 C255 1.429 . S
C239 H261 0.950 . S
C240 H236 0.949 . S
C240 C248 1.574 . S
C240 C256 1.368 . S
H241 C249 0.950 . S
H242 C247 0.950 . S
H243 C248 0.949 . S
H244 C250 0.950 . S
H245 C251 0.950 . S
H246 C252 0.949 . S
C247 H242 0.950 . S
C247 C249 1.327 . S
C247 C253 1.429 . S
C248 C240 1.574 . S
C248 H243 0.949 . S
C248 C254 1.368 . S
C249 C233 1.349 . S
C249 H241 0.950 . S
C249 C247 1.327 . S
C250 C238 1.349 . S
C250 H244 0.950 . S
C250 C251 1.327 . S
C251 H245 0.950 . S
C251 C250 1.327 . S
C251 C255 1.429 . S
C252 C235 1.574 . S
C252 H246 0.949 . S
C252 C256 1.368 . S
C253 C234 1.429 . S
C253 C247 1.429 . S
C253 C254 1.523 . S
C254 C235 1.368 . S
C254 C248 1.368 . S
C254 C253 1.523 . S
C255 C239 1.429 . S
C255 C251 1.429 . S
C255 C256 1.523 . S
C256 C240 1.368 . S
C256 C252 1.368 . S
C256 C255 1.523 . S
H257 C232 0.950 . S
H258 C234 0.950 . S
H259 C235 0.949 . S
H260 C237 0.950 . S
H261 C239 0.950 . S
C262 C263 1.349 . S
C262 C264 1.327 . S
C262 H287 0.950 . S
C263 C262 1.349 . S
C263 C279 1.349 . S
C264 C262 1.327 . S
C264 C283 1.429 . S
C264 H288 0.950 . S
C265 C282 1.574 . S
C265 C284 1.368 . S
C265 H289 0.949 . S
H266 C270 0.949 . S
C267 C268 1.349 . S
C267 C269 1.327 . S
C267 H290 0.950 . S
C268 C267 1.349 . S
C268 C280 1.349 . S
C269 C267 1.327 . S
C269 C285 1.429 . S
C269 H291 0.950 . S
C270 H266 0.949 . S
C270 C278 1.574 . S
C270 C286 1.368 . S
H271 C279 0.950 . S
H272 C277 0.950 . S
H273 C278 0.949 . S
H274 C280 0.950 . S
H275 C281 0.950 . S
H276 C282 0.949 . S
C277 H272 0.950 . S
C277 C279 1.327 . S
C277 C283 1.429 . S
C278 C270 1.574 . S
C278 H273 0.949 . S
C278 C284 1.368 . S
C279 C263 1.349 . S
C279 H271 0.950 . S
C279 C277 1.327 . S
C280 C268 1.349 . S
C280 H274 0.950 . S
C280 C281 1.327 . S
C281 H275 0.950 . S
C281 C280 1.327 . S
C281 C285 1.429 . S
C282 C265 1.574 . S
C282 H276 0.949 . S
C282 C286 1.368 . S
C283 C264 1.429 . S
C283 C277 1.429 . S
C283 C284 1.523 . S
C284 C265 1.368 . S
C284 C278 1.368 . S
C284 C283 1.523 . S
C285 C269 1.429 . S
C285 C281 1.429 . S
C285 C286 1.523 . S
C286 C270 1.368 . S
C286 C282 1.368 . S
C286 C285 1.523 . S
H287 C262 0.950 . S
H288 C264 0.950 . S
H289 C265 0.949 . S
H290 C267 0.950 . S
H291 C269 0.950 . S
C292 C293 1.349 . S
C292 C294 1.327 . S
C292 H317 0.950 . S
C293 C292 1.349 . S
C293 C309 1.349 . S
C294 C292 1.327 . S
C294 C313 1.429 . S
C294 H318 0.950 . S
C295 C312 1.574 . S
C295 C314 1.368 . S
C295 H319 0.949 . S
H296 C300 0.949 . S
C297 C298 1.349 . S
C297 C299 1.327 . S
C297 H320 0.950 . S
C298 C297 1.349 . S
C298 C310 1.349 . S
C299 C297 1.327 . S
C299 C315 1.429 . S
C299 H321 0.950 . S
C300 H296 0.949 . S
C300 C308 1.574 . S
C300 C316 1.368 . S
H301 C309 0.950 . S
H302 C307 0.950 . S
H303 C308 0.949 . S
H304 C310 0.950 . S
H305 C311 0.950 . S
H306 C312 0.949 . S
C307 H302 0.950 . S
C307 C309 1.327 . S
C307 C313 1.429 . S
C308 C300 1.574 . S
C308 H303 0.949 . S
C308 C314 1.368 . S
C309 C293 1.349 . S
C309 H301 0.950 . S
C309 C307 1.327 . S
C310 C298 1.349 . S
C310 H304 0.950 . S
C310 C311 1.327 . S
C311 H305 0.950 . S
C311 C310 1.327 . S
C311 C315 1.429 . S
C312 C295 1.574 . S
C312 H306 0.949 . S
C312 C316 1.368 . S
C313 C294 1.429 . S
C313 C307 1.429 . S
C313 C314 1.523 . S
C314 C295 1.368 . S
C314 C308 1.368 . S
C314 C313 1.523 . S
C315 C299 1.429 . S
C315 C311 1.429 . S
C315 C316 1.523 . S
C316 C300 1.368 . S
C316 C312 1.368 . S
C316 C315 1.523 . S
H317 C292 0.950 . S
H318 C294 0.950 . S
H319 C295 0.949 . S
H320 C297 0.950 . S
H321 C299 0.950 . S
C322 C323 1.349 . S
C322 C324 1.327 . S
C322 H347 0.950 . S
C323 C322 1.349 . S
C323 C339 1.349 . S
C324 C322 1.327 . S
C324 C343 1.429 . S
C324 H348 0.950 . S
C325 C342 1.574 . S
C325 C344 1.368 . S
C325 H349 0.949 . S
H326 C330 0.949 . S
C327 C328 1.349 . S
C327 C329 1.327 . S
C327 H350 0.950 . S
C328 C327 1.349 . S
C328 C340 1.349 . S
C329 C327 1.327 . S
C329 C345 1.429 . S
C329 H351 0.950 . S
C330 H326 0.949 . S
C330 C338 1.574 . S
C330 C346 1.368 . S
H331 C339 0.950 . S
H332 C337 0.950 . S
H333 C338 0.949 . S
H334 C340 0.950 . S
H335 C341 0.950 . S
H336 C342 0.949 . S
C337 H332 0.950 . S
C337 C339 1.327 . S
C337 C343 1.429 . S
C338 C330 1.574 . S
C338 H333 0.949 . S
C338 C344 1.368 . S
C339 C323 1.349 . S
C339 H331 0.950 . S
C339 C337 1.327 . S
C340 C328 1.349 . S
C340 H334 0.950 . S
C340 C341 1.327 . S
C341 H335 0.950 . S
C341 C340 1.327 . S
C341 C345 1.429 . S
C342 C325 1.574 . S
C342 H336 0.949 . S
C342 C346 1.368 . S
C343 C324 1.429 . S
C343 C337 1.429 . S
C343 C344 1.523 . S
C344 C325 1.368 . S
C344 C338 1.368 . S
C344 C343 1.523 . S
C345 C329 1.429 . S
C345 C341 1.429 . S
C345 C346 1.523 . S
C346 C330 1.368 . S
C346 C342 1.368 . S
C346 C345 1.523 . S
H347 C322 0.950 . S
H348 C324 0.950 . S
H349 C325 0.949 . S
H350 C327 0.950 . S
H351 C329 0.950 . S
C352 C353 1.349 . S
C352 C354 1.327 . S
C352 H377 0.950 . S
C353 C352 1.349 . S
C353 C369 1.349 . S
C354 C352 1.327 . S
C354 C373 1.429 . S
C354 H378 0.950 . S
C355 C372 1.574 . S
C355 C374 1.368 . S
C355 H379 0.949 . S
H356 C360 0.949 . S
C357 C358 1.349 1_455 S
C357 C359 1.327 1_455 S
C357 H380 0.950 . S
C358 C357 1.349 1_655 S
C358 C370 1.349 . S
C359 C357 1.327 1_655 S
C359 C375 1.429 . S
C359 H381 0.950 1_655 S
C360 H356 0.949 . S
C360 C368 1.574 . S
C360 C376 1.368 . S
H361 C369 0.950 . S
H362 C367 0.950 . S
H363 C368 0.949 . S
H364 C370 0.950 . S
H365 C371 0.950 . S
H366 C372 0.949 . S
C367 H362 0.950 . S
C367 C369 1.327 . S
C367 C373 1.429 . S
C368 C360 1.574 . S
C368 H363 0.949 . S
C368 C374 1.368 . S
C369 C353 1.349 . S
C369 H361 0.950 . S
C369 C367 1.327 . S
C370 C358 1.349 . S
C370 H364 0.950 . S
C370 C371 1.327 . S
C371 H365 0.950 . S
C371 C370 1.327 . S
C371 C375 1.429 . S
C372 C355 1.574 . S
C372 H366 0.949 . S
C372 C376 1.368 . S
C373 C354 1.429 . S
C373 C367 1.429 . S
C373 C374 1.523 . S
C374 C355 1.368 . S
C374 C368 1.368 . S
C374 C373 1.523 . S
C375 C359 1.429 . S
C375 C371 1.429 . S
C375 C376 1.523 . S
C376 C360 1.368 . S
C376 C372 1.368 . S
C376 C375 1.523 . S
H377 C352 0.950 . S
H378 C354 0.950 . S
H379 C355 0.949 . S
H380 C357 0.950 . S
H381 C359 0.950 1_455 S
C382 C383 1.349 . S
C382 C384 1.327 . S
C382 H407 0.950 . S
C383 C382 1.349 . S
C383 C399 1.349 . S
C384 C382 1.327 . S
C384 C403 1.429 . S
C384 H408 0.950 . S
C385 C402 1.574 . S
C385 C404 1.368 . S
C385 H409 0.949 . S
H386 C390 0.949 . S
C387 C388 1.349 . S
C387 C389 1.327 . S
C387 H410 0.950 . S
C388 C387 1.349 . S
C388 C400 1.349 . S
C389 C387 1.327 . S
C389 C405 1.429 . S
C389 H411 0.950 . S
C390 H386 0.949 . S
C390 C398 1.574 . S
C390 C406 1.368 . S
H391 C399 0.950 . S
H392 C397 0.950 . S
H393 C398 0.949 . S
H394 C400 0.950 . S
H395 C401 0.950 . S
H396 C402 0.949 . S
C397 H392 0.950 . S
C397 C399 1.327 . S
C397 C403 1.429 . S
C398 C390 1.574 . S
C398 H393 0.949 . S
C398 C404 1.368 . S
C399 C383 1.349 . S
C399 H391 0.950 . S
C399 C397 1.327 . S
C400 C388 1.349 . S
C400 H394 0.950 . S
C400 C401 1.327 . S
C401 H395 0.950 . S
C401 C400 1.327 . S
C401 C405 1.429 . S
C402 C385 1.574 . S
C402 H396 0.949 . S
C402 C406 1.368 . S
C403 C384 1.429 . S
C403 C397 1.429 . S
C403 C404 1.523 . S
C404 C385 1.368 . S
C404 C398 1.368 . S
C404 C403 1.523 . S
C405 C389 1.429 . S
C405 C401 1.429 . S
C405 C406 1.523 . S
C406 C390 1.368 . S
C406 C402 1.368 . S
C406 C405 1.523 . S
H407 C382 0.950 . S
H408 C384 0.950 . S
H409 C385 0.949 . S
H410 C387 0.950 . S
H411 C389 0.950 . S
C412 C413 1.349 . S
C412 C414 1.327 . S
C412 H437 0.950 . S
C413 C412 1.349 . S
C413 C429 1.349 . S
C414 C412 1.327 . S
C414 C433 1.429 . S
C414 H438 0.950 . S
C415 C432 1.574 . S
C415 C434 1.368 . S
C415 H439 0.949 . S
H416 C420 0.949 . S
C417 C418 1.349 . S
C417 C419 1.327 . S
C417 H440 0.950 1_455 S
C418 C417 1.349 . S
C418 C430 1.349 . S
C419 C417 1.327 . S
C419 C435 1.429 . S
C419 H441 0.950 . S
C420 H416 0.949 . S
C420 C428 1.574 . S
C420 C436 1.368 . S
H421 C429 0.950 . S
H422 C427 0.950 . S
H423 C428 0.949 . S
H424 C430 0.950 . S
H425 C431 0.950 . S
H426 C432 0.949 . S
C427 H422 0.950 . S
C427 C429 1.327 . S
C427 C433 1.429 . S
C428 C420 1.574 . S
C428 H423 0.949 . S
C428 C434 1.368 . S
C429 C413 1.349 . S
C429 H421 0.950 . S
C429 C427 1.327 . S
C430 C418 1.349 . S
C430 H424 0.950 . S
C430 C431 1.327 . S
C431 H425 0.950 . S
C431 C430 1.327 . S
C431 C435 1.429 . S
C432 C415 1.574 . S
C432 H426 0.949 . S
C432 C436 1.368 . S
C433 C414 1.429 . S
C433 C427 1.429 . S
C433 C434 1.523 . S
C434 C415 1.368 . S
C434 C428 1.368 . S
C434 C433 1.523 . S
C435 C419 1.429 . S
C435 C431 1.429 . S
C435 C436 1.523 . S
C436 C420 1.368 . S
C436 C432 1.368 . S
C436 C435 1.523 . S
H437 C412 0.950 . S
H438 C414 0.950 . S
H439 C415 0.949 . S
H440 C417 0.950 1_655 S
H441 C419 0.950 . S
C88 C53 1.525 . S
C83 C34 1.513 . S
C113 C7 1.509 . S
C118 C76 1.525 . S
C143 C16 1.531 . S
C148 C52 1.547 . S
C173 C25 1.531 . S
C178 C75 1.547 . S
C208 C56 1.466 . S
C203 C5 1.494 . S
C238 C78 1.502 . S
C233 C13 1.541 . S
C263 C23 1.506 . S
C268 C57 1.481 . S
C293 C32 1.527 . S
C298 C77 1.496 . S
C328 C80 1.478 . S
C323 C14 1.504 . S
C358 C55 1.500 . S
C353 C22 1.538 . S
C388 C79 1.464 . S
C383 C31 1.497 . S
C413 C4 1.521 . S
C418 C54 1.494 . S
