# Generated by pormake.
# Topology pyr, (3,6)-cn, num edge types: 1
# Building blocks:
#     Node 0, Type 0, BuildingBlock: CUQRIR_clean_linker_1, # of connection points: 3
#     Node 1, Type 0, BuildingBlock: CUQRIR_clean_linker_1, # of connection points: 3
#     Node 2, Type 0, BuildingBlock: CUQRIR_clean_linker_1, # of connection points: 3
#     Node 3, Type 0, BuildingBlock: CUQRIR_clean_linker_1, # of connection points: 3
#     Node 4, Type 0, BuildingBlock: CUQRIR_clean_linker_1, # of connection points: 3
#     Node 5, Type 0, BuildingBlock: CUQRIR_clean_linker_1, # of connection points: 3
#     Node 6, Type 0, BuildingBlock: CUQRIR_clean_linker_1, # of connection points: 3
#     Node 7, Type 0, BuildingBlock: CUQRIR_clean_linker_1, # of connection points: 3
#     Node 8, Type 1, BuildingBlock: MIFKUJ_clean_sbu_0, # of connection points: 6
#     Node 9, Type 1, BuildingBlock: MIFKUJ_clean_sbu_0, # of connection points: 6
#     Node 10, Type 1, BuildingBlock: MIFKUJ_clean_sbu_0, # of connection points: 6
#     Node 11, Type 1, BuildingBlock: MIFKUJ_clean_sbu_0, # of connection points: 6
#     Edge 12, Type (0, 1), BuildingBlock: MIFKUJ_clean_linker_0, # of connection points: 2
#     Edge 13, Type (0, 1), BuildingBlock: MIFKUJ_clean_linker_0, # of connection points: 2
#     Edge 14, Type (0, 1), BuildingBlock: MIFKUJ_clean_linker_0, # of connection points: 2
#     Edge 15, Type (0, 1), BuildingBlock: MIFKUJ_clean_linker_0, # of connection points: 2
#     Edge 16, Type (0, 1), BuildingBlock: MIFKUJ_clean_linker_0, # of connection points: 2
#     Edge 17, Type (0, 1), BuildingBlock: MIFKUJ_clean_linker_0, # of connection points: 2
#     Edge 18, Type (0, 1), BuildingBlock: MIFKUJ_clean_linker_0, # of connection points: 2
#     Edge 19, Type (0, 1), BuildingBlock: MIFKUJ_clean_linker_0, # of connection points: 2
#     Edge 20, Type (0, 1), BuildingBlock: MIFKUJ_clean_linker_0, # of connection points: 2
#     Edge 21, Type (0, 1), BuildingBlock: MIFKUJ_clean_linker_0, # of connection points: 2
#     Edge 22, Type (0, 1), BuildingBlock: MIFKUJ_clean_linker_0, # of connection points: 2
#     Edge 23, Type (0, 1), BuildingBlock: MIFKUJ_clean_linker_0, # of connection points: 2
#     Edge 24, Type (0, 1), BuildingBlock: MIFKUJ_clean_linker_0, # of connection points: 2
#     Edge 25, Type (0, 1), BuildingBlock: MIFKUJ_clean_linker_0, # of connection points: 2
#     Edge 26, Type (0, 1), BuildingBlock: MIFKUJ_clean_linker_0, # of connection points: 2
#     Edge 27, Type (0, 1), BuildingBlock: MIFKUJ_clean_linker_0, # of connection points: 2
#     Edge 28, Type (0, 1), BuildingBlock: MIFKUJ_clean_linker_0, # of connection points: 2
#     Edge 29, Type (0, 1), BuildingBlock: MIFKUJ_clean_linker_0, # of connection points: 2
#     Edge 30, Type (0, 1), BuildingBlock: MIFKUJ_clean_linker_0, # of connection points: 2
#     Edge 31, Type (0, 1), BuildingBlock: MIFKUJ_clean_linker_0, # of connection points: 2
#     Edge 32, Type (0, 1), BuildingBlock: MIFKUJ_clean_linker_0, # of connection points: 2
#     Edge 33, Type (0, 1), BuildingBlock: MIFKUJ_clean_linker_0, # of connection points: 2
#     Edge 34, Type (0, 1), BuildingBlock: MIFKUJ_clean_linker_0, # of connection points: 2
#     Edge 35, Type (0, 1), BuildingBlock: MIFKUJ_clean_linker_0, # of connection points: 2
# Relax obj value: 0.092
# Max RMSD: 0.222
# Mean RMSD: 0.153
data_MOF--net-pyr--node1-MIFKUJ_clean_sbu_0--node2-CUQRIR_clean_linker_1--edge1-MIFKUJ_clean_linker_0
_symmetry_space_group_name_H-M    P1
_symmetry_Int_Tables_number       1
_symmetry_cell_setting            triclinic
loop_
_symmetry_equiv_pos_as_xyz
'x, y, z'
_cell_length_a     48.018033
_cell_length_b     43.222817
_cell_length_c     45.65223
_cell_angle_alpha  84.094917
_cell_angle_beta   90.151389
_cell_angle_gamma 99.756905
loop_
_atom_site_label
_atom_site_type_symbol
_atom_site_fract_x
_atom_site_fract_y
_atom_site_fract_z
_atom_type_partial_charge
C0 C 0.20453 0.22986 0.21502 0.0
N1 N 0.21987 0.20635 0.21987 0.0
N2 N 0.21033 0.24559 0.18796 0.0
C3 C 0.1813 0.23448 0.23532 0.0
C4 C 0.22951 0.23051 0.17634 0.0
N5 N 0.23517 0.20644 0.19564 0.0
C6 C 0.2431 0.23987 0.14638 0.0
H7 H 0.16503 0.21281 0.23753 0.0
H8 H 0.17104 0.25479 0.22736 0.0
H9 H 0.19002 0.23788 0.25752 0.0
H10 H 0.24252 0.26503 0.13903 0.0
H11 H 0.23134 0.22516 0.13034 0.0
H12 H 0.26534 0.23589 0.14659 0.0
C13 C 0.33797 0.82717 0.67139 0.0
N14 N 0.3342 0.85018 0.68841 0.0
N15 N 0.35578 0.80893 0.68448 0.0
C16 C 0.32307 0.82092 0.6429 0.0
C17 C 0.36237 0.8213 0.71019 0.0
N18 N 0.34906 0.84614 0.71268 0.0
C19 C 0.38224 0.80947 0.7326 0.0
H20 H 0.3041 0.80253 0.64777 0.0
H21 H 0.33706 0.81205 0.62761 0.0
H22 H 0.31583 0.84183 0.63151 0.0
H23 H 0.40342 0.82438 0.72924 0.0
H24 H 0.38413 0.78458 0.73047 0.0
H25 H 0.37509 0.81103 0.75534 0.0
C26 C 0.66661 0.33159 0.79977 0.0
N27 N 0.68175 0.32849 0.82463 0.0
N28 N 0.67372 0.361 0.78562 0.0
C29 C 0.64371 0.30648 0.79023 0.0
C30 C 0.69367 0.37575 0.80286 0.0
N31 N 0.69824 0.35607 0.8268 0.0
C32 C 0.70789 0.40967 0.79711 0.0
H33 H 0.6383 0.31148 0.76678 0.0
H34 H 0.62456 0.30531 0.80413 0.0
H35 H 0.65036 0.28305 0.79329 0.0
H36 H 0.69742 0.42419 0.81086 0.0
H37 H 0.70651 0.41913 0.77379 0.0
H38 H 0.73045 0.41214 0.80336 0.0
C39 C 0.81863 0.6519 0.2849 0.0
N40 N 0.84409 0.67033 0.27811 0.0
N41 N 0.80473 0.66414 0.30543 0.0
C42 C 0.8071 0.62203 0.27146 0.0
C43 C 0.82228 0.69084 0.31068 0.0
N44 N 0.84603 0.69493 0.29376 0.0
C45 C 0.81661 0.71261 0.3329 0.0
H46 H 0.78371 0.61797 0.27106 0.0
H47 H 0.8136 0.60168 0.28496 0.0
H48 H 0.81528 0.62287 0.24864 0.0
H49 H 0.83574 0.71882 0.34622 0.0
H50 H 0.7985 0.7022 0.34774 0.0
H51 H 0.8117 0.73475 0.32115 0.0
C52 C 0.80436 0.84094 0.83334 0.0
N53 N 0.82628 0.83933 0.81529 0.0
N54 N 0.79244 0.86649 0.82456 0.0
C55 C 0.79517 0.81799 0.86002 0.0
C56 C 0.808 0.88055 0.80065 0.0
N57 N 0.82888 0.86424 0.79519 0.0
C58 C 0.80292 0.91034 0.7829 0.0
H59 H 0.78502 0.79512 0.85272 0.0
H60 H 0.77984 0.82638 0.87409 0.0
H61 H 0.81388 0.81374 0.87318 0.0
H62 H 0.81616 0.93086 0.79164 0.0
H63 H 0.78054 0.91339 0.78444 0.0
H64 H 0.80878 0.91026 0.75942 0.0
C65 C 0.72456 0.20229 0.38356 0.0
N66 N 0.7298 0.18008 0.36633 0.0
N67 N 0.69912 0.21071 0.37719 0.0
C68 C 0.74332 0.21422 0.40782 0.0
C69 C 0.68921 0.19303 0.35546 0.0
N70 N 0.70758 0.17414 0.34916 0.0
C71 C 0.66229 0.19544 0.33915 0.0
H72 H 0.73104 0.22298 0.42481 0.0
H73 H 0.75963 0.23399 0.3983 0.0
H74 H 0.75423 0.19535 0.4183 0.0
H75 H 0.66502 0.19217 0.31564 0.0
H76 H 0.65563 0.21859 0.3406 0.0
H77 H 0.64539 0.17643 0.34885 0.0
C78 C 0.31511 0.65291 0.21406 0.0
N79 N 0.34012 0.67077 0.22002 0.0
N80 N 0.30021 0.66946 0.19504 0.0
C81 C 0.30481 0.61951 0.22705 0.0
C82 C 0.31672 0.69803 0.18971 0.0
N83 N 0.34081 0.69906 0.20526 0.0
C84 C 0.31046 0.72405 0.16753 0.0
H85 H 0.31292 0.6031 0.21337 0.0
H86 H 0.28139 0.614 0.22727 0.0
H87 H 0.31251 0.61554 0.24984 0.0
H88 H 0.28992 0.71764 0.15664 0.0
H89 H 0.32762 0.72946 0.15063 0.0
H90 H 0.31015 0.74571 0.17854 0.0
C91 C 0.15613 0.33503 0.74947 0.0
N92 N 0.17444 0.33092 0.72827 0.0
N93 N 0.16623 0.36099 0.76307 0.0
C94 C 0.12942 0.31237 0.75837 0.0
C95 C 0.19147 0.37243 0.74941 0.0
N96 N 0.19657 0.35397 0.72846 0.0
C97 C 0.20979 0.40324 0.75449 0.0
H98 H 0.11173 0.31917 0.74489 0.0
H99 H 0.12417 0.31292 0.78194 0.0
H100 H 0.13155 0.28794 0.7545 0.0
H101 H 0.22516 0.3988 0.77196 0.0
H102 H 0.19691 0.42016 0.76174 0.0
H103 H 0.22178 0.41408 0.7342 0.0
Zn104 Zn 0.06955 0.01939 0.53366 0.0
Zn105 Zn 0.00322 0.99209 0.47412 0.0
C106 C 0.09986 0.07794 0.54843 0.0
O107 O 0.1174 0.07088 0.52911 0.0
C108 C 0.97086 0.94428 0.44172 0.0
O109 O 0.95022 0.95867 0.44877 0.0
O110 O 0.10078 0.99623 0.54886 0.0
O111 O 0.03237 0.99308 0.5481 0.0
O112 O 0.99765 0.97734 0.51776 0.0
C113 C 0.1032 0.99138 0.57664 0.0
O114 O 0.08459 1.00001 0.59378 0.0
O115 O 0.07636 0.05959 0.55374 0.0
C116 C 0.97435 0.04294 0.44561 0.0
O117 O 0.99926 0.05606 0.43446 0.0
O118 O 0.97209 0.01755 0.46287 0.0
O119 O 0.04104 0.01717 0.45934 0.0
O120 O 0.07589 0.03119 0.49003 0.0
O121 O 0.99562 0.9536 0.45094 0.0
C122 C 0.0078 0.97815 0.54353 0.0
C123 C 0.0661 0.03064 0.46414 0.0
Zn124 Zn 0.52409 0.99627 0.99664 0.0
Zn125 Zn 0.50834 0.04601 0.07199 0.0
C126 C 0.47872 0.9647 0.9634 0.0
O127 O 0.48079 0.94135 0.98365 0.0
C128 C 0.54852 0.07995 0.1081 0.0
O129 O 0.54047 0.10363 0.09179 0.0
O130 O 0.56005 0.98373 0.98128 0.0
O131 O 0.53106 0.04139 0.00662 0.0
O132 O 0.52596 0.07596 0.03753 0.0
C133 C 0.56266 0.9808 0.95398 0.0
O134 O 0.54266 0.98747 0.93596 0.0
O135 O 0.49453 0.99127 0.96483 0.0
C136 C 0.46734 0.06444 0.11109 0.0
O137 O 0.48694 0.06051 0.13056 0.0
O138 O 0.47118 0.05869 0.08469 0.0
O139 O 0.50373 1.00046 0.06313 0.0
O140 O 0.50918 0.96611 0.03203 0.0
O141 O 0.53715 0.05191 0.1042 0.0
C142 C 0.53529 0.06969 0.01316 0.0
C143 C 0.50105 0.97203 0.05705 0.0
Zn144 Zn 0.50581 0.4769 0.4836 0.0
Zn145 Zn 0.48509 0.52245 0.524 0.0
C146 C 0.54228 0.52052 0.44553 0.0
O147 O 0.52417 0.50688 0.42721 0.0
C148 C 0.44993 0.47878 0.56489 0.0
O149 O 0.46998 0.49047 0.58229 0.0
O150 O 0.51795 0.4408 0.46457 0.0
O151 O 0.50524 0.46251 0.52725 0.0
O152 O 0.52209 0.51044 0.5375 0.0
C153 C 0.54371 0.4388 0.46974 0.0
O154 O 0.55819 0.45836 0.48664 0.0
O155 O 0.53833 0.51288 0.47306 0.0
C156 C 0.45385 0.5658 0.54335 0.0
O157 O 0.43551 0.55 0.5266 0.0
O158 O 0.47846 0.55874 0.54575 0.0
O159 O 0.48178 0.53715 0.48132 0.0
O160 O 0.47145 0.49092 0.46388 0.0
O161 O 0.45215 0.48765 0.5374 0.0
C162 C 0.52133 0.48092 0.54235 0.0
C163 C 0.47078 0.52042 0.46161 0.0
Zn164 Zn 0.98568 0.55097 0.98264 0.0
Zn165 Zn 0.00841 0.50368 0.03084 0.0
C166 C 0.94473 0.51502 0.95006 0.0
O167 O 0.9598 0.53375 0.92928 0.0
C168 C 0.04468 0.54739 0.05884 0.0
O169 O 0.02643 0.53386 0.07962 0.0
O170 O 0.97855 0.58922 0.95609 0.0
O171 O 0.98515 0.56432 0.02363 0.0
O172 O 0.97457 0.51755 0.04894 0.0
C173 C 0.95584 0.59927 0.96136 0.0
O174 O 0.93958 0.58499 0.98353 0.0
O175 O 0.95201 0.51679 0.97674 0.0
C176 C 0.02822 0.44423 0.04834 0.0
O177 O 0.02115 0.43809 0.02149 0.0
O178 O 0.02244 0.46917 0.05772 0.0
O179 O 0.00555 0.48962 0.98994 0.0
O180 O 0.02071 0.537 0.96793 0.0
O181 O 0.04124 0.53922 0.03291 0.0
C182 C 0.97438 0.54714 0.04643 0.0
C183 C 0.0198 0.50734 0.96941 0.0
H184 H 0.18507 0.15146 0.21769 0.0
H185 H 0.16289 0.1172 0.2606 0.0
H186 H 0.21773 0.17204 0.31815 0.0
H187 H 0.2393 0.20678 0.27507 0.0
H188 H 0.20222 0.09644 0.3316 0.0
H189 H 0.16501 0.19566 0.32199 0.0
H190 H 0.14551 0.23929 0.29472 0.0
H191 H 0.08003 0.17262 0.26061 0.0
H192 H 0.099 0.12862 0.28805 0.0
H193 H 0.12113 0.06069 0.46535 0.0
H194 H 0.15122 0.08653 0.42385 0.0
H195 H 0.08338 0.06135 0.36408 0.0
H196 H 0.05293 0.03583 0.40551 0.0
H197 H 0.10738 0.12146 0.35178 0.0
H198 H 0.14069 0.02266 0.36984 0.0
H199 H 0.15931 0.98024 0.39995 0.0
H200 H 0.23317 0.04583 0.41885 0.0
H201 H 0.21479 0.08876 0.38916 0.0
C202 C 0.19315 0.15516 0.23945 0.0
C203 C 0.2141 0.1812 0.2433 0.0
C204 C 0.18036 0.1359 0.2639 0.0
C205 C 0.18867 0.1422 0.29248 0.0
C206 C 0.2112 0.1667 0.29624 0.0
C207 C 0.22365 0.1863 0.27175 0.0
C208 C 0.17152 0.12575 0.31816 0.0
C209 C 0.18162 0.10203 0.3363 0.0
C210 C 0.14452 0.13279 0.32393 0.0
C211 C 0.13357 0.15894 0.30672 0.0
C212 C 0.14658 0.19034 0.30849 0.0
C213 C 0.1355 0.21512 0.29321 0.0
C214 C 0.11161 0.20873 0.27585 0.0
C215 C 0.09859 0.17753 0.27398 0.0
C216 C 0.1094 0.15268 0.2895 0.0
C217 C 0.11256 0.06054 0.4434 0.0
C218 C 0.08454 0.04608 0.43885 0.0
C219 C 0.1299 0.07519 0.41963 0.0
C220 C 0.11972 0.07555 0.39076 0.0
C221 C 0.09175 0.06128 0.38615 0.0
C222 C 0.07436 0.04664 0.40989 0.0
C223 C 0.13785 0.09174 0.36547 0.0
C224 C 0.12793 0.11557 0.34724 0.0
C225 C 0.16504 0.08478 0.35984 0.0
C226 C 0.17624 0.05897 0.3775 0.0
C227 C 0.1608 0.02808 0.38059 0.0
C228 C 0.17133 0.00394 0.39755 0.0
C229 C 0.19737 0.01035 0.41136 0.0
C230 C 0.21298 0.04091 0.40816 0.0
C231 C 0.20254 0.06514 0.39125 0.0
H232 H 0.20548 0.99163 0.42449 0.0
H233 H 0.10318 0.22794 0.26389 0.0
H234 H 0.3311 0.83138 0.76871 0.0
H235 H 0.34809 0.86013 0.81048 0.0
H236 H 0.3931 0.93575 0.75043 0.0
H237 H 0.377 0.90576 0.70878 0.0
H238 H 0.42727 0.91923 0.79009 0.0
H239 H 0.33449 0.94403 0.79534 0.0
H240 H 0.28239 0.93344 0.79661 0.0
H241 H 0.28307 0.87227 0.87682 0.0
H242 H 0.33517 0.88208 0.87581 0.0
H243 H 0.47816 0.0025 0.91144 0.0
H244 H 0.45077 0.99022 0.8675 0.0
H245 H 0.41061 0.90172 0.9133 0.0
H246 H 0.43784 0.91375 0.95724 0.0
H247 H 0.37303 0.93225 0.87903 0.0
H248 H 0.46492 0.9023 0.86969 0.0
H249 H 0.51704 0.91227 0.86886 0.0
H250 H 0.51741 0.98347 0.7959 0.0
H251 H 0.46524 0.97427 0.79663 0.0
C252 C 0.34401 0.85453 0.76461 0.0
C253 C 0.353 0.86646 0.73587 0.0
C254 C 0.35364 0.87107 0.78839 0.0
C255 C 0.37185 0.90031 0.78372 0.0
C256 C 0.37916 0.91325 0.75465 0.0
C257 C 0.36979 0.89639 0.73088 0.0
C258 C 0.38561 0.91542 0.80918 0.0
C259 C 0.41527 0.92283 0.80918 0.0
C260 C 0.37015 0.91939 0.83454 0.0
C261 C 0.33878 0.9137 0.83541 0.0
C262 C 0.32354 0.92818 0.81317 0.0
C263 C 0.294 0.92232 0.81385 0.0
C264 C 0.27943 0.90217 0.83677 0.0
C265 C 0.29438 0.88788 0.85909 0.0
C266 C 0.32392 0.89363 0.8585 0.0
C267 C 0.4632 0.98063 0.9123 0.0
C268 C 0.46027 0.95901 0.93778 0.0
C269 C 0.44764 0.97362 0.88715 0.0
C270 C 0.42882 0.94496 0.88711 0.0
C271 C 0.42499 0.92399 0.9129 0.0
C272 C 0.44067 0.93085 0.93794 0.0
C273 C 0.41442 0.93578 0.85975 0.0
C274 C 0.3848 0.92929 0.85955 0.0
C275 C 0.42985 0.93267 0.83418 0.0
C276 C 0.4612 0.93788 0.83345 0.0
C277 C 0.47612 0.92025 0.85362 0.0
C278 C 0.50567 0.92574 0.85315 0.0
C279 C 0.52053 0.94856 0.83241 0.0
C280 C 0.50587 0.96585 0.81201 0.0
C281 C 0.47631 0.96051 0.81243 0.0
H282 H 0.54341 0.95279 0.8321 0.0
H283 H 0.25656 0.89766 0.83724 0.0
H284 H 0.61886 0.36585 0.78105 0.0
H285 H 0.59509 0.38613 0.73721 0.0
H286 H 0.67479 0.40737 0.6899 0.0
H287 H 0.69831 0.3856 0.73343 0.0
H288 H 0.63449 0.45826 0.68991 0.0
H289 H 0.64148 0.35143 0.66964 0.0
H290 H 0.63519 0.29394 0.6832 0.0
H291 H 0.54598 0.29043 0.69504 0.0
H292 H 0.55184 0.34804 0.68205 0.0
H293 H 0.57699 0.49989 0.55195 0.0
H294 H 0.60564 0.47874 0.59101 0.0
H295 H 0.53193 0.41368 0.6257 0.0
H296 H 0.50399 0.43314 0.58506 0.0
H297 H 0.57224 0.38472 0.63151 0.0
H298 H 0.56184 0.4877 0.65555 0.0
H299 H 0.56449 0.54542 0.64706 0.0
H300 H 0.65438 0.55729 0.63417 0.0
H301 H 0.65221 0.49959 0.64224 0.0
C302 C 0.63115 0.37482 0.7612 0.0
C303 C 0.6603 0.37443 0.7604 0.0
C304 C 0.61768 0.38641 0.73634 0.0
C305 C 0.63328 0.39819 0.71049 0.0
C306 C 0.66252 0.39845 0.70978 0.0
C307 C 0.67589 0.38621 0.73451 0.0
C308 C 0.61876 0.40973 0.6841 0.0
C309 C 0.6212 0.44232 0.67674 0.0
C310 C 0.60074 0.38876 0.66782 0.0
C311 C 0.59715 0.35408 0.67516 0.0
C312 C 0.62057 0.33845 0.6754 0.0
C313 C 0.61707 0.30583 0.68294 0.0
C314 C 0.59022 0.28855 0.69006 0.0
C315 C 0.56678 0.30385 0.68956 0.0
C316 C 0.57018 0.33648 0.68209 0.0
C317 C 0.56708 0.48099 0.56794 0.0
C318 C 0.5384 0.46819 0.56584 0.0
C319 C 0.58335 0.46906 0.59039 0.0
C320 C 0.57087 0.44513 0.61193 0.0
C321 C 0.54215 0.43214 0.60948 0.0
C322 C 0.52614 0.4433 0.58638 0.0
C323 C 0.5876 0.43367 0.63704 0.0
C324 C 0.58558 0.40095 0.64435 0.0
C325 C 0.60543 0.45463 0.65382 0.0
C326 C 0.60682 0.48933 0.64922 0.0
C327 C 0.58214 0.50262 0.65075 0.0
C328 C 0.58356 0.53533 0.64602 0.0
C329 C 0.60958 0.55501 0.64 0.0
C330 C 0.63424 0.54202 0.63879 0.0
C331 C 0.63293 0.50932 0.64347 0.0
H332 H 0.61063 0.58032 0.63634 0.0
H333 H 0.58755 0.2633 0.69589 0.0
H334 H 0.86478 0.61633 0.27874 0.0
H335 H 0.8916 0.60035 0.23962 0.0
H336 H 0.9007 0.69453 0.19454 0.0
H337 H 0.87066 0.70929 0.23255 0.0
H338 H 0.88941 0.65826 0.15616 0.0
H339 H 0.95823 0.65849 0.23048 0.0
H340 H 0.97774 0.6476 0.27975 0.0
H341 H 0.95803 0.54798 0.27278 0.0
H342 H 0.93803 0.55823 0.22365 0.0
H343 H 0.97822 0.61026 0.05064 0.0
H344 H 0.96221 0.636 0.09095 0.0
H345 H 0.93109 0.54507 0.13814 0.0
H346 H 0.94782 0.51896 0.09805 0.0
H347 H 0.95911 0.58607 0.17396 0.0
H348 H 0.88674 0.59097 0.09836 0.0
H349 H 0.87232 0.6061 0.04769 0.0
H350 H 0.90627 0.70319 0.05629 0.0
H351 H 0.92114 0.68857 0.10692 0.0
C352 C 0.87257 0.6336 0.26048 0.0
C353 C 0.86523 0.66379 0.25832 0.0
C354 C 0.88841 0.62465 0.23827 0.0
C355 C 0.89879 0.64626 0.21405 0.0
C356 C 0.89297 0.67726 0.21285 0.0
C357 C 0.87617 0.68589 0.23473 0.0
C358 C 0.91364 0.63553 0.18917 0.0
C359 C 0.90509 0.64303 0.16018 0.0
C360 C 0.93412 0.61546 0.19398 0.0
C361 C 0.94651 0.60916 0.22339 0.0
C362 C 0.95794 0.63425 0.2395 0.0
C363 C 0.96909 0.62819 0.26741 0.0
C364 C 0.9691 0.59712 0.2794 0.0
C365 C 0.95803 0.57204 0.26346 0.0
C366 C 0.94683 0.57796 0.23555 0.0
C367 C 0.96792 0.59562 0.06953 0.0
C368 C 0.9641 0.56245 0.07097 0.0
C369 C 0.9587 0.61045 0.09257 0.0
C370 C 0.94502 0.59251 0.11739 0.0
C371 C 0.9415 0.55941 0.11913 0.0
C372 C 0.95096 0.5445 0.09615 0.0
C373 C 0.93423 0.60818 0.1415 0.0
C374 C 0.94364 0.60161 0.17021 0.0
C375 C 0.91523 0.62982 0.13631 0.0
C376 C 0.9052 0.63865 0.10634 0.0
C377 C 0.89115 0.61553 0.08942 0.0
C378 C 0.88292 0.62401 0.06071 0.0
C379 C 0.88843 0.65557 0.04876 0.0
C380 C 0.90202 0.67875 0.06557 0.0
C381 C 0.9103 0.67039 0.09429 0.0
H382 H 0.88216 0.66208 0.02649 0.0
H383 H 0.97772 0.59247 0.30102 0.0
H384 H 0.23496 0.16874 0.15217 0.0
H385 H 0.27314 0.14105 0.13949 0.0
H386 H 0.31874 0.17065 0.21619 0.0
H387 H 0.28046 0.19864 0.22855 0.0
H388 H 0.35188 0.18375 0.167 0.0
H389 H 0.29001 0.09406 0.21325 0.0
H390 H 0.24499 0.05738 0.22273 0.0
H391 H 0.24519 0.03386 0.13362 0.0
H392 H 0.29003 0.0708 0.12346 0.0
H393 H 0.45906 0.09022 0.16171 0.0
H394 H 0.4181 0.11187 0.17633 0.0
H395 H 0.37689 0.08887 0.09547 0.0
H396 H 0.41817 0.06725 0.08039 0.0
H397 H 0.34131 0.07187 0.14642 0.0
H398 H 0.4031 0.16229 0.10035 0.0
H399 H 0.44796 0.19932 0.09112 0.0
H400 H 0.44778 0.22152 0.18066 0.0
H401 H 0.40309 0.18424 0.19055 0.0
C402 C 0.25296 0.16875 0.16651 0.0
C403 C 0.25498 0.18572 0.19125 0.0
C404 C 0.27471 0.15293 0.15934 0.0
C405 C 0.29887 0.15373 0.17688 0.0
C406 C 0.30035 0.16973 0.20231 0.0
C407 C 0.27846 0.18542 0.20954 0.0
C408 C 0.32322 0.13958 0.16762 0.0
C409 C 0.34965 0.15915 0.16299 0.0
C410 C 0.32018 0.10772 0.1615 0.0
C411 C 0.29325 0.08542 0.16752 0.0
C412 C 0.28034 0.08127 0.1956 0.0
C413 C 0.25487 0.0604 0.20111 0.0
C414 C 0.2422 0.04335 0.17877 0.0
C415 C 0.25502 0.0471 0.15089 0.0
C416 C 0.28047 0.06799 0.14525 0.0
C417 C 0.4413 0.08963 0.14697 0.0
C418 C 0.44194 0.07695 0.11983 0.0
C419 C 0.41792 0.10216 0.15537 0.0
C420 C 0.3945 0.10217 0.13695 0.0
C421 C 0.39476 0.08911 0.11002 0.0
C422 C 0.41839 0.07685 0.1014 0.0
C423 C 0.36992 0.11602 0.14599 0.0
C424 C 0.34349 0.09645 0.1505 0.0
C425 C 0.37295 0.14788 0.15208 0.0
C426 C 0.3999 0.1702 0.14627 0.0
C427 C 0.41277 0.17482 0.11816 0.0
C428 C 0.43813 0.19591 0.11279 0.0
C429 C 0.45076 0.2127 0.13531 0.0
C430 C 0.438 0.20847 0.16324 0.0
C431 C 0.41264 0.18737 0.16874 0.0
H432 H 0.47039 0.22903 0.1311 0.0
H433 H 0.22249 0.02719 0.18309 0.0
H434 H 0.29144 0.8587 0.72324 0.0
H435 H 0.25443 0.8899 0.70929 0.0
H436 H 0.29698 0.92142 0.62553 0.0
H437 H 0.33551 0.89354 0.64136 0.0
H438 H 0.27137 0.96332 0.63506 0.0
H439 H 0.23984 0.85074 0.64134 0.0
H440 H 0.23086 0.79633 0.66585 0.0
H441 H 0.17581 0.82375 0.72877 0.0
H442 H 0.18474 0.87842 0.70481 0.0
H443 H 0.14936 0.97813 0.54814 0.0
H444 H 0.19027 0.95834 0.57037 0.0
H445 H 0.15307 0.95507 0.65674 0.0
H446 H 0.11214 0.97475 0.63479 0.0
H447 H 0.17475 0.90079 0.64784 0.0
H448 H 0.20513 0.01448 0.63361 0.0
H449 H 0.21352 0.06586 0.60324 0.0
H450 H 0.27058 0.03145 0.54728 0.0
H451 H 0.26223 0.97972 0.57711 0.0
C452 C 0.29318 0.87321 0.70232 0.0
C453 C 0.31556 0.87287 0.68278 0.0
C454 C 0.27182 0.89058 0.69406 0.0
C455 C 0.27191 0.90669 0.6656 0.0
C456 C 0.29585 0.90875 0.64734 0.0
C457 C 0.31776 0.89257 0.6562 0.0
C458 C 0.24656 0.91943 0.6539 0.0
C459 C 0.25034 0.9494 0.63773 0.0
C460 C 0.21883 0.90162 0.6573 0.0
C461 C 0.21317 0.86869 0.67147 0.0
C462 C 0.2259 0.84516 0.66046 0.0
C463 C 0.22083 0.81429 0.67426 0.0
C464 C 0.20282 0.8066 0.6989 0.0
C465 C 0.18978 0.82975 0.70972 0.0
C466 C 0.19482 0.86067 0.69604 0.0
C467 C 0.14981 0.97307 0.57186 0.0
C468 C 0.12748 0.97807 0.58969 0.0
C469 C 0.17328 0.96192 0.58453 0.0
C470 C 0.17482 0.95556 0.61523 0.0
C471 C 0.15232 0.95992 0.63301 0.0
C472 C 0.12896 0.97121 0.6204 0.0
C473 C 0.19981 0.94422 0.62891 0.0
C474 C 0.19586 0.91459 0.64541 0.0
C475 C 0.22741 0.96184 0.62496 0.0
C476 C 0.23292 0.99318 0.60749 0.0
C477 C 0.21937 0.01783 0.61476 0.0
C478 C 0.22413 0.04702 0.59764 0.0
C479 C 0.24254 0.0519 0.57332 0.0
C480 C 0.25632 0.02764 0.56612 0.0
C481 C 0.25162 0.9984 0.58315 0.0
H482 H 0.24616 0.0745 0.56007 0.0
H483 H 0.19894 0.78269 0.70956 0.0
H484 H 0.70185 0.40196 0.86308 0.0
H485 H 0.74317 0.42111 0.89201 0.0
H486 H 0.7829 0.34421 0.86935 0.0
H487 H 0.74164 0.32558 0.83992 0.0
H488 H 0.77556 0.40089 0.93726 0.0
H489 H 0.85078 0.37619 0.8476 0.0
H490 H 0.85014 0.36781 0.79489 0.0
H491 H 0.78396 0.42294 0.78045 0.0
H492 H 0.78451 0.432 0.83292 0.0
H493 H 0.91694 0.46079 0.98136 0.0
H494 H 0.87451 0.42595 0.9666 0.0
H495 H 0.87119 0.48819 0.88684 0.0
H496 H 0.914 0.52179 0.90072 0.0
H497 H 0.86095 0.43274 0.87308 0.0
H498 H 0.82674 0.48452 0.95158 0.0
H499 H 0.82537 0.49935 0.00226 0.0
H500 H 0.80622 0.40149 0.03587 0.0
H501 H 0.80782 0.3861 0.98539 0.0
C502 C 0.71922 0.38889 0.86491 0.0
C503 C 0.71904 0.36274 0.84903 0.0
C504 C 0.74269 0.39964 0.88154 0.0
C505 C 0.76631 0.38439 0.88244 0.0
C506 C 0.76502 0.35653 0.86869 0.0
C507 C 0.7415 0.3458 0.85206 0.0
C508 C 0.79337 0.40002 0.8942 0.0
C509 C 0.79436 0.40761 0.92338 0.0
C510 C 0.81771 0.40936 0.87591 0.0
C511 C 0.81745 0.40437 0.84424 0.0
C512 C 0.83615 0.38656 0.83314 0.0
C513 C 0.8358 0.38171 0.80331 0.0
C514 C 0.81694 0.39472 0.78436 0.0
C515 C 0.79847 0.41275 0.79517 0.0
C516 C 0.79878 0.41773 0.82495 0.0
C517 C 0.90708 0.4669 0.96069 0.0
C518 C 0.91883 0.49393 0.94214 0.0
C519 C 0.88276 0.44707 0.95231 0.0
C520 C 0.86937 0.45447 0.92565 0.0
C521 C 0.88112 0.48168 0.90737 0.0
C522 C 0.90563 0.50099 0.91539 0.0
C523 C 0.84328 0.43421 0.91621 0.0
C524 C 0.84243 0.42563 0.88731 0.0
C525 C 0.81887 0.42491 0.93453 0.0
C526 C 0.81771 0.43417 0.96479 0.0
C527 C 0.82242 0.46618 0.96981 0.0
C528 C 0.82158 0.47468 0.99849 0.0
C529 C 0.8158 0.45137 0.02228 0.0
C530 C 0.81075 0.41952 0.01743 0.0
C531 C 0.81161 0.4109 0.9888 0.0
H532 H 0.81517 0.458 0.04446 0.0
H533 H 0.81668 0.3909 0.76129 0.0
H534 H 0.75279 0.65729 0.28229 0.0
H535 H 0.70803 0.63486 0.30823 0.0
H536 H 0.75359 0.61959 0.38868 0.0
H537 H 0.79832 0.64044 0.36207 0.0
H538 H 0.71478 0.57111 0.38423 0.0
H539 H 0.71586 0.68295 0.3737 0.0
H540 H 0.71978 0.73597 0.34669 0.0
H541 H 0.64758 0.70382 0.29535 0.0
H542 H 0.64347 0.65047 0.32175 0.0
H543 H 0.59116 0.53887 0.47501 0.0
H544 H 0.63638 0.56678 0.45353 0.0
H545 H 0.59818 0.5751 0.36809 0.0
H546 H 0.55304 0.5475 0.38932 0.0
H547 H 0.63389 0.6292 0.37817 0.0
H548 H 0.63692 0.51732 0.38337 0.0
H549 H 0.63324 0.46337 0.40814 0.0
H550 H 0.69704 0.49606 0.46921 0.0
H551 H 0.70126 0.55028 0.44448 0.0
C552 C 0.75301 0.64878 0.30543 0.0
C553 C 0.77863 0.65043 0.32039 0.0
C554 C 0.72756 0.63634 0.32032 0.0
C555 C 0.72736 0.62614 0.35061 0.0
C556 C 0.75316 0.62742 0.36539 0.0
C557 C 0.7786 0.63934 0.35034 0.0
C558 C 0.70033 0.61383 0.36683 0.0
C559 C 0.69732 0.58415 0.38331 0.0
C560 C 0.67725 0.63047 0.36524 0.0
C561 C 0.67948 0.66265 0.34958 0.0
C562 C 0.70091 0.68714 0.35654 0.0
C563 C 0.70316 0.71726 0.34134 0.0
C564 C 0.68397 0.72325 0.31929 0.0
C565 C 0.66244 0.69915 0.31243 0.0
C566 C 0.66012 0.66898 0.32753 0.0
C567 C 0.5923 0.54713 0.45175 0.0
C568 C 0.56859 0.54086 0.43381 0.0
C569 C 0.61817 0.56287 0.43949 0.0
C570 C 0.62068 0.57263 0.40915 0.0
C571 C 0.59671 0.56771 0.39153 0.0
C572 C 0.57094 0.55186 0.4037 0.0
C573 C 0.64849 0.58661 0.39535 0.0
C574 C 0.65157 0.6165 0.37933 0.0
C575 C 0.67166 0.57025 0.39735 0.0
C576 C 0.66917 0.53782 0.41231 0.0
C577 C 0.65004 0.513 0.40219 0.0
C578 C 0.64791 0.48237 0.41618 0.0
C579 C 0.66475 0.47628 0.44041 0.0
C580 C 0.68395 0.50081 0.45051 0.0
C581 C 0.6863 0.53148 0.43643 0.0
H582 H 0.663 0.45256 0.45129 0.0
H583 H 0.68576 0.74658 0.30754 0.0
H584 H 0.17814 0.23937 0.14011 0.0
H585 H 0.15009 0.27742 0.11707 0.0
H586 H 0.18147 0.34248 0.18004 0.0
H587 H 0.20917 0.30386 0.20328 0.0
H588 H 0.12658 0.33931 0.17496 0.0
H589 H 0.20379 0.35545 0.10763 0.0
H590 H 0.23891 0.34116 0.07448 0.0
H591 H 0.17245 0.3024 0.01894 0.0
H592 H 0.13687 0.31597 0.05204 0.0
H593 H 0.06026 0.45921 0.09635 0.0
H594 H 0.09433 0.42955 0.12091 0.0
H595 H 0.0716 0.35593 0.06381 0.0
H596 H 0.03837 0.38597 0.03849 0.0
H597 H 0.12658 0.36943 0.06715 0.0
H598 H 0.04949 0.34937 0.14004 0.0
H599 H 0.01607 0.36647 0.17342 0.0
H600 H 0.0854 0.41702 0.21815 0.0
H601 H 0.11921 0.40035 0.18491 0.0
C602 C 0.17925 0.26202 0.14861 0.0
C603 C 0.19573 0.26899 0.17322 0.0
C604 C 0.16331 0.28375 0.13552 0.0
C605 C 0.16388 0.31303 0.1466 0.0
C606 C 0.1807 0.32011 0.17107 0.0
C607 C 0.19656 0.29825 0.18423 0.0
C608 C 0.14603 0.33556 0.13326 0.0
C609 C 0.12691 0.34628 0.15143 0.0
C610 C 0.1463 0.34464 0.10255 0.0
C611 C 0.16763 0.3365 0.08249 0.0
C612 C 0.19663 0.34365 0.08849 0.0
C613 C 0.21663 0.3357 0.06968 0.0
C614 C 0.20791 0.32082 0.04466 0.0
C615 C 0.17917 0.3139 0.03836 0.0
C616 C 0.15907 0.32173 0.05713 0.0
C617 C 0.06222 0.43648 0.08931 0.0
C618 C 0.04641 0.42481 0.0656 0.0
C619 C 0.08173 0.41952 0.1034 0.0
C620 C 0.08538 0.39028 0.09446 0.0
C621 C 0.06922 0.37842 0.07113 0.0
C622 C 0.05006 0.39553 0.05678 0.0
C623 C 0.10646 0.3722 0.10869 0.0
C624 C 0.12634 0.36251 0.09069 0.0
C625 C 0.10712 0.36441 0.13956 0.0
C626 C 0.08682 0.37382 0.15989 0.0
C627 C 0.05757 0.3642 0.15696 0.0
C628 C 0.03857 0.3738 0.17585 0.0
C629 C 0.0486 0.39287 0.19786 0.0
C630 C 0.07766 0.40225 0.2011 0.0
C631 C 0.09674 0.39269 0.18229 0.0
H632 H 0.03386 0.40033 0.21243 0.0
H633 H 0.22343 0.3147 0.03011 0.0
H634 H 0.65688 0.33033 0.87664 0.0
H635 H 0.63705 0.28462 0.91119 0.0
H636 H 0.67254 0.22341 0.85812 0.0
H637 H 0.69199 0.26937 0.82351 0.0
H638 H 0.61747 0.20318 0.86797 0.0
H639 H 0.69696 0.23644 0.92761 0.0
H640 H 0.72954 0.27467 0.9534 0.0
H641 H 0.66098 0.28923 0.00766 0.0
H642 H 0.62787 0.25146 0.98187 0.0
H643 H 0.56763 0.0648 0.96486 0.0
H644 H 0.59742 0.10765 0.9344 0.0
H645 H 0.57002 0.17568 0.98576 0.0
H646 H 0.54099 0.13306 0.01676 0.0
H647 H 0.62437 0.19056 0.97681 0.0
H648 H 0.54452 0.16256 0.91519 0.0
H649 H 0.51033 0.1268 0.88852 0.0
H650 H 0.57799 0.1047 0.83751 0.0
H651 H 0.61263 0.14004 0.86417 0.0
C652 C 0.66108 0.30715 0.87306 0.0
C653 C 0.67582 0.30302 0.84771 0.0
C654 C 0.64976 0.28108 0.89266 0.0
C655 C 0.65331 0.25052 0.88727 0.0
C656 C 0.66946 0.24672 0.86268 0.0
C657 C 0.68069 0.27283 0.84308 0.0
C658 C 0.63805 0.22245 0.90568 0.0
C659 C 0.61942 0.20007 0.89174 0.0
C660 C 0.63992 0.21892 0.93675 0.0
C661 C 0.65989 0.24124 0.95266 0.0
C662 C 0.68879 0.24792 0.94493 0.0
C663 C 0.70736 0.2695 0.95955 0.0
C664 C 0.69733 0.2844 0.98212 0.0
C665 C 0.66872 0.27767 0.99017 0.0
C666 C 0.65004 0.25615 0.97558 0.0
C667 C 0.56779 0.08891 0.96951 0.0
C668 C 0.55181 0.09549 0.99317 0.0
C669 C 0.58483 0.11341 0.95206 0.0
C670 C 0.58583 0.145 0.9576 0.0
C671 C 0.56973 0.15155 0.98108 0.0
C672 C 0.55297 0.12712 0.9987 0.0
C673 C 0.60365 0.17134 0.9391 0.0
C674 C 0.62268 0.19345 0.95302 0.0
C675 C 0.60197 0.17484 0.90799 0.0
C676 C 0.58118 0.15366 0.8919 0.0
C677 C 0.55212 0.14988 0.89845 0.0
C678 C 0.53266 0.12973 0.8833 0.0
C679 C 0.54199 0.11341 0.8614 0.0
C680 C 0.5708 0.1173 0.85453 0.0
C681 C 0.59035 0.13741 0.86963 0.0
H682 H 0.5269 0.09781 0.84971 0.0
H683 H 0.71174 0.30112 0.9934 0.0
H684 H 0.84445 0.75619 0.28038 0.0
H685 H 0.87689 0.79936 0.29815 0.0
H686 H 0.93396 0.73509 0.3261 0.0
H687 H 0.89943 0.69114 0.31075 0.0
H688 H 0.92911 0.76446 0.36807 0.0
H689 H 0.94969 0.80467 0.26901 0.0
H690 H 0.94109 0.82018 0.21671 0.0
H691 H 0.89338 0.88919 0.24135 0.0
H692 H 0.90131 0.87383 0.29379 0.0
H693 H 0.00556 0.90283 0.4285 0.0
H694 H 0.99535 0.86071 0.39573 0.0
H695 H 0.91367 0.88645 0.3774 0.0
H696 H 0.92347 0.92806 0.41007 0.0
H697 H 0.94404 0.87664 0.32639 0.0
H698 H 0.91832 0.82569 0.42626 0.0
H699 H 0.92995 0.81014 0.47777 0.0
H700 H 0.99383 0.76157 0.44808 0.0
H701 H 0.98277 0.77718 0.39638 0.0
C702 C 0.86432 0.75157 0.28959 0.0
C703 C 0.8694 0.72051 0.29456 0.0
C704 C 0.88316 0.77637 0.29952 0.0
C705 C 0.90833 0.77094 0.31342 0.0
C706 C 0.91471 0.74011 0.31567 0.0
C707 C 0.89526 0.71503 0.30651 0.0
C708 C 0.92544 0.79632 0.32908 0.0
C709 C 0.93309 0.78882 0.35842 0.0
C710 C 0.93074 0.82843 0.317 0.0
C711 C 0.92609 0.83801 0.2854 0.0
C712 C 0.93726 0.82306 0.2633 0.0
C713 C 0.9325 0.83183 0.23361 0.0
C714 C 0.9167 0.85565 0.22572 0.0
C715 C 0.90566 0.87078 0.24749 0.0
C716 C 0.91034 0.8621 0.27721 0.0
C717 C 0.98545 0.89949 0.41745 0.0
C718 C 0.96527 0.91871 0.42204 0.0
C719 C 0.97967 0.87546 0.39874 0.0
C720 C 0.95376 0.87051 0.3841 0.0
C721 C 0.93385 0.88996 0.38834 0.0
C722 C 0.93944 0.91363 0.40722 0.0
C723 C 0.94654 0.84448 0.36508 0.0
C724 C 0.94075 0.85203 0.33532 0.0
C725 C 0.94359 0.81244 0.37647 0.0
C726 C 0.94996 0.80289 0.40752 0.0
C727 C 0.93498 0.81189 0.43074 0.0
C728 C 0.94144 0.80304 0.45996 0.0
C729 C 0.96268 0.78497 0.4662 0.0
C730 C 0.97743 0.77562 0.44322 0.0
C731 C 0.97107 0.78445 0.41397 0.0
H732 H 0.96765 0.77814 0.48883 0.0
H733 H 0.91302 0.86239 0.20272 0.0
H734 H 0.32552 0.75737 0.66369 0.0
H735 H 0.34404 0.71606 0.64123 0.0
H736 H 0.42907 0.75974 0.6601 0.0
H737 H 0.41046 0.80319 0.67898 0.0
H738 H 0.43152 0.74179 0.61135 0.0
H739 H 0.38866 0.68742 0.70061 0.0
H740 H 0.35109 0.66896 0.73821 0.0
H741 H 0.29918 0.62092 0.67448 0.0
H742 H 0.33627 0.63944 0.6364 0.0
H743 H 0.48665 0.60447 0.5787 0.0
H744 H 0.47206 0.64519 0.60594 0.0
H745 H 0.38773 0.62382 0.57227 0.0
H746 H 0.40197 0.5831 0.54524 0.0
H747 H 0.38825 0.62903 0.63191 0.0
H748 H 0.43386 0.68778 0.5427 0.0
H749 H 0.47422 0.70502 0.50813 0.0
H750 H 0.52501 0.74303 0.5778 0.0
H751 H 0.48504 0.72567 0.61285 0.0
C752 C 0.34815 0.75835 0.66252 0.0
C753 C 0.36659 0.78346 0.67293 0.0
C754 C 0.35877 0.73435 0.65028 0.0
C755 C 0.38803 0.73412 0.64959 0.0
C756 C 0.40643 0.75914 0.66039 0.0
C757 C 0.39583 0.78377 0.67153 0.0
C758 C 0.39951 0.70861 0.63654 0.0
C759 C 0.42231 0.71712 0.61641 0.0
C760 C 0.38751 0.67626 0.64271 0.0
C761 C 0.36518 0.66502 0.6656 0.0
C762 C 0.36916 0.67308 0.69457 0.0
C763 C 0.34796 0.66258 0.71597 0.0
C764 C 0.32274 0.64383 0.70872 0.0
C765 C 0.31871 0.63547 0.68006 0.0
C766 C 0.33983 0.64592 0.65857 0.0
C767 C 0.46502 0.60849 0.57708 0.0
C768 C 0.4455 0.59066 0.5597 0.0
C769 C 0.45675 0.63177 0.5926 0.0
C770 C 0.42887 0.63761 0.59092 0.0
C771 C 0.40933 0.61964 0.57385 0.0
C772 C 0.41757 0.59647 0.55831 0.0
C773 C 0.41981 0.66248 0.6068 0.0
C774 C 0.39752 0.65377 0.62736 0.0
C775 C 0.4327 0.69449 0.60162 0.0
C776 C 0.45657 0.70516 0.58043 0.0
C777 C 0.45369 0.69962 0.55067 0.0
C778 C 0.47649 0.70945 0.53099 0.0
C779 C 0.50219 0.72503 0.54078 0.0
C780 C 0.50511 0.73092 0.57025 0.0
C781 C 0.4824 0.72112 0.59002 0.0
H782 H 0.51981 0.7326 0.52551 0.0
H783 H 0.30635 0.63573 0.72532 0.0
H784 H 0.84029 0.82641 0.7549 0.0
H785 H 0.87232 0.84149 0.71189 0.0
H786 H 0.89599 0.93467 0.73974 0.0
H787 H 0.86443 0.91933 0.78279 0.0
H788 H 0.8813 0.93752 0.68244 0.0
H789 H 0.93974 0.88227 0.74652 0.0
H790 H 0.953 0.83756 0.77824 0.0
H791 H 0.94643 0.78209 0.70495 0.0
H792 H 0.93229 0.82615 0.67294 0.0
H793 H 0.01745 0.98408 0.60201 0.0
H794 H 0.98723 0.95987 0.64411 0.0
H795 H 0.9284 0.9113 0.58586 0.0
H796 H 0.95814 0.93591 0.54336 0.0
H797 H 0.9601 0.88398 0.65651 0.0
H798 H 0.88794 0.93793 0.59813 0.0
H799 H 0.87786 0.98499 0.56722 0.0
H800 H 0.91488 0.0443 0.63194 0.0
H801 H 0.92549 0.99754 0.66297 0.0
C802 C 0.85277 0.84988 0.75195 0.0
C803 C 0.84975 0.87191 0.77177 0.0
C804 C 0.87094 0.85852 0.72742 0.0
C805 C 0.88642 0.88931 0.72248 0.0
C806 C 0.88405 0.91092 0.74291 0.0
C807 C 0.86605 0.90222 0.76743 0.0
C808 C 0.90423 0.89961 0.69551 0.0
C809 C 0.89845 0.92564 0.67687 0.0
C810 C 0.92659 0.88415 0.68799 0.0
C811 C 0.93464 0.85744 0.70738 0.0
C812 C 0.94074 0.86041 0.73723 0.0
C813 C 0.94848 0.83519 0.75526 0.0
C814 C 0.95061 0.80704 0.7436 0.0
C815 C 0.94482 0.80395 0.71393 0.0
C816 C 0.93686 0.829 0.69586 0.0
C817 C 0.99817 0.96813 0.59805 0.0
C818 C 0.99017 0.96212 0.5692 0.0
C819 C 0.98097 0.95429 0.62219 0.0
C820 C 0.95558 0.93399 0.61802 0.0
C821 C 0.94784 0.92714 0.58945 0.0
C822 C 0.96487 0.94125 0.56521 0.0
C823 C 0.93667 0.92124 0.64356 0.0
C824 C 0.9425 0.89518 0.66201 0.0
C825 C 0.91431 0.93647 0.65101 0.0
C826 C 0.90776 0.96442 0.63261 0.0
C827 C 0.8941 0.96106 0.60559 0.0
C828 C 0.88827 0.98764 0.5881 0.0
C829 C 0.89581 0.01763 0.59757 0.0
C830 C 0.90912 0.02108 0.6246 0.0
C831 C 0.91506 0.99457 0.64213 0.0
H832 H 0.8913 0.03819 0.584 0.0
H833 H 0.95678 0.7876 0.75753 0.0
H834 H 0.7294 0.18667 0.29443 0.0
H835 H 0.70764 0.16293 0.25141 0.0
H836 H 0.65355 0.09296 0.30925 0.0
H837 H 0.67491 0.11734 0.352 0.0
H838 H 0.69383 0.10278 0.22848 0.0
H839 H 0.59902 0.09419 0.29728 0.0
H840 H 0.57574 0.12002 0.33394 0.0
H841 H 0.61202 0.21106 0.2911 0.0
H842 H 0.63593 0.18567 0.25476 0.0
H843 H 0.57602 0.03748 0.14028 0.0
H844 H 0.6099 0.04804 0.17988 0.0
H845 H 0.60251 0.14657 0.16791 0.0
H846 H 0.569 0.13639 0.12834 0.0
H847 H 0.59422 0.12011 0.2255 0.0
H848 H 0.66051 0.12715 0.14619 0.0
H849 H 0.68266 0.10883 0.10401 0.0
H850 H 0.70415 0.0306 0.16008 0.0
H851 H 0.68172 0.04821 0.20255 0.0
C852 C 0.71393 0.16522 0.29778 0.0
C853 C 0.70391 0.15349 0.32628 0.0
C854 C 0.7013 0.15187 0.27329 0.0
C855 C 0.67855 0.12663 0.27718 0.0
C856 C 0.67075 0.11275 0.30578 0.0
C857 C 0.68323 0.12626 0.33016 0.0
C858 C 0.6605 0.11789 0.2519 0.0
C859 C 0.67194 0.10609 0.22793 0.0
C860 C 0.63219 0.12304 0.25076 0.0
C861 C 0.61951 0.13814 0.27374 0.0
C862 C 0.60222 0.11972 0.296 0.0
C863 C 0.58891 0.13426 0.31667 0.0
C864 C 0.59237 0.16718 0.31488 0.0
C865 C 0.60927 0.18559 0.29249 0.0
C866 C 0.62294 0.17116 0.27205 0.0
C867 C 0.58177 0.06142 0.14599 0.0
C868 C 0.56972 0.08608 0.1313 0.0
C869 C 0.60122 0.06742 0.16847 0.0
C870 C 0.60872 0.09808 0.17672 0.0
C871 C 0.597 0.12274 0.16183 0.0
C872 C 0.57785 0.11686 0.13921 0.0
C873 C 0.62725 0.10436 0.20217 0.0
C874 C 0.61591 0.11599 0.22617 0.0
C875 C 0.65566 0.09944 0.20292 0.0
C876 C 0.66912 0.08877 0.17746 0.0
C877 C 0.66969 0.10585 0.14947 0.0
C878 C 0.68236 0.09564 0.12552 0.0
C879 C 0.69472 0.0685 0.12934 0.0
C880 C 0.69451 0.05158 0.15714 0.0
C881 C 0.68184 0.06167 0.18117 0.0
H882 H 0.70453 0.06064 0.11077 0.0
H883 H 0.582 0.1784 0.33085 0.0
H884 H 0.36274 0.69918 0.26656 0.0
H885 H 0.3908 0.67576 0.30547 0.0
H886 H 0.39167 0.59579 0.25647 0.0
H887 H 0.36488 0.61984 0.21717 0.0
H888 H 0.3662 0.58486 0.31848 0.0
H889 H 0.44888 0.63372 0.26021 0.0
H890 H 0.48009 0.67882 0.23337 0.0
H891 H 0.49253 0.72431 0.31282 0.0
H892 H 0.46096 0.67968 0.34005 0.0
H893 H 0.44667 0.49412 0.41316 0.0
H894 H 0.42827 0.52164 0.36958 0.0
H895 H 0.45017 0.61011 0.40694 0.0
H896 H 0.46865 0.58308 0.45019 0.0
H897 H 0.46484 0.61745 0.35004 0.0
H898 H 0.38305 0.5734 0.40846 0.0
H899 H 0.34967 0.53204 0.43751 0.0
H900 H 0.3328 0.48188 0.36119 0.0
H901 H 0.36645 0.52275 0.33177 0.0
C902 C 0.36989 0.6772 0.26376 0.0
C903 C 0.36148 0.66099 0.23926 0.0
C904 C 0.38564 0.66375 0.28597 0.0
C905 C 0.39291 0.63391 0.28388 0.0
C906 C 0.38604 0.61872 0.25851 0.0
C907 C 0.3708 0.63241 0.23617 0.0
C908 C 0.40524 0.61711 0.3092 0.0
C909 C 0.38791 0.5916 0.32517 0.0
C910 C 0.43317 0.62678 0.31836 0.0
C911 C 0.45229 0.65353 0.30208 0.0
C912 C 0.45802 0.65349 0.27189 0.0
C913 C 0.47583 0.67894 0.25662 0.0
C914 C 0.48822 0.70447 0.27136 0.0
C915 C 0.48288 0.70455 0.30142 0.0
C916 C 0.46504 0.67917 0.31679 0.0
C917 C 0.44749 0.5194 0.4121 0.0
C918 C 0.45901 0.53631 0.43525 0.0
C919 C 0.43698 0.53511 0.38721 0.0
C920 C 0.43775 0.56794 0.38509 0.0
C921 C 0.44946 0.58483 0.40803 0.0
C922 C 0.45988 0.56922 0.43286 0.0
C923 C 0.42591 0.58476 0.35925 0.0
C924 C 0.4432 0.61044 0.34329 0.0
C925 C 0.3977 0.57566 0.3504 0.0
C926 C 0.37754 0.55093 0.368 0.0
C927 C 0.37244 0.55339 0.39794 0.0
C928 C 0.35343 0.53007 0.41446 0.0
C929 C 0.33919 0.50429 0.40123 0.0
C930 C 0.3439 0.50182 0.37142 0.0
C931 C 0.36293 0.52507 0.35481 0.0
H932 H 0.32446 0.48627 0.41405 0.0
H933 H 0.50201 0.72415 0.25949 0.0
H934 H 0.11276 0.37249 0.76224 0.0
H935 H 0.08939 0.39677 0.79915 0.0
H936 H 0.16584 0.40708 0.84984 0.0
H937 H 0.18846 0.38048 0.81384 0.0
H938 H 0.12336 0.39225 0.88591 0.0
H939 H 0.14615 0.46988 0.80348 0.0
H940 H 0.14747 0.49112 0.75116 0.0
H941 H 0.05681 0.47809 0.75065 0.0
H942 H 0.05494 0.45636 0.80288 0.0
H943 H 0.06024 0.53774 0.92931 0.0
H944 H 0.08791 0.51385 0.89566 0.0
H945 H 0.04261 0.4215 0.92709 0.0
H946 H 0.0153 0.44508 0.961 0.0
H947 H 0.07446 0.48131 0.8512 0.0
H948 H 0.08514 0.36662 0.92639 0.0
H949 H 0.08811 0.34943 0.97939 0.0
H950 H 0.1205 0.4447 0.99609 0.0
H951 H 0.11821 0.46239 0.94317 0.0
C952 C 0.12432 0.37938 0.78157 0.0
C953 C 0.15238 0.3747 0.78523 0.0
C954 C 0.11113 0.39366 0.80246 0.0
C955 C 0.12603 0.40446 0.82701 0.0
C956 C 0.15392 0.39915 0.83103 0.0
C957 C 0.16694 0.38427 0.81037 0.0
C958 C 0.11265 0.42181 0.84806 0.0
C959 C 0.11271 0.41175 0.87832 0.0
C960 C 0.09936 0.44784 0.83833 0.0
C961 C 0.10041 0.4613 0.80703 0.0
C962 C 0.1265 0.47141 0.79217 0.0
C963 C 0.12734 0.48354 0.76253 0.0
C964 C 0.10224 0.48591 0.74758 0.0
C965 C 0.07624 0.47623 0.76226 0.0
C966 C 0.07527 0.46404 0.79189 0.0
C967 C 0.05618 0.51235 0.92903 0.0
C968 C 0.03577 0.49329 0.94805 0.0
C969 C 0.072 0.49872 0.90979 0.0
C970 C 0.06769 0.46582 0.9092 0.0
C971 C 0.04681 0.44686 0.92764 0.0
C972 C 0.03114 0.46041 0.94697 0.0
C973 C 0.0846 0.45129 0.88893 0.0
C974 C 0.08521 0.4619 0.85882 0.0
C975 C 0.0992 0.42642 0.89894 0.0
C976 C 0.10124 0.41586 0.93079 0.0
C977 C 0.09305 0.38387 0.94133 0.0
C978 C 0.09459 0.37405 0.97138 0.0
C979 C 0.10441 0.39597 0.99109 0.0
C980 C 0.11282 0.42776 0.9808 0.0
C981 C 0.11138 0.4377 0.95079 0.0
H982 H 0.10558 0.38832 0.01433 0.0
H983 H 0.10294 0.49528 0.72463 0.0
H984 H 0.73998 0.86725 0.80431 0.0
H985 H 0.70151 0.88664 0.82842 0.0
H986 H 0.75609 0.90948 0.90119 0.0
H987 H 0.79449 0.89012 0.8768 0.0
H988 H 0.70203 0.87983 0.91943 0.0
H989 H 0.74499 0.96672 0.85102 0.0
H990 H 0.76274 0.9921 0.80224 0.0
H991 H 0.67954 0.97067 0.76693 0.0
H992 H 0.66138 0.94465 0.8154 0.0
H993 H 0.61227 0.97306 0.98184 0.0
H994 H 0.65256 0.95364 0.96174 0.0
H995 H 0.60806 0.94088 0.88043 0.0
H996 H 0.5684 0.96117 0.8999 0.0
H997 H 0.65934 0.96681 0.86804 0.0
H998 H 0.61633 0.87749 0.93412 0.0
H999 H 0.59777 0.84955 0.98175 0.0
H1000 H 0.67926 0.87322 0.02034 0.0
H1001 H 0.69823 0.90158 0.973 0.0
C1002 C 0.74356 0.87652 0.8254 0.0
C1003 C 0.76994 0.87756 0.83878 0.0
C1004 C 0.72173 0.88752 0.83916 0.0
C1005 C 0.72604 0.89974 0.8665 0.0
C1006 C 0.75233 0.90016 0.88013 0.0
C1007 C 0.77419 0.88929 0.86625 0.0
C1008 C 0.70329 0.9127 0.88049 0.0
C1009 C 0.6929 0.89913 0.90842 0.0
C1010 C 0.69108 0.93746 0.86584 0.0
C1011 C 0.70188 0.95352 0.83679 0.0
C1012 C 0.73052 0.96723 0.83281 0.0
C1013 C 0.74065 0.98175 0.80522 0.0
C1014 C 0.72229 0.98295 0.78149 0.0
C1015 C 0.69374 0.9697 0.78533 0.0
C1016 C 0.68351 0.95508 0.81286 0.0
C1017 C 0.61112 0.96611 0.95969 0.0
C1018 C 0.58717 0.96879 0.94245 0.0
C1019 C 0.6341 0.95481 0.94827 0.0
C1020 C 0.6333 0.94545 0.91962 0.0
C1021 C 0.60931 0.94803 0.90252 0.0
C1022 C 0.58657 0.95964 0.91374 0.0
C1023 C 0.65756 0.93363 0.90693 0.0
C1024 C 0.66839 0.94753 0.8792 0.0
C1025 C 0.66996 0.90898 0.92167 0.0
C1026 C 0.6586 0.89194 0.95013 0.0
C1027 C 0.63023 0.87693 0.95283 0.0
C1028 C 0.61965 0.86098 0.97975 0.0
C1029 C 0.6373 0.8597 0.00408 0.0
C1030 C 0.6656 0.87428 0.0015 0.0
C1031 C 0.67628 0.89026 0.97462 0.0
H1032 H 0.62907 0.84734 0.02491 0.0
H1033 H 0.73017 0.9942 0.76014 0.0
H1034 H 0.78439 0.20611 0.35744 0.0
H1035 H 0.82551 0.18001 0.36788 0.0
H1036 H 0.76971 0.09165 0.39141 0.0
H1037 H 0.72863 0.11799 0.38076 0.0
H1038 H 0.81024 0.1075 0.43404 0.0
H1039 H 0.80699 0.09991 0.33021 0.0
H1040 H 0.80487 0.1199 0.27785 0.0
H1041 H 0.88394 0.18201 0.28482 0.0
H1042 H 0.88631 0.16276 0.3374 0.0
H1043 H 0.91901 0.01542 0.45492 0.0
H1044 H 0.87691 0.03665 0.4388 0.0
H1045 H 0.92933 0.12237 0.40074 0.0
H1046 H 0.97165 0.10073 0.4159 0.0
H1047 H 0.88908 0.10587 0.36452 0.0
H1048 H 0.89164 0.11663 0.46817 0.0
H1049 H 0.89391 0.09867 0.52105 0.0
H1050 H 0.81661 0.03324 0.51522 0.0
H1051 H 0.81408 0.05052 0.4622 0.0
C1052 C 0.78111 0.18101 0.36427 0.0
C1053 C 0.75362 0.16386 0.36818 0.0
C1054 C 0.80448 0.16612 0.37024 0.0
C1055 C 0.80066 0.13387 0.38039 0.0
C1056 C 0.77311 0.11654 0.38357 0.0
C1057 C 0.74975 0.13142 0.37726 0.0
C1058 C 0.82541 0.1188 0.38926 0.0
C1059 C 0.82729 0.10662 0.41876 0.0
C1060 C 0.84798 0.11856 0.36949 0.0
C1061 C 0.8467 0.13007 0.33783 0.0
C1062 C 0.82381 0.11802 0.32066 0.0
C1063 C 0.82259 0.12919 0.29092 0.0
C1064 C 0.84423 0.15226 0.27803 0.0
C1065 C 0.86718 0.16416 0.29484 0.0
C1066 C 0.86849 0.15311 0.32461 0.0
C1067 C 0.92163 0.03887 0.44325 0.0
C1068 C 0.94875 0.05645 0.43685 0.0
C1069 C 0.89747 0.05105 0.43411 0.0
C1070 C 0.89982 0.08137 0.41891 0.0
C1071 C 0.9269 0.09894 0.41244 0.0
C1072 C 0.9511 0.08659 0.42124 0.0
C1073 C 0.87411 0.09464 0.40947 0.0
C1074 C 0.87203 0.10656 0.37986 0.0
C1075 C 0.85144 0.09493 0.42923 0.0
C1076 C 0.85283 0.08464 0.46115 0.0
C1077 C 0.87524 0.09825 0.47812 0.0
C1078 C 0.87655 0.08822 0.50812 0.0
C1079 C 0.85546 0.06476 0.52146 0.0
C1080 C 0.83296 0.05137 0.50485 0.0
C1081 C 0.83156 0.06129 0.47483 0.0
H1082 H 0.8565 0.05703 0.54469 0.0
H1083 H 0.84325 0.16086 0.25499 0.0
H1084 H 0.29675 0.64623 0.14287 0.0
H1085 H 0.25323 0.62765 0.11669 0.0
H1086 H 0.20352 0.64879 0.18842 0.0
H1087 H 0.24726 0.66699 0.21452 0.0
H1088 H 0.18328 0.59098 0.16929 0.0
H1089 H 0.21419 0.69814 0.12636 0.0
H1090 H 0.24932 0.7414 0.10213 0.0
H1091 H 0.25391 0.68862 0.02809 0.0
H1092 H 0.21921 0.64476 0.05215 0.0
H1093 H 0.05154 0.58088 0.10605 0.0
H1094 H 0.09604 0.60585 0.12577 0.0
H1095 H 0.14112 0.58409 0.05099 0.0
H1096 H 0.09634 0.55949 0.03073 0.0
H1097 H 0.16478 0.64141 0.07005 0.0
H1098 H 0.13605 0.53459 0.11134 0.0
H1099 H 0.10309 0.48891 0.13501 0.0
H1100 H 0.09651 0.53825 0.211 0.0
H1101 H 0.12913 0.58444 0.18758 0.0
C1102 C 0.27639 0.64666 0.15284 0.0
C1103 C 0.27484 0.65785 0.18039 0.0
C1104 C 0.2517 0.63625 0.13799 0.0
C1105 C 0.22522 0.63721 0.15052 0.0
C1106 C 0.22377 0.64793 0.17841 0.0
C1107 C 0.24852 0.65832 0.19323 0.0
C1108 C 0.19899 0.62717 0.13449 0.0
C1109 C 0.17905 0.60227 0.14778 0.0
C1110 C 0.19401 0.64131 0.10601 0.0
C1111 C 0.21425 0.66806 0.09116 0.0
C1112 C 0.22279 0.69569 0.10498 0.0
C1113 C 0.24264 0.72032 0.09128 0.0
C1114 C 0.25386 0.71774 0.06361 0.0
C1115 C 0.2452 0.69057 0.04953 0.0
C1116 C 0.22544 0.66582 0.06319 0.0
C1117 C 0.07085 0.58201 0.09347 0.0
C1118 C 0.0706 0.56789 0.06709 0.0
C1119 C 0.09625 0.59621 0.10479 0.0
C1120 C 0.12187 0.59608 0.09018 0.0
C1121 C 0.12153 0.58423 0.06265 0.0
C1122 C 0.09598 0.57023 0.05111 0.0
C1123 C 0.14889 0.60557 0.10511 0.0
C1124 C 0.16901 0.63019 0.09159 0.0
C1125 C 0.15426 0.59094 0.13328 0.0
C1126 C 0.13485 0.56308 0.14759 0.0
C1127 C 0.12742 0.53578 0.13301 0.0
C1128 C 0.10883 0.50979 0.14639 0.0
C1129 C 0.09768 0.51069 0.17447 0.0
C1130 C 0.10515 0.53759 0.18924 0.0
C1131 C 0.12371 0.56368 0.17593 0.0
H1132 H 0.08329 0.49053 0.18479 0.0
H1133 H 0.26924 0.73682 0.05304 0.0
H1134 H 0.19752 0.36352 0.66899 0.0
H1135 H 0.2398 0.37956 0.63707 0.0
H1136 H 0.29266 0.37219 0.71328 0.0
H1137 H 0.2504 0.35675 0.7449 0.0
H1138 H 0.30766 0.42705 0.68251 0.0
H1139 H 0.28574 0.31925 0.65962 0.0
H1140 H 0.25634 0.27245 0.64214 0.0
H1141 H 0.25003 0.3238 0.55742 0.0
H1142 H 0.27894 0.37113 0.57456 0.0
H1143 H 0.44243 0.44856 0.62033 0.0
H1144 H 0.39819 0.42208 0.64431 0.0
H1145 H 0.35366 0.43835 0.56354 0.0
H1146 H 0.39817 0.46449 0.5391 0.0
H1147 H 0.33259 0.38052 0.59325 0.0
H1148 H 0.35349 0.48775 0.61546 0.0
H1149 H 0.38306 0.53505 0.63187 0.0
H1150 H 0.39011 0.48539 0.71727 0.0
H1151 H 0.36091 0.43763 0.70122 0.0
C1152 C 0.21826 0.36478 0.67862 0.0
C1153 C 0.22098 0.3591 0.70924 0.0
C1154 C 0.24237 0.37391 0.66048 0.0
C1155 C 0.2695 0.37712 0.67276 0.0
C1156 C 0.27203 0.37008 0.70329 0.0
C1157 C 0.248 0.36119 0.72132 0.0
C1158 C 0.29527 0.39005 0.65447 0.0
C1159 C 0.31324 0.41652 0.66324 0.0
C1160 C 0.30207 0.37718 0.62861 0.0
C1161 C 0.28438 0.34882 0.61844 0.0
C1162 C 0.27789 0.32067 0.63734 0.0
C1163 C 0.26139 0.29401 0.62747 0.0
C1164 C 0.25149 0.2951 0.59863 0.0
C1165 C 0.25786 0.32294 0.57969 0.0
C1166 C 0.27428 0.34969 0.58948 0.0
C1167 C 0.42332 0.44616 0.6075 0.0
C1168 C 0.42378 0.45895 0.57789 0.0
C1169 C 0.39801 0.43106 0.62127 0.0
C1170 C 0.37249 0.42881 0.60591 0.0
C1171 C 0.37307 0.43994 0.57586 0.0
C1172 C 0.39852 0.45488 0.56194 0.0
C1173 C 0.34521 0.41682 0.6219 0.0
C1174 C 0.32691 0.39089 0.61257 0.0
C1175 C 0.33788 0.43023 0.64722 0.0
C1176 C 0.3552 0.45903 0.65705 0.0
C1177 C 0.3615 0.48686 0.63768 0.0
C1178 C 0.37817 0.51376 0.64692 0.0
C1179 C 0.3885 0.51321 0.67558 0.0
C1180 C 0.38211 0.48577 0.69507 0.0
C1181 C 0.36548 0.45879 0.68592 0.0
H1182 H 0.40141 0.53405 0.68269 0.0
H1183 H 0.23875 0.27442 0.59101 0.0
H1184 H 0.88171 0.85261 0.82692 0.0
H1185 H 0.91204 0.81421 0.84445 0.0
H1186 H 0.84341 0.73802 0.83311 0.0
H1187 H 0.81364 0.77645 0.81496 0.0
H1188 H 0.90139 0.77486 0.89395 0.0
H1189 H 0.86986 0.67061 0.82261 0.0
H1190 H 0.8559 0.66257 0.77161 0.0
H1191 H 0.89937 0.75551 0.74165 0.0
H1192 H 0.91436 0.76387 0.79236 0.0
H1193 H 0.91014 0.6274 0.96922 0.0
H1194 H 0.89505 0.67065 0.93818 0.0
H1195 H 0.96639 0.67498 0.8798 0.0
H1196 H 0.98159 0.63117 0.91073 0.0
H1197 H 0.91655 0.67874 0.84974 0.0
H1198 H 0.96861 0.73036 0.92629 0.0
H1199 H 0.98093 0.73636 0.97813 0.0
H1200 H 0.89617 0.74876 0.99685 0.0
H1201 H 0.88327 0.74256 0.94516 0.0
C1202 C 0.87362 0.82761 0.82734 0.0
C1203 C 0.84551 0.81723 0.8198 0.0
C1204 C 0.89075 0.80574 0.83755 0.0
C1205 C 0.88 0.77322 0.84013 0.0
C1206 C 0.85232 0.76292 0.83101 0.0
C1207 C 0.83528 0.78477 0.8208 0.0
C1208 C 0.89647 0.75018 0.85506 0.0
C1209 C 0.905 0.75407 0.88409 0.0
C1210 C 0.90123 0.72301 0.84222 0.0
C1211 C 0.89314 0.71792 0.81141 0.0
C1212 C 0.87674 0.68924 0.80513 0.0
C1213 C 0.86864 0.68463 0.77625 0.0
C1214 C 0.87679 0.70852 0.75341 0.0
C1215 C 0.89317 0.73703 0.75938 0.0
C1216 C 0.90149 0.7417 0.78819 0.0
C1217 C 0.92271 0.63749 0.94981 0.0
C1218 C 0.94718 0.62591 0.94254 0.0
C1219 C 0.91406 0.66231 0.93212 0.0
C1220 C 0.92977 0.67627 0.90687 0.0
C1221 C 0.95402 0.66457 0.89926 0.0
C1222 C 0.96274 0.63967 0.91702 0.0
C1223 C 0.92068 0.70317 0.88869 0.0
C1224 C 0.91343 0.69991 0.85923 0.0
C1225 C 0.91701 0.73093 0.90106 0.0
C1226 C 0.92498 0.73591 0.93188 0.0
C1227 C 0.9526 0.73435 0.94148 0.0
C1228 C 0.95968 0.73777 0.97083 0.0
C1229 C 0.93933 0.7429 0.99078 0.0
C1230 C 0.91191 0.74482 0.98136 0.0
C1231 C 0.90473 0.74145 0.95202 0.0
H1232 H 0.94482 0.74541 0.01352 0.0
H1233 H 0.87041 0.70495 0.73108 0.0
H1234 H 0.3426 0.7553 0.22541 0.0
H1235 H 0.37513 0.8038 0.208 0.0
H1236 H 0.42274 0.74966 0.15899 0.0
H1237 H 0.39012 0.70113 0.17686 0.0
H1238 H 0.45726 0.79957 0.1806 0.0
H1239 H 0.37306 0.78458 0.12196 0.0
H1240 H 0.32185 0.77513 0.11238 0.0
H1241 H 0.31195 0.85559 0.15672 0.0
H1242 H 0.36322 0.86587 0.16603 0.0
H1243 H 0.50579 0.91008 0.05721 0.0
H1244 H 0.48347 0.86547 0.09113 0.0
H1245 H 0.44598 0.92862 0.13993 0.0
H1246 H 0.46868 0.97372 0.10616 0.0
H1247 H 0.40744 0.87661 0.12272 0.0
H1248 H 0.4959 0.89592 0.17156 0.0
H1249 H 0.5478 0.90513 0.1754 0.0
H1250 H 0.55049 0.8144 0.1461 0.0
H1251 H 0.49861 0.80484 0.14162 0.0
C1252 C 0.36071 0.75382 0.21187 0.0
C1253 C 0.36415 0.72481 0.20248 0.0
C1254 C 0.37906 0.78143 0.20166 0.0
C1255 C 0.40099 0.78043 0.18167 0.0
C1256 C 0.4059 0.751 0.17432 0.0
C1257 C 0.3875 0.72332 0.18464 0.0
C1258 C 0.41684 0.81013 0.16631 0.0
C1259 C 0.44642 0.81635 0.16782 0.0
C1260 C 0.40269 0.83224 0.1499 0.0
C1261 C 0.37184 0.82577 0.14497 0.0
C1262 C 0.35991 0.80013 0.1298 0.0
C1263 C 0.33092 0.79473 0.12429 0.0
C1264 C 0.31363 0.81459 0.13414 0.0
C1265 C 0.32535 0.84015 0.14921 0.0
C1266 C 0.35438 0.84589 0.15445 0.0
C1267 C 0.49305 0.9146 0.07533 0.0
C1268 C 0.48896 0.94546 0.07896 0.0
C1269 C 0.48043 0.88906 0.09479 0.0
C1270 C 0.46325 0.89376 0.11816 0.0
C1271 C 0.45931 0.92455 0.12211 0.0
C1272 C 0.47232 0.95026 0.10285 0.0
C1273 C 0.4479 0.86617 0.13702 0.0
C1274 C 0.41833 0.86017 0.13595 0.0
C1275 C 0.46216 0.84414 0.15338 0.0
C1276 C 0.49337 0.84979 0.15601 0.0
C1277 C 0.50757 0.87805 0.16567 0.0
C1278 C 0.53699 0.88331 0.16802 0.0
C1279 C 0.55244 0.8604 0.16094 0.0
C1280 C 0.53849 0.83214 0.15155 0.0
C1281 C 0.50908 0.82678 0.14913 0.0
H1282 H 0.57521 0.86451 0.16279 0.0
H1283 H 0.29117 0.81025 0.12999 0.0
H1284 H 0.20887 0.2892 0.71968 0.0
H1285 H 0.20017 0.24638 0.68734 0.0
H1286 H 0.12144 0.27554 0.66073 0.0
H1287 H 0.13054 0.31846 0.69243 0.0
H1288 H 0.15645 0.19595 0.68792 0.0
H1289 H 0.11238 0.26542 0.58649 0.0
H1290 H 0.11862 0.32009 0.56279 0.0
H1291 H 0.20107 0.33988 0.60018 0.0
H1292 H 0.19555 0.28521 0.62359 0.0
H1293 H 0.07429 0.09289 0.59748 0.0
H1294 H 0.09064 0.13669 0.62677 0.0
H1295 H 0.16141 0.16882 0.56697 0.0
H1296 H 0.14525 0.12518 0.5376 0.0
H1297 H 0.13708 0.21774 0.58161 0.0
H1298 H 0.1723 0.13001 0.63067 0.0
H1299 H 0.16971 0.07551 0.65389 0.0
H1300 H 0.11244 0.09285 0.72 0.0
H1301 H 0.11433 0.14735 0.69687 0.0
C1302 C 0.18993 0.28646 0.70661 0.0
C1303 C 0.17029 0.30683 0.7084 0.0
C1304 C 0.18483 0.26196 0.68844 0.0
C1305 C 0.16015 0.2578 0.67164 0.0
C1306 C 0.14068 0.27841 0.67335 0.0
C1307 C 0.14578 0.30278 0.69147 0.0
C1308 C 0.15455 0.23208 0.65214 0.0
C1309 C 0.15227 0.2007 0.66467 0.0
C1310 C 0.14969 0.23836 0.62166 0.0
C1311 C 0.15349 0.27115 0.60691 0.0
C1312 C 0.13195 0.28132 0.58944 0.0
C1313 C 0.13535 0.31235 0.57607 0.0
C1314 C 0.16022 0.33345 0.57996 0.0
C1315 C 0.18181 0.32353 0.59714 0.0
C1316 C 0.17856 0.29251 0.61044 0.0
C1317 C 0.09321 0.10941 0.59043 0.0
C1318 C 0.1085 0.1055 0.56523 0.0
C1319 C 0.10261 0.13433 0.60728 0.0
C1320 C 0.1274 0.15584 0.59919 0.0
C1321 C 0.14226 0.15248 0.57362 0.0
C1322 C 0.13301 0.12746 0.55691 0.0
C1323 C 0.13801 0.18162 0.61761 0.0
C1324 C 0.14129 0.21301 0.60485 0.0
C1325 C 0.14432 0.17538 0.64773 0.0
C1326 C 0.14325 0.14269 0.66186 0.0
C1327 C 0.15897 0.12214 0.65002 0.0
C1328 C 0.15766 0.09125 0.66319 0.0
C1329 C 0.14086 0.0807 0.68837 0.0
C1330 C 0.12541 0.10105 0.70047 0.0
C1331 C 0.12661 0.13195 0.68735 0.0
H1332 H 0.13987 0.05678 0.69854 0.0
H1333 H 0.16276 0.35748 0.56967 0.0
H1334 H 0.64727 0.19871 0.40191 0.0
H1335 H 0.62029 0.23752 0.41788 0.0
H1336 H 0.69225 0.31124 0.39766 0.0
H1337 H 0.71911 0.27221 0.38141 0.0
H1338 H 0.66505 0.31626 0.4502 0.0
H1339 H 0.64033 0.30101 0.34979 0.0
H1340 H 0.62332 0.27021 0.30879 0.0
H1341 H 0.54373 0.23775 0.35383 0.0
H1342 H 0.56044 0.26792 0.39537 0.0
H1343 H 0.59844 0.44689 0.45301 0.0
H1344 H 0.62416 0.40797 0.4359 0.0
H1345 H 0.54764 0.33882 0.44247 0.0
H1346 H 0.52132 0.3787 0.45778 0.0
H1347 H 0.57682 0.3303 0.39739 0.0
H1348 H 0.60088 0.34292 0.49827 0.0
H1349 H 0.61674 0.37338 0.53987 0.0
H1350 H 0.69621 0.40904 0.49552 0.0
H1351 H 0.68071 0.379 0.45355 0.0
C1352 C 0.65728 0.22319 0.40124 0.0
C1353 C 0.68505 0.23273 0.39037 0.0
C1354 C 0.64192 0.24529 0.4102 0.0
C1355 C 0.65414 0.2773 0.40845 0.0
C1356 C 0.68243 0.28664 0.39904 0.0
C1357 C 0.69777 0.26447 0.38993 0.0
C1358 C 0.63709 0.3011 0.41562 0.0
C1359 C 0.64593 0.31961 0.43846 0.0
C1360 C 0.61174 0.30479 0.40077 0.0
C1361 C 0.60173 0.28654 0.37582 0.0
C1362 C 0.6193 0.28708 0.35109 0.0
C1363 C 0.60969 0.26977 0.32772 0.0
C1364 C 0.58245 0.25207 0.32871 0.0
C1365 C 0.56482 0.25151 0.3531 0.0
C1366 C 0.57434 0.26871 0.37655 0.0
C1367 C 0.58704 0.42348 0.45043 0.0
C1368 C 0.558 0.41563 0.45693 0.0
C1369 C 0.6018 0.40117 0.44091 0.0
C1370 C 0.58811 0.37012 0.43889 0.0
C1371 C 0.55875 0.36255 0.44416 0.0
C1372 C 0.54373 0.38527 0.45289 0.0
C1373 C 0.60472 0.34558 0.43207 0.0
C1374 C 0.59584 0.32691 0.40927 0.0
C1375 C 0.62991 0.34145 0.44718 0.0
C1376 C 0.63958 0.35885 0.47273 0.0
C1377 C 0.62172 0.3573 0.49739 0.0
C1378 C 0.63064 0.37449 0.52102 0.0
C1379 C 0.65746 0.39316 0.52032 0.0
C1380 C 0.67546 0.39455 0.49605 0.0
C1381 C 0.66664 0.3774 0.47236 0.0
H1382 H 0.6643 0.40651 0.53861 0.0
H1383 H 0.57495 0.23885 0.31053 0.0
loop_
_geom_bond_atom_site_label_1
_geom_bond_atom_site_label_2
_geom_bond_distance
_geom_bond_site_symmetry_2
_ccdc_geom_bond_type
C0 N1 1.317 . S
C0 N2 1.348 . S
C0 C3 1.485 . S
N1 C0 1.317 . S
N1 N5 1.370 . S
N2 C0 1.348 . S
N2 C4 1.346 . S
C3 C0 1.485 . S
C3 H7 0.960 . S
C3 H8 0.961 . S
C3 H9 0.960 . S
C4 N2 1.346 . S
C4 N5 1.307 . S
C4 C6 1.486 . S
N5 N1 1.370 . S
N5 C4 1.307 . S
C6 C4 1.486 . S
C6 H10 0.960 . S
C6 H11 0.960 . S
C6 H12 0.959 . S
H7 C3 0.960 . S
H8 C3 0.961 . S
H9 C3 0.960 . S
H10 C6 0.960 . S
H11 C6 0.960 . S
H12 C6 0.959 . S
C13 N14 1.317 . S
C13 N15 1.348 . S
C13 C16 1.485 . S
N14 C13 1.317 . S
N14 N18 1.370 . S
N15 C13 1.348 . S
N15 C17 1.346 . S
C16 C13 1.485 . S
C16 H20 0.960 . S
C16 H21 0.961 . S
C16 H22 0.960 . S
C17 N15 1.346 . S
C17 N18 1.307 . S
C17 C19 1.486 . S
N18 N14 1.370 . S
N18 C17 1.307 . S
C19 C17 1.486 . S
C19 H23 0.960 . S
C19 H24 0.960 . S
C19 H25 0.959 . S
H20 C16 0.960 . S
H21 C16 0.961 . S
H22 C16 0.960 . S
H23 C19 0.960 . S
H24 C19 0.960 . S
H25 C19 0.959 . S
C26 N27 1.317 . S
C26 N28 1.348 . S
C26 C29 1.485 . S
N27 C26 1.317 . S
N27 N31 1.370 . S
N28 C26 1.348 . S
N28 C30 1.346 . S
C29 C26 1.485 . S
C29 H33 0.960 . S
C29 H34 0.961 . S
C29 H35 0.960 . S
C30 N28 1.346 . S
C30 N31 1.307 . S
C30 C32 1.486 . S
N31 N27 1.370 . S
N31 C30 1.307 . S
C32 C30 1.486 . S
C32 H36 0.960 . S
C32 H37 0.960 . S
C32 H38 0.959 . S
H33 C29 0.960 . S
H34 C29 0.961 . S
H35 C29 0.960 . S
H36 C32 0.960 . S
H37 C32 0.960 . S
H38 C32 0.959 . S
C39 N40 1.317 . S
C39 N41 1.348 . S
C39 C42 1.485 . S
N40 C39 1.317 . S
N40 N44 1.370 . S
N41 C39 1.348 . S
N41 C43 1.346 . S
C42 C39 1.485 . S
C42 H46 0.960 . S
C42 H47 0.961 . S
C42 H48 0.960 . S
C43 N41 1.346 . S
C43 N44 1.307 . S
C43 C45 1.486 . S
N44 N40 1.370 . S
N44 C43 1.307 . S
C45 C43 1.486 . S
C45 H49 0.960 . S
C45 H50 0.960 . S
C45 H51 0.959 . S
H46 C42 0.960 . S
H47 C42 0.961 . S
H48 C42 0.960 . S
H49 C45 0.960 . S
H50 C45 0.960 . S
H51 C45 0.959 . S
C52 N53 1.317 . S
C52 N54 1.348 . S
C52 C55 1.485 . S
N53 C52 1.317 . S
N53 N57 1.370 . S
N54 C52 1.348 . S
N54 C56 1.346 . S
C55 C52 1.485 . S
C55 H59 0.960 . S
C55 H60 0.961 . S
C55 H61 0.960 . S
C56 N54 1.346 . S
C56 N57 1.307 . S
C56 C58 1.486 . S
N57 N53 1.370 . S
N57 C56 1.307 . S
C58 C56 1.486 . S
C58 H62 0.960 . S
C58 H63 0.960 . S
C58 H64 0.959 . S
H59 C55 0.960 . S
H60 C55 0.961 . S
H61 C55 0.960 . S
H62 C58 0.960 . S
H63 C58 0.960 . S
H64 C58 0.959 . S
C65 N66 1.317 . S
C65 N67 1.348 . S
C65 C68 1.485 . S
N66 C65 1.317 . S
N66 N70 1.370 . S
N67 C65 1.348 . S
N67 C69 1.346 . S
C68 C65 1.485 . S
C68 H72 0.960 . S
C68 H73 0.961 . S
C68 H74 0.960 . S
C69 N67 1.346 . S
C69 N70 1.307 . S
C69 C71 1.486 . S
N70 N66 1.370 . S
N70 C69 1.307 . S
C71 C69 1.486 . S
C71 H75 0.960 . S
C71 H76 0.960 . S
C71 H77 0.959 . S
H72 C68 0.960 . S
H73 C68 0.961 . S
H74 C68 0.960 . S
H75 C71 0.960 . S
H76 C71 0.960 . S
H77 C71 0.959 . S
C78 N79 1.317 . S
C78 N80 1.348 . S
C78 C81 1.485 . S
N79 C78 1.317 . S
N79 N83 1.370 . S
N80 C78 1.348 . S
N80 C82 1.346 . S
C81 C78 1.485 . S
C81 H85 0.960 . S
C81 H86 0.961 . S
C81 H87 0.960 . S
C82 N80 1.346 . S
C82 N83 1.307 . S
C82 C84 1.486 . S
N83 N79 1.370 . S
N83 C82 1.307 . S
C84 C82 1.486 . S
C84 H88 0.960 . S
C84 H89 0.960 . S
C84 H90 0.959 . S
H85 C81 0.960 . S
H86 C81 0.961 . S
H87 C81 0.960 . S
H88 C84 0.960 . S
H89 C84 0.960 . S
H90 C84 0.959 . S
C91 N92 1.317 . S
C91 N93 1.348 . S
C91 C94 1.485 . S
N92 C91 1.317 . S
N92 N96 1.370 . S
N93 C91 1.348 . S
N93 C95 1.346 . S
C94 C91 1.485 . S
C94 H98 0.960 . S
C94 H99 0.961 . S
C94 H100 0.960 . S
C95 N93 1.346 . S
C95 N96 1.307 . S
C95 C97 1.486 . S
N96 N92 1.370 . S
N96 C95 1.307 . S
C97 C95 1.486 . S
C97 H101 0.960 . S
C97 H102 0.960 . S
C97 H103 0.959 . S
H98 C94 0.960 . S
H99 C94 0.961 . S
H100 C94 0.960 . S
H101 C97 0.960 . S
H102 C97 0.960 . S
H103 C97 0.959 . S
Zn104 O110 1.969 1_545 S
Zn104 O111 1.965 1_545 S
Zn104 O115 2.024 . S
Zn104 O120 1.969 . S
Zn105 O112 1.971 1_455 S
Zn105 O118 1.958 1_465 S
Zn105 O119 1.956 1_565 S
Zn105 O121 2.036 . S
C106 O107 1.229 . S
C106 O115 1.058 . S
O107 C106 1.229 . S
C108 O109 1.229 . S
C108 O121 1.058 1_655 S
O109 C108 1.229 . S
O110 Zn104 1.969 1_565 S
O110 C113 1.267 . S
O111 Zn104 1.965 1_565 S
O111 C122 1.260 . S
O112 Zn105 1.971 1_655 S
O112 C122 1.230 1_655 S
C113 O110 1.267 . S
C113 O114 1.228 . S
O114 C113 1.228 . S
O115 Zn104 2.024 . S
O115 C106 1.058 . S
C116 O117 1.228 . S
C116 O118 1.267 . S
O117 C116 1.228 . S
O118 Zn105 1.958 1_645 S
O118 C116 1.267 . S
O119 Zn105 1.956 1_545 S
O119 C123 1.260 . S
O120 Zn104 1.969 . S
O120 C123 1.258 . S
O121 Zn105 2.036 . S
O121 C108 1.058 1_455 S
C122 O111 1.260 . S
C122 O112 1.230 1_455 S
C123 O119 1.260 . S
C123 O120 1.258 . S
Zn124 O130 1.969 . S
Zn124 O131 1.965 1_565 S
Zn124 O135 2.024 1_554 S
Zn124 O140 1.969 . S
Zn125 O132 1.969 . S
Zn125 O138 1.969 . S
Zn125 O139 1.965 . S
Zn125 O141 2.024 . S
C126 O127 1.229 . S
C126 O135 1.058 . S
O127 C126 1.229 . S
C128 O129 1.229 . S
C128 O141 1.058 . S
O129 C128 1.229 . S
O130 Zn124 1.969 . S
O130 C133 1.267 1_554 S
O131 Zn124 1.965 1_545 S
O131 C142 1.260 . S
O132 Zn125 1.969 . S
O132 C142 1.258 . S
C133 O130 1.267 1_556 S
C133 O134 1.228 . S
O134 C133 1.228 . S
O135 Zn124 2.024 1_556 S
O135 C126 1.058 . S
C136 O137 1.228 . S
C136 O138 1.267 . S
O137 C136 1.228 . S
O138 Zn125 1.969 . S
O138 C136 1.267 . S
O139 Zn125 1.965 . S
O139 C143 1.260 1_545 S
O140 Zn124 1.969 . S
O140 C143 1.258 . S
O141 Zn125 2.024 . S
O141 C128 1.058 . S
C142 O131 1.260 . S
C142 O132 1.258 . S
C143 O139 1.260 1_565 S
C143 O140 1.258 . S
Zn144 O150 1.969 . S
Zn144 O151 1.965 . S
Zn144 O155 2.024 . S
Zn144 O160 1.969 . S
Zn145 O152 1.969 . S
Zn145 O158 1.969 . S
Zn145 O159 1.965 . S
Zn145 O161 2.024 . S
C146 O147 1.229 . S
C146 O155 1.058 . S
O147 C146 1.229 . S
C148 O149 1.229 . S
C148 O161 1.058 . S
O149 C148 1.229 . S
O150 Zn144 1.969 . S
O150 C153 1.267 . S
O151 Zn144 1.965 . S
O151 C162 1.260 . S
O152 Zn145 1.969 . S
O152 C162 1.258 . S
C153 O150 1.267 . S
C153 O154 1.228 . S
O154 C153 1.228 . S
O155 Zn144 2.024 . S
O155 C146 1.058 . S
C156 O157 1.228 . S
C156 O158 1.267 . S
O157 C156 1.228 . S
O158 Zn145 1.969 . S
O158 C156 1.267 . S
O159 Zn145 1.965 . S
O159 C163 1.260 . S
O160 Zn144 1.969 . S
O160 C163 1.258 . S
O161 Zn145 2.024 . S
O161 C148 1.058 . S
C162 O151 1.260 . S
C162 O152 1.258 . S
C163 O159 1.260 . S
C163 O160 1.258 . S
Zn164 O170 1.969 . S
Zn164 O171 1.965 1_556 S
Zn164 O175 2.024 . S
Zn164 O180 1.969 1_655 S
Zn165 O172 1.969 . S
Zn165 O178 1.969 . S
Zn165 O179 1.965 1_554 S
Zn165 O181 2.024 . S
C166 O167 1.229 . S
C166 O175 1.058 . S
O167 C166 1.229 . S
C168 O169 1.229 . S
C168 O181 1.058 . S
O169 C168 1.229 . S
O170 Zn164 1.969 . S
O170 C173 1.267 . S
O171 Zn164 1.965 1_554 S
O171 C182 1.260 . S
O172 Zn165 1.969 . S
O172 C182 1.258 1_455 S
C173 O170 1.267 . S
C173 O174 1.228 . S
O174 C173 1.228 . S
O175 Zn164 2.024 . S
O175 C166 1.058 . S
C176 O177 1.228 . S
C176 O178 1.267 . S
O177 C176 1.228 . S
O178 Zn165 1.969 . S
O178 C176 1.267 . S
O179 Zn165 1.965 1_556 S
O179 C183 1.260 . S
O180 Zn164 1.969 1_455 S
O180 C183 1.258 . S
O181 Zn165 2.024 . S
O181 C168 1.058 . S
C182 O171 1.260 . S
C182 O172 1.258 1_655 S
C183 O179 1.260 . S
C183 O180 1.258 . S
H184 C202 0.951 . S
H185 C204 0.951 . S
H186 C206 0.950 . S
H187 C207 0.950 . S
H188 C209 0.950 . S
H189 C212 0.950 . S
H190 C213 0.950 . S
H191 C215 0.950 . S
H192 C216 0.950 . S
H193 C217 0.951 . S
H194 C219 0.951 . S
H195 C221 0.950 . S
H196 C222 0.950 . S
H197 C224 0.950 . S
H198 C227 0.950 . S
H199 C228 0.950 1_565 S
H200 C230 0.950 . S
H201 C231 0.950 . S
C202 H184 0.951 . S
C202 C203 1.366 . S
C202 C204 1.388 . S
C203 C202 1.366 . S
C203 C207 1.385 . S
C204 H185 0.951 . S
C204 C202 1.388 . S
C204 C205 1.366 . S
C205 C204 1.366 . S
C205 C206 1.414 . S
C205 C208 1.499 . S
C206 H186 0.950 . S
C206 C205 1.414 . S
C206 C207 1.374 . S
C207 H187 0.950 . S
C207 C203 1.385 . S
C207 C206 1.374 . S
C208 C205 1.499 . S
C208 C209 1.373 . S
C208 C210 1.389 . S
C209 H188 0.950 . S
C209 C208 1.373 . S
C209 C225 1.377 . S
C210 C208 1.389 . S
C210 C211 1.524 . S
C210 C224 1.377 . S
C211 C210 1.524 . S
C211 C212 1.397 . S
C211 C216 1.363 . S
C212 H189 0.950 . S
C212 C211 1.397 . S
C212 C213 1.334 . S
C213 H190 0.950 . S
C213 C212 1.334 . S
C213 C214 1.287 . S
C214 C213 1.287 . S
C214 C215 1.524 . S
C214 H233 0.913 . S
C215 H191 0.950 . S
C215 C214 1.524 . S
C215 C216 1.415 . S
C216 H192 0.950 . S
C216 C211 1.363 . S
C216 C215 1.415 . S
C217 H193 0.951 . S
C217 C218 1.366 . S
C217 C219 1.388 . S
C218 C217 1.366 . S
C218 C222 1.385 . S
C219 H194 0.951 . S
C219 C217 1.388 . S
C219 C220 1.366 . S
C220 C219 1.366 . S
C220 C221 1.414 . S
C220 C223 1.499 . S
C221 H195 0.950 . S
C221 C220 1.414 . S
C221 C222 1.374 . S
C222 H196 0.950 . S
C222 C218 1.385 . S
C222 C221 1.374 . S
C223 C220 1.499 . S
C223 C224 1.373 . S
C223 C225 1.389 . S
C224 H197 0.950 . S
C224 C210 1.377 . S
C224 C223 1.373 . S
C225 C209 1.377 . S
C225 C223 1.389 . S
C225 C226 1.524 . S
C226 C225 1.524 . S
C226 C227 1.397 . S
C226 C231 1.363 . S
C227 H198 0.950 . S
C227 C226 1.397 . S
C227 C228 1.334 . S
C228 H199 0.950 1_545 S
C228 C227 1.334 . S
C228 C229 1.287 . S
C229 C228 1.287 . S
C229 C230 1.524 . S
C229 H232 0.999 . S
C230 H200 0.950 . S
C230 C229 1.524 . S
C230 C231 1.415 . S
C231 H201 0.950 . S
C231 C226 1.363 . S
C231 C230 1.415 . S
H232 C229 0.999 . S
H233 C214 0.913 . S
H234 C252 0.951 . S
H235 C254 0.951 . S
H236 C256 0.950 . S
H237 C257 0.950 . S
H238 C259 0.950 . S
H239 C262 0.950 . S
H240 C263 0.950 . S
H241 C265 0.950 . S
H242 C266 0.950 . S
H243 C267 0.951 . S
H244 C269 0.951 . S
H245 C271 0.950 . S
H246 C272 0.950 . S
H247 C274 0.950 . S
H248 C277 0.950 . S
H249 C278 0.950 . S
H250 C280 0.950 . S
H251 C281 0.950 . S
C252 H234 0.951 . S
C252 C253 1.366 . S
C252 C254 1.388 . S
C253 C252 1.366 . S
C253 C257 1.385 . S
C254 H235 0.951 . S
C254 C252 1.388 . S
C254 C255 1.366 . S
C255 C254 1.366 . S
C255 C256 1.414 . S
C255 C258 1.499 . S
C256 H236 0.950 . S
C256 C255 1.414 . S
C256 C257 1.374 . S
C257 H237 0.950 . S
C257 C253 1.385 . S
C257 C256 1.374 . S
C258 C255 1.499 . S
C258 C259 1.373 . S
C258 C260 1.389 . S
C259 H238 0.950 . S
C259 C258 1.373 . S
C259 C275 1.377 . S
C260 C258 1.389 . S
C260 C261 1.524 . S
C260 C274 1.377 . S
C261 C260 1.524 . S
C261 C262 1.397 . S
C261 C266 1.363 . S
C262 H239 0.950 . S
C262 C261 1.397 . S
C262 C263 1.334 . S
C263 H240 0.950 . S
C263 C262 1.334 . S
C263 C264 1.287 . S
C264 C263 1.287 . S
C264 C265 1.524 . S
C264 H283 0.913 . S
C265 H241 0.950 . S
C265 C264 1.524 . S
C265 C266 1.415 . S
C266 H242 0.950 . S
C266 C261 1.363 . S
C266 C265 1.415 . S
C267 H243 0.951 . S
C267 C268 1.366 . S
C267 C269 1.388 . S
C268 C267 1.366 . S
C268 C272 1.385 . S
C269 H244 0.951 . S
C269 C267 1.388 . S
C269 C270 1.366 . S
C270 C269 1.366 . S
C270 C271 1.414 . S
C270 C273 1.499 . S
C271 H245 0.950 . S
C271 C270 1.414 . S
C271 C272 1.374 . S
C272 H246 0.950 . S
C272 C268 1.385 . S
C272 C271 1.374 . S
C273 C270 1.499 . S
C273 C274 1.373 . S
C273 C275 1.389 . S
C274 H247 0.950 . S
C274 C260 1.377 . S
C274 C273 1.373 . S
C275 C259 1.377 . S
C275 C273 1.389 . S
C275 C276 1.524 . S
C276 C275 1.524 . S
C276 C277 1.397 . S
C276 C281 1.363 . S
C277 H248 0.950 . S
C277 C276 1.397 . S
C277 C278 1.334 . S
C278 H249 0.950 . S
C278 C277 1.334 . S
C278 C279 1.287 . S
C279 C278 1.287 . S
C279 C280 1.524 . S
C279 H282 0.999 . S
C280 H250 0.950 . S
C280 C279 1.524 . S
C280 C281 1.415 . S
C281 H251 0.950 . S
C281 C276 1.363 . S
C281 C280 1.415 . S
H282 C279 0.999 . S
H283 C264 0.913 . S
H284 C302 0.951 . S
H285 C304 0.951 . S
H286 C306 0.950 . S
H287 C307 0.950 . S
H288 C309 0.950 . S
H289 C312 0.950 . S
H290 C313 0.950 . S
H291 C315 0.950 . S
H292 C316 0.950 . S
H293 C317 0.951 . S
H294 C319 0.951 . S
H295 C321 0.950 . S
H296 C322 0.950 . S
H297 C324 0.950 . S
H298 C327 0.950 . S
H299 C328 0.950 . S
H300 C330 0.950 . S
H301 C331 0.950 . S
C302 H284 0.951 . S
C302 C303 1.366 . S
C302 C304 1.388 . S
C303 C302 1.366 . S
C303 C307 1.385 . S
C304 H285 0.951 . S
C304 C302 1.388 . S
C304 C305 1.366 . S
C305 C304 1.366 . S
C305 C306 1.414 . S
C305 C308 1.499 . S
C306 H286 0.950 . S
C306 C305 1.414 . S
C306 C307 1.374 . S
C307 H287 0.950 . S
C307 C303 1.385 . S
C307 C306 1.374 . S
C308 C305 1.499 . S
C308 C309 1.373 . S
C308 C310 1.389 . S
C309 H288 0.950 . S
C309 C308 1.373 . S
C309 C325 1.377 . S
C310 C308 1.389 . S
C310 C311 1.524 . S
C310 C324 1.377 . S
C311 C310 1.524 . S
C311 C312 1.397 . S
C311 C316 1.363 . S
C312 H289 0.950 . S
C312 C311 1.397 . S
C312 C313 1.334 . S
C313 H290 0.950 . S
C313 C312 1.334 . S
C313 C314 1.287 . S
C314 C313 1.287 . S
C314 C315 1.524 . S
C314 H333 0.913 . S
C315 H291 0.950 . S
C315 C314 1.524 . S
C315 C316 1.415 . S
C316 H292 0.950 . S
C316 C311 1.363 . S
C316 C315 1.415 . S
C317 H293 0.951 . S
C317 C318 1.366 . S
C317 C319 1.388 . S
C318 C317 1.366 . S
C318 C322 1.385 . S
C319 H294 0.951 . S
C319 C317 1.388 . S
C319 C320 1.366 . S
C320 C319 1.366 . S
C320 C321 1.414 . S
C320 C323 1.499 . S
C321 H295 0.950 . S
C321 C320 1.414 . S
C321 C322 1.374 . S
C322 H296 0.950 . S
C322 C318 1.385 . S
C322 C321 1.374 . S
C323 C320 1.499 . S
C323 C324 1.373 . S
C323 C325 1.389 . S
C324 H297 0.950 . S
C324 C310 1.377 . S
C324 C323 1.373 . S
C325 C309 1.377 . S
C325 C323 1.389 . S
C325 C326 1.524 . S
C326 C325 1.524 . S
C326 C327 1.397 . S
C326 C331 1.363 . S
C327 H298 0.950 . S
C327 C326 1.397 . S
C327 C328 1.334 . S
C328 H299 0.950 . S
C328 C327 1.334 . S
C328 C329 1.287 . S
C329 C328 1.287 . S
C329 C330 1.524 . S
C329 H332 0.999 . S
C330 H300 0.950 . S
C330 C329 1.524 . S
C330 C331 1.415 . S
C331 H301 0.950 . S
C331 C326 1.363 . S
C331 C330 1.415 . S
H332 C329 0.999 . S
H333 C314 0.913 . S
H334 C352 0.951 . S
H335 C354 0.951 . S
H336 C356 0.950 . S
H337 C357 0.950 . S
H338 C359 0.950 . S
H339 C362 0.950 . S
H340 C363 0.950 . S
H341 C365 0.950 . S
H342 C366 0.950 . S
H343 C367 0.951 . S
H344 C369 0.951 . S
H345 C371 0.950 . S
H346 C372 0.950 . S
H347 C374 0.950 . S
H348 C377 0.950 . S
H349 C378 0.950 . S
H350 C380 0.950 . S
H351 C381 0.950 . S
C352 H334 0.951 . S
C352 C353 1.366 . S
C352 C354 1.388 . S
C353 C352 1.366 . S
C353 C357 1.385 . S
C354 H335 0.951 . S
C354 C352 1.388 . S
C354 C355 1.366 . S
C355 C354 1.366 . S
C355 C356 1.414 . S
C355 C358 1.499 . S
C356 H336 0.950 . S
C356 C355 1.414 . S
C356 C357 1.374 . S
C357 H337 0.950 . S
C357 C353 1.385 . S
C357 C356 1.374 . S
C358 C355 1.499 . S
C358 C359 1.373 . S
C358 C360 1.389 . S
C359 H338 0.950 . S
C359 C358 1.373 . S
C359 C375 1.377 . S
C360 C358 1.389 . S
C360 C361 1.524 . S
C360 C374 1.377 . S
C361 C360 1.524 . S
C361 C362 1.397 . S
C361 C366 1.363 . S
C362 H339 0.950 . S
C362 C361 1.397 . S
C362 C363 1.334 . S
C363 H340 0.950 . S
C363 C362 1.334 . S
C363 C364 1.287 . S
C364 C363 1.287 . S
C364 C365 1.524 . S
C364 H383 0.913 . S
C365 H341 0.950 . S
C365 C364 1.524 . S
C365 C366 1.415 . S
C366 H342 0.950 . S
C366 C361 1.363 . S
C366 C365 1.415 . S
C367 H343 0.951 . S
C367 C368 1.366 . S
C367 C369 1.388 . S
C368 C367 1.366 . S
C368 C372 1.385 . S
C369 H344 0.951 . S
C369 C367 1.388 . S
C369 C370 1.366 . S
C370 C369 1.366 . S
C370 C371 1.414 . S
C370 C373 1.499 . S
C371 H345 0.950 . S
C371 C370 1.414 . S
C371 C372 1.374 . S
C372 H346 0.950 . S
C372 C368 1.385 . S
C372 C371 1.374 . S
C373 C370 1.499 . S
C373 C374 1.373 . S
C373 C375 1.389 . S
C374 H347 0.950 . S
C374 C360 1.377 . S
C374 C373 1.373 . S
C375 C359 1.377 . S
C375 C373 1.389 . S
C375 C376 1.524 . S
C376 C375 1.524 . S
C376 C377 1.397 . S
C376 C381 1.363 . S
C377 H348 0.950 . S
C377 C376 1.397 . S
C377 C378 1.334 . S
C378 H349 0.950 . S
C378 C377 1.334 . S
C378 C379 1.287 . S
C379 C378 1.287 . S
C379 C380 1.524 . S
C379 H382 0.999 . S
C380 H350 0.950 . S
C380 C379 1.524 . S
C380 C381 1.415 . S
C381 H351 0.950 . S
C381 C376 1.363 . S
C381 C380 1.415 . S
H382 C379 0.999 . S
H383 C364 0.913 . S
H384 C402 0.951 . S
H385 C404 0.951 . S
H386 C406 0.950 . S
H387 C407 0.950 . S
H388 C409 0.950 . S
H389 C412 0.950 . S
H390 C413 0.950 . S
H391 C415 0.950 . S
H392 C416 0.950 . S
H393 C417 0.951 . S
H394 C419 0.951 . S
H395 C421 0.950 . S
H396 C422 0.950 . S
H397 C424 0.950 . S
H398 C427 0.950 . S
H399 C428 0.950 . S
H400 C430 0.950 . S
H401 C431 0.950 . S
C402 H384 0.951 . S
C402 C403 1.366 . S
C402 C404 1.388 . S
C403 C402 1.366 . S
C403 C407 1.385 . S
C404 H385 0.951 . S
C404 C402 1.388 . S
C404 C405 1.366 . S
C405 C404 1.366 . S
C405 C406 1.414 . S
C405 C408 1.499 . S
C406 H386 0.950 . S
C406 C405 1.414 . S
C406 C407 1.374 . S
C407 H387 0.950 . S
C407 C403 1.385 . S
C407 C406 1.374 . S
C408 C405 1.499 . S
C408 C409 1.373 . S
C408 C410 1.389 . S
C409 H388 0.950 . S
C409 C408 1.373 . S
C409 C425 1.377 . S
C410 C408 1.389 . S
C410 C411 1.524 . S
C410 C424 1.377 . S
C411 C410 1.524 . S
C411 C412 1.397 . S
C411 C416 1.363 . S
C412 H389 0.950 . S
C412 C411 1.397 . S
C412 C413 1.334 . S
C413 H390 0.950 . S
C413 C412 1.334 . S
C413 C414 1.287 . S
C414 C413 1.287 . S
C414 C415 1.524 . S
C414 H433 0.913 . S
C415 H391 0.950 . S
C415 C414 1.524 . S
C415 C416 1.415 . S
C416 H392 0.950 . S
C416 C411 1.363 . S
C416 C415 1.415 . S
C417 H393 0.951 . S
C417 C418 1.366 . S
C417 C419 1.388 . S
C418 C417 1.366 . S
C418 C422 1.385 . S
C419 H394 0.951 . S
C419 C417 1.388 . S
C419 C420 1.366 . S
C420 C419 1.366 . S
C420 C421 1.414 . S
C420 C423 1.499 . S
C421 H395 0.950 . S
C421 C420 1.414 . S
C421 C422 1.374 . S
C422 H396 0.950 . S
C422 C418 1.385 . S
C422 C421 1.374 . S
C423 C420 1.499 . S
C423 C424 1.373 . S
C423 C425 1.389 . S
C424 H397 0.950 . S
C424 C410 1.377 . S
C424 C423 1.373 . S
C425 C409 1.377 . S
C425 C423 1.389 . S
C425 C426 1.524 . S
C426 C425 1.524 . S
C426 C427 1.397 . S
C426 C431 1.363 . S
C427 H398 0.950 . S
C427 C426 1.397 . S
C427 C428 1.334 . S
C428 H399 0.950 . S
C428 C427 1.334 . S
C428 C429 1.287 . S
C429 C428 1.287 . S
C429 C430 1.524 . S
C429 H432 0.999 . S
C430 H400 0.950 . S
C430 C429 1.524 . S
C430 C431 1.415 . S
C431 H401 0.950 . S
C431 C426 1.363 . S
C431 C430 1.415 . S
H432 C429 0.999 . S
H433 C414 0.913 . S
H434 C452 0.951 . S
H435 C454 0.951 . S
H436 C456 0.950 . S
H437 C457 0.950 . S
H438 C459 0.950 . S
H439 C462 0.950 . S
H440 C463 0.950 . S
H441 C465 0.950 . S
H442 C466 0.950 . S
H443 C467 0.951 . S
H444 C469 0.951 . S
H445 C471 0.950 . S
H446 C472 0.950 . S
H447 C474 0.950 . S
H448 C477 0.950 . S
H449 C478 0.950 1_545 S
H450 C480 0.950 . S
H451 C481 0.950 . S
C452 H434 0.951 . S
C452 C453 1.366 . S
C452 C454 1.388 . S
C453 C452 1.366 . S
C453 C457 1.385 . S
C454 H435 0.951 . S
C454 C452 1.388 . S
C454 C455 1.366 . S
C455 C454 1.366 . S
C455 C456 1.414 . S
C455 C458 1.499 . S
C456 H436 0.950 . S
C456 C455 1.414 . S
C456 C457 1.374 . S
C457 H437 0.950 . S
C457 C453 1.385 . S
C457 C456 1.374 . S
C458 C455 1.499 . S
C458 C459 1.373 . S
C458 C460 1.389 . S
C459 H438 0.950 . S
C459 C458 1.373 . S
C459 C475 1.377 . S
C460 C458 1.389 . S
C460 C461 1.524 . S
C460 C474 1.377 . S
C461 C460 1.524 . S
C461 C462 1.397 . S
C461 C466 1.363 . S
C462 H439 0.950 . S
C462 C461 1.397 . S
C462 C463 1.334 . S
C463 H440 0.950 . S
C463 C462 1.334 . S
C463 C464 1.287 . S
C464 C463 1.287 . S
C464 C465 1.524 . S
C464 H483 0.913 . S
C465 H441 0.950 . S
C465 C464 1.524 . S
C465 C466 1.415 . S
C466 H442 0.950 . S
C466 C461 1.363 . S
C466 C465 1.415 . S
C467 H443 0.951 . S
C467 C468 1.366 . S
C467 C469 1.388 . S
C468 C467 1.366 . S
C468 C472 1.385 . S
C469 H444 0.951 . S
C469 C467 1.388 . S
C469 C470 1.366 . S
C470 C469 1.366 . S
C470 C471 1.414 . S
C470 C473 1.499 . S
C471 H445 0.950 . S
C471 C470 1.414 . S
C471 C472 1.374 . S
C472 H446 0.950 . S
C472 C468 1.385 . S
C472 C471 1.374 . S
C473 C470 1.499 . S
C473 C474 1.373 . S
C473 C475 1.389 . S
C474 H447 0.950 . S
C474 C460 1.377 . S
C474 C473 1.373 . S
C475 C459 1.377 . S
C475 C473 1.389 . S
C475 C476 1.524 . S
C476 C475 1.524 . S
C476 C477 1.397 . S
C476 C481 1.363 . S
C477 H448 0.950 . S
C477 C476 1.397 . S
C477 C478 1.334 . S
C478 H449 0.950 1_565 S
C478 C477 1.334 . S
C478 C479 1.287 . S
C479 C478 1.287 . S
C479 C480 1.524 . S
C479 H482 0.999 1_565 S
C480 H450 0.950 . S
C480 C479 1.524 . S
C480 C481 1.415 . S
C481 H451 0.950 . S
C481 C476 1.363 . S
C481 C480 1.415 . S
H482 C479 0.999 1_545 S
H483 C464 0.913 . S
H484 C502 0.951 . S
H485 C504 0.951 . S
H486 C506 0.950 . S
H487 C507 0.950 . S
H488 C509 0.950 . S
H489 C512 0.950 . S
H490 C513 0.950 . S
H491 C515 0.950 . S
H492 C516 0.950 . S
H493 C517 0.951 . S
H494 C519 0.951 . S
H495 C521 0.950 . S
H496 C522 0.950 . S
H497 C524 0.950 . S
H498 C527 0.950 . S
H499 C528 0.945 1_554 S
H500 C530 0.946 1_554 S
H501 C531 0.950 . S
C502 H484 0.951 . S
C502 C503 1.366 . S
C502 C504 1.388 . S
C503 C502 1.366 . S
C503 C507 1.385 . S
C504 H485 0.951 . S
C504 C502 1.388 . S
C504 C505 1.366 . S
C505 C504 1.366 . S
C505 C506 1.414 . S
C505 C508 1.499 . S
C506 H486 0.950 . S
C506 C505 1.414 . S
C506 C507 1.374 . S
C507 H487 0.950 . S
C507 C503 1.385 . S
C507 C506 1.374 . S
C508 C505 1.499 . S
C508 C509 1.373 . S
C508 C510 1.389 . S
C509 H488 0.950 . S
C509 C508 1.373 . S
C509 C525 1.377 . S
C510 C508 1.389 . S
C510 C511 1.524 . S
C510 C524 1.377 . S
C511 C510 1.524 . S
C511 C512 1.397 . S
C511 C516 1.363 . S
C512 H489 0.950 . S
C512 C511 1.397 . S
C512 C513 1.334 . S
C513 H490 0.950 . S
C513 C512 1.334 . S
C513 C514 1.287 . S
C514 C513 1.287 . S
C514 C515 1.524 . S
C514 H533 0.913 . S
C515 H491 0.950 . S
C515 C514 1.524 . S
C515 C516 1.415 . S
C516 H492 0.950 . S
C516 C511 1.363 . S
C516 C515 1.415 . S
C517 H493 0.951 . S
C517 C518 1.366 . S
C517 C519 1.388 . S
C518 C517 1.366 . S
C518 C522 1.385 . S
C519 H494 0.951 . S
C519 C517 1.388 . S
C519 C520 1.366 . S
C520 C519 1.366 . S
C520 C521 1.414 . S
C520 C523 1.499 . S
C521 H495 0.950 . S
C521 C520 1.414 . S
C521 C522 1.374 . S
C522 H496 0.950 . S
C522 C518 1.385 . S
C522 C521 1.374 . S
C523 C520 1.499 . S
C523 C524 1.373 . S
C523 C525 1.389 . S
C524 H497 0.950 . S
C524 C510 1.377 . S
C524 C523 1.373 . S
C525 C509 1.377 . S
C525 C523 1.389 . S
C525 C526 1.524 . S
C526 C525 1.524 . S
C526 C527 1.397 . S
C526 C531 1.363 . S
C527 H498 0.950 . S
C527 C526 1.397 . S
C527 C528 1.334 . S
C528 H499 0.945 1_556 S
C528 C527 1.334 . S
C528 C529 1.287 1_556 S
C529 C528 1.287 1_554 S
C529 C530 1.522 1_554 S
C529 H532 0.999 . S
C530 H500 0.946 1_556 S
C530 C529 1.522 1_556 S
C530 C531 1.421 . S
C531 H501 0.950 . S
C531 C526 1.363 . S
C531 C530 1.421 . S
H532 C529 0.999 . S
H533 C514 0.913 . S
H534 C552 0.951 . S
H535 C554 0.951 . S
H536 C556 0.950 . S
H537 C557 0.950 . S
H538 C559 0.950 . S
H539 C562 0.950 . S
H540 C563 0.950 . S
H541 C565 0.950 . S
H542 C566 0.950 . S
H543 C567 0.951 . S
H544 C569 0.951 . S
H545 C571 0.950 . S
H546 C572 0.950 . S
H547 C574 0.950 . S
H548 C577 0.950 . S
H549 C578 0.950 . S
H550 C580 0.950 . S
H551 C581 0.950 . S
C552 H534 0.951 . S
C552 C553 1.366 . S
C552 C554 1.388 . S
C553 C552 1.366 . S
C553 C557 1.385 . S
C554 H535 0.951 . S
C554 C552 1.388 . S
C554 C555 1.366 . S
C555 C554 1.366 . S
C555 C556 1.414 . S
C555 C558 1.499 . S
C556 H536 0.950 . S
C556 C555 1.414 . S
C556 C557 1.374 . S
C557 H537 0.950 . S
C557 C553 1.385 . S
C557 C556 1.374 . S
C558 C555 1.499 . S
C558 C559 1.373 . S
C558 C560 1.389 . S
C559 H538 0.950 . S
C559 C558 1.373 . S
C559 C575 1.377 . S
C560 C558 1.389 . S
C560 C561 1.524 . S
C560 C574 1.377 . S
C561 C560 1.524 . S
C561 C562 1.397 . S
C561 C566 1.363 . S
C562 H539 0.950 . S
C562 C561 1.397 . S
C562 C563 1.334 . S
C563 H540 0.950 . S
C563 C562 1.334 . S
C563 C564 1.287 . S
C564 C563 1.287 . S
C564 C565 1.524 . S
C564 H583 0.913 . S
C565 H541 0.950 . S
C565 C564 1.524 . S
C565 C566 1.415 . S
C566 H542 0.950 . S
C566 C561 1.363 . S
C566 C565 1.415 . S
C567 H543 0.951 . S
C567 C568 1.366 . S
C567 C569 1.388 . S
C568 C567 1.366 . S
C568 C572 1.385 . S
C569 H544 0.951 . S
C569 C567 1.388 . S
C569 C570 1.366 . S
C570 C569 1.366 . S
C570 C571 1.414 . S
C570 C573 1.499 . S
C571 H545 0.950 . S
C571 C570 1.414 . S
C571 C572 1.374 . S
C572 H546 0.950 . S
C572 C568 1.385 . S
C572 C571 1.374 . S
C573 C570 1.499 . S
C573 C574 1.373 . S
C573 C575 1.389 . S
C574 H547 0.950 . S
C574 C560 1.377 . S
C574 C573 1.373 . S
C575 C559 1.377 . S
C575 C573 1.389 . S
C575 C576 1.524 . S
C576 C575 1.524 . S
C576 C577 1.397 . S
C576 C581 1.363 . S
C577 H548 0.950 . S
C577 C576 1.397 . S
C577 C578 1.334 . S
C578 H549 0.950 . S
C578 C577 1.334 . S
C578 C579 1.287 . S
C579 C578 1.287 . S
C579 C580 1.524 . S
C579 H582 0.999 . S
C580 H550 0.950 . S
C580 C579 1.524 . S
C580 C581 1.415 . S
C581 H551 0.950 . S
C581 C576 1.363 . S
C581 C580 1.415 . S
H582 C579 0.999 . S
H583 C564 0.913 . S
H584 C602 0.951 . S
H585 C604 0.951 . S
H586 C606 0.950 . S
H587 C607 0.950 . S
H588 C609 0.950 . S
H589 C612 0.950 . S
H590 C613 0.950 . S
H591 C615 0.950 . S
H592 C616 0.950 . S
H593 C617 0.951 . S
H594 C619 0.951 . S
H595 C621 0.950 . S
H596 C622 0.950 . S
H597 C624 0.950 . S
H598 C627 0.950 . S
H599 C628 0.950 . S
H600 C630 0.950 . S
H601 C631 0.950 . S
C602 H584 0.951 . S
C602 C603 1.366 . S
C602 C604 1.388 . S
C603 C602 1.366 . S
C603 C607 1.385 . S
C604 H585 0.951 . S
C604 C602 1.388 . S
C604 C605 1.366 . S
C605 C604 1.366 . S
C605 C606 1.414 . S
C605 C608 1.499 . S
C606 H586 0.950 . S
C606 C605 1.414 . S
C606 C607 1.374 . S
C607 H587 0.950 . S
C607 C603 1.385 . S
C607 C606 1.374 . S
C608 C605 1.499 . S
C608 C609 1.373 . S
C608 C610 1.389 . S
C609 H588 0.950 . S
C609 C608 1.373 . S
C609 C625 1.377 . S
C610 C608 1.389 . S
C610 C611 1.524 . S
C610 C624 1.377 . S
C611 C610 1.524 . S
C611 C612 1.397 . S
C611 C616 1.363 . S
C612 H589 0.950 . S
C612 C611 1.397 . S
C612 C613 1.334 . S
C613 H590 0.950 . S
C613 C612 1.334 . S
C613 C614 1.287 . S
C614 C613 1.287 . S
C614 C615 1.524 . S
C614 H633 0.913 . S
C615 H591 0.950 . S
C615 C614 1.524 . S
C615 C616 1.415 . S
C616 H592 0.950 . S
C616 C611 1.363 . S
C616 C615 1.415 . S
C617 H593 0.951 . S
C617 C618 1.366 . S
C617 C619 1.388 . S
C618 C617 1.366 . S
C618 C622 1.385 . S
C619 H594 0.951 . S
C619 C617 1.388 . S
C619 C620 1.366 . S
C620 C619 1.366 . S
C620 C621 1.414 . S
C620 C623 1.499 . S
C621 H595 0.950 . S
C621 C620 1.414 . S
C621 C622 1.374 . S
C622 H596 0.950 . S
C622 C618 1.385 . S
C622 C621 1.374 . S
C623 C620 1.499 . S
C623 C624 1.373 . S
C623 C625 1.389 . S
C624 H597 0.950 . S
C624 C610 1.377 . S
C624 C623 1.373 . S
C625 C609 1.377 . S
C625 C623 1.389 . S
C625 C626 1.524 . S
C626 C625 1.524 . S
C626 C627 1.397 . S
C626 C631 1.363 . S
C627 H598 0.950 . S
C627 C626 1.397 . S
C627 C628 1.334 . S
C628 H599 0.950 . S
C628 C627 1.334 . S
C628 C629 1.287 . S
C629 C628 1.287 . S
C629 C630 1.524 . S
C629 H632 0.999 . S
C630 H600 0.950 . S
C630 C629 1.524 . S
C630 C631 1.415 . S
C631 H601 0.950 . S
C631 C626 1.363 . S
C631 C630 1.415 . S
H632 C629 0.999 . S
H633 C614 0.913 . S
H634 C652 0.951 . S
H635 C654 0.951 . S
H636 C656 0.950 . S
H637 C657 0.950 . S
H638 C659 0.950 . S
H639 C662 0.950 . S
H640 C663 0.950 . S
H641 C665 0.950 . S
H642 C666 0.950 . S
H643 C667 0.951 . S
H644 C669 0.951 . S
H645 C671 0.950 . S
H646 C672 0.950 1_554 S
H647 C674 0.950 . S
H648 C677 0.950 . S
H649 C678 0.950 . S
H650 C680 0.950 . S
H651 C681 0.950 . S
C652 H634 0.951 . S
C652 C653 1.366 . S
C652 C654 1.388 . S
C653 C652 1.366 . S
C653 C657 1.385 . S
C654 H635 0.951 . S
C654 C652 1.388 . S
C654 C655 1.366 . S
C655 C654 1.366 . S
C655 C656 1.414 . S
C655 C658 1.499 . S
C656 H636 0.950 . S
C656 C655 1.414 . S
C656 C657 1.374 . S
C657 H637 0.950 . S
C657 C653 1.385 . S
C657 C656 1.374 . S
C658 C655 1.499 . S
C658 C659 1.373 . S
C658 C660 1.389 . S
C659 H638 0.950 . S
C659 C658 1.373 . S
C659 C675 1.377 . S
C660 C658 1.389 . S
C660 C661 1.524 . S
C660 C674 1.377 . S
C661 C660 1.524 . S
C661 C662 1.397 . S
C661 C666 1.363 . S
C662 H639 0.950 . S
C662 C661 1.397 . S
C662 C663 1.334 . S
C663 H640 0.950 . S
C663 C662 1.334 . S
C663 C664 1.287 . S
C664 C663 1.287 . S
C664 C665 1.524 . S
C664 H683 0.913 . S
C665 H641 0.950 . S
C665 C664 1.524 . S
C665 C666 1.415 . S
C666 H642 0.950 . S
C666 C661 1.363 . S
C666 C665 1.415 . S
C667 H643 0.951 . S
C667 C668 1.366 . S
C667 C669 1.388 . S
C668 C667 1.366 . S
C668 C672 1.385 . S
C669 H644 0.951 . S
C669 C667 1.388 . S
C669 C670 1.366 . S
C670 C669 1.366 . S
C670 C671 1.414 . S
C670 C673 1.499 . S
C671 H645 0.950 . S
C671 C670 1.414 . S
C671 C672 1.374 . S
C672 H646 0.950 1_556 S
C672 C668 1.385 . S
C672 C671 1.374 . S
C673 C670 1.499 . S
C673 C674 1.373 . S
C673 C675 1.389 . S
C674 H647 0.950 . S
C674 C660 1.377 . S
C674 C673 1.373 . S
C675 C659 1.377 . S
C675 C673 1.389 . S
C675 C676 1.524 . S
C676 C675 1.524 . S
C676 C677 1.397 . S
C676 C681 1.363 . S
C677 H648 0.950 . S
C677 C676 1.397 . S
C677 C678 1.334 . S
C678 H649 0.950 . S
C678 C677 1.334 . S
C678 C679 1.287 . S
C679 C678 1.287 . S
C679 C680 1.524 . S
C679 H682 0.999 . S
C680 H650 0.950 . S
C680 C679 1.524 . S
C680 C681 1.415 . S
C681 H651 0.950 . S
C681 C676 1.363 . S
C681 C680 1.415 . S
H682 C679 0.999 . S
H683 C664 0.913 . S
H684 C702 0.951 . S
H685 C704 0.951 . S
H686 C706 0.950 . S
H687 C707 0.950 . S
H688 C709 0.950 . S
H689 C712 0.950 . S
H690 C713 0.950 . S
H691 C715 0.950 . S
H692 C716 0.950 . S
H693 C717 0.951 1_455 S
H694 C719 0.951 . S
H695 C721 0.950 . S
H696 C722 0.950 . S
H697 C724 0.950 . S
H698 C727 0.950 . S
H699 C728 0.950 . S
H700 C730 0.950 1_455 S
H701 C731 0.950 . S
C702 H684 0.951 . S
C702 C703 1.366 . S
C702 C704 1.388 . S
C703 C702 1.366 . S
C703 C707 1.385 . S
C704 H685 0.951 . S
C704 C702 1.388 . S
C704 C705 1.366 . S
C705 C704 1.366 . S
C705 C706 1.414 . S
C705 C708 1.499 . S
C706 H686 0.950 . S
C706 C705 1.414 . S
C706 C707 1.374 . S
C707 H687 0.950 . S
C707 C703 1.385 . S
C707 C706 1.374 . S
C708 C705 1.499 . S
C708 C709 1.373 . S
C708 C710 1.389 . S
C709 H688 0.950 . S
C709 C708 1.373 . S
C709 C725 1.377 . S
C710 C708 1.389 . S
C710 C711 1.524 . S
C710 C724 1.377 . S
C711 C710 1.524 . S
C711 C712 1.397 . S
C711 C716 1.363 . S
C712 H689 0.950 . S
C712 C711 1.397 . S
C712 C713 1.334 . S
C713 H690 0.950 . S
C713 C712 1.334 . S
C713 C714 1.287 . S
C714 C713 1.287 . S
C714 C715 1.524 . S
C714 H733 0.913 . S
C715 H691 0.950 . S
C715 C714 1.524 . S
C715 C716 1.415 . S
C716 H692 0.950 . S
C716 C711 1.363 . S
C716 C715 1.415 . S
C717 H693 0.951 1_655 S
C717 C718 1.366 . S
C717 C719 1.388 . S
C718 C717 1.366 . S
C718 C722 1.385 . S
C719 H694 0.951 . S
C719 C717 1.388 . S
C719 C720 1.366 . S
C720 C719 1.366 . S
C720 C721 1.414 . S
C720 C723 1.499 . S
C721 H695 0.950 . S
C721 C720 1.414 . S
C721 C722 1.374 . S
C722 H696 0.950 . S
C722 C718 1.385 . S
C722 C721 1.374 . S
C723 C720 1.499 . S
C723 C724 1.373 . S
C723 C725 1.389 . S
C724 H697 0.950 . S
C724 C710 1.377 . S
C724 C723 1.373 . S
C725 C709 1.377 . S
C725 C723 1.389 . S
C725 C726 1.524 . S
C726 C725 1.524 . S
C726 C727 1.397 . S
C726 C731 1.363 . S
C727 H698 0.950 . S
C727 C726 1.397 . S
C727 C728 1.334 . S
C728 H699 0.950 . S
C728 C727 1.334 . S
C728 C729 1.287 . S
C729 C728 1.287 . S
C729 C730 1.524 . S
C729 H732 0.999 . S
C730 H700 0.950 1_655 S
C730 C729 1.524 . S
C730 C731 1.415 . S
C731 H701 0.950 . S
C731 C726 1.363 . S
C731 C730 1.415 . S
H732 C729 0.999 . S
H733 C714 0.913 . S
H734 C752 0.951 . S
H735 C754 0.951 . S
H736 C756 0.950 . S
H737 C757 0.950 . S
H738 C759 0.950 . S
H739 C762 0.950 . S
H740 C763 0.950 . S
H741 C765 0.950 . S
H742 C766 0.950 . S
H743 C767 0.951 . S
H744 C769 0.951 . S
H745 C771 0.950 . S
H746 C772 0.950 . S
H747 C774 0.950 . S
H748 C777 0.950 . S
H749 C778 0.950 . S
H750 C780 0.950 . S
H751 C781 0.950 . S
C752 H734 0.951 . S
C752 C753 1.366 . S
C752 C754 1.388 . S
C753 C752 1.366 . S
C753 C757 1.385 . S
C754 H735 0.951 . S
C754 C752 1.388 . S
C754 C755 1.366 . S
C755 C754 1.366 . S
C755 C756 1.414 . S
C755 C758 1.499 . S
C756 H736 0.950 . S
C756 C755 1.414 . S
C756 C757 1.374 . S
C757 H737 0.950 . S
C757 C753 1.385 . S
C757 C756 1.374 . S
C758 C755 1.499 . S
C758 C759 1.373 . S
C758 C760 1.389 . S
C759 H738 0.950 . S
C759 C758 1.373 . S
C759 C775 1.377 . S
C760 C758 1.389 . S
C760 C761 1.524 . S
C760 C774 1.377 . S
C761 C760 1.524 . S
C761 C762 1.397 . S
C761 C766 1.363 . S
C762 H739 0.950 . S
C762 C761 1.397 . S
C762 C763 1.334 . S
C763 H740 0.950 . S
C763 C762 1.334 . S
C763 C764 1.287 . S
C764 C763 1.287 . S
C764 C765 1.524 . S
C764 H783 0.913 . S
C765 H741 0.950 . S
C765 C764 1.524 . S
C765 C766 1.415 . S
C766 H742 0.950 . S
C766 C761 1.363 . S
C766 C765 1.415 . S
C767 H743 0.951 . S
C767 C768 1.366 . S
C767 C769 1.388 . S
C768 C767 1.366 . S
C768 C772 1.385 . S
C769 H744 0.951 . S
C769 C767 1.388 . S
C769 C770 1.366 . S
C770 C769 1.366 . S
C770 C771 1.414 . S
C770 C773 1.499 . S
C771 H745 0.950 . S
C771 C770 1.414 . S
C771 C772 1.374 . S
C772 H746 0.950 . S
C772 C768 1.385 . S
C772 C771 1.374 . S
C773 C770 1.499 . S
C773 C774 1.373 . S
C773 C775 1.389 . S
C774 H747 0.950 . S
C774 C760 1.377 . S
C774 C773 1.373 . S
C775 C759 1.377 . S
C775 C773 1.389 . S
C775 C776 1.524 . S
C776 C775 1.524 . S
C776 C777 1.397 . S
C776 C781 1.363 . S
C777 H748 0.950 . S
C777 C776 1.397 . S
C777 C778 1.334 . S
C778 H749 0.950 . S
C778 C777 1.334 . S
C778 C779 1.287 . S
C779 C778 1.287 . S
C779 C780 1.524 . S
C779 H782 0.999 . S
C780 H750 0.950 . S
C780 C779 1.524 . S
C780 C781 1.415 . S
C781 H751 0.950 . S
C781 C776 1.363 . S
C781 C780 1.415 . S
H782 C779 0.999 . S
H783 C764 0.913 . S
H784 C802 0.951 . S
H785 C804 0.951 . S
H786 C806 0.950 . S
H787 C807 0.950 . S
H788 C809 0.950 . S
H789 C812 0.950 . S
H790 C813 0.950 . S
H791 C815 0.950 . S
H792 C816 0.950 . S
H793 C817 0.951 1_545 S
H794 C819 0.951 . S
H795 C821 0.950 . S
H796 C822 0.950 . S
H797 C824 0.950 . S
H798 C827 0.950 . S
H799 C828 0.950 . S
H800 C830 0.950 . S
H801 C831 0.950 . S
C802 H784 0.951 . S
C802 C803 1.366 . S
C802 C804 1.388 . S
C803 C802 1.366 . S
C803 C807 1.385 . S
C804 H785 0.951 . S
C804 C802 1.388 . S
C804 C805 1.366 . S
C805 C804 1.366 . S
C805 C806 1.414 . S
C805 C808 1.499 . S
C806 H786 0.950 . S
C806 C805 1.414 . S
C806 C807 1.374 . S
C807 H787 0.950 . S
C807 C803 1.385 . S
C807 C806 1.374 . S
C808 C805 1.499 . S
C808 C809 1.373 . S
C808 C810 1.389 . S
C809 H788 0.950 . S
C809 C808 1.373 . S
C809 C825 1.377 . S
C810 C808 1.389 . S
C810 C811 1.524 . S
C810 C824 1.377 . S
C811 C810 1.524 . S
C811 C812 1.397 . S
C811 C816 1.363 . S
C812 H789 0.950 . S
C812 C811 1.397 . S
C812 C813 1.334 . S
C813 H790 0.950 . S
C813 C812 1.334 . S
C813 C814 1.287 . S
C814 C813 1.287 . S
C814 C815 1.524 . S
C814 H833 0.913 . S
C815 H791 0.950 . S
C815 C814 1.524 . S
C815 C816 1.415 . S
C816 H792 0.950 . S
C816 C811 1.363 . S
C816 C815 1.415 . S
C817 H793 0.951 1_565 S
C817 C818 1.366 . S
C817 C819 1.388 . S
C818 C817 1.366 . S
C818 C822 1.385 . S
C819 H794 0.951 . S
C819 C817 1.388 . S
C819 C820 1.366 . S
C820 C819 1.366 . S
C820 C821 1.414 . S
C820 C823 1.499 . S
C821 H795 0.950 . S
C821 C820 1.414 . S
C821 C822 1.374 . S
C822 H796 0.950 . S
C822 C818 1.385 . S
C822 C821 1.374 . S
C823 C820 1.499 . S
C823 C824 1.373 . S
C823 C825 1.389 . S
C824 H797 0.950 . S
C824 C810 1.377 . S
C824 C823 1.373 . S
C825 C809 1.377 . S
C825 C823 1.389 . S
C825 C826 1.524 . S
C826 C825 1.524 . S
C826 C827 1.397 . S
C826 C831 1.363 . S
C827 H798 0.950 . S
C827 C826 1.397 . S
C827 C828 1.334 . S
C828 H799 0.950 . S
C828 C827 1.334 . S
C828 C829 1.287 . S
C829 C828 1.287 . S
C829 C830 1.524 1_565 S
C829 H832 0.999 1_565 S
C830 H800 0.950 . S
C830 C829 1.524 1_545 S
C830 C831 1.415 1_545 S
C831 H801 0.950 . S
C831 C826 1.363 . S
C831 C830 1.415 1_565 S
H832 C829 0.999 1_545 S
H833 C814 0.913 . S
H834 C852 0.951 . S
H835 C854 0.951 . S
H836 C856 0.950 . S
H837 C857 0.950 . S
H838 C859 0.950 . S
H839 C862 0.950 . S
H840 C863 0.950 . S
H841 C865 0.950 . S
H842 C866 0.950 . S
H843 C867 0.951 . S
H844 C869 0.951 . S
H845 C871 0.950 . S
H846 C872 0.950 . S
H847 C874 0.950 . S
H848 C877 0.950 . S
H849 C878 0.950 . S
H850 C880 0.950 . S
H851 C881 0.950 . S
C852 H834 0.951 . S
C852 C853 1.366 . S
C852 C854 1.388 . S
C853 C852 1.366 . S
C853 C857 1.385 . S
C854 H835 0.951 . S
C854 C852 1.388 . S
C854 C855 1.366 . S
C855 C854 1.366 . S
C855 C856 1.414 . S
C855 C858 1.499 . S
C856 H836 0.950 . S
C856 C855 1.414 . S
C856 C857 1.374 . S
C857 H837 0.950 . S
C857 C853 1.385 . S
C857 C856 1.374 . S
C858 C855 1.499 . S
C858 C859 1.373 . S
C858 C860 1.389 . S
C859 H838 0.950 . S
C859 C858 1.373 . S
C859 C875 1.377 . S
C860 C858 1.389 . S
C860 C861 1.524 . S
C860 C874 1.377 . S
C861 C860 1.524 . S
C861 C862 1.397 . S
C861 C866 1.363 . S
C862 H839 0.950 . S
C862 C861 1.397 . S
C862 C863 1.334 . S
C863 H840 0.950 . S
C863 C862 1.334 . S
C863 C864 1.287 . S
C864 C863 1.287 . S
C864 C865 1.524 . S
C864 H883 0.913 . S
C865 H841 0.950 . S
C865 C864 1.524 . S
C865 C866 1.415 . S
C866 H842 0.950 . S
C866 C861 1.363 . S
C866 C865 1.415 . S
C867 H843 0.951 . S
C867 C868 1.366 . S
C867 C869 1.388 . S
C868 C867 1.366 . S
C868 C872 1.385 . S
C869 H844 0.951 . S
C869 C867 1.388 . S
C869 C870 1.366 . S
C870 C869 1.366 . S
C870 C871 1.414 . S
C870 C873 1.499 . S
C871 H845 0.950 . S
C871 C870 1.414 . S
C871 C872 1.374 . S
C872 H846 0.950 . S
C872 C868 1.385 . S
C872 C871 1.374 . S
C873 C870 1.499 . S
C873 C874 1.373 . S
C873 C875 1.389 . S
C874 H847 0.950 . S
C874 C860 1.377 . S
C874 C873 1.373 . S
C875 C859 1.377 . S
C875 C873 1.389 . S
C875 C876 1.524 . S
C876 C875 1.524 . S
C876 C877 1.397 . S
C876 C881 1.363 . S
C877 H848 0.950 . S
C877 C876 1.397 . S
C877 C878 1.334 . S
C878 H849 0.950 . S
C878 C877 1.334 . S
C878 C879 1.287 . S
C879 C878 1.287 . S
C879 C880 1.524 . S
C879 H882 0.999 . S
C880 H850 0.950 . S
C880 C879 1.524 . S
C880 C881 1.415 . S
C881 H851 0.950 . S
C881 C876 1.363 . S
C881 C880 1.415 . S
H882 C879 0.999 . S
H883 C864 0.913 . S
H884 C902 0.951 . S
H885 C904 0.951 . S
H886 C906 0.950 . S
H887 C907 0.950 . S
H888 C909 0.950 . S
H889 C912 0.950 . S
H890 C913 0.950 . S
H891 C915 0.950 . S
H892 C916 0.950 . S
H893 C917 0.951 . S
H894 C919 0.951 . S
H895 C921 0.950 . S
H896 C922 0.950 . S
H897 C924 0.950 . S
H898 C927 0.950 . S
H899 C928 0.950 . S
H900 C930 0.950 . S
H901 C931 0.950 . S
C902 H884 0.951 . S
C902 C903 1.366 . S
C902 C904 1.388 . S
C903 C902 1.366 . S
C903 C907 1.385 . S
C904 H885 0.951 . S
C904 C902 1.388 . S
C904 C905 1.366 . S
C905 C904 1.366 . S
C905 C906 1.414 . S
C905 C908 1.499 . S
C906 H886 0.950 . S
C906 C905 1.414 . S
C906 C907 1.374 . S
C907 H887 0.950 . S
C907 C903 1.385 . S
C907 C906 1.374 . S
C908 C905 1.499 . S
C908 C909 1.373 . S
C908 C910 1.389 . S
C909 H888 0.950 . S
C909 C908 1.373 . S
C909 C925 1.377 . S
C910 C908 1.389 . S
C910 C911 1.524 . S
C910 C924 1.377 . S
C911 C910 1.524 . S
C911 C912 1.397 . S
C911 C916 1.363 . S
C912 H889 0.950 . S
C912 C911 1.397 . S
C912 C913 1.334 . S
C913 H890 0.950 . S
C913 C912 1.334 . S
C913 C914 1.287 . S
C914 C913 1.287 . S
C914 C915 1.524 . S
C914 H933 0.913 . S
C915 H891 0.950 . S
C915 C914 1.524 . S
C915 C916 1.415 . S
C916 H892 0.950 . S
C916 C911 1.363 . S
C916 C915 1.415 . S
C917 H893 0.951 . S
C917 C918 1.366 . S
C917 C919 1.388 . S
C918 C917 1.366 . S
C918 C922 1.385 . S
C919 H894 0.951 . S
C919 C917 1.388 . S
C919 C920 1.366 . S
C920 C919 1.366 . S
C920 C921 1.414 . S
C920 C923 1.499 . S
C921 H895 0.950 . S
C921 C920 1.414 . S
C921 C922 1.374 . S
C922 H896 0.950 . S
C922 C918 1.385 . S
C922 C921 1.374 . S
C923 C920 1.499 . S
C923 C924 1.373 . S
C923 C925 1.389 . S
C924 H897 0.950 . S
C924 C910 1.377 . S
C924 C923 1.373 . S
C925 C909 1.377 . S
C925 C923 1.389 . S
C925 C926 1.524 . S
C926 C925 1.524 . S
C926 C927 1.397 . S
C926 C931 1.363 . S
C927 H898 0.950 . S
C927 C926 1.397 . S
C927 C928 1.334 . S
C928 H899 0.950 . S
C928 C927 1.334 . S
C928 C929 1.287 . S
C929 C928 1.287 . S
C929 C930 1.524 . S
C929 H932 0.999 . S
C930 H900 0.950 . S
C930 C929 1.524 . S
C930 C931 1.415 . S
C931 H901 0.950 . S
C931 C926 1.363 . S
C931 C930 1.415 . S
H932 C929 0.999 . S
H933 C914 0.913 . S
H934 C952 0.951 . S
H935 C954 0.951 . S
H936 C956 0.950 . S
H937 C957 0.950 . S
H938 C959 0.950 . S
H939 C962 0.950 . S
H940 C963 0.950 . S
H941 C965 0.950 . S
H942 C966 0.950 . S
H943 C967 0.951 . S
H944 C969 0.951 . S
H945 C971 0.950 . S
H946 C972 0.950 . S
H947 C974 0.950 . S
H948 C977 0.950 . S
H949 C978 0.950 . S
H950 C980 0.950 . S
H951 C981 0.950 . S
C952 H934 0.951 . S
C952 C953 1.366 . S
C952 C954 1.388 . S
C953 C952 1.366 . S
C953 C957 1.385 . S
C954 H935 0.951 . S
C954 C952 1.388 . S
C954 C955 1.366 . S
C955 C954 1.366 . S
C955 C956 1.414 . S
C955 C958 1.499 . S
C956 H936 0.950 . S
C956 C955 1.414 . S
C956 C957 1.374 . S
C957 H937 0.950 . S
C957 C953 1.385 . S
C957 C956 1.374 . S
C958 C955 1.499 . S
C958 C959 1.373 . S
C958 C960 1.389 . S
C959 H938 0.950 . S
C959 C958 1.373 . S
C959 C975 1.377 . S
C960 C958 1.389 . S
C960 C961 1.524 . S
C960 C974 1.377 . S
C961 C960 1.524 . S
C961 C962 1.397 . S
C961 C966 1.363 . S
C962 H939 0.950 . S
C962 C961 1.397 . S
C962 C963 1.334 . S
C963 H940 0.950 . S
C963 C962 1.334 . S
C963 C964 1.287 . S
C964 C963 1.287 . S
C964 C965 1.524 . S
C964 H983 0.913 . S
C965 H941 0.950 . S
C965 C964 1.524 . S
C965 C966 1.415 . S
C966 H942 0.950 . S
C966 C961 1.363 . S
C966 C965 1.415 . S
C967 H943 0.951 . S
C967 C968 1.366 . S
C967 C969 1.388 . S
C968 C967 1.366 . S
C968 C972 1.385 . S
C969 H944 0.951 . S
C969 C967 1.388 . S
C969 C970 1.366 . S
C970 C969 1.366 . S
C970 C971 1.414 . S
C970 C973 1.499 . S
C971 H945 0.950 . S
C971 C970 1.414 . S
C971 C972 1.374 . S
C972 H946 0.950 . S
C972 C968 1.385 . S
C972 C971 1.374 . S
C973 C970 1.499 . S
C973 C974 1.373 . S
C973 C975 1.389 . S
C974 H947 0.950 . S
C974 C960 1.377 . S
C974 C973 1.373 . S
C975 C959 1.377 . S
C975 C973 1.389 . S
C975 C976 1.524 . S
C976 C975 1.524 . S
C976 C977 1.397 . S
C976 C981 1.363 . S
C977 H948 0.950 . S
C977 C976 1.397 . S
C977 C978 1.334 . S
C978 H949 0.950 . S
C978 C977 1.334 . S
C978 C979 1.287 . S
C979 C978 1.287 . S
C979 C980 1.524 . S
C979 H982 0.999 1_556 S
C980 H950 0.950 . S
C980 C979 1.524 . S
C980 C981 1.415 . S
C981 H951 0.950 . S
C981 C976 1.363 . S
C981 C980 1.415 . S
H982 C979 0.999 1_554 S
H983 C964 0.913 . S
H984 C1002 0.951 . S
H985 C1004 0.951 . S
H986 C1006 0.950 . S
H987 C1007 0.950 . S
H988 C1009 0.950 . S
H989 C1012 0.950 . S
H990 C1013 0.950 . S
H991 C1015 0.950 . S
H992 C1016 0.950 . S
H993 C1017 0.951 . S
H994 C1019 0.951 . S
H995 C1021 0.950 . S
H996 C1022 0.950 . S
H997 C1024 0.950 . S
H998 C1027 0.950 . S
H999 C1028 0.950 . S
H1000 C1030 0.950 . S
H1001 C1031 0.950 . S
C1002 H984 0.951 . S
C1002 C1003 1.366 . S
C1002 C1004 1.388 . S
C1003 C1002 1.366 . S
C1003 C1007 1.385 . S
C1004 H985 0.951 . S
C1004 C1002 1.388 . S
C1004 C1005 1.366 . S
C1005 C1004 1.366 . S
C1005 C1006 1.414 . S
C1005 C1008 1.499 . S
C1006 H986 0.950 . S
C1006 C1005 1.414 . S
C1006 C1007 1.374 . S
C1007 H987 0.950 . S
C1007 C1003 1.385 . S
C1007 C1006 1.374 . S
C1008 C1005 1.499 . S
C1008 C1009 1.373 . S
C1008 C1010 1.389 . S
C1009 H988 0.950 . S
C1009 C1008 1.373 . S
C1009 C1025 1.377 . S
C1010 C1008 1.389 . S
C1010 C1011 1.524 . S
C1010 C1024 1.377 . S
C1011 C1010 1.524 . S
C1011 C1012 1.397 . S
C1011 C1016 1.363 . S
C1012 H989 0.950 . S
C1012 C1011 1.397 . S
C1012 C1013 1.334 . S
C1013 H990 0.950 . S
C1013 C1012 1.334 . S
C1013 C1014 1.287 . S
C1014 C1013 1.287 . S
C1014 C1015 1.524 . S
C1014 H1033 0.913 . S
C1015 H991 0.950 . S
C1015 C1014 1.524 . S
C1015 C1016 1.415 . S
C1016 H992 0.950 . S
C1016 C1011 1.363 . S
C1016 C1015 1.415 . S
C1017 H993 0.951 . S
C1017 C1018 1.366 . S
C1017 C1019 1.388 . S
C1018 C1017 1.366 . S
C1018 C1022 1.385 . S
C1019 H994 0.951 . S
C1019 C1017 1.388 . S
C1019 C1020 1.366 . S
C1020 C1019 1.366 . S
C1020 C1021 1.414 . S
C1020 C1023 1.499 . S
C1021 H995 0.950 . S
C1021 C1020 1.414 . S
C1021 C1022 1.374 . S
C1022 H996 0.950 . S
C1022 C1018 1.385 . S
C1022 C1021 1.374 . S
C1023 C1020 1.499 . S
C1023 C1024 1.373 . S
C1023 C1025 1.389 . S
C1024 H997 0.950 . S
C1024 C1010 1.377 . S
C1024 C1023 1.373 . S
C1025 C1009 1.377 . S
C1025 C1023 1.389 . S
C1025 C1026 1.524 . S
C1026 C1025 1.524 . S
C1026 C1027 1.397 . S
C1026 C1031 1.363 . S
C1027 H998 0.950 . S
C1027 C1026 1.397 . S
C1027 C1028 1.334 . S
C1028 H999 0.950 . S
C1028 C1027 1.334 . S
C1028 C1029 1.287 1_556 S
C1029 C1028 1.287 1_554 S
C1029 C1030 1.524 . S
C1029 H1032 0.999 . S
C1030 H1000 0.950 . S
C1030 C1029 1.524 . S
C1030 C1031 1.415 1_554 S
C1031 H1001 0.950 . S
C1031 C1026 1.363 . S
C1031 C1030 1.415 1_556 S
H1032 C1029 0.999 . S
H1033 C1014 0.913 . S
H1034 C1052 0.951 . S
H1035 C1054 0.951 . S
H1036 C1056 0.950 . S
H1037 C1057 0.950 . S
H1038 C1059 0.950 . S
H1039 C1062 0.950 . S
H1040 C1063 0.950 . S
H1041 C1065 0.950 . S
H1042 C1066 0.950 . S
H1043 C1067 0.951 . S
H1044 C1069 0.951 . S
H1045 C1071 0.950 . S
H1046 C1072 0.950 . S
H1047 C1074 0.950 . S
H1048 C1077 0.950 . S
H1049 C1078 0.950 . S
H1050 C1080 0.950 . S
H1051 C1081 0.950 . S
C1052 H1034 0.951 . S
C1052 C1053 1.366 . S
C1052 C1054 1.388 . S
C1053 C1052 1.366 . S
C1053 C1057 1.385 . S
C1054 H1035 0.951 . S
C1054 C1052 1.388 . S
C1054 C1055 1.366 . S
C1055 C1054 1.366 . S
C1055 C1056 1.414 . S
C1055 C1058 1.499 . S
C1056 H1036 0.950 . S
C1056 C1055 1.414 . S
C1056 C1057 1.374 . S
C1057 H1037 0.950 . S
C1057 C1053 1.385 . S
C1057 C1056 1.374 . S
C1058 C1055 1.499 . S
C1058 C1059 1.373 . S
C1058 C1060 1.389 . S
C1059 H1038 0.950 . S
C1059 C1058 1.373 . S
C1059 C1075 1.377 . S
C1060 C1058 1.389 . S
C1060 C1061 1.524 . S
C1060 C1074 1.377 . S
C1061 C1060 1.524 . S
C1061 C1062 1.397 . S
C1061 C1066 1.363 . S
C1062 H1039 0.950 . S
C1062 C1061 1.397 . S
C1062 C1063 1.334 . S
C1063 H1040 0.950 . S
C1063 C1062 1.334 . S
C1063 C1064 1.287 . S
C1064 C1063 1.287 . S
C1064 C1065 1.524 . S
C1064 H1083 0.913 . S
C1065 H1041 0.950 . S
C1065 C1064 1.524 . S
C1065 C1066 1.415 . S
C1066 H1042 0.950 . S
C1066 C1061 1.363 . S
C1066 C1065 1.415 . S
C1067 H1043 0.951 . S
C1067 C1068 1.366 . S
C1067 C1069 1.388 . S
C1068 C1067 1.366 . S
C1068 C1072 1.385 . S
C1069 H1044 0.951 . S
C1069 C1067 1.388 . S
C1069 C1070 1.366 . S
C1070 C1069 1.366 . S
C1070 C1071 1.414 . S
C1070 C1073 1.499 . S
C1071 H1045 0.950 . S
C1071 C1070 1.414 . S
C1071 C1072 1.374 . S
C1072 H1046 0.950 . S
C1072 C1068 1.385 . S
C1072 C1071 1.374 . S
C1073 C1070 1.499 . S
C1073 C1074 1.373 . S
C1073 C1075 1.389 . S
C1074 H1047 0.950 . S
C1074 C1060 1.377 . S
C1074 C1073 1.373 . S
C1075 C1059 1.377 . S
C1075 C1073 1.389 . S
C1075 C1076 1.524 . S
C1076 C1075 1.524 . S
C1076 C1077 1.397 . S
C1076 C1081 1.363 . S
C1077 H1048 0.950 . S
C1077 C1076 1.397 . S
C1077 C1078 1.334 . S
C1078 H1049 0.950 . S
C1078 C1077 1.334 . S
C1078 C1079 1.287 . S
C1079 C1078 1.287 . S
C1079 C1080 1.524 . S
C1079 H1082 0.999 . S
C1080 H1050 0.950 . S
C1080 C1079 1.524 . S
C1080 C1081 1.415 . S
C1081 H1051 0.950 . S
C1081 C1076 1.363 . S
C1081 C1080 1.415 . S
H1082 C1079 0.999 . S
H1083 C1064 0.913 . S
H1084 C1102 0.951 . S
H1085 C1104 0.951 . S
H1086 C1106 0.950 . S
H1087 C1107 0.950 . S
H1088 C1109 0.950 . S
H1089 C1112 0.950 . S
H1090 C1113 0.950 . S
H1091 C1115 0.950 . S
H1092 C1116 0.950 . S
H1093 C1117 0.951 . S
H1094 C1119 0.951 . S
H1095 C1121 0.950 . S
H1096 C1122 0.950 . S
H1097 C1124 0.950 . S
H1098 C1127 0.950 . S
H1099 C1128 0.950 . S
H1100 C1130 0.950 . S
H1101 C1131 0.950 . S
C1102 H1084 0.951 . S
C1102 C1103 1.366 . S
C1102 C1104 1.388 . S
C1103 C1102 1.366 . S
C1103 C1107 1.385 . S
C1104 H1085 0.951 . S
C1104 C1102 1.388 . S
C1104 C1105 1.366 . S
C1105 C1104 1.366 . S
C1105 C1106 1.414 . S
C1105 C1108 1.499 . S
C1106 H1086 0.950 . S
C1106 C1105 1.414 . S
C1106 C1107 1.374 . S
C1107 H1087 0.950 . S
C1107 C1103 1.385 . S
C1107 C1106 1.374 . S
C1108 C1105 1.499 . S
C1108 C1109 1.373 . S
C1108 C1110 1.389 . S
C1109 H1088 0.950 . S
C1109 C1108 1.373 . S
C1109 C1125 1.377 . S
C1110 C1108 1.389 . S
C1110 C1111 1.524 . S
C1110 C1124 1.377 . S
C1111 C1110 1.524 . S
C1111 C1112 1.397 . S
C1111 C1116 1.363 . S
C1112 H1089 0.950 . S
C1112 C1111 1.397 . S
C1112 C1113 1.334 . S
C1113 H1090 0.950 . S
C1113 C1112 1.334 . S
C1113 C1114 1.287 . S
C1114 C1113 1.287 . S
C1114 C1115 1.524 . S
C1114 H1133 0.913 . S
C1115 H1091 0.950 . S
C1115 C1114 1.524 . S
C1115 C1116 1.415 . S
C1116 H1092 0.950 . S
C1116 C1111 1.363 . S
C1116 C1115 1.415 . S
C1117 H1093 0.951 . S
C1117 C1118 1.366 . S
C1117 C1119 1.388 . S
C1118 C1117 1.366 . S
C1118 C1122 1.385 . S
C1119 H1094 0.951 . S
C1119 C1117 1.388 . S
C1119 C1120 1.366 . S
C1120 C1119 1.366 . S
C1120 C1121 1.414 . S
C1120 C1123 1.499 . S
C1121 H1095 0.950 . S
C1121 C1120 1.414 . S
C1121 C1122 1.374 . S
C1122 H1096 0.950 . S
C1122 C1118 1.385 . S
C1122 C1121 1.374 . S
C1123 C1120 1.499 . S
C1123 C1124 1.373 . S
C1123 C1125 1.389 . S
C1124 H1097 0.950 . S
C1124 C1110 1.377 . S
C1124 C1123 1.373 . S
C1125 C1109 1.377 . S
C1125 C1123 1.389 . S
C1125 C1126 1.524 . S
C1126 C1125 1.524 . S
C1126 C1127 1.397 . S
C1126 C1131 1.363 . S
C1127 H1098 0.950 . S
C1127 C1126 1.397 . S
C1127 C1128 1.334 . S
C1128 H1099 0.950 . S
C1128 C1127 1.334 . S
C1128 C1129 1.287 . S
C1129 C1128 1.287 . S
C1129 C1130 1.524 . S
C1129 H1132 0.999 . S
C1130 H1100 0.950 . S
C1130 C1129 1.524 . S
C1130 C1131 1.415 . S
C1131 H1101 0.950 . S
C1131 C1126 1.363 . S
C1131 C1130 1.415 . S
H1132 C1129 0.999 . S
H1133 C1114 0.913 . S
H1134 C1152 0.951 . S
H1135 C1154 0.951 . S
H1136 C1156 0.950 . S
H1137 C1157 0.950 . S
H1138 C1159 0.950 . S
H1139 C1162 0.950 . S
H1140 C1163 0.950 . S
H1141 C1165 0.950 . S
H1142 C1166 0.950 . S
H1143 C1167 0.951 . S
H1144 C1169 0.951 . S
H1145 C1171 0.950 . S
H1146 C1172 0.950 . S
H1147 C1174 0.950 . S
H1148 C1177 0.950 . S
H1149 C1178 0.950 . S
H1150 C1180 0.950 . S
H1151 C1181 0.950 . S
C1152 H1134 0.951 . S
C1152 C1153 1.366 . S
C1152 C1154 1.388 . S
C1153 C1152 1.366 . S
C1153 C1157 1.385 . S
C1154 H1135 0.951 . S
C1154 C1152 1.388 . S
C1154 C1155 1.366 . S
C1155 C1154 1.366 . S
C1155 C1156 1.414 . S
C1155 C1158 1.499 . S
C1156 H1136 0.950 . S
C1156 C1155 1.414 . S
C1156 C1157 1.374 . S
C1157 H1137 0.950 . S
C1157 C1153 1.385 . S
C1157 C1156 1.374 . S
C1158 C1155 1.499 . S
C1158 C1159 1.373 . S
C1158 C1160 1.389 . S
C1159 H1138 0.950 . S
C1159 C1158 1.373 . S
C1159 C1175 1.377 . S
C1160 C1158 1.389 . S
C1160 C1161 1.524 . S
C1160 C1174 1.377 . S
C1161 C1160 1.524 . S
C1161 C1162 1.397 . S
C1161 C1166 1.363 . S
C1162 H1139 0.950 . S
C1162 C1161 1.397 . S
C1162 C1163 1.334 . S
C1163 H1140 0.950 . S
C1163 C1162 1.334 . S
C1163 C1164 1.287 . S
C1164 C1163 1.287 . S
C1164 C1165 1.524 . S
C1164 H1183 0.913 . S
C1165 H1141 0.950 . S
C1165 C1164 1.524 . S
C1165 C1166 1.415 . S
C1166 H1142 0.950 . S
C1166 C1161 1.363 . S
C1166 C1165 1.415 . S
C1167 H1143 0.951 . S
C1167 C1168 1.366 . S
C1167 C1169 1.388 . S
C1168 C1167 1.366 . S
C1168 C1172 1.385 . S
C1169 H1144 0.951 . S
C1169 C1167 1.388 . S
C1169 C1170 1.366 . S
C1170 C1169 1.366 . S
C1170 C1171 1.414 . S
C1170 C1173 1.499 . S
C1171 H1145 0.950 . S
C1171 C1170 1.414 . S
C1171 C1172 1.374 . S
C1172 H1146 0.950 . S
C1172 C1168 1.385 . S
C1172 C1171 1.374 . S
C1173 C1170 1.499 . S
C1173 C1174 1.373 . S
C1173 C1175 1.389 . S
C1174 H1147 0.950 . S
C1174 C1160 1.377 . S
C1174 C1173 1.373 . S
C1175 C1159 1.377 . S
C1175 C1173 1.389 . S
C1175 C1176 1.524 . S
C1176 C1175 1.524 . S
C1176 C1177 1.397 . S
C1176 C1181 1.363 . S
C1177 H1148 0.950 . S
C1177 C1176 1.397 . S
C1177 C1178 1.334 . S
C1178 H1149 0.950 . S
C1178 C1177 1.334 . S
C1178 C1179 1.287 . S
C1179 C1178 1.287 . S
C1179 C1180 1.524 . S
C1179 H1182 0.999 . S
C1180 H1150 0.950 . S
C1180 C1179 1.524 . S
C1180 C1181 1.415 . S
C1181 H1151 0.950 . S
C1181 C1176 1.363 . S
C1181 C1180 1.415 . S
H1182 C1179 0.999 . S
H1183 C1164 0.913 . S
H1184 C1202 0.951 . S
H1185 C1204 0.951 . S
H1186 C1206 0.950 . S
H1187 C1207 0.950 . S
H1188 C1209 0.950 . S
H1189 C1212 0.950 . S
H1190 C1213 0.950 . S
H1191 C1215 0.950 . S
H1192 C1216 0.950 . S
H1193 C1217 0.951 . S
H1194 C1219 0.951 . S
H1195 C1221 0.950 . S
H1196 C1222 0.950 . S
H1197 C1224 0.950 . S
H1198 C1227 0.950 . S
H1199 C1228 0.950 . S
H1200 C1230 0.933 1_554 S
H1201 C1231 0.950 . S
C1202 H1184 0.951 . S
C1202 C1203 1.366 . S
C1202 C1204 1.388 . S
C1203 C1202 1.366 . S
C1203 C1207 1.385 . S
C1204 H1185 0.951 . S
C1204 C1202 1.388 . S
C1204 C1205 1.366 . S
C1205 C1204 1.366 . S
C1205 C1206 1.414 . S
C1205 C1208 1.499 . S
C1206 H1186 0.950 . S
C1206 C1205 1.414 . S
C1206 C1207 1.374 . S
C1207 H1187 0.950 . S
C1207 C1203 1.385 . S
C1207 C1206 1.374 . S
C1208 C1205 1.499 . S
C1208 C1209 1.373 . S
C1208 C1210 1.389 . S
C1209 H1188 0.950 . S
C1209 C1208 1.373 . S
C1209 C1225 1.377 . S
C1210 C1208 1.389 . S
C1210 C1211 1.524 . S
C1210 C1224 1.377 . S
C1211 C1210 1.524 . S
C1211 C1212 1.397 . S
C1211 C1216 1.363 . S
C1212 H1189 0.950 . S
C1212 C1211 1.397 . S
C1212 C1213 1.334 . S
C1213 H1190 0.950 . S
C1213 C1212 1.334 . S
C1213 C1214 1.287 . S
C1214 C1213 1.287 . S
C1214 C1215 1.524 . S
C1214 H1233 0.913 . S
C1215 H1191 0.950 . S
C1215 C1214 1.524 . S
C1215 C1216 1.415 . S
C1216 H1192 0.950 . S
C1216 C1211 1.363 . S
C1216 C1215 1.415 . S
C1217 H1193 0.951 . S
C1217 C1218 1.366 . S
C1217 C1219 1.388 . S
C1218 C1217 1.366 . S
C1218 C1222 1.385 . S
C1219 H1194 0.951 . S
C1219 C1217 1.388 . S
C1219 C1220 1.366 . S
C1220 C1219 1.366 . S
C1220 C1221 1.414 . S
C1220 C1223 1.499 . S
C1221 H1195 0.950 . S
C1221 C1220 1.414 . S
C1221 C1222 1.374 . S
C1222 H1196 0.950 . S
C1222 C1218 1.385 . S
C1222 C1221 1.374 . S
C1223 C1220 1.499 . S
C1223 C1224 1.373 . S
C1223 C1225 1.389 . S
C1224 H1197 0.950 . S
C1224 C1210 1.377 . S
C1224 C1223 1.373 . S
C1225 C1209 1.377 . S
C1225 C1223 1.389 . S
C1225 C1226 1.524 . S
C1226 C1225 1.524 . S
C1226 C1227 1.397 . S
C1226 C1231 1.363 . S
C1227 H1198 0.950 . S
C1227 C1226 1.397 . S
C1227 C1228 1.334 . S
C1228 H1199 0.950 . S
C1228 C1227 1.334 . S
C1228 C1229 1.287 . S
C1229 C1228 1.287 . S
C1229 C1230 1.524 . S
C1229 H1232 0.999 1_556 S
C1230 H1200 0.933 1_556 S
C1230 C1229 1.524 . S
C1230 C1231 1.415 . S
C1231 H1201 0.950 . S
C1231 C1226 1.363 . S
C1231 C1230 1.415 . S
H1232 C1229 0.999 1_554 S
H1233 C1214 0.913 . S
H1234 C1252 0.951 . S
H1235 C1254 0.951 . S
H1236 C1256 0.950 . S
H1237 C1257 0.950 . S
H1238 C1259 0.950 . S
H1239 C1262 0.950 . S
H1240 C1263 0.950 . S
H1241 C1265 0.950 . S
H1242 C1266 0.950 . S
H1243 C1267 0.951 . S
H1244 C1269 0.951 . S
H1245 C1271 0.950 . S
H1246 C1272 0.950 . S
H1247 C1274 0.950 . S
H1248 C1277 0.950 . S
H1249 C1278 0.950 . S
H1250 C1280 0.950 . S
H1251 C1281 0.950 . S
C1252 H1234 0.951 . S
C1252 C1253 1.366 . S
C1252 C1254 1.388 . S
C1253 C1252 1.366 . S
C1253 C1257 1.385 . S
C1254 H1235 0.951 . S
C1254 C1252 1.388 . S
C1254 C1255 1.366 . S
C1255 C1254 1.366 . S
C1255 C1256 1.414 . S
C1255 C1258 1.499 . S
C1256 H1236 0.950 . S
C1256 C1255 1.414 . S
C1256 C1257 1.374 . S
C1257 H1237 0.950 . S
C1257 C1253 1.385 . S
C1257 C1256 1.374 . S
C1258 C1255 1.499 . S
C1258 C1259 1.373 . S
C1258 C1260 1.389 . S
C1259 H1238 0.950 . S
C1259 C1258 1.373 . S
C1259 C1275 1.377 . S
C1260 C1258 1.389 . S
C1260 C1261 1.524 . S
C1260 C1274 1.377 . S
C1261 C1260 1.524 . S
C1261 C1262 1.397 . S
C1261 C1266 1.363 . S
C1262 H1239 0.950 . S
C1262 C1261 1.397 . S
C1262 C1263 1.334 . S
C1263 H1240 0.950 . S
C1263 C1262 1.334 . S
C1263 C1264 1.287 . S
C1264 C1263 1.287 . S
C1264 C1265 1.524 . S
C1264 H1283 0.913 . S
C1265 H1241 0.950 . S
C1265 C1264 1.524 . S
C1265 C1266 1.415 . S
C1266 H1242 0.950 . S
C1266 C1261 1.363 . S
C1266 C1265 1.415 . S
C1267 H1243 0.951 . S
C1267 C1268 1.366 . S
C1267 C1269 1.388 . S
C1268 C1267 1.366 . S
C1268 C1272 1.385 . S
C1269 H1244 0.951 . S
C1269 C1267 1.388 . S
C1269 C1270 1.366 . S
C1270 C1269 1.366 . S
C1270 C1271 1.414 . S
C1270 C1273 1.499 . S
C1271 H1245 0.950 . S
C1271 C1270 1.414 . S
C1271 C1272 1.374 . S
C1272 H1246 0.950 . S
C1272 C1268 1.385 . S
C1272 C1271 1.374 . S
C1273 C1270 1.499 . S
C1273 C1274 1.373 . S
C1273 C1275 1.389 . S
C1274 H1247 0.950 . S
C1274 C1260 1.377 . S
C1274 C1273 1.373 . S
C1275 C1259 1.377 . S
C1275 C1273 1.389 . S
C1275 C1276 1.524 . S
C1276 C1275 1.524 . S
C1276 C1277 1.397 . S
C1276 C1281 1.363 . S
C1277 H1248 0.950 . S
C1277 C1276 1.397 . S
C1277 C1278 1.334 . S
C1278 H1249 0.950 . S
C1278 C1277 1.334 . S
C1278 C1279 1.287 . S
C1279 C1278 1.287 . S
C1279 C1280 1.524 . S
C1279 H1282 0.999 . S
C1280 H1250 0.950 . S
C1280 C1279 1.524 . S
C1280 C1281 1.415 . S
C1281 H1251 0.950 . S
C1281 C1276 1.363 . S
C1281 C1280 1.415 . S
H1282 C1279 0.999 . S
H1283 C1264 0.913 . S
H1284 C1302 0.951 . S
H1285 C1304 0.951 . S
H1286 C1306 0.950 . S
H1287 C1307 0.950 . S
H1288 C1309 0.950 . S
H1289 C1312 0.950 . S
H1290 C1313 0.950 . S
H1291 C1315 0.950 . S
H1292 C1316 0.950 . S
H1293 C1317 0.951 . S
H1294 C1319 0.951 . S
H1295 C1321 0.950 . S
H1296 C1322 0.950 . S
H1297 C1324 0.950 . S
H1298 C1327 0.950 . S
H1299 C1328 0.950 . S
H1300 C1330 0.950 . S
H1301 C1331 0.950 . S
C1302 H1284 0.951 . S
C1302 C1303 1.366 . S
C1302 C1304 1.388 . S
C1303 C1302 1.366 . S
C1303 C1307 1.385 . S
C1304 H1285 0.951 . S
C1304 C1302 1.388 . S
C1304 C1305 1.366 . S
C1305 C1304 1.366 . S
C1305 C1306 1.414 . S
C1305 C1308 1.499 . S
C1306 H1286 0.950 . S
C1306 C1305 1.414 . S
C1306 C1307 1.374 . S
C1307 H1287 0.950 . S
C1307 C1303 1.385 . S
C1307 C1306 1.374 . S
C1308 C1305 1.499 . S
C1308 C1309 1.373 . S
C1308 C1310 1.389 . S
C1309 H1288 0.950 . S
C1309 C1308 1.373 . S
C1309 C1325 1.377 . S
C1310 C1308 1.389 . S
C1310 C1311 1.524 . S
C1310 C1324 1.377 . S
C1311 C1310 1.524 . S
C1311 C1312 1.397 . S
C1311 C1316 1.363 . S
C1312 H1289 0.950 . S
C1312 C1311 1.397 . S
C1312 C1313 1.334 . S
C1313 H1290 0.950 . S
C1313 C1312 1.334 . S
C1313 C1314 1.287 . S
C1314 C1313 1.287 . S
C1314 C1315 1.524 . S
C1314 H1333 0.913 . S
C1315 H1291 0.950 . S
C1315 C1314 1.524 . S
C1315 C1316 1.415 . S
C1316 H1292 0.950 . S
C1316 C1311 1.363 . S
C1316 C1315 1.415 . S
C1317 H1293 0.951 . S
C1317 C1318 1.366 . S
C1317 C1319 1.388 . S
C1318 C1317 1.366 . S
C1318 C1322 1.385 . S
C1319 H1294 0.951 . S
C1319 C1317 1.388 . S
C1319 C1320 1.366 . S
C1320 C1319 1.366 . S
C1320 C1321 1.414 . S
C1320 C1323 1.499 . S
C1321 H1295 0.950 . S
C1321 C1320 1.414 . S
C1321 C1322 1.374 . S
C1322 H1296 0.950 . S
C1322 C1318 1.385 . S
C1322 C1321 1.374 . S
C1323 C1320 1.499 . S
C1323 C1324 1.373 . S
C1323 C1325 1.389 . S
C1324 H1297 0.950 . S
C1324 C1310 1.377 . S
C1324 C1323 1.373 . S
C1325 C1309 1.377 . S
C1325 C1323 1.389 . S
C1325 C1326 1.524 . S
C1326 C1325 1.524 . S
C1326 C1327 1.397 . S
C1326 C1331 1.363 . S
C1327 H1298 0.950 . S
C1327 C1326 1.397 . S
C1327 C1328 1.334 . S
C1328 H1299 0.950 . S
C1328 C1327 1.334 . S
C1328 C1329 1.287 . S
C1329 C1328 1.287 . S
C1329 C1330 1.524 . S
C1329 H1332 0.999 . S
C1330 H1300 0.950 . S
C1330 C1329 1.524 . S
C1330 C1331 1.415 . S
C1331 H1301 0.950 . S
C1331 C1326 1.363 . S
C1331 C1330 1.415 . S
H1332 C1329 0.999 . S
H1333 C1314 0.913 . S
H1334 C1352 0.951 . S
H1335 C1354 0.951 . S
H1336 C1356 0.950 . S
H1337 C1357 0.950 . S
H1338 C1359 0.950 . S
H1339 C1362 0.950 . S
H1340 C1363 0.950 . S
H1341 C1365 0.950 . S
H1342 C1366 0.950 . S
H1343 C1367 0.951 . S
H1344 C1369 0.951 . S
H1345 C1371 0.950 . S
H1346 C1372 0.950 . S
H1347 C1374 0.950 . S
H1348 C1377 0.950 . S
H1349 C1378 0.950 . S
H1350 C1380 0.950 . S
H1351 C1381 0.950 . S
C1352 H1334 0.951 . S
C1352 C1353 1.366 . S
C1352 C1354 1.388 . S
C1353 C1352 1.366 . S
C1353 C1357 1.385 . S
C1354 H1335 0.951 . S
C1354 C1352 1.388 . S
C1354 C1355 1.366 . S
C1355 C1354 1.366 . S
C1355 C1356 1.414 . S
C1355 C1358 1.499 . S
C1356 H1336 0.950 . S
C1356 C1355 1.414 . S
C1356 C1357 1.374 . S
C1357 H1337 0.950 . S
C1357 C1353 1.385 . S
C1357 C1356 1.374 . S
C1358 C1355 1.499 . S
C1358 C1359 1.373 . S
C1358 C1360 1.389 . S
C1359 H1338 0.950 . S
C1359 C1358 1.373 . S
C1359 C1375 1.377 . S
C1360 C1358 1.389 . S
C1360 C1361 1.524 . S
C1360 C1374 1.377 . S
C1361 C1360 1.524 . S
C1361 C1362 1.397 . S
C1361 C1366 1.363 . S
C1362 H1339 0.950 . S
C1362 C1361 1.397 . S
C1362 C1363 1.334 . S
C1363 H1340 0.950 . S
C1363 C1362 1.334 . S
C1363 C1364 1.287 . S
C1364 C1363 1.287 . S
C1364 C1365 1.524 . S
C1364 H1383 0.913 . S
C1365 H1341 0.950 . S
C1365 C1364 1.524 . S
C1365 C1366 1.415 . S
C1366 H1342 0.950 . S
C1366 C1361 1.363 . S
C1366 C1365 1.415 . S
C1367 H1343 0.951 . S
C1367 C1368 1.366 . S
C1367 C1369 1.388 . S
C1368 C1367 1.366 . S
C1368 C1372 1.385 . S
C1369 H1344 0.951 . S
C1369 C1367 1.388 . S
C1369 C1370 1.366 . S
C1370 C1369 1.366 . S
C1370 C1371 1.414 . S
C1370 C1373 1.499 . S
C1371 H1345 0.950 . S
C1371 C1370 1.414 . S
C1371 C1372 1.374 . S
C1372 H1346 0.950 . S
C1372 C1368 1.385 . S
C1372 C1371 1.374 . S
C1373 C1370 1.499 . S
C1373 C1374 1.373 . S
C1373 C1375 1.389 . S
C1374 H1347 0.950 . S
C1374 C1360 1.377 . S
C1374 C1373 1.373 . S
C1375 C1359 1.377 . S
C1375 C1373 1.389 . S
C1375 C1376 1.524 . S
C1376 C1375 1.524 . S
C1376 C1377 1.397 . S
C1376 C1381 1.363 . S
C1377 H1348 0.950 . S
C1377 C1376 1.397 . S
C1377 C1378 1.334 . S
C1378 H1349 0.950 . S
C1378 C1377 1.334 . S
C1378 C1379 1.287 . S
C1379 C1378 1.287 . S
C1379 C1380 1.524 . S
C1379 H1382 0.999 . S
C1380 H1350 0.950 . S
C1380 C1379 1.524 . S
C1380 C1381 1.415 . S
C1381 H1351 0.950 . S
C1381 C1376 1.363 . S
C1381 C1380 1.415 . S
H1382 C1379 0.999 . S
H1383 C1364 0.913 . S
C203 N1 1.424 . S
C218 C123 1.426 . S
C253 N18 1.626 . S
C268 C126 1.590 . S
C318 C162 1.220 . S
C303 N28 1.238 . S
C353 N40 1.808 . S
C368 C182 1.815 . S
C418 C136 2.134 . S
C403 N5 2.135 . S
C468 C113 1.645 . S
C453 N14 1.636 . S
C518 C166 1.556 . S
C503 N31 1.639 . S
C568 C146 0.999 . S
C553 N41 1.039 . S
C603 N2 1.222 . S
C618 C176 1.170 . S
C668 C142 1.743 1_556 S
C653 N27 1.736 . S
C703 N44 1.758 . S
C718 C108 1.726 . S
C753 N15 1.141 . S
C768 C156 1.121 . S
C818 C122 1.876 1_655 S
C803 N57 1.891 . S
C853 N70 1.116 . S
C868 C128 1.103 . S
C903 N79 1.547 . S
C918 C163 1.534 . S
C953 N93 1.570 . S
C968 C183 1.541 . S
C1003 N54 1.612 . S
C1018 C133 1.570 . S
C1068 C116 2.131 . S
C1053 N66 2.129 . S
C1118 C168 0.978 . S
C1103 N80 1.041 . S
C1168 C148 1.332 . S
C1153 N96 1.418 . S
C1203 N53 1.269 . S
C1218 C173 1.249 . S
C1268 C143 1.491 . S
C1253 N83 1.492 . S
C1318 C106 1.839 . S
C1303 N92 1.877 . S
C1353 N67 1.204 . S
C1368 C153 1.153 . S
