# Generated by pormake.
# Topology wbl, (4,4)-cn, num edge types: 1
# Building blocks:
#     Node 0, Type 0, BuildingBlock: MIFKUJ_clean_linker_1, # of connection points: 4
#     Node 1, Type 0, BuildingBlock: MIFKUJ_clean_linker_1, # of connection points: 4
#     Node 2, Type 0, BuildingBlock: MIFKUJ_clean_linker_1, # of connection points: 4
#     Node 3, Type 0, BuildingBlock: MIFKUJ_clean_linker_1, # of connection points: 4
#     Node 4, Type 0, BuildingBlock: MIFKUJ_clean_linker_1, # of connection points: 4
#     Node 5, Type 0, BuildingBlock: MIFKUJ_clean_linker_1, # of connection points: 4
#     Node 6, Type 0, BuildingBlock: MIFKUJ_clean_linker_1, # of connection points: 4
#     Node 7, Type 0, BuildingBlock: MIFKUJ_clean_linker_1, # of connection points: 4
#     Node 8, Type 1, BuildingBlock: NAHDIM_clean_sbu_0, # of connection points: 4
#     Node 9, Type 1, BuildingBlock: NAHDIM_clean_sbu_0, # of connection points: 4
#     Node 10, Type 1, BuildingBlock: NAHDIM_clean_sbu_0, # of connection points: 4
#     Node 11, Type 1, BuildingBlock: NAHDIM_clean_sbu_0, # of connection points: 4
#     Node 12, Type 1, BuildingBlock: NAHDIM_clean_sbu_0, # of connection points: 4
#     Node 13, Type 1, BuildingBlock: NAHDIM_clean_sbu_0, # of connection points: 4
#     Node 14, Type 1, BuildingBlock: NAHDIM_clean_sbu_0, # of connection points: 4
#     Node 15, Type 1, BuildingBlock: NAHDIM_clean_sbu_0, # of connection points: 4
#     Edge 16, Type (0, 1), BuildingBlock: XUDNAN_clean_linker_2, # of connection points: 2
#     Edge 17, Type (0, 1), BuildingBlock: XUDNAN_clean_linker_2, # of connection points: 2
#     Edge 18, Type (0, 1), BuildingBlock: XUDNAN_clean_linker_2, # of connection points: 2
#     Edge 19, Type (0, 1), BuildingBlock: XUDNAN_clean_linker_2, # of connection points: 2
#     Edge 20, Type (0, 1), BuildingBlock: XUDNAN_clean_linker_2, # of connection points: 2
#     Edge 21, Type (0, 1), BuildingBlock: XUDNAN_clean_linker_2, # of connection points: 2
#     Edge 22, Type (0, 1), BuildingBlock: XUDNAN_clean_linker_2, # of connection points: 2
#     Edge 23, Type (0, 1), BuildingBlock: XUDNAN_clean_linker_2, # of connection points: 2
#     Edge 24, Type (0, 1), BuildingBlock: XUDNAN_clean_linker_2, # of connection points: 2
#     Edge 25, Type (0, 1), BuildingBlock: XUDNAN_clean_linker_2, # of connection points: 2
#     Edge 26, Type (0, 1), BuildingBlock: XUDNAN_clean_linker_2, # of connection points: 2
#     Edge 27, Type (0, 1), BuildingBlock: XUDNAN_clean_linker_2, # of connection points: 2
#     Edge 28, Type (0, 1), BuildingBlock: XUDNAN_clean_linker_2, # of connection points: 2
#     Edge 29, Type (0, 1), BuildingBlock: XUDNAN_clean_linker_2, # of connection points: 2
#     Edge 30, Type (0, 1), BuildingBlock: XUDNAN_clean_linker_2, # of connection points: 2
#     Edge 31, Type (0, 1), BuildingBlock: XUDNAN_clean_linker_2, # of connection points: 2
#     Edge 32, Type (0, 1), BuildingBlock: XUDNAN_clean_linker_2, # of connection points: 2
#     Edge 33, Type (0, 1), BuildingBlock: XUDNAN_clean_linker_2, # of connection points: 2
#     Edge 34, Type (0, 1), BuildingBlock: XUDNAN_clean_linker_2, # of connection points: 2
#     Edge 35, Type (0, 1), BuildingBlock: XUDNAN_clean_linker_2, # of connection points: 2
#     Edge 36, Type (0, 1), BuildingBlock: XUDNAN_clean_linker_2, # of connection points: 2
#     Edge 37, Type (0, 1), BuildingBlock: XUDNAN_clean_linker_2, # of connection points: 2
#     Edge 38, Type (0, 1), BuildingBlock: XUDNAN_clean_linker_2, # of connection points: 2
#     Edge 39, Type (0, 1), BuildingBlock: XUDNAN_clean_linker_2, # of connection points: 2
#     Edge 40, Type (0, 1), BuildingBlock: XUDNAN_clean_linker_2, # of connection points: 2
#     Edge 41, Type (0, 1), BuildingBlock: XUDNAN_clean_linker_2, # of connection points: 2
#     Edge 42, Type (0, 1), BuildingBlock: XUDNAN_clean_linker_2, # of connection points: 2
#     Edge 43, Type (0, 1), BuildingBlock: XUDNAN_clean_linker_2, # of connection points: 2
#     Edge 44, Type (0, 1), BuildingBlock: XUDNAN_clean_linker_2, # of connection points: 2
#     Edge 45, Type (0, 1), BuildingBlock: XUDNAN_clean_linker_2, # of connection points: 2
#     Edge 46, Type (0, 1), BuildingBlock: XUDNAN_clean_linker_2, # of connection points: 2
#     Edge 47, Type (0, 1), BuildingBlock: XUDNAN_clean_linker_2, # of connection points: 2
# Relax obj value: 0.143
# Max RMSD: 0.133
# Mean RMSD: 0.125
data_MOF--net-wbl--node1-NAHDIM_clean_sbu_0--node2-MIFKUJ_clean_linker_1--edge1-XUDNAN_clean_linker_2
_symmetry_space_group_name_H-M    P1
_symmetry_Int_Tables_number       1
_symmetry_cell_setting            triclinic
loop_
_symmetry_equiv_pos_as_xyz
'x, y, z'
_cell_length_a     47.161344
_cell_length_b     45.62824
_cell_length_c     72.982903
_cell_angle_alpha  90.086122
_cell_angle_beta   90.00554
_cell_angle_gamma 90.020164
loop_
_atom_site_label
_atom_site_type_symbol
_atom_site_fract_x
_atom_site_fract_y
_atom_site_fract_z
_atom_type_partial_charge
H0 H 0.99502 0.0653 0.37083 0.0
H1 H 0.9664 0.09815 0.38978 0.0
H2 H 0.89011 0.06062 0.36667 0.0
H3 H 0.91895 0.02846 0.34747 0.0
H4 H 0.9959 0.00536 0.37068 0.0
H5 H 0.98404 0.0821 0.32603 0.0
H6 H 0.95615 0.11874 0.30961 0.0
H7 H 0.90047 0.0502 0.28987 0.0
H8 H 0.92938 0.01371 0.30566 0.0
H9 H 0.01401 0.92367 0.33042 0.0
H10 H 0.0465 0.89102 0.31415 0.0
H11 H 0.07502 0.9639 0.28113 0.0
H12 H 0.04371 0.99661 0.2981 0.0
H13 H 0.98994 0.00233 0.30281 0.0
H14 H -9e-05 0.94686 0.37403 0.0
H15 H 0.03382 0.92032 0.39312 0.0
H16 H 0.1028 0.95508 0.36076 0.0
H17 H 0.0688 0.98235 0.34211 0.0
C18 C 0.9591 0.04457 0.35771 0.0
C19 C 0.97212 0.06431 0.36982 0.0
C20 C 0.95571 0.08296 0.38069 0.0
C21 C 0.92591 0.08201 0.37981 0.0
C22 C 0.91298 0.06233 0.36751 0.0
C23 C 0.92942 0.04382 0.35656 0.0
C24 C 0.97652 0.02404 0.34672 0.0
C25 C 0.99454 0.00453 0.35584 0.0
C26 C 0.97519 0.02344 0.3274 0.0
C27 C 0.95858 0.04533 0.3171 0.0
C28 C 0.9659 0.07507 0.31804 0.0
C29 C 0.94984 0.09596 0.30872 0.0
C30 C 0.92595 0.08752 0.29843 0.0
C31 C 0.91899 0.05753 0.29735 0.0
C32 C 0.93532 0.03661 0.30648 0.0
C33 C 0.02681 0.96271 0.31573 0.0
C34 C 0.02733 0.9326 0.3197 0.0
C35 C 0.04567 0.91389 0.31023 0.0
C36 C 0.06358 0.9249 0.29645 0.0
C37 C 0.06195 0.9548 0.29192 0.0
C38 C 0.04382 0.9735 0.30149 0.0
C39 C 0.00937 0.98325 0.32676 0.0
C40 C 0.99119 0.00277 0.31765 0.0
C41 C 0.01132 0.98445 0.34612 0.0
C42 C 0.03181 0.96645 0.3566 0.0
C43 C 0.02234 0.94858 0.37098 0.0
C44 C 0.04173 0.93323 0.38178 0.0
C45 C 0.07101 0.9356 0.37845 0.0
C46 C 0.0804 0.95303 0.36378 0.0
C47 C 0.06099 0.96841 0.353 0.0
H48 H 0.97913 0.45728 0.55697 0.0
H49 H 0.94758 0.42254 0.54162 0.0
H50 H 0.87668 0.45651 0.57255 0.0
H51 H 0.90829 0.49176 0.58755 0.0
H52 H 0.98114 0.51711 0.55956 0.0
H53 H 0.96725 0.43443 0.60099 0.0
H54 H 0.9405 0.40032 0.62021 0.0
H55 H 0.90373 0.47361 0.64936 0.0
H56 H 0.93096 0.50744 0.63033 0.0
H57 H -0.00139 0.56415 0.63357 0.0
H58 H 0.03497 0.58822 0.65188 0.0
H59 H 0.09896 0.55936 0.61341 0.0
H60 H 0.06268 0.53348 0.59595 0.0
H61 H 0.99005 0.50978 0.62713 0.0
H62 H 0.00799 0.59225 0.58934 0.0
H63 H 0.03866 0.62661 0.57326 0.0
H64 H 0.06476 0.55738 0.5364 0.0
H65 H 0.03522 0.5227 0.55329 0.0
C66 C 0.94611 0.47682 0.57355 0.0
C67 C 0.95672 0.45755 0.56024 0.0
C68 C 0.93871 0.43758 0.55158 0.0
C69 C 0.90972 0.43662 0.55603 0.0
C70 C 0.89889 0.45684 0.56878 0.0
C71 C 0.91695 0.4768 0.57746 0.0
C72 C 0.96591 0.4958 0.58394 0.0
C73 C 0.98326 0.51545 0.57432 0.0
C74 C 0.96808 0.49418 0.60323 0.0
C75 C 0.95097 0.47343 0.61421 0.0
C76 C 0.95321 0.44308 0.61142 0.0
C77 C 0.93784 0.42364 0.62238 0.0
C78 C 0.92003 0.43423 0.63638 0.0
C79 C 0.9176 0.46469 0.63893 0.0
C80 C 0.93303 0.48408 0.62802 0.0
C81 C 0.02778 0.54721 0.61326 0.0
C82 C 0.02049 0.56294 0.62911 0.0
C83 C 0.04134 0.57703 0.63946 0.0
C84 C 0.07001 0.57596 0.63412 0.0
C85 C 0.0772 0.56042 0.6181 0.0
C86 C 0.05637 0.54594 0.60792 0.0
C87 C 0.00563 0.5311 0.6028 0.0
C88 C 0.98781 0.51187 0.61239 0.0
C89 C 0.00285 0.53341 0.58351 0.0
C90 C 0.01968 0.55478 0.57274 0.0
C91 C 0.02043 0.58443 0.57785 0.0
C92 C 0.03774 0.60416 0.56847 0.0
C93 C 0.05429 0.59477 0.55354 0.0
C94 C 0.05269 0.56525 0.54802 0.0
C95 C 0.03557 0.54545 0.55755 0.0
H96 H 0.50304 0.55357 0.876 0.0
H97 H 0.47048 0.57971 0.89628 0.0
H98 H 0.39979 0.55093 0.86307 0.0
H99 H 0.43227 0.52352 0.84355 0.0
H100 H 0.50678 0.49668 0.87033 0.0
H101 H 0.4975 0.57979 0.8287 0.0
H102 H 0.46879 0.61738 0.8138 0.0
H103 H 0.41577 0.54952 0.79033 0.0
H104 H 0.44583 0.51231 0.80432 0.0
H105 H 0.51099 0.44063 0.80029 0.0
H106 H 0.54328 0.40761 0.78382 0.0
H107 H 0.61464 0.44829 0.81098 0.0
H108 H 0.58243 0.48133 0.82706 0.0
H109 H 0.50786 0.50347 0.80244 0.0
H110 H 0.52535 0.42012 0.84154 0.0
H111 H 0.55515 0.38481 0.85779 0.0
H112 H 0.59369 0.45569 0.88824 0.0
H113 H 0.56386 0.49086 0.87194 0.0
C114 C 0.47017 0.53682 0.85812 0.0
C115 C 0.48053 0.553 0.87307 0.0
C116 C 0.46188 0.56816 0.88456 0.0
C117 C 0.43247 0.56743 0.88133 0.0
C118 C 0.42226 0.55167 0.86612 0.0
C119 C 0.44088 0.53634 0.85474 0.0
C120 C 0.48975 0.51894 0.84676 0.0
C121 C 0.50733 0.49852 0.85552 0.0
C122 C 0.49014 0.52083 0.82742 0.0
C123 C 0.47363 0.54339 0.81762 0.0
C124 C 0.47988 0.57316 0.82011 0.0
C125 C 0.46326 0.5946 0.8117 0.0
C126 C 0.43972 0.58666 0.8009 0.0
C127 C 0.43397 0.55664 0.79819 0.0
C128 C 0.45099 0.53524 0.8063 0.0
C129 C 0.54438 0.46323 0.81494 0.0
C130 C 0.53363 0.44263 0.80245 0.0
C131 C 0.55204 0.42368 0.79318 0.0
C132 C 0.58146 0.42537 0.79612 0.0
C133 C 0.59212 0.44668 0.80824 0.0
C134 C 0.57375 0.46545 0.81753 0.0
C135 C 0.52496 0.48141 0.82607 0.0
C136 C 0.50738 0.50177 0.81726 0.0
C137 C 0.52488 0.4797 0.84542 0.0
C138 C 0.54256 0.45814 0.85543 0.0
C139 C 0.54038 0.42805 0.85162 0.0
C140 C 0.55745 0.40791 0.86088 0.0
C141 C 0.57681 0.41748 0.87427 0.0
C142 C 0.57876 0.44761 0.87815 0.0
C143 C 0.56176 0.46773 0.86884 0.0
H144 H 0.4953 0.94138 0.04618 0.0
H145 H 0.46155 0.91291 0.02802 0.0
H146 H 0.39206 0.95665 0.05524 0.0
H147 H 0.42596 0.98543 0.07322 0.0
H148 H 0.50705 0.99821 0.05047 0.0
H149 H 0.46991 0.92048 0.08949 0.0
H150 H 0.43532 0.89218 0.10719 0.0
H151 H 0.40961 0.97121 0.13534 0.0
H152 H 0.44418 -0.00072 0.11768 0.0
H153 H 0.51673 0.04777 0.12344 0.0
H154 H 0.55252 0.0667 0.14466 0.0
H155 H 0.61729 0.01812 0.11581 0.0
H156 H 0.58131 0.99888 0.09481 0.0
H157 H 0.50114 0.99169 0.11821 0.0
H158 H 0.53528 0.06928 0.08206 0.0
H159 H 0.57086 0.10063 0.06788 0.0
H160 H 0.59999 0.02755 0.03519 0.0
H161 H 0.56409 0.99611 0.04952 0.0
C162 C 0.46317 0.96516 0.06127 0.0
C163 C 0.47281 0.9452 0.04803 0.0
C164 C 0.4535 0.929 0.03762 0.0
C165 C 0.42417 0.93247 0.04029 0.0
C166 C 0.41455 0.95328 0.05307 0.0
C167 C 0.43388 0.96966 0.06336 0.0
C168 C 0.48382 0.98035 0.07332 0.0
C169 C 0.50592 0.99649 0.06527 0.0
C170 C 0.48184 0.97902 0.09267 0.0
C171 C 0.45956 0.962 0.10225 0.0
C172 C 0.45649 0.93175 0.09927 0.0
C173 C 0.4367 0.91562 0.10937 0.0
C174 C 0.41988 0.92946 0.12274 0.0
C175 C 0.42256 0.95986 0.12534 0.0
C176 C 0.44224 0.97594 0.11523 0.0
C177 C 0.54637 0.02202 0.10752 0.0
C178 C 0.53866 0.04133 0.12165 0.0
C179 C 0.55915 0.05229 0.13366 0.0
C180 C 0.58771 0.04389 0.13188 0.0
C181 C 0.59542 0.0248 0.11759 0.0
C182 C 0.57494 0.01398 0.10551 0.0
C183 C 0.52438 0.00924 0.09538 0.0
C184 C 0.50215 0.99349 0.1034 0.0
C185 C 0.52597 0.01132 0.07608 0.0
C186 C 0.54731 0.03026 0.06704 0.0
C187 C 0.54949 0.0599 0.07197 0.0
C188 C 0.56991 0.07778 0.06389 0.0
C189 C 0.58849 0.06646 0.05058 0.0
C190 C 0.58593 0.03689 0.04537 0.0
C191 C 0.56547 0.01893 0.05353 0.0
H192 H 0.00538 0.55897 0.8816 0.0
H193 H 0.0392 0.58514 0.86232 0.0
H194 H 0.10739 0.55831 0.89819 0.0
H195 H 0.07366 0.53071 0.91671 0.0
H196 H 0.00317 0.50138 0.88758 0.0
H197 H 0.00636 0.58749 0.92904 0.0
H198 H 0.03532 0.62516 0.94374 0.0
H199 H 0.08676 0.55735 0.96854 0.0
H200 H 0.05635 0.52013 0.95477 0.0
H201 H 0.98657 0.45503 0.9605 0.0
H202 H 0.95165 0.42524 0.97691 0.0
H203 H 0.88599 0.45672 0.94058 0.0
H204 H 0.92074 0.48714 0.92474 0.0
H205 H 0.99177 0.51343 0.95476 0.0
H206 H 0.97487 0.42752 0.91864 0.0
H207 H 0.94792 0.39143 0.90084 0.0
H208 H 0.92574 0.45842 0.86174 0.0
H209 H 0.95131 0.49485 0.87999 0.0
C210 C 0.0369 0.54313 0.90072 0.0
C211 C 0.02762 0.55884 0.88534 0.0
C212 C 0.04698 0.57404 0.87442 0.0
C213 C 0.07607 0.57391 0.8787 0.0
C214 C 0.08521 0.55863 0.89436 0.0
C215 C 0.06586 0.54318 0.90515 0.0
C216 C 0.01648 0.52536 0.91146 0.0
C217 C 0.00024 0.50429 0.90222 0.0
C218 C 0.01345 0.52852 0.93061 0.0
C219 C 0.02937 0.55115 0.94081 0.0
C220 C 0.02359 0.58091 0.93795 0.0
C221 C 0.0404 0.60238 0.94623 0.0
C222 C 0.06373 0.59448 0.95723 0.0
C223 C 0.06879 0.56448 0.96047 0.0
C224 C 0.05155 0.54306 0.95251 0.0
C225 C 0.95629 0.47301 0.94128 0.0
C226 C 0.96457 0.45573 0.95625 0.0
C227 C 0.94466 0.43855 0.96549 0.0
C228 C 0.91607 0.4385 0.96 0.0
C229 C 0.90776 0.45647 0.9453 0.0
C230 C 0.92764 0.47367 0.93611 0.0
C231 C 0.97768 0.48982 0.93078 0.0
C232 C 0.99435 0.51056 0.9401 0.0
C233 C 0.98089 0.48637 0.91157 0.0
C234 C 0.96479 0.46411 0.90086 0.0
C235 C 0.96376 0.43464 0.90645 0.0
C236 C 0.94855 0.41398 0.89624 0.0
C237 C 0.93487 0.42226 0.87997 0.0
C238 C 0.93629 0.45154 0.8742 0.0
C239 C 0.95092 0.4723 0.88461 0.0
H240 H 0.48705 0.56696 0.19197 0.0
H241 H 0.45277 0.59884 0.20683 0.0
H242 H 0.38659 0.53535 0.1955 0.0
H243 H 0.42085 0.50536 0.17895 0.0
H244 H 0.49565 0.49826 0.19732 0.0
H245 H 0.46995 0.57678 0.15744 0.0
H246 H 0.4388 0.60895 0.14048 0.0
H247 H 0.41286 0.53562 0.10663 0.0
H248 H 0.44104 0.50299 0.12552 0.0
H249 H 0.5107 0.41942 0.15693 0.0
H250 H 0.53418 0.38285 0.13785 0.0
H251 H 0.57089 0.45198 0.10508 0.0
H252 H 0.54839 0.48854 0.12483 0.0
H253 H 0.49369 0.49807 0.12933 0.0
H254 H 0.49926 0.43901 0.19853 0.0
H255 H 0.53074 0.40402 0.21376 0.0
H256 H 0.60246 0.44114 0.1852 0.0
H257 H 0.57091 0.47626 0.17012 0.0
C258 C 0.45626 0.53424 0.18412 0.0
C259 C 0.4651 0.56004 0.19278 0.0
C260 C 0.44535 0.5781 0.20148 0.0
C261 C 0.41648 0.57005 0.20239 0.0
C262 C 0.40825 0.54301 0.19464 0.0
C263 C 0.42787 0.52555 0.18534 0.0
C264 C 0.47649 0.51681 0.17322 0.0
C265 C 0.49533 0.49828 0.18246 0.0
C266 C 0.47619 0.51731 0.15383 0.0
C267 C 0.45726 0.53717 0.14326 0.0
C268 C 0.4566 0.56736 0.14693 0.0
C269 C 0.43925 0.586 0.13674 0.0
C270 C 0.42312 0.57522 0.12193 0.0
C271 C 0.42422 0.54494 0.11812 0.0
C272 C 0.44079 0.52616 0.12878 0.0
C273 C 0.52804 0.45676 0.14245 0.0
C274 C 0.52434 0.42674 0.14591 0.0
C275 C 0.5375 0.40583 0.13483 0.0
C276 C 0.5543 0.41447 0.11987 0.0
C277 C 0.55839 0.44456 0.11662 0.0
C278 C 0.54535 0.4655 0.1278 0.0
C279 C 0.5123 0.47885 0.15339 0.0
C280 C 0.49421 0.49827 0.14419 0.0
C281 C 0.51335 0.47937 0.17277 0.0
C282 C 0.53276 0.46004 0.18312 0.0
C283 C 0.52182 0.43987 0.19576 0.0
C284 C 0.53975 0.41979 0.20434 0.0
C285 C 0.56898 0.41981 0.20057 0.0
C286 C 0.58005 0.44079 0.18845 0.0
C287 C 0.56206 0.4607 0.17975 0.0
H288 H 0.49505 0.92588 0.37926 0.0
H289 H 0.46073 0.90005 0.35983 0.0
H290 H 0.39207 0.94202 0.38895 0.0
H291 H 0.42635 0.96815 0.40801 0.0
H292 H 0.50288 0.98429 0.38121 0.0
H293 H 0.48854 0.90859 0.42519 0.0
H294 H 0.45883 0.87307 0.44118 0.0
H295 H 0.40954 0.94417 0.46416 0.0
H296 H 0.44032 0.97948 0.44874 0.0
H297 H 0.50314 0.05081 0.44762 0.0
H298 H 0.53417 0.08499 0.46416 0.0
H299 H 0.60749 0.04182 0.44103 0.0
H300 H 0.57651 0.00745 0.42502 0.0
H301 H 0.50019 0.98878 0.44918 0.0
H302 H 0.51812 0.06418 0.40173 0.0
H303 H 0.5495 0.09524 0.38315 0.0
H304 H 0.59617 0.01848 0.3661 0.0
H305 H 0.56458 0.98757 0.38445 0.0
C306 C 0.46326 0.94881 0.39514 0.0
C307 C 0.47259 0.92924 0.38156 0.0
C308 C 0.45299 0.91436 0.37057 0.0
C309 C 0.42374 0.91912 0.37285 0.0
C310 C 0.41448 0.93812 0.38679 0.0
C311 C 0.43405 0.95285 0.3978 0.0
C312 C 0.48383 0.96673 0.40568 0.0
C313 C 0.50258 0.9849 0.39607 0.0
C314 C 0.48342 0.96772 0.42504 0.0
C315 C 0.46643 0.94657 0.43572 0.0
C316 C 0.47149 0.91644 0.43385 0.0
C317 C 0.45436 0.89618 0.44292 0.0
C318 C 0.43158 0.90567 0.45387 0.0
C319 C 0.42712 0.936 0.45609 0.0
C320 C 0.44456 0.95627 0.4472 0.0
C321 C 0.53756 0.0268 0.43501 0.0
C322 C 0.52592 0.04867 0.44626 0.0
C323 C 0.54363 0.06827 0.45557 0.0
C324 C 0.57326 0.06607 0.45391 0.0
C325 C 0.58477 0.04387 0.44279 0.0
C326 C 0.5671 0.02438 0.43348 0.0
C327 C 0.5189 0.00663 0.42465 0.0
C328 C 0.50051 0.98807 0.43432 0.0
C329 C 0.52015 0.00475 0.40534 0.0
C330 C 0.53916 0.02366 0.39443 0.0
C331 C 0.53516 0.05413 0.394 0.0
C332 C 0.55297 0.07177 0.38339 0.0
C333 C 0.57525 0.05919 0.3733 0.0
C334 C 0.57931 0.02871 0.37391 0.0
C335 C 0.56124 0.01106 0.38426 0.0
H336 H 0.98033 0.03768 0.70806 0.0
H337 H 0.94584 0.06657 0.72531 0.0
H338 H 0.87821 0.03111 0.69214 0.0
H339 H 0.91267 0.00116 0.67534 0.0
H340 H 0.99065 0.9826 0.70245 0.0
H341 H 0.96179 0.06344 0.66257 0.0
H342 H 0.92941 0.09339 0.64427 0.0
H343 H 0.90232 0.01587 0.61494 0.0
H344 H 0.93508 0.98626 0.63306 0.0
H345 H 0.01084 0.93751 0.62907 0.0
H346 H 0.04981 0.92066 0.6096 0.0
H347 H 0.10938 0.96816 0.64345 0.0
H348 H 0.07024 0.98539 0.66267 0.0
H349 H 0.99369 0.99311 0.63483 0.0
H350 H 0.02477 0.9136 0.67093 0.0
H351 H 0.05968 0.88267 0.6862 0.0
H352 H 0.0815 0.95444 0.72224 0.0
H353 H 0.0465 0.98548 0.70677 0.0
C354 C 0.94921 0.01762 0.69016 0.0
C355 C 0.95804 0.03562 0.70471 0.0
C356 C 0.93833 0.05211 0.71457 0.0
C357 C 0.90944 0.0511 0.70997 0.0
C358 C 0.90043 0.03241 0.69582 0.0
C359 C 0.92011 0.01547 0.68617 0.0
C360 C 0.9707 0.00215 0.67885 0.0
C361 C 0.99144 0.98515 0.68768 0.0
C362 C 0.97129 0.00456 0.65951 0.0
C363 C 0.95073 0.02264 0.64918 0.0
C364 C 0.94865 0.05293 0.6523 0.0
C365 C 0.93006 0.06997 0.64188 0.0
C366 C 0.91334 0.05703 0.6281 0.0
C367 C 0.91522 0.0266 0.62524 0.0
C368 C 0.93383 0.00962 0.63562 0.0
C369 C 0.03766 0.96257 0.64736 0.0
C370 C 0.03232 0.94414 0.63234 0.0
C371 C 0.05462 0.93436 0.62133 0.0
C372 C 0.08265 0.94306 0.62503 0.0
C373 C 0.08798 0.96126 0.6402 0.0
C374 C 0.06568 0.97092 0.65126 0.0
C375 C 0.01386 0.97418 0.65846 0.0
C376 C 0.99274 0.99041 0.64959 0.0
C377 C 0.01284 0.97092 0.67771 0.0
C378 C 0.03331 0.95197 0.68753 0.0
C379 C 0.0372 0.92277 0.68202 0.0
C380 C 0.0572 0.90514 0.69074 0.0
C381 C 0.07353 0.91625 0.70529 0.0
C382 C 0.06914 0.94528 0.71111 0.0
C383 C 0.04918 0.963 0.70229 0.0
C384 C 0.23092 0.69205 0.00506 0.0
O385 O 0.24155 0.67608 0.01835 0.0
O386 O 0.30422 0.69675 0.02306 0.0
Zn387 Zn 0.28974 0.71007 0.9985 0.0
O388 O 0.30592 0.68338 0.97924 0.0
C389 C 0.30165 0.76897 0.00808 0.0
O390 O 0.28807 0.76051 0.02288 0.0
O391 O 0.24723 0.70869 0.99591 0.0
C392 C 0.33021 0.68696 0.97206 0.0
O393 O 0.34589 0.70932 0.97718 0.0
C394 C 0.30717 0.67006 0.02761 0.0
O395 O 0.29845 0.64934 0.01643 0.0
O396 O 0.30418 0.75108 0.99482 0.0
C397 C 0.23611 0.82993 0.25108 0.0
O398 O 0.25642 0.84965 0.25065 0.0
O399 O 0.29868 0.81285 0.22309 0.0
Zn400 Zn 0.28438 0.7955 0.24681 0.0
O401 O 0.303 0.81599 0.26822 0.0
C402 C 0.31827 0.74393 0.24587 0.0
O403 O 0.33859 0.76348 0.24745 0.0
O404 O 0.2426 0.8031 0.24907 0.0
C405 C 0.31575 0.80576 0.28215 0.0
O406 O 0.31867 0.77731 0.28409 0.0
C407 C 0.31545 0.83465 0.22279 0.0
O408 O 0.32326 0.84678 0.23833 0.0
O409 O 0.29261 0.75238 0.24596 0.0
C410 C 0.26695 0.81684 0.51 0.0
O411 O 0.2598 0.83022 0.52525 0.0
O412 O 0.19607 0.82965 0.52752 0.0
Zn413 Zn 0.20583 0.80734 0.50458 0.0
O414 O 0.18958 0.82982 0.48333 0.0
C415 C 0.1636 0.76451 0.51186 0.0
O416 O 0.14896 0.78833 0.51547 0.0
O417 O 0.24786 0.805 0.50017 0.0
C418 C 0.17129 0.82102 0.47178 0.0
O419 O 0.16082 0.79444 0.47315 0.0
C420 C 0.19987 0.85717 0.52856 0.0
O421 O 0.21192 0.87095 0.51482 0.0
O422 O 0.18908 0.767 0.50644 0.0
C423 C 0.27455 0.68315 0.75069 0.0
O424 O 0.26275 0.66415 0.73951 0.0
O425 O 0.20505 0.68101 0.73211 0.0
Zn426 Zn 0.21686 0.70238 0.75509 0.0
O427 O 0.20127 0.67992 0.77647 0.0
C428 C 0.20188 0.75824 0.74024 0.0
O429 O 0.21408 0.74702 0.72564 0.0
O430 O 0.25917 0.70266 0.75816 0.0
C431 C 0.17804 0.68559 0.78455 0.0
O432 O 0.16258 0.70779 0.77896 0.0
C433 C 0.17983 0.68377 0.72621 0.0
O434 O 0.16225 0.7012 0.73495 0.0
O435 O 0.20123 0.74335 0.75492 0.0
C436 C 0.73767 0.17 0.50231 0.0
O437 O 0.75777 0.15028 0.50399 0.0
O438 O 0.80036 0.18329 0.52883 0.0
Zn439 Zn 0.78617 0.20473 0.50632 0.0
O440 O 0.80523 0.19064 0.48308 0.0
C441 C 0.81817 0.25393 0.51698 0.0
O442 O 0.83541 0.2324 0.52125 0.0
O443 O 0.74432 0.19695 0.50326 0.0
C444 C 0.83148 0.18519 0.48103 0.0
O445 O 0.8489 0.18879 0.49488 0.0
C446 C 0.81262 0.15847 0.52899 0.0
O447 O 0.8163 0.14418 0.51354 0.0
O448 O 0.79423 0.24781 0.50993 0.0
C449 C 0.75108 0.31898 0.75997 0.0
O450 O 0.77142 0.33848 0.7585 0.0
O451 O 0.8169 0.30124 0.73726 0.0
Zn452 Zn 0.79952 0.28305 0.75997 0.0
O453 O 0.81713 0.29921 0.78308 0.0
C454 C 0.80491 0.2255 0.74432 0.0
O455 O 0.79688 0.23926 0.7294 0.0
O456 O 0.75766 0.292 0.76066 0.0
C457 C 0.84363 0.30315 0.78502 0.0
O458 O 0.86089 0.29658 0.7715 0.0
C459 C 0.82874 0.32628 0.73675 0.0
O460 O 0.83022 0.34211 0.75177 0.0
O461 O 0.80662 0.23969 0.75927 0.0
C462 C 0.74545 0.33449 0.99931 0.0
O463 O 0.72376 0.3525 0.99831 0.0
O464 O 0.67906 0.31103 0.02268 0.0
Zn465 Zn 0.70001 0.2946 0.00094 0.0
O466 O 0.68136 0.31072 0.9784 0.0
C467 C 0.69861 0.23711 0.01619 0.0
O468 O 0.7058 0.25183 0.03097 0.0
O469 O 0.74074 0.30722 0.00105 0.0
C470 C 0.68526 0.30005 0.96252 0.0
O471 O 0.70204 0.27729 0.96053 0.0
C472 C 0.65409 0.30139 0.02528 0.0
O473 O 0.6439 0.28156 0.01398 0.0
O474 O 0.69617 0.25073 0.00111 0.0
C475 C 0.76595 0.18228 0.24155 0.0
O476 O 0.75705 0.16802 0.227 0.0
O477 O 0.69321 0.16931 0.22796 0.0
Zn478 Zn 0.70578 0.19502 0.24889 0.0
O479 O 0.69102 0.17766 0.27232 0.0
C480 C 0.66785 0.24029 0.23718 0.0
O481 O 0.65338 0.21765 0.23112 0.0
O482 O 0.74818 0.19568 0.25161 0.0
C483 C 0.66505 0.17515 0.27664 0.0
O484 O 0.6455 0.1852 0.26548 0.0
C485 C 0.69666 0.14171 0.22862 0.0
O486 O 0.70953 0.13016 0.24286 0.0
O487 O 0.69121 0.236 0.24542 0.0
H488 H 0.11829 0.93902 0.28784 0.0
H489 H 0.0578 0.86739 0.28538 0.0
H490 H 0.09484 0.83536 0.27211 0.0
H491 H 0.15442 0.92229 0.24492 0.0
H492 H 0.18856 0.93288 0.25384 0.0
H493 H 0.15686 0.95014 0.26239 0.0
H494 H 0.17067 0.93541 0.29552 0.0
H495 H 0.20233 0.91804 0.28708 0.0
H496 H 0.17746 0.89744 0.30069 0.0
H497 H 0.13969 0.81063 0.26048 0.0
H498 H 0.18814 0.79559 0.25143 0.0
H499 H 0.21779 0.88445 0.26077 0.0
C500 C 0.11254 0.9168 0.28416 0.0
C501 C 0.08506 0.90579 0.28757 0.0
C502 C 0.07878 0.87627 0.28302 0.0
C503 C 0.09961 0.85798 0.27537 0.0
C504 C 0.12653 0.8696 0.27228 0.0
C505 C 0.13294 0.89839 0.27647 0.0
C506 C 0.16361 0.90545 0.27243 0.0
C507 C 0.16599 0.92908 0.2575 0.0
C508 C 0.17944 0.91461 0.28997 0.0
C509 C 0.17365 0.87602 0.26551 0.0
C510 C 0.15202 0.85558 0.26546 0.0
C511 C 0.15671 0.82654 0.2603 0.0
C512 C 0.18428 0.8182 0.2552 0.0
C513 C 0.20671 0.83887 0.2553 0.0
C514 C 0.20109 0.86816 0.26036 0.0
H515 H 0.04521 0.653 0.5458 0.0
H516 H 0.10793 0.5838 0.54057 0.0
H517 H 0.14141 0.61901 0.52684 0.0
H518 H 0.06369 0.69326 0.50422 0.0
H519 H 0.05823 0.72846 0.51489 0.0
H520 H 0.03812 0.69712 0.52242 0.0
H521 H 0.05556 0.7056 0.5557 0.0
H522 H 0.07571 0.7369 0.54829 0.0
H523 H 0.09309 0.7074 0.56024 0.0
H524 H 0.16927 0.66246 0.51572 0.0
H525 H 0.18959 0.71101 0.50859 0.0
H526 H 0.10921 0.75191 0.52233 0.0
C527 C 0.06594 0.64514 0.54173 0.0
C528 C 0.07382 0.61552 0.5442 0.0
C529 C 0.10112 0.60621 0.5385 0.0
C530 C 0.12038 0.62609 0.53077 0.0
C531 C 0.11203 0.65519 0.52883 0.0
C532 C 0.08546 0.66469 0.53414 0.0
C533 C 0.08231 0.69745 0.53165 0.0
C534 C 0.05922 0.70447 0.51745 0.0
C535 C 0.07633 0.71272 0.55007 0.0
C536 C 0.1115 0.705 0.52448 0.0
C537 C 0.12823 0.6803 0.52274 0.0
C538 C 0.15631 0.68194 0.5169 0.0
C539 C 0.16766 0.70961 0.5129 0.0
C540 C 0.151 0.73526 0.51491 0.0
C541 C 0.12248 0.73274 0.5206 0.0
H542 H 0.40969 0.58523 0.76844 0.0
H543 H 0.42471 0.63934 0.81653 0.0
H544 H 0.38942 0.67475 0.80549 0.0
H545 H 0.39206 0.64503 0.73572 0.0
H546 H 0.36428 0.62371 0.72521 0.0
H547 H 0.39491 0.60566 0.73474 0.0
H548 H 0.3622 0.57374 0.75513 0.0
H549 H 0.33159 0.59157 0.74565 0.0
H550 H 0.337 0.59137 0.7701 0.0
H551 H 0.34842 0.70098 0.79161 0.0
H552 H 0.30293 0.71407 0.77717 0.0
H553 H 0.31228 0.64132 0.73922 0.0
C554 C 0.40588 0.60465 0.7766 0.0
C555 C 0.42037 0.60945 0.79332 0.0
C556 C 0.41462 0.63535 0.80344 0.0
C557 C 0.39446 0.65564 0.79731 0.0
C558 C 0.38009 0.64978 0.78105 0.0
C559 C 0.38549 0.62487 0.77085 0.0
C560 C 0.36468 0.62178 0.75516 0.0
C561 C 0.3799 0.6242 0.73661 0.0
C562 C 0.34787 0.59292 0.75661 0.0
C563 C 0.34597 0.64816 0.75862 0.0
C564 C 0.35567 0.66445 0.77333 0.0
C565 C 0.34083 0.68866 0.77992 0.0
C566 C 0.31497 0.6959 0.77162 0.0
C567 C 0.30401 0.6787 0.75706 0.0
C568 C 0.3202 0.65506 0.7502 0.0
H569 H 0.37919 0.90333 0.05515 0.0
H570 H 0.4242 0.91658 0.00401 0.0
H571 H 0.39355 0.87963 0.98903 0.0
H572 H 0.3739 0.82828 0.05186 0.0
H573 H 0.33905 0.82542 0.06184 0.0
H574 H 0.36161 0.85575 0.06777 0.0
H575 H 0.32259 0.89223 0.05758 0.0
H576 H 0.29977 0.86195 0.05169 0.0
H577 H 0.30793 0.88952 0.03483 0.0
H578 H 0.36165 0.83757 0.98067 0.0
H579 H 0.33148 0.79334 0.97964 0.0
H580 H 0.30721 0.80808 0.03629 0.0
C581 C 0.382 0.89914 0.04066 0.0
C582 C 0.40388 0.91295 0.03068 0.0
C583 C 0.40754 0.90618 0.01189 0.0
C584 C 0.39014 0.88539 0.00325 0.0
C585 C 0.36913 0.8717 0.0136 0.0
C586 C 0.3649 0.87842 0.03187 0.0
C587 C 0.34264 0.85879 0.04037 0.0
C588 C 0.35506 0.84101 0.0564 0.0
C589 C 0.31669 0.87669 0.04647 0.0
C590 C 0.33562 0.83935 0.02418 0.0
C591 C 0.35082 0.84737 0.00879 0.0
C592 C 0.3493 0.83137 0.99254 0.0
C593 C 0.33214 0.80625 0.9921 0.0
C594 C 0.31687 0.79732 0.00785 0.0
C595 C 0.31829 0.81451 0.02394 0.0
H596 H 0.09444 0.5942 0.98953 0.0
H597 H 0.07969 0.64584 0.94044 0.0
H598 H 0.11584 0.68107 0.95049 0.0
H599 H 0.11336 0.65544 0.02085 0.0
H600 H 0.14098 0.63441 0.03171 0.0
H601 H 0.11007 0.61619 0.02265 0.0
H602 H 0.14223 0.58274 0.00282 0.0
H603 H 0.17314 0.60075 0.01184 0.0
H604 H 0.16751 0.5992 0.98743 0.0
H605 H 0.15738 0.70736 0.96354 0.0
H606 H 0.20292 0.72105 0.97772 0.0
H607 H 0.19292 0.65095 0.01738 0.0
C608 C 0.09849 0.61305 0.98094 0.0
C609 C 0.08375 0.61721 0.96424 0.0
C610 C 0.0899 0.64236 0.95353 0.0
C611 C 0.11059 0.66255 0.95909 0.0
C612 C 0.12511 0.65735 0.97536 0.0
C613 C 0.1194 0.63318 0.98612 0.0
C614 C 0.14032 0.63077 0.00181 0.0
C615 C 0.12528 0.63443 0.02035 0.0
C616 C 0.15677 0.60165 0.00091 0.0
C617 C 0.15934 0.65671 0.99775 0.0
C618 C 0.1498 0.67213 0.98268 0.0
C619 C 0.16486 0.69573 0.97552 0.0
C620 C 0.19076 0.70331 0.98366 0.0
C621 C 0.20151 0.6871 0.99868 0.0
C622 C 0.18514 0.66402 0.00607 0.0
H623 H 0.42392 0.61172 0.22969 0.0
H624 H 0.36009 0.57607 0.1928 0.0
H625 H 0.32585 0.6121 0.20417 0.0
H626 H 0.37671 0.6362 0.26695 0.0
H627 H 0.39632 0.66971 0.27029 0.0
H628 H 0.41427 0.63719 0.26237 0.0
H629 H 0.43291 0.66561 0.2341 0.0
H630 H 0.41512 0.69813 0.24194 0.0
H631 H 0.40801 0.68402 0.21931 0.0
H632 H 0.29955 0.6548 0.21717 0.0
H633 H 0.28512 0.70372 0.22825 0.0
H634 H 0.36769 0.71516 0.25351 0.0
C635 C 0.40279 0.61117 0.22396 0.0
C636 C 0.39497 0.59043 0.21041 0.0
C637 C 0.36674 0.5908 0.20359 0.0
C638 C 0.34701 0.61142 0.2099 0.0
C639 C 0.35575 0.6319 0.22286 0.0
C640 C 0.38307 0.63214 0.22967 0.0
C641 C 0.3883 0.65886 0.24154 0.0
C642 C 0.39424 0.64995 0.26147 0.0
C643 C 0.4125 0.67777 0.23375 0.0
C644 C 0.35992 0.67408 0.23982 0.0
C645 C 0.34117 0.65772 0.22945 0.0
C646 C 0.31396 0.66771 0.22543 0.0
C647 C 0.30594 0.69549 0.23181 0.0
C648 C 0.32534 0.71317 0.24169 0.0
C649 C 0.35245 0.70205 0.246 0.0
H650 H 0.40434 0.90863 0.48725 0.0
H651 H 0.41254 0.85435 0.43859 0.0
H652 H 0.37642 0.82073 0.45072 0.0
H653 H 0.38766 0.84876 0.52028 0.0
H654 H 0.36202 0.87101 0.53222 0.0
H655 H 0.39228 0.88794 0.52146 0.0
H656 H 0.35884 0.92181 0.50289 0.0
H657 H 0.3286 0.9051 0.51361 0.0
H658 H 0.33133 0.9057 0.48898 0.0
H659 H 0.33518 0.79696 0.46566 0.0
H660 H 0.2906 0.78583 0.48186 0.0
H661 H 0.30791 0.85597 0.52051 0.0
C662 C 0.39886 0.88947 0.47924 0.0
C663 C 0.41162 0.88407 0.46203 0.0
C664 C 0.40371 0.85869 0.45201 0.0
C665 C 0.3831 0.83943 0.45877 0.0
C666 C 0.37057 0.84575 0.47558 0.0
C667 C 0.37814 0.87014 0.48571 0.0
C668 C 0.35924 0.87371 0.50234 0.0
C669 C 0.37633 0.87013 0.52013 0.0
C670 C 0.34358 0.90332 0.50191 0.0
C671 C 0.33907 0.84826 0.49953 0.0
C672 C 0.34635 0.83208 0.4842 0.0
C673 C 0.32954 0.8091 0.47788 0.0
C674 C 0.30422 0.80299 0.48714 0.0
C675 C 0.29588 0.81993 0.5025 0.0
C676 C 0.314 0.84226 0.50905 0.0
H677 H 0.11162 0.87952 0.68882 0.0
H678 H 0.08336 0.91001 0.74211 0.0
H679 H 0.11678 0.87581 0.75707 0.0
H680 H 0.11629 0.80528 0.70017 0.0
H681 H 0.14737 0.79814 0.68651 0.0
H682 H 0.12349 0.82711 0.68013 0.0
H683 H 0.16506 0.86428 0.68075 0.0
H684 H 0.18912 0.83538 0.68715 0.0
H685 H 0.18633 0.86782 0.70116 0.0
H686 H 0.14962 0.83477 0.76608 0.0
H687 H 0.18005 0.79086 0.76845 0.0
H688 H 0.18707 0.78792 0.70918 0.0
C689 C 0.11262 0.87916 0.70364 0.0
C690 C 0.09492 0.89738 0.71432 0.0
C691 C 0.09698 0.89646 0.73368 0.0
C692 C 0.11583 0.87707 0.74228 0.0
C693 C 0.13263 0.85903 0.73132 0.0
C694 C 0.13134 0.86009 0.71242 0.0
C695 C 0.15052 0.83741 0.70375 0.0
C696 C 0.13339 0.8157 0.69195 0.0
C697 C 0.17416 0.85211 0.69254 0.0
C698 C 0.16224 0.82284 0.72073 0.0
C699 C 0.15183 0.83573 0.73651 0.0
C700 C 0.15825 0.82478 0.75383 0.0
C701 C 0.17549 0.79981 0.75504 0.0
C702 C 0.18611 0.78612 0.73901 0.0
C703 C 0.17969 0.79816 0.72169 0.0
H704 H 0.63264 0.43736 0.78028 0.0
H705 H 0.5751 0.36589 0.7926 0.0
H706 H 0.61067 0.33038 0.78128 0.0
H707 H 0.66568 0.40404 0.73905 0.0
H708 H 0.70009 0.41856 0.74483 0.0
H709 H 0.66851 0.43823 0.75132 0.0
H710 H 0.68511 0.43813 0.78519 0.0
H711 H 0.71659 0.41839 0.77884 0.0
H712 H 0.69329 0.40376 0.79614 0.0
H713 H 0.65496 0.30256 0.77222 0.0
H714 H 0.70361 0.28509 0.76573 0.0
H715 H 0.73161 0.3752 0.75969 0.0
C716 C 0.62735 0.41426 0.78032 0.0
C717 C 0.60113 0.40435 0.78727 0.0
C718 C 0.59493 0.37397 0.78708 0.0
C719 C 0.61503 0.35365 0.78074 0.0
C720 C 0.64104 0.36414 0.77446 0.0
C721 C 0.64709 0.39379 0.77405 0.0
C722 C 0.67725 0.39944 0.76802 0.0
C723 C 0.67791 0.41605 0.74971 0.0
C724 C 0.69404 0.41588 0.78294 0.0
C725 C 0.68762 0.36831 0.76576 0.0
C726 C 0.6664 0.34821 0.76929 0.0
C727 C 0.67161 0.31812 0.76915 0.0
C728 C 0.69931 0.3084 0.76549 0.0
C729 C 0.72139 0.32876 0.76217 0.0
C730 C 0.7152 0.35903 0.76204 0.0
H731 H 0.62209 0.1071 0.06757 0.0
H732 H 0.60271 0.0702 0.0142 0.0
H733 H 0.63469 0.10629 0.9997 0.0
H734 H 0.61985 0.17953 0.05431 0.0
H735 H 0.64831 0.19172 0.06894 0.0
H736 H 0.62765 0.16021 0.07524 0.0
H737 H 0.67347 0.12901 0.07734 0.0
H738 H 0.69433 0.16052 0.07103 0.0
H739 H 0.69704 0.12712 0.05793 0.0
H740 H 0.66328 0.15055 0.99079 0.0
H741 H 0.68641 0.19896 0.98821 0.0
H742 H 0.68714 0.20659 0.04749 0.0
C743 C 0.6249 0.10633 0.05285 0.0
C744 C 0.60995 0.08585 0.04201 0.0
C745 C 0.61425 0.08545 0.0228 0.0
C746 C 0.63233 0.1059 0.01445 0.0
C747 C 0.64617 0.12632 0.02552 0.0
C748 C 0.64283 0.1265 0.04434 0.0
C749 C 0.65808 0.15216 0.05304 0.0
C750 C 0.63722 0.17207 0.06349 0.0
C751 C 0.68216 0.14156 0.06558 0.0
C752 C 0.66961 0.16709 0.03612 0.0
C753 C 0.66285 0.15168 0.02039 0.0
C754 C 0.66918 0.16251 0.00302 0.0
C755 C 0.68226 0.19005 0.0017 0.0
C756 C 0.68878 0.20644 0.01766 0.0
C757 C 0.68294 0.19438 0.03505 0.0
H758 H 0.89769 0.08355 0.26547 0.0
H759 H 0.91164 0.14182 0.31173 0.0
H760 H 0.87791 0.17707 0.29856 0.0
H761 H 0.88422 0.14115 0.23016 0.0
H762 H 0.85659 0.11975 0.21954 0.0
H763 H 0.88601 0.10169 0.23054 0.0
H764 H 0.85106 0.07246 0.25095 0.0
H765 H 0.82166 0.09028 0.23999 0.0
H766 H 0.82535 0.09203 0.26455 0.0
H767 H 0.83794 0.20238 0.28324 0.0
H768 H 0.79325 0.2148 0.26755 0.0
H769 H 0.80389 0.13973 0.23162 0.0
C770 C 0.89399 0.10389 0.27273 0.0
C771 C 0.90761 0.10992 0.28959 0.0
C772 C 0.90209 0.13689 0.29859 0.0
C773 C 0.88287 0.15709 0.29123 0.0
C774 C 0.86936 0.15012 0.27483 0.0
C775 C 0.87468 0.12418 0.26566 0.0
C776 C 0.85488 0.12035 0.24949 0.0
C777 C 0.87142 0.12077 0.23135 0.0
C778 C 0.83719 0.09212 0.25137 0.0
C779 C 0.8367 0.1475 0.25154 0.0
C780 C 0.84583 0.1647 0.266 0.0
C781 C 0.83089 0.18943 0.27166 0.0
C782 C 0.8055 0.19627 0.26269 0.0
C783 C 0.79521 0.17832 0.24831 0.0
C784 C 0.81153 0.15421 0.24231 0.0
H785 H 0.92223 0.37859 0.55239 0.0
H786 H 0.85548 0.44202 0.54252 0.0
H787 H 0.82464 0.40238 0.53056 0.0
H788 H 0.90977 0.33382 0.51219 0.0
H789 H 0.91754 0.30013 0.52404 0.0
H790 H 0.93429 0.33376 0.53114 0.0
H791 H 0.91533 0.32615 0.56415 0.0
H792 H 0.89846 0.29257 0.55714 0.0
H793 H 0.87782 0.32118 0.56775 0.0
H794 H 0.801 0.35498 0.52008 0.0
H795 H 0.78642 0.30413 0.51274 0.0
H796 H 0.86922 0.27291 0.52984 0.0
C797 C 0.9013 0.38428 0.54743 0.0
C798 C 0.89131 0.4134 0.54822 0.0
C799 C 0.8635 0.4198 0.54207 0.0
C800 C 0.84591 0.39748 0.53519 0.0
C801 C 0.85648 0.36894 0.53464 0.0
C802 C 0.88354 0.36236 0.54063 0.0
C803 C 0.88968 0.32995 0.5392 0.0
C804 C 0.91427 0.32408 0.52584 0.0
C805 C 0.89566 0.31669 0.55819 0.0
C806 C 0.86181 0.31919 0.53152 0.0
C807 C 0.84291 0.34193 0.52888 0.0
C808 C 0.81568 0.33703 0.52206 0.0
C809 C 0.80758 0.30811 0.51793 0.0
C810 C 0.82665 0.28455 0.52073 0.0
C811 C 0.8541 0.29038 0.52754 0.0
H812 H 0.62241 0.05346 0.47208 0.0
H813 H 0.56746 0.12577 0.45708 0.0
H814 H 0.60159 0.16066 0.47082 0.0
H815 H 0.64895 0.08481 0.51534 0.0
H816 H 0.68406 0.07031 0.51174 0.0
H817 H 0.65365 0.05114 0.50275 0.0
H818 H 0.67569 0.05262 0.47021 0.0
H819 H 0.70607 0.07178 0.47907 0.0
H820 H 0.68588 0.0874 0.46053 0.0
H821 H 0.64434 0.18781 0.4835 0.0
H822 H 0.69162 0.20458 0.49391 0.0
H823 H 0.71796 0.11399 0.5001 0.0
C824 C 0.6174 0.07662 0.47183 0.0
C825 C 0.5923 0.08692 0.46352 0.0
C826 C 0.58642 0.11738 0.46359 0.0
C827 C 0.60571 0.13734 0.47131 0.0
C828 C 0.6306 0.12644 0.47904 0.0
C829 C 0.63634 0.09673 0.47944 0.0
C830 C 0.66528 0.09059 0.48743 0.0
C831 C 0.66283 0.07319 0.50539 0.0
C832 C 0.68435 0.07467 0.47348 0.0
C833 C 0.67538 0.12152 0.49093 0.0
C834 C 0.65503 0.14195 0.48624 0.0
C835 C 0.66029 0.17199 0.48743 0.0
C836 C 0.68719 0.18131 0.49335 0.0
C837 C 0.70846 0.16061 0.49784 0.0
C838 C 0.70215 0.1304 0.49687 0.0
H839 H 0.8723 0.08855 0.69365 0.0
H840 H 0.90249 0.05981 0.74676 0.0
H841 H 0.87327 0.09792 0.76179 0.0
H842 H 0.87671 0.16221 0.70263 0.0
H843 H 0.84556 0.17283 0.68996 0.0
H844 H 0.86457 0.14022 0.68363 0.0
H845 H 0.8187 0.10949 0.6871 0.0
H846 H 0.79941 0.1421 0.69336 0.0
H847 H 0.79921 0.11073 0.70834 0.0
H848 H 0.84567 0.14244 0.77063 0.0
H849 H 0.82283 0.19094 0.7727 0.0
H850 H 0.81122 0.19129 0.71368 0.0
C851 C 0.87193 0.08968 0.70848 0.0
C852 C 0.88926 0.07111 0.71912 0.0
C853 C 0.88916 0.07382 0.73843 0.0
C854 C 0.87256 0.09525 0.74706 0.0
C855 C 0.85621 0.11376 0.73615 0.0
C856 C 0.85571 0.11114 0.71727 0.0
C857 C 0.83893 0.13576 0.70857 0.0
C858 C 0.85756 0.15381 0.69543 0.0
C859 C 0.81249 0.1238 0.69877 0.0
C860 C 0.83094 0.15321 0.72545 0.0
C861 C 0.84067 0.13987 0.74123 0.0
C862 C 0.83756 0.15287 0.7584 0.0
C863 C 0.82461 0.18048 0.75943 0.0
C864 C 0.81517 0.1949 0.74336 0.0
C865 C 0.81789 0.1807 0.72623 0.0
H866 H 0.86107 0.45145 0.96919 0.0
H867 H 0.92337 0.3815 0.97092 0.0
H868 H 0.88735 0.3482 0.98393 0.0
H869 H 0.82254 0.4312 0.01103 0.0
H870 H 0.78862 0.44064 0.00131 0.0
H871 H 0.82011 0.45974 0.99405 0.0
H872 H 0.80929 0.44602 0.96028 0.0
H873 H 0.77783 0.42689 0.96742 0.0
H874 H 0.80445 0.40804 0.95418 0.0
H875 H 0.84342 0.32137 0.9941 0.0
H876 H 0.79512 0.30325 0.00072 0.0
H877 H 0.76173 0.39077 0.99189 0.0
C878 C 0.86723 0.42919 0.97243 0.0
C879 C 0.89508 0.41912 0.9691 0.0
C880 C 0.90229 0.38986 0.97363 0.0
C881 C 0.88195 0.37074 0.98096 0.0
C882 C 0.85456 0.38127 0.98376 0.0
C883 C 0.84723 0.40986 0.97971 0.0
C884 C 0.81599 0.41531 0.98296 0.0
C885 C 0.81157 0.43807 0.99825 0.0
C886 C 0.80102 0.4246 0.96515 0.0
C887 C 0.80672 0.38511 0.98902 0.0
C888 C 0.8293 0.36583 0.98957 0.0
C889 C 0.82564 0.33634 0.99393 0.0
C890 C 0.79812 0.32625 0.99764 0.0
C891 C 0.77465 0.3456 0.99688 0.0
C892 C 0.77922 0.37546 0.99275 0.0
H893 H 0.55903 0.361 0.20193 0.0
H894 H 0.62111 0.42716 0.21658 0.0
H895 H 0.65284 0.38845 0.2286 0.0
H896 H 0.57045 0.31309 0.24097 0.0
H897 H 0.56593 0.28016 0.22761 0.0
H898 H 0.54779 0.31327 0.22108 0.0
H899 H 0.5702 0.31004 0.1887 0.0
H900 H 0.58848 0.277 0.19514 0.0
H901 H 0.60821 0.30785 0.18647 0.0
H902 H 0.67796 0.34222 0.23844 0.0
H903 H 0.69524 0.29204 0.24452 0.0
H904 H 0.61666 0.25654 0.2228 0.0
C905 C 0.5791 0.36738 0.20795 0.0
C906 C 0.58759 0.39702 0.2085 0.0
C907 C 0.6143 0.40451 0.21604 0.0
C908 C 0.63236 0.38272 0.22295 0.0
C909 C 0.62338 0.35364 0.22211 0.0
C910 C 0.5974 0.34596 0.21476 0.0
C911 C 0.5932 0.3131 0.21475 0.0
C912 C 0.56784 0.30441 0.22682 0.0
C913 C 0.58984 0.30132 0.1951 0.0
C914 C 0.62094 0.30342 0.22315 0.0
C915 C 0.638 0.3271 0.22743 0.0
C916 C 0.66476 0.32351 0.23519 0.0
C917 C 0.67438 0.29494 0.23859 0.0
C918 C 0.65731 0.27038 0.23411 0.0
C919 C 0.63023 0.27483 0.22636 0.0
H920 H 0.06818 0.88039 0.39346 0.0
H921 H 0.12011 0.95895 0.39207 0.0
H922 H 0.15287 0.93685 0.41445 0.0
H923 H 0.07371 0.86821 0.44108 0.0
H924 H 0.07517 0.82883 0.43938 0.0
H925 H 0.05703 0.84971 0.42207 0.0
H926 H 0.08836 0.82593 0.39695 0.0
H927 H 0.10656 0.80487 0.41419 0.0
H928 H 0.12642 0.82799 0.39884 0.0
H929 H 0.17785 0.90809 0.4386 0.0
H930 H 0.19442 0.87378 0.46235 0.0
H931 H 0.12635 0.8137 0.4482 0.0
C932 C 0.08654 0.89286 0.39778 0.0
C933 C 0.09166 0.92135 0.39093 0.0
C934 C 0.11601 0.9369 0.39687 0.0
C935 C 0.13466 0.92461 0.40966 0.0
C936 C 0.12876 0.89668 0.41632 0.0
C937 C 0.10542 0.8809 0.41052 0.0
C938 C 0.10341 0.85174 0.42034 0.0
C939 C 0.07569 0.84951 0.43137 0.0
C940 C 0.10637 0.82612 0.40677 0.0
C941 C 0.12897 0.85388 0.43284 0.0
C942 C 0.14334 0.87994 0.43023 0.0
C943 C 0.16696 0.88747 0.44065 0.0
C944 C 0.17614 0.86786 0.45415 0.0
C945 C 0.16174 0.841 0.45709 0.0
C946 C 0.13796 0.83392 0.44617 0.0
H947 H 0.06638 0.6277 0.6535 0.0
H948 H 0.12404 0.55611 0.64111 0.0
H949 H 0.16003 0.5784 0.66125 0.0
H950 H 0.11931 0.68563 0.6578 0.0
H951 H 0.10136 0.70275 0.6768 0.0
H952 H 0.0813 0.68298 0.65979 0.0
H953 H 0.05941 0.65045 0.68522 0.0
H954 H 0.07935 0.67012 0.70229 0.0
H955 H 0.08251 0.63084 0.7006 0.0
H956 H 0.1888 0.60692 0.68421 0.0
H957 H 0.20722 0.63834 0.70912 0.0
H958 H 0.12964 0.6895 0.70772 0.0
C959 C 0.08655 0.61664 0.65496 0.0
C960 C 0.09231 0.59017 0.64555 0.0
C961 C 0.1192 0.57671 0.64779 0.0
C962 C 0.13979 0.58912 0.65931 0.0
C963 C 0.13319 0.61496 0.66855 0.0
C964 C 0.1072 0.62851 0.66654 0.0
C965 C 0.10467 0.65502 0.67893 0.0
C966 C 0.10148 0.68327 0.66765 0.0
C967 C 0.08003 0.65137 0.69257 0.0
C968 C 0.1331 0.6539 0.68851 0.0
C969 C 0.14942 0.6309 0.68214 0.0
C970 C 0.17627 0.62509 0.68924 0.0
C971 C 0.18655 0.64307 0.70337 0.0
C972 C 0.16985 0.66632 0.71039 0.0
C973 C 0.14292 0.67189 0.70267 0.0
H974 H 0.43874 0.62056 0.89892 0.0
H975 H 0.38105 0.54687 0.89322 0.0
H976 H 0.34814 0.57021 0.91501 0.0
H977 H 0.4288 0.63006 0.94721 0.0
H978 H 0.43097 0.66947 0.94639 0.0
H979 H 0.44944 0.64771 0.9296 0.0
H980 H 0.42374 0.6756 0.90353 0.0
H981 H 0.40518 0.69746 0.92024 0.0
H982 H 0.38553 0.67702 0.90332 0.0
H983 H 0.32198 0.60077 0.93788 0.0
H984 H 0.30442 0.63645 0.9606 0.0
H985 H 0.37976 0.68959 0.95227 0.0
C986 C 0.41925 0.60925 0.90228 0.0
C987 C 0.41244 0.58194 0.8942 0.0
C988 C 0.38653 0.56806 0.8989 0.0
C989 C 0.36776 0.58104 0.91137 0.0
C990 C 0.3752 0.60787 0.91911 0.0
C991 C 0.40031 0.62182 0.91478 0.0
C992 C 0.40349 0.65021 0.92538 0.0
C993 C 0.42973 0.64929 0.93789 0.0
C994 C 0.40454 0.67663 0.91234 0.0
C995 C 0.3763 0.64991 0.93642 0.0
C996 C 0.36025 0.62535 0.93252 0.0
C997 C 0.33433 0.62012 0.94104 0.0
C998 C 0.32455 0.64054 0.95393 0.0
C999 C 0.34071 0.66583 0.95823 0.0
C1000 C 0.36691 0.67049 0.9493 0.0
H1001 H 0.41315 0.93469 0.15975 0.0
H1002 H 0.38378 0.8848 0.11278 0.0
H1003 H 0.3528 0.8555 0.13314 0.0
H1004 H 0.41556 0.87533 0.19108 0.0
H1005 H 0.40371 0.89678 0.21037 0.0
H1006 H 0.4228 0.91411 0.19198 0.0
H1007 H 0.38157 0.951 0.18757 0.0
H1008 H 0.36235 0.93382 0.20599 0.0
H1009 H 0.34614 0.93744 0.18374 0.0
H1010 H 0.32549 0.83133 0.15901 0.0
H1011 H 0.30482 0.81378 0.18813 0.0
H1012 H 0.35236 0.8802 0.21774 0.0
C1013 C 0.3999 0.9179 0.15368 0.0
C1014 C 0.40071 0.91214 0.13467 0.0
C1015 C 0.38357 0.88947 0.12733 0.0
C1016 C 0.36583 0.87284 0.13877 0.0
C1017 C 0.36558 0.87915 0.15747 0.0
C1018 C 0.3822 0.90114 0.16485 0.0
C1019 C 0.37868 0.90319 0.1854 0.0
C1020 C 0.40686 0.89697 0.19528 0.0
C1021 C 0.36645 0.93314 0.191 0.0
C1022 C 0.35748 0.87885 0.18851 0.0
C1023 C 0.35009 0.86526 0.17225 0.0
C1024 C 0.33107 0.84188 0.1718 0.0
C1025 C 0.31945 0.83207 0.18841 0.0
C1026 C 0.32694 0.84562 0.20523 0.0
C1027 C 0.34611 0.8694 0.20515 0.0
H1028 H 0.07022 0.62613 0.86014 0.0
H1029 H 0.12879 0.55401 0.86886 0.0
H1030 H 0.16235 0.57647 0.84717 0.0
H1031 H 0.0813 0.63143 0.81228 0.0
H1032 H 0.07851 0.67081 0.81153 0.0
H1033 H 0.06011 0.65055 0.82902 0.0
H1034 H 0.085 0.6815 0.85412 0.0
H1035 H 0.10346 0.70191 0.83669 0.0
H1036 H 0.12316 0.68364 0.85449 0.0
H1037 H 0.18835 0.60501 0.82332 0.0
H1038 H 0.20506 0.63771 0.79874 0.0
H1039 H 0.12897 0.69051 0.80468 0.0
C1040 C 0.09011 0.61505 0.85755 0.0
C1041 C 0.09688 0.58836 0.86636 0.0
C1042 C 0.1233 0.57476 0.86262 0.0
C1043 C 0.14246 0.58725 0.85022 0.0
C1044 C 0.13493 0.61333 0.84163 0.0
C1045 C 0.10943 0.62712 0.84512 0.0
C1046 C 0.10596 0.65428 0.83342 0.0
C1047 C 0.07993 0.65159 0.82081 0.0
C1048 C 0.10431 0.68197 0.8454 0.0
C1049 C 0.13332 0.65332 0.82258 0.0
C1050 C 0.14981 0.62965 0.82765 0.0
C1051 C 0.17572 0.62373 0.8193 0.0
C1052 C 0.185 0.64243 0.80533 0.0
C1053 C 0.16834 0.66671 0.79977 0.0
C1054 C 0.14224 0.67222 0.80864 0.0
H1055 H 0.37404 0.56341 0.10224 0.0
H1056 H 0.43422 0.63331 0.11398 0.0
H1057 H 0.40733 0.66632 0.09404 0.0
H1058 H 0.37062 0.57896 0.05488 0.0
H1059 H 0.3337 0.56941 0.0526 0.0
H1060 H 0.35496 0.55234 0.07005 0.0
H1061 H 0.3193 0.56957 0.09483 0.0
H1062 H 0.29796 0.58685 0.07744 0.0
H1063 H 0.31066 0.60795 0.09667 0.0
H1064 H 0.37542 0.69149 0.0718 0.0
H1065 H 0.34389 0.70533 0.04629 0.0
H1066 H 0.30799 0.6177 0.04612 0.0
C1067 C 0.3818 0.58558 0.10069 0.0
C1068 C 0.40624 0.59556 0.11014 0.0
C1069 C 0.41513 0.62504 0.1076 0.0
C1070 C 0.40008 0.64407 0.09612 0.0
C1071 C 0.37638 0.63333 0.08696 0.0
C1072 C 0.3675 0.60467 0.0889 0.0
C1073 C 0.3431 0.5978 0.07608 0.0
C1074 C 0.35109 0.57318 0.0626 0.0
C1075 C 0.31616 0.59009 0.08691 0.0
C1076 C 0.34002 0.62697 0.0664 0.0
C1077 C 0.359 0.64733 0.07321 0.0
C1078 C 0.36043 0.67576 0.06636 0.0
C1079 C 0.34237 0.68342 0.0519 0.0
C1080 C 0.32356 0.66255 0.0442 0.0
C1081 C 0.32218 0.63408 0.05173 0.0
H1082 H 0.42158 0.86227 0.36018 0.0
H1083 H 0.37954 0.94661 0.35607 0.0
H1084 H 0.34613 0.92599 0.33348 0.0
H1085 H 0.41712 0.84351 0.31298 0.0
H1086 H 0.41044 0.80512 0.31685 0.0
H1087 H 0.43028 0.82601 0.33341 0.0
H1088 H 0.3949 0.81067 0.35882 0.0
H1089 H 0.37495 0.78969 0.34232 0.0
H1090 H 0.35757 0.81759 0.35574 0.0
H1091 H 0.31956 0.89763 0.30998 0.0
H1092 H 0.29977 0.86238 0.28778 0.0
H1093 H 0.35782 0.79564 0.3075 0.0
C1094 C 0.40525 0.87631 0.35457 0.0
C1095 C 0.40303 0.906 0.35994 0.0
C1096 C 0.38134 0.9237 0.35236 0.0
C1097 C 0.36235 0.91223 0.33946 0.0
C1098 C 0.3652 0.88296 0.33438 0.0
C1099 C 0.38592 0.86513 0.34177 0.0
C1100 C 0.38454 0.83454 0.33368 0.0
C1101 C 0.41224 0.82686 0.32363 0.0
C1102 C 0.37757 0.81178 0.34853 0.0
C1103 C 0.36011 0.83815 0.32038 0.0
C1104 C 0.34933 0.8663 0.32102 0.0
C1105 C 0.32759 0.87543 0.30947 0.0
C1106 C 0.31657 0.85527 0.29687 0.0
C1107 C 0.32715 0.82624 0.296 0.0
C1108 C 0.34906 0.81756 0.30803 0.0
H1109 H 0.09235 0.88884 0.61002 0.0
H1110 H 0.12516 0.97766 0.61154 0.0
H1111 H 0.16175 0.96414 0.58884 0.0
H1112 H 0.16122 0.85185 0.60388 0.0
H1113 H 0.14653 0.82467 0.58865 0.0
H1114 H 0.12477 0.84064 0.60633 0.0
H1115 H 0.08791 0.85631 0.58189 0.0
H1116 H 0.10954 0.84046 0.56416 0.0
H1117 H 0.09918 0.87841 0.56276 0.0
H1118 H 0.1913 0.9424 0.56362 0.0
H1119 H 0.21277 0.91347 0.53855 0.0
H1120 H 0.16125 0.83862 0.55399 0.0
C1121 C 0.10742 0.90535 0.60571 0.0
C1122 C 0.10599 0.93427 0.61257 0.0
C1123 C 0.12614 0.95526 0.60665 0.0
C1124 C 0.14692 0.94782 0.59372 0.0
C1125 C 0.14744 0.91923 0.587 0.0
C1126 C 0.12839 0.89825 0.59291 0.0
C1127 C 0.13262 0.86949 0.58292 0.0
C1128 C 0.14184 0.84523 0.59624 0.0
C1129 C 0.10572 0.86067 0.5723 0.0
C1130 C 0.15647 0.87783 0.57007 0.0
C1131 C 0.16484 0.90656 0.5727 0.0
C1132 C 0.18525 0.91974 0.56163 0.0
C1133 C 0.19725 0.90318 0.5474 0.0
C1134 C 0.18885 0.87376 0.54443 0.0
C1135 C 0.16848 0.86091 0.55611 0.0
H1136 H 0.58851 0.41678 0.911 0.0
H1137 H 0.60525 0.3699 0.86037 0.0
H1138 H 0.63481 0.33435 0.87737 0.0
H1139 H 0.65817 0.40848 0.93036 0.0
H1140 H 0.6452 0.40403 0.95342 0.0
H1141 H 0.62533 0.42548 0.9372 0.0
H1142 H 0.58107 0.39306 0.94297 0.0
H1143 H 0.60082 0.37148 0.95919 0.0
H1144 H 0.58365 0.35391 0.94003 0.0
H1145 H 0.66297 0.30421 0.90008 0.0
H1146 H 0.6869 0.28159 0.9267 0.0
H1147 H 0.65151 0.3488 0.96213 0.0
C1148 C 0.59859 0.3992 0.90344 0.0
C1149 C 0.59462 0.39612 0.88436 0.0
C1150 C 0.60778 0.37249 0.87503 0.0
C1151 C 0.62471 0.35231 0.88454 0.0
C1152 C 0.62819 0.35605 0.90336 0.0
C1153 C 0.61546 0.3789 0.9127 0.0
C1154 C 0.62238 0.37802 0.93292 0.0
C1155 C 0.63875 0.40564 0.93882 0.0
C1156 C 0.59537 0.37386 0.94445 0.0
C1157 C 0.64103 0.3511 0.93354 0.0
C1158 C 0.6442 0.33872 0.91637 0.0
C1159 C 0.66062 0.31371 0.91359 0.0
C1160 C 0.67413 0.30103 0.92879 0.0
C1161 C 0.67106 0.31338 0.9465 0.0
C1162 C 0.65426 0.33875 0.94879 0.0
H1163 H 0.5947 0.09941 0.14565 0.0
H1164 H 0.62851 0.01113 0.14886 0.0
H1165 H 0.66209 0.02719 0.17285 0.0
H1166 H 0.66198 0.13761 0.15325 0.0
H1167 H 0.64575 0.16615 0.16675 0.0
H1168 H 0.62572 0.14808 0.149 0.0
H1169 H 0.58689 0.13453 0.17265 0.0
H1170 H 0.60681 0.15248 0.19046 0.0
H1171 H 0.59661 0.11463 0.19303 0.0
H1172 H 0.68918 0.05192 0.19819 0.0
H1173 H 0.70932 0.0841 0.22214 0.0
H1174 H 0.65843 0.15643 0.20193 0.0
C1175 C 0.6093 0.08351 0.15133 0.0
C1176 C 0.60907 0.05404 0.14538 0.0
C1177 C 0.62859 0.03391 0.15306 0.0
C1178 C 0.64764 0.04279 0.16673 0.0
C1179 C 0.64706 0.07192 0.17246 0.0
C1180 C 0.62856 0.09205 0.16489 0.0
C1181 C 0.6317 0.12185 0.17381 0.0
C1182 C 0.6419 0.14477 0.15987 0.0
C1183 C 0.60385 0.13142 0.18304 0.0
C1184 C 0.65443 0.11519 0.18784 0.0
C1185 C 0.66304 0.08629 0.18683 0.0
C1186 C 0.68285 0.07468 0.19898 0.0
C1187 C 0.6941 0.09309 0.21257 0.0
C1188 C 0.68558 0.12278 0.21382 0.0
C1189 C 0.66565 0.13393 0.20117 0.0
H1190 H 0.93605 0.09612 0.41585 0.0
H1191 H 0.87594 0.11018 0.37164 0.0
H1192 H 0.84576 0.13916 0.39253 0.0
H1193 H 0.88618 0.08831 0.45154 0.0
H1194 H 0.90709 0.10757 0.46837 0.0
H1195 H 0.92432 0.08859 0.44982 0.0
H1196 H 0.95002 0.13651 0.44047 0.0
H1197 H 0.93295 0.15563 0.45905 0.0
H1198 H 0.9295 0.16903 0.43593 0.0
H1199 H 0.82103 0.16451 0.41868 0.0
H1200 H 0.80437 0.18585 0.44788 0.0
H1201 H 0.88189 0.15722 0.47446 0.0
C1202 C 0.91683 0.10571 0.41041 0.0
C1203 C 0.90839 0.10076 0.39206 0.0
C1204 C 0.88269 0.11326 0.38569 0.0
C1205 C 0.86549 0.12993 0.39742 0.0
C1206 C 0.87438 0.13414 0.41544 0.0
C1207 C 0.89954 0.12257 0.42186 0.0
C1208 C 0.90406 0.12992 0.44189 0.0
C1209 C 0.90549 0.10193 0.45359 0.0
C1210 C 0.93071 0.14891 0.44448 0.0
C1211 C 0.87735 0.1472 0.44579 0.0
C1212 C 0.86048 0.14934 0.43036 0.0
C1213 C 0.83419 0.16324 0.4308 0.0
C1214 C 0.82489 0.17522 0.44745 0.0
C1215 C 0.84192 0.17338 0.46341 0.0
C1216 C 0.86856 0.15933 0.46246 0.0
H1217 H 0.91221 0.43912 0.67347 0.0
H1218 H 0.89324 0.38274 0.62709 0.0
H1219 H 0.86825 0.34848 0.64774 0.0
H1220 H 0.92409 0.38248 0.7063 0.0
H1221 H 0.90762 0.40222 0.72487 0.0
H1222 H 0.92426 0.422 0.70644 0.0
H1223 H 0.87742 0.45015 0.70047 0.0
H1224 H 0.86067 0.43052 0.71892 0.0
H1225 H 0.84523 0.42987 0.69633 0.0
H1226 H 0.84528 0.32042 0.67365 0.0
H1227 H 0.82564 0.30115 0.70263 0.0
H1228 H 0.85878 0.37696 0.73162 0.0
C1229 C 0.90255 0.41976 0.66757 0.0
C1230 C 0.90467 0.41366 0.64863 0.0
C1231 C 0.89218 0.38772 0.64158 0.0
C1232 C 0.87782 0.36821 0.65318 0.0
C1233 C 0.87611 0.37498 0.67178 0.0
C1234 C 0.88809 0.40017 0.67891 0.0
C1235 C 0.8832 0.40252 0.69934 0.0
C1236 C 0.91148 0.40228 0.70985 0.0
C1237 C 0.86558 0.42988 0.70403 0.0
C1238 C 0.86654 0.37471 0.70263 0.0
C1239 C 0.86272 0.35906 0.68659 0.0
C1240 C 0.8481 0.33252 0.68629 0.0
C1241 C 0.83705 0.32175 0.70281 0.0
C1242 C 0.84061 0.33757 0.71939 0.0
C1243 C 0.85559 0.36437 0.71919 0.0
H1244 H 0.55932 0.09955 0.34765 0.0
H1245 H 0.63308 0.05947 0.3727 0.0
H1246 H 0.66435 0.08775 0.35203 0.0
H1247 H 0.58487 0.0969 0.30244 0.0
H1248 H 0.56969 0.1314 0.29552 0.0
H1249 H 0.55328 0.11044 0.3135 0.0
H1250 H 0.55687 0.15504 0.33541 0.0
H1251 H 0.57323 0.17621 0.31745 0.0
H1252 H 0.59084 0.17214 0.33922 0.0
H1253 H 0.68725 0.11816 0.32772 0.0
H1254 H 0.70047 0.14732 0.30064 0.0
H1255 H 0.61161 0.1667 0.29074 0.0
C1256 C 0.58208 0.09724 0.349 0.0
C1257 C 0.59392 0.07758 0.36181 0.0
C1258 C 0.62372 0.07448 0.36293 0.0
C1259 C 0.64158 0.09051 0.35133 0.0
C1260 C 0.62925 0.10944 0.33866 0.0
C1261 C 0.6002 0.11285 0.33739 0.0
C1262 C 0.59231 0.13303 0.32173 0.0
C1263 C 0.57396 0.11697 0.30746 0.0
C1264 C 0.57744 0.16075 0.32889 0.0
C1265 C 0.62146 0.14004 0.31421 0.0
C1266 C 0.64246 0.1265 0.32433 0.0
C1267 C 0.67101 0.12904 0.31976 0.0
C1268 C 0.67829 0.14566 0.30433 0.0
C1269 C 0.65708 0.15932 0.29355 0.0
C1270 C 0.62833 0.15662 0.29872 0.0
H1271 H 0.90534 0.05193 0.59105 0.0
H1272 H 0.87971 0.10355 0.63824 0.0
H1273 H 0.85014 0.13461 0.61813 0.0
H1274 H 0.91018 0.11047 0.55946 0.0
H1275 H 0.89638 0.08974 0.5404 0.0
H1276 H 0.91491 0.07129 0.5586 0.0
H1277 H 0.87158 0.03729 0.56368 0.0
H1278 H 0.85292 0.0556 0.54545 0.0
H1279 H 0.83722 0.05322 0.56792 0.0
H1280 H 0.82449 0.16082 0.59258 0.0
H1281 H 0.80452 0.17998 0.56369 0.0
H1282 H 0.84611 0.10999 0.53359 0.0
C1283 C 0.89317 0.06945 0.59725 0.0
C1284 C 0.8948 0.07526 0.61625 0.0
C1285 C 0.87902 0.09887 0.6237 0.0
C1286 C 0.86204 0.1165 0.61241 0.0
C1287 C 0.861 0.11016 0.59373 0.0
C1288 C 0.87609 0.08714 0.58623 0.0
C1289 C 0.87179 0.0852 0.56572 0.0
C1290 C 0.89999 0.08944 0.55545 0.0
C1291 C 0.85752 0.0561 0.56039 0.0
C1292 C 0.85207 0.11089 0.56279 0.0
C1293 C 0.84606 0.12501 0.5791 0.0
C1294 C 0.82891 0.14983 0.57974 0.0
C1295 C 0.81769 0.16056 0.56326 0.0
C1296 C 0.82365 0.14642 0.54638 0.0
C1297 C 0.84095 0.12117 0.54626 0.0
H1298 H 0.94225 0.40942 0.84378 0.0
H1299 H 0.89206 0.38644 0.89139 0.0
H1300 H 0.86385 0.35197 0.87244 0.0
H1301 H 0.88689 0.40774 0.81099 0.0
H1302 H 0.90813 0.39171 0.79305 0.0
H1303 H 0.92465 0.41386 0.81047 0.0
H1304 H 0.95869 0.37111 0.81837 0.0
H1305 H 0.9423 0.34884 0.80093 0.0
H1306 H 0.94422 0.33575 0.82419 0.0
H1307 H 0.83879 0.32338 0.84764 0.0
H1308 H 0.82127 0.2993 0.81942 0.0
H1309 H 0.89018 0.33832 0.78858 0.0
C1310 C 0.92539 0.39696 0.85018 0.0
C1311 C 0.91911 0.40051 0.86895 0.0
C1312 C 0.89714 0.38381 0.877 0.0
C1313 C 0.88103 0.36431 0.86636 0.0
C1314 C 0.88757 0.3615 0.8478 0.0
C1315 C 0.90949 0.37705 0.83984 0.0
C1316 C 0.9123 0.36994 0.81966 0.0
C1317 C 0.90771 0.39745 0.80785 0.0
C1318 C 0.94109 0.35555 0.81555 0.0
C1319 C 0.8882 0.34833 0.8174 0.0
C1320 C 0.87405 0.34392 0.83376 0.0
C1321 C 0.84997 0.32629 0.83483 0.0
C1322 C 0.84013 0.3128 0.81875 0.0
C1323 C 0.85463 0.31669 0.80194 0.0
C1324 C 0.87906 0.33451 0.80134 0.0
H1325 H 0.60678 0.41415 0.10323 0.0
H1326 H 0.52826 0.36481 0.1072 0.0
H1327 H 0.54664 0.32894 0.08492 0.0
H1328 H 0.61539 0.4057 0.0553 0.0
H1329 H 0.65345 0.4023 0.05613 0.0
H1330 H 0.63513 0.4229 0.07354 0.0
H1331 H 0.65804 0.39059 0.09868 0.0
H1332 H 0.67646 0.36989 0.08133 0.0
H1333 H 0.65404 0.35133 0.09762 0.0
H1334 H 0.57196 0.30025 0.06086 0.0
H1335 H 0.6029 0.28026 0.03666 0.0
H1336 H 0.66492 0.34835 0.0479 0.0
C1337 C 0.59348 0.39575 0.09947 0.0
C1338 C 0.56613 0.39221 0.1071 0.0
C1339 C 0.54948 0.36772 0.10185 0.0
C1340 C 0.55967 0.34729 0.08912 0.0
C1341 C 0.58657 0.35159 0.08176 0.0
C1342 C 0.60331 0.37513 0.08675 0.0
C1343 C 0.63101 0.37523 0.07623 0.0
C1344 C 0.6339 0.40319 0.06461 0.0
C1345 C 0.65638 0.37153 0.08924 0.0
C1346 C 0.62696 0.34836 0.0643 0.0
C1347 C 0.60124 0.33497 0.0678 0.0
C1348 C 0.59226 0.31038 0.05809 0.0
C1349 C 0.60996 0.29925 0.04433 0.0
C1350 C 0.63635 0.3127 0.04041 0.0
C1351 C 0.64499 0.33743 0.05067 0.0
loop_
_geom_bond_atom_site_label_1
_geom_bond_atom_site_label_2
_geom_bond_distance
_geom_bond_site_symmetry_2
_ccdc_geom_bond_type
H0 C19 0.949 . S
H1 C20 0.950 . S
H2 C22 0.950 . S
H3 C23 0.950 . S
H4 C25 0.950 . S
H5 C28 0.950 . S
H6 C29 0.950 . S
H7 C31 0.951 . S
H8 C32 0.949 1_565 S
H9 C34 0.949 . S
H10 C35 0.950 . S
H11 C37 0.950 . S
H12 C38 0.950 . S
H13 C40 0.950 . S
H14 C43 0.950 . S
H15 C44 0.950 . S
H16 C46 0.951 . S
H17 C47 0.949 1_545 S
C18 C19 1.376 . S
C18 C23 1.386 . S
C18 C24 1.483 . S
C19 H0 0.949 . S
C19 C18 1.376 . S
C19 C20 1.397 . S
C20 H1 0.950 . S
C20 C19 1.397 . S
C20 C21 1.391 . S
C21 C20 1.391 . S
C21 C22 1.405 . S
C22 H2 0.950 . S
C22 C21 1.405 . S
C22 C23 1.367 . S
C23 H3 0.950 . S
C23 C18 1.386 . S
C23 C22 1.367 . S
C24 C18 1.483 . S
C24 C25 1.382 1_655 S
C24 C26 1.403 . S
C25 H4 0.950 . S
C25 C24 1.382 1_455 S
C25 C41 1.411 1_545 S
C26 C24 1.403 . S
C26 C27 1.489 . S
C26 C40 1.411 1_545 S
C27 C26 1.489 . S
C27 C28 1.383 . S
C27 C32 1.382 . S
C28 H5 0.950 . S
C28 C27 1.383 . S
C28 C29 1.395 . S
C29 H6 0.950 . S
C29 C28 1.395 . S
C29 C30 1.288 . S
C30 C29 1.288 . S
C30 C31 1.392 . S
C31 H7 0.951 . S
C31 C30 1.392 . S
C31 C32 1.392 . S
C32 H8 0.949 1_545 S
C32 C27 1.382 . S
C32 C31 1.392 . S
C33 C34 1.376 . S
C33 C38 1.386 . S
C33 C39 1.483 . S
C34 H9 0.949 . S
C34 C33 1.376 . S
C34 C35 1.397 . S
C35 H10 0.950 . S
C35 C34 1.397 . S
C35 C36 1.391 . S
C36 C35 1.391 . S
C36 C37 1.405 . S
C37 H11 0.950 . S
C37 C36 1.405 . S
C37 C38 1.367 . S
C38 H12 0.950 . S
C38 C33 1.386 . S
C38 C37 1.367 . S
C39 C33 1.483 . S
C39 C40 1.382 1_455 S
C39 C41 1.403 . S
C40 H13 0.950 . S
C40 C26 1.411 1_565 S
C40 C39 1.382 1_655 S
C41 C25 1.411 1_565 S
C41 C39 1.403 . S
C41 C42 1.489 . S
C42 C41 1.489 . S
C42 C43 1.383 . S
C42 C47 1.382 . S
C43 H14 0.950 . S
C43 C42 1.383 . S
C43 C44 1.395 . S
C44 H15 0.950 . S
C44 C43 1.395 . S
C44 C45 1.288 . S
C45 C44 1.288 . S
C45 C46 1.392 . S
C46 H16 0.951 . S
C46 C45 1.392 . S
C46 C47 1.392 . S
C47 H17 0.949 1_565 S
C47 C42 1.382 . S
C47 C46 1.392 . S
H48 C67 0.949 1_455 S
H49 C68 0.950 . S
H50 C70 0.950 . S
H51 C71 0.950 . S
H52 C73 0.950 . S
H53 C76 0.950 . S
H54 C77 0.950 . S
H55 C79 0.951 . S
H56 C80 0.949 . S
H57 C82 0.949 1_655 S
H58 C83 0.950 . S
H59 C85 0.950 . S
H60 C86 0.950 . S
H61 C88 0.950 . S
H62 C91 0.950 . S
H63 C92 0.950 . S
H64 C94 0.951 . S
H65 C95 0.949 . S
C66 C67 1.376 . S
C66 C71 1.386 . S
C66 C72 1.483 . S
C67 H48 0.949 1_655 S
C67 C66 1.376 . S
C67 C68 1.397 . S
C68 H49 0.950 . S
C68 C67 1.397 . S
C68 C69 1.391 . S
C69 C68 1.391 . S
C69 C70 1.405 . S
C70 H50 0.950 . S
C70 C69 1.405 . S
C70 C71 1.367 . S
C71 H51 0.950 . S
C71 C66 1.386 . S
C71 C70 1.367 . S
C72 C66 1.483 . S
C72 C73 1.382 1_655 S
C72 C74 1.403 . S
C73 H52 0.950 . S
C73 C72 1.382 1_455 S
C73 C89 1.411 . S
C74 C72 1.403 . S
C74 C75 1.489 . S
C74 C88 1.411 . S
C75 C74 1.489 . S
C75 C76 1.383 . S
C75 C80 1.382 . S
C76 H53 0.950 . S
C76 C75 1.383 . S
C76 C77 1.395 . S
C77 H54 0.950 . S
C77 C76 1.395 . S
C77 C78 1.288 . S
C78 C77 1.288 . S
C78 C79 1.392 . S
C79 H55 0.951 . S
C79 C78 1.392 . S
C79 C80 1.392 . S
C80 H56 0.949 . S
C80 C75 1.382 . S
C80 C79 1.392 . S
C81 C82 1.376 . S
C81 C86 1.386 . S
C81 C87 1.483 . S
C82 H57 0.949 1_455 S
C82 C81 1.376 . S
C82 C83 1.397 . S
C83 H58 0.950 . S
C83 C82 1.397 . S
C83 C84 1.391 . S
C84 C83 1.391 . S
C84 C85 1.405 . S
C85 H59 0.950 . S
C85 C84 1.405 . S
C85 C86 1.367 . S
C86 H60 0.950 . S
C86 C81 1.386 . S
C86 C85 1.367 . S
C87 C81 1.483 . S
C87 C88 1.382 1_455 S
C87 C89 1.403 . S
C88 H61 0.950 . S
C88 C74 1.411 . S
C88 C87 1.382 1_655 S
C89 C73 1.411 . S
C89 C87 1.403 . S
C89 C90 1.489 . S
C90 C89 1.489 . S
C90 C91 1.383 . S
C90 C95 1.382 . S
C91 H62 0.950 . S
C91 C90 1.383 . S
C91 C92 1.395 . S
C92 H63 0.950 . S
C92 C91 1.395 . S
C92 C93 1.288 . S
C93 C92 1.288 . S
C93 C94 1.392 . S
C94 H64 0.951 . S
C94 C93 1.392 . S
C94 C95 1.392 . S
C95 H65 0.949 . S
C95 C90 1.382 . S
C95 C94 1.392 . S
H96 C115 0.949 . S
H97 C116 0.950 . S
H98 C118 0.950 . S
H99 C119 0.950 . S
H100 C121 0.950 . S
H101 C124 0.950 . S
H102 C125 0.950 . S
H103 C127 0.951 . S
H104 C128 0.949 . S
H105 C130 0.949 . S
H106 C131 0.950 . S
H107 C133 0.950 . S
H108 C134 0.950 . S
H109 C136 0.950 . S
H110 C139 0.950 . S
H111 C140 0.950 . S
H112 C142 0.951 . S
H113 C143 0.949 . S
C114 C115 1.376 . S
C114 C119 1.386 . S
C114 C120 1.483 . S
C115 H96 0.949 . S
C115 C114 1.376 . S
C115 C116 1.397 . S
C116 H97 0.950 . S
C116 C115 1.397 . S
C116 C117 1.391 . S
C117 C116 1.391 . S
C117 C118 1.405 . S
C118 H98 0.950 . S
C118 C117 1.405 . S
C118 C119 1.367 . S
C119 H99 0.950 . S
C119 C114 1.386 . S
C119 C118 1.367 . S
C120 C114 1.483 . S
C120 C121 1.382 . S
C120 C122 1.403 . S
C121 H100 0.950 . S
C121 C120 1.382 . S
C121 C137 1.411 . S
C122 C120 1.403 . S
C122 C123 1.489 . S
C122 C136 1.411 . S
C123 C122 1.489 . S
C123 C124 1.383 . S
C123 C128 1.382 . S
C124 H101 0.950 . S
C124 C123 1.383 . S
C124 C125 1.395 . S
C125 H102 0.950 . S
C125 C124 1.395 . S
C125 C126 1.288 . S
C126 C125 1.288 . S
C126 C127 1.392 . S
C127 H103 0.951 . S
C127 C126 1.392 . S
C127 C128 1.392 . S
C128 H104 0.949 . S
C128 C123 1.382 . S
C128 C127 1.392 . S
C129 C130 1.376 . S
C129 C134 1.386 . S
C129 C135 1.483 . S
C130 H105 0.949 . S
C130 C129 1.376 . S
C130 C131 1.397 . S
C131 H106 0.950 . S
C131 C130 1.397 . S
C131 C132 1.391 . S
C132 C131 1.391 . S
C132 C133 1.405 . S
C133 H107 0.950 . S
C133 C132 1.405 . S
C133 C134 1.367 . S
C134 H108 0.950 . S
C134 C129 1.386 . S
C134 C133 1.367 . S
C135 C129 1.483 . S
C135 C136 1.382 . S
C135 C137 1.403 . S
C136 H109 0.950 . S
C136 C122 1.411 . S
C136 C135 1.382 . S
C137 C121 1.411 . S
C137 C135 1.403 . S
C137 C138 1.489 . S
C138 C137 1.489 . S
C138 C139 1.383 . S
C138 C143 1.382 . S
C139 H110 0.950 . S
C139 C138 1.383 . S
C139 C140 1.395 . S
C140 H111 0.950 . S
C140 C139 1.395 . S
C140 C141 1.288 . S
C141 C140 1.288 . S
C141 C142 1.392 . S
C142 H112 0.951 . S
C142 C141 1.392 . S
C142 C143 1.392 . S
C143 H113 0.949 . S
C143 C138 1.382 . S
C143 C142 1.392 . S
H144 C163 0.949 . S
H145 C164 0.950 . S
H146 C166 0.950 . S
H147 C167 0.950 . S
H148 C169 0.950 . S
H149 C172 0.950 . S
H150 C173 0.950 . S
H151 C175 0.951 . S
H152 C176 0.949 . S
H153 C178 0.949 . S
H154 C179 0.950 . S
H155 C181 0.950 . S
H156 C182 0.950 . S
H157 C184 0.950 . S
H158 C187 0.950 . S
H159 C188 0.950 . S
H160 C190 0.951 . S
H161 C191 0.949 . S
C162 C163 1.376 . S
C162 C167 1.386 . S
C162 C168 1.483 . S
C163 H144 0.949 . S
C163 C162 1.376 . S
C163 C164 1.397 . S
C164 H145 0.950 . S
C164 C163 1.397 . S
C164 C165 1.391 . S
C165 C164 1.391 . S
C165 C166 1.405 . S
C166 H146 0.950 . S
C166 C165 1.405 . S
C166 C167 1.367 . S
C167 H147 0.950 . S
C167 C162 1.386 . S
C167 C166 1.367 . S
C168 C162 1.483 . S
C168 C169 1.382 . S
C168 C170 1.403 . S
C169 H148 0.950 . S
C169 C168 1.382 . S
C169 C185 1.411 1_565 S
C170 C168 1.403 . S
C170 C171 1.489 . S
C170 C184 1.411 1_565 S
C171 C170 1.489 . S
C171 C172 1.383 . S
C171 C176 1.382 . S
C172 H149 0.950 . S
C172 C171 1.383 . S
C172 C173 1.395 . S
C173 H150 0.950 . S
C173 C172 1.395 . S
C173 C174 1.288 . S
C174 C173 1.288 . S
C174 C175 1.392 . S
C175 H151 0.951 . S
C175 C174 1.392 . S
C175 C176 1.392 . S
C176 H152 0.949 . S
C176 C171 1.382 . S
C176 C175 1.392 . S
C177 C178 1.376 . S
C177 C182 1.386 . S
C177 C183 1.483 . S
C178 H153 0.949 . S
C178 C177 1.376 . S
C178 C179 1.397 . S
C179 H154 0.950 . S
C179 C178 1.397 . S
C179 C180 1.391 . S
C180 C179 1.391 . S
C180 C181 1.405 . S
C181 H155 0.950 . S
C181 C180 1.405 . S
C181 C182 1.367 . S
C182 H156 0.950 . S
C182 C177 1.386 . S
C182 C181 1.367 . S
C183 C177 1.483 . S
C183 C184 1.382 . S
C183 C185 1.403 . S
C184 H157 0.950 . S
C184 C170 1.411 1_545 S
C184 C183 1.382 . S
C185 C169 1.411 1_545 S
C185 C183 1.403 . S
C185 C186 1.489 . S
C186 C185 1.489 . S
C186 C187 1.383 . S
C186 C191 1.382 . S
C187 H158 0.950 . S
C187 C186 1.383 . S
C187 C188 1.395 . S
C188 H159 0.950 . S
C188 C187 1.395 . S
C188 C189 1.288 . S
C189 C188 1.288 . S
C189 C190 1.392 . S
C190 H160 0.951 . S
C190 C189 1.392 . S
C190 C191 1.392 . S
C191 H161 0.949 . S
C191 C186 1.382 . S
C191 C190 1.392 . S
H192 C211 0.949 . S
H193 C212 0.950 . S
H194 C214 0.950 . S
H195 C215 0.950 . S
H196 C217 0.950 . S
H197 C220 0.950 . S
H198 C221 0.950 . S
H199 C223 0.951 . S
H200 C224 0.949 . S
H201 C226 0.949 . S
H202 C227 0.950 . S
H203 C229 0.950 . S
H204 C230 0.950 . S
H205 C232 0.950 . S
H206 C235 0.950 . S
H207 C236 0.950 . S
H208 C238 0.951 . S
H209 C239 0.949 . S
C210 C211 1.376 . S
C210 C215 1.386 . S
C210 C216 1.483 . S
C211 H192 0.949 . S
C211 C210 1.376 . S
C211 C212 1.397 . S
C212 H193 0.950 . S
C212 C211 1.397 . S
C212 C213 1.391 . S
C213 C212 1.391 . S
C213 C214 1.405 . S
C214 H194 0.950 . S
C214 C213 1.405 . S
C214 C215 1.367 . S
C215 H195 0.950 . S
C215 C210 1.386 . S
C215 C214 1.367 . S
C216 C210 1.483 . S
C216 C217 1.382 1_455 S
C216 C218 1.403 . S
C217 H196 0.950 . S
C217 C216 1.382 1_655 S
C217 C233 1.411 . S
C218 C216 1.403 . S
C218 C219 1.489 . S
C218 C232 1.411 . S
C219 C218 1.489 . S
C219 C220 1.383 . S
C219 C224 1.382 . S
C220 H197 0.950 . S
C220 C219 1.383 . S
C220 C221 1.395 . S
C221 H198 0.950 . S
C221 C220 1.395 . S
C221 C222 1.288 . S
C222 C221 1.288 . S
C222 C223 1.392 . S
C223 H199 0.951 . S
C223 C222 1.392 . S
C223 C224 1.392 . S
C224 H200 0.949 . S
C224 C219 1.382 . S
C224 C223 1.392 . S
C225 C226 1.376 . S
C225 C230 1.386 . S
C225 C231 1.483 . S
C226 H201 0.949 . S
C226 C225 1.376 . S
C226 C227 1.397 . S
C227 H202 0.950 . S
C227 C226 1.397 . S
C227 C228 1.391 . S
C228 C227 1.391 . S
C228 C229 1.405 . S
C229 H203 0.950 . S
C229 C228 1.405 . S
C229 C230 1.367 . S
C230 H204 0.950 . S
C230 C225 1.386 . S
C230 C229 1.367 . S
C231 C225 1.483 . S
C231 C232 1.382 1_655 S
C231 C233 1.403 . S
C232 H205 0.950 . S
C232 C218 1.411 . S
C232 C231 1.382 1_455 S
C233 C217 1.411 . S
C233 C231 1.403 . S
C233 C234 1.489 . S
C234 C233 1.489 . S
C234 C235 1.383 . S
C234 C239 1.382 . S
C235 H206 0.950 . S
C235 C234 1.383 . S
C235 C236 1.395 . S
C236 H207 0.950 . S
C236 C235 1.395 . S
C236 C237 1.288 . S
C237 C236 1.288 . S
C237 C238 1.392 . S
C238 H208 0.951 . S
C238 C237 1.392 . S
C238 C239 1.392 . S
C239 H209 0.949 . S
C239 C234 1.382 . S
C239 C238 1.392 . S
H240 C259 0.949 . S
H241 C260 0.950 . S
H242 C262 0.950 . S
H243 C263 0.950 . S
H244 C265 0.950 . S
H245 C268 0.950 . S
H246 C269 0.950 . S
H247 C271 0.951 . S
H248 C272 0.949 . S
H249 C274 0.949 . S
H250 C275 0.950 . S
H251 C277 0.950 . S
H252 C278 0.950 . S
H253 C280 0.950 . S
H254 C283 0.950 . S
H255 C284 0.950 . S
H256 C286 0.951 . S
H257 C287 0.949 . S
C258 C259 1.376 . S
C258 C263 1.386 . S
C258 C264 1.483 . S
C259 H240 0.949 . S
C259 C258 1.376 . S
C259 C260 1.397 . S
C260 H241 0.950 . S
C260 C259 1.397 . S
C260 C261 1.391 . S
C261 C260 1.391 . S
C261 C262 1.405 . S
C262 H242 0.950 . S
C262 C261 1.405 . S
C262 C263 1.367 . S
C263 H243 0.950 . S
C263 C258 1.386 . S
C263 C262 1.367 . S
C264 C258 1.483 . S
C264 C265 1.382 . S
C264 C266 1.403 . S
C265 H244 0.950 . S
C265 C264 1.382 . S
C265 C281 1.411 . S
C266 C264 1.403 . S
C266 C267 1.489 . S
C266 C280 1.411 . S
C267 C266 1.489 . S
C267 C268 1.383 . S
C267 C272 1.382 . S
C268 H245 0.950 . S
C268 C267 1.383 . S
C268 C269 1.395 . S
C269 H246 0.950 . S
C269 C268 1.395 . S
C269 C270 1.288 . S
C270 C269 1.288 . S
C270 C271 1.392 . S
C271 H247 0.951 . S
C271 C270 1.392 . S
C271 C272 1.392 . S
C272 H248 0.949 . S
C272 C267 1.382 . S
C272 C271 1.392 . S
C273 C274 1.376 . S
C273 C278 1.386 . S
C273 C279 1.483 . S
C274 H249 0.949 . S
C274 C273 1.376 . S
C274 C275 1.397 . S
C275 H250 0.950 . S
C275 C274 1.397 . S
C275 C276 1.391 . S
C276 C275 1.391 . S
C276 C277 1.405 . S
C277 H251 0.950 . S
C277 C276 1.405 . S
C277 C278 1.367 . S
C278 H252 0.950 . S
C278 C273 1.386 . S
C278 C277 1.367 . S
C279 C273 1.483 . S
C279 C280 1.382 . S
C279 C281 1.403 . S
C280 H253 0.950 . S
C280 C266 1.411 . S
C280 C279 1.382 . S
C281 C265 1.411 . S
C281 C279 1.403 . S
C281 C282 1.489 . S
C282 C281 1.489 . S
C282 C283 1.383 . S
C282 C287 1.382 . S
C283 H254 0.950 . S
C283 C282 1.383 . S
C283 C284 1.395 . S
C284 H255 0.950 . S
C284 C283 1.395 . S
C284 C285 1.288 . S
C285 C284 1.288 . S
C285 C286 1.392 . S
C286 H256 0.951 . S
C286 C285 1.392 . S
C286 C287 1.392 . S
C287 H257 0.949 . S
C287 C282 1.382 . S
C287 C286 1.392 . S
H288 C307 0.949 . S
H289 C308 0.950 . S
H290 C310 0.950 . S
H291 C311 0.950 . S
H292 C313 0.950 . S
H293 C316 0.950 . S
H294 C317 0.950 . S
H295 C319 0.951 . S
H296 C320 0.949 1_545 S
H297 C322 0.949 . S
H298 C323 0.950 . S
H299 C325 0.950 . S
H300 C326 0.950 . S
H301 C328 0.950 . S
H302 C331 0.950 . S
H303 C332 0.950 . S
H304 C334 0.951 . S
H305 C335 0.949 1_565 S
C306 C307 1.376 . S
C306 C311 1.386 . S
C306 C312 1.483 . S
C307 H288 0.949 . S
C307 C306 1.376 . S
C307 C308 1.397 . S
C308 H289 0.950 . S
C308 C307 1.397 . S
C308 C309 1.391 . S
C309 C308 1.391 . S
C309 C310 1.405 . S
C310 H290 0.950 . S
C310 C309 1.405 . S
C310 C311 1.367 . S
C311 H291 0.950 . S
C311 C306 1.386 . S
C311 C310 1.367 . S
C312 C306 1.483 . S
C312 C313 1.382 . S
C312 C314 1.403 . S
C313 H292 0.950 . S
C313 C312 1.382 . S
C313 C329 1.411 1_565 S
C314 C312 1.403 . S
C314 C315 1.489 . S
C314 C328 1.411 1_565 S
C315 C314 1.489 . S
C315 C316 1.383 . S
C315 C320 1.382 . S
C316 H293 0.950 . S
C316 C315 1.383 . S
C316 C317 1.395 . S
C317 H294 0.950 . S
C317 C316 1.395 . S
C317 C318 1.288 . S
C318 C317 1.288 . S
C318 C319 1.392 . S
C319 H295 0.951 . S
C319 C318 1.392 . S
C319 C320 1.392 . S
C320 H296 0.949 1_565 S
C320 C315 1.382 . S
C320 C319 1.392 . S
C321 C322 1.376 . S
C321 C326 1.386 . S
C321 C327 1.483 . S
C322 H297 0.949 . S
C322 C321 1.376 . S
C322 C323 1.397 . S
C323 H298 0.950 . S
C323 C322 1.397 . S
C323 C324 1.391 . S
C324 C323 1.391 . S
C324 C325 1.405 . S
C325 H299 0.950 . S
C325 C324 1.405 . S
C325 C326 1.367 . S
C326 H300 0.950 . S
C326 C321 1.386 . S
C326 C325 1.367 . S
C327 C321 1.483 . S
C327 C328 1.382 . S
C327 C329 1.403 . S
C328 H301 0.950 . S
C328 C314 1.411 1_545 S
C328 C327 1.382 . S
C329 C313 1.411 1_545 S
C329 C327 1.403 . S
C329 C330 1.489 . S
C330 C329 1.489 . S
C330 C331 1.383 . S
C330 C335 1.382 . S
C331 H302 0.950 . S
C331 C330 1.383 . S
C331 C332 1.395 . S
C332 H303 0.950 . S
C332 C331 1.395 . S
C332 C333 1.288 . S
C333 C332 1.288 . S
C333 C334 1.392 . S
C334 H304 0.951 . S
C334 C333 1.392 . S
C334 C335 1.392 . S
C335 H305 0.949 1_545 S
C335 C330 1.382 . S
C335 C334 1.392 . S
H336 C355 0.949 1_455 S
H337 C356 0.950 . S
H338 C358 0.950 . S
H339 C359 0.950 . S
H340 C361 0.950 . S
H341 C364 0.950 . S
H342 C365 0.950 . S
H343 C367 0.951 . S
H344 C368 0.949 . S
H345 C370 0.949 1_655 S
H346 C371 0.950 . S
H347 C373 0.950 . S
H348 C374 0.950 . S
H349 C376 0.950 . S
H350 C379 0.950 . S
H351 C380 0.950 . S
H352 C382 0.951 . S
H353 C383 0.949 . S
C354 C355 1.376 . S
C354 C359 1.386 . S
C354 C360 1.483 . S
C355 H336 0.949 1_655 S
C355 C354 1.376 . S
C355 C356 1.397 . S
C356 H337 0.950 . S
C356 C355 1.397 . S
C356 C357 1.391 . S
C357 C356 1.391 . S
C357 C358 1.405 . S
C358 H338 0.950 . S
C358 C357 1.405 . S
C358 C359 1.367 . S
C359 H339 0.950 . S
C359 C354 1.386 . S
C359 C358 1.367 . S
C360 C354 1.483 . S
C360 C361 1.382 1_655 S
C360 C362 1.403 . S
C361 H340 0.950 . S
C361 C360 1.382 1_455 S
C361 C377 1.411 1_545 S
C362 C360 1.403 . S
C362 C363 1.489 . S
C362 C376 1.411 1_545 S
C363 C362 1.489 . S
C363 C364 1.383 . S
C363 C368 1.382 . S
C364 H341 0.950 . S
C364 C363 1.383 . S
C364 C365 1.395 . S
C365 H342 0.950 . S
C365 C364 1.395 . S
C365 C366 1.288 . S
C366 C365 1.288 . S
C366 C367 1.392 . S
C367 H343 0.951 . S
C367 C366 1.392 . S
C367 C368 1.392 . S
C368 H344 0.949 . S
C368 C363 1.382 . S
C368 C367 1.392 . S
C369 C370 1.376 . S
C369 C374 1.386 . S
C369 C375 1.483 . S
C370 H345 0.949 1_455 S
C370 C369 1.376 . S
C370 C371 1.397 . S
C371 H346 0.950 . S
C371 C370 1.397 . S
C371 C372 1.391 . S
C372 C371 1.391 . S
C372 C373 1.405 . S
C373 H347 0.950 . S
C373 C372 1.405 . S
C373 C374 1.367 . S
C374 H348 0.950 . S
C374 C369 1.386 . S
C374 C373 1.367 . S
C375 C369 1.483 . S
C375 C376 1.382 1_455 S
C375 C377 1.403 . S
C376 H349 0.950 . S
C376 C362 1.411 1_565 S
C376 C375 1.382 1_655 S
C377 C361 1.411 1_565 S
C377 C375 1.403 . S
C377 C378 1.489 . S
C378 C377 1.489 . S
C378 C379 1.383 . S
C378 C383 1.382 . S
C379 H350 0.950 . S
C379 C378 1.383 . S
C379 C380 1.395 . S
C380 H351 0.950 . S
C380 C379 1.395 . S
C380 C381 1.288 . S
C381 C380 1.288 . S
C381 C382 1.392 . S
C382 H352 0.951 . S
C382 C381 1.392 . S
C382 C383 1.392 . S
C383 H353 0.949 . S
C383 C378 1.382 . S
C383 C382 1.392 . S
C384 O385 1.160 1_556 S
C384 O391 1.185 . S
O385 C384 1.160 1_554 S
O386 Zn387 1.899 . S
O386 C394 1.284 . S
Zn387 O386 1.899 . S
Zn387 O388 2.032 1_554 S
Zn387 O391 2.086 1_554 S
Zn387 O396 1.977 . S
O388 Zn387 2.032 1_556 S
O388 C392 1.278 . S
C389 O390 1.203 . S
C389 O396 1.267 . S
O390 C389 1.203 . S
O391 C384 1.185 . S
O391 Zn387 2.086 1_556 S
C392 O388 1.278 . S
C392 O393 1.211 . S
O393 C392 1.211 . S
C394 O386 1.284 . S
C394 O395 1.273 . S
O395 C394 1.273 . S
O396 Zn387 1.977 . S
O396 C389 1.267 . S
C397 O398 1.160 . S
C397 O404 1.185 . S
O398 C397 1.160 . S
O399 Zn400 1.899 . S
O399 C407 1.284 . S
Zn400 O399 1.899 . S
Zn400 O401 2.032 . S
Zn400 O404 2.086 . S
Zn400 O409 1.977 . S
O401 Zn400 2.032 . S
O401 C405 1.278 . S
C402 O403 1.203 . S
C402 O409 1.267 . S
O403 C402 1.203 . S
O404 C397 1.185 . S
O404 Zn400 2.086 . S
C405 O401 1.278 . S
C405 O406 1.211 . S
O406 C405 1.211 . S
C407 O399 1.284 . S
C407 O408 1.273 . S
O408 C407 1.273 . S
O409 Zn400 1.977 . S
O409 C402 1.267 . S
C410 O411 1.160 . S
C410 O417 1.185 . S
O411 C410 1.160 . S
O412 Zn413 1.899 . S
O412 C420 1.284 . S
Zn413 O412 1.899 . S
Zn413 O414 2.032 . S
Zn413 O417 2.086 . S
Zn413 O422 1.977 . S
O414 Zn413 2.032 . S
O414 C418 1.278 . S
C415 O416 1.203 . S
C415 O422 1.267 . S
O416 C415 1.203 . S
O417 C410 1.185 . S
O417 Zn413 2.086 . S
C418 O414 1.278 . S
C418 O419 1.211 . S
O419 C418 1.211 . S
C420 O412 1.284 . S
C420 O421 1.273 . S
O421 C420 1.273 . S
O422 Zn413 1.977 . S
O422 C415 1.267 . S
C423 O424 1.160 . S
C423 O430 1.185 . S
O424 C423 1.160 . S
O425 Zn426 1.899 . S
O425 C433 1.284 . S
Zn426 O425 1.899 . S
Zn426 O427 2.032 . S
Zn426 O430 2.086 . S
Zn426 O435 1.977 . S
O427 Zn426 2.032 . S
O427 C431 1.278 . S
C428 O429 1.203 . S
C428 O435 1.267 . S
O429 C428 1.203 . S
O430 C423 1.185 . S
O430 Zn426 2.086 . S
C431 O427 1.278 . S
C431 O432 1.211 . S
O432 C431 1.211 . S
C433 O425 1.284 . S
C433 O434 1.273 . S
O434 C433 1.273 . S
O435 Zn426 1.977 . S
O435 C428 1.267 . S
C436 O437 1.160 . S
C436 O443 1.185 . S
O437 C436 1.160 . S
O438 Zn439 1.899 . S
O438 C446 1.284 . S
Zn439 O438 1.899 . S
Zn439 O440 2.032 . S
Zn439 O443 2.086 . S
Zn439 O448 1.977 . S
O440 Zn439 2.032 . S
O440 C444 1.278 . S
C441 O442 1.203 . S
C441 O448 1.267 . S
O442 C441 1.203 . S
O443 C436 1.185 . S
O443 Zn439 2.086 . S
C444 O440 1.278 . S
C444 O445 1.211 . S
O445 C444 1.211 . S
C446 O438 1.284 . S
C446 O447 1.273 . S
O447 C446 1.273 . S
O448 Zn439 1.977 . S
O448 C441 1.267 . S
C449 O450 1.160 . S
C449 O456 1.185 . S
O450 C449 1.160 . S
O451 Zn452 1.899 . S
O451 C459 1.284 . S
Zn452 O451 1.899 . S
Zn452 O453 2.032 . S
Zn452 O456 2.086 . S
Zn452 O461 1.977 . S
O453 Zn452 2.032 . S
O453 C457 1.278 . S
C454 O455 1.203 . S
C454 O461 1.267 . S
O455 C454 1.203 . S
O456 C449 1.185 . S
O456 Zn452 2.086 . S
C457 O453 1.278 . S
C457 O458 1.211 . S
O458 C457 1.211 . S
C459 O451 1.284 . S
C459 O460 1.273 . S
O460 C459 1.273 . S
O461 Zn452 1.977 . S
O461 C454 1.267 . S
C462 O463 1.160 1_556 S
C462 O469 1.185 . S
O463 C462 1.160 1_554 S
O464 Zn465 1.899 . S
O464 C472 1.284 . S
Zn465 O464 1.899 . S
Zn465 O466 2.032 1_554 S
Zn465 O469 2.086 1_554 S
Zn465 O474 1.977 . S
O466 Zn465 2.032 1_556 S
O466 C470 1.278 . S
C467 O468 1.203 . S
C467 O474 1.267 . S
O468 C467 1.203 . S
O469 C462 1.185 . S
O469 Zn465 2.086 1_556 S
C470 O466 1.278 . S
C470 O471 1.211 . S
O471 C470 1.211 . S
C472 O464 1.284 . S
C472 O473 1.273 . S
O473 C472 1.273 . S
O474 Zn465 1.977 . S
O474 C467 1.267 . S
C475 O476 1.160 . S
C475 O482 1.185 . S
O476 C475 1.160 . S
O477 Zn478 1.899 . S
O477 C485 1.284 . S
Zn478 O477 1.899 . S
Zn478 O479 2.032 . S
Zn478 O482 2.086 . S
Zn478 O487 1.977 . S
O479 Zn478 2.032 . S
O479 C483 1.278 . S
C480 O481 1.203 . S
C480 O487 1.267 . S
O481 C480 1.203 . S
O482 C475 1.185 . S
O482 Zn478 2.086 . S
C483 O479 1.278 . S
C483 O484 1.211 . S
O484 C483 1.211 . S
C485 O477 1.284 . S
C485 O486 1.273 . S
O486 C485 1.273 . S
O487 Zn478 1.977 . S
O487 C480 1.267 . S
H488 C500 0.930 . S
H489 C502 0.930 . S
H490 C503 0.930 . S
H491 C507 0.959 . S
H492 C507 0.959 . S
H493 C507 0.961 . S
H494 C508 0.960 . S
H495 C508 0.961 . S
H496 C508 0.959 . S
H497 C511 0.929 . S
H498 C512 0.931 . S
H499 C514 0.930 . S
C500 H488 0.930 . S
C500 C501 1.399 . S
C500 C505 1.399 . S
C501 C500 1.399 . S
C501 C502 1.376 . S
C502 H489 0.930 . S
C502 C501 1.376 . S
C502 C503 1.388 . S
C503 H490 0.930 . S
C503 C502 1.388 . S
C503 C504 1.390 . S
C504 C503 1.390 . S
C504 C505 1.394 . S
C504 C510 1.465 . S
C505 C500 1.399 . S
C505 C504 1.394 . S
C505 C506 1.516 . S
C506 C505 1.516 . S
C506 C507 1.502 . S
C506 C508 1.561 . S
C506 C509 1.526 . S
C507 H491 0.959 . S
C507 H492 0.959 . S
C507 H493 0.961 . S
C507 C506 1.502 . S
C508 H494 0.960 . S
C508 H495 0.961 . S
C508 H496 0.959 . S
C508 C506 1.561 . S
C509 C506 1.526 . S
C509 C510 1.396 . S
C509 C514 1.390 . S
C510 C504 1.465 . S
C510 C509 1.396 . S
C510 C511 1.399 . S
C511 H497 0.929 . S
C511 C510 1.399 . S
C511 C512 1.385 . S
C512 H498 0.931 . S
C512 C511 1.385 . S
C512 C513 1.389 . S
C513 C512 1.389 . S
C513 C514 1.387 . S
C514 H499 0.930 . S
C514 C509 1.390 . S
C514 C513 1.387 . S
H515 C527 0.930 . S
H516 C529 0.930 . S
H517 C530 0.930 . S
H518 C534 0.959 . S
H519 C534 0.959 . S
H520 C534 0.961 . S
H521 C535 0.960 . S
H522 C535 0.961 . S
H523 C535 0.959 . S
H524 C538 0.929 . S
H525 C539 0.931 . S
H526 C541 0.930 . S
C527 H515 0.930 . S
C527 C528 1.399 . S
C527 C532 1.399 . S
C528 C527 1.399 . S
C528 C529 1.376 . S
C529 H516 0.930 . S
C529 C528 1.376 . S
C529 C530 1.388 . S
C530 H517 0.930 . S
C530 C529 1.388 . S
C530 C531 1.390 . S
C531 C530 1.390 . S
C531 C532 1.394 . S
C531 C537 1.465 . S
C532 C527 1.399 . S
C532 C531 1.394 . S
C532 C533 1.516 . S
C533 C532 1.516 . S
C533 C534 1.502 . S
C533 C535 1.561 . S
C533 C536 1.526 . S
C534 H518 0.959 . S
C534 H519 0.959 . S
C534 H520 0.961 . S
C534 C533 1.502 . S
C535 H521 0.960 . S
C535 H522 0.961 . S
C535 H523 0.959 . S
C535 C533 1.561 . S
C536 C533 1.526 . S
C536 C537 1.396 . S
C536 C541 1.390 . S
C537 C531 1.465 . S
C537 C536 1.396 . S
C537 C538 1.399 . S
C538 H524 0.929 . S
C538 C537 1.399 . S
C538 C539 1.385 . S
C539 H525 0.931 . S
C539 C538 1.385 . S
C539 C540 1.389 . S
C540 C539 1.389 . S
C540 C541 1.387 . S
C541 H526 0.930 . S
C541 C536 1.390 . S
C541 C540 1.387 . S
H542 C554 0.930 . S
H543 C556 0.930 . S
H544 C557 0.930 . S
H545 C561 0.959 . S
H546 C561 0.959 . S
H547 C561 0.961 . S
H548 C562 0.960 . S
H549 C562 0.961 . S
H550 C562 0.959 . S
H551 C565 0.929 . S
H552 C566 0.931 . S
H553 C568 0.930 . S
C554 H542 0.930 . S
C554 C555 1.399 . S
C554 C559 1.399 . S
C555 C554 1.399 . S
C555 C556 1.376 . S
C556 H543 0.930 . S
C556 C555 1.376 . S
C556 C557 1.388 . S
C557 H544 0.930 . S
C557 C556 1.388 . S
C557 C558 1.390 . S
C558 C557 1.390 . S
C558 C559 1.394 . S
C558 C564 1.465 . S
C559 C554 1.399 . S
C559 C558 1.394 . S
C559 C560 1.516 . S
C560 C559 1.516 . S
C560 C561 1.502 . S
C560 C562 1.561 . S
C560 C563 1.526 . S
C561 H545 0.959 . S
C561 H546 0.959 . S
C561 H547 0.961 . S
C561 C560 1.502 . S
C562 H548 0.960 . S
C562 H549 0.961 . S
C562 H550 0.959 . S
C562 C560 1.561 . S
C563 C560 1.526 . S
C563 C564 1.396 . S
C563 C568 1.390 . S
C564 C558 1.465 . S
C564 C563 1.396 . S
C564 C565 1.399 . S
C565 H551 0.929 . S
C565 C564 1.399 . S
C565 C566 1.385 . S
C566 H552 0.931 . S
C566 C565 1.385 . S
C566 C567 1.389 . S
C567 C566 1.389 . S
C567 C568 1.387 . S
C568 H553 0.930 . S
C568 C563 1.390 . S
C568 C567 1.387 . S
H569 C581 0.930 . S
H570 C583 0.949 . S
H571 C584 0.930 1_556 S
H572 C588 0.959 . S
H573 C588 0.959 . S
H574 C588 0.961 . S
H575 C589 0.960 . S
H576 C589 0.961 . S
H577 C589 0.959 . S
H578 C592 0.929 . S
H579 C593 0.931 . S
H580 C595 0.930 . S
C581 H569 0.930 . S
C581 C582 1.399 . S
C581 C586 1.399 . S
C582 C581 1.399 . S
C582 C583 1.376 . S
C583 H570 0.949 . S
C583 C582 1.376 . S
C583 C584 1.388 . S
C584 H571 0.930 1_554 S
C584 C583 1.388 . S
C584 C585 1.390 . S
C585 C584 1.390 . S
C585 C586 1.394 . S
C585 C591 1.465 . S
C586 C581 1.399 . S
C586 C585 1.394 . S
C586 C587 1.516 . S
C587 C586 1.516 . S
C587 C588 1.502 . S
C587 C589 1.561 . S
C587 C590 1.526 . S
C588 H572 0.959 . S
C588 H573 0.959 . S
C588 H574 0.961 . S
C588 C587 1.502 . S
C589 H575 0.960 . S
C589 H576 0.961 . S
C589 H577 0.959 . S
C589 C587 1.561 . S
C590 C587 1.526 . S
C590 C591 1.396 . S
C590 C595 1.390 . S
C591 C585 1.465 . S
C591 C590 1.396 . S
C591 C592 1.399 1_554 S
C592 H578 0.929 . S
C592 C591 1.399 1_556 S
C592 C593 1.385 . S
C593 H579 0.931 . S
C593 C592 1.385 . S
C593 C594 1.389 1_556 S
C594 C593 1.389 1_554 S
C594 C595 1.387 . S
C595 H580 0.930 . S
C595 C590 1.390 . S
C595 C594 1.387 . S
H596 C608 0.930 . S
H597 C610 0.930 . S
H598 C611 0.930 . S
H599 C615 0.959 . S
H600 C615 0.959 . S
H601 C615 0.961 . S
H602 C616 0.960 . S
H603 C616 0.961 . S
H604 C616 0.959 . S
H605 C619 0.929 . S
H606 C620 0.931 . S
H607 C622 0.930 1_554 S
C608 H596 0.930 . S
C608 C609 1.399 . S
C608 C613 1.399 . S
C609 C608 1.399 . S
C609 C610 1.376 . S
C610 H597 0.930 . S
C610 C609 1.376 . S
C610 C611 1.388 . S
C611 H598 0.930 . S
C611 C610 1.388 . S
C611 C612 1.390 . S
C612 C611 1.390 . S
C612 C613 1.394 . S
C612 C618 1.465 . S
C613 C608 1.399 . S
C613 C612 1.394 . S
C613 C614 1.516 . S
C614 C613 1.516 . S
C614 C615 1.502 1_556 S
C614 C616 1.561 . S
C614 C617 1.526 . S
C615 H599 0.959 . S
C615 H600 0.959 . S
C615 H601 0.961 . S
C615 C614 1.502 1_554 S
C616 H602 0.960 . S
C616 H603 0.961 . S
C616 H604 0.959 . S
C616 C614 1.561 . S
C617 C614 1.526 . S
C617 C618 1.396 . S
C617 C622 1.390 . S
C618 C612 1.465 . S
C618 C617 1.396 . S
C618 C619 1.399 . S
C619 H605 0.929 . S
C619 C618 1.399 . S
C619 C620 1.385 . S
C620 H606 0.931 . S
C620 C619 1.385 . S
C620 C621 1.389 . S
C621 C620 1.389 . S
C621 C622 1.387 . S
C622 H607 0.930 1_556 S
C622 C617 1.390 . S
C622 C621 1.387 . S
H623 C635 0.930 . S
H624 C637 0.930 . S
H625 C638 0.930 . S
H626 C642 0.959 . S
H627 C642 0.959 . S
H628 C642 0.961 . S
H629 C643 0.960 . S
H630 C643 0.961 . S
H631 C643 0.959 . S
H632 C646 0.929 . S
H633 C647 0.931 . S
H634 C649 0.930 . S
C635 H623 0.930 . S
C635 C636 1.399 . S
C635 C640 1.399 . S
C636 C635 1.399 . S
C636 C637 1.376 . S
C637 H624 0.930 . S
C637 C636 1.376 . S
C637 C638 1.388 . S
C638 H625 0.930 . S
C638 C637 1.388 . S
C638 C639 1.390 . S
C639 C638 1.390 . S
C639 C640 1.394 . S
C639 C645 1.465 . S
C640 C635 1.399 . S
C640 C639 1.394 . S
C640 C641 1.516 . S
C641 C640 1.516 . S
C641 C642 1.502 . S
C641 C643 1.561 . S
C641 C644 1.526 . S
C642 H626 0.959 . S
C642 H627 0.959 . S
C642 H628 0.961 . S
C642 C641 1.502 . S
C643 H629 0.960 . S
C643 H630 0.961 . S
C643 H631 0.959 . S
C643 C641 1.561 . S
C644 C641 1.526 . S
C644 C645 1.396 . S
C644 C649 1.390 . S
C645 C639 1.465 . S
C645 C644 1.396 . S
C645 C646 1.399 . S
C646 H632 0.929 . S
C646 C645 1.399 . S
C646 C647 1.385 . S
C647 H633 0.931 . S
C647 C646 1.385 . S
C647 C648 1.389 . S
C648 C647 1.389 . S
C648 C649 1.387 . S
C649 H634 0.930 . S
C649 C644 1.390 . S
C649 C648 1.387 . S
H650 C662 0.930 . S
H651 C664 0.930 . S
H652 C665 0.930 . S
H653 C669 0.959 . S
H654 C669 0.959 . S
H655 C669 0.961 . S
H656 C670 0.960 . S
H657 C670 0.961 . S
H658 C670 0.959 . S
H659 C673 0.929 . S
H660 C674 0.931 . S
H661 C676 0.930 . S
C662 H650 0.930 . S
C662 C663 1.399 . S
C662 C667 1.399 . S
C663 C662 1.399 . S
C663 C664 1.376 . S
C664 H651 0.930 . S
C664 C663 1.376 . S
C664 C665 1.388 . S
C665 H652 0.930 . S
C665 C664 1.388 . S
C665 C666 1.390 . S
C666 C665 1.390 . S
C666 C667 1.394 . S
C666 C672 1.465 . S
C667 C662 1.399 . S
C667 C666 1.394 . S
C667 C668 1.516 . S
C668 C667 1.516 . S
C668 C669 1.502 . S
C668 C670 1.561 . S
C668 C671 1.526 . S
C669 H653 0.959 . S
C669 H654 0.959 . S
C669 H655 0.961 . S
C669 C668 1.502 . S
C670 H656 0.960 . S
C670 H657 0.961 . S
C670 H658 0.959 . S
C670 C668 1.561 . S
C671 C668 1.526 . S
C671 C672 1.396 . S
C671 C676 1.390 . S
C672 C666 1.465 . S
C672 C671 1.396 . S
C672 C673 1.399 . S
C673 H659 0.929 . S
C673 C672 1.399 . S
C673 C674 1.385 . S
C674 H660 0.931 . S
C674 C673 1.385 . S
C674 C675 1.389 . S
C675 C674 1.389 . S
C675 C676 1.387 . S
C676 H661 0.930 . S
C676 C671 1.390 . S
C676 C675 1.387 . S
H677 C689 0.930 . S
H678 C691 0.930 . S
H679 C692 0.930 . S
H680 C696 0.959 . S
H681 C696 0.959 . S
H682 C696 0.961 . S
H683 C697 0.960 . S
H684 C697 0.961 . S
H685 C697 0.959 . S
H686 C700 0.929 . S
H687 C701 0.931 . S
H688 C703 0.930 . S
C689 H677 0.930 . S
C689 C690 1.399 . S
C689 C694 1.399 . S
C690 C689 1.399 . S
C690 C691 1.376 . S
C691 H678 0.930 . S
C691 C690 1.376 . S
C691 C692 1.388 . S
C692 H679 0.930 . S
C692 C691 1.388 . S
C692 C693 1.390 . S
C693 C692 1.390 . S
C693 C694 1.394 . S
C693 C699 1.465 . S
C694 C689 1.399 . S
C694 C693 1.394 . S
C694 C695 1.516 . S
C695 C694 1.516 . S
C695 C696 1.502 . S
C695 C697 1.561 . S
C695 C698 1.526 . S
C696 H680 0.959 . S
C696 H681 0.959 . S
C696 H682 0.961 . S
C696 C695 1.502 . S
C697 H683 0.960 . S
C697 H684 0.961 . S
C697 H685 0.959 . S
C697 C695 1.561 . S
C698 C695 1.526 . S
C698 C699 1.396 . S
C698 C703 1.390 . S
C699 C693 1.465 . S
C699 C698 1.396 . S
C699 C700 1.399 . S
C700 H686 0.929 . S
C700 C699 1.399 . S
C700 C701 1.385 . S
C701 H687 0.931 . S
C701 C700 1.385 . S
C701 C702 1.389 . S
C702 C701 1.389 . S
C702 C703 1.387 . S
C703 H688 0.930 . S
C703 C698 1.390 . S
C703 C702 1.387 . S
H704 C716 0.930 . S
H705 C718 0.930 . S
H706 C719 0.930 . S
H707 C723 0.959 . S
H708 C723 0.959 . S
H709 C723 0.961 . S
H710 C724 0.960 . S
H711 C724 0.961 . S
H712 C724 0.959 . S
H713 C727 0.929 . S
H714 C728 0.931 . S
H715 C730 0.930 . S
C716 H704 0.930 . S
C716 C717 1.399 . S
C716 C721 1.399 . S
C717 C716 1.399 . S
C717 C718 1.376 . S
C718 H705 0.930 . S
C718 C717 1.376 . S
C718 C719 1.388 . S
C719 H706 0.930 . S
C719 C718 1.388 . S
C719 C720 1.390 . S
C720 C719 1.390 . S
C720 C721 1.394 . S
C720 C726 1.465 . S
C721 C716 1.399 . S
C721 C720 1.394 . S
C721 C722 1.516 . S
C722 C721 1.516 . S
C722 C723 1.502 . S
C722 C724 1.561 . S
C722 C725 1.526 . S
C723 H707 0.959 . S
C723 H708 0.959 . S
C723 H709 0.961 . S
C723 C722 1.502 . S
C724 H710 0.960 . S
C724 H711 0.961 . S
C724 H712 0.959 . S
C724 C722 1.561 . S
C725 C722 1.526 . S
C725 C726 1.396 . S
C725 C730 1.390 . S
C726 C720 1.465 . S
C726 C725 1.396 . S
C726 C727 1.399 . S
C727 H713 0.929 . S
C727 C726 1.399 . S
C727 C728 1.385 . S
C728 H714 0.931 . S
C728 C727 1.385 . S
C728 C729 1.389 . S
C729 C728 1.389 . S
C729 C730 1.387 . S
C730 H715 0.930 . S
C730 C725 1.390 . S
C730 C729 1.387 . S
H731 C743 0.930 . S
H732 C745 0.930 . S
H733 C746 0.930 1_556 S
H734 C750 0.959 . S
H735 C750 0.959 . S
H736 C750 0.961 . S
H737 C751 0.960 . S
H738 C751 0.961 . S
H739 C751 0.959 . S
H740 C754 0.929 . S
H741 C755 0.931 . S
H742 C757 0.930 . S
C743 H731 0.930 . S
C743 C744 1.399 . S
C743 C748 1.399 . S
C744 C743 1.399 . S
C744 C745 1.376 . S
C745 H732 0.930 . S
C745 C744 1.376 . S
C745 C746 1.388 . S
C746 H733 0.930 1_554 S
C746 C745 1.388 . S
C746 C747 1.390 . S
C747 C746 1.390 . S
C747 C748 1.394 . S
C747 C753 1.465 . S
C748 C743 1.399 . S
C748 C747 1.394 . S
C748 C749 1.516 . S
C749 C748 1.516 . S
C749 C750 1.502 . S
C749 C751 1.561 . S
C749 C752 1.526 . S
C750 H734 0.959 . S
C750 H735 0.959 . S
C750 H736 0.961 . S
C750 C749 1.502 . S
C751 H737 0.960 . S
C751 H738 0.961 . S
C751 H739 0.959 . S
C751 C749 1.561 . S
C752 C749 1.526 . S
C752 C753 1.396 . S
C752 C757 1.390 . S
C753 C747 1.465 . S
C753 C752 1.396 . S
C753 C754 1.399 1_554 S
C754 H740 0.929 . S
C754 C753 1.399 1_556 S
C754 C755 1.385 . S
C755 H741 0.931 . S
C755 C754 1.385 . S
C755 C756 1.389 1_556 S
C756 C755 1.389 1_554 S
C756 C757 1.387 . S
C757 H742 0.930 . S
C757 C752 1.390 . S
C757 C756 1.387 . S
H758 C770 0.930 . S
H759 C772 0.930 . S
H760 C773 0.930 . S
H761 C777 0.959 . S
H762 C777 0.959 . S
H763 C777 0.961 . S
H764 C778 0.960 . S
H765 C778 0.961 . S
H766 C778 0.959 . S
H767 C781 0.929 . S
H768 C782 0.931 . S
H769 C784 0.930 . S
C770 H758 0.930 . S
C770 C771 1.399 . S
C770 C775 1.399 . S
C771 C770 1.399 . S
C771 C772 1.376 . S
C772 H759 0.930 . S
C772 C771 1.376 . S
C772 C773 1.388 . S
C773 H760 0.930 . S
C773 C772 1.388 . S
C773 C774 1.390 . S
C774 C773 1.390 . S
C774 C775 1.394 . S
C774 C780 1.465 . S
C775 C770 1.399 . S
C775 C774 1.394 . S
C775 C776 1.516 . S
C776 C775 1.516 . S
C776 C777 1.502 . S
C776 C778 1.561 . S
C776 C779 1.526 . S
C777 H761 0.959 . S
C777 H762 0.959 . S
C777 H763 0.961 . S
C777 C776 1.502 . S
C778 H764 0.960 . S
C778 H765 0.961 . S
C778 H766 0.959 . S
C778 C776 1.561 . S
C779 C776 1.526 . S
C779 C780 1.396 . S
C779 C784 1.390 . S
C780 C774 1.465 . S
C780 C779 1.396 . S
C780 C781 1.399 . S
C781 H767 0.929 . S
C781 C780 1.399 . S
C781 C782 1.385 . S
C782 H768 0.931 . S
C782 C781 1.385 . S
C782 C783 1.389 . S
C783 C782 1.389 . S
C783 C784 1.387 . S
C784 H769 0.930 . S
C784 C779 1.390 . S
C784 C783 1.387 . S
H785 C797 0.930 . S
H786 C799 0.930 . S
H787 C800 0.930 . S
H788 C804 0.959 . S
H789 C804 0.959 . S
H790 C804 0.961 . S
H791 C805 0.960 . S
H792 C805 0.961 . S
H793 C805 0.959 . S
H794 C808 0.929 . S
H795 C809 0.931 . S
H796 C811 0.930 . S
C797 H785 0.930 . S
C797 C798 1.399 . S
C797 C802 1.399 . S
C798 C797 1.399 . S
C798 C799 1.376 . S
C799 H786 0.930 . S
C799 C798 1.376 . S
C799 C800 1.388 . S
C800 H787 0.930 . S
C800 C799 1.388 . S
C800 C801 1.390 . S
C801 C800 1.390 . S
C801 C802 1.394 . S
C801 C807 1.465 . S
C802 C797 1.399 . S
C802 C801 1.394 . S
C802 C803 1.516 . S
C803 C802 1.516 . S
C803 C804 1.502 . S
C803 C805 1.561 . S
C803 C806 1.526 . S
C804 H788 0.959 . S
C804 H789 0.959 . S
C804 H790 0.961 . S
C804 C803 1.502 . S
C805 H791 0.960 . S
C805 H792 0.961 . S
C805 H793 0.959 . S
C805 C803 1.561 . S
C806 C803 1.526 . S
C806 C807 1.396 . S
C806 C811 1.390 . S
C807 C801 1.465 . S
C807 C806 1.396 . S
C807 C808 1.399 . S
C808 H794 0.929 . S
C808 C807 1.399 . S
C808 C809 1.385 . S
C809 H795 0.931 . S
C809 C808 1.385 . S
C809 C810 1.389 . S
C810 C809 1.389 . S
C810 C811 1.387 . S
C811 H796 0.930 . S
C811 C806 1.390 . S
C811 C810 1.387 . S
H812 C824 0.930 . S
H813 C826 0.930 . S
H814 C827 0.930 . S
H815 C831 0.959 . S
H816 C831 0.959 . S
H817 C831 0.961 . S
H818 C832 0.960 . S
H819 C832 0.961 . S
H820 C832 0.959 . S
H821 C835 0.929 . S
H822 C836 0.931 . S
H823 C838 0.930 . S
C824 H812 0.930 . S
C824 C825 1.399 . S
C824 C829 1.399 . S
C825 C824 1.399 . S
C825 C826 1.376 . S
C826 H813 0.930 . S
C826 C825 1.376 . S
C826 C827 1.388 . S
C827 H814 0.930 . S
C827 C826 1.388 . S
C827 C828 1.390 . S
C828 C827 1.390 . S
C828 C829 1.394 . S
C828 C834 1.465 . S
C829 C824 1.399 . S
C829 C828 1.394 . S
C829 C830 1.516 . S
C830 C829 1.516 . S
C830 C831 1.502 . S
C830 C832 1.561 . S
C830 C833 1.526 . S
C831 H815 0.959 . S
C831 H816 0.959 . S
C831 H817 0.961 . S
C831 C830 1.502 . S
C832 H818 0.960 . S
C832 H819 0.961 . S
C832 H820 0.959 . S
C832 C830 1.561 . S
C833 C830 1.526 . S
C833 C834 1.396 . S
C833 C838 1.390 . S
C834 C828 1.465 . S
C834 C833 1.396 . S
C834 C835 1.399 . S
C835 H821 0.929 . S
C835 C834 1.399 . S
C835 C836 1.385 . S
C836 H822 0.931 . S
C836 C835 1.385 . S
C836 C837 1.389 . S
C837 C836 1.389 . S
C837 C838 1.387 . S
C838 H823 0.930 . S
C838 C833 1.390 . S
C838 C837 1.387 . S
H839 C851 0.930 . S
H840 C853 0.930 . S
H841 C854 0.930 . S
H842 C858 0.959 . S
H843 C858 0.959 . S
H844 C858 0.961 . S
H845 C859 0.960 . S
H846 C859 0.961 . S
H847 C859 0.959 . S
H848 C862 0.929 . S
H849 C863 0.931 . S
H850 C865 0.930 . S
C851 H839 0.930 . S
C851 C852 1.399 . S
C851 C856 1.399 . S
C852 C851 1.399 . S
C852 C853 1.376 . S
C853 H840 0.930 . S
C853 C852 1.376 . S
C853 C854 1.388 . S
C854 H841 0.930 . S
C854 C853 1.388 . S
C854 C855 1.390 . S
C855 C854 1.390 . S
C855 C856 1.394 . S
C855 C861 1.465 . S
C856 C851 1.399 . S
C856 C855 1.394 . S
C856 C857 1.516 . S
C857 C856 1.516 . S
C857 C858 1.502 . S
C857 C859 1.561 . S
C857 C860 1.526 . S
C858 H842 0.959 . S
C858 H843 0.959 . S
C858 H844 0.961 . S
C858 C857 1.502 . S
C859 H845 0.960 . S
C859 H846 0.961 . S
C859 H847 0.959 . S
C859 C857 1.561 . S
C860 C857 1.526 . S
C860 C861 1.396 . S
C860 C865 1.390 . S
C861 C855 1.465 . S
C861 C860 1.396 . S
C861 C862 1.399 . S
C862 H848 0.929 . S
C862 C861 1.399 . S
C862 C863 1.385 . S
C863 H849 0.931 . S
C863 C862 1.385 . S
C863 C864 1.389 . S
C864 C863 1.389 . S
C864 C865 1.387 . S
C865 H850 0.930 . S
C865 C860 1.390 . S
C865 C864 1.387 . S
H866 C878 0.930 1_554 S
H867 C880 0.930 . S
H868 C881 0.930 . S
H869 C885 0.959 . S
H870 C885 0.959 . S
H871 C885 0.961 . S
H872 C886 0.960 . S
H873 C886 0.961 . S
H874 C886 0.959 . S
H875 C889 0.929 . S
H876 C890 0.931 . S
H877 C892 0.930 . S
C878 H866 0.930 1_556 S
C878 C879 1.399 . S
C878 C883 1.399 . S
C879 C878 1.399 . S
C879 C880 1.376 . S
C880 H867 0.930 . S
C880 C879 1.376 . S
C880 C881 1.388 . S
C881 H868 0.930 . S
C881 C880 1.388 . S
C881 C882 1.390 . S
C882 C881 1.390 . S
C882 C883 1.394 . S
C882 C888 1.465 . S
C883 C878 1.399 . S
C883 C882 1.394 . S
C883 C884 1.516 1_556 S
C884 C883 1.516 1_554 S
C884 C885 1.502 . S
C884 C886 1.561 . S
C884 C887 1.526 1_554 S
C885 H869 0.959 . S
C885 H870 0.959 . S
C885 H871 0.961 . S
C885 C884 1.502 . S
C886 H872 0.960 . S
C886 H873 0.961 . S
C886 H874 0.959 . S
C886 C884 1.561 . S
C887 C884 1.526 1_556 S
C887 C888 1.396 . S
C887 C892 1.390 1_556 S
C888 C882 1.465 . S
C888 C887 1.396 . S
C888 C889 1.399 . S
C889 H875 0.929 . S
C889 C888 1.399 . S
C889 C890 1.385 . S
C890 H876 0.931 . S
C890 C889 1.385 . S
C890 C891 1.389 . S
C891 C890 1.389 . S
C891 C892 1.387 1_556 S
C892 H877 0.930 . S
C892 C887 1.390 1_554 S
C892 C891 1.387 1_554 S
H893 C905 0.930 . S
H894 C907 0.930 . S
H895 C908 0.930 . S
H896 C912 0.959 . S
H897 C912 0.959 . S
H898 C912 0.961 . S
H899 C913 0.960 . S
H900 C913 0.961 . S
H901 C913 0.959 . S
H902 C916 0.929 . S
H903 C917 0.931 . S
H904 C919 0.930 . S
C905 H893 0.930 . S
C905 C906 1.399 . S
C905 C910 1.399 . S
C906 C905 1.399 . S
C906 C907 1.376 . S
C907 H894 0.930 . S
C907 C906 1.376 . S
C907 C908 1.388 . S
C908 H895 0.930 . S
C908 C907 1.388 . S
C908 C909 1.390 . S
C909 C908 1.390 . S
C909 C910 1.394 . S
C909 C915 1.465 . S
C910 C905 1.399 . S
C910 C909 1.394 . S
C910 C911 1.516 . S
C911 C910 1.516 . S
C911 C912 1.502 . S
C911 C913 1.561 . S
C911 C914 1.526 . S
C912 H896 0.959 . S
C912 H897 0.959 . S
C912 H898 0.961 . S
C912 C911 1.502 . S
C913 H899 0.960 . S
C913 H900 0.961 . S
C913 H901 0.959 . S
C913 C911 1.561 . S
C914 C911 1.526 . S
C914 C915 1.396 . S
C914 C919 1.390 . S
C915 C909 1.465 . S
C915 C914 1.396 . S
C915 C916 1.399 . S
C916 H902 0.929 . S
C916 C915 1.399 . S
C916 C917 1.385 . S
C917 H903 0.931 . S
C917 C916 1.385 . S
C917 C918 1.389 . S
C918 C917 1.389 . S
C918 C919 1.387 . S
C919 H904 0.930 . S
C919 C914 1.390 . S
C919 C918 1.387 . S
H920 C932 0.930 . S
H921 C934 0.930 . S
H922 C935 0.930 . S
H923 C939 0.959 . S
H924 C939 0.959 . S
H925 C939 0.961 . S
H926 C940 0.960 . S
H927 C940 0.961 . S
H928 C940 0.959 . S
H929 C943 0.929 . S
H930 C944 0.931 . S
H931 C946 0.930 . S
C932 H920 0.930 . S
C932 C933 1.399 . S
C932 C937 1.399 . S
C933 C932 1.399 . S
C933 C934 1.376 . S
C934 H921 0.930 . S
C934 C933 1.376 . S
C934 C935 1.388 . S
C935 H922 0.930 . S
C935 C934 1.388 . S
C935 C936 1.390 . S
C936 C935 1.390 . S
C936 C937 1.394 . S
C936 C942 1.465 . S
C937 C932 1.399 . S
C937 C936 1.394 . S
C937 C938 1.516 . S
C938 C937 1.516 . S
C938 C939 1.502 . S
C938 C940 1.561 . S
C938 C941 1.526 . S
C939 H923 0.959 . S
C939 H924 0.959 . S
C939 H925 0.961 . S
C939 C938 1.502 . S
C940 H926 0.960 . S
C940 H927 0.961 . S
C940 H928 0.959 . S
C940 C938 1.561 . S
C941 C938 1.526 . S
C941 C942 1.396 . S
C941 C946 1.390 . S
C942 C936 1.465 . S
C942 C941 1.396 . S
C942 C943 1.399 . S
C943 H929 0.929 . S
C943 C942 1.399 . S
C943 C944 1.385 . S
C944 H930 0.931 . S
C944 C943 1.385 . S
C944 C945 1.389 . S
C945 C944 1.389 . S
C945 C946 1.387 . S
C946 H931 0.930 . S
C946 C941 1.390 . S
C946 C945 1.387 . S
H947 C959 0.930 . S
H948 C961 0.930 . S
H949 C962 0.930 . S
H950 C966 0.959 . S
H951 C966 0.959 . S
H952 C966 0.961 . S
H953 C967 0.960 . S
H954 C967 0.961 . S
H955 C967 0.959 . S
H956 C970 0.929 . S
H957 C971 0.931 . S
H958 C973 0.930 . S
C959 H947 0.930 . S
C959 C960 1.399 . S
C959 C964 1.399 . S
C960 C959 1.399 . S
C960 C961 1.376 . S
C961 H948 0.930 . S
C961 C960 1.376 . S
C961 C962 1.388 . S
C962 H949 0.930 . S
C962 C961 1.388 . S
C962 C963 1.390 . S
C963 C962 1.390 . S
C963 C964 1.394 . S
C963 C969 1.465 . S
C964 C959 1.399 . S
C964 C963 1.394 . S
C964 C965 1.516 . S
C965 C964 1.516 . S
C965 C966 1.502 . S
C965 C967 1.561 . S
C965 C968 1.526 . S
C966 H950 0.959 . S
C966 H951 0.959 . S
C966 H952 0.961 . S
C966 C965 1.502 . S
C967 H953 0.960 . S
C967 H954 0.961 . S
C967 H955 0.959 . S
C967 C965 1.561 . S
C968 C965 1.526 . S
C968 C969 1.396 . S
C968 C973 1.390 . S
C969 C963 1.465 . S
C969 C968 1.396 . S
C969 C970 1.399 . S
C970 H956 0.929 . S
C970 C969 1.399 . S
C970 C971 1.385 . S
C971 H957 0.931 . S
C971 C970 1.385 . S
C971 C972 1.389 . S
C972 C971 1.389 . S
C972 C973 1.387 . S
C973 H958 0.930 . S
C973 C968 1.390 . S
C973 C972 1.387 . S
H974 C986 0.930 . S
H975 C988 0.930 . S
H976 C989 0.930 . S
H977 C993 0.959 . S
H978 C993 0.959 . S
H979 C993 0.961 . S
H980 C994 0.960 . S
H981 C994 0.961 . S
H982 C994 0.959 . S
H983 C997 0.929 . S
H984 C998 0.931 . S
H985 C1000 0.930 . S
C986 H974 0.930 . S
C986 C987 1.399 . S
C986 C991 1.399 . S
C987 C986 1.399 . S
C987 C988 1.376 . S
C988 H975 0.930 . S
C988 C987 1.376 . S
C988 C989 1.388 . S
C989 H976 0.930 . S
C989 C988 1.388 . S
C989 C990 1.390 . S
C990 C989 1.390 . S
C990 C991 1.394 . S
C990 C996 1.465 . S
C991 C986 1.399 . S
C991 C990 1.394 . S
C991 C992 1.516 . S
C992 C991 1.516 . S
C992 C993 1.502 . S
C992 C994 1.561 . S
C992 C995 1.526 . S
C993 H977 0.959 . S
C993 H978 0.959 . S
C993 H979 0.961 . S
C993 C992 1.502 . S
C994 H980 0.960 . S
C994 H981 0.961 . S
C994 H982 0.959 . S
C994 C992 1.561 . S
C995 C992 1.526 . S
C995 C996 1.396 . S
C995 C1000 1.390 . S
C996 C990 1.465 . S
C996 C995 1.396 . S
C996 C997 1.399 . S
C997 H983 0.929 . S
C997 C996 1.399 . S
C997 C998 1.385 . S
C998 H984 0.931 . S
C998 C997 1.385 . S
C998 C999 1.389 . S
C999 C998 1.389 . S
C999 C1000 1.387 . S
C1000 H985 0.930 . S
C1000 C995 1.390 . S
C1000 C999 1.387 . S
H1001 C1013 0.930 . S
H1002 C1015 0.930 . S
H1003 C1016 0.930 . S
H1004 C1020 0.959 . S
H1005 C1020 0.959 . S
H1006 C1020 0.961 . S
H1007 C1021 0.960 . S
H1008 C1021 0.961 . S
H1009 C1021 0.959 . S
H1010 C1024 0.929 . S
H1011 C1025 0.931 . S
H1012 C1027 0.930 . S
C1013 H1001 0.930 . S
C1013 C1014 1.399 . S
C1013 C1018 1.399 . S
C1014 C1013 1.399 . S
C1014 C1015 1.376 . S
C1015 H1002 0.930 . S
C1015 C1014 1.376 . S
C1015 C1016 1.388 . S
C1016 H1003 0.930 . S
C1016 C1015 1.388 . S
C1016 C1017 1.390 . S
C1017 C1016 1.390 . S
C1017 C1018 1.394 . S
C1017 C1023 1.465 . S
C1018 C1013 1.399 . S
C1018 C1017 1.394 . S
C1018 C1019 1.516 . S
C1019 C1018 1.516 . S
C1019 C1020 1.502 . S
C1019 C1021 1.561 . S
C1019 C1022 1.526 . S
C1020 H1004 0.959 . S
C1020 H1005 0.959 . S
C1020 H1006 0.961 . S
C1020 C1019 1.502 . S
C1021 H1007 0.960 . S
C1021 H1008 0.961 . S
C1021 H1009 0.959 . S
C1021 C1019 1.561 . S
C1022 C1019 1.526 . S
C1022 C1023 1.396 . S
C1022 C1027 1.390 . S
C1023 C1017 1.465 . S
C1023 C1022 1.396 . S
C1023 C1024 1.399 . S
C1024 H1010 0.929 . S
C1024 C1023 1.399 . S
C1024 C1025 1.385 . S
C1025 H1011 0.931 . S
C1025 C1024 1.385 . S
C1025 C1026 1.389 . S
C1026 C1025 1.389 . S
C1026 C1027 1.387 . S
C1027 H1012 0.930 . S
C1027 C1022 1.390 . S
C1027 C1026 1.387 . S
H1028 C1040 0.930 . S
H1029 C1042 0.930 . S
H1030 C1043 0.930 . S
H1031 C1047 0.959 . S
H1032 C1047 0.959 . S
H1033 C1047 0.961 . S
H1034 C1048 0.960 . S
H1035 C1048 0.961 . S
H1036 C1048 0.959 . S
H1037 C1051 0.929 . S
H1038 C1052 0.931 . S
H1039 C1054 0.930 . S
C1040 H1028 0.930 . S
C1040 C1041 1.399 . S
C1040 C1045 1.399 . S
C1041 C1040 1.399 . S
C1041 C1042 1.376 . S
C1042 H1029 0.930 . S
C1042 C1041 1.376 . S
C1042 C1043 1.388 . S
C1043 H1030 0.930 . S
C1043 C1042 1.388 . S
C1043 C1044 1.390 . S
C1044 C1043 1.390 . S
C1044 C1045 1.394 . S
C1044 C1050 1.465 . S
C1045 C1040 1.399 . S
C1045 C1044 1.394 . S
C1045 C1046 1.516 . S
C1046 C1045 1.516 . S
C1046 C1047 1.502 . S
C1046 C1048 1.561 . S
C1046 C1049 1.526 . S
C1047 H1031 0.959 . S
C1047 H1032 0.959 . S
C1047 H1033 0.961 . S
C1047 C1046 1.502 . S
C1048 H1034 0.960 . S
C1048 H1035 0.961 . S
C1048 H1036 0.959 . S
C1048 C1046 1.561 . S
C1049 C1046 1.526 . S
C1049 C1050 1.396 . S
C1049 C1054 1.390 . S
C1050 C1044 1.465 . S
C1050 C1049 1.396 . S
C1050 C1051 1.399 . S
C1051 H1037 0.929 . S
C1051 C1050 1.399 . S
C1051 C1052 1.385 . S
C1052 H1038 0.931 . S
C1052 C1051 1.385 . S
C1052 C1053 1.389 . S
C1053 C1052 1.389 . S
C1053 C1054 1.387 . S
C1054 H1039 0.930 . S
C1054 C1049 1.390 . S
C1054 C1053 1.387 . S
H1055 C1067 0.930 . S
H1056 C1069 0.930 . S
H1057 C1070 0.930 . S
H1058 C1074 0.959 . S
H1059 C1074 0.959 . S
H1060 C1074 0.961 . S
H1061 C1075 0.960 . S
H1062 C1075 0.961 . S
H1063 C1075 0.959 . S
H1064 C1078 0.929 . S
H1065 C1079 0.931 . S
H1066 C1081 0.930 . S
C1067 H1055 0.930 . S
C1067 C1068 1.399 . S
C1067 C1072 1.399 . S
C1068 C1067 1.399 . S
C1068 C1069 1.376 . S
C1069 H1056 0.930 . S
C1069 C1068 1.376 . S
C1069 C1070 1.388 . S
C1070 H1057 0.930 . S
C1070 C1069 1.388 . S
C1070 C1071 1.390 . S
C1071 C1070 1.390 . S
C1071 C1072 1.394 . S
C1071 C1077 1.465 . S
C1072 C1067 1.399 . S
C1072 C1071 1.394 . S
C1072 C1073 1.516 . S
C1073 C1072 1.516 . S
C1073 C1074 1.502 . S
C1073 C1075 1.561 . S
C1073 C1076 1.526 . S
C1074 H1058 0.959 . S
C1074 H1059 0.959 . S
C1074 H1060 0.961 . S
C1074 C1073 1.502 . S
C1075 H1061 0.960 . S
C1075 H1062 0.961 . S
C1075 H1063 0.959 . S
C1075 C1073 1.561 . S
C1076 C1073 1.526 . S
C1076 C1077 1.396 . S
C1076 C1081 1.390 . S
C1077 C1071 1.465 . S
C1077 C1076 1.396 . S
C1077 C1078 1.399 . S
C1078 H1064 0.929 . S
C1078 C1077 1.399 . S
C1078 C1079 1.385 . S
C1079 H1065 0.931 . S
C1079 C1078 1.385 . S
C1079 C1080 1.389 . S
C1080 C1079 1.389 . S
C1080 C1081 1.387 . S
C1081 H1066 0.930 . S
C1081 C1076 1.390 . S
C1081 C1080 1.387 . S
H1082 C1094 0.930 . S
H1083 C1096 0.930 . S
H1084 C1097 0.930 . S
H1085 C1101 0.959 . S
H1086 C1101 0.959 . S
H1087 C1101 0.961 . S
H1088 C1102 0.960 . S
H1089 C1102 0.961 . S
H1090 C1102 0.959 . S
H1091 C1105 0.929 . S
H1092 C1106 0.931 . S
H1093 C1108 0.930 . S
C1094 H1082 0.930 . S
C1094 C1095 1.399 . S
C1094 C1099 1.399 . S
C1095 C1094 1.399 . S
C1095 C1096 1.376 . S
C1096 H1083 0.930 . S
C1096 C1095 1.376 . S
C1096 C1097 1.388 . S
C1097 H1084 0.930 . S
C1097 C1096 1.388 . S
C1097 C1098 1.390 . S
C1098 C1097 1.390 . S
C1098 C1099 1.394 . S
C1098 C1104 1.465 . S
C1099 C1094 1.399 . S
C1099 C1098 1.394 . S
C1099 C1100 1.516 . S
C1100 C1099 1.516 . S
C1100 C1101 1.502 . S
C1100 C1102 1.561 . S
C1100 C1103 1.526 . S
C1101 H1085 0.959 . S
C1101 H1086 0.959 . S
C1101 H1087 0.961 . S
C1101 C1100 1.502 . S
C1102 H1088 0.960 . S
C1102 H1089 0.961 . S
C1102 H1090 0.959 . S
C1102 C1100 1.561 . S
C1103 C1100 1.526 . S
C1103 C1104 1.396 . S
C1103 C1108 1.390 . S
C1104 C1098 1.465 . S
C1104 C1103 1.396 . S
C1104 C1105 1.399 . S
C1105 H1091 0.929 . S
C1105 C1104 1.399 . S
C1105 C1106 1.385 . S
C1106 H1092 0.931 . S
C1106 C1105 1.385 . S
C1106 C1107 1.389 . S
C1107 C1106 1.389 . S
C1107 C1108 1.387 . S
C1108 H1093 0.930 . S
C1108 C1103 1.390 . S
C1108 C1107 1.387 . S
H1109 C1121 0.930 . S
H1110 C1123 0.930 . S
H1111 C1124 0.930 . S
H1112 C1128 0.959 . S
H1113 C1128 0.959 . S
H1114 C1128 0.961 . S
H1115 C1129 0.960 . S
H1116 C1129 0.961 . S
H1117 C1129 0.959 . S
H1118 C1132 0.929 . S
H1119 C1133 0.931 . S
H1120 C1135 0.930 . S
C1121 H1109 0.930 . S
C1121 C1122 1.399 . S
C1121 C1126 1.399 . S
C1122 C1121 1.399 . S
C1122 C1123 1.376 . S
C1123 H1110 0.930 . S
C1123 C1122 1.376 . S
C1123 C1124 1.388 . S
C1124 H1111 0.930 . S
C1124 C1123 1.388 . S
C1124 C1125 1.390 . S
C1125 C1124 1.390 . S
C1125 C1126 1.394 . S
C1125 C1131 1.465 . S
C1126 C1121 1.399 . S
C1126 C1125 1.394 . S
C1126 C1127 1.516 . S
C1127 C1126 1.516 . S
C1127 C1128 1.502 . S
C1127 C1129 1.561 . S
C1127 C1130 1.526 . S
C1128 H1112 0.959 . S
C1128 H1113 0.959 . S
C1128 H1114 0.961 . S
C1128 C1127 1.502 . S
C1129 H1115 0.960 . S
C1129 H1116 0.961 . S
C1129 H1117 0.959 . S
C1129 C1127 1.561 . S
C1130 C1127 1.526 . S
C1130 C1131 1.396 . S
C1130 C1135 1.390 . S
C1131 C1125 1.465 . S
C1131 C1130 1.396 . S
C1131 C1132 1.399 . S
C1132 H1118 0.929 . S
C1132 C1131 1.399 . S
C1132 C1133 1.385 . S
C1133 H1119 0.931 . S
C1133 C1132 1.385 . S
C1133 C1134 1.389 . S
C1134 C1133 1.389 . S
C1134 C1135 1.387 . S
C1135 H1120 0.930 . S
C1135 C1130 1.390 . S
C1135 C1134 1.387 . S
H1136 C1148 0.930 . S
H1137 C1150 0.930 . S
H1138 C1151 0.930 . S
H1139 C1155 0.959 . S
H1140 C1155 0.959 . S
H1141 C1155 0.961 . S
H1142 C1156 0.960 . S
H1143 C1156 0.961 . S
H1144 C1156 0.959 . S
H1145 C1159 0.929 . S
H1146 C1160 0.931 . S
H1147 C1162 0.930 . S
C1148 H1136 0.930 . S
C1148 C1149 1.399 . S
C1148 C1153 1.399 . S
C1149 C1148 1.399 . S
C1149 C1150 1.376 . S
C1150 H1137 0.930 . S
C1150 C1149 1.376 . S
C1150 C1151 1.388 . S
C1151 H1138 0.930 . S
C1151 C1150 1.388 . S
C1151 C1152 1.390 . S
C1152 C1151 1.390 . S
C1152 C1153 1.394 . S
C1152 C1158 1.465 . S
C1153 C1148 1.399 . S
C1153 C1152 1.394 . S
C1153 C1154 1.516 . S
C1154 C1153 1.516 . S
C1154 C1155 1.502 . S
C1154 C1156 1.561 . S
C1154 C1157 1.526 . S
C1155 H1139 0.959 . S
C1155 H1140 0.959 . S
C1155 H1141 0.961 . S
C1155 C1154 1.502 . S
C1156 H1142 0.960 . S
C1156 H1143 0.961 . S
C1156 H1144 0.959 . S
C1156 C1154 1.561 . S
C1157 C1154 1.526 . S
C1157 C1158 1.396 . S
C1157 C1162 1.390 . S
C1158 C1152 1.465 . S
C1158 C1157 1.396 . S
C1158 C1159 1.399 . S
C1159 H1145 0.929 . S
C1159 C1158 1.399 . S
C1159 C1160 1.385 . S
C1160 H1146 0.931 . S
C1160 C1159 1.385 . S
C1160 C1161 1.389 . S
C1161 C1160 1.389 . S
C1161 C1162 1.387 . S
C1162 H1147 0.930 . S
C1162 C1157 1.390 . S
C1162 C1161 1.387 . S
H1163 C1175 0.930 . S
H1164 C1177 0.930 . S
H1165 C1178 0.930 . S
H1166 C1182 0.959 . S
H1167 C1182 0.959 . S
H1168 C1182 0.961 . S
H1169 C1183 0.960 . S
H1170 C1183 0.961 . S
H1171 C1183 0.959 . S
H1172 C1186 0.929 . S
H1173 C1187 0.931 . S
H1174 C1189 0.930 . S
C1175 H1163 0.930 . S
C1175 C1176 1.399 . S
C1175 C1180 1.399 . S
C1176 C1175 1.399 . S
C1176 C1177 1.376 . S
C1177 H1164 0.930 . S
C1177 C1176 1.376 . S
C1177 C1178 1.388 . S
C1178 H1165 0.930 . S
C1178 C1177 1.388 . S
C1178 C1179 1.390 . S
C1179 C1178 1.390 . S
C1179 C1180 1.394 . S
C1179 C1185 1.465 . S
C1180 C1175 1.399 . S
C1180 C1179 1.394 . S
C1180 C1181 1.516 . S
C1181 C1180 1.516 . S
C1181 C1182 1.502 . S
C1181 C1183 1.561 . S
C1181 C1184 1.526 . S
C1182 H1166 0.959 . S
C1182 H1167 0.959 . S
C1182 H1168 0.961 . S
C1182 C1181 1.502 . S
C1183 H1169 0.960 . S
C1183 H1170 0.961 . S
C1183 H1171 0.959 . S
C1183 C1181 1.561 . S
C1184 C1181 1.526 . S
C1184 C1185 1.396 . S
C1184 C1189 1.390 . S
C1185 C1179 1.465 . S
C1185 C1184 1.396 . S
C1185 C1186 1.399 . S
C1186 H1172 0.929 . S
C1186 C1185 1.399 . S
C1186 C1187 1.385 . S
C1187 H1173 0.931 . S
C1187 C1186 1.385 . S
C1187 C1188 1.389 . S
C1188 C1187 1.389 . S
C1188 C1189 1.387 . S
C1189 H1174 0.930 . S
C1189 C1184 1.390 . S
C1189 C1188 1.387 . S
H1190 C1202 0.930 . S
H1191 C1204 0.930 . S
H1192 C1205 0.930 . S
H1193 C1209 0.959 . S
H1194 C1209 0.959 . S
H1195 C1209 0.961 . S
H1196 C1210 0.960 . S
H1197 C1210 0.961 . S
H1198 C1210 0.959 . S
H1199 C1213 0.929 . S
H1200 C1214 0.931 . S
H1201 C1216 0.930 . S
C1202 H1190 0.930 . S
C1202 C1203 1.399 . S
C1202 C1207 1.399 . S
C1203 C1202 1.399 . S
C1203 C1204 1.376 . S
C1204 H1191 0.930 . S
C1204 C1203 1.376 . S
C1204 C1205 1.388 . S
C1205 H1192 0.930 . S
C1205 C1204 1.388 . S
C1205 C1206 1.390 . S
C1206 C1205 1.390 . S
C1206 C1207 1.394 . S
C1206 C1212 1.465 . S
C1207 C1202 1.399 . S
C1207 C1206 1.394 . S
C1207 C1208 1.516 . S
C1208 C1207 1.516 . S
C1208 C1209 1.502 . S
C1208 C1210 1.561 . S
C1208 C1211 1.526 . S
C1209 H1193 0.959 . S
C1209 H1194 0.959 . S
C1209 H1195 0.961 . S
C1209 C1208 1.502 . S
C1210 H1196 0.960 . S
C1210 H1197 0.961 . S
C1210 H1198 0.959 . S
C1210 C1208 1.561 . S
C1211 C1208 1.526 . S
C1211 C1212 1.396 . S
C1211 C1216 1.390 . S
C1212 C1206 1.465 . S
C1212 C1211 1.396 . S
C1212 C1213 1.399 . S
C1213 H1199 0.929 . S
C1213 C1212 1.399 . S
C1213 C1214 1.385 . S
C1214 H1200 0.931 . S
C1214 C1213 1.385 . S
C1214 C1215 1.389 . S
C1215 C1214 1.389 . S
C1215 C1216 1.387 . S
C1216 H1201 0.930 . S
C1216 C1211 1.390 . S
C1216 C1215 1.387 . S
H1217 C1229 0.930 . S
H1218 C1231 0.930 . S
H1219 C1232 0.930 . S
H1220 C1236 0.959 . S
H1221 C1236 0.959 . S
H1222 C1236 0.961 . S
H1223 C1237 0.960 . S
H1224 C1237 0.961 . S
H1225 C1237 0.959 . S
H1226 C1240 0.929 . S
H1227 C1241 0.931 . S
H1228 C1243 0.930 . S
C1229 H1217 0.930 . S
C1229 C1230 1.399 . S
C1229 C1234 1.399 . S
C1230 C1229 1.399 . S
C1230 C1231 1.376 . S
C1231 H1218 0.930 . S
C1231 C1230 1.376 . S
C1231 C1232 1.388 . S
C1232 H1219 0.930 . S
C1232 C1231 1.388 . S
C1232 C1233 1.390 . S
C1233 C1232 1.390 . S
C1233 C1234 1.394 . S
C1233 C1239 1.465 . S
C1234 C1229 1.399 . S
C1234 C1233 1.394 . S
C1234 C1235 1.516 . S
C1235 C1234 1.516 . S
C1235 C1236 1.502 . S
C1235 C1237 1.561 . S
C1235 C1238 1.526 . S
C1236 H1220 0.959 . S
C1236 H1221 0.959 . S
C1236 H1222 0.961 . S
C1236 C1235 1.502 . S
C1237 H1223 0.960 . S
C1237 H1224 0.961 . S
C1237 H1225 0.959 . S
C1237 C1235 1.561 . S
C1238 C1235 1.526 . S
C1238 C1239 1.396 . S
C1238 C1243 1.390 . S
C1239 C1233 1.465 . S
C1239 C1238 1.396 . S
C1239 C1240 1.399 . S
C1240 H1226 0.929 . S
C1240 C1239 1.399 . S
C1240 C1241 1.385 . S
C1241 H1227 0.931 . S
C1241 C1240 1.385 . S
C1241 C1242 1.389 . S
C1242 C1241 1.389 . S
C1242 C1243 1.387 . S
C1243 H1228 0.930 . S
C1243 C1238 1.390 . S
C1243 C1242 1.387 . S
H1244 C1256 0.930 . S
H1245 C1258 0.930 . S
H1246 C1259 0.930 . S
H1247 C1263 0.959 . S
H1248 C1263 0.959 . S
H1249 C1263 0.961 . S
H1250 C1264 0.960 . S
H1251 C1264 0.961 . S
H1252 C1264 0.959 . S
H1253 C1267 0.929 . S
H1254 C1268 0.931 . S
H1255 C1270 0.930 . S
C1256 H1244 0.930 . S
C1256 C1257 1.399 . S
C1256 C1261 1.399 . S
C1257 C1256 1.399 . S
C1257 C1258 1.376 . S
C1258 H1245 0.930 . S
C1258 C1257 1.376 . S
C1258 C1259 1.388 . S
C1259 H1246 0.930 . S
C1259 C1258 1.388 . S
C1259 C1260 1.390 . S
C1260 C1259 1.390 . S
C1260 C1261 1.394 . S
C1260 C1266 1.465 . S
C1261 C1256 1.399 . S
C1261 C1260 1.394 . S
C1261 C1262 1.516 . S
C1262 C1261 1.516 . S
C1262 C1263 1.502 . S
C1262 C1264 1.561 . S
C1262 C1265 1.526 . S
C1263 H1247 0.959 . S
C1263 H1248 0.959 . S
C1263 H1249 0.961 . S
C1263 C1262 1.502 . S
C1264 H1250 0.960 . S
C1264 H1251 0.961 . S
C1264 H1252 0.959 . S
C1264 C1262 1.561 . S
C1265 C1262 1.526 . S
C1265 C1266 1.396 . S
C1265 C1270 1.390 . S
C1266 C1260 1.465 . S
C1266 C1265 1.396 . S
C1266 C1267 1.399 . S
C1267 H1253 0.929 . S
C1267 C1266 1.399 . S
C1267 C1268 1.385 . S
C1268 H1254 0.931 . S
C1268 C1267 1.385 . S
C1268 C1269 1.389 . S
C1269 C1268 1.389 . S
C1269 C1270 1.387 . S
C1270 H1255 0.930 . S
C1270 C1265 1.390 . S
C1270 C1269 1.387 . S
H1271 C1283 0.930 . S
H1272 C1285 0.930 . S
H1273 C1286 0.930 . S
H1274 C1290 0.959 . S
H1275 C1290 0.959 . S
H1276 C1290 0.961 . S
H1277 C1291 0.960 . S
H1278 C1291 0.961 . S
H1279 C1291 0.959 . S
H1280 C1294 0.929 . S
H1281 C1295 0.931 . S
H1282 C1297 0.930 . S
C1283 H1271 0.930 . S
C1283 C1284 1.399 . S
C1283 C1288 1.399 . S
C1284 C1283 1.399 . S
C1284 C1285 1.376 . S
C1285 H1272 0.930 . S
C1285 C1284 1.376 . S
C1285 C1286 1.388 . S
C1286 H1273 0.930 . S
C1286 C1285 1.388 . S
C1286 C1287 1.390 . S
C1287 C1286 1.390 . S
C1287 C1288 1.394 . S
C1287 C1293 1.465 . S
C1288 C1283 1.399 . S
C1288 C1287 1.394 . S
C1288 C1289 1.516 . S
C1289 C1288 1.516 . S
C1289 C1290 1.502 . S
C1289 C1291 1.561 . S
C1289 C1292 1.526 . S
C1290 H1274 0.959 . S
C1290 H1275 0.959 . S
C1290 H1276 0.961 . S
C1290 C1289 1.502 . S
C1291 H1277 0.960 . S
C1291 H1278 0.961 . S
C1291 H1279 0.959 . S
C1291 C1289 1.561 . S
C1292 C1289 1.526 . S
C1292 C1293 1.396 . S
C1292 C1297 1.390 . S
C1293 C1287 1.465 . S
C1293 C1292 1.396 . S
C1293 C1294 1.399 . S
C1294 H1280 0.929 . S
C1294 C1293 1.399 . S
C1294 C1295 1.385 . S
C1295 H1281 0.931 . S
C1295 C1294 1.385 . S
C1295 C1296 1.389 . S
C1296 C1295 1.389 . S
C1296 C1297 1.387 . S
C1297 H1282 0.930 . S
C1297 C1292 1.390 . S
C1297 C1296 1.387 . S
H1298 C1310 0.930 . S
H1299 C1312 0.930 . S
H1300 C1313 0.930 . S
H1301 C1317 0.959 . S
H1302 C1317 0.959 . S
H1303 C1317 0.961 . S
H1304 C1318 0.960 . S
H1305 C1318 0.961 . S
H1306 C1318 0.959 . S
H1307 C1321 0.929 . S
H1308 C1322 0.931 . S
H1309 C1324 0.930 . S
C1310 H1298 0.930 . S
C1310 C1311 1.399 . S
C1310 C1315 1.399 . S
C1311 C1310 1.399 . S
C1311 C1312 1.376 . S
C1312 H1299 0.930 . S
C1312 C1311 1.376 . S
C1312 C1313 1.388 . S
C1313 H1300 0.930 . S
C1313 C1312 1.388 . S
C1313 C1314 1.390 . S
C1314 C1313 1.390 . S
C1314 C1315 1.394 . S
C1314 C1320 1.465 . S
C1315 C1310 1.399 . S
C1315 C1314 1.394 . S
C1315 C1316 1.516 . S
C1316 C1315 1.516 . S
C1316 C1317 1.502 . S
C1316 C1318 1.561 . S
C1316 C1319 1.526 . S
C1317 H1301 0.959 . S
C1317 H1302 0.959 . S
C1317 H1303 0.961 . S
C1317 C1316 1.502 . S
C1318 H1304 0.960 . S
C1318 H1305 0.961 . S
C1318 H1306 0.959 . S
C1318 C1316 1.561 . S
C1319 C1316 1.526 . S
C1319 C1320 1.396 . S
C1319 C1324 1.390 . S
C1320 C1314 1.465 . S
C1320 C1319 1.396 . S
C1320 C1321 1.399 . S
C1321 H1307 0.929 . S
C1321 C1320 1.399 . S
C1321 C1322 1.385 . S
C1322 H1308 0.931 . S
C1322 C1321 1.385 . S
C1322 C1323 1.389 . S
C1323 C1322 1.389 . S
C1323 C1324 1.387 . S
C1324 H1309 0.930 . S
C1324 C1319 1.390 . S
C1324 C1323 1.387 . S
H1325 C1337 0.930 . S
H1326 C1339 0.930 . S
H1327 C1340 0.930 . S
H1328 C1344 0.959 . S
H1329 C1344 0.959 . S
H1330 C1344 0.961 . S
H1331 C1345 0.960 . S
H1332 C1345 0.961 . S
H1333 C1345 0.959 . S
H1334 C1348 0.929 . S
H1335 C1349 0.931 . S
H1336 C1351 0.930 . S
C1337 H1325 0.930 . S
C1337 C1338 1.399 . S
C1337 C1342 1.399 . S
C1338 C1337 1.399 . S
C1338 C1339 1.376 . S
C1339 H1326 0.930 . S
C1339 C1338 1.376 . S
C1339 C1340 1.388 . S
C1340 H1327 0.930 . S
C1340 C1339 1.388 . S
C1340 C1341 1.390 . S
C1341 C1340 1.390 . S
C1341 C1342 1.394 . S
C1341 C1347 1.465 . S
C1342 C1337 1.399 . S
C1342 C1341 1.394 . S
C1342 C1343 1.516 . S
C1343 C1342 1.516 . S
C1343 C1344 1.502 . S
C1343 C1345 1.561 . S
C1343 C1346 1.526 . S
C1344 H1328 0.959 . S
C1344 H1329 0.959 . S
C1344 H1330 0.961 . S
C1344 C1343 1.502 . S
C1345 H1331 0.960 . S
C1345 H1332 0.961 . S
C1345 H1333 0.959 . S
C1345 C1343 1.561 . S
C1346 C1343 1.526 . S
C1346 C1347 1.396 . S
C1346 C1351 1.390 . S
C1347 C1341 1.465 . S
C1347 C1346 1.396 . S
C1347 C1348 1.399 . S
C1348 H1334 0.929 . S
C1348 C1347 1.399 . S
C1348 C1349 1.385 . S
C1349 H1335 0.931 . S
C1349 C1348 1.385 . S
C1349 C1350 1.389 . S
C1350 C1349 1.389 . S
C1350 C1351 1.387 . S
C1351 H1336 0.930 . S
C1351 C1346 1.390 . S
C1351 C1350 1.387 . S
C513 C397 1.343 . S
C501 C36 1.393 . S
C540 C415 1.292 . S
C528 C93 1.373 . S
C567 C423 1.339 . S
C555 C126 1.351 . S
C582 C165 1.403 . S
C594 C389 1.362 . S
C609 C222 1.362 . S
C621 C384 1.385 . S
C636 C261 1.329 . S
C648 C402 1.325 . S
C675 C410 1.330 . S
C663 C318 1.353 . S
C702 C428 1.358 . S
C690 C381 1.405 . S
C717 C132 1.342 . S
C729 C449 1.353 . S
C756 C467 1.373 . S
C744 C189 1.396 . S
C771 C30 1.349 . S
C783 C475 1.364 . S
C810 C441 1.375 . S
C798 C69 1.394 . S
C825 C324 1.344 . S
C837 C436 1.351 . S
C852 C357 1.404 . S
C864 C454 1.310 . S
C891 C462 1.349 . S
C879 C228 1.343 . S
C906 C285 1.393 . S
C918 C480 1.375 . S
C945 C418 1.545 . S
C933 C45 1.523 . S
C972 C433 1.503 . S
C960 C84 1.514 . S
C987 C117 1.543 . S
C999 C392 1.548 . S
C1014 C174 1.490 . S
C1026 C407 1.536 . S
C1041 C213 1.544 . S
C1053 C431 1.549 . S
C1080 C394 1.483 . S
C1068 C270 1.530 . S
C1107 C405 1.544 . S
C1095 C309 1.532 . S
C1134 C420 1.489 . S
C1122 C372 1.516 . S
C1161 C470 1.534 . S
C1149 C141 1.533 . S
C1188 C485 1.497 . S
C1176 C180 1.515 . S
C1203 C21 1.542 . S
C1215 C444 1.545 . S
C1242 C459 1.516 . S
C1230 C78 1.526 . S
C1269 C483 1.548 . S
C1257 C333 1.535 . S
C1284 C366 1.516 . S
C1296 C446 1.527 . S
C1323 C457 1.540 . S
C1311 C237 1.543 . S
C1350 C472 1.474 . S
C1338 C276 1.529 . S
