# Generated by pormake.
# Topology cml, (3,6)-cn, num edge types: 1
# Building blocks:
#     Node 0, Type 0, BuildingBlock: QEWDON_clean_linker_0, # of connection points: 3
#     Node 1, Type 0, BuildingBlock: QEWDON_clean_linker_0, # of connection points: 3
#     Node 2, Type 0, BuildingBlock: QEWDON_clean_linker_0, # of connection points: 3
#     Node 3, Type 0, BuildingBlock: QEWDON_clean_linker_0, # of connection points: 3
#     Node 4, Type 0, BuildingBlock: QEWDON_clean_linker_0, # of connection points: 3
#     Node 5, Type 0, BuildingBlock: QEWDON_clean_linker_0, # of connection points: 3
#     Node 6, Type 0, BuildingBlock: QEWDON_clean_linker_0, # of connection points: 3
#     Node 7, Type 0, BuildingBlock: QEWDON_clean_linker_0, # of connection points: 3
#     Node 8, Type 1, BuildingBlock: IZENUY_clean_sbu_0, # of connection points: 6
#     Node 9, Type 1, BuildingBlock: IZENUY_clean_sbu_0, # of connection points: 6
#     Node 10, Type 1, BuildingBlock: IZENUY_clean_sbu_0, # of connection points: 6
#     Node 11, Type 1, BuildingBlock: IZENUY_clean_sbu_0, # of connection points: 6
#     Edge 12, Type (0, 1), BuildingBlock: CIFDUS_clean_linker_0, # of connection points: 2
#     Edge 13, Type (0, 1), BuildingBlock: CIFDUS_clean_linker_0, # of connection points: 2
#     Edge 14, Type (0, 1), BuildingBlock: CIFDUS_clean_linker_0, # of connection points: 2
#     Edge 15, Type (0, 1), BuildingBlock: CIFDUS_clean_linker_0, # of connection points: 2
#     Edge 16, Type (0, 1), BuildingBlock: CIFDUS_clean_linker_0, # of connection points: 2
#     Edge 17, Type (0, 1), BuildingBlock: CIFDUS_clean_linker_0, # of connection points: 2
#     Edge 18, Type (0, 1), BuildingBlock: CIFDUS_clean_linker_0, # of connection points: 2
#     Edge 19, Type (0, 1), BuildingBlock: CIFDUS_clean_linker_0, # of connection points: 2
#     Edge 20, Type (0, 1), BuildingBlock: CIFDUS_clean_linker_0, # of connection points: 2
#     Edge 21, Type (0, 1), BuildingBlock: CIFDUS_clean_linker_0, # of connection points: 2
#     Edge 22, Type (0, 1), BuildingBlock: CIFDUS_clean_linker_0, # of connection points: 2
#     Edge 23, Type (0, 1), BuildingBlock: CIFDUS_clean_linker_0, # of connection points: 2
#     Edge 24, Type (0, 1), BuildingBlock: CIFDUS_clean_linker_0, # of connection points: 2
#     Edge 25, Type (0, 1), BuildingBlock: CIFDUS_clean_linker_0, # of connection points: 2
#     Edge 26, Type (0, 1), BuildingBlock: CIFDUS_clean_linker_0, # of connection points: 2
#     Edge 27, Type (0, 1), BuildingBlock: CIFDUS_clean_linker_0, # of connection points: 2
#     Edge 28, Type (0, 1), BuildingBlock: CIFDUS_clean_linker_0, # of connection points: 2
#     Edge 29, Type (0, 1), BuildingBlock: CIFDUS_clean_linker_0, # of connection points: 2
#     Edge 30, Type (0, 1), BuildingBlock: CIFDUS_clean_linker_0, # of connection points: 2
#     Edge 31, Type (0, 1), BuildingBlock: CIFDUS_clean_linker_0, # of connection points: 2
#     Edge 32, Type (0, 1), BuildingBlock: CIFDUS_clean_linker_0, # of connection points: 2
#     Edge 33, Type (0, 1), BuildingBlock: CIFDUS_clean_linker_0, # of connection points: 2
#     Edge 34, Type (0, 1), BuildingBlock: CIFDUS_clean_linker_0, # of connection points: 2
#     Edge 35, Type (0, 1), BuildingBlock: CIFDUS_clean_linker_0, # of connection points: 2
# Relax obj value: 0.011
# Max RMSD: 0.126
# Mean RMSD: 0.093
data_MOF--net-cml--node1-IZENUY_clean_sbu_0--node2-QEWDON_clean_linker_0--edge1-CIFDUS_clean_linker_0
_symmetry_space_group_name_H-M    P1
_symmetry_Int_Tables_number       1
_symmetry_cell_setting            triclinic
loop_
_symmetry_equiv_pos_as_xyz
'x, y, z'
_cell_length_a     34.533299
_cell_length_b     37.12587
_cell_length_c     32.183948
_cell_angle_alpha  90.743622
_cell_angle_beta   89.884239
_cell_angle_gamma 90.032902
loop_
_atom_site_label
_atom_site_type_symbol
_atom_site_fract_x
_atom_site_fract_y
_atom_site_fract_z
_atom_type_partial_charge
H0 H 0.28449 0.43497 0.96704 0.0
C1 C 0.2991 0.42517 0.99446 0.0
C2 C 0.3356 0.43901 1.00532 0.0
C3 C 0.2802 0.40057 0.02039 0.0
H4 H 0.38162 0.43807 0.05028 0.0
C5 C 0.35332 0.42754 0.04204 0.0
C6 C 0.33495 0.40274 0.06823 0.0
C7 C 0.29839 0.38911 0.05698 0.0
C8 C 0.23878 0.39267 0.01368 0.0
H9 H 0.28312 0.37125 0.07778 0.0
C10 C 0.22618 0.36208 0.99106 0.0
C11 C 0.1862 0.35515 0.98676 0.0
C12 C 0.21143 0.41642 0.03104 0.0
H13 H 0.22071 0.44008 0.04841 0.0
C14 C 0.17196 0.40978 0.02641 0.0
H15 H 0.24718 0.34355 0.97774 0.0
C16 C 0.15938 0.3793 1.00461 0.0
H17 H 0.12854 0.37457 1.00156 0.0
H18 H 0.15105 0.42821 0.03996 0.0
H19 H 0.73662 0.59281 0.46785 0.0
C20 C 0.72069 0.60272 0.49474 0.0
C21 C 0.68386 0.58878 0.50333 0.0
C22 C 0.73807 0.6278 0.52189 0.0
H23 H 0.63598 0.58917 0.5463 0.0
C24 C 0.66429 0.60027 0.5394 0.0
C25 C 0.68095 0.62595 0.56658 0.0
C26 C 0.7178 0.63999 0.55729 0.0
C27 C 0.77962 0.63612 0.51679 0.0
H28 H 0.73171 0.65848 0.57892 0.0
C29 C 0.7926 0.67042 0.50472 0.0
C30 C 0.83252 0.67677 0.4995 0.0
C31 C 0.80667 0.60861 0.52364 0.0
H32 H 0.79715 0.58206 0.53288 0.0
C33 C 0.84617 0.6151 0.51887 0.0
H34 H 0.77192 0.69174 0.49907 0.0
C35 C 0.85908 0.64898 0.50688 0.0
H36 H 0.88988 0.65351 0.50305 0.0
H37 H 0.86683 0.59377 0.52434 0.0
H38 H 0.68294 0.40982 0.94719 0.0
C39 C 0.68637 0.40731 0.98047 0.0
C40 C 0.67308 0.43501 1.00707 0.0
C41 C 0.70197 0.37524 0.99647 0.0
H42 H 0.66739 0.45191 0.07106 0.0
C43 C 0.67738 0.4308 0.05012 0.0
C44 C 0.69076 0.3984 0.06687 0.0
C45 C 0.70372 0.37082 0.03982 0.0
C46 C 0.71187 0.34501 0.96755 0.0
H47 H 0.71318 0.34536 0.05239 0.0
C48 C 0.74776 0.32683 0.96961 0.0
C49 C 0.75724 0.30007 0.93971 0.0
C50 C 0.68521 0.33492 0.93653 0.0
H51 H 0.6572 0.34794 0.93466 0.0
C52 C 0.69425 0.30797 0.9076 0.0
H53 H 0.7687 0.33443 0.99319 0.0
C54 C 0.7301 0.29087 0.9089 0.0
H55 H 0.73664 0.27022 0.88584 0.0
H56 H 0.67349 0.30051 0.88385 0.0
H57 H 0.32818 0.60824 0.44769 0.0
C58 C 0.33297 0.61417 0.48034 0.0
C59 C 0.35304 0.58946 0.50496 0.0
C60 C 0.32034 0.64735 0.49682 0.0
H61 H 0.37624 0.58004 0.56589 0.0
C62 C 0.35883 0.59785 0.54719 0.0
C63 C 0.34545 0.6305 0.56469 0.0
C64 C 0.32585 0.65509 0.53922 0.0
C65 C 0.30644 0.67541 0.4681 0.0
H66 H 0.31666 0.68093 0.55178 0.0
C67 C 0.27071 0.69309 0.4741 0.0
C68 C 0.25757 0.71787 0.4445 0.0
C69 C 0.32931 0.6839 0.43335 0.0
H70 H 0.35711 0.671 0.42839 0.0
C71 C 0.31665 0.70904 0.40467 0.0
H72 H 0.25266 0.68658 0.50055 0.0
C73 C 0.28086 0.72573 0.40996 0.0
H74 H 0.2712 0.74479 0.38697 0.0
H75 H 0.33445 0.71532 0.378 0.0
H76 H 0.79819 0.91911 0.97181 0.0
C77 C 0.81203 0.91127 1.00053 0.0
C78 C 0.85023 0.92212 0.00875 0.0
C79 C 0.79121 0.8911 0.02973 0.0
H80 H 0.89633 0.92226 0.05382 0.0
C81 C 0.86721 0.91311 0.0468 0.0
C82 C 0.84653 0.89358 0.07659 0.0
C83 C 0.80864 0.88205 0.06763 0.0
C84 C 0.74948 0.88472 0.02315 0.0
H85 H 0.79208 0.86779 0.09087 0.0
C86 C 0.73556 0.85248 1.00499 0.0
C87 C 0.69576 0.84861 0.99628 0.0
C88 C 0.72346 0.91245 0.03338 0.0
H89 H 0.73379 0.93742 0.04723 0.0
C90 C 0.68405 0.90842 0.02536 0.0
H91 H 0.75561 0.83112 0.99664 0.0
C92 C 0.67027 0.87685 1.00671 0.0
H93 H 0.63955 0.87438 1.00049 0.0
H94 H 0.66416 0.92998 0.03325 0.0
H95 H 0.24485 0.09818 0.4765 0.0
C96 C 0.22883 0.10572 0.50428 0.0
C97 C 0.19331 0.08878 0.51311 0.0
C98 C 0.24513 0.13025 0.53299 0.0
H99 H 0.14645 0.0846 0.55747 0.0
C100 C 0.17384 0.09746 0.55039 0.0
C101 C 0.18927 0.12274 0.57857 0.0
C102 C 0.22483 0.13911 0.56963 0.0
C103 C 0.28568 0.1425 0.52846 0.0
H104 H 0.23758 0.15763 0.59207 0.0
C105 C 0.29734 0.16568 0.49638 0.0
C106 C 0.33582 0.17831 0.49501 0.0
C107 C 0.3129 0.1315 0.5581 0.0
H108 H 0.30449 0.11361 0.58289 0.0
C109 C 0.35109 0.14347 0.55614 0.0
H110 H 0.27649 0.17467 0.47363 0.0
C111 C 0.36247 0.16691 0.52496 0.0
H112 H 0.39215 0.1764 0.5243 0.0
H113 H 0.37183 0.13486 0.57914 0.0
H114 H 0.19449 0.8956 0.95718 0.0
C115 C 0.19443 0.89754 0.99078 0.0
C116 C 0.17976 0.92859 0.01108 0.0
C117 C 0.20605 0.86736 0.01352 0.0
H118 H 0.16761 0.95262 0.07107 0.0
C119 C 0.1783 0.92897 0.05487 0.0
C120 C 0.18763 0.89832 0.07807 0.0
C121 C 0.20218 0.86775 0.05699 0.0
C122 C 0.21462 0.83306 0.99144 0.0
H123 H 0.20918 0.84368 0.07411 0.0
C124 C 0.25081 0.82631 0.97238 0.0
C125 C 0.25702 0.7938 0.95007 0.0
C126 C 0.18521 0.80706 0.98852 0.0
H127 H 0.15727 0.81182 1.00296 0.0
C128 C 0.19133 0.77501 0.96648 0.0
H129 H 0.2737 0.84622 0.97458 0.0
C130 C 0.22687 0.76845 0.94721 0.0
H131 H 0.23104 0.74325 0.93044 0.0
H132 H 0.16841 0.75519 0.96425 0.0
H133 H 0.83524 0.1362 0.44199 0.0
C134 C 0.84107 0.13832 0.47502 0.0
C135 C 0.86243 0.11131 0.49471 0.0
C136 C 0.82862 0.16899 0.49717 0.0
H137 H 0.88952 0.09562 0.55167 0.0
C138 C 0.87095 0.1153 0.53717 0.0
C139 C 0.85879 0.14593 0.56002 0.0
C140 C 0.83702 0.17251 0.53968 0.0
C141 C 0.81316 0.19982 0.47398 0.0
H142 H 0.82809 0.1967 0.55627 0.0
C143 C 0.77347 0.20855 0.4744 0.0
C144 C 0.75964 0.23643 0.44913 0.0
C145 C 0.83879 0.21968 0.44927 0.0
H146 H 0.86939 0.21323 0.4486 0.0
C147 C 0.82517 0.24773 0.42497 0.0
H148 H 0.75344 0.19303 0.49298 0.0
C149 C 0.7858 0.25593 0.42463 0.0
H150 H 0.77565 0.27748 0.40505 0.0
H151 H 0.8451 0.26287 0.40594 0.0
Fe152 Fe 0.01198 0.84072 0.33078 0.0
Fe153 Fe 0.01516 0.87663 0.41704 0.0
O154 O 0.01714 0.88021 0.36207 0.0
Fe155 Fe 0.02415 0.92295 0.33892 0.0
O156 O 0.9797 0.91905 0.30911 0.0
O157 O 0.98687 0.86289 0.28807 0.0
O158 O 0.9646 0.83098 0.35256 0.0
C159 C 0.95832 0.82623 0.39067 0.0
C160 C 0.06962 0.8754 0.28806 0.0
O161 O 0.98211 0.83787 0.41748 0.0
C162 C 0.07243 0.93061 0.40583 0.0
O163 O 0.03666 0.81128 0.36773 0.0
O164 O 0.05763 0.84774 0.41712 0.0
O165 O 0.05345 0.90553 0.29522 0.0
O166 O 0.05865 0.84728 0.30626 0.0
C167 C 0.97151 0.93717 0.40564 0.0
O168 O 0.04754 0.91457 0.42768 0.0
O169 O 0.06933 0.93107 0.36679 0.0
C170 C 0.06064 0.8188 0.39633 0.0
O171 O 0.97292 0.90567 0.42007 0.0
O172 O 0.99576 0.94749 0.37855 0.0
C173 C 0.9705 0.8932 0.28528 0.0
Fe174 Fe 0.99949 0.13982 0.91285 0.0
Fe175 Fe 0.01224 0.09395 0.83354 0.0
O176 O 1.00834 0.13677 0.85847 0.0
Fe177 Fe 0.01324 0.17695 0.8292 0.0
O178 O 0.05481 0.19177 0.86011 0.0
O179 O 0.02702 0.18153 0.92024 0.0
O180 O 0.04345 0.11532 0.92477 0.0
C181 C 0.05254 0.08483 0.90985 0.0
C182 C 0.95208 0.1934 0.88529 0.0
O183 O 0.03655 0.07234 0.87734 0.0
C184 C 0.96804 0.13552 0.77708 0.0
O185 O 0.97065 0.09859 0.91584 0.0
O186 O 0.96477 0.07968 0.85127 0.0
O187 O 0.97918 0.20335 0.8614 0.0
O188 O 0.9546 0.16432 0.90496 0.0
C189 C 0.0679 0.12984 0.78994 0.0
O190 O 0.98845 0.10824 0.78562 0.0
O191 O 0.97225 0.16506 0.79647 0.0
C192 C 0.95357 0.0799 0.88849 0.0
O193 O 0.06 0.10395 0.81337 0.0
O194 O 0.0474 0.15808 0.79074 0.0
C195 C 0.05384 0.19578 0.89919 0.0
Fe196 Fe 0.50788 0.33792 0.31481 0.0
Fe197 Fe 0.51753 0.37686 0.39948 0.0
O198 O 0.51698 0.37787 0.34437 0.0
Fe199 Fe 0.52583 0.41878 0.31805 0.0
O200 O 0.49475 0.40742 0.27372 0.0
O201 O 0.46501 0.35738 0.2908 0.0
O202 O 0.47589 0.31672 0.35325 0.0
C203 C 0.458 0.3294 0.38447 0.0
C204 C 0.56742 0.37224 0.26928 0.0
O205 O 0.46931 0.358 0.40189 0.0
C206 C 0.57546 0.42603 0.38836 0.0
O207 O 0.55004 0.31647 0.33628 0.0
O208 O 0.54115 0.3323 0.40193 0.0
O209 O 0.56855 0.39998 0.29247 0.0
O210 O 0.53878 0.35093 0.27099 0.0
C211 C 0.47708 0.44166 0.38038 0.0
O212 O 0.56578 0.39603 0.40286 0.0
O213 O 0.55769 0.43877 0.35762 0.0
C214 C 0.5588 0.31396 0.37418 0.0
O215 O 0.49424 0.42124 0.40581 0.0
O216 O 0.48399 0.43991 0.34185 0.0
C217 C 0.46607 0.38629 0.27048 0.0
Fe218 Fe 0.51207 0.65208 0.90677 0.0
Fe219 Fe 0.50422 0.60271 0.82978 0.0
O220 O 0.50751 0.64648 0.85209 0.0
Fe221 Fe 0.50594 0.68472 0.81956 0.0
O222 O 0.53738 0.71264 0.85268 0.0
O223 O 0.55751 0.67657 0.90161 0.0
O224 O 0.54074 0.61095 0.91389 0.0
C225 C 0.55956 0.5911 0.88868 0.0
C226 C 0.45922 0.70691 0.88434 0.0
O227 O 0.55101 0.58993 0.85062 0.0
C228 C 0.45109 0.63755 0.78216 0.0
O229 O 0.46709 0.62804 0.91654 0.0
O230 O 0.47842 0.58276 0.87362 0.0
O231 O 0.46244 0.70129 0.84564 0.0
O232 O 0.48375 0.69404 0.90936 0.0
C233 C 0.55251 0.63977 0.77323 0.0
O234 O 0.45719 0.61226 0.80714 0.0
O235 O 0.4741 0.66403 0.7805 0.0
C236 C 0.45964 0.59654 0.90361 0.0
O237 O 0.52946 0.61444 0.78193 0.0
O238 O 0.54927 0.67031 0.7909 0.0
C239 C 0.56141 0.705 0.8809 0.0
H240 H 0.14114 0.30372 0.01919 0.0
H241 H 0.19703 0.33452 0.90541 0.0
H242 H 0.16257 0.28628 0.86755 0.0
H243 H 0.11162 0.23868 0.86637 0.0
H244 H 0.0572 0.20915 0.98215 0.0
H245 H 0.09593 0.25328 0.01938 0.0
C246 C 0.14618 0.29944 0.98619 0.0
C247 C 0.17131 0.32256 0.96499 0.0
C248 C 0.12611 0.2721 0.96485 0.0
C249 C 0.17789 0.3168 0.92234 0.0
C250 C 0.15795 0.28945 0.9007 0.0
C251 C 0.10852 0.2417 0.89976 0.0
C252 C 0.08086 0.22085 0.92109 0.0
C253 C 0.13119 0.26743 0.92149 0.0
C254 C 0.07767 0.22499 0.96454 0.0
C255 C 0.09992 0.25027 0.9861 0.0
H256 H 0.83844 0.7008 0.42083 0.0
H257 H 0.86284 0.7295 0.54813 0.0
H258 H 0.90121 0.78122 0.52549 0.0
H259 H 0.9339 0.81354 0.46949 0.0
H260 H 0.91158 0.78364 0.34169 0.0
H261 H 0.866 0.73749 0.36434 0.0
C262 C 0.8513 0.71911 0.44343 0.0
C263 C 0.84766 0.71189 0.48599 0.0
C264 C 0.87414 0.74817 0.43006 0.0
C265 C 0.86499 0.73507 0.51524 0.0
C266 C 0.88714 0.76437 0.50227 0.0
C267 C 0.91876 0.79723 0.44651 0.0
C268 C 0.92671 0.80174 0.40395 0.0
C269 C 0.89292 0.77047 0.45975 0.0
C270 C 0.90633 0.78065 0.37465 0.0
C271 C 0.88029 0.75414 0.38758 0.0
H272 H 0.80863 0.29834 0.87655 0.0
H273 H 0.79082 0.26044 1.00102 0.0
H274 H 0.8498 0.22365 0.99558 0.0
H275 H 0.9046 0.1998 0.9534 0.0
H276 H 0.92296 0.24054 0.82993 0.0
H277 H 0.86564 0.27852 0.83684 0.0
C278 C 0.818 0.2823 0.90262 0.0
C279 C 0.7955 0.28189 0.93906 0.0
C280 C 0.85181 0.26147 0.89923 0.0
C281 C 0.8079 0.26127 0.97277 0.0
C282 C 0.84141 0.24007 0.96951 0.0
C283 C 0.89603 0.21707 0.92811 0.0
C284 C 0.91789 0.21713 0.89106 0.0
C285 C 0.86327 0.23948 0.93258 0.0
C286 C 0.90673 0.24001 0.85876 0.0
C287 C 0.8739 0.26172 0.86265 0.0
H288 H 0.19799 0.70742 0.3925 0.0
H289 H 0.2318 0.76688 0.50225 0.0
H290 H 0.17196 0.80257 0.49893 0.0
H291 H 0.1131 0.82036 0.46035 0.0
H292 H 0.08028 0.75948 0.35059 0.0
H293 H 0.1364 0.72075 0.35853 0.0
C294 C 0.19175 0.72776 0.4161 0.0
C295 C 0.21893 0.73473 0.4475 0.0
C296 C 0.15769 0.74813 0.4137 0.0
C297 C 0.21093 0.76104 0.47799 0.0
C298 C 0.17694 0.78156 0.47585 0.0
C299 C 0.11799 0.79836 0.43848 0.0
C300 C 0.09257 0.79316 0.4047 0.0
C301 C 0.15055 0.77594 0.44318 0.0
C302 C 0.09927 0.7643 0.37683 0.0
C303 C 0.13148 0.74209 0.38124 0.0
H304 H 0.65636 0.84543 0.92425 0.0
H305 H 0.69902 0.7789 0.02268 0.0
H306 H 0.66327 0.72701 0.99404 0.0
H307 H 0.61463 0.70253 0.94449 0.0
H308 H 0.57338 0.7704 0.84588 0.0
H309 H 0.61397 0.81948 0.87086 0.0
C310 C 0.65824 0.81936 0.939 0.0
C311 C 0.67995 0.81589 0.97557 0.0
C312 C 0.63755 0.78996 0.92252 0.0
C313 C 0.68253 0.78206 0.99436 0.0
C314 C 0.66188 0.75252 0.97815 0.0
C315 C 0.61487 0.7279 0.92817 0.0
C316 C 0.59032 0.73275 0.89368 0.0
C317 C 0.63847 0.7564 0.94277 0.0
C318 C 0.59147 0.7658 0.87275 0.0
C319 C 0.61471 0.79405 0.88701 0.0
H320 H 0.34569 0.24944 0.50703 0.0
H321 H 0.35787 0.16504 0.41505 0.0
H322 H 0.39416 0.20588 0.36985 0.0
H323 H 0.42916 0.26336 0.36095 0.0
H324 H 0.41711 0.3472 0.45444 0.0
H325 H 0.37377 0.30911 0.49423 0.0
C326 C 0.35538 0.24046 0.47652 0.0
C327 C 0.34902 0.20461 0.464 0.0
C328 C 0.37676 0.26384 0.45129 0.0
C329 C 0.36211 0.19279 0.42486 0.0
C330 C 0.38314 0.21602 0.39929 0.0
C331 C 0.4166 0.27353 0.38969 0.0
C332 C 0.42708 0.30797 0.40488 0.0
C333 C 0.39172 0.25129 0.4128 0.0
C334 C 0.4101 0.32072 0.44207 0.0
C335 C 0.38524 0.29892 0.46499 0.0
H336 H 0.32721 0.78629 0.98708 0.0
H337 H 0.27026 0.77989 0.8683 0.0
H338 H 0.32905 0.75519 0.83631 0.0
H339 H 0.39454 0.72997 0.84357 0.0
H340 H 0.4503 0.73332 0.96348 0.0
H341 H 0.39452 0.76455 0.99336 0.0
C342 C 0.32812 0.78025 0.95403 0.0
C343 C 0.29465 0.78508 0.92997 0.0
C344 C 0.3617 0.76496 0.93613 0.0
C345 C 0.29582 0.77652 0.88732 0.0
C346 C 0.32934 0.76221 0.8691 0.0
C347 C 0.39475 0.73795 0.8761 0.0
C348 C 0.42665 0.72904 0.90115 0.0
C349 C 0.36216 0.75544 0.8934 0.0
C350 C 0.42616 0.73954 0.94337 0.0
C351 C 0.3942 0.75747 0.96058 0.0
H352 H 0.71417 0.22641 0.38252 0.0
H353 H 0.71288 0.26685 0.50842 0.0
H354 H 0.64776 0.29182 0.49795 0.0
H355 H 0.59482 0.30808 0.44983 0.0
H356 H 0.5978 0.26714 0.32354 0.0
H357 H 0.65821 0.23611 0.33744 0.0
C358 C 0.69913 0.24 0.40786 0.0
C359 C 0.71795 0.24493 0.44609 0.0
C360 C 0.66217 0.2545 0.40138 0.0
C361 C 0.69858 0.26262 0.47883 0.0
C362 C 0.66156 0.27708 0.47269 0.0
C363 C 0.60828 0.29181 0.4256 0.0
C364 C 0.59186 0.29046 0.38552 0.0
C365 C 0.64353 0.2741 0.43365 0.0
C366 C 0.6098 0.2691 0.35456 0.0
C367 C 0.64449 0.2513 0.36241 0.0
H368 H 0.36317 0.5041 0.03067 0.0
H369 H 0.35067 0.43581 0.92219 0.0
H370 H 0.3863 0.47959 0.88047 0.0
H371 H 0.42401 0.53563 0.87597 0.0
H372 H 0.43486 0.6049 0.98405 0.0
H373 H 0.39651 0.5626 0.02476 0.0
C374 C 0.36821 0.49895 0.99784 0.0
C375 C 0.35477 0.46667 0.97952 0.0
C376 C 0.38835 0.52438 0.97408 0.0
C377 C 0.36081 0.46048 0.93688 0.0
C378 C 0.38125 0.48543 0.91312 0.0
C379 C 0.41774 0.54162 0.90837 0.0
C380 C 0.43261 0.57325 0.92702 0.0
C381 C 0.39559 0.51724 0.93153 0.0
C382 C 0.42378 0.58081 0.96888 0.0
C383 C 0.40202 0.55653 0.99225 0.0
H384 H 0.66285 0.52069 0.52297 0.0
H385 H 0.66708 0.59486 0.42125 0.0
H386 H 0.63663 0.54992 0.37536 0.0
H387 H 0.6057 0.49072 0.36542 0.0
H388 H 0.60367 0.41565 0.46678 0.0
H389 H 0.6371 0.45935 0.51119 0.0
C390 C 0.65709 0.52684 0.49071 0.0
C391 C 0.6666 0.56105 0.47548 0.0
C392 C 0.64026 0.50065 0.46441 0.0
C393 C 0.65973 0.56869 0.43354 0.0
C394 C 0.64239 0.54302 0.40737 0.0
C395 C 0.61303 0.48367 0.39704 0.0
C396 C 0.6018 0.44995 0.4127 0.0
C397 C 0.63216 0.50903 0.42258 0.0
C398 C 0.61188 0.44131 0.45374 0.0
C399 C 0.63078 0.46642 0.47935 0.0
H400 H 0.68259 0.47139 0.93331 0.0
H401 H 0.61047 0.46811 0.04328 0.0
H402 H 0.57261 0.51799 0.01821 0.0
H403 H 0.55709 0.56076 0.96418 0.0
H404 H 0.62251 0.5604 0.84996 0.0
H405 H 0.66518 0.51342 0.87721 0.0
C406 C 0.65851 0.48139 0.95176 0.0
C407 C 0.65042 0.46617 0.99081 0.0
C408 C 0.63531 0.50942 0.93627 0.0
C409 C 0.61886 0.47984 0.014 0.0
C410 C 0.5966 0.50824 0.99943 0.0
C411 C 0.58099 0.55075 0.94539 0.0
C412 C 0.58694 0.56429 0.90534 0.0
C413 C 0.60441 0.5231 0.96062 0.0
C414 C 0.61747 0.55044 0.88101 0.0
C415 C 0.6418 0.52359 0.89656 0.0
H416 H 0.38641 0.58317 0.42823 0.0
H417 H 0.36213 0.52229 0.53876 0.0
H418 H 0.39822 0.47118 0.51003 0.0
H419 H 0.43873 0.44452 0.4544 0.0
H420 H 0.45883 0.50453 0.34239 0.0
H421 H 0.42125 0.55483 0.3705 0.0
C422 C 0.38801 0.55851 0.44579 0.0
C423 C 0.37156 0.55689 0.48583 0.0
C424 C 0.40815 0.52898 0.42882 0.0
C425 C 0.375 0.52471 0.50822 0.0
C426 C 0.39549 0.49533 0.49172 0.0
C427 C 0.43471 0.46857 0.43612 0.0
C428 C 0.45186 0.47087 0.39653 0.0
C429 C 0.41264 0.49734 0.45227 0.0
C430 C 0.44596 0.502 0.37294 0.0
C431 C 0.42457 0.53086 0.38904 0.0
H432 H 0.82652 0.98454 0.97358 0.0
H433 H 0.92313 0.91127 0.97916 0.0
H434 H 0.96252 0.95244 0.93805 0.0
H435 H 0.97133 1.01171 0.90616 0.0
H436 H 0.87657 0.08692 0.90432 0.0
H437 H 0.83424 0.0426 0.93777 0.0
C438 C 0.85593 0.97735 0.96499 0.0
C439 C 0.87198 0.94499 0.97931 0.0
C440 C 0.87868 1.00159 0.94219 0.0
C441 C 0.91031 0.93615 0.9686 0.0
C442 C 0.9328 0.95966 0.94515 0.0
C443 C 0.94113 0.01791 0.91234 0.0
C444 C 0.92662 0.05201 0.90248 0.0
C445 C 0.91757 0.99277 0.93258 0.0
C446 C 0.8879 0.06047 0.9113 0.0
C447 C 0.8639 0.03526 0.93058 0.0
H448 H 0.16915 0.02226 0.53409 0.0
H449 H 0.18133 0.09205 0.42898 0.0
H450 H 0.14837 0.04741 0.38451 0.0
H451 H 0.11062 0.99062 0.3775 0.0
H452 H 0.09883 0.92208 0.48415 0.0
H453 H 0.1373 0.96386 0.52577 0.0
C454 C 0.16472 0.02761 0.50137 0.0
C455 C 0.17708 0.06056 0.48494 0.0
C456 C 0.14572 1.00201 0.47626 0.0
C457 C 0.17194 0.06687 0.44234 0.0
C458 C 0.15298 0.04141 0.41699 0.0
C459 C 0.11715 0.98454 0.40959 0.0
C460 C 0.10145 0.95339 0.42775 0.0
C461 C 0.13901 1.00913 0.43381 0.0
C462 C 0.11013 0.946 0.46947 0.0
C463 C 0.1321 0.96993 0.4934 0.0
H464 H 0.12005 0.9736 0.03453 0.0
H465 H 0.1987 0.9525 0.93225 0.0
H466 H 0.16619 0.99847 0.89169 0.0
H467 H 0.11396 0.04404 0.88465 0.0
H468 H 0.04275 0.07002 0.99102 0.0
H469 H 0.07533 0.02375 0.03138 0.0
C470 C 0.13152 0.97953 1.00406 0.0
C471 C 0.16224 0.95897 0.98699 0.0
C472 C 0.11403 1.00723 0.98157 0.0
C473 C 0.17474 0.96691 0.94637 0.0
C474 C 0.15636 0.99358 0.92312 0.0
C475 C 0.10614 0.0398 0.91688 0.0
C476 C 0.07611 0.06027 0.935 0.0
C477 C 0.12574 0.01372 0.94029 0.0
C478 C 0.06608 0.05478 0.97669 0.0
C479 C 0.0845 0.02817 0.99962 0.0
H480 H 0.86633 0.0403 0.51549 0.0
H481 H 0.89822 0.11458 0.41919 0.0
H482 H 0.93213 0.06657 0.38173 0.0
H483 H 0.95679 1.00484 0.37872 0.0
H484 H 0.9263 0.93032 0.47536 0.0
H485 H 0.88782 0.97703 0.51014 0.0
C486 C 0.88057 0.04589 0.48621 0.0
C487 C 0.87972 0.08103 0.47025 0.0
C488 C 0.9005 0.01819 0.46498 0.0
C489 C 0.89794 0.08774 0.43199 0.0
C490 C 0.91764 0.06035 0.41068 0.0
C491 C 0.94155 0.99865 0.40726 0.0
C492 C 0.94487 0.96416 0.42458 0.0
C493 C 0.91968 0.02566 0.42723 0.0
C494 C 0.92446 0.95662 0.46133 0.0
C495 C 0.90251 0.98338 0.48135 0.0
H496 H 0.36692 0.4483 0.12462 0.0
H497 H 0.34382 0.33566 0.1021 0.0
H498 H 0.37924 0.32021 0.16549 0.0
H499 H 0.42173 0.33888 0.22435 0.0
H500 H 0.44531 0.45202 0.24394 0.0
H501 H 0.40477 0.46706 0.18492 0.0
C502 C 0.36964 0.42033 0.13356 0.0
C503 C 0.35334 0.39313 0.10837 0.0
C504 C 0.39026 0.41174 0.16958 0.0
C505 C 0.35623 0.3571 0.12095 0.0
C506 C 0.37661 0.34827 0.15709 0.0
C507 C 0.41739 0.3668 0.21604 0.0
C508 C 0.43681 0.39427 0.2383 0.0
C509 C 0.39441 0.37535 0.1813 0.0
C510 C 0.43105 0.43034 0.22705 0.0
C511 C 0.40789 0.43901 0.19327 0.0
H512 H 0.65139 0.58034 0.62288 0.0
H513 H 0.66632 0.6934 0.59921 0.0
H514 H 0.62999 0.70856 0.66282 0.0
H515 H 0.59038 0.68897 0.72345 0.0
H516 H 0.57757 0.57502 0.74538 0.0
H517 H 0.61663 0.56108 0.68461 0.0
C518 C 0.64663 0.60832 0.63162 0.0
C519 C 0.66094 0.63569 0.60613 0.0
C520 C 0.626 0.6167 0.66806 0.0
C521 C 0.6554 0.67184 0.61832 0.0
C522 C 0.63456 0.68048 0.65463 0.0
C523 C 0.59659 0.66117 0.71516 0.0
C524 C 0.58047 0.63314 0.73878 0.0
C525 C 0.61925 0.65308 0.67958 0.0
C526 C 0.58897 0.59721 0.72755 0.0
C527 C 0.6114 0.5891 0.69272 0.0
H528 H 0.65313 0.3418 0.10026 0.0
H529 H 0.70935 0.44173 0.13345 0.0
H530 H 0.6788 0.44071 0.20209 0.0
H531 H 0.62792 0.41638 0.24786 0.0
H532 H 0.57096 0.31692 0.21298 0.0
H533 H 0.6102 0.31269 0.15032 0.0
C534 C 0.6599 0.36262 0.12308 0.0
C535 C 0.68323 0.39192 0.11167 0.0
C536 C 0.64129 0.36243 0.16195 0.0
C537 C 0.69129 0.41897 0.14146 0.0
C538 C 0.67355 0.41856 0.18057 0.0
C539 C 0.6245 0.3935 0.22689 0.0
C540 C 0.59577 0.36752 0.2348 0.0
C541 C 0.64706 0.39128 0.19042 0.0
C542 C 0.59225 0.33776 0.20747 0.0
C543 C 0.61477 0.33521 0.17152 0.0
H544 H 0.34546 0.5878 0.63312 0.0
H545 H 0.37269 0.69544 0.59307 0.0
H546 H 0.40304 0.70857 0.65983 0.0
H547 H 0.42973 0.687 0.72525 0.0
H548 H 0.40632 0.57823 0.76408 0.0
H549 H 0.36661 0.56814 0.70225 0.0
C550 C 0.35768 0.61426 0.6392 0.0
C551 C 0.35708 0.64044 0.60787 0.0
C552 C 0.37626 0.62131 0.67725 0.0
C553 C 0.37238 0.67482 0.61657 0.0
C554 C 0.39017 0.68226 0.65465 0.0
C555 C 0.41556 0.66118 0.72056 0.0
C556 C 0.42165 0.63321 0.74896 0.0
C557 C 0.39346 0.65532 0.68457 0.0
C558 C 0.40248 0.60016 0.74261 0.0
C559 C 0.37987 0.59431 0.70714 0.0
H560 H 0.8752 0.94392 0.12952 0.0
H561 H 0.85751 0.82952 0.11562 0.0
H562 H 0.89285 0.81924 0.18049 0.0
H563 H 0.93241 0.84282 0.23852 0.0
H564 H 0.94827 0.95767 0.25296 0.0
H565 H 0.90973 0.9678 0.1907 0.0
C566 C 0.87892 0.91677 0.14095 0.0
C567 C 0.86425 0.88744 0.1178 0.0
C568 C 0.899 0.9112 0.1782 0.0
C569 C 0.86863 0.85243 0.13303 0.0
C570 C 0.88894 0.8466 0.16995 0.0
C571 C 0.9272 0.87009 0.22821 0.0
C572 C 0.94361 0.89942 0.25018 0.0
C573 C 0.90483 0.87576 0.19241 0.0
C574 C 0.93609 0.9346 0.2367 0.0
C575 C 0.91417 0.94042 0.20096 0.0
H576 H 0.17051 0.07577 0.639 0.0
H577 H 0.16336 0.18783 0.60696 0.0
H578 H 0.12723 0.20076 0.67116 0.0
H579 H 0.09476 0.17931 0.73455 0.0
H580 H 0.10456 0.06728 0.76753 0.0
H581 H 0.14308 0.0554 0.70537 0.0
C582 C 0.16106 0.103 0.64628 0.0
C583 C 0.16903 0.13077 0.61827 0.0
C584 C 0.14096 0.11026 0.68348 0.0
C585 C 0.15732 0.16607 0.62813 0.0
C586 C 0.1367 0.17342 0.66476 0.0
C587 C 0.10573 0.15238 0.72847 0.0
C588 C 0.09635 0.12422 0.75569 0.0
C589 C 0.12798 0.14563 0.69249 0.0
C590 C 0.11115 0.08955 0.74729 0.0
C591 C 0.13306 0.08262 0.71153 0.0
H592 H 0.15621 0.84186 0.12021 0.0
H593 H 0.19318 0.95218 0.13749 0.0
H594 H 0.16135 0.95445 0.20519 0.0
H595 H 0.11691 0.92711 0.25611 0.0
H596 H 0.08388 0.81565 0.24046 0.0
H597 H 0.12116 0.81169 0.17613 0.0
C598 C 0.15852 0.86612 0.13916 0.0
C599 C 0.17645 0.89706 0.12299 0.0
C600 C 0.14048 0.86719 0.17838 0.0
C601 C 0.17865 0.92822 0.14836 0.0
C602 C 0.16052 0.92955 0.18725 0.0
C603 C 0.11836 0.90183 0.23889 0.0
C604 C 0.09718 0.87191 0.25281 0.0
C605 C 0.14021 0.89958 0.20195 0.0
C606 C 0.09981 0.83917 0.23048 0.0
C607 C 0.12101 0.83689 0.19352 0.0
H608 H 0.86732 0.0956 0.62036 0.0
H609 H 0.88291 0.20903 0.59747 0.0
H610 H 0.91414 0.21663 0.66487 0.0
H611 H 0.94351 0.18988 0.72714 0.0
H612 H 0.93321 0.07542 0.74612 0.0
H613 H 0.89422 0.06939 0.6833 0.0
C614 C 0.87754 0.12203 0.63001 0.0
C615 C 0.87289 0.15156 0.60346 0.0
C616 C 0.89701 0.12597 0.66804 0.0
C617 C 0.88553 0.18577 0.6172 0.0
C618 C 0.90388 0.19011 0.65566 0.0
C619 C 0.93229 0.16373 0.71776 0.0
C620 C 0.94149 0.13311 0.74109 0.0
C621 C 0.91068 0.16025 0.68087 0.0
C622 C 0.92691 0.09935 0.72845 0.0
C623 C 0.90454 0.09587 0.69256 0.0
loop_
_geom_bond_atom_site_label_1
_geom_bond_atom_site_label_2
_geom_bond_distance
_geom_bond_site_symmetry_2
_ccdc_geom_bond_type
H0 C1 0.949 . S
C1 H0 0.949 . S
C1 C2 1.395 . S
C1 C3 1.391 1_556 S
C2 C1 1.395 . S
C2 C5 1.390 1_556 S
C3 C1 1.391 1_554 S
C3 C7 1.387 . S
C3 C8 1.491 . S
H4 C5 0.950 . S
C5 C2 1.390 1_554 S
C5 H4 0.950 . S
C5 C6 1.378 . S
C6 C5 1.378 . S
C6 C7 1.409 . S
C7 C3 1.387 . S
C7 C6 1.409 . S
C7 H9 0.951 . S
C8 C3 1.491 . S
C8 C10 1.382 1_554 S
C8 C12 1.404 . S
H9 C7 0.951 . S
C10 C8 1.382 1_556 S
C10 C11 1.390 . S
C10 H15 0.949 . S
C11 C10 1.390 . S
C11 C16 1.399 1_556 S
C12 C8 1.404 . S
C12 H13 0.950 . S
C12 C14 1.375 . S
H13 C12 0.950 . S
C14 C12 1.375 . S
C14 C16 1.382 . S
C14 H18 0.950 . S
H15 C10 0.949 . S
C16 C11 1.399 1_554 S
C16 C14 1.382 . S
C16 H17 0.952 . S
H17 C16 0.952 . S
H18 C14 0.950 . S
H19 C20 0.949 . S
C20 H19 0.949 . S
C20 C21 1.395 . S
C20 C22 1.391 . S
C21 C20 1.395 . S
C21 C24 1.390 . S
C22 C20 1.391 . S
C22 C26 1.387 . S
C22 C27 1.491 . S
H23 C24 0.950 . S
C24 C21 1.390 . S
C24 H23 0.950 . S
C24 C25 1.378 . S
C25 C24 1.378 . S
C25 C26 1.409 . S
C26 C22 1.387 . S
C26 C25 1.409 . S
C26 H28 0.951 . S
C27 C22 1.491 . S
C27 C29 1.382 . S
C27 C31 1.404 . S
H28 C26 0.951 . S
C29 C27 1.382 . S
C29 C30 1.390 . S
C29 H34 0.949 . S
C30 C29 1.390 . S
C30 C35 1.399 . S
C31 C27 1.404 . S
C31 H32 0.950 . S
C31 C33 1.375 . S
H32 C31 0.950 . S
C33 C31 1.375 . S
C33 C35 1.382 . S
C33 H37 0.950 . S
H34 C29 0.949 . S
C35 C30 1.399 . S
C35 C33 1.382 . S
C35 H36 0.952 . S
H36 C35 0.952 . S
H37 C33 0.950 . S
H38 C39 0.949 . S
C39 H38 0.949 . S
C39 C40 1.395 . S
C39 C41 1.391 1_556 S
C40 C39 1.395 . S
C40 C43 1.390 1_556 S
C41 C39 1.391 1_554 S
C41 C45 1.387 . S
C41 C46 1.491 . S
H42 C43 0.950 . S
C43 C40 1.390 1_554 S
C43 H42 0.950 . S
C43 C44 1.378 . S
C44 C43 1.378 . S
C44 C45 1.409 . S
C45 C41 1.387 . S
C45 C44 1.409 . S
C45 H47 0.951 . S
C46 C41 1.491 . S
C46 C48 1.382 1_554 S
C46 C50 1.404 . S
H47 C45 0.951 . S
C48 C46 1.382 1_556 S
C48 C49 1.390 . S
C48 H53 0.949 . S
C49 C48 1.390 . S
C49 C54 1.399 . S
C50 C46 1.404 . S
C50 H51 0.950 . S
C50 C52 1.375 . S
H51 C50 0.950 . S
C52 C50 1.375 . S
C52 C54 1.382 1_554 S
C52 H56 0.950 . S
H53 C48 0.949 . S
C54 C49 1.399 . S
C54 C52 1.382 1_556 S
C54 H55 0.952 . S
H55 C54 0.952 . S
H56 C52 0.950 . S
H57 C58 0.949 . S
C58 H57 0.949 . S
C58 C59 1.395 . S
C58 C60 1.391 . S
C59 C58 1.395 . S
C59 C62 1.390 . S
C60 C58 1.391 . S
C60 C64 1.387 . S
C60 C65 1.491 . S
H61 C62 0.950 . S
C62 C59 1.390 . S
C62 H61 0.950 . S
C62 C63 1.378 . S
C63 C62 1.378 . S
C63 C64 1.409 . S
C64 C60 1.387 . S
C64 C63 1.409 . S
C64 H66 0.951 . S
C65 C60 1.491 . S
C65 C67 1.382 . S
C65 C69 1.404 . S
H66 C64 0.951 . S
C67 C65 1.382 . S
C67 C68 1.390 . S
C67 H72 0.949 . S
C68 C67 1.390 . S
C68 C73 1.399 . S
C69 C65 1.404 . S
C69 H70 0.950 . S
C69 C71 1.375 . S
H70 C69 0.950 . S
C71 C69 1.375 . S
C71 C73 1.382 . S
C71 H75 0.950 . S
H72 C67 0.949 . S
C73 C68 1.399 . S
C73 C71 1.382 . S
C73 H74 0.952 . S
H74 C73 0.952 . S
H75 C71 0.950 . S
H76 C77 0.949 . S
C77 H76 0.949 . S
C77 C78 1.395 . S
C77 C79 1.391 1_556 S
C78 C77 1.395 . S
C78 C81 1.390 1_556 S
C79 C77 1.391 1_554 S
C79 C83 1.387 . S
C79 C84 1.491 . S
H80 C81 0.950 . S
C81 C78 1.390 1_554 S
C81 H80 0.950 . S
C81 C82 1.378 . S
C82 C81 1.378 . S
C82 C83 1.409 . S
C83 C79 1.387 . S
C83 C82 1.409 . S
C83 H85 0.951 . S
C84 C79 1.491 . S
C84 C86 1.382 1_554 S
C84 C88 1.404 . S
H85 C83 0.951 . S
C86 C84 1.382 1_556 S
C86 C87 1.390 . S
C86 H91 0.949 . S
C87 C86 1.390 . S
C87 C92 1.399 1_556 S
C88 C84 1.404 . S
C88 H89 0.950 . S
C88 C90 1.375 . S
H89 C88 0.950 . S
C90 C88 1.375 . S
C90 C92 1.382 . S
C90 H94 0.950 . S
H91 C86 0.949 . S
C92 C87 1.399 1_554 S
C92 C90 1.382 . S
C92 H93 0.952 . S
H93 C92 0.952 . S
H94 C90 0.950 . S
H95 C96 0.949 . S
C96 H95 0.949 . S
C96 C97 1.395 . S
C96 C98 1.391 . S
C97 C96 1.395 . S
C97 C100 1.390 . S
C98 C96 1.391 . S
C98 C102 1.387 . S
C98 C103 1.491 . S
H99 C100 0.950 . S
C100 C97 1.390 . S
C100 H99 0.950 . S
C100 C101 1.378 . S
C101 C100 1.378 . S
C101 C102 1.409 . S
C102 C98 1.387 . S
C102 C101 1.409 . S
C102 H104 0.951 . S
C103 C98 1.491 . S
C103 C105 1.382 . S
C103 C107 1.404 . S
H104 C102 0.951 . S
C105 C103 1.382 . S
C105 C106 1.390 . S
C105 H110 0.949 . S
C106 C105 1.390 . S
C106 C111 1.399 . S
C107 C103 1.404 . S
C107 H108 0.950 . S
C107 C109 1.375 . S
H108 C107 0.950 . S
C109 C107 1.375 . S
C109 C111 1.382 . S
C109 H113 0.950 . S
H110 C105 0.949 . S
C111 C106 1.399 . S
C111 C109 1.382 . S
C111 H112 0.952 . S
H112 C111 0.952 . S
H113 C109 0.950 . S
H114 C115 0.949 . S
C115 H114 0.949 . S
C115 C116 1.395 . S
C115 C117 1.391 1_556 S
C116 C115 1.395 . S
C116 C119 1.390 1_556 S
C117 C115 1.391 1_554 S
C117 C121 1.387 . S
C117 C122 1.491 . S
H118 C119 0.950 . S
C119 C116 1.390 1_554 S
C119 H118 0.950 . S
C119 C120 1.378 . S
C120 C119 1.378 . S
C120 C121 1.409 . S
C121 C117 1.387 . S
C121 C120 1.409 . S
C121 H123 0.951 . S
C122 C117 1.491 . S
C122 C124 1.382 1_554 S
C122 C126 1.404 . S
H123 C121 0.951 . S
C124 C122 1.382 1_556 S
C124 C125 1.390 . S
C124 H129 0.949 . S
C125 C124 1.390 . S
C125 C130 1.399 . S
C126 C122 1.404 . S
C126 H127 0.950 . S
C126 C128 1.375 . S
H127 C126 0.950 . S
C128 C126 1.375 . S
C128 C130 1.382 1_554 S
C128 H132 0.950 . S
H129 C124 0.949 . S
C130 C125 1.399 . S
C130 C128 1.382 1_556 S
C130 H131 0.952 . S
H131 C130 0.952 . S
H132 C128 0.950 . S
H133 C134 0.949 . S
C134 H133 0.949 . S
C134 C135 1.395 . S
C134 C136 1.391 . S
C135 C134 1.395 . S
C135 C138 1.390 . S
C136 C134 1.391 . S
C136 C140 1.387 . S
C136 C141 1.491 . S
H137 C138 0.950 . S
C138 C135 1.390 . S
C138 H137 0.950 . S
C138 C139 1.378 . S
C139 C138 1.378 . S
C139 C140 1.409 . S
C140 C136 1.387 . S
C140 C139 1.409 . S
C140 H142 0.951 . S
C141 C136 1.491 . S
C141 C143 1.382 . S
C141 C145 1.404 . S
H142 C140 0.951 . S
C143 C141 1.382 . S
C143 C144 1.390 . S
C143 H148 0.949 . S
C144 C143 1.390 . S
C144 C149 1.399 . S
C145 C141 1.404 . S
C145 H146 0.950 . S
C145 C147 1.375 . S
H146 C145 0.950 . S
C147 C145 1.375 . S
C147 C149 1.382 . S
C147 H151 0.950 . S
H148 C143 0.949 . S
C149 C144 1.399 . S
C149 C147 1.382 . S
C149 H150 0.952 . S
H150 C149 0.952 . S
H151 C147 0.950 . S
Fe152 O154 1.918 . S
Fe152 O157 1.997 1_455 S
Fe152 O158 2.002 1_455 S
Fe152 O163 1.976 . S
Fe152 O166 1.996 . S
Fe153 O154 1.918 . S
Fe153 O161 1.997 1_455 S
Fe153 O164 1.996 . S
Fe153 O168 1.976 . S
Fe153 O171 2.002 1_455 S
O154 Fe152 1.918 . S
O154 Fe153 1.918 . S
O154 Fe155 1.918 . S
Fe155 O154 1.918 . S
Fe155 O156 2.002 1_455 S
Fe155 O165 1.976 . S
Fe155 O169 1.996 . S
Fe155 O172 1.997 1_455 S
O156 Fe155 2.002 1_655 S
O156 C173 1.295 . S
O157 Fe152 1.997 1_655 S
O157 C173 1.235 . S
O158 Fe152 2.002 1_655 S
O158 C159 1.295 . S
C159 O158 1.295 . S
C159 O161 1.235 . S
C160 O165 1.287 . S
C160 O166 1.255 . S
O161 Fe153 1.997 1_655 S
O161 C159 1.235 . S
C162 O168 1.287 . S
C162 O169 1.255 . S
O163 Fe152 1.976 . S
O163 C170 1.287 . S
O164 Fe153 1.996 . S
O164 C170 1.255 . S
O165 Fe155 1.976 . S
O165 C160 1.287 . S
O166 Fe152 1.996 . S
O166 C160 1.255 . S
C167 O171 1.295 . S
C167 O172 1.235 . S
O168 Fe153 1.976 . S
O168 C162 1.287 . S
O169 Fe155 1.996 . S
O169 C162 1.255 . S
C170 O163 1.287 . S
C170 O164 1.255 . S
O171 Fe153 2.002 1_655 S
O171 C167 1.295 . S
O172 Fe155 1.997 1_655 S
O172 C167 1.235 . S
C173 O156 1.295 . S
C173 O157 1.235 . S
Fe174 O176 1.918 . S
Fe174 O179 1.997 1_655 S
Fe174 O180 2.002 1_655 S
Fe174 O185 1.976 . S
Fe174 O188 1.996 . S
Fe175 O176 1.918 . S
Fe175 O183 1.997 1_655 S
Fe175 O186 1.996 . S
Fe175 O190 1.976 . S
Fe175 O193 2.002 1_655 S
O176 Fe174 1.918 . S
O176 Fe175 1.918 . S
O176 Fe177 1.918 . S
Fe177 O176 1.918 . S
Fe177 O178 2.002 1_655 S
Fe177 O187 1.976 . S
Fe177 O191 1.996 . S
Fe177 O194 1.997 1_655 S
O178 Fe177 2.002 1_455 S
O178 C195 1.295 . S
O179 Fe174 1.997 1_455 S
O179 C195 1.235 . S
O180 Fe174 2.002 1_455 S
O180 C181 1.295 . S
C181 O180 1.295 . S
C181 O183 1.235 . S
C182 O187 1.287 . S
C182 O188 1.255 . S
O183 Fe175 1.997 1_455 S
O183 C181 1.235 . S
C184 O190 1.287 . S
C184 O191 1.255 . S
O185 Fe174 1.976 . S
O185 C192 1.287 . S
O186 Fe175 1.996 . S
O186 C192 1.255 . S
O187 Fe177 1.976 . S
O187 C182 1.287 . S
O188 Fe174 1.996 . S
O188 C182 1.255 . S
C189 O193 1.295 . S
C189 O194 1.235 . S
O190 Fe175 1.976 . S
O190 C184 1.287 . S
O191 Fe177 1.996 . S
O191 C184 1.255 . S
C192 O185 1.287 . S
C192 O186 1.255 . S
O193 Fe175 2.002 1_455 S
O193 C189 1.295 . S
O194 Fe177 1.997 1_455 S
O194 C189 1.235 . S
C195 O178 1.295 . S
C195 O179 1.235 . S
Fe196 O198 1.918 . S
Fe196 O201 1.997 . S
Fe196 O202 2.002 . S
Fe196 O207 1.976 . S
Fe196 O210 1.996 . S
Fe197 O198 1.918 . S
Fe197 O205 1.997 . S
Fe197 O208 1.996 . S
Fe197 O212 1.976 . S
Fe197 O215 2.002 . S
O198 Fe196 1.918 . S
O198 Fe197 1.918 . S
O198 Fe199 1.918 . S
Fe199 O198 1.918 . S
Fe199 O200 2.002 . S
Fe199 O209 1.976 . S
Fe199 O213 1.996 . S
Fe199 O216 1.997 . S
O200 Fe199 2.002 . S
O200 C217 1.295 . S
O201 Fe196 1.997 . S
O201 C217 1.235 . S
O202 Fe196 2.002 . S
O202 C203 1.295 . S
C203 O202 1.295 . S
C203 O205 1.235 . S
C204 O209 1.287 . S
C204 O210 1.255 . S
O205 Fe197 1.997 . S
O205 C203 1.235 . S
C206 O212 1.287 . S
C206 O213 1.255 . S
O207 Fe196 1.976 . S
O207 C214 1.287 . S
O208 Fe197 1.996 . S
O208 C214 1.255 . S
O209 Fe199 1.976 . S
O209 C204 1.287 . S
O210 Fe196 1.996 . S
O210 C204 1.255 . S
C211 O215 1.295 . S
C211 O216 1.235 . S
O212 Fe197 1.976 . S
O212 C206 1.287 . S
O213 Fe199 1.996 . S
O213 C206 1.255 . S
C214 O207 1.287 . S
C214 O208 1.255 . S
O215 Fe197 2.002 . S
O215 C211 1.295 . S
O216 Fe199 1.997 . S
O216 C211 1.235 . S
C217 O200 1.295 . S
C217 O201 1.235 . S
Fe218 O220 1.918 . S
Fe218 O223 1.997 . S
Fe218 O224 2.002 . S
Fe218 O229 1.976 . S
Fe218 O232 1.996 . S
Fe219 O220 1.918 . S
Fe219 O227 1.997 . S
Fe219 O230 1.996 . S
Fe219 O234 1.976 . S
Fe219 O237 2.002 . S
O220 Fe218 1.918 . S
O220 Fe219 1.918 . S
O220 Fe221 1.918 . S
Fe221 O220 1.918 . S
Fe221 O222 2.002 . S
Fe221 O231 1.976 . S
Fe221 O235 1.996 . S
Fe221 O238 1.997 . S
O222 Fe221 2.002 . S
O222 C239 1.295 . S
O223 Fe218 1.997 . S
O223 C239 1.235 . S
O224 Fe218 2.002 . S
O224 C225 1.295 . S
C225 O224 1.295 . S
C225 O227 1.235 . S
C226 O231 1.287 . S
C226 O232 1.255 . S
O227 Fe219 1.997 . S
O227 C225 1.235 . S
C228 O234 1.287 . S
C228 O235 1.255 . S
O229 Fe218 1.976 . S
O229 C236 1.287 . S
O230 Fe219 1.996 . S
O230 C236 1.255 . S
O231 Fe221 1.976 . S
O231 C226 1.287 . S
O232 Fe218 1.996 . S
O232 C226 1.255 . S
C233 O237 1.295 . S
C233 O238 1.235 . S
O234 Fe219 1.976 . S
O234 C228 1.287 . S
O235 Fe221 1.996 . S
O235 C228 1.255 . S
C236 O229 1.287 . S
C236 O230 1.255 . S
O237 Fe219 2.002 . S
O237 C233 1.295 . S
O238 Fe221 1.997 . S
O238 C233 1.235 . S
C239 O222 1.295 . S
C239 O223 1.235 . S
H240 C246 0.930 . S
H241 C249 0.930 . S
H242 C250 0.930 . S
H243 C251 0.930 . S
H244 C254 0.930 . S
H245 C255 0.930 . S
C246 H240 0.930 . S
C246 C247 1.355 . S
C246 C248 1.415 . S
C247 C246 1.355 . S
C247 C249 1.419 . S
C248 C246 1.415 . S
C248 C253 1.425 . S
C248 C255 1.409 . S
C249 H241 0.930 . S
C249 C247 1.419 . S
C249 C250 1.362 . S
C250 H242 0.930 . S
C250 C249 1.362 . S
C250 C253 1.409 . S
C251 H243 0.930 . S
C251 C252 1.355 . S
C251 C253 1.415 . S
C252 C251 1.355 . S
C252 C254 1.419 . S
C253 C248 1.425 . S
C253 C250 1.409 . S
C253 C251 1.415 . S
C254 H244 0.930 . S
C254 C252 1.419 . S
C254 C255 1.362 . S
C255 H245 0.930 . S
C255 C248 1.409 . S
C255 C254 1.362 . S
H256 C262 0.930 . S
H257 C265 0.930 . S
H258 C266 0.930 . S
H259 C267 0.930 . S
H260 C270 0.930 . S
H261 C271 0.930 . S
C262 H256 0.930 . S
C262 C263 1.355 . S
C262 C264 1.415 . S
C263 C262 1.355 . S
C263 C265 1.419 . S
C264 C262 1.415 . S
C264 C269 1.425 . S
C264 C271 1.409 . S
C265 H257 0.930 . S
C265 C263 1.419 . S
C265 C266 1.362 . S
C266 H258 0.930 . S
C266 C265 1.362 . S
C266 C269 1.409 . S
C267 H259 0.930 . S
C267 C268 1.355 . S
C267 C269 1.415 . S
C268 C267 1.355 . S
C268 C270 1.419 . S
C269 C264 1.425 . S
C269 C266 1.409 . S
C269 C267 1.415 . S
C270 H260 0.930 . S
C270 C268 1.419 . S
C270 C271 1.362 . S
C271 H261 0.930 . S
C271 C264 1.409 . S
C271 C270 1.362 . S
H272 C278 0.930 . S
H273 C281 0.930 . S
H274 C282 0.930 . S
H275 C283 0.930 . S
H276 C286 0.930 . S
H277 C287 0.930 . S
C278 H272 0.930 . S
C278 C279 1.355 . S
C278 C280 1.415 . S
C279 C278 1.355 . S
C279 C281 1.419 . S
C280 C278 1.415 . S
C280 C285 1.425 . S
C280 C287 1.409 . S
C281 H273 0.930 . S
C281 C279 1.419 . S
C281 C282 1.362 . S
C282 H274 0.930 . S
C282 C281 1.362 . S
C282 C285 1.409 . S
C283 H275 0.930 . S
C283 C284 1.355 . S
C283 C285 1.415 . S
C284 C283 1.355 . S
C284 C286 1.419 . S
C285 C280 1.425 . S
C285 C282 1.409 . S
C285 C283 1.415 . S
C286 H276 0.930 . S
C286 C284 1.419 . S
C286 C287 1.362 . S
C287 H277 0.930 . S
C287 C280 1.409 . S
C287 C286 1.362 . S
H288 C294 0.930 . S
H289 C297 0.930 . S
H290 C298 0.930 . S
H291 C299 0.930 . S
H292 C302 0.930 . S
H293 C303 0.930 . S
C294 H288 0.930 . S
C294 C295 1.355 . S
C294 C296 1.415 . S
C295 C294 1.355 . S
C295 C297 1.419 . S
C296 C294 1.415 . S
C296 C301 1.425 . S
C296 C303 1.409 . S
C297 H289 0.930 . S
C297 C295 1.419 . S
C297 C298 1.362 . S
C298 H290 0.930 . S
C298 C297 1.362 . S
C298 C301 1.409 . S
C299 H291 0.930 . S
C299 C300 1.355 . S
C299 C301 1.415 . S
C300 C299 1.355 . S
C300 C302 1.419 . S
C301 C296 1.425 . S
C301 C298 1.409 . S
C301 C299 1.415 . S
C302 H292 0.930 . S
C302 C300 1.419 . S
C302 C303 1.362 . S
C303 H293 0.930 . S
C303 C296 1.409 . S
C303 C302 1.362 . S
H304 C310 0.930 . S
H305 C313 0.930 . S
H306 C314 0.930 . S
H307 C315 0.930 . S
H308 C318 0.930 . S
H309 C319 0.930 . S
C310 H304 0.930 . S
C310 C311 1.355 . S
C310 C312 1.415 . S
C311 C310 1.355 . S
C311 C313 1.419 . S
C312 C310 1.415 . S
C312 C317 1.425 . S
C312 C319 1.409 . S
C313 H305 0.930 . S
C313 C311 1.419 . S
C313 C314 1.362 . S
C314 H306 0.930 . S
C314 C313 1.362 . S
C314 C317 1.409 . S
C315 H307 0.930 . S
C315 C316 1.355 . S
C315 C317 1.415 . S
C316 C315 1.355 . S
C316 C318 1.419 . S
C317 C312 1.425 . S
C317 C314 1.409 . S
C317 C315 1.415 . S
C318 H308 0.930 . S
C318 C316 1.419 . S
C318 C319 1.362 . S
C319 H309 0.930 . S
C319 C312 1.409 . S
C319 C318 1.362 . S
H320 C326 0.930 . S
H321 C329 0.930 . S
H322 C330 0.930 . S
H323 C331 0.930 . S
H324 C334 0.930 . S
H325 C335 0.930 . S
C326 H320 0.930 . S
C326 C327 1.355 . S
C326 C328 1.415 . S
C327 C326 1.355 . S
C327 C329 1.419 . S
C328 C326 1.415 . S
C328 C333 1.425 . S
C328 C335 1.409 . S
C329 H321 0.930 . S
C329 C327 1.419 . S
C329 C330 1.362 . S
C330 H322 0.930 . S
C330 C329 1.362 . S
C330 C333 1.409 . S
C331 H323 0.930 . S
C331 C332 1.355 . S
C331 C333 1.415 . S
C332 C331 1.355 . S
C332 C334 1.419 . S
C333 C328 1.425 . S
C333 C330 1.409 . S
C333 C331 1.415 . S
C334 H324 0.930 . S
C334 C332 1.419 . S
C334 C335 1.362 . S
C335 H325 0.930 . S
C335 C328 1.409 . S
C335 C334 1.362 . S
H336 C342 0.930 . S
H337 C345 0.930 . S
H338 C346 0.930 . S
H339 C347 0.930 . S
H340 C350 0.930 . S
H341 C351 0.930 . S
C342 H336 0.930 . S
C342 C343 1.355 . S
C342 C344 1.415 . S
C343 C342 1.355 . S
C343 C345 1.419 . S
C344 C342 1.415 . S
C344 C349 1.425 . S
C344 C351 1.409 . S
C345 H337 0.930 . S
C345 C343 1.419 . S
C345 C346 1.362 . S
C346 H338 0.930 . S
C346 C345 1.362 . S
C346 C349 1.409 . S
C347 H339 0.930 . S
C347 C348 1.355 . S
C347 C349 1.415 . S
C348 C347 1.355 . S
C348 C350 1.419 . S
C349 C344 1.425 . S
C349 C346 1.409 . S
C349 C347 1.415 . S
C350 H340 0.930 . S
C350 C348 1.419 . S
C350 C351 1.362 . S
C351 H341 0.930 . S
C351 C344 1.409 . S
C351 C350 1.362 . S
H352 C358 0.930 . S
H353 C361 0.930 . S
H354 C362 0.930 . S
H355 C363 0.930 . S
H356 C366 0.930 . S
H357 C367 0.930 . S
C358 H352 0.930 . S
C358 C359 1.355 . S
C358 C360 1.415 . S
C359 C358 1.355 . S
C359 C361 1.419 . S
C360 C358 1.415 . S
C360 C365 1.425 . S
C360 C367 1.409 . S
C361 H353 0.930 . S
C361 C359 1.419 . S
C361 C362 1.362 . S
C362 H354 0.930 . S
C362 C361 1.362 . S
C362 C365 1.409 . S
C363 H355 0.930 . S
C363 C364 1.355 . S
C363 C365 1.415 . S
C364 C363 1.355 . S
C364 C366 1.419 . S
C365 C360 1.425 . S
C365 C362 1.409 . S
C365 C363 1.415 . S
C366 H356 0.930 . S
C366 C364 1.419 . S
C366 C367 1.362 . S
C367 H357 0.930 . S
C367 C360 1.409 . S
C367 C366 1.362 . S
H368 C374 0.930 . S
H369 C377 0.930 . S
H370 C378 0.930 . S
H371 C379 0.930 . S
H372 C382 0.930 . S
H373 C383 0.930 . S
C374 H368 0.930 . S
C374 C375 1.355 . S
C374 C376 1.415 . S
C375 C374 1.355 . S
C375 C377 1.419 . S
C376 C374 1.415 . S
C376 C381 1.425 . S
C376 C383 1.409 . S
C377 H369 0.930 . S
C377 C375 1.419 . S
C377 C378 1.362 . S
C378 H370 0.930 . S
C378 C377 1.362 . S
C378 C381 1.409 . S
C379 H371 0.930 . S
C379 C380 1.355 . S
C379 C381 1.415 . S
C380 C379 1.355 . S
C380 C382 1.419 . S
C381 C376 1.425 . S
C381 C378 1.409 . S
C381 C379 1.415 . S
C382 H372 0.930 . S
C382 C380 1.419 . S
C382 C383 1.362 . S
C383 H373 0.930 . S
C383 C376 1.409 . S
C383 C382 1.362 . S
H384 C390 0.930 . S
H385 C393 0.930 . S
H386 C394 0.930 . S
H387 C395 0.930 . S
H388 C398 0.930 . S
H389 C399 0.930 . S
C390 H384 0.930 . S
C390 C391 1.355 . S
C390 C392 1.415 . S
C391 C390 1.355 . S
C391 C393 1.419 . S
C392 C390 1.415 . S
C392 C397 1.425 . S
C392 C399 1.409 . S
C393 H385 0.930 . S
C393 C391 1.419 . S
C393 C394 1.362 . S
C394 H386 0.930 . S
C394 C393 1.362 . S
C394 C397 1.409 . S
C395 H387 0.930 . S
C395 C396 1.355 . S
C395 C397 1.415 . S
C396 C395 1.355 . S
C396 C398 1.419 . S
C397 C392 1.425 . S
C397 C394 1.409 . S
C397 C395 1.415 . S
C398 H388 0.930 . S
C398 C396 1.419 . S
C398 C399 1.362 . S
C399 H389 0.930 . S
C399 C392 1.409 . S
C399 C398 1.362 . S
H400 C406 0.930 . S
H401 C409 0.930 1_554 S
H402 C410 0.930 1_554 S
H403 C411 0.930 . S
H404 C414 0.930 . S
H405 C415 0.930 . S
C406 H400 0.930 . S
C406 C407 1.355 . S
C406 C408 1.415 . S
C407 C406 1.355 . S
C407 C409 1.419 . S
C408 C406 1.415 . S
C408 C413 1.425 . S
C408 C415 1.409 . S
C409 H401 0.930 1_556 S
C409 C407 1.419 . S
C409 C410 1.362 . S
C410 H402 0.930 1_556 S
C410 C409 1.362 . S
C410 C413 1.409 . S
C411 H403 0.930 . S
C411 C412 1.355 . S
C411 C413 1.415 . S
C412 C411 1.355 . S
C412 C414 1.419 . S
C413 C408 1.425 . S
C413 C410 1.409 . S
C413 C411 1.415 . S
C414 H404 0.930 . S
C414 C412 1.419 . S
C414 C415 1.362 . S
C415 H405 0.930 . S
C415 C408 1.409 . S
C415 C414 1.362 . S
H416 C422 0.930 . S
H417 C425 0.930 . S
H418 C426 0.930 . S
H419 C427 0.930 . S
H420 C430 0.930 . S
H421 C431 0.930 . S
C422 H416 0.930 . S
C422 C423 1.355 . S
C422 C424 1.415 . S
C423 C422 1.355 . S
C423 C425 1.419 . S
C424 C422 1.415 . S
C424 C429 1.425 . S
C424 C431 1.409 . S
C425 H417 0.930 . S
C425 C423 1.419 . S
C425 C426 1.362 . S
C426 H418 0.930 . S
C426 C425 1.362 . S
C426 C429 1.409 . S
C427 H419 0.930 . S
C427 C428 1.355 . S
C427 C429 1.415 . S
C428 C427 1.355 . S
C428 C430 1.419 . S
C429 C424 1.425 . S
C429 C426 1.409 . S
C429 C427 1.415 . S
C430 H420 0.930 . S
C430 C428 1.419 . S
C430 C431 1.362 . S
C431 H421 0.930 . S
C431 C424 1.409 . S
C431 C430 1.362 . S
H432 C438 0.930 . S
H433 C441 0.909 1_554 S
H434 C442 0.930 1_554 S
H435 C443 0.930 . S
H436 C446 0.930 . S
H437 C447 0.930 . S
C438 H432 0.930 . S
C438 C439 1.355 . S
C438 C440 1.415 . S
C439 C438 1.355 . S
C439 C441 1.434 . S
C440 C438 1.415 . S
C440 C445 1.425 . S
C440 C447 1.409 . S
C441 H433 0.909 1_556 S
C441 C439 1.434 . S
C441 C442 1.369 . S
C442 H434 0.930 1_556 S
C442 C441 1.369 . S
C442 C445 1.409 . S
C443 H435 0.930 . S
C443 C444 1.355 . S
C443 C445 1.415 1_545 S
C444 C443 1.355 . S
C444 C446 1.419 . S
C445 C440 1.425 . S
C445 C442 1.409 . S
C445 C443 1.415 1_565 S
C446 H436 0.930 . S
C446 C444 1.419 . S
C446 C447 1.362 1_545 S
C447 H437 0.930 . S
C447 C440 1.409 . S
C447 C446 1.362 1_565 S
H448 C454 0.930 . S
H449 C457 0.930 . S
H450 C458 0.930 . S
H451 C459 0.930 . S
H452 C462 0.930 . S
H453 C463 0.930 . S
C454 H448 0.930 . S
C454 C455 1.355 . S
C454 C456 1.415 . S
C455 C454 1.355 . S
C455 C457 1.419 . S
C456 C454 1.415 . S
C456 C461 1.425 . S
C456 C463 1.409 1_545 S
C457 H449 0.930 . S
C457 C455 1.419 . S
C457 C458 1.362 . S
C458 H450 0.930 . S
C458 C457 1.362 . S
C458 C461 1.409 . S
C459 H451 0.930 . S
C459 C460 1.355 1_545 S
C459 C461 1.415 . S
C460 C459 1.355 1_565 S
C460 C462 1.419 . S
C461 C456 1.425 . S
C461 C458 1.409 . S
C461 C459 1.415 . S
C462 H452 0.930 . S
C462 C460 1.419 . S
C462 C463 1.362 . S
C463 H453 0.930 . S
C463 C456 1.409 1_565 S
C463 C462 1.362 . S
H464 C470 0.930 . S
H465 C473 0.930 . S
H466 C474 0.944 . S
H467 C475 0.930 . S
H468 C478 0.930 . S
H469 C479 0.930 . S
C470 H464 0.930 . S
C470 C471 1.355 . S
C470 C472 1.415 . S
C471 C470 1.355 . S
C471 C473 1.419 . S
C472 C470 1.415 . S
C472 C477 1.425 . S
C472 C479 1.409 . S
C473 H465 0.930 . S
C473 C471 1.419 . S
C473 C474 1.362 . S
C474 H466 0.944 . S
C474 C473 1.362 . S
C474 C477 1.409 . S
C475 H467 0.930 . S
C475 C476 1.355 . S
C475 C477 1.415 1_545 S
C476 C475 1.355 . S
C476 C478 1.419 . S
C477 C472 1.425 . S
C477 C474 1.409 . S
C477 C475 1.415 1_565 S
C478 H468 0.930 . S
C478 C476 1.419 . S
C478 C479 1.362 1_545 S
C479 H469 0.930 . S
C479 C472 1.409 . S
C479 C478 1.362 1_565 S
H480 C486 0.930 . S
H481 C489 0.930 . S
H482 C490 0.930 . S
H483 C491 0.930 . S
H484 C494 0.930 . S
H485 C495 0.930 . S
C486 H480 0.930 . S
C486 C487 1.355 . S
C486 C488 1.415 . S
C487 C486 1.355 . S
C487 C489 1.419 . S
C488 C486 1.415 . S
C488 C493 1.425 . S
C488 C495 1.409 1_545 S
C489 H481 0.930 . S
C489 C487 1.419 . S
C489 C490 1.362 . S
C490 H482 0.930 . S
C490 C489 1.362 . S
C490 C493 1.409 . S
C491 H483 0.930 . S
C491 C492 1.355 1_545 S
C491 C493 1.415 . S
C492 C491 1.355 1_565 S
C492 C494 1.419 . S
C493 C488 1.425 . S
C493 C490 1.409 . S
C493 C491 1.415 . S
C494 H484 0.930 . S
C494 C492 1.419 . S
C494 C495 1.362 . S
C495 H485 0.930 . S
C495 C488 1.409 1_565 S
C495 C494 1.362 . S
H496 C502 0.930 . S
H497 C505 0.930 . S
H498 C506 0.930 . S
H499 C507 0.930 . S
H500 C510 0.930 . S
H501 C511 0.930 . S
C502 H496 0.930 . S
C502 C503 1.355 . S
C502 C504 1.415 . S
C503 C502 1.355 . S
C503 C505 1.419 . S
C504 C502 1.415 . S
C504 C509 1.425 . S
C504 C511 1.409 . S
C505 H497 0.930 . S
C505 C503 1.419 . S
C505 C506 1.362 . S
C506 H498 0.930 . S
C506 C505 1.362 . S
C506 C509 1.409 . S
C507 H499 0.930 . S
C507 C508 1.355 . S
C507 C509 1.415 . S
C508 C507 1.355 . S
C508 C510 1.419 . S
C509 C504 1.425 . S
C509 C506 1.409 . S
C509 C507 1.415 . S
C510 H500 0.930 . S
C510 C508 1.419 . S
C510 C511 1.362 . S
C511 H501 0.930 . S
C511 C504 1.409 . S
C511 C510 1.362 . S
H512 C518 0.930 . S
H513 C521 0.930 . S
H514 C522 0.930 . S
H515 C523 0.930 . S
H516 C526 0.930 . S
H517 C527 0.930 . S
C518 H512 0.930 . S
C518 C519 1.355 . S
C518 C520 1.415 . S
C519 C518 1.355 . S
C519 C521 1.419 . S
C520 C518 1.415 . S
C520 C525 1.425 . S
C520 C527 1.409 . S
C521 H513 0.930 . S
C521 C519 1.419 . S
C521 C522 1.362 . S
C522 H514 0.930 . S
C522 C521 1.362 . S
C522 C525 1.409 . S
C523 H515 0.930 . S
C523 C524 1.355 . S
C523 C525 1.415 . S
C524 C523 1.355 . S
C524 C526 1.419 . S
C525 C520 1.425 . S
C525 C522 1.409 . S
C525 C523 1.415 . S
C526 H516 0.930 . S
C526 C524 1.419 . S
C526 C527 1.362 . S
C527 H517 0.930 . S
C527 C520 1.409 . S
C527 C526 1.362 . S
H528 C534 0.930 . S
H529 C537 0.930 . S
H530 C538 0.930 . S
H531 C539 0.930 . S
H532 C542 0.930 . S
H533 C543 0.930 . S
C534 H528 0.930 . S
C534 C535 1.355 . S
C534 C536 1.415 . S
C535 C534 1.355 . S
C535 C537 1.419 . S
C536 C534 1.415 . S
C536 C541 1.425 . S
C536 C543 1.409 . S
C537 H529 0.930 . S
C537 C535 1.419 . S
C537 C538 1.362 . S
C538 H530 0.930 . S
C538 C537 1.362 . S
C538 C541 1.409 . S
C539 H531 0.930 . S
C539 C540 1.355 . S
C539 C541 1.415 . S
C540 C539 1.355 . S
C540 C542 1.419 . S
C541 C536 1.425 . S
C541 C538 1.409 . S
C541 C539 1.415 . S
C542 H532 0.930 . S
C542 C540 1.419 . S
C542 C543 1.362 . S
C543 H533 0.930 . S
C543 C536 1.409 . S
C543 C542 1.362 . S
H544 C550 0.930 . S
H545 C553 0.930 . S
H546 C554 0.930 . S
H547 C555 0.930 . S
H548 C558 0.930 . S
H549 C559 0.930 . S
C550 H544 0.930 . S
C550 C551 1.355 . S
C550 C552 1.415 . S
C551 C550 1.355 . S
C551 C553 1.419 . S
C552 C550 1.415 . S
C552 C557 1.425 . S
C552 C559 1.409 . S
C553 H545 0.930 . S
C553 C551 1.419 . S
C553 C554 1.362 . S
C554 H546 0.930 . S
C554 C553 1.362 . S
C554 C557 1.409 . S
C555 H547 0.930 . S
C555 C556 1.355 . S
C555 C557 1.415 . S
C556 C555 1.355 . S
C556 C558 1.419 . S
C557 C552 1.425 . S
C557 C554 1.409 . S
C557 C555 1.415 . S
C558 H548 0.930 . S
C558 C556 1.419 . S
C558 C559 1.362 . S
C559 H549 0.930 . S
C559 C552 1.409 . S
C559 C558 1.362 . S
H560 C566 0.930 . S
H561 C569 0.930 . S
H562 C570 0.930 . S
H563 C571 0.930 . S
H564 C574 0.930 . S
H565 C575 0.930 . S
C566 H560 0.930 . S
C566 C567 1.355 . S
C566 C568 1.415 . S
C567 C566 1.355 . S
C567 C569 1.419 . S
C568 C566 1.415 . S
C568 C573 1.425 . S
C568 C575 1.409 . S
C569 H561 0.930 . S
C569 C567 1.419 . S
C569 C570 1.362 . S
C570 H562 0.930 . S
C570 C569 1.362 . S
C570 C573 1.409 . S
C571 H563 0.930 . S
C571 C572 1.355 . S
C571 C573 1.415 . S
C572 C571 1.355 . S
C572 C574 1.419 . S
C573 C568 1.425 . S
C573 C570 1.409 . S
C573 C571 1.415 . S
C574 H564 0.930 . S
C574 C572 1.419 . S
C574 C575 1.362 . S
C575 H565 0.930 . S
C575 C568 1.409 . S
C575 C574 1.362 . S
H576 C582 0.930 . S
H577 C585 0.930 . S
H578 C586 0.930 . S
H579 C587 0.930 . S
H580 C590 0.930 . S
H581 C591 0.930 . S
C582 H576 0.930 . S
C582 C583 1.355 . S
C582 C584 1.415 . S
C583 C582 1.355 . S
C583 C585 1.419 . S
C584 C582 1.415 . S
C584 C589 1.425 . S
C584 C591 1.409 . S
C585 H577 0.930 . S
C585 C583 1.419 . S
C585 C586 1.362 . S
C586 H578 0.930 . S
C586 C585 1.362 . S
C586 C589 1.409 . S
C587 H579 0.930 . S
C587 C588 1.355 . S
C587 C589 1.415 . S
C588 C587 1.355 . S
C588 C590 1.419 . S
C589 C584 1.425 . S
C589 C586 1.409 . S
C589 C587 1.415 . S
C590 H580 0.930 . S
C590 C588 1.419 . S
C590 C591 1.362 . S
C591 H581 0.930 . S
C591 C584 1.409 . S
C591 C590 1.362 . S
H592 C598 0.930 . S
H593 C601 0.930 . S
H594 C602 0.930 . S
H595 C603 0.930 . S
H596 C606 0.930 . S
H597 C607 0.930 . S
C598 H592 0.930 . S
C598 C599 1.355 . S
C598 C600 1.415 . S
C599 C598 1.355 . S
C599 C601 1.419 . S
C600 C598 1.415 . S
C600 C605 1.425 . S
C600 C607 1.409 . S
C601 H593 0.930 . S
C601 C599 1.419 . S
C601 C602 1.362 . S
C602 H594 0.930 . S
C602 C601 1.362 . S
C602 C605 1.409 . S
C603 H595 0.930 . S
C603 C604 1.355 . S
C603 C605 1.415 . S
C604 C603 1.355 . S
C604 C606 1.419 . S
C605 C600 1.425 . S
C605 C602 1.409 . S
C605 C603 1.415 . S
C606 H596 0.930 . S
C606 C604 1.419 . S
C606 C607 1.362 . S
C607 H597 0.930 . S
C607 C600 1.409 . S
C607 C606 1.362 . S
H608 C614 0.930 . S
H609 C617 0.930 . S
H610 C618 0.930 . S
H611 C619 0.930 . S
H612 C622 0.930 . S
H613 C623 0.930 . S
C614 H608 0.930 . S
C614 C615 1.355 . S
C614 C616 1.415 . S
C615 C614 1.355 . S
C615 C617 1.419 . S
C616 C614 1.415 . S
C616 C621 1.425 . S
C616 C623 1.409 . S
C617 H609 0.930 . S
C617 C615 1.419 . S
C617 C618 1.362 . S
C618 H610 0.930 . S
C618 C617 1.362 . S
C618 C621 1.409 . S
C619 H611 0.930 . S
C619 C620 1.355 . S
C619 C621 1.415 . S
C620 C619 1.355 . S
C620 C622 1.419 . S
C621 C616 1.425 . S
C621 C618 1.409 . S
C621 C619 1.415 . S
C622 H612 0.930 . S
C622 C620 1.419 . S
C622 C623 1.362 . S
C623 H613 0.930 . S
C623 C616 1.409 . S
C623 C622 1.362 . S
C247 C11 1.456 . S
C252 C195 1.569 . S
C268 C159 1.526 . S
C263 C30 1.488 . S
C284 C182 1.568 . S
C279 C49 1.401 . S
C300 C170 1.570 . S
C295 C68 1.418 . S
C316 C239 1.529 . S
C311 C87 1.458 . S
C332 C203 1.561 . S
C327 C106 1.501 . S
C343 C125 1.348 . S
C348 C226 1.549 . S
C364 C214 1.570 . S
C359 C144 1.417 . S
C375 C2 1.544 . S
C380 C236 1.587 . S
C396 C206 1.590 . S
C391 C21 1.523 . S
C407 C40 1.541 . S
C412 C225 1.619 . S
C423 C59 1.574 . S
C428 C211 1.607 . S
C444 C192 1.593 . S
C439 C78 1.513 . S
C455 C97 1.524 . S
C460 C162 1.589 . S
C476 C181 1.596 . S
C471 C116 1.595 . S
C492 C167 1.620 . S
C487 C135 1.534 . S
C508 C217 1.553 . S
C503 C6 1.565 . S
C524 C233 1.555 . S
C519 C25 1.563 . S
C535 C44 1.539 . S
C540 C204 1.530 . S
C556 C228 1.539 . S
C551 C63 1.507 . S
C572 C173 1.574 . S
C567 C82 1.548 . S
C583 C101 1.548 . S
C588 C189 1.573 . S
C599 C120 1.524 . S
C604 C160 1.534 . S
C615 C139 1.519 . S
C620 C184 1.537 . S
