# Generated by pormake.
# Topology pyr, (3,6)-cn, num edge types: 1
# Building blocks:
#     Node 0, Type 0, BuildingBlock: BELTOD_clean_linker_0, # of connection points: 3
#     Node 1, Type 0, BuildingBlock: BELTOD_clean_linker_0, # of connection points: 3
#     Node 2, Type 0, BuildingBlock: BELTOD_clean_linker_0, # of connection points: 3
#     Node 3, Type 0, BuildingBlock: BELTOD_clean_linker_0, # of connection points: 3
#     Node 4, Type 0, BuildingBlock: BELTOD_clean_linker_0, # of connection points: 3
#     Node 5, Type 0, BuildingBlock: BELTOD_clean_linker_0, # of connection points: 3
#     Node 6, Type 0, BuildingBlock: BELTOD_clean_linker_0, # of connection points: 3
#     Node 7, Type 0, BuildingBlock: BELTOD_clean_linker_0, # of connection points: 3
#     Node 8, Type 1, BuildingBlock: INOVEN_clean_sbu_0, # of connection points: 6
#     Node 9, Type 1, BuildingBlock: INOVEN_clean_sbu_0, # of connection points: 6
#     Node 10, Type 1, BuildingBlock: INOVEN_clean_sbu_0, # of connection points: 6
#     Node 11, Type 1, BuildingBlock: INOVEN_clean_sbu_0, # of connection points: 6
#     Edge 12, Type (0, 1), None
#     Edge 13, Type (0, 1), None
#     Edge 14, Type (0, 1), None
#     Edge 15, Type (0, 1), None
#     Edge 16, Type (0, 1), None
#     Edge 17, Type (0, 1), None
#     Edge 18, Type (0, 1), None
#     Edge 19, Type (0, 1), None
#     Edge 20, Type (0, 1), None
#     Edge 21, Type (0, 1), None
#     Edge 22, Type (0, 1), None
#     Edge 23, Type (0, 1), None
#     Edge 24, Type (0, 1), None
#     Edge 25, Type (0, 1), None
#     Edge 26, Type (0, 1), None
#     Edge 27, Type (0, 1), None
#     Edge 28, Type (0, 1), None
#     Edge 29, Type (0, 1), None
#     Edge 30, Type (0, 1), None
#     Edge 31, Type (0, 1), None
#     Edge 32, Type (0, 1), None
#     Edge 33, Type (0, 1), None
#     Edge 34, Type (0, 1), None
#     Edge 35, Type (0, 1), None
# Relax obj value: 0.272
# Max RMSD: 0.175
# Mean RMSD: 0.085
data_MOF--net-pyr--node1-INOVEN_clean_sbu_0--node2-BELTOD_clean_linker_0--edge1-none
_symmetry_space_group_name_H-M    P1
_symmetry_Int_Tables_number       1
_symmetry_cell_setting            triclinic
loop_
_symmetry_equiv_pos_as_xyz
'x, y, z'
_cell_length_a     22.792367
_cell_length_b     24.151897
_cell_length_c     20.35411
_cell_angle_alpha  90.803986
_cell_angle_beta   88.004934
_cell_angle_gamma 106.17091
loop_
_atom_site_label
_atom_site_type_symbol
_atom_site_fract_x
_atom_site_fract_y
_atom_site_fract_z
_atom_type_partial_charge
P0 P 0.4551 0.37898 0.34444 0.0
H1 H 0.566 0.35768 0.2837 0.0
H2 H 0.59139 0.26927 0.24931 0.0
H3 H 0.42016 0.16799 0.3362 0.0
H4 H 0.39463 0.25507 0.36844 0.0
H5 H 0.42929 0.47641 0.27806 0.0
H6 H 0.33287 0.48785 0.23979 0.0
H7 H 0.25187 0.30411 0.25643 0.0
H8 H 0.3476 0.29296 0.2925 0.0
H9 H 0.4362 0.3061 0.46555 0.0
H10 H 0.38956 0.45749 0.40347 0.0
O11 O 0.51526 0.43694 0.33729 0.0
H12 H 0.33308 0.2675 0.51235 0.0
H13 H 0.28643 0.41931 0.44993 0.0
C14 C 0.4784 0.31371 0.32903 0.0
C15 C 0.53448 0.31643 0.29651 0.0
C16 C 0.54922 0.26572 0.27732 0.0
C17 C 0.50783 0.21136 0.29005 0.0
C18 C 0.45329 0.20894 0.32564 0.0
C19 C 0.43857 0.25934 0.34423 0.0
C20 C 0.39656 0.38374 0.28829 0.0
C21 C 0.3917 0.43824 0.27053 0.0
C22 C 0.336 0.44488 0.24993 0.0
C23 C 0.2841 0.397 0.24626 0.0
C24 C 0.29073 0.34199 0.25838 0.0
C25 C 0.34622 0.33552 0.2791 0.0
C26 C 0.41687 0.38056 0.42344 0.0
C27 C 0.40464 0.33217 0.46406 0.0
C28 C 0.34592 0.31048 0.49169 0.0
C29 C 0.30126 0.33906 0.48076 0.0
C30 C 0.31971 0.39566 0.45707 0.0
C31 C 0.37876 0.41725 0.43005 0.0
P32 P 0.35996 1.0453 0.67035 0.0
H33 H 0.43031 1.05829 0.78889 0.0
H34 H 0.40158 1.02957 0.90317 0.0
H35 H 0.21309 0.96223 0.85065 0.0
H36 H 0.24203 0.98806 0.73608 0.0
H37 H 0.48205 1.03447 0.63784 0.0
H38 H 0.52113 0.95042 0.64817 0.0
H39 H 0.33628 0.84041 0.66406 0.0
H40 H 0.29729 0.92408 0.65323 0.0
H41 H 0.28598 0.12089 0.70207 0.0
H42 H 0.28657 0.98796 0.55831 0.0
O43 O 0.41576 0.10692 0.66529 0.0
H44 H 0.18369 0.12067 0.67119 0.0
H45 H 0.18411 0.98907 0.5253 0.0
C46 C 0.33805 1.02798 0.75472 0.0
C47 C 0.38285 1.03769 0.80199 0.0
C48 C 0.36654 1.0206 0.86673 0.0
C49 C 0.3052 0.99381 0.88477 0.0
C50 C 0.26052 0.98296 0.83736 0.0
C51 C 0.2771 0.99876 0.77229 0.0
C52 C 0.38673 0.98541 0.64387 0.0
C53 C 0.44988 0.99199 0.63992 0.0
C54 C 0.47225 0.94411 0.64638 0.0
C55 C 0.43149 0.88957 0.65788 0.0
C56 C 0.36837 0.88235 0.65561 0.0
C57 C 0.34612 0.93002 0.6484 0.0
C58 C 0.29332 1.05409 0.63287 0.0
C59 C 0.26444 0.09248 0.66282 0.0
C60 C 0.20564 0.09158 0.646 0.0
C61 C 0.1757 1.05359 0.59726 0.0
C62 C 0.20618 1.01781 0.56402 0.0
C63 C 0.26472 1.0176 0.58228 0.0
P64 P 0.67309 0.3708 0.92642 0.0
H65 H 0.72905 0.34547 1.04611 0.0
H66 H 0.81863 0.39844 1.10577 0.0
H67 H 0.83339 0.54775 0.98555 0.0
H68 H 0.74427 0.49409 0.92507 0.0
H69 H 0.67758 0.25075 0.93957 0.0
H70 H 0.61794 0.16798 1.00321 0.0
H71 H 0.5011 0.26878 1.07852 0.0
H72 H 0.5613 0.35228 1.01399 0.0
H73 H 0.61983 0.47138 0.94315 0.0
H74 H 0.64328 0.35648 0.787 0.0
O75 O 0.71749 0.34402 0.87555 0.0
H76 H 0.57937 0.527 0.86417 0.0
H77 H 0.60444 0.41172 0.70857 0.0
C78 C 0.728 0.41596 0.98196 0.0
C79 C 0.75009 0.3902 1.03373 0.0
C80 C 0.80203 0.42056 1.0677 0.0
C81 C 0.83358 0.47772 1.05093 0.0
C82 C 0.81004 0.50422 1.00073 0.0
C83 C 0.75846 0.4735 0.96615 0.0
C84 C 0.6235 0.30813 0.97031 0.0
C85 C 0.63862 0.25531 0.9688 0.0
C86 C 0.60459 0.20765 1.0058 0.0
C87 C 0.55439 0.21123 1.04599 0.0
C88 C 0.53922 0.26416 1.04778 0.0
C89 C 0.57348 0.31206 1.01062 0.0
C90 C 0.63545 0.4096 0.87162 0.0
C91 C 0.61608 0.45777 0.89219 0.0
C92 C 0.59324 0.48988 0.84661 0.0
C93 C 0.58926 0.47476 0.77915 0.0
C94 C 0.60729 0.42562 0.75948 0.0
C95 C 0.62948 0.39353 0.80487 0.0
P96 P 0.82815 0.73442 0.39601 0.0
H97 H 0.83285 0.85496 0.36405 0.0
H98 H 0.88643 0.94876 0.41032 0.0
H99 H 0.97642 0.86406 0.54342 0.0
H100 H 0.92424 0.77035 0.49534 0.0
H101 H 0.80936 0.60815 0.38568 0.0
H102 H 0.85606 0.54834 0.3152 0.0
H103 H 0.98831 0.70087 0.24095 0.0
H104 H 0.94057 0.76097 0.31135 0.0
H105 H 0.70921 0.64871 0.38427 0.0
H106 H 0.81905 0.73464 0.54366 0.0
O107 O 0.78727 0.74911 0.33553 0.0
H108 H 0.62664 0.60354 0.46301 0.0
H109 H 0.73662 0.6894 0.62248 0.0
C110 C 0.87381 0.80471 0.42632 0.0
C111 C 0.86482 0.85625 0.40247 0.0
C112 C 0.89574 0.91037 0.42892 0.0
C113 C 0.93581 0.91448 0.48086 0.0
C114 C 0.94582 0.86289 0.50357 0.0
C115 C 0.91584 0.80894 0.47617 0.0
C116 C 0.87206 0.68954 0.35578 0.0
C117 C 0.84912 0.62909 0.35549 0.0
C118 C 0.87572 0.59466 0.31437 0.0
C119 C 0.92595 0.61952 0.27172 0.0
C120 C 0.94968 0.68002 0.27283 0.0
C121 C 0.92278 0.71451 0.31389 0.0
C122 C 0.77089 0.69578 0.4573 0.0
C123 C 0.71611 0.65754 0.43627 0.0
C124 C 0.66862 0.63155 0.48141 0.0
C125 C 0.67457 0.64287 0.54923 0.0
C126 C 0.73031 0.67951 0.57066 0.0
C127 C 0.77786 0.70567 0.52531 0.0
P128 P 0.64091 0.86569 0.89399 0.0
H129 H 0.54579 0.91668 0.85726 0.0
H130 H 0.49781 0.97726 0.92583 0.0
H131 H 0.54781 0.90346 1.0996 0.0
H132 H 0.59781 0.84551 1.03206 0.0
H133 H 0.7726 0.91576 0.90413 0.0
H134 H 0.8524 0.87955 0.94693 0.0
H135 H 0.71623 0.73239 1.02814 0.0
H136 H 0.63552 0.76935 0.98489 0.0
H137 H 0.61635 0.88289 0.75567 0.0
H138 H 0.62992 0.73962 0.87003 0.0
O139 O 0.67613 0.93113 0.8643 0.0
H140 H 0.6961 0.87038 0.68108 0.0
H141 H 0.71241 0.7273 0.7971 0.0
C142 C 0.57636 0.87717 0.93943 0.0
C143 C 0.54339 0.91106 0.9101 0.0
C144 C 0.51607 0.94583 0.94913 0.0
C145 C 0.52004 0.94519 1.01758 0.0
C146 C 0.5444 0.90452 1.04669 0.0
C147 C 0.57283 0.87093 1.00785 0.0
C148 C 0.69756 0.84577 0.94176 0.0
C149 C 0.75926 0.87669 0.93294 0.0
C150 C 0.80531 0.85576 0.9575 0.0
C151 C 0.79089 0.80278 0.99061 0.0
C152 C 0.72893 0.77302 1.00212 0.0
C153 C 0.6827 0.7945 0.97815 0.0
C154 C 0.62536 0.81825 0.82362 0.0
C155 C 0.63409 0.84627 0.76289 0.0
C156 C 0.68069 0.83914 0.72003 0.0
C157 C 0.71555 0.80197 0.7377 0.0
C158 C 0.68984 0.75971 0.78531 0.0
C159 C 0.64267 0.76703 0.82738 0.0
P160 P 0.93775 0.32592 0.48494 0.0
H161 H 0.91431 0.43824 0.50385 0.0
H162 H 0.81897 0.46585 0.50706 0.0
H163 H 0.71658 0.28579 0.5157 0.0
H164 H 0.81075 0.25891 0.50769 0.0
H165 H 0.88806 0.2064 0.43666 0.0
H166 H 0.87458 0.11271 0.48841 0.0
H167 H 0.93672 0.19853 0.67113 0.0
H168 H 0.95363 0.2921 0.61805 0.0
H169 H 1.00282 0.26761 0.39135 0.0
H170 H 0.88704 0.38088 0.38049 0.0
O171 O 0.99966 0.37325 0.51379 0.0
H172 H 0.97209 0.2304 0.28179 0.0
H173 H 0.85348 0.34215 0.27489 0.0
C174 C 0.8699 0.34667 0.50664 0.0
C175 C 0.87126 0.40495 0.50808 0.0
C176 C 0.81665 0.42054 0.50961 0.0
C177 C 0.76 0.37789 0.51083 0.0
C178 C 0.75923 0.3197 0.513 0.0
C179 C 0.81355 0.30427 0.5099 0.0
C180 C 0.92664 0.25631 0.52223 0.0
C181 C 0.90041 0.20523 0.48733 0.0
C182 C 0.8908 0.15162 0.51741 0.0
C183 C 0.90542 0.14842 0.58337 0.0
C184 C 0.9256 0.19965 0.61996 0.0
C185 C 0.93657 0.25316 0.58938 0.0
C186 C 0.94279 0.32288 0.39641 0.0
C187 C 0.97222 0.2857 0.36482 0.0
C188 C 0.9543 0.26433 0.30221 0.0
C189 C 0.90635 0.2797 0.27188 0.0
C190 C 0.8884 0.32704 0.29751 0.0
C191 C 0.90695 0.34876 0.35938 0.0
P192 P 0.38339 0.73415 0.29213 0.0
H193 H 0.31569 0.77368 0.18978 0.0
H194 H 0.2169 0.72942 0.13989 0.0
H195 H 0.1799 0.59279 0.28264 0.0
H196 H 0.27697 0.63774 0.33331 0.0
H197 H 0.51063 0.79794 0.27448 0.0
H198 H 0.56324 0.89672 0.24495 0.0
H199 H 0.39456 0.94362 0.27031 0.0
H200 H 0.3406 0.84222 0.29727 0.0
H201 H 0.382 0.61589 0.32005 0.0
H202 H 0.41979 0.77535 0.42918 0.0
O203 O 0.41944 0.70649 0.23294 0.0
H204 H 0.41139 0.56818 0.41257 0.0
H205 H 0.44992 0.72727 0.52351 0.0
C206 C 0.30394 0.71032 0.26685 0.0
C207 C 0.28548 0.73525 0.21187 0.0
C208 C 0.22913 0.70934 0.18261 0.0
C209 C 0.19054 0.65672 0.20628 0.0
C210 C 0.20866 0.63254 0.26203 0.0
C211 C 0.26432 0.65893 0.29186 0.0
C212 C 0.42122 0.8117 0.28688 0.0
C213 C 0.48456 0.82922 0.27445 0.0
C214 C 0.51479 0.88621 0.25735 0.0
C215 C 0.48314 0.92846 0.2534 0.0
C216 C 0.42031 0.91227 0.27127 0.0
C217 C 0.38944 0.85418 0.28721 0.0
C218 C 0.39838 0.69945 0.36698 0.0
C219 C 0.39591 0.64069 0.36442 0.0
C220 C 0.41306 0.61326 0.41781 0.0
C221 C 0.43355 0.64357 0.47612 0.0
C222 C 0.43429 0.70226 0.47972 0.0
C223 C 0.41701 0.72993 0.42566 0.0
P224 P 0.17891 0.38879 0.83902 0.0
H225 H 0.09649 0.36593 0.72327 0.0
H226 H 0.05531 0.27899 0.6566 0.0
H227 H 0.11898 0.17792 0.79609 0.0
H228 H 0.16372 0.26471 0.85948 0.0
H229 H 0.30672 0.44995 0.86561 0.0
H230 H 0.39612 0.4952 0.79529 0.0
H231 H 0.2832 0.46181 0.62546 0.0
H232 H 0.19398 0.41784 0.69568 0.0
H233 H 0.06594 0.36707 0.92338 0.0
H234 H 0.20766 0.51536 0.85583 0.0
O235 O 0.2114 0.36481 0.90077 0.0
H236 H 0.02596 0.42905 0.99956 0.0
H237 H 0.16852 0.57692 0.93171 0.0
C238 C 0.13472 0.32318 0.79646 0.0
C239 C 0.10217 0.32531 0.73944 0.0
C240 C 0.07823 0.27518 0.70128 0.0
C241 C 0.08394 0.22095 0.72042 0.0
C242 C 0.11363 0.21854 0.77931 0.0
C243 C 0.13915 0.26875 0.81612 0.0
C244 C 0.24313 0.42861 0.78633 0.0
C245 C 0.30081 0.45257 0.81332 0.0
C246 C 0.35212 0.47873 0.77301 0.0
C247 C 0.34707 0.48151 0.70456 0.0
C248 C 0.28888 0.45989 0.67793 0.0
C249 C 0.2375 0.43425 0.71837 0.0
C250 C 0.13891 0.43618 0.88152 0.0
C251 C 0.08752 0.41309 0.92332 0.0
C252 C 0.06518 0.44861 0.96783 0.0
C253 C 0.09414 0.50829 0.97258 0.0
C254 C 0.14485 0.53135 0.92988 0.0
C255 C 0.16697 0.49594 0.88546 0.0
Gd256 Gd 0.02971 0.10227 0.53427 0.0
Gd257 Gd 0.98994 1.03742 0.65572 0.0
C258 C 0.05948 0.16734 0.67963 0.0
C259 C 0.06375 0.18317 0.4488 0.0
C260 C 0.12066 0.23105 0.44911 0.0
C261 C 0.17018 0.22743 0.40818 0.0
C262 C 0.12981 0.27485 0.49758 0.0
C263 C 0.23826 0.30404 0.47019 0.0
C264 C 0.18838 0.3114 0.5078 0.0
C265 C 0.22842 0.26323 0.41898 0.0
C266 C 0.11453 1.0545 0.57868 0.0
C267 C 0.96346 0.97075 0.51531 0.0
C268 C 0.95266 0.95387 0.73808 0.0
C269 C 0.8998 0.90285 0.73146 0.0
C270 C 0.86606 0.89497 0.67389 0.0
C271 C 0.87813 0.86611 0.78472 0.0
C272 C 0.78325 0.82284 0.72802 0.0
C273 C 0.82046 0.82608 0.78292 0.0
C274 C 0.80886 0.85458 0.6717 0.0
C275 C 0.91111 0.09371 0.60969 0.0
O276 O 0.04912 0.17181 0.61622 0.0
O277 O 0.04949 0.11566 0.70626 0.0
O278 O 0.07113 0.13183 0.43893 0.0
O279 O 0.02382 0.18365 0.49614 0.0
O280 O 0.10146 1.05568 0.51759 0.0
O281 O 0.08219 0.07868 0.61375 0.0
O282 O 0.9811 0.96897 0.57599 0.0
O283 O 0.96784 1.02144 0.48844 0.0
O284 O 0.93871 1.00265 0.74469 0.0
O285 O 0.99813 0.95725 0.69599 0.0
O286 O 0.92096 0.08856 0.67119 0.0
O287 O 0.9394 1.06424 0.57719 0.0
H288 H 0.16455 0.19464 0.3702 0.0
H289 H 0.09242 0.2792 0.52967 0.0
H290 H 0.19506 0.34368 0.54641 0.0
H291 H 0.26631 0.25815 0.38811 0.0
H292 H 0.88141 0.92312 0.63228 0.0
H293 H 0.90363 0.8712 0.8294 0.0
H294 H 0.80285 0.80224 0.82733 0.0
H295 H 0.78223 0.85251 0.62821 0.0
Gd296 Gd 0.58262 0.08509 0.16348 0.0
Gd297 Gd 0.45093 1.06656 0.15638 0.0
C298 C 0.51539 0.15858 0.25681 0.0
C299 C 0.70089 0.11533 0.16402 0.0
C300 C 0.75766 0.15804 0.18235 0.0
C301 C 0.79824 0.13927 0.22045 0.0
C302 C 0.77258 0.21599 0.16297 0.0
C303 C 0.86337 0.23751 0.22952 0.0
C304 C 0.8254 0.2554 0.18601 0.0
C305 C 0.85029 0.17838 0.24397 0.0
C306 C 0.51671 0.98574 0.22379 0.0
C307 C 0.51682 0.99534 1.05721 0.0
C308 C 0.33398 1.02659 0.14701 0.0
C309 C 0.30108 0.99778 1.0896 0.0
C310 C 0.26467 1.0257 1.05621 0.0
C311 C 0.32124 0.95429 1.05705 0.0
C312 C 0.28855 0.98263 0.95441 0.0
C313 C 0.31587 0.94746 0.98936 0.0
C314 C 0.25843 1.01813 0.98848 0.0
C315 C 0.5185 0.16054 1.08622 0.0
O316 O 0.5656 0.16037 0.22146 0.0
O317 O 0.46661 0.11448 0.25111 0.0
O318 O 0.66605 0.08734 0.2121 0.0
O319 O 0.67 0.127 0.11568 0.0
O320 O 0.56706 0.99233 0.18987 0.0
O321 O 0.50378 1.03371 0.22781 0.0
O322 O 0.46496 0.99745 1.08613 0.0
O323 O 0.56915 1.0317 1.07243 0.0
O324 O 0.36328 0.08072 0.13743 0.0
O325 O 0.36718 0.99894 0.17646 0.0
O326 O 0.46913 0.15891 0.12046 0.0
O327 O 0.52861 0.11167 1.0885 0.0
H328 H 0.7882 0.09442 0.23468 0.0
H329 H 0.74259 0.23121 0.13208 0.0
H330 H 0.83458 0.30031 0.17262 0.0
H331 H 0.87729 0.16238 0.27779 0.0
H332 H 0.24821 1.05897 1.0805 0.0
H333 H 0.34812 0.93085 1.08184 0.0
H334 H 0.33876 0.91938 0.96359 0.0
H335 H 0.23688 1.04538 0.96195 0.0
Gd336 Gd 0.50589 0.5137 0.58635 0.0
Gd337 Gd 0.51884 0.60934 0.67388 0.0
C338 C 0.5652 0.50832 0.72943 0.0
C339 C 0.53283 0.43683 0.5119 0.0
C340 C 0.59051 0.42182 0.50887 0.0
C341 C 0.59637 0.37301 0.4747 0.0
C342 C 0.64054 0.45716 0.54157 0.0
C343 C 0.70181 0.3936 0.50886 0.0
C344 C 0.69545 0.44288 0.54225 0.0
C345 C 0.65194 0.35919 0.47418 0.0
C346 C 0.40229 0.50333 0.66057 0.0
C347 C 0.45739 0.61398 0.5297 0.0
C348 C 0.50016 0.69284 0.74387 0.0
C349 C 0.49008 0.7477 0.72556 0.0
C350 C 0.45077 0.77042 0.76483 0.0
C351 C 0.51315 0.77371 0.66511 0.0
C352 C 0.45388 0.84213 0.68145 0.0
C353 C 0.49558 0.82118 0.64345 0.0
C354 C 0.43261 0.81727 0.74283 0.0
C355 C 0.62155 0.61969 0.59627 0.0
O356 O 0.56604 0.49459 0.66623 0.0
O357 O 0.54123 0.54999 0.74813 0.0
O358 O 0.50102 0.424 0.567 0.0
O359 O 0.53717 0.48896 0.49201 0.0
O360 O 0.40328 0.48902 0.59894 0.0
O361 O 0.45638 0.52087 0.68055 0.0
O362 O 0.47178 0.63891 0.58775 0.0
O363 O 0.4672 0.56378 0.51634 0.0
O364 O 0.55466 0.68703 0.73062 0.0
O365 O 0.45633 0.64745 0.7278 0.0
O366 O 0.62202 0.63307 0.65826 0.0
O367 O 0.5668 0.6022 0.57873 0.0
H368 H 0.55823 0.34575 0.44869 0.0
H369 H 0.63711 0.49584 0.56698 0.0
H370 H 0.73246 0.47004 0.56988 0.0
H371 H 0.6558 0.32169 0.44649 0.0
H372 H 0.43239 0.75061 0.81135 0.0
H373 H 0.54314 0.75624 0.6338 0.0
H374 H 0.51265 0.8401 0.59617 0.0
H375 H 0.40118 0.83364 0.77333 0.0
Gd376 Gd 1.01211 0.51344 0.16161 0.0
Gd377 Gd 1.01567 0.6184 1.08714 0.0
C378 C 0.13171 0.62699 0.17396 0.0
C379 C 0.04397 0.42547 0.20294 0.0
C380 C 0.10376 0.41658 0.21797 0.0
C381 C 0.14558 0.45594 0.25711 0.0
C382 C 0.12145 0.37073 0.18815 0.0
C383 C 0.2224 0.40447 0.23502 0.0
C384 C 0.18005 0.36466 0.19659 0.0
C385 C 0.20423 0.45001 0.26549 0.0
C386 C 0.95261 0.58208 0.22676 0.0
C387 C 0.89346 0.50732 1.08112 0.0
C388 C 0.99281 0.70959 1.04115 0.0
C389 C 0.93973 0.73165 1.03044 0.0
C390 C 0.88423 0.6958 1.00833 0.0
C391 C 0.94484 0.78997 1.04314 0.0
C392 C 0.84066 0.77735 1.00849 0.0
C393 C 0.89588 0.81261 1.03236 0.0
C394 C 0.83514 0.71845 0.99736 0.0
C395 C 0.07209 0.54671 1.02099 0.0
O396 O 0.10728 0.57105 0.18344 0.0
O397 O 0.10377 0.65691 0.13888 0.0
O398 O 0.02262 0.45921 0.24222 0.0
O399 O 0.0369 0.43452 0.14098 0.0
O400 O 0.93504 0.52593 0.22799 0.0
O401 O 1.00245 0.59902 0.19344 0.0
O402 O 0.9172 0.56375 1.07385 0.0
O403 O 0.92376 0.47603 0.11082 0.0
O404 O 0.9992 0.66683 1.00408 0.0
O405 O 1.00531 0.70418 1.1024 0.0
O406 O 0.09196 0.60267 1.02086 0.0
O407 O 0.02269 0.53197 1.05498 0.0
H408 H 0.13317 0.49161 0.28083 0.0
H409 H 0.09019 0.3401 0.15728 0.0
H410 H 0.19248 0.32923 0.17219 0.0
H411 H 0.23504 0.48073 0.29664 0.0
H412 H 0.87911 0.65058 0.99863 0.0
H413 H 0.98707 0.81823 1.06091 0.0
H414 H 0.90147 0.85793 1.04226 0.0
H415 H 0.7936 0.6902 0.97818 0.0
loop_
_geom_bond_atom_site_label_1
_geom_bond_atom_site_label_2
_geom_bond_distance
_geom_bond_site_symmetry_2
_ccdc_geom_bond_type
P0 O11 1.490 . S
P0 C14 1.812 . S
P0 C20 1.803 . S
P0 C26 1.819 . S
H1 C15 0.941 . S
H2 C16 0.939 . S
H3 C18 0.940 . S
H4 C19 0.940 . S
H5 C21 0.939 . S
H6 C22 0.942 . S
H7 C24 0.940 . S
H8 C25 0.939 . S
H9 C27 0.941 . S
H10 C31 0.939 . S
O11 P0 1.490 . S
H12 C28 0.939 . S
H13 C30 0.940 . S
C14 P0 1.812 . S
C14 C15 1.389 . S
C14 C19 1.391 . S
C15 H1 0.941 . S
C15 C14 1.389 . S
C15 C16 1.397 . S
C16 H2 0.939 . S
C16 C15 1.397 . S
C16 C17 1.378 . S
C17 C16 1.378 . S
C17 C18 1.378 . S
C18 H3 0.940 . S
C18 C17 1.378 . S
C18 C19 1.396 . S
C19 H4 0.940 . S
C19 C14 1.391 . S
C19 C18 1.396 . S
C20 P0 1.803 . S
C20 C21 1.378 . S
C20 C25 1.400 . S
C21 H5 0.939 . S
C21 C20 1.378 . S
C21 C22 1.361 . S
C22 H6 0.942 . S
C22 C21 1.361 . S
C22 C23 1.369 . S
C23 C22 1.369 . S
C23 C24 1.404 . S
C24 H7 0.940 . S
C24 C23 1.404 . S
C24 C25 1.389 . S
C25 H8 0.939 . S
C25 C20 1.400 . S
C25 C24 1.389 . S
C26 P0 1.819 . S
C26 C27 1.391 . S
C26 C31 1.391 . S
C27 H9 0.941 . S
C27 C26 1.391 . S
C27 C28 1.396 . S
C28 H12 0.939 . S
C28 C27 1.396 . S
C28 C29 1.397 . S
C29 C28 1.397 . S
C29 C30 1.385 . S
C30 H13 0.940 . S
C30 C29 1.385 . S
C30 C31 1.388 . S
C31 H10 0.939 . S
C31 C26 1.391 . S
C31 C30 1.388 . S
P32 O43 1.490 . S
P32 C46 1.812 . S
P32 C52 1.803 . S
P32 C58 1.819 . S
H33 C47 0.941 . S
H34 C48 0.939 . S
H35 C50 0.940 . S
H36 C51 0.940 . S
H37 C53 0.939 . S
H38 C54 0.942 . S
H39 C56 0.940 . S
H40 C57 0.939 . S
H41 C59 0.941 . S
H42 C63 0.939 . S
O43 P32 1.490 . S
H44 C60 0.939 . S
H45 C62 0.940 . S
C46 P32 1.812 . S
C46 C47 1.389 . S
C46 C51 1.391 . S
C47 H33 0.941 . S
C47 C46 1.389 . S
C47 C48 1.397 . S
C48 H34 0.939 . S
C48 C47 1.397 . S
C48 C49 1.378 . S
C49 C48 1.378 . S
C49 C50 1.378 . S
C50 H35 0.940 . S
C50 C49 1.378 . S
C50 C51 1.396 . S
C51 H36 0.940 . S
C51 C46 1.391 . S
C51 C50 1.396 . S
C52 P32 1.803 . S
C52 C53 1.378 . S
C52 C57 1.400 . S
C53 H37 0.939 . S
C53 C52 1.378 . S
C53 C54 1.361 . S
C54 H38 0.942 . S
C54 C53 1.361 . S
C54 C55 1.369 . S
C55 C54 1.369 . S
C55 C56 1.404 . S
C56 H39 0.940 . S
C56 C55 1.404 . S
C56 C57 1.389 . S
C57 H40 0.939 . S
C57 C52 1.400 . S
C57 C56 1.389 . S
C58 P32 1.819 . S
C58 C59 1.391 . S
C58 C63 1.391 . S
C59 H41 0.941 . S
C59 C58 1.391 . S
C59 C60 1.396 . S
C60 H44 0.939 . S
C60 C59 1.396 . S
C60 C61 1.397 . S
C61 C60 1.397 . S
C61 C62 1.385 . S
C62 H45 0.940 . S
C62 C61 1.385 . S
C62 C63 1.388 . S
C63 H42 0.939 . S
C63 C58 1.391 . S
C63 C62 1.388 . S
P64 O75 1.490 . S
P64 C78 1.812 . S
P64 C84 1.803 . S
P64 C90 1.819 . S
H65 C79 0.941 . S
H66 C80 0.939 . S
H67 C82 0.940 . S
H68 C83 0.940 . S
H69 C85 0.939 . S
H70 C86 0.942 . S
H71 C88 0.940 . S
H72 C89 0.939 . S
H73 C91 0.941 . S
H74 C95 0.939 . S
O75 P64 1.490 . S
H76 C92 0.939 . S
H77 C94 0.940 . S
C78 P64 1.812 . S
C78 C79 1.389 . S
C78 C83 1.391 . S
C79 H65 0.941 . S
C79 C78 1.389 . S
C79 C80 1.397 . S
C80 H66 0.939 . S
C80 C79 1.397 . S
C80 C81 1.378 . S
C81 C80 1.378 . S
C81 C82 1.378 . S
C82 H67 0.940 . S
C82 C81 1.378 . S
C82 C83 1.396 . S
C83 H68 0.940 . S
C83 C78 1.391 . S
C83 C82 1.396 . S
C84 P64 1.803 . S
C84 C85 1.378 . S
C84 C89 1.400 . S
C85 H69 0.939 . S
C85 C84 1.378 . S
C85 C86 1.361 . S
C86 H70 0.942 . S
C86 C85 1.361 . S
C86 C87 1.369 . S
C87 C86 1.369 . S
C87 C88 1.404 . S
C88 H71 0.940 . S
C88 C87 1.404 . S
C88 C89 1.389 . S
C89 H72 0.939 . S
C89 C84 1.400 . S
C89 C88 1.389 . S
C90 P64 1.819 . S
C90 C91 1.391 . S
C90 C95 1.391 . S
C91 H73 0.941 . S
C91 C90 1.391 . S
C91 C92 1.396 . S
C92 H76 0.939 . S
C92 C91 1.396 . S
C92 C93 1.397 . S
C93 C92 1.397 . S
C93 C94 1.385 . S
C94 H77 0.940 . S
C94 C93 1.385 . S
C94 C95 1.388 . S
C95 H74 0.939 . S
C95 C90 1.391 . S
C95 C94 1.388 . S
P96 O107 1.490 . S
P96 C110 1.812 . S
P96 C116 1.803 . S
P96 C122 1.819 . S
H97 C111 0.941 . S
H98 C112 0.939 . S
H99 C114 0.940 . S
H100 C115 0.940 . S
H101 C117 0.939 . S
H102 C118 0.942 . S
H103 C120 0.940 . S
H104 C121 0.939 . S
H105 C123 0.941 . S
H106 C127 0.939 . S
O107 P96 1.490 . S
H108 C124 0.939 . S
H109 C126 0.940 . S
C110 P96 1.812 . S
C110 C111 1.389 . S
C110 C115 1.391 . S
C111 H97 0.941 . S
C111 C110 1.389 . S
C111 C112 1.397 . S
C112 H98 0.939 . S
C112 C111 1.397 . S
C112 C113 1.378 . S
C113 C112 1.378 . S
C113 C114 1.378 . S
C114 H99 0.940 . S
C114 C113 1.378 . S
C114 C115 1.396 . S
C115 H100 0.940 . S
C115 C110 1.391 . S
C115 C114 1.396 . S
C116 P96 1.803 . S
C116 C117 1.378 . S
C116 C121 1.400 . S
C117 H101 0.939 . S
C117 C116 1.378 . S
C117 C118 1.361 . S
C118 H102 0.942 . S
C118 C117 1.361 . S
C118 C119 1.369 . S
C119 C118 1.369 . S
C119 C120 1.404 . S
C120 H103 0.940 . S
C120 C119 1.404 . S
C120 C121 1.389 . S
C121 H104 0.939 . S
C121 C116 1.400 . S
C121 C120 1.389 . S
C122 P96 1.819 . S
C122 C123 1.391 . S
C122 C127 1.391 . S
C123 H105 0.941 . S
C123 C122 1.391 . S
C123 C124 1.396 . S
C124 H108 0.939 . S
C124 C123 1.396 . S
C124 C125 1.397 . S
C125 C124 1.397 . S
C125 C126 1.385 . S
C126 H109 0.940 . S
C126 C125 1.385 . S
C126 C127 1.388 . S
C127 H106 0.939 . S
C127 C122 1.391 . S
C127 C126 1.388 . S
P128 O139 1.490 . S
P128 C142 1.812 . S
P128 C148 1.803 . S
P128 C154 1.819 . S
H129 C143 0.941 . S
H130 C144 0.939 . S
H131 C146 0.940 . S
H132 C147 0.940 . S
H133 C149 0.939 . S
H134 C150 0.942 . S
H135 C152 0.940 . S
H136 C153 0.939 . S
H137 C155 0.941 . S
H138 C159 0.939 . S
O139 P128 1.490 . S
H140 C156 0.939 . S
H141 C158 0.940 . S
C142 P128 1.812 . S
C142 C143 1.389 . S
C142 C147 1.391 . S
C143 H129 0.941 . S
C143 C142 1.389 . S
C143 C144 1.397 . S
C144 H130 0.939 . S
C144 C143 1.397 . S
C144 C145 1.378 . S
C145 C144 1.378 . S
C145 C146 1.378 . S
C146 H131 0.940 . S
C146 C145 1.378 . S
C146 C147 1.396 . S
C147 H132 0.940 . S
C147 C142 1.391 . S
C147 C146 1.396 . S
C148 P128 1.803 . S
C148 C149 1.378 . S
C148 C153 1.400 . S
C149 H133 0.939 . S
C149 C148 1.378 . S
C149 C150 1.361 . S
C150 H134 0.942 . S
C150 C149 1.361 . S
C150 C151 1.369 . S
C151 C150 1.369 . S
C151 C152 1.404 . S
C152 H135 0.940 . S
C152 C151 1.404 . S
C152 C153 1.389 . S
C153 H136 0.939 . S
C153 C148 1.400 . S
C153 C152 1.389 . S
C154 P128 1.819 . S
C154 C155 1.391 . S
C154 C159 1.391 . S
C155 H137 0.941 . S
C155 C154 1.391 . S
C155 C156 1.396 . S
C156 H140 0.939 . S
C156 C155 1.396 . S
C156 C157 1.397 . S
C157 C156 1.397 . S
C157 C158 1.385 . S
C158 H141 0.940 . S
C158 C157 1.385 . S
C158 C159 1.388 . S
C159 H138 0.939 . S
C159 C154 1.391 . S
C159 C158 1.388 . S
P160 O171 1.490 . S
P160 C174 1.812 . S
P160 C180 1.803 . S
P160 C186 1.819 . S
H161 C175 0.941 . S
H162 C176 0.939 . S
H163 C178 0.940 . S
H164 C179 0.940 . S
H165 C181 0.939 . S
H166 C182 0.942 . S
H167 C184 0.940 . S
H168 C185 0.939 . S
H169 C187 0.941 . S
H170 C191 0.939 . S
O171 P160 1.490 . S
H172 C188 0.939 . S
H173 C190 0.940 . S
C174 P160 1.812 . S
C174 C175 1.389 . S
C174 C179 1.391 . S
C175 H161 0.941 . S
C175 C174 1.389 . S
C175 C176 1.397 . S
C176 H162 0.939 . S
C176 C175 1.397 . S
C176 C177 1.378 . S
C177 C176 1.378 . S
C177 C178 1.378 . S
C178 H163 0.940 . S
C178 C177 1.378 . S
C178 C179 1.396 . S
C179 H164 0.940 . S
C179 C174 1.391 . S
C179 C178 1.396 . S
C180 P160 1.803 . S
C180 C181 1.378 1_655 S
C180 C185 1.400 . S
C181 H165 0.939 . S
C181 C180 1.378 1_455 S
C181 C182 1.361 . S
C182 H166 0.942 . S
C182 C181 1.361 . S
C182 C183 1.369 . S
C183 C182 1.369 . S
C183 C184 1.404 1_455 S
C184 H167 0.940 . S
C184 C183 1.404 1_655 S
C184 C185 1.389 . S
C185 H168 0.939 . S
C185 C180 1.400 . S
C185 C184 1.389 . S
C186 P160 1.819 . S
C186 C187 1.391 . S
C186 C191 1.391 . S
C187 H169 0.941 . S
C187 C186 1.391 . S
C187 C188 1.396 . S
C188 H172 0.939 . S
C188 C187 1.396 . S
C188 C189 1.397 . S
C189 C188 1.397 . S
C189 C190 1.385 . S
C190 H173 0.940 . S
C190 C189 1.385 . S
C190 C191 1.388 . S
C191 H170 0.939 . S
C191 C186 1.391 . S
C191 C190 1.388 . S
P192 O203 1.490 . S
P192 C206 1.812 . S
P192 C212 1.803 . S
P192 C218 1.819 . S
H193 C207 0.941 . S
H194 C208 0.939 . S
H195 C210 0.940 . S
H196 C211 0.940 . S
H197 C213 0.939 . S
H198 C214 0.942 . S
H199 C216 0.940 . S
H200 C217 0.939 . S
H201 C219 0.941 . S
H202 C223 0.939 . S
O203 P192 1.490 . S
H204 C220 0.939 . S
H205 C222 0.940 . S
C206 P192 1.812 . S
C206 C207 1.389 . S
C206 C211 1.391 . S
C207 H193 0.941 . S
C207 C206 1.389 . S
C207 C208 1.397 . S
C208 H194 0.939 . S
C208 C207 1.397 . S
C208 C209 1.378 . S
C209 C208 1.378 . S
C209 C210 1.378 . S
C210 H195 0.940 . S
C210 C209 1.378 . S
C210 C211 1.396 . S
C211 H196 0.940 . S
C211 C206 1.391 . S
C211 C210 1.396 . S
C212 P192 1.803 . S
C212 C213 1.378 . S
C212 C217 1.400 . S
C213 H197 0.939 . S
C213 C212 1.378 . S
C213 C214 1.361 . S
C214 H198 0.942 . S
C214 C213 1.361 . S
C214 C215 1.369 . S
C215 C214 1.369 . S
C215 C216 1.404 . S
C216 H199 0.940 . S
C216 C215 1.404 . S
C216 C217 1.389 . S
C217 H200 0.939 . S
C217 C212 1.400 . S
C217 C216 1.389 . S
C218 P192 1.819 . S
C218 C219 1.391 . S
C218 C223 1.391 . S
C219 H201 0.941 . S
C219 C218 1.391 . S
C219 C220 1.396 . S
C220 H204 0.939 . S
C220 C219 1.396 . S
C220 C221 1.397 . S
C221 C220 1.397 . S
C221 C222 1.385 . S
C222 H205 0.940 . S
C222 C221 1.385 . S
C222 C223 1.388 . S
C223 H202 0.939 . S
C223 C218 1.391 . S
C223 C222 1.388 . S
P224 O235 1.490 . S
P224 C238 1.812 . S
P224 C244 1.803 . S
P224 C250 1.819 . S
H225 C239 0.941 . S
H226 C240 0.939 . S
H227 C242 0.940 . S
H228 C243 0.940 . S
H229 C245 0.939 . S
H230 C246 0.942 . S
H231 C248 0.940 . S
H232 C249 0.939 . S
H233 C251 0.941 . S
H234 C255 0.939 . S
O235 P224 1.490 . S
H236 C252 0.939 . S
H237 C254 0.940 . S
C238 P224 1.812 . S
C238 C239 1.389 . S
C238 C243 1.391 . S
C239 H225 0.941 . S
C239 C238 1.389 . S
C239 C240 1.397 . S
C240 H226 0.939 . S
C240 C239 1.397 . S
C240 C241 1.378 . S
C241 C240 1.378 . S
C241 C242 1.378 . S
C242 H227 0.940 . S
C242 C241 1.378 . S
C242 C243 1.396 . S
C243 H228 0.940 . S
C243 C238 1.391 . S
C243 C242 1.396 . S
C244 P224 1.803 . S
C244 C245 1.378 . S
C244 C249 1.400 . S
C245 H229 0.939 . S
C245 C244 1.378 . S
C245 C246 1.361 . S
C246 H230 0.942 . S
C246 C245 1.361 . S
C246 C247 1.369 . S
C247 C246 1.369 . S
C247 C248 1.404 . S
C248 H231 0.940 . S
C248 C247 1.404 . S
C248 C249 1.389 . S
C249 H232 0.939 . S
C249 C244 1.400 . S
C249 C248 1.389 . S
C250 P224 1.819 . S
C250 C251 1.391 . S
C250 C255 1.391 . S
C251 H233 0.941 . S
C251 C250 1.391 . S
C251 C252 1.396 . S
C252 H236 0.939 . S
C252 C251 1.396 . S
C252 C253 1.397 . S
C253 C252 1.397 . S
C253 C254 1.385 . S
C254 H237 0.940 . S
C254 C253 1.385 . S
C254 C255 1.388 . S
C255 H234 0.939 . S
C255 C250 1.391 . S
C255 C254 1.388 . S
Gd256 C259 2.818 . S
Gd256 O276 2.377 . S
Gd256 O278 2.448 . S
Gd256 O279 2.506 . S
Gd256 O280 2.435 1_545 S
Gd256 O281 2.717 1_545 S
Gd256 O283 2.395 1_445 S
Gd256 O287 2.327 1_455 S
Gd257 C268 2.813 1_545 S
Gd257 O277 2.402 1_655 S
Gd257 O281 2.323 1_645 S
Gd257 O282 2.372 1_545 S
Gd257 O284 2.446 1_545 S
Gd257 O285 2.498 1_545 S
Gd257 O286 2.441 . S
Gd257 O287 2.721 . S
C258 O276 1.240 . S
C258 O277 1.240 . S
C259 Gd256 2.818 . S
C259 C260 1.510 . S
C259 O278 1.249 . S
C259 O279 1.252 . S
C260 C259 1.510 . S
C260 C261 1.404 . S
C260 C262 1.352 . S
C261 C260 1.404 . S
C261 C265 1.389 . S
C261 H288 0.930 . S
C262 C260 1.352 . S
C262 C264 1.374 . S
C262 H289 0.931 . S
C263 C264 1.359 . S
C263 C265 1.364 . S
C264 C262 1.374 . S
C264 C263 1.359 . S
C264 H290 0.931 . S
C265 C261 1.389 . S
C265 C263 1.364 . S
C265 H291 0.931 . S
C266 O280 1.256 . S
C266 O281 1.257 . S
C267 O282 1.240 . S
C267 O283 1.240 . S
C268 Gd257 2.813 1_565 S
C268 C269 1.510 . S
C268 O284 1.249 . S
C268 O285 1.252 . S
C269 C268 1.510 . S
C269 C270 1.404 . S
C269 C271 1.352 . S
C270 C269 1.404 . S
C270 C274 1.389 . S
C270 H292 0.930 . S
C271 C269 1.352 . S
C271 C273 1.374 . S
C271 H293 0.931 . S
C272 C273 1.359 . S
C272 C274 1.364 . S
C273 C271 1.374 . S
C273 C272 1.359 . S
C273 H294 0.931 . S
C274 C270 1.389 . S
C274 C272 1.364 . S
C274 H295 0.931 . S
C275 O286 1.256 . S
C275 O287 1.257 . S
O276 Gd256 2.377 . S
O276 C258 1.240 . S
O277 Gd257 2.402 1_455 S
O277 C258 1.240 . S
O278 Gd256 2.448 . S
O278 C259 1.249 . S
O279 Gd256 2.506 . S
O279 C259 1.252 . S
O280 Gd256 2.435 1_565 S
O280 C266 1.256 . S
O281 Gd256 2.717 1_565 S
O281 Gd257 2.323 1_465 S
O281 C266 1.257 . S
O282 Gd257 2.372 1_565 S
O282 C267 1.240 . S
O283 Gd256 2.395 1_665 S
O283 C267 1.240 . S
O284 Gd257 2.446 1_565 S
O284 C268 1.249 . S
O285 Gd257 2.498 1_565 S
O285 C268 1.252 . S
O286 Gd257 2.441 . S
O286 C275 1.256 . S
O287 Gd256 2.327 1_655 S
O287 Gd257 2.721 . S
O287 C275 1.257 . S
H288 C261 0.930 . S
H289 C262 0.931 . S
H290 C264 0.931 . S
H291 C265 0.931 . S
H292 C270 0.930 . S
H293 C271 0.931 . S
H294 C273 0.931 . S
H295 C274 0.931 . S
Gd296 C299 2.818 . S
Gd296 O316 2.377 . S
Gd296 O318 2.448 . S
Gd296 O319 2.506 . S
Gd296 O320 2.435 1_545 S
Gd296 O321 2.717 1_545 S
Gd296 O323 2.395 1_544 S
Gd296 O327 2.327 1_554 S
Gd297 C308 2.818 1_545 S
Gd297 O317 2.395 1_556 S
Gd297 O321 2.327 1_546 S
Gd297 O322 2.377 1_545 S
Gd297 O324 2.448 . S
Gd297 O325 2.506 1_545 S
Gd297 O326 2.435 . S
Gd297 O327 2.717 . S
C298 O316 1.240 . S
C298 O317 1.240 . S
C299 Gd296 2.818 . S
C299 C300 1.510 . S
C299 O318 1.249 . S
C299 O319 1.252 . S
C300 C299 1.510 . S
C300 C301 1.404 . S
C300 C302 1.352 . S
C301 C300 1.404 . S
C301 C305 1.389 . S
C301 H328 0.930 . S
C302 C300 1.352 . S
C302 C304 1.374 . S
C302 H329 0.931 . S
C303 C304 1.359 . S
C303 C305 1.364 . S
C304 C302 1.374 . S
C304 C303 1.359 . S
C304 H330 0.931 . S
C305 C301 1.389 . S
C305 C303 1.364 . S
C305 H331 0.931 . S
C306 O320 1.256 . S
C306 O321 1.257 . S
C307 O322 1.240 . S
C307 O323 1.240 . S
C308 Gd297 2.818 1_565 S
C308 C309 1.510 . S
C308 O324 1.249 1_565 S
C308 O325 1.252 . S
C309 C308 1.510 . S
C309 C310 1.404 . S
C309 C311 1.352 . S
C310 C309 1.404 . S
C310 C314 1.389 . S
C310 H332 0.930 . S
C311 C309 1.352 . S
C311 C313 1.374 . S
C311 H333 0.931 . S
C312 C313 1.359 . S
C312 C314 1.364 . S
C313 C311 1.374 . S
C313 C312 1.359 . S
C313 H334 0.931 . S
C314 C310 1.389 . S
C314 C312 1.364 . S
C314 H335 0.931 . S
C315 O326 1.256 . S
C315 O327 1.257 . S
O316 Gd296 2.377 . S
O316 C298 1.240 . S
O317 Gd297 2.395 1_554 S
O317 C298 1.240 . S
O318 Gd296 2.448 . S
O318 C299 1.249 . S
O319 Gd296 2.506 . S
O319 C299 1.252 . S
O320 Gd296 2.435 1_565 S
O320 C306 1.256 . S
O321 Gd296 2.717 1_565 S
O321 Gd297 2.327 1_564 S
O321 C306 1.257 . S
O322 Gd297 2.377 1_565 S
O322 C307 1.240 . S
O323 Gd296 2.395 1_566 S
O323 C307 1.240 . S
O324 Gd297 2.448 . S
O324 C308 1.249 1_545 S
O325 Gd297 2.506 1_565 S
O325 C308 1.252 . S
O326 Gd297 2.435 . S
O326 C315 1.256 . S
O327 Gd296 2.327 1_556 S
O327 Gd297 2.717 . S
O327 C315 1.257 . S
H328 C301 0.930 . S
H329 C302 0.931 . S
H330 C304 0.931 . S
H331 C305 0.931 . S
H332 C310 0.930 . S
H333 C311 0.931 . S
H334 C313 0.931 . S
H335 C314 0.931 . S
Gd336 C339 2.818 . S
Gd336 O356 2.377 . S
Gd336 O358 2.448 . S
Gd336 O359 2.506 . S
Gd336 O360 2.435 . S
Gd336 O361 2.717 . S
Gd336 O363 2.395 . S
Gd336 O367 2.327 . S
Gd337 C348 2.818 . S
Gd337 O357 2.395 . S
Gd337 O361 2.327 . S
Gd337 O362 2.377 . S
Gd337 O364 2.448 . S
Gd337 O365 2.506 . S
Gd337 O366 2.435 . S
Gd337 O367 2.717 . S
C338 O356 1.240 . S
C338 O357 1.240 . S
C339 Gd336 2.818 . S
C339 C340 1.510 . S
C339 O358 1.249 . S
C339 O359 1.252 . S
C340 C339 1.510 . S
C340 C341 1.404 . S
C340 C342 1.352 . S
C341 C340 1.404 . S
C341 C345 1.389 . S
C341 H368 0.930 . S
C342 C340 1.352 . S
C342 C344 1.374 . S
C342 H369 0.931 . S
C343 C344 1.359 . S
C343 C345 1.364 . S
C344 C342 1.374 . S
C344 C343 1.359 . S
C344 H370 0.931 . S
C345 C341 1.389 . S
C345 C343 1.364 . S
C345 H371 0.931 . S
C346 O360 1.256 . S
C346 O361 1.257 . S
C347 O362 1.240 . S
C347 O363 1.240 . S
C348 Gd337 2.818 . S
C348 C349 1.510 . S
C348 O364 1.249 . S
C348 O365 1.252 . S
C349 C348 1.510 . S
C349 C350 1.404 . S
C349 C351 1.352 . S
C350 C349 1.404 . S
C350 C354 1.389 . S
C350 H372 0.930 . S
C351 C349 1.352 . S
C351 C353 1.374 . S
C351 H373 0.931 . S
C352 C353 1.359 . S
C352 C354 1.364 . S
C353 C351 1.374 . S
C353 C352 1.359 . S
C353 H374 0.931 . S
C354 C350 1.389 . S
C354 C352 1.364 . S
C354 H375 0.931 . S
C355 O366 1.256 . S
C355 O367 1.257 . S
O356 Gd336 2.377 . S
O356 C338 1.240 . S
O357 Gd337 2.395 . S
O357 C338 1.240 . S
O358 Gd336 2.448 . S
O358 C339 1.249 . S
O359 Gd336 2.506 . S
O359 C339 1.252 . S
O360 Gd336 2.435 . S
O360 C346 1.256 . S
O361 Gd336 2.717 . S
O361 Gd337 2.327 . S
O361 C346 1.257 . S
O362 Gd337 2.377 . S
O362 C347 1.240 . S
O363 Gd336 2.395 . S
O363 C347 1.240 . S
O364 Gd337 2.448 . S
O364 C348 1.249 . S
O365 Gd337 2.506 . S
O365 C348 1.252 . S
O366 Gd337 2.435 . S
O366 C355 1.256 . S
O367 Gd336 2.327 . S
O367 Gd337 2.717 . S
O367 C355 1.257 . S
H368 C341 0.930 . S
H369 C342 0.931 . S
H370 C344 0.931 . S
H371 C345 0.931 . S
H372 C350 0.930 . S
H373 C351 0.931 . S
H374 C353 0.931 . S
H375 C354 0.931 . S
Gd376 C379 2.818 . S
Gd376 O396 2.377 . S
Gd376 O398 2.448 . S
Gd376 O399 2.506 . S
Gd376 O400 2.435 1_455 S
Gd376 O401 2.717 1_455 S
Gd376 O403 2.395 1_455 S
Gd376 O407 2.327 1_554 S
Gd377 C388 2.818 . S
Gd377 O397 2.395 1_656 S
Gd377 O401 2.327 1_556 S
Gd377 O402 2.377 . S
Gd377 O404 2.448 . S
Gd377 O405 2.506 . S
Gd377 O406 2.435 1_655 S
Gd377 O407 2.717 1_655 S
C378 O396 1.240 . S
C378 O397 1.240 . S
C379 Gd376 2.818 . S
C379 C380 1.510 . S
C379 O398 1.249 . S
C379 O399 1.252 . S
C380 C379 1.510 . S
C380 C381 1.404 . S
C380 C382 1.352 . S
C381 C380 1.404 . S
C381 C385 1.389 . S
C381 H408 0.930 . S
C382 C380 1.352 . S
C382 C384 1.374 . S
C382 H409 0.931 . S
C383 C384 1.359 . S
C383 C385 1.364 . S
C384 C382 1.374 . S
C384 C383 1.359 . S
C384 H410 0.931 . S
C385 C381 1.389 . S
C385 C383 1.364 . S
C385 H411 0.931 . S
C386 O400 1.256 . S
C386 O401 1.257 . S
C387 O402 1.240 . S
C387 O403 1.240 1_556 S
C388 Gd377 2.818 . S
C388 C389 1.510 . S
C388 O404 1.249 . S
C388 O405 1.252 . S
C389 C388 1.510 . S
C389 C390 1.404 . S
C389 C391 1.352 . S
C390 C389 1.404 . S
C390 C394 1.389 . S
C390 H412 0.930 . S
C391 C389 1.352 . S
C391 C393 1.374 . S
C391 H413 0.931 . S
C392 C393 1.359 . S
C392 C394 1.364 . S
C393 C391 1.374 . S
C393 C392 1.359 . S
C393 H414 0.931 . S
C394 C390 1.389 . S
C394 C392 1.364 . S
C394 H415 0.931 . S
C395 O406 1.256 . S
C395 O407 1.257 . S
O396 Gd376 2.377 . S
O396 C378 1.240 . S
O397 Gd377 2.395 1_454 S
O397 C378 1.240 . S
O398 Gd376 2.448 . S
O398 C379 1.249 . S
O399 Gd376 2.506 . S
O399 C379 1.252 . S
O400 Gd376 2.435 1_655 S
O400 C386 1.256 . S
O401 Gd376 2.717 1_655 S
O401 Gd377 2.327 1_554 S
O401 C386 1.257 . S
O402 Gd377 2.377 . S
O402 C387 1.240 . S
O403 Gd376 2.395 1_655 S
O403 C387 1.240 1_554 S
O404 Gd377 2.448 . S
O404 C388 1.249 . S
O405 Gd377 2.506 . S
O405 C388 1.252 . S
O406 Gd377 2.435 1_455 S
O406 C395 1.256 . S
O407 Gd376 2.327 1_556 S
O407 Gd377 2.717 1_455 S
O407 C395 1.257 . S
H408 C381 0.930 . S
H409 C382 0.931 . S
H410 C384 0.931 . S
H411 C385 0.931 . S
H412 C390 0.930 . S
H413 C391 0.931 . S
H414 C393 0.931 . S
H415 C394 0.931 . S
C29 C263 1.704 . S
C49 C312 1.631 . S
C338 C93 3.659 . S
C119 C386 3.449 . S
C298 C17 4.125 . S
C266 C61 1.608 . S
C387 C81 2.542 . S
C355 C125 2.265 . S
C23 C383 2.704 . S
C315 C87 3.242 . S
C113 C267 3.260 . S
C55 C352 2.263 . S
C272 C157 1.494 . S
C189 C303 1.750 . S
C221 C347 3.619 . S
C253 C395 3.597 . S
C145 C307 3.711 . S
C275 C183 2.042 1_655 S
C378 C209 2.485 . S
C346 C247 2.246 . S
C151 C392 2.427 . S
C306 C215 3.270 . S
C258 C241 3.247 . S
C177 C343 2.662 . S
