# Generated by pormake.
# Topology wbl, (4,4)-cn, num edge types: 1
# Building blocks:
#     Node 0, Type 0, BuildingBlock: MIFKUJ_clean_linker_1, # of connection points: 4
#     Node 1, Type 0, BuildingBlock: MIFKUJ_clean_linker_1, # of connection points: 4
#     Node 2, Type 0, BuildingBlock: MIFKUJ_clean_linker_1, # of connection points: 4
#     Node 3, Type 0, BuildingBlock: MIFKUJ_clean_linker_1, # of connection points: 4
#     Node 4, Type 0, BuildingBlock: MIFKUJ_clean_linker_1, # of connection points: 4
#     Node 5, Type 0, BuildingBlock: MIFKUJ_clean_linker_1, # of connection points: 4
#     Node 6, Type 0, BuildingBlock: MIFKUJ_clean_linker_1, # of connection points: 4
#     Node 7, Type 0, BuildingBlock: MIFKUJ_clean_linker_1, # of connection points: 4
#     Node 8, Type 1, BuildingBlock: QUQFOY_clean_sbu_3, # of connection points: 4
#     Node 9, Type 1, BuildingBlock: QUQFOY_clean_sbu_3, # of connection points: 4
#     Node 10, Type 1, BuildingBlock: QUQFOY_clean_sbu_3, # of connection points: 4
#     Node 11, Type 1, BuildingBlock: QUQFOY_clean_sbu_3, # of connection points: 4
#     Node 12, Type 1, BuildingBlock: QUQFOY_clean_sbu_3, # of connection points: 4
#     Node 13, Type 1, BuildingBlock: QUQFOY_clean_sbu_3, # of connection points: 4
#     Node 14, Type 1, BuildingBlock: QUQFOY_clean_sbu_3, # of connection points: 4
#     Node 15, Type 1, BuildingBlock: QUQFOY_clean_sbu_3, # of connection points: 4
#     Edge 16, Type (0, 1), BuildingBlock: UVAHIK_clean_linker_0, # of connection points: 2
#     Edge 17, Type (0, 1), BuildingBlock: UVAHIK_clean_linker_0, # of connection points: 2
#     Edge 18, Type (0, 1), BuildingBlock: UVAHIK_clean_linker_0, # of connection points: 2
#     Edge 19, Type (0, 1), BuildingBlock: UVAHIK_clean_linker_0, # of connection points: 2
#     Edge 20, Type (0, 1), BuildingBlock: UVAHIK_clean_linker_0, # of connection points: 2
#     Edge 21, Type (0, 1), BuildingBlock: UVAHIK_clean_linker_0, # of connection points: 2
#     Edge 22, Type (0, 1), BuildingBlock: UVAHIK_clean_linker_0, # of connection points: 2
#     Edge 23, Type (0, 1), BuildingBlock: UVAHIK_clean_linker_0, # of connection points: 2
#     Edge 24, Type (0, 1), BuildingBlock: UVAHIK_clean_linker_0, # of connection points: 2
#     Edge 25, Type (0, 1), BuildingBlock: UVAHIK_clean_linker_0, # of connection points: 2
#     Edge 26, Type (0, 1), BuildingBlock: UVAHIK_clean_linker_0, # of connection points: 2
#     Edge 27, Type (0, 1), BuildingBlock: UVAHIK_clean_linker_0, # of connection points: 2
#     Edge 28, Type (0, 1), BuildingBlock: UVAHIK_clean_linker_0, # of connection points: 2
#     Edge 29, Type (0, 1), BuildingBlock: UVAHIK_clean_linker_0, # of connection points: 2
#     Edge 30, Type (0, 1), BuildingBlock: UVAHIK_clean_linker_0, # of connection points: 2
#     Edge 31, Type (0, 1), BuildingBlock: UVAHIK_clean_linker_0, # of connection points: 2
#     Edge 32, Type (0, 1), BuildingBlock: UVAHIK_clean_linker_0, # of connection points: 2
#     Edge 33, Type (0, 1), BuildingBlock: UVAHIK_clean_linker_0, # of connection points: 2
#     Edge 34, Type (0, 1), BuildingBlock: UVAHIK_clean_linker_0, # of connection points: 2
#     Edge 35, Type (0, 1), BuildingBlock: UVAHIK_clean_linker_0, # of connection points: 2
#     Edge 36, Type (0, 1), BuildingBlock: UVAHIK_clean_linker_0, # of connection points: 2
#     Edge 37, Type (0, 1), BuildingBlock: UVAHIK_clean_linker_0, # of connection points: 2
#     Edge 38, Type (0, 1), BuildingBlock: UVAHIK_clean_linker_0, # of connection points: 2
#     Edge 39, Type (0, 1), BuildingBlock: UVAHIK_clean_linker_0, # of connection points: 2
#     Edge 40, Type (0, 1), BuildingBlock: UVAHIK_clean_linker_0, # of connection points: 2
#     Edge 41, Type (0, 1), BuildingBlock: UVAHIK_clean_linker_0, # of connection points: 2
#     Edge 42, Type (0, 1), BuildingBlock: UVAHIK_clean_linker_0, # of connection points: 2
#     Edge 43, Type (0, 1), BuildingBlock: UVAHIK_clean_linker_0, # of connection points: 2
#     Edge 44, Type (0, 1), BuildingBlock: UVAHIK_clean_linker_0, # of connection points: 2
#     Edge 45, Type (0, 1), BuildingBlock: UVAHIK_clean_linker_0, # of connection points: 2
#     Edge 46, Type (0, 1), BuildingBlock: UVAHIK_clean_linker_0, # of connection points: 2
#     Edge 47, Type (0, 1), BuildingBlock: UVAHIK_clean_linker_0, # of connection points: 2
# Relax obj value: 0.161
# Max RMSD: 0.159
# Mean RMSD: 0.136
data_MOF--net-wbl--node1-QUQFOY_clean_sbu_3--node2-MIFKUJ_clean_linker_1--edge1-UVAHIK_clean_linker_0
_symmetry_space_group_name_H-M    P1
_symmetry_Int_Tables_number       1
_symmetry_cell_setting            triclinic
loop_
_symmetry_equiv_pos_as_xyz
'x, y, z'
_cell_length_a     58.178392
_cell_length_b     58.768271
_cell_length_c     93.906584
_cell_angle_alpha  90.78455
_cell_angle_beta   90.305692
_cell_angle_gamma 89.909647
loop_
_atom_site_label
_atom_site_type_symbol
_atom_site_fract_x
_atom_site_fract_y
_atom_site_fract_z
_atom_type_partial_charge
H0 H 0.0212 0.07284 0.33512 0.0
H1 H -0.0033 0.09628 0.35048 0.0
H2 H 0.93879 0.05302 0.34002 0.0
H3 H 0.9633 0.03015 0.32433 0.0
H4 H 0.02826 0.02607 0.33974 0.0
H5 H 0.00103 0.07501 0.30232 0.0
H6 H 0.96967 0.09426 0.28987 0.0
H7 H 0.94066 0.02892 0.27813 0.0
H8 H 0.9722 0.00985 0.29045 0.0
H9 H 0.02749 0.96477 0.2904 0.0
H10 H 0.05425 0.93744 0.27942 0.0
H11 H 0.11153 0.97644 0.29602 0.0
H12 H 0.0849 0.00365 0.30679 0.0
H13 H 0.0192 0.00971 0.28802 0.0
H14 H 0.04004 0.96098 0.32685 0.0
H15 H 0.06301 0.94017 0.34423 0.0
H16 H 0.10028 0.00192 0.35456 0.0
H17 H 0.07646 0.0227 0.33764 0.0
C18 C -0.00595 0.04981 0.3286 0.0
C19 C 0.00313 0.06867 0.33598 0.0
C20 C -0.01088 0.08195 0.34482 0.0
C21 C 0.9658 0.07641 0.34663 0.0
C22 C 0.95657 0.05797 0.33877 0.0
C23 C 0.97058 0.04481 0.32983 0.0
C24 C 0.00953 0.03421 0.32066 0.0
C25 C 0.02659 0.02284 0.32837 0.0
C26 C 0.00666 0.02933 0.30597 0.0
C27 C -0.0112 0.041 0.29742 0.0
C28 C 0.98795 0.06486 0.297 0.0
C29 C 0.96999 0.07583 0.28992 0.0
C30 C 0.95257 0.06315 0.28307 0.0
C31 C 0.95393 0.03923 0.28313 0.0
C32 C 0.97191 0.02827 0.2902 0.0
C33 C 0.05419 0.98602 0.29964 0.0
C34 C 0.04582 0.96751 0.29155 0.0
C35 C 0.0611 0.95193 0.28529 0.0
C36 C 0.08497 0.95463 0.28705 0.0
C37 C 0.09323 0.97361 0.29475 0.0
C38 C 0.07802 -0.01081 0.3009 0.0
C39 C 0.03824 0.00182 0.30711 0.0
C40 C 0.02105 0.01314 0.29935 0.0
C41 C 0.04067 0.00646 0.32186 0.0
C42 C 0.05652 -0.00663 0.33103 0.0
C43 C 0.05337 0.96991 0.33276 0.0
C44 C 0.06663 0.95802 0.34266 0.0
C45 C 0.0834 0.96938 0.35095 0.0
C46 C 0.08717 -0.00729 0.34865 0.0
C47 C 0.0737 0.00461 0.3389 0.0
H48 H -0.00735 0.46741 0.53328 0.0
H49 H 0.97292 0.43527 0.52192 0.0
H50 H 0.90741 0.46488 0.53353 0.0
H51 H 0.92741 0.49649 0.54533 0.0
H52 H -0.00977 0.51571 0.53007 0.0
H53 H 0.97608 0.45836 0.56514 0.0
H54 H 0.95526 0.43212 0.58038 0.0
H55 H 0.91371 0.48794 0.59614 0.0
H56 H 0.93421 0.51398 0.58058 0.0
H57 H 0.98112 0.56735 0.58351 0.0
H58 H 0.00356 0.59072 0.60016 0.0
H59 H 0.06627 0.56568 0.58101 0.0
H60 H 0.04372 0.54161 0.56481 0.0
H61 H 0.98048 0.52276 0.58241 0.0
H62 H -0.00494 0.58062 0.5487 0.0
H63 H 0.01945 0.60817 0.53678 0.0
H64 H 0.06045 0.55322 0.51935 0.0
H65 H 0.03609 0.52565 0.53153 0.0
C66 C 0.96149 0.48418 0.54022 0.0
C67 C 0.97403 0.46708 0.53319 0.0
C68 C 0.96268 0.44874 0.52665 0.0
C69 C 0.93852 0.44734 0.52687 0.0
C70 C 0.92601 0.46512 0.5334 0.0
C71 C 0.9374 0.4833 0.54006 0.0
C72 C 0.97359 0.5021 0.54855 0.0
C73 C 0.98823 0.5172 0.54152 0.0
C74 C 0.97054 0.50436 0.56342 0.0
C75 C 0.95658 0.4881 0.57165 0.0
C76 C 0.96214 0.46485 0.57163 0.0
C77 C 0.95037 0.44991 0.58045 0.0
C78 C 0.93288 0.45796 0.5895 0.0
C79 C 0.92689 0.48114 0.58917 0.0
C80 C 0.9387 0.49608 0.58037 0.0
C81 C 0.01069 0.55279 0.57286 0.0
C82 C -0.0003 0.56707 0.58281 0.0
C83 C 0.01257 0.58057 0.59225 0.0
C84 C 0.03674 0.58004 0.59195 0.0
C85 C 0.0477 0.5663 0.58164 0.0
C86 C 0.03481 0.55273 0.57224 0.0
C87 C -0.00293 0.53655 0.56399 0.0
C88 C 0.98221 0.52161 0.57092 0.0
C89 C -0.0002 0.5346 0.54905 0.0
C90 C 0.01389 0.5511 0.5411 0.0
C91 C 0.00927 0.57449 0.54229 0.0
C92 C 0.02312 0.59021 0.53538 0.0
C93 C 0.04188 0.58286 0.52712 0.0
C94 C 0.04624 0.55939 0.52573 0.0
C95 C 0.03226 0.54363 0.5326 0.0
H96 H 0.49319 0.55447 0.83435 0.0
H97 H 0.46531 0.57505 0.84922 0.0
H98 H 0.41293 0.52639 0.83714 0.0
H99 H 0.44084 0.50606 0.8221 0.0
H100 H 0.50353 0.50577 0.83858 0.0
H101 H 0.48087 0.55841 0.80177 0.0
H102 H 0.45016 0.57907 0.78965 0.0
H103 H 0.42001 0.51507 0.77611 0.0
H104 H 0.45121 0.49463 0.78794 0.0
H105 H 0.51285 0.45458 0.78458 0.0
H106 H 0.54252 0.4337 0.77147 0.0
H107 H 0.5949 0.46898 0.79603 0.0
H108 H 0.56539 0.49097 0.80811 0.0
H109 H 0.50125 0.49697 0.78596 0.0
H110 H 0.52321 0.44397 0.82353 0.0
H111 H 0.54662 0.42392 0.84111 0.0
H112 H 0.57619 0.48809 0.85488 0.0
H113 H 0.55194 0.50794 0.8378 0.0
C114 C 0.469 0.52882 0.82716 0.0
C115 C 0.47561 0.54847 0.83475 0.0
C116 C 0.45968 0.56024 0.84315 0.0
C117 C 0.43702 0.55225 0.8443 0.0
C118 C 0.43032 0.53283 0.83644 0.0
C119 C 0.44618 0.52128 0.82785 0.0
C120 C 0.48633 0.51532 0.81926 0.0
C121 C 0.50328 0.50403 0.82706 0.0
C122 C 0.48548 0.51265 0.80432 0.0
C123 C 0.46819 0.52502 0.79579 0.0
C124 C 0.46775 0.54889 0.79604 0.0
C125 C 0.4501 0.56065 0.78919 0.0
C126 C 0.43246 0.54876 0.782 0.0
C127 C 0.43343 0.52481 0.78138 0.0
C128 C 0.45121 0.51306 0.78817 0.0
C129 C 0.5368 0.4741 0.79754 0.0
C130 C 0.53075 0.45791 0.78704 0.0
C131 C 0.54777 0.44579 0.77965 0.0
C132 C 0.57121 0.44955 0.78266 0.0
C133 C 0.57712 0.4658 0.7932 0.0
C134 C 0.56016 0.47814 0.80037 0.0
C135 C 0.51885 0.48728 0.80529 0.0
C136 C 0.50164 0.49855 0.79748 0.0
C137 C 0.51939 0.48988 0.82031 0.0
C138 C 0.53578 0.47741 0.82946 0.0
C139 C 0.53498 0.45361 0.83024 0.0
C140 C 0.54846 0.44218 0.84027 0.0
C141 C 0.5631 0.4544 0.84959 0.0
C142 C 0.56468 0.47817 0.84818 0.0
C143 C 0.55098 0.48956 0.83833 0.0
H144 H 0.49449 0.95684 0.03515 0.0
H145 H 0.47471 0.92464 0.02388 0.0
H146 H 0.40946 0.95215 0.03779 0.0
H147 H 0.4295 0.98398 0.04935 0.0
H148 H 0.49263 0.00361 0.03271 0.0
H149 H 0.47868 0.94738 0.06772 0.0
H150 H 0.45979 0.92117 0.08387 0.0
H151 H 0.41918 0.97675 0.10088 0.0
H152 H 0.43755 0.00271 0.08434 0.0
H153 H 0.48242 0.05789 0.08464 0.0
H154 H 0.50416 0.08088 0.10191 0.0
H155 H 0.56759 0.0532 0.08531 0.0
H156 H 0.54576 0.03024 0.06807 0.0
H157 H 0.48255 0.01255 0.08492 0.0
H158 H 0.49795 0.06906 0.04984 0.0
H159 H 0.52292 0.09549 0.03734 0.0
H160 H 0.56419 0.03904 0.02225 0.0
H161 H 0.53916 0.0126 0.03491 0.0
C162 C 0.46348 0.97265 0.04319 0.0
C163 C 0.4759 0.95606 0.03559 0.0
C164 C 0.46453 0.9377 0.02912 0.0
C165 C 0.44046 0.9357 0.03 0.0
C166 C 0.42802 0.9529 0.03714 0.0
C167 C 0.43943 0.97118 0.04368 0.0
C168 C 0.47574 -0.00929 0.05133 0.0
C169 C 0.49051 0.00551 0.04414 0.0
C170 C 0.47277 -0.00663 0.0662 0.0
C171 C 0.45943 0.977 0.07475 0.0
C172 C 0.46525 0.95381 0.07464 0.0
C173 C 0.45462 0.93888 0.08399 0.0
C174 C 0.43808 0.94689 0.09373 0.0
C175 C 0.43164 0.96996 0.09342 0.0
C176 C 0.44225 0.98486 0.08404 0.0
C177 C 0.51245 0.04236 0.07505 0.0
C178 C 0.50103 0.05709 0.08455 0.0
C179 C 0.51346 0.07015 0.09444 0.0
C180 C 0.53757 0.06867 0.09505 0.0
C181 C 0.54905 0.05487 0.08501 0.0
C182 C 0.53658 0.04175 0.07513 0.0
C183 C 0.4991 0.02574 0.06633 0.0
C184 C 0.48428 0.01099 0.07344 0.0
C185 C 0.50216 0.02308 0.05147 0.0
C186 C 0.51679 0.0389 0.04337 0.0
C187 C 0.51235 0.06237 0.04382 0.0
C188 C 0.52653 0.07743 0.0366 0.0
C189 C 0.54549 0.06931 0.02881 0.0
C190 C 0.5498 0.04577 0.02825 0.0
C191 C 0.53545 0.03067 0.03539 0.0
H192 H 0.9848 0.58495 0.91521 0.0
H193 H 0.00978 0.60664 0.89958 0.0
H194 H 0.06481 0.55866 0.90722 0.0
H195 H 0.03993 0.53772 0.92329 0.0
H196 H 0.97618 0.53687 0.90868 0.0
H197 H 0.00252 0.58564 0.94806 0.0
H198 H 0.03433 0.60409 0.96077 0.0
H199 H 0.06429 0.53809 0.96891 0.0
H200 H 0.03197 0.51986 0.95661 0.0
H201 H 0.97279 0.47957 0.95958 0.0
H202 H 0.9449 0.45545 0.97157 0.0
H203 H 0.88956 0.49121 0.95053 0.0
H204 H 0.91731 0.51614 0.9395 0.0
H205 H 0.98297 0.52209 0.96042 0.0
H206 H 0.95874 0.47223 0.9231 0.0
H207 H 0.93663 0.45124 0.90503 0.0
H208 H 0.90869 0.51456 0.88967 0.0
H209 H 0.93095 0.53544 0.9077 0.0
C210 C 0.01055 0.55979 0.92037 0.0
C211 C 0.00242 0.57946 0.91373 0.0
C212 C 0.01668 0.5917 0.90471 0.0
C213 C 0.03925 0.58424 0.90194 0.0
C214 C 0.04766 0.56509 0.90919 0.0
C215 C 0.03343 0.55301 0.91835 0.0
C216 C -0.00559 0.54496 0.92803 0.0
C217 C 0.97725 0.53396 0.92006 0.0
C218 C -0.00324 0.54036 0.94267 0.0
C219 C 0.01499 0.55142 0.95136 0.0
C220 C 0.01586 0.5752 0.95273 0.0
C221 C 0.03414 0.5857 0.95992 0.0
C222 C 0.05204 0.57262 0.96579 0.0
C223 C 0.05071 0.54873 0.96472 0.0
C224 C 0.03229 0.53824 0.95764 0.0
C225 C 0.94722 0.49953 0.94847 0.0
C226 C 0.95462 0.48234 0.95769 0.0
C227 C 0.93864 0.46837 0.96441 0.0
C228 C 0.9149 0.47127 0.96202 0.0
C229 C 0.90762 0.48862 0.95284 0.0
C230 C 0.92354 0.50273 0.94631 0.0
C231 C 0.96406 0.51421 0.9411 0.0
C232 C 0.98152 0.5251 0.94908 0.0
C233 C 0.96233 0.51833 0.9263 0.0
C234 C 0.94652 0.50541 0.91674 0.0
C235 C 0.94744 0.48154 0.91606 0.0
C236 C 0.93477 0.46956 0.90573 0.0
C237 C 0.92107 0.48127 0.89584 0.0
C238 C 0.91938 0.50509 0.89698 0.0
C239 C 0.93202 0.51704 0.90731 0.0
H240 H 0.49448 0.53194 0.20779 0.0
H241 H 0.47444 0.56358 0.21947 0.0
H242 H 0.40967 0.53795 0.20319 0.0
H243 H 0.42996 0.50663 0.19131 0.0
H244 H 0.4907 0.48431 0.20938 0.0
H245 H 0.48076 0.54347 0.17371 0.0
H246 H 0.46051 0.56995 0.15805 0.0
H247 H 0.41829 0.5147 0.14213 0.0
H248 H 0.4384 0.48842 0.15788 0.0
H249 H 0.48347 0.43655 0.15435 0.0
H250 H 0.50507 0.41074 0.13902 0.0
H251 H 0.56712 0.42666 0.16273 0.0
H252 H 0.54573 0.45406 0.17713 0.0
H253 H 0.48544 0.47952 0.15666 0.0
H254 H 0.49122 0.42075 0.19132 0.0
H255 H 0.51348 0.39064 0.20251 0.0
H256 H 0.56141 0.4408 0.21895 0.0
H257 H 0.53841 0.47098 0.20807 0.0
C258 C 0.46373 0.51711 0.19858 0.0
C259 C 0.47594 0.53302 0.20689 0.0
C260 C 0.46442 0.55105 0.2136 0.0
C261 C 0.44042 0.55339 0.21222 0.0
C262 C 0.42818 0.53691 0.20427 0.0
C263 C 0.43973 0.51894 0.19753 0.0
C264 C 0.47621 0.49923 0.19047 0.0
C265 C 0.48972 0.48337 0.19785 0.0
C266 C 0.47443 0.49756 0.17548 0.0
C267 C 0.46101 0.51402 0.16697 0.0
C268 C 0.46688 0.53717 0.16701 0.0
C269 C 0.45541 0.55223 0.15801 0.0
C270 C 0.43783 0.54438 0.14886 0.0
C271 C 0.43156 0.52131 0.14917 0.0
C272 C 0.44314 0.50625 0.15808 0.0
C273 C 0.51285 0.44717 0.16702 0.0
C274 C 0.50175 0.43451 0.15624 0.0
C275 C 0.51414 0.41945 0.14758 0.0
C276 C 0.53795 0.4164 0.14961 0.0
C277 C 0.54891 0.42871 0.16067 0.0
C278 C 0.53658 0.44415 0.16913 0.0
C279 C 0.49981 0.4644 0.17549 0.0
C280 C 0.48629 0.48026 0.1682 0.0
C281 C 0.50116 0.46572 0.19054 0.0
C282 C 0.51332 0.44802 0.19876 0.0
C283 C 0.50636 0.42526 0.19749 0.0
C284 C 0.51926 0.40806 0.20379 0.0
C285 C 0.53953 0.41323 0.21141 0.0
C286 C 0.54587 0.43621 0.21322 0.0
C287 C 0.53277 0.45348 0.207 0.0
H288 H 0.5052 0.96739 0.40783 0.0
H289 H 0.48448 0.94292 0.39098 0.0
H290 H 0.41989 0.96793 0.40752 0.0
H291 H 0.44086 -0.0076 0.42452 0.0
H292 H 0.50328 0.01356 0.40851 0.0
H293 H 0.48798 0.95125 0.44092 0.0
H294 H 0.46137 0.92474 0.45205 0.0
H295 H 0.42351 0.98167 0.46986 0.0
H296 H 0.45052 0.00793 0.45899 0.0
H297 H 0.51848 0.07437 0.44345 0.0
H298 H 0.54704 0.09759 0.45617 0.0
H299 H 0.5751 0.03681 0.47509 0.0
H300 H 0.54631 0.01391 0.46257 0.0
H301 H 0.49913 0.01242 0.46126 0.0
H302 H 0.50567 0.06171 0.40945 0.0
H303 H 0.5322 0.08261 0.39433 0.0
H304 H 0.58959 0.04808 0.41393 0.0
H305 H 0.56287 0.02706 0.42896 0.0
C306 C 0.47458 0.98177 0.41737 0.0
C307 C 0.48657 0.9675 0.4079 0.0
C308 C 0.47471 0.95358 0.39825 0.0
C309 C 0.45056 0.95372 0.39781 0.0
C310 C 0.4385 0.96738 0.40767 0.0
C311 C 0.45044 0.98138 0.41736 0.0
C312 C 0.4876 -0.00213 0.42661 0.0
C313 C 0.50222 0.01343 0.42005 0.0
C314 C 0.48626 -0.00235 0.44163 0.0
C315 C 0.47108 0.98153 0.44906 0.0
C316 C 0.474 0.95795 0.4473 0.0
C317 C 0.45871 0.94284 0.45362 0.0
C318 C 0.4402 0.95104 0.46181 0.0
C319 C 0.43773 0.97471 0.46381 0.0
C320 C 0.45309 -0.01022 0.45755 0.0
C321 C 0.5304 0.04241 0.452 0.0
C322 C 0.53064 0.06614 0.45048 0.0
C323 C 0.54704 0.07936 0.45771 0.0
C324 C 0.56347 0.06908 0.4666 0.0
C325 C 0.56253 0.04538 0.46851 0.0
C326 C 0.54611 0.03222 0.46132 0.0
C327 C 0.51503 0.02795 0.44311 0.0
C328 C 0.49992 0.01277 0.44972 0.0
C329 C 0.51604 0.02833 0.42808 0.0
C330 C 0.53233 0.04292 0.42033 0.0
C331 C 0.524 0.05895 0.41064 0.0
C332 C 0.53918 0.07096 0.40208 0.0
C333 C 0.56297 0.06695 0.40294 0.0
C334 C 0.57133 0.05141 0.41299 0.0
C335 C 0.55613 0.03951 0.42163 0.0
H336 H 0.01053 0.05293 0.70965 0.0
H337 H -0.01118 0.08463 0.71995 0.0
H338 H 0.92563 0.05448 0.7043 0.0
H339 H 0.94763 0.02309 0.69373 0.0
H340 H 0.00835 0.00572 0.71369 0.0
H341 H -0.00578 0.06007 0.6756 0.0
H342 H 0.97313 0.08241 0.65792 0.0
H343 H 0.93975 0.02118 0.64254 0.0
H344 H 0.96058 -0.00096 0.66025 0.0
H345 H 0.00613 0.94948 0.66198 0.0
H346 H 0.03026 0.92439 0.64753 0.0
H347 H 0.09058 0.94984 0.66958 0.0
H348 H 0.06642 0.97576 0.68345 0.0
H349 H 0.00604 -0.00626 0.6613 0.0
H350 H 0.0091 0.94128 0.69981 0.0
H351 H 0.02974 0.91276 0.71365 0.0
H352 H 0.07948 0.9635 0.72666 0.0
H353 H 0.05837 -0.00774 0.71291 0.0
C354 C 0.98071 0.03581 0.70082 0.0
C355 C -0.00802 0.05308 0.70855 0.0
C356 C 0.9795 0.07114 0.71449 0.0
C357 C 0.95543 0.07216 0.71294 0.0
C358 C 0.94415 0.05445 0.7055 0.0
C359 C 0.95668 0.03644 0.6995 0.0
C360 C -0.00578 0.01752 0.6938 0.0
C361 C 0.00803 0.00329 0.70221 0.0
C362 C -0.00685 0.01373 0.6789 0.0
C363 C 0.97895 0.02787 0.66926 0.0
C364 C 0.982 0.05155 0.66862 0.0
C365 C 0.96998 0.06429 0.65851 0.0
C366 C 0.95498 0.05348 0.64878 0.0
C367 C 0.95146 0.02991 0.64977 0.0
C368 C 0.96331 0.01726 0.65989 0.0
C369 C 0.03441 0.96449 0.67384 0.0
C370 C 0.02453 0.94947 0.66381 0.0
C371 C 0.03837 0.93495 0.65564 0.0
C372 C 0.06242 0.93512 0.65735 0.0
C373 C 0.07217 0.94946 0.66787 0.0
C374 C 0.05832 0.9641 0.67595 0.0
C375 C 0.02001 0.98194 0.68113 0.0
C376 C 0.00623 -0.00388 0.67278 0.0
C377 C 0.02052 0.98527 0.69605 0.0
C378 C 0.03227 0.96879 0.70536 0.0
C379 C 0.02427 0.94633 0.7058 0.0
C380 C 0.03601 0.93011 0.71374 0.0
C381 C 0.05614 0.93599 0.72124 0.0
C382 C 0.064 0.95859 0.72095 0.0
C383 C 0.05195 0.97498 0.71319 0.0
C384 C 0.36199 0.64882 0.02109 0.0
O385 O 0.37822 0.64935 0.01213 0.0
Cd386 Cd 0.37356 0.65986 0.98779 0.0
O387 O 0.34157 0.65414 0.0174 0.0
Cd388 Cd 0.32201 0.66726 -0.00477 0.0
C389 C 0.35484 0.71438 0.99339 0.0
O390 O 0.34033 0.64053 0.97868 0.0
O391 O 0.32274 0.66869 0.96902 0.0
O392 O 0.28936 0.64459 0.00291 0.0
C393 C 0.33285 0.64972 0.96745 0.0
O394 O 0.37002 0.7012 0.98808 0.0
C395 C 0.27412 0.65919 -0.00022 0.0
O396 O 0.33607 0.70643 -0.00185 0.0
O397 O 0.28118 0.67804 -0.005 0.0
C398 C 0.37174 0.83857 0.22293 0.0
O399 O 0.38848 0.8358 0.23147 0.0
Cd400 Cd 0.38558 0.82676 0.25611 0.0
O401 O 0.35108 0.83588 0.22709 0.0
Cd402 Cd 0.332 0.82447 0.24972 0.0
C403 C 0.3611 0.77441 0.25215 0.0
O404 O 0.35482 0.84964 0.26481 0.0
O405 O 0.33297 0.82681 0.27619 0.0
O406 O 0.30054 0.84957 0.24287 0.0
C407 C 0.34687 0.84339 0.27663 0.0
O408 O 0.37788 0.78622 0.25684 0.0
C409 C 0.28453 0.83578 0.2458 0.0
O410 O 0.34283 0.78396 0.24761 0.0
O411 O 0.29061 0.81621 0.25002 0.0
C412 C 0.16724 0.8724 0.47988 0.0
O413 O 0.16977 0.88734 0.48966 0.0
Cd414 Cd 0.18064 0.88013 0.51366 0.0
O415 O 0.17016 0.85133 0.48252 0.0
Cd416 Cd 0.18038 0.82831 0.50394 0.0
C417 C 0.23225 0.85428 0.50667 0.0
O418 O 0.15667 0.84951 0.5206 0.0
O419 O 0.18032 0.82634 0.53042 0.0
O420 O 0.15273 0.80006 0.49546 0.0
C421 C 0.16363 0.84008 0.53184 0.0
O422 O 0.22142 0.87086 0.51238 0.0
C423 C 0.16561 0.78292 0.49739 0.0
O424 O 0.22147 0.83701 0.50174 0.0
O425 O 0.1859 0.78692 0.50182 0.0
C426 C 0.14937 0.63883 0.77198 0.0
O427 O 0.14902 0.62191 0.76342 0.0
Cd428 Cd 0.15944 0.6244 0.73882 0.0
O429 O 0.15534 0.65841 0.76767 0.0
Cd430 Cd 0.16795 0.67648 0.74523 0.0
C431 C 0.21499 0.64282 0.74305 0.0
O432 O 0.14024 0.65713 0.72967 0.0
O433 O 0.16671 0.6759 0.719 0.0
O434 O 0.14472 0.70792 0.75395 0.0
C435 C 0.14817 0.66465 0.71812 0.0
O436 O 0.20118 0.6275 0.73857 0.0
C437 C 0.1587 0.72358 0.75079 0.0
O438 O 0.20753 0.66212 0.74734 0.0
O439 O 0.1777 0.71737 0.74533 0.0
C440 C 0.84967 0.14226 0.47297 0.0
O441 O 0.84773 0.12494 0.48083 0.0
Cd442 Cd 0.83885 0.12614 0.50572 0.0
O443 O 0.84633 0.16222 0.47807 0.0
Cd444 Cd 0.83539 0.17988 0.50139 0.0
C445 C 0.78544 0.15026 0.50356 0.0
O446 O 0.86157 0.15645 0.51523 0.0
O447 O 0.83918 0.17801 0.52762 0.0
O448 O 0.85923 0.2115 0.49367 0.0
C449 C 0.85567 0.1639 0.52737 0.0
O450 O 0.79774 0.13342 0.50733 0.0
C451 C 0.84569 0.22704 0.49801 0.0
O452 O 0.79466 0.16877 0.49962 0.0
O453 O 0.82698 0.22065 0.5036 0.0
C454 C 0.86447 0.35279 0.71734 0.0
O455 O 0.88176 0.35248 0.72565 0.0
Cd456 Cd 0.87997 0.3449 0.75054 0.0
O457 O 0.84444 0.34826 0.72197 0.0
Cd458 Cd 0.82761 0.33675 0.74523 0.0
C459 C 0.8613 0.29006 0.74805 0.0
O460 O 0.84765 0.36594 0.75924 0.0
O461 O 0.83006 0.3407 0.77144 0.0
O462 O 0.79343 0.35633 0.73631 0.0
C463 C 0.84085 0.35939 0.77129 0.0
O464 O 0.87686 0.30372 0.75239 0.0
C465 C 0.77911 0.34287 0.74186 0.0
O466 O 0.84206 0.29751 0.74353 0.0
O467 O 0.78731 0.32601 0.74851 0.0
C468 C 0.65185 0.35889 0.97794 0.0
O469 O 0.65162 0.37313 0.98822 0.0
Cd470 Cd 0.66268 0.3645 0.01199 0.0
O471 O 0.65793 0.33832 0.98001 0.0
Cd472 Cd 0.67072 0.31585 0.0011 0.0
C473 C 0.71792 0.34811 0.0052 0.0
O474 O 0.64281 0.33049 0.01801 0.0
O475 O 0.67243 0.31471 0.02755 0.0
O476 O 0.64736 0.28491 0.99159 0.0
C477 C 0.65221 0.32245 0.02902 0.0
O478 O 0.70463 0.36178 0.01183 0.0
C479 C 0.66181 0.26919 0.99394 0.0
O480 O 0.70996 0.33044 -0.00108 0.0
O481 O 0.68119 0.27526 -0.001 0.0
C482 C 0.66684 0.13021 0.27325 0.0
O483 O 0.66867 0.11285 0.26513 0.0
Cd484 Cd 0.67701 0.11487 0.24024 0.0
O485 O 0.66969 0.15014 0.26837 0.0
Cd486 Cd 0.67913 0.16775 0.24514 0.0
C487 C 0.72992 0.14 0.24274 0.0
O488 O 0.65312 0.14421 0.23085 0.0
O489 O 0.67672 0.16465 0.21892 0.0
O490 O 0.65239 0.19701 0.25293 0.0
C491 C 0.6594 0.15159 0.21888 0.0
O492 O 0.71791 0.12294 0.23878 0.0
C493 C 0.6643 0.21386 0.24905 0.0
O494 O 0.72034 0.15843 0.24689 0.0
O495 O 0.6839 0.20942 0.24377 0.0
C496 C 0.11999 0.93026 0.28953 0.0
C497 C 0.10138 0.93762 0.28118 0.0
C498 C 0.13628 0.91524 0.28392 0.0
C499 C 0.1631 0.87547 0.27185 0.0
H500 H 0.1881 0.88973 0.23484 0.0
C501 C 0.24285 0.82855 0.25067 0.0
C502 C 0.26015 0.84302 0.24568 0.0
C503 C 0.22044 0.83665 0.25259 0.0
C504 C 0.18124 0.88546 0.24517 0.0
H505 H 0.08494 0.93457 0.26048 0.0
H506 H 0.11352 0.90813 0.25062 0.0
H507 H 0.15435 0.91024 0.24355 0.0
H508 H 0.26719 0.87692 0.23797 0.0
H509 H 0.22833 0.89108 0.24147 0.0
H510 H 0.19062 0.8516 0.27384 0.0
C511 C 0.11551 0.91415 0.26151 0.0
C512 C 0.16176 0.89705 0.2501 0.0
C513 C 0.09908 0.92914 0.26718 0.0
C514 C 0.25428 0.86533 0.24186 0.0
C515 C 0.23191 0.87343 0.24379 0.0
C516 C 0.18254 0.86389 0.26693 0.0
C517 C 0.1344 0.90719 0.2698 0.0
C518 C 0.15288 0.89264 0.26367 0.0
C519 C 0.21487 0.85939 0.24956 0.0
C520 C 0.19223 0.86918 0.2537 0.0
H521 H 0.12206 0.93628 0.30042 0.0
H522 H 0.15075 0.91047 0.29055 0.0
H523 H 0.15646 0.87144 0.28227 0.0
H524 H 0.2468 0.81122 0.25362 0.0
H525 H 0.20762 0.82529 0.25685 0.0
C526 C 0.04778 0.61895 0.51367 0.0
C527 C 0.05714 0.59979 0.52038 0.0
C528 C 0.06209 0.63588 0.50837 0.0
C529 C 0.119 0.66072 0.51436 0.0
H530 H 0.10477 0.69393 0.48001 0.0
C531 C 0.17023 0.74065 0.49958 0.0
C532 C 0.15663 0.75945 0.49583 0.0
C533 C 0.16065 0.71884 0.5 0.0
C534 C 0.10895 0.68486 0.48965 0.0
H535 H 0.08889 0.58306 0.52643 0.0
H536 H 0.11394 0.6126 0.51706 0.0
H537 H 0.08303 0.65971 0.48558 0.0
H538 H 0.12268 0.76993 0.48884 0.0
H539 H 0.10597 0.7321 0.48973 0.0
H540 H 0.14431 0.68624 0.51874 0.0
C541 C 0.0955 0.61457 0.516 0.0
C542 C 0.09651 0.66525 0.49283 0.0
C543 C 0.08117 0.59757 0.52125 0.0
C544 C 0.13363 0.75581 0.49179 0.0
C545 C 0.12407 0.73405 0.49222 0.0
C546 C 0.1314 0.68035 0.5112 0.0
C547 C 0.0861 0.63408 0.50969 0.0
C548 C 0.10106 0.65325 0.50538 0.0
C549 C 0.1373 0.71538 0.49667 0.0
C550 C 0.12618 0.69295 0.49897 0.0
H551 H 0.02934 0.62103 0.5127 0.0
H552 H 0.05428 0.65078 0.5037 0.0
H553 H 0.12276 0.65204 0.5242 0.0
H554 H 0.18805 0.74287 0.50268 0.0
H555 H 0.17141 0.70476 0.50326 0.0
C556 C 0.40305 0.58011 0.78297 0.0
C557 C 0.41258 0.56119 0.77578 0.0
C558 C 0.38353 0.591 0.77762 0.0
C559 C 0.33269 0.57933 0.75589 0.0
H560 H 0.32515 0.64492 0.75601 0.0
C561 C 0.24879 0.61909 0.73601 0.0
C562 C 0.23972 0.63722 0.74412 0.0
C563 C 0.27137 0.61181 0.73814 0.0
C564 C 0.32691 0.62658 0.75602 0.0
H565 H 0.40947 0.53952 0.75697 0.0
H566 H 0.37511 0.5583 0.74779 0.0
H567 H 0.362 0.62837 0.76307 0.0
H568 H 0.24751 0.66257 0.7604 0.0
H569 H 0.28679 0.64941 0.76447 0.0
H570 H 0.29756 0.57729 0.7494 0.0
C571 C 0.38274 0.56456 0.75764 0.0
C572 C 0.34803 0.61712 0.76002 0.0
C573 C 0.40237 0.55376 0.76293 0.0
C574 C 0.25405 0.64858 0.75397 0.0
C575 C 0.27661 0.64107 0.75625 0.0
C576 C 0.31156 0.58874 0.75203 0.0
C577 C 0.37297 0.58312 0.76501 0.0
C578 C 0.35108 0.59339 0.76005 0.0
C579 C 0.28536 0.62222 0.74859 0.0
C580 C 0.30833 0.61248 0.75208 0.0
H581 H 0.41019 0.58608 0.79302 0.0
H582 H 0.37621 0.60507 0.78364 0.0
H583 H 0.33439 0.56098 0.75606 0.0
H584 H 0.23827 0.6102 0.72818 0.0
H585 H 0.27769 0.59767 0.73176 0.0
C586 C 0.43591 0.9049 0.01131 0.0
C587 C 0.42858 0.9152 0.02411 0.0
C588 C 0.4259 0.88466 0.0064 0.0
C589 C 0.37519 0.84752 0.00977 0.0
H590 H 0.41784 0.79939 -0.00056 0.0
C591 C 0.34833 0.75284 0.00463 0.0
C592 C 0.3599 0.73899 -0.00533 0.0
C593 C 0.355 0.77549 0.00685 0.0
C594 C 0.40559 0.8127 0.002 0.0
H595 H 0.40459 0.91236 0.04164 0.0
H596 H 0.38691 0.87726 0.03291 0.0
H597 H 0.43242 0.83701 0.00553 0.0
H598 H 0.38652 0.73843 0.97859 0.0
H599 H 0.39759 0.77798 0.98209 0.0
H600 H 0.34833 0.82317 0.00624 0.0
C601 C 0.40032 0.88498 0.02665 0.0
C602 C 0.414 0.83429 0.00553 0.0
C603 C 0.41045 0.90513 0.03162 0.0
C604 C 0.37748 0.74856 0.9865 0.0
C605 C 0.38393 0.77123 0.98857 0.0
C606 C 0.36672 0.82593 0.0061 0.0
C607 C 0.4082 0.87433 0.01411 0.0
C608 C 0.39893 0.85187 0.00956 0.0
C609 C 0.37319 0.78484 -0.00097 0.0
C610 C 0.38185 0.80819 0.00227 0.0
H611 H 0.44953 0.9124 0.00512 0.0
H612 H 0.43211 0.87697 -0.0034 0.0
H613 H 0.36316 0.86083 0.01272 0.0
H614 H 0.33476 0.74593 0.01113 0.0
H615 H 0.34646 0.78537 0.01509 0.0
C616 C 0.08169 0.60372 0.96653 0.0
C617 C 0.07251 0.58381 0.9724 0.0
C618 C 0.10175 0.61347 0.97212 0.0
C619 C 0.15436 0.59785 0.99068 0.0
H620 H 0.16246 0.66294 -0.0042 0.0
C621 C 0.24201 0.63414 0.00763 0.0
C622 C 0.24938 0.65361 0.00046 0.0
C623 C 0.21911 0.62712 0.00674 0.0
C624 C 0.16056 0.64473 0.99432 0.0
H625 H 0.07687 0.55915 0.98921 0.0
H626 H 0.11223 0.57588 -0.00128 0.0
H627 H 0.12469 0.64782 0.98929 0.0
H628 H 0.23837 0.68151 0.98718 0.0
H629 H 0.19863 0.66893 0.98522 0.0
H630 H 0.19024 0.59463 -0.00498 0.0
C631 C 0.10386 0.58384 0.98973 0.0
C632 C 0.1389 0.63609 0.99065 0.0
C633 C 0.08366 0.57421 0.98423 0.0
C634 C 0.23318 0.66647 0.99288 0.0
C635 C 0.21033 0.65928 0.99181 0.0
C636 C 0.17604 0.60647 0.99419 0.0
C637 C 0.11323 0.60342 0.98363 0.0
C638 C 0.13565 0.61258 0.98864 0.0
C639 C 0.2031 0.63921 -0.00154 0.0
C640 C 0.17952 0.63006 -0.00409 0.0
H641 H 0.07387 0.6114 0.95727 0.0
H642 H 0.10875 0.62838 0.96708 0.0
H643 H 0.15245 0.57967 0.98901 0.0
H644 H 0.25407 0.624 0.01368 0.0
H645 H 0.21408 0.61191 0.0123 0.0
C646 C 0.41083 0.58453 0.21093 0.0
C647 C 0.42843 0.57347 0.21852 0.0
C648 C 0.40072 0.6044 0.21637 0.0
C649 C 0.41438 0.65276 0.2396 0.0
H650 H 0.34918 0.66616 0.23721 0.0
C651 C 0.38017 0.73848 0.2597 0.0
C652 C 0.36393 0.74945 0.25105 0.0
C653 C 0.38537 0.71553 0.25748 0.0
C654 C 0.36745 0.66275 0.23786 0.0
H655 H 0.44833 0.57407 0.23813 0.0
H656 H 0.43092 0.60895 0.24748 0.0
H657 H 0.36333 0.62857 0.22994 0.0
H658 H 0.33957 0.74474 0.23373 0.0
H659 H 0.34916 0.70475 0.22951 0.0
H660 H 0.41884 0.68695 0.24696 0.0
C661 C 0.42515 0.60232 0.23726 0.0
C662 C 0.37552 0.6412 0.23373 0.0
C663 C 0.43516 0.58239 0.23188 0.0
C664 C 0.35213 0.7367 0.24058 0.0
C665 C 0.3576 0.71375 0.23821 0.0
C666 C 0.40638 0.67429 0.2436 0.0
C667 C 0.40808 0.61372 0.22946 0.0
C668 C 0.39909 0.63604 0.23451 0.0
C669 C 0.37475 0.70306 0.24639 0.0
C670 C 0.38282 0.67963 0.24275 0.0
H671 H 0.40544 0.57834 0.20053 0.0
H672 H 0.3878 0.61295 0.21004 0.0
H673 H 0.43269 0.64945 0.24007 0.0
H674 H 0.3893 0.7478 0.268 0.0
H675 H 0.39817 0.70773 0.26426 0.0
C676 C 0.41326 0.93942 0.48125 0.0
C677 C 0.42302 0.93513 0.46781 0.0
C678 C 0.39575 0.92556 0.48638 0.0
C679 C 0.35036 0.88672 0.47331 0.0
H680 H 0.34156 0.87652 0.51362 0.0
C681 C 0.26865 0.84342 0.49404 0.0
C682 C 0.25735 0.85643 0.50456 0.0
C683 C 0.29149 0.84813 0.49053 0.0
C684 C 0.34385 0.87915 0.50233 0.0
H685 H 0.4224 0.91234 0.44943 0.0
H686 H 0.39243 0.88775 0.45857 0.0
H687 H 0.37717 0.89385 0.50545 0.0
H688 H 0.26161 0.88345 0.52032 0.0
H689 H 0.30137 0.89151 0.51428 0.0
H690 H 0.31687 0.87243 0.47023 0.0
C691 C 0.39801 0.90212 0.46504 0.0
C692 C 0.36419 0.88918 0.49764 0.0
C693 C 0.41543 0.91608 0.45987 0.0
C694 C 0.26978 0.87321 0.5121 0.0
C695 C 0.29263 0.87773 0.50871 0.0
C696 C 0.33013 0.87654 0.47799 0.0
C697 C 0.38764 0.90693 0.47824 0.0
C698 C 0.36744 0.89364 0.4831 0.0
C699 C 0.30352 0.86572 0.4976 0.0
C700 C 0.32641 0.87318 0.49257 0.0
H701 H 0.41893 0.95371 0.48776 0.0
H702 H 0.38804 0.92997 0.49652 0.0
H703 H 0.35206 0.89016 0.46206 0.0
H704 H 0.25955 0.83037 0.48804 0.0
H705 H 0.29954 0.83847 0.48201 0.0
C706 C 0.0927 0.91469 0.72582 0.0
C707 C 0.06927 0.9181 0.72869 0.0
C708 C 0.10419 0.89564 0.73114 0.0
C709 C 0.0907 0.83758 0.74275 0.0
H710 H 0.15533 0.8352 0.75295 0.0
C711 C 0.13159 0.75369 0.7593 0.0
C712 C 0.15208 0.7478 0.7523 0.0
C713 C 0.12328 0.77595 0.75897 0.0
C714 C 0.13727 0.83564 0.7501 0.0
H715 H 0.0399 0.9054 0.74017 0.0
H716 H 0.06002 0.87255 0.74982 0.0
H717 H 0.13725 0.87194 0.74798 0.0
H718 H 0.18068 0.76094 0.74021 0.0
H719 H 0.16596 0.79992 0.73948 0.0
H720 H 0.09066 0.80144 0.74461 0.0
C721 C 0.06941 0.8841 0.7431 0.0
C722 C 0.12692 0.85665 0.74724 0.0
C723 C 0.0579 0.90295 0.73766 0.0
C724 C 0.16481 0.76496 0.74568 0.0
C725 C 0.15643 0.7873 0.74531 0.0
C726 C 0.10097 0.81671 0.74566 0.0
C727 C 0.09248 0.87976 0.73951 0.0
C728 C 0.10351 0.85784 0.74345 0.0
C729 C 0.13519 0.79285 0.75157 0.0
C730 C 0.12438 0.81544 0.7493 0.0
H731 H 0.1018 0.92607 0.71884 0.0
H732 H 0.12188 0.89277 0.72807 0.0
H733 H 0.07281 0.8377 0.7395 0.0
H734 H 0.12151 0.74092 0.76464 0.0
H735 H 0.10712 0.7798 0.76415 0.0
C736 C 0.6106 0.44721 0.77186 0.0
C737 C 0.58954 0.4367 0.77492 0.0
C738 C 0.62843 0.43494 0.76551 0.0
C739 C 0.64869 0.3756 0.75929 0.0
H740 H 0.69479 0.40713 0.73749 0.0
C741 C 0.74052 0.3408 0.75319 0.0
C742 C 0.75428 0.34807 0.74191 0.0
C743 C 0.71803 0.34885 0.75465 0.0
C744 C 0.68196 0.39774 0.74326 0.0
H745 H 0.57061 0.40497 0.77316 0.0
H746 H 0.60124 0.38391 0.76133 0.0
H747 H 0.65972 0.42662 0.74392 0.0
H748 H 0.75485 0.36792 0.72267 0.0
H749 H 0.71517 0.38085 0.72464 0.0
H750 H 0.6705 0.34638 0.75809 0.0
C751 C 0.60426 0.40152 0.76429 0.0
C752 C 0.6619 0.40918 0.74724 0.0
C753 C 0.5865 0.41374 0.7709 0.0
C754 C 0.74466 0.36226 0.73157 0.0
C755 C 0.72196 0.36985 0.73281 0.0
C756 C 0.66853 0.36396 0.75502 0.0
C757 C 0.62563 0.41186 0.76171 0.0
C758 C 0.64534 0.39857 0.75575 0.0
C759 C 0.70857 0.36397 0.74467 0.0
C760 C 0.68584 0.37509 0.74736 0.0
H761 H 0.61349 0.46498 0.77446 0.0
H762 H 0.64465 0.44353 0.76396 0.0
H763 H 0.63646 0.36677 0.76587 0.0
H764 H 0.74756 0.32997 0.76138 0.0
H765 H 0.70861 0.3441 0.76406 0.0
C766 C 0.58492 0.08369 0.02299 0.0
C767 C 0.56093 0.08554 0.02159 0.0
C768 C 0.59935 0.10012 0.01717 0.0
C769 C 0.60113 0.14734 0.99141 0.0
H770 H 0.64589 0.17358 0.01756 0.0
C771 C 0.63312 0.2392 0.98743 0.0
C772 C 0.65521 0.24497 0.9924 0.0
C773 C 0.62517 0.21687 0.98824 0.0
C774 C 0.63391 0.16617 0.00995 0.0
H775 H 0.53329 0.10539 0.01241 0.0
H776 H 0.5584 0.13411 0.00232 0.0
H777 H 0.62519 0.1394 0.02416 0.0
H778 H 0.68688 0.23149 0.0012 0.0
H779 H 0.67309 0.19231 0.00241 0.0
H780 H 0.60941 0.17445 0.97735 0.0
C781 C 0.56611 0.11996 0.00788 0.0
C782 C 0.62198 0.14658 0.01377 0.0
C783 C 0.5517 0.10366 0.01379 0.0
C784 C 0.66973 0.22761 -0.00265 0.0
C785 C 0.66176 0.2052 -0.00186 0.0
C786 C 0.61315 0.16687 0.98755 0.0
C787 C 0.59006 0.1186 0.00971 0.0
C788 C 0.605 0.13732 0.00472 0.0
C789 C 0.63913 0.1997 0.994 0.0
C790 C 0.6292 0.17692 -0.00304 0.0
H791 H 0.59251 0.06997 0.02901 0.0
H792 H 0.61775 0.09856 0.01868 0.0
H793 H 0.58841 0.14036 0.98412 0.0
H794 H 0.62151 0.25215 0.98354 0.0
H795 H 0.60758 0.21338 0.98508 0.0
C796 C 0.92209 0.0935 0.28325 0.0
C797 C 0.93251 0.0747 0.27645 0.0
C798 C 0.90212 0.10323 0.27764 0.0
C799 C 0.85231 0.08759 0.25579 0.0
H800 H 0.83985 0.15244 0.25561 0.0
C801 C 0.76599 0.12032 0.23529 0.0
C802 C 0.75517 0.13731 0.24352 0.0
C803 C 0.78917 0.11523 0.2374 0.0
C804 C 0.84301 0.13428 0.25568 0.0
H805 H 0.93075 0.05217 0.25798 0.0
H806 H 0.89577 0.06901 0.24827 0.0
H807 H 0.87777 0.1387 0.26295 0.0
H808 H 0.76042 0.16311 0.25991 0.0
H809 H 0.80085 0.15379 0.26392 0.0
H810 H 0.81757 0.08292 0.24905 0.0
C811 C 0.90292 0.07602 0.25806 0.0
C812 C 0.86474 0.12643 0.25986 0.0
C813 C 0.92292 0.06635 0.26364 0.0
C814 C 0.76833 0.14996 0.25339 0.0
C815 C 0.79153 0.14464 0.25565 0.0
C816 C 0.83063 0.09539 0.25173 0.0
C817 C 0.89207 0.0943 0.26512 0.0
C818 C 0.86956 0.10298 0.26 0.0
C819 C 0.80204 0.12674 0.24796 0.0
C820 C 0.82564 0.11883 0.25165 0.0
H821 H 0.92884 0.10018 0.29323 0.0
H822 H 0.89402 0.11713 0.28342 0.0
H823 H 0.85531 0.06941 0.25607 0.0
H824 H 0.75637 0.1105 0.22745 0.0
H825 H 0.79684 0.1018 0.23099 0.0
C826 C 0.9348 0.41545 0.50878 0.0
C827 C 0.92653 0.42686 0.521 0.0
C828 C 0.92454 0.39524 0.50396 0.0
C829 C 0.87194 0.36064 0.50595 0.0
H830 H 0.91307 0.30945 0.5001 0.0
C831 C 0.8404 0.26762 0.50572 0.0
C832 C 0.8522 0.25131 0.49748 0.0
C833 C 0.84816 0.29011 0.50648 0.0
C834 C 0.90128 0.3236 0.50136 0.0
H835 H 0.90066 0.42592 0.53758 0.0
H836 H 0.88252 0.39106 0.52895 0.0
H837 H 0.92889 0.34704 0.50501 0.0
H838 H 0.88057 0.24601 0.48293 0.0
H839 H 0.89365 0.28536 0.48385 0.0
H840 H 0.84429 0.33728 0.50232 0.0
C841 C 0.89688 0.39786 0.52308 0.0
C842 C 0.9104 0.34515 0.50424 0.0
C843 C 0.90727 0.41791 0.52799 0.0
C844 C 0.87125 0.25816 0.48949 0.0
C845 C 0.87884 0.28071 0.49011 0.0
C846 C 0.86278 0.33912 0.50291 0.0
C847 C 0.90562 0.38614 0.51115 0.0
C848 C 0.89583 0.36381 0.5068 0.0
C849 C 0.86774 0.29687 0.49889 0.0
C850 C 0.87734 0.32022 0.50082 0.0
H851 H 0.94931 0.42203 0.50296 0.0
H852 H 0.93147 0.38666 0.49465 0.0
H853 H 0.86032 0.37481 0.50773 0.0
H854 H 0.82571 0.26284 0.51204 0.0
H855 H 0.83931 0.30193 0.5135 0.0
C856 C 0.59086 0.07746 0.48679 0.0
C857 C 0.58249 0.08261 0.47313 0.0
C858 C 0.61057 0.08814 0.49217 0.0
C859 C 0.65019 0.13652 0.48789 0.0
H860 H 0.69634 0.09364 0.50064 0.0
C861 C 0.74687 0.15909 0.49295 0.0
C862 C 0.76023 0.14741 0.50299 0.0
C863 C 0.72357 0.15382 0.49111 0.0
C864 C 0.68358 0.10602 0.49745 0.0
H865 H 0.58779 0.10384 0.4547 0.0
H866 H 0.62195 0.12272 0.46423 0.0
H867 H 0.65816 0.08015 0.4945 0.0
H868 H 0.75939 0.12244 0.51974 0.0
H869 H 0.71868 0.11402 0.51703 0.0
H870 H 0.67569 0.16244 0.49084 0.0
C871 C 0.61319 0.11044 0.47076 0.0
C872 C 0.66166 0.09821 0.49387 0.0
C873 C 0.59357 0.09963 0.46532 0.0
C874 C 0.74957 0.13146 0.51176 0.0
C875 C 0.72625 0.12652 0.51012 0.0
C876 C 0.67212 0.14443 0.49166 0.0
C877 C 0.62222 0.10435 0.48408 0.0
C878 C 0.64481 0.11331 0.48891 0.0
C879 C 0.7131 0.13703 0.49944 0.0
C880 C 0.6892 0.12922 0.49635 0.0
H881 H 0.58248 0.0648 0.49322 0.0
H882 H 0.61699 0.08337 0.50256 0.0
H883 H 0.63745 0.14854 0.48417 0.0
H884 H 0.75468 0.17143 0.48601 0.0
H885 H 0.7141 0.16216 0.4827 0.0
C886 C 0.94869 0.10233 0.73171 0.0
C887 C 0.94236 0.09203 0.71867 0.0
C888 C 0.93761 0.12205 0.73654 0.0
C889 C 0.88566 0.15736 0.73251 0.0
H890 H 0.92624 0.20687 0.74354 0.0
C891 C 0.85527 0.25109 0.73748 0.0
C892 C 0.86657 0.26545 0.74733 0.0
C893 C 0.86254 0.22856 0.7355 0.0
C894 C 0.91455 0.19316 0.7408 0.0
H895 H 0.91893 0.0942 0.70066 0.0
H896 H 0.89937 0.12842 0.70925 0.0
H897 H 0.94236 0.16988 0.73749 0.0
H898 H 0.89318 0.26706 0.76356 0.0
H899 H 0.90523 0.22766 0.76054 0.0
H900 H 0.8578 0.18066 0.73585 0.0
C901 C 0.91287 0.12111 0.71574 0.0
C902 C 0.92385 0.17195 0.73727 0.0
C903 C 0.92408 0.10147 0.71084 0.0
C904 C 0.88435 0.25648 0.75573 0.0
C905 C 0.89137 0.23392 0.75392 0.0
C906 C 0.87628 0.17858 0.7362 0.0
C907 C 0.91982 0.13182 0.72851 0.0
C908 C 0.90955 0.15388 0.73298 0.0
C909 C 0.88107 0.21985 0.74347 0.0
C910 C 0.89064 0.19681 0.74029 0.0
H911 H 0.96235 0.09525 0.73817 0.0
H912 H 0.9431 0.12978 0.74653 0.0
H913 H 0.87423 0.14365 0.72933 0.0
H914 H 0.84156 0.25756 0.73081 0.0
H915 H 0.8543 0.21833 0.72727 0.0
C916 C 0.87637 0.46522 0.97332 0.0
C917 C 0.8977 0.45634 0.96897 0.0
C918 C 0.85965 0.45114 0.97909 0.0
C919 C 0.84259 0.3904 0.98139 0.0
H920 H 0.79879 0.41585 0.00816 0.0
C921 C 0.75389 0.34972 0.99084 0.0
C922 C 0.74232 0.35437 0.00363 0.0
C923 C 0.77551 0.35922 0.98835 0.0
C924 C 0.81105 0.40812 0.00093 0.0
H925 H 0.91823 0.42551 0.96767 0.0
H926 H 0.88948 0.40116 0.97842 0.0
H927 H 0.8317 0.43809 0.00133 0.0
H928 H 0.74496 0.37089 0.02432 0.0
H929 H 0.78321 0.38625 0.02042 0.0
H930 H 0.82233 0.36007 0.98144 0.0
C931 C 0.88543 0.41897 0.97697 0.0
C932 C 0.8298 0.42117 -0.00323 0.0
C933 C 0.9021 0.43304 0.97099 0.0
C934 C 0.75342 0.36728 0.01428 0.0
C935 C 0.77527 0.37628 0.01196 0.0
C936 C 0.82402 0.37714 0.98578 0.0
C937 C 0.86387 0.42779 0.98097 0.0
C938 C 0.84548 0.41278 0.98662 0.0
C939 C 0.78625 0.37318 -0.00126 0.0
C940 C 0.80764 0.38603 -0.00465 0.0
H941 H 0.87245 0.48313 0.97221 0.0
H942 H 0.84318 0.4586 0.98178 0.0
H943 H 0.85418 0.38331 0.97351 0.0
H944 H 0.74563 0.33994 0.9824 0.0
H945 H 0.78314 0.35657 0.97797 0.0
C946 C 0.5656 0.39648 0.23016 0.0
C947 C 0.55431 0.39455 0.2169 0.0
C948 C 0.57897 0.37849 0.2353 0.0
C949 C 0.58421 0.31668 0.23223 0.0
H950 H 0.64608 0.32422 0.24715 0.0
C951 C 0.6659 0.25519 0.24267 0.0
C952 C 0.65462 0.23716 0.24939 0.0
C953 C 0.65484 0.27618 0.24099 0.0
C954 C 0.6288 0.32192 0.24304 0.0
H955 H 0.54933 0.3726 0.19835 0.0
H956 H 0.57203 0.3412 0.20748 0.0
H957 H 0.62431 0.35762 0.23923 0.0
H958 H 0.62363 0.22755 0.26056 0.0
H959 H 0.60449 0.26407 0.25767 0.0
H960 H 0.5886 0.28111 0.23575 0.0
C961 C 0.57029 0.35649 0.21397 0.0
C962 C 0.61632 0.341 0.23861 0.0
C963 C 0.55717 0.37446 0.20879 0.0
C964 C 0.63271 0.241 0.25519 0.0
C965 C 0.62169 0.2619 0.2535 0.0
C966 C 0.59652 0.29773 0.23678 0.0
C967 C 0.58113 0.3582 0.22733 0.0
C968 C 0.59403 0.33847 0.23296 0.0
C969 C 0.63231 0.27946 0.24597 0.0
C970 C 0.61902 0.30008 0.24211 0.0
H971 H 0.56368 0.41165 0.23672 0.0
H972 H 0.58709 0.38019 0.24567 0.0
H973 H 0.56699 0.31426 0.22803 0.0
H974 H 0.6828 0.25277 0.2381 0.0
H975 H 0.66343 0.28939 0.2351 0.0
C976 C 0.10213 0.93434 0.36119 0.0
C977 C 0.09578 0.9574 0.36259 0.0
C978 C 0.11264 0.92301 0.37253 0.0
C979 C 0.14521 0.9333 0.4057 0.0
H980 H 0.11897 0.87657 0.41854 0.0
C981 C 0.15775 0.90313 0.4627 0.0
C982 C 0.16107 0.87987 0.46534 0.0
C983 C 0.15216 0.91058 0.44909 0.0
C984 C 0.12679 0.89217 0.41495 0.0
H985 H 0.09536 0.98641 0.37719 0.0
H986 H 0.11415 0.96688 0.39664 0.0
H987 H 0.10534 0.8933 0.39631 0.0
H988 H 0.161 0.84613 0.45565 0.0
H989 H 0.15126 0.85927 0.43172 0.0
H990 H 0.1664 0.93248 0.42434 0.0
C991 C 0.1112 0.95764 0.38674 0.0
C992 C 0.11897 0.90175 0.40223 0.0
C993 C 0.1005 0.96886 0.37553 0.0
C994 C 0.15855 0.86418 0.45398 0.0
C995 C 0.1529 0.87168 0.44029 0.0
C996 C 0.1531 0.9237 0.41832 0.0
C997 C 0.11727 0.93458 0.38541 0.0
C998 C 0.12767 0.92274 0.39772 0.0
C999 C 0.14977 0.89501 0.4377 0.0
C1000 C 0.1435 0.90339 0.42333 0.0
H1001 H 0.09902 0.92503 0.35134 0.0
H1002 H 0.11726 0.90525 0.3712 0.0
H1003 H 0.15252 0.94928 0.40233 0.0
H1004 H 0.15941 0.91573 0.47117 0.0
H1005 H 0.14936 0.92861 0.44756 0.0
C1006 C 0.04356 0.61424 0.60784 0.0
C1007 C 0.05036 0.59252 0.60299 0.0
C1008 C 0.05521 0.62499 0.61913 0.0
C1009 C 0.10908 0.62372 0.64039 0.0
H1010 H 0.07099 0.64947 0.67032 0.0
C1011 C 0.11634 0.6471 0.70378 0.0
C1012 C 0.13717 0.65915 0.70426 0.0
C1013 C 0.10606 0.64145 0.69073 0.0
C1014 C 0.08186 0.64234 0.66206 0.0
H1015 H 0.07503 0.56526 0.60609 0.0
H1016 H 0.09536 0.58404 0.62564 0.0
H1017 H 0.0531 0.63515 0.64845 0.0
H1018 H 0.16345 0.67495 0.69144 0.0
H1019 H 0.14545 0.66503 0.66861 0.0
H1020 H 0.13777 0.63026 0.65422 0.0
C1021 C 0.08121 0.5929 0.62062 0.0
C1022 C 0.07164 0.63437 0.64946 0.0
C1023 C 0.06954 0.58214 0.60938 0.0
C1024 C 0.14742 0.6656 0.69141 0.0
C1025 C 0.13717 0.65985 0.67834 0.0
C1026 C 0.11931 0.63179 0.65298 0.0
C1027 C 0.07395 0.61428 0.62578 0.0
C1028 C 0.08509 0.62464 0.63857 0.0
C1029 C 0.1164 0.64766 0.67787 0.0
C1030 C 0.10577 0.64083 0.66405 0.0
H1031 H 0.02909 0.62287 0.60301 0.0
H1032 H 0.04941 0.64161 0.62273 0.0
H1033 H 0.11992 0.61652 0.63214 0.0
H1034 H 0.10801 0.64186 0.71348 0.0
H1035 H 0.09022 0.63178 0.69073 0.0
C1036 C 0.40995 0.54997 0.86474 0.0
C1037 C 0.42105 0.56317 0.85453 0.0
C1038 C 0.39678 0.56033 0.8754 0.0
C1039 C 0.38957 0.61611 0.89386 0.0
H1040 H 0.33901 0.5848 0.91184 0.0
C1041 C 0.3384 0.65437 0.94123 0.0
C1042 C 0.33858 0.64036 0.95324 0.0
C1043 C 0.34546 0.64581 0.92799 0.0
C1044 C 0.35305 0.59373 0.90686 0.0
H1045 H 0.42628 0.59737 0.84694 0.0
H1046 H 0.40247 0.61554 0.86519 0.0
H1047 H 0.35613 0.56869 0.89027 0.0
H1048 H 0.34536 0.60627 0.96074 0.0
H1049 H 0.35715 0.59119 0.93751 0.0
H1050 H 0.38618 0.64126 0.91046 0.0
C1051 C 0.4045 0.59723 0.86532 0.0
C1052 C 0.36299 0.58447 0.89457 0.0
C1053 C 0.41802 0.58686 0.8548 0.0
C1054 C 0.34514 0.61746 0.95167 0.0
C1055 C 0.35175 0.6088 0.93838 0.0
C1056 C 0.37934 0.62555 0.906 0.0
C1057 C 0.3941 0.58415 0.87596 0.0
C1058 C 0.38176 0.59525 0.88808 0.0
C1059 C 0.35232 0.62299 0.92648 0.0
C1060 C 0.36133 0.6142 0.91277 0.0
H1061 H 0.41227 0.53168 0.86486 0.0
H1062 H 0.38948 0.54966 0.88351 0.0
H1063 H 0.4042 0.62477 0.88938 0.0
H1064 H 0.33345 0.67211 0.94214 0.0
H1065 H 0.34572 0.65704 0.91893 0.0
C1066 C 0.4061 0.93301 0.10937 0.0
C1067 C 0.4292 0.93185 0.10505 0.0
C1068 C 0.39853 0.92058 0.12105 0.0
C1069 C 0.42117 0.89668 0.15407 0.0
H1070 H 0.36312 0.86454 0.15592 0.0
C1071 C 0.39897 0.8441 0.20282 0.0
C1072 C 0.37655 0.84585 0.20821 0.0
C1073 C 0.40428 0.85265 0.18946 0.0
C1074 C 0.37928 0.87362 0.1556 0.0
H1075 H 0.46227 0.91624 0.10941 0.0
H1076 H 0.44901 0.89438 0.12957 0.0
H1077 H 0.37432 0.88298 0.13377 0.0
H1078 H 0.34188 0.85725 0.20356 0.0
H1079 H 0.35129 0.87273 0.18026 0.0
H1080 H 0.42609 0.88792 0.17584 0.0
C1081 C 0.4368 0.90504 0.12401 0.0
C1082 C 0.3857 0.88413 0.14292 0.0
C1083 C 0.44432 0.91737 0.11234 0.0
C1084 C 0.35933 0.85564 0.19969 0.0
C1085 C 0.3647 0.86443 0.18632 0.0
C1086 C 0.41474 0.88634 0.1667 0.0
C1087 C 0.41396 0.90687 0.12869 0.0
C1088 C 0.40681 0.89562 0.14201 0.0
C1089 C 0.38737 0.86344 0.18119 0.0
C1090 C 0.39381 0.87452 0.16762 0.0
H1091 H 0.39398 0.94385 0.10388 0.0
H1092 H 0.38085 0.92238 0.12444 0.0
H1093 H 0.43729 0.90586 0.15382 0.0
H1094 H 0.41258 0.83634 0.209 0.0
H1095 H 0.42177 0.85105 0.18569 0.0
C1096 C 0.04245 0.60212 0.87792 0.0
C1097 C 0.05313 0.59503 0.89059 0.0
C1098 C 0.05546 0.61035 0.86668 0.0
C1099 C 0.08622 0.63635 0.84662 0.0
H1100 H 0.1378 0.59868 0.83501 0.0
C1101 C 0.13876 0.65482 0.796 0.0
C1102 C 0.14214 0.63585 0.78694 0.0
C1103 C 0.13069 0.65199 0.80987 0.0
C1104 C 0.12349 0.60941 0.83816 0.0
H1105 H 0.08595 0.59195 0.9015 0.0
H1106 H 0.10874 0.60597 0.88165 0.0
H1107 H 0.11801 0.59077 0.85727 0.0
H1108 H 0.14036 0.599 0.78554 0.0
H1109 H 0.12631 0.59412 0.80968 0.0
H1110 H 0.09115 0.65445 0.82725 0.0
C1111 C 0.09023 0.60502 0.88049 0.0
C1112 C 0.11232 0.60503 0.85097 0.0
C1113 C 0.07718 0.59694 0.89183 0.0
C1114 C 0.13789 0.61398 0.7922 0.0
C1115 C 0.13 0.61116 0.80608 0.0
C1116 C 0.09749 0.64081 0.83386 0.0
C1117 C 0.07951 0.61155 0.86774 0.0
C1118 C 0.09322 0.61812 0.85517 0.0
C1119 C 0.12605 0.63013 0.81501 0.0
C1120 C 0.1159 0.62706 0.82933 0.0
H1121 H 0.02406 0.60046 0.87641 0.0
H1122 H 0.04671 0.61487 0.8569 0.0
H1123 H 0.07168 0.64684 0.84965 0.0
H1124 H 0.1419 0.6719 0.7923 0.0
H1125 H 0.12797 0.66691 0.81654 0.0
C1126 C 0.44101 0.57386 0.12999 0.0
C1127 C 0.42716 0.55971 0.13827 0.0
C1128 C 0.43142 0.58654 0.11897 0.0
C1129 C 0.38107 0.58681 0.09486 0.0
H1130 H 0.40656 0.64474 0.08362 0.0
C1131 C 0.34927 0.63528 0.04507 0.0
C1132 C 0.36701 0.6418 0.03587 0.0
C1133 C 0.35437 0.62766 0.0588 0.0
C1134 C 0.39926 0.62858 0.08665 0.0
H1135 H 0.39223 0.54862 0.14198 0.0
H1136 H 0.37534 0.57113 0.12291 0.0
H1137 H 0.4192 0.62755 0.10583 0.0
H1138 H 0.40392 0.64609 0.03402 0.0
H1139 H 0.41271 0.63304 0.05793 0.0
H1140 H 0.36127 0.58786 0.07557 0.0
C1141 C 0.39372 0.57201 0.12469 0.0
C1142 C 0.40655 0.61867 0.09934 0.0
C1143 C 0.40336 0.55917 0.13565 0.0
C1144 C 0.38985 0.6411 0.04081 0.0
C1145 C 0.39489 0.63379 0.05455 0.0
C1146 C 0.37363 0.59684 0.08223 0.0
C1147 C 0.4077 0.58552 0.11603 0.0
C1148 C 0.39797 0.59738 0.10344 0.0
C1149 C 0.37725 0.62678 0.06364 0.0
C1150 C 0.38304 0.61756 0.07784 0.0
H1151 H 0.45945 0.57437 0.13161 0.0
H1152 H 0.44282 0.59641 0.1124 0.0
H1153 H 0.37429 0.57027 0.09754 0.0
H1154 H 0.3315 0.63562 0.04158 0.0
H1155 H 0.34044 0.62243 0.06562 0.0
C1156 C 0.44651 0.94086 0.37247 0.0
C1157 C 0.43827 0.94062 0.3865 0.0
C1158 C 0.43551 0.9284 0.36172 0.0
C1159 C 0.38071 0.90129 0.35159 0.0
H1160 H 0.41915 0.87162 0.32324 0.0
C1161 C 0.34588 0.84742 0.30331 0.0
C1162 C 0.35568 0.85314 0.29018 0.0
C1163 C 0.35487 0.85643 0.31606 0.0
C1164 C 0.4082 0.87984 0.33107 0.0
H1165 H 0.41176 0.92737 0.40022 0.0
H1166 H 0.39244 0.90534 0.38131 0.0
H1167 H 0.43689 0.89005 0.3439 0.0
H1168 H 0.38237 0.87293 0.2801 0.0
H1169 H 0.39806 0.88837 0.30224 0.0
H1170 H 0.352 0.89104 0.33855 0.0
C1171 C 0.40741 0.91533 0.37867 0.0
C1172 C 0.41834 0.89045 0.34288 0.0
C1173 C 0.41845 0.92792 0.38949 0.0
C1174 C 0.37446 0.86813 0.29003 0.0
C1175 C 0.38355 0.87688 0.30272 0.0
C1176 C 0.37052 0.89049 0.33976 0.0
C1177 C 0.41598 0.91528 0.36469 0.0
C1178 C 0.40479 0.90185 0.35308 0.0
C1179 C 0.37397 0.87102 0.31586 0.0
C1180 C 0.38425 0.88019 0.32922 0.0
H1181 H 0.4614 0.95093 0.36974 0.0
H1182 H 0.44222 0.92926 0.351 0.0
H1183 H 0.36981 0.90999 0.35923 0.0
H1184 H 0.33134 0.83595 0.30373 0.0
H1185 H 0.3472 0.85164 0.32606 0.0
C1186 C 0.07062 0.90044 0.64213 0.0
C1187 C 0.07724 0.92206 0.64728 0.0
C1188 C 0.08296 0.88965 0.63122 0.0
C1189 C 0.1169 0.86697 0.61064 0.0
H1190 H 0.13207 0.90751 0.57985 0.0
C1191 C 0.16373 0.83819 0.55858 0.0
C1192 C 0.15472 0.84721 0.54593 0.0
C1193 C 0.15579 0.84601 0.57184 0.0
C1194 C 0.12792 0.89595 0.58834 0.0
H1195 H 0.10276 0.94876 0.64538 0.0
H1196 H 0.12454 0.9297 0.6267 0.0
H1197 H 0.11628 0.9231 0.6018 0.0
H1198 H 0.12989 0.87096 0.53723 0.0
H1199 H 0.11609 0.88439 0.56023 0.0
H1200 H 0.12795 0.83973 0.59683 0.0
C1201 C 0.10957 0.92125 0.63093 0.0
C1202 C 0.11913 0.90491 0.60101 0.0
C1203 C 0.09722 0.93205 0.64179 0.0
C1204 C 0.13734 0.86378 0.54678 0.0
C1205 C 0.1295 0.87159 0.55996 0.0
C1206 C 0.1258 0.85798 0.59792 0.0
C1207 C 0.1022 0.90025 0.62522 0.0
C1208 C 0.11326 0.89054 0.61226 0.0
C1209 C 0.13883 0.86304 0.57264 0.0
C1210 C 0.13101 0.87237 0.58656 0.0
H1211 H 0.05552 0.89211 0.64628 0.0
H1212 H 0.07676 0.87352 0.62703 0.0
H1213 H 0.1127 0.85548 0.61916 0.0
H1214 H 0.17709 0.82538 0.55825 0.0
H1215 H 0.16332 0.83915 0.58144 0.0
C1216 C 0.58468 0.42074 0.85955 0.0
C1217 C 0.5755 0.44278 0.86136 0.0
C1218 C 0.59566 0.40983 0.8709 0.0
C1219 C 0.62465 0.42178 0.9051 0.0
H1220 H 0.60583 0.36113 0.91582 0.0
C1221 C 0.63861 0.3893 0.96146 0.0
C1222 C 0.64519 0.36656 0.96352 0.0
C1223 C 0.63252 0.39694 0.94798 0.0
C1224 C 0.61159 0.3779 0.91282 0.0
H1225 H 0.57022 0.47025 0.87673 0.0
H1226 H 0.58977 0.45155 0.89621 0.0
H1227 H 0.59113 0.37754 0.89373 0.0
H1228 H 0.65043 0.33394 0.95291 0.0
H1229 H 0.63981 0.34742 0.9292 0.0
H1230 H 0.64479 0.42244 0.92419 0.0
C1231 C 0.58876 0.44283 0.88599 0.0
C1232 C 0.60317 0.38729 0.90019 0.0
C1233 C 0.57762 0.45359 0.87476 0.0
C1234 C 0.64543 0.35157 0.9517 0.0
C1235 C 0.63928 0.35926 0.93814 0.0
C1236 C 0.63313 0.4124 0.91764 0.0
C1237 C 0.59788 0.42086 0.88421 0.0
C1238 C 0.60912 0.40957 0.89644 0.0
C1239 C 0.63289 0.38209 0.93613 0.0
C1240 C 0.62618 0.39063 0.92187 0.0
H1241 H 0.58354 0.41197 0.84936 0.0
H1242 H 0.60262 0.39291 0.86924 0.0
H1243 H 0.62988 0.43884 0.90233 0.0
H1244 H 0.63809 0.40133 0.9703 0.0
H1245 H 0.62721 0.41451 0.94688 0.0
C1246 C 0.57154 0.09059 0.10473 0.0
C1247 C 0.55044 0.07961 0.10699 0.0
C1248 C 0.58422 0.0994 0.11626 0.0
C1249 C 0.59272 0.09095 0.1545 0.0
H1250 H 0.61898 0.15155 0.15511 0.0
C1251 C 0.62778 0.13095 0.20615 0.0
C1252 C 0.64786 0.14412 0.20556 0.0
C1253 C 0.61685 0.12356 0.19367 0.0
C1254 C 0.61205 0.13446 0.15503 0.0
H1255 H 0.52611 0.06928 0.12309 0.0
H1256 H 0.54811 0.08471 0.1431 0.0
H1257 H 0.59818 0.13796 0.13394 0.0
H1258 H 0.67218 0.16001 0.19139 0.0
H1259 H 0.65328 0.1467 0.16951 0.0
H1260 H 0.6066 0.08719 0.17543 0.0
C1261 C 0.55487 0.0865 0.13245 0.0
C1262 C 0.60011 0.12673 0.14291 0.0
C1263 C 0.54215 0.0779 0.12096 0.0
C1264 C 0.65671 0.14989 0.19219 0.0
C1265 C 0.64581 0.14237 0.17966 0.0
C1266 C 0.60475 0.09858 0.16652 0.0
C1267 C 0.57616 0.09709 0.13025 0.0
C1268 C 0.59002 0.10502 0.14264 0.0
C1269 C 0.62581 0.129 0.18026 0.0
C1270 C 0.61424 0.12056 0.16705 0.0
H1271 H 0.5783 0.09223 0.09407 0.0
H1272 H 0.60062 0.10744 0.11427 0.0
H1273 H 0.58553 0.07395 0.15447 0.0
H1274 H 0.6204 0.12638 0.21628 0.0
H1275 H 0.60121 0.11372 0.19456 0.0
C1276 C 0.92818 0.09294 0.35517 0.0
C1277 C 0.95169 0.08861 0.3575 0.0
C1278 C 0.91467 0.10265 0.36595 0.0
C1279 C 0.88888 0.10614 0.39419 0.0
H1280 H 0.91286 0.15258 0.41996 0.0
C1281 C 0.85842 0.11711 0.45195 0.0
C1282 C 0.85688 0.1391 0.45796 0.0
C1283 C 0.86688 0.11381 0.4382 0.0
C1284 C 0.90572 0.13987 0.41275 0.0
H1285 H 0.97936 0.09133 0.37304 0.0
H1286 H 0.95596 0.10842 0.39165 0.0
H1287 H 0.93397 0.14268 0.39836 0.0
H1288 H 0.86234 0.17497 0.45398 0.0
H1289 H 0.87722 0.16914 0.42991 0.0
H1290 H 0.86087 0.103 0.40873 0.0
C1291 C 0.94801 0.10463 0.38144 0.0
C1292 C 0.91793 0.13404 0.40045 0.0
C1293 C 0.96145 0.09483 0.37072 0.0
C1294 C 0.86335 0.1578 0.4497 0.0
C1295 C 0.87197 0.15447 0.43594 0.0
C1296 C 0.87671 0.11191 0.40652 0.0
C1297 C 0.92441 0.10836 0.37926 0.0
C1298 C 0.90993 0.11673 0.39122 0.0
C1299 C 0.87411 0.1324 0.43011 0.0
C1300 C 0.88528 0.12845 0.41611 0.0
H1301 H 0.92016 0.08866 0.34505 0.0
H1302 H 0.89656 0.10553 0.36392 0.0
H1303 H 0.88232 0.09265 0.38733 0.0
H1304 H 0.85353 0.10232 0.45798 0.0
H1305 H 0.86857 0.09657 0.43411 0.0
C1306 C 0.93592 0.42779 0.60799 0.0
C1307 C 0.92216 0.44269 0.60004 0.0
C1308 C 0.9264 0.41486 0.61881 0.0
C1309 C 0.8774 0.41484 0.64349 0.0
H1310 H 0.90169 0.35542 0.65299 0.0
C1311 C 0.84922 0.36624 0.6938 0.0
C1312 C 0.8678 0.35904 0.70227 0.0
C1313 C 0.85292 0.37371 0.6799 0.0
C1314 C 0.8947 0.37198 0.65043 0.0
H1315 H 0.88739 0.45497 0.59683 0.0
H1316 H 0.87063 0.43215 0.61569 0.0
H1317 H 0.91321 0.3733 0.63085 0.0
H1318 H 0.90463 0.35316 0.7026 0.0
H1319 H 0.91097 0.36593 0.67841 0.0
H1320 H 0.85918 0.41357 0.66323 0.0
C1321 C 0.8889 0.43079 0.6137 0.0
C1322 C 0.90135 0.38227 0.63779 0.0
C1323 C 0.89848 0.44384 0.60289 0.0
C1324 C 0.88996 0.35871 0.69639 0.0
C1325 C 0.89359 0.36586 0.68248 0.0
C1326 C 0.87061 0.40444 0.6561 0.0
C1327 C 0.90282 0.4164 0.62195 0.0
C1328 C 0.8933 0.40412 0.63435 0.0
C1329 C 0.87518 0.37374 0.67415 0.0
C1330 C 0.87969 0.38319 0.65988 0.0
H1331 H 0.95429 0.4268 0.60623 0.0
H1332 H 0.93775 0.40432 0.6251 0.0
H1333 H 0.87104 0.43176 0.64129 0.0
H1334 H 0.83195 0.36671 0.69804 0.0
H1335 H 0.83841 0.37962 0.67368 0.0
C1336 C 0.59482 0.06384 0.38524 0.0
C1337 C 0.57864 0.07739 0.39248 0.0
C1338 C 0.60768 0.07279 0.37413 0.0
C1339 C 0.60497 0.11855 0.34766 0.0
H1340 H 0.66597 0.09649 0.33828 0.0
C1341 C 0.65249 0.14557 0.29665 0.0
C1342 C 0.66067 0.12717 0.28838 0.0
C1343 C 0.64518 0.14223 0.31064 0.0
C1344 C 0.64895 0.10283 0.3408 0.0
H1345 H 0.56414 0.11127 0.39431 0.0
H1346 H 0.58698 0.12712 0.37508 0.0
H1347 H 0.64868 0.08627 0.36094 0.0
H1348 H 0.66843 0.09104 0.2885 0.0
H1349 H 0.65589 0.08532 0.3129 0.0
H1350 H 0.60523 0.13493 0.32743 0.0
C1351 C 0.58933 0.1094 0.37775 0.0
C1352 C 0.639 0.09692 0.35374 0.0
C1353 C 0.57631 0.10037 0.38879 0.0
C1354 C 0.66212 0.10555 0.29455 0.0
C1355 C 0.6551 0.10229 0.30857 0.0
C1356 C 0.61503 0.12464 0.33479 0.0
C1357 C 0.6048 0.09557 0.37005 0.0
C1358 C 0.61663 0.10423 0.35719 0.0
C1359 C 0.64624 0.12051 0.31669 0.0
C1360 C 0.63689 0.11639 0.33108 0.0
H1361 H 0.59676 0.04598 0.38769 0.0
H1362 H 0.6191 0.06149 0.36832 0.0
H1363 H 0.58761 0.12425 0.34982 0.0
H1364 H 0.65116 0.16244 0.29221 0.0
H1365 H 0.63853 0.15659 0.3167 0.0
C1366 C 0.93328 0.0874 0.6396 0.0
C1367 C 0.94402 0.06631 0.63707 0.0
C1368 C 0.92265 0.09904 0.62842 0.0
C1369 C 0.89965 0.08925 0.59185 0.0
H1370 H 0.90459 0.15478 0.58864 0.0
C1371 C 0.88002 0.13524 0.53977 0.0
C1372 C 0.86563 0.15444 0.54054 0.0
C1373 C 0.88867 0.12546 0.55214 0.0
C1374 C 0.9029 0.1365 0.5895 0.0
H1375 H 0.95296 0.04136 0.62081 0.0
H1376 H 0.93494 0.0617 0.60136 0.0
H1377 H 0.92147 0.13582 0.60926 0.0
H1378 H 0.84952 0.17881 0.55489 0.0
H1379 H 0.86504 0.16179 0.57662 0.0
H1380 H 0.88168 0.08986 0.57193 0.0
C1381 C 0.93396 0.069 0.612 0.0
C1382 C 0.91249 0.12564 0.60131 0.0
C1383 C 0.94436 0.05734 0.62314 0.0
C1384 C 0.86052 0.16398 0.55397 0.0
C1385 C 0.86944 0.15432 0.56639 0.0
C1386 C 0.8903 0.10006 0.58003 0.0
C1387 C 0.92274 0.08987 0.61449 0.0
C1388 C 0.91129 0.10182 0.60251 0.0
C1389 C 0.88336 0.13478 0.56557 0.0
C1390 C 0.8921 0.12374 0.57863 0.0
H1391 H 0.93271 0.09466 0.65026 0.0
H1392 H 0.91403 0.115 0.63075 0.0
H1393 H 0.89784 0.07097 0.5926 0.0
H1394 H 0.88432 0.1275 0.52958 0.0
H1395 H 0.8996 0.11058 0.5512 0.0
C1396 C 0.8995 0.44773 0.88549 0.0
C1397 C 0.9102 0.46892 0.88366 0.0
C1398 C 0.89068 0.4356 0.87375 0.0
C1399 C 0.89841 0.42968 0.83509 0.0
H1400 H 0.83884 0.4002 0.83524 0.0
C1401 C 0.85863 0.39282 0.78378 0.0
C1402 C 0.84726 0.37181 0.78452 0.0
C1403 C 0.86542 0.40434 0.79619 0.0
C1404 C 0.85564 0.40811 0.83509 0.0
H1405 H 0.91996 0.494 0.86807 0.0
H1406 H 0.90438 0.47305 0.8477 0.0
H1407 H 0.85222 0.42086 0.8565 0.0
H1408 H 0.83377 0.34654 0.79885 0.0
H1409 H 0.846 0.36653 0.82058 0.0
H1410 H 0.90207 0.41689 0.81383 0.0
C1411 C 0.90289 0.46573 0.85818 0.0
C1412 C 0.86326 0.41995 0.84726 0.0
C1413 C 0.91157 0.47787 0.86988 0.0
C1414 C 0.8425 0.36271 0.79795 0.0
C1415 C 0.8494 0.37423 0.81039 0.0
C1416 C 0.89087 0.41779 0.823 0.0
C1417 C 0.89261 0.44435 0.85995 0.0
C1418 C 0.88463 0.43107 0.84731 0.0
C1419 C 0.86113 0.39509 0.80965 0.0
C1420 C 0.86929 0.40707 0.82278 0.0
H1421 H 0.89807 0.44047 0.89599 0.0
H1422 H 0.88292 0.41912 0.87542 0.0
H1423 H 0.91518 0.43767 0.83492 0.0
H1424 H 0.86237 0.40038 0.7736 0.0
H1425 H 0.87399 0.42059 0.79522 0.0
C1426 C 0.5739 0.40737 0.13574 0.0
C1427 C 0.55136 0.40148 0.1397 0.0
C1428 C 0.58565 0.39461 0.12543 0.0
C1429 C 0.57518 0.36535 0.093 0.0
H1430 H 0.63496 0.33682 0.09695 0.0
C1431 C 0.61765 0.32379 0.04437 0.0
C1432 C 0.64153 0.32577 0.04306 0.0
C1433 C 0.60692 0.32913 0.05724 0.0
C1434 C 0.61841 0.34495 0.09558 0.0
H1435 H 0.52426 0.3765 0.13641 0.0
H1436 H 0.54442 0.35513 0.11783 0.0
H1437 H 0.61631 0.35383 0.11782 0.0
H1438 H 0.67314 0.33435 0.0541 0.0
H1439 H 0.65441 0.34514 0.07637 0.0
H1440 H 0.57754 0.35825 0.07079 0.0
C1441 C 0.55288 0.36956 0.12288 0.0
C1442 C 0.6077 0.35448 0.10758 0.0
C1443 C 0.54129 0.38198 0.13341 0.0
C1444 C 0.65466 0.33256 0.05493 0.0
C1445 C 0.64386 0.33862 0.06772 0.0
C1446 C 0.58606 0.35638 0.08098 0.0
C1447 C 0.575 0.37598 0.11868 0.0
C1448 C 0.58601 0.36473 0.10634 0.0
C1449 C 0.61975 0.3374 0.06898 0.0
C1450 C 0.60786 0.34603 0.08205 0.0
H1451 H 0.58217 0.42241 0.14011 0.0
H1452 H 0.60264 0.39999 0.12221 0.0
H1453 H 0.55858 0.37352 0.09179 0.0
H1454 H 0.60722 0.3183 0.03537 0.0
H1455 H 0.58846 0.32714 0.05785 0.0
loop_
_geom_bond_atom_site_label_1
_geom_bond_atom_site_label_2
_geom_bond_distance
_geom_bond_site_symmetry_2
_ccdc_geom_bond_type
H0 C19 0.949 1_455 S
H1 C20 0.950 . S
H2 C22 0.950 . S
H3 C23 0.950 . S
H4 C25 0.950 . S
H5 C28 0.950 . S
H6 C29 0.950 . S
H7 C31 0.951 . S
H8 C32 0.949 . S
H9 C34 0.949 . S
H10 C35 0.950 . S
H11 C37 0.950 . S
H12 C38 0.950 1_545 S
H13 C40 0.950 . S
H14 C43 0.950 . S
H15 C44 0.950 . S
H16 C46 0.951 . S
H17 C47 0.949 . S
C18 C19 1.376 . S
C18 C23 1.386 . S
C18 C24 1.483 . S
C19 H0 0.949 1_655 S
C19 C18 1.376 . S
C19 C20 1.397 . S
C20 H1 0.950 . S
C20 C19 1.397 . S
C20 C21 1.391 . S
C21 C20 1.391 . S
C21 C22 1.405 . S
C22 H2 0.950 . S
C22 C21 1.405 . S
C22 C23 1.367 . S
C23 H3 0.950 . S
C23 C18 1.386 . S
C23 C22 1.367 . S
C24 C18 1.483 . S
C24 C25 1.382 1_655 S
C24 C26 1.403 . S
C25 H4 0.950 . S
C25 C24 1.382 1_455 S
C25 C41 1.411 . S
C26 C24 1.403 . S
C26 C27 1.489 . S
C26 C40 1.411 1_655 S
C27 C26 1.489 . S
C27 C28 1.383 . S
C27 C32 1.382 . S
C28 H5 0.950 . S
C28 C27 1.383 . S
C28 C29 1.395 . S
C29 H6 0.950 . S
C29 C28 1.395 . S
C29 C30 1.288 . S
C30 C29 1.288 . S
C30 C31 1.392 . S
C31 H7 0.951 . S
C31 C30 1.392 . S
C31 C32 1.392 . S
C32 H8 0.949 . S
C32 C27 1.382 . S
C32 C31 1.392 . S
C33 C34 1.376 . S
C33 C38 1.386 . S
C33 C39 1.483 . S
C34 H9 0.949 . S
C34 C33 1.376 . S
C34 C35 1.397 . S
C35 H10 0.950 . S
C35 C34 1.397 . S
C35 C36 1.391 . S
C36 C35 1.391 . S
C36 C37 1.405 . S
C37 H11 0.950 . S
C37 C36 1.405 . S
C37 C38 1.367 . S
C38 H12 0.950 1_565 S
C38 C33 1.386 . S
C38 C37 1.367 . S
C39 C33 1.483 . S
C39 C40 1.382 1_565 S
C39 C41 1.403 1_565 S
C40 H13 0.950 . S
C40 C26 1.411 1_455 S
C40 C39 1.382 1_545 S
C41 C25 1.411 . S
C41 C39 1.403 1_545 S
C41 C42 1.489 1_545 S
C42 C41 1.489 1_565 S
C42 C43 1.383 . S
C42 C47 1.382 1_565 S
C43 H14 0.950 . S
C43 C42 1.383 . S
C43 C44 1.395 . S
C44 H15 0.950 . S
C44 C43 1.395 . S
C44 C45 1.288 . S
C45 C44 1.288 . S
C45 C46 1.392 . S
C46 H16 0.951 . S
C46 C45 1.392 . S
C46 C47 1.392 1_565 S
C47 H17 0.949 . S
C47 C42 1.382 1_545 S
C47 C46 1.392 1_545 S
H48 C67 0.949 1_455 S
H49 C68 0.950 . S
H50 C70 0.950 . S
H51 C71 0.950 . S
H52 C73 0.950 . S
H53 C76 0.950 . S
H54 C77 0.950 . S
H55 C79 0.951 . S
H56 C80 0.949 . S
H57 C82 0.949 . S
H58 C83 0.950 . S
H59 C85 0.950 . S
H60 C86 0.950 . S
H61 C88 0.950 . S
H62 C91 0.950 . S
H63 C92 0.950 . S
H64 C94 0.951 . S
H65 C95 0.949 . S
C66 C67 1.376 . S
C66 C71 1.386 . S
C66 C72 1.483 . S
C67 H48 0.949 1_655 S
C67 C66 1.376 . S
C67 C68 1.397 . S
C68 H49 0.950 . S
C68 C67 1.397 . S
C68 C69 1.391 . S
C69 C68 1.391 . S
C69 C70 1.405 . S
C70 H50 0.950 . S
C70 C69 1.405 . S
C70 C71 1.367 . S
C71 H51 0.950 . S
C71 C66 1.386 . S
C71 C70 1.367 . S
C72 C66 1.483 . S
C72 C73 1.382 1_655 S
C72 C74 1.403 . S
C73 H52 0.950 . S
C73 C72 1.382 1_455 S
C73 C89 1.411 . S
C74 C72 1.403 . S
C74 C75 1.489 . S
C74 C88 1.411 1_655 S
C75 C74 1.489 . S
C75 C76 1.383 . S
C75 C80 1.382 . S
C76 H53 0.950 . S
C76 C75 1.383 . S
C76 C77 1.395 . S
C77 H54 0.950 . S
C77 C76 1.395 . S
C77 C78 1.288 . S
C78 C77 1.288 . S
C78 C79 1.392 . S
C79 H55 0.951 . S
C79 C78 1.392 . S
C79 C80 1.392 . S
C80 H56 0.949 . S
C80 C75 1.382 . S
C80 C79 1.392 . S
C81 C82 1.376 . S
C81 C86 1.386 . S
C81 C87 1.483 . S
C82 H57 0.949 . S
C82 C81 1.376 . S
C82 C83 1.397 . S
C83 H58 0.950 . S
C83 C82 1.397 . S
C83 C84 1.391 . S
C84 C83 1.391 . S
C84 C85 1.405 . S
C85 H59 0.950 . S
C85 C84 1.405 . S
C85 C86 1.367 . S
C86 H60 0.950 . S
C86 C81 1.386 . S
C86 C85 1.367 . S
C87 C81 1.483 . S
C87 C88 1.382 . S
C87 C89 1.403 . S
C88 H61 0.950 . S
C88 C74 1.411 1_455 S
C88 C87 1.382 . S
C89 C73 1.411 . S
C89 C87 1.403 . S
C89 C90 1.489 . S
C90 C89 1.489 . S
C90 C91 1.383 . S
C90 C95 1.382 . S
C91 H62 0.950 . S
C91 C90 1.383 . S
C91 C92 1.395 . S
C92 H63 0.950 . S
C92 C91 1.395 . S
C92 C93 1.288 . S
C93 C92 1.288 . S
C93 C94 1.392 . S
C94 H64 0.951 . S
C94 C93 1.392 . S
C94 C95 1.392 . S
C95 H65 0.949 . S
C95 C90 1.382 . S
C95 C94 1.392 . S
H96 C115 0.949 . S
H97 C116 0.950 . S
H98 C118 0.950 . S
H99 C119 0.950 . S
H100 C121 0.950 . S
H101 C124 0.950 . S
H102 C125 0.950 . S
H103 C127 0.951 . S
H104 C128 0.949 . S
H105 C130 0.949 . S
H106 C131 0.950 . S
H107 C133 0.950 . S
H108 C134 0.950 . S
H109 C136 0.950 . S
H110 C139 0.950 . S
H111 C140 0.950 . S
H112 C142 0.951 . S
H113 C143 0.949 . S
C114 C115 1.376 . S
C114 C119 1.386 . S
C114 C120 1.483 . S
C115 H96 0.949 . S
C115 C114 1.376 . S
C115 C116 1.397 . S
C116 H97 0.950 . S
C116 C115 1.397 . S
C116 C117 1.391 . S
C117 C116 1.391 . S
C117 C118 1.405 . S
C118 H98 0.950 . S
C118 C117 1.405 . S
C118 C119 1.367 . S
C119 H99 0.950 . S
C119 C114 1.386 . S
C119 C118 1.367 . S
C120 C114 1.483 . S
C120 C121 1.382 . S
C120 C122 1.403 . S
C121 H100 0.950 . S
C121 C120 1.382 . S
C121 C137 1.411 . S
C122 C120 1.403 . S
C122 C123 1.489 . S
C122 C136 1.411 . S
C123 C122 1.489 . S
C123 C124 1.383 . S
C123 C128 1.382 . S
C124 H101 0.950 . S
C124 C123 1.383 . S
C124 C125 1.395 . S
C125 H102 0.950 . S
C125 C124 1.395 . S
C125 C126 1.288 . S
C126 C125 1.288 . S
C126 C127 1.392 . S
C127 H103 0.951 . S
C127 C126 1.392 . S
C127 C128 1.392 . S
C128 H104 0.949 . S
C128 C123 1.382 . S
C128 C127 1.392 . S
C129 C130 1.376 . S
C129 C134 1.386 . S
C129 C135 1.483 . S
C130 H105 0.949 . S
C130 C129 1.376 . S
C130 C131 1.397 . S
C131 H106 0.950 . S
C131 C130 1.397 . S
C131 C132 1.391 . S
C132 C131 1.391 . S
C132 C133 1.405 . S
C133 H107 0.950 . S
C133 C132 1.405 . S
C133 C134 1.367 . S
C134 H108 0.950 . S
C134 C129 1.386 . S
C134 C133 1.367 . S
C135 C129 1.483 . S
C135 C136 1.382 . S
C135 C137 1.403 . S
C136 H109 0.950 . S
C136 C122 1.411 . S
C136 C135 1.382 . S
C137 C121 1.411 . S
C137 C135 1.403 . S
C137 C138 1.489 . S
C138 C137 1.489 . S
C138 C139 1.383 . S
C138 C143 1.382 . S
C139 H110 0.950 . S
C139 C138 1.383 . S
C139 C140 1.395 . S
C140 H111 0.950 . S
C140 C139 1.395 . S
C140 C141 1.288 . S
C141 C140 1.288 . S
C141 C142 1.392 . S
C142 H112 0.951 . S
C142 C141 1.392 . S
C142 C143 1.392 . S
C143 H113 0.949 . S
C143 C138 1.382 . S
C143 C142 1.392 . S
H144 C163 0.949 . S
H145 C164 0.950 . S
H146 C166 0.950 . S
H147 C167 0.950 . S
H148 C169 0.950 . S
H149 C172 0.950 . S
H150 C173 0.950 . S
H151 C175 0.951 . S
H152 C176 0.949 . S
H153 C178 0.949 . S
H154 C179 0.950 . S
H155 C181 0.950 . S
H156 C182 0.950 . S
H157 C184 0.950 . S
H158 C187 0.950 . S
H159 C188 0.950 . S
H160 C190 0.951 . S
H161 C191 0.949 . S
C162 C163 1.376 . S
C162 C167 1.386 . S
C162 C168 1.483 . S
C163 H144 0.949 . S
C163 C162 1.376 . S
C163 C164 1.397 . S
C164 H145 0.950 . S
C164 C163 1.397 . S
C164 C165 1.391 . S
C165 C164 1.391 . S
C165 C166 1.405 . S
C166 H146 0.950 . S
C166 C165 1.405 . S
C166 C167 1.367 . S
C167 H147 0.950 . S
C167 C162 1.386 . S
C167 C166 1.367 . S
C168 C162 1.483 . S
C168 C169 1.382 . S
C168 C170 1.403 . S
C169 H148 0.950 . S
C169 C168 1.382 . S
C169 C185 1.411 1_565 S
C170 C168 1.403 . S
C170 C171 1.489 . S
C170 C184 1.411 1_565 S
C171 C170 1.489 . S
C171 C172 1.383 . S
C171 C176 1.382 . S
C172 H149 0.950 . S
C172 C171 1.383 . S
C172 C173 1.395 . S
C173 H150 0.950 . S
C173 C172 1.395 . S
C173 C174 1.288 . S
C174 C173 1.288 . S
C174 C175 1.392 . S
C175 H151 0.951 . S
C175 C174 1.392 . S
C175 C176 1.392 . S
C176 H152 0.949 . S
C176 C171 1.382 . S
C176 C175 1.392 . S
C177 C178 1.376 . S
C177 C182 1.386 . S
C177 C183 1.483 . S
C178 H153 0.949 . S
C178 C177 1.376 . S
C178 C179 1.397 . S
C179 H154 0.950 . S
C179 C178 1.397 . S
C179 C180 1.391 . S
C180 C179 1.391 . S
C180 C181 1.405 . S
C181 H155 0.950 . S
C181 C180 1.405 . S
C181 C182 1.367 . S
C182 H156 0.950 . S
C182 C177 1.386 . S
C182 C181 1.367 . S
C183 C177 1.483 . S
C183 C184 1.382 . S
C183 C185 1.403 . S
C184 H157 0.950 . S
C184 C170 1.411 1_545 S
C184 C183 1.382 . S
C185 C169 1.411 1_545 S
C185 C183 1.403 . S
C185 C186 1.489 . S
C186 C185 1.489 . S
C186 C187 1.383 . S
C186 C191 1.382 . S
C187 H158 0.950 . S
C187 C186 1.383 . S
C187 C188 1.395 . S
C188 H159 0.950 . S
C188 C187 1.395 . S
C188 C189 1.288 . S
C189 C188 1.288 . S
C189 C190 1.392 . S
C190 H160 0.951 . S
C190 C189 1.392 . S
C190 C191 1.392 . S
C191 H161 0.949 . S
C191 C186 1.382 . S
C191 C190 1.392 . S
H192 C211 0.949 . S
H193 C212 0.950 . S
H194 C214 0.950 . S
H195 C215 0.950 . S
H196 C217 0.950 . S
H197 C220 0.950 . S
H198 C221 0.950 . S
H199 C223 0.951 . S
H200 C224 0.949 . S
H201 C226 0.949 . S
H202 C227 0.950 . S
H203 C229 0.950 . S
H204 C230 0.950 . S
H205 C232 0.950 . S
H206 C235 0.950 . S
H207 C236 0.950 . S
H208 C238 0.951 . S
H209 C239 0.949 . S
C210 C211 1.376 . S
C210 C215 1.386 . S
C210 C216 1.483 . S
C211 H192 0.949 . S
C211 C210 1.376 . S
C211 C212 1.397 . S
C212 H193 0.950 . S
C212 C211 1.397 . S
C212 C213 1.391 . S
C213 C212 1.391 . S
C213 C214 1.405 . S
C214 H194 0.950 . S
C214 C213 1.405 . S
C214 C215 1.367 . S
C215 H195 0.950 . S
C215 C210 1.386 . S
C215 C214 1.367 . S
C216 C210 1.483 . S
C216 C217 1.382 1_455 S
C216 C218 1.403 . S
C217 H196 0.950 . S
C217 C216 1.382 1_655 S
C217 C233 1.411 . S
C218 C216 1.403 . S
C218 C219 1.489 . S
C218 C232 1.411 . S
C219 C218 1.489 . S
C219 C220 1.383 . S
C219 C224 1.382 . S
C220 H197 0.950 . S
C220 C219 1.383 . S
C220 C221 1.395 . S
C221 H198 0.950 . S
C221 C220 1.395 . S
C221 C222 1.288 . S
C222 C221 1.288 . S
C222 C223 1.392 . S
C223 H199 0.951 . S
C223 C222 1.392 . S
C223 C224 1.392 . S
C224 H200 0.949 . S
C224 C219 1.382 . S
C224 C223 1.392 . S
C225 C226 1.376 . S
C225 C230 1.386 . S
C225 C231 1.483 . S
C226 H201 0.949 . S
C226 C225 1.376 . S
C226 C227 1.397 . S
C227 H202 0.950 . S
C227 C226 1.397 . S
C227 C228 1.391 . S
C228 C227 1.391 . S
C228 C229 1.405 . S
C229 H203 0.950 . S
C229 C228 1.405 . S
C229 C230 1.367 . S
C230 H204 0.950 . S
C230 C225 1.386 . S
C230 C229 1.367 . S
C231 C225 1.483 . S
C231 C232 1.382 1_655 S
C231 C233 1.403 . S
C232 H205 0.950 . S
C232 C218 1.411 . S
C232 C231 1.382 1_455 S
C233 C217 1.411 . S
C233 C231 1.403 . S
C233 C234 1.489 . S
C234 C233 1.489 . S
C234 C235 1.383 . S
C234 C239 1.382 . S
C235 H206 0.950 . S
C235 C234 1.383 . S
C235 C236 1.395 . S
C236 H207 0.950 . S
C236 C235 1.395 . S
C236 C237 1.288 . S
C237 C236 1.288 . S
C237 C238 1.392 . S
C238 H208 0.951 . S
C238 C237 1.392 . S
C238 C239 1.392 . S
C239 H209 0.949 . S
C239 C234 1.382 . S
C239 C238 1.392 . S
H240 C259 0.949 . S
H241 C260 0.950 . S
H242 C262 0.950 . S
H243 C263 0.950 . S
H244 C265 0.950 . S
H245 C268 0.950 . S
H246 C269 0.950 . S
H247 C271 0.951 . S
H248 C272 0.949 . S
H249 C274 0.949 . S
H250 C275 0.950 . S
H251 C277 0.950 . S
H252 C278 0.950 . S
H253 C280 0.950 . S
H254 C283 0.950 . S
H255 C284 0.950 . S
H256 C286 0.951 . S
H257 C287 0.949 . S
C258 C259 1.376 . S
C258 C263 1.386 . S
C258 C264 1.483 . S
C259 H240 0.949 . S
C259 C258 1.376 . S
C259 C260 1.397 . S
C260 H241 0.950 . S
C260 C259 1.397 . S
C260 C261 1.391 . S
C261 C260 1.391 . S
C261 C262 1.405 . S
C262 H242 0.950 . S
C262 C261 1.405 . S
C262 C263 1.367 . S
C263 H243 0.950 . S
C263 C258 1.386 . S
C263 C262 1.367 . S
C264 C258 1.483 . S
C264 C265 1.382 . S
C264 C266 1.403 . S
C265 H244 0.950 . S
C265 C264 1.382 . S
C265 C281 1.411 . S
C266 C264 1.403 . S
C266 C267 1.489 . S
C266 C280 1.411 . S
C267 C266 1.489 . S
C267 C268 1.383 . S
C267 C272 1.382 . S
C268 H245 0.950 . S
C268 C267 1.383 . S
C268 C269 1.395 . S
C269 H246 0.950 . S
C269 C268 1.395 . S
C269 C270 1.288 . S
C270 C269 1.288 . S
C270 C271 1.392 . S
C271 H247 0.951 . S
C271 C270 1.392 . S
C271 C272 1.392 . S
C272 H248 0.949 . S
C272 C267 1.382 . S
C272 C271 1.392 . S
C273 C274 1.376 . S
C273 C278 1.386 . S
C273 C279 1.483 . S
C274 H249 0.949 . S
C274 C273 1.376 . S
C274 C275 1.397 . S
C275 H250 0.950 . S
C275 C274 1.397 . S
C275 C276 1.391 . S
C276 C275 1.391 . S
C276 C277 1.405 . S
C277 H251 0.950 . S
C277 C276 1.405 . S
C277 C278 1.367 . S
C278 H252 0.950 . S
C278 C273 1.386 . S
C278 C277 1.367 . S
C279 C273 1.483 . S
C279 C280 1.382 . S
C279 C281 1.403 . S
C280 H253 0.950 . S
C280 C266 1.411 . S
C280 C279 1.382 . S
C281 C265 1.411 . S
C281 C279 1.403 . S
C281 C282 1.489 . S
C282 C281 1.489 . S
C282 C283 1.383 . S
C282 C287 1.382 . S
C283 H254 0.950 . S
C283 C282 1.383 . S
C283 C284 1.395 . S
C284 H255 0.950 . S
C284 C283 1.395 . S
C284 C285 1.288 . S
C285 C284 1.288 . S
C285 C286 1.392 . S
C286 H256 0.951 . S
C286 C285 1.392 . S
C286 C287 1.392 . S
C287 H257 0.949 . S
C287 C282 1.382 . S
C287 C286 1.392 . S
H288 C307 0.949 . S
H289 C308 0.950 . S
H290 C310 0.950 . S
H291 C311 0.950 . S
H292 C313 0.950 . S
H293 C316 0.950 . S
H294 C317 0.950 . S
H295 C319 0.951 . S
H296 C320 0.949 1_545 S
H297 C322 0.949 . S
H298 C323 0.950 . S
H299 C325 0.950 . S
H300 C326 0.950 . S
H301 C328 0.950 . S
H302 C331 0.950 . S
H303 C332 0.950 . S
H304 C334 0.951 . S
H305 C335 0.949 . S
C306 C307 1.376 . S
C306 C311 1.386 . S
C306 C312 1.483 . S
C307 H288 0.949 . S
C307 C306 1.376 . S
C307 C308 1.397 . S
C308 H289 0.950 . S
C308 C307 1.397 . S
C308 C309 1.391 . S
C309 C308 1.391 . S
C309 C310 1.405 . S
C310 H290 0.950 . S
C310 C309 1.405 . S
C310 C311 1.367 . S
C311 H291 0.950 . S
C311 C306 1.386 . S
C311 C310 1.367 . S
C312 C306 1.483 . S
C312 C313 1.382 1_565 S
C312 C314 1.403 . S
C313 H292 0.950 . S
C313 C312 1.382 1_545 S
C313 C329 1.411 . S
C314 C312 1.403 . S
C314 C315 1.489 . S
C314 C328 1.411 1_565 S
C315 C314 1.489 . S
C315 C316 1.383 . S
C315 C320 1.382 . S
C316 H293 0.950 . S
C316 C315 1.383 . S
C316 C317 1.395 . S
C317 H294 0.950 . S
C317 C316 1.395 . S
C317 C318 1.288 . S
C318 C317 1.288 . S
C318 C319 1.392 . S
C319 H295 0.951 . S
C319 C318 1.392 . S
C319 C320 1.392 . S
C320 H296 0.949 1_565 S
C320 C315 1.382 . S
C320 C319 1.392 . S
C321 C322 1.376 . S
C321 C326 1.386 . S
C321 C327 1.483 . S
C322 H297 0.949 . S
C322 C321 1.376 . S
C322 C323 1.397 . S
C323 H298 0.950 . S
C323 C322 1.397 . S
C323 C324 1.391 . S
C324 C323 1.391 . S
C324 C325 1.405 . S
C325 H299 0.950 . S
C325 C324 1.405 . S
C325 C326 1.367 . S
C326 H300 0.950 . S
C326 C321 1.386 . S
C326 C325 1.367 . S
C327 C321 1.483 . S
C327 C328 1.382 . S
C327 C329 1.403 . S
C328 H301 0.950 . S
C328 C314 1.411 1_545 S
C328 C327 1.382 . S
C329 C313 1.411 . S
C329 C327 1.403 . S
C329 C330 1.489 . S
C330 C329 1.489 . S
C330 C331 1.383 . S
C330 C335 1.382 . S
C331 H302 0.950 . S
C331 C330 1.383 . S
C331 C332 1.395 . S
C332 H303 0.950 . S
C332 C331 1.395 . S
C332 C333 1.288 . S
C333 C332 1.288 . S
C333 C334 1.392 . S
C334 H304 0.951 . S
C334 C333 1.392 . S
C334 C335 1.392 . S
C335 H305 0.949 . S
C335 C330 1.382 . S
C335 C334 1.392 . S
H336 C355 0.949 . S
H337 C356 0.950 1_455 S
H338 C358 0.950 . S
H339 C359 0.950 . S
H340 C361 0.950 . S
H341 C364 0.950 1_455 S
H342 C365 0.950 . S
H343 C367 0.951 . S
H344 C368 0.949 . S
H345 C370 0.949 . S
H346 C371 0.950 . S
H347 C373 0.950 . S
H348 C374 0.950 1_545 S
H349 C376 0.950 . S
H350 C379 0.950 . S
H351 C380 0.950 . S
H352 C382 0.951 . S
H353 C383 0.949 . S
C354 C355 1.376 1_655 S
C354 C359 1.386 . S
C354 C360 1.483 1_655 S
C355 H336 0.949 . S
C355 C354 1.376 1_455 S
C355 C356 1.397 1_455 S
C356 H337 0.950 1_655 S
C356 C355 1.397 1_655 S
C356 C357 1.391 . S
C357 C356 1.391 . S
C357 C358 1.405 . S
C358 H338 0.950 . S
C358 C357 1.405 . S
C358 C359 1.367 . S
C359 H339 0.950 . S
C359 C354 1.386 . S
C359 C358 1.367 . S
C360 C354 1.483 1_455 S
C360 C361 1.382 . S
C360 C362 1.403 . S
C361 H340 0.950 . S
C361 C360 1.382 . S
C361 C377 1.411 . S
C362 C360 1.403 . S
C362 C363 1.489 1_455 S
C362 C376 1.411 . S
C363 C362 1.489 1_655 S
C363 C364 1.383 . S
C363 C368 1.382 . S
C364 H341 0.950 1_655 S
C364 C363 1.383 . S
C364 C365 1.395 . S
C365 H342 0.950 . S
C365 C364 1.395 . S
C365 C366 1.288 . S
C366 C365 1.288 . S
C366 C367 1.392 . S
C367 H343 0.951 . S
C367 C366 1.392 . S
C367 C368 1.392 . S
C368 H344 0.949 . S
C368 C363 1.382 . S
C368 C367 1.392 . S
C369 C370 1.376 . S
C369 C374 1.386 . S
C369 C375 1.483 1_565 S
C370 H345 0.949 . S
C370 C369 1.376 . S
C370 C371 1.397 . S
C371 H346 0.950 . S
C371 C370 1.397 . S
C371 C372 1.391 . S
C372 C371 1.391 . S
C372 C373 1.405 . S
C373 H347 0.950 . S
C373 C372 1.405 . S
C373 C374 1.367 . S
C374 H348 0.950 1_565 S
C374 C369 1.386 . S
C374 C373 1.367 . S
C375 C369 1.483 1_545 S
C375 C376 1.382 . S
C375 C377 1.403 . S
C376 H349 0.950 . S
C376 C362 1.411 . S
C376 C375 1.382 . S
C377 C361 1.411 . S
C377 C375 1.403 . S
C377 C378 1.489 1_545 S
C378 C377 1.489 1_565 S
C378 C379 1.383 . S
C378 C383 1.382 1_565 S
C379 H350 0.950 . S
C379 C378 1.383 . S
C379 C380 1.395 . S
C380 H351 0.950 . S
C380 C379 1.395 . S
C380 C381 1.288 . S
C381 C380 1.288 . S
C381 C382 1.392 . S
C382 H352 0.951 . S
C382 C381 1.392 . S
C382 C383 1.392 1_565 S
C383 H353 0.949 . S
C383 C378 1.382 1_545 S
C383 C382 1.392 1_545 S
C384 O385 1.306 . S
C384 O387 1.160 . S
O385 C384 1.306 . S
O385 Cd386 2.228 . S
Cd386 O385 2.228 . S
Cd386 O390 2.273 1_554 S
Cd386 O394 2.277 . S
O387 C384 1.160 . S
O387 Cd388 2.203 . S
Cd388 O387 2.203 . S
Cd388 O390 2.411 1_554 S
Cd388 O391 2.333 1_554 S
Cd388 O392 2.352 . S
Cd388 O396 2.277 . S
Cd388 O397 2.363 . S
C389 O394 1.209 . S
C389 O396 1.226 . S
O390 Cd386 2.273 1_556 S
O390 Cd388 2.411 1_556 S
O390 C393 1.320 . S
O391 Cd388 2.333 1_556 S
O391 C393 1.214 . S
O392 Cd388 2.352 . S
O392 C395 1.271 . S
C393 O390 1.320 . S
C393 O391 1.214 . S
O394 Cd386 2.277 . S
O394 C389 1.209 . S
C395 O392 1.271 . S
C395 O397 1.281 . S
O396 Cd388 2.277 . S
O396 C389 1.226 . S
O397 Cd388 2.363 . S
O397 C395 1.281 . S
C398 O399 1.306 . S
C398 O401 1.160 . S
O399 C398 1.306 . S
O399 Cd400 2.228 . S
Cd400 O399 2.228 . S
Cd400 O404 2.273 . S
Cd400 O408 2.277 . S
O401 C398 1.160 . S
O401 Cd402 2.203 . S
Cd402 O401 2.203 . S
Cd402 O404 2.411 . S
Cd402 O405 2.333 . S
Cd402 O406 2.352 . S
Cd402 O410 2.277 . S
Cd402 O411 2.356 . S
C403 O408 1.209 . S
C403 O410 1.226 . S
O404 Cd400 2.273 . S
O404 Cd402 2.411 . S
O404 C407 1.320 . S
O405 Cd402 2.333 . S
O405 C407 1.214 . S
O406 Cd402 2.352 . S
O406 C409 1.258 . S
C407 O404 1.320 . S
C407 O405 1.214 . S
O408 Cd400 2.277 . S
O408 C403 1.209 . S
C409 O406 1.258 . S
C409 O411 1.282 . S
O410 Cd402 2.277 . S
O410 C403 1.226 . S
O411 Cd402 2.356 . S
O411 C409 1.282 . S
C412 O413 1.306 . S
C412 O415 1.160 . S
O413 C412 1.306 . S
O413 Cd414 2.228 . S
Cd414 O413 2.228 . S
Cd414 O418 2.273 . S
Cd414 O422 2.277 . S
O415 C412 1.160 . S
O415 Cd416 2.203 . S
Cd416 O415 2.203 . S
Cd416 O418 2.411 . S
Cd416 O419 2.333 . S
Cd416 O420 2.352 . S
Cd416 O424 2.277 . S
Cd416 O425 2.356 . S
C417 O422 1.209 . S
C417 O424 1.226 . S
O418 Cd414 2.273 . S
O418 Cd416 2.411 . S
O418 C421 1.320 . S
O419 Cd416 2.333 . S
O419 C421 1.214 . S
O420 Cd416 2.352 . S
O420 C423 1.258 . S
C421 O418 1.320 . S
C421 O419 1.214 . S
O422 Cd414 2.277 . S
O422 C417 1.209 . S
C423 O420 1.258 . S
C423 O425 1.282 . S
O424 Cd416 2.277 . S
O424 C417 1.226 . S
O425 Cd416 2.356 . S
O425 C423 1.282 . S
C426 O427 1.306 . S
C426 O429 1.160 . S
O427 C426 1.306 . S
O427 Cd428 2.228 . S
Cd428 O427 2.228 . S
Cd428 O432 2.273 . S
Cd428 O436 2.277 . S
O429 C426 1.160 . S
O429 Cd430 2.203 . S
Cd430 O429 2.203 . S
Cd430 O432 2.411 . S
Cd430 O433 2.333 . S
Cd430 O434 2.352 . S
Cd430 O438 2.277 . S
Cd430 O439 2.356 . S
C431 O436 1.209 . S
C431 O438 1.226 . S
O432 Cd428 2.273 . S
O432 Cd430 2.411 . S
O432 C435 1.320 . S
O433 Cd430 2.333 . S
O433 C435 1.214 . S
O434 Cd430 2.352 . S
O434 C437 1.258 . S
C435 O432 1.320 . S
C435 O433 1.214 . S
O436 Cd428 2.277 . S
O436 C431 1.209 . S
C437 O434 1.258 . S
C437 O439 1.282 . S
O438 Cd430 2.277 . S
O438 C431 1.226 . S
O439 Cd430 2.356 . S
O439 C437 1.282 . S
C440 O441 1.306 . S
C440 O443 1.160 . S
O441 C440 1.306 . S
O441 Cd442 2.228 . S
Cd442 O441 2.228 . S
Cd442 O446 2.273 . S
Cd442 O450 2.277 . S
O443 C440 1.160 . S
O443 Cd444 2.203 . S
Cd444 O443 2.203 . S
Cd444 O446 2.411 . S
Cd444 O447 2.333 . S
Cd444 O448 2.352 . S
Cd444 O452 2.277 . S
Cd444 O453 2.356 . S
C445 O450 1.209 . S
C445 O452 1.226 . S
O446 Cd442 2.273 . S
O446 Cd444 2.411 . S
O446 C449 1.320 . S
O447 Cd444 2.333 . S
O447 C449 1.214 . S
O448 Cd444 2.352 . S
O448 C451 1.258 . S
C449 O446 1.320 . S
C449 O447 1.214 . S
O450 Cd442 2.277 . S
O450 C445 1.209 . S
C451 O448 1.258 . S
C451 O453 1.282 . S
O452 Cd444 2.277 . S
O452 C445 1.226 . S
O453 Cd444 2.356 . S
O453 C451 1.282 . S
C454 O455 1.306 . S
C454 O457 1.160 . S
O455 C454 1.306 . S
O455 Cd456 2.228 . S
Cd456 O455 2.228 . S
Cd456 O460 2.273 . S
Cd456 O464 2.277 . S
O457 C454 1.160 . S
O457 Cd458 2.203 . S
Cd458 O457 2.203 . S
Cd458 O460 2.411 . S
Cd458 O461 2.333 . S
Cd458 O462 2.352 . S
Cd458 O466 2.277 . S
Cd458 O467 2.356 . S
C459 O464 1.209 . S
C459 O466 1.226 . S
O460 Cd456 2.273 . S
O460 Cd458 2.411 . S
O460 C463 1.320 . S
O461 Cd458 2.333 . S
O461 C463 1.214 . S
O462 Cd458 2.352 . S
O462 C465 1.258 . S
C463 O460 1.320 . S
C463 O461 1.214 . S
O464 Cd456 2.277 . S
O464 C459 1.209 . S
C465 O462 1.258 . S
C465 O467 1.282 . S
O466 Cd458 2.277 . S
O466 C459 1.226 . S
O467 Cd458 2.356 . S
O467 C465 1.282 . S
C468 O469 1.306 . S
C468 O471 1.160 . S
O469 C468 1.306 . S
O469 Cd470 2.258 . S
Cd470 O469 2.258 . S
Cd470 O474 2.249 1_556 S
Cd470 O478 2.281 . S
O471 C468 1.160 . S
O471 Cd472 2.203 1_556 S
Cd472 O471 2.203 1_554 S
Cd472 O474 2.411 . S
Cd472 O475 2.333 . S
Cd472 O476 2.352 . S
Cd472 O480 2.277 1_554 S
Cd472 O481 2.356 . S
C473 O478 1.209 . S
C473 O480 1.226 . S
O474 Cd470 2.249 1_554 S
O474 Cd472 2.411 . S
O474 C477 1.320 . S
O475 Cd472 2.333 . S
O475 C477 1.214 . S
O476 Cd472 2.352 . S
O476 C479 1.258 . S
C477 O474 1.320 . S
C477 O475 1.214 . S
O478 Cd470 2.281 . S
O478 C473 1.209 . S
C479 O476 1.258 . S
C479 O481 1.282 . S
O480 Cd472 2.277 1_556 S
O480 C473 1.226 . S
O481 Cd472 2.356 . S
O481 C479 1.282 . S
C482 O483 1.306 . S
C482 O485 1.160 . S
O483 C482 1.306 . S
O483 Cd484 2.228 . S
Cd484 O483 2.228 . S
Cd484 O488 2.273 . S
Cd484 O492 2.277 . S
O485 C482 1.160 . S
O485 Cd486 2.203 . S
Cd486 O485 2.203 . S
Cd486 O488 2.411 . S
Cd486 O489 2.333 . S
Cd486 O490 2.352 . S
Cd486 O494 2.277 . S
Cd486 O495 2.356 . S
C487 O492 1.209 . S
C487 O494 1.226 . S
O488 Cd484 2.273 . S
O488 Cd486 2.411 . S
O488 C491 1.320 . S
O489 Cd486 2.333 . S
O489 C491 1.214 . S
O490 Cd486 2.352 . S
O490 C493 1.258 . S
C491 O488 1.320 . S
C491 O489 1.214 . S
O492 Cd484 2.277 . S
O492 C487 1.209 . S
C493 O490 1.258 . S
C493 O495 1.282 . S
O494 Cd486 2.277 . S
O494 C487 1.226 . S
O495 Cd486 2.356 . S
O495 C493 1.282 . S
C496 C497 1.349 . S
C496 C498 1.327 . S
C496 H521 0.950 . S
C497 C496 1.349 . S
C497 C513 1.349 . S
C498 C496 1.327 . S
C498 C517 1.429 . S
C498 H522 0.950 . S
C499 C516 1.574 . S
C499 C518 1.368 . S
C499 H523 0.949 . S
H500 C504 0.949 . S
C501 C502 1.349 . S
C501 C503 1.327 . S
C501 H524 0.950 . S
C502 C501 1.349 . S
C502 C514 1.349 . S
C503 C501 1.327 . S
C503 C519 1.429 . S
C503 H525 0.950 . S
C504 H500 0.949 . S
C504 C512 1.574 . S
C504 C520 1.368 . S
H505 C513 0.950 . S
H506 C511 0.950 . S
H507 C512 0.949 . S
H508 C514 0.950 . S
H509 C515 0.950 . S
H510 C516 0.949 . S
C511 H506 0.950 . S
C511 C513 1.327 . S
C511 C517 1.429 . S
C512 C504 1.574 . S
C512 H507 0.949 . S
C512 C518 1.368 . S
C513 C497 1.349 . S
C513 H505 0.950 . S
C513 C511 1.327 . S
C514 C502 1.349 . S
C514 H508 0.950 . S
C514 C515 1.327 . S
C515 H509 0.950 . S
C515 C514 1.327 . S
C515 C519 1.429 . S
C516 C499 1.574 . S
C516 H510 0.949 . S
C516 C520 1.368 . S
C517 C498 1.429 . S
C517 C511 1.429 . S
C517 C518 1.523 . S
C518 C499 1.368 . S
C518 C512 1.368 . S
C518 C517 1.523 . S
C519 C503 1.429 . S
C519 C515 1.429 . S
C519 C520 1.523 . S
C520 C504 1.368 . S
C520 C516 1.368 . S
C520 C519 1.523 . S
H521 C496 0.950 . S
H522 C498 0.950 . S
H523 C499 0.949 . S
H524 C501 0.950 . S
H525 C503 0.950 . S
C526 C527 1.349 . S
C526 C528 1.327 . S
C526 H551 0.950 . S
C527 C526 1.349 . S
C527 C543 1.349 . S
C528 C526 1.327 . S
C528 C547 1.429 . S
C528 H552 0.950 . S
C529 C546 1.574 . S
C529 C548 1.368 . S
C529 H553 0.949 . S
H530 C534 0.949 . S
C531 C532 1.349 . S
C531 C533 1.327 . S
C531 H554 0.950 . S
C532 C531 1.349 . S
C532 C544 1.349 . S
C533 C531 1.327 . S
C533 C549 1.429 . S
C533 H555 0.950 . S
C534 H530 0.949 . S
C534 C542 1.574 . S
C534 C550 1.368 . S
H535 C543 0.950 . S
H536 C541 0.950 . S
H537 C542 0.949 . S
H538 C544 0.950 . S
H539 C545 0.950 . S
H540 C546 0.949 . S
C541 H536 0.950 . S
C541 C543 1.327 . S
C541 C547 1.429 . S
C542 C534 1.574 . S
C542 H537 0.949 . S
C542 C548 1.368 . S
C543 C527 1.349 . S
C543 H535 0.950 . S
C543 C541 1.327 . S
C544 C532 1.349 . S
C544 H538 0.950 . S
C544 C545 1.327 . S
C545 H539 0.950 . S
C545 C544 1.327 . S
C545 C549 1.429 . S
C546 C529 1.574 . S
C546 H540 0.949 . S
C546 C550 1.368 . S
C547 C528 1.429 . S
C547 C541 1.429 . S
C547 C548 1.523 . S
C548 C529 1.368 . S
C548 C542 1.368 . S
C548 C547 1.523 . S
C549 C533 1.429 . S
C549 C545 1.429 . S
C549 C550 1.523 . S
C550 C534 1.368 . S
C550 C546 1.368 . S
C550 C549 1.523 . S
H551 C526 0.950 . S
H552 C528 0.950 . S
H553 C529 0.949 . S
H554 C531 0.950 . S
H555 C533 0.950 . S
C556 C557 1.349 . S
C556 C558 1.327 . S
C556 H581 0.950 . S
C557 C556 1.349 . S
C557 C573 1.349 . S
C558 C556 1.327 . S
C558 C577 1.429 . S
C558 H582 0.950 . S
C559 C576 1.574 . S
C559 C578 1.368 . S
C559 H583 0.949 . S
H560 C564 0.949 . S
C561 C562 1.349 . S
C561 C563 1.327 . S
C561 H584 0.950 . S
C562 C561 1.349 . S
C562 C574 1.349 . S
C563 C561 1.327 . S
C563 C579 1.429 . S
C563 H585 0.950 . S
C564 H560 0.949 . S
C564 C572 1.574 . S
C564 C580 1.368 . S
H565 C573 0.950 . S
H566 C571 0.950 . S
H567 C572 0.949 . S
H568 C574 0.950 . S
H569 C575 0.950 . S
H570 C576 0.949 . S
C571 H566 0.950 . S
C571 C573 1.327 . S
C571 C577 1.429 . S
C572 C564 1.574 . S
C572 H567 0.949 . S
C572 C578 1.368 . S
C573 C557 1.349 . S
C573 H565 0.950 . S
C573 C571 1.327 . S
C574 C562 1.349 . S
C574 H568 0.950 . S
C574 C575 1.327 . S
C575 H569 0.950 . S
C575 C574 1.327 . S
C575 C579 1.429 . S
C576 C559 1.574 . S
C576 H570 0.949 . S
C576 C580 1.368 . S
C577 C558 1.429 . S
C577 C571 1.429 . S
C577 C578 1.523 . S
C578 C559 1.368 . S
C578 C572 1.368 . S
C578 C577 1.523 . S
C579 C563 1.429 . S
C579 C575 1.429 . S
C579 C580 1.523 . S
C580 C564 1.368 . S
C580 C576 1.368 . S
C580 C579 1.523 . S
H581 C556 0.950 . S
H582 C558 0.950 . S
H583 C559 0.949 . S
H584 C561 0.950 . S
H585 C563 0.950 . S
C586 C587 1.349 . S
C586 C588 1.327 . S
C586 H611 0.950 . S
C587 C586 1.349 . S
C587 C603 1.349 . S
C588 C586 1.327 . S
C588 C607 1.429 . S
C588 H612 0.950 . S
C589 C606 1.574 . S
C589 C608 1.368 . S
C589 H613 0.949 . S
H590 C594 0.949 . S
C591 C592 1.349 . S
C591 C593 1.327 . S
C591 H614 0.950 . S
C592 C591 1.349 . S
C592 C604 1.349 . S
C593 C591 1.327 . S
C593 C609 1.429 . S
C593 H615 0.950 . S
C594 H590 0.949 . S
C594 C602 1.574 . S
C594 C610 1.368 . S
H595 C603 0.950 . S
H596 C601 0.950 . S
H597 C602 0.949 . S
H598 C604 0.950 1_556 S
H599 C605 0.932 1_556 S
H600 C606 0.949 . S
C601 H596 0.950 . S
C601 C603 1.327 . S
C601 C607 1.429 . S
C602 C594 1.574 . S
C602 H597 0.949 . S
C602 C608 1.368 . S
C603 C587 1.349 . S
C603 H595 0.950 . S
C603 C601 1.327 . S
C604 C592 1.349 . S
C604 H598 0.950 1_554 S
C604 C605 1.327 . S
C605 H599 0.932 1_554 S
C605 C604 1.327 . S
C605 C609 1.429 . S
C606 C589 1.574 . S
C606 H600 0.949 . S
C606 C610 1.368 . S
C607 C588 1.429 . S
C607 C601 1.429 . S
C607 C608 1.523 . S
C608 C589 1.368 . S
C608 C602 1.368 . S
C608 C607 1.523 . S
C609 C593 1.429 . S
C609 C605 1.429 . S
C609 C610 1.523 . S
C610 C594 1.368 . S
C610 C606 1.368 . S
C610 C609 1.523 . S
H611 C586 0.950 . S
H612 C588 0.950 . S
H613 C589 0.949 . S
H614 C591 0.950 . S
H615 C593 0.950 . S
C616 C617 1.349 . S
C616 C618 1.327 . S
C616 H641 0.950 . S
C617 C616 1.349 . S
C617 C633 1.349 . S
C618 C616 1.327 . S
C618 C637 1.429 . S
C618 H642 0.950 . S
C619 C636 1.574 . S
C619 C638 1.368 . S
C619 H643 0.949 . S
H620 C624 0.949 . S
C621 C622 1.311 1_554 S
C621 C623 1.327 . S
C621 H644 0.950 . S
C622 C621 1.311 1_556 S
C622 C634 1.408 . S
C623 C621 1.327 . S
C623 C639 1.429 1_554 S
C623 H645 0.950 . S
C624 H620 0.949 . S
C624 C632 1.574 . S
C624 C640 1.368 . S
H625 C633 0.950 . S
H626 C631 0.950 . S
H627 C632 0.949 . S
H628 C634 0.950 . S
H629 C635 0.950 . S
H630 C636 0.949 1_554 S
C631 H626 0.950 . S
C631 C633 1.327 . S
C631 C637 1.429 . S
C632 C624 1.574 . S
C632 H627 0.949 . S
C632 C638 1.368 . S
C633 C617 1.349 . S
C633 H625 0.950 . S
C633 C631 1.327 . S
C634 C622 1.408 . S
C634 H628 0.950 . S
C634 C635 1.327 . S
C635 H629 0.950 . S
C635 C634 1.327 . S
C635 C639 1.429 . S
C636 C619 1.574 . S
C636 H630 0.949 1_556 S
C636 C640 1.368 . S
C637 C618 1.429 . S
C637 C631 1.429 . S
C637 C638 1.523 . S
C638 C619 1.368 . S
C638 C632 1.368 . S
C638 C637 1.523 . S
C639 C623 1.429 1_556 S
C639 C635 1.429 . S
C639 C640 1.523 . S
C640 C624 1.368 . S
C640 C636 1.368 . S
C640 C639 1.523 . S
H641 C616 0.950 . S
H642 C618 0.950 . S
H643 C619 0.949 . S
H644 C621 0.950 . S
H645 C623 0.950 . S
C646 C647 1.349 . S
C646 C648 1.327 . S
C646 H671 0.950 . S
C647 C646 1.349 . S
C647 C663 1.349 . S
C648 C646 1.327 . S
C648 C667 1.429 . S
C648 H672 0.950 . S
C649 C666 1.574 . S
C649 C668 1.368 . S
C649 H673 0.949 . S
H650 C654 0.949 . S
C651 C652 1.349 . S
C651 C653 1.327 . S
C651 H674 0.950 . S
C652 C651 1.349 . S
C652 C664 1.349 . S
C653 C651 1.327 . S
C653 C669 1.429 . S
C653 H675 0.950 . S
C654 H650 0.949 . S
C654 C662 1.574 . S
C654 C670 1.368 . S
H655 C663 0.950 . S
H656 C661 0.950 . S
H657 C662 0.949 . S
H658 C664 0.950 . S
H659 C665 0.950 . S
H660 C666 0.949 . S
C661 H656 0.950 . S
C661 C663 1.327 . S
C661 C667 1.429 . S
C662 C654 1.574 . S
C662 H657 0.949 . S
C662 C668 1.368 . S
C663 C647 1.349 . S
C663 H655 0.950 . S
C663 C661 1.327 . S
C664 C652 1.349 . S
C664 H658 0.950 . S
C664 C665 1.327 . S
C665 H659 0.950 . S
C665 C664 1.327 . S
C665 C669 1.429 . S
C666 C649 1.574 . S
C666 H660 0.949 . S
C666 C670 1.368 . S
C667 C648 1.429 . S
C667 C661 1.429 . S
C667 C668 1.523 . S
C668 C649 1.368 . S
C668 C662 1.368 . S
C668 C667 1.523 . S
C669 C653 1.429 . S
C669 C665 1.429 . S
C669 C670 1.523 . S
C670 C654 1.368 . S
C670 C666 1.368 . S
C670 C669 1.523 . S
H671 C646 0.950 . S
H672 C648 0.950 . S
H673 C649 0.949 . S
H674 C651 0.950 . S
H675 C653 0.950 . S
C676 C677 1.349 . S
C676 C678 1.327 . S
C676 H701 0.950 . S
C677 C676 1.349 . S
C677 C693 1.349 . S
C678 C676 1.327 . S
C678 C697 1.429 . S
C678 H702 0.950 . S
C679 C696 1.574 . S
C679 C698 1.368 . S
C679 H703 0.949 . S
H680 C684 0.949 . S
C681 C682 1.349 . S
C681 C683 1.327 . S
C681 H704 0.950 . S
C682 C681 1.349 . S
C682 C694 1.349 . S
C683 C681 1.327 . S
C683 C699 1.429 . S
C683 H705 0.950 . S
C684 H680 0.949 . S
C684 C692 1.574 . S
C684 C700 1.368 . S
H685 C693 0.950 . S
H686 C691 0.950 . S
H687 C692 0.949 . S
H688 C694 0.950 . S
H689 C695 0.950 . S
H690 C696 0.949 . S
C691 H686 0.950 . S
C691 C693 1.327 . S
C691 C697 1.429 . S
C692 C684 1.574 . S
C692 H687 0.949 . S
C692 C698 1.368 . S
C693 C677 1.349 . S
C693 H685 0.950 . S
C693 C691 1.327 . S
C694 C682 1.349 . S
C694 H688 0.950 . S
C694 C695 1.327 . S
C695 H689 0.950 . S
C695 C694 1.327 . S
C695 C699 1.429 . S
C696 C679 1.574 . S
C696 H690 0.949 . S
C696 C700 1.368 . S
C697 C678 1.429 . S
C697 C691 1.429 . S
C697 C698 1.523 . S
C698 C679 1.368 . S
C698 C692 1.368 . S
C698 C697 1.523 . S
C699 C683 1.429 . S
C699 C695 1.429 . S
C699 C700 1.523 . S
C700 C684 1.368 . S
C700 C696 1.368 . S
C700 C699 1.523 . S
H701 C676 0.950 . S
H702 C678 0.950 . S
H703 C679 0.949 . S
H704 C681 0.950 . S
H705 C683 0.950 . S
C706 C707 1.349 . S
C706 C708 1.327 . S
C706 H731 0.950 . S
C707 C706 1.349 . S
C707 C723 1.349 . S
C708 C706 1.327 . S
C708 C727 1.429 . S
C708 H732 0.950 . S
C709 C726 1.574 . S
C709 C728 1.368 . S
C709 H733 0.949 . S
H710 C714 0.949 . S
C711 C712 1.349 . S
C711 C713 1.327 . S
C711 H734 0.950 . S
C712 C711 1.349 . S
C712 C724 1.349 . S
C713 C711 1.327 . S
C713 C729 1.429 . S
C713 H735 0.950 . S
C714 H710 0.949 . S
C714 C722 1.574 . S
C714 C730 1.368 . S
H715 C723 0.950 . S
H716 C721 0.950 . S
H717 C722 0.949 . S
H718 C724 0.950 . S
H719 C725 0.950 . S
H720 C726 0.949 . S
C721 H716 0.950 . S
C721 C723 1.327 . S
C721 C727 1.429 . S
C722 C714 1.574 . S
C722 H717 0.949 . S
C722 C728 1.368 . S
C723 C707 1.349 . S
C723 H715 0.950 . S
C723 C721 1.327 . S
C724 C712 1.349 . S
C724 H718 0.950 . S
C724 C725 1.327 . S
C725 H719 0.950 . S
C725 C724 1.327 . S
C725 C729 1.429 . S
C726 C709 1.574 . S
C726 H720 0.949 . S
C726 C730 1.368 . S
C727 C708 1.429 . S
C727 C721 1.429 . S
C727 C728 1.523 . S
C728 C709 1.368 . S
C728 C722 1.368 . S
C728 C727 1.523 . S
C729 C713 1.429 . S
C729 C725 1.429 . S
C729 C730 1.523 . S
C730 C714 1.368 . S
C730 C726 1.368 . S
C730 C729 1.523 . S
H731 C706 0.950 . S
H732 C708 0.950 . S
H733 C709 0.949 . S
H734 C711 0.950 . S
H735 C713 0.950 . S
C736 C737 1.349 . S
C736 C738 1.327 . S
C736 H761 0.950 . S
C737 C736 1.349 . S
C737 C753 1.349 . S
C738 C736 1.327 . S
C738 C757 1.429 . S
C738 H762 0.950 . S
C739 C756 1.574 . S
C739 C758 1.368 . S
C739 H763 0.949 . S
H740 C744 0.949 . S
C741 C742 1.349 . S
C741 C743 1.327 . S
C741 H764 0.950 . S
C742 C741 1.349 . S
C742 C754 1.349 . S
C743 C741 1.327 . S
C743 C759 1.429 . S
C743 H765 0.950 . S
C744 H740 0.949 . S
C744 C752 1.574 . S
C744 C760 1.368 . S
H745 C753 0.950 . S
H746 C751 0.950 . S
H747 C752 0.949 . S
H748 C754 0.950 . S
H749 C755 0.950 . S
H750 C756 0.949 . S
C751 H746 0.950 . S
C751 C753 1.327 . S
C751 C757 1.429 . S
C752 C744 1.574 . S
C752 H747 0.949 . S
C752 C758 1.368 . S
C753 C737 1.349 . S
C753 H745 0.950 . S
C753 C751 1.327 . S
C754 C742 1.349 . S
C754 H748 0.950 . S
C754 C755 1.327 . S
C755 H749 0.950 . S
C755 C754 1.327 . S
C755 C759 1.429 . S
C756 C739 1.574 . S
C756 H750 0.949 . S
C756 C760 1.368 . S
C757 C738 1.429 . S
C757 C751 1.429 . S
C757 C758 1.523 . S
C758 C739 1.368 . S
C758 C752 1.368 . S
C758 C757 1.523 . S
C759 C743 1.429 . S
C759 C755 1.429 . S
C759 C760 1.523 . S
C760 C744 1.368 . S
C760 C756 1.368 . S
C760 C759 1.523 . S
H761 C736 0.950 . S
H762 C738 0.950 . S
H763 C739 0.949 . S
H764 C741 0.950 . S
H765 C743 0.950 . S
C766 C767 1.349 . S
C766 C768 1.327 . S
C766 H791 0.950 . S
C767 C766 1.349 . S
C767 C783 1.349 . S
C768 C766 1.327 . S
C768 C787 1.429 . S
C768 H792 0.950 . S
C769 C786 1.574 . S
C769 C788 1.368 . S
C769 H793 0.949 . S
H770 C774 0.949 . S
C771 C772 1.349 1_556 S
C771 C773 1.314 1_556 S
C771 H794 0.950 . S
C772 C771 1.349 1_554 S
C772 C784 1.349 . S
C773 C771 1.314 1_554 S
C773 C789 1.495 . S
C773 H795 0.899 1_554 S
C774 H770 0.949 . S
C774 C782 1.574 . S
C774 C790 1.368 . S
H775 C783 0.950 . S
H776 C781 0.950 . S
H777 C782 0.949 . S
H778 C784 0.950 . S
H779 C785 0.950 . S
H780 C786 0.949 1_556 S
C781 H776 0.950 . S
C781 C783 1.327 . S
C781 C787 1.429 . S
C782 C774 1.574 . S
C782 H777 0.949 . S
C782 C788 1.368 . S
C783 C767 1.349 . S
C783 H775 0.950 . S
C783 C781 1.327 . S
C784 C772 1.349 . S
C784 H778 0.950 . S
C784 C785 1.327 . S
C785 H779 0.950 . S
C785 C784 1.327 . S
C785 C789 1.429 . S
C786 C769 1.574 . S
C786 H780 0.949 1_554 S
C786 C790 1.368 . S
C787 C768 1.429 . S
C787 C781 1.429 . S
C787 C788 1.523 . S
C788 C769 1.368 . S
C788 C782 1.368 . S
C788 C787 1.523 . S
C789 C773 1.495 . S
C789 C785 1.429 . S
C789 C790 1.523 . S
C790 C774 1.368 . S
C790 C786 1.368 . S
C790 C789 1.523 . S
H791 C766 0.950 . S
H792 C768 0.950 . S
H793 C769 0.949 . S
H794 C771 0.950 . S
H795 C773 0.899 1_556 S
C796 C797 1.349 . S
C796 C798 1.327 . S
C796 H821 0.950 . S
C797 C796 1.349 . S
C797 C813 1.349 . S
C798 C796 1.327 . S
C798 C817 1.429 . S
C798 H822 0.950 . S
C799 C816 1.574 . S
C799 C818 1.368 . S
C799 H823 0.949 . S
H800 C804 0.949 . S
C801 C802 1.349 . S
C801 C803 1.327 . S
C801 H824 0.950 . S
C802 C801 1.349 . S
C802 C814 1.349 . S
C803 C801 1.327 . S
C803 C819 1.429 . S
C803 H825 0.950 . S
C804 H800 0.949 . S
C804 C812 1.574 . S
C804 C820 1.368 . S
H805 C813 0.950 . S
H806 C811 0.950 . S
H807 C812 0.949 . S
H808 C814 0.950 . S
H809 C815 0.950 . S
H810 C816 0.949 . S
C811 H806 0.950 . S
C811 C813 1.327 . S
C811 C817 1.429 . S
C812 C804 1.574 . S
C812 H807 0.949 . S
C812 C818 1.368 . S
C813 C797 1.349 . S
C813 H805 0.950 . S
C813 C811 1.327 . S
C814 C802 1.349 . S
C814 H808 0.950 . S
C814 C815 1.327 . S
C815 H809 0.950 . S
C815 C814 1.327 . S
C815 C819 1.429 . S
C816 C799 1.574 . S
C816 H810 0.949 . S
C816 C820 1.368 . S
C817 C798 1.429 . S
C817 C811 1.429 . S
C817 C818 1.523 . S
C818 C799 1.368 . S
C818 C812 1.368 . S
C818 C817 1.523 . S
C819 C803 1.429 . S
C819 C815 1.429 . S
C819 C820 1.523 . S
C820 C804 1.368 . S
C820 C816 1.368 . S
C820 C819 1.523 . S
H821 C796 0.950 . S
H822 C798 0.950 . S
H823 C799 0.949 . S
H824 C801 0.950 . S
H825 C803 0.950 . S
C826 C827 1.349 . S
C826 C828 1.327 . S
C826 H851 0.950 . S
C827 C826 1.349 . S
C827 C843 1.349 . S
C828 C826 1.327 . S
C828 C847 1.429 . S
C828 H852 0.950 . S
C829 C846 1.574 . S
C829 C848 1.368 . S
C829 H853 0.949 . S
H830 C834 0.949 . S
C831 C832 1.349 . S
C831 C833 1.327 . S
C831 H854 0.950 . S
C832 C831 1.349 . S
C832 C844 1.349 . S
C833 C831 1.327 . S
C833 C849 1.429 . S
C833 H855 0.950 . S
C834 H830 0.949 . S
C834 C842 1.574 . S
C834 C850 1.368 . S
H835 C843 0.950 . S
H836 C841 0.950 . S
H837 C842 0.949 . S
H838 C844 0.950 . S
H839 C845 0.950 . S
H840 C846 0.949 . S
C841 H836 0.950 . S
C841 C843 1.327 . S
C841 C847 1.429 . S
C842 C834 1.574 . S
C842 H837 0.949 . S
C842 C848 1.368 . S
C843 C827 1.349 . S
C843 H835 0.950 . S
C843 C841 1.327 . S
C844 C832 1.349 . S
C844 H838 0.950 . S
C844 C845 1.327 . S
C845 H839 0.950 . S
C845 C844 1.327 . S
C845 C849 1.429 . S
C846 C829 1.574 . S
C846 H840 0.949 . S
C846 C850 1.368 . S
C847 C828 1.429 . S
C847 C841 1.429 . S
C847 C848 1.523 . S
C848 C829 1.368 . S
C848 C842 1.368 . S
C848 C847 1.523 . S
C849 C833 1.429 . S
C849 C845 1.429 . S
C849 C850 1.523 . S
C850 C834 1.368 . S
C850 C846 1.368 . S
C850 C849 1.523 . S
H851 C826 0.950 . S
H852 C828 0.950 . S
H853 C829 0.949 . S
H854 C831 0.950 . S
H855 C833 0.950 . S
C856 C857 1.349 . S
C856 C858 1.327 . S
C856 H881 0.950 . S
C857 C856 1.349 . S
C857 C873 1.349 . S
C858 C856 1.327 . S
C858 C877 1.429 . S
C858 H882 0.950 . S
C859 C876 1.574 . S
C859 C878 1.368 . S
C859 H883 0.949 . S
H860 C864 0.949 . S
C861 C862 1.349 . S
C861 C863 1.327 . S
C861 H884 0.950 . S
C862 C861 1.349 . S
C862 C874 1.349 . S
C863 C861 1.327 . S
C863 C879 1.429 . S
C863 H885 0.950 . S
C864 H860 0.949 . S
C864 C872 1.574 . S
C864 C880 1.368 . S
H865 C873 0.950 . S
H866 C871 0.950 . S
H867 C872 0.949 . S
H868 C874 0.950 . S
H869 C875 0.950 . S
H870 C876 0.949 . S
C871 H866 0.950 . S
C871 C873 1.327 . S
C871 C877 1.429 . S
C872 C864 1.574 . S
C872 H867 0.949 . S
C872 C878 1.368 . S
C873 C857 1.349 . S
C873 H865 0.950 . S
C873 C871 1.327 . S
C874 C862 1.349 . S
C874 H868 0.950 . S
C874 C875 1.327 . S
C875 H869 0.950 . S
C875 C874 1.327 . S
C875 C879 1.429 . S
C876 C859 1.574 . S
C876 H870 0.949 . S
C876 C880 1.368 . S
C877 C858 1.429 . S
C877 C871 1.429 . S
C877 C878 1.523 . S
C878 C859 1.368 . S
C878 C872 1.368 . S
C878 C877 1.523 . S
C879 C863 1.429 . S
C879 C875 1.429 . S
C879 C880 1.523 . S
C880 C864 1.368 . S
C880 C876 1.368 . S
C880 C879 1.523 . S
H881 C856 0.950 . S
H882 C858 0.950 . S
H883 C859 0.949 . S
H884 C861 0.950 . S
H885 C863 0.950 . S
C886 C887 1.349 . S
C886 C888 1.327 . S
C886 H911 0.950 . S
C887 C886 1.349 . S
C887 C903 1.349 . S
C888 C886 1.327 . S
C888 C907 1.429 . S
C888 H912 0.950 . S
C889 C906 1.574 . S
C889 C908 1.368 . S
C889 H913 0.949 . S
H890 C894 0.949 . S
C891 C892 1.349 . S
C891 C893 1.327 . S
C891 H914 0.950 . S
C892 C891 1.349 . S
C892 C904 1.349 . S
C893 C891 1.327 . S
C893 C909 1.429 . S
C893 H915 0.950 . S
C894 H890 0.949 . S
C894 C902 1.574 . S
C894 C910 1.368 . S
H895 C903 0.950 . S
H896 C901 0.950 . S
H897 C902 0.949 . S
H898 C904 0.950 . S
H899 C905 0.950 . S
H900 C906 0.949 . S
C901 H896 0.950 . S
C901 C903 1.327 . S
C901 C907 1.429 . S
C902 C894 1.574 . S
C902 H897 0.949 . S
C902 C908 1.368 . S
C903 C887 1.349 . S
C903 H895 0.950 . S
C903 C901 1.327 . S
C904 C892 1.349 . S
C904 H898 0.950 . S
C904 C905 1.327 . S
C905 H899 0.950 . S
C905 C904 1.327 . S
C905 C909 1.429 . S
C906 C889 1.574 . S
C906 H900 0.949 . S
C906 C910 1.368 . S
C907 C888 1.429 . S
C907 C901 1.429 . S
C907 C908 1.523 . S
C908 C889 1.368 . S
C908 C902 1.368 . S
C908 C907 1.523 . S
C909 C893 1.429 . S
C909 C905 1.429 . S
C909 C910 1.523 . S
C910 C894 1.368 . S
C910 C906 1.368 . S
C910 C909 1.523 . S
H911 C886 0.950 . S
H912 C888 0.950 . S
H913 C889 0.949 . S
H914 C891 0.950 . S
H915 C893 0.950 . S
C916 C917 1.349 . S
C916 C918 1.327 . S
C916 H941 0.950 . S
C917 C916 1.349 . S
C917 C933 1.349 . S
C918 C916 1.327 . S
C918 C937 1.429 . S
C918 H942 0.950 . S
C919 C936 1.574 . S
C919 C938 1.368 . S
C919 H943 0.949 . S
H920 C924 0.949 1_554 S
C921 C922 1.349 . S
C921 C923 1.327 . S
C921 H944 0.950 . S
C922 C921 1.349 . S
C922 C934 1.349 1_556 S
C923 C921 1.327 . S
C923 C939 1.429 . S
C923 H945 0.950 . S
C924 H920 0.949 1_556 S
C924 C932 1.574 . S
C924 C940 1.368 . S
H925 C933 0.950 . S
H926 C931 0.950 . S
H927 C932 0.949 . S
H928 C934 0.950 . S
H929 C935 1.000 . S
H930 C936 0.949 . S
C931 H926 0.950 . S
C931 C933 1.327 . S
C931 C937 1.429 . S
C932 C924 1.574 . S
C932 H927 0.949 . S
C932 C938 1.368 . S
C933 C917 1.349 . S
C933 H925 0.950 . S
C933 C931 1.327 . S
C934 C922 1.349 1_554 S
C934 H928 0.950 . S
C934 C935 1.341 . S
C935 H929 1.000 . S
C935 C934 1.341 . S
C935 C939 1.368 1_554 S
C936 C919 1.574 . S
C936 H930 0.949 . S
C936 C940 1.368 . S
C937 C918 1.429 . S
C937 C931 1.429 . S
C937 C938 1.523 . S
C938 C919 1.368 . S
C938 C932 1.368 . S
C938 C937 1.523 . S
C939 C923 1.429 . S
C939 C935 1.368 1_556 S
C939 C940 1.523 . S
C940 C924 1.368 . S
C940 C936 1.368 . S
C940 C939 1.523 . S
H941 C916 0.950 . S
H942 C918 0.950 . S
H943 C919 0.949 . S
H944 C921 0.950 . S
H945 C923 0.950 . S
C946 C947 1.349 . S
C946 C948 1.327 . S
C946 H971 0.950 . S
C947 C946 1.349 . S
C947 C963 1.349 . S
C948 C946 1.327 . S
C948 C967 1.429 . S
C948 H972 0.950 . S
C949 C966 1.574 . S
C949 C968 1.368 . S
C949 H973 0.949 . S
H950 C954 0.949 . S
C951 C952 1.349 . S
C951 C953 1.327 . S
C951 H974 0.950 . S
C952 C951 1.349 . S
C952 C964 1.349 . S
C953 C951 1.327 . S
C953 C969 1.429 . S
C953 H975 0.950 . S
C954 H950 0.949 . S
C954 C962 1.574 . S
C954 C970 1.368 . S
H955 C963 0.950 . S
H956 C961 0.950 . S
H957 C962 0.949 . S
H958 C964 0.950 . S
H959 C965 0.950 . S
H960 C966 0.949 . S
C961 H956 0.950 . S
C961 C963 1.327 . S
C961 C967 1.429 . S
C962 C954 1.574 . S
C962 H957 0.949 . S
C962 C968 1.368 . S
C963 C947 1.349 . S
C963 H955 0.950 . S
C963 C961 1.327 . S
C964 C952 1.349 . S
C964 H958 0.950 . S
C964 C965 1.327 . S
C965 H959 0.950 . S
C965 C964 1.327 . S
C965 C969 1.429 . S
C966 C949 1.574 . S
C966 H960 0.949 . S
C966 C970 1.368 . S
C967 C948 1.429 . S
C967 C961 1.429 . S
C967 C968 1.523 . S
C968 C949 1.368 . S
C968 C962 1.368 . S
C968 C967 1.523 . S
C969 C953 1.429 . S
C969 C965 1.429 . S
C969 C970 1.523 . S
C970 C954 1.368 . S
C970 C966 1.368 . S
C970 C969 1.523 . S
H971 C946 0.950 . S
H972 C948 0.950 . S
H973 C949 0.949 . S
H974 C951 0.950 . S
H975 C953 0.950 . S
C976 C977 1.349 . S
C976 C978 1.327 . S
C976 H1001 0.950 . S
C977 C976 1.349 . S
C977 C993 1.349 . S
C978 C976 1.327 . S
C978 C997 1.429 . S
C978 H1002 0.950 . S
C979 C996 1.574 . S
C979 C998 1.368 . S
C979 H1003 0.949 . S
H980 C984 0.949 . S
C981 C982 1.349 . S
C981 C983 1.327 . S
C981 H1004 0.950 . S
C982 C981 1.349 . S
C982 C994 1.349 . S
C983 C981 1.327 . S
C983 C999 1.429 . S
C983 H1005 0.950 . S
C984 H980 0.949 . S
C984 C992 1.574 . S
C984 C1000 1.368 . S
H985 C993 0.950 . S
H986 C991 0.950 . S
H987 C992 0.949 . S
H988 C994 0.950 . S
H989 C995 0.950 . S
H990 C996 0.949 . S
C991 H986 0.950 . S
C991 C993 1.327 . S
C991 C997 1.429 . S
C992 C984 1.574 . S
C992 H987 0.949 . S
C992 C998 1.368 . S
C993 C977 1.349 . S
C993 H985 0.950 . S
C993 C991 1.327 . S
C994 C982 1.349 . S
C994 H988 0.950 . S
C994 C995 1.327 . S
C995 H989 0.950 . S
C995 C994 1.327 . S
C995 C999 1.429 . S
C996 C979 1.574 . S
C996 H990 0.949 . S
C996 C1000 1.368 . S
C997 C978 1.429 . S
C997 C991 1.429 . S
C997 C998 1.523 . S
C998 C979 1.368 . S
C998 C992 1.368 . S
C998 C997 1.523 . S
C999 C983 1.429 . S
C999 C995 1.429 . S
C999 C1000 1.523 . S
C1000 C984 1.368 . S
C1000 C996 1.368 . S
C1000 C999 1.523 . S
H1001 C976 0.950 . S
H1002 C978 0.950 . S
H1003 C979 0.949 . S
H1004 C981 0.950 . S
H1005 C983 0.950 . S
C1006 C1007 1.349 . S
C1006 C1008 1.327 . S
C1006 H1031 0.950 . S
C1007 C1006 1.349 . S
C1007 C1023 1.349 . S
C1008 C1006 1.327 . S
C1008 C1027 1.429 . S
C1008 H1032 0.950 . S
C1009 C1026 1.574 . S
C1009 C1028 1.368 . S
C1009 H1033 0.949 . S
H1010 C1014 0.949 . S
C1011 C1012 1.349 . S
C1011 C1013 1.327 . S
C1011 H1034 0.950 . S
C1012 C1011 1.349 . S
C1012 C1024 1.349 . S
C1013 C1011 1.327 . S
C1013 C1029 1.429 . S
C1013 H1035 0.950 . S
C1014 H1010 0.949 . S
C1014 C1022 1.574 . S
C1014 C1030 1.368 . S
H1015 C1023 0.950 . S
H1016 C1021 0.950 . S
H1017 C1022 0.949 . S
H1018 C1024 0.950 . S
H1019 C1025 0.950 . S
H1020 C1026 0.949 . S
C1021 H1016 0.950 . S
C1021 C1023 1.327 . S
C1021 C1027 1.429 . S
C1022 C1014 1.574 . S
C1022 H1017 0.949 . S
C1022 C1028 1.368 . S
C1023 C1007 1.349 . S
C1023 H1015 0.950 . S
C1023 C1021 1.327 . S
C1024 C1012 1.349 . S
C1024 H1018 0.950 . S
C1024 C1025 1.327 . S
C1025 H1019 0.950 . S
C1025 C1024 1.327 . S
C1025 C1029 1.429 . S
C1026 C1009 1.574 . S
C1026 H1020 0.949 . S
C1026 C1030 1.368 . S
C1027 C1008 1.429 . S
C1027 C1021 1.429 . S
C1027 C1028 1.523 . S
C1028 C1009 1.368 . S
C1028 C1022 1.368 . S
C1028 C1027 1.523 . S
C1029 C1013 1.429 . S
C1029 C1025 1.429 . S
C1029 C1030 1.523 . S
C1030 C1014 1.368 . S
C1030 C1026 1.368 . S
C1030 C1029 1.523 . S
H1031 C1006 0.950 . S
H1032 C1008 0.950 . S
H1033 C1009 0.949 . S
H1034 C1011 0.950 . S
H1035 C1013 0.950 . S
C1036 C1037 1.349 . S
C1036 C1038 1.327 . S
C1036 H1061 0.950 . S
C1037 C1036 1.349 . S
C1037 C1053 1.349 . S
C1038 C1036 1.327 . S
C1038 C1057 1.429 . S
C1038 H1062 0.950 . S
C1039 C1056 1.574 . S
C1039 C1058 1.368 . S
C1039 H1063 0.949 . S
H1040 C1044 0.949 . S
C1041 C1042 1.349 . S
C1041 C1043 1.327 . S
C1041 H1064 0.950 . S
C1042 C1041 1.349 . S
C1042 C1054 1.349 . S
C1043 C1041 1.327 . S
C1043 C1059 1.429 . S
C1043 H1065 0.950 . S
C1044 H1040 0.949 . S
C1044 C1052 1.574 . S
C1044 C1060 1.368 . S
H1045 C1053 0.950 . S
H1046 C1051 0.950 . S
H1047 C1052 0.949 . S
H1048 C1054 0.950 . S
H1049 C1055 0.950 . S
H1050 C1056 0.949 . S
C1051 H1046 0.950 . S
C1051 C1053 1.327 . S
C1051 C1057 1.429 . S
C1052 C1044 1.574 . S
C1052 H1047 0.949 . S
C1052 C1058 1.368 . S
C1053 C1037 1.349 . S
C1053 H1045 0.950 . S
C1053 C1051 1.327 . S
C1054 C1042 1.349 . S
C1054 H1048 0.950 . S
C1054 C1055 1.327 . S
C1055 H1049 0.950 . S
C1055 C1054 1.327 . S
C1055 C1059 1.429 . S
C1056 C1039 1.574 . S
C1056 H1050 0.949 . S
C1056 C1060 1.368 . S
C1057 C1038 1.429 . S
C1057 C1051 1.429 . S
C1057 C1058 1.523 . S
C1058 C1039 1.368 . S
C1058 C1052 1.368 . S
C1058 C1057 1.523 . S
C1059 C1043 1.429 . S
C1059 C1055 1.429 . S
C1059 C1060 1.523 . S
C1060 C1044 1.368 . S
C1060 C1056 1.368 . S
C1060 C1059 1.523 . S
H1061 C1036 0.950 . S
H1062 C1038 0.950 . S
H1063 C1039 0.949 . S
H1064 C1041 0.950 . S
H1065 C1043 0.950 . S
C1066 C1067 1.349 . S
C1066 C1068 1.327 . S
C1066 H1091 0.950 . S
C1067 C1066 1.349 . S
C1067 C1083 1.349 . S
C1068 C1066 1.327 . S
C1068 C1087 1.429 . S
C1068 H1092 0.950 . S
C1069 C1086 1.574 . S
C1069 C1088 1.368 . S
C1069 H1093 0.949 . S
H1070 C1074 0.949 . S
C1071 C1072 1.349 . S
C1071 C1073 1.327 . S
C1071 H1094 0.950 . S
C1072 C1071 1.349 . S
C1072 C1084 1.349 . S
C1073 C1071 1.327 . S
C1073 C1089 1.429 . S
C1073 H1095 0.950 . S
C1074 H1070 0.949 . S
C1074 C1082 1.574 . S
C1074 C1090 1.368 . S
H1075 C1083 0.950 . S
H1076 C1081 0.950 . S
H1077 C1082 0.949 . S
H1078 C1084 0.950 . S
H1079 C1085 0.950 . S
H1080 C1086 0.949 . S
C1081 H1076 0.950 . S
C1081 C1083 1.327 . S
C1081 C1087 1.429 . S
C1082 C1074 1.574 . S
C1082 H1077 0.949 . S
C1082 C1088 1.368 . S
C1083 C1067 1.349 . S
C1083 H1075 0.950 . S
C1083 C1081 1.327 . S
C1084 C1072 1.349 . S
C1084 H1078 0.950 . S
C1084 C1085 1.327 . S
C1085 H1079 0.950 . S
C1085 C1084 1.327 . S
C1085 C1089 1.429 . S
C1086 C1069 1.574 . S
C1086 H1080 0.949 . S
C1086 C1090 1.368 . S
C1087 C1068 1.429 . S
C1087 C1081 1.429 . S
C1087 C1088 1.523 . S
C1088 C1069 1.368 . S
C1088 C1082 1.368 . S
C1088 C1087 1.523 . S
C1089 C1073 1.429 . S
C1089 C1085 1.429 . S
C1089 C1090 1.523 . S
C1090 C1074 1.368 . S
C1090 C1086 1.368 . S
C1090 C1089 1.523 . S
H1091 C1066 0.950 . S
H1092 C1068 0.950 . S
H1093 C1069 0.949 . S
H1094 C1071 0.950 . S
H1095 C1073 0.950 . S
C1096 C1097 1.349 . S
C1096 C1098 1.327 . S
C1096 H1121 0.950 . S
C1097 C1096 1.349 . S
C1097 C1113 1.349 . S
C1098 C1096 1.327 . S
C1098 C1117 1.429 . S
C1098 H1122 0.950 . S
C1099 C1116 1.574 . S
C1099 C1118 1.368 . S
C1099 H1123 0.949 . S
H1100 C1104 0.949 . S
C1101 C1102 1.349 . S
C1101 C1103 1.327 . S
C1101 H1124 0.950 . S
C1102 C1101 1.349 . S
C1102 C1114 1.349 . S
C1103 C1101 1.327 . S
C1103 C1119 1.429 . S
C1103 H1125 0.950 . S
C1104 H1100 0.949 . S
C1104 C1112 1.574 . S
C1104 C1120 1.368 . S
H1105 C1113 0.950 . S
H1106 C1111 0.950 . S
H1107 C1112 0.949 . S
H1108 C1114 0.950 . S
H1109 C1115 0.950 . S
H1110 C1116 0.949 . S
C1111 H1106 0.950 . S
C1111 C1113 1.327 . S
C1111 C1117 1.429 . S
C1112 C1104 1.574 . S
C1112 H1107 0.949 . S
C1112 C1118 1.368 . S
C1113 C1097 1.349 . S
C1113 H1105 0.950 . S
C1113 C1111 1.327 . S
C1114 C1102 1.349 . S
C1114 H1108 0.950 . S
C1114 C1115 1.327 . S
C1115 H1109 0.950 . S
C1115 C1114 1.327 . S
C1115 C1119 1.429 . S
C1116 C1099 1.574 . S
C1116 H1110 0.949 . S
C1116 C1120 1.368 . S
C1117 C1098 1.429 . S
C1117 C1111 1.429 . S
C1117 C1118 1.523 . S
C1118 C1099 1.368 . S
C1118 C1112 1.368 . S
C1118 C1117 1.523 . S
C1119 C1103 1.429 . S
C1119 C1115 1.429 . S
C1119 C1120 1.523 . S
C1120 C1104 1.368 . S
C1120 C1116 1.368 . S
C1120 C1119 1.523 . S
H1121 C1096 0.950 . S
H1122 C1098 0.950 . S
H1123 C1099 0.949 . S
H1124 C1101 0.950 . S
H1125 C1103 0.950 . S
C1126 C1127 1.349 . S
C1126 C1128 1.327 . S
C1126 H1151 0.950 . S
C1127 C1126 1.349 . S
C1127 C1143 1.349 . S
C1128 C1126 1.327 . S
C1128 C1147 1.429 . S
C1128 H1152 0.950 . S
C1129 C1146 1.574 . S
C1129 C1148 1.368 . S
C1129 H1153 0.949 . S
H1130 C1134 0.949 . S
C1131 C1132 1.349 . S
C1131 C1133 1.327 . S
C1131 H1154 0.950 . S
C1132 C1131 1.349 . S
C1132 C1144 1.349 . S
C1133 C1131 1.327 . S
C1133 C1149 1.429 . S
C1133 H1155 0.950 . S
C1134 H1130 0.949 . S
C1134 C1142 1.574 . S
C1134 C1150 1.368 . S
H1135 C1143 0.950 . S
H1136 C1141 0.950 . S
H1137 C1142 0.949 . S
H1138 C1144 0.950 . S
H1139 C1145 0.950 . S
H1140 C1146 0.949 . S
C1141 H1136 0.950 . S
C1141 C1143 1.327 . S
C1141 C1147 1.429 . S
C1142 C1134 1.574 . S
C1142 H1137 0.949 . S
C1142 C1148 1.368 . S
C1143 C1127 1.349 . S
C1143 H1135 0.950 . S
C1143 C1141 1.327 . S
C1144 C1132 1.349 . S
C1144 H1138 0.950 . S
C1144 C1145 1.327 . S
C1145 H1139 0.950 . S
C1145 C1144 1.327 . S
C1145 C1149 1.429 . S
C1146 C1129 1.574 . S
C1146 H1140 0.949 . S
C1146 C1150 1.368 . S
C1147 C1128 1.429 . S
C1147 C1141 1.429 . S
C1147 C1148 1.523 . S
C1148 C1129 1.368 . S
C1148 C1142 1.368 . S
C1148 C1147 1.523 . S
C1149 C1133 1.429 . S
C1149 C1145 1.429 . S
C1149 C1150 1.523 . S
C1150 C1134 1.368 . S
C1150 C1146 1.368 . S
C1150 C1149 1.523 . S
H1151 C1126 0.950 . S
H1152 C1128 0.950 . S
H1153 C1129 0.949 . S
H1154 C1131 0.950 . S
H1155 C1133 0.950 . S
C1156 C1157 1.349 . S
C1156 C1158 1.327 . S
C1156 H1181 0.950 . S
C1157 C1156 1.349 . S
C1157 C1173 1.349 . S
C1158 C1156 1.327 . S
C1158 C1177 1.429 . S
C1158 H1182 0.950 . S
C1159 C1176 1.574 . S
C1159 C1178 1.368 . S
C1159 H1183 0.949 . S
H1160 C1164 0.949 . S
C1161 C1162 1.349 . S
C1161 C1163 1.327 . S
C1161 H1184 0.950 . S
C1162 C1161 1.349 . S
C1162 C1174 1.349 . S
C1163 C1161 1.327 . S
C1163 C1179 1.429 . S
C1163 H1185 0.950 . S
C1164 H1160 0.949 . S
C1164 C1172 1.574 . S
C1164 C1180 1.368 . S
H1165 C1173 0.950 . S
H1166 C1171 0.950 . S
H1167 C1172 0.949 . S
H1168 C1174 0.950 . S
H1169 C1175 0.950 . S
H1170 C1176 0.949 . S
C1171 H1166 0.950 . S
C1171 C1173 1.327 . S
C1171 C1177 1.429 . S
C1172 C1164 1.574 . S
C1172 H1167 0.949 . S
C1172 C1178 1.368 . S
C1173 C1157 1.349 . S
C1173 H1165 0.950 . S
C1173 C1171 1.327 . S
C1174 C1162 1.349 . S
C1174 H1168 0.950 . S
C1174 C1175 1.327 . S
C1175 H1169 0.950 . S
C1175 C1174 1.327 . S
C1175 C1179 1.429 . S
C1176 C1159 1.574 . S
C1176 H1170 0.949 . S
C1176 C1180 1.368 . S
C1177 C1158 1.429 . S
C1177 C1171 1.429 . S
C1177 C1178 1.523 . S
C1178 C1159 1.368 . S
C1178 C1172 1.368 . S
C1178 C1177 1.523 . S
C1179 C1163 1.429 . S
C1179 C1175 1.429 . S
C1179 C1180 1.523 . S
C1180 C1164 1.368 . S
C1180 C1176 1.368 . S
C1180 C1179 1.523 . S
H1181 C1156 0.950 . S
H1182 C1158 0.950 . S
H1183 C1159 0.949 . S
H1184 C1161 0.950 . S
H1185 C1163 0.950 . S
C1186 C1187 1.349 . S
C1186 C1188 1.327 . S
C1186 H1211 0.950 . S
C1187 C1186 1.349 . S
C1187 C1203 1.349 . S
C1188 C1186 1.327 . S
C1188 C1207 1.429 . S
C1188 H1212 0.950 . S
C1189 C1206 1.574 . S
C1189 C1208 1.368 . S
C1189 H1213 0.949 . S
H1190 C1194 0.949 . S
C1191 C1192 1.349 . S
C1191 C1193 1.327 . S
C1191 H1214 0.950 . S
C1192 C1191 1.349 . S
C1192 C1204 1.349 . S
C1193 C1191 1.327 . S
C1193 C1209 1.429 . S
C1193 H1215 0.950 . S
C1194 H1190 0.949 . S
C1194 C1202 1.574 . S
C1194 C1210 1.368 . S
H1195 C1203 0.950 . S
H1196 C1201 0.950 . S
H1197 C1202 0.949 . S
H1198 C1204 0.950 . S
H1199 C1205 0.950 . S
H1200 C1206 0.949 . S
C1201 H1196 0.950 . S
C1201 C1203 1.327 . S
C1201 C1207 1.429 . S
C1202 C1194 1.574 . S
C1202 H1197 0.949 . S
C1202 C1208 1.368 . S
C1203 C1187 1.349 . S
C1203 H1195 0.950 . S
C1203 C1201 1.327 . S
C1204 C1192 1.349 . S
C1204 H1198 0.950 . S
C1204 C1205 1.327 . S
C1205 H1199 0.950 . S
C1205 C1204 1.327 . S
C1205 C1209 1.429 . S
C1206 C1189 1.574 . S
C1206 H1200 0.949 . S
C1206 C1210 1.368 . S
C1207 C1188 1.429 . S
C1207 C1201 1.429 . S
C1207 C1208 1.523 . S
C1208 C1189 1.368 . S
C1208 C1202 1.368 . S
C1208 C1207 1.523 . S
C1209 C1193 1.429 . S
C1209 C1205 1.429 . S
C1209 C1210 1.523 . S
C1210 C1194 1.368 . S
C1210 C1206 1.368 . S
C1210 C1209 1.523 . S
H1211 C1186 0.950 . S
H1212 C1188 0.950 . S
H1213 C1189 0.949 . S
H1214 C1191 0.950 . S
H1215 C1193 0.950 . S
C1216 C1217 1.349 . S
C1216 C1218 1.327 . S
C1216 H1241 0.950 . S
C1217 C1216 1.349 . S
C1217 C1233 1.349 . S
C1218 C1216 1.327 . S
C1218 C1237 1.429 . S
C1218 H1242 0.950 . S
C1219 C1236 1.574 . S
C1219 C1238 1.368 . S
C1219 H1243 0.949 . S
H1220 C1224 0.949 . S
C1221 C1222 1.349 . S
C1221 C1223 1.327 . S
C1221 H1244 0.950 . S
C1222 C1221 1.349 . S
C1222 C1234 1.349 . S
C1223 C1221 1.327 . S
C1223 C1239 1.429 . S
C1223 H1245 0.950 . S
C1224 H1220 0.949 . S
C1224 C1232 1.574 . S
C1224 C1240 1.368 . S
H1225 C1233 0.950 . S
H1226 C1231 0.950 . S
H1227 C1232 0.949 . S
H1228 C1234 0.950 . S
H1229 C1235 0.950 . S
H1230 C1236 0.949 . S
C1231 H1226 0.950 . S
C1231 C1233 1.327 . S
C1231 C1237 1.429 . S
C1232 C1224 1.574 . S
C1232 H1227 0.949 . S
C1232 C1238 1.368 . S
C1233 C1217 1.349 . S
C1233 H1225 0.950 . S
C1233 C1231 1.327 . S
C1234 C1222 1.349 . S
C1234 H1228 0.950 . S
C1234 C1235 1.327 . S
C1235 H1229 0.950 . S
C1235 C1234 1.327 . S
C1235 C1239 1.429 . S
C1236 C1219 1.574 . S
C1236 H1230 0.949 . S
C1236 C1240 1.368 . S
C1237 C1218 1.429 . S
C1237 C1231 1.429 . S
C1237 C1238 1.523 . S
C1238 C1219 1.368 . S
C1238 C1232 1.368 . S
C1238 C1237 1.523 . S
C1239 C1223 1.429 . S
C1239 C1235 1.429 . S
C1239 C1240 1.523 . S
C1240 C1224 1.368 . S
C1240 C1236 1.368 . S
C1240 C1239 1.523 . S
H1241 C1216 0.950 . S
H1242 C1218 0.950 . S
H1243 C1219 0.949 . S
H1244 C1221 0.950 . S
H1245 C1223 0.950 . S
C1246 C1247 1.349 . S
C1246 C1248 1.327 . S
C1246 H1271 0.950 . S
C1247 C1246 1.349 . S
C1247 C1263 1.349 . S
C1248 C1246 1.327 . S
C1248 C1267 1.429 . S
C1248 H1272 0.950 . S
C1249 C1266 1.574 . S
C1249 C1268 1.368 . S
C1249 H1273 0.949 . S
H1250 C1254 0.949 . S
C1251 C1252 1.349 . S
C1251 C1253 1.327 . S
C1251 H1274 0.950 . S
C1252 C1251 1.349 . S
C1252 C1264 1.349 . S
C1253 C1251 1.327 . S
C1253 C1269 1.429 . S
C1253 H1275 0.950 . S
C1254 H1250 0.949 . S
C1254 C1262 1.574 . S
C1254 C1270 1.368 . S
H1255 C1263 0.950 . S
H1256 C1261 0.950 . S
H1257 C1262 0.949 . S
H1258 C1264 0.950 . S
H1259 C1265 0.950 . S
H1260 C1266 0.949 . S
C1261 H1256 0.950 . S
C1261 C1263 1.327 . S
C1261 C1267 1.429 . S
C1262 C1254 1.574 . S
C1262 H1257 0.949 . S
C1262 C1268 1.368 . S
C1263 C1247 1.349 . S
C1263 H1255 0.950 . S
C1263 C1261 1.327 . S
C1264 C1252 1.349 . S
C1264 H1258 0.950 . S
C1264 C1265 1.327 . S
C1265 H1259 0.950 . S
C1265 C1264 1.327 . S
C1265 C1269 1.429 . S
C1266 C1249 1.574 . S
C1266 H1260 0.949 . S
C1266 C1270 1.368 . S
C1267 C1248 1.429 . S
C1267 C1261 1.429 . S
C1267 C1268 1.523 . S
C1268 C1249 1.368 . S
C1268 C1262 1.368 . S
C1268 C1267 1.523 . S
C1269 C1253 1.429 . S
C1269 C1265 1.429 . S
C1269 C1270 1.523 . S
C1270 C1254 1.368 . S
C1270 C1266 1.368 . S
C1270 C1269 1.523 . S
H1271 C1246 0.950 . S
H1272 C1248 0.950 . S
H1273 C1249 0.949 . S
H1274 C1251 0.950 . S
H1275 C1253 0.950 . S
C1276 C1277 1.349 . S
C1276 C1278 1.327 . S
C1276 H1301 0.950 . S
C1277 C1276 1.349 . S
C1277 C1293 1.349 . S
C1278 C1276 1.327 . S
C1278 C1297 1.429 . S
C1278 H1302 0.950 . S
C1279 C1296 1.574 . S
C1279 C1298 1.368 . S
C1279 H1303 0.949 . S
H1280 C1284 0.949 . S
C1281 C1282 1.349 . S
C1281 C1283 1.327 . S
C1281 H1304 0.950 . S
C1282 C1281 1.349 . S
C1282 C1294 1.349 . S
C1283 C1281 1.327 . S
C1283 C1299 1.429 . S
C1283 H1305 0.950 . S
C1284 H1280 0.949 . S
C1284 C1292 1.574 . S
C1284 C1300 1.368 . S
H1285 C1293 0.950 . S
H1286 C1291 0.950 . S
H1287 C1292 0.949 . S
H1288 C1294 0.950 . S
H1289 C1295 0.950 . S
H1290 C1296 0.949 . S
C1291 H1286 0.950 . S
C1291 C1293 1.327 . S
C1291 C1297 1.429 . S
C1292 C1284 1.574 . S
C1292 H1287 0.949 . S
C1292 C1298 1.368 . S
C1293 C1277 1.349 . S
C1293 H1285 0.950 . S
C1293 C1291 1.327 . S
C1294 C1282 1.349 . S
C1294 H1288 0.950 . S
C1294 C1295 1.327 . S
C1295 H1289 0.950 . S
C1295 C1294 1.327 . S
C1295 C1299 1.429 . S
C1296 C1279 1.574 . S
C1296 H1290 0.949 . S
C1296 C1300 1.368 . S
C1297 C1278 1.429 . S
C1297 C1291 1.429 . S
C1297 C1298 1.523 . S
C1298 C1279 1.368 . S
C1298 C1292 1.368 . S
C1298 C1297 1.523 . S
C1299 C1283 1.429 . S
C1299 C1295 1.429 . S
C1299 C1300 1.523 . S
C1300 C1284 1.368 . S
C1300 C1296 1.368 . S
C1300 C1299 1.523 . S
H1301 C1276 0.950 . S
H1302 C1278 0.950 . S
H1303 C1279 0.949 . S
H1304 C1281 0.950 . S
H1305 C1283 0.950 . S
C1306 C1307 1.349 . S
C1306 C1308 1.327 . S
C1306 H1331 0.950 . S
C1307 C1306 1.349 . S
C1307 C1323 1.349 . S
C1308 C1306 1.327 . S
C1308 C1327 1.429 . S
C1308 H1332 0.950 . S
C1309 C1326 1.574 . S
C1309 C1328 1.368 . S
C1309 H1333 0.949 . S
H1310 C1314 0.949 . S
C1311 C1312 1.349 . S
C1311 C1313 1.327 . S
C1311 H1334 0.950 . S
C1312 C1311 1.349 . S
C1312 C1324 1.349 . S
C1313 C1311 1.327 . S
C1313 C1329 1.429 . S
C1313 H1335 0.950 . S
C1314 H1310 0.949 . S
C1314 C1322 1.574 . S
C1314 C1330 1.368 . S
H1315 C1323 0.950 . S
H1316 C1321 0.950 . S
H1317 C1322 0.949 . S
H1318 C1324 0.950 . S
H1319 C1325 0.950 . S
H1320 C1326 0.949 . S
C1321 H1316 0.950 . S
C1321 C1323 1.327 . S
C1321 C1327 1.429 . S
C1322 C1314 1.574 . S
C1322 H1317 0.949 . S
C1322 C1328 1.368 . S
C1323 C1307 1.349 . S
C1323 H1315 0.950 . S
C1323 C1321 1.327 . S
C1324 C1312 1.349 . S
C1324 H1318 0.950 . S
C1324 C1325 1.327 . S
C1325 H1319 0.950 . S
C1325 C1324 1.327 . S
C1325 C1329 1.429 . S
C1326 C1309 1.574 . S
C1326 H1320 0.949 . S
C1326 C1330 1.368 . S
C1327 C1308 1.429 . S
C1327 C1321 1.429 . S
C1327 C1328 1.523 . S
C1328 C1309 1.368 . S
C1328 C1322 1.368 . S
C1328 C1327 1.523 . S
C1329 C1313 1.429 . S
C1329 C1325 1.429 . S
C1329 C1330 1.523 . S
C1330 C1314 1.368 . S
C1330 C1326 1.368 . S
C1330 C1329 1.523 . S
H1331 C1306 0.950 . S
H1332 C1308 0.950 . S
H1333 C1309 0.949 . S
H1334 C1311 0.950 . S
H1335 C1313 0.950 . S
C1336 C1337 1.349 . S
C1336 C1338 1.327 . S
C1336 H1361 0.950 . S
C1337 C1336 1.349 . S
C1337 C1353 1.349 . S
C1338 C1336 1.327 . S
C1338 C1357 1.429 . S
C1338 H1362 0.950 . S
C1339 C1356 1.574 . S
C1339 C1358 1.368 . S
C1339 H1363 0.949 . S
H1340 C1344 0.949 . S
C1341 C1342 1.349 . S
C1341 C1343 1.327 . S
C1341 H1364 0.950 . S
C1342 C1341 1.349 . S
C1342 C1354 1.349 . S
C1343 C1341 1.327 . S
C1343 C1359 1.429 . S
C1343 H1365 0.950 . S
C1344 H1340 0.949 . S
C1344 C1352 1.574 . S
C1344 C1360 1.368 . S
H1345 C1353 0.950 . S
H1346 C1351 0.950 . S
H1347 C1352 0.949 . S
H1348 C1354 0.950 . S
H1349 C1355 0.950 . S
H1350 C1356 0.949 . S
C1351 H1346 0.950 . S
C1351 C1353 1.327 . S
C1351 C1357 1.429 . S
C1352 C1344 1.574 . S
C1352 H1347 0.949 . S
C1352 C1358 1.368 . S
C1353 C1337 1.349 . S
C1353 H1345 0.950 . S
C1353 C1351 1.327 . S
C1354 C1342 1.349 . S
C1354 H1348 0.950 . S
C1354 C1355 1.327 . S
C1355 H1349 0.950 . S
C1355 C1354 1.327 . S
C1355 C1359 1.429 . S
C1356 C1339 1.574 . S
C1356 H1350 0.949 . S
C1356 C1360 1.368 . S
C1357 C1338 1.429 . S
C1357 C1351 1.429 . S
C1357 C1358 1.523 . S
C1358 C1339 1.368 . S
C1358 C1352 1.368 . S
C1358 C1357 1.523 . S
C1359 C1343 1.429 . S
C1359 C1355 1.429 . S
C1359 C1360 1.523 . S
C1360 C1344 1.368 . S
C1360 C1356 1.368 . S
C1360 C1359 1.523 . S
H1361 C1336 0.950 . S
H1362 C1338 0.950 . S
H1363 C1339 0.949 . S
H1364 C1341 0.950 . S
H1365 C1343 0.950 . S
C1366 C1367 1.349 . S
C1366 C1368 1.327 . S
C1366 H1391 0.950 . S
C1367 C1366 1.349 . S
C1367 C1383 1.349 . S
C1368 C1366 1.327 . S
C1368 C1387 1.429 . S
C1368 H1392 0.950 . S
C1369 C1386 1.574 . S
C1369 C1388 1.368 . S
C1369 H1393 0.949 . S
H1370 C1374 0.949 . S
C1371 C1372 1.349 . S
C1371 C1373 1.327 . S
C1371 H1394 0.950 . S
C1372 C1371 1.349 . S
C1372 C1384 1.349 . S
C1373 C1371 1.327 . S
C1373 C1389 1.429 . S
C1373 H1395 0.950 . S
C1374 H1370 0.949 . S
C1374 C1382 1.574 . S
C1374 C1390 1.368 . S
H1375 C1383 0.950 . S
H1376 C1381 0.950 . S
H1377 C1382 0.949 . S
H1378 C1384 0.950 . S
H1379 C1385 0.950 . S
H1380 C1386 0.949 . S
C1381 H1376 0.950 . S
C1381 C1383 1.327 . S
C1381 C1387 1.429 . S
C1382 C1374 1.574 . S
C1382 H1377 0.949 . S
C1382 C1388 1.368 . S
C1383 C1367 1.349 . S
C1383 H1375 0.950 . S
C1383 C1381 1.327 . S
C1384 C1372 1.349 . S
C1384 H1378 0.950 . S
C1384 C1385 1.327 . S
C1385 H1379 0.950 . S
C1385 C1384 1.327 . S
C1385 C1389 1.429 . S
C1386 C1369 1.574 . S
C1386 H1380 0.949 . S
C1386 C1390 1.368 . S
C1387 C1368 1.429 . S
C1387 C1381 1.429 . S
C1387 C1388 1.523 . S
C1388 C1369 1.368 . S
C1388 C1382 1.368 . S
C1388 C1387 1.523 . S
C1389 C1373 1.429 . S
C1389 C1385 1.429 . S
C1389 C1390 1.523 . S
C1390 C1374 1.368 . S
C1390 C1386 1.368 . S
C1390 C1389 1.523 . S
H1391 C1366 0.950 . S
H1392 C1368 0.950 . S
H1393 C1369 0.949 . S
H1394 C1371 0.950 . S
H1395 C1373 0.950 . S
C1396 C1397 1.349 . S
C1396 C1398 1.327 . S
C1396 H1421 0.950 . S
C1397 C1396 1.349 . S
C1397 C1413 1.349 . S
C1398 C1396 1.327 . S
C1398 C1417 1.429 . S
C1398 H1422 0.950 . S
C1399 C1416 1.574 . S
C1399 C1418 1.368 . S
C1399 H1423 0.949 . S
H1400 C1404 0.949 . S
C1401 C1402 1.349 . S
C1401 C1403 1.327 . S
C1401 H1424 0.950 . S
C1402 C1401 1.349 . S
C1402 C1414 1.349 . S
C1403 C1401 1.327 . S
C1403 C1419 1.429 . S
C1403 H1425 0.950 . S
C1404 H1400 0.949 . S
C1404 C1412 1.574 . S
C1404 C1420 1.368 . S
H1405 C1413 0.950 . S
H1406 C1411 0.950 . S
H1407 C1412 0.949 . S
H1408 C1414 0.950 . S
H1409 C1415 0.950 . S
H1410 C1416 0.949 . S
C1411 H1406 0.950 . S
C1411 C1413 1.327 . S
C1411 C1417 1.429 . S
C1412 C1404 1.574 . S
C1412 H1407 0.949 . S
C1412 C1418 1.368 . S
C1413 C1397 1.349 . S
C1413 H1405 0.950 . S
C1413 C1411 1.327 . S
C1414 C1402 1.349 . S
C1414 H1408 0.950 . S
C1414 C1415 1.327 . S
C1415 H1409 0.950 . S
C1415 C1414 1.327 . S
C1415 C1419 1.429 . S
C1416 C1399 1.574 . S
C1416 H1410 0.949 . S
C1416 C1420 1.368 . S
C1417 C1398 1.429 . S
C1417 C1411 1.429 . S
C1417 C1418 1.523 . S
C1418 C1399 1.368 . S
C1418 C1412 1.368 . S
C1418 C1417 1.523 . S
C1419 C1403 1.429 . S
C1419 C1415 1.429 . S
C1419 C1420 1.523 . S
C1420 C1404 1.368 . S
C1420 C1416 1.368 . S
C1420 C1419 1.523 . S
H1421 C1396 0.950 . S
H1422 C1398 0.950 . S
H1423 C1399 0.949 . S
H1424 C1401 0.950 . S
H1425 C1403 0.950 . S
C1426 C1427 1.349 . S
C1426 C1428 1.327 . S
C1426 H1451 0.950 . S
C1427 C1426 1.349 . S
C1427 C1443 1.349 . S
C1428 C1426 1.327 . S
C1428 C1447 1.429 . S
C1428 H1452 0.950 . S
C1429 C1446 1.574 . S
C1429 C1448 1.368 . S
C1429 H1453 0.949 . S
H1430 C1434 0.949 . S
C1431 C1432 1.349 . S
C1431 C1433 1.327 . S
C1431 H1454 0.950 . S
C1432 C1431 1.349 . S
C1432 C1444 1.349 . S
C1433 C1431 1.327 . S
C1433 C1449 1.429 . S
C1433 H1455 0.950 . S
C1434 H1430 0.949 . S
C1434 C1442 1.574 . S
C1434 C1450 1.368 . S
H1435 C1443 0.950 . S
H1436 C1441 0.950 . S
H1437 C1442 0.949 . S
H1438 C1444 0.950 . S
H1439 C1445 0.950 . S
H1440 C1446 0.949 . S
C1441 H1436 0.950 . S
C1441 C1443 1.327 . S
C1441 C1447 1.429 . S
C1442 C1434 1.574 . S
C1442 H1437 0.949 . S
C1442 C1448 1.368 . S
C1443 C1427 1.349 . S
C1443 H1435 0.950 . S
C1443 C1441 1.327 . S
C1444 C1432 1.349 . S
C1444 H1438 0.950 . S
C1444 C1445 1.327 . S
C1445 H1439 0.950 . S
C1445 C1444 1.327 . S
C1445 C1449 1.429 . S
C1446 C1429 1.574 . S
C1446 H1440 0.949 . S
C1446 C1450 1.368 . S
C1447 C1428 1.429 . S
C1447 C1441 1.429 . S
C1447 C1448 1.523 . S
C1448 C1429 1.368 . S
C1448 C1442 1.368 . S
C1448 C1447 1.523 . S
C1449 C1433 1.429 . S
C1449 C1445 1.429 . S
C1449 C1450 1.523 . S
C1450 C1434 1.368 . S
C1450 C1446 1.368 . S
C1450 C1449 1.523 . S
H1451 C1426 0.950 . S
H1452 C1428 0.950 . S
H1453 C1429 0.949 . S
H1454 C1431 0.950 . S
H1455 C1433 0.950 . S
C502 C409 1.236 . S
C497 C36 1.209 . S
C532 C423 1.246 . S
C527 C93 1.232 . S
C562 C431 1.281 . S
C557 C126 1.265 . S
C587 C165 1.212 . S
C592 C389 1.236 . S
C617 C222 1.174 . S
C622 C395 1.184 1_556 S
C647 C261 1.181 . S
C652 C403 1.206 . S
C682 C417 1.325 . S
C677 C318 1.297 . S
C712 C437 1.278 . S
C707 C381 1.265 . S
C737 C132 1.182 . S
C742 C465 1.206 . S
C772 C479 1.308 . S
C767 C189 1.293 . S
C797 C30 1.194 . S
C802 C487 1.215 . S
C832 C451 1.156 . S
C827 C69 1.131 . S
C857 C324 1.238 . S
C862 C445 1.261 . S
C887 C357 1.254 . S
C892 C459 1.276 . S
C922 C473 1.276 . S
C917 C228 1.257 . S
C947 C285 1.285 . S
C952 C493 1.301 . S
C982 C412 1.694 . S
C977 C45 1.727 . S
C1012 C435 1.721 . S
C1007 C84 1.732 . S
C1037 C117 1.730 . S
C1042 C393 1.727 . S
C1067 C174 1.721 . S
C1072 C398 1.714 . S
C1097 C213 1.714 . S
C1102 C426 1.669 . S
C1132 C384 1.679 . S
C1127 C270 1.695 . S
C1162 C407 1.713 . S
C1157 C309 1.720 . S
C1192 C421 1.719 . S
C1187 C372 1.734 . S
C1222 C468 1.674 . S
C1217 C141 1.710 . S
C1252 C491 1.708 . S
C1247 C180 1.719 . S
C1277 C21 1.701 . S
C1282 C440 1.664 . S
C1312 C454 1.656 . S
C1307 C78 1.675 . S
C1342 C482 1.721 . S
C1337 C333 1.760 . S
C1367 C366 1.723 . S
C1372 C449 1.745 . S
C1402 C463 1.733 . S
C1397 C237 1.743 . S
C1432 C477 1.736 . S
C1427 C276 1.747 . S
