# Generated by pormake.
# Topology pyr, (3,6)-cn, num edge types: 1
# Building blocks:
#     Node 0, Type 0, BuildingBlock: MIDCAF_clean_linker_0, # of connection points: 3
#     Node 1, Type 0, BuildingBlock: MIDCAF_clean_linker_0, # of connection points: 3
#     Node 2, Type 0, BuildingBlock: MIDCAF_clean_linker_0, # of connection points: 3
#     Node 3, Type 0, BuildingBlock: MIDCAF_clean_linker_0, # of connection points: 3
#     Node 4, Type 0, BuildingBlock: MIDCAF_clean_linker_0, # of connection points: 3
#     Node 5, Type 0, BuildingBlock: MIDCAF_clean_linker_0, # of connection points: 3
#     Node 6, Type 0, BuildingBlock: MIDCAF_clean_linker_0, # of connection points: 3
#     Node 7, Type 0, BuildingBlock: MIDCAF_clean_linker_0, # of connection points: 3
#     Node 8, Type 1, BuildingBlock: JUFBIX_clean_sbu_0, # of connection points: 6
#     Node 9, Type 1, BuildingBlock: JUFBIX_clean_sbu_0, # of connection points: 6
#     Node 10, Type 1, BuildingBlock: JUFBIX_clean_sbu_0, # of connection points: 6
#     Node 11, Type 1, BuildingBlock: JUFBIX_clean_sbu_0, # of connection points: 6
#     Edge 12, Type (0, 1), BuildingBlock: OJICUG_clean_linker_0, # of connection points: 2
#     Edge 13, Type (0, 1), BuildingBlock: OJICUG_clean_linker_0, # of connection points: 2
#     Edge 14, Type (0, 1), BuildingBlock: OJICUG_clean_linker_0, # of connection points: 2
#     Edge 15, Type (0, 1), BuildingBlock: OJICUG_clean_linker_0, # of connection points: 2
#     Edge 16, Type (0, 1), BuildingBlock: OJICUG_clean_linker_0, # of connection points: 2
#     Edge 17, Type (0, 1), BuildingBlock: OJICUG_clean_linker_0, # of connection points: 2
#     Edge 18, Type (0, 1), BuildingBlock: OJICUG_clean_linker_0, # of connection points: 2
#     Edge 19, Type (0, 1), BuildingBlock: OJICUG_clean_linker_0, # of connection points: 2
#     Edge 20, Type (0, 1), BuildingBlock: OJICUG_clean_linker_0, # of connection points: 2
#     Edge 21, Type (0, 1), BuildingBlock: OJICUG_clean_linker_0, # of connection points: 2
#     Edge 22, Type (0, 1), BuildingBlock: OJICUG_clean_linker_0, # of connection points: 2
#     Edge 23, Type (0, 1), BuildingBlock: OJICUG_clean_linker_0, # of connection points: 2
#     Edge 24, Type (0, 1), BuildingBlock: OJICUG_clean_linker_0, # of connection points: 2
#     Edge 25, Type (0, 1), BuildingBlock: OJICUG_clean_linker_0, # of connection points: 2
#     Edge 26, Type (0, 1), BuildingBlock: OJICUG_clean_linker_0, # of connection points: 2
#     Edge 27, Type (0, 1), BuildingBlock: OJICUG_clean_linker_0, # of connection points: 2
#     Edge 28, Type (0, 1), BuildingBlock: OJICUG_clean_linker_0, # of connection points: 2
#     Edge 29, Type (0, 1), BuildingBlock: OJICUG_clean_linker_0, # of connection points: 2
#     Edge 30, Type (0, 1), BuildingBlock: OJICUG_clean_linker_0, # of connection points: 2
#     Edge 31, Type (0, 1), BuildingBlock: OJICUG_clean_linker_0, # of connection points: 2
#     Edge 32, Type (0, 1), BuildingBlock: OJICUG_clean_linker_0, # of connection points: 2
#     Edge 33, Type (0, 1), BuildingBlock: OJICUG_clean_linker_0, # of connection points: 2
#     Edge 34, Type (0, 1), BuildingBlock: OJICUG_clean_linker_0, # of connection points: 2
#     Edge 35, Type (0, 1), BuildingBlock: OJICUG_clean_linker_0, # of connection points: 2
# Relax obj value: 0.066
# Max RMSD: 0.101
# Mean RMSD: 0.035
data_MOF--net-pry--node1-JUFBIX_clean_sbu_0--node2-MIDCAF_clean_linker_0--edge1-OJICUG_clean_linker_0
_symmetry_space_group_name_H-M    P1
_symmetry_Int_Tables_number       1
_symmetry_cell_setting            triclinic
loop_
_symmetry_equiv_pos_as_xyz
'x, y, z'
_cell_length_a     35.667959
_cell_length_b     33.729464
_cell_length_c     35.882409
_cell_angle_alpha  84.141406
_cell_angle_beta   90.043931
_cell_angle_gamma 91.318329
loop_
_atom_site_label
_atom_site_type_symbol
_atom_site_fract_x
_atom_site_fract_y
_atom_site_fract_z
_atom_type_partial_charge
C0 C 0.11412 0.1235 0.29041 0.0
C1 C 0.13 0.09152 0.31276 0.0
C2 C 0.16399 0.07647 0.30051 0.0
C3 C 0.18118 0.09269 0.26673 0.0
H4 H 0.27764 0.08845 0.19264 0.0
H5 H 0.33411 0.06337 0.16521 0.0
H6 H 0.31741 0.14267 0.06469 0.0
H7 H 0.26114 0.16746 0.09175 0.0
H8 H 0.20647 0.24599 0.09847 0.0
H9 H 0.17506 0.30455 0.06848 0.0
H10 H 0.07689 0.27369 0.13673 0.0
H11 H 0.1086 0.21653 0.16742 0.0
H12 H 0.11763 0.16427 0.24097 0.0
H13 H 0.08849 0.13661 0.29898 0.0
H14 H 0.17708 0.05172 0.31673 0.0
H15 H 0.2071 0.08016 0.25819 0.0
N16 N 0.21451 0.12852 0.19405 0.0
N17 N 0.21185 0.1774 0.14224 0.0
N18 N 0.16551 0.17408 0.18871 0.0
C19 C 0.22945 0.14571 0.16091 0.0
C20 C 0.17983 0.19176 0.15592 0.0
C21 C 0.18237 0.14265 0.20817 0.0
C22 C 0.2644 0.1301 0.14461 0.0
C23 C 0.28593 0.10058 0.16468 0.0
C24 C 0.31858 0.08631 0.14896 0.0
C25 C 0.33058 0.10079 0.11253 0.0
C26 C 0.30902 0.13027 0.09255 0.0
C27 C 0.27665 0.14474 0.10831 0.0
C28 C 0.16037 0.22652 0.13575 0.0
C29 C 0.17815 0.25169 0.10701 0.0
C30 C 0.15996 0.28528 0.08961 0.0
C31 C 0.12334 0.29449 0.10024 0.0
C32 C 0.10534 0.26854 0.12826 0.0
C33 C 0.12357 0.23535 0.14583 0.0
C34 C 0.16497 0.12457 0.24435 0.0
C35 C 0.1312 0.13966 0.25695 0.0
C36 C 0.33386 0.98137 0.57077 0.0
C37 C 0.31008 0.9608 0.54767 0.0
C38 C 0.3245 0.92844 0.53078 0.0
C39 C 0.36054 0.91482 0.53959 0.0
H40 H 0.44882 0.82739 0.52523 0.0
H41 H 0.46124 0.75929 0.51169 0.0
H42 H 0.49252 0.72848 0.62702 0.0
H43 H 0.48087 0.79678 0.64061 0.0
H44 H 0.49466 0.86974 0.69207 0.0
H45 H 0.5028 0.89296 0.75395 0.0
H46 H 0.46511 0.00943 0.71074 0.0
H47 H 0.45683 0.98649 0.64915 0.0
H48 H 0.38643 0.98386 0.5985 0.0
H49 H 0.32401 1.00615 0.58471 0.0
H50 H 0.30743 0.91254 0.51197 0.0
H51 H 0.36992 0.8884 0.52789 0.0
N52 N 0.42757 0.87831 0.57258 0.0
N53 N 0.47086 0.87371 0.62226 0.0
N54 N 0.43393 0.93008 0.61088 0.0
C55 C 0.45474 0.85795 0.59251 0.0
C56 C 0.46088 0.91021 0.63119 0.0
C57 C 0.41698 0.9145 0.58171 0.0
C58 C 0.46399 0.81741 0.58394 0.0
C59 C 0.45855 0.80615 0.54765 0.0
C60 C 0.46569 0.76731 0.53986 0.0
C61 C 0.47763 0.73884 0.56839 0.0
C62 C 0.48309 0.74997 0.60467 0.0
C63 C 0.47671 0.78906 0.6123 0.0
C64 C 0.47435 0.92601 0.66588 0.0
C65 C 0.4891 0.90059 0.69551 0.0
C66 C 0.49378 0.91388 0.73095 0.0
C67 C 0.48383 0.95275 0.73721 0.0
C68 C 0.47221 0.97906 0.70683 0.0
C69 C 0.46758 0.96588 0.67154 0.0
C70 C 0.38297 0.93359 0.56515 0.0
C71 C 0.36989 0.96821 0.57906 0.0
C72 C 0.65665 0.23197 0.93369 0.0
C73 C 0.62042 0.22119 0.92208 0.0
C74 C 0.60325 0.24574 0.89325 0.0
C75 C 0.62189 0.27976 0.8762 0.0
H76 H 0.61921 0.35374 0.7827 0.0
H77 H 0.59029 0.38466 0.72654 0.0
H78 H 0.67492 0.47875 0.71925 0.0
H79 H 0.70483 0.44708 0.77591 0.0
H80 H 0.77637 0.43479 0.83806 0.0
H81 H 0.83349 0.45907 0.8669 0.0
H82 H 0.81731 0.37044 0.96146 0.0
H83 H 0.7604 0.3465 0.93317 0.0
H84 H 0.70319 0.27333 0.92627 0.0
H85 H 0.67106 0.21355 0.9554 0.0
H86 H 0.57515 0.23893 0.88398 0.0
H87 H 0.60764 0.2978 0.85409 0.0
N88 N 0.66389 0.3454 0.83709 0.0
N89 N 0.71373 0.39231 0.83406 0.0
N90 N 0.71022 0.34064 0.88333 0.0
C91 C 0.68136 0.37822 0.81929 0.0
C92 C 0.72834 0.37357 0.86624 0.0
C93 C 0.67797 0.32638 0.86897 0.0
C94 C 0.66445 0.3979 0.78427 0.0
C95 C 0.6319 0.38107 0.76943 0.0
C96 C 0.61499 0.39903 0.73713 0.0
C97 C 0.62986 0.43456 0.71848 0.0
C98 C 0.66274 0.45131 0.73283 0.0
C99 C 0.67981 0.43322 0.76542 0.0
C100 C 0.76348 0.38867 0.88317 0.0
C101 C 0.78494 0.42048 0.865 0.0
C102 C 0.81786 0.43427 0.88146 0.0
C103 C 0.83001 0.41682 0.91662 0.0
C104 C 0.8086 0.385 0.93465 0.0
C105 C 0.77594 0.37109 0.91818 0.0
C106 C 0.65816 0.29043 0.88766 0.0
C107 C 0.67523 0.26621 0.9168 0.0
C108 C 0.82908 0.61043 0.50417 0.0
C109 C 0.81086 0.5767 0.49189 0.0
C110 C 0.83205 0.54958 0.47401 0.0
C111 C 0.86969 0.55802 0.46528 0.0
H112 H 0.93367 0.53904 0.37926 0.0
H113 H 0.93943 0.51636 0.31793 0.0
H114 H 1.01696 0.61401 0.28497 0.0
H115 H 1.01008 0.63793 0.34662 0.0
H116 H 1.00673 0.71363 0.39695 0.0
H117 H 0.02646 0.78079 0.40972 0.0
H118 H 0.99306 0.75418 0.52528 0.0
H119 H 0.97274 0.68719 0.51259 0.0
H120 H 0.87928 0.64648 0.50312 0.0
H121 H 0.8136 0.63146 0.51869 0.0
H122 H 0.81892 0.52334 0.46414 0.0
H123 H 0.88451 0.5377 0.44933 0.0
N124 N 0.93399 0.59111 0.42513 0.0
N125 N 0.98101 0.64036 0.41349 0.0
N126 N 0.9412 0.64075 0.46566 0.0
C127 C 0.96298 0.60701 0.40375 0.0
C128 C 0.97061 0.65702 0.44481 0.0
C129 C 0.92281 0.60763 0.45601 0.0
C130 C 0.97116 0.5906 0.36792 0.0
C131 C 0.95227 0.55568 0.35922 0.0
C132 C 0.9558 0.54238 0.32395 0.0
C133 C 0.97861 0.56336 0.29638 0.0
C134 C 0.99873 0.59747 0.30542 0.0
C135 C 0.99506 0.61096 0.34087 0.0
C136 C 0.98784 0.69523 0.4537 0.0
C137 C 1.00425 0.72178 0.42525 0.0
C138 C 1.01543 0.76024 0.43247 0.0
C139 C 1.01112 0.77255 0.46842 0.0
C140 C 0.99688 0.74527 0.49739 0.0
C141 C 0.98505 0.70706 0.49004 0.0
C142 C 0.88692 0.59379 0.47417 0.0
C143 C 0.86682 0.61887 0.49548 0.0
C144 C 0.72541 0.92932 0.88494 0.0
C145 C 0.71401 0.91493 0.9216 0.0
C146 C 0.73598 0.88566 0.94135 0.0
C147 C 0.76812 0.87126 0.92512 0.0
H148 H 0.83774 0.7703 0.93418 0.0
H149 H 0.86914 0.71185 0.96428 0.0
H150 H 0.96666 0.74152 0.89474 0.0
H151 H 0.93488 0.7986 0.8639 0.0
H152 H 0.92513 0.85147 0.79016 0.0
H153 H 0.95348 0.87919 0.73174 0.0
H154 H 0.86455 0.96381 0.71515 0.0
H155 H 0.83535 0.93532 0.7741 0.0
H156 H 0.76565 0.92714 0.84063 0.0
H157 H 0.70954 0.9521 0.86886 0.0
H158 H 0.72806 0.87334 0.96936 0.0
H159 H 0.78395 0.84868 0.94152 0.0
N160 N 0.83219 0.83845 0.89023 0.0
N161 N 0.87788 0.84156 0.84314 0.0
N162 N 0.82892 0.88721 0.8384 0.0
C163 C 0.86395 0.82397 0.87616 0.0
C164 C 0.86083 0.87299 0.82386 0.0
C165 C 0.81442 0.87012 0.87178 0.0
C166 C 0.88349 0.7892 0.89624 0.0
C167 C 0.86592 0.76437 0.92536 0.0
C168 C 0.88411 0.73084 0.94283 0.0
C169 C 0.92055 0.72132 0.93193 0.0
C170 C 0.93835 0.74691 0.90347 0.0
C171 C 0.92008 0.78005 0.88581 0.0
C172 C 0.87772 0.89104 0.7874 0.0
C173 C 0.91133 0.87602 0.77434 0.0
C174 C 0.92794 0.89222 0.74064 0.0
C175 C 0.91174 0.92416 0.71849 0.0
C176 C 0.87788 0.93909 0.73119 0.0
C177 C 0.86117 0.92286 0.76521 0.0
C178 C 0.77974 0.88576 0.88858 0.0
C179 C 0.75784 0.91512 0.86876 0.0
C180 C 0.56567 0.04511 0.3243 0.0
C181 C 0.55748 0.0736 0.29431 0.0
C182 C 0.55086 0.11301 0.30148 0.0
C183 C 0.55492 0.12436 0.33765 0.0
H184 H 0.55969 0.2229 0.39597 0.0
H185 H 0.54838 0.2909 0.41036 0.0
H186 H 0.58025 0.2587 0.5253 0.0
H187 H 0.59235 0.19073 0.51094 0.0
H188 H 0.67664 0.13471 0.49704 0.0
H189 H 0.73999 0.10998 0.50722 0.0
H190 H 0.70949 1.00455 0.45437 0.0
H191 H 0.64628 0.02891 0.44412 0.0
H192 H 0.57875 0.03439 0.38259 0.0
H193 H 0.57099 0.01456 0.31945 0.0
H194 H 0.54418 0.13541 0.27878 0.0
H195 H 0.55164 0.15543 0.34189 0.0
N196 N 0.56964 0.14639 0.41286 0.0
N197 N 0.61243 0.13982 0.46279 0.0
N198 N 0.60586 0.08933 0.42292 0.0
C199 C 0.58562 0.16103 0.44319 0.0
C200 C 0.62267 0.10382 0.4528 0.0
C201 C 0.5793 0.11022 0.4029 0.0
C202 C 0.57684 0.20148 0.45238 0.0
C203 C 0.56408 0.23021 0.42437 0.0
C204 C 0.55789 0.26916 0.43245 0.0
C205 C 0.5636 0.27983 0.46884 0.0
C206 C 0.57562 0.25102 0.49704 0.0
C207 C 0.58257 0.21226 0.4888 0.0
C208 C 0.65666 0.08429 0.46884 0.0
C209 C 0.68301 0.10565 0.48868 0.0
C210 C 0.71932 0.09151 0.49457 0.0
C211 C 0.72972 0.05586 0.48075 0.0
C212 C 0.70229 0.03255 0.46459 0.0
C213 C 0.66608 0.04654 0.4588 0.0
C214 C 0.56631 0.09659 0.36712 0.0
C215 C 0.57027 0.05655 0.36037 0.0
C216 C 0.225 0.58169 0.15244 0.0
C217 C 0.21328 0.59892 0.11704 0.0
C218 C 0.23498 0.63054 0.09906 0.0
C219 C 0.26747 0.6445 0.11583 0.0
H220 H 0.34042 0.74249 0.10821 0.0
H221 H 0.37313 0.80203 0.07928 0.0
H222 H 0.46809 0.77635 0.15191 0.0
H223 H 0.43502 0.71777 0.18161 0.0
H224 H 0.42152 0.6638 0.25383 0.0
H225 H 0.44996 0.63342 0.31043 0.0
H226 H 0.36673 0.53797 0.31655 0.0
H227 H 0.33728 0.5691 0.25935 0.0
H228 H 0.26594 0.58141 0.19635 0.0
H229 H 0.20916 0.55704 0.16698 0.0
H230 H 0.22663 0.64494 0.07207 0.0
H231 H 0.28321 0.66895 0.10087 0.0
N232 N 0.33274 0.67517 0.15133 0.0
N233 N 0.37832 0.67081 0.19829 0.0
N234 N 0.32847 0.62394 0.20099 0.0
C235 C 0.36476 0.68954 0.16605 0.0
C236 C 0.3606 0.63817 0.21612 0.0
C237 C 0.31436 0.64239 0.16843 0.0
C238 C 0.38492 0.72529 0.14741 0.0
C239 C 0.3683 0.7495 0.11799 0.0
C240 C 0.3872 0.7836 0.10122 0.0
C241 C 0.42334 0.79422 0.11322 0.0
C242 C 0.44007 0.76967 0.14233 0.0
C243 C 0.4211 0.73581 0.15927 0.0
C244 C 0.37704 0.61888 0.25155 0.0
C245 C 0.40902 0.63628 0.26691 0.0
C246 C 0.42567 0.61864 0.29949 0.0
C247 C 0.41109 0.58287 0.31792 0.0
C248 C 0.37869 0.56559 0.30312 0.0
C249 C 0.36188 0.58337 0.27025 0.0
C250 C 0.27945 0.62718 0.15111 0.0
C251 C 0.25773 0.59554 0.16921 0.0
C252 C 0.0476 0.27058 0.53448 0.0
C253 C 0.03166 0.24349 0.56268 0.0
C254 C 0.02595 0.25574 0.59844 0.0
C255 C 0.03714 0.294 0.60625 0.0
H256 H 0.03203 0.37448 0.68786 0.0
H257 H 0.02498 0.39806 0.74969 0.0
H258 H 0.09247 0.50292 0.71313 0.0
H259 H 0.09805 0.48059 0.65173 0.0
H260 H 0.1505 0.48265 0.5848 0.0
H261 H 0.21632 0.50055 0.57409 0.0
H262 H 0.23219 0.39183 0.52304 0.0
H263 H 0.1661 0.37307 0.53434 0.0
H264 H 0.07284 0.32839 0.52049 0.0
H265 H 0.05253 0.26168 0.50676 0.0
H266 H 1.01364 0.23534 0.62061 0.0
H267 H 0.03331 0.30214 0.6344 0.0
N268 N 0.05903 0.37522 0.61916 0.0
N269 N 0.10439 0.42627 0.60862 0.0
N270 N 0.10065 0.37629 0.56813 0.0
C271 C 0.07543 0.40928 0.62927 0.0
C272 C 0.11732 0.41021 0.5782 0.0
C273 C 0.07109 0.35896 0.58818 0.0
C274 C 0.06588 0.42542 0.66488 0.0
C275 C 0.0446 0.40299 0.69287 0.0
C276 C 0.04091 0.41629 0.72842 0.0
C277 C 0.0584 0.45227 0.73657 0.0
C278 C 0.07815 0.47538 0.70793 0.0
C279 C 0.08164 0.46229 0.67259 0.0
C280 C 0.15324 0.42589 0.56129 0.0
C281 C 0.16763 0.46289 0.57041 0.0
C282 C 0.20529 0.47328 0.56426 0.0
C283 C 0.22918 0.44724 0.54834 0.0
C284 C 0.21412 0.41234 0.53538 0.0
C285 C 0.17631 0.40167 0.54185 0.0
C286 C 0.05496 0.32046 0.57861 0.0
C287 C 0.05944 0.30861 0.54245 0.0
Co288 Co 0.99301 0.01233 0.50099 0.0
C289 C 0.02336 0.93642 0.50005 0.0
Co290 Co 0.04722 1.00403 0.52953 0.0
C291 C 0.91447 0.02798 0.48936 0.0
C292 C 0.93956 1.00246 0.44348 0.0
N293 N 0.94743 0.01565 0.47683 0.0
N294 N 0.88605 0.0227 0.46524 0.0
C295 C 0.902 1.00665 0.4363 0.0
H296 H 0.91155 0.04002 0.51598 0.0
H297 H 0.95966 0.98943 0.42603 0.0
C298 C 1.01692 0.07997 0.53045 0.0
N299 N 0.09303 1.00061 0.55312 0.0
C300 C 0.12479 0.98613 0.53996 0.0
C301 C 0.10343 0.01739 0.58421 0.0
N302 N 0.15462 0.99399 0.56117 0.0
C303 C 0.1415 0.01366 0.58904 0.0
C304 C 0.05394 0.03187 0.45296 0.0
O305 O 0.99008 0.06623 0.51193 0.0
O306 O 0.04411 0.0577 0.54045 0.0
O307 O 0.07231 0.02174 0.4827 0.0
O308 O 0.01828 0.03013 0.4546 0.0
O309 O 0.05 0.9502 0.51874 0.0
H310 H 0.08484 0.03298 0.60122 0.0
H311 H 0.12642 0.97223 0.51413 0.0
O312 O 0.9962 0.95865 0.48987 0.0
O313 O 0.96791 0.99438 0.5479 0.0
O314 O 0.02214 0.9865 0.57596 0.0
C315 C 0.98646 0.98448 0.57765 0.0
H316 H 0.88763 0.99724 0.41206 0.0
H317 H 0.15841 0.02526 0.61071 0.0
Co318 Co 0.50692 1.00445 0.99185 0.0
C319 C 0.49741 0.93965 0.0464 0.0
Co320 Co 0.53818 0.01039 0.04389 0.0
C321 C 0.49463 0.99684 0.91382 0.0
C322 C 0.44347 0.99015 0.94523 0.0
N323 N 0.48054 0.99778 0.94858 0.0
N324 N 0.46793 0.98863 0.88898 0.0
C325 C 0.43561 0.98466 0.90855 0.0
H326 H 0.52402 1.00162 0.90689 0.0
H327 H 0.42362 0.98754 0.96818 0.0
C328 C 0.54758 0.07523 0.98926 0.0
N329 N 0.56481 0.01744 0.08695 0.0
C330 C 0.55141 0.01859 0.12197 0.0
C331 C 0.60123 0.02874 0.08877 0.0
N332 N 0.57782 0.031 0.14532 0.0
C333 C 0.60927 0.03724 0.1246 0.0
C334 C 0.58012 0.97497 0.99047 0.0
O335 O 0.52537 0.0551 0.97039 0.0
O336 O 0.55629 0.06129 0.02229 0.0
O337 O 0.58114 0.98568 0.02348 0.0
O338 O 0.54989 0.97978 0.97191 0.0
O339 O 0.51981 0.95963 0.0653 0.0
H340 H 0.62017 0.0327 0.06509 0.0
H341 H 0.52226 0.01307 0.12963 0.0
O342 O 0.48861 0.9537 1.0134 0.0
O343 O 0.4641 0.02931 1.01216 0.0
O344 O 0.49509 0.03493 0.06396 0.0
C345 C 0.46496 0.03992 0.04522 0.0
H346 H 0.40852 0.97673 0.89747 0.0
H347 H 0.63577 0.0486 0.13433 0.0
Co348 Co 0.54699 0.52011 0.50533 0.0
C349 C 0.48644 0.52446 0.45579 0.0
Co350 Co 0.49343 0.49838 0.53174 0.0
C351 C 0.62682 0.53455 0.49458 0.0
C352 C 0.59371 0.57259 0.45689 0.0
N353 N 0.5911 0.54158 0.48373 0.0
N354 N 0.65145 0.56041 0.47605 0.0
C355 C 0.63069 0.58414 0.45207 0.0
H356 H 0.63445 0.51242 0.51712 0.0
H357 H 0.57012 0.58722 0.44297 0.0
C358 C 0.55411 0.49401 0.5812 0.0
N359 N 0.44911 0.47738 0.5535 0.0
C360 C 0.41356 0.48424 0.54196 0.0
C361 C 0.44567 0.44996 0.58355 0.0
N362 N 0.38832 0.46236 0.56367 0.0
C363 C 0.40832 0.44094 0.59004 0.0
C364 C 0.53542 0.44026 0.50168 0.0
O365 O 0.57218 0.50872 0.55236 0.0
O366 O 0.51903 0.4876 0.57837 0.0
O367 O 0.50547 0.44707 0.51888 0.0
O368 O 0.55855 0.46878 0.49224 0.0
O369 O 0.46834 0.50964 0.48458 0.0
H370 H 0.4688 0.43661 0.59935 0.0
H371 H 0.40615 0.50484 0.51813 0.0
O372 O 0.52148 0.53105 0.4587 0.0
O373 O 0.53499 0.57132 0.51841 0.0
O374 O 0.48182 0.54981 0.54474 0.0
C375 C 0.50506 0.57824 0.53552 0.0
H376 H 0.64133 0.60879 0.43304 0.0
H377 H 0.39678 0.41945 0.61172 0.0
Co378 Co 0.03722 0.50792 0.98987 0.0
C379 C 0.96446 0.47563 0.9874 0.0
Co380 Co 1.00638 0.50792 0.043 0.0
C381 C 0.05575 0.48779 0.91599 0.0
C382 C 0.08283 0.54205 0.92887 0.0
N383 N 0.06134 0.51111 0.94402 0.0
N384 N 0.07209 0.50351 0.88379 0.0
C385 C 0.08938 0.53751 0.89182 0.0
H386 H 0.03771 0.46141 0.9183 0.0
H387 H 0.09112 0.5676 0.94313 0.0
C388 C 0.07913 0.54023 0.04551 0.0
N389 N 0.9821 0.50457 0.08881 0.0
C390 C 0.98756 0.52743 0.11721 0.0
C391 C 0.95971 0.47403 0.10322 0.0
N392 N 0.97013 0.51187 0.1489 0.0
C393 C 0.95235 0.47842 0.14013 0.0
C394 C 0.04988 0.43955 0.03677 0.0
O395 O 0.07994 0.53251 1.01156 0.0
O396 O 0.04921 0.53237 0.06428 0.0
O397 O 0.0274 0.45666 0.0572 0.0
O398 O 0.05807 0.45652 1.00435 0.0
O399 O 0.9637 0.48342 0.0213 0.0
H400 H 0.95106 0.44893 0.08851 0.0
H401 H 1.006 0.5535 0.11546 0.0
O402 O 0.99436 0.48343 0.96861 0.0
O403 O 1.01619 0.55912 0.97566 0.0
O404 O 0.98554 0.5594 0.0285 0.0
C405 C 0.99375 0.57631 0.99605 0.0
H406 H 0.10428 0.55845 0.8719 0.0
H407 H 0.9363 0.45784 0.1594 0.0
C408 C 0.07141 0.07123 0.35064 0.0
C409 C 0.11087 0.07442 0.3485 0.0
H410 H 0.0228 0.0555 0.38457 0.0
C411 C 0.13147 0.06232 0.38107 0.0
H412 H 0.05441 0.07946 0.32618 0.0
C413 C 0.11316 0.04831 0.41479 0.0
C414 C 0.07369 0.04584 0.41696 0.0
H415 H 0.1618 0.06457 0.38081 0.0
H416 H 0.13001 0.03978 0.43931 0.0
C417 C 0.05316 0.05721 0.38425 0.0
C418 C 0.44891 0.98273 0.7872 0.0
C419 C 0.4814 0.96446 0.77577 0.0
H420 H 0.41929 1.00485 0.83231 0.0
C421 C 0.51011 0.95563 0.80188 0.0
H422 H 0.42608 0.98939 0.7678 0.0
C423 C 0.50617 0.96458 0.83886 0.0
C424 C 0.47322 0.98195 0.85043 0.0
H425 H 0.53543 0.94157 0.79377 0.0
H426 H 0.52836 0.95674 0.85865 0.0
C427 C 0.4448 0.99122 0.82417 0.0
C428 C 0.5714 0.45339 0.68216 0.0
C429 C 0.61082 0.45338 0.68419 0.0
H430 H 0.52278 0.4662 0.64852 0.0
C431 C 0.63149 0.46954 0.65261 0.0
H432 H 0.55449 0.442 0.70612 0.0
C433 C 0.61317 0.48384 0.61944 0.0
C434 C 0.57375 0.48232 0.61711 0.0
H435 H 0.66186 0.46984 0.65304 0.0
H436 H 0.62994 0.49506 0.59533 0.0
C437 C 0.55315 0.46752 0.64911 0.0
C438 C 0.97848 0.50954 0.25305 0.0
C439 C 0.97967 0.55036 0.25804 0.0
H440 H 0.97441 0.46541 0.21442 0.0
C441 C 0.97931 0.5784 0.22618 0.0
H442 H 0.97961 0.4871 0.27684 0.0
C443 C 0.97673 0.56582 0.19028 0.0
C444 C 0.97402 0.52503 0.1856 0.0
H445 H 0.97975 0.61007 0.229 0.0
H446 H 0.97571 0.58794 0.16623 0.0
C447 C 0.97542 0.49705 0.21729 0.0
C448 C 0.36608 0.07875 0.0571 0.0
C449 C 0.36522 0.08533 0.09529 0.0
H450 H 0.39757 0.05937 1.01156 0.0
C451 C 0.39785 0.07721 0.11664 0.0
H452 H 0.34152 0.08412 0.03972 0.0
C453 C 0.43021 0.06313 0.10035 0.0
C454 C 0.43093 0.05636 0.06223 0.0
H455 H 0.39861 0.08224 0.14596 0.0
H456 H 0.45465 0.05726 0.11781 0.0
C457 C 0.39831 0.06437 0.04089 0.0
C458 C 0.24207 0.93984 0.54431 0.0
C459 C 0.26955 0.97046 0.54507 0.0
H460 H 0.18347 0.92379 0.54859 0.0
C461 C 0.25777 0.00964 0.54785 0.0
H462 H 0.24983 0.90922 0.54276 0.0
C463 C 0.21994 0.01738 0.55272 0.0
C464 C 0.19302 0.98644 0.5536 0.0
H465 H 0.27784 0.03425 0.54739 0.0
H466 H 0.21162 0.04747 0.55614 0.0
C467 C 0.20409 0.94792 0.54808 0.0
C468 C 0.86542 0.43547 0.97343 0.0
C469 C 0.86467 0.43169 0.93471 0.0
H470 H 0.89718 0.45214 0.02034 0.0
C471 C 0.89737 0.44188 0.91362 0.0
H472 H 0.84068 0.42834 0.9905 0.0
C473 C 0.92989 0.45546 0.9308 0.0
C474 C 0.93049 0.45949 0.96947 0.0
H475 H 0.89798 0.43892 0.88386 0.0
H476 H 0.95448 0.46313 0.91364 0.0
C477 C 0.89783 0.44927 0.99055 0.0
C478 C 0.74768 0.60618 0.4816 0.0
C479 C 0.76933 0.57272 0.49257 0.0
H480 H 0.69333 0.6285 0.46798 0.0
C481 C 0.7512 0.53527 0.49998 0.0
H482 H 0.76076 0.63537 0.47513 0.0
C483 C 0.71237 0.53127 0.49536 0.0
C484 C 0.69105 0.56456 0.48291 0.0
H485 H 0.76713 0.50896 0.50861 0.0
H486 H 0.69924 0.50196 0.50032 0.0
C487 C 0.70905 0.60214 0.47681 0.0
C488 C 0.10954 0.34615 0.04532 0.0
C489 C 0.10418 0.33135 0.08321 0.0
H490 H 0.09666 0.39144 1.00082 0.0
C491 C 0.08026 0.35235 0.10505 0.0
H492 H 0.12732 0.33077 0.02733 0.0
C493 C 0.06226 0.38669 0.08968 0.0
C494 C 0.06778 0.40162 0.05197 0.0
H495 H 0.07587 0.34277 0.13447 0.0
H496 H 0.04444 0.40198 0.10773 0.0
C497 C 0.09167 0.38085 0.02994 0.0
C498 C 0.57843 0.16058 0.91785 0.0
C499 C 0.60077 0.18434 0.93961 0.0
H500 H 0.54401 0.10788 0.91635 0.0
C501 C 0.60441 0.17233 0.97815 0.0
H502 H 0.57538 0.16843 0.888 0.0
C503 C 0.58671 0.13729 0.99433 0.0
C504 C 0.56468 0.11345 0.97246 0.0
H505 H 0.6208 0.19012 0.99596 0.0
H506 H 0.59044 0.12881 0.02402 0.0
C507 C 0.56051 0.12569 0.93409 0.0
C508 C 0.03923 0.82533 0.50517 0.0
C509 C 1.01758 0.8148 0.47481 0.0
H510 H 0.05878 0.87257 0.53657 0.0
C511 C 0.99958 0.84473 0.45186 0.0
H512 H 0.05332 0.80268 0.52325 0.0
C513 C 1.00206 0.88432 0.45983 0.0
C514 C 0.02316 0.89489 0.49052 0.0
H515 H 0.9824 0.8373 0.42852 0.0
H516 H 0.98708 0.90663 0.44215 0.0
C517 C 0.0424 0.8652 0.51269 0.0
C518 C 0.50889 0.69061 0.53106 0.0
C519 C 0.48451 0.69763 0.56019 0.0
H520 H 0.53481 0.64717 0.50076 0.0
C521 C 0.46664 0.66518 0.5812 0.0
H522 H 0.52305 0.71522 0.51461 0.0
C523 C 0.47281 0.62623 0.57291 0.0
C524 C 0.49759 0.61918 0.54403 0.0
H525 H 0.44755 0.67002 0.60368 0.0
H526 H 0.45862 0.60166 0.58939 0.0
C527 C 0.51566 0.65172 0.52329 0.0
C528 C 0.96989 0.94478 0.68004 0.0
C529 C 0.93046 0.9414 0.68256 0.0
H530 H 0.01814 0.96081 0.64573 0.0
C531 C 0.90953 0.95353 0.6502 0.0
H532 H 0.98714 0.93656 0.70432 0.0
C533 C 0.92751 0.96771 0.61631 0.0
C534 C 0.96695 0.97037 0.61379 0.0
H535 H 0.87921 0.95117 0.65074 0.0
H536 H 0.91043 0.97625 0.59196 0.0
C537 C 0.98779 0.95898 0.6463 0.0
C538 C 0.54262 0.02918 0.24393 0.0
C539 C 0.5606 0.06339 0.25537 0.0
H540 H 0.53392 0.99217 0.19925 0.0
C541 C 0.58401 0.08677 0.23002 0.0
H542 H 0.52455 0.01063 0.26308 0.0
C543 C 0.58985 0.07588 0.19409 0.0
C544 C 0.57201 0.04167 0.18258 0.0
H545 H 0.5986 0.11299 0.23833 0.0
H546 H 0.60806 0.09444 0.17514 0.0
C547 C 0.54795 0.01866 0.20761 0.0
C548 C 0.46944 0.56489 0.35473 0.0
C549 C 0.43003 0.56431 0.35239 0.0
H550 H 0.51793 0.55283 0.38873 0.0
C551 C 0.40928 0.54784 0.38381 0.0
H552 H 0.48642 0.57653 0.3309 0.0
C553 C 0.42751 0.53383 0.41713 0.0
C554 C 0.4669 0.53595 0.41977 0.0
H555 H 0.37892 0.54707 0.38312 0.0
H556 H 0.41067 0.52233 0.44111 0.0
C557 C 0.48758 0.55105 0.38792 0.0
C558 C 0.05731 0.50567 0.78041 0.0
C559 C 0.0583 0.46495 0.7751 0.0
H560 H 0.06128 0.54974 0.81915 0.0
C561 C 0.06218 0.43693 0.80666 0.0
H562 H 0.0534 0.52805 0.75696 0.0
C563 C 0.06613 0.44951 0.84247 0.0
C564 C 0.06685 0.49029 0.84729 0.0
H565 H 0.06353 0.40538 0.80364 0.0
H566 H 0.06982 0.4275 0.86626 0.0
C567 C 0.06188 0.51818 0.81602 0.0
C568 C 0.64657 0.93791 0.91838 0.0
C569 C 0.67954 0.9302 0.93928 0.0
H570 H 0.58963 0.95731 0.91791 0.0
C571 C 0.67915 0.93694 0.97745 0.0
H572 H 0.64544 0.93273 0.8891 0.0
C573 C 0.64703 0.95111 0.99405 0.0
C574 C 0.61408 0.95871 0.97315 0.0
H575 H 0.70398 0.93187 0.99449 0.0
H576 H 0.64811 0.95626 0.02334 0.0
C577 C 0.61433 0.95176 0.93506 0.0
C578 C 0.78413 0.03767 0.44331 0.0
C579 C 0.76973 0.04596 0.47797 0.0
H580 H 0.83191 0.02518 0.41169 0.0
C581 C 0.79409 0.04687 0.50859 0.0
H582 H 0.76611 0.03776 0.41897 0.0
C583 C 0.83219 0.03904 0.50463 0.0
C584 C 0.84677 0.03083 0.46975 0.0
H585 H 0.78361 0.05333 0.53559 0.0
H586 H 0.84994 0.03927 0.52903 0.0
C587 C 0.82208 0.03046 0.43918 0.0
C588 C 0.14585 0.57407 0.11957 0.0
C589 C 0.17872 0.58408 0.09871 0.0
H590 H 0.0887 0.55299 0.11923 0.0
C591 C 0.17822 0.58016 0.06001 0.0
H592 H 0.14502 0.57715 0.14931 0.0
C593 C 0.14588 0.56639 0.04269 0.0
C594 C 0.11306 0.55634 0.06356 0.0
H595 H 0.20309 0.58715 0.04309 0.0
H596 H 0.14672 0.5634 1.01294 0.0
C597 C 0.11343 0.56051 0.10222 0.0
C598 C 0.29341 0.45542 0.51947 0.0
C599 C 0.27014 0.4533 0.55115 0.0
H600 H 0.35 0.46095 0.49874 0.0
C601 C 0.28622 0.45532 0.58666 0.0
H602 H 0.2815 0.45374 0.49188 0.0
C603 C 0.32499 0.45862 0.59061 0.0
C604 C 0.34838 0.46075 0.55908 0.0
H605 H 0.26878 0.45334 0.61152 0.0
H606 H 0.33681 0.45952 0.61833 0.0
C607 C 0.33234 0.45969 0.52337 0.0
C608 C 0.96339 0.6632 0.92737 0.0
C609 C 0.93969 0.68452 0.94915 0.0
H610 H 0.99895 0.61333 0.92488 0.0
C611 C 0.93448 0.67003 0.98715 0.0
H612 H 0.96766 0.6725 0.89788 0.0
C613 C 0.95225 0.63532 1.00268 0.0
C614 C 0.97591 0.61423 0.98071 0.0
H615 H 0.9169 0.68566 1.00511 0.0
H616 H 0.94737 0.62498 0.03188 0.0
C617 C 0.9813 0.62886 0.9429 0.0
C618 C 0.44017 0.84282 0.05722 0.0
C619 C 0.44336 0.83091 0.09581 0.0
H620 H 0.45478 0.88613 1.01139 0.0
C621 C 0.46562 0.85459 0.11773 0.0
H622 H 0.42387 0.82508 0.03928 0.0
C623 C 0.48387 0.88934 0.10158 0.0
C624 C 0.48011 0.9015 0.06314 0.0
H625 H 0.46834 0.84682 0.14762 0.0
H626 H 0.50027 0.90712 0.11942 0.0
C627 C 0.45819 0.87772 0.04113 0.0
C628 C 0.0411 0.17096 0.57942 0.0
C629 C 0.0246 0.20145 0.55585 0.0
H630 H 0.05175 0.10867 0.58956 0.0
C631 C 1.00365 0.19156 0.52479 0.0
H632 H 0.05767 0.17787 0.60334 0.0
C633 C 0.9997 0.15174 0.5172 0.0
C634 C 1.01748 0.12148 0.54004 0.0
H635 H 0.9907 0.21465 0.50623 0.0
H636 H 0.98394 0.14483 0.49277 0.0
C637 C 0.03788 0.13144 0.5714 0.0
C638 C 0.53253 0.32783 0.50662 0.0
C639 C 0.55683 0.32095 0.47738 0.0
H640 H 0.50635 0.37116 0.53687 0.0
C641 C 0.57441 0.3535 0.45624 0.0
H642 H 0.51857 0.30313 0.52315 0.0
C643 C 0.56794 0.39241 0.46443 0.0
C644 C 0.54316 0.39933 0.49334 0.0
H645 H 0.59341 0.34877 0.43366 0.0
H646 H 0.58188 0.41704 0.44781 0.0
C647 C 0.52546 0.36669 0.51429 0.0
loop_
_geom_bond_atom_site_label_1
_geom_bond_atom_site_label_2
_geom_bond_distance
_geom_bond_site_symmetry_2
_ccdc_geom_bond_type
C0 C1 1.384 . S
C0 H13 0.947 . S
C0 C35 1.382 . S
C1 C0 1.384 . S
C1 C2 1.378 . S
C2 C1 1.378 . S
C2 C3 1.378 . S
C2 H14 0.952 . S
C3 C2 1.378 . S
C3 H15 0.950 . S
C3 C34 1.383 . S
H4 C23 0.947 . S
H5 C24 0.946 . S
H6 C26 0.953 . S
H7 C27 0.945 . S
H8 C29 0.952 . S
H9 C30 0.949 . S
H10 C32 0.950 . S
H11 C33 0.948 . S
H12 C35 0.951 . S
H13 C0 0.947 . S
H14 C2 0.952 . S
H15 C3 0.950 . S
N16 C19 1.382 . S
N16 C21 1.363 . S
N17 C19 1.371 . S
N17 C20 1.372 . S
N18 C20 1.361 . S
N18 C21 1.377 . S
C19 N16 1.382 . S
C19 N17 1.371 . S
C19 C22 1.480 . S
C20 N17 1.372 . S
C20 N18 1.361 . S
C20 C28 1.457 . S
C21 N16 1.363 . S
C21 N18 1.377 . S
C21 C34 1.479 . S
C22 C19 1.480 . S
C22 C23 1.383 . S
C22 C27 1.385 . S
C23 H4 0.947 . S
C23 C22 1.383 . S
C23 C24 1.388 . S
C24 H5 0.946 . S
C24 C23 1.388 . S
C24 C25 1.384 . S
C25 C24 1.384 . S
C25 C26 1.377 . S
C26 H6 0.953 . S
C26 C25 1.377 . S
C26 C27 1.369 . S
C27 H7 0.945 . S
C27 C22 1.385 . S
C27 C26 1.369 . S
C28 C20 1.457 . S
C28 C29 1.372 . S
C28 C33 1.364 . S
C29 H8 0.952 . S
C29 C28 1.372 . S
C29 C30 1.389 . S
C30 H9 0.949 . S
C30 C29 1.389 . S
C30 C31 1.387 . S
C31 C30 1.387 . S
C31 C32 1.372 . S
C32 H10 0.950 . S
C32 C31 1.372 . S
C32 C33 1.379 . S
C33 H11 0.948 . S
C33 C28 1.364 . S
C33 C32 1.379 . S
C34 C3 1.383 . S
C34 C21 1.479 . S
C34 C35 1.398 . S
C35 C0 1.382 . S
C35 H12 0.951 . S
C35 C34 1.398 . S
C36 C37 1.384 . S
C36 H49 0.947 . S
C36 C71 1.382 . S
C37 C36 1.384 . S
C37 C38 1.378 . S
C38 C37 1.378 . S
C38 C39 1.378 . S
C38 H50 0.952 . S
C39 C38 1.378 . S
C39 H51 0.950 . S
C39 C70 1.383 . S
H40 C59 0.947 . S
H41 C60 0.946 . S
H42 C62 0.953 . S
H43 C63 0.945 . S
H44 C65 0.952 . S
H45 C66 0.949 . S
H46 C68 0.950 . S
H47 C69 0.948 . S
H48 C71 0.951 . S
H49 C36 0.947 . S
H50 C38 0.952 . S
H51 C39 0.950 . S
N52 C55 1.382 . S
N52 C57 1.363 . S
N53 C55 1.371 . S
N53 C56 1.372 . S
N54 C56 1.361 . S
N54 C57 1.377 . S
C55 N52 1.382 . S
C55 N53 1.371 . S
C55 C58 1.480 . S
C56 N53 1.372 . S
C56 N54 1.361 . S
C56 C64 1.457 . S
C57 N52 1.363 . S
C57 N54 1.377 . S
C57 C70 1.479 . S
C58 C55 1.480 . S
C58 C59 1.383 . S
C58 C63 1.385 . S
C59 H40 0.947 . S
C59 C58 1.383 . S
C59 C60 1.388 . S
C60 H41 0.946 . S
C60 C59 1.388 . S
C60 C61 1.384 . S
C61 C60 1.384 . S
C61 C62 1.377 . S
C62 H42 0.953 . S
C62 C61 1.377 . S
C62 C63 1.369 . S
C63 H43 0.945 . S
C63 C58 1.385 . S
C63 C62 1.369 . S
C64 C56 1.457 . S
C64 C65 1.372 . S
C64 C69 1.364 . S
C65 H44 0.952 . S
C65 C64 1.372 . S
C65 C66 1.389 . S
C66 H45 0.949 . S
C66 C65 1.389 . S
C66 C67 1.387 . S
C67 C66 1.387 . S
C67 C68 1.372 . S
C68 H46 0.950 . S
C68 C67 1.372 . S
C68 C69 1.379 . S
C69 H47 0.948 . S
C69 C64 1.364 . S
C69 C68 1.379 . S
C70 C39 1.383 . S
C70 C57 1.479 . S
C70 C71 1.398 . S
C71 C36 1.382 . S
C71 H48 0.951 . S
C71 C70 1.398 . S
C72 C73 1.384 . S
C72 H85 0.947 . S
C72 C107 1.382 . S
C73 C72 1.384 . S
C73 C74 1.378 . S
C74 C73 1.378 . S
C74 C75 1.378 . S
C74 H86 0.952 . S
C75 C74 1.378 . S
C75 H87 0.950 . S
C75 C106 1.383 . S
H76 C95 0.947 . S
H77 C96 0.946 . S
H78 C98 0.953 . S
H79 C99 0.945 . S
H80 C101 0.952 . S
H81 C102 0.949 . S
H82 C104 0.950 . S
H83 C105 0.948 . S
H84 C107 0.951 . S
H85 C72 0.947 . S
H86 C74 0.952 . S
H87 C75 0.950 . S
N88 C91 1.382 . S
N88 C93 1.363 . S
N89 C91 1.371 . S
N89 C92 1.372 . S
N90 C92 1.361 . S
N90 C93 1.377 . S
C91 N88 1.382 . S
C91 N89 1.371 . S
C91 C94 1.480 . S
C92 N89 1.372 . S
C92 N90 1.361 . S
C92 C100 1.457 . S
C93 N88 1.363 . S
C93 N90 1.377 . S
C93 C106 1.479 . S
C94 C91 1.480 . S
C94 C95 1.383 . S
C94 C99 1.385 . S
C95 H76 0.947 . S
C95 C94 1.383 . S
C95 C96 1.388 . S
C96 H77 0.946 . S
C96 C95 1.388 . S
C96 C97 1.384 . S
C97 C96 1.384 . S
C97 C98 1.377 . S
C98 H78 0.953 . S
C98 C97 1.377 . S
C98 C99 1.369 . S
C99 H79 0.945 . S
C99 C94 1.385 . S
C99 C98 1.369 . S
C100 C92 1.457 . S
C100 C101 1.372 . S
C100 C105 1.364 . S
C101 H80 0.952 . S
C101 C100 1.372 . S
C101 C102 1.389 . S
C102 H81 0.949 . S
C102 C101 1.389 . S
C102 C103 1.387 . S
C103 C102 1.387 . S
C103 C104 1.372 . S
C104 H82 0.950 . S
C104 C103 1.372 . S
C104 C105 1.379 . S
C105 H83 0.948 . S
C105 C100 1.364 . S
C105 C104 1.379 . S
C106 C75 1.383 . S
C106 C93 1.479 . S
C106 C107 1.398 . S
C107 C72 1.382 . S
C107 H84 0.951 . S
C107 C106 1.398 . S
C108 C109 1.384 . S
C108 H121 0.947 . S
C108 C143 1.382 . S
C109 C108 1.384 . S
C109 C110 1.378 . S
C110 C109 1.378 . S
C110 C111 1.378 . S
C110 H122 0.952 . S
C111 C110 1.378 . S
C111 H123 0.950 . S
C111 C142 1.383 . S
H112 C131 0.947 . S
H113 C132 0.946 . S
H114 C134 0.953 1_455 S
H115 C135 0.945 . S
H116 C137 0.952 . S
H117 C138 0.949 1_455 S
H118 C140 0.950 . S
H119 C141 0.948 . S
H120 C143 0.951 . S
H121 C108 0.947 . S
H122 C110 0.952 . S
H123 C111 0.950 . S
N124 C127 1.382 . S
N124 C129 1.363 . S
N125 C127 1.371 . S
N125 C128 1.372 . S
N126 C128 1.361 . S
N126 C129 1.377 . S
C127 N124 1.382 . S
C127 N125 1.371 . S
C127 C130 1.480 . S
C128 N125 1.372 . S
C128 N126 1.361 . S
C128 C136 1.457 . S
C129 N124 1.363 . S
C129 N126 1.377 . S
C129 C142 1.479 . S
C130 C127 1.480 . S
C130 C131 1.383 . S
C130 C135 1.385 . S
C131 H112 0.947 . S
C131 C130 1.383 . S
C131 C132 1.388 . S
C132 H113 0.946 . S
C132 C131 1.388 . S
C132 C133 1.384 . S
C133 C132 1.384 . S
C133 C134 1.377 . S
C134 H114 0.953 1_655 S
C134 C133 1.377 . S
C134 C135 1.369 . S
C135 H115 0.945 . S
C135 C130 1.385 . S
C135 C134 1.369 . S
C136 C128 1.457 . S
C136 C137 1.372 . S
C136 C141 1.364 . S
C137 H116 0.952 . S
C137 C136 1.372 . S
C137 C138 1.389 . S
C138 H117 0.949 1_655 S
C138 C137 1.389 . S
C138 C139 1.387 . S
C139 C138 1.387 . S
C139 C140 1.372 . S
C140 H118 0.950 . S
C140 C139 1.372 . S
C140 C141 1.379 . S
C141 H119 0.948 . S
C141 C136 1.364 . S
C141 C140 1.379 . S
C142 C111 1.383 . S
C142 C129 1.479 . S
C142 C143 1.398 . S
C143 C108 1.382 . S
C143 H120 0.951 . S
C143 C142 1.398 . S
C144 C145 1.384 . S
C144 H157 0.947 . S
C144 C179 1.382 . S
C145 C144 1.384 . S
C145 C146 1.378 . S
C146 C145 1.378 . S
C146 C147 1.378 . S
C146 H158 0.952 . S
C147 C146 1.378 . S
C147 H159 0.950 . S
C147 C178 1.383 . S
H148 C167 0.947 . S
H149 C168 0.946 . S
H150 C170 0.953 . S
H151 C171 0.945 . S
H152 C173 0.952 . S
H153 C174 0.949 . S
H154 C176 0.950 . S
H155 C177 0.948 . S
H156 C179 0.951 . S
H157 C144 0.947 . S
H158 C146 0.952 . S
H159 C147 0.950 . S
N160 C163 1.382 . S
N160 C165 1.363 . S
N161 C163 1.371 . S
N161 C164 1.372 . S
N162 C164 1.361 . S
N162 C165 1.377 . S
C163 N160 1.382 . S
C163 N161 1.371 . S
C163 C166 1.480 . S
C164 N161 1.372 . S
C164 N162 1.361 . S
C164 C172 1.457 . S
C165 N160 1.363 . S
C165 N162 1.377 . S
C165 C178 1.479 . S
C166 C163 1.480 . S
C166 C167 1.383 . S
C166 C171 1.385 . S
C167 H148 0.947 . S
C167 C166 1.383 . S
C167 C168 1.388 . S
C168 H149 0.946 . S
C168 C167 1.388 . S
C168 C169 1.384 . S
C169 C168 1.384 . S
C169 C170 1.377 . S
C170 H150 0.953 . S
C170 C169 1.377 . S
C170 C171 1.369 . S
C171 H151 0.945 . S
C171 C166 1.385 . S
C171 C170 1.369 . S
C172 C164 1.457 . S
C172 C173 1.372 . S
C172 C177 1.364 . S
C173 H152 0.952 . S
C173 C172 1.372 . S
C173 C174 1.389 . S
C174 H153 0.949 . S
C174 C173 1.389 . S
C174 C175 1.387 . S
C175 C174 1.387 . S
C175 C176 1.372 . S
C176 H154 0.950 . S
C176 C175 1.372 . S
C176 C177 1.379 . S
C177 H155 0.948 . S
C177 C172 1.364 . S
C177 C176 1.379 . S
C178 C147 1.383 . S
C178 C165 1.479 . S
C178 C179 1.398 . S
C179 C144 1.382 . S
C179 H156 0.951 . S
C179 C178 1.398 . S
C180 C181 1.384 . S
C180 H193 0.947 . S
C180 C215 1.382 . S
C181 C180 1.384 . S
C181 C182 1.378 . S
C182 C181 1.378 . S
C182 C183 1.378 . S
C182 H194 0.952 . S
C183 C182 1.378 . S
C183 H195 0.950 . S
C183 C214 1.383 . S
H184 C203 0.947 . S
H185 C204 0.946 . S
H186 C206 0.953 . S
H187 C207 0.945 . S
H188 C209 0.952 . S
H189 C210 0.949 . S
H190 C212 0.950 . S
H191 C213 0.948 . S
H192 C215 0.951 . S
H193 C180 0.947 . S
H194 C182 0.952 . S
H195 C183 0.950 . S
N196 C199 1.382 . S
N196 C201 1.363 . S
N197 C199 1.371 . S
N197 C200 1.372 . S
N198 C200 1.361 . S
N198 C201 1.377 . S
C199 N196 1.382 . S
C199 N197 1.371 . S
C199 C202 1.480 . S
C200 N197 1.372 . S
C200 N198 1.361 . S
C200 C208 1.457 . S
C201 N196 1.363 . S
C201 N198 1.377 . S
C201 C214 1.479 . S
C202 C199 1.480 . S
C202 C203 1.383 . S
C202 C207 1.385 . S
C203 H184 0.947 . S
C203 C202 1.383 . S
C203 C204 1.388 . S
C204 H185 0.946 . S
C204 C203 1.388 . S
C204 C205 1.384 . S
C205 C204 1.384 . S
C205 C206 1.377 . S
C206 H186 0.953 . S
C206 C205 1.377 . S
C206 C207 1.369 . S
C207 H187 0.945 . S
C207 C202 1.385 . S
C207 C206 1.369 . S
C208 C200 1.457 . S
C208 C209 1.372 . S
C208 C213 1.364 . S
C209 H188 0.952 . S
C209 C208 1.372 . S
C209 C210 1.389 . S
C210 H189 0.949 . S
C210 C209 1.389 . S
C210 C211 1.387 . S
C211 C210 1.387 . S
C211 C212 1.372 . S
C212 H190 0.950 . S
C212 C211 1.372 . S
C212 C213 1.379 . S
C213 H191 0.948 . S
C213 C208 1.364 . S
C213 C212 1.379 . S
C214 C183 1.383 . S
C214 C201 1.479 . S
C214 C215 1.398 . S
C215 C180 1.382 . S
C215 H192 0.951 . S
C215 C214 1.398 . S
C216 C217 1.384 . S
C216 H229 0.947 . S
C216 C251 1.382 . S
C217 C216 1.384 . S
C217 C218 1.378 . S
C218 C217 1.378 . S
C218 C219 1.378 . S
C218 H230 0.952 . S
C219 C218 1.378 . S
C219 H231 0.950 . S
C219 C250 1.383 . S
H220 C239 0.947 . S
H221 C240 0.946 . S
H222 C242 0.953 . S
H223 C243 0.945 . S
H224 C245 0.952 . S
H225 C246 0.949 . S
H226 C248 0.950 . S
H227 C249 0.948 . S
H228 C251 0.951 . S
H229 C216 0.947 . S
H230 C218 0.952 . S
H231 C219 0.950 . S
N232 C235 1.382 . S
N232 C237 1.363 . S
N233 C235 1.371 . S
N233 C236 1.372 . S
N234 C236 1.361 . S
N234 C237 1.377 . S
C235 N232 1.382 . S
C235 N233 1.371 . S
C235 C238 1.480 . S
C236 N233 1.372 . S
C236 N234 1.361 . S
C236 C244 1.457 . S
C237 N232 1.363 . S
C237 N234 1.377 . S
C237 C250 1.479 . S
C238 C235 1.480 . S
C238 C239 1.383 . S
C238 C243 1.385 . S
C239 H220 0.947 . S
C239 C238 1.383 . S
C239 C240 1.388 . S
C240 H221 0.946 . S
C240 C239 1.388 . S
C240 C241 1.384 . S
C241 C240 1.384 . S
C241 C242 1.377 . S
C242 H222 0.953 . S
C242 C241 1.377 . S
C242 C243 1.369 . S
C243 H223 0.945 . S
C243 C238 1.385 . S
C243 C242 1.369 . S
C244 C236 1.457 . S
C244 C245 1.372 . S
C244 C249 1.364 . S
C245 H224 0.952 . S
C245 C244 1.372 . S
C245 C246 1.389 . S
C246 H225 0.949 . S
C246 C245 1.389 . S
C246 C247 1.387 . S
C247 C246 1.387 . S
C247 C248 1.372 . S
C248 H226 0.950 . S
C248 C247 1.372 . S
C248 C249 1.379 . S
C249 H227 0.948 . S
C249 C244 1.364 . S
C249 C248 1.379 . S
C250 C219 1.383 . S
C250 C237 1.479 . S
C250 C251 1.398 . S
C251 C216 1.382 . S
C251 H228 0.951 . S
C251 C250 1.398 . S
C252 C253 1.384 . S
C252 H265 0.947 . S
C252 C287 1.382 . S
C253 C252 1.384 . S
C253 C254 1.378 . S
C254 C253 1.378 . S
C254 C255 1.378 . S
C254 H266 0.952 1_455 S
C255 C254 1.378 . S
C255 H267 0.950 . S
C255 C286 1.383 . S
H256 C275 0.947 . S
H257 C276 0.946 . S
H258 C278 0.953 . S
H259 C279 0.945 . S
H260 C281 0.952 . S
H261 C282 0.949 . S
H262 C284 0.950 . S
H263 C285 0.948 . S
H264 C287 0.951 . S
H265 C252 0.947 . S
H266 C254 0.952 1_655 S
H267 C255 0.950 . S
N268 C271 1.382 . S
N268 C273 1.363 . S
N269 C271 1.371 . S
N269 C272 1.372 . S
N270 C272 1.361 . S
N270 C273 1.377 . S
C271 N268 1.382 . S
C271 N269 1.371 . S
C271 C274 1.480 . S
C272 N269 1.372 . S
C272 N270 1.361 . S
C272 C280 1.457 . S
C273 N268 1.363 . S
C273 N270 1.377 . S
C273 C286 1.479 . S
C274 C271 1.480 . S
C274 C275 1.383 . S
C274 C279 1.385 . S
C275 H256 0.947 . S
C275 C274 1.383 . S
C275 C276 1.388 . S
C276 H257 0.946 . S
C276 C275 1.388 . S
C276 C277 1.384 . S
C277 C276 1.384 . S
C277 C278 1.377 . S
C278 H258 0.953 . S
C278 C277 1.377 . S
C278 C279 1.369 . S
C279 H259 0.945 . S
C279 C274 1.385 . S
C279 C278 1.369 . S
C280 C272 1.457 . S
C280 C281 1.372 . S
C280 C285 1.364 . S
C281 H260 0.952 . S
C281 C280 1.372 . S
C281 C282 1.389 . S
C282 H261 0.949 . S
C282 C281 1.389 . S
C282 C283 1.387 . S
C283 C282 1.387 . S
C283 C284 1.372 . S
C284 H262 0.950 . S
C284 C283 1.372 . S
C284 C285 1.379 . S
C285 H263 0.948 . S
C285 C280 1.364 . S
C285 C284 1.379 . S
C286 C255 1.383 . S
C286 C273 1.479 . S
C286 C287 1.398 . S
C287 C252 1.382 . S
C287 H264 0.951 . S
C287 C286 1.398 . S
Co288 N293 2.057 . S
Co288 O305 2.021 . S
Co288 O308 2.062 . S
Co288 O312 2.117 1_545 S
Co288 O313 2.020 1_545 S
C289 O309 1.259 1_655 S
C289 O312 1.258 . S
Co290 N299 2.057 . S
Co290 O306 2.117 1_565 S
Co290 O307 2.020 1_565 S
Co290 O309 2.021 . S
Co290 O314 2.062 . S
C291 N293 1.316 . S
C291 N294 1.347 . S
C291 H296 0.931 . S
C292 N293 1.375 1_565 S
C292 C295 1.350 1_565 S
C292 H297 0.930 . S
N293 Co288 2.057 . S
N293 C291 1.316 . S
N293 C292 1.375 1_545 S
N294 C291 1.347 . S
N294 C295 1.373 . S
C295 C292 1.350 1_545 S
C295 N294 1.373 . S
C295 H316 0.931 1_545 S
H296 C291 0.931 . S
H297 C292 0.930 . S
C298 O305 1.259 1_455 S
C298 O306 1.258 . S
N299 Co290 2.057 . S
N299 C300 1.316 . S
N299 C301 1.375 1_565 S
C300 N299 1.316 . S
C300 N302 1.347 . S
C300 H311 0.931 . S
C301 N299 1.375 1_545 S
C301 C303 1.350 1_545 S
C301 H310 0.930 . S
N302 C300 1.347 . S
N302 C303 1.373 . S
C303 C301 1.350 1_565 S
C303 N302 1.373 . S
C303 H317 0.931 1_565 S
C304 O307 1.256 . S
C304 O308 1.255 1_455 S
O305 Co288 2.021 . S
O305 C298 1.259 1_655 S
O306 Co290 2.117 1_545 S
O306 C298 1.258 . S
O307 Co290 2.020 1_545 S
O307 C304 1.256 . S
O308 Co288 2.062 . S
O308 C304 1.255 1_655 S
O309 C289 1.259 1_455 S
O309 Co290 2.021 . S
H310 C301 0.930 . S
H311 C300 0.931 . S
O312 Co288 2.117 1_565 S
O312 C289 1.258 . S
O313 Co288 2.020 1_565 S
O313 C315 1.256 . S
O314 Co290 2.062 . S
O314 C315 1.255 1_455 S
C315 O313 1.256 . S
C315 O314 1.255 1_655 S
H316 C295 0.931 1_565 S
H317 C303 0.931 1_545 S
Co318 N323 2.057 . S
Co318 O335 2.021 1_565 S
Co318 O338 2.062 . S
Co318 O342 2.111 1_556 S
Co318 O343 2.020 1_565 S
C319 O339 1.259 . S
C319 O342 1.268 . S
Co320 N329 2.057 . S
Co320 O336 2.117 . S
Co320 O337 2.020 1_545 S
Co320 O339 2.021 1_545 S
Co320 O344 2.062 . S
C321 N323 1.316 . S
C321 N324 1.347 . S
C321 H326 0.931 1_565 S
C322 N323 1.375 . S
C322 C325 1.350 . S
C322 H327 0.930 . S
N323 Co318 2.057 . S
N323 C321 1.316 . S
N323 C322 1.375 . S
N324 C321 1.347 . S
N324 C325 1.373 . S
C325 C322 1.350 . S
C325 N324 1.373 . S
C325 H346 0.931 . S
H326 C321 0.931 1_545 S
H327 C322 0.930 . S
C328 O335 1.259 . S
C328 O336 1.258 1_556 S
N329 Co320 2.057 . S
N329 C330 1.316 . S
N329 C331 1.375 . S
C330 N329 1.316 . S
C330 N332 1.347 . S
C330 H341 0.931 1_545 S
C331 N329 1.375 . S
C331 C333 1.350 . S
C331 H340 0.930 . S
N332 C330 1.347 . S
N332 C333 1.373 . S
C333 C331 1.350 . S
C333 N332 1.373 . S
C333 H347 0.931 . S
C334 O337 1.256 1_556 S
C334 O338 1.255 . S
O335 Co318 2.021 1_545 S
O335 C328 1.259 . S
O336 Co320 2.117 . S
O336 C328 1.258 1_554 S
O337 Co320 2.020 1_565 S
O337 C334 1.256 1_554 S
O338 Co318 2.062 . S
O338 C334 1.255 . S
O339 C319 1.259 . S
O339 Co320 2.021 1_565 S
H340 C331 0.930 . S
H341 C330 0.931 1_565 S
O342 Co318 2.111 1_554 S
O342 C319 1.268 . S
O343 Co318 2.020 1_545 S
O343 C345 1.256 1_556 S
O344 Co320 2.062 . S
O344 C345 1.255 . S
C345 O343 1.256 1_554 S
C345 O344 1.255 . S
H346 C325 0.931 . S
H347 C333 0.931 . S
Co348 N353 2.057 . S
Co348 O365 2.021 . S
Co348 O368 2.062 . S
Co348 O372 2.117 . S
Co348 O373 2.020 . S
C349 O369 1.259 . S
C349 O372 1.258 . S
Co350 N359 2.057 . S
Co350 O366 2.117 . S
Co350 O367 2.020 . S
Co350 O369 2.021 . S
Co350 O374 2.062 . S
C351 N353 1.316 . S
C351 N354 1.347 . S
C351 H356 0.931 . S
C352 N353 1.375 . S
C352 C355 1.350 . S
C352 H357 0.930 . S
N353 Co348 2.057 . S
N353 C351 1.316 . S
N353 C352 1.375 . S
N354 C351 1.347 . S
N354 C355 1.373 . S
C355 C352 1.350 . S
C355 N354 1.373 . S
C355 H376 0.931 . S
H356 C351 0.931 . S
H357 C352 0.930 . S
C358 O365 1.259 . S
C358 O366 1.258 . S
N359 Co350 2.057 . S
N359 C360 1.316 . S
N359 C361 1.375 . S
C360 N359 1.316 . S
C360 N362 1.347 . S
C360 H371 0.931 . S
C361 N359 1.375 . S
C361 C363 1.350 . S
C361 H370 0.930 . S
N362 C360 1.347 . S
N362 C363 1.373 . S
C363 C361 1.350 . S
C363 N362 1.373 . S
C363 H377 0.931 . S
C364 O367 1.256 . S
C364 O368 1.255 . S
O365 Co348 2.021 . S
O365 C358 1.259 . S
O366 Co350 2.117 . S
O366 C358 1.258 . S
O367 Co350 2.020 . S
O367 C364 1.256 . S
O368 Co348 2.062 . S
O368 C364 1.255 . S
O369 C349 1.259 . S
O369 Co350 2.021 . S
H370 C361 0.930 . S
H371 C360 0.931 . S
O372 Co348 2.117 . S
O372 C349 1.258 . S
O373 Co348 2.020 . S
O373 C375 1.256 . S
O374 Co350 2.062 . S
O374 C375 1.255 . S
C375 O373 1.256 . S
C375 O374 1.255 . S
H376 C355 0.931 . S
H377 C363 0.931 . S
Co378 N383 2.057 . S
Co378 O395 2.021 . S
Co378 O398 2.062 . S
Co378 O402 2.117 1_455 S
Co378 O403 2.020 1_455 S
C379 O399 1.259 1_556 S
C379 O402 1.258 . S
Co380 N389 2.057 . S
Co380 O396 2.117 1_655 S
Co380 O397 2.020 1_655 S
Co380 O399 2.021 . S
Co380 O404 2.062 . S
C381 N383 1.316 . S
C381 N384 1.347 . S
C381 H386 0.931 . S
C382 N383 1.375 1_655 S
C382 C385 1.350 1_655 S
C382 H387 0.930 . S
N383 Co378 2.057 . S
N383 C381 1.316 . S
N383 C382 1.375 1_455 S
N384 C381 1.347 . S
N384 C385 1.373 . S
C385 C382 1.350 1_455 S
C385 N384 1.373 . S
C385 H406 0.931 1_455 S
H386 C381 0.931 . S
H387 C382 0.930 . S
C388 O395 1.259 1_554 S
C388 O396 1.258 . S
N389 Co380 2.057 . S
N389 C390 1.316 . S
N389 C391 1.375 1_655 S
C390 N389 1.316 . S
C390 N392 1.347 . S
C390 H401 0.931 . S
C391 N389 1.375 1_455 S
C391 C393 1.350 1_455 S
C391 H400 0.930 . S
N392 C390 1.347 . S
N392 C393 1.373 . S
C393 C391 1.350 1_655 S
C393 N392 1.373 . S
C393 H407 0.931 1_655 S
C394 O397 1.256 . S
C394 O398 1.255 1_554 S
O395 Co378 2.021 . S
O395 C388 1.259 1_556 S
O396 Co380 2.117 1_455 S
O396 C388 1.258 . S
O397 Co380 2.020 1_455 S
O397 C394 1.256 . S
O398 Co378 2.062 . S
O398 C394 1.255 1_556 S
O399 C379 1.259 1_554 S
O399 Co380 2.021 . S
H400 C391 0.930 . S
H401 C390 0.931 . S
O402 Co378 2.117 1_655 S
O402 C379 1.258 . S
O403 Co378 2.020 1_655 S
O403 C405 1.256 . S
O404 Co380 2.062 . S
O404 C405 1.255 1_554 S
C405 O403 1.256 . S
C405 O404 1.255 1_556 S
H406 C385 0.931 1_655 S
H407 C393 0.931 1_455 S
C408 C409 1.387 . S
C408 H412 0.950 . S
C408 C417 1.390 . S
C409 C408 1.387 . S
C409 C411 1.387 . S
H410 C417 0.950 . S
C411 C409 1.387 . S
C411 C413 1.390 . S
C411 H415 0.950 1_545 S
H412 C408 0.950 . S
C413 C411 1.390 . S
C413 C414 1.387 . S
C413 H416 0.950 1_545 S
C414 C413 1.387 . S
C414 C417 1.387 . S
H415 C411 0.950 1_565 S
H416 C413 0.950 1_565 S
C417 C408 1.390 . S
C417 H410 0.950 . S
C417 C414 1.387 . S
C418 C419 1.387 . S
C418 H422 0.950 . S
C418 C427 1.390 . S
C419 C418 1.387 . S
C419 C421 1.387 . S
H420 C427 0.950 . S
C421 C419 1.387 . S
C421 C423 1.390 . S
C421 H425 0.950 . S
H422 C418 0.950 . S
C423 C421 1.390 . S
C423 C424 1.387 . S
C423 H426 0.950 . S
C424 C423 1.387 . S
C424 C427 1.387 . S
H425 C421 0.950 . S
H426 C423 0.950 . S
C427 C418 1.390 . S
C427 H420 0.950 . S
C427 C424 1.387 . S
C428 C429 1.387 . S
C428 H432 0.950 . S
C428 C437 1.390 . S
C429 C428 1.387 . S
C429 C431 1.387 . S
H430 C437 0.950 . S
C431 C429 1.387 . S
C431 C433 1.390 . S
C431 H435 0.950 . S
H432 C428 0.950 . S
C433 C431 1.390 . S
C433 C434 1.387 . S
C433 H436 0.950 . S
C434 C433 1.387 . S
C434 C437 1.387 . S
H435 C431 0.950 . S
H436 C433 0.950 . S
C437 C428 1.390 . S
C437 H430 0.950 . S
C437 C434 1.387 . S
C438 C439 1.387 . S
C438 H442 0.950 . S
C438 C447 1.390 . S
C439 C438 1.387 . S
C439 C441 1.387 . S
H440 C447 0.950 . S
C441 C439 1.387 . S
C441 C443 1.390 . S
C441 H445 0.950 . S
H442 C438 0.950 . S
C443 C441 1.390 . S
C443 C444 1.387 . S
C443 H446 0.950 . S
C444 C443 1.387 . S
C444 C447 1.387 . S
H445 C441 0.950 . S
H446 C443 0.950 . S
C447 C438 1.390 . S
C447 H440 0.950 . S
C447 C444 1.387 . S
C448 C449 1.387 . S
C448 H452 0.950 . S
C448 C457 1.390 . S
C449 C448 1.387 . S
C449 C451 1.387 . S
H450 C457 0.950 . S
C451 C449 1.387 . S
C451 C453 1.390 . S
C451 H455 0.950 1_545 S
H452 C448 0.950 . S
C453 C451 1.390 . S
C453 C454 1.387 . S
C453 H456 0.950 1_545 S
C454 C453 1.387 . S
C454 C457 1.387 . S
H455 C451 0.950 1_565 S
H456 C453 0.950 1_565 S
C457 C448 1.390 . S
C457 H450 0.950 . S
C457 C454 1.387 . S
C458 C459 1.387 . S
C458 H462 0.950 . S
C458 C467 1.390 . S
C459 C458 1.387 . S
C459 C461 1.387 . S
H460 C467 0.950 . S
C461 C459 1.387 . S
C461 C463 1.390 . S
C461 H465 0.950 . S
H462 C458 0.950 . S
C463 C461 1.390 . S
C463 C464 1.387 . S
C463 H466 0.950 . S
C464 C463 1.387 . S
C464 C467 1.387 . S
H465 C461 0.950 . S
H466 C463 0.950 . S
C467 C458 1.390 . S
C467 H460 0.950 . S
C467 C464 1.387 . S
C468 C469 1.387 . S
C468 H472 0.950 . S
C468 C477 1.390 . S
C469 C468 1.387 . S
C469 C471 1.387 . S
H470 C477 0.950 . S
C471 C469 1.387 . S
C471 C473 1.390 . S
C471 H475 0.950 . S
H472 C468 0.950 . S
C473 C471 1.390 . S
C473 C474 1.387 . S
C473 H476 0.950 . S
C474 C473 1.387 . S
C474 C477 1.387 . S
H475 C471 0.950 . S
H476 C473 0.950 . S
C477 C468 1.390 . S
C477 H470 0.950 . S
C477 C474 1.387 . S
C478 C479 1.387 . S
C478 H482 0.950 . S
C478 C487 1.390 . S
C479 C478 1.387 . S
C479 C481 1.387 . S
H480 C487 0.950 . S
C481 C479 1.387 . S
C481 C483 1.390 . S
C481 H485 0.950 . S
H482 C478 0.950 . S
C483 C481 1.390 . S
C483 C484 1.387 . S
C483 H486 0.950 . S
C484 C483 1.387 . S
C484 C487 1.387 . S
H485 C481 0.950 . S
H486 C483 0.950 . S
C487 C478 1.390 . S
C487 H480 0.950 . S
C487 C484 1.387 . S
C488 C489 1.387 . S
C488 H492 0.950 1_554 S
C488 C497 1.390 . S
C489 C488 1.387 . S
C489 C491 1.387 . S
H490 C497 0.950 1_556 S
C491 C489 1.387 . S
C491 C493 1.390 . S
C491 H495 0.950 . S
H492 C488 0.950 1_556 S
C493 C491 1.390 . S
C493 C494 1.387 . S
C493 H496 0.950 . S
C494 C493 1.387 . S
C494 C497 1.387 . S
H495 C491 0.950 . S
H496 C493 0.950 . S
C497 C488 1.390 . S
C497 H490 0.950 1_554 S
C497 C494 1.387 . S
C498 C499 1.387 . S
C498 H502 0.950 . S
C498 C507 1.390 . S
C499 C498 1.387 . S
C499 C501 1.387 . S
H500 C507 0.950 . S
C501 C499 1.387 . S
C501 C503 1.390 . S
C501 H505 0.950 1_556 S
H502 C498 0.950 . S
C503 C501 1.390 . S
C503 C504 1.387 . S
C503 H506 0.950 1_556 S
C504 C503 1.387 . S
C504 C507 1.387 . S
H505 C501 0.950 1_554 S
H506 C503 0.950 1_554 S
C507 C498 1.390 . S
C507 H500 0.950 . S
C507 C504 1.387 . S
C508 C509 1.387 . S
C508 H512 0.950 . S
C508 C517 1.390 . S
C509 C508 1.387 . S
C509 C511 1.387 . S
H510 C517 0.950 . S
C511 C509 1.387 . S
C511 C513 1.390 . S
C511 H515 0.950 . S
H512 C508 0.950 . S
C513 C511 1.390 . S
C513 C514 1.387 . S
C513 H516 0.950 . S
C514 C513 1.387 . S
C514 C517 1.387 . S
H515 C511 0.950 . S
H516 C513 0.950 . S
C517 C508 1.390 . S
C517 H510 0.950 . S
C517 C514 1.387 . S
C518 C519 1.387 . S
C518 H522 0.950 . S
C518 C527 1.390 . S
C519 C518 1.387 . S
C519 C521 1.387 . S
H520 C527 0.950 . S
C521 C519 1.387 . S
C521 C523 1.390 . S
C521 H525 0.950 . S
H522 C518 0.950 . S
C523 C521 1.390 . S
C523 C524 1.387 . S
C523 H526 0.950 . S
C524 C523 1.387 . S
C524 C527 1.387 . S
H525 C521 0.950 . S
H526 C523 0.950 . S
C527 C518 1.390 . S
C527 H520 0.950 . S
C527 C524 1.387 . S
C528 C529 1.387 . S
C528 H532 0.950 . S
C528 C537 1.390 . S
C529 C528 1.387 . S
C529 C531 1.387 . S
H530 C537 0.950 . S
C531 C529 1.387 . S
C531 C533 1.390 1_565 S
C531 H535 0.950 1_565 S
H532 C528 0.950 . S
C533 C531 1.390 1_545 S
C533 C534 1.372 1_545 S
C533 H536 0.965 . S
C534 C533 1.372 1_565 S
C534 C537 1.387 . S
H535 C531 0.950 1_545 S
H536 C533 0.965 . S
C537 C528 1.390 . S
C537 H530 0.950 . S
C537 C534 1.387 . S
C538 C539 1.387 . S
C538 H542 0.950 . S
C538 C547 1.390 . S
C539 C538 1.387 . S
C539 C541 1.387 . S
H540 C547 0.950 1_565 S
C541 C539 1.387 . S
C541 C543 1.390 . S
C541 H545 0.950 . S
H542 C538 0.950 . S
C543 C541 1.390 . S
C543 C544 1.387 . S
C543 H546 0.950 . S
C544 C543 1.387 . S
C544 C547 1.387 . S
H545 C541 0.950 . S
H546 C543 0.950 . S
C547 C538 1.390 . S
C547 H540 0.950 1_545 S
C547 C544 1.387 . S
C548 C549 1.387 . S
C548 H552 0.950 . S
C548 C557 1.390 . S
C549 C548 1.387 . S
C549 C551 1.387 . S
H550 C557 0.950 . S
C551 C549 1.387 . S
C551 C553 1.390 . S
C551 H555 0.950 . S
H552 C548 0.950 . S
C553 C551 1.390 . S
C553 C554 1.387 . S
C553 H556 0.950 . S
C554 C553 1.387 . S
C554 C557 1.387 . S
H555 C551 0.950 . S
H556 C553 0.950 . S
C557 C548 1.390 . S
C557 H550 0.950 . S
C557 C554 1.387 . S
C558 C559 1.387 . S
C558 H562 0.950 . S
C558 C567 1.390 . S
C559 C558 1.387 . S
C559 C561 1.387 . S
H560 C567 0.950 . S
C561 C559 1.387 . S
C561 C563 1.390 . S
C561 H565 0.950 . S
H562 C558 0.950 . S
C563 C561 1.390 . S
C563 C564 1.387 . S
C563 H566 0.950 . S
C564 C563 1.387 . S
C564 C567 1.387 . S
H565 C561 0.950 . S
H566 C563 0.950 . S
C567 C558 1.390 . S
C567 H560 0.950 . S
C567 C564 1.387 . S
C568 C569 1.387 . S
C568 H572 0.950 1_565 S
C568 C577 1.390 . S
C569 C568 1.387 . S
C569 C571 1.387 . S
H570 C577 0.950 1_545 S
C571 C569 1.387 . S
C571 C573 1.390 . S
C571 H575 0.950 . S
H572 C568 0.950 1_545 S
C573 C571 1.390 . S
C573 C574 1.387 . S
C573 H576 0.950 . S
C574 C573 1.387 . S
C574 C577 1.387 . S
H575 C571 0.950 . S
H576 C573 0.950 . S
C577 C568 1.390 . S
C577 H570 0.950 1_565 S
C577 C574 1.387 . S
C578 C579 1.387 . S
C578 H582 0.950 . S
C578 C587 1.390 . S
C579 C578 1.387 . S
C579 C581 1.387 . S
H580 C587 0.950 . S
C581 C579 1.387 . S
C581 C583 1.390 . S
C581 H585 0.950 . S
H582 C578 0.950 . S
C583 C581 1.390 . S
C583 C584 1.387 . S
C583 H586 0.950 . S
C584 C583 1.387 . S
C584 C587 1.387 . S
H585 C581 0.950 . S
H586 C583 0.950 . S
C587 C578 1.390 . S
C587 H580 0.950 . S
C587 C584 1.387 . S
C588 C589 1.387 . S
C588 H592 0.950 . S
C588 C597 1.390 . S
C589 C588 1.387 . S
C589 C591 1.387 . S
H590 C597 0.950 . S
C591 C589 1.387 . S
C591 C593 1.390 . S
C591 H595 0.950 . S
H592 C588 0.950 . S
C593 C591 1.390 . S
C593 C594 1.387 . S
C593 H596 0.950 . S
C594 C593 1.387 . S
C594 C597 1.387 . S
H595 C591 0.950 . S
H596 C593 0.950 . S
C597 C588 1.390 . S
C597 H590 0.950 . S
C597 C594 1.387 . S
C598 C599 1.387 . S
C598 H602 0.950 . S
C598 C607 1.390 . S
C599 C598 1.387 . S
C599 C601 1.387 . S
H600 C607 0.950 . S
C601 C599 1.387 . S
C601 C603 1.390 . S
C601 H605 0.950 . S
H602 C598 0.950 . S
C603 C601 1.390 . S
C603 C604 1.387 . S
C603 H606 0.950 . S
C604 C603 1.387 . S
C604 C607 1.387 . S
H605 C601 0.950 . S
H606 C603 0.950 . S
C607 C598 1.390 . S
C607 H600 0.950 . S
C607 C604 1.387 . S
C608 C609 1.387 . S
C608 H612 0.950 . S
C608 C617 1.390 . S
C609 C608 1.387 . S
C609 C611 1.387 . S
H610 C617 0.950 . S
C611 C609 1.387 . S
C611 C613 1.390 1_556 S
C611 H615 0.950 1_556 S
H612 C608 0.950 . S
C613 C611 1.390 1_554 S
C613 C614 1.387 1_554 S
C613 H616 0.950 . S
C614 C613 1.387 1_556 S
C614 C617 1.387 . S
H615 C611 0.950 1_554 S
H616 C613 0.950 . S
C617 C608 1.390 . S
C617 H610 0.950 . S
C617 C614 1.387 . S
C618 C619 1.387 . S
C618 H622 0.950 1_554 S
C618 C627 1.390 . S
C619 C618 1.387 . S
C619 C621 1.387 . S
H620 C627 0.950 1_556 S
C621 C619 1.387 . S
C621 C623 1.390 . S
C621 H625 0.950 . S
H622 C618 0.950 1_556 S
C623 C621 1.390 . S
C623 C624 1.387 . S
C623 H626 0.950 . S
C624 C623 1.387 . S
C624 C627 1.387 . S
H625 C621 0.950 . S
H626 C623 0.950 . S
C627 C618 1.390 . S
C627 H620 0.950 1_554 S
C627 C624 1.387 . S
C628 C629 1.387 . S
C628 H632 0.950 . S
C628 C637 1.390 . S
C629 C628 1.387 . S
C629 C631 1.387 . S
H630 C637 0.950 . S
C631 C629 1.387 . S
C631 C633 1.390 . S
C631 H635 0.950 . S
H632 C628 0.950 . S
C633 C631 1.390 . S
C633 C634 1.387 . S
C633 H636 0.950 . S
C634 C633 1.387 . S
C634 C637 1.387 . S
H635 C631 0.950 . S
H636 C633 0.950 . S
C637 C628 1.390 . S
C637 H630 0.950 . S
C637 C634 1.387 . S
C638 C639 1.387 . S
C638 H642 0.950 . S
C638 C647 1.390 . S
C639 C638 1.387 . S
C639 C641 1.387 . S
H640 C647 0.950 . S
C641 C639 1.387 . S
C641 C643 1.390 . S
C641 H645 0.950 . S
H642 C638 0.950 . S
C643 C641 1.390 . S
C643 C644 1.387 . S
C643 H646 0.950 . S
C644 C643 1.387 . S
C644 C647 1.387 . S
H645 C641 0.950 . S
H646 C643 0.950 . S
C647 C638 1.390 . S
C647 H640 0.950 . S
C647 C644 1.387 . S
C409 C1 2.131 . S
C414 C304 2.176 . S
C419 C67 1.163 . S
C424 N324 1.196 . S
C434 C358 2.023 . S
C429 C97 1.978 . S
C439 C133 1.462 . S
C444 N392 1.326 . S
C454 C345 2.327 . S
C449 C25 2.274 . S
C464 N302 1.216 . S
C459 C37 1.255 . S
C474 C379 2.059 . S
C469 C103 2.011 . S
C484 N354 1.156 . S
C479 C109 1.127 . S
C489 C31 1.801 . S
C494 C394 1.864 . S
C504 C328 1.762 . S
C499 C73 1.709 . S
C509 C139 1.546 . S
C514 C289 1.553 . S
C519 C61 1.437 . S
C524 C375 1.497 . S
C534 C315 2.186 . S
C529 C175 2.182 . S
C539 C181 1.167 . S
C544 N332 1.190 . S
C549 C247 2.046 . S
C554 C349 2.042 . S
C559 C277 1.438 . S
C564 N384 1.315 . S
C569 C145 2.318 . S
C574 C334 2.323 . S
C584 N294 1.223 . S
C579 C211 1.243 . S
C594 C388 2.047 . S
C589 C217 2.034 . S
C604 N362 1.167 . S
C599 C283 1.142 . S
C609 C169 1.840 . S
C614 C405 1.857 . S
C624 C319 1.761 . S
C619 C241 1.751 . S
C634 C298 1.541 . S
C629 C253 1.532 . S
C639 C205 1.445 . S
C644 C364 1.506 . S
