# Generated by pormake.
# Topology zzz, (3,6)-cn, num edge types: 1
# Building blocks:
#     Node 0, Type 0, BuildingBlock: PAMTOO_clean_linker_0, # of connection points: 3
#     Node 1, Type 0, BuildingBlock: PAMTOO_clean_linker_0, # of connection points: 3
#     Node 2, Type 0, BuildingBlock: PAMTOO_clean_linker_0, # of connection points: 3
#     Node 3, Type 0, BuildingBlock: PAMTOO_clean_linker_0, # of connection points: 3
#     Node 4, Type 0, BuildingBlock: PAMTOO_clean_linker_0, # of connection points: 3
#     Node 5, Type 0, BuildingBlock: PAMTOO_clean_linker_0, # of connection points: 3
#     Node 6, Type 0, BuildingBlock: PAMTOO_clean_linker_0, # of connection points: 3
#     Node 7, Type 0, BuildingBlock: PAMTOO_clean_linker_0, # of connection points: 3
#     Node 8, Type 1, BuildingBlock: BETDEL_clean_sbu_0, # of connection points: 6
#     Node 9, Type 1, BuildingBlock: BETDEL_clean_sbu_0, # of connection points: 6
#     Node 10, Type 1, BuildingBlock: BETDEL_clean_sbu_0, # of connection points: 6
#     Node 11, Type 1, BuildingBlock: BETDEL_clean_sbu_0, # of connection points: 6
#     Edge 12, Type (0, 1), BuildingBlock: TEMPAE_clean_linker_10, # of connection points: 2
#     Edge 13, Type (0, 1), BuildingBlock: TEMPAE_clean_linker_10, # of connection points: 2
#     Edge 14, Type (0, 1), BuildingBlock: TEMPAE_clean_linker_10, # of connection points: 2
#     Edge 15, Type (0, 1), BuildingBlock: TEMPAE_clean_linker_10, # of connection points: 2
#     Edge 16, Type (0, 1), BuildingBlock: TEMPAE_clean_linker_10, # of connection points: 2
#     Edge 17, Type (0, 1), BuildingBlock: TEMPAE_clean_linker_10, # of connection points: 2
#     Edge 18, Type (0, 1), BuildingBlock: TEMPAE_clean_linker_10, # of connection points: 2
#     Edge 19, Type (0, 1), BuildingBlock: TEMPAE_clean_linker_10, # of connection points: 2
#     Edge 20, Type (0, 1), BuildingBlock: TEMPAE_clean_linker_10, # of connection points: 2
#     Edge 21, Type (0, 1), BuildingBlock: TEMPAE_clean_linker_10, # of connection points: 2
#     Edge 22, Type (0, 1), BuildingBlock: TEMPAE_clean_linker_10, # of connection points: 2
#     Edge 23, Type (0, 1), BuildingBlock: TEMPAE_clean_linker_10, # of connection points: 2
#     Edge 24, Type (0, 1), BuildingBlock: TEMPAE_clean_linker_10, # of connection points: 2
#     Edge 25, Type (0, 1), BuildingBlock: TEMPAE_clean_linker_10, # of connection points: 2
#     Edge 26, Type (0, 1), BuildingBlock: TEMPAE_clean_linker_10, # of connection points: 2
#     Edge 27, Type (0, 1), BuildingBlock: TEMPAE_clean_linker_10, # of connection points: 2
#     Edge 28, Type (0, 1), BuildingBlock: TEMPAE_clean_linker_10, # of connection points: 2
#     Edge 29, Type (0, 1), BuildingBlock: TEMPAE_clean_linker_10, # of connection points: 2
#     Edge 30, Type (0, 1), BuildingBlock: TEMPAE_clean_linker_10, # of connection points: 2
#     Edge 31, Type (0, 1), BuildingBlock: TEMPAE_clean_linker_10, # of connection points: 2
#     Edge 32, Type (0, 1), BuildingBlock: TEMPAE_clean_linker_10, # of connection points: 2
#     Edge 33, Type (0, 1), BuildingBlock: TEMPAE_clean_linker_10, # of connection points: 2
#     Edge 34, Type (0, 1), BuildingBlock: TEMPAE_clean_linker_10, # of connection points: 2
#     Edge 35, Type (0, 1), BuildingBlock: TEMPAE_clean_linker_10, # of connection points: 2
# Relax obj value: 0.155
# Max RMSD: 0.176
# Mean RMSD: 0.114
data_MOF--net-zzz--node1-BETDEL_clean_sbu_0--node2-PAMTOO_clean_linker_0--edge1-TEMPAE_clean_linker_10
_symmetry_space_group_name_H-M    P1
_symmetry_Int_Tables_number       1
_symmetry_cell_setting            triclinic
loop_
_symmetry_equiv_pos_as_xyz
'x, y, z'
_cell_length_a     49.903794
_cell_length_b     50.967446
_cell_length_c     14.944075
_cell_angle_alpha  91.889613
_cell_angle_beta   88.287484
_cell_angle_gamma 94.951002
loop_
_atom_site_label
_atom_site_type_symbol
_atom_site_fract_x
_atom_site_fract_y
_atom_site_fract_z
_atom_type_partial_charge
H0 H 0.82052 0.54045 0.13118 0.0
H1 H 0.74811 0.54062 0.9829 0.0
H2 H 0.74453 0.51466 0.25563 0.0
H3 H 0.69087 0.49137 0.1395 0.0
C4 C 0.70193 0.50114 0.08242 0.0
O5 O 0.71568 0.52423 0.11413 0.0
H6 H 0.71634 0.48724 0.0545 0.0
C7 C 0.79872 0.53749 0.12864 0.0
C8 C 0.7843 0.52741 0.20283 0.0
C9 C 0.78602 0.54228 0.04954 0.0
C10 C 0.75807 0.53729 0.04447 0.0
C11 C 0.7429 0.52774 0.11907 0.0
C12 C 0.75608 0.52246 0.19851 0.0
H13 H 0.03594 0.8253 0.09027 0.0
H14 H 0.02747 0.75911 0.90476 0.0
H15 H 0.98213 0.75794 0.15525 0.0
H16 H 0.99174 0.69884 0.08284 0.0
C17 C 1.0036 0.70771 0.02561 0.0
O18 O 0.9929 0.73086 0.00463 0.0
H19 H 0.02467 0.71167 0.04848 0.0
C20 C 0.02792 0.80525 0.07456 0.0
C21 C 1.00912 0.79296 0.134 0.0
C22 C 0.03472 0.79345 0.99208 0.0
C23 C 0.02287 0.76826 0.96924 0.0
C24 C 1.00439 0.75509 0.02876 0.0
C25 C 0.99706 0.76768 0.11073 0.0
H26 H 0.69423 0.02539 0.0867 0.0
H27 H 0.76991 0.00952 0.96254 0.0
H28 H 0.74981 0.98309 0.22928 0.0
H29 H 0.81792 0.99147 0.18441 0.0
C30 C 0.81119 0.99928 0.12107 0.0
O31 O 0.78724 0.98528 0.09751 0.0
H32 H 0.80825 0.02046 0.13545 0.0
C33 C 0.71379 0.01783 0.09174 0.0
C34 C 0.7197 1.0046 0.16854 0.0
C35 C 0.73165 0.0197 0.0179 0.0
C36 C 0.75629 0.00867 0.02045 0.0
C37 C 0.76328 0.99608 0.09736 0.0
C38 C 0.74477 0.99361 0.17115 0.0
H39 H 0.53859 0.69709 0.11421 0.0
H40 H 0.53932 0.76802 0.96685 0.0
H41 H 0.51866 0.76869 0.24975 0.0
H42 H 0.49151 0.81295 0.14096 0.0
C43 C 0.50335 0.80813 0.0793 0.0
O44 O 0.52686 0.79812 0.10452 0.0
H45 H 0.49073 0.79313 0.03968 0.0
C46 C 0.53683 0.71819 0.11308 0.0
C47 C 0.52866 0.73112 0.19129 0.0
C48 C 0.54048 0.7311 0.03217 0.0
C49 C 0.53695 0.75801 0.02974 0.0
C50 C 0.52961 0.77187 0.10831 0.0
C51 C 0.5251 0.7583 0.1896 0.0
H52 H 0.19868 0.47111 0.00464 0.0
H53 H 0.26688 0.47865 0.17535 0.0
H54 H 0.27238 0.51269 0.9142 0.0
H55 H 0.33197 0.49875 0.98294 0.0
C56 C 0.321 0.49046 0.04276 0.0
O57 O 0.29898 0.50474 0.06193 0.0
H58 H 0.31427 0.46952 0.02557 0.0
C59 C 0.21984 0.47698 0.01473 0.0
C60 C 0.23413 0.49152 0.94886 0.0
C61 C 0.23118 0.47231 0.09655 0.0
C62 C 0.25801 0.48157 0.1115 0.0
C63 C 0.27324 0.49543 0.04494 0.0
C64 C 0.26109 0.50095 0.96389 0.0
H65 H 0.98891 0.19246 0.05026 0.0
H66 H 0.98909 0.2612 0.22386 0.0
H67 H 0.03281 0.26457 0.97006 0.0
H68 H 0.05753 0.30627 0.12408 0.0
C69 C 0.03963 0.3016 0.1686 0.0
O70 O 0.01829 0.29225 0.11579 0.0
H71 H 0.04477 0.2863 0.21519 0.0
C72 C 0.99473 0.21327 0.06262 0.0
C73 C 0.01127 0.22694 -0.00027 0.0
C74 C 0.98672 0.22531 0.14308 0.0
C75 C 0.99509 0.25182 0.16121 0.0
C76 C 0.01151 0.26621 0.09874 0.0
C77 C 0.02 0.25362 0.01807 0.0
H78 H 0.32019 0.03433 0.13082 0.0
H79 H 0.23715 0.01075 0.18511 0.0
H80 H 0.26453 0.02465 0.91417 0.0
H81 H 0.19437 0.03543 0.95801 0.0
C82 C 0.20388 0.03548 0.02425 0.0
O83 O 0.22163 0.01594 0.0222 0.0
H84 H 0.21488 0.05532 0.03362 0.0
C85 C 0.30014 0.02979 0.10572 0.0
C86 C 0.29597 0.02885 0.01298 0.0
C87 C 0.27958 0.02182 0.16714 0.0
C88 C 0.2532 0.01717 0.13826 0.0
C89 C 0.24754 0.02009 0.04809 0.0
C90 C 0.26898 0.02498 0.98463 0.0
H91 H 0.52549 0.32353 0.99504 0.0
H92 H 0.52472 0.25495 0.15482 0.0
H93 H 0.48364 0.25081 0.90369 0.0
H94 H 0.45842 0.20657 0.04386 0.0
C95 C 0.47423 0.21389 0.09148 0.0
O96 O 0.49688 0.22357 0.04308 0.0
H97 H 0.46601 0.22993 0.13366 0.0
C98 C 0.51982 0.30269 0.00392 0.0
C99 C 0.50418 0.28876 0.93953 0.0
C100 C 0.52742 0.29083 0.08105 0.0
C101 C 0.51912 0.26427 0.09481 0.0
C102 C 0.5035 0.24964 0.03072 0.0
C103 C 0.49574 0.26199 0.95305 0.0
Dy104 Dy 0.02371 0.99646 0.65265 0.0
C105 C 0.97044 0.05556 0.40661 0.0
C106 C 0.03664 0.96482 0.78512 0.0
Dy107 Dy 0.99258 0.02078 0.51134 0.0
O108 O 0.05235 0.98408 0.75284 0.0
O109 O 0.0133 0.96401 0.74841 0.0
O110 O 0.06477 0.99667 0.58737 0.0
O111 O 0.03387 0.01111 0.51832 0.0
C112 C 0.0584 1.00652 0.51303 0.0
C113 C 0.96211 0.99932 0.64698 0.0
O114 O 0.99548 0.98148 0.44201 0.0
O115 O 1.00539 0.96147 0.57256 0.0
O116 O 0.96208 0.04907 0.48621 0.0
O117 O 0.99059 0.04213 0.38187 0.0
O118 O 0.95577 0.99717 0.56324 0.0
O119 O 0.98453 0.01281 0.65413 0.0
O120 O 0.0252 0.03752 0.71217 0.0
O121 O 0.01429 0.05611 0.58013 0.0
C122 C 0.99858 0.96006 0.48733 0.0
C123 C 0.02269 0.05844 0.66356 0.0
Dy124 Dy 0.48448 0.99296 0.50874 0.0
C125 C 0.57459 0.04384 0.69523 0.0
C126 C 0.43533 0.97583 0.44325 0.0
Dy127 Dy 0.52659 0.02562 0.62497 0.0
O128 O 0.45597 0.98486 0.39463 0.0
O129 O 0.4421 0.97527 0.526 0.0
O130 O 0.51638 0.96965 0.44031 0.0
O131 O 0.5263 1.00782 0.49167 0.0
C132 C 0.53599 0.98724 0.46084 0.0
C133 C 0.47495 0.03101 0.67331 0.0
O134 O 0.52042 0.05584 0.52402 0.0
O135 O 0.4815 0.0347 0.46442 0.0
O136 O 0.55308 0.03623 0.74203 0.0
O137 O 0.56958 0.0421 0.61055 0.0
O138 O 0.49431 0.04944 0.68747 0.0
O139 O 0.48489 0.01041 0.64352 0.0
O140 O 0.4907 0.9627 0.6094 0.0
O141 O 0.5289 0.98412 0.67326 0.0
C142 C 0.49942 0.05552 0.47151 0.0
C143 C 0.51109 0.96322 0.6646 0.0
Dy144 Dy 0.49732 0.51944 0.65082 0.0
C145 C 0.54175 0.46303 0.36009 0.0
C146 C 0.49828 0.55579 0.78995 0.0
Dy147 Dy 0.52438 0.49694 0.49006 0.0
O148 O 0.47732 0.54828 0.74267 0.0
O149 O 0.51743 0.54126 0.76564 0.0
O150 O 0.45641 0.50273 0.61026 0.0
O151 O 0.48589 0.51402 0.51084 0.0
C152 C 0.46238 0.503 0.52445 0.0
C153 C 0.55758 0.5136 0.62307 0.0
O154 O 0.5232 0.53714 0.43317 0.0
O155 O 0.51172 0.55513 0.57128 0.0
O156 O 0.55647 0.475 0.42124 0.0
O157 O 0.51764 0.47085 0.36652 0.0
O158 O 0.56344 0.51719 0.53889 0.0
O159 O 0.53473 0.50111 0.63062 0.0
O160 O 0.49467 0.47835 0.69963 0.0
O161 O 0.50443 0.46089 0.55848 0.0
C162 C 0.51886 0.55792 0.48579 0.0
C163 C 0.49671 0.45784 0.64367 0.0
Dy164 Dy 0.99671 0.50467 0.66676 0.0
C165 C 0.0562 0.49215 0.35095 0.0
C166 C 0.96188 0.52197 0.79396 0.0
Dy167 Dy 0.02279 0.51205 0.4776 0.0
O168 O 0.96761 0.49751 0.78362 0.0
O169 O 0.977 0.53662 0.74035 0.0
O170 O 1.0036 0.46141 0.66008 0.0
O171 O 0.99695 0.48174 0.54319 0.0
C172 C 1.00319 0.4602 0.57257 0.0
C173 C 0.01647 0.55653 0.57269 0.0
O174 O 0.98016 0.51106 0.43264 0.0
O175 O 0.96187 0.51095 0.57786 0.0
O176 O 0.0517 0.51704 0.3587 0.0
O177 O 0.04095 0.47871 0.40739 0.0
O178 O 0.0165 0.55562 0.48501 0.0
O179 O 0.02246 0.53481 0.60102 0.0
O180 O 0.03939 0.50664 0.71193 0.0
O181 O 0.0579 0.50674 0.56687 0.0
C182 C 0.95925 0.51202 0.48971 0.0
C183 C 0.06043 0.50591 0.65521 0.0
C184 C 0.17703 0.05066 0.16048 0.0
C185 C 0.18184 0.03084 0.09599 0.0
C186 C 0.15563 0.04741 0.22392 0.0
C187 C 0.13849 0.02372 0.22337 0.0
C188 C 0.14315 1.0037 0.15785 0.0
C189 C 0.16467 1.00755 0.0949 0.0
C190 C 0.15157 0.06927 0.29233 0.0
C191 C 0.12558 0.97808 0.15489 0.0
C192 C 0.10435 1.00406 0.44557 0.0
C193 C 0.07799 0.01116 0.43674 0.0
C194 C 0.12392 1.00783 0.37665 0.0
C195 C 0.11721 0.01909 0.29585 0.0
C196 C 0.09055 0.02625 0.28597 0.0
C197 C 0.07122 0.02217 0.35655 0.0
C198 C 0.15192 0.99985 0.39077 0.0
C199 C 0.08254 0.03833 0.20105 0.0
H200 H 0.18999 0.06886 0.16105 0.0
H201 H 0.16808 0.99235 0.0444 0.0
H202 H 0.13064 0.075 0.29057 0.0
H203 H 0.15457 0.06226 0.36052 0.0
H204 H 0.16567 0.087 0.28095 0.0
H205 H 0.131 0.96499 0.09745 0.0
H206 H 0.12747 0.96749 0.2178 0.0
H207 H 0.10416 0.98199 0.15009 0.0
H208 H 0.10984 0.99547 0.50712 0.0
H209 H 0.05091 0.02765 0.34911 0.0
H210 H 0.16675 0.0173 0.38603 0.0
H211 H 0.15739 0.98543 0.33755 0.0
H212 H 0.1538 0.99095 0.4569 0.0
H213 H 0.09523 0.05695 0.18965 0.0
H214 H 0.06106 0.04259 0.20321 0.0
H215 H 0.08604 0.02484 0.14288 0.0
C216 C 0.47177 0.19085 0.23988 0.0
C217 C 0.48037 0.19131 0.14958 0.0
C218 C 0.47517 0.16911 0.29296 0.0
C219 C 0.48746 0.1471 0.2551 0.0
C220 C 0.4964 0.14755 0.16408 0.0
C221 C 0.49259 0.16953 0.11237 0.0
C222 C 0.46517 0.16951 0.3893 0.0
C223 C 0.50968 0.12464 0.12091 0.0
C224 C 0.51631 0.10013 0.41429 0.0
C225 C 0.49614 0.07911 0.41713 0.0
C226 C 0.51384 0.12218 0.36158 0.0
C227 C 0.49056 0.12353 0.31048 0.0
C228 C 0.47006 0.10246 0.31332 0.0
C229 C 0.47311 0.08056 0.36619 0.0
C230 C 0.53626 0.14405 0.36039 0.0
C231 C 0.4448 0.10307 0.26055 0.0
H232 H 0.46194 0.20741 0.26881 0.0
H233 H 0.49888 0.16959 0.04231 0.0
H234 H 0.44955 0.15297 0.39983 0.0
H235 H 0.4819 0.1667 0.43434 0.0
H236 H 0.45648 0.18825 0.40921 0.0
H237 H 0.51634 0.12836 0.05053 0.0
H238 H 0.52739 0.12049 0.15958 0.0
H239 H 0.49544 0.10667 0.1217 0.0
H240 H 0.53426 0.09931 0.45279 0.0
H241 H 0.45735 0.06455 0.3676 0.0
H242 H 0.52846 0.16284 0.38449 0.0
H243 H 0.54407 0.14695 0.2908 0.0
H244 H 0.55321 0.13995 0.40288 0.0
H245 H 0.43425 0.12067 0.28128 0.0
H246 H 0.43071 0.0852 0.26989 0.0
H247 H 0.45005 0.10468 0.18818 0.0
C248 C 0.34776 0.51579 0.16524 0.0
C249 C 0.34024 0.4918 0.1202 0.0
C250 C 0.36731 0.51747 0.23195 0.0
C251 C 0.38008 0.49473 0.25331 0.0
C252 C 0.37261 0.47051 0.20766 0.0
C253 C 0.35291 0.46937 0.14175 0.0
C254 C 0.37457 0.54369 0.27886 0.0
C255 C 0.38575 0.44582 0.22743 0.0
C256 C 0.44857 0.50408 0.36416 0.0
C257 C 0.44161 0.49967 0.45443 0.0
C258 C 0.42884 0.50242 0.29811 0.0
C259 C 0.40138 0.49628 0.32269 0.0
C260 C 0.39432 0.49151 0.41367 0.0
C261 C 0.41447 0.49317 0.47819 0.0
C262 C 0.43738 0.50743 0.20201 0.0
C263 C 0.36539 0.48494 0.44311 0.0
H264 H 0.33853 0.53332 0.14755 0.0
H265 H 0.34766 0.45089 0.10593 0.0
H266 H 0.3716 0.54183 0.35233 0.0
H267 H 0.39614 0.54994 0.26593 0.0
H268 H 0.36234 0.55934 0.25651 0.0
H269 H 0.37746 0.42845 0.18708 0.0
H270 H 0.40773 0.44885 0.21324 0.0
H271 H 0.38294 0.44139 0.29945 0.0
H272 H 0.46947 0.50908 0.34515 0.0
H273 H 0.40888 0.48974 0.54773 0.0
H274 H 0.42753 0.52447 0.17794 0.0
H275 H 0.4308 0.4901 0.15875 0.0
H276 H 0.45952 0.51154 0.1935 0.0
H277 H 0.35314 0.50118 0.42637 0.0
H278 H 0.36317 0.48168 0.51619 0.0
H279 H 0.35698 0.46693 0.40658 0.0
C280 C 1.00942 0.32513 0.27869 0.0
C281 C 0.03289 0.32575 0.2245 0.0
C282 C 1.0039 0.34666 0.33585 0.0
C283 C 0.02244 0.36935 0.33998 0.0
C284 C 0.04623 0.37006 0.28548 0.0
C285 C 0.05119 0.34827 0.22875 0.0
C286 C 0.97829 0.34503 0.39247 0.0
C287 C 0.06663 0.39374 0.28784 0.0
C288 C 0.99813 0.43473 0.42693 0.0
C289 C 1.00726 0.43642 0.51503 0.0
C290 C 1.00282 0.41304 0.36963 0.0
C291 C 0.01693 0.39236 0.40099 0.0
C292 C 0.0259 0.39382 0.49041 0.0
C293 C 0.02085 0.41576 0.54644 0.0
C294 C 0.99287 0.41241 0.2751 0.0
C295 C 0.04117 0.37235 0.52653 0.0
H296 H 0.99545 0.30764 0.27693 0.0
H297 H 0.0696 0.34872 0.18827 0.0
H298 H 0.98317 0.34693 0.46446 0.0
H299 H 0.96622 0.36159 0.37772 0.0
H300 H 0.96577 0.3262 0.38077 0.0
H301 H 0.08405 0.3913 0.24123 0.0
H302 H 0.05705 0.41163 0.26992 0.0
H303 H 0.07417 0.39721 0.35665 0.0
H304 H 0.98747 0.45058 0.40237 0.0
H305 H 0.02801 0.417 0.61435 0.0
H306 H 0.97945 0.39423 0.26258 0.0
H307 H 1.01014 0.41195 0.22675 0.0
H308 H 0.98172 0.42974 0.26154 0.0
H309 H 0.02911 0.35308 0.52009 0.0
H310 H 0.04625 0.37608 0.59796 0.0
H311 H 0.06011 0.37071 0.48667 0.0
C312 C 0.83704 0.01613 0.98265 0.0
C313 C 0.83285 0.99699 0.04809 0.0
C314 C 0.85837 0.01545 0.9188 0.0
C315 C 0.87589 0.99496 0.9195 0.0
C316 C 0.87121 0.97513 0.98393 0.0
C317 C 0.84975 0.97636 0.04717 0.0
C318 C 0.8624 0.03693 0.85135 0.0
C319 C 0.8891 0.95278 0.98681 0.0
C320 C 0.91622 0.98242 0.70302 0.0
C321 C 0.94132 0.99595 0.72047 0.0
C322 C 0.89508 0.98135 0.76775 0.0
C323 C 0.89893 0.99427 0.85243 0.0
C324 C 0.92453 1.00731 0.87143 0.0
C325 C 0.94542 1.00791 0.80546 0.0
C326 C 0.86834 0.967 0.74448 0.0
C327 C 0.92961 0.02135 0.96056 0.0
H328 H 0.8239 0.032 0.98268 0.0
H329 H 0.84646 0.96142 0.09724 0.0
H330 H 0.88259 0.04762 0.85874 0.0
H331 H 0.86163 0.02821 0.78239 0.0
H332 H 0.84697 0.05136 0.85912 0.0
H333 H 0.88248 0.93861 0.03962 0.0
H334 H 0.88929 0.94199 0.92111 0.0
H335 H 0.91009 0.96072 -0.00045 0.0
H336 H 0.91288 0.97305 0.63765 0.0
H337 H 0.9647 0.01848 0.81951 0.0
H338 H 0.85269 0.9812 0.74416 0.0
H339 H 0.86201 0.95232 0.79582 0.0
H340 H 0.86901 0.9567 0.67787 0.0
H341 H 0.91634 0.03768 0.96949 0.0
H342 H 0.95084 0.02962 0.96651 0.0
H343 H 0.92461 1.00763 0.0159 0.0
C344 C 0.49754 0.85579 0.04571 0.0
C345 C 0.50915 0.83229 0.02239 0.0
C346 C 0.49991 0.87734 0.98848 0.0
C347 C 0.51417 0.87547 0.90532 0.0
C348 C 0.52658 0.85204 0.88257 0.0
C349 C 0.5238 0.83074 0.94105 0.0
C350 C 0.48625 0.9018 0.01567 0.0
C351 C 0.54205 0.84913 0.79501 0.0
C352 C 0.49341 0.91861 0.7193 0.0
C353 C 0.51313 0.94004 0.72232 0.0
C354 C 0.49383 0.89741 0.77717 0.0
C355 C 0.51453 0.89733 0.84005 0.0
C356 C 0.53487 0.91857 0.84222 0.0
C357 C 0.53391 0.93962 0.78365 0.0
C358 C 0.47168 0.8753 0.7723 0.0
C359 C 0.55739 0.91929 0.90769 0.0
H360 H 0.48593 0.85707 0.10793 0.0
H361 H 0.53251 0.81256 0.92205 0.0
H362 H 0.50085 0.91945 0.0122 0.0
H363 H 0.47006 0.90452 0.9684 0.0
H364 H 0.47729 0.90079 0.08455 0.0
H365 H 0.55229 0.8306 0.79028 0.0
H366 H 0.52813 0.84918 0.73853 0.0
H367 H 0.55736 0.86606 0.78677 0.0
H368 H 0.47721 0.91856 0.67258 0.0
H369 H 0.5493 0.95595 0.78691 0.0
H370 H 0.46015 0.87432 0.83693 0.0
H371 H 0.48041 0.85614 0.76095 0.0
H372 H 0.45749 0.87783 0.71795 0.0
H373 H 0.54902 0.92036 0.97721 0.0
H374 H 0.57243 0.93641 0.898 0.0
H375 H 0.56779 0.90092 0.90057 0.0
C376 C 0.67686 0.48791 0.9411 0.0
C377 C 0.68176 0.5063 0.01194 0.0
C378 C 0.65664 0.49066 0.87921 0.0
C379 C 0.64065 0.51233 0.88813 0.0
C380 C 0.64553 0.53105 0.95943 0.0
C381 C 0.6658 0.52768 0.02093 0.0
C382 C 0.65207 0.47004 0.8051 0.0
C383 C 0.62905 0.55446 0.97149 0.0
C384 C 0.60377 0.52805 0.67826 0.0
C385 C 0.578 0.51552 0.69424 0.0
C386 C 0.62403 0.52801 0.74202 0.0
C387 C 0.61855 0.5149 0.82366 0.0
C388 C 0.59229 0.50286 0.8411 0.0
C389 C 0.57235 0.50343 0.77653 0.0
C390 C 0.65156 0.54135 0.72084 0.0
C391 C 0.58548 0.48852 0.92671 0.0
H392 H 0.68865 0.47102 0.93487 0.0
H393 H 0.66899 0.54162 0.07669 0.0
H394 H 0.63129 0.46046 0.81099 0.0
H395 H 0.65412 0.47941 0.73901 0.0
H396 H 0.66643 0.45458 0.80653 0.0
H397 H 0.63607 0.56786 0.02772 0.0
H398 H 0.62999 0.56577 0.90914 0.0
H399 H 0.60763 0.54761 0.98464 0.0
H400 H 0.60827 0.53752 0.61504 0.0
H401 H 0.55249 0.49369 0.78947 0.0
H402 H 0.66645 0.52639 0.71432 0.0
H403 H 0.658 0.55525 0.77634 0.0
H404 H 0.65208 0.55233 0.65772 0.0
H405 H 0.59763 0.47134 0.92962 0.0
H406 H 0.56384 0.48138 0.93232 0.0
H407 H 0.59063 0.50162 0.98554 0.0
C408 C 0.98128 0.66942 0.93431 0.0
C409 C 1.00313 0.68835 0.9461 0.0
C410 C 0.98205 0.64935 0.8673 0.0
C411 C 1.00521 0.64819 0.81035 0.0
C412 C 0.02669 0.66816 0.81903 0.0
C413 C 0.02532 0.68804 0.8864 0.0
C414 C 0.95857 0.62868 0.86016 0.0
C415 C 0.05175 0.66779 0.76005 0.0
C416 C 0.02208 0.58052 0.72042 0.0
C417 C 0.01379 0.58036 0.63149 0.0
C418 C 0.01936 0.60238 0.77876 0.0
C419 C 1.00806 0.62487 0.74784 0.0
C420 C 0.99975 0.62492 0.65782 0.0
C421 C 1.00282 0.60269 0.60058 0.0
C422 C 0.02861 0.60135 0.8738 0.0
C423 C 0.98745 0.64836 0.62224 0.0
H424 H 0.96396 0.66978 0.97975 0.0
H425 H 0.04211 0.70281 0.89475 0.0
H426 H 0.95207 0.62621 0.78982 0.0
H427 H 0.9648 0.6094 0.88041 0.0
H428 H 0.9411 0.63367 0.90329 0.0
H429 H 0.06558 0.68588 0.76976 0.0
H430 H 0.06264 0.65047 0.77539 0.0
H431 H 0.04638 0.66581 0.68851 0.0
H432 H 0.03075 0.5634 0.74474 0.0
H433 H 0.99633 0.60268 0.532 0.0
H434 H 0.01147 0.6038 0.92146 0.0
H435 H 0.04412 0.6178 0.88753 0.0
H436 H 0.03716 0.58249 0.88725 0.0
H437 H 0.96903 0.65218 0.66225 0.0
H438 H 0.9821 0.64542 0.55077 0.0
H439 H 1.00169 0.66623 0.62905 0.0
C440 C 0.98636 0.20172 0.28471 0.0
C441 C 0.97245 0.20819 0.20976 0.0
C442 C 0.98002 0.17751 0.32557 0.0
C443 C 0.95937 0.15968 0.28997 0.0
C444 C 0.94285 0.16788 0.22282 0.0
C445 C 0.94955 0.19223 0.1836 0.0
C446 C 0.99759 0.16975 0.39913 0.0
C447 C 0.92029 0.14972 0.18443 0.0
C448 C 0.97754 0.08911 0.28895 0.0
C449 C 0.96336 0.07973 0.36508 0.0
C450 C 0.97525 0.11481 0.26103 0.0
C451 C 0.9585 0.13139 0.31106 0.0
C452 C 0.94273 0.12133 0.38426 0.0
C453 C 0.9453 0.09552 0.41028 0.0
C454 C 0.99198 0.12469 0.18111 0.0
C455 C 0.92456 0.13828 0.4389 0.0
H456 H 1.00411 0.21408 0.30463 0.0
H457 H 0.93881 0.19739 0.12552 0.0
H458 H 0.98526 0.15978 0.45308 0.0
H459 H 0.01166 0.15564 0.37134 0.0
H460 H 1.00964 0.18705 0.42883 0.0
H461 H 0.90608 0.16072 0.1475 0.0
H462 H 0.92888 0.13524 0.13703 0.0
H463 H 0.90895 0.13852 0.23784 0.0
H464 H 0.99147 0.07689 0.25399 0.0
H465 H 0.93426 0.08827 0.46931 0.0
H466 H 1.00722 0.14055 0.20317 0.0
H467 H 0.97907 0.13324 0.13244 0.0
H468 H 1.00258 0.10883 0.14628 0.0
H469 H 0.93696 0.15195 0.48344 0.0
H470 H 0.90988 0.12626 0.48134 0.0
H471 H 0.91337 0.15042 0.39516 0.0
C472 C 0.28793 0.98504 0.26183 0.0
C473 C 0.288 0.01235 0.25328 0.0
C474 C 0.3077 0.97449 0.31118 0.0
C475 C 0.32752 0.99181 0.35312 0.0
C476 C 0.32456 0.01921 0.35777 0.0
C477 C 0.30475 0.02923 0.30727 0.0
C478 C 0.30961 0.9451 0.30737 0.0
C479 C 0.34456 0.03825 0.40553 0.0
C480 C 0.38625 0.97053 0.47998 0.0
C481 C 0.40714 0.97399 0.41537 0.0
C482 C 0.3597 0.97475 0.45995 0.0
C483 C 0.35403 0.98244 0.37302 0.0
C484 C 0.37471 0.98375 0.30556 0.0
C485 C 0.40109 0.97965 0.32779 0.0
C486 C 0.33837 0.97278 0.53372 0.0
C487 C 0.36943 0.99127 0.21118 0.0
H488 H 0.27492 0.97195 0.22014 0.0
H489 H 0.30465 0.05036 0.30087 0.0
H490 H 0.32463 0.94016 0.2546 0.0
H491 H 0.31637 0.93818 0.3719 0.0
H492 H 0.29 0.93426 0.29099 0.0
H493 H 0.33693 0.058 0.41604 0.0
H494 H 0.34932 0.03069 0.47145 0.0
H495 H 0.36356 0.04051 0.36489 0.0
H496 H 0.39087 0.96595 0.54772 0.0
H497 H 0.41719 0.98224 0.27769 0.0
H498 H 0.31825 0.96621 0.50759 0.0
H499 H 0.33715 0.99248 0.56669 0.0
H500 H 0.34337 0.95895 0.58544 0.0
H501 H 0.35125 0.97974 0.18539 0.0
H502 H 0.38666 0.98796 0.16465 0.0
H503 H 0.36572 0.01243 0.21083 0.0
C504 C 0.52814 0.31433 0.22851 0.0
C505 C 0.54173 0.30809 0.14845 0.0
C506 C 0.53412 0.33878 0.27264 0.0
C507 C 0.55376 0.35716 0.23434 0.0
C508 C 0.57014 0.34925 0.16127 0.0
C509 C 0.56415 0.32449 0.1199 0.0
C510 C 0.51713 0.34612 0.35337 0.0
C511 C 0.59142 0.36811 0.11882 0.0
C512 C 0.53231 0.42669 0.2473 0.0
C513 C 0.54825 0.43808 0.31591 0.0
C514 C 0.53495 0.40066 0.21717 0.0
C515 C 0.5534 0.38557 0.25887 0.0
C516 C 0.57033 0.39739 0.32567 0.0
C517 C 0.56777 0.42368 0.35263 0.0
C518 C 0.51718 0.38899 0.14329 0.0
C519 C 0.58982 0.3819 0.37297 0.0
H520 H 0.51086 0.30158 0.25076 0.0
H521 H 0.57474 0.31944 0.0581 0.0
H522 H 0.52961 0.35734 0.40421 0.0
H523 H 0.50166 0.35892 0.33264 0.0
H524 H 0.50669 0.32844 0.38474 0.0
H525 H 0.60569 0.35758 0.07518 0.0
H526 H 0.58155 0.38189 0.07707 0.0
H527 H 0.60295 0.38004 0.17036 0.0
H528 H 0.51721 0.43784 0.21922 0.0
H529 H 0.5799 0.43238 0.40671 0.0
H530 H 0.50289 0.37307 0.17006 0.0
H531 H 0.52953 0.38008 0.08929 0.0
H532 H 0.50542 0.40391 0.11361 0.0
H533 H 0.57847 0.36884 0.42148 0.0
H534 H 0.60487 0.39499 0.41031 0.0
H535 H 0.60059 0.36916 0.32505 0.0
C536 C 0.20841 0.47895 0.24377 0.0
C537 C 0.21247 0.46242 0.1688 0.0
C538 C 0.18303 0.47853 0.28687 0.0
C539 C 0.1615 0.46168 0.25218 0.0
C540 C 0.16677 0.44208 0.1864 0.0
C541 C 0.19264 0.44214 0.1475 0.0
C542 C 0.17852 0.49844 0.36155 0.0
C543 C 0.14447 0.42374 0.14719 0.0
C544 C 0.09188 0.46173 0.35983 0.0
C545 C 0.08136 0.48231 0.31552 0.0
C546 C 0.11794 0.45469 0.34022 0.0
C547 C 0.13339 0.46782 0.27203 0.0
C548 C 0.12229 0.48763 0.22352 0.0
C549 C 0.09651 0.49506 0.24731 0.0
C550 C 0.12941 0.43441 0.39616 0.0
C551 C 0.13792 0.50148 0.14813 0.0
H552 H 0.22383 0.49439 0.26162 0.0
H553 H 0.19608 0.42897 0.09056 0.0
H554 H 0.17009 0.51581 0.33386 0.0
H555 H 0.16392 0.49001 0.41253 0.0
H556 H 0.19762 0.50528 0.39468 0.0
H557 H 0.15244 0.40668 0.11017 0.0
H558 H 0.12995 0.41627 0.19984 0.0
H559 H 0.13328 0.43472 0.0997 0.0
H560 H 0.08033 0.45206 0.41386 0.0
H561 H 0.08839 0.51102 0.21361 0.0
H562 H 0.1452 0.44432 0.43928 0.0
H563 H 0.13907 0.41959 0.35314 0.0
H564 H 0.11382 0.42404 0.43995 0.0
H565 H 0.15553 0.51364 0.17522 0.0
H566 H 0.12549 0.51451 0.11193 0.0
H567 H 0.1457 0.48683 0.09956 0.0
C568 C 0.03768 0.81691 0.84945 0.0
C569 C 0.05031 0.81038 0.92707 0.0
C570 C 0.04324 0.84196 0.81367 0.0
C571 C 0.06128 0.86064 0.85836 0.0
C572 C 0.07755 0.85234 0.92602 0.0
C573 C 0.07234 0.82683 0.95798 0.0
C574 C 0.02692 0.84961 0.73675 0.0
C575 C 0.0973 0.87143 0.97464 0.0
C576 C 0.06877 0.93059 0.77592 0.0
C577 C 0.0467 0.9411 0.81983 0.0
C578 C 0.07447 0.90455 0.78922 0.0
C579 C 0.05812 0.88913 0.84992 0.0
C580 C 0.0371 0.90049 0.89964 0.0
C581 C 0.03124 0.92621 0.8823 0.0
C582 C 0.09641 0.89311 0.73256 0.0
C583 C 0.01984 0.88504 0.96786 0.0
H584 H 0.021 0.80403 0.82406 0.0
H585 H 0.08258 0.82141 0.01681 0.0
H586 H 1.0098 0.86034 0.76331 0.0
H587 H 0.0393 0.8629 0.69145 0.0
H588 H 0.01866 0.83203 0.6974 0.0
H589 H 0.11222 0.86099 0.01045 0.0
H590 H 0.10818 0.88535 0.92791 0.0
H591 H 0.08615 0.88317 0.02479 0.0
H592 H 0.08027 0.94198 0.72563 0.0
H593 H 0.01401 0.93437 0.91514 0.0
H594 H 0.0873 0.88276 0.67291 0.0
H595 H 0.10678 0.87856 0.76934 0.0
H596 H 0.11159 0.90876 0.70879 0.0
H597 H 1.00763 0.86867 0.93373 0.0
H598 H 1.00594 0.8975 0.00576 0.0
H599 H 0.03271 0.87624 0.0161 0.0
C600 C 0.71511 0.05604 0.93508 0.0
C601 C 0.72179 0.02993 0.93528 0.0
C602 C 0.69548 0.06338 0.87786 0.0
C603 C 0.68194 0.04387 0.82213 0.0
C604 C 0.69131 0.01841 0.81369 0.0
C605 C 0.71141 0.01179 0.87033 0.0
C606 C 0.68685 0.09101 0.88596 0.0
C607 C 0.67756 0.99707 0.75457 0.0
C608 C 0.60611 0.04214 0.81951 0.0
C609 C 0.60182 0.04821 0.73086 0.0
C610 C 0.63222 0.04157 0.85058 0.0
C611 C 0.65456 0.04774 0.79174 0.0
C612 C 0.65031 0.05556 0.7037 0.0
C613 C 0.62388 0.05544 0.67389 0.0
C614 C 0.63582 0.03295 0.94507 0.0
C615 C 0.67354 0.06296 0.63991 0.0
H616 H 0.72322 0.07001 0.98574 0.0
H617 H 0.71654 0.99155 0.87129 0.0
H618 H 0.681 0.09784 0.82013 0.0
H619 H 0.66909 0.09134 0.93232 0.0
H620 H 0.70311 0.10505 0.91307 0.0
H621 H 0.68953 0.97972 0.74588 0.0
H622 H 0.65767 0.99046 0.78511 0.0
H623 H 0.674 1.00463 0.68767 0.0
H624 H 0.58904 0.0365 0.86343 0.0
H625 H 0.62052 0.06014 0.6051 0.0
H626 H 0.64837 0.04828 0.98286 0.0
H627 H 0.64642 0.01466 0.94346 0.0
H628 H 0.61633 0.02912 0.98227 0.0
H629 H 0.68939 0.07583 0.67422 0.0
H630 H 0.667 0.07323 0.58092 0.0
H631 H 0.68272 0.04493 0.6154 0.0
C632 C 0.56186 0.69527 0.95136 0.0
C633 C 0.54313 0.71424 0.95106 0.0
C634 C 0.55577 0.67021 0.9125 0.0
C635 C 0.53123 0.66488 0.86766 0.0
C636 C 0.51488 0.68559 0.85287 0.0
C637 C 0.52095 0.71019 0.89564 0.0
C638 C 0.57368 0.64869 0.93101 0.0
C639 C 0.48941 0.68101 0.8007 0.0
C640 C 0.52205 0.59819 0.75031 0.0
C641 C 0.50529 0.58376 0.81144 0.0
C642 C 0.52962 0.62493 0.7656 0.0
C643 C 0.52127 0.63723 0.84632 0.0
C644 C 0.50455 0.62267 0.90928 0.0
C645 C 0.49628 0.59604 0.89014 0.0
C646 C 0.54703 0.63981 0.69638 0.0
C647 C 0.49601 0.63507 0.99761 0.0
H648 H 0.5791 0.69863 0.99408 0.0
H649 H 0.50656 0.72495 0.89487 0.0
H650 H 0.56406 0.63618 0.98449 0.0
H651 H 0.57643 0.63578 0.87093 0.0
H652 H 0.5938 0.65682 0.95376 0.0
H653 H 0.48228 0.69984 0.77938 0.0
H654 H 0.49255 0.6682 0.7406 0.0
H655 H 0.47337 0.67089 0.84325 0.0
H656 H 0.52939 0.58848 0.6901 0.0
H657 H 0.4835 0.5847 0.93737 0.0
H658 H 0.56754 0.6446 0.72211 0.0
H659 H 0.53876 0.65875 0.68267 0.0
H660 H 0.54881 0.62829 0.63241 0.0
H661 H 0.51399 0.64325 0.03447 0.0
H662 H 0.48406 0.62079 0.04075 0.0
H663 H 0.48376 0.6517 0.98561 0.0
C664 C 0.80713 0.52918 0.90613 0.0
C665 C 0.80367 0.54895 0.97153 0.0
C666 C 0.83207 0.52775 0.86138 0.0
C667 C 0.85371 0.54643 0.88373 0.0
C668 C 0.84892 0.56862 0.93934 0.0
C669 C 0.82363 0.56985 0.98152 0.0
C670 C 0.83597 0.5044 0.7993 0.0
C671 C 0.87137 0.58903 0.96476 0.0
C672 C 0.92165 0.51878 0.89788 0.0
C673 C 0.93519 0.52954 0.82287 0.0
C674 C 0.89516 0.52457 0.91924 0.0
C675 C 0.88177 0.54055 0.86182 0.0
C676 C 0.89526 0.55086 0.78469 0.0
C677 C 0.92203 0.54576 0.76738 0.0
C678 C 0.88141 0.51344 0.00276 0.0
C679 C 0.8813 0.56677 0.71946 0.0
H680 H 0.79165 0.51304 0.8983 0.0
H681 H 0.82075 0.58515 0.03225 0.0
H682 H 0.85188 0.50916 0.74771 0.0
H683 H 0.84212 0.48794 0.83869 0.0
H684 H 0.81697 0.4975 0.76566 0.0
H685 H 0.86355 0.60696 0.99651 0.0
H686 H 0.88443 0.58051 0.0131 0.0
H687 H 0.8841 0.59485 0.90546 0.0
H688 H 0.93179 0.50596 0.93969 0.0
H689 H 0.93231 0.55356 0.70772 0.0
H690 H 0.86361 0.49999 0.98451 0.0
H691 H 0.87411 0.5296 0.04604 0.0
H692 H 0.89499 0.50233 0.04195 0.0
H693 H 0.86128 0.55686 0.70321 0.0
H694 H 0.89322 0.56975 0.65606 0.0
H695 H 0.87798 0.58636 0.75019 0.0
C696 C 0.99854 0.19921 0.86593 0.0
C697 C 0.01913 0.21145 0.91859 0.0
C698 C 1.00222 0.17607 0.815 0.0
C699 C 0.02739 0.16515 0.81484 0.0
C700 C 0.04916 0.17914 0.85962 0.0
C701 C 0.0447 0.20201 0.91192 0.0
C702 C 0.9783 0.16191 0.76929 0.0
C703 C 0.07659 0.1688 0.85845 0.0
C704 C 0.02334 0.09003 0.79629 0.0
C705 C 0.02739 0.08548 0.70405 0.0
C706 C 0.02406 0.11585 0.83341 0.0
C707 C 0.02968 0.13774 0.77738 0.0
C708 C 0.03521 0.13318 0.68491 0.0
C709 C 0.03361 0.10718 0.64925 0.0
C710 C 0.01742 0.1197 0.93202 0.0
C711 C 0.0419 0.15576 0.62294 0.0
H712 H 0.97864 0.20624 0.87213 0.0
H713 H 0.06055 0.2111 0.95359 0.0
H714 H 0.98368 0.15611 0.69935 0.0
H715 H 0.97187 0.14358 0.80506 0.0
H716 H 0.96095 0.17417 0.76847 0.0
H717 H 0.09231 0.18411 0.88135 0.0
H718 H 0.07622 0.15192 0.90356 0.0
H719 H 0.0822 0.16161 0.79011 0.0
H720 H 0.01827 0.07343 0.83894 0.0
H721 H 0.0369 0.10386 0.57788 0.0
H722 H 0.99894 0.13028 0.94076 0.0
H723 H 0.03391 0.13201 0.96504 0.0
H724 H 0.01412 0.10072 0.96684 0.0
H725 H 0.02357 0.16598 0.61227 0.0
H726 H 0.04976 0.14898 0.55658 0.0
H727 H 0.05705 0.1704 0.65308 0.0
C728 C 0.34458 0.02077 0.97956 0.0
C729 C 0.32035 0.02949 0.94991 0.0
C730 C 0.36853 0.02325 0.92825 0.0
C731 C 0.36828 0.03212 0.83971 0.0
C732 C 0.34365 0.03908 0.80561 0.0
C733 C 0.32018 0.0384 0.86175 0.0
C734 C 0.39394 0.01579 0.97017 0.0
C735 C 0.34203 0.04727 0.70997 0.0
C736 C 0.43761 0.05562 0.74298 0.0
C737 C 0.44664 0.03204 0.70726 0.0
C738 C 0.41158 0.05633 0.78206 0.0
C739 C 0.39382 0.03304 0.7837 0.0
C740 C 0.40256 0.00944 0.74451 0.0
C741 C 0.4289 0.00915 0.70819 0.0
C742 C 0.40384 0.08155 0.82757 0.0
C743 C 0.38445 0.98414 0.7447 0.0
H744 H 0.34523 0.01177 0.04389 0.0
H745 H 0.30185 0.04489 0.83633 0.0
H746 H 0.41239 0.02643 0.94161 0.0
H747 H 0.3934 0.02005 0.04351 0.0
H748 H 0.39548 0.99432 0.95968 0.0
H749 H 0.32089 0.04683 0.68838 0.0
H750 H 0.35153 0.06762 0.70325 0.0
H751 H 0.35311 0.0342 0.66395 0.0
H752 H 0.45124 0.07336 0.7433 0.0
H753 H 0.4359 0.99068 0.68375 0.0
H754 H 0.40158 0.07874 0.90086 0.0
H755 H 0.38417 0.08666 0.80378 0.0
H756 H 0.41909 0.09835 0.81559 0.0
H757 H 0.38042 0.97777 0.81437 0.0
H758 H 0.39343 0.9679 0.70637 0.0
H759 H 0.3648 0.98741 0.71601 0.0
C760 C 0.4719 0.31402 0.86007 0.0
C761 C 0.49717 0.30402 0.86174 0.0
C762 C 0.46829 0.33695 0.81294 0.0
C763 C 0.49063 0.35047 0.76832 0.0
C764 C 0.51552 0.33898 0.76315 0.0
C765 C 0.51835 0.31579 0.80898 0.0
C766 C 0.44115 0.34792 0.81758 0.0
C767 C 0.54004 0.35266 0.71763 0.0
C768 C 0.48619 0.40906 0.61775 0.0
C769 C 0.4922 0.43055 0.67725 0.0
C770 C 0.48428 0.38293 0.64703 0.0
C771 C 0.48922 0.37804 0.7376 0.0
C772 C 0.49482 0.39972 0.79828 0.0
C773 C 0.49589 0.42564 0.76765 0.0
C774 C 0.47764 0.36056 0.58048 0.0
C775 C 0.50089 0.39554 0.89499 0.0
H776 H 0.4556 0.30533 0.90201 0.0
H777 H 0.53805 0.30838 0.81152 0.0
H778 H 0.44157 0.36473 0.86674 0.0
H779 H 0.4362 0.35538 0.75167 0.0
H780 H 0.42495 0.3329 0.83878 0.0
H781 H 0.55697 0.33986 0.71096 0.0
H782 H 0.53523 0.35895 0.65007 0.0
H783 H 0.54683 0.37066 0.75743 0.0
H784 H 0.48318 0.41264 0.54779 0.0
H785 H 0.50081 0.44207 0.81391 0.0
H786 H 0.46115 0.34683 0.60767 0.0
H787 H 0.49542 0.34917 0.56844 0.0
H788 H 0.47154 0.36765 0.51521 0.0
H789 H 0.48389 0.38367 0.92764 0.0
H790 H 0.50461 0.41441 0.93379 0.0
H791 H 0.51893 0.38435 0.89848 0.0
C792 C 0.20723 0.52278 0.87355 0.0
C793 C 0.21819 0.49834 0.87179 0.0
C794 C 0.18322 0.52604 0.82927 0.0
C795 C 0.16971 0.50424 0.78302 0.0
C796 C 0.18209 0.48026 0.77426 0.0
C797 C 0.20621 0.47767 0.8183 0.0
C798 C 0.17117 0.55216 0.83864 0.0
C799 C 0.16859 0.45648 0.72573 0.0
C800 C 0.0928 0.49969 0.77822 0.0
C801 C 0.08826 0.50592 0.6895 0.0
C802 C 0.11916 0.49925 0.80946 0.0
C803 C 0.14163 0.50563 0.75121 0.0
C804 C 0.13715 0.51244 0.66221 0.0
C805 C 0.11066 0.51224 0.63229 0.0
C806 C 0.12298 0.49158 0.90465 0.0
C807 C 0.16037 0.51983 0.59827 0.0
H808 H 0.21599 0.53861 0.91651 0.0
H809 H 0.21425 0.45857 0.81852 0.0
H810 H 0.16361 0.55783 0.77355 0.0
H811 H 0.15378 0.55047 0.88676 0.0
H812 H 0.18594 0.56811 0.86344 0.0
H813 H 0.18208 0.4403 0.71652 0.0
H814 H 0.1504 0.44902 0.76475 0.0
H815 H 0.16192 0.46182 0.65909 0.0
H816 H 0.07575 0.49473 0.82293 0.0
H817 H 0.10755 0.51728 0.56369 0.0
H818 H 0.1354 0.50744 0.9405 0.0
H819 H 0.13399 0.47356 0.90481 0.0
H820 H 0.10357 0.48778 0.94229 0.0
H821 H 0.17427 0.53552 0.629 0.0
H822 H 0.15354 0.52686 0.53386 0.0
H823 H 0.17202 0.50252 0.584 0.0
C824 C 0.02228 0.82039 0.26865 0.0
C825 C 1.00159 0.80894 0.21464 0.0
C826 C 0.01908 0.84341 0.32078 0.0
C827 C 0.99428 0.855 0.32112 0.0
C828 C 0.97237 0.84186 0.27458 0.0
C829 C 0.97636 0.81911 0.22103 0.0
C830 C 0.04315 0.85667 0.36823 0.0
C831 C 0.9453 0.85294 0.2757 0.0
C832 C 0.98813 0.9111 0.49423 0.0
C833 C 0.9948 0.93346 0.44286 0.0
C834 C 0.9865 0.88553 0.45497 0.0
C835 C 0.99242 0.88206 0.36228 0.0
C836 C 0.99867 0.90461 0.30975 0.0
C837 C 0.99943 0.93001 0.35042 0.0
C838 C 0.97919 0.86222 0.51333 0.0
C839 C 1.00571 0.90189 0.2111 0.0
H840 H 0.04191 0.81275 0.26307 0.0
H841 H 0.96042 0.81063 0.17854 0.0
H842 H 0.05 0.87527 0.33466 0.0
H843 H 0.03773 0.86189 0.43865 0.0
H844 H 0.06022 0.84405 0.36786 0.0
H845 H 0.92933 0.83828 0.25031 0.0
H846 H 0.93952 0.85957 0.34455 0.0
H847 H 0.94637 0.87036 0.23273 0.0
H848 H 0.98432 0.91355 0.56569 0.0
H849 H 1.00479 0.94713 0.31039 0.0
H850 H 0.96359 0.84848 0.48131 0.0
H851 H 0.97162 0.8683 0.58089 0.0
H852 H 0.99713 0.85121 0.52158 0.0
H853 H 1.0095 0.92128 0.17911 0.0
H854 H 0.98919 0.89026 0.17587 0.0
H855 H 0.024 0.89105 0.20159 0.0
C856 C 0.68847 0.97606 0.26866 0.0
C857 C 0.69799 1.00118 0.23979 0.0
C858 C 0.66361 0.972 0.31627 0.0
C859 C 0.6477 0.99348 0.33431 0.0
C860 C 0.65826 0.01913 0.31112 0.0
C861 C 0.68327 0.02265 0.26532 0.0
C862 C 0.65363 0.94446 0.3423 0.0
C863 C 0.64223 0.04269 0.32844 0.0
C864 C 0.57091 0.98196 0.33927 0.0
C865 C 0.56447 0.98633 0.43005 0.0
C866 C 0.5979 0.98364 0.30773 0.0
C867 C 0.61908 0.9891 0.36885 0.0
C868 C 0.61257 0.99229 0.46143 0.0
C869 C 0.58536 0.99117 0.49067 0.0
C870 C 0.60369 0.98068 0.20832 0.0
C871 C 0.63432 0.99735 0.52944 0.0
H872 H 0.69954 0.95931 0.24904 0.0
H873 H 0.69059 0.04219 0.24412 0.0
H874 H 0.64504 0.94452 0.41166 0.0
H875 H 0.63737 0.93668 0.29715 0.0
H876 H 0.6699 0.93088 0.33757 0.0
H877 H 0.62391 0.0405 0.28757 0.0
H878 H 0.63551 0.04391 0.39974 0.0
H879 H 0.65393 0.06149 0.31157 0.0
H880 H 0.55476 0.97829 0.29231 0.0
H881 H 0.58038 0.99397 0.56121 0.0
H882 H 0.61744 0.96496 0.19472 0.0
H883 H 0.61397 0.9993 0.18322 0.0
H884 H 0.5851 0.97581 0.1699 0.0
H885 H 0.64888 0.9821 0.52187 0.0
H886 H 0.62605 0.99741 0.5993 0.0
H887 H 0.64569 0.01665 0.51785 0.0
C888 C 0.54324 0.70754 0.32186 0.0
C889 C 0.52222 0.71388 0.26853 0.0
C890 C 0.54207 0.68324 0.36495 0.0
C891 C 0.51958 0.66458 0.35281 0.0
C892 C 0.49743 0.67178 0.30472 0.0
C893 C 0.49894 0.69639 0.26399 0.0
C894 C 0.56581 0.67673 0.4177 0.0
C895 C 0.47309 0.65263 0.28919 0.0
C896 C 0.53018 0.5911 0.36435 0.0
C897 C 0.51965 0.58507 0.45004 0.0
C898 C 0.53037 0.61688 0.33194 0.0
C899 C 0.51977 0.63715 0.38637 0.0
C900 C 0.50892 0.63106 0.47237 0.0
C901 C 0.50892 0.60526 0.50279 0.0
C902 C 0.54172 0.62241 0.23906 0.0
C903 C 0.49704 0.65177 0.53222 0.0
H904 H 0.5616 0.72056 0.32334 0.0
H905 H 0.48303 0.70079 0.22035 0.0
H906 H 0.55895 0.66879 0.48356 0.0
H907 H 0.5764 0.66123 0.38088 0.0
H908 H 0.58036 0.69419 0.42902 0.0
H909 H 0.45625 0.66232 0.26096 0.0
H910 H 0.47864 0.63672 0.24147 0.0
H911 H 0.46593 0.64324 0.35244 0.0
H912 H 0.5383 0.57572 0.32263 0.0
H913 H 0.5001 0.60093 0.56828 0.0
H914 H 0.5585 0.63815 0.24256 0.0
H915 H 0.52602 0.62968 0.19751 0.0
H916 H 0.54924 0.60466 0.20504 0.0
H917 H 0.51238 0.66845 0.54491 0.0
H918 H 0.48948 0.64385 0.59745 0.0
H919 H 0.48012 0.65979 0.49865 0.0
C920 C 0.81156 0.49684 0.27899 0.0
C921 C 0.80073 0.52133 0.27945 0.0
C922 C 0.83587 0.49378 0.32158 0.0
C923 C 0.84982 0.51581 0.36511 0.0
C924 C 0.83767 0.53994 0.37258 0.0
C925 C 0.81334 0.54242 0.32951 0.0
C926 C 0.84766 0.46749 0.31402 0.0
C927 C 0.85148 0.5638 0.41971 0.0
C928 C 0.90906 0.50722 0.51444 0.0
C929 C 0.9314 0.51278 0.45626 0.0
C930 C 0.88254 0.50749 0.48537 0.0
C931 C 0.87794 0.51424 0.39641 0.0
C932 C 0.90035 0.51996 0.33726 0.0
C933 C 0.92675 0.51894 0.36757 0.0
C934 C 0.85952 0.50082 0.55077 0.0
C935 C 0.8964 0.52741 0.24195 0.0
H936 H 0.80234 0.4807 0.23831 0.0
H937 H 0.80545 0.56156 0.32792 0.0
H938 H 0.86558 0.46895 0.26809 0.0
H939 H 0.8544 0.46185 0.38029 0.0
H940 H 0.83302 0.45163 0.28786 0.0
H941 H 0.83844 0.5804 0.42628 0.0
H942 H 0.85746 0.55873 0.4875 0.0
H943 H 0.87011 0.57048 0.38158 0.0
H944 H 0.9122 0.50236 0.58321 0.0
H945 H 0.94375 0.52335 0.32209 0.0
H946 H 0.84258 0.48914 0.51779 0.0
H947 H 0.85192 0.51933 0.57835 0.0
H948 H 0.86599 0.48947 0.60731 0.0
H949 H 0.8832 0.51186 0.20758 0.0
H950 H 0.91571 0.5303 0.20315 0.0
H951 H 0.88618 0.5459 0.24157 0.0
loop_
_geom_bond_atom_site_label_1
_geom_bond_atom_site_label_2
_geom_bond_distance
_geom_bond_site_symmetry_2
_ccdc_geom_bond_type
H0 C7 0.929 . S
H1 C10 0.930 1_556 S
H2 C12 0.929 . S
H3 C4 0.969 . S
C4 H3 0.969 . S
C4 O5 1.550 1_556 S
C4 H6 0.973 . S
O5 C4 1.550 1_554 S
O5 C11 1.412 . S
H6 C4 0.973 . S
C7 H0 0.929 . S
C7 C8 1.400 . S
C7 C9 1.364 . S
C8 C7 1.400 . S
C8 C12 1.377 . S
C9 C7 1.364 . S
C9 C10 1.374 . S
C10 H1 0.930 1_554 S
C10 C9 1.374 . S
C10 C11 1.383 . S
C11 O5 1.412 . S
C11 C10 1.383 . S
C11 C12 1.394 . S
C12 H2 0.929 . S
C12 C8 1.377 . S
C12 C11 1.394 . S
H13 C20 0.928 1_655 S
H14 C23 0.931 . S
H15 C25 0.930 1_655 S
H16 C17 0.969 . S
C17 H16 0.969 . S
C17 O18 1.550 1_456 S
C17 H19 0.973 1_455 S
O18 C17 1.550 1_654 S
O18 C24 1.407 1_655 S
H19 C17 0.973 1_655 S
C20 H13 0.928 1_455 S
C20 C21 1.398 . S
C20 C22 1.364 1_554 S
C21 C20 1.398 . S
C21 C25 1.378 . S
C22 C20 1.364 1_556 S
C22 C23 1.375 1_455 S
C23 H14 0.931 . S
C23 C22 1.375 1_655 S
C23 C24 1.379 1_656 S
C24 O18 1.407 1_455 S
C24 C23 1.379 1_454 S
C24 C25 1.394 . S
C25 H15 0.930 1_455 S
C25 C21 1.378 . S
C25 C24 1.394 . S
H26 C33 0.929 . S
H27 C36 0.930 . S
H28 C38 0.929 . S
H29 C30 0.969 . S
C30 H29 0.969 . S
C30 O31 1.550 1_556 S
C30 H32 0.973 . S
O31 C30 1.550 1_554 S
O31 C37 1.412 . S
H32 C30 0.973 . S
C33 H26 0.929 . S
C33 C34 1.400 . S
C33 C35 1.364 1_554 S
C34 C33 1.400 . S
C34 C38 1.377 . S
C35 C33 1.364 1_556 S
C35 C36 1.374 . S
C36 H27 0.930 . S
C36 C35 1.374 . S
C36 C37 1.383 1_556 S
C37 O31 1.412 . S
C37 C36 1.383 1_554 S
C37 C38 1.394 . S
C38 H28 0.929 . S
C38 C34 1.377 . S
C38 C37 1.394 . S
H39 C46 0.929 . S
H40 C49 0.930 1_556 S
H41 C51 0.929 . S
H42 C43 0.969 . S
C43 H42 0.969 . S
C43 O44 1.550 . S
C43 H45 0.973 1_554 S
O44 C43 1.550 . S
O44 C50 1.412 . S
H45 C43 0.973 1_556 S
C46 H39 0.929 . S
C46 C47 1.400 . S
C46 C48 1.364 . S
C47 C46 1.400 . S
C47 C51 1.377 . S
C48 C46 1.364 . S
C48 C49 1.374 . S
C49 H40 0.930 1_554 S
C49 C48 1.374 . S
C49 C50 1.383 . S
C50 O44 1.412 . S
C50 C49 1.383 . S
C50 C51 1.394 . S
C51 H41 0.929 . S
C51 C47 1.377 . S
C51 C50 1.394 . S
H52 C59 0.929 . S
H53 C62 0.930 . S
H54 C64 0.929 . S
H55 C56 0.969 . S
C56 H55 0.969 . S
C56 O57 1.550 . S
C56 H58 0.973 . S
O57 C56 1.550 . S
O57 C63 1.412 . S
H58 C56 0.973 . S
C59 H52 0.929 . S
C59 C60 1.400 1_554 S
C59 C61 1.364 . S
C60 C59 1.400 1_556 S
C60 C64 1.377 . S
C61 C59 1.364 . S
C61 C62 1.374 . S
C62 H53 0.930 . S
C62 C61 1.374 . S
C62 C63 1.383 . S
C63 O57 1.412 . S
C63 C62 1.383 . S
C63 C64 1.394 1_554 S
C64 H54 0.929 . S
C64 C60 1.377 . S
C64 C63 1.394 1_556 S
H65 C72 0.929 1_655 S
H66 C75 0.929 . S
H67 C77 0.927 1_656 S
H68 C69 0.969 . S
C69 H68 0.969 . S
C69 O70 1.550 1_455 S
C69 H71 0.973 1_455 S
O70 C69 1.550 1_655 S
O70 C76 1.399 1_655 S
H71 C69 0.973 1_655 S
C72 H65 0.929 1_455 S
C72 C73 1.401 1_554 S
C72 C74 1.364 . S
C73 C72 1.401 1_556 S
C73 C77 1.376 1_556 S
C74 C72 1.364 . S
C74 C75 1.374 1_455 S
C75 H66 0.929 . S
C75 C74 1.374 1_655 S
C75 C76 1.385 1_655 S
C76 O70 1.399 1_455 S
C76 C75 1.385 1_455 S
C76 C77 1.394 . S
C77 H67 0.927 1_454 S
C77 C73 1.376 1_554 S
C77 C76 1.394 . S
H78 C85 0.929 . S
H79 C88 0.930 . S
H80 C90 0.929 1_556 S
H81 C82 0.969 . S
C82 H81 0.969 . S
C82 O83 1.550 . S
C82 H84 0.973 . S
O83 C82 1.550 . S
O83 C89 1.412 . S
H84 C82 0.973 . S
C85 H78 0.929 . S
C85 C86 1.400 . S
C85 C87 1.364 . S
C86 C85 1.400 . S
C86 C90 1.377 . S
C87 C85 1.364 . S
C87 C88 1.374 . S
C88 H79 0.930 . S
C88 C87 1.374 . S
C88 C89 1.383 . S
C89 O83 1.412 . S
C89 C88 1.383 . S
C89 C90 1.394 . S
C90 H80 0.929 1_554 S
C90 C86 1.377 . S
C90 C89 1.394 . S
H91 C98 0.929 . S
H92 C101 0.930 . S
H93 C103 0.929 . S
H94 C95 0.969 . S
C95 H94 0.969 . S
C95 O96 1.550 . S
C95 H97 0.973 . S
O96 C95 1.550 . S
O96 C102 1.412 . S
H97 C95 0.973 . S
C98 H91 0.929 . S
C98 C99 1.400 1_554 S
C98 C100 1.364 . S
C99 C98 1.400 1_556 S
C99 C103 1.377 . S
C100 C98 1.364 . S
C100 C101 1.374 . S
C101 H92 0.930 . S
C101 C100 1.374 . S
C101 C102 1.383 . S
C102 O96 1.412 . S
C102 C101 1.383 . S
C102 C103 1.394 1_554 S
C103 H93 0.929 . S
C103 C99 1.377 . S
C103 C102 1.394 1_556 S
Dy104 O108 2.398 . S
Dy104 O109 2.491 1_455 S
Dy104 O110 2.403 . S
Dy104 O111 2.664 1_565 S
Dy104 O115 2.326 . S
Dy104 O119 2.310 1_455 S
Dy104 O120 2.351 1_565 S
C105 O116 1.185 . S
C105 O117 1.355 1_655 S
C106 O108 1.185 . S
C106 O109 1.355 1_455 S
Dy107 O111 2.310 1_655 S
Dy107 O114 2.351 1_545 S
Dy107 O116 2.398 . S
Dy107 O117 2.491 1_655 S
Dy107 O118 2.403 . S
Dy107 O119 2.664 1_545 S
Dy107 O121 2.326 . S
O108 Dy104 2.398 . S
O108 C106 1.185 . S
O109 Dy104 2.491 1_655 S
O109 C106 1.355 1_655 S
O110 Dy104 2.403 . S
O110 C112 1.254 1_565 S
O111 Dy104 2.664 1_545 S
O111 Dy107 2.310 1_455 S
O111 C112 1.268 . S
C112 O110 1.254 1_545 S
C112 O111 1.268 . S
C113 O118 1.254 1_565 S
C113 O119 1.268 . S
O114 Dy107 2.351 1_565 S
O114 C122 1.249 . S
O115 Dy104 2.326 . S
O115 C122 1.267 1_455 S
O116 C105 1.185 . S
O116 Dy107 2.398 . S
O117 C105 1.355 1_455 S
O117 Dy107 2.491 1_455 S
O118 Dy107 2.403 . S
O118 C113 1.254 1_545 S
O119 Dy104 2.310 1_655 S
O119 Dy107 2.664 1_565 S
O119 C113 1.268 . S
O120 Dy104 2.351 1_545 S
O120 C123 1.249 . S
O121 Dy107 2.326 . S
O121 C123 1.267 1_655 S
C122 O114 1.249 . S
C122 O115 1.267 1_655 S
C123 O120 1.249 . S
C123 O121 1.267 1_455 S
Dy124 O128 2.398 . S
Dy124 O129 2.491 1_565 S
Dy124 O130 2.403 . S
Dy124 O131 2.664 . S
Dy124 O135 2.326 1_565 S
Dy124 O139 2.310 1_565 S
Dy124 O140 2.351 . S
C125 O136 1.191 . S
C125 O137 1.353 1_545 S
C126 O128 1.185 1_545 S
C126 O129 1.355 . S
Dy127 O131 2.310 1_545 S
Dy127 O134 2.351 . S
Dy127 O136 2.398 . S
Dy127 O137 2.491 1_545 S
Dy127 O138 2.403 . S
Dy127 O139 2.664 . S
Dy127 O141 2.326 1_545 S
O128 Dy124 2.398 . S
O128 C126 1.185 1_565 S
O129 Dy124 2.491 1_545 S
O129 C126 1.355 . S
O130 Dy124 2.403 . S
O130 C132 1.254 . S
O131 Dy124 2.664 . S
O131 Dy127 2.310 1_565 S
O131 C132 1.268 . S
C132 O130 1.254 . S
C132 O131 1.268 . S
C133 O138 1.254 . S
C133 O139 1.268 . S
O134 Dy127 2.351 . S
O134 C142 1.249 . S
O135 Dy124 2.326 1_545 S
O135 C142 1.267 . S
O136 C125 1.191 . S
O136 Dy127 2.398 . S
O137 C125 1.353 1_565 S
O137 Dy127 2.491 1_565 S
O138 Dy127 2.403 . S
O138 C133 1.254 . S
O139 Dy124 2.310 1_545 S
O139 Dy127 2.664 . S
O139 C133 1.268 . S
O140 Dy124 2.351 . S
O140 C143 1.249 . S
O141 Dy127 2.326 1_565 S
O141 C143 1.267 . S
C142 O134 1.249 . S
C142 O135 1.267 . S
C143 O140 1.249 . S
C143 O141 1.267 . S
Dy144 O148 2.398 . S
Dy144 O149 2.491 . S
Dy144 O150 2.403 . S
Dy144 O151 2.664 . S
Dy144 O155 2.326 . S
Dy144 O159 2.310 . S
Dy144 O160 2.351 . S
C145 O156 1.185 . S
C145 O157 1.355 . S
C146 O148 1.185 . S
C146 O149 1.355 . S
Dy147 O151 2.310 . S
Dy147 O154 2.351 . S
Dy147 O156 2.398 . S
Dy147 O157 2.491 . S
Dy147 O158 2.403 . S
Dy147 O159 2.664 . S
Dy147 O161 2.326 . S
O148 Dy144 2.398 . S
O148 C146 1.185 . S
O149 Dy144 2.491 . S
O149 C146 1.355 . S
O150 Dy144 2.403 . S
O150 C152 1.254 . S
O151 Dy144 2.664 . S
O151 Dy147 2.310 . S
O151 C152 1.268 . S
C152 O150 1.254 . S
C152 O151 1.268 . S
C153 O158 1.254 . S
C153 O159 1.268 . S
O154 Dy147 2.351 . S
O154 C162 1.249 . S
O155 Dy144 2.326 . S
O155 C162 1.267 . S
O156 C145 1.185 . S
O156 Dy147 2.398 . S
O157 C145 1.355 . S
O157 Dy147 2.491 . S
O158 Dy147 2.403 . S
O158 C153 1.254 . S
O159 Dy144 2.310 . S
O159 Dy147 2.664 . S
O159 C153 1.268 . S
O160 Dy144 2.351 . S
O160 C163 1.249 . S
O161 Dy147 2.326 . S
O161 C163 1.267 . S
C162 O154 1.249 . S
C162 O155 1.267 . S
C163 O160 1.249 . S
C163 O161 1.267 . S
Dy164 O168 2.398 . S
Dy164 O169 2.491 . S
Dy164 O170 2.403 . S
Dy164 O171 2.664 1_655 S
Dy164 O175 2.326 . S
Dy164 O179 2.310 . S
Dy164 O180 2.351 1_655 S
C165 O176 1.185 . S
C165 O177 1.355 . S
C166 O168 1.185 . S
C166 O169 1.355 . S
Dy167 O171 2.310 . S
Dy167 O174 2.351 1_455 S
Dy167 O176 2.398 . S
Dy167 O177 2.491 . S
Dy167 O178 2.403 . S
Dy167 O179 2.664 1_455 S
Dy167 O181 2.326 . S
O168 Dy164 2.398 . S
O168 C166 1.185 . S
O169 Dy164 2.491 . S
O169 C166 1.355 . S
O170 Dy164 2.403 . S
O170 C172 1.254 . S
O171 Dy164 2.664 1_455 S
O171 Dy167 2.310 . S
O171 C172 1.268 1_455 S
C172 O170 1.254 . S
C172 O171 1.268 1_655 S
C173 O178 1.254 . S
C173 O179 1.268 1_455 S
O174 Dy167 2.351 1_655 S
O174 C182 1.249 . S
O175 Dy164 2.326 . S
O175 C182 1.267 . S
O176 C165 1.185 . S
O176 Dy167 2.398 . S
O177 C165 1.355 . S
O177 Dy167 2.491 . S
O178 Dy167 2.403 . S
O178 C173 1.254 . S
O179 Dy164 2.310 . S
O179 Dy167 2.664 1_655 S
O179 C173 1.268 1_655 S
O180 Dy164 2.351 1_455 S
O180 C183 1.249 . S
O181 Dy167 2.326 . S
O181 C183 1.267 . S
C182 O174 1.249 . S
C182 O175 1.267 . S
C183 O180 1.249 . S
C183 O181 1.267 . S
C184 C185 1.391 . S
C184 C186 1.394 . S
C184 H200 0.931 . S
C185 C184 1.391 . S
C185 C189 1.376 . S
C186 C184 1.394 . S
C186 C187 1.369 . S
C186 C190 1.531 . S
C187 C186 1.369 . S
C187 C188 1.410 . S
C187 C195 1.503 . S
C188 C187 1.410 . S
C188 C189 1.392 . S
C188 C191 1.503 1_545 S
C189 C185 1.376 . S
C189 C188 1.392 . S
C189 H201 0.929 . S
C190 C186 1.531 . S
C190 H202 0.960 . S
C190 H203 0.962 . S
C190 H204 0.960 . S
C191 C188 1.503 1_565 S
C191 H205 0.960 1_565 S
C191 H206 0.958 1_565 S
C191 H207 0.972 . S
C192 C193 1.370 . S
C192 C194 1.363 . S
C192 H208 0.931 . S
C193 C192 1.370 . S
C193 C197 1.408 1_545 S
C194 C192 1.363 . S
C194 C195 1.370 . S
C194 C198 1.524 . S
C195 C187 1.503 . S
C195 C194 1.370 . S
C195 C196 1.406 . S
C196 C195 1.406 . S
C196 C197 1.403 1_545 S
C196 C199 1.536 1_545 S
C197 C193 1.408 1_565 S
C197 C196 1.403 1_565 S
C197 H209 0.930 . S
C198 C194 1.524 . S
C198 H210 0.956 . S
C198 H211 0.961 . S
C198 H212 0.961 . S
C199 C196 1.536 1_565 S
C199 H213 0.958 . S
C199 H214 0.961 . S
C199 H215 0.960 . S
H200 C184 0.931 . S
H201 C189 0.929 . S
H202 C190 0.960 . S
H203 C190 0.962 . S
H204 C190 0.960 . S
H205 C191 0.960 1_545 S
H206 C191 0.958 1_545 S
H207 C191 0.972 . S
H208 C192 0.931 . S
H209 C197 0.930 . S
H210 C198 0.956 . S
H211 C198 0.961 . S
H212 C198 0.961 . S
H213 C199 0.958 . S
H214 C199 0.961 . S
H215 C199 0.960 . S
C216 C217 1.391 . S
C216 C218 1.394 . S
C216 H232 0.931 . S
C217 C216 1.391 . S
C217 C221 1.376 . S
C218 C216 1.394 . S
C218 C219 1.369 . S
C218 C222 1.531 . S
C219 C218 1.369 . S
C219 C220 1.410 . S
C219 C227 1.503 . S
C220 C219 1.410 . S
C220 C221 1.392 . S
C220 C223 1.511 . S
C221 C217 1.376 . S
C221 C220 1.392 . S
C221 H233 0.929 . S
C222 C218 1.531 . S
C222 H234 0.960 . S
C222 H235 0.962 . S
C222 H236 0.960 . S
C223 C220 1.511 . S
C223 H237 0.961 . S
C223 H238 0.961 . S
C223 H239 0.961 . S
C224 C225 1.370 . S
C224 C226 1.363 . S
C224 H240 0.931 . S
C225 C224 1.370 . S
C225 C229 1.408 . S
C226 C224 1.363 . S
C226 C227 1.370 . S
C226 C230 1.524 . S
C227 C219 1.503 . S
C227 C226 1.370 . S
C227 C228 1.403 . S
C228 C227 1.403 . S
C228 C229 1.404 . S
C228 C231 1.539 . S
C229 C225 1.408 . S
C229 C228 1.404 . S
C229 H241 0.930 . S
C230 C226 1.524 . S
C230 H242 0.956 . S
C230 H243 0.961 . S
C230 H244 0.961 . S
C231 C228 1.539 . S
C231 H245 0.958 . S
C231 H246 0.961 . S
C231 H247 0.960 . S
H232 C216 0.931 . S
H233 C221 0.929 . S
H234 C222 0.960 . S
H235 C222 0.962 . S
H236 C222 0.960 . S
H237 C223 0.961 . S
H238 C223 0.961 . S
H239 C223 0.961 . S
H240 C224 0.931 . S
H241 C229 0.930 . S
H242 C230 0.956 . S
H243 C230 0.961 . S
H244 C230 0.961 . S
H245 C231 0.958 . S
H246 C231 0.961 . S
H247 C231 0.960 . S
C248 C249 1.391 . S
C248 C250 1.394 . S
C248 H264 0.931 . S
C249 C248 1.391 . S
C249 C253 1.376 . S
C250 C248 1.394 . S
C250 C251 1.369 . S
C250 C254 1.531 . S
C251 C250 1.369 . S
C251 C252 1.410 . S
C251 C259 1.503 . S
C252 C251 1.410 . S
C252 C253 1.392 . S
C252 C255 1.511 . S
C253 C249 1.376 . S
C253 C252 1.392 . S
C253 H265 0.929 . S
C254 C250 1.531 . S
C254 H266 0.960 . S
C254 H267 0.962 . S
C254 H268 0.960 . S
C255 C252 1.511 . S
C255 H269 0.961 . S
C255 H270 0.961 . S
C255 H271 0.961 . S
C256 C257 1.370 . S
C256 C258 1.363 . S
C256 H272 0.931 . S
C257 C256 1.370 . S
C257 C261 1.408 . S
C258 C256 1.363 . S
C258 C259 1.370 . S
C258 C262 1.524 . S
C259 C251 1.503 . S
C259 C258 1.370 . S
C259 C260 1.403 . S
C260 C259 1.403 . S
C260 C261 1.404 . S
C260 C263 1.539 . S
C261 C257 1.408 . S
C261 C260 1.404 . S
C261 H273 0.930 . S
C262 C258 1.524 . S
C262 H274 0.956 . S
C262 H275 0.961 . S
C262 H276 0.961 . S
C263 C260 1.539 . S
C263 H277 0.958 . S
C263 H278 0.961 . S
C263 H279 0.960 . S
H264 C248 0.931 . S
H265 C253 0.929 . S
H266 C254 0.960 . S
H267 C254 0.962 . S
H268 C254 0.960 . S
H269 C255 0.961 . S
H270 C255 0.961 . S
H271 C255 0.961 . S
H272 C256 0.931 . S
H273 C261 0.930 . S
H274 C262 0.956 . S
H275 C262 0.961 . S
H276 C262 0.961 . S
H277 C263 0.958 . S
H278 C263 0.961 . S
H279 C263 0.960 . S
C280 C281 1.391 1_655 S
C280 C282 1.394 . S
C280 H296 0.931 . S
C281 C280 1.391 1_455 S
C281 C285 1.376 . S
C282 C280 1.394 . S
C282 C283 1.369 1_655 S
C282 C286 1.531 . S
C283 C282 1.369 1_455 S
C283 C284 1.410 . S
C283 C291 1.503 . S
C284 C283 1.410 . S
C284 C285 1.392 . S
C284 C287 1.511 . S
C285 C281 1.376 . S
C285 C284 1.392 . S
C285 H297 0.929 . S
C286 C282 1.531 . S
C286 H298 0.960 . S
C286 H299 0.962 . S
C286 H300 0.960 . S
C287 C284 1.511 . S
C287 H301 0.961 . S
C287 H302 0.961 . S
C287 H303 0.961 . S
C288 C289 1.374 . S
C288 C290 1.363 . S
C288 H304 0.931 . S
C289 C288 1.374 . S
C289 C293 1.404 1_655 S
C290 C288 1.363 . S
C290 C291 1.370 1_655 S
C290 C294 1.524 . S
C291 C283 1.503 . S
C291 C290 1.370 1_455 S
C291 C292 1.403 . S
C292 C291 1.403 . S
C292 C293 1.404 . S
C292 C295 1.539 . S
C293 C289 1.404 1_455 S
C293 C292 1.404 . S
C293 H305 0.930 . S
C294 C290 1.524 . S
C294 H306 0.956 . S
C294 H307 0.961 . S
C294 H308 0.961 . S
C295 C292 1.539 . S
C295 H309 0.958 . S
C295 H310 0.961 . S
C295 H311 0.960 . S
H296 C280 0.931 . S
H297 C285 0.929 . S
H298 C286 0.960 . S
H299 C286 0.962 . S
H300 C286 0.960 . S
H301 C287 0.961 . S
H302 C287 0.961 . S
H303 C287 0.961 . S
H304 C288 0.931 . S
H305 C293 0.930 . S
H306 C294 0.956 . S
H307 C294 0.961 . S
H308 C294 0.961 . S
H309 C295 0.958 . S
H310 C295 0.961 . S
H311 C295 0.960 . S
C312 C313 1.391 . S
C312 C314 1.394 . S
C312 H328 0.931 . S
C313 C312 1.391 . S
C313 C317 1.376 . S
C314 C312 1.394 . S
C314 C315 1.369 . S
C314 C318 1.531 . S
C315 C314 1.369 . S
C315 C316 1.410 . S
C315 C323 1.503 . S
C316 C315 1.410 . S
C316 C317 1.392 . S
C316 C319 1.511 . S
C317 C313 1.376 . S
C317 C316 1.392 . S
C317 H329 0.929 1_556 S
C318 C314 1.531 . S
C318 H330 0.937 1_565 S
C318 H331 0.962 . S
C318 H332 0.960 . S
C319 C316 1.511 . S
C319 H333 0.961 1_556 S
C319 H334 0.961 . S
C319 H335 0.961 . S
C320 C321 1.370 . S
C320 C322 1.363 . S
C320 H336 0.931 . S
C321 C320 1.370 . S
C321 C325 1.408 1_565 S
C322 C320 1.363 . S
C322 C323 1.370 . S
C322 C326 1.524 . S
C323 C315 1.503 . S
C323 C322 1.370 . S
C323 C324 1.403 1_565 S
C324 C323 1.403 1_545 S
C324 C325 1.404 . S
C324 C327 1.539 . S
C325 C321 1.408 1_545 S
C325 C324 1.404 . S
C325 H337 0.930 . S
C326 C322 1.524 . S
C326 H338 0.956 . S
C326 H339 0.961 . S
C326 H340 0.961 . S
C327 C324 1.539 . S
C327 H341 0.958 . S
C327 H342 0.961 . S
C327 H343 0.960 . S
H328 C312 0.931 . S
H329 C317 0.929 1_554 S
H330 C318 0.937 1_545 S
H331 C318 0.962 . S
H332 C318 0.960 . S
H333 C319 0.961 1_554 S
H334 C319 0.961 . S
H335 C319 0.961 . S
H336 C320 0.931 . S
H337 C325 0.930 . S
H338 C326 0.956 . S
H339 C326 0.961 . S
H340 C326 0.961 . S
H341 C327 0.958 . S
H342 C327 0.961 . S
H343 C327 0.960 . S
C344 C345 1.391 . S
C344 C346 1.394 1_554 S
C344 H360 0.931 . S
C345 C344 1.391 . S
C345 C349 1.376 1_554 S
C346 C344 1.394 1_556 S
C346 C347 1.369 . S
C346 C350 1.531 . S
C347 C346 1.369 . S
C347 C348 1.410 . S
C347 C355 1.503 . S
C348 C347 1.410 . S
C348 C349 1.392 . S
C348 C351 1.511 . S
C349 C345 1.376 1_556 S
C349 C348 1.392 . S
C349 H361 0.929 . S
C350 C346 1.531 . S
C350 H362 0.960 . S
C350 H363 0.962 . S
C350 H364 0.960 1_556 S
C351 C348 1.511 . S
C351 H365 0.961 . S
C351 H366 0.961 . S
C351 H367 0.961 . S
C352 C353 1.370 . S
C352 C354 1.363 . S
C352 H368 0.931 . S
C353 C352 1.370 . S
C353 C357 1.408 . S
C354 C352 1.363 . S
C354 C355 1.370 . S
C354 C358 1.524 . S
C355 C347 1.503 . S
C355 C354 1.370 . S
C355 C356 1.403 . S
C356 C355 1.403 . S
C356 C357 1.404 . S
C356 C359 1.539 . S
C357 C353 1.408 . S
C357 C356 1.404 . S
C357 H369 0.930 . S
C358 C354 1.524 . S
C358 H370 0.956 . S
C358 H371 0.961 . S
C358 H372 0.961 . S
C359 C356 1.539 . S
C359 H373 0.958 . S
C359 H374 0.961 . S
C359 H375 0.960 . S
H360 C344 0.931 . S
H361 C349 0.929 . S
H362 C350 0.960 . S
H363 C350 0.962 . S
H364 C350 0.960 1_554 S
H365 C351 0.961 . S
H366 C351 0.961 . S
H367 C351 0.961 . S
H368 C352 0.931 . S
H369 C357 0.930 . S
H370 C358 0.956 . S
H371 C358 0.961 . S
H372 C358 0.961 . S
H373 C359 0.958 . S
H374 C359 0.961 . S
H375 C359 0.960 . S
C376 C377 1.391 . S
C376 C378 1.394 . S
C376 H392 0.931 . S
C377 C376 1.391 . S
C377 C381 1.376 1_556 S
C378 C376 1.394 . S
C378 C379 1.369 . S
C378 C382 1.531 . S
C379 C378 1.369 . S
C379 C380 1.410 . S
C379 C387 1.503 . S
C380 C379 1.410 . S
C380 C381 1.392 1_556 S
C380 C383 1.511 . S
C381 C377 1.376 1_554 S
C381 C380 1.392 1_554 S
C381 H393 0.929 . S
C382 C378 1.531 . S
C382 H394 0.960 . S
C382 H395 0.962 . S
C382 H396 0.960 . S
C383 C380 1.511 . S
C383 H397 0.961 1_556 S
C383 H398 0.961 . S
C383 H399 0.961 1_556 S
C384 C385 1.370 . S
C384 C386 1.363 . S
C384 H400 0.931 . S
C385 C384 1.370 . S
C385 C389 1.408 . S
C386 C384 1.363 . S
C386 C387 1.370 . S
C386 C390 1.524 . S
C387 C379 1.503 . S
C387 C386 1.370 . S
C387 C388 1.403 . S
C388 C387 1.403 . S
C388 C389 1.404 . S
C388 C391 1.539 . S
C389 C385 1.408 . S
C389 C388 1.404 . S
C389 H401 0.930 . S
C390 C386 1.524 . S
C390 H402 0.956 . S
C390 H403 0.961 . S
C390 H404 0.961 . S
C391 C388 1.539 . S
C391 H405 0.958 . S
C391 H406 0.961 . S
C391 H407 0.960 . S
H392 C376 0.931 . S
H393 C381 0.929 . S
H394 C382 0.960 . S
H395 C382 0.962 . S
H396 C382 0.960 . S
H397 C383 0.961 1_554 S
H398 C383 0.961 . S
H399 C383 0.961 1_554 S
H400 C384 0.931 . S
H401 C389 0.930 . S
H402 C390 0.956 . S
H403 C390 0.961 . S
H404 C390 0.961 . S
H405 C391 0.958 . S
H406 C391 0.961 . S
H407 C391 0.960 . S
C408 C409 1.421 . S
C408 C410 1.394 . S
C408 H424 0.931 . S
C409 C408 1.421 . S
C409 C413 1.346 1_655 S
C410 C408 1.394 . S
C410 C411 1.369 . S
C410 C414 1.531 . S
C411 C410 1.369 . S
C411 C412 1.410 1_655 S
C411 C419 1.503 . S
C412 C411 1.410 1_455 S
C412 C413 1.392 . S
C412 C415 1.511 . S
C413 C409 1.346 1_455 S
C413 C412 1.392 . S
C413 H425 0.929 . S
C414 C410 1.531 . S
C414 H426 0.960 . S
C414 H427 0.962 . S
C414 H428 0.960 . S
C415 C412 1.511 . S
C415 H429 0.961 . S
C415 H430 0.961 . S
C415 H431 0.961 . S
C416 C417 1.383 . S
C416 C418 1.363 . S
C416 H432 0.931 . S
C417 C416 1.383 . S
C417 C421 1.391 1_455 S
C418 C416 1.363 . S
C418 C419 1.370 1_455 S
C418 C422 1.524 . S
C419 C411 1.503 . S
C419 C418 1.370 1_655 S
C419 C420 1.403 . S
C420 C419 1.403 . S
C420 C421 1.404 . S
C420 C423 1.539 . S
C421 C417 1.391 1_655 S
C421 C420 1.404 . S
C421 H433 0.930 . S
C422 C418 1.524 . S
C422 H434 0.956 . S
C422 H435 0.961 . S
C422 H436 0.961 . S
C423 C420 1.539 . S
C423 H437 0.958 . S
C423 H438 0.961 . S
C423 H439 0.960 . S
H424 C408 0.931 . S
H425 C413 0.929 . S
H426 C414 0.960 . S
H427 C414 0.962 . S
H428 C414 0.960 . S
H429 C415 0.961 . S
H430 C415 0.961 . S
H431 C415 0.961 . S
H432 C416 0.931 . S
H433 C421 0.930 . S
H434 C422 0.956 . S
H435 C422 0.961 . S
H436 C422 0.961 . S
H437 C423 0.958 . S
H438 C423 0.961 . S
H439 C423 0.960 . S
C440 C441 1.391 1_455 S
C440 C442 1.394 . S
C440 H456 0.931 . S
C441 C440 1.391 1_655 S
C441 C445 1.376 . S
C442 C440 1.394 . S
C442 C443 1.369 1_455 S
C442 C446 1.531 . S
C443 C442 1.369 1_655 S
C443 C444 1.410 . S
C443 C451 1.503 . S
C444 C443 1.410 . S
C444 C445 1.392 . S
C444 C447 1.511 . S
C445 C441 1.376 . S
C445 C444 1.392 . S
C445 H457 0.929 . S
C446 C442 1.531 . S
C446 H458 0.960 . S
C446 H459 0.962 . S
C446 H460 0.960 . S
C447 C444 1.511 . S
C447 H461 0.961 . S
C447 H462 0.961 . S
C447 H463 0.961 . S
C448 C449 1.370 1_455 S
C448 C450 1.363 . S
C448 H464 0.931 . S
C449 C448 1.370 1_655 S
C449 C453 1.408 . S
C450 C448 1.363 . S
C450 C451 1.370 1_455 S
C450 C454 1.524 . S
C451 C443 1.503 . S
C451 C450 1.370 1_655 S
C451 C452 1.403 . S
C452 C451 1.403 . S
C452 C453 1.404 . S
C452 C455 1.539 . S
C453 C449 1.408 . S
C453 C452 1.404 . S
C453 H465 0.930 . S
C454 C450 1.524 . S
C454 H466 0.956 . S
C454 H467 0.961 . S
C454 H468 0.961 . S
C455 C452 1.539 . S
C455 H469 0.958 . S
C455 H470 0.961 . S
C455 H471 0.960 . S
H456 C440 0.931 . S
H457 C445 0.929 . S
H458 C446 0.960 . S
H459 C446 0.962 . S
H460 C446 0.960 . S
H461 C447 0.961 . S
H462 C447 0.961 . S
H463 C447 0.961 . S
H464 C448 0.931 . S
H465 C453 0.930 . S
H466 C454 0.956 . S
H467 C454 0.961 . S
H468 C454 0.961 . S
H469 C455 0.958 . S
H470 C455 0.961 . S
H471 C455 0.960 . S
C472 C473 1.391 . S
C472 C474 1.394 . S
C472 H488 0.931 . S
C473 C472 1.391 . S
C473 C477 1.376 . S
C474 C472 1.394 . S
C474 C475 1.369 . S
C474 C478 1.533 . S
C475 C474 1.369 . S
C475 C476 1.410 . S
C475 C483 1.503 . S
C476 C475 1.410 . S
C476 C477 1.392 . S
C476 C479 1.511 . S
C477 C473 1.376 . S
C477 C476 1.392 . S
C477 H489 0.929 . S
C478 C474 1.533 . S
C478 H490 0.957 1_545 S
C478 H491 0.964 . S
C478 H492 0.959 1_545 S
C479 C476 1.511 . S
C479 H493 0.961 . S
C479 H494 0.961 . S
C479 H495 0.961 . S
C480 C481 1.370 . S
C480 C482 1.363 . S
C480 H496 0.931 . S
C481 C480 1.370 . S
C481 C485 1.408 1_545 S
C482 C480 1.363 . S
C482 C483 1.370 . S
C482 C486 1.524 . S
C483 C475 1.503 . S
C483 C482 1.370 . S
C483 C484 1.403 1_545 S
C484 C483 1.403 1_565 S
C484 C485 1.404 . S
C484 C487 1.539 . S
C485 C481 1.408 1_565 S
C485 C484 1.404 . S
C485 H497 0.930 . S
C486 C482 1.524 . S
C486 H498 0.956 . S
C486 H499 0.961 . S
C486 H500 0.961 . S
C487 C484 1.539 . S
C487 H501 0.958 . S
C487 H502 0.961 . S
C487 H503 0.960 . S
H488 C472 0.931 . S
H489 C477 0.929 . S
H490 C478 0.957 1_565 S
H491 C478 0.964 . S
H492 C478 0.959 1_565 S
H493 C479 0.961 . S
H494 C479 0.961 . S
H495 C479 0.961 . S
H496 C480 0.931 . S
H497 C485 0.930 . S
H498 C486 0.956 . S
H499 C486 0.961 . S
H500 C486 0.961 . S
H501 C487 0.958 . S
H502 C487 0.961 . S
H503 C487 0.960 . S
C504 C505 1.391 . S
C504 C506 1.394 . S
C504 H520 0.931 . S
C505 C504 1.391 . S
C505 C509 1.376 . S
C506 C504 1.394 . S
C506 C507 1.369 . S
C506 C510 1.531 . S
C507 C506 1.369 . S
C507 C508 1.410 . S
C507 C515 1.503 . S
C508 C507 1.410 . S
C508 C509 1.392 . S
C508 C511 1.511 . S
C509 C505 1.376 . S
C509 C508 1.392 . S
C509 H521 0.929 . S
C510 C506 1.531 . S
C510 H522 0.960 . S
C510 H523 0.962 . S
C510 H524 0.960 . S
C511 C508 1.511 . S
C511 H525 0.961 . S
C511 H526 0.961 . S
C511 H527 0.961 . S
C512 C513 1.370 . S
C512 C514 1.363 . S
C512 H528 0.931 . S
C513 C512 1.370 . S
C513 C517 1.408 . S
C514 C512 1.363 . S
C514 C515 1.370 . S
C514 C518 1.524 . S
C515 C507 1.503 . S
C515 C514 1.370 . S
C515 C516 1.403 . S
C516 C515 1.403 . S
C516 C517 1.404 . S
C516 C519 1.539 . S
C517 C513 1.408 . S
C517 C516 1.404 . S
C517 H529 0.930 . S
C518 C514 1.524 . S
C518 H530 0.956 . S
C518 H531 0.961 . S
C518 H532 0.961 . S
C519 C516 1.539 . S
C519 H533 0.958 . S
C519 H534 0.961 . S
C519 H535 0.960 . S
H520 C504 0.931 . S
H521 C509 0.929 . S
H522 C510 0.960 . S
H523 C510 0.962 . S
H524 C510 0.960 . S
H525 C511 0.961 . S
H526 C511 0.961 . S
H527 C511 0.961 . S
H528 C512 0.931 . S
H529 C517 0.930 . S
H530 C518 0.956 . S
H531 C518 0.961 . S
H532 C518 0.961 . S
H533 C519 0.958 . S
H534 C519 0.961 . S
H535 C519 0.960 . S
C536 C537 1.391 . S
C536 C538 1.394 . S
C536 H552 0.931 . S
C537 C536 1.391 . S
C537 C541 1.376 . S
C538 C536 1.394 . S
C538 C539 1.369 . S
C538 C542 1.531 . S
C539 C538 1.369 . S
C539 C540 1.410 . S
C539 C547 1.503 . S
C540 C539 1.410 . S
C540 C541 1.392 . S
C540 C543 1.511 . S
C541 C537 1.376 . S
C541 C540 1.392 . S
C541 H553 0.929 . S
C542 C538 1.531 . S
C542 H554 0.960 . S
C542 H555 0.962 . S
C542 H556 0.960 . S
C543 C540 1.511 . S
C543 H557 0.961 . S
C543 H558 0.961 . S
C543 H559 0.961 . S
C544 C545 1.370 . S
C544 C546 1.363 . S
C544 H560 0.931 . S
C545 C544 1.370 . S
C545 C549 1.408 . S
C546 C544 1.363 . S
C546 C547 1.370 . S
C546 C550 1.524 . S
C547 C539 1.503 . S
C547 C546 1.370 . S
C547 C548 1.403 . S
C548 C547 1.403 . S
C548 C549 1.404 . S
C548 C551 1.539 . S
C549 C545 1.408 . S
C549 C548 1.404 . S
C549 H561 0.930 . S
C550 C546 1.524 . S
C550 H562 0.956 . S
C550 H563 0.961 . S
C550 H564 0.961 . S
C551 C548 1.539 . S
C551 H565 0.958 . S
C551 H566 0.961 . S
C551 H567 0.960 . S
H552 C536 0.931 . S
H553 C541 0.929 . S
H554 C542 0.960 . S
H555 C542 0.962 . S
H556 C542 0.960 . S
H557 C543 0.961 . S
H558 C543 0.961 . S
H559 C543 0.961 . S
H560 C544 0.931 . S
H561 C549 0.930 . S
H562 C550 0.956 . S
H563 C550 0.961 . S
H564 C550 0.961 . S
H565 C551 0.958 . S
H566 C551 0.961 . S
H567 C551 0.960 . S
C568 C569 1.413 . S
C568 C570 1.394 . S
C568 H584 0.931 . S
C569 C568 1.413 . S
C569 C573 1.355 1_655 S
C570 C568 1.394 . S
C570 C571 1.369 1_655 S
C570 C574 1.531 . S
C571 C570 1.369 1_455 S
C571 C572 1.410 . S
C571 C579 1.503 . S
C572 C571 1.410 . S
C572 C573 1.392 . S
C572 C575 1.511 . S
C573 C569 1.355 1_455 S
C573 C572 1.392 . S
C573 H585 0.929 . S
C574 C570 1.531 . S
C574 H586 0.960 . S
C574 H587 0.962 . S
C574 H588 0.960 . S
C575 C572 1.511 . S
C575 H589 0.961 . S
C575 H590 0.961 . S
C575 H591 0.961 . S
C576 C577 1.370 . S
C576 C578 1.363 . S
C576 H592 0.931 . S
C577 C576 1.370 . S
C577 C581 1.408 . S
C578 C576 1.363 . S
C578 C579 1.370 . S
C578 C582 1.524 . S
C579 C571 1.503 . S
C579 C578 1.370 . S
C579 C580 1.411 . S
C580 C579 1.411 . S
C580 C581 1.405 . S
C580 C583 1.532 1_455 S
C581 C577 1.408 . S
C581 C580 1.405 . S
C581 H593 0.937 . S
C582 C578 1.524 . S
C582 H594 0.956 . S
C582 H595 0.961 . S
C582 H596 0.961 . S
C583 C580 1.532 1_655 S
C583 H597 0.958 . S
C583 H598 0.964 1_556 S
C583 H599 0.966 1_556 S
H584 C568 0.931 . S
H585 C573 0.929 . S
H586 C574 0.960 . S
H587 C574 0.962 . S
H588 C574 0.960 . S
H589 C575 0.961 . S
H590 C575 0.961 . S
H591 C575 0.961 . S
H592 C576 0.931 . S
H593 C581 0.937 . S
H594 C582 0.956 . S
H595 C582 0.961 . S
H596 C582 0.961 . S
H597 C583 0.958 . S
H598 C583 0.964 1_554 S
H599 C583 0.966 1_554 S
C600 C601 1.391 . S
C600 C602 1.394 . S
C600 H616 0.931 . S
C601 C600 1.391 . S
C601 C605 1.376 . S
C602 C600 1.394 . S
C602 C603 1.369 . S
C602 C606 1.531 1_565 S
C603 C602 1.369 . S
C603 C604 1.410 . S
C603 C611 1.503 . S
C604 C603 1.410 . S
C604 C605 1.392 . S
C604 C607 1.511 . S
C605 C601 1.376 . S
C605 C604 1.392 . S
C605 H617 0.929 . S
C606 C602 1.531 1_545 S
C606 H618 0.960 . S
C606 H619 0.962 . S
C606 H620 0.960 . S
C607 C604 1.511 . S
C607 H621 0.961 . S
C607 H622 0.961 . S
C607 H623 0.961 . S
C608 C609 1.370 . S
C608 C610 1.363 . S
C608 H624 0.931 . S
C609 C608 1.370 . S
C609 C613 1.408 . S
C610 C608 1.363 . S
C610 C611 1.370 . S
C610 C614 1.524 1_556 S
C611 C603 1.503 . S
C611 C610 1.370 . S
C611 C612 1.403 . S
C612 C611 1.403 . S
C612 C613 1.404 . S
C612 C615 1.539 . S
C613 C609 1.408 . S
C613 C612 1.404 . S
C613 H625 0.930 . S
C614 C610 1.524 1_554 S
C614 H626 0.956 . S
C614 H627 0.961 . S
C614 H628 0.961 . S
C615 C612 1.539 . S
C615 H629 0.958 . S
C615 H630 0.961 . S
C615 H631 0.960 . S
H616 C600 0.931 . S
H617 C605 0.929 . S
H618 C606 0.960 . S
H619 C606 0.962 . S
H620 C606 0.960 . S
H621 C607 0.961 . S
H622 C607 0.961 . S
H623 C607 0.961 . S
H624 C608 0.931 . S
H625 C613 0.930 . S
H626 C614 0.956 . S
H627 C614 0.961 . S
H628 C614 0.961 . S
H629 C615 0.958 . S
H630 C615 0.961 . S
H631 C615 0.960 . S
C632 C633 1.391 . S
C632 C634 1.394 . S
C632 H648 0.931 . S
C633 C632 1.391 . S
C633 C637 1.376 1_554 S
C634 C632 1.394 . S
C634 C635 1.369 1_554 S
C634 C638 1.531 . S
C635 C634 1.369 1_556 S
C635 C636 1.410 . S
C635 C643 1.503 . S
C636 C635 1.410 . S
C636 C637 1.392 . S
C636 C639 1.511 . S
C637 C633 1.376 1_556 S
C637 C636 1.392 . S
C637 H649 0.929 . S
C638 C634 1.531 . S
C638 H650 0.960 . S
C638 H651 0.962 . S
C638 H652 0.960 . S
C639 C636 1.511 . S
C639 H653 0.961 . S
C639 H654 0.961 . S
C639 H655 0.961 . S
C640 C641 1.370 . S
C640 C642 1.363 . S
C640 H656 0.931 . S
C641 C640 1.370 . S
C641 C645 1.408 . S
C642 C640 1.363 . S
C642 C643 1.370 . S
C642 C646 1.524 . S
C643 C635 1.503 . S
C643 C642 1.370 . S
C643 C644 1.403 . S
C644 C643 1.403 . S
C644 C645 1.404 . S
C644 C647 1.539 . S
C645 C641 1.408 . S
C645 C644 1.404 . S
C645 H657 0.930 . S
C646 C642 1.524 . S
C646 H658 0.956 . S
C646 H659 0.961 . S
C646 H660 0.961 . S
C647 C644 1.539 . S
C647 H661 0.958 . S
C647 H662 0.961 . S
C647 H663 0.960 . S
H648 C632 0.931 . S
H649 C637 0.929 . S
H650 C638 0.960 . S
H651 C638 0.962 . S
H652 C638 0.960 . S
H653 C639 0.961 . S
H654 C639 0.961 . S
H655 C639 0.961 . S
H656 C640 0.931 . S
H657 C645 0.930 . S
H658 C646 0.956 . S
H659 C646 0.961 . S
H660 C646 0.961 . S
H661 C647 0.958 . S
H662 C647 0.961 . S
H663 C647 0.960 . S
C664 C665 1.391 . S
C664 C666 1.394 . S
C664 H680 0.931 . S
C665 C664 1.391 . S
C665 C669 1.376 1_556 S
C666 C664 1.394 . S
C666 C667 1.369 . S
C666 C670 1.531 . S
C667 C666 1.369 . S
C667 C668 1.410 . S
C667 C675 1.503 . S
C668 C667 1.410 . S
C668 C669 1.392 1_556 S
C668 C671 1.511 1_556 S
C669 C665 1.376 1_554 S
C669 C668 1.392 1_554 S
C669 H681 0.929 . S
C670 C666 1.531 . S
C670 H682 0.960 . S
C670 H683 0.962 . S
C670 H684 0.960 . S
C671 C668 1.511 1_554 S
C671 H685 0.961 . S
C671 H686 0.961 1_554 S
C671 H687 0.961 . S
C672 C673 1.370 . S
C672 C674 1.363 . S
C672 H688 0.931 . S
C673 C672 1.370 . S
C673 C677 1.408 . S
C674 C672 1.363 . S
C674 C675 1.370 . S
C674 C678 1.524 . S
C675 C667 1.503 . S
C675 C674 1.370 . S
C675 C676 1.403 . S
C676 C675 1.403 . S
C676 C677 1.404 . S
C676 C679 1.539 . S
C677 C673 1.408 . S
C677 C676 1.404 . S
C677 H689 0.930 . S
C678 C674 1.524 . S
C678 H690 0.956 . S
C678 H691 0.961 . S
C678 H692 0.961 . S
C679 C676 1.539 . S
C679 H693 0.958 . S
C679 H694 0.961 . S
C679 H695 0.960 . S
H680 C664 0.931 . S
H681 C669 0.929 . S
H682 C670 0.960 . S
H683 C670 0.962 . S
H684 C670 0.960 . S
H685 C671 0.961 . S
H686 C671 0.961 1_556 S
H687 C671 0.961 . S
H688 C672 0.931 . S
H689 C677 0.930 . S
H690 C678 0.956 . S
H691 C678 0.961 . S
H692 C678 0.961 . S
H693 C679 0.958 . S
H694 C679 0.961 . S
H695 C679 0.960 . S
C696 C697 1.391 1_655 S
C696 C698 1.394 . S
C696 H712 0.931 . S
C697 C696 1.391 1_455 S
C697 C701 1.376 . S
C698 C696 1.394 . S
C698 C699 1.369 1_655 S
C698 C702 1.531 . S
C699 C698 1.369 1_455 S
C699 C700 1.410 . S
C699 C707 1.503 . S
C700 C699 1.410 . S
C700 C701 1.392 . S
C700 C703 1.511 . S
C701 C697 1.376 . S
C701 C700 1.392 . S
C701 H713 0.929 . S
C702 C698 1.531 . S
C702 H714 0.960 . S
C702 H715 0.962 . S
C702 H716 0.960 . S
C703 C700 1.511 . S
C703 H717 0.961 . S
C703 H718 0.961 . S
C703 H719 0.961 . S
C704 C705 1.370 1_655 S
C704 C706 1.363 . S
C704 H720 0.931 . S
C705 C704 1.370 1_455 S
C705 C709 1.408 . S
C706 C704 1.363 . S
C706 C707 1.370 1_655 S
C706 C710 1.524 . S
C707 C699 1.503 . S
C707 C706 1.370 1_455 S
C707 C708 1.403 . S
C708 C707 1.403 . S
C708 C709 1.404 . S
C708 C711 1.539 . S
C709 C705 1.408 . S
C709 C708 1.404 . S
C709 H721 0.930 . S
C710 C706 1.524 . S
C710 H722 0.956 . S
C710 H723 0.961 . S
C710 H724 0.961 . S
C711 C708 1.539 . S
C711 H725 0.958 . S
C711 H726 0.961 . S
C711 H727 0.960 . S
H712 C696 0.931 . S
H713 C701 0.929 . S
H714 C702 0.960 . S
H715 C702 0.962 . S
H716 C702 0.960 . S
H717 C703 0.961 . S
H718 C703 0.961 . S
H719 C703 0.961 . S
H720 C704 0.931 . S
H721 C709 0.930 . S
H722 C710 0.956 . S
H723 C710 0.961 . S
H724 C710 0.961 . S
H725 C711 0.958 . S
H726 C711 0.961 . S
H727 C711 0.960 . S
C728 C729 1.391 . S
C728 C730 1.394 . S
C728 H744 0.931 1_556 S
C729 C728 1.391 . S
C729 C733 1.376 . S
C730 C728 1.394 . S
C730 C731 1.369 . S
C730 C734 1.531 1_545 S
C731 C730 1.369 . S
C731 C732 1.410 . S
C731 C739 1.503 . S
C732 C731 1.410 . S
C732 C733 1.392 . S
C732 C735 1.511 . S
C733 C729 1.376 . S
C733 C732 1.392 . S
C733 H745 0.929 . S
C734 C730 1.531 1_565 S
C734 H746 0.960 . S
C734 H747 0.962 1_566 S
C734 H748 0.960 . S
C735 C732 1.511 . S
C735 H749 0.961 . S
C735 H750 0.961 . S
C735 H751 0.961 . S
C736 C737 1.370 . S
C736 C738 1.363 . S
C736 H752 0.931 . S
C737 C736 1.370 . S
C737 C741 1.408 . S
C738 C736 1.363 . S
C738 C739 1.370 . S
C738 C742 1.524 . S
C739 C731 1.503 . S
C739 C738 1.370 . S
C739 C740 1.403 . S
C740 C739 1.403 . S
C740 C741 1.404 . S
C740 C743 1.539 1_545 S
C741 C737 1.408 . S
C741 C740 1.404 . S
C741 H753 0.930 1_545 S
C742 C738 1.524 . S
C742 H754 0.956 . S
C742 H755 0.961 . S
C742 H756 0.961 . S
C743 C740 1.539 1_565 S
C743 H757 0.958 . S
C743 H758 0.961 . S
C743 H759 0.963 1_565 S
H744 C728 0.931 1_554 S
H745 C733 0.929 . S
H746 C734 0.960 . S
H747 C734 0.962 1_544 S
H748 C734 0.960 . S
H749 C735 0.961 . S
H750 C735 0.961 . S
H751 C735 0.961 . S
H752 C736 0.931 . S
H753 C741 0.930 1_565 S
H754 C742 0.956 . S
H755 C742 0.961 . S
H756 C742 0.961 . S
H757 C743 0.958 . S
H758 C743 0.961 . S
H759 C743 0.963 1_545 S
C760 C761 1.391 . S
C760 C762 1.394 . S
C760 H776 0.931 . S
C761 C760 1.391 . S
C761 C765 1.376 . S
C762 C760 1.394 . S
C762 C763 1.369 . S
C762 C766 1.531 . S
C763 C762 1.369 . S
C763 C764 1.410 . S
C763 C771 1.503 . S
C764 C763 1.410 . S
C764 C765 1.392 . S
C764 C767 1.511 . S
C765 C761 1.376 . S
C765 C764 1.392 . S
C765 H777 0.929 . S
C766 C762 1.531 . S
C766 H778 0.960 . S
C766 H779 0.962 . S
C766 H780 0.960 . S
C767 C764 1.511 . S
C767 H781 0.961 . S
C767 H782 0.961 . S
C767 H783 0.961 . S
C768 C769 1.370 . S
C768 C770 1.363 . S
C768 H784 0.931 . S
C769 C768 1.370 . S
C769 C773 1.408 . S
C770 C768 1.363 . S
C770 C771 1.370 . S
C770 C774 1.524 . S
C771 C763 1.503 . S
C771 C770 1.370 . S
C771 C772 1.403 . S
C772 C771 1.403 . S
C772 C773 1.404 . S
C772 C775 1.539 . S
C773 C769 1.408 . S
C773 C772 1.404 . S
C773 H785 0.930 . S
C774 C770 1.524 . S
C774 H786 0.956 . S
C774 H787 0.961 . S
C774 H788 0.961 . S
C775 C772 1.539 . S
C775 H789 0.958 . S
C775 H790 0.961 . S
C775 H791 0.960 . S
H776 C760 0.931 . S
H777 C765 0.929 . S
H778 C766 0.960 . S
H779 C766 0.962 . S
H780 C766 0.960 . S
H781 C767 0.961 . S
H782 C767 0.961 . S
H783 C767 0.961 . S
H784 C768 0.931 . S
H785 C773 0.930 . S
H786 C774 0.956 . S
H787 C774 0.961 . S
H788 C774 0.961 . S
H789 C775 0.958 . S
H790 C775 0.961 . S
H791 C775 0.960 . S
C792 C793 1.391 . S
C792 C794 1.394 . S
C792 H808 0.936 . S
C793 C792 1.391 . S
C793 C797 1.376 . S
C794 C792 1.394 . S
C794 C795 1.369 . S
C794 C798 1.531 . S
C795 C794 1.369 . S
C795 C796 1.410 . S
C795 C803 1.503 . S
C796 C795 1.410 . S
C796 C797 1.392 . S
C796 C799 1.511 . S
C797 C793 1.376 . S
C797 C796 1.392 . S
C797 H809 0.929 . S
C798 C794 1.531 . S
C798 H810 0.960 . S
C798 H811 0.962 . S
C798 H812 0.960 . S
C799 C796 1.511 . S
C799 H813 0.961 . S
C799 H814 0.961 . S
C799 H815 0.961 . S
C800 C801 1.370 . S
C800 C802 1.363 . S
C800 H816 0.931 . S
C801 C800 1.370 . S
C801 C805 1.408 . S
C802 C800 1.363 . S
C802 C803 1.370 . S
C802 C806 1.524 . S
C803 C795 1.503 . S
C803 C802 1.370 . S
C803 C804 1.403 . S
C804 C803 1.403 . S
C804 C805 1.404 . S
C804 C807 1.539 . S
C805 C801 1.408 . S
C805 C804 1.404 . S
C805 H817 0.930 . S
C806 C802 1.524 . S
C806 H818 0.956 . S
C806 H819 0.961 . S
C806 H820 0.961 . S
C807 C804 1.539 . S
C807 H821 0.958 . S
C807 H822 0.961 . S
C807 H823 0.960 . S
H808 C792 0.936 . S
H809 C797 0.929 . S
H810 C798 0.960 . S
H811 C798 0.962 . S
H812 C798 0.960 . S
H813 C799 0.961 . S
H814 C799 0.961 . S
H815 C799 0.961 . S
H816 C800 0.931 . S
H817 C805 0.930 . S
H818 C806 0.956 . S
H819 C806 0.961 . S
H820 C806 0.961 . S
H821 C807 0.958 . S
H822 C807 0.961 . S
H823 C807 0.960 . S
C824 C825 1.391 1_455 S
C824 C826 1.394 . S
C824 H840 0.931 . S
C825 C824 1.391 1_655 S
C825 C829 1.376 . S
C826 C824 1.394 . S
C826 C827 1.369 1_455 S
C826 C830 1.531 . S
C827 C826 1.369 1_655 S
C827 C828 1.410 . S
C827 C835 1.503 . S
C828 C827 1.410 . S
C828 C829 1.392 . S
C828 C831 1.511 . S
C829 C825 1.376 . S
C829 C828 1.392 . S
C829 H841 0.929 . S
C830 C826 1.531 . S
C830 H842 0.960 . S
C830 H843 0.962 . S
C830 H844 0.960 . S
C831 C828 1.511 . S
C831 H845 0.961 . S
C831 H846 0.961 . S
C831 H847 0.961 . S
C832 C833 1.370 1_455 S
C832 C834 1.363 . S
C832 H848 0.931 . S
C833 C832 1.370 1_655 S
C833 C837 1.408 . S
C834 C832 1.363 . S
C834 C835 1.370 1_455 S
C834 C838 1.524 . S
C835 C827 1.503 . S
C835 C834 1.370 1_655 S
C835 C836 1.403 . S
C836 C835 1.403 . S
C836 C837 1.404 . S
C836 C839 1.539 . S
C837 C833 1.408 . S
C837 C836 1.404 . S
C837 H849 0.930 . S
C838 C834 1.524 . S
C838 H850 0.956 . S
C838 H851 0.961 . S
C838 H852 0.961 . S
C839 C836 1.539 . S
C839 H853 0.958 . S
C839 H854 0.961 . S
C839 H855 0.960 . S
H840 C824 0.931 . S
H841 C829 0.929 . S
H842 C830 0.960 . S
H843 C830 0.962 . S
H844 C830 0.960 . S
H845 C831 0.961 . S
H846 C831 0.961 . S
H847 C831 0.961 . S
H848 C832 0.931 . S
H849 C837 0.930 . S
H850 C838 0.956 . S
H851 C838 0.961 . S
H852 C838 0.961 . S
H853 C839 0.958 . S
H854 C839 0.961 . S
H855 C839 0.960 . S
C856 C857 1.391 . S
C856 C858 1.394 . S
C856 H872 0.931 . S
C857 C856 1.391 . S
C857 C861 1.376 . S
C858 C856 1.394 . S
C858 C859 1.369 . S
C858 C862 1.531 . S
C859 C858 1.369 . S
C859 C860 1.410 . S
C859 C867 1.503 . S
C860 C859 1.410 . S
C860 C861 1.392 . S
C860 C863 1.511 . S
C861 C857 1.376 . S
C861 C860 1.392 . S
C861 H873 0.929 . S
C862 C858 1.531 . S
C862 H874 0.960 . S
C862 H875 0.962 . S
C862 H876 0.960 . S
C863 C860 1.511 . S
C863 H877 0.961 1_565 S
C863 H878 0.961 1_565 S
C863 H879 0.961 . S
C864 C865 1.370 . S
C864 C866 1.363 . S
C864 H880 0.931 1_565 S
C865 C864 1.370 . S
C865 C869 1.408 . S
C866 C864 1.363 . S
C866 C867 1.370 . S
C866 C870 1.524 1_565 S
C867 C859 1.503 . S
C867 C866 1.370 . S
C867 C868 1.403 . S
C868 C867 1.403 . S
C868 C869 1.404 . S
C868 C871 1.539 . S
C869 C865 1.408 . S
C869 C868 1.404 . S
C869 H881 0.930 . S
C870 C866 1.524 1_545 S
C870 H882 0.956 1_545 S
C870 H883 0.961 . S
C870 H884 0.961 . S
C871 C868 1.539 . S
C871 H885 0.958 . S
C871 H886 0.961 . S
C871 H887 0.960 . S
H872 C856 0.931 . S
H873 C861 0.929 . S
H874 C862 0.960 . S
H875 C862 0.962 . S
H876 C862 0.960 . S
H877 C863 0.961 1_545 S
H878 C863 0.961 1_545 S
H879 C863 0.961 . S
H880 C864 0.931 1_545 S
H881 C869 0.930 . S
H882 C870 0.956 1_565 S
H883 C870 0.961 . S
H884 C870 0.961 . S
H885 C871 0.958 . S
H886 C871 0.961 . S
H887 C871 0.960 . S
C888 C889 1.391 . S
C888 C890 1.394 . S
C888 H904 0.931 . S
C889 C888 1.391 . S
C889 C893 1.376 . S
C890 C888 1.394 . S
C890 C891 1.369 . S
C890 C894 1.531 . S
C891 C890 1.369 . S
C891 C892 1.410 . S
C891 C899 1.503 . S
C892 C891 1.410 . S
C892 C893 1.392 . S
C892 C895 1.511 . S
C893 C889 1.376 . S
C893 C892 1.392 . S
C893 H905 0.929 . S
C894 C890 1.531 . S
C894 H906 0.960 . S
C894 H907 0.962 . S
C894 H908 0.960 . S
C895 C892 1.511 . S
C895 H909 0.961 . S
C895 H910 0.961 . S
C895 H911 0.961 . S
C896 C897 1.370 . S
C896 C898 1.363 . S
C896 H912 0.931 . S
C897 C896 1.370 . S
C897 C901 1.408 . S
C898 C896 1.363 . S
C898 C899 1.370 . S
C898 C902 1.524 . S
C899 C891 1.503 . S
C899 C898 1.370 . S
C899 C900 1.403 . S
C900 C899 1.403 . S
C900 C901 1.404 . S
C900 C903 1.539 . S
C901 C897 1.408 . S
C901 C900 1.404 . S
C901 H913 0.930 . S
C902 C898 1.524 . S
C902 H914 0.956 . S
C902 H915 0.961 . S
C902 H916 0.961 . S
C903 C900 1.539 . S
C903 H917 0.958 . S
C903 H918 0.961 . S
C903 H919 0.960 . S
H904 C888 0.931 . S
H905 C893 0.929 . S
H906 C894 0.960 . S
H907 C894 0.962 . S
H908 C894 0.960 . S
H909 C895 0.961 . S
H910 C895 0.961 . S
H911 C895 0.961 . S
H912 C896 0.931 . S
H913 C901 0.930 . S
H914 C902 0.956 . S
H915 C902 0.961 . S
H916 C902 0.961 . S
H917 C903 0.958 . S
H918 C903 0.961 . S
H919 C903 0.960 . S
C920 C921 1.391 . S
C920 C922 1.394 . S
C920 H936 0.931 . S
C921 C920 1.391 . S
C921 C925 1.376 . S
C922 C920 1.394 . S
C922 C923 1.369 . S
C922 C926 1.531 . S
C923 C922 1.369 . S
C923 C924 1.410 . S
C923 C931 1.503 . S
C924 C923 1.410 . S
C924 C925 1.392 . S
C924 C927 1.511 . S
C925 C921 1.376 . S
C925 C924 1.392 . S
C925 H937 0.929 . S
C926 C922 1.531 . S
C926 H938 0.960 . S
C926 H939 0.962 . S
C926 H940 0.960 . S
C927 C924 1.511 . S
C927 H941 0.961 . S
C927 H942 0.961 . S
C927 H943 0.961 . S
C928 C929 1.370 . S
C928 C930 1.363 . S
C928 H944 0.931 . S
C929 C928 1.370 . S
C929 C933 1.408 . S
C930 C928 1.363 . S
C930 C931 1.370 . S
C930 C934 1.524 . S
C931 C923 1.503 . S
C931 C930 1.370 . S
C931 C932 1.403 . S
C932 C931 1.403 . S
C932 C933 1.404 . S
C932 C935 1.539 . S
C933 C929 1.408 . S
C933 C932 1.404 . S
C933 H945 0.930 . S
C934 C930 1.524 . S
C934 H946 0.956 . S
C934 H947 0.961 . S
C934 H948 0.961 . S
C935 C932 1.539 . S
C935 H949 0.958 . S
C935 H950 0.961 . S
C935 H951 0.960 . S
H936 C920 0.931 . S
H937 C925 0.929 . S
H938 C926 0.960 . S
H939 C926 0.962 . S
H940 C926 0.960 . S
H941 C927 0.961 . S
H942 C927 0.961 . S
H943 C927 0.961 . S
H944 C928 0.931 . S
H945 C933 0.930 . S
H946 C934 0.956 . S
H947 C934 0.961 . S
H948 C934 0.961 . S
H949 C935 0.958 . S
H950 C935 0.961 . S
H951 C935 0.960 . S
C185 C82 1.610 . S
C193 C112 1.698 . S
C225 C142 1.799 . S
C217 C95 1.631 . S
C257 C152 1.525 . S
C249 C56 1.329 . S
C289 C172 1.391 . S
C281 C69 1.216 . S
C321 C113 1.702 . S
C313 C30 1.524 . S
C345 C43 1.649 . S
C353 C143 1.792 . S
C377 C4 1.365 . S
C385 C153 1.519 . S
C409 C17 1.212 1_655 S
C417 C173 1.394 . S
C449 C105 0.865 . S
C441 C74 0.880 1_655 S
C481 C126 0.577 . S
C473 C87 0.529 . S
C513 C145 1.024 . S
C505 C100 1.036 . S
C537 C61 0.708 . S
C545 C165 0.738 . S
C569 C22 0.805 1_655 S
C577 C106 0.843 . S
C609 C125 0.540 1_565 S
C601 C35 0.689 . S
C641 C146 1.018 . S
C633 C48 0.969 . S
C665 C9 0.774 1_556 S
C673 C166 0.749 . S
C697 C73 1.544 . S
C705 C123 1.596 . S
C729 C86 1.413 1_556 S
C737 C133 1.487 . S
C769 C163 1.788 . S
C761 C99 1.645 . S
C801 C183 1.781 . S
C793 C60 1.705 . S
C825 C21 1.478 1_655 S
C833 C122 1.596 . S
C865 C132 1.481 . S
C857 C34 1.419 . S
C897 C162 1.785 . S
C889 C47 1.701 . S
C921 C8 1.656 . S
C929 C182 1.790 . S
