# Generated by pormake.
# Topology tbo, (3,4)-cn, num edge types: 1
# Building blocks:
#     Node 0, Type 0, BuildingBlock: OLANEW_clean_sbu_2, # of connection points: 3
#     Node 1, Type 0, BuildingBlock: OLANEW_clean_sbu_2, # of connection points: 3
#     Node 2, Type 0, BuildingBlock: OLANEW_clean_sbu_2, # of connection points: 3
#     Node 3, Type 0, BuildingBlock: OLANEW_clean_sbu_2, # of connection points: 3
#     Node 4, Type 0, BuildingBlock: OLANEW_clean_sbu_2, # of connection points: 3
#     Node 5, Type 0, BuildingBlock: OLANEW_clean_sbu_2, # of connection points: 3
#     Node 6, Type 0, BuildingBlock: OLANEW_clean_sbu_2, # of connection points: 3
#     Node 7, Type 0, BuildingBlock: OLANEW_clean_sbu_2, # of connection points: 3
#     Node 8, Type 0, BuildingBlock: OLANEW_clean_sbu_2, # of connection points: 3
#     Node 9, Type 0, BuildingBlock: OLANEW_clean_sbu_2, # of connection points: 3
#     Node 10, Type 0, BuildingBlock: OLANEW_clean_sbu_2, # of connection points: 3
#     Node 11, Type 0, BuildingBlock: OLANEW_clean_sbu_2, # of connection points: 3
#     Node 12, Type 0, BuildingBlock: OLANEW_clean_sbu_2, # of connection points: 3
#     Node 13, Type 0, BuildingBlock: OLANEW_clean_sbu_2, # of connection points: 3
#     Node 14, Type 0, BuildingBlock: OLANEW_clean_sbu_2, # of connection points: 3
#     Node 15, Type 0, BuildingBlock: OLANEW_clean_sbu_2, # of connection points: 3
#     Node 16, Type 0, BuildingBlock: OLANEW_clean_sbu_2, # of connection points: 3
#     Node 17, Type 0, BuildingBlock: OLANEW_clean_sbu_2, # of connection points: 3
#     Node 18, Type 0, BuildingBlock: OLANEW_clean_sbu_2, # of connection points: 3
#     Node 19, Type 0, BuildingBlock: OLANEW_clean_sbu_2, # of connection points: 3
#     Node 20, Type 0, BuildingBlock: OLANEW_clean_sbu_2, # of connection points: 3
#     Node 21, Type 0, BuildingBlock: OLANEW_clean_sbu_2, # of connection points: 3
#     Node 22, Type 0, BuildingBlock: OLANEW_clean_sbu_2, # of connection points: 3
#     Node 23, Type 0, BuildingBlock: OLANEW_clean_sbu_2, # of connection points: 3
#     Node 24, Type 0, BuildingBlock: OLANEW_clean_sbu_2, # of connection points: 3
#     Node 25, Type 0, BuildingBlock: OLANEW_clean_sbu_2, # of connection points: 3
#     Node 26, Type 0, BuildingBlock: OLANEW_clean_sbu_2, # of connection points: 3
#     Node 27, Type 0, BuildingBlock: OLANEW_clean_sbu_2, # of connection points: 3
#     Node 28, Type 0, BuildingBlock: OLANEW_clean_sbu_2, # of connection points: 3
#     Node 29, Type 0, BuildingBlock: OLANEW_clean_sbu_2, # of connection points: 3
#     Node 30, Type 0, BuildingBlock: OLANEW_clean_sbu_2, # of connection points: 3
#     Node 31, Type 0, BuildingBlock: OLANEW_clean_sbu_2, # of connection points: 3
#     Node 32, Type 1, BuildingBlock: MUDLON_clean_linker_0, # of connection points: 4
#     Node 33, Type 1, BuildingBlock: MUDLON_clean_linker_0, # of connection points: 4
#     Node 34, Type 1, BuildingBlock: MUDLON_clean_linker_0, # of connection points: 4
#     Node 35, Type 1, BuildingBlock: MUDLON_clean_linker_0, # of connection points: 4
#     Node 36, Type 1, BuildingBlock: MUDLON_clean_linker_0, # of connection points: 4
#     Node 37, Type 1, BuildingBlock: MUDLON_clean_linker_0, # of connection points: 4
#     Node 38, Type 1, BuildingBlock: MUDLON_clean_linker_0, # of connection points: 4
#     Node 39, Type 1, BuildingBlock: MUDLON_clean_linker_0, # of connection points: 4
#     Node 40, Type 1, BuildingBlock: MUDLON_clean_linker_0, # of connection points: 4
#     Node 41, Type 1, BuildingBlock: MUDLON_clean_linker_0, # of connection points: 4
#     Node 42, Type 1, BuildingBlock: MUDLON_clean_linker_0, # of connection points: 4
#     Node 43, Type 1, BuildingBlock: MUDLON_clean_linker_0, # of connection points: 4
#     Node 44, Type 1, BuildingBlock: MUDLON_clean_linker_0, # of connection points: 4
#     Node 45, Type 1, BuildingBlock: MUDLON_clean_linker_0, # of connection points: 4
#     Node 46, Type 1, BuildingBlock: MUDLON_clean_linker_0, # of connection points: 4
#     Node 47, Type 1, BuildingBlock: MUDLON_clean_linker_0, # of connection points: 4
#     Node 48, Type 1, BuildingBlock: MUDLON_clean_linker_0, # of connection points: 4
#     Node 49, Type 1, BuildingBlock: MUDLON_clean_linker_0, # of connection points: 4
#     Node 50, Type 1, BuildingBlock: MUDLON_clean_linker_0, # of connection points: 4
#     Node 51, Type 1, BuildingBlock: MUDLON_clean_linker_0, # of connection points: 4
#     Node 52, Type 1, BuildingBlock: MUDLON_clean_linker_0, # of connection points: 4
#     Node 53, Type 1, BuildingBlock: MUDLON_clean_linker_0, # of connection points: 4
#     Node 54, Type 1, BuildingBlock: MUDLON_clean_linker_0, # of connection points: 4
#     Node 55, Type 1, BuildingBlock: MUDLON_clean_linker_0, # of connection points: 4
#     Edge 56, Type (0, 1), BuildingBlock: ZUJKAS_clean_linker_0, # of connection points: 2
#     Edge 57, Type (0, 1), BuildingBlock: ZUJKAS_clean_linker_0, # of connection points: 2
#     Edge 58, Type (0, 1), BuildingBlock: ZUJKAS_clean_linker_0, # of connection points: 2
#     Edge 59, Type (0, 1), BuildingBlock: ZUJKAS_clean_linker_0, # of connection points: 2
#     Edge 60, Type (0, 1), BuildingBlock: ZUJKAS_clean_linker_0, # of connection points: 2
#     Edge 61, Type (0, 1), BuildingBlock: ZUJKAS_clean_linker_0, # of connection points: 2
#     Edge 62, Type (0, 1), BuildingBlock: ZUJKAS_clean_linker_0, # of connection points: 2
#     Edge 63, Type (0, 1), BuildingBlock: ZUJKAS_clean_linker_0, # of connection points: 2
#     Edge 64, Type (0, 1), BuildingBlock: ZUJKAS_clean_linker_0, # of connection points: 2
#     Edge 65, Type (0, 1), BuildingBlock: ZUJKAS_clean_linker_0, # of connection points: 2
#     Edge 66, Type (0, 1), BuildingBlock: ZUJKAS_clean_linker_0, # of connection points: 2
#     Edge 67, Type (0, 1), BuildingBlock: ZUJKAS_clean_linker_0, # of connection points: 2
#     Edge 68, Type (0, 1), BuildingBlock: ZUJKAS_clean_linker_0, # of connection points: 2
#     Edge 69, Type (0, 1), BuildingBlock: ZUJKAS_clean_linker_0, # of connection points: 2
#     Edge 70, Type (0, 1), BuildingBlock: ZUJKAS_clean_linker_0, # of connection points: 2
#     Edge 71, Type (0, 1), BuildingBlock: ZUJKAS_clean_linker_0, # of connection points: 2
#     Edge 72, Type (0, 1), BuildingBlock: ZUJKAS_clean_linker_0, # of connection points: 2
#     Edge 73, Type (0, 1), BuildingBlock: ZUJKAS_clean_linker_0, # of connection points: 2
#     Edge 74, Type (0, 1), BuildingBlock: ZUJKAS_clean_linker_0, # of connection points: 2
#     Edge 75, Type (0, 1), BuildingBlock: ZUJKAS_clean_linker_0, # of connection points: 2
#     Edge 76, Type (0, 1), BuildingBlock: ZUJKAS_clean_linker_0, # of connection points: 2
#     Edge 77, Type (0, 1), BuildingBlock: ZUJKAS_clean_linker_0, # of connection points: 2
#     Edge 78, Type (0, 1), BuildingBlock: ZUJKAS_clean_linker_0, # of connection points: 2
#     Edge 79, Type (0, 1), BuildingBlock: ZUJKAS_clean_linker_0, # of connection points: 2
#     Edge 80, Type (0, 1), BuildingBlock: ZUJKAS_clean_linker_0, # of connection points: 2
#     Edge 81, Type (0, 1), BuildingBlock: ZUJKAS_clean_linker_0, # of connection points: 2
#     Edge 82, Type (0, 1), BuildingBlock: ZUJKAS_clean_linker_0, # of connection points: 2
#     Edge 83, Type (0, 1), BuildingBlock: ZUJKAS_clean_linker_0, # of connection points: 2
#     Edge 84, Type (0, 1), BuildingBlock: ZUJKAS_clean_linker_0, # of connection points: 2
#     Edge 85, Type (0, 1), BuildingBlock: ZUJKAS_clean_linker_0, # of connection points: 2
#     Edge 86, Type (0, 1), BuildingBlock: ZUJKAS_clean_linker_0, # of connection points: 2
#     Edge 87, Type (0, 1), BuildingBlock: ZUJKAS_clean_linker_0, # of connection points: 2
#     Edge 88, Type (0, 1), BuildingBlock: ZUJKAS_clean_linker_0, # of connection points: 2
#     Edge 89, Type (0, 1), BuildingBlock: ZUJKAS_clean_linker_0, # of connection points: 2
#     Edge 90, Type (0, 1), BuildingBlock: ZUJKAS_clean_linker_0, # of connection points: 2
#     Edge 91, Type (0, 1), BuildingBlock: ZUJKAS_clean_linker_0, # of connection points: 2
#     Edge 92, Type (0, 1), BuildingBlock: ZUJKAS_clean_linker_0, # of connection points: 2
#     Edge 93, Type (0, 1), BuildingBlock: ZUJKAS_clean_linker_0, # of connection points: 2
#     Edge 94, Type (0, 1), BuildingBlock: ZUJKAS_clean_linker_0, # of connection points: 2
#     Edge 95, Type (0, 1), BuildingBlock: ZUJKAS_clean_linker_0, # of connection points: 2
#     Edge 96, Type (0, 1), BuildingBlock: ZUJKAS_clean_linker_0, # of connection points: 2
#     Edge 97, Type (0, 1), BuildingBlock: ZUJKAS_clean_linker_0, # of connection points: 2
#     Edge 98, Type (0, 1), BuildingBlock: ZUJKAS_clean_linker_0, # of connection points: 2
#     Edge 99, Type (0, 1), BuildingBlock: ZUJKAS_clean_linker_0, # of connection points: 2
#     Edge 100, Type (0, 1), BuildingBlock: ZUJKAS_clean_linker_0, # of connection points: 2
#     Edge 101, Type (0, 1), BuildingBlock: ZUJKAS_clean_linker_0, # of connection points: 2
#     Edge 102, Type (0, 1), BuildingBlock: ZUJKAS_clean_linker_0, # of connection points: 2
#     Edge 103, Type (0, 1), BuildingBlock: ZUJKAS_clean_linker_0, # of connection points: 2
#     Edge 104, Type (0, 1), BuildingBlock: ZUJKAS_clean_linker_0, # of connection points: 2
#     Edge 105, Type (0, 1), BuildingBlock: ZUJKAS_clean_linker_0, # of connection points: 2
#     Edge 106, Type (0, 1), BuildingBlock: ZUJKAS_clean_linker_0, # of connection points: 2
#     Edge 107, Type (0, 1), BuildingBlock: ZUJKAS_clean_linker_0, # of connection points: 2
#     Edge 108, Type (0, 1), BuildingBlock: ZUJKAS_clean_linker_0, # of connection points: 2
#     Edge 109, Type (0, 1), BuildingBlock: ZUJKAS_clean_linker_0, # of connection points: 2
#     Edge 110, Type (0, 1), BuildingBlock: ZUJKAS_clean_linker_0, # of connection points: 2
#     Edge 111, Type (0, 1), BuildingBlock: ZUJKAS_clean_linker_0, # of connection points: 2
#     Edge 112, Type (0, 1), BuildingBlock: ZUJKAS_clean_linker_0, # of connection points: 2
#     Edge 113, Type (0, 1), BuildingBlock: ZUJKAS_clean_linker_0, # of connection points: 2
#     Edge 114, Type (0, 1), BuildingBlock: ZUJKAS_clean_linker_0, # of connection points: 2
#     Edge 115, Type (0, 1), BuildingBlock: ZUJKAS_clean_linker_0, # of connection points: 2
#     Edge 116, Type (0, 1), BuildingBlock: ZUJKAS_clean_linker_0, # of connection points: 2
#     Edge 117, Type (0, 1), BuildingBlock: ZUJKAS_clean_linker_0, # of connection points: 2
#     Edge 118, Type (0, 1), BuildingBlock: ZUJKAS_clean_linker_0, # of connection points: 2
#     Edge 119, Type (0, 1), BuildingBlock: ZUJKAS_clean_linker_0, # of connection points: 2
#     Edge 120, Type (0, 1), BuildingBlock: ZUJKAS_clean_linker_0, # of connection points: 2
#     Edge 121, Type (0, 1), BuildingBlock: ZUJKAS_clean_linker_0, # of connection points: 2
#     Edge 122, Type (0, 1), BuildingBlock: ZUJKAS_clean_linker_0, # of connection points: 2
#     Edge 123, Type (0, 1), BuildingBlock: ZUJKAS_clean_linker_0, # of connection points: 2
#     Edge 124, Type (0, 1), BuildingBlock: ZUJKAS_clean_linker_0, # of connection points: 2
#     Edge 125, Type (0, 1), BuildingBlock: ZUJKAS_clean_linker_0, # of connection points: 2
#     Edge 126, Type (0, 1), BuildingBlock: ZUJKAS_clean_linker_0, # of connection points: 2
#     Edge 127, Type (0, 1), BuildingBlock: ZUJKAS_clean_linker_0, # of connection points: 2
#     Edge 128, Type (0, 1), BuildingBlock: ZUJKAS_clean_linker_0, # of connection points: 2
#     Edge 129, Type (0, 1), BuildingBlock: ZUJKAS_clean_linker_0, # of connection points: 2
#     Edge 130, Type (0, 1), BuildingBlock: ZUJKAS_clean_linker_0, # of connection points: 2
#     Edge 131, Type (0, 1), BuildingBlock: ZUJKAS_clean_linker_0, # of connection points: 2
#     Edge 132, Type (0, 1), BuildingBlock: ZUJKAS_clean_linker_0, # of connection points: 2
#     Edge 133, Type (0, 1), BuildingBlock: ZUJKAS_clean_linker_0, # of connection points: 2
#     Edge 134, Type (0, 1), BuildingBlock: ZUJKAS_clean_linker_0, # of connection points: 2
#     Edge 135, Type (0, 1), BuildingBlock: ZUJKAS_clean_linker_0, # of connection points: 2
#     Edge 136, Type (0, 1), BuildingBlock: ZUJKAS_clean_linker_0, # of connection points: 2
#     Edge 137, Type (0, 1), BuildingBlock: ZUJKAS_clean_linker_0, # of connection points: 2
#     Edge 138, Type (0, 1), BuildingBlock: ZUJKAS_clean_linker_0, # of connection points: 2
#     Edge 139, Type (0, 1), BuildingBlock: ZUJKAS_clean_linker_0, # of connection points: 2
#     Edge 140, Type (0, 1), BuildingBlock: ZUJKAS_clean_linker_0, # of connection points: 2
#     Edge 141, Type (0, 1), BuildingBlock: ZUJKAS_clean_linker_0, # of connection points: 2
#     Edge 142, Type (0, 1), BuildingBlock: ZUJKAS_clean_linker_0, # of connection points: 2
#     Edge 143, Type (0, 1), BuildingBlock: ZUJKAS_clean_linker_0, # of connection points: 2
#     Edge 144, Type (0, 1), BuildingBlock: ZUJKAS_clean_linker_0, # of connection points: 2
#     Edge 145, Type (0, 1), BuildingBlock: ZUJKAS_clean_linker_0, # of connection points: 2
#     Edge 146, Type (0, 1), BuildingBlock: ZUJKAS_clean_linker_0, # of connection points: 2
#     Edge 147, Type (0, 1), BuildingBlock: ZUJKAS_clean_linker_0, # of connection points: 2
#     Edge 148, Type (0, 1), BuildingBlock: ZUJKAS_clean_linker_0, # of connection points: 2
#     Edge 149, Type (0, 1), BuildingBlock: ZUJKAS_clean_linker_0, # of connection points: 2
#     Edge 150, Type (0, 1), BuildingBlock: ZUJKAS_clean_linker_0, # of connection points: 2
#     Edge 151, Type (0, 1), BuildingBlock: ZUJKAS_clean_linker_0, # of connection points: 2
# Relax obj value: 0.017
# Max RMSD: 0.139
# Mean RMSD: 0.101
data_MOF--net-tbo--node1-OLANEW_clean_sbu_2--node2-MUDLON_clean_linker_0--edge1-ZUJKAS_clean_linker_0
_symmetry_space_group_name_H-M    P1
_symmetry_Int_Tables_number       1
_symmetry_cell_setting            triclinic
loop_
_symmetry_equiv_pos_as_xyz
'x, y, z'
_cell_length_a     120.74591
_cell_length_b     123.63693
_cell_length_c     119.95534
_cell_angle_alpha  97.03995
_cell_angle_beta   87.320766
_cell_angle_gamma 99.002472
loop_
_atom_site_label
_atom_site_type_symbol
_atom_site_fract_x
_atom_site_fract_y
_atom_site_fract_z
_atom_type_partial_charge
O0 O 0.20039 0.17124 0.17692 0.0
Cd1 Cd 0.1885 0.16152 0.1908 0.0
O2 O 0.19141 0.18559 0.17834 0.0
Cd3 Cd 0.17775 0.18015 0.18999 0.0
O4 O 0.1617 0.18228 0.19867 0.0
C5 C 0.15353 0.1831 0.19267 0.0
O6 O 0.15496 0.18202 0.18168 0.0
C7 C 0.19937 0.18063 0.17413 0.0
C8 C 0.19863 0.14475 0.19795 0.0
O9 O 0.192 0.14277 0.18966 0.0
O10 O 0.20045 0.15464 0.20287 0.0
O11 O 0.84921 0.18497 0.17577 0.0
Cd12 Cd 0.83278 0.17275 0.16795 0.0
O13 O 0.86115 0.17428 0.16818 0.0
Cd14 Cd 0.8477 0.16053 0.1642 0.0
O15 O 0.83677 0.14625 0.1697 0.0
C16 C 0.84166 0.13933 0.17383 0.0
O17 O 0.85268 0.14088 0.17382 0.0
C18 C 0.85927 0.18328 0.17373 0.0
C19 C 0.82658 0.18037 0.14854 0.0
O20 O 0.82252 0.18359 0.15823 0.0
O21 O 0.83346 0.1734 0.14801 0.0
O22 O 0.88325 0.84852 0.18816 0.0
Cd23 Cd 0.88884 0.86154 0.20473 0.0
O24 O 0.88045 0.86164 0.17825 0.0
Cd25 Cd 0.88194 0.87461 0.19243 0.0
O26 O 0.87347 0.88632 0.20353 0.0
C27 C 0.86295 0.88343 0.20471 0.0
O28 O 0.85838 0.87382 0.1997 0.0
C29 C 0.88074 0.85151 0.17893 0.0
C30 C 0.90819 0.85753 0.2144 0.0
O31 O 0.89845 0.85285 0.21736 0.0
O32 O 0.9088 0.86405 0.2068 0.0
O33 O 0.27977 0.82523 0.20685 0.0
Cd34 Cd 0.27922 0.80539 0.20256 0.0
O35 O 0.26147 0.82135 0.20748 0.0
Cd36 Cd 0.24453 0.82494 0.21158 0.0
O37 O 0.22789 0.82631 0.21885 0.0
C38 C 0.22502 0.8355 0.22282 0.0
O39 O 0.2322 0.84459 0.22226 0.0
C40 C 0.27029 0.8285 0.20824 0.0
C41 C 0.27443 0.79922 0.18001 0.0
O42 O 0.26651 0.79987 0.18744 0.0
O43 O 0.28457 0.80133 0.18329 0.0
O44 O 0.2068 0.84105 0.84462 0.0
Cd45 Cd 0.19562 0.82368 0.84892 0.0
O46 O 0.19792 0.85142 0.85706 0.0
Cd47 Cd 0.18455 0.83771 0.85925 0.0
O48 O 0.1687 0.82772 0.85395 0.0
C49 C 0.16325 0.83198 0.84726 0.0
O50 O 0.1674 0.84175 0.84437 0.0
C51 C 0.20579 0.85049 0.84975 0.0
C52 C 0.2058 0.81429 0.86502 0.0
O53 O 0.2082 0.81228 0.85453 0.0
O54 O 0.19854 0.82072 0.86792 0.0
O55 O 0.20462 0.17308 0.8874 0.0
Cd56 Cd 0.19475 0.1613 0.87192 0.0
O57 O 0.1924 0.18404 0.88579 0.0
Cd58 Cd 0.18419 0.19879 0.88824 0.0
O59 O 0.17338 0.21063 0.88499 0.0
C60 C 0.1762 0.221 0.88708 0.0
O61 O 0.18588 0.22488 0.89171 0.0
C62 C 0.20081 0.18198 0.89072 0.0
C63 C 0.2055 0.14398 0.86199 0.0
O64 O 0.20759 0.15354 0.85858 0.0
O65 O 0.1985 0.14269 0.87027 0.0
O66 O 0.84891 0.22994 0.82524 0.0
Cd67 Cd 0.85968 0.22828 0.80761 0.0
O68 O 0.85221 0.21355 0.82785 0.0
Cd69 Cd 0.85166 0.19906 0.83673 0.0
O70 O 0.84725 0.18177 0.83929 0.0
C71 C 0.83913 0.17853 0.8458 0.0
O72 O 0.8338 0.18588 0.85172 0.0
C73 C 0.84773 0.22205 0.83126 0.0
C74 C 0.88228 0.2355 0.81165 0.0
O75 O 0.87574 0.24221 0.80962 0.0
O76 O 0.87816 0.2253 0.81161 0.0
O77 O 0.87066 0.86715 0.85566 0.0
Cd78 Cd 0.85776 0.87615 0.86876 0.0
O79 O 0.86737 0.85175 0.86357 0.0
Cd80 Cd 0.85569 0.85663 0.87707 0.0
O81 O 0.8461 0.85305 0.89251 0.0
C82 C 0.84717 0.84386 0.89576 0.0
O83 O 0.85366 0.83763 0.88976 0.0
C84 C 0.87239 0.85731 0.85608 0.0
C85 C 0.84725 0.89154 0.85958 0.0
O86 O 0.85673 0.89442 0.86432 0.0
O87 O 0.84282 0.88137 0.85906 0.0
O88 O 0.18987 0.66896 0.67491 0.0
Cd89 Cd 0.17945 0.66015 0.69029 0.0
O90 O 0.17939 0.68215 0.67581 0.0
Cd91 Cd 0.1668 0.67668 0.68848 0.0
O92 O 0.1514 0.67917 0.69824 0.0
C93 C 0.14431 0.68344 0.69337 0.0
O94 O 0.14649 0.68557 0.68296 0.0
C95 C 0.1877 0.67776 0.67155 0.0
C96 C 0.18929 0.64288 0.69676 0.0
O97 O 0.18103 0.64092 0.6901 0.0
O98 O 0.19292 0.65296 0.70031 0.0
O99 O 0.83413 0.707 0.68544 0.0
Cd100 Cd 0.8155 0.69856 0.67899 0.0
O101 O 0.83613 0.69066 0.68933 0.0
Cd102 Cd 0.84316 0.67696 0.69471 0.0
O103 O 0.84039 0.66003 0.69884 0.0
C104 C 0.8306 0.6549 0.69674 0.0
O105 O 0.82347 0.66003 0.69228 0.0
C106 C 0.8401 0.70081 0.68932 0.0
C107 C 0.81313 0.69978 0.65622 0.0
O108 O 0.81078 0.70748 0.6637 0.0
O109 O 0.8166 0.69145 0.65952 0.0
O110 O 0.89031 0.33874 0.68961 0.0
Cd111 Cd 0.89782 0.3515 0.7057 0.0
O112 O 0.87883 0.35002 0.6861 0.0
Cd113 Cd 0.88292 0.36283 0.70014 0.0
O114 O 0.87822 0.37652 0.71176 0.0
C115 C 0.86861 0.37478 0.71657 0.0
O116 O 0.86262 0.36493 0.71473 0.0
C117 C 0.88273 0.34102 0.68365 0.0
C118 C 0.91599 0.34538 0.71573 0.0
O119 O 0.90586 0.34199 0.71883 0.0
O120 O 0.91752 0.35151 0.70774 0.0
O121 O 0.27749 0.32856 0.69677 0.0
Cd122 Cd 0.28085 0.30966 0.69161 0.0
O123 O 0.26333 0.32201 0.70733 0.0
Cd124 Cd 0.24848 0.32354 0.71816 0.0
O125 O 0.2334 0.3247 0.72867 0.0
C126 C 0.2274 0.33213 0.72784 0.0
O127 O 0.23045 0.33926 0.72059 0.0
C128 C 0.26935 0.33021 0.70353 0.0
C129 C 0.27217 0.30155 0.67062 0.0
O130 O 0.28231 0.30643 0.6716 0.0
O131 O 0.26613 0.30043 0.6796 0.0
O132 O 0.19779 0.34501 0.34679 0.0
Cd133 Cd 0.18735 0.32707 0.35034 0.0
O134 O 0.189 0.35449 0.36016 0.0
Cd135 Cd 0.17662 0.34006 0.36267 0.0
O136 O 0.16207 0.32771 0.35803 0.0
C137 C 0.15995 0.32625 0.34763 0.0
O138 O 0.16663 0.33191 0.34074 0.0
C139 C 0.19658 0.35418 0.35245 0.0
C140 C 0.19783 0.31747 0.36605 0.0
O141 O 0.20023 0.31576 0.35553 0.0
O142 O 0.19044 0.32372 0.36915 0.0
O143 O 0.19572 0.68214 0.38108 0.0
Cd144 Cd 0.18461 0.67518 0.36448 0.0
O145 O 0.18858 0.6976 0.38434 0.0
Cd146 Cd 0.17727 0.695 0.37023 0.0
O147 O 0.16605 0.70168 0.35996 0.0
C148 C 0.16823 0.71205 0.35973 0.0
O149 O 0.17693 0.71756 0.36518 0.0
C150 C 0.19521 0.69133 0.38697 0.0
C151 C 0.19194 0.65629 0.35327 0.0
O152 O 0.19615 0.66592 0.35085 0.0
O153 O 0.1842 0.65558 0.36095 0.0
O154 O 0.85001 0.72674 0.30603 0.0
Cd155 Cd 0.8584 0.72571 0.28715 0.0
O156 O 0.85895 0.71304 0.30795 0.0
Cd157 Cd 0.86261 0.69939 0.3164 0.0
O158 O 0.85981 0.68255 0.32064 0.0
C159 C 0.85252 0.67981 0.32817 0.0
O160 O 0.84744 0.68747 0.33391 0.0
C161 C 0.85268 0.71994 0.31216 0.0
C162 C 0.88115 0.73356 0.28932 0.0
O163 O 0.87424 0.73994 0.28737 0.0
O164 O 0.87734 0.72336 0.28989 0.0
O165 O 0.88004 0.36725 0.35303 0.0
Cd166 Cd 0.86749 0.37661 0.36621 0.0
O167 O 0.88163 0.35485 0.36435 0.0
Cd168 Cd 0.87005 0.3598 0.37793 0.0
O169 O 0.86025 0.3563 0.39328 0.0
C170 C 0.86528 0.35259 0.40072 0.0
O171 O 0.87595 0.35169 0.39899 0.0
C172 C 0.8842 0.3589 0.35515 0.0
C173 C 0.85739 0.39215 0.35681 0.0
O174 O 0.86696 0.39485 0.3614 0.0
O175 O 0.85266 0.38209 0.35657 0.0
O176 O 0.69661 0.17101 0.68193 0.0
Cd177 Cd 0.68425 0.16174 0.6958 0.0
O178 O 0.68862 0.18602 0.68364 0.0
Cd179 Cd 0.67496 0.18111 0.69552 0.0
O180 O 0.65889 0.18362 0.70397 0.0
C181 C 0.6525 0.18816 0.69849 0.0
O182 O 0.65577 0.19055 0.68836 0.0
C183 C 0.69614 0.18057 0.67922 0.0
C184 C 0.69428 0.14599 0.70498 0.0
O185 O 0.68875 0.14347 0.69593 0.0
O186 O 0.69509 0.15595 0.70969 0.0
O187 O 0.35232 0.1753 0.66893 0.0
Cd188 Cd 0.33606 0.16174 0.66293 0.0
O189 O 0.364 0.16328 0.66867 0.0
Cd190 Cd 0.35074 0.14919 0.66537 0.0
O191 O 0.33859 0.13495 0.66913 0.0
C192 C 0.33182 0.13643 0.67741 0.0
O193 O 0.33214 0.14639 0.68278 0.0
C194 C 0.36214 0.17321 0.67019 0.0
C195 C 0.32693 0.16696 0.64368 0.0
O196 O 0.32432 0.17139 0.65348 0.0
O197 O 0.33384 0.16001 0.64295 0.0
O198 O 0.38156 0.83554 0.69293 0.0
Cd199 Cd 0.38889 0.84788 0.70937 0.0
O200 O 0.38514 0.8484 0.68156 0.0
Cd201 Cd 0.38973 0.86143 0.69528 0.0
O202 O 0.38515 0.87437 0.70793 0.0
C203 C 0.37478 0.87332 0.7107 0.0
O204 O 0.36808 0.86466 0.70613 0.0
C205 C 0.38154 0.83845 0.68312 0.0
C206 C 0.40824 0.84239 0.71772 0.0
O207 O 0.39846 0.83825 0.72116 0.0
O208 O 0.40888 0.84903 0.71022 0.0
O209 O 0.78159 0.84575 0.70065 0.0
Cd210 Cd 0.78687 0.82777 0.69428 0.0
O211 O 0.76454 0.83746 0.70376 0.0
Cd212 Cd 0.74739 0.83646 0.71066 0.0
O213 O 0.73072 0.83594 0.71855 0.0
C214 C 0.72362 0.82721 0.71692 0.0
O215 O 0.72648 0.8187 0.71039 0.0
C216 C 0.77152 0.84633 0.70389 0.0
C217 C 0.78358 0.82247 0.67136 0.0
O218 O 0.77582 0.81951 0.67852 0.0
O219 O 0.79287 0.82786 0.67508 0.0
O220 O 0.70399 0.85477 0.35016 0.0
Cd221 Cd 0.69652 0.83804 0.35861 0.0
O222 O 0.68642 0.85678 0.34976 0.0
Cd223 Cd 0.67117 0.86239 0.34513 0.0
O224 O 0.65349 0.85841 0.34111 0.0
C225 C 0.65077 0.85617 0.3309 0.0
O226 O 0.65866 0.85724 0.32301 0.0
C227 C 0.69665 0.86021 0.34743 0.0
C228 C 0.71115 0.83194 0.37309 0.0
O229 O 0.71162 0.82882 0.3625 0.0
O230 O 0.70381 0.83804 0.37681 0.0
O231 O 0.6985 0.18681 0.37997 0.0
Cd232 Cd 0.6855 0.17936 0.3649 0.0
O233 O 0.68591 0.19477 0.39043 0.0
Cd234 Cd 0.67349 0.19267 0.37735 0.0
O235 O 0.66206 0.19969 0.36764 0.0
C236 C 0.66461 0.21 0.36714 0.0
O237 O 0.67376 0.21524 0.37203 0.0
C238 C 0.6957 0.19215 0.38914 0.0
C239 C 0.69266 0.16104 0.35233 0.0
O240 O 0.69499 0.17064 0.34905 0.0
O241 O 0.68685 0.16008 0.36147 0.0
O242 O 0.34952 0.22301 0.32274 0.0
Cd243 Cd 0.35928 0.22262 0.30452 0.0
O244 O 0.35553 0.2076 0.3248 0.0
Cd245 Cd 0.35591 0.19249 0.3324 0.0
O246 O 0.35178 0.17491 0.33363 0.0
C247 C 0.34264 0.17122 0.3385 0.0
O248 O 0.33633 0.17825 0.34346 0.0
C249 C 0.35008 0.21531 0.32869 0.0
C250 C 0.38136 0.23259 0.30762 0.0
O251 O 0.3737 0.23822 0.30582 0.0
O252 O 0.3786 0.22217 0.30774 0.0
O253 O 0.37524 0.86592 0.34585 0.0
Cd254 Cd 0.36355 0.87574 0.35957 0.0
O255 O 0.36699 0.84945 0.3494 0.0
Cd256 Cd 0.35668 0.85468 0.36398 0.0
O257 O 0.34868 0.85151 0.38031 0.0
C258 C 0.3516 0.84338 0.38437 0.0
O259 O 0.35896 0.83794 0.37868 0.0
C260 C 0.37411 0.85547 0.34376 0.0
C261 C 0.35348 0.89125 0.3501 0.0
O262 O 0.36318 0.89389 0.35442 0.0
O263 O 0.34857 0.8813 0.35023 0.0
O264 O 0.6974 0.67171 0.18786 0.0
Cd265 Cd 0.68561 0.66196 0.20179 0.0
O266 O 0.68842 0.68607 0.18918 0.0
Cd267 Cd 0.67496 0.68082 0.20112 0.0
O268 O 0.65892 0.68285 0.20988 0.0
C269 C 0.6515 0.68576 0.20418 0.0
O270 O 0.65373 0.68688 0.19351 0.0
C271 C 0.69633 0.68105 0.18494 0.0
C272 C 0.69625 0.64595 0.20978 0.0
O273 O 0.69027 0.64365 0.20101 0.0
O274 O 0.6972 0.65581 0.21479 0.0
O275 O 0.34633 0.67114 0.1764 0.0
Cd276 Cd 0.32962 0.65939 0.16855 0.0
O277 O 0.35851 0.6622 0.16642 0.0
Cd278 Cd 0.34521 0.64838 0.16212 0.0
O279 O 0.33298 0.63489 0.16746 0.0
C280 C 0.33095 0.63559 0.178 0.0
O281 O 0.33602 0.64415 0.1844 0.0
C282 C 0.35642 0.67034 0.17332 0.0
C283 C 0.32434 0.66655 0.14853 0.0
O284 O 0.32112 0.67103 0.15809 0.0
O285 O 0.32995 0.65855 0.1484 0.0
O286 O 0.38182 0.34577 0.19673 0.0
Cd287 Cd 0.38677 0.35709 0.21454 0.0
O288 O 0.3807 0.36012 0.1879 0.0
Cd289 Cd 0.38288 0.37209 0.20292 0.0
O290 O 0.37691 0.38447 0.21537 0.0
C291 C 0.36631 0.38395 0.21613 0.0
O292 O 0.36009 0.37611 0.20979 0.0
C293 C 0.38015 0.34975 0.18778 0.0
C294 C 0.40624 0.35274 0.22373 0.0
O295 O 0.39664 0.34716 0.22576 0.0
O296 O 0.40666 0.36031 0.21725 0.0
O297 O 0.77689 0.33206 0.2134 0.0
Cd298 Cd 0.7769 0.31258 0.20701 0.0
O299 O 0.76007 0.32657 0.22011 0.0
Cd300 Cd 0.74394 0.32911 0.22815 0.0
O301 O 0.72866 0.33162 0.23779 0.0
C302 C 0.72299 0.33904 0.236 0.0
O303 O 0.72641 0.34536 0.22808 0.0
C304 C 0.76802 0.33436 0.21865 0.0
C305 C 0.77104 0.3079 0.18459 0.0
O306 O 0.76347 0.30785 0.19245 0.0
O307 O 0.78134 0.31008 0.18737 0.0
O308 O 0.69358 0.35619 0.85282 0.0
Cd309 Cd 0.68159 0.33935 0.85737 0.0
O310 O 0.68364 0.36738 0.86309 0.0
Cd311 Cd 0.67001 0.35393 0.86531 0.0
O312 O 0.65481 0.34345 0.85903 0.0
C313 C 0.64797 0.34838 0.85459 0.0
O314 O 0.65026 0.35913 0.85466 0.0
C315 C 0.69221 0.36591 0.85685 0.0
C316 C 0.69165 0.32984 0.87342 0.0
O317 O 0.69357 0.32736 0.86289 0.0
O318 O 0.68484 0.33673 0.87636 0.0
O319 O 0.70395 0.68536 0.87664 0.0
Cd320 Cd 0.69508 0.68013 0.85844 0.0
O321 O 0.68852 0.68083 0.88658 0.0
Cd322 Cd 0.67811 0.67876 0.87184 0.0
O323 O 0.66793 0.68524 0.86037 0.0
C324 C 0.6711 0.69525 0.85881 0.0
O325 O 0.68022 0.70057 0.86369 0.0
C326 C 0.69901 0.68424 0.88612 0.0
C327 C 0.70166 0.66078 0.84752 0.0
O328 O 0.70741 0.67023 0.84638 0.0
O329 O 0.69275 0.66047 0.85379 0.0
O330 O 0.34493 0.71901 0.82229 0.0
Cd331 Cd 0.35374 0.72289 0.80427 0.0
O332 O 0.3535 0.70454 0.82112 0.0
Cd333 Cd 0.35625 0.68877 0.82605 0.0
O334 O 0.35262 0.67093 0.82551 0.0
C335 C 0.34376 0.66674 0.8305 0.0
O336 O 0.33766 0.67335 0.83655 0.0
C337 C 0.34707 0.71067 0.82654 0.0
C338 C 0.37649 0.7301 0.80738 0.0
O339 O 0.36943 0.73692 0.80835 0.0
O340 O 0.37279 0.71985 0.80472 0.0
O341 O 0.37123 0.36571 0.84497 0.0
Cd342 Cd 0.35887 0.37498 0.85848 0.0
O343 O 0.36983 0.3511 0.85408 0.0
Cd344 Cd 0.35898 0.35643 0.86814 0.0
O345 O 0.35032 0.35419 0.88434 0.0
C346 C 0.35377 0.34723 0.88979 0.0
O347 O 0.36214 0.3423 0.8855 0.0
C348 C 0.37374 0.35622 0.84583 0.0
C349 C 0.3475 0.3896 0.84908 0.0
O350 O 0.35725 0.39279 0.85317 0.0
O351 O 0.34317 0.37948 0.84935 0.0
H352 H 0.27975 0.25633 0.99771 0.0
N353 N 0.27621 0.27768 0.00392 0.0
H354 H 0.26863 0.24264 0.9847 0.0
H355 H 0.25716 0.27949 0.99466 0.0
H356 H 0.24615 0.26597 0.98131 0.0
H357 H 0.27744 0.2993 0.00366 0.0
H358 H 0.28867 0.31083 0.99077 0.0
H359 H 0.29261 0.27134 0.98907 0.0
H360 H 0.30412 0.2828 0.97652 0.0
H361 H 0.29537 0.26932 0.0078 0.0
H362 H 0.26541 0.27978 0.02363 0.0
H363 H 0.30089 0.2647 0.02567 0.0
H364 H 0.27075 0.2749 0.0416 0.0
H365 H 0.30147 0.23888 0.08555 0.0
H366 H 0.28815 0.22779 0.09716 0.0
H367 H 0.26333 0.24864 0.09323 0.0
H368 H 0.27682 0.25986 0.08202 0.0
H369 H 0.29215 0.27278 0.09304 0.0
H370 H 0.30425 0.28555 0.106 0.0
H371 H 0.3332 0.27235 0.09077 0.0
H372 H 0.32098 0.25973 0.07759 0.0
H373 H 0.30077 0.24629 0.05668 0.0
H374 H 0.29546 0.25128 0.03875 0.0
H375 H 0.28434 0.28056 0.05616 0.0
N376 N 0.29873 0.25705 0.07703 0.0
H377 H 0.28939 0.27539 0.07398 0.0
C378 C 0.26922 0.26896 0.99724 0.0
C379 C 0.27232 0.25845 0.99436 0.0
C380 C 0.266 0.25064 0.9868 0.0
C381 C 0.25651 0.2532 0.98188 0.0
C382 C 0.25329 0.26363 0.98503 0.0
C383 C 0.25959 0.27139 0.99263 0.0
C384 C 0.28417 0.2845 0.9974 0.0
C385 C 0.28341 0.29573 0.99788 0.0
C386 C 0.28985 0.3023 0.99052 0.0
C387 C 0.29724 0.29772 0.98252 0.0
C388 C 0.29837 0.28655 0.98243 0.0
C389 C 0.29188 0.28 0.98973 0.0
C390 C 0.27995 0.275 0.01436 0.0
C391 C 0.28996 0.27066 0.01509 0.0
C392 C 0.29308 0.26792 0.02536 0.0
C393 C 0.28627 0.26942 0.0351 0.0
C394 C 0.27628 0.27378 0.03432 0.0
C395 C 0.27318 0.27652 0.02406 0.0
C396 C 0.29019 0.25014 0.08284 0.0
C397 C 0.2931 0.24094 0.0871 0.0
C398 C 0.28545 0.2346 0.0937 0.0
C399 C 0.27464 0.23731 0.09616 0.0
C400 C 0.27162 0.24639 0.09165 0.0
C401 C 0.27932 0.25278 0.0851 0.0
C402 C 0.30569 0.26527 0.0843 0.0
C403 C 0.3011 0.2727 0.09237 0.0
C404 C 0.30804 0.27995 0.09986 0.0
C405 C 0.3197 0.27992 0.0995 0.0
C406 C 0.32428 0.27267 0.09123 0.0
C407 C 0.31733 0.26543 0.08372 0.0
C408 C 0.29556 0.26043 0.06667 0.0
C409 C 0.29719 0.25379 0.05659 0.0
C410 C 0.29422 0.25669 0.04636 0.0
C411 C 0.2895 0.26635 0.04599 0.0
C412 C 0.28784 0.27301 0.05613 0.0
C413 C 0.29082 0.27009 0.06637 0.0
H414 H 0.80027 0.27947 0.94894 0.0
N415 N 0.78356 0.27358 0.96307 0.0
H416 H 0.80798 0.26791 0.93344 0.0
H417 H 0.77735 0.25137 0.95798 0.0
H418 H 0.78503 0.23962 0.94243 0.0
H419 H 0.76317 0.26288 0.95573 0.0
H420 H 0.74912 0.27102 0.94695 0.0
H421 H 0.78329 0.29486 0.96211 0.0
H422 H 0.76915 0.30317 0.95352 0.0
H423 H 0.80158 0.27475 0.97511 0.0
H424 H 0.76559 0.26594 0.97659 0.0
H425 H 0.80257 0.2706 0.99432 0.0
H426 H 0.76639 0.26258 0.99608 0.0
H427 H 0.80632 0.26362 0.05441 0.0
H428 H 0.8131 0.24969 0.064 0.0
H429 H 0.78553 0.22551 0.05099 0.0
H430 H 0.77875 0.23956 0.0416 0.0
H431 H 0.76667 0.252 0.05076 0.0
H432 H 0.75564 0.25942 0.06679 0.0
H433 H 0.77933 0.28959 0.06969 0.0
H434 H 0.79045 0.28198 0.0539 0.0
H435 H 0.80042 0.27552 0.03211 0.0
H436 H 0.79916 0.2781 0.01243 0.0
H437 H 0.77114 0.2515 0.00904 0.0
N438 N 0.78728 0.26152 0.04368 0.0
H439 H 0.77204 0.24964 0.02904 0.0
C440 C 0.78827 0.26629 0.95452 0.0
C441 C 0.79701 0.27075 0.94761 0.0
C442 C 0.80143 0.26412 0.93882 0.0
C443 C 0.79714 0.25283 0.93675 0.0
C444 C 0.78844 0.2483 0.9438 0.0
C445 C 0.78407 0.25497 0.95266 0.0
C446 C 0.77431 0.2783 0.95954 0.0
C447 C 0.76445 0.27169 0.95545 0.0
C448 C 0.75639 0.27638 0.95047 0.0
C449 C 0.75807 0.28773 0.94944 0.0
C450 C 0.76769 0.29438 0.95404 0.0
C451 C 0.77572 0.28968 0.95903 0.0
C452 C 0.78357 0.27084 0.97441 0.0
C453 C 0.79388 0.27201 0.97964 0.0
C454 C 0.7944 0.26973 0.99068 0.0
C455 C 0.78454 0.26644 0.99691 0.0
C456 C 0.77418 0.26502 0.99157 0.0
C457 C 0.77369 0.26707 0.98039 0.0
C458 C 0.79207 0.25265 0.04731 0.0
C459 C 0.80193 0.25523 0.05341 0.0
C460 C 0.80579 0.24725 0.05886 0.0
C461 C 0.79981 0.23649 0.05833 0.0
C462 C 0.79024 0.23376 0.05169 0.0
C463 C 0.7864 0.24178 0.04623 0.0
C464 C 0.77947 0.26642 0.05133 0.0
C465 C 0.76936 0.26028 0.05472 0.0
C466 C 0.76306 0.26453 0.06384 0.0
C467 C 0.76668 0.27505 0.06949 0.0
C468 C 0.77629 0.2815 0.06543 0.0
C469 C 0.78266 0.27718 0.05646 0.0
C470 C 0.7865 0.26228 0.03192 0.0
C471 C 0.79406 0.27023 0.02706 0.0
C472 C 0.79335 0.27161 0.01577 0.0
C473 C 0.78514 0.26489 0.009 0.0
C474 C 0.77753 0.25688 0.01395 0.0
C475 C 0.77813 0.25566 0.02536 0.0
H476 H 0.76427 0.78446 0.99728 0.0
N477 N 0.7713 0.76812 0.00598 0.0
H478 H 0.77504 0.79751 0.98562 0.0
H479 H 0.79421 0.77081 0.00208 0.0
H480 H 0.80506 0.78399 0.99084 0.0
H481 H 0.78213 0.75449 0.99096 0.0
H482 H 0.77336 0.73985 0.97723 0.0
H483 H 0.74954 0.76103 0.00359 0.0
H484 H 0.74064 0.74661 0.9896 0.0
H485 H 0.7635 0.7754 0.02608 0.0
H486 H 0.78662 0.75481 0.00985 0.0
H487 H 0.76819 0.77087 0.04439 0.0
H488 H 0.79192 0.75081 0.02801 0.0
H489 H 0.78808 0.7666 0.09597 0.0
H490 H 0.80122 0.77994 0.10735 0.0
H491 H 0.82887 0.7652 0.09112 0.0
H492 H 0.81557 0.75194 0.07956 0.0
H493 H 0.79563 0.73234 0.09029 0.0
H494 H 0.78234 0.72263 0.10304 0.0
H495 H 0.75833 0.74406 0.09819 0.0
H496 H 0.77186 0.75394 0.08578 0.0
H497 H 0.78674 0.76929 0.07607 0.0
H498 H 0.78181 0.77376 0.05798 0.0
H499 H 0.78588 0.74091 0.04302 0.0
N500 N 0.79329 0.74985 0.08041 0.0
H501 H 0.79155 0.73678 0.06112 0.0
C502 C 0.77835 0.77666 0.00062 0.0
C503 C 0.77322 0.78447 0.99605 0.0
C504 C 0.77941 0.79194 0.98941 0.0
C505 C 0.79093 0.79177 0.98721 0.0
C506 C 0.79616 0.78423 0.99219 0.0
C507 C 0.78995 0.77672 0.99876 0.0
C508 C 0.76644 0.75884 0.99836 0.0
C509 C 0.77308 0.7527 0.99088 0.0
C510 C 0.76804 0.74438 0.98293 0.0
C511 C 0.75628 0.74208 0.98225 0.0
C512 C 0.7497 0.74804 0.98996 0.0
C513 C 0.75475 0.75632 0.99793 0.0
C514 C 0.77476 0.76559 0.01659 0.0
C515 C 0.76973 0.77004 0.02649 0.0
C516 C 0.77249 0.76748 0.03696 0.0
C517 C 0.78049 0.76047 0.03776 0.0
C518 C 0.78559 0.75608 0.02778 0.0
C519 C 0.78267 0.7585 0.01732 0.0
C520 C 0.80086 0.75822 0.0869 0.0
C521 C 0.79695 0.76624 0.0948 0.0
C522 C 0.80449 0.77384 0.10137 0.0
C523 C 0.8161 0.77358 0.10022 0.0
C524 C 0.81999 0.76569 0.09216 0.0
C525 C 0.81243 0.75809 0.08558 0.0
C526 C 0.78475 0.74378 0.08703 0.0
C527 C 0.78745 0.73483 0.09191 0.0
C528 C 0.7798 0.72928 0.09915 0.0
C529 C 0.76923 0.73254 0.10166 0.0
C530 C 0.76644 0.74141 0.09657 0.0
C531 C 0.77414 0.747 0.08936 0.0
C532 C 0.78976 0.7527 0.06994 0.0
C533 C 0.78671 0.76306 0.06892 0.0
C534 C 0.78373 0.76558 0.05851 0.0
C535 C 0.7835 0.75774 0.04892 0.0
C536 C 0.78623 0.74728 0.05009 0.0
C537 C 0.78938 0.74484 0.06046 0.0
H538 H 0.31345 0.75369 0.95193 0.0
N539 N 0.29244 0.75529 0.95853 0.0
H540 H 0.31993 0.74008 0.93756 0.0
H541 H 0.27955 0.73672 0.94864 0.0
H542 H 0.28594 0.72304 0.93431 0.0
H543 H 0.2695 0.75099 0.96022 0.0
H544 H 0.25638 0.75899 0.94981 0.0
H545 H 0.29729 0.77168 0.94603 0.0
H546 H 0.28429 0.77976 0.93565 0.0
H547 H 0.30209 0.7699 0.97449 0.0
H548 H 0.28093 0.73836 0.9692 0.0
H549 H 0.30261 0.76812 0.99451 0.0
H550 H 0.28178 0.73624 0.98914 0.0
H551 H 0.31283 0.75097 0.05539 0.0
H552 H 0.3176 0.73644 0.06537 0.0
H553 H 0.29526 0.71236 0.04443 0.0
H554 H 0.29008 0.72718 0.03495 0.0
H555 H 0.27716 0.73899 0.04828 0.0
H556 H 0.2656 0.74663 0.06365 0.0
H557 H 0.28722 0.77803 0.06438 0.0
H558 H 0.29878 0.77029 0.04905 0.0
H559 H 0.313 0.75648 0.02592 0.0
H560 H 0.31125 0.75756 0.0059 0.0
H561 H 0.27641 0.74283 0.00808 0.0
N562 N 0.29716 0.74932 0.04037 0.0
H563 H 0.27843 0.74137 0.02802 0.0
C564 C 0.29606 0.74629 0.95125 0.0
C565 C 0.30746 0.74688 0.94826 0.0
C566 C 0.31114 0.73907 0.94011 0.0
C567 C 0.30342 0.73052 0.93477 0.0
C568 C 0.29205 0.7296 0.93821 0.0
C569 C 0.2884 0.7374 0.94641 0.0
C570 C 0.28438 0.76079 0.95388 0.0
C571 C 0.27275 0.7574 0.95504 0.0
C572 C 0.26528 0.76198 0.94909 0.0
C573 C 0.26933 0.76991 0.94183 0.0
C574 C 0.28093 0.77355 0.94106 0.0
C575 C 0.28835 0.76903 0.94704 0.0
C576 C 0.29161 0.75426 0.97037 0.0
C577 C 0.29753 0.76261 0.97769 0.0
C578 C 0.29791 0.7615 0.98909 0.0
C579 C 0.29242 0.75193 0.99341 0.0
C580 C 0.28609 0.74373 0.98611 0.0
C581 C 0.28564 0.7449 0.97468 0.0
C582 C 0.30119 0.74019 0.04442 0.0
C583 C 0.30916 0.74251 0.05281 0.0
C584 C 0.3119 0.73414 0.05847 0.0
C585 C 0.30682 0.72314 0.05577 0.0
C586 C 0.29921 0.72073 0.0469 0.0
C587 C 0.29635 0.72919 0.04135 0.0
C588 C 0.28893 0.75409 0.04765 0.0
C589 C 0.27925 0.74759 0.05155 0.0
C590 C 0.27266 0.75195 0.06034 0.0
C591 C 0.27557 0.76289 0.06527 0.0
C592 C 0.28471 0.7696 0.0607 0.0
C593 C 0.29135 0.7652 0.05198 0.0
C594 C 0.29587 0.74898 0.02846 0.0
C595 C 0.30504 0.75339 0.02202 0.0
C596 C 0.30397 0.7541 0.01062 0.0
C597 C 0.29362 0.75048 0.00541 0.0
C598 C 0.2845 0.74568 0.01181 0.0
C599 C 0.28562 0.74489 0.02324 0.0
H600 H 0.9558 0.27191 0.27034 0.0
N601 N 0.97067 0.27857 0.2536 0.0
H602 H 0.94608 0.28372 0.28387 0.0
H603 H 0.97382 0.3005 0.25671 0.0
H604 H 0.96426 0.31249 0.27048 0.0
H605 H 0.96129 0.28241 0.23517 0.0
H606 H 0.94736 0.2699 0.22365 0.0
H607 H 0.96215 0.25732 0.25695 0.0
H608 H 0.94836 0.24473 0.24545 0.0
H609 H 0.97598 0.27152 0.27343 0.0
H610 H 0.9878 0.27563 0.2395 0.0
H611 H 0.99281 0.26418 0.27689 0.0
H612 H 0.00439 0.26753 0.24262 0.0
H613 H 0.04665 0.24068 0.28759 0.0
H614 H 0.06071 0.25063 0.30074 0.0
H615 H 0.06247 0.27952 0.28342 0.0
H616 H 0.04869 0.26955 0.2703 0.0
H617 H 0.05529 0.2571 0.25466 0.0
H618 H 0.06785 0.24764 0.24191 0.0
H619 H 0.05181 0.21638 0.25184 0.0
H620 H 0.03894 0.22596 0.26436 0.0
H621 H 0.01906 0.24191 0.27734 0.0
H622 H 0.00206 0.24903 0.27341 0.0
H623 H 0.02145 0.27035 0.25122 0.0
N624 N 0.03971 0.24758 0.26938 0.0
H625 H 0.03806 0.26261 0.25457 0.0
C626 C 0.96557 0.28534 0.26245 0.0
C627 C 0.95778 0.28075 0.27033 0.0
C628 C 0.95226 0.28754 0.27814 0.0
C629 C 0.95436 0.29907 0.27826 0.0
C630 C 0.96234 0.30364 0.27053 0.0
C631 C 0.96788 0.29683 0.26273 0.0
C632 C 0.96275 0.27082 0.24687 0.0
C633 C 0.95851 0.27417 0.2374 0.0
C634 C 0.95061 0.267 0.23082 0.0
C635 C 0.94676 0.25632 0.23364 0.0
C636 C 0.95106 0.25295 0.24313 0.0
C637 C 0.95898 0.26012 0.24968 0.0
C638 C 0.98066 0.27436 0.25619 0.0
C639 C 0.98217 0.27087 0.26669 0.0
C640 C 0.99181 0.26648 0.26862 0.0
C641 C 1.00006 0.2652 0.26005 0.0
C642 C 0.99842 0.26858 0.24954 0.0
C643 C 0.98889 0.27316 0.24769 0.0
C644 C 0.04657 0.25429 0.27794 0.0
C645 C 0.04991 0.24923 0.2868 0.0
C646 C 0.05792 0.25493 0.2943 0.0
C647 C 0.06278 0.26583 0.29304 0.0
C648 C 0.05902 0.27107 0.2845 0.0
C649 C 0.05102 0.26537 0.27701 0.0
C650 C 0.04604 0.24221 0.26044 0.0
C651 C 0.05419 0.2482 0.25388 0.0
C652 C 0.06152 0.24277 0.24668 0.0
C653 C 0.06096 0.23125 0.24595 0.0
C654 C 0.05244 0.22524 0.25211 0.0
C655 C 0.04507 0.23069 0.25927 0.0
C656 C 0.02987 0.25174 0.26638 0.0
C657 C 0.01956 0.24805 0.27155 0.0
C658 C 0.00988 0.25224 0.26937 0.0
C659 C 0.01031 0.2604 0.26207 0.0
C660 C 0.02068 0.26399 0.25678 0.0
C661 C 0.0303 0.25962 0.2588 0.0
H662 H 0.78587 0.06627 0.2778 0.0
N663 N 0.76697 0.05202 0.27702 0.0
H664 H 0.79546 0.07569 0.26242 0.0
H665 H 0.76062 0.04911 0.25506 0.0
H666 H 0.77016 0.05839 0.23966 0.0
H667 H 0.74953 0.06001 0.26849 0.0
H668 H 0.73776 0.07229 0.27873 0.0
H669 H 0.76562 0.05728 0.29912 0.0
H670 H 0.75329 0.06901 0.30968 0.0
H671 H 0.78058 0.03836 0.28143 0.0
H672 H 0.74785 0.03901 0.26891 0.0
H673 H 0.77765 0.01822 0.27781 0.0
H674 H 0.74488 0.01887 0.26512 0.0
H675 H 0.77419 0.96907 0.27108 0.0
H676 H 0.78971 0.9591 0.26475 0.0
H677 H 0.77413 0.94897 0.23267 0.0
H678 H 0.75848 0.95882 0.23919 0.0
H679 H 0.73814 0.95391 0.25407 0.0
H680 H 0.7278 0.94109 0.26628 0.0
H681 H 0.74768 0.95745 0.29426 0.0
H682 H 0.75767 0.97041 0.28208 0.0
H683 H 0.7742 0.98499 0.25586 0.0
H684 H 0.77635 0.00468 0.2609 0.0
H685 H 0.74239 0.00179 0.27434 0.0
N686 N 0.75536 0.96966 0.25936 0.0
H687 H 0.74008 0.9819 0.26927 0.0
C688 C 0.77257 0.05701 0.26762 0.0
C689 C 0.78247 0.06448 0.26947 0.0
C690 C 0.78794 0.0698 0.26067 0.0
C691 C 0.78356 0.06777 0.24983 0.0
C692 C 0.77367 0.0602 0.24795 0.0
C693 C 0.76824 0.05484 0.25674 0.0
C694 C 0.75869 0.05792 0.28303 0.0
C695 C 0.75042 0.0619 0.27747 0.0
C696 C 0.74356 0.06887 0.2834 0.0
C697 C 0.74464 0.07184 0.29507 0.0
C698 C 0.75241 0.06721 0.30068 0.0
C699 C 0.75939 0.06039 0.2947 0.0
C700 C 0.76447 0.04017 0.27549 0.0
C701 C 0.77273 0.03412 0.27798 0.0
C702 C 0.77107 0.02264 0.27583 0.0
C703 C 0.76106 0.01695 0.27111 0.0
C704 C 0.75264 0.02301 0.26885 0.0
C705 C 0.75434 0.03453 0.27098 0.0
C706 C 0.76515 0.96467 0.25557 0.0
C707 C 0.77411 0.96472 0.26269 0.0
C708 C 0.78303 0.95909 0.25902 0.0
C709 C 0.78313 0.95322 0.24822 0.0
C710 C 0.77423 0.95332 0.24108 0.0
C711 C 0.76535 0.95899 0.24474 0.0
C712 C 0.74868 0.96306 0.26712 0.0
C713 C 0.74011 0.95481 0.26288 0.0
C714 C 0.7343 0.94745 0.26985 0.0
C715 C 0.73698 0.94818 0.28123 0.0
C716 C 0.74533 0.95671 0.28557 0.0
C717 C 0.75113 0.96407 0.27859 0.0
C718 C 0.75715 0.98152 0.26283 0.0
C719 C 0.76723 0.98834 0.26022 0.0
C720 C 0.76849 0.99975 0.26305 0.0
C721 C 0.75963 0.00479 0.26824 0.0
C722 C 0.74941 0.99815 0.27043 0.0
C723 C 0.74816 0.98671 0.26766 0.0
H724 H 0.10813 0.81426 0.32741 0.0
N725 N 0.09541 0.81552 0.31029 0.0
H726 H 0.11391 0.79777 0.33321 0.0
H727 H 0.0876 0.79416 0.30196 0.0
H728 H 0.09316 0.77754 0.30783 0.0
H729 H 0.09887 0.80527 0.28915 0.0
H730 H 0.11443 0.81038 0.27616 0.0
H731 H 0.11096 0.83336 0.3127 0.0
H732 H 0.12674 0.83846 0.29983 0.0
H733 H 0.07789 0.81131 0.32443 0.0
H734 H 0.08628 0.82175 0.29153 0.0
H735 H 0.0583 0.81266 0.32183 0.0
H736 H 0.06691 0.82335 0.28915 0.0
H737 H 0.99729 0.81967 0.31558 0.0
H738 H 0.98278 0.80373 0.31748 0.0
H739 H 0.00059 0.78399 0.29275 0.0
H740 H 0.01501 0.79988 0.29091 0.0
H741 H 0.01045 0.81281 0.27882 0.0
H742 H 0.00039 0.82086 0.2657 0.0
H743 H 0.9993 0.84962 0.28992 0.0
H744 H 0.0092 0.84128 0.30322 0.0
H745 H 0.02657 0.82734 0.31893 0.0
H746 H 0.04639 0.82623 0.32106 0.0
H747 H 0.04863 0.81268 0.28619 0.0
N748 N 0.0144 0.82103 0.30086 0.0
H749 H 0.029 0.81419 0.28407 0.0
C750 C 0.09747 0.80547 0.31429 0.0
C751 C 0.10471 0.80625 0.32324 0.0
C752 C 0.10795 0.7968 0.32655 0.0
C753 C 0.10401 0.78631 0.32098 0.0
C754 C 0.09647 0.7855 0.3122 0.0
C755 C 0.09323 0.79498 0.30888 0.0
C756 C 0.10379 0.81896 0.30193 0.0
C757 C 0.10487 0.81256 0.2915 0.0
C758 C 0.11379 0.81549 0.28409 0.0
C759 C 0.12188 0.82478 0.28699 0.0
C760 C 0.12059 0.83133 0.29727 0.0
C761 C 0.11162 0.82842 0.30466 0.0
C762 C 0.08375 0.81596 0.30811 0.0
C763 C 0.07557 0.81374 0.3166 0.0
C764 C 0.06435 0.81466 0.31516 0.0
C765 C 0.06101 0.81807 0.30525 0.0
C766 C 0.06915 0.82046 0.29679 0.0
C767 C 0.08036 0.81949 0.29819 0.0
C768 C 0.00718 0.81104 0.30308 0.0
C769 C 0.99819 0.81182 0.31079 0.0
C770 C 0.98994 0.80271 0.31189 0.0
C771 C 0.99053 0.79265 0.3052 0.0
C772 C 0.99988 0.79169 0.29792 0.0
C773 C 0.00816 0.80079 0.29689 0.0
C774 C 0.01058 0.82645 0.29209 0.0
C775 C 0.00834 0.82096 0.28126 0.0
C776 C 0.00256 0.82561 0.27371 0.0
C777 C 0.99891 0.83585 0.27678 0.0
C778 C 0.00181 0.84163 0.28735 0.0
C779 C 0.00757 0.83695 0.29491 0.0
C780 C 0.02627 0.82088 0.3014 0.0
C781 C 0.0314 0.82425 0.31174 0.0
C782 C 0.04269 0.82349 0.31295 0.0
C783 C 0.0491 0.81926 0.30382 0.0
C784 C 0.04398 0.81607 0.29338 0.0
C785 C 0.03269 0.81689 0.29216 0.0
H786 H 0.29911 0.97689 0.27264 0.0
N787 N 0.2763 0.97179 0.27058 0.0
H788 H 0.31018 0.96968 0.2858 0.0
H789 H 0.26864 0.96261 0.28879 0.0
H790 H 0.27959 0.95576 0.30229 0.0
H791 H 0.25723 0.95888 0.2647 0.0
H792 H 0.25511 0.94134 0.25245 0.0
H793 H 0.29277 0.96372 0.25696 0.0
H794 H 0.29066 0.94664 0.24443 0.0
H795 H 0.29008 0.98096 0.25406 0.0
H796 H 0.26522 0.98762 0.27991 0.0
H797 H 0.29064 0.99921 0.24846 0.0
H798 H 0.26622 0.00629 0.2748 0.0
H799 H 0.29878 0.06537 0.25014 0.0
H800 H 0.30679 0.07862 0.26558 0.0
H801 H 0.28347 0.06233 0.28894 0.0
H802 H 0.27529 0.0494 0.27338 0.0
H803 H 0.26213 0.05517 0.26056 0.0
H804 H 0.24943 0.06495 0.25184 0.0
H805 H 0.26916 0.06246 0.22091 0.0
H806 H 0.28196 0.05275 0.22979 0.0
H807 H 0.29779 0.03663 0.24905 0.0
H808 H 0.29681 0.01785 0.2537 0.0
H809 H 0.26126 0.01659 0.26116 0.0
N810 N 0.28173 0.04909 0.25116 0.0
H811 H 0.26249 0.03553 0.2571 0.0
C812 C 0.28302 0.97014 0.27967 0.0
C813 C 0.2948 0.97247 0.27922 0.0
C814 C 0.30112 0.96836 0.28679 0.0
C815 C 0.29577 0.96193 0.29496 0.0
C816 C 0.28399 0.96043 0.29593 0.0
C817 C 0.27771 0.96446 0.28833 0.0
C818 C 0.27509 0.96269 0.26174 0.0
C819 C 0.26449 0.95634 0.26008 0.0
C820 C 0.26331 0.94634 0.25307 0.0
C821 C 0.27275 0.94253 0.24756 0.0
C822 C 0.28325 0.94924 0.24871 0.0
C823 C 0.28444 0.95914 0.25579 0.0
C824 C 0.27745 0.9828 0.26737 0.0
C825 C 0.28477 0.98633 0.25862 0.0
C826 C 0.28516 0.9969 0.25546 0.0
C827 C 0.27843 0.00429 0.26111 0.0
C828 C 0.27133 0.00079 0.27005 0.0
C829 C 0.27083 0.99016 0.27308 0.0
C830 C 0.28651 0.05641 0.26059 0.0
C831 C 0.29547 0.06466 0.25862 0.0
C832 C 0.30007 0.07215 0.26747 0.0
C833 C 0.29581 0.07151 0.27853 0.0
C834 C 0.28688 0.06314 0.28052 0.0
C835 C 0.28223 0.05568 0.27163 0.0
C836 C 0.27302 0.05318 0.24578 0.0
C837 C 0.26361 0.05649 0.25183 0.0
C838 C 0.25632 0.06209 0.24682 0.0
C839 C 0.25833 0.06457 0.2357 0.0
C840 C 0.26747 0.06082 0.22953 0.0
C841 C 0.27472 0.05518 0.23454 0.0
C842 C 0.28026 0.03752 0.2526 0.0
C843 C 0.28977 0.03222 0.25156 0.0
C844 C 0.28916 0.02145 0.25419 0.0
C845 C 0.27895 0.01563 0.25785 0.0
C846 C 0.26933 0.02086 0.25859 0.0
C847 C 0.26998 0.03171 0.2561 0.0
H848 H 0.043 0.73422 0.77914 0.0
N849 N 0.03735 0.7533 0.77546 0.0
H850 H 0.05419 0.7226 0.76681 0.0
H851 H 0.04283 0.75538 0.75315 0.0
H852 H 0.0537 0.74373 0.74073 0.0
H853 H 0.05319 0.76908 0.76749 0.0
H854 H 0.0683 0.78057 0.77813 0.0
H855 H 0.04018 0.75498 0.79744 0.0
H856 H 0.05523 0.76664 0.80828 0.0
H857 H 0.01708 0.74643 0.78366 0.0
H858 H 0.0347 0.76937 0.76226 0.0
H859 H 0.99959 0.75319 0.78092 0.0
H860 H 0.01723 0.77549 0.7586 0.0
H861 H 0.94887 0.76566 0.76838 0.0
H862 H 0.93425 0.75353 0.75768 0.0
H863 H 0.94949 0.76448 0.72689 0.0
H864 H 0.96402 0.7769 0.73778 0.0
H865 H 0.9587 0.79876 0.75673 0.0
H866 H 0.94837 0.81038 0.77001 0.0
H867 H 0.95176 0.78971 0.79585 0.0
H868 H 0.96183 0.77797 0.78236 0.0
H869 H 0.96809 0.75962 0.76566 0.0
H870 H 0.98541 0.75321 0.76897 0.0
H871 H 0.00368 0.78572 0.76558 0.0
N872 N 0.96581 0.78019 0.76001 0.0
H873 H 0.98626 0.79182 0.7613 0.0
C874 C 0.04202 0.74567 0.76716 0.0
C875 C 0.04509 0.73617 0.77066 0.0
C876 C 0.05148 0.72954 0.76359 0.0
C877 C 0.05495 0.73228 0.7528 0.0
C878 C 0.05135 0.74148 0.74906 0.0
C879 C 0.04499 0.74813 0.75617 0.0
C880 C 0.04554 0.76116 0.78171 0.0
C881 C 0.05343 0.76862 0.77641 0.0
C882 C 0.06208 0.77522 0.78253 0.0
C883 C 0.06302 0.77447 0.79405 0.0
C884 C 0.05485 0.76729 0.79939 0.0
C885 C 0.0462 0.76071 0.79326 0.0
C886 C 0.02716 0.75716 0.773 0.0
C887 C 0.01711 0.75276 0.77816 0.0
C888 C 0.00709 0.75661 0.7765 0.0
C889 C 0.00685 0.76487 0.76944 0.0
C890 C 0.01701 0.76925 0.76423 0.0
C891 C 0.02706 0.76557 0.76613 0.0
C892 C 0.95753 0.77228 0.75385 0.0
C893 C 0.94911 0.76546 0.75933 0.0
C894 C 0.94079 0.75842 0.75318 0.0
C895 C 0.94068 0.75804 0.74142 0.0
C896 C 0.94926 0.76468 0.73595 0.0
C897 C 0.95759 0.77172 0.74212 0.0
C898 C 0.96105 0.78755 0.76853 0.0
C899 C 0.95735 0.79687 0.76532 0.0
C900 C 0.95149 0.80351 0.77294 0.0
C901 C 0.94919 0.80098 0.78401 0.0
C902 C 0.95325 0.79182 0.78735 0.0
C903 C 0.9591 0.78515 0.77968 0.0
C904 C 0.97583 0.77624 0.76297 0.0
C905 C 0.97577 0.7654 0.76551 0.0
C906 C 0.98579 0.76174 0.76757 0.0
C907 C 0.9961 0.76888 0.76749 0.0
C908 C 0.99603 0.77984 0.7654 0.0
C909 C 0.98604 0.78341 0.76308 0.0
H910 H 0.27754 0.05125 0.76936 0.0
N911 N 0.2603 0.0339 0.76628 0.0
H912 H 0.28628 0.0625 0.75514 0.0
H913 H 0.25682 0.0307 0.74429 0.0
H914 H 0.26555 0.04208 0.7299 0.0
H915 H 0.24015 0.04002 0.76676 0.0
H916 H 0.23216 0.05271 0.78105 0.0
H917 H 0.2698 0.0431 0.78626 0.0
H918 H 0.26209 0.05602 0.80039 0.0
H919 H 0.28239 0.03311 0.77058 0.0
H920 H 0.24918 0.01425 0.76954 0.0
H921 H 0.28987 0.01748 0.77607 0.0
H922 H 0.2565 0.99866 0.77564 0.0
H923 H 0.3105 0.96634 0.79852 0.0
H924 H 0.32424 0.95614 0.788 0.0
H925 H 0.30515 0.95374 0.758 0.0
H926 H 0.29147 0.96376 0.76852 0.0
H927 H 0.27892 0.9517 0.78074 0.0
H928 H 0.26699 0.93741 0.78974 0.0
H929 H 0.27303 0.95658 0.82212 0.0
H930 H 0.28546 0.97071 0.81298 0.0
H931 H 0.29789 0.99168 0.79728 0.0
H932 H 0.2905 0.00728 0.79128 0.0
H933 H 0.26735 0.98462 0.76988 0.0
N934 N 0.29127 0.97037 0.79131 0.0
H935 H 0.27439 0.96916 0.77639 0.0
C936 C 0.26642 0.04011 0.7579 0.0
C937 C 0.27489 0.04909 0.76079 0.0
C938 C 0.27986 0.05558 0.75264 0.0
C939 C 0.27651 0.05325 0.74142 0.0
C940 C 0.26835 0.04404 0.73846 0.0
C941 C 0.26334 0.03756 0.74665 0.0
C942 C 0.25553 0.04061 0.7754 0.0
C943 C 0.24489 0.04338 0.77418 0.0
C944 C 0.2404 0.0507 0.7823 0.0
C945 C 0.24653 0.05548 0.79183 0.0
C946 C 0.25709 0.05243 0.79322 0.0
C947 C 0.26154 0.04506 0.7851 0.0
C948 C 0.26517 0.02481 0.76946 0.0
C949 C 0.27667 0.02561 0.7715 0.0
C950 C 0.28094 0.01665 0.7748 0.0
C951 C 0.27382 0.00675 0.77631 0.0
C952 C 0.26231 0.00604 0.77435 0.0
C953 C 0.25807 0.01496 0.77093 0.0
C954 C 0.29995 0.96584 0.78439 0.0
C955 C 0.30943 0.9638 0.78962 0.0
C956 C 0.31727 0.958 0.7836 0.0
C957 C 0.31572 0.95406 0.77219 0.0
C958 C 0.30648 0.95654 0.76682 0.0
C959 C 0.29867 0.96237 0.77284 0.0
C960 C 0.28322 0.96227 0.79623 0.0
C961 C 0.27767 0.9529 0.78976 0.0
C962 C 0.27073 0.94472 0.79494 0.0
C963 C 0.26907 0.94577 0.80669 0.0
C964 C 0.27429 0.95537 0.81308 0.0
C965 C 0.2813 0.96351 0.80789 0.0
C966 C 0.28678 0.97928 0.78729 0.0
C967 C 0.29122 0.99013 0.7913 0.0
C968 C 0.28703 0.99902 0.78778 0.0
C969 C 0.27833 0.99725 0.78004 0.0
C970 C 0.27393 0.98633 0.77597 0.0
C971 C 0.27804 0.97744 0.77961 0.0
H972 H 0.0134 0.29442 0.79993 0.0
N973 N 0.01944 0.31521 0.81069 0.0
H974 H 0.99767 0.28091 0.80516 0.0
H975 H 0.00741 0.31608 0.82983 0.0
H976 H 0.99176 0.30243 0.83533 0.0
H977 H 0.00743 0.33153 0.81167 0.0
H978 H 0.9974 0.33679 0.79643 0.0
H979 H 0.02189 0.30791 0.78833 0.0
H980 H 0.0118 0.31306 0.77297 0.0
H981 H 0.02965 0.29741 0.81474 0.0
H982 H 0.03642 0.33097 0.80655 0.0
H983 H 0.04947 0.29734 0.81631 0.0
H984 H 0.05646 0.33072 0.8078 0.0
H985 H 0.1055 0.29439 0.81302 0.0
H986 H 0.11285 0.28174 0.82378 0.0
H987 H 0.11131 0.30471 0.85382 0.0
H988 H 0.10408 0.31744 0.84287 0.0
H989 H 0.1189 0.3309 0.82331 0.0
H990 H 0.13397 0.33539 0.80953 0.0
H991 H 0.11667 0.31096 0.78481 0.0
H992 H 0.10186 0.30635 0.79871 0.0
H993 H 0.08699 0.2977 0.81046 0.0
H994 H 0.06731 0.29745 0.80657 0.0
H995 H 0.06936 0.33103 0.82238 0.0
N996 N 0.10127 0.31517 0.82085 0.0
H997 H 0.08918 0.33129 0.8259 0.0
C998 C 0.01151 0.30631 0.81448 0.0
C999 C 0.00881 0.29618 0.80773 0.0
C1000 C 0.99988 0.28841 0.8108 0.0
C1001 C 0.99342 0.29063 0.82064 0.0
C1002 C 0.9965 0.30053 0.82764 0.0
C1003 C 0.00546 0.30829 0.82457 0.0
C1004 C 0.01532 0.31933 0.80117 0.0
C1005 C 0.00862 0.32768 0.80319 0.0
C1006 C 0.00291 0.33066 0.79446 0.0
C1007 C 0.00375 0.32528 0.7835 0.0
C1008 C 0.01089 0.31725 0.78136 0.0
C1009 C 0.01668 0.31433 0.79011 0.0
C1010 C 0.03129 0.31419 0.81024 0.0
C1011 C 0.03528 0.30471 0.81293 0.0
C1012 C 0.04677 0.30463 0.81385 0.0
C1013 C 0.05459 0.31402 0.8122 0.0
C1014 C 0.05067 0.32338 0.80927 0.0
C1015 C 0.03919 0.32348 0.8084 0.0
C1016 C 0.10423 0.3069 0.82717 0.0
C1017 C 0.10653 0.29664 0.82194 0.0
C1018 C 0.11073 0.28938 0.82814 0.0
C1019 C 0.11274 0.29225 0.83966 0.0
C1020 C 0.11001 0.30233 0.84493 0.0
C1021 C 0.1058 0.30956 0.83873 0.0
C1022 C 0.10926 0.31835 0.81209 0.0
C1023 C 0.11832 0.32665 0.81486 0.0
C1024 C 0.12688 0.32922 0.80696 0.0
C1025 C 0.12655 0.32351 0.79606 0.0
C1026 C 0.11726 0.31541 0.79317 0.0
C1027 C 0.10871 0.31282 0.80111 0.0
C1028 C 0.08958 0.31456 0.81851 0.0
C1029 C 0.08325 0.30502 0.81306 0.0
C1030 C 0.07194 0.30487 0.81087 0.0
C1031 C 0.06673 0.31423 0.81412 0.0
C1032 C 0.07312 0.32374 0.81956 0.0
C1033 C 0.08442 0.32389 0.82169 0.0
H1034 H 0.78805 0.98175 0.79222 0.0
N1035 N 0.7652 0.97632 0.79014 0.0
H1036 H 0.79946 0.97366 0.80428 0.0
H1037 H 0.75799 0.96541 0.80741 0.0
H1038 H 0.76932 0.95757 0.81979 0.0
H1039 H 0.74557 0.96601 0.7822 0.0
H1040 H 0.74235 0.94958 0.76823 0.0
H1041 H 0.7813 0.9667 0.77735 0.0
H1042 H 0.77813 0.95042 0.76369 0.0
H1043 H 0.77918 0.98482 0.77346 0.0
H1044 H 0.75534 0.99292 0.79985 0.0
H1045 H 0.78045 0.00309 0.76767 0.0
H1046 H 0.75709 0.01161 0.79456 0.0
H1047 H 0.79076 0.06891 0.76703 0.0
H1048 H 0.79957 0.08247 0.78182 0.0
H1049 H 0.77641 0.06794 0.80639 0.0
H1050 H 0.76747 0.05466 0.7915 0.0
H1051 H 0.75446 0.06078 0.77885 0.0
H1052 H 0.74184 0.07051 0.76995 0.0
H1053 H 0.76 0.06527 0.73836 0.0
H1054 H 0.77261 0.05546 0.74736 0.0
H1055 H 0.7888 0.04021 0.76699 0.0
H1056 H 0.78736 0.02163 0.77232 0.0
H1057 H 0.75218 0.02186 0.78085 0.0
N1058 N 0.77328 0.05327 0.76907 0.0
H1059 H 0.75391 0.04064 0.77612 0.0
C1060 C 0.77211 0.97408 0.79885 0.0
C1061 C 0.78388 0.97671 0.7984 0.0
C1062 C 0.79042 0.97207 0.80533 0.0
C1063 C 0.78531 0.96478 0.81285 0.0
C1064 C 0.77354 0.96293 0.8139 0.0
C1065 C 0.76704 0.96751 0.80695 0.0
C1066 C 0.76362 0.96754 0.78096 0.0
C1067 C 0.75268 0.96273 0.77803 0.0
C1068 C 0.75087 0.9534 0.77007 0.0
C1069 C 0.76 0.9487 0.76504 0.0
C1070 C 0.77095 0.95381 0.76759 0.0
C1071 C 0.77275 0.96315 0.77542 0.0
C1072 C 0.767 0.9874 0.78706 0.0
C1073 C 0.77427 0.99054 0.77811 0.0
C1074 C 0.77507 0.00111 0.77484 0.0
C1075 C 0.76881 0.00889 0.78057 0.0
C1076 C 0.76183 0.0058 0.78975 0.0
C1077 C 0.76092 0.99517 0.79289 0.0
C1078 C 0.77852 0.06079 0.77813 0.0
C1079 C 0.78766 0.06865 0.77563 0.0
C1080 C 0.79272 0.07632 0.7841 0.0
C1081 C 0.78873 0.07626 0.79532 0.0
C1082 C 0.77962 0.06828 0.79784 0.0
C1083 C 0.77454 0.06063 0.78933 0.0
C1084 C 0.76455 0.0574 0.76375 0.0
C1085 C 0.75563 0.06153 0.76997 0.0
C1086 C 0.74845 0.06717 0.76489 0.0
C1087 C 0.74999 0.06878 0.75347 0.0
C1088 C 0.75853 0.06412 0.74714 0.0
C1089 C 0.76574 0.05851 0.75225 0.0
C1090 C 0.7715 0.04183 0.77101 0.0
C1091 C 0.78076 0.03617 0.76989 0.0
C1092 C 0.77989 0.02552 0.77292 0.0
C1093 C 0.76964 0.02016 0.77705 0.0
C1094 C 0.76026 0.02576 0.77791 0.0
C1095 C 0.7612 0.0365 0.77503 0.0
H1096 H 0.29621 0.74657 0.48098 0.0
N1097 N 0.29203 0.76263 0.49666 0.0
H1098 H 0.2829 0.73465 0.46834 0.0
H1099 H 0.2691 0.7618 0.49747 0.0
H1100 H 0.25576 0.74975 0.48523 0.0
H1101 H 0.28084 0.7776 0.48859 0.0
H1102 H 0.28901 0.79194 0.47709 0.0
H1103 H 0.31367 0.76944 0.49287 0.0
H1104 H 0.32204 0.78415 0.48181 0.0
H1105 H 0.30066 0.75203 0.51123 0.0
H1106 H 0.27931 0.7765 0.50915 0.0
H1107 H 0.29757 0.7535 0.53159 0.0
H1108 H 0.27549 0.7775 0.52934 0.0
H1109 H 0.28346 0.74958 0.58684 0.0
H1110 H 0.2715 0.73589 0.59675 0.0
H1111 H 0.24315 0.75259 0.59336 0.0
H1112 H 0.25537 0.76655 0.58382 0.0
H1113 H 0.27752 0.7842 0.597 0.0
H1114 H 0.293 0.79224 0.60931 0.0
H1115 H 0.31436 0.77115 0.59041 0.0
H1116 H 0.2987 0.76296 0.57836 0.0
H1117 H 0.28124 0.74984 0.56587 0.0
H1118 H 0.28454 0.74878 0.54566 0.0
H1119 H 0.28258 0.78357 0.54703 0.0
N1120 N 0.27741 0.76821 0.5801 0.0
H1121 H 0.27851 0.78432 0.56721 0.0
C1122 C 0.28373 0.75503 0.49021 0.0
C1123 C 0.28737 0.74718 0.48201 0.0
C1124 C 0.27973 0.74036 0.47484 0.0
C1125 C 0.26825 0.74126 0.47574 0.0
C1126 C 0.26457 0.74894 0.48419 0.0
C1127 C 0.27222 0.75579 0.49131 0.0
C1128 C 0.29667 0.77231 0.49145 0.0
C1129 C 0.28985 0.77904 0.48726 0.0
C1130 C 0.29456 0.78732 0.48072 0.0
C1131 C 0.30619 0.78912 0.47834 0.0
C1132 C 0.31303 0.78283 0.4832 0.0
C1133 C 0.30829 0.77449 0.48963 0.0
C1134 C 0.29017 0.76405 0.50867 0.0
C1135 C 0.29523 0.75766 0.5152 0.0
C1136 C 0.29333 0.75844 0.52683 0.0
C1137 C 0.28615 0.76553 0.5322 0.0
C1138 C 0.28117 0.77204 0.5256 0.0
C1139 C 0.28325 0.77139 0.51398 0.0
C1140 C 0.27032 0.75921 0.5847 0.0
C1141 C 0.27467 0.75028 0.58816 0.0
C1142 C 0.26777 0.74237 0.59376 0.0
C1143 C 0.25636 0.74317 0.59597 0.0
C1144 C 0.25194 0.75183 0.59202 0.0
C1145 C 0.25887 0.75977 0.58648 0.0
C1146 C 0.28696 0.77307 0.58676 0.0
C1147 C 0.28558 0.78139 0.5955 0.0
C1148 C 0.29446 0.786 0.60247 0.0
C1149 C 0.30496 0.78238 0.60082 0.0
C1150 C 0.30636 0.77405 0.59198 0.0
C1151 C 0.29744 0.76942 0.58503 0.0
C1152 C 0.27941 0.76717 0.56807 0.0
C1153 C 0.28135 0.75721 0.56184 0.0
C1154 C 0.28341 0.75666 0.55022 0.0
C1155 C 0.28384 0.76609 0.54459 0.0
C1156 C 0.28207 0.77606 0.55094 0.0
C1157 C 0.27982 0.77655 0.56251 0.0
H1158 H 0.82286 0.77821 0.5489 0.0
N1159 N 0.81272 0.76379 0.53305 0.0
H1160 H 0.8141 0.78949 0.56386 0.0
H1161 H 0.79058 0.7666 0.53436 0.0
H1162 H 0.78175 0.77805 0.5491 0.0
H1163 H 0.79479 0.74855 0.53807 0.0
H1164 H 0.79545 0.73346 0.54923 0.0
H1165 H 0.83088 0.75556 0.53721 0.0
H1166 H 0.83169 0.74013 0.54796 0.0
H1167 H 0.82851 0.77378 0.5203 0.0
H1168 H 0.79558 0.75443 0.51914 0.0
H1169 H 0.82792 0.77554 0.50032 0.0
H1170 H 0.79453 0.75672 0.49928 0.0
H1171 H 0.81532 0.79086 0.44069 0.0
H1172 H 0.80186 0.80057 0.43288 0.0
H1173 H 0.77456 0.77889 0.44684 0.0
H1174 H 0.78812 0.76937 0.45479 0.0
H1175 H 0.79671 0.75571 0.44161 0.0
H1176 H 0.8014 0.74277 0.4257 0.0
H1177 H 0.83597 0.75854 0.42683 0.0
H1178 H 0.83119 0.77137 0.44288 0.0
H1179 H 0.81944 0.78753 0.46846 0.0
H1180 H 0.8193 0.78501 0.48831 0.0
H1181 H 0.80138 0.75194 0.48081 0.0
N1182 N 0.81093 0.77329 0.45166 0.0
H1183 H 0.80097 0.75483 0.46111 0.0
C1184 C 0.80744 0.77158 0.54054 0.0
C1185 C 0.81392 0.77835 0.54878 0.0
C1186 C 0.80889 0.78482 0.55728 0.0
C1187 C 0.7972 0.78466 0.5577 0.0
C1188 C 0.79075 0.77827 0.54909 0.0
C1189 C 0.79582 0.77176 0.54059 0.0
C1190 C 0.81283 0.75329 0.537 0.0
C1191 C 0.80288 0.74661 0.53996 0.0
C1192 C 0.80327 0.73792 0.54631 0.0
C1193 C 0.81363 0.73572 0.54969 0.0
C1194 C 0.82357 0.74177 0.54573 0.0
C1195 C 0.82315 0.75051 0.5395 0.0
C1196 C 0.81207 0.76415 0.5212 0.0
C1197 C 0.82112 0.76998 0.5157 0.0
C1198 C 0.82069 0.77107 0.50431 0.0
C1199 C 0.81108 0.76646 0.49819 0.0
C1200 C 0.80208 0.76036 0.50369 0.0
C1201 C 0.8026 0.75914 0.5151 0.0
C1202 C 0.80273 0.77943 0.44827 0.0
C1203 C 0.80643 0.78834 0.44218 0.0
C1204 C 0.79874 0.7938 0.43767 0.0
C1205 C 0.78715 0.79042 0.43915 0.0
C1206 C 0.78343 0.78173 0.44562 0.0
C1207 C 0.79116 0.77625 0.45013 0.0
C1208 C 0.81364 0.76456 0.44338 0.0
C1209 C 0.80533 0.75626 0.43859 0.0
C1210 C 0.80801 0.74889 0.42945 0.0
C1211 C 0.81903 0.74968 0.42495 0.0
C1212 C 0.82742 0.75762 0.43017 0.0
C1213 C 0.82472 0.76499 0.43929 0.0
C1214 C 0.81042 0.77136 0.46328 0.0
C1215 C 0.81545 0.77977 0.47115 0.0
C1216 C 0.81544 0.77825 0.48247 0.0
C1217 C 0.81051 0.76818 0.48618 0.0
C1218 C 0.80521 0.75982 0.47829 0.0
C1219 C 0.80508 0.76142 0.46695 0.0
H1220 H 0.82091 0.24304 0.58091 0.0
N1221 N 0.79959 0.24375 0.57705 0.0
H1222 H 0.83336 0.25585 0.59368 0.0
H1223 H 0.79458 0.26277 0.58896 0.0
H1224 H 0.80702 0.27583 0.60141 0.0
H1225 H 0.7786 0.24955 0.58058 0.0
H1226 H 0.76333 0.24056 0.59196 0.0
H1227 H 0.79924 0.2256 0.58674 0.0
H1228 H 0.7842 0.21671 0.59836 0.0
H1229 H 0.80441 0.2306 0.55897 0.0
H1230 H 0.79212 0.26127 0.56931 0.0
H1231 H 0.80396 0.23379 0.53929 0.0
H1232 H 0.79195 0.26473 0.54969 0.0
H1233 H 0.81824 0.25895 0.48304 0.0
H1234 H 0.82627 0.27547 0.47443 0.0
H1235 H 0.80131 0.29315 0.49206 0.0
H1236 H 0.79338 0.27654 0.5007 0.0
H1237 H 0.77976 0.26207 0.4923 0.0
H1238 H 0.76581 0.25199 0.47928 0.0
H1239 H 0.78621 0.22605 0.47206 0.0
H1240 H 0.80032 0.23645 0.48489 0.0
H1241 H 0.81507 0.24862 0.50722 0.0
H1242 H 0.81448 0.24582 0.52707 0.0
H1243 H 0.7831 0.25872 0.53166 0.0
N1244 N 0.80005 0.25625 0.49619 0.0
H1245 H 0.78397 0.26177 0.51181 0.0
C1246 C 0.80688 0.25195 0.58395 0.0
C1247 C 0.8179 0.25025 0.58531 0.0
C1248 C 0.825 0.25761 0.59256 0.0
C1249 C 0.8212 0.26688 0.59861 0.0
C1250 C 0.81018 0.2687 0.59702 0.0
C1251 C 0.80308 0.26129 0.5898 0.0
C1252 C 0.79004 0.23816 0.58277 0.0
C1253 C 0.77981 0.2423 0.5843 0.0
C1254 C 0.77111 0.23719 0.59089 0.0
C1255 C 0.77251 0.2279 0.5961 0.0
C1256 C 0.78271 0.22371 0.59433 0.0
C1257 C 0.79135 0.22879 0.58774 0.0
C1258 C 0.7984 0.24568 0.56559 0.0
C1259 C 0.80158 0.23801 0.55696 0.0
C1260 C 0.80141 0.23991 0.54574 0.0
C1261 C 0.79808 0.24961 0.5429 0.0
C1262 C 0.79452 0.25716 0.55157 0.0
C1263 C 0.79467 0.25521 0.56282 0.0
C1264 C 0.80524 0.26651 0.49244 0.0
C1265 C 0.81465 0.26646 0.48519 0.0
C1266 C 0.81923 0.27591 0.48031 0.0
C1267 C 0.81441 0.28562 0.48254 0.0
C1268 C 0.80513 0.28576 0.49009 0.0
C1269 C 0.80061 0.27629 0.49506 0.0
C1270 C 0.79113 0.25001 0.48949 0.0
C1271 C 0.7812 0.25419 0.488 0.0
C1272 C 0.77318 0.24836 0.48057 0.0
C1273 C 0.77491 0.23823 0.47454 0.0
C1274 C 0.78469 0.23392 0.47639 0.0
C1275 C 0.79272 0.23977 0.48378 0.0
C1276 C 0.79958 0.25533 0.50805 0.0
C1277 C 0.80812 0.25091 0.51256 0.0
C1278 C 0.8077 0.24923 0.52387 0.0
C1279 C 0.79865 0.2519 0.53095 0.0
C1280 C 0.7902 0.25661 0.52647 0.0
C1281 C 0.79066 0.25833 0.5151 0.0
H1282 H 0.29832 0.26232 0.45287 0.0
N1283 N 0.27879 0.25432 0.46208 0.0
H1284 H 0.30876 0.25349 0.43728 0.0
H1285 H 0.27347 0.23315 0.45194 0.0
H1286 H 0.28388 0.22419 0.43642 0.0
H1287 H 0.25922 0.24438 0.4521 0.0
H1288 H 0.24732 0.2531 0.44111 0.0
H1289 H 0.28019 0.27567 0.46022 0.0
H1290 H 0.26815 0.28456 0.4495 0.0
H1291 H 0.29087 0.24218 0.47258 0.0
H1292 H 0.25895 0.25421 0.47474 0.0
H1293 H 0.28587 0.23345 0.48952 0.0
H1294 H 0.25419 0.24575 0.49181 0.0
H1295 H 0.27675 0.23207 0.54802 0.0
H1296 H 0.28733 0.22187 0.55852 0.0
H1297 H 0.26881 0.19123 0.54329 0.0
H1298 H 0.25765 0.20169 0.5333 0.0
H1299 H 0.24306 0.22038 0.55141 0.0
H1300 H 0.23934 0.23354 0.56754 0.0
H1301 H 0.26162 0.25922 0.55285 0.0
H1302 H 0.2657 0.24605 0.53717 0.0
H1303 H 0.27934 0.23253 0.52736 0.0
H1304 H 0.28377 0.2391 0.50918 0.0
H1305 H 0.2494 0.22831 0.49954 0.0
N1306 N 0.25852 0.22352 0.53513 0.0
H1307 H 0.24494 0.22191 0.51801 0.0
C1308 C 0.28515 0.24844 0.45352 0.0
C1309 C 0.29522 0.25395 0.44938 0.0
C1310 C 0.30118 0.24886 0.44053 0.0
C1311 C 0.29714 0.23813 0.43561 0.0
C1312 C 0.28714 0.23251 0.43994 0.0
C1313 C 0.28119 0.23761 0.44881 0.0
C1314 C 0.27064 0.25941 0.45696 0.0
C1315 C 0.26117 0.25316 0.45164 0.0
C1316 C 0.25432 0.25818 0.44543 0.0
C1317 C 0.25684 0.26951 0.44435 0.0
C1318 C 0.26608 0.27578 0.45002 0.0
C1319 C 0.2729 0.27076 0.45624 0.0
C1320 C 0.27514 0.24845 0.47175 0.0
C1321 C 0.28267 0.24276 0.47646 0.0
C1322 C 0.27988 0.23787 0.4863 0.0
C1323 C 0.26958 0.2388 0.49198 0.0
C1324 C 0.26207 0.24461 0.48747 0.0
C1325 C 0.26484 0.24947 0.47758 0.0
C1326 C 0.2662 0.21763 0.53998 0.0
C1327 C 0.27498 0.22316 0.54685 0.0
C1328 C 0.28116 0.21726 0.5528 0.0
C1329 C 0.27891 0.20567 0.55189 0.0
C1330 C 0.27062 0.20015 0.54444 0.0
C1331 C 0.2643 0.20609 0.53861 0.0
C1332 C 0.2547 0.23207 0.54305 0.0
C1333 C 0.24692 0.22892 0.55156 0.0
C1334 C 0.24478 0.23647 0.56076 0.0
C1335 C 0.25033 0.24741 0.56158 0.0
C1336 C 0.25741 0.2508 0.55261 0.0
C1337 C 0.25966 0.24322 0.54351 0.0
C1338 C 0.26175 0.22662 0.52406 0.0
C1339 C 0.27276 0.23138 0.52133 0.0
C1340 C 0.2753 0.23515 0.51086 0.0
C1341 C 0.26694 0.23423 0.50288 0.0
C1342 C 0.25601 0.22926 0.50554 0.0
C1343 C 0.25346 0.22552 0.51604 0.0
H1344 H 0.79033 0.46925 0.81365 0.0
N1345 N 0.7875 0.47701 0.79446 0.0
H1346 H 0.77714 0.45612 0.82332 0.0
H1347 H 0.76583 0.46902 0.78858 0.0
H1348 H 0.75252 0.45609 0.79828 0.0
H1349 H 0.78088 0.46087 0.77725 0.0
H1350 H 0.79279 0.44938 0.76594 0.0
H1351 H 0.80976 0.47896 0.79457 0.0
H1352 H 0.82182 0.46725 0.78339 0.0
H1353 H 0.78431 0.49544 0.80716 0.0
H1354 H 0.78173 0.47977 0.77301 0.0
H1355 H 0.777 0.51128 0.80168 0.0
H1356 H 0.77516 0.49573 0.76736 0.0
H1357 H 0.7699 0.56013 0.78295 0.0
H1358 H 0.76064 0.57361 0.79473 0.0
H1359 H 0.72837 0.55459 0.78613 0.0
H1360 H 0.7378 0.54126 0.77391 0.0
H1361 H 0.75335 0.54616 0.74948 0.0
H1362 H 0.76448 0.55679 0.73579 0.0
H1363 H 0.79316 0.56117 0.75705 0.0
H1364 H 0.78219 0.55031 0.77034 0.0
H1365 H 0.77423 0.54255 0.78634 0.0
H1366 H 0.78122 0.52676 0.79211 0.0
H1367 H 0.75983 0.5051 0.76818 0.0
N1368 N 0.75964 0.54221 0.76932 0.0
H1369 H 0.75347 0.52113 0.76195 0.0
C1370 C 0.77909 0.47013 0.80045 0.0
C1371 C 0.78203 0.46649 0.81036 0.0
C1372 C 0.77447 0.45904 0.81587 0.0
C1373 C 0.76379 0.45504 0.81155 0.0
C1374 C 0.76074 0.4589 0.80175 0.0
C1375 C 0.76831 0.46636 0.79624 0.0
C1376 C 0.79444 0.47082 0.78681 0.0
C1377 C 0.7898 0.46244 0.77858 0.0
C1378 C 0.79664 0.4558 0.77215 0.0
C1379 C 0.80825 0.4573 0.77384 0.0
C1380 C 0.81293 0.46592 0.78181 0.0
C1381 C 0.80607 0.4726 0.78822 0.0
C1382 C 0.78372 0.48641 0.79058 0.0
C1383 C 0.78233 0.49549 0.79846 0.0
C1384 C 0.77821 0.50458 0.79527 0.0
C1385 C 0.77549 0.50486 0.78404 0.0
C1386 C 0.77696 0.49577 0.77612 0.0
C1387 C 0.7809 0.4866 0.77936 0.0
C1388 C 0.75451 0.54967 0.77742 0.0
C1389 C 0.76085 0.55875 0.78363 0.0
C1390 C 0.75551 0.56647 0.79047 0.0
C1391 C 0.74373 0.56526 0.79136 0.0
C1392 C 0.73744 0.55591 0.7855 0.0
C1393 C 0.7428 0.54823 0.77859 0.0
C1394 C 0.76684 0.54744 0.76095 0.0
C1395 C 0.7621 0.54926 0.75104 0.0
C1396 C 0.76846 0.5554 0.74329 0.0
C1397 C 0.77971 0.55992 0.74535 0.0
C1398 C 0.78458 0.55771 0.75509 0.0
C1399 C 0.77824 0.55152 0.76279 0.0
C1400 C 0.76341 0.53303 0.77356 0.0
C1401 C 0.77109 0.53444 0.78226 0.0
C1402 C 0.77501 0.52533 0.78565 0.0
C1403 C 0.77117 0.51458 0.78059 0.0
C1404 C 0.76322 0.51323 0.77211 0.0
C1405 C 0.75946 0.52236 0.7686 0.0
H1406 H 0.25795 0.55623 0.76991 0.0
N1407 N 0.26697 0.54386 0.75234 0.0
H1408 H 0.26828 0.56985 0.78364 0.0
H1409 H 0.28909 0.54886 0.75403 0.0
H1410 H 0.29955 0.56268 0.76762 0.0
H1411 H 0.27182 0.55606 0.73566 0.0
H1412 H 0.25957 0.56637 0.72715 0.0
H1413 H 0.24414 0.54221 0.75603 0.0
H1414 H 0.23154 0.55198 0.74707 0.0
H1415 H 0.25611 0.53647 0.77125 0.0
H1416 H 0.27166 0.526 0.73953 0.0
H1417 H 0.2549 0.51802 0.77673 0.0
H1418 H 0.26983 0.50724 0.7446 0.0
H1419 H 0.25677 0.45585 0.79172 0.0
H1420 H 0.26883 0.44941 0.80442 0.0
H1421 H 0.29722 0.47121 0.79245 0.0
H1422 H 0.28521 0.47733 0.77958 0.0
H1423 H 0.28098 0.46153 0.7631 0.0
H1424 H 0.2805 0.44507 0.74967 0.0
H1425 H 0.24447 0.43822 0.75418 0.0
H1426 H 0.245 0.455 0.7675 0.0
H1427 H 0.24782 0.48144 0.7809 0.0
H1428 H 0.247 0.49939 0.77462 0.0
H1429 H 0.27855 0.49769 0.75636 0.0
N1430 N 0.26311 0.46831 0.77544 0.0
H1431 H 0.27889 0.47963 0.76208 0.0
C1432 C 0.2728 0.55158 0.7609 0.0
C1433 C 0.26703 0.55751 0.76941 0.0
C1434 C 0.27294 0.56534 0.77723 0.0
C1435 C 0.28473 0.56739 0.77669 0.0
C1436 C 0.29048 0.56121 0.76835 0.0
C1437 C 0.28454 0.55338 0.76054 0.0
C1438 C 0.25894 0.54831 0.74639 0.0
C1439 C 0.26299 0.555 0.73803 0.0
C1440 C 0.2559 0.56085 0.73313 0.0
C1441 C 0.24447 0.56006 0.73636 0.0
C1442 C 0.24031 0.55297 0.74447 0.0
C1443 C 0.24748 0.54723 0.74951 0.0
C1444 C 0.26419 0.53268 0.75501 0.0
C1445 C 0.25907 0.53015 0.76535 0.0
C1446 C 0.25831 0.51951 0.76845 0.0
C1447 C 0.26246 0.51111 0.76121 0.0
C1448 C 0.26686 0.51354 0.75056 0.0
C1449 C 0.26777 0.52422 0.74756 0.0
C1450 C 0.26997 0.46703 0.78461 0.0
C1451 C 0.26553 0.45948 0.79209 0.0
C1452 C 0.27247 0.4558 0.79935 0.0
C1453 C 0.28407 0.45966 0.79936 0.0
C1454 C 0.28837 0.46787 0.79249 0.0
C1455 C 0.28143 0.47149 0.78516 0.0
C1456 C 0.26297 0.45952 0.76632 0.0
C1457 C 0.27293 0.4567 0.76102 0.0
C1458 C 0.27266 0.44718 0.75341 0.0
C1459 C 0.26246 0.44027 0.75097 0.0
C1460 C 0.25245 0.44342 0.75583 0.0
C1461 C 0.25273 0.45296 0.76345 0.0
C1462 C 0.26344 0.47921 0.77214 0.0
C1463 C 0.25456 0.48501 0.77557 0.0
C1464 C 0.25414 0.49529 0.77199 0.0
C1465 C 0.2627 0.50005 0.76492 0.0
C1466 C 0.27167 0.49424 0.76158 0.0
C1467 C 0.27198 0.4839 0.76504 0.0
H1468 H 0.26523 0.55744 0.27146 0.0
N1469 N 0.24816 0.53997 0.26819 0.0
H1470 H 0.27565 0.56729 0.25703 0.0
H1471 H 0.24653 0.53524 0.24602 0.0
H1472 H 0.25718 0.54503 0.23137 0.0
H1473 H 0.22837 0.54619 0.26617 0.0
H1474 H 0.21954 0.55973 0.27872 0.0
H1475 H 0.25602 0.55023 0.28852 0.0
H1476 H 0.24744 0.56396 0.30095 0.0
H1477 H 0.26969 0.53957 0.2747 0.0
H1478 H 0.23662 0.52055 0.27176 0.0
H1479 H 0.27665 0.52418 0.2813 0.0
H1480 H 0.24337 0.50522 0.27904 0.0
H1481 H 0.29683 0.47322 0.30406 0.0
H1482 H 0.31085 0.46322 0.2938 0.0
H1483 H 0.29244 0.46092 0.26337 0.0
H1484 H 0.27845 0.47068 0.27363 0.0
H1485 H 0.26559 0.45846 0.28571 0.0
H1486 H 0.25382 0.44395 0.29459 0.0
H1487 H 0.25957 0.46298 0.32708 0.0
H1488 H 0.27179 0.47733 0.31807 0.0
H1489 H 0.28389 0.49848 0.30274 0.0
H1490 H 0.27658 0.51401 0.29647 0.0
H1491 H 0.25432 0.4912 0.27429 0.0
N1492 N 0.27773 0.47716 0.29645 0.0
H1493 H 0.26122 0.47582 0.2811 0.0
C1494 C 0.25503 0.54556 0.25982 0.0
C1495 C 0.26342 0.55459 0.26276 0.0
C1496 C 0.26946 0.5602 0.25446 0.0
C1497 C 0.26727 0.55694 0.24303 0.0
C1498 C 0.259 0.54781 0.2401 0.0
C1499 C 0.25296 0.54217 0.24843 0.0
C1500 C 0.24281 0.54719 0.27637 0.0
C1501 C 0.23247 0.54994 0.27384 0.0
C1502 C 0.22751 0.55774 0.28097 0.0
C1503 C 0.23283 0.56301 0.2908 0.0
C1504 C 0.24306 0.55999 0.29351 0.0
C1505 C 0.248 0.55216 0.28638 0.0
C1506 C 0.2526 0.53117 0.27251 0.0
C1507 C 0.26388 0.5321 0.27549 0.0
C1508 C 0.26784 0.52328 0.27942 0.0
C1509 C 0.26061 0.51338 0.28069 0.0
C1510 C 0.24927 0.51259 0.27795 0.0
C1511 C 0.24536 0.52137 0.27387 0.0
C1512 C 0.28658 0.47274 0.2897 0.0
C1513 C 0.29596 0.47074 0.29512 0.0
C1514 C 0.30397 0.46504 0.28925 0.0
C1515 C 0.30271 0.4612 0.27779 0.0
C1516 C 0.29356 0.46363 0.27223 0.0
C1517 C 0.28557 0.46933 0.27811 0.0
C1518 C 0.26969 0.46898 0.30127 0.0
C1519 C 0.26428 0.45959 0.29473 0.0
C1520 C 0.25745 0.45129 0.29984 0.0
C1521 C 0.25578 0.45223 0.31159 0.0
C1522 C 0.26084 0.46186 0.31804 0.0
C1523 C 0.26774 0.47012 0.31292 0.0
C1524 C 0.27322 0.48602 0.29236 0.0
C1525 C 0.27742 0.49688 0.29654 0.0
C1526 C 0.27327 0.50574 0.29287 0.0
C1527 C 0.26488 0.50392 0.2848 0.0
C1528 C 0.26066 0.49297 0.28063 0.0
C1529 C 0.2647 0.48412 0.28443 0.0
H1530 H 0.79748 0.47991 0.28639 0.0
N1531 N 0.77446 0.47568 0.28692 0.0
H1532 H 0.80971 0.47218 0.29798 0.0
H1533 H 0.76861 0.46652 0.30556 0.0
H1534 H 0.78078 0.45908 0.31744 0.0
H1535 H 0.75414 0.46445 0.28269 0.0
H1536 H 0.74951 0.44713 0.27031 0.0
H1537 H 0.78888 0.46595 0.27198 0.0
H1538 H 0.78441 0.44879 0.25984 0.0
H1539 H 0.78657 0.48361 0.26877 0.0
H1540 H 0.7656 0.49258 0.29742 0.0
H1541 H 0.78727 0.50174 0.26281 0.0
H1542 H 0.76684 0.51113 0.2919 0.0
H1543 H 0.79775 0.56739 0.26075 0.0
H1544 H 0.80817 0.58121 0.27428 0.0
H1545 H 0.78789 0.56764 0.30139 0.0
H1546 H 0.77733 0.55408 0.28775 0.0
H1547 H 0.76284 0.55999 0.2767 0.0
H1548 H 0.74928 0.56982 0.26938 0.0
H1549 H 0.76402 0.5642 0.23606 0.0
H1550 H 0.77753 0.55423 0.24348 0.0
H1551 H 0.7957 0.53875 0.26119 0.0
H1552 H 0.79472 0.52025 0.26663 0.0
H1553 H 0.76058 0.52126 0.27885 0.0
N1554 N 0.78051 0.55213 0.26487 0.0
H1555 H 0.7619 0.53995 0.27398 0.0
C1556 C 0.78209 0.47367 0.29506 0.0
C1557 C 0.7938 0.47558 0.2933 0.0
C1558 C 0.80079 0.47117 0.29996 0.0
C1559 C 0.7962 0.46481 0.3085 0.0
C1560 C 0.78457 0.4637 0.31077 0.0
C1561 C 0.77761 0.46806 0.30409 0.0
C1562 C 0.7718 0.46654 0.27828 0.0
C1563 C 0.76071 0.46118 0.2775 0.0
C1564 C 0.7581 0.45127 0.27049 0.0
C1565 C 0.7666 0.44657 0.26412 0.0
C1566 C 0.77763 0.45226 0.26449 0.0
C1567 C 0.78021 0.46211 0.27151 0.0
C1568 C 0.77586 0.48663 0.28352 0.0
C1569 C 0.78217 0.48948 0.27386 0.0
C1570 C 0.78265 0.49998 0.27049 0.0
C1571 C 0.77705 0.50797 0.2768 0.0
C1572 C 0.77103 0.50516 0.28665 0.0
C1573 C 0.77042 0.4946 0.28991 0.0
C1574 C 0.78682 0.55972 0.27321 0.0
C1575 C 0.79564 0.56738 0.26963 0.0
C1576 C 0.80162 0.5752 0.27739 0.0
C1577 C 0.7989 0.5755 0.28895 0.0
C1578 C 0.79013 0.5677 0.29255 0.0
C1579 C 0.78412 0.5599 0.28476 0.0
C1580 C 0.77125 0.55635 0.2606 0.0
C1581 C 0.76304 0.56066 0.26779 0.0
C1582 C 0.75533 0.56638 0.2636 0.0
C1583 C 0.75564 0.56791 0.25216 0.0
C1584 C 0.76348 0.56311 0.2449 0.0
C1585 C 0.77121 0.55741 0.24911 0.0
C1586 C 0.7789 0.54075 0.26704 0.0
C1587 C 0.78797 0.5349 0.26493 0.0
C1588 C 0.78736 0.52429 0.26803 0.0
C1589 C 0.77756 0.51918 0.27321 0.0
C1590 C 0.76834 0.52497 0.27507 0.0
C1591 C 0.76903 0.53567 0.27213 0.0
H1592 H 0.55761 0.2905 0.75359 0.0
N1593 N 0.54481 0.27098 0.75373 0.0
H1594 H 0.56874 0.301 0.76897 0.0
H1595 H 0.54463 0.26581 0.77517 0.0
H1596 H 0.55552 0.27629 0.79067 0.0
H1597 H 0.54315 0.25065 0.76076 0.0
H1598 H 0.55484 0.23656 0.75393 0.0
H1599 H 0.5578 0.2706 0.7353 0.0
H1600 H 0.5691 0.2564 0.728 0.0
H1601 H 0.53656 0.27954 0.73731 0.0
H1602 H 0.52691 0.26331 0.7668 0.0
H1603 H 0.51711 0.2819 0.73506 0.0
H1604 H 0.50749 0.26617 0.76509 0.0
H1605 H 0.45593 0.2997 0.74083 0.0
H1606 H 0.44502 0.31029 0.75456 0.0
H1607 H 0.45237 0.29095 0.78021 0.0
H1608 H 0.46298 0.2802 0.76629 0.0
H1609 H 0.45117 0.26628 0.75237 0.0
H1610 H 0.43858 0.25179 0.74164 0.0
H1611 H 0.45212 0.26401 0.71078 0.0
H1612 H 0.46446 0.27875 0.72168 0.0
H1613 H 0.48489 0.29592 0.74054 0.0
H1614 H 0.50397 0.29274 0.74328 0.0
H1615 H 0.4908 0.26135 0.75488 0.0
N1616 N 0.46586 0.28268 0.74388 0.0
H1617 H 0.47176 0.26494 0.7527 0.0
C1618 C 0.55031 0.27744 0.76325 0.0
C1619 C 0.55703 0.28748 0.76173 0.0
C1620 C 0.56333 0.29346 0.77054 0.0
C1621 C 0.56303 0.28947 0.78106 0.0
C1622 C 0.55603 0.27952 0.78264 0.0
C1623 C 0.54973 0.27355 0.77381 0.0
C1624 C 0.54978 0.26171 0.7486 0.0
C1625 C 0.54872 0.25187 0.75354 0.0
C1626 C 0.55537 0.2438 0.74957 0.0
C1627 C 0.5631 0.24543 0.74054 0.0
C1628 C 0.56348 0.25499 0.73516 0.0
C1629 C 0.55694 0.26305 0.7392 0.0
C1630 C 0.53316 0.27137 0.75224 0.0
C1631 C 0.53019 0.27649 0.7433 0.0
C1632 C 0.51909 0.27794 0.74213 0.0
C1633 C 0.5107 0.27443 0.75002 0.0
C1634 C 0.51367 0.26895 0.75882 0.0
C1635 C 0.52481 0.26738 0.75988 0.0
C1636 C 0.4603 0.28923 0.75252 0.0
C1637 C 0.45526 0.29785 0.74945 0.0
C1638 C 0.44908 0.30391 0.75734 0.0
C1639 C 0.44781 0.3015 0.76853 0.0
C1640 C 0.45305 0.29295 0.77165 0.0
C1641 C 0.45922 0.28685 0.76372 0.0
C1642 C 0.45869 0.27367 0.73779 0.0
C1643 C 0.45143 0.26586 0.74331 0.0
C1644 C 0.44429 0.2575 0.73713 0.0
C1645 C 0.4443 0.25674 0.72533 0.0
C1646 C 0.45175 0.26445 0.71985 0.0
C1647 C 0.45886 0.27283 0.72604 0.0
C1648 C 0.47691 0.28065 0.74624 0.0
C1649 C 0.48616 0.28841 0.74376 0.0
C1650 C 0.49706 0.28649 0.74522 0.0
C1651 C 0.499 0.27667 0.7491 0.0
C1652 C 0.48967 0.26902 0.75191 0.0
C1653 C 0.47874 0.27103 0.75058 0.0
H1654 H 0.50614 0.78639 0.78964 0.0
N1655 N 0.51575 0.80546 0.80184 0.0
H1656 H 0.49046 0.77337 0.79564 0.0
H1657 H 0.50641 0.8052 0.82238 0.0
H1658 H 0.49056 0.79205 0.82852 0.0
H1659 H 0.50477 0.82258 0.80451 0.0
H1660 H 0.49485 0.82951 0.79025 0.0
H1661 H 0.51767 0.79967 0.77912 0.0
H1662 H 0.50772 0.80652 0.76472 0.0
H1663 H 0.5244 0.78585 0.79665 0.0
H1664 H 0.53348 0.821 0.80497 0.0
H1665 H 0.5438 0.78349 0.7972 0.0
H1666 H 0.55322 0.81877 0.80473 0.0
H1667 H 0.59745 0.77558 0.79217 0.0
H1668 H 0.60449 0.76 0.79856 0.0
H1669 H 0.60855 0.77785 0.83177 0.0
H1670 H 0.60156 0.79348 0.82524 0.0
H1671 H 0.61422 0.81071 0.80907 0.0
H1672 H 0.62905 0.81758 0.79597 0.0
H1673 H 0.61095 0.79794 0.76836 0.0
H1674 H 0.59642 0.79093 0.78149 0.0
H1675 H 0.58079 0.78278 0.79061 0.0
H1676 H 0.56149 0.78552 0.7888 0.0
H1677 H 0.56608 0.81274 0.81535 0.0
N1678 N 0.5964 0.79562 0.80449 0.0
H1679 H 0.58568 0.81041 0.81642 0.0
C1680 C 0.5075 0.7968 0.80561 0.0
C1681 C 0.50298 0.78761 0.7982 0.0
C1682 C 0.49403 0.7801 0.80168 0.0
C1683 C 0.48929 0.78167 0.81256 0.0
C1684 C 0.49403 0.79066 0.82007 0.0
C1685 C 0.50309 0.79813 0.81661 0.0
C1686 C 0.51188 0.81061 0.79291 0.0
C1687 C 0.50568 0.81926 0.79579 0.0
C1688 C 0.50004 0.8232 0.78762 0.0
C1689 C 0.50044 0.81851 0.77635 0.0
C1690 C 0.50715 0.81021 0.77335 0.0
C1691 C 0.51288 0.80632 0.78155 0.0
C1692 C 0.52733 0.80368 0.80097 0.0
C1693 C 0.53051 0.79314 0.79846 0.0
C1694 C 0.54177 0.79178 0.79866 0.0
C1695 C 0.55018 0.80092 0.80112 0.0
C1696 C 0.54701 0.81148 0.80312 0.0
C1697 C 0.53573 0.81281 0.80313 0.0
C1698 C 0.59898 0.78572 0.80828 0.0
C1699 C 0.59961 0.77607 0.80088 0.0
C1700 C 0.60364 0.76714 0.80455 0.0
C1701 C 0.60717 0.76773 0.81565 0.0
C1702 C 0.60605 0.77721 0.82313 0.0
C1703 C 0.60199 0.78609 0.81946 0.0
C1704 C 0.60421 0.80035 0.79632 0.0
C1705 C 0.61341 0.80804 0.80016 0.0
C1706 C 0.62184 0.81198 0.79266 0.0
C1707 C 0.6212 0.80828 0.7811 0.0
C1708 C 0.61177 0.80084 0.77722 0.0
C1709 C 0.60338 0.79688 0.78475 0.0
C1710 C 0.58475 0.79655 0.80355 0.0
C1711 C 0.57772 0.78944 0.79592 0.0
C1712 C 0.56657 0.79094 0.795 0.0
C1713 C 0.56213 0.79941 0.80188 0.0
C1714 C 0.56919 0.80632 0.80968 0.0
C1715 C 0.58038 0.80494 0.81042 0.0
H1716 H 0.55305 0.76596 0.26382 0.0
N1717 N 0.53571 0.75252 0.27309 0.0
H1718 H 0.56593 0.78067 0.27374 0.0
H1719 H 0.53533 0.7597 0.295 0.0
H1720 H 0.54831 0.77462 0.30507 0.0
H1721 H 0.54374 0.7358 0.28005 0.0
H1722 H 0.55639 0.72426 0.26973 0.0
H1723 H 0.54106 0.75181 0.25055 0.0
H1724 H 0.55356 0.74017 0.24007 0.0
H1725 H 0.53313 0.77205 0.26503 0.0
H1726 H 0.516 0.73962 0.27018 0.0
H1727 H 0.51597 0.77699 0.25926 0.0
H1728 H 0.4988 0.74418 0.2633 0.0
H1729 H 0.4565 0.79135 0.24249 0.0
H1730 H 0.44597 0.804 0.25443 0.0
H1731 H 0.45038 0.78717 0.28301 0.0
H1732 H 0.46072 0.7746 0.27116 0.0
H1733 H 0.447 0.7608 0.25675 0.0
H1734 H 0.43391 0.7468 0.24601 0.0
H1735 H 0.45297 0.75343 0.21551 0.0
H1736 H 0.46564 0.76787 0.22632 0.0
H1737 H 0.48549 0.78168 0.24148 0.0
H1738 H 0.50291 0.77581 0.24608 0.0
H1739 H 0.48415 0.7536 0.26788 0.0
N1740 N 0.46479 0.77423 0.24824 0.0
H1741 H 0.4668 0.75878 0.26227 0.0
C1742 C 0.54328 0.76156 0.27872 0.0
C1743 C 0.55197 0.76766 0.27282 0.0
C1744 C 0.55934 0.77612 0.27851 0.0
C1745 C 0.55819 0.77872 0.29019 0.0
C1746 C 0.54936 0.77281 0.29606 0.0
C1747 C 0.54199 0.76428 0.29034 0.0
C1748 C 0.54146 0.74464 0.26612 0.0
C1749 C 0.54566 0.73659 0.27124 0.0
C1750 C 0.55287 0.73 0.26531 0.0
C1751 C 0.55607 0.73134 0.25408 0.0
C1752 C 0.55139 0.73904 0.24876 0.0
C1753 C 0.54415 0.74563 0.25471 0.0
C1754 C 0.52591 0.75543 0.26833 0.0
C1755 C 0.52574 0.76586 0.2648 0.0
C1756 C 0.51581 0.76868 0.2613 0.0
C1757 C 0.50582 0.76106 0.26084 0.0
C1758 C 0.50616 0.75044 0.26383 0.0
C1759 C 0.51605 0.74773 0.26764 0.0
C1760 C 0.45954 0.78206 0.25584 0.0
C1761 C 0.45531 0.79049 0.25136 0.0
C1762 C 0.44924 0.79766 0.25817 0.0
C1763 C 0.44736 0.79658 0.26965 0.0
C1764 C 0.45182 0.78829 0.27421 0.0
C1765 C 0.45777 0.78105 0.26738 0.0
C1766 C 0.4572 0.76552 0.24226 0.0
C1767 C 0.44832 0.75928 0.24775 0.0
C1768 C 0.44089 0.75117 0.24158 0.0
C1769 C 0.4423 0.74899 0.22984 0.0
C1770 C 0.45143 0.75503 0.22448 0.0
C1771 C 0.45874 0.76323 0.23063 0.0
C1772 C 0.4749 0.77093 0.25174 0.0
C1773 C 0.4852 0.77556 0.24727 0.0
C1774 C 0.49517 0.77222 0.25 0.0
C1775 C 0.49509 0.76428 0.25751 0.0
C1776 C 0.48466 0.75961 0.26196 0.0
C1777 C 0.47468 0.76274 0.25895 0.0
H1778 H 0.6071 0.31492 0.33953 0.0
N1779 N 0.59429 0.31724 0.3229 0.0
H1780 H 0.61216 0.29785 0.34467 0.0
H1781 H 0.58535 0.29631 0.31421 0.0
H1782 H 0.59016 0.27911 0.31944 0.0
H1783 H 0.5996 0.3067 0.30237 0.0
H1784 H 0.61502 0.31279 0.28973 0.0
H1785 H 0.6082 0.33628 0.3252 0.0
H1786 H 0.62401 0.34234 0.31271 0.0
H1787 H 0.57843 0.31955 0.3387 0.0
H1788 H 0.58392 0.31742 0.30272 0.0
H1789 H 0.55884 0.32126 0.33638 0.0
H1790 H 0.56477 0.31987 0.30043 0.0
H1791 H 0.49425 0.32495 0.32574 0.0
H1792 H 0.47952 0.3099 0.32955 0.0
H1793 H 0.50136 0.28638 0.31676 0.0
H1794 H 0.51572 0.30135 0.31241 0.0
H1795 H 0.50769 0.30995 0.29479 0.0
H1796 H 0.49737 0.31444 0.27943 0.0
H1797 H 0.49865 0.3478 0.29559 0.0
H1798 H 0.50921 0.34327 0.31089 0.0
H1799 H 0.52681 0.33372 0.3303 0.0
H1800 H 0.54673 0.33296 0.33213 0.0
H1801 H 0.54635 0.31126 0.30092 0.0
N1802 N 0.51334 0.32343 0.31423 0.0
H1803 H 0.52678 0.3127 0.29887 0.0
C1804 C 0.59587 0.30691 0.32655 0.0
C1805 C 0.60324 0.30711 0.33526 0.0
C1806 C 0.60608 0.29733 0.3382 0.0
C1807 C 0.60157 0.28709 0.33246 0.0
C1808 C 0.59388 0.28686 0.32393 0.0
C1809 C 0.59105 0.29668 0.32099 0.0
C1810 C 0.60274 0.32107 0.31477 0.0
C1811 C 0.60479 0.31454 0.30466 0.0
C1812 C 0.61368 0.31802 0.29745 0.0
C1813 C 0.62084 0.32801 0.30026 0.0
C1814 C 0.61859 0.33466 0.31023 0.0
C1815 C 0.60961 0.33121 0.3174 0.0
C1816 C 0.58279 0.31837 0.32099 0.0
C1817 C 0.57546 0.31956 0.33032 0.0
C1818 C 0.56427 0.32066 0.32897 0.0
C1819 C 0.56016 0.32079 0.3182 0.0
C1820 C 0.56753 0.31964 0.30884 0.0
C1821 C 0.57865 0.31832 0.31019 0.0
C1822 C 0.50609 0.31442 0.31871 0.0
C1823 C 0.49594 0.31655 0.32402 0.0
C1824 C 0.48754 0.3079 0.32624 0.0
C1825 C 0.48917 0.29688 0.32331 0.0
C1826 C 0.49971 0.29476 0.31887 0.0
C1827 C 0.50803 0.30341 0.31647 0.0
C1828 C 0.50927 0.32632 0.30403 0.0
C1829 C 0.50609 0.31833 0.29488 0.0
C1830 C 0.50006 0.32087 0.28615 0.0
C1831 C 0.49706 0.33144 0.28636 0.0
C1832 C 0.50089 0.33961 0.29513 0.0
C1833 C 0.50692 0.33704 0.30388 0.0
C1834 C 0.52525 0.32327 0.31453 0.0
C1835 C 0.53112 0.32894 0.3238 0.0
C1836 C 0.54248 0.32837 0.32488 0.0
C1837 C 0.54821 0.32194 0.31674 0.0
C1838 C 0.54234 0.31644 0.3073 0.0
C1839 C 0.53104 0.31719 0.30613 0.0
H1840 H 0.2012 0.20159 0.16847 0.0
H1841 H 0.21437 0.21031 0.15496 0.0
H1842 H 0.22897 0.18048 0.14771 0.0
H1843 H 0.21582 0.17163 0.16128 0.0
H1844 H 0.23942 0.21227 0.1553 0.0
H1845 H 0.22017 0.18912 0.11641 0.0
H1846 H 0.21241 0.19044 0.12963 0.0
H1847 H 0.22268 0.1813 0.12751 0.0
C1848 C 0.20718 0.19684 0.164 0.0
C1849 C 0.20743 0.18589 0.16595 0.0
C1850 C 0.21471 0.20186 0.1563 0.0
C1851 C 0.22255 0.196 0.15029 0.0
C1852 C 0.22288 0.18509 0.1522 0.0
H1853 H 0.27117 0.21497 0.09735 0.0
H1854 H 0.259 0.20481 0.11067 0.0
C1855 C 0.2154 0.18007 0.15998 0.0
C1856 C 0.23048 0.20145 0.14217 0.0
H1857 H 0.23636 0.20209 0.11413 0.0
C1858 C 0.23879 0.21005 0.1463 0.0
C1859 C 0.22965 0.19845 0.13046 0.0
C1860 C 0.22072 0.18937 0.12566 0.0
C1861 C 0.24633 0.21576 0.13899 0.0
C1862 C 0.24532 0.21298 0.12724 0.0
C1863 C 0.2371 0.20424 0.12313 0.0
C1864 C 0.25259 0.21915 0.11907 0.0
C1865 C 0.25543 0.22458 0.14397 0.0
C1866 C 0.25287 0.23056 0.11922 0.0
C1867 C 0.25992 0.23642 0.11172 0.0
C1868 C 0.26674 0.23097 0.10379 0.0
C1869 C 0.26619 0.21947 0.10346 0.0
C1870 C 0.25918 0.21363 0.11102 0.0
H1871 H 0.25719 0.22337 0.1527 0.0
H1872 H 0.26334 0.2247 0.13884 0.0
H1873 H 0.25265 0.23275 0.14423 0.0
H1874 H 0.24766 0.23496 0.12518 0.0
H1875 H 0.26018 0.24526 0.11232 0.0
H1876 H 0.83366 0.17509 0.12681 0.0
H1877 H 0.82964 0.18331 0.11016 0.0
H1878 H 0.80893 0.20391 0.1305 0.0
H1879 H 0.81294 0.19581 0.14719 0.0
H1880 H 0.80853 0.18459 0.10061 0.0
H1881 H 0.83228 0.22578 0.1148 0.0
H1882 H 0.83388 0.21353 0.12099 0.0
H1883 H 0.82201 0.22047 0.12486 0.0
C1884 C 0.82822 0.18134 0.12774 0.0
C1885 C 0.82369 0.18486 0.13834 0.0
C1886 C 0.82592 0.18601 0.11821 0.0
C1887 C 0.81913 0.19432 0.11914 0.0
C1888 C 0.81435 0.19763 0.12965 0.0
H1889 H 0.78587 0.2226 0.0707 0.0
H1890 H 0.79109 0.21127 0.0843 0.0
C1891 C 0.81662 0.19296 0.13916 0.0
C1892 C 0.81714 0.19966 0.10918 0.0
H1893 H 0.82088 0.22458 0.09895 0.0
C1894 C 0.81129 0.19331 0.10018 0.0
C1895 C 0.82091 0.211 0.1086 0.0
C1896 C 0.82771 0.2181 0.11777 0.0
C1897 C 0.80877 0.19811 0.09076 0.0
C1898 C 0.81211 0.20956 0.09041 0.0
C1899 C 0.81828 0.21581 0.09925 0.0
C1900 C 0.80897 0.21536 0.0812 0.0
C1901 C 0.80259 0.19089 0.08126 0.0
C1902 C 0.81728 0.22142 0.07493 0.0
C1903 C 0.81432 0.22792 0.06712 0.0
C1904 C 0.80298 0.22853 0.0655 0.0
C1905 C 0.79467 0.22216 0.07157 0.0
C1906 C 0.79764 0.21568 0.07937 0.0
H1907 H 0.8035 0.18209 0.08128 0.0
H1908 H 0.79352 0.19153 0.08222 0.0
H1909 H 0.80565 0.19354 0.073 0.0
H1910 H 0.82608 0.22131 0.07625 0.0
H1911 H 0.82092 0.23264 0.06251 0.0
H1912 H 0.8767 0.82901 0.17845 0.0
H1913 H 0.86787 0.81564 0.16352 0.0
H1914 H 0.86749 0.84173 0.14281 0.0
H1915 H 0.87613 0.85517 0.15774 0.0
H1916 H 0.84696 0.82962 0.14516 0.0
H1917 H 0.87841 0.80178 0.13316 0.0
H1918 H 0.87536 0.80357 0.148 0.0
H1919 H 0.88191 0.81516 0.14112 0.0
C1920 C 0.87496 0.83188 0.17063 0.0
C1921 C 0.87707 0.84318 0.16933 0.0
C1922 C 0.86996 0.82421 0.16207 0.0
C1923 C 0.8671 0.82767 0.15201 0.0
C1924 C 0.86965 0.83887 0.1505 0.0
H1925 H 0.83665 0.78472 0.09442 0.0
H1926 H 0.84946 0.79789 0.10658 0.0
C1927 C 0.8746 0.84655 0.15905 0.0
C1928 C 0.86038 0.81987 0.1436 0.0
H1929 H 0.85967 0.79524 0.12704 0.0
C1930 C 0.84979 0.82216 0.14112 0.0
C1931 C 0.86412 0.81018 0.13826 0.0
C1932 C 0.87562 0.80756 0.14017 0.0
C1933 C 0.84272 0.81489 0.13369 0.0
C1934 C 0.84624 0.80497 0.12876 0.0
C1935 C 0.85695 0.80281 0.13095 0.0
C1936 C 0.83876 0.79666 0.12149 0.0
C1937 C 0.83153 0.81791 0.13118 0.0
C1938 C 0.82863 0.79147 0.12591 0.0
C1939 C 0.82134 0.78394 0.11902 0.0
C1940 C 0.82404 0.78141 0.10756 0.0
C1941 C 0.83434 0.78644 0.10321 0.0
C1942 C 0.84165 0.79398 0.11014 0.0
H1943 H 0.83136 0.8269 0.13322 0.0
H1944 H 0.82952 0.81548 0.1222 0.0
H1945 H 0.82487 0.81348 0.13636 0.0
H1946 H 0.82636 0.79326 0.13471 0.0
H1947 H 0.8136 0.78003 0.1227 0.0
H1948 H 0.28903 0.79405 0.1629 0.0
H1949 H 0.28512 0.78943 0.14298 0.0
H1950 H 0.25049 0.79333 0.14983 0.0
H1951 H 0.25427 0.79767 0.16991 0.0
H1952 H 0.25209 0.77527 0.13554 0.0
H1953 H 0.28089 0.8101 0.12075 0.0
H1954 H 0.28825 0.80255 0.12901 0.0
H1955 H 0.27709 0.80951 0.13542 0.0
C1956 C 0.28059 0.79397 0.16018 0.0
C1957 C 0.27198 0.79629 0.16797 0.0
C1958 C 0.27838 0.79141 0.14877 0.0
C1959 C 0.26758 0.79132 0.14488 0.0
C1960 C 0.25891 0.79347 0.15265 0.0
H1961 H 0.26824 0.78275 0.07141 0.0
H1962 H 0.26287 0.79026 0.09042 0.0
C1963 C 0.26109 0.79593 0.16411 0.0
C1964 C 0.26537 0.78856 0.13273 0.0
H1965 H 0.27624 0.79417 0.10698 0.0
C1966 C 0.25721 0.77952 0.12927 0.0
C1967 C 0.27178 0.79432 0.12453 0.0
C1968 C 0.27989 0.80474 0.12763 0.0
C1969 C 0.25593 0.77557 0.11785 0.0
C1970 C 0.26321 0.78061 0.10974 0.0
C1971 C 0.27075 0.79017 0.11317 0.0
C1972 C 0.26416 0.77547 0.09795 0.0
C1973 C 0.2469 0.76594 0.11465 0.0
C1974 C 0.26639 0.76459 0.0958 0.0
C1975 C 0.2693 0.76026 0.08497 0.0
C1976 C 0.27027 0.76681 0.07609 0.0
C1977 C 0.26757 0.77754 0.07812 0.0
C1978 C 0.2645 0.78182 0.08896 0.0
H1979 H 0.23954 0.7661 0.12055 0.0
H1980 H 0.24405 0.76591 0.10598 0.0
H1981 H 0.2502 0.75814 0.1152 0.0
H1982 H 0.26657 0.75963 0.10261 0.0
H1983 H 0.27156 0.75205 0.08372 0.0
H1984 H 0.201 0.81516 0.88762 0.0
H1985 H 0.2103 0.80717 0.90163 0.0
H1986 H 0.23254 0.7946 0.87574 0.0
H1987 H 0.22311 0.80231 0.86166 0.0
H1988 H 0.2244 0.7793 0.88975 0.0
H1989 H 0.2407 0.81901 0.9147 0.0
H1990 H 0.22578 0.81668 0.91316 0.0
H1991 H 0.23489 0.81833 0.901 0.0
C1992 C 0.20788 0.8107 0.88492 0.0
C1993 C 0.21135 0.80942 0.87353 0.0
C1994 C 0.21323 0.8062 0.89294 0.0
C1995 C 0.22225 0.80046 0.88977 0.0
C1996 C 0.22563 0.79904 0.87839 0.0
H1997 H 0.27212 0.77198 0.9195 0.0
H1998 H 0.25976 0.77898 0.90746 0.0
C1999 C 0.22023 0.80347 0.87035 0.0
C2000 C 0.22813 0.79579 0.89822 0.0
H2001 H 0.24375 0.80273 0.9218 0.0
C2002 C 0.22861 0.78442 0.89677 0.0
C2003 C 0.2336 0.80248 0.9074 0.0
C2004 C 0.23383 0.81482 0.90914 0.0
C2005 C 0.23448 0.77959 0.90417 0.0
C2006 C 0.24006 0.78631 0.91323 0.0
C2007 C 0.23939 0.79761 0.91487 0.0
C2008 C 0.24732 0.78187 0.92059 0.0
C2009 C 0.23474 0.76734 0.90224 0.0
C2010 C 0.24445 0.78131 0.93201 0.0
C2011 C 0.25151 0.7773 0.93893 0.0
C2012 C 0.26163 0.77398 0.93457 0.0
C2013 C 0.26445 0.7746 0.92313 0.0
C2014 C 0.25736 0.7785 0.91622 0.0
H2015 H 0.22801 0.76299 0.89658 0.0
H2016 H 0.24295 0.76586 0.89829 0.0
H2017 H 0.23381 0.76373 0.91033 0.0
H2018 H 0.23675 0.78395 0.93553 0.0
H2019 H 0.24917 0.77697 0.94773 0.0
H2020 H 0.19112 0.19624 0.90608 0.0
H2021 H 0.2001 0.20847 0.92175 0.0
H2022 H 0.23157 0.19702 0.91236 0.0
H2023 H 0.22261 0.18472 0.8967 0.0
H2024 H 0.22678 0.19715 0.93469 0.0
H2025 H 0.22117 0.23731 0.9213 0.0
H2026 H 0.20834 0.22788 0.92222 0.0
H2027 H 0.21903 0.2246 0.91198 0.0
C2028 C 0.20001 0.19653 0.90717 0.0
C2029 C 0.20622 0.1897 0.9 0.0
C2030 C 0.20513 0.2035 0.91617 0.0
C2031 C 0.21656 0.20383 0.9181 0.0
C2032 C 0.22275 0.19696 0.91099 0.0
H2033 H 0.26525 0.2398 0.96495 0.0
H2034 H 0.25521 0.22743 0.95002 0.0
C2035 C 0.21762 0.18994 0.90204 0.0
C2036 C 0.22201 0.21098 0.9278 0.0
H2037 H 0.228 0.23774 0.93962 0.0
C2038 C 0.22708 0.20602 0.93574 0.0
C2039 C 0.22237 0.22257 0.92918 0.0
C2040 C 0.21753 0.22843 0.92067 0.0
C2041 C 0.23243 0.21233 0.94506 0.0
C2042 C 0.23281 0.22389 0.94641 0.0
C2043 C 0.22765 0.22885 0.93855 0.0
C2044 C 0.23879 0.23103 0.95577 0.0
C2045 C 0.23756 0.20656 0.95345 0.0
C2046 C 0.23288 0.23719 0.9639 0.0
C2047 C 0.23858 0.24421 0.97253 0.0
C2048 C 0.25033 0.24528 0.97311 0.0
C2049 C 0.2562 0.23903 0.96493 0.0
C2050 C 0.25048 0.23198 0.95635 0.0
H2051 H 0.23434 0.19759 0.95265 0.0
H2052 H 0.24679 0.20761 0.95201 0.0
H2053 H 0.23583 0.21019 0.96218 0.0
H2054 H 0.22385 0.23657 0.96358 0.0
H2055 H 0.23378 0.2488 0.97874 0.0
H2056 H 0.84659 0.24072 0.84536 0.0
H2057 H 0.83646 0.24266 0.86344 0.0
H2058 H 0.82441 0.20772 0.85967 0.0
H2059 H 0.8344 0.20576 0.84143 0.0
H2060 H 0.81318 0.23696 0.86764 0.0
H2061 H 0.83847 0.21381 0.89119 0.0
H2062 H 0.84337 0.21884 0.87805 0.0
H2063 H 0.83278 0.20693 0.87815 0.0
C2064 C 0.84181 0.23344 0.84839 0.0
C2065 C 0.84154 0.22304 0.84214 0.0
C2066 C 0.83604 0.23456 0.85872 0.0
C2067 C 0.82986 0.2253 0.86297 0.0
C2068 C 0.82938 0.21491 0.85666 0.0
H2069 H 0.78502 0.23782 0.92149 0.0
H2070 H 0.79198 0.22882 0.90377 0.0
C2071 C 0.83517 0.21379 0.8463 0.0
C2072 C 0.82377 0.22673 0.87391 0.0
H2073 H 0.824 0.2218 0.90128 0.0
C2074 C 0.81542 0.23353 0.87498 0.0
C2075 C 0.82679 0.22227 0.88343 0.0
C2076 C 0.83589 0.2151 0.88275 0.0
C2077 C 0.81027 0.23633 0.88543 0.0
C2078 C 0.81344 0.23206 0.89501 0.0
C2079 C 0.82154 0.22496 0.89388 0.0
C2080 C 0.80934 0.23588 0.90641 0.0
C2081 C 0.8019 0.2443 0.88621 0.0
C2082 C 0.81688 0.24237 0.91397 0.0
C2083 C 0.81296 0.24744 0.92411 0.0
C2084 C 0.80142 0.24609 0.92687 0.0
C2085 C 0.79396 0.239 0.91961 0.0
C2086 C 0.7979 0.23393 0.90945 0.0
H2087 H 0.80189 0.24832 0.87842 0.0
H2088 H 0.79336 0.2398 0.88762 0.0
H2089 H 0.80374 0.25082 0.8934 0.0
H2090 H 0.82575 0.24393 0.9118 0.0
H2091 H 0.81894 0.25269 0.92963 0.0
H2092 H 0.84781 0.82459 0.90437 0.0
H2093 H 0.83815 0.81819 0.92119 0.0
H2094 H 0.82367 0.84818 0.92749 0.0
H2095 H 0.83324 0.85465 0.91049 0.0
H2096 H 0.83995 0.82806 0.94345 0.0
H2097 H 0.7963 0.8239 0.92864 0.0
H2098 H 0.80838 0.8254 0.9192 0.0
H2099 H 0.80479 0.83715 0.92815 0.0
C2100 C 0.84256 0.82985 0.90929 0.0
C2101 C 0.84127 0.84012 0.90605 0.0
C2102 C 0.83705 0.82617 0.91892 0.0
C2103 C 0.8301 0.83265 0.92553 0.0
C2104 C 0.82885 0.84297 0.92241 0.0
H2105 H 0.78924 0.81328 0.98461 0.0
H2106 H 0.79894 0.82444 0.97053 0.0
C2107 C 0.83437 0.84667 0.91272 0.0
C2108 C 0.82432 0.8285 0.9357 0.0
H2109 H 0.79851 0.81901 0.94667 0.0
C2110 C 0.83088 0.82617 0.9442 0.0
C2111 C 0.81249 0.82609 0.93669 0.0
C2112 C 0.80504 0.82817 0.92767 0.0
C2113 C 0.82596 0.82124 0.95353 0.0
C2114 C 0.81416 0.81843 0.95429 0.0
C2115 C 0.80756 0.82116 0.94604 0.0
C2116 C 0.80859 0.81191 0.96313 0.0
C2117 C 0.83343 0.81897 0.96243 0.0
C2118 C 0.81074 0.80115 0.96355 0.0
C2119 C 0.80516 0.79472 0.97149 0.0
C2120 C 0.79728 0.79891 0.97919 0.0
C2121 C 0.79519 0.80975 0.97876 0.0
C2122 C 0.80075 0.81617 0.97076 0.0
H2123 H 0.84171 0.82435 0.96234 0.0
H2124 H 0.82945 0.82023 0.97093 0.0
H2125 H 0.83491 0.81028 0.96082 0.0
H2126 H 0.81656 0.79762 0.95757 0.0
H2127 H 0.8068 0.78634 0.97136 0.0
H2128 H 0.14845 0.18804 0.21507 0.0
H2129 H 0.13154 0.19475 0.22338 0.0
H2130 H 0.11774 0.19195 0.19046 0.0
H2131 H 0.13465 0.18539 0.18206 0.0
H2132 H 0.11684 0.21213 0.20244 0.0
H2133 H 0.09978 0.17883 0.22835 0.0
H2134 H 0.1142 0.18436 0.23095 0.0
H2135 H 0.11037 0.17717 0.2174 0.0
C2136 C 0.14175 0.1887 0.2096 0.0
C2137 C 0.14292 0.18619 0.19789 0.0
C2138 C 0.13206 0.19249 0.21438 0.0
C2139 C 0.12331 0.19373 0.20755 0.0
C2140 C 0.12436 0.19101 0.19589 0.0
H2141 H 0.05832 0.21118 0.23282 0.0
H2142 H 0.07301 0.2018 0.22291 0.0
C2143 C 0.13404 0.18725 0.1911 0.0
C2144 C 0.11344 0.19861 0.21246 0.0
H2145 H 0.092 0.19559 0.23199 0.0
C2146 C 0.11136 0.20846 0.20883 0.0
C2147 C 0.1062 0.19375 0.22071 0.0
C2148 C 0.10766 0.18289 0.22451 0.0
C2149 C 0.10245 0.21375 0.21346 0.0
C2150 C 0.09553 0.20917 0.22206 0.0
C2151 C 0.09738 0.19914 0.22545 0.0
C2152 C 0.08658 0.21487 0.22791 0.0
C2153 C 0.10051 0.22421 0.20907 0.0
C2154 C 0.08936 0.22526 0.23408 0.0
C2155 C 0.08103 0.23061 0.23977 0.0
C2156 C 0.0697 0.22566 0.23945 0.0
C2157 C 0.06695 0.2152 0.23329 0.0
C2158 C 0.07532 0.20985 0.2276 0.0
H2159 H 0.10439 0.22494 0.20056 0.0
H2160 H 0.0914 0.22459 0.2087 0.0
H2161 H 0.10435 0.23142 0.2148 0.0
H2162 H 0.09803 0.22917 0.23464 0.0
H2163 H 0.08351 0.23851 0.24465 0.0
H2164 H 0.81882 0.13466 0.17688 0.0
H2165 H 0.80843 0.12123 0.18848 0.0
H2166 H 0.83937 0.11055 0.19571 0.0
H2167 H 0.84982 0.1239 0.18421 0.0
H2168 H 0.80824 0.09692 0.18781 0.0
H2169 H 0.82518 0.12174 0.22684 0.0
H2170 H 0.82544 0.12738 0.21362 0.0
H2171 H 0.83542 0.11863 0.21604 0.0
C2172 C 0.8234 0.12936 0.18083 0.0
C2173 C 0.83516 0.13043 0.17971 0.0
C2174 C 0.81745 0.1217 0.18743 0.0
C2175 C 0.82318 0.11504 0.19305 0.0
C2176 C 0.83484 0.11573 0.19154 0.0
H2177 H 0.806 0.07176 0.24463 0.0
H2178 H 0.81531 0.08258 0.23015 0.0
C2179 C 0.84078 0.12336 0.18494 0.0
C2180 C 0.81709 0.10778 0.20098 0.0
H2181 H 0.81451 0.10434 0.22881 0.0
C2182 C 0.80955 0.09853 0.19678 0.0
C2183 C 0.81886 0.10995 0.21265 0.0
C2184 C 0.82659 0.12001 0.21762 0.0
C2185 C 0.8039 0.0912 0.20399 0.0
C2186 C 0.8057 0.09335 0.21568 0.0
C2187 C 0.81319 0.10268 0.21984 0.0
C2188 C 0.79993 0.08612 0.22383 0.0
C2189 C 0.79627 0.08109 0.199 0.0
C2190 C 0.78819 0.08451 0.22508 0.0
C2191 C 0.78285 0.07833 0.23334 0.0
C2192 C 0.78917 0.07375 0.2406 0.0
C2193 C 0.80092 0.07528 0.23925 0.0
C2194 C 0.80624 0.08141 0.23095 0.0
H2195 H 0.79816 0.07908 0.18989 0.0
H2196 H 0.79702 0.07384 0.20337 0.0
H2197 H 0.78745 0.08264 0.19995 0.0
H2198 H 0.78317 0.0883 0.21987 0.0
H2199 H 0.7738 0.07744 0.23429 0.0
H2200 H 0.92992 0.86692 0.21065 0.0
H2201 H 0.94673 0.86389 0.21978 0.0
H2202 H 0.9264 0.84088 0.23942 0.0
H2203 H 0.90959 0.84377 0.23031 0.0
H2204 H 0.95126 0.86749 0.24283 0.0
H2205 H 0.95132 0.82372 0.22585 0.0
H2206 H 0.94318 0.83254 0.21988 0.0
H2207 H 0.93818 0.82641 0.23237 0.0
C2208 C 0.92903 0.86116 0.21686 0.0
C2209 C 0.91842 0.85556 0.21972 0.0
C2210 C 0.93864 0.85945 0.22207 0.0
C2211 C 0.93783 0.85205 0.23016 0.0
C2212 C 0.92725 0.84647 0.23304 0.0
H2213 H 0.98042 0.84557 0.28319 0.0
H2214 H 0.9667 0.85051 0.27119 0.0
C2215 C 0.91764 0.84818 0.22786 0.0
C2216 C 0.94796 0.85043 0.23589 0.0
H2217 H 0.96321 0.83072 0.24128 0.0
C2218 C 0.95395 0.85948 0.24241 0.0
C2219 C 0.95155 0.84001 0.2352 0.0
C2220 C 0.9458 0.83013 0.22786 0.0
C2221 C 0.96317 0.85828 0.24861 0.0
C2222 C 0.9664 0.84774 0.24838 0.0
C2223 C 0.96068 0.83878 0.24151 0.0
C2224 C 0.97531 0.84567 0.25559 0.0
C2225 C 0.96936 0.8683 0.25539 0.0
C2226 C 0.98471 0.84127 0.25081 0.0
C2227 C 0.99263 0.83846 0.25767 0.0
C2228 C 0.99124 0.83993 0.26944 0.0
C2229 C 0.98191 0.84455 0.27418 0.0
C2230 C 0.97402 0.84737 0.26733 0.0
H2231 H 0.96804 0.87605 0.25217 0.0
H2232 H 0.96619 0.8686 0.26424 0.0
H2233 H 0.97851 0.86798 0.2553 0.0
H2234 H 0.98583 0.83986 0.24176 0.0
H2235 H 0.99976 0.83501 0.25374 0.0
H2236 H 0.28529 0.84399 0.21987 0.0
H2237 H 0.2843 0.86366 0.22458 0.0
H2238 H 0.25312 0.85952 0.20731 0.0
H2239 H 0.25415 0.83989 0.20243 0.0
H2240 H 0.28322 0.87947 0.20976 0.0
H2241 H 0.24563 0.87509 0.23847 0.0
H2242 H 0.25335 0.86384 0.23412 0.0
H2243 H 0.24398 0.8677 0.22464 0.0
C2244 C 0.2782 0.84727 0.21712 0.0
C2245 C 0.26962 0.84035 0.21108 0.0
C2246 C 0.27765 0.85849 0.21981 0.0
C2247 C 0.26853 0.86298 0.21647 0.0
C2248 C 0.26006 0.85615 0.21022 0.0
H2249 H 0.2561 0.93144 0.23367 0.0
H2250 H 0.25449 0.91235 0.22464 0.0
C2251 C 0.26061 0.84492 0.20753 0.0
C2252 C 0.26808 0.87489 0.21939 0.0
H2253 H 0.25376 0.89315 0.23549 0.0
C2254 C 0.27674 0.88247 0.21533 0.0
C2255 C 0.25954 0.87876 0.22655 0.0
C2256 C 0.25012 0.87095 0.23129 0.0
C2257 C 0.27726 0.89384 0.21846 0.0
C2258 C 0.26901 0.89768 0.22601 0.0
C2259 C 0.26008 0.89015 0.22971 0.0
C2260 C 0.27008 0.90935 0.23098 0.0
C2261 C 0.28672 0.90162 0.21376 0.0
C2262 C 0.27929 0.91389 0.23761 0.0
C2263 C 0.2802 0.92469 0.24281 0.0
C2264 C 0.27189 0.93121 0.24151 0.0
C2265 C 0.26263 0.92663 0.23486 0.0
C2266 C 0.26172 0.91576 0.22966 0.0
H2267 H 0.29013 0.89789 0.20568 0.0
H2268 H 0.28391 0.90948 0.21239 0.0
H2269 H 0.29363 0.90353 0.2198 0.0
H2270 H 0.28568 0.90897 0.23899 0.0
H2271 H 0.28727 0.92782 0.24812 0.0
H2272 H 0.14972 0.83924 0.83313 0.0
H2273 H 0.13233 0.82941 0.82494 0.0
H2274 H 0.13525 0.80141 0.84219 0.0
H2275 H 0.15265 0.81126 0.85058 0.0
H2276 H 0.1295 0.80945 0.8111 0.0
H2277 H 0.10297 0.80674 0.85007 0.0
H2278 H 0.11609 0.81597 0.84955 0.0
H2279 H 0.11603 0.80155 0.85036 0.0
C2280 C 0.14665 0.83102 0.83527 0.0
C2281 C 0.15257 0.82604 0.84254 0.0
C2282 C 0.1367 0.82541 0.83056 0.0
C2283 C 0.13243 0.81475 0.83307 0.0
C2284 C 0.13829 0.80973 0.84032 0.0
H2285 H 0.07537 0.76714 0.80931 0.0
H2286 H 0.09207 0.77703 0.81887 0.0
C2287 C 0.14826 0.81534 0.84506 0.0
C2288 C 0.12205 0.80878 0.82771 0.0
H2289 H 0.09516 0.79701 0.83328 0.0
C2290 C 0.12197 0.80676 0.81594 0.0
C2291 C 0.11227 0.80526 0.83406 0.0
C2292 C 0.11175 0.80755 0.84671 0.0
C2293 C 0.11241 0.80121 0.81034 0.0
C2294 C 0.1026 0.79776 0.81668 0.0
C2295 C 0.10269 0.7997 0.82845 0.0
C2296 C 0.0922 0.79201 0.81122 0.0
C2297 C 0.11296 0.79889 0.79769 0.0
C2298 C 0.0866 0.79725 0.80394 0.0
C2299 C 0.07702 0.79164 0.7985 0.0
C2300 C 0.07281 0.78071 0.8003 0.0
C2301 C 0.0783 0.77559 0.80783 0.0
C2302 C 0.08788 0.7812 0.81326 0.0
H2303 H 0.12175 0.79958 0.79436 0.0
H2304 H 0.10852 0.79051 0.79484 0.0
H2305 H 0.10882 0.80497 0.794 0.0
H2306 H 0.08967 0.80567 0.80245 0.0
H2307 H 0.07289 0.79587 0.79289 0.0
H2308 H 0.20143 0.12243 0.86616 0.0
H2309 H 0.20899 0.10677 0.85578 0.0
H2310 H 0.22851 0.12857 0.83432 0.0
H2311 H 0.22106 0.14429 0.84467 0.0
H2312 H 0.20658 0.0999 0.83265 0.0
H2313 H 0.25142 0.11014 0.8437 0.0
H2314 H 0.2405 0.11639 0.85164 0.0
H2315 H 0.24583 0.12119 0.8386 0.0
C2316 C 0.20744 0.12392 0.85932 0.0
C2317 C 0.21065 0.13461 0.85624 0.0
C2318 C 0.21173 0.11496 0.85339 0.0
C2319 C 0.2194 0.11653 0.84437 0.0
C2320 C 0.22276 0.12721 0.84139 0.0
H2321 H 0.23548 0.07209 0.78734 0.0
H2322 H 0.22856 0.08623 0.80067 0.0
C2323 C 0.21844 0.13617 0.84728 0.0
C2324 C 0.22333 0.10694 0.8376 0.0
H2325 H 0.2469 0.09604 0.82845 0.0
C2326 C 0.21538 0.099 0.83181 0.0
C2327 C 0.23481 0.10573 0.83661 0.0
C2328 C 0.24364 0.11375 0.84304 0.0
C2329 C 0.21864 0.09006 0.82475 0.0
C2330 C 0.23015 0.08911 0.82338 0.0
C2331 C 0.23808 0.09684 0.82946 0.0
C2332 C 0.23416 0.08035 0.81538 0.0
C2333 C 0.20973 0.0817 0.81879 0.0
C2334 C 0.23974 0.07245 0.81923 0.0
C2335 C 0.24366 0.06429 0.81163 0.0
C2336 C 0.24213 0.06394 0.80002 0.0
C2337 C 0.23658 0.07194 0.79622 0.0
C2338 C 0.23265 0.08006 0.80383 0.0
H2339 H 0.20132 0.08199 0.82289 0.0
H2340 H 0.2093 0.0835 0.81 0.0
H2341 H 0.21177 0.07322 0.81857 0.0
H2342 H 0.24101 0.07257 0.82813 0.0
H2343 H 0.2478 0.05821 0.81485 0.0
H2344 H 0.89275 0.25681 0.81453 0.0
H2345 H 0.9125 0.26346 0.81841 0.0
H2346 H 0.91861 0.23 0.81814 0.0
H2347 H 0.8988 0.22322 0.8143 0.0
H2348 H 0.92565 0.2577 0.83764 0.0
H2349 H 0.94128 0.2454 0.79415 0.0
H2350 H 0.92693 0.24758 0.79703 0.0
H2351 H 0.93158 0.23559 0.80108 0.0
C2352 C 0.89827 0.25085 0.8153 0.0
C2353 C 0.89422 0.23948 0.81405 0.0
C2354 C 0.90953 0.25467 0.81756 0.0
C2355 C 0.91696 0.2472 0.81852 0.0
C2356 C 0.91297 0.23586 0.81738 0.0
H2357 H 0.98977 0.26799 0.81851 0.0
H2358 H 0.97171 0.25593 0.81985 0.0
C2359 C 0.90167 0.23202 0.81518 0.0
C2360 C 0.92892 0.25141 0.82046 0.0
H2361 H 0.95427 0.25579 0.8067 0.0
C2362 C 0.93197 0.25717 0.83095 0.0
C2363 C 0.9371 0.25057 0.81173 0.0
C2364 C 0.93414 0.24449 0.80032 0.0
C2365 C 0.94299 0.26246 0.83282 0.0
C2366 C 0.95104 0.26222 0.82386 0.0
C2367 C 0.94809 0.25598 0.81355 0.0
C2368 C 0.96215 0.26928 0.82456 0.0
C2369 C 0.94585 0.26837 0.84432 0.0
C2370 C 0.96277 0.28076 0.82686 0.0
C2371 C 0.97304 0.28764 0.8261 0.0
C2372 C 0.98289 0.28319 0.82291 0.0
C2373 C 0.98231 0.27166 0.82093 0.0
C2374 C 0.97202 0.26477 0.82173 0.0
H2375 H 0.94041 0.26453 0.85095 0.0
H2376 H 0.95476 0.26835 0.84622 0.0
H2377 H 0.9444 0.27705 0.84468 0.0
H2378 H 0.95524 0.28446 0.82872 0.0
H2379 H 0.97314 0.29648 0.82745 0.0
H2380 H 0.85459 0.91362 0.85915 0.0
H2381 H 0.84469 0.9272 0.85221 0.0
H2382 H 0.81704 0.90163 0.84278 0.0
H2383 H 0.8268 0.88803 0.84976 0.0
H2384 H 0.83672 0.92761 0.83042 0.0
H2385 H 0.80197 0.92523 0.86237 0.0
H2386 H 0.81483 0.91989 0.86395 0.0
H2387 H 0.80406 0.91209 0.85509 0.0
C2388 C 0.84639 0.91088 0.85561 0.0
C2389 C 0.84146 0.89974 0.85507 0.0
C2390 C 0.84076 0.91866 0.85164 0.0
C2391 C 0.83005 0.91546 0.84715 0.0
C2392 C 0.8252 0.90432 0.84642 0.0
H2393 H 0.78052 0.943 0.81591 0.0
H2394 H 0.79189 0.93201 0.82478 0.0
C2395 C 0.83083 0.89654 0.85036 0.0
C2396 C 0.82399 0.9237 0.84308 0.0
H2397 H 0.79961 0.93463 0.84666 0.0
C2398 C 0.82866 0.92925 0.83403 0.0
C2399 C 0.8135 0.92585 0.84785 0.0
C2400 C 0.80832 0.92054 0.85792 0.0
C2401 C 0.82289 0.93654 0.82931 0.0
C2402 C 0.81226 0.93847 0.8339 0.0
C2403 C 0.80774 0.93313 0.84314 0.0
C2404 C 0.80537 0.94544 0.82884 0.0
C2405 C 0.828 0.94176 0.81916 0.0
C2406 C 0.8091 0.95673 0.82833 0.0
C2407 C 0.80255 0.9631 0.8233 0.0
C2408 C 0.79213 0.95831 0.81877 0.0
C2409 C 0.78839 0.94704 0.81948 0.0
C2410 C 0.79492 0.9407 0.82449 0.0
H2411 H 0.835 0.93764 0.81524 0.0
H2412 H 0.82158 0.94147 0.81275 0.0
H2413 H 0.83136 0.95054 0.82175 0.0
H2414 H 0.81705 0.9606 0.83183 0.0
H2415 H 0.80563 0.97177 0.82299 0.0
H2416 H 0.19528 0.12273 0.19025 0.0
H2417 H 0.20428 0.10818 0.19647 0.0
H2418 H 0.2235 0.13221 0.22004 0.0
H2419 H 0.21437 0.14675 0.21406 0.0
H2420 H 0.2262 0.10568 0.19569 0.0
H2421 H 0.21056 0.1089 0.23992 0.0
H2422 H 0.20487 0.11547 0.22933 0.0
H2423 H 0.21771 0.12178 0.23601 0.0
C2424 C 0.20137 0.12492 0.19681 0.0
C2425 C 0.20406 0.1359 0.2017 0.0
C2426 C 0.20652 0.11659 0.20035 0.0
C2427 C 0.21442 0.11906 0.20886 0.0
C2428 C 0.21721 0.13004 0.21367 0.0
H2429 H 0.26557 0.08164 0.2234 0.0
H2430 H 0.25443 0.0941 0.21639 0.0
C2431 C 0.21204 0.13837 0.21018 0.0
C2432 C 0.22002 0.11023 0.21247 0.0
H2433 H 0.22553 0.09841 0.23549 0.0
C2434 C 0.22598 0.10403 0.20438 0.0
C2435 C 0.21958 0.10794 0.22377 0.0
C2436 C 0.21274 0.11379 0.23274 0.0
C2437 C 0.2318 0.09585 0.20733 0.0
C2438 C 0.23184 0.09397 0.21874 0.0
C2439 C 0.2256 0.09993 0.22677 0.0
C2440 C 0.23851 0.08605 0.22257 0.0
C2441 C 0.23774 0.08925 0.19819 0.0
C2442 C 0.23332 0.07749 0.22859 0.0
C2443 C 0.23969 0.07036 0.23267 0.0
C2444 C 0.25139 0.07168 0.23083 0.0
C2445 C 0.25655 0.08024 0.22475 0.0
C2446 C 0.25019 0.08738 0.22072 0.0
H2447 H 0.23408 0.08923 0.18985 0.0
H2448 H 0.24669 0.09301 0.19766 0.0
H2449 H 0.23734 0.08058 0.19995 0.0
H2450 H 0.22433 0.07633 0.23016 0.0
H2451 H 0.23546 0.06383 0.23728 0.0
H2452 H 0.20796 0.87146 0.86071 0.0
H2453 H 0.21918 0.8881 0.85471 0.0
H2454 H 0.23136 0.86876 0.82565 0.0
H2455 H 0.22046 0.85206 0.83176 0.0
H2456 H 0.24786 0.88376 0.83481 0.0
H2457 H 0.21077 0.90391 0.82967 0.0
H2458 H 0.21188 0.90044 0.84363 0.0
H2459 H 0.20955 0.88966 0.83209 0.0
C2460 C 0.21308 0.87074 0.85308 0.0
C2461 C 0.21324 0.86044 0.84667 0.0
C2462 C 0.21943 0.88027 0.84962 0.0
C2463 C 0.22589 0.87972 0.83958 0.0
C2464 C 0.22637 0.8694 0.83338 0.0
H2465 H 0.24978 0.93243 0.79938 0.0
H2466 H 0.23967 0.91656 0.80771 0.0
C2467 C 0.22013 0.85985 0.8369 0.0
C2468 C 0.23206 0.88986 0.83542 0.0
H2469 H 0.22859 0.91465 0.82737 0.0
C2470 C 0.24365 0.89052 0.83319 0.0
C2471 C 0.22653 0.8986 0.83313 0.0
C2472 C 0.21398 0.89811 0.83464 0.0
C2473 C 0.24986 0.89967 0.82874 0.0
C2474 C 0.24439 0.90856 0.82678 0.0
C2475 C 0.2328 0.90789 0.829 0.0
C2476 C 0.25043 0.91842 0.82197 0.0
C2477 C 0.26215 0.89954 0.82586 0.0
C2478 C 0.25971 0.92489 0.82733 0.0
C2479 C 0.26564 0.93386 0.82247 0.0
C2480 C 0.26231 0.93666 0.81224 0.0
C2481 C 0.25274 0.9304 0.80713 0.0
C2482 C 0.24688 0.92137 0.81194 0.0
H2483 H 0.26424 0.89103 0.82489 0.0
H2484 H 0.26463 0.90324 0.81796 0.0
H2485 H 0.26723 0.90442 0.83274 0.0
H2486 H 0.26243 0.92294 0.83522 0.0
H2487 H 0.27301 0.93842 0.82662 0.0
H2488 H 0.17968 0.24359 0.89009 0.0
H2489 H 0.16807 0.256 0.88361 0.0
H2490 H 0.14488 0.22801 0.86969 0.0
H2491 H 0.15629 0.21555 0.87628 0.0
H2492 H 0.16299 0.25721 0.86175 0.0
H2493 H 0.12389 0.24716 0.88696 0.0
H2494 H 0.13703 0.2432 0.89022 0.0
H2495 H 0.12859 0.23528 0.87922 0.0
C2496 C 0.17204 0.24007 0.88577 0.0
C2497 C 0.16891 0.22857 0.88372 0.0
C2498 C 0.16542 0.24718 0.88207 0.0
C2499 C 0.15552 0.24294 0.87632 0.0
C2500 C 0.15233 0.23147 0.87434 0.0
H2501 H 0.10881 0.26968 0.83868 0.0
H2502 H 0.11915 0.25793 0.84799 0.0
C2503 C 0.15892 0.22436 0.87805 0.0
C2504 C 0.14891 0.25046 0.87175 0.0
H2505 H 0.1227 0.25764 0.87172 0.0
C2506 C 0.15422 0.25738 0.86401 0.0
C2507 C 0.13744 0.25063 0.87467 0.0
C2508 C 0.13142 0.24375 0.8833 0.0
C2509 C 0.1483 0.26428 0.85893 0.0
C2510 C 0.13682 0.26438 0.86178 0.0
C2511 C 0.13151 0.25752 0.86955 0.0
C2512 C 0.13018 0.27151 0.85667 0.0
C2513 C 0.15432 0.27122 0.85033 0.0
C2514 C 0.13282 0.28302 0.85866 0.0
C2515 C 0.12698 0.28974 0.85334 0.0
C2516 C 0.11834 0.28507 0.84595 0.0
C2517 C 0.11551 0.27352 0.84422 0.0
C2518 C 0.12135 0.2668 0.84958 0.0
H2519 H 0.16232 0.26837 0.84725 0.0
H2520 H 0.14895 0.27105 0.84302 0.0
H2521 H 0.15629 0.27989 0.8542 0.0
H2522 H 0.13952 0.2868 0.86422 0.0
H2523 H 0.12945 0.29859 0.85478 0.0
H2524 H 0.84784 0.16137 0.83391 0.0
H2525 H 0.83862 0.14233 0.83005 0.0
H2526 H 0.81101 0.14962 0.85234 0.0
H2527 H 0.82011 0.16878 0.85617 0.0
H2528 H 0.82931 0.12489 0.84348 0.0
H2529 H 0.79726 0.14104 0.82083 0.0
H2530 H 0.81031 0.14942 0.8251 0.0
H2531 H 0.79923 0.1465 0.83531 0.0
C2532 C 0.8399 0.1589 0.83816 0.0
C2533 C 0.8346 0.16665 0.84518 0.0
C2534 C 0.83467 0.148 0.83598 0.0
C2535 C 0.82406 0.14465 0.84076 0.0
C2536 C 0.81913 0.15212 0.84844 0.0
H2537 H 0.77791 0.08741 0.81257 0.0
H2538 H 0.78604 0.10275 0.82598 0.0
C2539 C 0.82436 0.16305 0.85064 0.0
C2540 C 0.81773 0.13377 0.83666 0.0
H2541 H 0.79616 0.12191 0.81974 0.0
C2542 C 0.82196 0.12419 0.83841 0.0
C2543 C 0.80816 0.13293 0.83006 0.0
C2544 C 0.80347 0.14299 0.82761 0.0
C2545 C 0.81699 0.11376 0.83351 0.0
C2546 C 0.80773 0.11298 0.8265 0.0
C2547 C 0.80324 0.12253 0.82514 0.0
C2548 C 0.8031 0.10258 0.81967 0.0
C2549 C 0.82178 0.10372 0.8358 0.0
C2550 C 0.81001 0.09729 0.81176 0.0
C2551 C 0.80541 0.08845 0.80415 0.0
C2552 C 0.79378 0.08481 0.8042 0.0
C2553 C 0.78692 0.0899 0.81238 0.0
C2554 C 0.79154 0.09871 0.82003 0.0
H2555 H 0.82593 0.10512 0.84404 0.0
H2556 H 0.81518 0.09637 0.83574 0.0
H2557 H 0.82821 0.10195 0.8292 0.0
H2558 H 0.81892 0.10029 0.81114 0.0
H2559 H 0.81095 0.08463 0.79806 0.0
H2560 H 0.87628 0.83597 0.85355 0.0
H2561 H 0.88975 0.82764 0.8408 0.0
H2562 H 0.90011 0.85866 0.82759 0.0
H2563 H 0.88661 0.86715 0.84039 0.0
H2564 H 0.8911 0.8266 0.81651 0.0
H2565 H 0.92977 0.84918 0.8371 0.0
H2566 H 0.91616 0.8482 0.84414 0.0
H2567 H 0.91964 0.85734 0.83356 0.0
C2568 C 0.8814 0.84107 0.84795 0.0
C2569 C 0.88038 0.85226 0.84804 0.0
C2570 C 0.8891 0.83627 0.84066 0.0
C2571 C 0.896 0.84256 0.83336 0.0
C2572 C 0.89495 0.8537 0.83329 0.0
H2573 H 0.94924 0.82339 0.78662 0.0
H2574 H 0.93633 0.83377 0.79819 0.0
C2575 C 0.88719 0.85852 0.84056 0.0
C2576 C 0.90418 0.83731 0.82576 0.0
H2577 H 0.9322 0.83658 0.8211 0.0
C2578 C 0.90009 0.8288 0.81747 0.0
C2579 C 0.91589 0.84025 0.82702 0.0
C2580 C 0.9207 0.84919 0.83597 0.0
C2581 C 0.9074 0.8231 0.81042 0.0
C2582 C 0.91911 0.82579 0.81189 0.0
C2583 C 0.92322 0.83448 0.82003 0.0
C2584 C 0.9272 0.81955 0.8052 0.0
C2585 C 0.90249 0.81431 0.80137 0.0
C2586 C 0.92656 0.80816 0.80551 0.0
C2587 C 0.93385 0.80218 0.79884 0.0
C2588 C 0.94204 0.8075 0.79178 0.0
C2589 C 0.94292 0.819 0.7918 0.0
C2590 C 0.93559 0.82496 0.79846 0.0
H2591 H 0.89395 0.81551 0.79921 0.0
H2592 H 0.90789 0.81427 0.79362 0.0
H2593 H 0.9018 0.80612 0.80444 0.0
H2594 H 0.92032 0.80385 0.81084 0.0
H2595 H 0.93284 0.79334 0.79898 0.0
H2596 H 0.86934 0.90429 0.2154 0.0
H2597 H 0.8571 0.91691 0.22478 0.0
H2598 H 0.82817 0.89229 0.21716 0.0
H2599 H 0.84026 0.87962 0.20799 0.0
H2600 H 0.84025 0.92507 0.21533 0.0
H2601 H 0.82276 0.9017 0.25027 0.0
H2602 H 0.83502 0.89858 0.24207 0.0
H2603 H 0.8212 0.89348 0.23688 0.0
C2604 C 0.86038 0.90152 0.21585 0.0
C2605 C 0.85578 0.89094 0.21097 0.0
C2606 C 0.85341 0.90875 0.2212 0.0
C2607 C 0.84174 0.90547 0.22183 0.0
C2608 C 0.83716 0.89489 0.21703 0.0
H2609 H 0.78119 0.93239 0.23714 0.0
H2610 H 0.7962 0.92156 0.23124 0.0
C2611 C 0.8441 0.88769 0.21171 0.0
C2612 C 0.83423 0.91328 0.22686 0.0
H2613 H 0.81252 0.91573 0.24584 0.0
C2614 C 0.83431 0.92313 0.22213 0.0
C2615 C 0.82649 0.91073 0.23574 0.0
C2616 C 0.82642 0.9006 0.24162 0.0
C2617 C 0.8265 0.93024 0.22568 0.0
C2618 C 0.81849 0.92745 0.23423 0.0
C2619 C 0.81864 0.91779 0.23922 0.0
C2620 C 0.80955 0.93418 0.23777 0.0
C2621 C 0.82656 0.94045 0.21994 0.0
C2622 C 0.81211 0.94484 0.24345 0.0
C2623 C 0.80355 0.95107 0.24681 0.0
C2624 C 0.79229 0.94673 0.24453 0.0
C2625 C 0.78978 0.93603 0.23886 0.0
C2626 C 0.79833 0.9298 0.23556 0.0
H2627 H 0.83205 0.94046 0.21225 0.0
H2628 H 0.81793 0.94117 0.21762 0.0
H2629 H 0.82966 0.94784 0.22581 0.0
H2630 H 0.82071 0.94831 0.24533 0.0
H2631 H 0.80574 0.9593 0.25112 0.0
H2632 H 0.21612 0.85361 0.23261 0.0
H2633 H 0.19836 0.85374 0.24343 0.0
H2634 H 0.19138 0.8183 0.23717 0.0
H2635 H 0.20899 0.81803 0.22638 0.0
H2636 H 0.17485 0.84318 0.2364 0.0
H2637 H 0.19102 0.82676 0.2725 0.0
H2638 H 0.20015 0.83345 0.2622 0.0
H2639 H 0.1935 0.81945 0.25894 0.0
C2640 C 0.21077 0.84585 0.23348 0.0
C2641 C 0.21401 0.8358 0.22871 0.0
C2642 C 0.20064 0.84596 0.23964 0.0
C2643 C 0.19368 0.83602 0.24117 0.0
C2644 C 0.19673 0.82603 0.23616 0.0
H2645 H 0.13434 0.81007 0.27578 0.0
H2646 H 0.15147 0.81395 0.26445 0.0
C2647 C 0.20679 0.82591 0.22998 0.0
C2648 C 0.18335 0.83593 0.24828 0.0
H2649 H 0.17136 0.82673 0.27235 0.0
C2650 C 0.17408 0.83972 0.24433 0.0
C2651 C 0.18246 0.83143 0.25862 0.0
C2652 C 0.19233 0.82762 0.2634 0.0
C2653 C 0.16371 0.83864 0.25024 0.0
C2654 C 0.16273 0.8338 0.26041 0.0
C2655 C 0.17214 0.83038 0.26452 0.0
C2656 C 0.15191 0.83164 0.26666 0.0
C2657 C 0.15379 0.84224 0.24535 0.0
C2658 C 0.14645 0.84032 0.27162 0.0
C2659 C 0.13655 0.83812 0.27805 0.0
C2660 C 0.132 0.8272 0.27965 0.0
C2661 C 0.13748 0.81855 0.27456 0.0
C2662 C 0.14733 0.82076 0.26815 0.0
H2663 H 0.15537 0.84373 0.23642 0.0
H2664 H 0.1462 0.83594 0.24589 0.0
H2665 H 0.15199 0.85003 0.25022 0.0
H2666 H 0.14995 0.84879 0.27072 0.0
H2667 H 0.1325 0.84496 0.28181 0.0
H2668 H 0.85819 0.20252 0.18741 0.0
H2669 H 0.87372 0.21523 0.19624 0.0
H2670 H 0.89726 0.19541 0.17939 0.0
H2671 H 0.88176 0.18252 0.17066 0.0
H2672 H 0.90087 0.20024 0.20184 0.0
H2673 H 0.8968 0.23832 0.18335 0.0
H2674 H 0.884 0.23231 0.18988 0.0
H2675 H 0.88983 0.22488 0.17774 0.0
C2676 C 0.86667 0.20092 0.18546 0.0
C2677 C 0.86872 0.19149 0.17832 0.0
C2678 C 0.87555 0.20824 0.19047 0.0
C2679 C 0.88665 0.20635 0.18836 0.0
C2680 C 0.88875 0.19705 0.18109 0.0
H2681 H 0.94566 0.25281 0.2107 0.0
H2682 H 0.93142 0.24049 0.19943 0.0
C2683 C 0.87988 0.1897 0.1761 0.0
C2684 C 0.89601 0.21366 0.19429 0.0
H2685 H 0.90851 0.24048 0.19925 0.0
C2686 C 0.9026 0.20903 0.20121 0.0
C2687 C 0.89833 0.22509 0.19335 0.0
C2688 C 0.89194 0.23044 0.18559 0.0
C2689 C 0.91128 0.21556 0.20744 0.0
C2690 C 0.91327 0.22707 0.20689 0.0
C2691 C 0.90688 0.23166 0.19975 0.0
C2692 C 0.92189 0.23449 0.21374 0.0
C2693 C 0.91829 0.21006 0.21447 0.0
C2694 C 0.92117 0.23529 0.22551 0.0
C2695 C 0.92927 0.24232 0.23197 0.0
C2696 C 0.93821 0.24877 0.22676 0.0
C2697 C 0.93883 0.24803 0.21496 0.0
C2698 C 0.93073 0.24097 0.20851 0.0
H2699 H 0.91782 0.20112 0.21155 0.0
H2700 H 0.92722 0.21397 0.21427 0.0
H2701 H 0.91512 0.2109 0.22331 0.0
H2702 H 0.91426 0.23056 0.22972 0.0
H2703 H 0.92843 0.24286 0.24104 0.0
H2704 H 0.18652 0.69759 0.66426 0.0
H2705 H 0.19889 0.70706 0.65067 0.0
H2706 H 0.21781 0.67997 0.64559 0.0
H2707 H 0.20547 0.67037 0.65931 0.0
H2708 H 0.22469 0.71153 0.65284 0.0
H2709 H 0.20852 0.68727 0.61308 0.0
H2710 H 0.19979 0.68836 0.6257 0.0
H2711 H 0.21083 0.68013 0.6248 0.0
C2712 C 0.19326 0.69357 0.66023 0.0
C2713 C 0.195 0.6832 0.6629 0.0
C2714 C 0.20032 0.69902 0.65246 0.0
C2715 C 0.2092 0.69418 0.64711 0.0
C2716 C 0.21093 0.68379 0.6496 0.0
H2717 H 0.25628 0.72086 0.59577 0.0
H2718 H 0.2455 0.70853 0.60822 0.0
C2719 C 0.20389 0.67833 0.65745 0.0
C2720 C 0.21688 0.70034 0.6393 0.0
H2721 H 0.2227 0.70245 0.61145 0.0
C2722 C 0.22433 0.70951 0.64379 0.0
C2723 C 0.21642 0.6976 0.62753 0.0
C2724 C 0.20846 0.68783 0.6224 0.0
C2725 C 0.23126 0.71617 0.63679 0.0
C2726 C 0.23047 0.71374 0.62498 0.0
C2727 C 0.22324 0.70434 0.6205 0.0
C2728 C 0.23679 0.7211 0.6172 0.0
C2729 C 0.2394 0.7257 0.64214 0.0
C2730 C 0.23528 0.7322 0.61794 0.0
C2731 C 0.2415 0.73928 0.61095 0.0
C2732 C 0.24927 0.7354 0.60293 0.0
C2733 C 0.2505 0.72418 0.60197 0.0
C2734 C 0.2443 0.7171 0.60902 0.0
H2735 H 0.24147 0.72438 0.65076 0.0
H2736 H 0.24731 0.72698 0.63704 0.0
H2737 H 0.23554 0.73334 0.64281 0.0
H2738 H 0.22934 0.73542 0.62402 0.0
H2739 H 0.24039 0.74787 0.61204 0.0
H2740 H 0.80693 0.7168 0.64674 0.0
H2741 H 0.80585 0.71853 0.62681 0.0
H2742 H 0.81561 0.68636 0.61833 0.0
H2743 H 0.81693 0.68464 0.63834 0.0
H2744 H 0.82762 0.70151 0.60633 0.0
H2745 H 0.78261 0.70434 0.60416 0.0
H2746 H 0.78909 0.71415 0.6151 0.0
H2747 H 0.78837 0.69961 0.61599 0.0
C2748 C 0.80875 0.71004 0.64066 0.0
C2749 C 0.81201 0.70058 0.64413 0.0
C2750 C 0.80803 0.711 0.62925 0.0
C2751 C 0.81042 0.70248 0.62108 0.0
C2752 C 0.81362 0.69299 0.6245 0.0
H2753 H 0.80046 0.71576 0.55207 0.0
H2754 H 0.79977 0.70502 0.56807 0.0
C2755 C 0.81438 0.69203 0.63593 0.0
C2756 C 0.81035 0.70393 0.609 0.0
H2757 H 0.79474 0.71232 0.58964 0.0
C2758 C 0.82036 0.70365 0.6026 0.0
C2759 C 0.80082 0.70647 0.60403 0.0
C2760 C 0.78959 0.70604 0.61015 0.0
C2761 C 0.82132 0.70666 0.59165 0.0
C2762 C 0.81212 0.71026 0.58711 0.0
C2763 C 0.80186 0.70971 0.59318 0.0
C2764 C 0.81331 0.71583 0.57677 0.0
C2765 C 0.8323 0.70624 0.58519 0.0
C2766 C 0.82114 0.72543 0.57636 0.0
C2767 C 0.82153 0.73157 0.56731 0.0
C2768 C 0.81403 0.72829 0.55847 0.0
C2769 C 0.80633 0.71852 0.55876 0.0
C2770 C 0.80595 0.71236 0.56786 0.0
H2771 H 0.83671 0.69975 0.58779 0.0
H2772 H 0.83102 0.70461 0.57599 0.0
H2773 H 0.83783 0.71427 0.58699 0.0
H2774 H 0.82665 0.72848 0.58329 0.0
H2775 H 0.82736 0.7392 0.56755 0.0
H2776 H 0.86621 0.34345 0.66983 0.0
H2777 H 0.85756 0.3302 0.65484 0.0
H2778 H 0.87985 0.3075 0.66056 0.0
H2779 H 0.88849 0.32071 0.67582 0.0
H2780 H 0.86641 0.32075 0.63519 0.0
H2781 H 0.84888 0.28896 0.66291 0.0
H2782 H 0.85456 0.30287 0.66838 0.0
H2783 H 0.8638 0.29314 0.66342 0.0
C2784 C 0.86933 0.33566 0.66792 0.0
C2785 C 0.87801 0.33312 0.67411 0.0
C2786 C 0.86437 0.3281 0.65932 0.0
C2787 C 0.86795 0.31781 0.65668 0.0
C2788 C 0.87682 0.31532 0.6626 0.0
H2789 H 0.84384 0.27405 0.59656 0.0
H2790 H 0.85593 0.28591 0.61037 0.0
C2791 C 0.88179 0.3229 0.67128 0.0
C2792 C 0.86217 0.30973 0.64784 0.0
H2793 H 0.8455 0.28469 0.64356 0.0
C2794 C 0.8619 0.31282 0.63698 0.0
C2795 C 0.85619 0.29947 0.65025 0.0
C2796 C 0.85575 0.29591 0.66188 0.0
C2797 C 0.85566 0.30601 0.62852 0.0
C2798 C 0.8497 0.29572 0.63093 0.0
C2799 C 0.85012 0.29255 0.64173 0.0
C2800 C 0.8425 0.28838 0.62256 0.0
C2801 C 0.85514 0.31008 0.61723 0.0
C2802 C 0.83099 0.28561 0.62493 0.0
C2803 C 0.82409 0.2787 0.61714 0.0
C2804 C 0.82855 0.2744 0.60679 0.0
C2805 C 0.84012 0.27715 0.60447 0.0
C2806 C 0.84703 0.28403 0.6123 0.0
H2807 H 0.85787 0.31913 0.61762 0.0
H2808 H 0.86079 0.30596 0.61114 0.0
H2809 H 0.8465 0.30811 0.61399 0.0
H2810 H 0.82732 0.28882 0.63282 0.0
H2811 H 0.81527 0.27659 0.61932 0.0
H2812 H 0.28307 0.30238 0.65023 0.0
H2813 H 0.27579 0.2948 0.63181 0.0
H2814 H 0.2437 0.28357 0.64714 0.0
H2815 H 0.25098 0.291 0.6657 0.0
H2816 H 0.25153 0.26754 0.63246 0.0
H2817 H 0.25432 0.30579 0.6123 0.0
H2818 H 0.26733 0.30461 0.61835 0.0
H2819 H 0.2551 0.30589 0.62731 0.0
C2820 C 0.27444 0.29838 0.6497 0.0
C2821 C 0.26761 0.29729 0.65943 0.0
C2822 C 0.27025 0.29414 0.63914 0.0
C2823 C 0.25914 0.28882 0.63809 0.0
C2824 C 0.25227 0.28775 0.64777 0.0
H2825 H 0.23207 0.24984 0.57584 0.0
H2826 H 0.23209 0.26052 0.59449 0.0
C2827 C 0.25646 0.29198 0.65836 0.0
C2828 C 0.25505 0.28368 0.62693 0.0
H2829 H 0.25365 0.28885 0.59977 0.0
C2830 C 0.25174 0.27221 0.62535 0.0
C2831 C 0.25529 0.28982 0.6177 0.0
C2832 C 0.25809 0.30222 0.61902 0.0
C2833 C 0.24941 0.26662 0.61462 0.0
C2834 C 0.25028 0.27271 0.60529 0.0
C2835 C 0.25302 0.28423 0.60696 0.0
C2836 C 0.24975 0.26714 0.59366 0.0
C2837 C 0.24669 0.2542 0.61323 0.0
C2838 C 0.25958 0.26761 0.58695 0.0
C2839 C 0.25962 0.26151 0.57639 0.0
C2840 C 0.24979 0.25486 0.57225 0.0
C2841 C 0.23981 0.25476 0.57883 0.0
C2842 C 0.23979 0.26086 0.58946 0.0
H2843 H 0.24778 0.25065 0.62111 0.0
H2844 H 0.23784 0.25169 0.61071 0.0
H2845 H 0.25212 0.2506 0.6065 0.0
H2846 H 0.26735 0.27237 0.59009 0.0
H2847 H 0.26751 0.26164 0.57169 0.0
H2848 H 0.19416 0.31915 0.38885 0.0
H2849 H 0.20362 0.31096 0.40257 0.0
H2850 H 0.22372 0.29636 0.37592 0.0
H2851 H 0.2142 0.30437 0.36211 0.0
H2852 H 0.21489 0.2818 0.39114 0.0
H2853 H 0.23568 0.32139 0.41315 0.0
H2854 H 0.22073 0.32037 0.41229 0.0
H2855 H 0.22935 0.32047 0.39966 0.0
C2856 C 0.20061 0.31421 0.3859 0.0
C2857 C 0.20347 0.31246 0.37438 0.0
C2858 C 0.20604 0.30958 0.39377 0.0
C2859 C 0.21449 0.3032 0.39028 0.0
C2860 C 0.21725 0.30131 0.37879 0.0
H2861 H 0.26479 0.28428 0.42962 0.0
H2862 H 0.25412 0.2923 0.4168 0.0
C2863 C 0.21181 0.30591 0.37091 0.0
C2864 C 0.22041 0.2984 0.39859 0.0
H2865 H 0.23725 0.30518 0.42127 0.0
C2866 C 0.21977 0.2869 0.39774 0.0
C2867 C 0.22688 0.30509 0.4071 0.0
C2868 C 0.22831 0.31752 0.40808 0.0
C2869 C 0.22539 0.28189 0.40522 0.0
C2870 C 0.23166 0.28857 0.41388 0.0
C2871 C 0.23234 0.30008 0.41469 0.0
C2872 C 0.23797 0.28382 0.4219 0.0
C2873 C 0.22481 0.26952 0.40359 0.0
C2874 C 0.23242 0.27652 0.42915 0.0
C2875 C 0.2385 0.27193 0.43653 0.0
C2876 C 0.25025 0.27465 0.43685 0.0
C2877 C 0.25575 0.28213 0.4297 0.0
C2878 C 0.24967 0.28668 0.42233 0.0
H2879 H 0.22199 0.2659 0.39507 0.0
H2880 H 0.23311 0.26714 0.4049 0.0
H2881 H 0.21874 0.26586 0.40983 0.0
H2882 H 0.22337 0.27438 0.42912 0.0
H2883 H 0.23401 0.26632 0.44203 0.0
H2884 H 0.19661 0.71077 0.40075 0.0
H2885 H 0.20895 0.71708 0.41652 0.0
H2886 H 0.22244 0.6865 0.41147 0.0
H2887 H 0.21021 0.68013 0.39549 0.0
H2888 H 0.21049 0.7079 0.43636 0.0
H2889 H 0.25055 0.7098 0.41127 0.0
H2890 H 0.2371 0.70843 0.40486 0.0
H2891 H 0.24155 0.69671 0.40981 0.0
C2892 C 0.20219 0.70535 0.40296 0.0
C2893 C 0.20246 0.69495 0.39679 0.0
C2894 C 0.20923 0.70899 0.412 0.0
C2895 C 0.21671 0.70233 0.41507 0.0
C2896 C 0.21687 0.69185 0.4091 0.0
H2897 H 0.26755 0.71958 0.46688 0.0
H2898 H 0.25483 0.70907 0.45273 0.0
C2899 C 0.20984 0.6882 0.4 0.0
C2900 C 0.2243 0.70649 0.42452 0.0
H2901 H 0.25186 0.71472 0.43082 0.0
C2902 C 0.21954 0.70933 0.43517 0.0
C2903 C 0.23611 0.70831 0.42294 0.0
C2904 C 0.24167 0.70575 0.4116 0.0
C2905 C 0.22626 0.71411 0.44425 0.0
C2906 C 0.23803 0.71623 0.44258 0.0
C2907 C 0.24283 0.71307 0.43204 0.0
C2908 C 0.24545 0.72239 0.45146 0.0
C2909 C 0.2207 0.71692 0.45553 0.0
C2910 C 0.24445 0.73337 0.45532 0.0
C2911 C 0.25174 0.73942 0.4633 0.0
C2912 C 0.26023 0.73461 0.46758 0.0
C2913 C 0.26118 0.72357 0.4637 0.0
C2914 C 0.25389 0.71753 0.45566 0.0
H2915 H 0.21219 0.71206 0.45624 0.0
H2916 H 0.22582 0.71539 0.46247 0.0
H2917 H 0.21982 0.72579 0.45661 0.0
H2918 H 0.23816 0.73735 0.45198 0.0
H2919 H 0.25091 0.74797 0.4659 0.0
H2920 H 0.83306 0.72594 0.32108 0.0
H2921 H 0.82711 0.72789 0.34097 0.0
H2922 H 0.85727 0.71668 0.34975 0.0
H2923 H 0.86345 0.71512 0.33002 0.0
H2924 H 0.82414 0.71209 0.3576 0.0
H2925 H 0.85791 0.7477 0.36759 0.0
H2926 H 0.85384 0.74268 0.35337 0.0
H2927 H 0.86239 0.73533 0.36064 0.0
C2928 C 0.83836 0.72379 0.32725 0.0
C2929 C 0.84862 0.72017 0.32398 0.0
C2930 C 0.83493 0.72486 0.33858 0.0
C2931 C 0.84178 0.72246 0.34679 0.0
C2932 C 0.85189 0.71858 0.34352 0.0
H2933 H 0.83743 0.73939 0.41947 0.0
H2934 H 0.84275 0.73078 0.40091 0.0
C2935 C 0.85532 0.71753 0.33221 0.0
C2936 C 0.83867 0.72468 0.35883 0.0
H2937 H 0.84616 0.74193 0.38258 0.0
C2938 C 0.82897 0.71857 0.3631 0.0
C2939 C 0.84503 0.73311 0.36595 0.0
C2940 C 0.85533 0.74016 0.36168 0.0
C2941 C 0.82541 0.72072 0.37436 0.0
C2942 C 0.83161 0.72935 0.38141 0.0
C2943 C 0.84145 0.73528 0.37717 0.0
C2944 C 0.82768 0.733 0.39293 0.0
C2945 C 0.81507 0.71374 0.3786 0.0
C2946 C 0.8174 0.73697 0.39462 0.0
C2947 C 0.81435 0.7419 0.40518 0.0
C2948 C 0.8216 0.74304 0.41424 0.0
C2949 C 0.83172 0.73871 0.41263 0.0
C2950 C 0.83474 0.73375 0.40206 0.0
H2951 H 0.81351 0.70552 0.37355 0.0
H2952 H 0.81579 0.71256 0.38755 0.0
H2953 H 0.80767 0.7179 0.37788 0.0
H2954 H 0.81196 0.73676 0.38765 0.0
H2955 H 0.8066 0.74534 0.40608 0.0
H2956 H 0.87368 0.34349 0.41749 0.0
H2957 H 0.86332 0.33485 0.43286 0.0
H2958 H 0.83263 0.34353 0.42207 0.0
H2959 H 0.84292 0.35206 0.40648 0.0
H2960 H 0.8499 0.3427 0.45069 0.0
H2961 H 0.82537 0.31005 0.42165 0.0
H2962 H 0.83746 0.31904 0.41694 0.0
H2963 H 0.82426 0.324 0.41963 0.0
C2964 C 0.86473 0.34364 0.4184 0.0
C2965 C 0.85911 0.34836 0.41066 0.0
C2966 C 0.85883 0.33871 0.42722 0.0
C2967 C 0.84718 0.33838 0.4285 0.0
C2968 C 0.84159 0.3435 0.4211 0.0
H2969 H 0.80226 0.29848 0.47251 0.0
H2970 H 0.80939 0.3129 0.46056 0.0
C2971 C 0.84749 0.34842 0.41223 0.0
C2972 C 0.84095 0.33223 0.43731 0.0
H2973 H 0.82215 0.30917 0.44099 0.0
C2974 C 0.84376 0.33543 0.44859 0.0
C2975 C 0.83292 0.32274 0.43455 0.0
C2976 C 0.82985 0.31866 0.42254 0.0
C2977 C 0.83891 0.32927 0.45716 0.0
C2978 C 0.83118 0.31959 0.45434 0.0
C2979 C 0.82807 0.31661 0.44313 0.0
C2980 C 0.82688 0.31191 0.46269 0.0
C2981 C 0.84217 0.33315 0.46914 0.0
C2982 C 0.83435 0.30665 0.46794 0.0
C2983 C 0.83031 0.29843 0.47477 0.0
C2984 C 0.81871 0.29528 0.47646 0.0
C2985 C 0.81125 0.30082 0.47149 0.0
C2986 C 0.8153 0.30901 0.46461 0.0
H2987 H 0.84527 0.34215 0.47033 0.0
H2988 H 0.83498 0.33131 0.47508 0.0
H2989 H 0.84903 0.32881 0.47129 0.0
H2990 H 0.84331 0.30859 0.46641 0.0
H2991 H 0.83627 0.29437 0.47853 0.0
H2992 H 0.12815 0.69331 0.68529 0.0
H2993 H 0.11222 0.70007 0.69559 0.0
H2994 H 0.12135 0.68774 0.72544 0.0
H2995 H 0.13749 0.68108 0.71523 0.0
H2996 H 0.09384 0.68953 0.70703 0.0
H2997 H 0.12061 0.72044 0.73579 0.0
H2998 H 0.12618 0.71328 0.72327 0.0
H2999 H 0.12305 0.70646 0.73569 0.0
C3000 C 0.12677 0.69197 0.69404 0.0
C3001 C 0.13417 0.68674 0.69946 0.0
C3002 C 0.11763 0.69583 0.69991 0.0
C3003 C 0.11569 0.69456 0.71133 0.0
C3004 C 0.12282 0.68899 0.71669 0.0
H3005 H 0.05548 0.70994 0.74999 0.0
H3006 H 0.06983 0.70023 0.73994 0.0
C3007 C 0.132 0.68514 0.71082 0.0
C3008 C 0.10642 0.69941 0.71762 0.0
H3009 H 0.10104 0.71904 0.73893 0.0
C3010 C 0.09539 0.69595 0.71404 0.0
C3011 C 0.1085 0.70789 0.72666 0.0
C3012 C 0.12022 0.71233 0.73055 0.0
C3013 C 0.08637 0.70076 0.71923 0.0
C3014 C 0.08844 0.70915 0.72836 0.0
C3015 C 0.09947 0.71256 0.73197 0.0
C3016 C 0.0794 0.71484 0.73403 0.0
C3017 C 0.07477 0.69707 0.7147 0.0
C3018 C 0.08006 0.72628 0.73415 0.0
C3019 C 0.07196 0.73186 0.73998 0.0
C3020 C 0.06302 0.72613 0.74586 0.0
C3021 C 0.06229 0.71462 0.7456 0.0
C3022 C 0.07042 0.70904 0.73976 0.0
H3023 H 0.07502 0.69254 0.70613 0.0
H3024 H 0.06986 0.69147 0.7203 0.0
H3025 H 0.0703 0.70423 0.71444 0.0
H3026 H 0.08695 0.73093 0.72983 0.0
H3027 H 0.07294 0.74074 0.74016 0.0
H3028 H 0.84329 0.64142 0.70529 0.0
H3029 H 0.83686 0.62307 0.71105 0.0
H3030 H 0.80336 0.62474 0.7011 0.0
H3031 H 0.80972 0.64284 0.6951 0.0
H3032 H 0.82159 0.61795 0.72723 0.0
H3033 H 0.80698 0.59422 0.68719 0.0
H3034 H 0.8157 0.60754 0.68777 0.0
H3035 H 0.80073 0.60653 0.69008 0.0
C3036 C 0.83459 0.6378 0.70419 0.0
C3037 C 0.82702 0.64358 0.69972 0.0
C3038 C 0.83093 0.62732 0.70747 0.0
C3039 C 0.81967 0.62243 0.7063 0.0
C3040 C 0.81215 0.62817 0.70177 0.0
H3041 H 0.77196 0.57574 0.7351 0.0
H3042 H 0.78281 0.58965 0.72453 0.0
C3043 C 0.81579 0.6386 0.69844 0.0
C3044 C 0.81549 0.6118 0.71071 0.0
H3045 H 0.79914 0.58685 0.70415 0.0
C3046 C 0.81689 0.61105 0.72213 0.0
C3047 C 0.80938 0.60279 0.70403 0.0
C3048 C 0.80821 0.60276 0.69156 0.0
C3049 C 0.81181 0.60181 0.72719 0.0
C3050 C 0.80521 0.59309 0.72064 0.0
C3051 C 0.80417 0.5936 0.70914 0.0
C3052 C 0.79862 0.58383 0.72586 0.0
C3053 C 0.81306 0.60163 0.73962 0.0
C3054 C 0.80391 0.57579 0.72983 0.0
C3055 C 0.7977 0.56772 0.73577 0.0
C3056 C 0.78611 0.5676 0.73789 0.0
C3057 C 0.78081 0.57546 0.7335 0.0
C3058 C 0.78701 0.58346 0.72751 0.0
H3059 H 0.81754 0.60954 0.74373 0.0
H3060 H 0.80468 0.59987 0.74381 0.0
H3061 H 0.81783 0.59494 0.74095 0.0
H3062 H 0.81286 0.57592 0.72854 0.0
H3063 H 0.80202 0.56169 0.73887 0.0
H3064 H 0.91542 0.33217 0.73251 0.0
H3065 H 0.93125 0.32858 0.74276 0.0
H3066 H 0.95412 0.34891 0.72243 0.0
H3067 H 0.93835 0.35242 0.712 0.0
H3068 H 0.96177 0.32941 0.72585 0.0
H3069 H 0.94815 0.35137 0.76606 0.0
H3070 H 0.93766 0.3406 0.76003 0.0
H3071 H 0.94223 0.35248 0.75279 0.0
C3072 C 0.92382 0.33584 0.73018 0.0
C3073 C 0.92561 0.34266 0.72149 0.0
C3074 C 0.93285 0.33382 0.73609 0.0
C3075 C 0.94384 0.33864 0.7335 0.0
C3076 C 0.9457 0.34516 0.7246 0.0
H3077 H 0.99926 0.34526 0.77879 0.0
H3078 H 0.98554 0.34866 0.76575 0.0
C3079 C 0.93667 0.34716 0.71866 0.0
C3080 C 0.95335 0.33707 0.74021 0.0
H3081 H 0.96319 0.34126 0.76685 0.0
C3082 C 0.96212 0.33203 0.73481 0.0
C3083 C 0.95388 0.34066 0.75186 0.0
C3084 C 0.94504 0.34668 0.75803 0.0
C3085 C 0.97128 0.33027 0.7408 0.0
C3086 C 0.97159 0.3335 0.75253 0.0
C3087 C 0.96293 0.33872 0.75787 0.0
C3088 C 0.98072 0.33146 0.75952 0.0
C3089 C 0.98062 0.32511 0.73449 0.0
C3090 C 0.98267 0.32068 0.76026 0.0
C3091 C 0.99052 0.31872 0.76769 0.0
C3092 C 0.9965 0.3275 0.77462 0.0
C3093 C 0.99473 0.33832 0.77364 0.0
C3094 C 0.98692 0.34027 0.76617 0.0
H3095 H 0.98075 0.32607 0.7254 0.0
H3096 H 0.98891 0.3288 0.73795 0.0
H3097 H 0.97931 0.31615 0.73532 0.0
H3098 H 0.97781 0.31373 0.75541 0.0
H3099 H 0.99153 0.31028 0.76838 0.0
H3100 H 0.26255 0.33916 0.72413 0.0
H3101 H 0.2594 0.35813 0.72969 0.0
H3102 H 0.26804 0.36588 0.69596 0.0
H3103 H 0.27133 0.34687 0.6904 0.0
H3104 H 0.27892 0.38071 0.71077 0.0
H3105 H 0.23425 0.3744 0.72436 0.0
H3106 H 0.24216 0.36628 0.73139 0.0
H3107 H 0.24079 0.36364 0.71637 0.0
C3108 C 0.26346 0.34482 0.71783 0.0
C3109 C 0.26694 0.34151 0.70678 0.0
C3110 C 0.26166 0.35567 0.72101 0.0
C3111 C 0.2632 0.36337 0.71317 0.0
C3112 C 0.26668 0.36005 0.70212 0.0
H3113 H 0.24793 0.43034 0.73448 0.0
H3114 H 0.24774 0.41204 0.7238 0.0
C3115 C 0.26858 0.34922 0.69896 0.0
C3116 C 0.26216 0.37508 0.7168 0.0
H3117 H 0.24518 0.39176 0.73149 0.0
C3118 C 0.27147 0.38314 0.71514 0.0
C3119 C 0.25237 0.37831 0.72232 0.0
C3120 C 0.24179 0.3702 0.7236 0.0
C3121 C 0.27147 0.39422 0.71936 0.0
C3122 C 0.26203 0.39728 0.72567 0.0
C3123 C 0.25248 0.38936 0.7268 0.0
C3124 C 0.26222 0.40845 0.73181 0.0
C3125 C 0.28166 0.40251 0.71714 0.0
C3126 C 0.27032 0.4124 0.73993 0.0
C3127 C 0.27046 0.42279 0.74598 0.0
C3128 C 0.26242 0.42942 0.74413 0.0
C3129 C 0.25422 0.42541 0.73608 0.0
C3130 C 0.25412 0.41499 0.72997 0.0
H3131 H 0.28628 0.39976 0.70934 0.0
H3132 H 0.27932 0.41072 0.71635 0.0
H3133 H 0.28745 0.40341 0.72422 0.0
H3134 H 0.27644 0.40736 0.74173 0.0
H3135 H 0.2767 0.42551 0.75233 0.0
H3136 H 0.15353 0.3214 0.32589 0.0
H3137 H 0.13658 0.3097 0.31874 0.0
H3138 H 0.12668 0.30222 0.35228 0.0
H3139 H 0.14363 0.31406 0.35959 0.0
H3140 H 0.12921 0.28707 0.32038 0.0
H3141 H 0.09918 0.31357 0.34125 0.0
H3142 H 0.11402 0.31845 0.33996 0.0
H3143 H 0.10884 0.30931 0.35019 0.0
C3144 C 0.14777 0.31727 0.33178 0.0
C3145 C 0.1499 0.31872 0.34333 0.0
C3146 C 0.1381 0.31057 0.32766 0.0
C3147 C 0.13032 0.30522 0.335 0.0
C3148 C 0.13249 0.30644 0.34651 0.0
H3149 H 0.06517 0.26614 0.31577 0.0
H3150 H 0.08145 0.27478 0.32692 0.0
C3151 C 0.14221 0.31315 0.35066 0.0
C3152 C 0.11995 0.29843 0.33044 0.0
H3153 H 0.09159 0.29767 0.32962 0.0
C3154 C 0.12097 0.28932 0.32247 0.0
C3155 C 0.10921 0.30137 0.33325 0.0
C3156 C 0.10767 0.31125 0.34157 0.0
C3157 C 0.11158 0.28322 0.317 0.0
C3158 C 0.10092 0.28644 0.31945 0.0
C3159 C 0.0998 0.29526 0.32776 0.0
C3160 C 0.09101 0.28127 0.31286 0.0
C3161 C 0.11316 0.27346 0.30854 0.0
C3162 C 0.09095 0.28225 0.30135 0.0
C3163 C 0.08172 0.27736 0.29499 0.0
C3164 C 0.07231 0.27142 0.30004 0.0
C3165 C 0.07232 0.27058 0.31163 0.0
C3166 C 0.08158 0.27553 0.31801 0.0
H3167 H 0.12099 0.27021 0.30995 0.0
H3168 H 0.10595 0.26671 0.30889 0.0
H3169 H 0.11376 0.27605 0.29997 0.0
H3170 H 0.09808 0.28679 0.29726 0.0
H3171 H 0.08205 0.27805 0.28606 0.0
H3172 H 0.18447 0.63475 0.35633 0.0
H3173 H 0.19123 0.61829 0.34673 0.0
H3174 H 0.21505 0.63868 0.32732 0.0
H3175 H 0.20843 0.65519 0.33693 0.0
H3176 H 0.19151 0.6109 0.32375 0.0
H3177 H 0.2345 0.61913 0.34037 0.0
H3178 H 0.22333 0.62628 0.34648 0.0
H3179 H 0.23071 0.63036 0.33394 0.0
C3180 C 0.19117 0.63574 0.35005 0.0
C3181 C 0.19594 0.64629 0.34743 0.0
C3182 C 0.19502 0.62632 0.34457 0.0
C3183 C 0.20375 0.62728 0.33645 0.0
C3184 C 0.20845 0.63778 0.33374 0.0
H3185 H 0.22306 0.57944 0.28382 0.0
H3186 H 0.21548 0.59439 0.29539 0.0
C3187 C 0.20461 0.6472 0.33919 0.0
C3188 C 0.20773 0.61728 0.33056 0.0
H3189 H 0.23106 0.60483 0.32514 0.0
C3190 C 0.20013 0.60952 0.32411 0.0
C3191 C 0.21895 0.61543 0.33118 0.0
C3192 C 0.22733 0.62318 0.33845 0.0
C3193 C 0.20354 0.60013 0.31796 0.0
C3194 C 0.21488 0.59855 0.31818 0.0
C3195 C 0.22239 0.60612 0.32492 0.0
C3196 C 0.21918 0.58925 0.31123 0.0
C3197 C 0.19497 0.59197 0.31133 0.0
C3198 C 0.22396 0.5815 0.3163 0.0
C3199 C 0.22829 0.5729 0.3097 0.0
C3200 C 0.22797 0.57194 0.2979 0.0
C3201 C 0.22322 0.57977 0.29288 0.0
C3202 C 0.21889 0.58834 0.29948 0.0
H3203 H 0.18628 0.59273 0.31447 0.0
H3204 H 0.19562 0.59358 0.3024 0.0
H3205 H 0.19644 0.58338 0.31169 0.0
H3206 H 0.22431 0.58209 0.32537 0.0
H3207 H 0.23182 0.56697 0.31384 0.0
H3208 H 0.89697 0.7232 0.29743 0.0
H3209 H 0.91632 0.73106 0.30211 0.0
H3210 H 0.91165 0.76157 0.29028 0.0
H3211 H 0.89226 0.7539 0.28588 0.0
H3212 H 0.93413 0.73907 0.28957 0.0
H3213 H 0.92313 0.77224 0.32137 0.0
H3214 H 0.91284 0.76093 0.31575 0.0
H3215 H 0.91694 0.7727 0.30817 0.0
C3216 C 0.90008 0.73158 0.29581 0.0
C3217 C 0.89307 0.73797 0.29138 0.0
C3218 C 0.91113 0.73606 0.29851 0.0
C3219 C 0.91533 0.74699 0.2968 0.0
C3220 C 0.90847 0.75323 0.29199 0.0
H3221 H 0.98064 0.78091 0.28669 0.0
H3222 H 0.96312 0.7681 0.28589 0.0
C3223 C 0.89741 0.7488 0.28939 0.0
C3224 C 0.92694 0.75188 0.29988 0.0
H3225 H 0.94207 0.77469 0.31388 0.0
C3226 C 0.93588 0.74678 0.29502 0.0
C3227 C 0.92922 0.76176 0.30725 0.0
C3228 C 0.92001 0.76715 0.31353 0.0
C3229 C 0.94706 0.75166 0.29677 0.0
C3230 C 0.94931 0.76205 0.30332 0.0
C3231 C 0.94037 0.7668 0.30873 0.0
C3232 C 0.9607 0.7686 0.30394 0.0
C3233 C 0.95632 0.74566 0.29152 0.0
C3234 C 0.96516 0.77327 0.31436 0.0
C3235 C 0.97514 0.78075 0.31483 0.0
C3236 C 0.98084 0.78365 0.30489 0.0
C3237 C 0.97657 0.77866 0.29449 0.0
C3238 C 0.96655 0.77129 0.29402 0.0
H3239 H 0.95363 0.73659 0.29064 0.0
H3240 H 0.95839 0.74808 0.28297 0.0
H3241 H 0.96401 0.74767 0.29655 0.0
H3242 H 0.96075 0.77137 0.32212 0.0
H3243 H 0.97827 0.78446 0.32296 0.0
H3244 H 0.86567 0.41385 0.35511 0.0
H3245 H 0.85622 0.42755 0.34777 0.0
H3246 H 0.82727 0.40289 0.3405 0.0
H3247 H 0.83659 0.38916 0.34783 0.0
H3248 H 0.84721 0.42688 0.32582 0.0
H3249 H 0.81453 0.42853 0.35981 0.0
H3250 H 0.82722 0.42282 0.36116 0.0
H3251 H 0.81575 0.41485 0.35336 0.0
C3252 C 0.85729 0.41134 0.35195 0.0
C3253 C 0.85186 0.40042 0.35211 0.0
C3254 C 0.85192 0.41918 0.34776 0.0
C3255 C 0.84099 0.41627 0.34375 0.0
C3256 C 0.83562 0.40535 0.34373 0.0
H3257 H 0.79096 0.44365 0.31346 0.0
H3258 H 0.80254 0.43293 0.32243 0.0
C3259 C 0.84099 0.3975 0.34788 0.0
C3260 C 0.83519 0.42458 0.33946 0.0
H3261 H 0.81173 0.43696 0.34357 0.0
C3262 C 0.83952 0.4292 0.32975 0.0
C3263 C 0.82519 0.42761 0.34465 0.0
C3264 C 0.82043 0.42328 0.35538 0.0
C3265 C 0.83383 0.43639 0.32478 0.0
C3266 C 0.82365 0.43918 0.3298 0.0
C3267 C 0.81952 0.4348 0.33971 0.0
C3268 C 0.81673 0.44598 0.32454 0.0
C3269 C 0.83849 0.44055 0.31394 0.0
C3270 C 0.82081 0.45696 0.32285 0.0
C3271 C 0.81416 0.46317 0.31773 0.0
C3272 C 0.80327 0.45853 0.31433 0.0
C3273 C 0.79921 0.44757 0.31617 0.0
C3274 C 0.80585 0.44139 0.32124 0.0
H3275 H 0.84502 0.43581 0.30996 0.0
H3276 H 0.83171 0.44008 0.30787 0.0
H3277 H 0.84235 0.44932 0.31569 0.0
H3278 H 0.82911 0.46074 0.32553 0.0
H3279 H 0.81749 0.47161 0.31652 0.0
H3280 H 0.21028 0.64398 0.7047 0.0
H3281 H 0.2188 0.62903 0.71068 0.0
H3282 H 0.18815 0.60653 0.70369 0.0
H3283 H 0.17984 0.62133 0.6971 0.0
H3284 H 0.21413 0.61753 0.72707 0.0
H3285 H 0.20963 0.58834 0.68816 0.0
H3286 H 0.20684 0.6023 0.68871 0.0
H3287 H 0.19635 0.59172 0.69354 0.0
C3288 C 0.2054 0.63581 0.70433 0.0
C3289 C 0.19443 0.6338 0.70034 0.0
C3290 C 0.21027 0.62726 0.70777 0.0
C3291 C 0.20422 0.61655 0.70746 0.0
C3292 C 0.19316 0.6146 0.70367 0.0
H3293 H 0.22701 0.56956 0.74701 0.0
H3294 H 0.21631 0.5823 0.73993 0.0
C3295 C 0.18837 0.62309 0.69999 0.0
C3296 C 0.20939 0.6076 0.7115 0.0
H3297 H 0.21482 0.58128 0.70444 0.0
C3298 C 0.21433 0.60962 0.72208 0.0
C3299 C 0.20979 0.59731 0.70496 0.0
C3300 C 0.20548 0.59482 0.69317 0.0
C3301 C 0.21968 0.60172 0.72627 0.0
C3302 C 0.21966 0.59125 0.71995 0.0
C3303 C 0.2147 0.58922 0.70938 0.0
C3304 C 0.22525 0.58253 0.72387 0.0
C3305 C 0.22565 0.6049 0.73725 0.0
C3306 C 0.23331 0.57776 0.71693 0.0
C3307 C 0.23915 0.5701 0.72078 0.0
C3308 C 0.23721 0.56713 0.73176 0.0
C3309 C 0.22876 0.57156 0.7385 0.0
C3310 C 0.22276 0.57905 0.73454 0.0
H3311 H 0.22781 0.61399 0.73914 0.0
H3312 H 0.22006 0.60189 0.74418 0.0
H3313 H 0.23349 0.60124 0.73713 0.0
H3314 H 0.23529 0.58016 0.70859 0.0
H3315 H 0.24531 0.56664 0.71517 0.0
H3316 H 0.21101 0.35694 0.33442 0.0
H3317 H 0.22136 0.37417 0.329 0.0
H3318 H 0.20838 0.39205 0.35862 0.0
H3319 H 0.19773 0.37485 0.36396 0.0
H3320 H 0.20638 0.40186 0.34027 0.0
H3321 H 0.24964 0.39251 0.34118 0.0
H3322 H 0.24088 0.38224 0.33233 0.0
H3323 H 0.23778 0.38418 0.34721 0.0
C3324 C 0.21045 0.36451 0.33987 0.0
C3325 C 0.20356 0.36451 0.34964 0.0
C3326 C 0.21644 0.37436 0.33678 0.0
C3327 C 0.2158 0.38439 0.34349 0.0
C3328 C 0.20904 0.3844 0.35333 0.0
H3329 H 0.26022 0.44473 0.33124 0.0
H3330 H 0.25004 0.42904 0.33981 0.0
C3331 C 0.20297 0.37456 0.35639 0.0
C3332 C 0.2217 0.39491 0.33991 0.0
H3333 H 0.24728 0.4078 0.33153 0.0
C3334 C 0.21534 0.40321 0.33847 0.0
C3335 C 0.23342 0.39674 0.3377 0.0
C3336 C 0.24084 0.38849 0.3398 0.0
C3337 C 0.22033 0.41314 0.33458 0.0
C3338 C 0.23194 0.41471 0.33179 0.0
C3339 C 0.23835 0.40655 0.33354 0.0
C3340 C 0.23762 0.42468 0.32694 0.0
C3341 C 0.21311 0.42189 0.33362 0.0
C3342 C 0.23402 0.42749 0.31686 0.0
C3343 C 0.23971 0.43659 0.31203 0.0
C3344 C 0.24924 0.44298 0.31709 0.0
C3345 C 0.2528 0.44015 0.32721 0.0
C3346 C 0.24705 0.4311 0.33207 0.0
H3347 H 0.20556 0.42094 0.33929 0.0
H3348 H 0.21785 0.43029 0.33567 0.0
H3349 H 0.2102 0.4211 0.32488 0.0
H3350 H 0.22692 0.42252 0.3126 0.0
H3351 H 0.23667 0.43857 0.30429 0.0
H3352 H 0.1488 0.70357 0.34862 0.0
H3353 H 0.13641 0.71381 0.3398 0.0
H3354 H 0.15851 0.74415 0.34928 0.0
H3355 H 0.17094 0.73406 0.35793 0.0
H3356 H 0.12516 0.73054 0.34984 0.0
H3357 H 0.15415 0.74559 0.31609 0.0
H3358 H 0.15662 0.73457 0.32379 0.0
H3359 H 0.16034 0.74873 0.32964 0.0
C3360 C 0.15107 0.71241 0.34872 0.0
C3361 C 0.16088 0.71799 0.35394 0.0
C3362 C 0.14398 0.71824 0.3437 0.0
C3363 C 0.14663 0.72971 0.34373 0.0
C3364 C 0.15642 0.73527 0.34892 0.0
H3365 H 0.10791 0.78128 0.34194 0.0
H3366 H 0.11701 0.76618 0.34658 0.0
C3367 C 0.16349 0.72948 0.35393 0.0
C3368 C 0.13898 0.73606 0.33887 0.0
H3369 H 0.13861 0.75544 0.321 0.0
C3370 C 0.12803 0.73586 0.34341 0.0
C3371 C 0.14265 0.74285 0.33034 0.0
C3372 C 0.15405 0.74287 0.3246 0.0
C3373 C 0.12087 0.74273 0.34008 0.0
C3374 C 0.12486 0.75013 0.33216 0.0
C3375 C 0.13559 0.74988 0.32718 0.0
C3376 C 0.11838 0.75867 0.32939 0.0
C3377 C 0.10915 0.74206 0.34515 0.0
C3378 C 0.11623 0.75957 0.31817 0.0
C3379 C 0.1112 0.76833 0.31546 0.0
C3380 C 0.10827 0.77639 0.32394 0.0
C3381 C 0.11016 0.77528 0.3352 0.0
C3382 C 0.11522 0.76655 0.33788 0.0
H3383 H 0.10618 0.7338 0.34787 0.0
H3384 H 0.10914 0.74823 0.35268 0.0
H3385 H 0.10314 0.74379 0.33911 0.0
H3386 H 0.11869 0.75363 0.31147 0.0
H3387 H 0.11002 0.769 0.3067 0.0
H3388 H 0.86037 0.662 0.31657 0.0
H3389 H 0.85127 0.64283 0.31508 0.0
H3390 H 0.82632 0.6516 0.34002 0.0
H3391 H 0.83527 0.67088 0.34148 0.0
H3392 H 0.84412 0.62656 0.33045 0.0
H3393 H 0.80878 0.64072 0.31087 0.0
H3394 H 0.82214 0.64939 0.31314 0.0
H3395 H 0.81244 0.64716 0.32474 0.0
C3396 C 0.85307 0.65984 0.32191 0.0
C3397 C 0.8484 0.66801 0.32898 0.0
C3398 C 0.84791 0.64887 0.32108 0.0
C3399 C 0.83803 0.64587 0.32729 0.0
C3400 C 0.83386 0.65381 0.33503 0.0
H3401 H 0.78988 0.58724 0.30703 0.0
H3402 H 0.79923 0.60313 0.319 0.0
C3403 C 0.839 0.66482 0.33587 0.0
C3404 C 0.83145 0.63479 0.32458 0.0
H3405 H 0.80807 0.62176 0.31089 0.0
C3406 C 0.83615 0.62547 0.32632 0.0
C3407 C 0.82107 0.63343 0.31919 0.0
C3408 C 0.8158 0.64317 0.31678 0.0
C3409 C 0.83085 0.61479 0.32255 0.0
C3410 C 0.82073 0.61347 0.3167 0.0
C3411 C 0.81581 0.62278 0.31541 0.0
C3412 C 0.81557 0.60271 0.31089 0.0
C3413 C 0.8362 0.60505 0.32478 0.0
C3414 C 0.82169 0.59707 0.30247 0.0
C3415 C 0.81639 0.58791 0.29569 0.0
C3416 C 0.80483 0.5843 0.29707 0.0
C3417 C 0.79881 0.58971 0.3058 0.0
C3418 C 0.80414 0.59883 0.31263 0.0
H3419 H 0.84127 0.60701 0.33245 0.0
H3420 H 0.8298 0.59771 0.32577 0.0
H3421 H 0.84191 0.60296 0.3176 0.0
H3422 H 0.83045 0.60005 0.30078 0.0
H3423 H 0.8213 0.58385 0.28914 0.0
H3424 H 0.89497 0.34153 0.35759 0.0
H3425 H 0.90731 0.33257 0.34403 0.0
H3426 H 0.9032 0.35519 0.32043 0.0
H3427 H 0.8909 0.36437 0.33406 0.0
H3428 H 0.90192 0.32221 0.32271 0.0
H3429 H 0.93736 0.35659 0.32064 0.0
H3430 H 0.92669 0.3566 0.33171 0.0
H3431 H 0.92378 0.35984 0.31805 0.0
C3432 C 0.89672 0.34468 0.34955 0.0
C3433 C 0.89194 0.3537 0.34693 0.0
C3434 C 0.90379 0.33953 0.34181 0.0
C3435 C 0.90628 0.34328 0.33127 0.0
C3436 C 0.90156 0.35229 0.3286 0.0
H3437 H 0.94547 0.3172 0.27397 0.0
H3438 H 0.93393 0.32822 0.28663 0.0
C3439 C 0.89448 0.35749 0.33637 0.0
C3440 C 0.91345 0.33739 0.32301 0.0
H3441 H 0.93843 0.34033 0.30824 0.0
C3442 C 0.9099 0.32617 0.31955 0.0
C3443 C 0.92384 0.3426 0.31885 0.0
C3444 C 0.92823 0.35455 0.32255 0.0
C3445 C 0.91646 0.32 0.31207 0.0
C3446 C 0.92694 0.32513 0.30808 0.0
C3447 C 0.93041 0.33641 0.31136 0.0
C3448 C 0.93446 0.31885 0.30064 0.0
C3449 C 0.91205 0.30804 0.30841 0.0
C3450 C 0.93881 0.31012 0.30442 0.0
C3451 C 0.94546 0.30384 0.29724 0.0
C3452 C 0.94793 0.30621 0.28614 0.0
C3453 C 0.94383 0.3152 0.28249 0.0
C3454 C 0.93718 0.32148 0.28969 0.0
H3455 H 0.90283 0.30615 0.30986 0.0
H3456 H 0.91403 0.3058 0.29937 0.0
H3457 H 0.91608 0.30277 0.31334 0.0
H3458 H 0.93701 0.3081 0.31292 0.0
H3459 H 0.94865 0.29712 0.30038 0.0
H3460 H 0.87781 0.3966 0.72053 0.0
H3461 H 0.86889 0.41173 0.73031 0.0
H3462 H 0.83954 0.38865 0.73745 0.0
H3463 H 0.84829 0.37353 0.72765 0.0
H3464 H 0.83506 0.40697 0.72747 0.0
H3465 H 0.86257 0.41979 0.76419 0.0
H3466 H 0.86957 0.41889 0.75062 0.0
H3467 H 0.86227 0.40661 0.75577 0.0
C3468 C 0.86951 0.39473 0.72431 0.0
C3469 C 0.86375 0.38386 0.72329 0.0
C3470 C 0.86445 0.40338 0.72992 0.0
C3471 C 0.8536 0.40129 0.73467 0.0
C3472 C 0.84794 0.39043 0.73386 0.0
H3473 H 0.80307 0.43494 0.76933 0.0
H3474 H 0.81453 0.42211 0.75927 0.0
C3475 C 0.85297 0.38179 0.72826 0.0
C3476 C 0.8478 0.41042 0.73994 0.0
H3477 H 0.84817 0.43033 0.76239 0.0
C3478 C 0.83794 0.4121 0.73509 0.0
C3479 C 0.85164 0.41715 0.74981 0.0
C3480 C 0.86205 0.41552 0.75549 0.0
C3481 C 0.83173 0.42024 0.73993 0.0
C3482 C 0.83538 0.42675 0.74999 0.0
C3483 C 0.8454 0.4253 0.75468 0.0
C3484 C 0.82853 0.43466 0.75608 0.0
C3485 C 0.82132 0.42182 0.73422 0.0
C3486 C 0.83272 0.44596 0.75784 0.0
C3487 C 0.82615 0.45336 0.76357 0.0
C3488 C 0.81531 0.44956 0.76769 0.0
C3489 C 0.81126 0.43819 0.76604 0.0
C3490 C 0.81781 0.43083 0.76031 0.0
H3491 H 0.82144 0.4185 0.72518 0.0
H3492 H 0.81385 0.41734 0.73832 0.0
H3493 H 0.82039 0.43067 0.73492 0.0
H3494 H 0.84101 0.44906 0.75468 0.0
H3495 H 0.8295 0.46207 0.76466 0.0
H3496 H 0.21935 0.31919 0.7442 0.0
H3497 H 0.20181 0.31935 0.75516 0.0
H3498 H 0.19421 0.34597 0.73818 0.0
H3499 H 0.21178 0.34588 0.7271 0.0
H3500 H 0.19445 0.33753 0.76952 0.0
H3501 H 0.16618 0.32145 0.73393 0.0
H3502 H 0.18091 0.32023 0.73325 0.0
H3503 H 0.17656 0.33323 0.73193 0.0
C3504 C 0.21397 0.32509 0.74278 0.0
C3505 C 0.21694 0.33248 0.73472 0.0
C3506 C 0.20396 0.32518 0.74907 0.0
C3507 C 0.19668 0.33258 0.74738 0.0
C3508 C 0.19967 0.34009 0.73949 0.0
H3509 H 0.13901 0.34334 0.79223 0.0
H3510 H 0.15583 0.34639 0.78009 0.0
C3511 C 0.20972 0.34005 0.7332 0.0
C3512 C 0.18598 0.33237 0.75394 0.0
H3513 H 0.1576 0.32554 0.75169 0.0
C3514 C 0.18638 0.335 0.76564 0.0
C3515 C 0.17551 0.32896 0.74881 0.0
C3516 C 0.17468 0.32572 0.7363 0.0
C3517 C 0.17654 0.33422 0.77239 0.0
C3518 C 0.16606 0.33079 0.76726 0.0
C3519 C 0.16566 0.32825 0.75555 0.0
C3520 C 0.1555 0.32914 0.77402 0.0
C3521 C 0.17745 0.33669 0.78498 0.0
C3522 C 0.14962 0.31846 0.77437 0.0
C3523 C 0.14006 0.31668 0.78132 0.0
C3524 C 0.13617 0.32556 0.78801 0.0
C3525 C 0.1419 0.3363 0.78733 0.0
C3526 C 0.15148 0.33807 0.78039 0.0
H3527 H 0.18622 0.33726 0.7877 0.0
H3528 H 0.17453 0.34468 0.78778 0.0
H3529 H 0.17205 0.33023 0.78926 0.0
H3530 H 0.15262 0.31147 0.76952 0.0
H3531 H 0.13596 0.30829 0.78174 0.0
H3532 H 0.8518 0.69339 0.70524 0.0
H3533 H 0.86969 0.70218 0.71331 0.0
H3534 H 0.87128 0.72807 0.69201 0.0
H3535 H 0.85348 0.71928 0.6838 0.0
H3536 H 0.89148 0.70852 0.70285 0.0
H3537 H 0.8731 0.74429 0.72428 0.0
H3538 H 0.8646 0.73164 0.71868 0.0
H3539 H 0.8707 0.74152 0.70947 0.0
C3540 C 0.85608 0.70078 0.70205 0.0
C3541 C 0.85127 0.70556 0.69378 0.0
C3542 C 0.86626 0.70585 0.70676 0.0
C3543 C 0.87173 0.71583 0.70334 0.0
C3544 C 0.8671 0.72046 0.69488 0.0
H3545 H 0.92951 0.76341 0.72406 0.0
H3546 H 0.91338 0.75253 0.71432 0.0
C3547 C 0.85694 0.71541 0.69019 0.0
C3548 C 0.88209 0.72161 0.70883 0.0
H3549 H 0.89286 0.74553 0.72455 0.0
C3550 C 0.8918 0.71659 0.70764 0.0
C3551 C 0.88244 0.73212 0.71509 0.0
C3552 C 0.87214 0.73769 0.71707 0.0
C3553 C 0.90195 0.72195 0.71232 0.0
C3554 C 0.90232 0.73251 0.71849 0.0
C3555 C 0.89257 0.73746 0.71975 0.0
C3556 C 0.91268 0.73861 0.72377 0.0
C3557 C 0.91226 0.71639 0.71039 0.0
C3558 C 0.91766 0.73436 0.73229 0.0
C3559 C 0.92694 0.74053 0.73782 0.0
C3560 C 0.93136 0.7511 0.73499 0.0
C3561 C 0.92644 0.75524 0.72633 0.0
C3562 C 0.91717 0.74907 0.72081 0.0
H3563 H 0.91131 0.70977 0.7032 0.0
H3564 H 0.9198 0.72245 0.70878 0.0
H3565 H 0.91368 0.71259 0.71801 0.0
H3566 H 0.91422 0.72639 0.73485 0.0
H3567 H 0.93059 0.73707 0.74439 0.0
H3568 H 0.71102 0.17026 0.66539 0.0
H3569 H 0.7237 0.17806 0.65093 0.0
H3570 H 0.71225 0.20946 0.65945 0.0
H3571 H 0.69935 0.20166 0.6737 0.0
H3572 H 0.71303 0.20385 0.63704 0.0
H3573 H 0.75308 0.19845 0.65491 0.0
H3574 H 0.74346 0.18583 0.65257 0.0
H3575 H 0.73992 0.19681 0.66275 0.0
C3576 C 0.71126 0.17884 0.66425 0.0
C3577 C 0.70419 0.18534 0.67074 0.0
C3578 C 0.71856 0.18331 0.65601 0.0
C3579 C 0.71908 0.1944 0.65422 0.0
C3580 C 0.71204 0.20089 0.6607 0.0
H3581 H 0.759 0.2384 0.61146 0.0
H3582 H 0.74547 0.23016 0.625 0.0
C3583 C 0.70467 0.19642 0.66886 0.0
C3584 C 0.72668 0.19919 0.64538 0.0
H3585 H 0.75413 0.20382 0.63648 0.0
C3586 C 0.72202 0.20389 0.63695 0.0
C3587 C 0.73843 0.19926 0.64528 0.0
C3588 C 0.74404 0.19492 0.65442 0.0
C3589 C 0.72876 0.20851 0.62835 0.0
C3590 C 0.74046 0.20847 0.62821 0.0
C3591 C 0.74513 0.20377 0.6366 0.0
C3592 C 0.74805 0.2134 0.61949 0.0
C3593 C 0.72332 0.21326 0.61938 0.0
C3594 C 0.75396 0.20669 0.6119 0.0
C3595 C 0.76162 0.21136 0.60407 0.0
C3596 C 0.76364 0.22285 0.60377 0.0
C3597 C 0.75754 0.22952 0.6113 0.0
C3598 C 0.74983 0.22483 0.61909 0.0
H3599 H 0.71408 0.21067 0.61939 0.0
H3600 H 0.72503 0.22239 0.62089 0.0
H3601 H 0.72687 0.21068 0.61094 0.0
H3602 H 0.75269 0.19784 0.61208 0.0
H3603 H 0.76603 0.20595 0.5983 0.0
H3604 H 0.31702 0.18497 0.64174 0.0
H3605 H 0.30911 0.18982 0.62499 0.0
H3606 H 0.31768 0.16017 0.60598 0.0
H3607 H 0.32608 0.15554 0.62263 0.0
H3608 H 0.32241 0.1766 0.59393 0.0
H3609 H 0.27955 0.17735 0.61191 0.0
H3610 H 0.28958 0.18676 0.62026 0.0
H3611 H 0.29013 0.17217 0.61897 0.0
C3612 C 0.31718 0.17946 0.634 0.0
C3613 C 0.32209 0.16983 0.63352 0.0
C3614 C 0.31258 0.1822 0.62444 0.0
C3615 C 0.31252 0.17521 0.61427 0.0
C3616 C 0.31755 0.16565 0.61374 0.0
H3617 H 0.2701 0.18703 0.56156 0.0
H3618 H 0.2787 0.17814 0.5752 0.0
C3619 C 0.32234 0.16301 0.62326 0.0
C3620 C 0.30744 0.17805 0.60416 0.0
H3621 H 0.28397 0.18619 0.59521 0.0
C3622 C 0.31395 0.17857 0.59417 0.0
C3623 C 0.29631 0.18038 0.60435 0.0
C3624 C 0.28846 0.17901 0.61442 0.0
C3625 C 0.30979 0.18173 0.5845 0.0
C3626 C 0.29896 0.18484 0.58496 0.0
C3627 C 0.29233 0.18395 0.59485 0.0
C3628 C 0.29439 0.18935 0.5755 0.0
C3629 C 0.31702 0.18154 0.5739 0.0
C3630 C 0.30041 0.19849 0.57087 0.0
C3631 C 0.29564 0.20341 0.56277 0.0
C3632 C 0.28459 0.19952 0.55933 0.0
C3633 C 0.27868 0.19019 0.5638 0.0
C3634 C 0.28355 0.18515 0.57174 0.0
H3635 H 0.3228 0.17535 0.57368 0.0
H3636 H 0.31188 0.17963 0.56627 0.0
H3637 H 0.32225 0.18974 0.57364 0.0
H3638 H 0.30867 0.20209 0.57379 0.0
H3639 H 0.30055 0.21044 0.55941 0.0
H3640 H 0.37049 0.81745 0.68405 0.0
H3641 H 0.3594 0.80576 0.66935 0.0
H3642 H 0.36918 0.83017 0.64655 0.0
H3643 H 0.38034 0.84188 0.66113 0.0
H3644 H 0.34142 0.81263 0.65989 0.0
H3645 H 0.37259 0.80116 0.6269 0.0
H3646 H 0.37636 0.80614 0.64122 0.0
H3647 H 0.37425 0.81567 0.63162 0.0
C3648 C 0.3705 0.82024 0.67584 0.0
C3649 C 0.37627 0.83064 0.67379 0.0
C3650 C 0.36414 0.81354 0.66745 0.0
C3651 C 0.36354 0.81706 0.65683 0.0
C3652 C 0.36969 0.8272 0.65461 0.0
H3653 H 0.3108 0.80396 0.60951 0.0
H3654 H 0.32526 0.8116 0.6231 0.0
C3655 C 0.37602 0.83392 0.66299 0.0
C3656 C 0.35553 0.81076 0.64853 0.0
H3657 H 0.35344 0.79861 0.6214 0.0
C3658 C 0.34406 0.80945 0.65152 0.0
C3659 C 0.359 0.80658 0.63764 0.0
C3660 C 0.37123 0.80735 0.63416 0.0
C3661 C 0.33594 0.80441 0.64377 0.0
C3662 C 0.33937 0.80067 0.63274 0.0
C3663 C 0.35085 0.8016 0.62985 0.0
C3664 C 0.33107 0.79607 0.62404 0.0
C3665 C 0.32371 0.8032 0.64741 0.0
C3666 C 0.32975 0.78485 0.6199 0.0
C3667 C 0.3214 0.78042 0.6122 0.0
C3668 C 0.3143 0.78716 0.60846 0.0
C3669 C 0.31595 0.79849 0.61238 0.0
C3670 C 0.32424 0.80288 0.6201 0.0
H3671 H 0.32261 0.80424 0.65671 0.0
H3672 H 0.31975 0.80959 0.64403 0.0
H3673 H 0.31922 0.795 0.64406 0.0
H3674 H 0.33496 0.77948 0.62286 0.0
H3675 H 0.32031 0.77166 0.60944 0.0
H3676 H 0.76562 0.80962 0.66085 0.0
H3677 H 0.76356 0.80408 0.64063 0.0
H3678 H 0.79572 0.82324 0.63414 0.0
H3679 H 0.79787 0.82884 0.65427 0.0
H3680 H 0.77701 0.82497 0.61921 0.0
H3681 H 0.78373 0.78209 0.62357 0.0
H3682 H 0.77319 0.7878 0.63251 0.0
H3683 H 0.7877 0.79342 0.63432 0.0
C3684 C 0.77222 0.81272 0.65511 0.0
C3685 C 0.78196 0.81959 0.65916 0.0
C3686 C 0.77102 0.80955 0.64358 0.0
C3687 C 0.77952 0.81322 0.63595 0.0
C3688 C 0.78907 0.82035 0.63993 0.0
H3689 H 0.8044 0.80488 0.56928 0.0
H3690 H 0.79756 0.81224 0.58765 0.0
C3691 C 0.7903 0.82349 0.65143 0.0
C3692 C 0.77892 0.80911 0.62388 0.0
H3693 H 0.78252 0.78665 0.60537 0.0
C3694 C 0.77805 0.81656 0.61614 0.0
C3695 C 0.7802 0.79812 0.61997 0.0
C3696 C 0.78132 0.78986 0.62797 0.0
C3697 C 0.77877 0.81335 0.60452 0.0
C3698 C 0.78069 0.80252 0.60061 0.0
C3699 C 0.78103 0.79495 0.60837 0.0
C3700 C 0.78355 0.79909 0.58868 0.0
C3701 C 0.77757 0.82163 0.59658 0.0
C3702 C 0.77794 0.78926 0.58309 0.0
C3703 C 0.78199 0.7849 0.57267 0.0
C3704 C 0.79176 0.79028 0.56766 0.0
C3705 C 0.79695 0.80046 0.57297 0.0
C3706 C 0.79294 0.80477 0.58342 0.0
H3707 H 0.77216 0.82768 0.60038 0.0
H3708 H 0.78596 0.8263 0.5948 0.0
H3709 H 0.77397 0.81755 0.58851 0.0
H3710 H 0.77072 0.78469 0.58703 0.0
H3711 H 0.77786 0.77698 0.5689 0.0
H3712 H 0.72909 0.82116 0.36753 0.0
H3713 H 0.74147 0.81511 0.38032 0.0
H3714 H 0.7228 0.8286 0.40877 0.0
H3715 H 0.71039 0.83478 0.39607 0.0
H3716 H 0.75369 0.83095 0.40056 0.0
H3717 H 0.72447 0.79368 0.41086 0.0
H3718 H 0.72389 0.79923 0.39768 0.0
H3719 H 0.71913 0.80645 0.41042 0.0
C3720 C 0.72761 0.82286 0.37651 0.0
C3721 C 0.71875 0.82844 0.38079 0.0
C3722 C 0.73469 0.81941 0.38378 0.0
C3723 C 0.73297 0.82138 0.39543 0.0
C3724 C 0.72419 0.82698 0.39978 0.0
H3725 H 0.76737 0.7968 0.44765 0.0
H3726 H 0.75403 0.80516 0.43789 0.0
C3727 C 0.71714 0.83052 0.39251 0.0
C3728 C 0.74043 0.8176 0.40303 0.0
H3729 H 0.74232 0.7968 0.41875 0.0
C3730 C 0.75122 0.82353 0.40461 0.0
C3731 C 0.73706 0.80799 0.40834 0.0
C3732 C 0.72552 0.80139 0.40678 0.0
C3733 C 0.75886 0.81998 0.41129 0.0
C3734 C 0.75568 0.8101 0.41624 0.0
C3735 C 0.74475 0.80435 0.41491 0.0
C3736 C 0.76377 0.80526 0.42228 0.0
C3737 C 0.77026 0.82688 0.41299 0.0
C3738 C 0.77353 0.8024 0.41667 0.0
C3739 C 0.78112 0.79766 0.4222 0.0
C3740 C 0.77905 0.79558 0.43343 0.0
C3741 C 0.76917 0.79829 0.43899 0.0
C3742 C 0.76158 0.80309 0.43345 0.0
H3743 H 0.77009 0.83562 0.41178 0.0
H3744 H 0.77332 0.82659 0.42152 0.0
H3745 H 0.77633 0.82364 0.40672 0.0
H3746 H 0.77522 0.80369 0.40795 0.0
H3747 H 0.78852 0.79542 0.4176 0.0
H3748 H 0.71804 0.19021 0.38849 0.0
H3749 H 0.73165 0.19681 0.40326 0.0
H3750 H 0.70558 0.20869 0.42496 0.0
H3751 H 0.69193 0.20212 0.41031 0.0
H3752 H 0.73668 0.21929 0.41343 0.0
H3753 H 0.72105 0.19048 0.44472 0.0
H3754 H 0.71744 0.1877 0.43009 0.0
H3755 H 0.71055 0.19721 0.43944 0.0
C3756 C 0.71517 0.19413 0.39644 0.0
C3757 C 0.70388 0.19562 0.39822 0.0
C3758 C 0.72296 0.19791 0.40486 0.0
C3759 C 0.71958 0.20312 0.41523 0.0
C3760 C 0.70831 0.20452 0.41707 0.0
H3761 H 0.7519 0.23586 0.47577 0.0
H3762 H 0.73874 0.22724 0.4612 0.0
C3763 C 0.70054 0.20081 0.40866 0.0
C3764 C 0.72792 0.20762 0.42393 0.0
H3765 H 0.73478 0.20574 0.45084 0.0
C3766 C 0.73634 0.21628 0.42158 0.0
C3767 C 0.72737 0.20371 0.43456 0.0
C3768 C 0.71868 0.1942 0.43737 0.0
C3769 C 0.7441 0.22134 0.4297 0.0
C3770 C 0.74356 0.21744 0.44036 0.0
C3771 C 0.73517 0.20871 0.44267 0.0
C3772 C 0.75156 0.2224 0.44926 0.0
C3773 C 0.75258 0.23103 0.4269 0.0
C3774 C 0.76312 0.22236 0.44745 0.0
C3775 C 0.77067 0.22738 0.4557 0.0
C3776 C 0.7668 0.23244 0.46599 0.0
C3777 C 0.75518 0.2322 0.46788 0.0
C3778 C 0.74764 0.2272 0.4596 0.0
H3779 H 0.74997 0.23481 0.4197 0.0
H3780 H 0.75385 0.23747 0.43424 0.0
H3781 H 0.76074 0.22819 0.42457 0.0
H3782 H 0.76631 0.21851 0.43962 0.0
H3783 H 0.77955 0.2275 0.45389 0.0
H3784 H 0.33153 0.22451 0.33551 0.0
H3785 H 0.323 0.22629 0.35443 0.0
H3786 H 0.34735 0.20855 0.36612 0.0
H3787 H 0.35613 0.207 0.3473 0.0
H3788 H 0.32322 0.20246 0.37373 0.0
H3789 H 0.34034 0.24711 0.3807 0.0
H3790 H 0.33302 0.24266 0.36783 0.0
H3791 H 0.34589 0.23771 0.36993 0.0
C3792 C 0.33501 0.22089 0.34208 0.0
C3793 C 0.34438 0.21544 0.33986 0.0
C3794 C 0.33013 0.22191 0.35286 0.0
C3795 C 0.33459 0.21757 0.36162 0.0
C3796 C 0.34375 0.21187 0.35941 0.0
H3797 H 0.31977 0.23871 0.43191 0.0
H3798 H 0.32945 0.23236 0.41452 0.0
C3799 C 0.34867 0.21087 0.34862 0.0
C3800 C 0.33003 0.21955 0.3732 0.0
H3801 H 0.32705 0.24017 0.39424 0.0
C3802 C 0.3241 0.21067 0.37828 0.0
C3803 C 0.33138 0.23026 0.37912 0.0
C3804 C 0.33808 0.23999 0.37419 0.0
C3805 C 0.31912 0.21231 0.38905 0.0
C3806 C 0.32005 0.22311 0.39477 0.0
C3807 C 0.32631 0.23191 0.38981 0.0
C3808 C 0.31423 0.22564 0.40568 0.0
C3809 C 0.3129 0.2025 0.39422 0.0
C3810 C 0.30247 0.22387 0.40649 0.0
C3811 C 0.29692 0.22755 0.41638 0.0
C3812 C 0.30304 0.23313 0.42561 0.0
C3813 C 0.31483 0.23456 0.42489 0.0
C3814 C 0.32037 0.23088 0.415 0.0
H3815 H 0.31559 0.19468 0.3903 0.0
H3816 H 0.31421 0.20335 0.40341 0.0
H3817 H 0.30379 0.20194 0.39289 0.0
H3818 H 0.29757 0.22007 0.39931 0.0
H3819 H 0.28784 0.22648 0.41659 0.0
H3820 H 0.35613 0.82619 0.39467 0.0
H3821 H 0.34788 0.81987 0.4121 0.0
H3822 H 0.32788 0.84616 0.41614 0.0
H3823 H 0.33602 0.8525 0.3985 0.0
H3824 H 0.34816 0.83106 0.43378 0.0
H3825 H 0.30453 0.81857 0.41881 0.0
H3826 H 0.31637 0.82145 0.4093 0.0
H3827 H 0.31079 0.83257 0.41758 0.0
C3828 C 0.34997 0.83065 0.39923 0.0
C3829 C 0.34669 0.83983 0.39515 0.0
C3830 C 0.34528 0.82703 0.40922 0.0
C3831 C 0.33717 0.83245 0.41536 0.0
C3832 C 0.33398 0.84173 0.41143 0.0
H3833 H 0.3004 0.8093 0.47544 0.0
H3834 H 0.30781 0.82133 0.46114 0.0
C3835 C 0.33868 0.84538 0.40139 0.0
C3836 C 0.33217 0.82825 0.42583 0.0
H3837 H 0.30794 0.81521 0.43712 0.0
C3838 C 0.33934 0.8277 0.43456 0.0
C3839 C 0.32065 0.82393 0.42686 0.0
C3840 C 0.31261 0.82405 0.41763 0.0
C3841 C 0.33538 0.82263 0.44412 0.0
C3842 C 0.32398 0.81786 0.44492 0.0
C3843 C 0.31669 0.81887 0.43646 0.0
C3844 C 0.31974 0.81092 0.4539 0.0
C3845 C 0.34347 0.82224 0.45322 0.0
C3846 C 0.32392 0.80105 0.45449 0.0
C3847 C 0.31965 0.79412 0.46252 0.0
C3848 C 0.31108 0.7969 0.4702 0.0
C3849 C 0.30693 0.80685 0.46963 0.0
C3850 C 0.31119 0.81376 0.4615 0.0
H3851 H 0.35084 0.82885 0.45299 0.0
H3852 H 0.33931 0.82309 0.46167 0.0
H3853 H 0.34658 0.81418 0.45196 0.0
H3854 H 0.33034 0.79857 0.44853 0.0
H3855 H 0.32286 0.78641 0.46248 0.0
H3856 H 0.64325 0.18508 0.71947 0.0
H3857 H 0.62629 0.19159 0.72805 0.0
H3858 H 0.62114 0.20544 0.69774 0.0
H3859 H 0.63782 0.1988 0.68908 0.0
H3860 H 0.62252 0.21247 0.73258 0.0
H3861 H 0.59002 0.18996 0.70394 0.0
H3862 H 0.60388 0.18621 0.70402 0.0
H3863 H 0.60135 0.19711 0.69623 0.0
C3864 C 0.6384 0.18937 0.71458 0.0
C3865 C 0.64189 0.1914 0.70358 0.0
C3866 C 0.62871 0.19309 0.7195 0.0
C3867 C 0.62231 0.19883 0.71347 0.0
C3868 C 0.62573 0.20076 0.70246 0.0
H3869 H 0.58522 0.25061 0.73456 0.0
H3870 H 0.59876 0.23817 0.72904 0.0
C3871 C 0.63536 0.19703 0.69754 0.0
C3872 C 0.6126 0.20367 0.71891 0.0
H3873 H 0.5856 0.20684 0.71451 0.0
C3874 C 0.61438 0.21108 0.72874 0.0
C3875 C 0.6019 0.20172 0.71406 0.0
C3876 C 0.59914 0.19322 0.70405 0.0
C3877 C 0.606 0.21709 0.73341 0.0
C3878 C 0.59565 0.21587 0.72796 0.0
C3879 C 0.5936 0.20793 0.71857 0.0
C3880 C 0.58723 0.2233 0.73136 0.0
C3881 C 0.6084 0.22482 0.74405 0.0
C3882 C 0.57609 0.21907 0.73411 0.0
C3883 C 0.56819 0.2262 0.73707 0.0
C3884 C 0.57129 0.23768 0.73722 0.0
C3885 C 0.58245 0.24183 0.73437 0.0
C3886 C 0.59029 0.23472 0.73139 0.0
H3887 H 0.61466 0.22205 0.74913 0.0
H3888 H 0.61196 0.23315 0.74184 0.0
H3889 H 0.60066 0.22549 0.74929 0.0
H3890 H 0.57352 0.21027 0.73402 0.0
H3891 H 0.55965 0.22272 0.73911 0.0
H3892 H 0.32974 0.11457 0.66897 0.0
H3893 H 0.31863 0.09891 0.67702 0.0
H3894 H 0.30644 0.12122 0.70358 0.0
H3895 H 0.3173 0.13687 0.69553 0.0
H3896 H 0.32103 0.0929 0.69775 0.0
H3897 H 0.27776 0.1013 0.69422 0.0
H3898 H 0.28952 0.10806 0.68653 0.0
H3899 H 0.28665 0.11303 0.70096 0.0
C3900 C 0.32455 0.11615 0.67642 0.0
C3901 C 0.32441 0.12698 0.68161 0.0
C3902 C 0.31822 0.10719 0.68101 0.0
C3903 C 0.31158 0.1089 0.6908 0.0
C3904 C 0.31128 0.11971 0.69586 0.0
H3905 H 0.27985 0.07572 0.74408 0.0
H3906 H 0.28802 0.08814 0.73051 0.0
C3907 C 0.31757 0.12865 0.69128 0.0
C3908 C 0.30569 0.09942 0.69632 0.0
H3909 H 0.28042 0.08922 0.70789 0.0
C3910 C 0.31211 0.09195 0.69978 0.0
C3911 C 0.29405 0.09819 0.69893 0.0
C3912 C 0.28658 0.10551 0.69486 0.0
C3913 C 0.30731 0.08367 0.70634 0.0
C3914 C 0.29578 0.0828 0.7094 0.0
C3915 C 0.28927 0.08996 0.70556 0.0
C3916 C 0.29055 0.07509 0.71734 0.0
C3917 C 0.31469 0.07627 0.71042 0.0
C3918 C 0.28917 0.06363 0.71436 0.0
C3919 C 0.28452 0.05649 0.72213 0.0
C3920 C 0.28124 0.06071 0.733 0.0
C3921 C 0.28248 0.07221 0.73585 0.0
C3922 C 0.28706 0.07932 0.72808 0.0
H3923 H 0.32373 0.07907 0.70866 0.0
H3924 H 0.31335 0.07594 0.7196 0.0
H3925 H 0.31244 0.06778 0.70615 0.0
H3926 H 0.29172 0.06023 0.70606 0.0
H3927 H 0.28369 0.04767 0.71971 0.0
H3928 H 0.40955 0.82848 0.7335 0.0
H3929 H 0.42641 0.82491 0.74205 0.0
H3930 H 0.44695 0.84696 0.72154 0.0
H3931 H 0.43013 0.85048 0.71282 0.0
H3932 H 0.45546 0.82724 0.72278 0.0
H3933 H 0.44468 0.84704 0.76508 0.0
H3934 H 0.43385 0.83644 0.75934 0.0
H3935 H 0.43765 0.84877 0.75261 0.0
C3936 C 0.41765 0.83255 0.73077 0.0
C3937 C 0.41849 0.83983 0.72253 0.0
C3938 C 0.42727 0.83054 0.73571 0.0
C3939 C 0.43791 0.83582 0.73257 0.0
C3940 C 0.43881 0.84285 0.72413 0.0
H3941 H 0.4964 0.83917 0.77341 0.0
H3942 H 0.4822 0.84386 0.76169 0.0
C3943 C 0.42919 0.84486 0.71917 0.0
C3944 C 0.44806 0.83409 0.7382 0.0
H3945 H 0.45984 0.83675 0.76389 0.0
C3946 C 0.45647 0.82937 0.73176 0.0
C3947 C 0.44943 0.83705 0.74988 0.0
C3948 C 0.44098 0.84271 0.75713 0.0
C3949 C 0.46609 0.82725 0.73675 0.0
C3950 C 0.46722 0.82977 0.74851 0.0
C3951 C 0.45894 0.83476 0.75488 0.0
C3952 C 0.47673 0.82706 0.7545 0.0
C3953 C 0.47498 0.8224 0.72938 0.0
C3954 C 0.47848 0.81607 0.75423 0.0
C3955 C 0.4866 0.81337 0.76091 0.0
C3956 C 0.49304 0.82159 0.76808 0.0
C3957 C 0.49151 0.83264 0.76805 0.0
C3958 C 0.48342 0.83533 0.76134 0.0
H3959 H 0.47454 0.82403 0.72052 0.0
H3960 H 0.48351 0.82577 0.73244 0.0
H3961 H 0.47367 0.81333 0.72952 0.0
H3962 H 0.47325 0.80951 0.74924 0.0
H3963 H 0.48742 0.80476 0.76089 0.0
H3964 H 0.75105 0.85321 0.70294 0.0
H3965 H 0.7457 0.87082 0.71129 0.0
H3966 H 0.77958 0.8818 0.72212 0.0
H3967 H 0.78486 0.86407 0.71424 0.0
H3968 H 0.74868 0.87991 0.73524 0.0
H3969 H 0.77104 0.90708 0.70518 0.0
H3970 H 0.76727 0.89235 0.70169 0.0
H3971 H 0.77932 0.89778 0.71001 0.0
C3972 C 0.75728 0.85925 0.70735 0.0
C3973 C 0.76828 0.85711 0.70829 0.0
C3974 C 0.75426 0.86938 0.71193 0.0
C3975 C 0.76227 0.87758 0.71725 0.0
C3976 C 0.77332 0.87559 0.71792 0.0
H3977 H 0.76936 0.93055 0.76706 0.0
H3978 H 0.76742 0.91319 0.75465 0.0
C3979 C 0.77631 0.86545 0.71345 0.0
C3980 C 0.75906 0.88805 0.72273 0.0
H3981 H 0.76578 0.91594 0.72316 0.0
C3982 C 0.7522 0.88779 0.73248 0.0
C3983 C 0.7636 0.89828 0.71902 0.0
C3984 C 0.77064 0.89894 0.70834 0.0
C3985 C 0.75042 0.89757 0.73908 0.0
C3986 C 0.75562 0.90778 0.7358 0.0
C3987 C 0.76183 0.90806 0.72564 0.0
C3988 C 0.75601 0.91807 0.74352 0.0
C3989 C 0.74341 0.89695 0.74979 0.0
C3990 C 0.75021 0.92653 0.74131 0.0
C3991 C 0.75124 0.93647 0.74846 0.0
C3992 C 0.75828 0.93809 0.75772 0.0
C3993 C 0.76397 0.92954 0.75991 0.0
C3994 C 0.76282 0.91961 0.75289 0.0
H3995 H 0.73794 0.88884 0.74983 0.0
H3996 H 0.74904 0.8981 0.75703 0.0
H3997 H 0.73809 0.90359 0.75098 0.0
H3998 H 0.74497 0.92547 0.73405 0.0
H3999 H 0.74681 0.94297 0.7466 0.0
H4000 H 0.6331 0.85055 0.3453 0.0
H4001 H 0.61512 0.83916 0.34054 0.0
H4002 H 0.62446 0.83803 0.30534 0.0
H4003 H 0.64242 0.84946 0.30997 0.0
H4004 H 0.60118 0.84058 0.31094 0.0
H4005 H 0.6153 0.8059 0.32924 0.0
H4006 H 0.61566 0.81871 0.33821 0.0
H4007 H 0.62489 0.81793 0.32606 0.0
C4008 C 0.63127 0.84804 0.33653 0.0
C4009 C 0.63926 0.85079 0.32802 0.0
C4010 C 0.621 0.8415 0.33384 0.0
C4011 C 0.61857 0.83763 0.32261 0.0
C4012 C 0.62622 0.84092 0.31406 0.0
H4013 H 0.58091 0.78175 0.28743 0.0
H4014 H 0.5945 0.79655 0.29652 0.0
C4015 C 0.63649 0.84743 0.31674 0.0
C4016 C 0.60853 0.82942 0.31973 0.0
H4017 H 0.59786 0.80228 0.32059 0.0
C4018 C 0.60033 0.83224 0.31317 0.0
C4019 C 0.60757 0.81854 0.3226 0.0
C4020 C 0.61634 0.815 0.32935 0.0
C4021 C 0.5913 0.82435 0.30916 0.0
C4022 C 0.59049 0.81343 0.31183 0.0
C4023 C 0.59851 0.8107 0.31864 0.0
C4024 C 0.58208 0.80445 0.30667 0.0
C4025 C 0.58298 0.8276 0.30167 0.0
C4026 C 0.57062 0.80394 0.30951 0.0
C4027 C 0.56281 0.79547 0.3043 0.0
C4028 C 0.56638 0.78745 0.29617 0.0
C4029 C 0.5779 0.78791 0.29353 0.0
C4030 C 0.58567 0.79631 0.29876 0.0
H4031 H 0.58559 0.83605 0.29929 0.0
H4032 H 0.58193 0.82169 0.2939 0.0
H4033 H 0.5747 0.8273 0.30612 0.0
H4034 H 0.56773 0.8101 0.31569 0.0
H4035 H 0.55398 0.79532 0.30646 0.0
H4036 H 0.70039 0.15902 0.33051 0.0
H4037 H 0.70761 0.14322 0.32004 0.0
H4038 H 0.70206 0.12576 0.34932 0.0
H4039 H 0.69435 0.14132 0.35963 0.0
H4040 H 0.72522 0.13469 0.32321 0.0
H4041 H 0.68869 0.10206 0.32632 0.0
H4042 H 0.68779 0.11645 0.33029 0.0
H4043 H 0.69298 0.10848 0.33997 0.0
C4044 C 0.70058 0.15176 0.33467 0.0
C4045 C 0.69675 0.15139 0.34587 0.0
C4046 C 0.70472 0.14273 0.32868 0.0
C4047 C 0.7052 0.13319 0.3338 0.0
C4048 C 0.70144 0.13285 0.34503 0.0
H4049 H 0.7516 0.0876 0.31253 0.0
H4050 H 0.74161 0.10193 0.32186 0.0
C4051 C 0.69712 0.1418 0.35096 0.0
C4052 C 0.71028 0.1239 0.32763 0.0
H4053 H 0.70631 0.09591 0.32104 0.0
C4054 C 0.72102 0.12622 0.32265 0.0
C4055 C 0.70476 0.11285 0.32669 0.0
C4056 C 0.69287 0.10983 0.331 0.0
C4057 C 0.72648 0.11783 0.31702 0.0
C4058 C 0.72126 0.10671 0.31673 0.0
C4059 C 0.7104 0.1044 0.32143 0.0
C4060 C 0.72695 0.09741 0.3116 0.0
C4061 C 0.73771 0.12103 0.31128 0.0
C4062 C 0.72179 0.08964 0.30315 0.0
C4063 C 0.72734 0.08114 0.29802 0.0
C4064 C 0.73823 0.08025 0.30117 0.0
C4065 C 0.74321 0.08787 0.3099 0.0
C4066 C 0.73757 0.09625 0.31514 0.0
H4067 H 0.7387 0.12961 0.30909 0.0
H4068 H 0.74449 0.12062 0.31708 0.0
H4069 H 0.73882 0.11541 0.30349 0.0
H4070 H 0.71352 0.09027 0.30038 0.0
H4071 H 0.72312 0.07531 0.29152 0.0
H4072 H 0.38935 0.2546 0.30916 0.0
H4073 H 0.40854 0.26363 0.31263 0.0
H4074 H 0.41894 0.23205 0.31417 0.0
H4075 H 0.39967 0.2229 0.31087 0.0
H4076 H 0.42757 0.24828 0.33135 0.0
H4077 H 0.43448 0.26324 0.2895 0.0
H4078 H 0.42219 0.26722 0.29686 0.0
H4079 H 0.42287 0.25286 0.29262 0.0
C4080 C 0.39571 0.24955 0.3102 0.0
C4081 C 0.39301 0.23803 0.30965 0.0
C4082 C 0.40668 0.25473 0.31216 0.0
C4083 C 0.41517 0.24848 0.31348 0.0
C4084 C 0.4125 0.23699 0.31312 0.0
H4085 H 0.48455 0.27864 0.30793 0.0
H4086 H 0.46749 0.26526 0.30658 0.0
C4087 C 0.4015 0.2318 0.3112 0.0
C4088 C 0.42685 0.25401 0.31519 0.0
H4089 H 0.4478 0.27112 0.30338 0.0
C4090 C 0.43207 0.25319 0.32521 0.0
C4091 C 0.43273 0.26025 0.30707 0.0
C4092 C 0.42784 0.26087 0.29586 0.0
C4093 C 0.44291 0.2588 0.32749 0.0
C4094 C 0.44856 0.26551 0.31962 0.0
C4095 C 0.44345 0.26602 0.30946 0.0
C4096 C 0.45964 0.27236 0.32172 0.0
C4097 C 0.44823 0.25744 0.33826 0.0
C4098 C 0.46105 0.28062 0.3309 0.0
C4099 C 0.47095 0.2882 0.33184 0.0
C4100 C 0.47953 0.28777 0.32352 0.0
C4101 C 0.47825 0.27916 0.31462 0.0
C4102 C 0.46843 0.27154 0.31376 0.0
H4103 H 0.44452 0.24959 0.34152 0.0
H4104 H 0.45743 0.25759 0.33707 0.0
H4105 H 0.44674 0.26432 0.34474 0.0
H4106 H 0.45431 0.28154 0.33705 0.0
H4107 H 0.4717 0.29463 0.33888 0.0
H4108 H 0.36197 0.91284 0.34805 0.0
H4109 H 0.35292 0.92635 0.33992 0.0
H4110 H 0.32391 0.90175 0.33264 0.0
H4111 H 0.33282 0.88823 0.34081 0.0
H4112 H 0.3451 0.92534 0.31796 0.0
H4113 H 0.31048 0.92772 0.34975 0.0
H4114 H 0.32281 0.9218 0.35206 0.0
H4115 H 0.31166 0.91389 0.34376 0.0
C4116 C 0.35364 0.91031 0.34476 0.0
C4117 C 0.34809 0.89946 0.34513 0.0
C4118 C 0.34849 0.91805 0.34011 0.0
C4119 C 0.33767 0.91511 0.33585 0.0
C4120 C 0.33217 0.90426 0.3361 0.0
H4121 H 0.29032 0.94083 0.30014 0.0
H4122 H 0.30112 0.93063 0.31062 0.0
C4123 C 0.33731 0.89652 0.34072 0.0
C4124 C 0.3322 0.92325 0.33086 0.0
H4125 H 0.30858 0.93544 0.33278 0.0
C4126 C 0.33719 0.92768 0.32127 0.0
C4127 C 0.32191 0.92631 0.33523 0.0
C4128 C 0.31644 0.92227 0.34583 0.0
C4129 C 0.33188 0.93467 0.31562 0.0
C4130 C 0.3214 0.93744 0.31979 0.0
C4131 C 0.3166 0.93329 0.32958 0.0
C4132 C 0.31489 0.94398 0.31371 0.0
C4133 C 0.33727 0.93864 0.30495 0.0
C4134 C 0.31897 0.95497 0.31208 0.0
C4135 C 0.31275 0.96091 0.30612 0.0
C4136 C 0.3023 0.95597 0.30176 0.0
C4137 C 0.29822 0.94499 0.30356 0.0
C4138 C 0.30442 0.9391 0.30949 0.0
H4139 H 0.34416 0.93403 0.30169 0.0
H4140 H 0.33097 0.93781 0.29833 0.0
H4141 H 0.34084 0.9475 0.30666 0.0
H4142 H 0.32695 0.95896 0.31544 0.0
H4143 H 0.31609 0.96936 0.30498 0.0
H4144 H 0.69567 0.12477 0.69599 0.0
H4145 H 0.70439 0.11103 0.70409 0.0
H4146 H 0.71358 0.13452 0.73302 0.0
H4147 H 0.7049 0.14832 0.725 0.0
H4148 H 0.72755 0.1132 0.71088 0.0
H4149 H 0.69677 0.10656 0.74621 0.0
H4150 H 0.69371 0.11275 0.73405 0.0
H4151 H 0.70236 0.12071 0.74484 0.0
C4152 C 0.69952 0.12702 0.70409 0.0
C4153 C 0.69955 0.13764 0.70986 0.0
C4154 C 0.7045 0.11915 0.7087 0.0
C4155 C 0.7095 0.12172 0.71921 0.0
C4156 C 0.70961 0.13232 0.72497 0.0
H4157 H 0.74439 0.08858 0.76272 0.0
H4158 H 0.73434 0.10093 0.75406 0.0
C4159 C 0.70469 0.14021 0.72034 0.0
C4160 C 0.71484 0.1134 0.72405 0.0
H4161 H 0.7132 0.09829 0.74623 0.0
C4162 C 0.72439 0.10987 0.71856 0.0
C4163 C 0.7107 0.10911 0.73409 0.0
C4164 C 0.70027 0.11238 0.74012 0.0
C4165 C 0.73011 0.10238 0.72303 0.0
C4166 C 0.72598 0.0981 0.7331 0.0
C4167 C 0.71635 0.10156 0.73851 0.0
C4168 C 0.73174 0.09031 0.73838 0.0
C4169 C 0.74073 0.09945 0.71711 0.0
C4170 C 0.73343 0.08011 0.73253 0.0
C4171 C 0.73921 0.07302 0.73746 0.0
C4172 C 0.74326 0.07593 0.7484 0.0
C4173 C 0.74127 0.08602 0.75434 0.0
C4174 C 0.73557 0.09312 0.74938 0.0
H4175 H 0.74433 0.10558 0.71137 0.0
H4176 H 0.74717 0.0989 0.72325 0.0
H4177 H 0.73883 0.09131 0.712 0.0
H4178 H 0.7303 0.07763 0.72415 0.0
H4179 H 0.74048 0.06525 0.73273 0.0
H4180 H 0.68564 0.8779 0.34638 0.0
H4181 H 0.69133 0.89349 0.33556 0.0
H4182 H 0.72129 0.88015 0.3239 0.0
H4183 H 0.7156 0.86448 0.33457 0.0
H4184 H 0.72511 0.90267 0.33178 0.0
H4185 H 0.69081 0.8928 0.3011 0.0
H4186 H 0.68639 0.89364 0.31566 0.0
H4187 H 0.69413 0.8829 0.30983 0.0
C4188 C 0.6933 0.87814 0.34132 0.0
C4189 C 0.70003 0.86981 0.34112 0.0
C4190 C 0.69658 0.8871 0.3352 0.0
C4191 C 0.70663 0.88787 0.32878 0.0
C4192 C 0.71347 0.87968 0.32875 0.0
H4193 H 0.73202 0.92592 0.2754 0.0
H4194 H 0.72401 0.91188 0.28736 0.0
C4195 C 0.7102 0.87074 0.33486 0.0
C4196 C 0.7102 0.89727 0.32222 0.0
H4197 H 0.70337 0.90933 0.29987 0.0
C4198 C 0.72034 0.90418 0.32484 0.0
C4199 C 0.70399 0.89912 0.3131 0.0
C4200 C 0.69327 0.89169 0.30966 0.0
C4201 C 0.72449 0.91286 0.31854 0.0
C4202 C 0.71824 0.91476 0.30948 0.0
C4203 C 0.70807 0.9079 0.30689 0.0
C4204 C 0.72247 0.92344 0.3022 0.0
C4205 C 0.7357 0.9197 0.3214 0.0
C4206 C 0.72404 0.93462 0.30654 0.0
C4207 C 0.72857 0.9427 0.2997 0.0
C4208 C 0.73155 0.93973 0.28838 0.0
C4209 C 0.72968 0.92852 0.28402 0.0
C4210 C 0.72516 0.92047 0.29086 0.0
H4211 H 0.74047 0.91575 0.32704 0.0
H4212 H 0.74087 0.9211 0.31366 0.0
H4213 H 0.73433 0.92786 0.32575 0.0
H4214 H 0.72183 0.93709 0.31523 0.0
H4215 H 0.72973 0.95127 0.30327 0.0
H4216 H 0.6446 0.20206 0.35688 0.0
H4217 H 0.6322 0.2127 0.34862 0.0
H4218 H 0.65541 0.2425 0.35718 0.0
H4219 H 0.66785 0.23201 0.36524 0.0
H4220 H 0.62178 0.22965 0.35903 0.0
H4221 H 0.64978 0.24428 0.32442 0.0
H4222 H 0.65236 0.23317 0.33194 0.0
H4223 H 0.65655 0.2473 0.33768 0.0
C4224 C 0.64711 0.21087 0.35688 0.0
C4225 C 0.65724 0.21618 0.36168 0.0
C4226 C 0.64001 0.21692 0.35218 0.0
C4227 C 0.64297 0.22836 0.35212 0.0
C4228 C 0.65308 0.23365 0.35688 0.0
H4229 H 0.60571 0.28128 0.35303 0.0
H4230 H 0.61439 0.26563 0.35687 0.0
C4231 C 0.66016 0.22763 0.36156 0.0
C4232 C 0.63531 0.23497 0.34764 0.0
H4233 H 0.6348 0.25469 0.3302 0.0
C4234 C 0.62455 0.235 0.35259 0.0
C4235 C 0.63883 0.24179 0.3391 0.0
C4236 C 0.64997 0.24155 0.33289 0.0
C4237 C 0.61746 0.24214 0.34968 0.0
C4238 C 0.62135 0.24959 0.34178 0.0
C4239 C 0.63186 0.24909 0.33637 0.0
C4240 C 0.61505 0.25844 0.3395 0.0
C4241 C 0.60593 0.2417 0.35518 0.0
C4242 C 0.61263 0.25971 0.32845 0.0
C4243 C 0.60786 0.26879 0.32619 0.0
C4244 C 0.60544 0.27681 0.33496 0.0
C4245 C 0.60756 0.27532 0.34606 0.0
C4246 C 0.61238 0.26628 0.3483 0.0
H4247 H 0.60284 0.2334 0.35776 0.0
H4248 H 0.60634 0.24773 0.36287 0.0
H4249 H 0.5998 0.24379 0.34948 0.0
H4250 H 0.61471 0.25382 0.32152 0.0
H4251 H 0.60649 0.26975 0.31753 0.0
H4252 H 0.32219 0.1608 0.34524 0.0
H4253 H 0.31377 0.14177 0.33936 0.0
H4254 H 0.34459 0.13573 0.32179 0.0
H4255 H 0.35311 0.15466 0.32771 0.0
H4256 H 0.31131 0.1348 0.31682 0.0
H4257 H 0.335 0.10719 0.33587 0.0
H4258 H 0.33529 0.12153 0.34127 0.0
H4259 H 0.34391 0.11772 0.32924 0.0
C4260 C 0.32728 0.15535 0.34038 0.0
C4261 C 0.33828 0.15928 0.33683 0.0
C4262 C 0.32246 0.14447 0.33704 0.0
C4263 C 0.32858 0.13732 0.33021 0.0
C4264 C 0.33978 0.14103 0.32724 0.0
H4265 H 0.31777 0.08058 0.282 0.0
H4266 H 0.32495 0.09587 0.29595 0.0
C4267 C 0.34461 0.1519 0.33057 0.0
C4268 C 0.32282 0.12668 0.32472 0.0
H4269 H 0.32452 0.09921 0.31949 0.0
C4270 C 0.31404 0.12698 0.31757 0.0
C4271 C 0.3265 0.11653 0.32564 0.0
C4272 C 0.33563 0.11568 0.33351 0.0
C4273 C 0.30917 0.11749 0.31088 0.0
C4274 C 0.31302 0.10736 0.31158 0.0
C4275 C 0.32158 0.10699 0.319 0.0
C4276 C 0.30878 0.0973 0.30407 0.0
C4277 C 0.30037 0.11853 0.30269 0.0
C4278 C 0.29736 0.09284 0.30423 0.0
C4279 C 0.29319 0.08424 0.29614 0.0
C4280 C 0.3004 0.07985 0.28782 0.0
C4281 C 0.31194 0.08394 0.28812 0.0
C4282 C 0.31609 0.09259 0.29616 0.0
H4283 H 0.30023 0.12726 0.30141 0.0
H4284 H 0.30184 0.11381 0.29441 0.0
H4285 H 0.29198 0.11515 0.30601 0.0
H4286 H 0.29161 0.09625 0.3104 0.0
H4287 H 0.28425 0.08134 0.29614 0.0
H4288 H 0.39342 0.86497 0.33362 0.0
H4289 H 0.40608 0.8558 0.32046 0.0
H4290 H 0.38382 0.82496 0.32106 0.0
H4291 H 0.37134 0.83397 0.33446 0.0
H4292 H 0.40479 0.8223 0.32385 0.0
H4293 H 0.40379 0.84567 0.28742 0.0
H4294 H 0.40793 0.85435 0.3001 0.0
H4295 H 0.394 0.84663 0.2992 0.0
C4296 C 0.39116 0.85626 0.33085 0.0
C4297 C 0.38137 0.8502 0.3351 0.0
C4298 C 0.39838 0.85104 0.32327 0.0
C4299 C 0.39584 0.83971 0.31964 0.0
C4300 C 0.38596 0.83371 0.32373 0.0
H4301 H 0.42721 0.80197 0.26468 0.0
H4302 H 0.41508 0.81274 0.27687 0.0
C4303 C 0.37882 0.83888 0.33138 0.0
C4304 C 0.40372 0.83392 0.31209 0.0
H4305 H 0.41759 0.83377 0.28659 0.0
C4306 C 0.40755 0.82479 0.31568 0.0
C4307 C 0.40725 0.83709 0.30138 0.0
C4308 C 0.40295 0.8464 0.29673 0.0
C4309 C 0.41481 0.81877 0.30891 0.0
C4310 C 0.41864 0.82216 0.29837 0.0
C4311 C 0.41477 0.83125 0.29473 0.0
C4312 C 0.42633 0.81614 0.29082 0.0
C4313 C 0.41802 0.80865 0.31301 0.0
C4314 C 0.43681 0.81466 0.29451 0.0
C4315 C 0.44371 0.80843 0.28759 0.0
C4316 C 0.44036 0.80372 0.27678 0.0
C4317 C 0.43006 0.80556 0.27295 0.0
C4318 C 0.42311 0.81169 0.27991 0.0
H4319 H 0.41197 0.80545 0.31954 0.0
H4320 H 0.41844 0.80197 0.306 0.0
H4321 H 0.42639 0.8108 0.31681 0.0
H4322 H 0.43962 0.81827 0.30277 0.0
H4323 H 0.45168 0.80729 0.2907 0.0
H4324 H 0.38604 0.89252 0.72143 0.0
H4325 H 0.37795 0.90695 0.73353 0.0
H4326 H 0.34494 0.88806 0.72912 0.0
H4327 H 0.35291 0.8736 0.71726 0.0
H4328 H 0.3624 0.91937 0.72806 0.0
H4329 H 0.34562 0.8956 0.76293 0.0
H4330 H 0.35567 0.89087 0.75257 0.0
H4331 H 0.34096 0.88872 0.74954 0.0
C4332 C 0.37708 0.8914 0.72315 0.0
C4333 C 0.37013 0.88189 0.71842 0.0
C4334 C 0.37247 0.89965 0.73005 0.0
C4335 C 0.36087 0.89849 0.73238 0.0
C4336 C 0.35395 0.889 0.72767 0.0
H4337 H 0.30964 0.93503 0.75843 0.0
H4338 H 0.32176 0.92236 0.74916 0.0
C4339 C 0.35852 0.88077 0.72082 0.0
C4340 C 0.35582 0.90739 0.73923 0.0
H4341 H 0.33776 0.91208 0.76144 0.0
C4342 C 0.35717 0.91786 0.73548 0.0
C4343 C 0.34904 0.9054 0.74894 0.0
C4344 C 0.34783 0.89457 0.7538 0.0
C4345 C 0.35144 0.9262 0.74084 0.0
C4346 C 0.34425 0.92399 0.75019 0.0
C4347 C 0.34323 0.91369 0.7542 0.0
C4348 C 0.33715 0.93202 0.7555 0.0
C4349 C 0.3527 0.93714 0.73621 0.0
C4350 C 0.34183 0.94165 0.76211 0.0
C4351 C 0.33492 0.94894 0.76742 0.0
C4352 C 0.32322 0.94672 0.76615 0.0
C4353 C 0.31862 0.93709 0.75942 0.0
C4354 C 0.32551 0.92979 0.75419 0.0
H4355 H 0.35762 0.93711 0.72815 0.0
H4356 H 0.34431 0.93931 0.73486 0.0
H4357 H 0.35702 0.94367 0.74238 0.0
H4358 H 0.3508 0.94345 0.76328 0.0
H4359 H 0.33871 0.95631 0.77253 0.0
H4360 H 0.71493 0.84342 0.73057 0.0
H4361 H 0.69676 0.84193 0.74062 0.0
H4362 H 0.68896 0.80794 0.72646 0.0
H4363 H 0.70703 0.80938 0.71623 0.0
H4364 H 0.67109 0.82007 0.72606 0.0
H4365 H 0.68963 0.8254 0.76833 0.0
H4366 H 0.69455 0.83619 0.75974 0.0
H4367 H 0.69768 0.82251 0.75555 0.0
C4368 C 0.70934 0.83563 0.72956 0.0
C4369 C 0.71246 0.82649 0.72266 0.0
C4370 C 0.69899 0.83479 0.73535 0.0
C4371 C 0.69162 0.82478 0.73442 0.0
C4372 C 0.69457 0.81573 0.72732 0.0
H4373 H 0.63015 0.79535 0.76399 0.0
H4374 H 0.64658 0.80043 0.75204 0.0
C4375 C 0.7049 0.81656 0.7215 0.0
C4376 C 0.68089 0.82363 0.74097 0.0
H4377 H 0.66995 0.8238 0.76774 0.0
C4378 C 0.67082 0.82092 0.73517 0.0
C4379 C 0.68059 0.82478 0.75286 0.0
C4380 C 0.69118 0.82729 0.75952 0.0
C4381 C 0.66043 0.81925 0.74096 0.0
C4382 C 0.66016 0.82018 0.75283 0.0
C4383 C 0.67021 0.82314 0.75863 0.0
C4384 C 0.64963 0.81746 0.7594 0.0
C4385 C 0.64984 0.81654 0.73432 0.0
C4386 C 0.64596 0.82534 0.76758 0.0
C4387 C 0.63653 0.82247 0.77442 0.0
C4388 C 0.63067 0.81164 0.77328 0.0
C4389 C 0.63431 0.80382 0.76495 0.0
C4390 C 0.64371 0.8067 0.75811 0.0
H4391 H 0.65118 0.81923 0.72579 0.0
H4392 H 0.64716 0.80748 0.73334 0.0
H4393 H 0.64295 0.82049 0.73873 0.0
H4394 H 0.65046 0.83367 0.76873 0.0
H4395 H 0.63388 0.82871 0.78068 0.0
H4396 H 0.36057 0.19501 0.67612 0.0
H4397 H 0.37509 0.20953 0.68418 0.0
H4398 H 0.39861 0.18639 0.68147 0.0
H4399 H 0.38417 0.1718 0.67337 0.0
H4400 H 0.38628 0.20862 0.70432 0.0
H4401 H 0.41606 0.21363 0.66792 0.0
H4402 H 0.40166 0.2071 0.66638 0.0
H4403 H 0.4119 0.19968 0.67101 0.0
C4404 C 0.36887 0.19302 0.67709 0.0
C4405 C 0.3712 0.18223 0.6741 0.0
C4406 C 0.37714 0.20133 0.68171 0.0
C4407 C 0.38793 0.19905 0.68333 0.0
C4408 C 0.39038 0.18836 0.68013 0.0
H4409 H 0.43809 0.23511 0.72896 0.0
H4410 H 0.42444 0.22119 0.71866 0.0
C4411 C 0.3821 0.18002 0.67554 0.0
C4412 C 0.39638 0.20766 0.68906 0.0
H4413 H 0.42223 0.22282 0.68562 0.0
C4414 C 0.39413 0.21176 0.70023 0.0
C4415 C 0.40656 0.21176 0.68366 0.0
C4416 C 0.4092 0.2079 0.67155 0.0
C4417 C 0.40188 0.21975 0.70622 0.0
C4418 C 0.41218 0.22366 0.70092 0.0
C4419 C 0.41436 0.21971 0.68968 0.0
C4420 C 0.42071 0.23197 0.7069 0.0
C4421 C 0.39895 0.22405 0.71814 0.0
C4422 C 0.42328 0.24257 0.70355 0.0
C4423 C 0.43101 0.25057 0.70946 0.0
C4424 C 0.43638 0.24809 0.71879 0.0
C4425 C 0.43395 0.23736 0.72195 0.0
C4426 C 0.42619 0.22938 0.71606 0.0
H4427 H 0.38985 0.22196 0.72016 0.0
H4428 H 0.40366 0.22032 0.72402 0.0
H4429 H 0.40137 0.23314 0.71962 0.0
H4430 H 0.41912 0.24471 0.69649 0.0
H4431 H 0.43256 0.25878 0.70687 0.0
H4432 H 0.6981 0.70186 0.17887 0.0
H4433 H 0.71068 0.71007 0.16459 0.0
H4434 H 0.72489 0.68 0.15746 0.0
H4435 H 0.71235 0.67168 0.17179 0.0
H4436 H 0.73566 0.71203 0.16348 0.0
H4437 H 0.71436 0.68734 0.1264 0.0
H4438 H 0.7074 0.68913 0.14002 0.0
H4439 H 0.7176 0.67994 0.13755 0.0
C4440 C 0.70389 0.69697 0.17428 0.0
C4441 C 0.70418 0.68608 0.17646 0.0
C4442 C 0.71108 0.70169 0.16614 0.0
C4443 C 0.71862 0.6956 0.15992 0.0
C4444 C 0.71903 0.68479 0.16211 0.0
H4445 H 0.76505 0.7105 0.10427 0.0
H4446 H 0.7531 0.70161 0.11858 0.0
C4447 C 0.7119 0.68006 0.17033 0.0
C4448 C 0.72608 0.70065 0.1512 0.0
H4449 H 0.73068 0.69974 0.12282 0.0
C4450 C 0.7346 0.70936 0.15458 0.0
C4451 C 0.72467 0.69709 0.13963 0.0
C4452 C 0.71548 0.68791 0.1356 0.0
C4453 C 0.74184 0.71456 0.14668 0.0
C4454 C 0.7403 0.71116 0.13508 0.0
C4455 C 0.73182 0.70238 0.13171 0.0
C4456 C 0.74741 0.7166 0.12629 0.0
C4457 C 0.75121 0.72349 0.15088 0.0
C4458 C 0.74801 0.72795 0.12571 0.0
C4459 C 0.75496 0.73309 0.11764 0.0
C4460 C 0.76135 0.72697 0.10986 0.0
C4461 C 0.76043 0.71552 0.11025 0.0
C4462 C 0.75353 0.7104 0.11838 0.0
H4463 H 0.75326 0.72283 0.15968 0.0
H4464 H 0.75892 0.72314 0.14552 0.0
H4465 H 0.74856 0.73166 0.15069 0.0
H4466 H 0.74315 0.73286 0.13155 0.0
H4467 H 0.75551 0.74192 0.11767 0.0
H4468 H 0.31869 0.68659 0.14612 0.0
H4469 H 0.31512 0.69369 0.12875 0.0
H4470 H 0.32039 0.66284 0.10979 0.0
H4471 H 0.32454 0.65588 0.12716 0.0
H4472 H 0.33031 0.67885 0.09931 0.0
H4473 H 0.28768 0.68782 0.11085 0.0
H4474 H 0.29736 0.695 0.12109 0.0
H4475 H 0.29495 0.68012 0.11918 0.0
C4476 C 0.31901 0.68128 0.13826 0.0
C4477 C 0.32182 0.67065 0.138 0.0
C4478 C 0.31688 0.68532 0.12832 0.0
C4479 C 0.31717 0.67871 0.11795 0.0
C4480 C 0.32002 0.66808 0.11768 0.0
H4481 H 0.29182 0.7055 0.06176 0.0
H4482 H 0.29443 0.69277 0.07503 0.0
C4483 C 0.32238 0.66411 0.12761 0.0
C4484 C 0.31499 0.6831 0.10739 0.0
H4485 H 0.29724 0.69734 0.09594 0.0
C4486 C 0.32299 0.68275 0.09851 0.0
C4487 C 0.3053 0.68792 0.10614 0.0
C4488 C 0.29579 0.68762 0.11479 0.0
C4489 C 0.32183 0.68755 0.08868 0.0
C4490 C 0.31264 0.69326 0.08789 0.0
C4491 C 0.30439 0.69314 0.09655 0.0
C4492 C 0.31165 0.69988 0.07852 0.0
C4493 C 0.33044 0.68636 0.07926 0.0
C4494 C 0.32052 0.70798 0.07578 0.0
C4495 C 0.31918 0.71506 0.06789 0.0
C4496 C 0.30879 0.71449 0.0628 0.0
C4497 C 0.3 0.70615 0.06533 0.0
C4498 C 0.30144 0.69891 0.07305 0.0
H4499 H 0.33395 0.67857 0.07921 0.0
H4500 H 0.32683 0.68645 0.07093 0.0
H4501 H 0.33749 0.69327 0.08054 0.0
H4502 H 0.3284 0.70914 0.08005 0.0
H4503 H 0.32622 0.72121 0.06604 0.0
H4504 H 0.3751 0.32719 0.1852 0.0
H4505 H 0.36673 0.31537 0.16896 0.0
H4506 H 0.36856 0.34367 0.15085 0.0
H4507 H 0.37676 0.35558 0.16708 0.0
H4508 H 0.34761 0.3317 0.15107 0.0
H4509 H 0.37906 0.304 0.1383 0.0
H4510 H 0.37503 0.30453 0.15293 0.0
H4511 H 0.38229 0.31671 0.1475 0.0
C4512 C 0.37393 0.33088 0.17769 0.0
C4513 C 0.37657 0.34235 0.17747 0.0
C4514 C 0.36919 0.32409 0.16838 0.0
C4515 C 0.36711 0.32862 0.15865 0.0
C4516 C 0.37012 0.34 0.15826 0.0
H4517 H 0.34064 0.29163 0.09615 0.0
H4518 H 0.35248 0.30357 0.11018 0.0
C4519 C 0.37482 0.3468 0.16756 0.0
C4520 C 0.36083 0.3217 0.14931 0.0
H4521 H 0.36085 0.29855 0.13056 0.0
C4522 C 0.35056 0.32451 0.14653 0.0
C4523 C 0.36472 0.31238 0.14332 0.0
C4524 C 0.37593 0.30927 0.14558 0.0
C4525 C 0.34394 0.31809 0.13812 0.0
C4526 C 0.3476 0.3085 0.13246 0.0
C4527 C 0.35801 0.30585 0.135 0.0
C4528 C 0.3406 0.30105 0.12402 0.0
C4529 C 0.33309 0.32165 0.13534 0.0
C4530 C 0.33008 0.29556 0.12721 0.0
C4531 C 0.32333 0.28872 0.11925 0.0
C4532 C 0.32697 0.28719 0.10793 0.0
C4533 C 0.33761 0.29257 0.1048 0.0
C4534 C 0.34437 0.29941 0.11279 0.0
H4535 H 0.33294 0.33051 0.13823 0.0
H4536 H 0.33172 0.32019 0.12615 0.0
H4537 H 0.326 0.31677 0.13961 0.0
H4538 H 0.32712 0.29653 0.13588 0.0
H4539 H 0.31531 0.28451 0.12201 0.0
H4540 H 0.78481 0.30346 0.16653 0.0
H4541 H 0.77988 0.29952 0.14682 0.0
H4542 H 0.74557 0.30333 0.1558 0.0
H4543 H 0.75038 0.30692 0.17568 0.0
H4544 H 0.74625 0.28585 0.14082 0.0
H4545 H 0.77465 0.32075 0.12576 0.0
H4546 H 0.78243 0.31281 0.13313 0.0
H4547 H 0.77171 0.31977 0.14052 0.0
C4548 C 0.77622 0.30351 0.16432 0.0
C4549 C 0.768 0.30556 0.17265 0.0
C4550 C 0.77343 0.30135 0.15303 0.0
C4551 C 0.76242 0.30142 0.14979 0.0
C4552 C 0.75414 0.30334 0.1581 0.0
H4553 H 0.76006 0.29502 0.07661 0.0
H4554 H 0.75543 0.30208 0.09599 0.0
C4555 C 0.75691 0.30538 0.16944 0.0
C4556 C 0.75957 0.29902 0.13776 0.0
H4557 H 0.76926 0.30512 0.11179 0.0
C4558 C 0.75112 0.29019 0.13446 0.0
C4559 C 0.76564 0.30491 0.12946 0.0
C4560 C 0.77401 0.31517 0.13242 0.0
C4561 C 0.7492 0.28657 0.12306 0.0
C4562 C 0.75617 0.29168 0.11477 0.0
C4563 C 0.76401 0.30104 0.11809 0.0
C4564 C 0.75644 0.28684 0.10281 0.0
C4565 C 0.73984 0.2772 0.12007 0.0
C4566 C 0.75818 0.27584 0.10012 0.0
C4567 C 0.7606 0.27177 0.08905 0.0
C4568 C 0.76159 0.27869 0.0805 0.0
C4569 C 0.75933 0.28953 0.08307 0.0
C4570 C 0.7567 0.29355 0.09413 0.0
H4571 H 0.73276 0.27746 0.12632 0.0
H4572 H 0.73662 0.27744 0.1116 0.0
H4573 H 0.74296 0.26925 0.12025 0.0
H4574 H 0.75841 0.27057 0.10665 0.0
H4575 H 0.76253 0.26344 0.08735 0.0
H4576 H 0.68858 0.33265 0.89629 0.0
H4577 H 0.69854 0.32533 0.91029 0.0
H4578 H 0.71766 0.30918 0.88382 0.0
H4579 H 0.7076 0.31627 0.86977 0.0
H4580 H 0.71004 0.29584 0.90026 0.0
H4581 H 0.73083 0.33685 0.91911 0.0
H4582 H 0.7158 0.33535 0.91899 0.0
H4583 H 0.72374 0.33492 0.90593 0.0
C4584 C 0.69488 0.32752 0.89344 0.0
C4585 C 0.69735 0.3251 0.88191 0.0
C4586 C 0.70061 0.32339 0.90146 0.0
C4587 C 0.70897 0.31687 0.8981 0.0
C4588 C 0.71126 0.31424 0.88659 0.0
H4589 H 0.76353 0.30239 0.93409 0.0
H4590 H 0.75093 0.30938 0.92235 0.0
C4591 C 0.70551 0.31832 0.87857 0.0
C4592 C 0.71544 0.31283 0.90652 0.0
H4593 H 0.73373 0.32143 0.92782 0.0
C4594 C 0.71519 0.30142 0.90632 0.0
C4595 C 0.72224 0.32015 0.91433 0.0
C4596 C 0.72328 0.3325 0.91458 0.0
C4597 C 0.72162 0.29712 0.91367 0.0
C4598 C 0.72831 0.30443 0.92157 0.0
C4599 C 0.7285 0.31584 0.92183 0.0
C4600 C 0.73576 0.30047 0.92915 0.0
C4601 C 0.72149 0.28481 0.91264 0.0
C4602 C 0.7314 0.29329 0.93703 0.0
C4603 C 0.7386 0.28928 0.94379 0.0
C4604 C 0.75028 0.29247 0.94285 0.0
C4605 C 0.75457 0.29989 0.93514 0.0
C4606 C 0.74739 0.30385 0.92838 0.0
H4607 H 0.71803 0.28063 0.90453 0.0
H4608 H 0.73007 0.28283 0.91334 0.0
H4609 H 0.71616 0.28137 0.91953 0.0
H4610 H 0.72243 0.29077 0.93793 0.0
H4611 H 0.73504 0.28368 0.94974 0.0
H4612 H 0.69144 0.68207 0.90775 0.0
H4613 H 0.70125 0.68947 0.92508 0.0
H4614 H 0.73041 0.70186 0.90564 0.0
H4615 H 0.72078 0.69428 0.88829 0.0
H4616 H 0.73581 0.69269 0.92429 0.0
H4617 H 0.70584 0.72234 0.93592 0.0
H4618 H 0.69949 0.70814 0.93387 0.0
H4619 H 0.70626 0.71459 0.92219 0.0
C4620 C 0.69998 0.68627 0.90716 0.0
C4621 C 0.70528 0.68768 0.89662 0.0
C4622 C 0.70555 0.69055 0.91707 0.0
C4623 C 0.71646 0.69642 0.91664 0.0
C4624 C 0.72196 0.69741 0.90616 0.0
H4625 H 0.76328 0.73877 0.96023 0.0
H4626 H 0.75379 0.72643 0.94497 0.0
C4627 C 0.71643 0.69308 0.89625 0.0
C4628 C 0.72203 0.70195 0.92703 0.0
H4629 H 0.72 0.72223 0.94875 0.0
C4630 C 0.73234 0.69912 0.92967 0.0
C4631 C 0.71749 0.71035 0.93402 0.0
C4632 C 0.70672 0.71413 0.93134 0.0
C4633 C 0.73824 0.7045 0.93911 0.0
C4634 C 0.73377 0.71299 0.94598 0.0
C4635 C 0.72336 0.71566 0.94348 0.0
C4636 C 0.74 0.71967 0.95546 0.0
C4637 C 0.74921 0.70104 0.94165 0.0
C4638 C 0.73535 0.72002 0.96641 0.0
C4639 C 0.74078 0.72705 0.97519 0.0
C4640 C 0.75092 0.73394 0.97315 0.0
C4641 C 0.75562 0.73343 0.96217 0.0
C4642 C 0.7502 0.72638 0.95342 0.0
H4643 H 0.74995 0.69262 0.93754 0.0
H4644 H 0.75624 0.70685 0.93844 0.0
H4645 H 0.75012 0.70124 0.95085 0.0
H4646 H 0.72745 0.71493 0.96814 0.0
H4647 H 0.737 0.72714 0.98356 0.0
H4648 H 0.32695 0.71506 0.83552 0.0
H4649 H 0.31976 0.71334 0.85475 0.0
H4650 H 0.34896 0.69959 0.86195 0.0
H4651 H 0.35635 0.70156 0.84283 0.0
H4652 H 0.31592 0.69425 0.86839 0.0
H4653 H 0.34906 0.72878 0.8839 0.0
H4654 H 0.34543 0.72603 0.8693 0.0
H4655 H 0.35344 0.7172 0.87522 0.0
C4656 C 0.33175 0.71151 0.84115 0.0
C4657 C 0.34214 0.70831 0.83763 0.0
C4658 C 0.32761 0.71048 0.85209 0.0
C4659 C 0.33385 0.70636 0.85973 0.0
C4660 C 0.34403 0.70277 0.85614 0.0
H4661 H 0.32228 0.72054 0.93212 0.0
H4662 H 0.32973 0.71165 0.91458 0.0
C4663 C 0.34816 0.70377 0.84518 0.0
C4664 C 0.33017 0.7069 0.87168 0.0
H4665 H 0.33537 0.72239 0.89693 0.0
C4666 C 0.32024 0.70028 0.8747 0.0
C4667 C 0.33589 0.71472 0.87986 0.0
C4668 C 0.34652 0.72216 0.87697 0.0
C4669 C 0.31565 0.70153 0.88568 0.0
C4670 C 0.32102 0.70981 0.8937 0.0
C4671 C 0.33126 0.71603 0.89078 0.0
C4672 C 0.31563 0.71313 0.90468 0.0
C4673 C 0.30504 0.69407 0.88851 0.0
C4674 C 0.30513 0.71671 0.90499 0.0
C4675 C 0.30086 0.72174 0.91497 0.0
C4676 C 0.30707 0.72344 0.92482 0.0
C4677 C 0.31735 0.7194 0.92463 0.0
C4678 C 0.32159 0.71429 0.91464 0.0
H4679 H 0.30447 0.68593 0.88332 0.0
H4680 H 0.30454 0.69276 0.89753 0.0
H4681 H 0.29769 0.69786 0.88665 0.0
H4682 H 0.30052 0.71623 0.89737 0.0
H4683 H 0.29302 0.72493 0.91479 0.0
H4684 H 0.33615 0.35565 0.90121 0.0
H4685 H 0.32662 0.34999 0.91853 0.0
H4686 H 0.34905 0.32624 0.91967 0.0
H4687 H 0.35871 0.33195 0.90259 0.0
H4688 H 0.3154 0.32992 0.92191 0.0
H4689 H 0.3501 0.34102 0.95161 0.0
H4690 H 0.35075 0.34604 0.93805 0.0
H4691 H 0.35403 0.33253 0.93931 0.0
C4692 C 0.33913 0.34932 0.90523 0.0
C4693 C 0.34822 0.34428 0.90053 0.0
C4694 C 0.33368 0.34609 0.91512 0.0
C4695 C 0.33724 0.33783 0.92052 0.0
C4696 C 0.34633 0.33284 0.91585 0.0
H4697 H 0.30069 0.29098 0.96024 0.0
H4698 H 0.31009 0.30177 0.94589 0.0
C4699 C 0.3518 0.33606 0.90601 0.0
C4700 C 0.33103 0.3338 0.93055 0.0
H4701 H 0.33469 0.32757 0.95697 0.0
C4702 C 0.31958 0.32956 0.92964 0.0
C4703 C 0.33642 0.3335 0.94071 0.0
C4704 C 0.34847 0.33863 0.94254 0.0
C4705 C 0.31354 0.32449 0.93838 0.0
C4706 C 0.31915 0.32343 0.94819 0.0
C4707 C 0.33043 0.32821 0.94936 0.0
C4708 C 0.31362 0.31693 0.95707 0.0
C4709 C 0.30121 0.32025 0.93696 0.0
C4710 C 0.31284 0.32175 0.96824 0.0
C4711 C 0.30763 0.31553 0.97656 0.0
C4712 C 0.30317 0.30434 0.97386 0.0
C4713 C 0.30414 0.29952 0.96267 0.0
C4714 C 0.30936 0.30573 0.9544 0.0
H4715 H 0.29749 0.32474 0.93095 0.0
H4716 H 0.30014 0.31141 0.93355 0.0
H4717 H 0.29648 0.32106 0.94511 0.0
H4718 H 0.31618 0.33036 0.97051 0.0
H4719 H 0.30715 0.31946 0.98511 0.0
H4720 H 0.64466 0.68581 0.22634 0.0
H4721 H 0.62751 0.69165 0.23517 0.0
H4722 H 0.61728 0.69824 0.20302 0.0
H4723 H 0.63425 0.69231 0.19413 0.0
H4724 H 0.62123 0.71218 0.23582 0.0
H4725 H 0.58887 0.68045 0.21487 0.0
H4726 H 0.6035 0.67887 0.21467 0.0
H4727 H 0.59857 0.68709 0.20512 0.0
C4728 C 0.63869 0.68836 0.22113 0.0
C4729 C 0.64083 0.68857 0.20952 0.0
C4730 C 0.6289 0.69171 0.22619 0.0
C4731 C 0.62104 0.69523 0.21973 0.0
C4732 C 0.6231 0.69532 0.20813 0.0
H4733 H 0.57351 0.73945 0.24059 0.0
H4734 H 0.58891 0.73017 0.23237 0.0
C4735 C 0.63286 0.69199 0.20307 0.0
C4736 C 0.61105 0.69954 0.22518 0.0
H4737 H 0.58249 0.69669 0.22427 0.0
C4738 C 0.61275 0.70872 0.23337 0.0
C4739 C 0.59998 0.69495 0.22207 0.0
C4740 C 0.59759 0.68473 0.21378 0.0
C4741 C 0.60372 0.71368 0.23826 0.0
C4742 C 0.5927 0.70944 0.23473 0.0
C4743 C 0.59095 0.70002 0.22684 0.0
C4744 C 0.58293 0.71478 0.23908 0.0
C4745 C 0.60605 0.7234 0.24719 0.0
C4746 C 0.57421 0.70906 0.2452 0.0
C4747 C 0.5653 0.71431 0.2498 0.0
C4748 C 0.56491 0.72536 0.24831 0.0
C4749 C 0.57347 0.73091 0.24182 0.0
C4750 C 0.58237 0.72567 0.23724 0.0
H4751 H 0.6143 0.72372 0.25106 0.0
H4752 H 0.6062 0.73113 0.24334 0.0
H4753 H 0.59941 0.72308 0.25393 0.0
H4754 H 0.57443 0.70061 0.24663 0.0
H4755 H 0.55877 0.70975 0.25463 0.0
H4756 H 0.32514 0.63504 0.20016 0.0
H4757 H 0.31329 0.62037 0.20889 0.0
H4758 H 0.3076 0.60163 0.17637 0.0
H4759 H 0.31962 0.61628 0.1675 0.0
H4760 H 0.29078 0.61157 0.20526 0.0
H4761 H 0.31891 0.57989 0.19503 0.0
H4762 H 0.32353 0.59434 0.1939 0.0
H4763 H 0.31482 0.58607 0.18336 0.0
C4764 C 0.32138 0.62781 0.19483 0.0
C4765 C 0.32338 0.6268 0.18313 0.0
C4766 C 0.31459 0.61944 0.19984 0.0
C4767 C 0.30969 0.60987 0.19329 0.0
C4768 C 0.31147 0.60888 0.18159 0.0
H4769 H 0.2587 0.56301 0.22437 0.0
H4770 H 0.26846 0.57487 0.21092 0.0
C4771 C 0.31829 0.61728 0.17654 0.0
C4772 C 0.30275 0.60098 0.19887 0.0
H4773 H 0.30216 0.5747 0.20521 0.0
C4774 C 0.29319 0.60346 0.20517 0.0
C4775 C 0.306 0.59046 0.1988 0.0
C4776 C 0.31642 0.5875 0.19249 0.0
C4777 C 0.28691 0.5958 0.21161 0.0
C4778 C 0.2902 0.5853 0.21159 0.0
C4779 C 0.29963 0.58273 0.20512 0.0
C4780 C 0.28447 0.57723 0.21896 0.0
C4781 C 0.27712 0.59917 0.21875 0.0
C4782 C 0.29036 0.57428 0.22765 0.0
C4783 C 0.28485 0.56742 0.23526 0.0
C4784 C 0.27334 0.56336 0.23431 0.0
C4785 C 0.26758 0.56596 0.22531 0.0
C4786 C 0.27311 0.57282 0.21768 0.0
H4787 H 0.27714 0.60823 0.21959 0.0
H4788 H 0.26918 0.59508 0.21482 0.0
H4789 H 0.27722 0.59659 0.22729 0.0
H4790 H 0.29916 0.57754 0.22873 0.0
H4791 H 0.28958 0.56542 0.24197 0.0
H4792 H 0.40836 0.33603 0.23607 0.0
H4793 H 0.42514 0.33293 0.24515 0.0
H4794 H 0.44404 0.36155 0.23232 0.0
H4795 H 0.4273 0.36471 0.22315 0.0
H4796 H 0.44778 0.3307 0.23415 0.0
H4797 H 0.44761 0.3661 0.26769 0.0
H4798 H 0.43521 0.35999 0.26001 0.0
H4799 H 0.44624 0.36867 0.2534 0.0
C4800 C 0.41608 0.34165 0.23515 0.0
C4801 C 0.41648 0.35064 0.22892 0.0
C4802 C 0.42566 0.33986 0.24032 0.0
C4803 C 0.43577 0.34707 0.23947 0.0
C4804 C 0.43627 0.35596 0.23315 0.0
H4805 H 0.49787 0.3498 0.27537 0.0
H4806 H 0.48384 0.35371 0.26287 0.0
C4807 C 0.42671 0.35773 0.22789 0.0
C4808 C 0.44576 0.34531 0.24531 0.0
H4809 H 0.46205 0.35539 0.26786 0.0
C4810 C 0.45096 0.33611 0.24149 0.0
C4811 C 0.4499 0.35245 0.25481 0.0
C4812 C 0.44446 0.36234 0.25932 0.0
C4813 C 0.46019 0.33381 0.24699 0.0
C4814 C 0.46411 0.34074 0.25674 0.0
C4815 C 0.45905 0.35009 0.26039 0.0
C4816 C 0.473 0.33811 0.26367 0.0
C4817 C 0.46568 0.32402 0.24224 0.0
C4818 C 0.47155 0.32808 0.2683 0.0
C4819 C 0.47954 0.32582 0.27538 0.0
C4820 C 0.48911 0.33361 0.2781 0.0
C4821 C 0.49058 0.34365 0.27344 0.0
C4822 C 0.48259 0.34588 0.26629 0.0
H4823 H 0.46427 0.32192 0.2331 0.0
H4824 H 0.47486 0.32558 0.24361 0.0
H4825 H 0.46197 0.31675 0.24647 0.0
H4826 H 0.46406 0.3221 0.26669 0.0
H4827 H 0.478 0.31813 0.27904 0.0
H4828 H 0.75766 0.34212 0.23805 0.0
H4829 H 0.75555 0.36122 0.24459 0.0
H4830 H 0.77482 0.37193 0.21567 0.0
H4831 H 0.77654 0.35272 0.20883 0.0
H4832 H 0.77275 0.37847 0.2498 0.0
H4833 H 0.74718 0.38752 0.21576 0.0
H4834 H 0.7487 0.37365 0.21798 0.0
H4835 H 0.75973 0.38204 0.21098 0.0
C4836 C 0.76113 0.34849 0.2329 0.0
C4837 C 0.76694 0.34591 0.22275 0.0
C4838 C 0.76005 0.35942 0.23672 0.0
C4839 C 0.7648 0.36795 0.23048 0.0
C4840 C 0.77082 0.36543 0.22045 0.0
H4841 H 0.77469 0.43909 0.24332 0.0
H4842 H 0.7734 0.41989 0.23484 0.0
C4843 C 0.7719 0.35449 0.21662 0.0
C4844 C 0.76401 0.37955 0.23484 0.0
H4845 H 0.75455 0.40275 0.22879 0.0
C4846 C 0.76871 0.38376 0.24525 0.0
C4847 C 0.75876 0.38642 0.22884 0.0
C4848 C 0.75321 0.38218 0.21781 0.0
C4849 C 0.76846 0.39473 0.24976 0.0
C4850 C 0.76322 0.4016 0.24377 0.0
C4851 C 0.75852 0.39742 0.23335 0.0
C4852 C 0.76279 0.41324 0.24818 0.0
C4853 C 0.77406 0.39895 0.26078 0.0
C4854 C 0.75691 0.41585 0.25826 0.0
C4855 C 0.75768 0.42678 0.26315 0.0
C4856 C 0.76431 0.43529 0.25801 0.0
C4857 C 0.76965 0.43269 0.24756 0.0
C4858 C 0.76887 0.42175 0.24268 0.0
H4859 H 0.77982 0.39341 0.26301 0.0
H4860 H 0.77889 0.40733 0.26046 0.0
H4861 H 0.76754 0.39946 0.26758 0.0
H4862 H 0.75205 0.40938 0.26255 0.0
H4863 H 0.75354 0.42847 0.27124 0.0
H4864 H 0.6415 0.32595 0.85142 0.0
H4865 H 0.62609 0.31573 0.84001 0.0
H4866 H 0.61677 0.34637 0.83281 0.0
H4867 H 0.63214 0.35664 0.84408 0.0
H4868 H 0.60222 0.31673 0.84137 0.0
H4869 H 0.62255 0.32952 0.80156 0.0
H4870 H 0.63007 0.33083 0.81443 0.0
H4871 H 0.6211 0.34067 0.81236 0.0
C4872 C 0.63612 0.33052 0.84748 0.0
C4873 C 0.63811 0.34211 0.84857 0.0
C4874 C 0.62732 0.32466 0.84098 0.0
C4875 C 0.62043 0.33031 0.83544 0.0
C4876 C 0.62213 0.34187 0.83687 0.0
H4877 H 0.56766 0.31175 0.78725 0.0
H4878 H 0.58104 0.32151 0.80114 0.0
C4879 C 0.6309 0.34772 0.84335 0.0
C4880 C 0.61167 0.32416 0.82787 0.0
H4881 H 0.60395 0.32004 0.80049 0.0
C4882 C 0.60259 0.3174 0.83243 0.0
C4883 C 0.61223 0.32506 0.81621 0.0
C4884 C 0.62205 0.33183 0.8108 0.0
C4885 C 0.59389 0.31169 0.82563 0.0
C4886 C 0.59441 0.31266 0.81398 0.0
C4887 C 0.60354 0.31937 0.80944 0.0
C4888 C 0.58569 0.30669 0.80626 0.0
C4889 C 0.58409 0.30486 0.831 0.0
C4890 C 0.58388 0.29513 0.80456 0.0
C4891 C 0.57628 0.28953 0.79659 0.0
C4892 C 0.57042 0.2954 0.79013 0.0
C4893 C 0.57213 0.30699 0.792 0.0
C4894 C 0.57972 0.31257 0.79997 0.0
H4895 H 0.58354 0.30719 0.84023 0.0
H4896 H 0.57607 0.30576 0.8273 0.0
H4897 H 0.58514 0.29604 0.82947 0.0
H4898 H 0.58859 0.29043 0.80914 0.0
H4899 H 0.57532 0.28061 0.79522 0.0
H4900 H 0.72131 0.65859 0.83584 0.0
H4901 H 0.72728 0.64167 0.82651 0.0
H4902 H 0.69607 0.62291 0.8367 0.0
H4903 H 0.69015 0.63978 0.84632 0.0
H4904 H 0.71374 0.61288 0.84012 0.0
H4905 H 0.71676 0.62488 0.79697 0.0
H4906 H 0.72511 0.63473 0.80662 0.0
H4907 H 0.71008 0.63247 0.80849 0.0
C4908 C 0.71569 0.65087 0.83606 0.0
C4909 C 0.70522 0.65054 0.84177 0.0
C4910 C 0.71909 0.64121 0.83066 0.0
C4911 C 0.71203 0.63105 0.83071 0.0
C4912 C 0.70163 0.63067 0.8365 0.0
H4913 H 0.72483 0.57302 0.78598 0.0
H4914 H 0.71621 0.5881 0.79605 0.0
C4915 C 0.69825 0.64032 0.84198 0.0
C4916 C 0.71564 0.62079 0.82496 0.0
H4917 H 0.72522 0.60924 0.79975 0.0
C4918 C 0.71617 0.61205 0.83127 0.0
C4919 C 0.71862 0.61962 0.81337 0.0
C4920 C 0.71751 0.62838 0.80594 0.0
C4921 C 0.71989 0.60229 0.82638 0.0
C4922 C 0.72344 0.60136 0.81493 0.0
C4923 C 0.72262 0.60999 0.80856 0.0
C4924 C 0.72817 0.59161 0.80939 0.0
C4925 C 0.71986 0.59303 0.8335 0.0
C4926 C 0.73773 0.5885 0.81356 0.0
C4927 C 0.74257 0.57974 0.80792 0.0
C4928 C 0.73807 0.574 0.79787 0.0
C4929 C 0.72842 0.57709 0.79378 0.0
C4930 C 0.72354 0.58579 0.79948 0.0
H4931 H 0.71374 0.59359 0.84068 0.0
H4932 H 0.71777 0.58486 0.82848 0.0
H4933 H 0.7283 0.59358 0.83698 0.0
H4934 H 0.74161 0.593 0.82105 0.0
H4935 H 0.74993 0.57754 0.81138 0.0
H4936 H 0.38657 0.75107 0.81413 0.0
H4937 H 0.40652 0.75749 0.81718 0.0
H4938 H 0.41359 0.72435 0.80836 0.0
H4939 H 0.39363 0.71782 0.80523 0.0
H4940 H 0.42155 0.7498 0.8321 0.0
H4941 H 0.4338 0.74358 0.78667 0.0
H4942 H 0.41948 0.74416 0.79143 0.0
H4943 H 0.42564 0.73205 0.79252 0.0
C4944 C 0.39235 0.74514 0.81284 0.0
C4945 C 0.38853 0.73395 0.80935 0.0
C4946 C 0.40373 0.74881 0.81463 0.0
C4947 C 0.41149 0.7414 0.81292 0.0
C4948 C 0.40771 0.7302 0.80962 0.0
H4949 H 0.48425 0.7592 0.80859 0.0
H4950 H 0.4658 0.748 0.8105 0.0
C4951 C 0.39632 0.7265 0.80784 0.0
C4952 C 0.42357 0.74553 0.81425 0.0
H4953 H 0.44806 0.75099 0.79925 0.0
C4954 C 0.4274 0.74998 0.82496 0.0
C4955 C 0.43113 0.74567 0.80491 0.0
C4956 C 0.42736 0.74118 0.7932 0.0
C4957 C 0.43863 0.75478 0.82654 0.0
C4958 C 0.4461 0.75534 0.81711 0.0
C4959 C 0.44233 0.75053 0.80648 0.0
C4960 C 0.45758 0.76166 0.81781 0.0
C4961 C 0.44235 0.75924 0.83826 0.0
C4962 C 0.45913 0.773 0.82151 0.0
C4963 C 0.46965 0.77939 0.82046 0.0
C4964 C 0.47878 0.77458 0.81555 0.0
C4965 C 0.47734 0.76313 0.81233 0.0
C4966 C 0.46682 0.75673 0.81344 0.0
H4967 H 0.43708 0.75488 0.84467 0.0
H4968 H 0.45126 0.75845 0.83936 0.0
H4969 H 0.44145 0.76809 0.83985 0.0
H4970 H 0.45208 0.77704 0.82462 0.0
H4971 H 0.47046 0.78821 0.82284 0.0
H4972 H 0.32622 0.38562 0.84107 0.0
H4973 H 0.31615 0.39847 0.83318 0.0
H4974 H 0.34483 0.42395 0.83815 0.0
H4975 H 0.35491 0.41121 0.84626 0.0
H4976 H 0.325 0.43149 0.84483 0.0
H4977 H 0.32152 0.40855 0.80213 0.0
H4978 H 0.31592 0.40032 0.813 0.0
H4979 H 0.33067 0.40555 0.81243 0.0
C4980 C 0.33041 0.39395 0.84046 0.0
C4981 C 0.3414 0.39737 0.84423 0.0
C4982 C 0.32466 0.40127 0.83589 0.0
C4983 C 0.3298 0.41212 0.83489 0.0
C4984 C 0.34072 0.4156 0.83879 0.0
H4985 H 0.30473 0.45448 0.79249 0.0
H4986 H 0.31643 0.44408 0.80175 0.0
C4987 C 0.34647 0.4083 0.8434 0.0
C4988 C 0.32377 0.41985 0.82987 0.0
H4989 H 0.3107 0.42312 0.80615 0.0
C4990 C 0.32192 0.4297 0.83635 0.0
C4991 C 0.31989 0.41759 0.81875 0.0
C4992 C 0.32219 0.40748 0.81113 0.0
C4993 C 0.3161 0.43723 0.8321 0.0
C4994 C 0.31184 0.43474 0.82113 0.0
C4995 C 0.31388 0.42499 0.81459 0.0
C4996 C 0.30523 0.44208 0.81621 0.0
C4997 C 0.31472 0.44784 0.83932 0.0
C4998 C 0.29509 0.44457 0.82132 0.0
C4999 C 0.28843 0.45069 0.81612 0.0
C5000 C 0.29171 0.45433 0.80562 0.0
C5001 C 0.30201 0.45202 0.80066 0.0
C5002 C 0.30868 0.44596 0.80589 0.0
H5003 H 0.32112 0.44995 0.8459 0.0
H5004 H 0.31534 0.45481 0.83417 0.0
H5005 H 0.30633 0.4469 0.84359 0.0
H5006 H 0.29214 0.4415 0.82918 0.0
H5007 H 0.2806 0.45238 0.82023 0.0
H5008 H 0.70828 0.64792 0.22891 0.0
H5009 H 0.71764 0.63393 0.23578 0.0
H5010 H 0.70632 0.61085 0.2072 0.0
H5011 H 0.69695 0.62477 0.20024 0.0
H5012 H 0.70764 0.61216 0.24086 0.0
H5013 H 0.74079 0.61096 0.20713 0.0
H5014 H 0.73277 0.62221 0.20994 0.0
H5015 H 0.72662 0.60936 0.20248 0.0
C5016 C 0.70779 0.63988 0.22406 0.0
C5017 C 0.70189 0.63748 0.21399 0.0
C5018 C 0.71314 0.63189 0.22801 0.0
C5019 C 0.71278 0.6214 0.22193 0.0
C5020 C 0.70684 0.61895 0.21193 0.0
H5021 H 0.74425 0.56457 0.23242 0.0
H5022 H 0.73317 0.57706 0.22518 0.0
C5023 C 0.70145 0.62691 0.20799 0.0
C5024 C 0.71851 0.613 0.22615 0.0
H5025 H 0.74006 0.59811 0.22027 0.0
C5026 C 0.71473 0.60908 0.23637 0.0
C5027 C 0.72771 0.60896 0.22024 0.0
C5028 C 0.73231 0.61312 0.20938 0.0
C5029 C 0.71986 0.60116 0.24081 0.0
C5030 C 0.7292 0.59725 0.235 0.0
C5031 C 0.7329 0.60109 0.22471 0.0
C5032 C 0.7355 0.58946 0.2396 0.0
C5033 C 0.71511 0.59693 0.25159 0.0
C5034 C 0.74055 0.5923 0.25008 0.0
C5035 C 0.74685 0.58519 0.25423 0.0
C5036 C 0.74835 0.57511 0.24795 0.0
C5037 C 0.7433 0.57229 0.23744 0.0
C5038 C 0.73694 0.5794 0.23331 0.0
H5039 H 0.70619 0.59808 0.25305 0.0
H5040 H 0.7157 0.58805 0.25152 0.0
H5041 H 0.71993 0.60161 0.25875 0.0
H5042 H 0.73983 0.60015 0.25494 0.0
H5043 H 0.75084 0.58775 0.26223 0.0
H5044 H 0.69145 0.38782 0.86329 0.0
H5045 H 0.70378 0.40361 0.85682 0.0
H5046 H 0.72321 0.38158 0.83674 0.0
H5047 H 0.71103 0.36574 0.84325 0.0
H5048 H 0.73628 0.39998 0.84864 0.0
H5049 H 0.70274 0.41211 0.82473 0.0
H5050 H 0.69938 0.41091 0.83933 0.0
H5051 H 0.70144 0.39886 0.82995 0.0
C5052 C 0.69839 0.38632 0.85757 0.0
C5053 C 0.7002 0.3755 0.85372 0.0
C5054 C 0.70539 0.39536 0.85383 0.0
C5055 C 0.71427 0.39374 0.84616 0.0
C5056 C 0.71635 0.38299 0.84263 0.0
H5057 H 0.7507 0.43681 0.8013 0.0
H5058 H 0.73864 0.42233 0.8102 0.0
C5059 C 0.70937 0.37395 0.84635 0.0
C5060 C 0.72124 0.40322 0.84156 0.0
H5061 H 0.72021 0.42382 0.82529 0.0
C5062 C 0.73278 0.40523 0.84357 0.0
C5063 C 0.71665 0.40993 0.83482 0.0
C5064 C 0.70439 0.40783 0.83197 0.0
C5065 C 0.73986 0.41383 0.83904 0.0
C5066 C 0.73523 0.42066 0.83245 0.0
C5067 C 0.7237 0.41863 0.83043 0.0
C5068 C 0.74229 0.42967 0.82719 0.0
C5069 C 0.75228 0.41536 0.84107 0.0
C5070 C 0.74816 0.4387 0.83382 0.0
C5071 C 0.75502 0.44703 0.82876 0.0
C5072 C 0.75607 0.44651 0.81698 0.0
C5073 C 0.74997 0.43755 0.81038 0.0
C5074 C 0.74313 0.42923 0.81545 0.0
H5075 H 0.75479 0.40799 0.84412 0.0
H5076 H 0.75722 0.41707 0.83327 0.0
H5077 H 0.75447 0.42251 0.84754 0.0
H5078 H 0.74744 0.4393 0.8429 0.0
H5079 H 0.75947 0.45391 0.83406 0.0
H5080 H 0.6513 0.68713 0.84825 0.0
H5081 H 0.63963 0.69739 0.83856 0.0
H5082 H 0.66363 0.72694 0.84546 0.0
H5083 H 0.67538 0.71678 0.85491 0.0
H5084 H 0.62976 0.71513 0.8475 0.0
H5085 H 0.6586 0.7269 0.81236 0.0
H5086 H 0.66077 0.71632 0.8208 0.0
H5087 H 0.66517 0.73065 0.82567 0.0
C5088 C 0.65416 0.69578 0.84756 0.0
C5089 C 0.66429 0.70113 0.85233 0.0
C5090 C 0.64748 0.70163 0.84204 0.0
C5091 C 0.65085 0.71289 0.84112 0.0
C5092 C 0.66099 0.7182 0.8458 0.0
H5093 H 0.62613 0.77017 0.82773 0.0
H5094 H 0.63577 0.75574 0.83317 0.0
C5095 C 0.66767 0.71238 0.85129 0.0
C5096 C 0.64351 0.71934 0.83595 0.0
H5097 H 0.64377 0.73783 0.81697 0.0
C5098 C 0.63272 0.71993 0.84068 0.0
C5099 C 0.64738 0.72556 0.82701 0.0
C5100 C 0.65857 0.72475 0.82109 0.0
C5101 C 0.62597 0.72706 0.83713 0.0
C5102 C 0.6301 0.7337 0.82861 0.0
C5103 C 0.64067 0.73277 0.82356 0.0
C5104 C 0.62396 0.74226 0.82542 0.0
C5105 C 0.61468 0.72787 0.84284 0.0
C5106 C 0.61413 0.73942 0.81925 0.0
C5107 C 0.60857 0.74767 0.81613 0.0
C5108 C 0.61275 0.75887 0.8192 0.0
C5109 C 0.62259 0.76163 0.82541 0.0
C5110 C 0.62816 0.7534 0.82845 0.0
H5111 H 0.61319 0.723 0.8501 0.0
H5112 H 0.61399 0.73661 0.84581 0.0
H5113 H 0.60797 0.72477 0.83672 0.0
H5114 H 0.61082 0.73084 0.81677 0.0
H5115 H 0.60099 0.74529 0.81137 0.0
H5116 H 0.35377 0.65102 0.8175 0.0
H5117 H 0.34505 0.63238 0.81046 0.0
H5118 H 0.31508 0.63702 0.83028 0.0
H5119 H 0.32375 0.65563 0.83748 0.0
H5120 H 0.32139 0.61491 0.82879 0.0
H5121 H 0.31976 0.63078 0.78752 0.0
H5122 H 0.3334 0.63257 0.79349 0.0
H5123 H 0.32272 0.6398 0.80037 0.0
C5124 C 0.34541 0.64801 0.82055 0.0
C5125 C 0.33938 0.65488 0.8279 0.0
C5126 C 0.34044 0.63737 0.81651 0.0
C5127 C 0.32937 0.63344 0.81972 0.0
C5128 C 0.32363 0.63995 0.82769 0.0
H5129 H 0.27942 0.58793 0.78308 0.0
H5130 H 0.29034 0.60325 0.79452 0.0
C5131 C 0.32859 0.65059 0.83176 0.0
C5132 C 0.32333 0.62314 0.81386 0.0
H5133 H 0.31254 0.61211 0.78846 0.0
C5134 C 0.3195 0.61424 0.81996 0.0
C5135 C 0.32077 0.6224 0.80238 0.0
C5136 C 0.32428 0.63191 0.79554 0.0
C5137 C 0.31314 0.60455 0.81484 0.0
C5138 C 0.31063 0.60383 0.80335 0.0
C5139 C 0.31453 0.61272 0.79726 0.0
C5140 C 0.3036 0.59413 0.79748 0.0
C5141 C 0.30888 0.59531 0.82178 0.0
C5142 C 0.30742 0.5839 0.79545 0.0
C5143 C 0.30116 0.57509 0.78894 0.0
C5144 C 0.291 0.57639 0.78435 0.0
C5145 C 0.28711 0.5866 0.78663 0.0
C5146 C 0.29337 0.59538 0.79311 0.0
H5147 H 0.30974 0.59797 0.83093 0.0
H5148 H 0.29993 0.59211 0.82008 0.0
H5149 H 0.31376 0.58843 0.81945 0.0
H5150 H 0.31538 0.58283 0.79862 0.0
H5151 H 0.30433 0.5673 0.7874 0.0
H5152 H 0.37888 0.33533 0.84412 0.0
H5153 H 0.39167 0.32692 0.83059 0.0
H5154 H 0.39863 0.3569 0.81488 0.0
H5155 H 0.3858 0.36545 0.82843 0.0
H5156 H 0.39056 0.32437 0.80615 0.0
H5157 H 0.4301 0.34963 0.82224 0.0
H5158 H 0.41719 0.34839 0.83054 0.0
H5159 H 0.41901 0.35697 0.81937 0.0
C5160 C 0.38312 0.34018 0.8378 0.0
C5161 C 0.38133 0.3511 0.8374 0.0
C5162 C 0.39042 0.33533 0.83007 0.0
C5163 C 0.39618 0.34133 0.82183 0.0
C5164 C 0.39437 0.35219 0.82129 0.0
H5165 H 0.44621 0.32358 0.77088 0.0
H5166 H 0.43354 0.33331 0.78346 0.0
C5167 C 0.38699 0.35704 0.829 0.0
C5168 C 0.40397 0.33607 0.81375 0.0
H5169 H 0.4317 0.33661 0.80638 0.0
C5170 C 0.39956 0.32705 0.80617 0.0
C5171 C 0.41568 0.33963 0.81379 0.0
C5172 C 0.42085 0.34914 0.82196 0.0
C5173 C 0.40654 0.32148 0.79858 0.0
C5174 C 0.4183 0.32485 0.79879 0.0
C5175 C 0.4227 0.334 0.80627 0.0
C5176 C 0.42617 0.31896 0.79136 0.0
C5177 C 0.40124 0.31215 0.79029 0.0
C5178 C 0.42642 0.3077 0.79178 0.0
C5179 C 0.43356 0.30208 0.78452 0.0
C5180 C 0.44071 0.30763 0.77674 0.0
C5181 C 0.44069 0.319 0.77661 0.0
C5182 C 0.4335 0.3246 0.78385 0.0
H5183 H 0.39231 0.31273 0.78899 0.0
H5184 H 0.4058 0.31206 0.78203 0.0
H5185 H 0.40151 0.30419 0.79358 0.0
H5186 H 0.42103 0.30323 0.79769 0.0
H5187 H 0.43328 0.29332 0.78482 0.0
H5188 H 0.34397 0.38494 0.21918 0.0
H5189 H 0.33504 0.39886 0.23089 0.0
H5190 H 0.36744 0.41558 0.24187 0.0
H5191 H 0.37652 0.4017 0.23001 0.0
H5192 H 0.33602 0.40484 0.25415 0.0
H5193 H 0.3531 0.44012 0.23052 0.0
H5194 H 0.35361 0.42597 0.22488 0.0
H5195 H 0.36325 0.43272 0.23542 0.0
C5196 C 0.34923 0.39156 0.22407 0.0
C5197 C 0.36097 0.39223 0.22361 0.0
C5198 C 0.3441 0.39951 0.23077 0.0
C5199 C 0.35058 0.40833 0.23712 0.0
C5200 C 0.3623 0.40895 0.23687 0.0
H5201 H 0.32566 0.46353 0.27891 0.0
H5202 H 0.33809 0.45094 0.26982 0.0
C5203 C 0.36746 0.40097 0.23014 0.0
C5204 C 0.34493 0.41677 0.24401 0.0
H5205 H 0.34113 0.44377 0.24615 0.0
C5206 C 0.33719 0.41337 0.25246 0.0
C5207 C 0.34652 0.4279 0.2418 0.0
C5208 C 0.3545 0.43194 0.23261 0.0
C5209 C 0.33084 0.42074 0.25862 0.0
C5210 C 0.33214 0.43177 0.25614 0.0
C5211 C 0.34015 0.43529 0.24798 0.0
C5212 C 0.32475 0.43954 0.26147 0.0
C5213 C 0.32272 0.41665 0.26768 0.0
C5214 C 0.3132 0.43739 0.25959 0.0
C5215 C 0.30611 0.44453 0.26474 0.0
C5216 C 0.31043 0.45401 0.27185 0.0
C5217 C 0.32206 0.45625 0.27356 0.0
C5218 C 0.32917 0.4491 0.26835 0.0
H5219 H 0.32491 0.40909 0.27061 0.0
H5220 H 0.32254 0.42307 0.27499 0.0
H5221 H 0.31416 0.41461 0.26427 0.0
H5222 H 0.30965 0.43014 0.25416 0.0
H5223 H 0.29719 0.44248 0.26335 0.0
H5224 H 0.71479 0.3286 0.25408 0.0
H5225 H 0.69707 0.32991 0.26443 0.0
H5226 H 0.68966 0.3535 0.24329 0.0
H5227 H 0.70744 0.35226 0.23281 0.0
H5228 H 0.68868 0.34976 0.27589 0.0
H5229 H 0.66257 0.3273 0.2407 0.0
H5230 H 0.67735 0.3266 0.24131 0.0
H5231 H 0.67286 0.33887 0.23774 0.0
C5232 C 0.70944 0.33411 0.25163 0.0
C5233 C 0.71249 0.34027 0.24256 0.0
C5234 C 0.69934 0.33487 0.25759 0.0
C5235 C 0.69206 0.34174 0.25455 0.0
C5236 C 0.69515 0.34809 0.24567 0.0
H5237 H 0.62976 0.3486 0.29469 0.0
H5238 H 0.64681 0.35355 0.2833 0.0
C5239 C 0.70531 0.34738 0.23972 0.0
C5240 C 0.68109 0.34184 0.26052 0.0
H5241 H 0.65326 0.3317 0.2579 0.0
C5242 C 0.68089 0.346 0.27194 0.0
C5243 C 0.67101 0.33685 0.2553 0.0
C5244 C 0.67086 0.33208 0.2431 0.0
C5245 C 0.67087 0.34495 0.27839 0.0
C5246 C 0.66085 0.33965 0.27326 0.0
C5247 C 0.66098 0.33583 0.26176 0.0
C5248 C 0.65044 0.33686 0.27994 0.0
C5249 C 0.67111 0.34901 0.29078 0.0
C5250 C 0.64686 0.32585 0.2817 0.0
C5251 C 0.63725 0.32302 0.28825 0.0
C5252 C 0.63093 0.33113 0.29308 0.0
C5253 C 0.63449 0.34217 0.29119 0.0
C5254 C 0.64419 0.34501 0.28466 0.0
H5255 H 0.67977 0.35204 0.29368 0.0
H5256 H 0.66611 0.35586 0.29254 0.0
H5257 H 0.66725 0.3423 0.29573 0.0
H5258 H 0.65164 0.31946 0.27816 0.0
H5259 H 0.6349 0.31448 0.2897 0.0
H5260 H 0.35529 0.686 0.19127 0.0
H5261 H 0.37057 0.69933 0.19964 0.0
H5262 H 0.39374 0.68715 0.17449 0.0
H5263 H 0.37851 0.67347 0.16627 0.0
H5264 H 0.40243 0.68981 0.19474 0.0
H5265 H 0.38532 0.7276 0.1889 0.0
H5266 H 0.37559 0.71856 0.19656 0.0
H5267 H 0.37946 0.71419 0.18221 0.0
C5268 C 0.36361 0.6862 0.18745 0.0
C5269 C 0.36567 0.67871 0.17806 0.0
C5270 C 0.37234 0.69389 0.19221 0.0
C5271 C 0.38326 0.69442 0.18755 0.0
C5272 C 0.38536 0.68694 0.17818 0.0
H5273 H 0.43465 0.74987 0.20883 0.0
H5274 H 0.42133 0.73626 0.19794 0.0
C5275 C 0.37665 0.67914 0.17349 0.0
C5276 C 0.39254 0.70249 0.19276 0.0
H5277 H 0.40006 0.72975 0.20207 0.0
C5278 C 0.40197 0.69856 0.19624 0.0
C5279 C 0.39205 0.71394 0.19454 0.0
C5280 C 0.38262 0.71883 0.19024 0.0
C5281 C 0.41075 0.70572 0.20175 0.0
C5282 C 0.40991 0.71706 0.20416 0.0
C5283 C 0.40064 0.72103 0.20038 0.0
C5284 C 0.4185 0.725 0.21061 0.0
C5285 C 0.42087 0.70104 0.20479 0.0
C5286 C 0.42135 0.72324 0.22139 0.0
C5287 C 0.42919 0.73091 0.22756 0.0
C5288 C 0.43418 0.74063 0.22318 0.0
C5289 C 0.4312 0.7424 0.21241 0.0
C5290 C 0.42348 0.73466 0.2062 0.0
H5291 H 0.42189 0.69334 0.19926 0.0
H5292 H 0.42868 0.70704 0.20417 0.0
H5293 H 0.41978 0.69897 0.21356 0.0
H5294 H 0.41741 0.716 0.22511 0.0
H5295 H 0.43133 0.72919 0.23576 0.0
loop_
_geom_bond_atom_site_label_1
_geom_bond_atom_site_label_2
_geom_bond_distance
_geom_bond_site_symmetry_2
_ccdc_geom_bond_type
O0 Cd1 2.300 . S
O0 C7 1.275 . S
Cd1 O0 2.300 . S
Cd1 O9 2.381 . S
Cd1 O10 2.378 . S
O2 Cd3 2.385 . S
O2 C7 1.255 . S
Cd3 O2 2.385 . S
Cd3 O4 2.317 . S
O4 Cd3 2.317 . S
O4 C5 1.232 . S
C5 O4 1.232 . S
C5 O6 1.218 . S
O6 C5 1.218 . S
C7 O0 1.275 . S
C7 O2 1.255 . S
C8 O9 1.258 . S
C8 O10 1.256 . S
O9 Cd1 2.381 . S
O9 C8 1.258 . S
O10 Cd1 2.378 . S
O10 C8 1.256 . S
O11 Cd12 2.300 . S
O11 C18 1.275 . S
Cd12 O11 2.300 . S
Cd12 O20 2.381 . S
Cd12 O21 2.378 . S
O13 Cd14 2.385 . S
O13 C18 1.255 . S
Cd14 O13 2.385 . S
Cd14 O15 2.317 . S
O15 Cd14 2.317 . S
O15 C16 1.232 . S
C16 O15 1.232 . S
C16 O17 1.218 . S
O17 C16 1.218 . S
C18 O11 1.275 . S
C18 O13 1.255 . S
C19 O20 1.258 . S
C19 O21 1.256 . S
O20 Cd12 2.381 . S
O20 C19 1.258 . S
O21 Cd12 2.378 . S
O21 C19 1.256 . S
O22 Cd23 2.300 . S
O22 C29 1.275 . S
Cd23 O22 2.300 . S
Cd23 O31 2.381 . S
Cd23 O32 2.378 . S
O24 Cd25 2.385 . S
O24 C29 1.255 . S
Cd25 O24 2.385 . S
Cd25 O26 2.317 . S
O26 Cd25 2.317 . S
O26 C27 1.232 . S
C27 O26 1.232 . S
C27 O28 1.218 . S
O28 C27 1.218 . S
C29 O22 1.275 . S
C29 O24 1.255 . S
C30 O31 1.258 . S
C30 O32 1.256 . S
O31 Cd23 2.381 . S
O31 C30 1.258 . S
O32 Cd23 2.378 . S
O32 C30 1.256 . S
O33 Cd34 2.300 . S
O33 C40 1.275 . S
Cd34 O33 2.300 . S
Cd34 O42 2.381 . S
Cd34 O43 2.378 . S
O35 Cd36 2.385 . S
O35 C40 1.255 . S
Cd36 O35 2.385 . S
Cd36 O37 2.317 . S
O37 Cd36 2.317 . S
O37 C38 1.232 . S
C38 O37 1.232 . S
C38 O39 1.218 . S
O39 C38 1.218 . S
C40 O33 1.275 . S
C40 O35 1.255 . S
C41 O42 1.258 . S
C41 O43 1.256 . S
O42 Cd34 2.381 . S
O42 C41 1.258 . S
O43 Cd34 2.378 . S
O43 C41 1.256 . S
O44 Cd45 2.300 . S
O44 C51 1.275 . S
Cd45 O44 2.300 . S
Cd45 O53 2.381 . S
Cd45 O54 2.378 . S
O46 Cd47 2.385 . S
O46 C51 1.255 . S
Cd47 O46 2.385 . S
Cd47 O48 2.317 . S
O48 Cd47 2.317 . S
O48 C49 1.232 . S
C49 O48 1.232 . S
C49 O50 1.218 . S
O50 C49 1.218 . S
C51 O44 1.275 . S
C51 O46 1.255 . S
C52 O53 1.258 . S
C52 O54 1.256 . S
O53 Cd45 2.381 . S
O53 C52 1.258 . S
O54 Cd45 2.378 . S
O54 C52 1.256 . S
O55 Cd56 2.300 . S
O55 C62 1.275 . S
Cd56 O55 2.300 . S
Cd56 O64 2.381 . S
Cd56 O65 2.378 . S
O57 Cd58 2.385 . S
O57 C62 1.255 . S
Cd58 O57 2.385 . S
Cd58 O59 2.317 . S
O59 Cd58 2.317 . S
O59 C60 1.232 . S
C60 O59 1.232 . S
C60 O61 1.218 . S
O61 C60 1.218 . S
C62 O55 1.275 . S
C62 O57 1.255 . S
C63 O64 1.258 . S
C63 O65 1.256 . S
O64 Cd56 2.381 . S
O64 C63 1.258 . S
O65 Cd56 2.378 . S
O65 C63 1.256 . S
O66 Cd67 2.300 . S
O66 C73 1.275 . S
Cd67 O66 2.300 . S
Cd67 O75 2.381 . S
Cd67 O76 2.378 . S
O68 Cd69 2.385 . S
O68 C73 1.255 . S
Cd69 O68 2.385 . S
Cd69 O70 2.317 . S
O70 Cd69 2.317 . S
O70 C71 1.232 . S
C71 O70 1.232 . S
C71 O72 1.218 . S
O72 C71 1.218 . S
C73 O66 1.275 . S
C73 O68 1.255 . S
C74 O75 1.258 . S
C74 O76 1.256 . S
O75 Cd67 2.381 . S
O75 C74 1.258 . S
O76 Cd67 2.378 . S
O76 C74 1.256 . S
O77 Cd78 2.300 . S
O77 C84 1.275 . S
Cd78 O77 2.300 . S
Cd78 O86 2.381 . S
Cd78 O87 2.378 . S
O79 Cd80 2.385 . S
O79 C84 1.255 . S
Cd80 O79 2.385 . S
Cd80 O81 2.317 . S
O81 Cd80 2.317 . S
O81 C82 1.232 . S
C82 O81 1.232 . S
C82 O83 1.218 . S
O83 C82 1.218 . S
C84 O77 1.275 . S
C84 O79 1.255 . S
C85 O86 1.258 . S
C85 O87 1.256 . S
O86 Cd78 2.381 . S
O86 C85 1.258 . S
O87 Cd78 2.378 . S
O87 C85 1.256 . S
O88 Cd89 2.300 . S
O88 C95 1.275 . S
Cd89 O88 2.300 . S
Cd89 O97 2.381 . S
Cd89 O98 2.378 . S
O90 Cd91 2.385 . S
O90 C95 1.255 . S
Cd91 O90 2.385 . S
Cd91 O92 2.317 . S
O92 Cd91 2.317 . S
O92 C93 1.232 . S
C93 O92 1.232 . S
C93 O94 1.218 . S
O94 C93 1.218 . S
C95 O88 1.275 . S
C95 O90 1.255 . S
C96 O97 1.258 . S
C96 O98 1.256 . S
O97 Cd89 2.381 . S
O97 C96 1.258 . S
O98 Cd89 2.378 . S
O98 C96 1.256 . S
O99 Cd100 2.300 . S
O99 C106 1.275 . S
Cd100 O99 2.300 . S
Cd100 O108 2.381 . S
Cd100 O109 2.378 . S
O101 Cd102 2.385 . S
O101 C106 1.255 . S
Cd102 O101 2.385 . S
Cd102 O103 2.317 . S
O103 Cd102 2.317 . S
O103 C104 1.232 . S
C104 O103 1.232 . S
C104 O105 1.218 . S
O105 C104 1.218 . S
C106 O99 1.275 . S
C106 O101 1.255 . S
C107 O108 1.258 . S
C107 O109 1.256 . S
O108 Cd100 2.381 . S
O108 C107 1.258 . S
O109 Cd100 2.378 . S
O109 C107 1.256 . S
O110 Cd111 2.300 . S
O110 C117 1.275 . S
Cd111 O110 2.300 . S
Cd111 O119 2.381 . S
Cd111 O120 2.378 . S
O112 Cd113 2.385 . S
O112 C117 1.255 . S
Cd113 O112 2.385 . S
Cd113 O114 2.317 . S
O114 Cd113 2.317 . S
O114 C115 1.232 . S
C115 O114 1.232 . S
C115 O116 1.218 . S
O116 C115 1.218 . S
C117 O110 1.275 . S
C117 O112 1.255 . S
C118 O119 1.258 . S
C118 O120 1.256 . S
O119 Cd111 2.381 . S
O119 C118 1.258 . S
O120 Cd111 2.378 . S
O120 C118 1.256 . S
O121 Cd122 2.300 . S
O121 C128 1.275 . S
Cd122 O121 2.300 . S
Cd122 O130 2.381 . S
Cd122 O131 2.378 . S
O123 Cd124 2.385 . S
O123 C128 1.255 . S
Cd124 O123 2.385 . S
Cd124 O125 2.317 . S
O125 Cd124 2.317 . S
O125 C126 1.232 . S
C126 O125 1.232 . S
C126 O127 1.218 . S
O127 C126 1.218 . S
C128 O121 1.275 . S
C128 O123 1.255 . S
C129 O130 1.258 . S
C129 O131 1.256 . S
O130 Cd122 2.381 . S
O130 C129 1.258 . S
O131 Cd122 2.378 . S
O131 C129 1.256 . S
O132 Cd133 2.300 . S
O132 C139 1.275 . S
Cd133 O132 2.300 . S
Cd133 O141 2.381 . S
Cd133 O142 2.378 . S
O134 Cd135 2.385 . S
O134 C139 1.255 . S
Cd135 O134 2.385 . S
Cd135 O136 2.317 . S
O136 Cd135 2.317 . S
O136 C137 1.232 . S
C137 O136 1.232 . S
C137 O138 1.218 . S
O138 C137 1.218 . S
C139 O132 1.275 . S
C139 O134 1.255 . S
C140 O141 1.258 . S
C140 O142 1.256 . S
O141 Cd133 2.381 . S
O141 C140 1.258 . S
O142 Cd133 2.378 . S
O142 C140 1.256 . S
O143 Cd144 2.300 . S
O143 C150 1.275 . S
Cd144 O143 2.300 . S
Cd144 O152 2.381 . S
Cd144 O153 2.378 . S
O145 Cd146 2.385 . S
O145 C150 1.255 . S
Cd146 O145 2.385 . S
Cd146 O147 2.317 . S
O147 Cd146 2.317 . S
O147 C148 1.232 . S
C148 O147 1.232 . S
C148 O149 1.218 . S
O149 C148 1.218 . S
C150 O143 1.275 . S
C150 O145 1.255 . S
C151 O152 1.258 . S
C151 O153 1.256 . S
O152 Cd144 2.381 . S
O152 C151 1.258 . S
O153 Cd144 2.378 . S
O153 C151 1.256 . S
O154 Cd155 2.300 . S
O154 C161 1.275 . S
Cd155 O154 2.300 . S
Cd155 O163 2.381 . S
Cd155 O164 2.378 . S
O156 Cd157 2.385 . S
O156 C161 1.255 . S
Cd157 O156 2.385 . S
Cd157 O158 2.317 . S
O158 Cd157 2.317 . S
O158 C159 1.232 . S
C159 O158 1.232 . S
C159 O160 1.218 . S
O160 C159 1.218 . S
C161 O154 1.275 . S
C161 O156 1.255 . S
C162 O163 1.258 . S
C162 O164 1.256 . S
O163 Cd155 2.381 . S
O163 C162 1.258 . S
O164 Cd155 2.378 . S
O164 C162 1.256 . S
O165 Cd166 2.300 . S
O165 C172 1.275 . S
Cd166 O165 2.300 . S
Cd166 O174 2.381 . S
Cd166 O175 2.378 . S
O167 Cd168 2.385 . S
O167 C172 1.255 . S
Cd168 O167 2.385 . S
Cd168 O169 2.317 . S
O169 Cd168 2.317 . S
O169 C170 1.232 . S
C170 O169 1.232 . S
C170 O171 1.218 . S
O171 C170 1.218 . S
C172 O165 1.275 . S
C172 O167 1.255 . S
C173 O174 1.258 . S
C173 O175 1.256 . S
O174 Cd166 2.381 . S
O174 C173 1.258 . S
O175 Cd166 2.378 . S
O175 C173 1.256 . S
O176 Cd177 2.300 . S
O176 C183 1.275 . S
Cd177 O176 2.300 . S
Cd177 O185 2.381 . S
Cd177 O186 2.378 . S
O178 Cd179 2.385 . S
O178 C183 1.255 . S
Cd179 O178 2.385 . S
Cd179 O180 2.317 . S
O180 Cd179 2.317 . S
O180 C181 1.232 . S
C181 O180 1.232 . S
C181 O182 1.218 . S
O182 C181 1.218 . S
C183 O176 1.275 . S
C183 O178 1.255 . S
C184 O185 1.258 . S
C184 O186 1.256 . S
O185 Cd177 2.381 . S
O185 C184 1.258 . S
O186 Cd177 2.378 . S
O186 C184 1.256 . S
O187 Cd188 2.300 . S
O187 C194 1.275 . S
Cd188 O187 2.300 . S
Cd188 O196 2.381 . S
Cd188 O197 2.378 . S
O189 Cd190 2.385 . S
O189 C194 1.255 . S
Cd190 O189 2.385 . S
Cd190 O191 2.317 . S
O191 Cd190 2.317 . S
O191 C192 1.232 . S
C192 O191 1.232 . S
C192 O193 1.218 . S
O193 C192 1.218 . S
C194 O187 1.275 . S
C194 O189 1.255 . S
C195 O196 1.258 . S
C195 O197 1.256 . S
O196 Cd188 2.381 . S
O196 C195 1.258 . S
O197 Cd188 2.378 . S
O197 C195 1.256 . S
O198 Cd199 2.300 . S
O198 C205 1.275 . S
Cd199 O198 2.300 . S
Cd199 O207 2.381 . S
Cd199 O208 2.378 . S
O200 Cd201 2.385 . S
O200 C205 1.255 . S
Cd201 O200 2.385 . S
Cd201 O202 2.317 . S
O202 Cd201 2.317 . S
O202 C203 1.232 . S
C203 O202 1.232 . S
C203 O204 1.218 . S
O204 C203 1.218 . S
C205 O198 1.275 . S
C205 O200 1.255 . S
C206 O207 1.258 . S
C206 O208 1.256 . S
O207 Cd199 2.381 . S
O207 C206 1.258 . S
O208 Cd199 2.378 . S
O208 C206 1.256 . S
O209 Cd210 2.300 . S
O209 C216 1.275 . S
Cd210 O209 2.300 . S
Cd210 O218 2.381 . S
Cd210 O219 2.378 . S
O211 Cd212 2.385 . S
O211 C216 1.255 . S
Cd212 O211 2.385 . S
Cd212 O213 2.317 . S
O213 Cd212 2.317 . S
O213 C214 1.232 . S
C214 O213 1.232 . S
C214 O215 1.218 . S
O215 C214 1.218 . S
C216 O209 1.275 . S
C216 O211 1.255 . S
C217 O218 1.258 . S
C217 O219 1.256 . S
O218 Cd210 2.381 . S
O218 C217 1.258 . S
O219 Cd210 2.378 . S
O219 C217 1.256 . S
O220 Cd221 2.300 . S
O220 C227 1.275 . S
Cd221 O220 2.300 . S
Cd221 O229 2.381 . S
Cd221 O230 2.378 . S
O222 Cd223 2.385 . S
O222 C227 1.255 . S
Cd223 O222 2.385 . S
Cd223 O224 2.317 . S
O224 Cd223 2.317 . S
O224 C225 1.232 . S
C225 O224 1.232 . S
C225 O226 1.218 . S
O226 C225 1.218 . S
C227 O220 1.275 . S
C227 O222 1.255 . S
C228 O229 1.258 . S
C228 O230 1.256 . S
O229 Cd221 2.381 . S
O229 C228 1.258 . S
O230 Cd221 2.378 . S
O230 C228 1.256 . S
O231 Cd232 2.300 . S
O231 C238 1.275 . S
Cd232 O231 2.300 . S
Cd232 O240 2.381 . S
Cd232 O241 2.378 . S
O233 Cd234 2.385 . S
O233 C238 1.255 . S
Cd234 O233 2.385 . S
Cd234 O235 2.317 . S
O235 Cd234 2.317 . S
O235 C236 1.232 . S
C236 O235 1.232 . S
C236 O237 1.218 . S
O237 C236 1.218 . S
C238 O231 1.275 . S
C238 O233 1.255 . S
C239 O240 1.258 . S
C239 O241 1.256 . S
O240 Cd232 2.381 . S
O240 C239 1.258 . S
O241 Cd232 2.378 . S
O241 C239 1.256 . S
O242 Cd243 2.300 . S
O242 C249 1.275 . S
Cd243 O242 2.300 . S
Cd243 O251 2.381 . S
Cd243 O252 2.378 . S
O244 Cd245 2.385 . S
O244 C249 1.255 . S
Cd245 O244 2.385 . S
Cd245 O246 2.317 . S
O246 Cd245 2.317 . S
O246 C247 1.232 . S
C247 O246 1.232 . S
C247 O248 1.218 . S
O248 C247 1.218 . S
C249 O242 1.275 . S
C249 O244 1.255 . S
C250 O251 1.258 . S
C250 O252 1.256 . S
O251 Cd243 2.381 . S
O251 C250 1.258 . S
O252 Cd243 2.378 . S
O252 C250 1.256 . S
O253 Cd254 2.300 . S
O253 C260 1.275 . S
Cd254 O253 2.300 . S
Cd254 O262 2.381 . S
Cd254 O263 2.378 . S
O255 Cd256 2.385 . S
O255 C260 1.255 . S
Cd256 O255 2.385 . S
Cd256 O257 2.317 . S
O257 Cd256 2.317 . S
O257 C258 1.232 . S
C258 O257 1.232 . S
C258 O259 1.218 . S
O259 C258 1.218 . S
C260 O253 1.275 . S
C260 O255 1.255 . S
C261 O262 1.258 . S
C261 O263 1.256 . S
O262 Cd254 2.381 . S
O262 C261 1.258 . S
O263 Cd254 2.378 . S
O263 C261 1.256 . S
O264 Cd265 2.300 . S
O264 C271 1.275 . S
Cd265 O264 2.300 . S
Cd265 O273 2.381 . S
Cd265 O274 2.378 . S
O266 Cd267 2.385 . S
O266 C271 1.255 . S
Cd267 O266 2.385 . S
Cd267 O268 2.317 . S
O268 Cd267 2.317 . S
O268 C269 1.232 . S
C269 O268 1.232 . S
C269 O270 1.218 . S
O270 C269 1.218 . S
C271 O264 1.275 . S
C271 O266 1.255 . S
C272 O273 1.258 . S
C272 O274 1.256 . S
O273 Cd265 2.381 . S
O273 C272 1.258 . S
O274 Cd265 2.378 . S
O274 C272 1.256 . S
O275 Cd276 2.300 . S
O275 C282 1.275 . S
Cd276 O275 2.300 . S
Cd276 O284 2.381 . S
Cd276 O285 2.378 . S
O277 Cd278 2.385 . S
O277 C282 1.255 . S
Cd278 O277 2.385 . S
Cd278 O279 2.317 . S
O279 Cd278 2.317 . S
O279 C280 1.232 . S
C280 O279 1.232 . S
C280 O281 1.218 . S
O281 C280 1.218 . S
C282 O275 1.275 . S
C282 O277 1.255 . S
C283 O284 1.258 . S
C283 O285 1.256 . S
O284 Cd276 2.381 . S
O284 C283 1.258 . S
O285 Cd276 2.378 . S
O285 C283 1.256 . S
O286 Cd287 2.300 . S
O286 C293 1.275 . S
Cd287 O286 2.300 . S
Cd287 O295 2.381 . S
Cd287 O296 2.378 . S
O288 Cd289 2.385 . S
O288 C293 1.255 . S
Cd289 O288 2.385 . S
Cd289 O290 2.317 . S
O290 Cd289 2.317 . S
O290 C291 1.232 . S
C291 O290 1.232 . S
C291 O292 1.218 . S
O292 C291 1.218 . S
C293 O286 1.275 . S
C293 O288 1.255 . S
C294 O295 1.258 . S
C294 O296 1.256 . S
O295 Cd287 2.381 . S
O295 C294 1.258 . S
O296 Cd287 2.378 . S
O296 C294 1.256 . S
O297 Cd298 2.300 . S
O297 C304 1.275 . S
Cd298 O297 2.300 . S
Cd298 O306 2.381 . S
Cd298 O307 2.378 . S
O299 Cd300 2.385 . S
O299 C304 1.255 . S
Cd300 O299 2.385 . S
Cd300 O301 2.317 . S
O301 Cd300 2.317 . S
O301 C302 1.232 . S
C302 O301 1.232 . S
C302 O303 1.218 . S
O303 C302 1.218 . S
C304 O297 1.275 . S
C304 O299 1.255 . S
C305 O306 1.258 . S
C305 O307 1.256 . S
O306 Cd298 2.381 . S
O306 C305 1.258 . S
O307 Cd298 2.378 . S
O307 C305 1.256 . S
O308 Cd309 2.300 . S
O308 C315 1.275 . S
Cd309 O308 2.300 . S
Cd309 O317 2.381 . S
Cd309 O318 2.378 . S
O310 Cd311 2.385 . S
O310 C315 1.255 . S
Cd311 O310 2.385 . S
Cd311 O312 2.317 . S
O312 Cd311 2.317 . S
O312 C313 1.232 . S
C313 O312 1.232 . S
C313 O314 1.218 . S
O314 C313 1.218 . S
C315 O308 1.275 . S
C315 O310 1.255 . S
C316 O317 1.258 . S
C316 O318 1.256 . S
O317 Cd309 2.381 . S
O317 C316 1.258 . S
O318 Cd309 2.378 . S
O318 C316 1.256 . S
O319 Cd320 2.300 . S
O319 C326 1.275 . S
Cd320 O319 2.300 . S
Cd320 O328 2.381 . S
Cd320 O329 2.378 . S
O321 Cd322 2.385 . S
O321 C326 1.255 . S
Cd322 O321 2.385 . S
Cd322 O323 2.317 . S
O323 Cd322 2.317 . S
O323 C324 1.232 . S
C324 O323 1.232 . S
C324 O325 1.218 . S
O325 C324 1.218 . S
C326 O319 1.275 . S
C326 O321 1.255 . S
C327 O328 1.258 . S
C327 O329 1.256 . S
O328 Cd320 2.381 . S
O328 C327 1.258 . S
O329 Cd320 2.378 . S
O329 C327 1.256 . S
O330 Cd331 2.300 . S
O330 C337 1.275 . S
Cd331 O330 2.300 . S
Cd331 O339 2.381 . S
Cd331 O340 2.378 . S
O332 Cd333 2.385 . S
O332 C337 1.255 . S
Cd333 O332 2.385 . S
Cd333 O334 2.317 . S
O334 Cd333 2.317 . S
O334 C335 1.232 . S
C335 O334 1.232 . S
C335 O336 1.218 . S
O336 C335 1.218 . S
C337 O330 1.275 . S
C337 O332 1.255 . S
C338 O339 1.258 . S
C338 O340 1.256 . S
O339 Cd331 2.381 . S
O339 C338 1.258 . S
O340 Cd331 2.378 . S
O340 C338 1.256 . S
O341 Cd342 2.300 . S
O341 C348 1.275 . S
Cd342 O341 2.300 . S
Cd342 O350 2.381 . S
Cd342 O351 2.378 . S
O343 Cd344 2.385 . S
O343 C348 1.255 . S
Cd344 O343 2.385 . S
Cd344 O345 2.317 . S
O345 Cd344 2.317 . S
O345 C346 1.232 . S
C346 O345 1.232 . S
C346 O347 1.218 . S
O347 C346 1.218 . S
C348 O341 1.275 . S
C348 O343 1.255 . S
C349 O350 1.258 . S
C349 O351 1.256 . S
O350 Cd342 2.381 . S
O350 C349 1.258 . S
O351 Cd342 2.378 . S
O351 C349 1.256 . S
H352 C379 0.929 . S
N353 C378 1.433 . S
N353 C384 1.435 . S
N353 C390 1.423 1_556 S
H354 C380 0.930 . S
H355 C383 0.902 1_554 S
H356 C382 0.965 . S
H357 C385 0.930 . S
H358 C386 0.932 . S
H359 C389 0.929 . S
H360 C388 0.931 . S
H361 C391 0.929 . S
H362 C395 0.932 . S
H363 C392 0.931 . S
H364 C394 0.929 . S
H365 C397 0.929 . S
H366 C398 0.930 . S
H367 C400 0.929 . S
H368 C401 0.931 . S
H369 C403 0.930 . S
H370 C404 0.932 . S
H371 C406 0.931 . S
H372 C407 0.929 . S
H373 C409 0.929 . S
H374 C410 0.931 . S
H375 C412 0.929 . S
N376 C396 1.433 . S
N376 C402 1.435 . S
N376 C408 1.423 . S
H377 C413 0.932 . S
C378 N353 1.433 . S
C378 C379 1.363 . S
C378 C383 1.388 . S
C379 H352 0.929 . S
C379 C378 1.363 . S
C379 C380 1.385 . S
C380 H354 0.930 . S
C380 C379 1.385 . S
C380 C381 1.357 . S
C381 C380 1.357 . S
C381 C382 1.406 . S
C382 H356 0.965 . S
C382 C381 1.406 . S
C382 C383 1.403 . S
C383 H355 0.902 1_556 S
C383 C378 1.388 . S
C383 C382 1.403 . S
C384 N353 1.435 . S
C384 C385 1.358 . S
C384 C389 1.371 . S
C385 H357 0.930 . S
C385 C384 1.358 . S
C385 C386 1.405 . S
C386 H358 0.932 . S
C386 C385 1.405 . S
C386 C387 1.383 . S
C387 C386 1.383 . S
C387 C388 1.393 . S
C388 H360 0.931 . S
C388 C387 1.393 . S
C388 C389 1.382 . S
C389 H359 0.929 . S
C389 C384 1.371 . S
C389 C388 1.382 . S
C390 N353 1.423 1_554 S
C390 C391 1.362 . S
C390 C395 1.388 . S
C391 H361 0.929 . S
C391 C390 1.362 . S
C391 C392 1.376 . S
C392 H363 0.931 . S
C392 C391 1.376 . S
C392 C393 1.396 . S
C393 C392 1.396 . S
C393 C394 1.348 . S
C393 C411 1.472 . S
C394 H364 0.929 . S
C394 C393 1.348 . S
C394 C395 1.443 . S
C395 H362 0.932 . S
C395 C390 1.388 . S
C395 C394 1.443 . S
C396 N376 1.433 . S
C396 C397 1.363 . S
C396 C401 1.370 . S
C397 H365 0.929 . S
C397 C396 1.363 . S
C397 C398 1.385 . S
C398 H366 0.930 . S
C398 C397 1.385 . S
C398 C399 1.357 . S
C399 C398 1.357 . S
C399 C400 1.406 . S
C400 H367 0.929 . S
C400 C399 1.406 . S
C400 C401 1.391 . S
C401 H368 0.931 . S
C401 C396 1.370 . S
C401 C400 1.391 . S
C402 N376 1.435 . S
C402 C403 1.358 . S
C402 C407 1.371 . S
C403 H369 0.930 . S
C403 C402 1.358 . S
C403 C404 1.405 . S
C404 H370 0.932 . S
C404 C403 1.405 . S
C404 C405 1.383 . S
C405 C404 1.383 . S
C405 C406 1.393 . S
C406 H371 0.931 . S
C406 C405 1.393 . S
C406 C407 1.382 . S
C407 H372 0.929 . S
C407 C402 1.371 . S
C407 C406 1.382 . S
C408 N376 1.423 . S
C408 C409 1.362 . S
C408 C413 1.388 . S
C409 H373 0.929 . S
C409 C408 1.362 . S
C409 C410 1.376 . S
C410 H374 0.931 . S
C410 C409 1.376 . S
C410 C411 1.396 . S
C411 C393 1.472 . S
C411 C410 1.396 . S
C411 C412 1.348 . S
C412 H375 0.929 . S
C412 C411 1.348 . S
C412 C413 1.443 . S
C413 H377 0.932 . S
C413 C408 1.388 . S
C413 C412 1.443 . S
H414 C441 0.929 . S
N415 C440 1.433 . S
N415 C446 1.435 . S
N415 C452 1.423 . S
H416 C442 0.930 . S
H417 C445 0.931 . S
H418 C444 0.929 . S
H419 C447 0.930 . S
H420 C448 0.932 . S
H421 C451 0.929 . S
H422 C450 0.931 . S
H423 C453 0.929 . S
H424 C457 0.932 . S
H425 C454 0.931 . S
H426 C456 0.952 . S
H427 C459 0.929 . S
H428 C460 0.930 . S
H429 C462 0.929 . S
H430 C463 0.931 . S
H431 C465 0.930 . S
H432 C466 0.932 . S
H433 C468 0.931 . S
H434 C469 0.929 . S
H435 C471 0.929 . S
H436 C472 0.931 . S
H437 C474 0.929 . S
N438 C458 1.433 . S
N438 C464 1.435 . S
N438 C470 1.423 . S
H439 C475 0.932 . S
C440 N415 1.433 . S
C440 C441 1.363 . S
C440 C445 1.370 . S
C441 H414 0.929 . S
C441 C440 1.363 . S
C441 C442 1.385 . S
C442 H416 0.930 . S
C442 C441 1.385 . S
C442 C443 1.357 . S
C443 C442 1.357 . S
C443 C444 1.406 . S
C444 H418 0.929 . S
C444 C443 1.406 . S
C444 C445 1.391 . S
C445 H417 0.931 . S
C445 C440 1.370 . S
C445 C444 1.391 . S
C446 N415 1.435 . S
C446 C447 1.358 . S
C446 C451 1.371 . S
C447 H419 0.930 . S
C447 C446 1.358 . S
C447 C448 1.405 . S
C448 H420 0.932 . S
C448 C447 1.405 . S
C448 C449 1.383 . S
C449 C448 1.383 . S
C449 C450 1.393 . S
C450 H422 0.931 . S
C450 C449 1.393 . S
C450 C451 1.382 . S
C451 H421 0.929 . S
C451 C446 1.371 . S
C451 C450 1.382 . S
C452 N415 1.423 . S
C452 C453 1.362 . S
C452 C457 1.388 . S
C453 H423 0.929 . S
C453 C452 1.362 . S
C453 C454 1.376 . S
C454 H425 0.931 . S
C454 C453 1.376 . S
C454 C455 1.376 1_556 S
C455 C454 1.376 1_554 S
C455 C456 1.329 1_554 S
C455 C473 1.509 . S
C456 H426 0.952 . S
C456 C455 1.329 1_556 S
C456 C457 1.443 . S
C457 H424 0.932 . S
C457 C452 1.388 . S
C457 C456 1.443 . S
C458 N438 1.433 . S
C458 C459 1.363 . S
C458 C463 1.370 . S
C459 H427 0.929 . S
C459 C458 1.363 . S
C459 C460 1.385 . S
C460 H428 0.930 . S
C460 C459 1.385 . S
C460 C461 1.357 . S
C461 C460 1.357 . S
C461 C462 1.406 . S
C462 H429 0.929 . S
C462 C461 1.406 . S
C462 C463 1.391 . S
C463 H430 0.931 . S
C463 C458 1.370 . S
C463 C462 1.391 . S
C464 N438 1.435 . S
C464 C465 1.358 . S
C464 C469 1.371 . S
C465 H431 0.930 . S
C465 C464 1.358 . S
C465 C466 1.405 . S
C466 H432 0.932 . S
C466 C465 1.405 . S
C466 C467 1.383 . S
C467 C466 1.383 . S
C467 C468 1.393 . S
C468 H433 0.931 . S
C468 C467 1.393 . S
C468 C469 1.382 . S
C469 H434 0.929 . S
C469 C464 1.371 . S
C469 C468 1.382 . S
C470 N438 1.423 . S
C470 C471 1.362 . S
C470 C475 1.388 . S
C471 H435 0.929 . S
C471 C470 1.362 . S
C471 C472 1.376 . S
C472 H436 0.931 . S
C472 C471 1.376 . S
C472 C473 1.396 . S
C473 C455 1.509 . S
C473 C472 1.396 . S
C473 C474 1.348 . S
C474 H437 0.929 . S
C474 C473 1.348 . S
C474 C475 1.443 . S
C475 H439 0.932 . S
C475 C470 1.388 . S
C475 C474 1.443 . S
H476 C503 0.929 . S
N477 C502 1.433 . S
N477 C508 1.435 . S
N477 C514 1.423 1_556 S
H478 C504 0.930 . S
H479 C507 0.897 1_554 S
H480 C506 0.957 . S
H481 C509 0.930 . S
H482 C510 0.932 . S
H483 C513 0.929 . S
H484 C512 0.931 . S
H485 C515 0.929 . S
H486 C519 0.932 . S
H487 C516 0.931 . S
H488 C518 0.929 . S
H489 C521 0.929 . S
H490 C522 0.930 . S
H491 C524 0.929 . S
H492 C525 0.931 . S
H493 C527 0.930 . S
H494 C528 0.932 . S
H495 C530 0.931 . S
H496 C531 0.929 . S
H497 C533 0.929 . S
H498 C534 0.931 . S
H499 C536 0.929 . S
N500 C520 1.433 . S
N500 C526 1.435 . S
N500 C532 1.423 . S
H501 C537 0.932 . S
C502 N477 1.433 . S
C502 C503 1.363 . S
C502 C507 1.390 . S
C503 H476 0.929 . S
C503 C502 1.363 . S
C503 C504 1.385 . S
C504 H478 0.930 . S
C504 C503 1.385 . S
C504 C505 1.357 . S
C505 C504 1.357 . S
C505 C506 1.406 . S
C506 H480 0.957 . S
C506 C505 1.406 . S
C506 C507 1.407 . S
C507 H479 0.897 1_556 S
C507 C502 1.390 . S
C507 C506 1.407 . S
C508 N477 1.435 . S
C508 C509 1.358 . S
C508 C513 1.371 . S
C509 H481 0.930 . S
C509 C508 1.358 . S
C509 C510 1.405 . S
C510 H482 0.932 . S
C510 C509 1.405 . S
C510 C511 1.383 . S
C511 C510 1.383 . S
C511 C512 1.393 . S
C512 H484 0.931 . S
C512 C511 1.393 . S
C512 C513 1.382 . S
C513 H483 0.929 . S
C513 C508 1.371 . S
C513 C512 1.382 . S
C514 N477 1.423 1_554 S
C514 C515 1.362 . S
C514 C519 1.388 . S
C515 H485 0.929 . S
C515 C514 1.362 . S
C515 C516 1.376 . S
C516 H487 0.931 . S
C516 C515 1.376 . S
C516 C517 1.396 . S
C517 C516 1.396 . S
C517 C518 1.348 . S
C517 C535 1.472 . S
C518 H488 0.929 . S
C518 C517 1.348 . S
C518 C519 1.443 . S
C519 H486 0.932 . S
C519 C514 1.388 . S
C519 C518 1.443 . S
C520 N500 1.433 . S
C520 C521 1.363 . S
C520 C525 1.370 . S
C521 H489 0.929 . S
C521 C520 1.363 . S
C521 C522 1.385 . S
C522 H490 0.930 . S
C522 C521 1.385 . S
C522 C523 1.357 . S
C523 C522 1.357 . S
C523 C524 1.406 . S
C524 H491 0.929 . S
C524 C523 1.406 . S
C524 C525 1.391 . S
C525 H492 0.931 . S
C525 C520 1.370 . S
C525 C524 1.391 . S
C526 N500 1.435 . S
C526 C527 1.358 . S
C526 C531 1.371 . S
C527 H493 0.930 . S
C527 C526 1.358 . S
C527 C528 1.405 . S
C528 H494 0.932 . S
C528 C527 1.405 . S
C528 C529 1.383 . S
C529 C528 1.383 . S
C529 C530 1.393 . S
C530 H495 0.931 . S
C530 C529 1.393 . S
C530 C531 1.382 . S
C531 H496 0.929 . S
C531 C526 1.371 . S
C531 C530 1.382 . S
C532 N500 1.423 . S
C532 C533 1.362 . S
C532 C537 1.388 . S
C533 H497 0.929 . S
C533 C532 1.362 . S
C533 C534 1.376 . S
C534 H498 0.931 . S
C534 C533 1.376 . S
C534 C535 1.396 . S
C535 C517 1.472 . S
C535 C534 1.396 . S
C535 C536 1.348 . S
C536 H499 0.929 . S
C536 C535 1.348 . S
C536 C537 1.443 . S
C537 H501 0.932 . S
C537 C532 1.388 . S
C537 C536 1.443 . S
H538 C565 0.929 . S
N539 C564 1.433 . S
N539 C570 1.435 . S
N539 C576 1.423 . S
H540 C566 0.930 . S
H541 C569 0.931 . S
H542 C568 0.929 . S
H543 C571 0.930 . S
H544 C572 0.932 . S
H545 C575 0.929 . S
H546 C574 0.931 . S
H547 C577 0.929 . S
H548 C581 0.932 . S
H549 C578 0.931 . S
H550 C580 0.929 . S
H551 C583 0.929 . S
H552 C584 0.930 . S
H553 C586 0.929 . S
H554 C587 0.931 . S
H555 C589 0.930 . S
H556 C590 0.932 . S
H557 C592 0.931 . S
H558 C593 0.929 . S
H559 C595 0.929 . S
H560 C596 0.931 . S
H561 C598 0.929 . S
N562 C582 1.433 . S
N562 C588 1.435 . S
N562 C594 1.423 . S
H563 C599 0.932 . S
C564 N539 1.433 . S
C564 C565 1.363 . S
C564 C569 1.370 . S
C565 H538 0.929 . S
C565 C564 1.363 . S
C565 C566 1.385 . S
C566 H540 0.930 . S
C566 C565 1.385 . S
C566 C567 1.357 . S
C567 C566 1.357 . S
C567 C568 1.406 . S
C568 H542 0.929 . S
C568 C567 1.406 . S
C568 C569 1.391 . S
C569 H541 0.931 . S
C569 C564 1.370 . S
C569 C568 1.391 . S
C570 N539 1.435 . S
C570 C571 1.358 . S
C570 C575 1.371 . S
C571 H543 0.930 . S
C571 C570 1.358 . S
C571 C572 1.405 . S
C572 H544 0.932 . S
C572 C571 1.405 . S
C572 C573 1.383 . S
C573 C572 1.383 . S
C573 C574 1.393 . S
C574 H546 0.931 . S
C574 C573 1.393 . S
C574 C575 1.382 . S
C575 H545 0.929 . S
C575 C570 1.371 . S
C575 C574 1.382 . S
C576 N539 1.423 . S
C576 C577 1.362 . S
C576 C581 1.388 . S
C577 H547 0.929 . S
C577 C576 1.362 . S
C577 C578 1.376 . S
C578 H549 0.931 . S
C578 C577 1.376 . S
C578 C579 1.396 . S
C579 C578 1.396 . S
C579 C580 1.348 . S
C579 C597 1.472 1_556 S
C580 H550 0.929 . S
C580 C579 1.348 . S
C580 C581 1.443 . S
C581 H548 0.932 . S
C581 C576 1.388 . S
C581 C580 1.443 . S
C582 N562 1.433 . S
C582 C583 1.363 . S
C582 C587 1.370 . S
C583 H551 0.929 . S
C583 C582 1.363 . S
C583 C584 1.385 . S
C584 H552 0.930 . S
C584 C583 1.385 . S
C584 C585 1.357 . S
C585 C584 1.357 . S
C585 C586 1.406 . S
C586 H553 0.929 . S
C586 C585 1.406 . S
C586 C587 1.391 . S
C587 H554 0.931 . S
C587 C582 1.370 . S
C587 C586 1.391 . S
C588 N562 1.435 . S
C588 C589 1.358 . S
C588 C593 1.371 . S
C589 H555 0.930 . S
C589 C588 1.358 . S
C589 C590 1.405 . S
C590 H556 0.932 . S
C590 C589 1.405 . S
C590 C591 1.383 . S
C591 C590 1.383 . S
C591 C592 1.393 . S
C592 H557 0.931 . S
C592 C591 1.393 . S
C592 C593 1.382 . S
C593 H558 0.929 . S
C593 C588 1.371 . S
C593 C592 1.382 . S
C594 N562 1.423 . S
C594 C595 1.362 . S
C594 C599 1.388 . S
C595 H559 0.929 . S
C595 C594 1.362 . S
C595 C596 1.376 . S
C596 H560 0.931 . S
C596 C595 1.376 . S
C596 C597 1.396 . S
C597 C579 1.472 1_554 S
C597 C596 1.396 . S
C597 C598 1.348 . S
C598 H561 0.929 . S
C598 C597 1.348 . S
C598 C599 1.443 . S
C599 H563 0.932 . S
C599 C594 1.388 . S
C599 C598 1.443 . S
H600 C627 0.929 . S
N601 C626 1.433 . S
N601 C632 1.435 . S
N601 C638 1.423 . S
H602 C628 0.930 . S
H603 C631 0.931 . S
H604 C630 0.929 . S
H605 C633 0.930 . S
H606 C634 0.932 . S
H607 C637 0.929 . S
H608 C636 0.931 . S
H609 C639 0.929 . S
H610 C643 0.932 . S
H611 C640 0.931 . S
H612 C642 0.929 . S
H613 C645 0.929 . S
H614 C646 0.930 . S
H615 C648 0.929 . S
H616 C649 0.931 . S
H617 C651 0.930 . S
H618 C652 0.932 . S
H619 C654 0.931 . S
H620 C655 0.929 . S
H621 C657 0.929 . S
H622 C658 0.931 . S
H623 C660 0.929 . S
N624 C644 1.433 . S
N624 C650 1.435 . S
N624 C656 1.423 . S
H625 C661 0.932 . S
C626 N601 1.433 . S
C626 C627 1.363 . S
C626 C631 1.370 . S
C627 H600 0.929 . S
C627 C626 1.363 . S
C627 C628 1.385 . S
C628 H602 0.930 . S
C628 C627 1.385 . S
C628 C629 1.357 . S
C629 C628 1.357 . S
C629 C630 1.406 . S
C630 H604 0.929 . S
C630 C629 1.406 . S
C630 C631 1.391 . S
C631 H603 0.931 . S
C631 C626 1.370 . S
C631 C630 1.391 . S
C632 N601 1.435 . S
C632 C633 1.358 . S
C632 C637 1.371 . S
C633 H605 0.930 . S
C633 C632 1.358 . S
C633 C634 1.405 . S
C634 H606 0.932 . S
C634 C633 1.405 . S
C634 C635 1.383 . S
C635 C634 1.383 . S
C635 C636 1.393 . S
C636 H608 0.931 . S
C636 C635 1.393 . S
C636 C637 1.382 . S
C637 H607 0.929 . S
C637 C632 1.371 . S
C637 C636 1.382 . S
C638 N601 1.423 . S
C638 C639 1.362 . S
C638 C643 1.388 . S
C639 H609 0.929 . S
C639 C638 1.362 . S
C639 C640 1.376 . S
C640 H611 0.931 . S
C640 C639 1.376 . S
C640 C641 1.396 . S
C641 C640 1.396 . S
C641 C642 1.348 . S
C641 C659 1.472 1_655 S
C642 H612 0.929 . S
C642 C641 1.348 . S
C642 C643 1.443 . S
C643 H610 0.932 . S
C643 C638 1.388 . S
C643 C642 1.443 . S
C644 N624 1.433 . S
C644 C645 1.363 . S
C644 C649 1.370 . S
C645 H613 0.929 . S
C645 C644 1.363 . S
C645 C646 1.385 . S
C646 H614 0.930 . S
C646 C645 1.385 . S
C646 C647 1.357 . S
C647 C646 1.357 . S
C647 C648 1.406 . S
C648 H615 0.929 . S
C648 C647 1.406 . S
C648 C649 1.391 . S
C649 H616 0.931 . S
C649 C644 1.370 . S
C649 C648 1.391 . S
C650 N624 1.435 . S
C650 C651 1.358 . S
C650 C655 1.371 . S
C651 H617 0.930 . S
C651 C650 1.358 . S
C651 C652 1.405 . S
C652 H618 0.932 . S
C652 C651 1.405 . S
C652 C653 1.383 . S
C653 C652 1.383 . S
C653 C654 1.393 . S
C654 H619 0.931 . S
C654 C653 1.393 . S
C654 C655 1.382 . S
C655 H620 0.929 . S
C655 C650 1.371 . S
C655 C654 1.382 . S
C656 N624 1.423 . S
C656 C657 1.362 . S
C656 C661 1.388 . S
C657 H621 0.929 . S
C657 C656 1.362 . S
C657 C658 1.376 . S
C658 H622 0.931 . S
C658 C657 1.376 . S
C658 C659 1.396 . S
C659 C641 1.472 1_455 S
C659 C658 1.396 . S
C659 C660 1.348 . S
C660 H623 0.929 . S
C660 C659 1.348 . S
C660 C661 1.443 . S
C661 H625 0.932 . S
C661 C656 1.388 . S
C661 C660 1.443 . S
H662 C689 0.929 . S
N663 C688 1.433 . S
N663 C694 1.435 . S
N663 C700 1.423 . S
H664 C690 0.930 . S
H665 C693 0.931 . S
H666 C692 0.929 . S
H667 C695 0.930 . S
H668 C696 0.932 . S
H669 C699 0.929 . S
H670 C698 0.931 . S
H671 C701 0.929 . S
H672 C705 0.932 . S
H673 C702 0.931 . S
H674 C704 0.929 . S
H675 C707 0.929 . S
H676 C708 0.930 . S
H677 C710 0.929 . S
H678 C711 0.931 . S
H679 C713 0.930 . S
H680 C714 0.932 . S
H681 C716 0.931 . S
H682 C717 0.929 . S
H683 C719 0.929 . S
H684 C720 0.901 1_545 S
H685 C722 0.929 . S
N686 C706 1.433 . S
N686 C712 1.435 . S
N686 C718 1.423 . S
H687 C723 0.932 . S
C688 N663 1.433 . S
C688 C689 1.363 . S
C688 C693 1.370 . S
C689 H662 0.929 . S
C689 C688 1.363 . S
C689 C690 1.385 . S
C690 H664 0.930 . S
C690 C689 1.385 . S
C690 C691 1.357 . S
C691 C690 1.357 . S
C691 C692 1.406 . S
C692 H666 0.929 . S
C692 C691 1.406 . S
C692 C693 1.391 . S
C693 H665 0.931 . S
C693 C688 1.370 . S
C693 C692 1.391 . S
C694 N663 1.435 . S
C694 C695 1.358 . S
C694 C699 1.371 . S
C695 H667 0.930 . S
C695 C694 1.358 . S
C695 C696 1.405 . S
C696 H668 0.932 . S
C696 C695 1.405 . S
C696 C697 1.383 . S
C697 C696 1.383 . S
C697 C698 1.393 . S
C698 H670 0.931 . S
C698 C697 1.393 . S
C698 C699 1.382 . S
C699 H669 0.929 . S
C699 C694 1.371 . S
C699 C698 1.382 . S
C700 N663 1.423 . S
C700 C701 1.362 . S
C700 C705 1.388 . S
C701 H671 0.929 . S
C701 C700 1.362 . S
C701 C702 1.376 . S
C702 H673 0.931 . S
C702 C701 1.376 . S
C702 C703 1.396 . S
C703 C702 1.396 . S
C703 C704 1.348 . S
C703 C721 1.461 1_545 S
C704 H674 0.929 . S
C704 C703 1.348 . S
C704 C705 1.443 . S
C705 H672 0.932 . S
C705 C700 1.388 . S
C705 C704 1.443 . S
C706 N686 1.433 . S
C706 C707 1.363 . S
C706 C711 1.370 . S
C707 H675 0.929 . S
C707 C706 1.363 . S
C707 C708 1.385 . S
C708 H676 0.930 . S
C708 C707 1.385 . S
C708 C709 1.357 . S
C709 C708 1.357 . S
C709 C710 1.406 . S
C710 H677 0.929 . S
C710 C709 1.406 . S
C710 C711 1.391 . S
C711 H678 0.931 . S
C711 C706 1.370 . S
C711 C710 1.391 . S
C712 N686 1.435 . S
C712 C713 1.358 . S
C712 C717 1.371 . S
C713 H679 0.930 . S
C713 C712 1.358 . S
C713 C714 1.405 . S
C714 H680 0.932 . S
C714 C713 1.405 . S
C714 C715 1.383 . S
C715 C714 1.383 . S
C715 C716 1.393 . S
C716 H681 0.931 . S
C716 C715 1.393 . S
C716 C717 1.382 . S
C717 H682 0.929 . S
C717 C712 1.371 . S
C717 C716 1.382 . S
C718 N686 1.423 . S
C718 C719 1.362 . S
C718 C723 1.388 . S
C719 H683 0.929 . S
C719 C718 1.362 . S
C719 C720 1.376 . S
C720 H684 0.901 1_565 S
C720 C719 1.376 . S
C720 C721 1.402 . S
C721 C703 1.461 1_565 S
C721 C720 1.402 . S
C721 C722 1.354 . S
C722 H685 0.929 . S
C722 C721 1.354 . S
C722 C723 1.443 . S
C723 H687 0.932 . S
C723 C718 1.388 . S
C723 C722 1.443 . S
H724 C751 0.929 . S
N725 C750 1.433 . S
N725 C756 1.435 . S
N725 C762 1.423 . S
H726 C752 0.930 . S
H727 C755 0.931 . S
H728 C754 0.929 . S
H729 C757 0.930 . S
H730 C758 0.932 . S
H731 C761 0.929 . S
H732 C760 0.931 . S
H733 C763 0.929 . S
H734 C767 0.932 . S
H735 C764 0.931 . S
H736 C766 0.929 . S
H737 C769 0.902 1_655 S
H738 C770 0.930 . S
H739 C772 0.929 . S
H740 C773 0.931 . S
H741 C775 0.930 . S
H742 C776 0.932 . S
H743 C778 0.931 . S
H744 C779 0.929 . S
H745 C781 0.929 . S
H746 C782 0.931 . S
H747 C784 0.929 . S
N748 C768 1.433 . S
N748 C774 1.435 . S
N748 C780 1.423 . S
H749 C785 0.932 . S
C750 N725 1.433 . S
C750 C751 1.363 . S
C750 C755 1.370 . S
C751 H724 0.929 . S
C751 C750 1.363 . S
C751 C752 1.385 . S
C752 H726 0.930 . S
C752 C751 1.385 . S
C752 C753 1.357 . S
C753 C752 1.357 . S
C753 C754 1.406 . S
C754 H728 0.929 . S
C754 C753 1.406 . S
C754 C755 1.391 . S
C755 H727 0.931 . S
C755 C750 1.370 . S
C755 C754 1.391 . S
C756 N725 1.435 . S
C756 C757 1.358 . S
C756 C761 1.371 . S
C757 H729 0.930 . S
C757 C756 1.358 . S
C757 C758 1.405 . S
C758 H730 0.932 . S
C758 C757 1.405 . S
C758 C759 1.383 . S
C759 C758 1.383 . S
C759 C760 1.393 . S
C760 H732 0.931 . S
C760 C759 1.393 . S
C760 C761 1.382 . S
C761 H731 0.929 . S
C761 C756 1.371 . S
C761 C760 1.382 . S
C762 N725 1.423 . S
C762 C763 1.362 . S
C762 C767 1.388 . S
C763 H733 0.929 . S
C763 C762 1.362 . S
C763 C764 1.376 . S
C764 H735 0.931 . S
C764 C763 1.376 . S
C764 C765 1.396 . S
C765 C764 1.396 . S
C765 C766 1.348 . S
C765 C783 1.472 . S
C766 H736 0.929 . S
C766 C765 1.348 . S
C766 C767 1.443 . S
C767 H734 0.932 . S
C767 C762 1.388 . S
C767 C766 1.443 . S
C768 N748 1.433 . S
C768 C769 1.363 . S
C768 C773 1.370 . S
C769 H737 0.902 1_455 S
C769 C768 1.363 . S
C769 C770 1.385 1_455 S
C770 H738 0.930 . S
C770 C769 1.385 1_655 S
C770 C771 1.404 . S
C771 C770 1.404 . S
C771 C772 1.320 1_655 S
C772 H739 0.929 . S
C772 C771 1.320 1_455 S
C772 C773 1.391 . S
C773 H740 0.931 . S
C773 C768 1.370 . S
C773 C772 1.391 . S
C774 N748 1.435 . S
C774 C775 1.358 . S
C774 C779 1.371 . S
C775 H741 0.930 . S
C775 C774 1.358 . S
C775 C776 1.405 1_455 S
C776 H742 0.932 . S
C776 C775 1.405 1_655 S
C776 C777 1.383 1_655 S
C777 C776 1.383 1_455 S
C777 C778 1.393 . S
C778 H743 0.931 . S
C778 C777 1.393 . S
C778 C779 1.382 . S
C779 H744 0.929 . S
C779 C774 1.371 . S
C779 C778 1.382 . S
C780 N748 1.423 . S
C780 C781 1.362 . S
C780 C785 1.388 . S
C781 H745 0.929 . S
C781 C780 1.362 . S
C781 C782 1.376 . S
C782 H746 0.931 . S
C782 C781 1.376 . S
C782 C783 1.396 . S
C783 C765 1.472 . S
C783 C782 1.396 . S
C783 C784 1.348 . S
C784 H747 0.929 . S
C784 C783 1.348 . S
C784 C785 1.443 . S
C785 H749 0.932 . S
C785 C780 1.388 . S
C785 C784 1.443 . S
H786 C813 0.929 . S
N787 C812 1.433 . S
N787 C818 1.435 . S
N787 C824 1.423 . S
H788 C814 0.930 . S
H789 C817 0.931 . S
H790 C816 0.929 . S
H791 C819 0.930 . S
H792 C820 0.932 . S
H793 C823 0.929 . S
H794 C822 0.931 . S
H795 C825 0.929 . S
H796 C829 0.932 . S
H797 C826 0.931 . S
H798 C828 0.941 . S
H799 C831 0.929 . S
H800 C832 0.930 . S
H801 C834 0.929 . S
H802 C835 0.931 . S
H803 C837 0.930 . S
H804 C838 0.932 . S
H805 C840 0.931 . S
H806 C841 0.929 . S
H807 C843 0.929 . S
H808 C844 0.931 . S
H809 C846 0.929 . S
N810 C830 1.433 . S
N810 C836 1.435 . S
N810 C842 1.423 . S
H811 C847 0.932 . S
C812 N787 1.433 . S
C812 C813 1.363 . S
C812 C817 1.370 . S
C813 H786 0.929 . S
C813 C812 1.363 . S
C813 C814 1.385 . S
C814 H788 0.930 . S
C814 C813 1.385 . S
C814 C815 1.357 . S
C815 C814 1.357 . S
C815 C816 1.406 . S
C816 H790 0.929 . S
C816 C815 1.406 . S
C816 C817 1.391 . S
C817 H789 0.931 . S
C817 C812 1.370 . S
C817 C816 1.391 . S
C818 N787 1.435 . S
C818 C819 1.358 . S
C818 C823 1.371 . S
C819 H791 0.930 . S
C819 C818 1.358 . S
C819 C820 1.405 . S
C820 H792 0.932 . S
C820 C819 1.405 . S
C820 C821 1.383 . S
C821 C820 1.383 . S
C821 C822 1.393 . S
C822 H794 0.931 . S
C822 C821 1.393 . S
C822 C823 1.382 . S
C823 H793 0.929 . S
C823 C818 1.371 . S
C823 C822 1.382 . S
C824 N787 1.423 . S
C824 C825 1.362 . S
C824 C829 1.388 . S
C825 H795 0.929 . S
C825 C824 1.362 . S
C825 C826 1.376 1_565 S
C826 H797 0.931 . S
C826 C825 1.376 1_545 S
C826 C827 1.396 . S
C827 C826 1.396 . S
C827 C828 1.363 . S
C827 C845 1.472 . S
C828 H798 0.941 . S
C828 C827 1.363 . S
C828 C829 1.417 1_545 S
C829 H796 0.932 . S
C829 C824 1.388 . S
C829 C828 1.417 1_565 S
C830 N810 1.433 . S
C830 C831 1.363 . S
C830 C835 1.370 . S
C831 H799 0.929 . S
C831 C830 1.363 . S
C831 C832 1.385 . S
C832 H800 0.930 . S
C832 C831 1.385 . S
C832 C833 1.357 . S
C833 C832 1.357 . S
C833 C834 1.406 . S
C834 H801 0.929 . S
C834 C833 1.406 . S
C834 C835 1.391 . S
C835 H802 0.931 . S
C835 C830 1.370 . S
C835 C834 1.391 . S
C836 N810 1.435 . S
C836 C837 1.358 . S
C836 C841 1.371 . S
C837 H803 0.930 . S
C837 C836 1.358 . S
C837 C838 1.405 . S
C838 H804 0.932 . S
C838 C837 1.405 . S
C838 C839 1.383 . S
C839 C838 1.383 . S
C839 C840 1.393 . S
C840 H805 0.931 . S
C840 C839 1.393 . S
C840 C841 1.382 . S
C841 H806 0.929 . S
C841 C836 1.371 . S
C841 C840 1.382 . S
C842 N810 1.423 . S
C842 C843 1.362 . S
C842 C847 1.388 . S
C843 H807 0.929 . S
C843 C842 1.362 . S
C843 C844 1.376 . S
C844 H808 0.931 . S
C844 C843 1.376 . S
C844 C845 1.396 . S
C845 C827 1.472 . S
C845 C844 1.396 . S
C845 C846 1.348 . S
C846 H809 0.929 . S
C846 C845 1.348 . S
C846 C847 1.443 . S
C847 H811 0.932 . S
C847 C842 1.388 . S
C847 C846 1.443 . S
H848 C875 0.929 . S
N849 C874 1.433 . S
N849 C880 1.435 . S
N849 C886 1.423 . S
H850 C876 0.930 . S
H851 C879 0.931 . S
H852 C878 0.929 . S
H853 C881 0.930 . S
H854 C882 0.932 . S
H855 C885 0.929 . S
H856 C884 0.931 . S
H857 C887 0.929 . S
H858 C891 0.932 . S
H859 C888 0.931 . S
H860 C890 0.929 . S
H861 C893 0.929 . S
H862 C894 0.930 . S
H863 C896 0.929 . S
H864 C897 0.931 . S
H865 C899 0.930 . S
H866 C900 0.932 . S
H867 C902 0.931 . S
H868 C903 0.929 . S
H869 C905 0.929 . S
H870 C906 0.931 . S
H871 C908 0.929 1_455 S
N872 C892 1.433 . S
N872 C898 1.435 . S
N872 C904 1.423 . S
H873 C909 0.932 . S
C874 N849 1.433 . S
C874 C875 1.363 . S
C874 C879 1.370 . S
C875 H848 0.929 . S
C875 C874 1.363 . S
C875 C876 1.385 . S
C876 H850 0.930 . S
C876 C875 1.385 . S
C876 C877 1.357 . S
C877 C876 1.357 . S
C877 C878 1.406 . S
C878 H852 0.929 . S
C878 C877 1.406 . S
C878 C879 1.391 . S
C879 H851 0.931 . S
C879 C874 1.370 . S
C879 C878 1.391 . S
C880 N849 1.435 . S
C880 C881 1.358 . S
C880 C885 1.371 . S
C881 H853 0.930 . S
C881 C880 1.358 . S
C881 C882 1.405 . S
C882 H854 0.932 . S
C882 C881 1.405 . S
C882 C883 1.383 . S
C883 C882 1.383 . S
C883 C884 1.393 . S
C884 H856 0.931 . S
C884 C883 1.393 . S
C884 C885 1.382 . S
C885 H855 0.929 . S
C885 C880 1.371 . S
C885 C884 1.382 . S
C886 N849 1.423 . S
C886 C887 1.362 . S
C886 C891 1.388 . S
C887 H857 0.929 . S
C887 C886 1.362 . S
C887 C888 1.376 . S
C888 H859 0.931 . S
C888 C887 1.376 . S
C888 C889 1.396 . S
C889 C888 1.396 . S
C889 C890 1.348 . S
C889 C907 1.471 1_455 S
C890 H860 0.929 . S
C890 C889 1.348 . S
C890 C891 1.443 . S
C891 H858 0.932 . S
C891 C886 1.388 . S
C891 C890 1.443 . S
C892 N872 1.433 . S
C892 C893 1.363 . S
C892 C897 1.370 . S
C893 H861 0.929 . S
C893 C892 1.363 . S
C893 C894 1.385 . S
C894 H862 0.930 . S
C894 C893 1.385 . S
C894 C895 1.357 . S
C895 C894 1.357 . S
C895 C896 1.406 . S
C896 H863 0.929 . S
C896 C895 1.406 . S
C896 C897 1.391 . S
C897 H864 0.931 . S
C897 C892 1.370 . S
C897 C896 1.391 . S
C898 N872 1.435 . S
C898 C899 1.358 . S
C898 C903 1.371 . S
C899 H865 0.930 . S
C899 C898 1.358 . S
C899 C900 1.405 . S
C900 H866 0.932 . S
C900 C899 1.405 . S
C900 C901 1.383 . S
C901 C900 1.383 . S
C901 C902 1.393 . S
C902 H867 0.931 . S
C902 C901 1.393 . S
C902 C903 1.382 . S
C903 H868 0.929 . S
C903 C898 1.371 . S
C903 C902 1.382 . S
C904 N872 1.423 . S
C904 C905 1.362 . S
C904 C909 1.388 . S
C905 H869 0.929 . S
C905 C904 1.362 . S
C905 C906 1.376 . S
C906 H870 0.931 . S
C906 C905 1.376 . S
C906 C907 1.397 . S
C907 C889 1.471 1_655 S
C907 C906 1.397 . S
C907 C908 1.348 . S
C908 H871 0.929 1_655 S
C908 C907 1.348 . S
C908 C909 1.443 . S
C909 H873 0.932 . S
C909 C904 1.388 . S
C909 C908 1.443 . S
H910 C937 0.929 . S
N911 C936 1.433 . S
N911 C942 1.435 . S
N911 C948 1.423 . S
H912 C938 0.930 . S
H913 C941 0.931 . S
H914 C940 0.929 . S
H915 C943 0.930 . S
H916 C944 0.932 . S
H917 C947 0.929 . S
H918 C946 0.931 . S
H919 C949 0.929 . S
H920 C953 0.932 . S
H921 C950 0.931 . S
H922 C952 0.929 . S
H923 C955 0.929 . S
H924 C956 0.930 . S
H925 C958 0.929 . S
H926 C959 0.931 . S
H927 C961 0.930 . S
H928 C962 0.932 . S
H929 C964 0.931 . S
H930 C965 0.929 . S
H931 C967 0.929 . S
H932 C968 0.931 . S
H933 C970 0.929 . S
N934 C954 1.433 . S
N934 C960 1.435 . S
N934 C966 1.423 . S
H935 C971 0.932 . S
C936 N911 1.433 . S
C936 C937 1.363 . S
C936 C941 1.370 . S
C937 H910 0.929 . S
C937 C936 1.363 . S
C937 C938 1.385 . S
C938 H912 0.930 . S
C938 C937 1.385 . S
C938 C939 1.357 . S
C939 C938 1.357 . S
C939 C940 1.406 . S
C940 H914 0.929 . S
C940 C939 1.406 . S
C940 C941 1.391 . S
C941 H913 0.931 . S
C941 C936 1.370 . S
C941 C940 1.391 . S
C942 N911 1.435 . S
C942 C943 1.358 . S
C942 C947 1.371 . S
C943 H915 0.930 . S
C943 C942 1.358 . S
C943 C944 1.405 . S
C944 H916 0.932 . S
C944 C943 1.405 . S
C944 C945 1.383 . S
C945 C944 1.383 . S
C945 C946 1.393 . S
C946 H918 0.931 . S
C946 C945 1.393 . S
C946 C947 1.382 . S
C947 H917 0.929 . S
C947 C942 1.371 . S
C947 C946 1.382 . S
C948 N911 1.423 . S
C948 C949 1.362 . S
C948 C953 1.388 . S
C949 H919 0.929 . S
C949 C948 1.362 . S
C949 C950 1.376 . S
C950 H921 0.931 . S
C950 C949 1.376 . S
C950 C951 1.396 . S
C951 C950 1.396 . S
C951 C952 1.348 . S
C951 C969 1.472 1_545 S
C952 H922 0.929 . S
C952 C951 1.348 . S
C952 C953 1.443 . S
C953 H920 0.932 . S
C953 C948 1.388 . S
C953 C952 1.443 . S
C954 N934 1.433 . S
C954 C955 1.363 . S
C954 C959 1.370 . S
C955 H923 0.929 . S
C955 C954 1.363 . S
C955 C956 1.385 . S
C956 H924 0.930 . S
C956 C955 1.385 . S
C956 C957 1.357 . S
C957 C956 1.357 . S
C957 C958 1.406 . S
C958 H925 0.929 . S
C958 C957 1.406 . S
C958 C959 1.391 . S
C959 H926 0.931 . S
C959 C954 1.370 . S
C959 C958 1.391 . S
C960 N934 1.435 . S
C960 C961 1.358 . S
C960 C965 1.371 . S
C961 H927 0.930 . S
C961 C960 1.358 . S
C961 C962 1.405 . S
C962 H928 0.932 . S
C962 C961 1.405 . S
C962 C963 1.383 . S
C963 C962 1.383 . S
C963 C964 1.393 . S
C964 H929 0.931 . S
C964 C963 1.393 . S
C964 C965 1.382 . S
C965 H930 0.929 . S
C965 C960 1.371 . S
C965 C964 1.382 . S
C966 N934 1.423 . S
C966 C967 1.362 . S
C966 C971 1.388 . S
C967 H931 0.929 . S
C967 C966 1.362 . S
C967 C968 1.376 . S
C968 H932 0.931 . S
C968 C967 1.376 . S
C968 C969 1.396 . S
C969 C951 1.472 1_565 S
C969 C968 1.396 . S
C969 C970 1.348 . S
C970 H933 0.929 . S
C970 C969 1.348 . S
C970 C971 1.443 . S
C971 H935 0.932 . S
C971 C966 1.388 . S
C971 C970 1.443 . S
H972 C999 0.929 . S
N973 C998 1.433 . S
N973 C1004 1.435 . S
N973 C1010 1.423 . S
H974 C1000 0.930 . S
H975 C1003 0.931 . S
H976 C1002 0.929 . S
H977 C1005 0.930 . S
H978 C1006 0.932 . S
H979 C1009 0.929 . S
H980 C1008 0.931 . S
H981 C1011 0.929 . S
H982 C1015 0.932 . S
H983 C1012 0.931 . S
H984 C1014 0.929 . S
H985 C1017 0.929 . S
H986 C1018 0.930 . S
H987 C1020 0.929 . S
H988 C1021 0.931 . S
H989 C1023 0.930 . S
H990 C1024 0.932 . S
H991 C1026 0.931 . S
H992 C1027 0.929 . S
H993 C1029 0.929 . S
H994 C1030 0.931 . S
H995 C1032 0.929 . S
N996 C1016 1.433 . S
N996 C1022 1.435 . S
N996 C1028 1.423 . S
H997 C1033 0.932 . S
C998 N973 1.433 . S
C998 C999 1.363 1_455 S
C998 C1003 1.370 . S
C999 H972 0.929 . S
C999 C998 1.363 1_655 S
C999 C1000 1.385 . S
C1000 H974 0.930 . S
C1000 C999 1.385 . S
C1000 C1001 1.357 . S
C1001 C1000 1.357 . S
C1001 C1002 1.406 1_655 S
C1002 H976 0.929 . S
C1002 C1001 1.406 1_455 S
C1002 C1003 1.391 . S
C1003 H975 0.931 . S
C1003 C998 1.370 . S
C1003 C1002 1.391 . S
C1004 N973 1.435 . S
C1004 C1005 1.358 . S
C1004 C1009 1.371 . S
C1005 H977 0.930 . S
C1005 C1004 1.358 . S
C1005 C1006 1.405 1_455 S
C1006 H978 0.932 . S
C1006 C1005 1.405 1_655 S
C1006 C1007 1.389 . S
C1007 C1006 1.389 . S
C1007 C1008 1.363 1_655 S
C1008 H980 0.931 . S
C1008 C1007 1.363 1_455 S
C1008 C1009 1.382 . S
C1009 H979 0.929 . S
C1009 C1004 1.371 . S
C1009 C1008 1.382 . S
C1010 N973 1.423 . S
C1010 C1011 1.362 . S
C1010 C1015 1.388 . S
C1011 H981 0.929 . S
C1011 C1010 1.362 . S
C1011 C1012 1.376 . S
C1012 H983 0.931 . S
C1012 C1011 1.376 . S
C1012 C1013 1.396 . S
C1013 C1012 1.396 . S
C1013 C1014 1.348 . S
C1013 C1031 1.472 . S
C1014 H984 0.929 . S
C1014 C1013 1.348 . S
C1014 C1015 1.443 . S
C1015 H982 0.932 . S
C1015 C1010 1.388 . S
C1015 C1014 1.443 . S
C1016 N996 1.433 . S
C1016 C1017 1.363 . S
C1016 C1021 1.370 . S
C1017 H985 0.929 . S
C1017 C1016 1.363 . S
C1017 C1018 1.385 . S
C1018 H986 0.930 . S
C1018 C1017 1.385 . S
C1018 C1019 1.357 . S
C1019 C1018 1.357 . S
C1019 C1020 1.406 . S
C1020 H987 0.929 . S
C1020 C1019 1.406 . S
C1020 C1021 1.391 . S
C1021 H988 0.931 . S
C1021 C1016 1.370 . S
C1021 C1020 1.391 . S
C1022 N996 1.435 . S
C1022 C1023 1.358 . S
C1022 C1027 1.371 . S
C1023 H989 0.930 . S
C1023 C1022 1.358 . S
C1023 C1024 1.405 . S
C1024 H990 0.932 . S
C1024 C1023 1.405 . S
C1024 C1025 1.383 . S
C1025 C1024 1.383 . S
C1025 C1026 1.393 . S
C1026 H991 0.931 . S
C1026 C1025 1.393 . S
C1026 C1027 1.382 . S
C1027 H992 0.929 . S
C1027 C1022 1.371 . S
C1027 C1026 1.382 . S
C1028 N996 1.423 . S
C1028 C1029 1.362 . S
C1028 C1033 1.388 . S
C1029 H993 0.929 . S
C1029 C1028 1.362 . S
C1029 C1030 1.376 . S
C1030 H994 0.931 . S
C1030 C1029 1.376 . S
C1030 C1031 1.396 . S
C1031 C1013 1.472 . S
C1031 C1030 1.396 . S
C1031 C1032 1.348 . S
C1032 H995 0.929 . S
C1032 C1031 1.348 . S
C1032 C1033 1.443 . S
C1033 H997 0.932 . S
C1033 C1028 1.388 . S
C1033 C1032 1.443 . S
H1034 C1061 0.929 . S
N1035 C1060 1.433 . S
N1035 C1066 1.435 . S
N1035 C1072 1.423 . S
H1036 C1062 0.930 . S
H1037 C1065 0.931 . S
H1038 C1064 0.929 . S
H1039 C1067 0.930 . S
H1040 C1068 0.932 . S
H1041 C1071 0.929 . S
H1042 C1070 0.931 . S
H1043 C1073 0.929 . S
H1044 C1077 0.932 . S
H1045 C1074 0.931 . S
H1046 C1076 0.929 . S
H1047 C1079 0.929 . S
H1048 C1080 0.930 . S
H1049 C1082 0.929 . S
H1050 C1083 0.931 . S
H1051 C1085 0.930 . S
H1052 C1086 0.932 . S
H1053 C1088 0.931 . S
H1054 C1089 0.929 . S
H1055 C1091 0.929 . S
H1056 C1092 0.931 . S
H1057 C1094 0.929 . S
N1058 C1078 1.433 . S
N1058 C1084 1.435 . S
N1058 C1090 1.423 . S
H1059 C1095 0.932 . S
C1060 N1035 1.433 . S
C1060 C1061 1.363 . S
C1060 C1065 1.370 . S
C1061 H1034 0.929 . S
C1061 C1060 1.363 . S
C1061 C1062 1.385 . S
C1062 H1036 0.930 . S
C1062 C1061 1.385 . S
C1062 C1063 1.357 . S
C1063 C1062 1.357 . S
C1063 C1064 1.406 . S
C1064 H1038 0.929 . S
C1064 C1063 1.406 . S
C1064 C1065 1.391 . S
C1065 H1037 0.931 . S
C1065 C1060 1.370 . S
C1065 C1064 1.391 . S
C1066 N1035 1.435 . S
C1066 C1067 1.358 . S
C1066 C1071 1.371 . S
C1067 H1039 0.930 . S
C1067 C1066 1.358 . S
C1067 C1068 1.405 . S
C1068 H1040 0.932 . S
C1068 C1067 1.405 . S
C1068 C1069 1.383 . S
C1069 C1068 1.383 . S
C1069 C1070 1.393 . S
C1070 H1042 0.931 . S
C1070 C1069 1.393 . S
C1070 C1071 1.382 . S
C1071 H1041 0.929 . S
C1071 C1066 1.371 . S
C1071 C1070 1.382 . S
C1072 N1035 1.423 . S
C1072 C1073 1.362 . S
C1072 C1077 1.388 . S
C1073 H1043 0.929 . S
C1073 C1072 1.362 . S
C1073 C1074 1.376 1_565 S
C1074 H1045 0.931 . S
C1074 C1073 1.376 1_545 S
C1074 C1075 1.396 . S
C1075 C1074 1.396 . S
C1075 C1076 1.348 . S
C1075 C1093 1.472 . S
C1076 H1046 0.929 . S
C1076 C1075 1.348 . S
C1076 C1077 1.443 1_545 S
C1077 H1044 0.932 . S
C1077 C1072 1.388 . S
C1077 C1076 1.443 1_565 S
C1078 N1058 1.433 . S
C1078 C1079 1.363 . S
C1078 C1083 1.370 . S
C1079 H1047 0.929 . S
C1079 C1078 1.363 . S
C1079 C1080 1.385 . S
C1080 H1048 0.930 . S
C1080 C1079 1.385 . S
C1080 C1081 1.357 . S
C1081 C1080 1.357 . S
C1081 C1082 1.406 . S
C1082 H1049 0.929 . S
C1082 C1081 1.406 . S
C1082 C1083 1.391 . S
C1083 H1050 0.931 . S
C1083 C1078 1.370 . S
C1083 C1082 1.391 . S
C1084 N1058 1.435 . S
C1084 C1085 1.358 . S
C1084 C1089 1.371 . S
C1085 H1051 0.930 . S
C1085 C1084 1.358 . S
C1085 C1086 1.405 . S
C1086 H1052 0.932 . S
C1086 C1085 1.405 . S
C1086 C1087 1.383 . S
C1087 C1086 1.383 . S
C1087 C1088 1.393 . S
C1088 H1053 0.931 . S
C1088 C1087 1.393 . S
C1088 C1089 1.382 . S
C1089 H1054 0.929 . S
C1089 C1084 1.371 . S
C1089 C1088 1.382 . S
C1090 N1058 1.423 . S
C1090 C1091 1.362 . S
C1090 C1095 1.388 . S
C1091 H1055 0.929 . S
C1091 C1090 1.362 . S
C1091 C1092 1.376 . S
C1092 H1056 0.931 . S
C1092 C1091 1.376 . S
C1092 C1093 1.396 . S
C1093 C1075 1.472 . S
C1093 C1092 1.396 . S
C1093 C1094 1.348 . S
C1094 H1057 0.929 . S
C1094 C1093 1.348 . S
C1094 C1095 1.443 . S
C1095 H1059 0.932 . S
C1095 C1090 1.388 . S
C1095 C1094 1.443 . S
H1096 C1123 0.929 . S
N1097 C1122 1.433 . S
N1097 C1128 1.435 . S
N1097 C1134 1.423 . S
H1098 C1124 0.930 . S
H1099 C1127 0.931 . S
H1100 C1126 0.929 . S
H1101 C1129 0.930 . S
H1102 C1130 0.932 . S
H1103 C1133 0.929 . S
H1104 C1132 0.931 . S
H1105 C1135 0.929 . S
H1106 C1139 0.932 . S
H1107 C1136 0.931 . S
H1108 C1138 0.929 . S
H1109 C1141 0.929 . S
H1110 C1142 0.930 . S
H1111 C1144 0.929 . S
H1112 C1145 0.931 . S
H1113 C1147 0.930 . S
H1114 C1148 0.932 . S
H1115 C1150 0.931 . S
H1116 C1151 0.929 . S
H1117 C1153 0.929 . S
H1118 C1154 0.931 . S
H1119 C1156 0.929 . S
N1120 C1140 1.433 . S
N1120 C1146 1.435 . S
N1120 C1152 1.423 . S
H1121 C1157 0.932 . S
C1122 N1097 1.433 . S
C1122 C1123 1.363 . S
C1122 C1127 1.370 . S
C1123 H1096 0.929 . S
C1123 C1122 1.363 . S
C1123 C1124 1.385 . S
C1124 H1098 0.930 . S
C1124 C1123 1.385 . S
C1124 C1125 1.357 . S
C1125 C1124 1.357 . S
C1125 C1126 1.406 . S
C1126 H1100 0.929 . S
C1126 C1125 1.406 . S
C1126 C1127 1.391 . S
C1127 H1099 0.931 . S
C1127 C1122 1.370 . S
C1127 C1126 1.391 . S
C1128 N1097 1.435 . S
C1128 C1129 1.358 . S
C1128 C1133 1.371 . S
C1129 H1101 0.930 . S
C1129 C1128 1.358 . S
C1129 C1130 1.405 . S
C1130 H1102 0.932 . S
C1130 C1129 1.405 . S
C1130 C1131 1.383 . S
C1131 C1130 1.383 . S
C1131 C1132 1.393 . S
C1132 H1104 0.931 . S
C1132 C1131 1.393 . S
C1132 C1133 1.382 . S
C1133 H1103 0.929 . S
C1133 C1128 1.371 . S
C1133 C1132 1.382 . S
C1134 N1097 1.423 . S
C1134 C1135 1.362 . S
C1134 C1139 1.388 . S
C1135 H1105 0.929 . S
C1135 C1134 1.362 . S
C1135 C1136 1.376 . S
C1136 H1107 0.931 . S
C1136 C1135 1.376 . S
C1136 C1137 1.396 . S
C1137 C1136 1.396 . S
C1137 C1138 1.348 . S
C1137 C1155 1.472 . S
C1138 H1108 0.929 . S
C1138 C1137 1.348 . S
C1138 C1139 1.443 . S
C1139 H1106 0.932 . S
C1139 C1134 1.388 . S
C1139 C1138 1.443 . S
C1140 N1120 1.433 . S
C1140 C1141 1.363 . S
C1140 C1145 1.370 . S
C1141 H1109 0.929 . S
C1141 C1140 1.363 . S
C1141 C1142 1.385 . S
C1142 H1110 0.930 . S
C1142 C1141 1.385 . S
C1142 C1143 1.357 . S
C1143 C1142 1.357 . S
C1143 C1144 1.406 . S
C1144 H1111 0.929 . S
C1144 C1143 1.406 . S
C1144 C1145 1.391 . S
C1145 H1112 0.931 . S
C1145 C1140 1.370 . S
C1145 C1144 1.391 . S
C1146 N1120 1.435 . S
C1146 C1147 1.358 . S
C1146 C1151 1.371 . S
C1147 H1113 0.930 . S
C1147 C1146 1.358 . S
C1147 C1148 1.405 . S
C1148 H1114 0.932 . S
C1148 C1147 1.405 . S
C1148 C1149 1.383 . S
C1149 C1148 1.383 . S
C1149 C1150 1.393 . S
C1150 H1115 0.931 . S
C1150 C1149 1.393 . S
C1150 C1151 1.382 . S
C1151 H1116 0.929 . S
C1151 C1146 1.371 . S
C1151 C1150 1.382 . S
C1152 N1120 1.423 . S
C1152 C1153 1.362 . S
C1152 C1157 1.388 . S
C1153 H1117 0.929 . S
C1153 C1152 1.362 . S
C1153 C1154 1.376 . S
C1154 H1118 0.931 . S
C1154 C1153 1.376 . S
C1154 C1155 1.396 . S
C1155 C1137 1.472 . S
C1155 C1154 1.396 . S
C1155 C1156 1.348 . S
C1156 H1119 0.929 . S
C1156 C1155 1.348 . S
C1156 C1157 1.443 . S
C1157 H1121 0.932 . S
C1157 C1152 1.388 . S
C1157 C1156 1.443 . S
H1158 C1185 0.929 . S
N1159 C1184 1.433 . S
N1159 C1190 1.435 . S
N1159 C1196 1.423 . S
H1160 C1186 0.930 . S
H1161 C1189 0.931 . S
H1162 C1188 0.929 . S
H1163 C1191 0.930 . S
H1164 C1192 0.932 . S
H1165 C1195 0.929 . S
H1166 C1194 0.931 . S
H1167 C1197 0.929 . S
H1168 C1201 0.932 . S
H1169 C1198 0.931 . S
H1170 C1200 0.929 . S
H1171 C1203 0.929 . S
H1172 C1204 0.930 . S
H1173 C1206 0.929 . S
H1174 C1207 0.931 . S
H1175 C1209 0.930 . S
H1176 C1210 0.932 . S
H1177 C1212 0.931 . S
H1178 C1213 0.929 . S
H1179 C1215 0.929 . S
H1180 C1216 0.931 . S
H1181 C1218 0.929 . S
N1182 C1202 1.433 . S
N1182 C1208 1.435 . S
N1182 C1214 1.423 . S
H1183 C1219 0.932 . S
C1184 N1159 1.433 . S
C1184 C1185 1.363 . S
C1184 C1189 1.370 . S
C1185 H1158 0.929 . S
C1185 C1184 1.363 . S
C1185 C1186 1.385 . S
C1186 H1160 0.930 . S
C1186 C1185 1.385 . S
C1186 C1187 1.357 . S
C1187 C1186 1.357 . S
C1187 C1188 1.406 . S
C1188 H1162 0.929 . S
C1188 C1187 1.406 . S
C1188 C1189 1.391 . S
C1189 H1161 0.931 . S
C1189 C1184 1.370 . S
C1189 C1188 1.391 . S
C1190 N1159 1.435 . S
C1190 C1191 1.358 . S
C1190 C1195 1.371 . S
C1191 H1163 0.930 . S
C1191 C1190 1.358 . S
C1191 C1192 1.405 . S
C1192 H1164 0.932 . S
C1192 C1191 1.405 . S
C1192 C1193 1.383 . S
C1193 C1192 1.383 . S
C1193 C1194 1.393 . S
C1194 H1166 0.931 . S
C1194 C1193 1.393 . S
C1194 C1195 1.382 . S
C1195 H1165 0.929 . S
C1195 C1190 1.371 . S
C1195 C1194 1.382 . S
C1196 N1159 1.423 . S
C1196 C1197 1.362 . S
C1196 C1201 1.388 . S
C1197 H1167 0.929 . S
C1197 C1196 1.362 . S
C1197 C1198 1.376 . S
C1198 H1169 0.931 . S
C1198 C1197 1.376 . S
C1198 C1199 1.396 . S
C1199 C1198 1.396 . S
C1199 C1200 1.348 . S
C1199 C1217 1.472 . S
C1200 H1170 0.929 . S
C1200 C1199 1.348 . S
C1200 C1201 1.443 . S
C1201 H1168 0.932 . S
C1201 C1196 1.388 . S
C1201 C1200 1.443 . S
C1202 N1182 1.433 . S
C1202 C1203 1.363 . S
C1202 C1207 1.370 . S
C1203 H1171 0.929 . S
C1203 C1202 1.363 . S
C1203 C1204 1.385 . S
C1204 H1172 0.930 . S
C1204 C1203 1.385 . S
C1204 C1205 1.357 . S
C1205 C1204 1.357 . S
C1205 C1206 1.406 . S
C1206 H1173 0.929 . S
C1206 C1205 1.406 . S
C1206 C1207 1.391 . S
C1207 H1174 0.931 . S
C1207 C1202 1.370 . S
C1207 C1206 1.391 . S
C1208 N1182 1.435 . S
C1208 C1209 1.358 . S
C1208 C1213 1.371 . S
C1209 H1175 0.930 . S
C1209 C1208 1.358 . S
C1209 C1210 1.405 . S
C1210 H1176 0.932 . S
C1210 C1209 1.405 . S
C1210 C1211 1.383 . S
C1211 C1210 1.383 . S
C1211 C1212 1.393 . S
C1212 H1177 0.931 . S
C1212 C1211 1.393 . S
C1212 C1213 1.382 . S
C1213 H1178 0.929 . S
C1213 C1208 1.371 . S
C1213 C1212 1.382 . S
C1214 N1182 1.423 . S
C1214 C1215 1.362 . S
C1214 C1219 1.388 . S
C1215 H1179 0.929 . S
C1215 C1214 1.362 . S
C1215 C1216 1.376 . S
C1216 H1180 0.931 . S
C1216 C1215 1.376 . S
C1216 C1217 1.396 . S
C1217 C1199 1.472 . S
C1217 C1216 1.396 . S
C1217 C1218 1.348 . S
C1218 H1181 0.929 . S
C1218 C1217 1.348 . S
C1218 C1219 1.443 . S
C1219 H1183 0.932 . S
C1219 C1214 1.388 . S
C1219 C1218 1.443 . S
H1220 C1247 0.929 . S
N1221 C1246 1.433 . S
N1221 C1252 1.435 . S
N1221 C1258 1.423 . S
H1222 C1248 0.930 . S
H1223 C1251 0.931 . S
H1224 C1250 0.929 . S
H1225 C1253 0.930 . S
H1226 C1254 0.932 . S
H1227 C1257 0.929 . S
H1228 C1256 0.931 . S
H1229 C1259 0.929 . S
H1230 C1263 0.932 . S
H1231 C1260 0.931 . S
H1232 C1262 0.929 . S
H1233 C1265 0.929 . S
H1234 C1266 0.930 . S
H1235 C1268 0.929 . S
H1236 C1269 0.931 . S
H1237 C1271 0.930 . S
H1238 C1272 0.932 . S
H1239 C1274 0.931 . S
H1240 C1275 0.929 . S
H1241 C1277 0.929 . S
H1242 C1278 0.931 . S
H1243 C1280 0.929 . S
N1244 C1264 1.433 . S
N1244 C1270 1.435 . S
N1244 C1276 1.423 . S
H1245 C1281 0.932 . S
C1246 N1221 1.433 . S
C1246 C1247 1.363 . S
C1246 C1251 1.370 . S
C1247 H1220 0.929 . S
C1247 C1246 1.363 . S
C1247 C1248 1.385 . S
C1248 H1222 0.930 . S
C1248 C1247 1.385 . S
C1248 C1249 1.357 . S
C1249 C1248 1.357 . S
C1249 C1250 1.406 . S
C1250 H1224 0.929 . S
C1250 C1249 1.406 . S
C1250 C1251 1.391 . S
C1251 H1223 0.931 . S
C1251 C1246 1.370 . S
C1251 C1250 1.391 . S
C1252 N1221 1.435 . S
C1252 C1253 1.358 . S
C1252 C1257 1.371 . S
C1253 H1225 0.930 . S
C1253 C1252 1.358 . S
C1253 C1254 1.405 . S
C1254 H1226 0.932 . S
C1254 C1253 1.405 . S
C1254 C1255 1.383 . S
C1255 C1254 1.383 . S
C1255 C1256 1.393 . S
C1256 H1228 0.931 . S
C1256 C1255 1.393 . S
C1256 C1257 1.382 . S
C1257 H1227 0.929 . S
C1257 C1252 1.371 . S
C1257 C1256 1.382 . S
C1258 N1221 1.423 . S
C1258 C1259 1.362 . S
C1258 C1263 1.388 . S
C1259 H1229 0.929 . S
C1259 C1258 1.362 . S
C1259 C1260 1.376 . S
C1260 H1231 0.931 . S
C1260 C1259 1.376 . S
C1260 C1261 1.396 . S
C1261 C1260 1.396 . S
C1261 C1262 1.348 . S
C1261 C1279 1.472 . S
C1262 H1232 0.929 . S
C1262 C1261 1.348 . S
C1262 C1263 1.443 . S
C1263 H1230 0.932 . S
C1263 C1258 1.388 . S
C1263 C1262 1.443 . S
C1264 N1244 1.433 . S
C1264 C1265 1.363 . S
C1264 C1269 1.370 . S
C1265 H1233 0.929 . S
C1265 C1264 1.363 . S
C1265 C1266 1.385 . S
C1266 H1234 0.930 . S
C1266 C1265 1.385 . S
C1266 C1267 1.357 . S
C1267 C1266 1.357 . S
C1267 C1268 1.406 . S
C1268 H1235 0.929 . S
C1268 C1267 1.406 . S
C1268 C1269 1.391 . S
C1269 H1236 0.931 . S
C1269 C1264 1.370 . S
C1269 C1268 1.391 . S
C1270 N1244 1.435 . S
C1270 C1271 1.358 . S
C1270 C1275 1.371 . S
C1271 H1237 0.930 . S
C1271 C1270 1.358 . S
C1271 C1272 1.405 . S
C1272 H1238 0.932 . S
C1272 C1271 1.405 . S
C1272 C1273 1.383 . S
C1273 C1272 1.383 . S
C1273 C1274 1.393 . S
C1274 H1239 0.931 . S
C1274 C1273 1.393 . S
C1274 C1275 1.382 . S
C1275 H1240 0.929 . S
C1275 C1270 1.371 . S
C1275 C1274 1.382 . S
C1276 N1244 1.423 . S
C1276 C1277 1.362 . S
C1276 C1281 1.388 . S
C1277 H1241 0.929 . S
C1277 C1276 1.362 . S
C1277 C1278 1.376 . S
C1278 H1242 0.931 . S
C1278 C1277 1.376 . S
C1278 C1279 1.396 . S
C1279 C1261 1.472 . S
C1279 C1278 1.396 . S
C1279 C1280 1.348 . S
C1280 H1243 0.929 . S
C1280 C1279 1.348 . S
C1280 C1281 1.443 . S
C1281 H1245 0.932 . S
C1281 C1276 1.388 . S
C1281 C1280 1.443 . S
H1282 C1309 0.929 . S
N1283 C1308 1.433 . S
N1283 C1314 1.435 . S
N1283 C1320 1.423 . S
H1284 C1310 0.930 . S
H1285 C1313 0.931 . S
H1286 C1312 0.929 . S
H1287 C1315 0.930 . S
H1288 C1316 0.932 . S
H1289 C1319 0.929 . S
H1290 C1318 0.931 . S
H1291 C1321 0.929 . S
H1292 C1325 0.932 . S
H1293 C1322 0.931 . S
H1294 C1324 0.929 . S
H1295 C1327 0.929 . S
H1296 C1328 0.930 . S
H1297 C1330 0.929 . S
H1298 C1331 0.931 . S
H1299 C1333 0.930 . S
H1300 C1334 0.932 . S
H1301 C1336 0.931 . S
H1302 C1337 0.929 . S
H1303 C1339 0.929 . S
H1304 C1340 0.931 . S
H1305 C1342 0.929 . S
N1306 C1326 1.433 . S
N1306 C1332 1.435 . S
N1306 C1338 1.423 . S
H1307 C1343 0.932 . S
C1308 N1283 1.433 . S
C1308 C1309 1.363 . S
C1308 C1313 1.370 . S
C1309 H1282 0.929 . S
C1309 C1308 1.363 . S
C1309 C1310 1.385 . S
C1310 H1284 0.930 . S
C1310 C1309 1.385 . S
C1310 C1311 1.357 . S
C1311 C1310 1.357 . S
C1311 C1312 1.406 . S
C1312 H1286 0.929 . S
C1312 C1311 1.406 . S
C1312 C1313 1.391 . S
C1313 H1285 0.931 . S
C1313 C1308 1.370 . S
C1313 C1312 1.391 . S
C1314 N1283 1.435 . S
C1314 C1315 1.358 . S
C1314 C1319 1.371 . S
C1315 H1287 0.930 . S
C1315 C1314 1.358 . S
C1315 C1316 1.405 . S
C1316 H1288 0.932 . S
C1316 C1315 1.405 . S
C1316 C1317 1.383 . S
C1317 C1316 1.383 . S
C1317 C1318 1.393 . S
C1318 H1290 0.931 . S
C1318 C1317 1.393 . S
C1318 C1319 1.382 . S
C1319 H1289 0.929 . S
C1319 C1314 1.371 . S
C1319 C1318 1.382 . S
C1320 N1283 1.423 . S
C1320 C1321 1.362 . S
C1320 C1325 1.388 . S
C1321 H1291 0.929 . S
C1321 C1320 1.362 . S
C1321 C1322 1.376 . S
C1322 H1293 0.931 . S
C1322 C1321 1.376 . S
C1322 C1323 1.396 . S
C1323 C1322 1.396 . S
C1323 C1324 1.348 . S
C1323 C1341 1.472 . S
C1324 H1294 0.929 . S
C1324 C1323 1.348 . S
C1324 C1325 1.443 . S
C1325 H1292 0.932 . S
C1325 C1320 1.388 . S
C1325 C1324 1.443 . S
C1326 N1306 1.433 . S
C1326 C1327 1.363 . S
C1326 C1331 1.370 . S
C1327 H1295 0.929 . S
C1327 C1326 1.363 . S
C1327 C1328 1.385 . S
C1328 H1296 0.930 . S
C1328 C1327 1.385 . S
C1328 C1329 1.357 . S
C1329 C1328 1.357 . S
C1329 C1330 1.406 . S
C1330 H1297 0.929 . S
C1330 C1329 1.406 . S
C1330 C1331 1.391 . S
C1331 H1298 0.931 . S
C1331 C1326 1.370 . S
C1331 C1330 1.391 . S
C1332 N1306 1.435 . S
C1332 C1333 1.358 . S
C1332 C1337 1.371 . S
C1333 H1299 0.930 . S
C1333 C1332 1.358 . S
C1333 C1334 1.405 . S
C1334 H1300 0.932 . S
C1334 C1333 1.405 . S
C1334 C1335 1.383 . S
C1335 C1334 1.383 . S
C1335 C1336 1.393 . S
C1336 H1301 0.931 . S
C1336 C1335 1.393 . S
C1336 C1337 1.382 . S
C1337 H1302 0.929 . S
C1337 C1332 1.371 . S
C1337 C1336 1.382 . S
C1338 N1306 1.423 . S
C1338 C1339 1.362 . S
C1338 C1343 1.388 . S
C1339 H1303 0.929 . S
C1339 C1338 1.362 . S
C1339 C1340 1.376 . S
C1340 H1304 0.931 . S
C1340 C1339 1.376 . S
C1340 C1341 1.396 . S
C1341 C1323 1.472 . S
C1341 C1340 1.396 . S
C1341 C1342 1.348 . S
C1342 H1305 0.929 . S
C1342 C1341 1.348 . S
C1342 C1343 1.443 . S
C1343 H1307 0.932 . S
C1343 C1338 1.388 . S
C1343 C1342 1.443 . S
H1344 C1371 0.929 . S
N1345 C1370 1.433 . S
N1345 C1376 1.435 . S
N1345 C1382 1.423 . S
H1346 C1372 0.930 . S
H1347 C1375 0.931 . S
H1348 C1374 0.929 . S
H1349 C1377 0.930 . S
H1350 C1378 0.932 . S
H1351 C1381 0.929 . S
H1352 C1380 0.931 . S
H1353 C1383 0.929 . S
H1354 C1387 0.932 . S
H1355 C1384 0.931 . S
H1356 C1386 0.929 . S
H1357 C1389 0.929 . S
H1358 C1390 0.930 . S
H1359 C1392 0.929 . S
H1360 C1393 0.931 . S
H1361 C1395 0.930 . S
H1362 C1396 0.932 . S
H1363 C1398 0.931 . S
H1364 C1399 0.929 . S
H1365 C1401 0.929 . S
H1366 C1402 0.931 . S
H1367 C1404 0.929 . S
N1368 C1388 1.433 . S
N1368 C1394 1.435 . S
N1368 C1400 1.423 . S
H1369 C1405 0.932 . S
C1370 N1345 1.433 . S
C1370 C1371 1.363 . S
C1370 C1375 1.370 . S
C1371 H1344 0.929 . S
C1371 C1370 1.363 . S
C1371 C1372 1.385 . S
C1372 H1346 0.930 . S
C1372 C1371 1.385 . S
C1372 C1373 1.357 . S
C1373 C1372 1.357 . S
C1373 C1374 1.406 . S
C1374 H1348 0.929 . S
C1374 C1373 1.406 . S
C1374 C1375 1.391 . S
C1375 H1347 0.931 . S
C1375 C1370 1.370 . S
C1375 C1374 1.391 . S
C1376 N1345 1.435 . S
C1376 C1377 1.358 . S
C1376 C1381 1.371 . S
C1377 H1349 0.930 . S
C1377 C1376 1.358 . S
C1377 C1378 1.405 . S
C1378 H1350 0.932 . S
C1378 C1377 1.405 . S
C1378 C1379 1.383 . S
C1379 C1378 1.383 . S
C1379 C1380 1.393 . S
C1380 H1352 0.931 . S
C1380 C1379 1.393 . S
C1380 C1381 1.382 . S
C1381 H1351 0.929 . S
C1381 C1376 1.371 . S
C1381 C1380 1.382 . S
C1382 N1345 1.423 . S
C1382 C1383 1.362 . S
C1382 C1387 1.388 . S
C1383 H1353 0.929 . S
C1383 C1382 1.362 . S
C1383 C1384 1.376 . S
C1384 H1355 0.931 . S
C1384 C1383 1.376 . S
C1384 C1385 1.396 . S
C1385 C1384 1.396 . S
C1385 C1386 1.348 . S
C1385 C1403 1.472 . S
C1386 H1356 0.929 . S
C1386 C1385 1.348 . S
C1386 C1387 1.443 . S
C1387 H1354 0.932 . S
C1387 C1382 1.388 . S
C1387 C1386 1.443 . S
C1388 N1368 1.433 . S
C1388 C1389 1.363 . S
C1388 C1393 1.370 . S
C1389 H1357 0.929 . S
C1389 C1388 1.363 . S
C1389 C1390 1.385 . S
C1390 H1358 0.930 . S
C1390 C1389 1.385 . S
C1390 C1391 1.357 . S
C1391 C1390 1.357 . S
C1391 C1392 1.406 . S
C1392 H1359 0.929 . S
C1392 C1391 1.406 . S
C1392 C1393 1.391 . S
C1393 H1360 0.931 . S
C1393 C1388 1.370 . S
C1393 C1392 1.391 . S
C1394 N1368 1.435 . S
C1394 C1395 1.358 . S
C1394 C1399 1.371 . S
C1395 H1361 0.930 . S
C1395 C1394 1.358 . S
C1395 C1396 1.405 . S
C1396 H1362 0.932 . S
C1396 C1395 1.405 . S
C1396 C1397 1.383 . S
C1397 C1396 1.383 . S
C1397 C1398 1.393 . S
C1398 H1363 0.931 . S
C1398 C1397 1.393 . S
C1398 C1399 1.382 . S
C1399 H1364 0.929 . S
C1399 C1394 1.371 . S
C1399 C1398 1.382 . S
C1400 N1368 1.423 . S
C1400 C1401 1.362 . S
C1400 C1405 1.388 . S
C1401 H1365 0.929 . S
C1401 C1400 1.362 . S
C1401 C1402 1.376 . S
C1402 H1366 0.931 . S
C1402 C1401 1.376 . S
C1402 C1403 1.396 . S
C1403 C1385 1.472 . S
C1403 C1402 1.396 . S
C1403 C1404 1.348 . S
C1404 H1367 0.929 . S
C1404 C1403 1.348 . S
C1404 C1405 1.443 . S
C1405 H1369 0.932 . S
C1405 C1400 1.388 . S
C1405 C1404 1.443 . S
H1406 C1433 0.929 . S
N1407 C1432 1.433 . S
N1407 C1438 1.435 . S
N1407 C1444 1.423 . S
H1408 C1434 0.930 . S
H1409 C1437 0.931 . S
H1410 C1436 0.929 . S
H1411 C1439 0.930 . S
H1412 C1440 0.932 . S
H1413 C1443 0.929 . S
H1414 C1442 0.931 . S
H1415 C1445 0.929 . S
H1416 C1449 0.932 . S
H1417 C1446 0.931 . S
H1418 C1448 0.929 . S
H1419 C1451 0.929 . S
H1420 C1452 0.930 . S
H1421 C1454 0.929 . S
H1422 C1455 0.931 . S
H1423 C1457 0.930 . S
H1424 C1458 0.932 . S
H1425 C1460 0.931 . S
H1426 C1461 0.929 . S
H1427 C1463 0.929 . S
H1428 C1464 0.931 . S
H1429 C1466 0.929 . S
N1430 C1450 1.433 . S
N1430 C1456 1.435 . S
N1430 C1462 1.423 . S
H1431 C1467 0.932 . S
C1432 N1407 1.433 . S
C1432 C1433 1.363 . S
C1432 C1437 1.370 . S
C1433 H1406 0.929 . S
C1433 C1432 1.363 . S
C1433 C1434 1.385 . S
C1434 H1408 0.930 . S
C1434 C1433 1.385 . S
C1434 C1435 1.357 . S
C1435 C1434 1.357 . S
C1435 C1436 1.406 . S
C1436 H1410 0.929 . S
C1436 C1435 1.406 . S
C1436 C1437 1.391 . S
C1437 H1409 0.931 . S
C1437 C1432 1.370 . S
C1437 C1436 1.391 . S
C1438 N1407 1.435 . S
C1438 C1439 1.358 . S
C1438 C1443 1.371 . S
C1439 H1411 0.930 . S
C1439 C1438 1.358 . S
C1439 C1440 1.405 . S
C1440 H1412 0.932 . S
C1440 C1439 1.405 . S
C1440 C1441 1.383 . S
C1441 C1440 1.383 . S
C1441 C1442 1.393 . S
C1442 H1414 0.931 . S
C1442 C1441 1.393 . S
C1442 C1443 1.382 . S
C1443 H1413 0.929 . S
C1443 C1438 1.371 . S
C1443 C1442 1.382 . S
C1444 N1407 1.423 . S
C1444 C1445 1.362 . S
C1444 C1449 1.388 . S
C1445 H1415 0.929 . S
C1445 C1444 1.362 . S
C1445 C1446 1.376 . S
C1446 H1417 0.931 . S
C1446 C1445 1.376 . S
C1446 C1447 1.396 . S
C1447 C1446 1.396 . S
C1447 C1448 1.348 . S
C1447 C1465 1.472 . S
C1448 H1418 0.929 . S
C1448 C1447 1.348 . S
C1448 C1449 1.443 . S
C1449 H1416 0.932 . S
C1449 C1444 1.388 . S
C1449 C1448 1.443 . S
C1450 N1430 1.433 . S
C1450 C1451 1.363 . S
C1450 C1455 1.370 . S
C1451 H1419 0.929 . S
C1451 C1450 1.363 . S
C1451 C1452 1.385 . S
C1452 H1420 0.930 . S
C1452 C1451 1.385 . S
C1452 C1453 1.357 . S
C1453 C1452 1.357 . S
C1453 C1454 1.406 . S
C1454 H1421 0.929 . S
C1454 C1453 1.406 . S
C1454 C1455 1.391 . S
C1455 H1422 0.931 . S
C1455 C1450 1.370 . S
C1455 C1454 1.391 . S
C1456 N1430 1.435 . S
C1456 C1457 1.358 . S
C1456 C1461 1.371 . S
C1457 H1423 0.930 . S
C1457 C1456 1.358 . S
C1457 C1458 1.405 . S
C1458 H1424 0.932 . S
C1458 C1457 1.405 . S
C1458 C1459 1.383 . S
C1459 C1458 1.383 . S
C1459 C1460 1.393 . S
C1460 H1425 0.931 . S
C1460 C1459 1.393 . S
C1460 C1461 1.382 . S
C1461 H1426 0.929 . S
C1461 C1456 1.371 . S
C1461 C1460 1.382 . S
C1462 N1430 1.423 . S
C1462 C1463 1.362 . S
C1462 C1467 1.388 . S
C1463 H1427 0.929 . S
C1463 C1462 1.362 . S
C1463 C1464 1.376 . S
C1464 H1428 0.931 . S
C1464 C1463 1.376 . S
C1464 C1465 1.396 . S
C1465 C1447 1.472 . S
C1465 C1464 1.396 . S
C1465 C1466 1.348 . S
C1466 H1429 0.929 . S
C1466 C1465 1.348 . S
C1466 C1467 1.443 . S
C1467 H1431 0.932 . S
C1467 C1462 1.388 . S
C1467 C1466 1.443 . S
H1468 C1495 0.929 . S
N1469 C1494 1.433 . S
N1469 C1500 1.435 . S
N1469 C1506 1.423 . S
H1470 C1496 0.930 . S
H1471 C1499 0.931 . S
H1472 C1498 0.929 . S
H1473 C1501 0.930 . S
H1474 C1502 0.932 . S
H1475 C1505 0.929 . S
H1476 C1504 0.931 . S
H1477 C1507 0.929 . S
H1478 C1511 0.932 . S
H1479 C1508 0.931 . S
H1480 C1510 0.929 . S
H1481 C1513 0.929 . S
H1482 C1514 0.930 . S
H1483 C1516 0.929 . S
H1484 C1517 0.931 . S
H1485 C1519 0.930 . S
H1486 C1520 0.932 . S
H1487 C1522 0.931 . S
H1488 C1523 0.929 . S
H1489 C1525 0.929 . S
H1490 C1526 0.931 . S
H1491 C1528 0.929 . S
N1492 C1512 1.433 . S
N1492 C1518 1.435 . S
N1492 C1524 1.423 . S
H1493 C1529 0.932 . S
C1494 N1469 1.433 . S
C1494 C1495 1.363 . S
C1494 C1499 1.370 . S
C1495 H1468 0.929 . S
C1495 C1494 1.363 . S
C1495 C1496 1.385 . S
C1496 H1470 0.930 . S
C1496 C1495 1.385 . S
C1496 C1497 1.357 . S
C1497 C1496 1.357 . S
C1497 C1498 1.406 . S
C1498 H1472 0.929 . S
C1498 C1497 1.406 . S
C1498 C1499 1.391 . S
C1499 H1471 0.931 . S
C1499 C1494 1.370 . S
C1499 C1498 1.391 . S
C1500 N1469 1.435 . S
C1500 C1501 1.358 . S
C1500 C1505 1.371 . S
C1501 H1473 0.930 . S
C1501 C1500 1.358 . S
C1501 C1502 1.405 . S
C1502 H1474 0.932 . S
C1502 C1501 1.405 . S
C1502 C1503 1.383 . S
C1503 C1502 1.383 . S
C1503 C1504 1.393 . S
C1504 H1476 0.931 . S
C1504 C1503 1.393 . S
C1504 C1505 1.382 . S
C1505 H1475 0.929 . S
C1505 C1500 1.371 . S
C1505 C1504 1.382 . S
C1506 N1469 1.423 . S
C1506 C1507 1.362 . S
C1506 C1511 1.388 . S
C1507 H1477 0.929 . S
C1507 C1506 1.362 . S
C1507 C1508 1.376 . S
C1508 H1479 0.931 . S
C1508 C1507 1.376 . S
C1508 C1509 1.396 . S
C1509 C1508 1.396 . S
C1509 C1510 1.348 . S
C1509 C1527 1.472 . S
C1510 H1480 0.929 . S
C1510 C1509 1.348 . S
C1510 C1511 1.443 . S
C1511 H1478 0.932 . S
C1511 C1506 1.388 . S
C1511 C1510 1.443 . S
C1512 N1492 1.433 . S
C1512 C1513 1.363 . S
C1512 C1517 1.370 . S
C1513 H1481 0.929 . S
C1513 C1512 1.363 . S
C1513 C1514 1.385 . S
C1514 H1482 0.930 . S
C1514 C1513 1.385 . S
C1514 C1515 1.357 . S
C1515 C1514 1.357 . S
C1515 C1516 1.406 . S
C1516 H1483 0.929 . S
C1516 C1515 1.406 . S
C1516 C1517 1.391 . S
C1517 H1484 0.931 . S
C1517 C1512 1.370 . S
C1517 C1516 1.391 . S
C1518 N1492 1.435 . S
C1518 C1519 1.358 . S
C1518 C1523 1.371 . S
C1519 H1485 0.930 . S
C1519 C1518 1.358 . S
C1519 C1520 1.405 . S
C1520 H1486 0.932 . S
C1520 C1519 1.405 . S
C1520 C1521 1.383 . S
C1521 C1520 1.383 . S
C1521 C1522 1.393 . S
C1522 H1487 0.931 . S
C1522 C1521 1.393 . S
C1522 C1523 1.382 . S
C1523 H1488 0.929 . S
C1523 C1518 1.371 . S
C1523 C1522 1.382 . S
C1524 N1492 1.423 . S
C1524 C1525 1.362 . S
C1524 C1529 1.388 . S
C1525 H1489 0.929 . S
C1525 C1524 1.362 . S
C1525 C1526 1.376 . S
C1526 H1490 0.931 . S
C1526 C1525 1.376 . S
C1526 C1527 1.396 . S
C1527 C1509 1.472 . S
C1527 C1526 1.396 . S
C1527 C1528 1.348 . S
C1528 H1491 0.929 . S
C1528 C1527 1.348 . S
C1528 C1529 1.443 . S
C1529 H1493 0.932 . S
C1529 C1524 1.388 . S
C1529 C1528 1.443 . S
H1530 C1557 0.929 . S
N1531 C1556 1.433 . S
N1531 C1562 1.435 . S
N1531 C1568 1.423 . S
H1532 C1558 0.930 . S
H1533 C1561 0.931 . S
H1534 C1560 0.929 . S
H1535 C1563 0.930 . S
H1536 C1564 0.932 . S
H1537 C1567 0.929 . S
H1538 C1566 0.931 . S
H1539 C1569 0.929 . S
H1540 C1573 0.932 . S
H1541 C1570 0.931 . S
H1542 C1572 0.929 . S
H1543 C1575 0.929 . S
H1544 C1576 0.930 . S
H1545 C1578 0.929 . S
H1546 C1579 0.931 . S
H1547 C1581 0.930 . S
H1548 C1582 0.932 . S
H1549 C1584 0.931 . S
H1550 C1585 0.929 . S
H1551 C1587 0.929 . S
H1552 C1588 0.931 . S
H1553 C1590 0.929 . S
N1554 C1574 1.433 . S
N1554 C1580 1.435 . S
N1554 C1586 1.423 . S
H1555 C1591 0.932 . S
C1556 N1531 1.433 . S
C1556 C1557 1.363 . S
C1556 C1561 1.370 . S
C1557 H1530 0.929 . S
C1557 C1556 1.363 . S
C1557 C1558 1.385 . S
C1558 H1532 0.930 . S
C1558 C1557 1.385 . S
C1558 C1559 1.357 . S
C1559 C1558 1.357 . S
C1559 C1560 1.406 . S
C1560 H1534 0.929 . S
C1560 C1559 1.406 . S
C1560 C1561 1.391 . S
C1561 H1533 0.931 . S
C1561 C1556 1.370 . S
C1561 C1560 1.391 . S
C1562 N1531 1.435 . S
C1562 C1563 1.358 . S
C1562 C1567 1.371 . S
C1563 H1535 0.930 . S
C1563 C1562 1.358 . S
C1563 C1564 1.405 . S
C1564 H1536 0.932 . S
C1564 C1563 1.405 . S
C1564 C1565 1.383 . S
C1565 C1564 1.383 . S
C1565 C1566 1.393 . S
C1566 H1538 0.931 . S
C1566 C1565 1.393 . S
C1566 C1567 1.382 . S
C1567 H1537 0.929 . S
C1567 C1562 1.371 . S
C1567 C1566 1.382 . S
C1568 N1531 1.423 . S
C1568 C1569 1.362 . S
C1568 C1573 1.388 . S
C1569 H1539 0.929 . S
C1569 C1568 1.362 . S
C1569 C1570 1.376 . S
C1570 H1541 0.931 . S
C1570 C1569 1.376 . S
C1570 C1571 1.396 . S
C1571 C1570 1.396 . S
C1571 C1572 1.348 . S
C1571 C1589 1.472 . S
C1572 H1542 0.929 . S
C1572 C1571 1.348 . S
C1572 C1573 1.443 . S
C1573 H1540 0.932 . S
C1573 C1568 1.388 . S
C1573 C1572 1.443 . S
C1574 N1554 1.433 . S
C1574 C1575 1.363 . S
C1574 C1579 1.370 . S
C1575 H1543 0.929 . S
C1575 C1574 1.363 . S
C1575 C1576 1.385 . S
C1576 H1544 0.930 . S
C1576 C1575 1.385 . S
C1576 C1577 1.357 . S
C1577 C1576 1.357 . S
C1577 C1578 1.406 . S
C1578 H1545 0.929 . S
C1578 C1577 1.406 . S
C1578 C1579 1.391 . S
C1579 H1546 0.931 . S
C1579 C1574 1.370 . S
C1579 C1578 1.391 . S
C1580 N1554 1.435 . S
C1580 C1581 1.358 . S
C1580 C1585 1.371 . S
C1581 H1547 0.930 . S
C1581 C1580 1.358 . S
C1581 C1582 1.405 . S
C1582 H1548 0.932 . S
C1582 C1581 1.405 . S
C1582 C1583 1.383 . S
C1583 C1582 1.383 . S
C1583 C1584 1.393 . S
C1584 H1549 0.931 . S
C1584 C1583 1.393 . S
C1584 C1585 1.382 . S
C1585 H1550 0.929 . S
C1585 C1580 1.371 . S
C1585 C1584 1.382 . S
C1586 N1554 1.423 . S
C1586 C1587 1.362 . S
C1586 C1591 1.388 . S
C1587 H1551 0.929 . S
C1587 C1586 1.362 . S
C1587 C1588 1.376 . S
C1588 H1552 0.931 . S
C1588 C1587 1.376 . S
C1588 C1589 1.396 . S
C1589 C1571 1.472 . S
C1589 C1588 1.396 . S
C1589 C1590 1.348 . S
C1590 H1553 0.929 . S
C1590 C1589 1.348 . S
C1590 C1591 1.443 . S
C1591 H1555 0.932 . S
C1591 C1586 1.388 . S
C1591 C1590 1.443 . S
H1592 C1619 0.929 . S
N1593 C1618 1.433 . S
N1593 C1624 1.435 . S
N1593 C1630 1.423 . S
H1594 C1620 0.930 . S
H1595 C1623 0.931 . S
H1596 C1622 0.929 . S
H1597 C1625 0.930 . S
H1598 C1626 0.932 . S
H1599 C1629 0.929 . S
H1600 C1628 0.931 . S
H1601 C1631 0.929 . S
H1602 C1635 0.932 . S
H1603 C1632 0.931 . S
H1604 C1634 0.929 . S
H1605 C1637 0.929 . S
H1606 C1638 0.930 . S
H1607 C1640 0.929 . S
H1608 C1641 0.931 . S
H1609 C1643 0.930 . S
H1610 C1644 0.932 . S
H1611 C1646 0.931 . S
H1612 C1647 0.929 . S
H1613 C1649 0.929 . S
H1614 C1650 0.931 . S
H1615 C1652 0.929 . S
N1616 C1636 1.433 . S
N1616 C1642 1.435 . S
N1616 C1648 1.423 . S
H1617 C1653 0.932 . S
C1618 N1593 1.433 . S
C1618 C1619 1.363 . S
C1618 C1623 1.370 . S
C1619 H1592 0.929 . S
C1619 C1618 1.363 . S
C1619 C1620 1.385 . S
C1620 H1594 0.930 . S
C1620 C1619 1.385 . S
C1620 C1621 1.357 . S
C1621 C1620 1.357 . S
C1621 C1622 1.406 . S
C1622 H1596 0.929 . S
C1622 C1621 1.406 . S
C1622 C1623 1.391 . S
C1623 H1595 0.931 . S
C1623 C1618 1.370 . S
C1623 C1622 1.391 . S
C1624 N1593 1.435 . S
C1624 C1625 1.358 . S
C1624 C1629 1.371 . S
C1625 H1597 0.930 . S
C1625 C1624 1.358 . S
C1625 C1626 1.405 . S
C1626 H1598 0.932 . S
C1626 C1625 1.405 . S
C1626 C1627 1.383 . S
C1627 C1626 1.383 . S
C1627 C1628 1.393 . S
C1628 H1600 0.931 . S
C1628 C1627 1.393 . S
C1628 C1629 1.382 . S
C1629 H1599 0.929 . S
C1629 C1624 1.371 . S
C1629 C1628 1.382 . S
C1630 N1593 1.423 . S
C1630 C1631 1.362 . S
C1630 C1635 1.388 . S
C1631 H1601 0.929 . S
C1631 C1630 1.362 . S
C1631 C1632 1.376 . S
C1632 H1603 0.931 . S
C1632 C1631 1.376 . S
C1632 C1633 1.396 . S
C1633 C1632 1.396 . S
C1633 C1634 1.348 . S
C1633 C1651 1.472 . S
C1634 H1604 0.929 . S
C1634 C1633 1.348 . S
C1634 C1635 1.443 . S
C1635 H1602 0.932 . S
C1635 C1630 1.388 . S
C1635 C1634 1.443 . S
C1636 N1616 1.433 . S
C1636 C1637 1.363 . S
C1636 C1641 1.370 . S
C1637 H1605 0.929 . S
C1637 C1636 1.363 . S
C1637 C1638 1.385 . S
C1638 H1606 0.930 . S
C1638 C1637 1.385 . S
C1638 C1639 1.357 . S
C1639 C1638 1.357 . S
C1639 C1640 1.406 . S
C1640 H1607 0.929 . S
C1640 C1639 1.406 . S
C1640 C1641 1.391 . S
C1641 H1608 0.931 . S
C1641 C1636 1.370 . S
C1641 C1640 1.391 . S
C1642 N1616 1.435 . S
C1642 C1643 1.358 . S
C1642 C1647 1.371 . S
C1643 H1609 0.930 . S
C1643 C1642 1.358 . S
C1643 C1644 1.405 . S
C1644 H1610 0.932 . S
C1644 C1643 1.405 . S
C1644 C1645 1.383 . S
C1645 C1644 1.383 . S
C1645 C1646 1.393 . S
C1646 H1611 0.931 . S
C1646 C1645 1.393 . S
C1646 C1647 1.382 . S
C1647 H1612 0.929 . S
C1647 C1642 1.371 . S
C1647 C1646 1.382 . S
C1648 N1616 1.423 . S
C1648 C1649 1.362 . S
C1648 C1653 1.388 . S
C1649 H1613 0.929 . S
C1649 C1648 1.362 . S
C1649 C1650 1.376 . S
C1650 H1614 0.931 . S
C1650 C1649 1.376 . S
C1650 C1651 1.396 . S
C1651 C1633 1.472 . S
C1651 C1650 1.396 . S
C1651 C1652 1.348 . S
C1652 H1615 0.929 . S
C1652 C1651 1.348 . S
C1652 C1653 1.443 . S
C1653 H1617 0.932 . S
C1653 C1648 1.388 . S
C1653 C1652 1.443 . S
H1654 C1681 0.929 . S
N1655 C1680 1.433 . S
N1655 C1686 1.435 . S
N1655 C1692 1.423 . S
H1656 C1682 0.930 . S
H1657 C1685 0.931 . S
H1658 C1684 0.929 . S
H1659 C1687 0.930 . S
H1660 C1688 0.932 . S
H1661 C1691 0.929 . S
H1662 C1690 0.931 . S
H1663 C1693 0.929 . S
H1664 C1697 0.932 . S
H1665 C1694 0.931 . S
H1666 C1696 0.929 . S
H1667 C1699 0.929 . S
H1668 C1700 0.930 . S
H1669 C1702 0.929 . S
H1670 C1703 0.931 . S
H1671 C1705 0.930 . S
H1672 C1706 0.932 . S
H1673 C1708 0.931 . S
H1674 C1709 0.929 . S
H1675 C1711 0.929 . S
H1676 C1712 0.931 . S
H1677 C1714 0.929 . S
N1678 C1698 1.433 . S
N1678 C1704 1.435 . S
N1678 C1710 1.423 . S
H1679 C1715 0.932 . S
C1680 N1655 1.433 . S
C1680 C1681 1.363 . S
C1680 C1685 1.370 . S
C1681 H1654 0.929 . S
C1681 C1680 1.363 . S
C1681 C1682 1.385 . S
C1682 H1656 0.930 . S
C1682 C1681 1.385 . S
C1682 C1683 1.357 . S
C1683 C1682 1.357 . S
C1683 C1684 1.406 . S
C1684 H1658 0.929 . S
C1684 C1683 1.406 . S
C1684 C1685 1.391 . S
C1685 H1657 0.931 . S
C1685 C1680 1.370 . S
C1685 C1684 1.391 . S
C1686 N1655 1.435 . S
C1686 C1687 1.358 . S
C1686 C1691 1.371 . S
C1687 H1659 0.930 . S
C1687 C1686 1.358 . S
C1687 C1688 1.405 . S
C1688 H1660 0.932 . S
C1688 C1687 1.405 . S
C1688 C1689 1.383 . S
C1689 C1688 1.383 . S
C1689 C1690 1.393 . S
C1690 H1662 0.931 . S
C1690 C1689 1.393 . S
C1690 C1691 1.382 . S
C1691 H1661 0.929 . S
C1691 C1686 1.371 . S
C1691 C1690 1.382 . S
C1692 N1655 1.423 . S
C1692 C1693 1.362 . S
C1692 C1697 1.388 . S
C1693 H1663 0.929 . S
C1693 C1692 1.362 . S
C1693 C1694 1.376 . S
C1694 H1665 0.931 . S
C1694 C1693 1.376 . S
C1694 C1695 1.396 . S
C1695 C1694 1.396 . S
C1695 C1696 1.348 . S
C1695 C1713 1.472 . S
C1696 H1666 0.929 . S
C1696 C1695 1.348 . S
C1696 C1697 1.443 . S
C1697 H1664 0.932 . S
C1697 C1692 1.388 . S
C1697 C1696 1.443 . S
C1698 N1678 1.433 . S
C1698 C1699 1.363 . S
C1698 C1703 1.370 . S
C1699 H1667 0.929 . S
C1699 C1698 1.363 . S
C1699 C1700 1.385 . S
C1700 H1668 0.930 . S
C1700 C1699 1.385 . S
C1700 C1701 1.357 . S
C1701 C1700 1.357 . S
C1701 C1702 1.406 . S
C1702 H1669 0.929 . S
C1702 C1701 1.406 . S
C1702 C1703 1.391 . S
C1703 H1670 0.931 . S
C1703 C1698 1.370 . S
C1703 C1702 1.391 . S
C1704 N1678 1.435 . S
C1704 C1705 1.358 . S
C1704 C1709 1.371 . S
C1705 H1671 0.930 . S
C1705 C1704 1.358 . S
C1705 C1706 1.405 . S
C1706 H1672 0.932 . S
C1706 C1705 1.405 . S
C1706 C1707 1.383 . S
C1707 C1706 1.383 . S
C1707 C1708 1.393 . S
C1708 H1673 0.931 . S
C1708 C1707 1.393 . S
C1708 C1709 1.382 . S
C1709 H1674 0.929 . S
C1709 C1704 1.371 . S
C1709 C1708 1.382 . S
C1710 N1678 1.423 . S
C1710 C1711 1.362 . S
C1710 C1715 1.388 . S
C1711 H1675 0.929 . S
C1711 C1710 1.362 . S
C1711 C1712 1.376 . S
C1712 H1676 0.931 . S
C1712 C1711 1.376 . S
C1712 C1713 1.396 . S
C1713 C1695 1.472 . S
C1713 C1712 1.396 . S
C1713 C1714 1.348 . S
C1714 H1677 0.929 . S
C1714 C1713 1.348 . S
C1714 C1715 1.443 . S
C1715 H1679 0.932 . S
C1715 C1710 1.388 . S
C1715 C1714 1.443 . S
H1716 C1743 0.929 . S
N1717 C1742 1.433 . S
N1717 C1748 1.435 . S
N1717 C1754 1.423 . S
H1718 C1744 0.930 . S
H1719 C1747 0.931 . S
H1720 C1746 0.929 . S
H1721 C1749 0.930 . S
H1722 C1750 0.932 . S
H1723 C1753 0.929 . S
H1724 C1752 0.931 . S
H1725 C1755 0.929 . S
H1726 C1759 0.932 . S
H1727 C1756 0.931 . S
H1728 C1758 0.929 . S
H1729 C1761 0.929 . S
H1730 C1762 0.930 . S
H1731 C1764 0.929 . S
H1732 C1765 0.931 . S
H1733 C1767 0.930 . S
H1734 C1768 0.932 . S
H1735 C1770 0.931 . S
H1736 C1771 0.929 . S
H1737 C1773 0.929 . S
H1738 C1774 0.931 . S
H1739 C1776 0.929 . S
N1740 C1760 1.433 . S
N1740 C1766 1.435 . S
N1740 C1772 1.423 . S
H1741 C1777 0.932 . S
C1742 N1717 1.433 . S
C1742 C1743 1.363 . S
C1742 C1747 1.370 . S
C1743 H1716 0.929 . S
C1743 C1742 1.363 . S
C1743 C1744 1.385 . S
C1744 H1718 0.930 . S
C1744 C1743 1.385 . S
C1744 C1745 1.357 . S
C1745 C1744 1.357 . S
C1745 C1746 1.406 . S
C1746 H1720 0.929 . S
C1746 C1745 1.406 . S
C1746 C1747 1.391 . S
C1747 H1719 0.931 . S
C1747 C1742 1.370 . S
C1747 C1746 1.391 . S
C1748 N1717 1.435 . S
C1748 C1749 1.358 . S
C1748 C1753 1.371 . S
C1749 H1721 0.930 . S
C1749 C1748 1.358 . S
C1749 C1750 1.405 . S
C1750 H1722 0.932 . S
C1750 C1749 1.405 . S
C1750 C1751 1.383 . S
C1751 C1750 1.383 . S
C1751 C1752 1.393 . S
C1752 H1724 0.931 . S
C1752 C1751 1.393 . S
C1752 C1753 1.382 . S
C1753 H1723 0.929 . S
C1753 C1748 1.371 . S
C1753 C1752 1.382 . S
C1754 N1717 1.423 . S
C1754 C1755 1.362 . S
C1754 C1759 1.388 . S
C1755 H1725 0.929 . S
C1755 C1754 1.362 . S
C1755 C1756 1.376 . S
C1756 H1727 0.931 . S
C1756 C1755 1.376 . S
C1756 C1757 1.396 . S
C1757 C1756 1.396 . S
C1757 C1758 1.348 . S
C1757 C1775 1.472 . S
C1758 H1728 0.929 . S
C1758 C1757 1.348 . S
C1758 C1759 1.443 . S
C1759 H1726 0.932 . S
C1759 C1754 1.388 . S
C1759 C1758 1.443 . S
C1760 N1740 1.433 . S
C1760 C1761 1.363 . S
C1760 C1765 1.370 . S
C1761 H1729 0.929 . S
C1761 C1760 1.363 . S
C1761 C1762 1.385 . S
C1762 H1730 0.930 . S
C1762 C1761 1.385 . S
C1762 C1763 1.357 . S
C1763 C1762 1.357 . S
C1763 C1764 1.406 . S
C1764 H1731 0.929 . S
C1764 C1763 1.406 . S
C1764 C1765 1.391 . S
C1765 H1732 0.931 . S
C1765 C1760 1.370 . S
C1765 C1764 1.391 . S
C1766 N1740 1.435 . S
C1766 C1767 1.358 . S
C1766 C1771 1.371 . S
C1767 H1733 0.930 . S
C1767 C1766 1.358 . S
C1767 C1768 1.405 . S
C1768 H1734 0.932 . S
C1768 C1767 1.405 . S
C1768 C1769 1.383 . S
C1769 C1768 1.383 . S
C1769 C1770 1.393 . S
C1770 H1735 0.931 . S
C1770 C1769 1.393 . S
C1770 C1771 1.382 . S
C1771 H1736 0.929 . S
C1771 C1766 1.371 . S
C1771 C1770 1.382 . S
C1772 N1740 1.423 . S
C1772 C1773 1.362 . S
C1772 C1777 1.388 . S
C1773 H1737 0.929 . S
C1773 C1772 1.362 . S
C1773 C1774 1.376 . S
C1774 H1738 0.931 . S
C1774 C1773 1.376 . S
C1774 C1775 1.396 . S
C1775 C1757 1.472 . S
C1775 C1774 1.396 . S
C1775 C1776 1.348 . S
C1776 H1739 0.929 . S
C1776 C1775 1.348 . S
C1776 C1777 1.443 . S
C1777 H1741 0.932 . S
C1777 C1772 1.388 . S
C1777 C1776 1.443 . S
H1778 C1805 0.929 . S
N1779 C1804 1.433 . S
N1779 C1810 1.435 . S
N1779 C1816 1.423 . S
H1780 C1806 0.930 . S
H1781 C1809 0.931 . S
H1782 C1808 0.929 . S
H1783 C1811 0.930 . S
H1784 C1812 0.932 . S
H1785 C1815 0.929 . S
H1786 C1814 0.931 . S
H1787 C1817 0.929 . S
H1788 C1821 0.932 . S
H1789 C1818 0.931 . S
H1790 C1820 0.929 . S
H1791 C1823 0.929 . S
H1792 C1824 0.930 . S
H1793 C1826 0.929 . S
H1794 C1827 0.931 . S
H1795 C1829 0.930 . S
H1796 C1830 0.932 . S
H1797 C1832 0.931 . S
H1798 C1833 0.929 . S
H1799 C1835 0.929 . S
H1800 C1836 0.931 . S
H1801 C1838 0.929 . S
N1802 C1822 1.433 . S
N1802 C1828 1.435 . S
N1802 C1834 1.423 . S
H1803 C1839 0.932 . S
C1804 N1779 1.433 . S
C1804 C1805 1.363 . S
C1804 C1809 1.370 . S
C1805 H1778 0.929 . S
C1805 C1804 1.363 . S
C1805 C1806 1.385 . S
C1806 H1780 0.930 . S
C1806 C1805 1.385 . S
C1806 C1807 1.357 . S
C1807 C1806 1.357 . S
C1807 C1808 1.406 . S
C1808 H1782 0.929 . S
C1808 C1807 1.406 . S
C1808 C1809 1.391 . S
C1809 H1781 0.931 . S
C1809 C1804 1.370 . S
C1809 C1808 1.391 . S
C1810 N1779 1.435 . S
C1810 C1811 1.358 . S
C1810 C1815 1.371 . S
C1811 H1783 0.930 . S
C1811 C1810 1.358 . S
C1811 C1812 1.405 . S
C1812 H1784 0.932 . S
C1812 C1811 1.405 . S
C1812 C1813 1.383 . S
C1813 C1812 1.383 . S
C1813 C1814 1.393 . S
C1814 H1786 0.931 . S
C1814 C1813 1.393 . S
C1814 C1815 1.382 . S
C1815 H1785 0.929 . S
C1815 C1810 1.371 . S
C1815 C1814 1.382 . S
C1816 N1779 1.423 . S
C1816 C1817 1.362 . S
C1816 C1821 1.388 . S
C1817 H1787 0.929 . S
C1817 C1816 1.362 . S
C1817 C1818 1.376 . S
C1818 H1789 0.931 . S
C1818 C1817 1.376 . S
C1818 C1819 1.396 . S
C1819 C1818 1.396 . S
C1819 C1820 1.348 . S
C1819 C1837 1.472 . S
C1820 H1790 0.929 . S
C1820 C1819 1.348 . S
C1820 C1821 1.443 . S
C1821 H1788 0.932 . S
C1821 C1816 1.388 . S
C1821 C1820 1.443 . S
C1822 N1802 1.433 . S
C1822 C1823 1.363 . S
C1822 C1827 1.370 . S
C1823 H1791 0.929 . S
C1823 C1822 1.363 . S
C1823 C1824 1.385 . S
C1824 H1792 0.930 . S
C1824 C1823 1.385 . S
C1824 C1825 1.357 . S
C1825 C1824 1.357 . S
C1825 C1826 1.406 . S
C1826 H1793 0.929 . S
C1826 C1825 1.406 . S
C1826 C1827 1.391 . S
C1827 H1794 0.931 . S
C1827 C1822 1.370 . S
C1827 C1826 1.391 . S
C1828 N1802 1.435 . S
C1828 C1829 1.358 . S
C1828 C1833 1.371 . S
C1829 H1795 0.930 . S
C1829 C1828 1.358 . S
C1829 C1830 1.405 . S
C1830 H1796 0.932 . S
C1830 C1829 1.405 . S
C1830 C1831 1.383 . S
C1831 C1830 1.383 . S
C1831 C1832 1.393 . S
C1832 H1797 0.931 . S
C1832 C1831 1.393 . S
C1832 C1833 1.382 . S
C1833 H1798 0.929 . S
C1833 C1828 1.371 . S
C1833 C1832 1.382 . S
C1834 N1802 1.423 . S
C1834 C1835 1.362 . S
C1834 C1839 1.388 . S
C1835 H1799 0.929 . S
C1835 C1834 1.362 . S
C1835 C1836 1.376 . S
C1836 H1800 0.931 . S
C1836 C1835 1.376 . S
C1836 C1837 1.396 . S
C1837 C1819 1.472 . S
C1837 C1836 1.396 . S
C1837 C1838 1.348 . S
C1838 H1801 0.929 . S
C1838 C1837 1.348 . S
C1838 C1839 1.443 . S
C1839 H1803 0.932 . S
C1839 C1834 1.388 . S
C1839 C1838 1.443 . S
H1840 C1848 0.929 . S
H1841 C1850 0.930 . S
H1842 C1852 0.930 . S
H1843 C1855 0.929 . S
H1844 C1858 0.930 . S
H1845 C1860 0.960 . S
H1846 C1860 0.960 . S
H1847 C1860 0.960 . S
C1848 H1840 0.929 . S
C1848 C1849 1.377 . S
C1848 C1850 1.384 . S
C1849 C1848 1.377 . S
C1849 C1855 1.390 . S
C1850 H1841 0.930 . S
C1850 C1848 1.384 . S
C1850 C1851 1.372 . S
C1851 C1850 1.372 . S
C1851 C1852 1.400 . S
C1851 C1856 1.490 . S
C1852 H1842 0.930 . S
C1852 C1851 1.400 . S
C1852 C1855 1.386 . S
H1853 C1869 0.930 . S
H1854 C1870 0.931 . S
C1855 H1843 0.929 . S
C1855 C1849 1.390 . S
C1855 C1852 1.386 . S
C1856 C1851 1.490 . S
C1856 C1858 1.395 . S
C1856 C1859 1.403 . S
H1857 C1863 0.930 . S
C1858 H1844 0.930 . S
C1858 C1856 1.395 . S
C1858 C1861 1.403 . S
C1859 C1856 1.403 . S
C1859 C1860 1.524 . S
C1859 C1863 1.400 . S
C1860 H1845 0.960 . S
C1860 H1846 0.960 . S
C1860 H1847 0.960 . S
C1860 C1859 1.524 . S
C1861 C1858 1.403 . S
C1861 C1862 1.392 . S
C1861 C1865 1.495 . S
C1862 C1861 1.392 . S
C1862 C1863 1.385 . S
C1862 C1864 1.478 . S
C1863 H1857 0.930 . S
C1863 C1859 1.400 . S
C1863 C1862 1.385 . S
C1864 C1862 1.478 . S
C1864 C1866 1.381 . S
C1864 C1870 1.383 . S
C1865 C1861 1.495 . S
C1865 H1871 0.959 . S
C1865 H1872 0.961 . S
C1865 H1873 0.960 . S
C1866 C1864 1.381 . S
C1866 C1867 1.394 . S
C1866 H1874 0.930 . S
C1867 C1866 1.394 . S
C1867 C1868 1.383 . S
C1867 H1875 0.929 . S
C1868 C1867 1.383 . S
C1868 C1869 1.377 . S
C1869 H1853 0.930 . S
C1869 C1868 1.377 . S
C1869 C1870 1.379 . S
C1870 H1854 0.931 . S
C1870 C1864 1.383 . S
C1870 C1869 1.379 . S
H1871 C1865 0.959 . S
H1872 C1865 0.961 . S
H1873 C1865 0.960 . S
H1874 C1866 0.930 . S
H1875 C1867 0.929 . S
H1876 C1884 0.929 . S
H1877 C1886 0.930 . S
H1878 C1888 0.930 . S
H1879 C1891 0.929 . S
H1880 C1894 0.930 . S
H1881 C1896 0.960 . S
H1882 C1896 0.960 . S
H1883 C1896 0.960 . S
C1884 H1876 0.929 . S
C1884 C1885 1.377 . S
C1884 C1886 1.384 . S
C1885 C1884 1.377 . S
C1885 C1891 1.390 . S
C1886 H1877 0.930 . S
C1886 C1884 1.384 . S
C1886 C1887 1.372 . S
C1887 C1886 1.372 . S
C1887 C1888 1.400 . S
C1887 C1892 1.490 . S
C1888 H1878 0.930 . S
C1888 C1887 1.400 . S
C1888 C1891 1.386 . S
H1889 C1905 0.930 . S
H1890 C1906 0.931 . S
C1891 H1879 0.929 . S
C1891 C1885 1.390 . S
C1891 C1888 1.386 . S
C1892 C1887 1.490 . S
C1892 C1894 1.395 . S
C1892 C1895 1.403 . S
H1893 C1899 0.930 . S
C1894 H1880 0.930 . S
C1894 C1892 1.395 . S
C1894 C1897 1.403 . S
C1895 C1892 1.403 . S
C1895 C1896 1.524 . S
C1895 C1899 1.400 . S
C1896 H1881 0.960 . S
C1896 H1882 0.960 . S
C1896 H1883 0.960 . S
C1896 C1895 1.524 . S
C1897 C1894 1.403 . S
C1897 C1898 1.392 . S
C1897 C1901 1.495 . S
C1898 C1897 1.392 . S
C1898 C1899 1.385 . S
C1898 C1900 1.478 . S
C1899 H1893 0.930 . S
C1899 C1895 1.400 . S
C1899 C1898 1.385 . S
C1900 C1898 1.478 . S
C1900 C1902 1.381 . S
C1900 C1906 1.383 . S
C1901 C1897 1.495 . S
C1901 H1907 0.959 . S
C1901 H1908 0.961 . S
C1901 H1909 0.960 . S
C1902 C1900 1.381 . S
C1902 C1903 1.394 . S
C1902 H1910 0.930 . S
C1903 C1902 1.394 . S
C1903 C1904 1.383 . S
C1903 H1911 0.929 . S
C1904 C1903 1.383 . S
C1904 C1905 1.377 . S
C1905 H1889 0.930 . S
C1905 C1904 1.377 . S
C1905 C1906 1.379 . S
C1906 H1890 0.931 . S
C1906 C1900 1.383 . S
C1906 C1905 1.379 . S
H1907 C1901 0.959 . S
H1908 C1901 0.961 . S
H1909 C1901 0.960 . S
H1910 C1902 0.930 . S
H1911 C1903 0.929 . S
H1912 C1920 0.929 . S
H1913 C1922 0.930 . S
H1914 C1924 0.930 . S
H1915 C1927 0.929 . S
H1916 C1930 0.930 . S
H1917 C1932 0.960 . S
H1918 C1932 0.960 . S
H1919 C1932 0.960 . S
C1920 H1912 0.929 . S
C1920 C1921 1.377 . S
C1920 C1922 1.384 . S
C1921 C1920 1.377 . S
C1921 C1927 1.390 . S
C1922 H1913 0.930 . S
C1922 C1920 1.384 . S
C1922 C1923 1.372 . S
C1923 C1922 1.372 . S
C1923 C1924 1.400 . S
C1923 C1928 1.490 . S
C1924 H1914 0.930 . S
C1924 C1923 1.400 . S
C1924 C1927 1.386 . S
H1925 C1941 0.930 . S
H1926 C1942 0.931 . S
C1927 H1915 0.929 . S
C1927 C1921 1.390 . S
C1927 C1924 1.386 . S
C1928 C1923 1.490 . S
C1928 C1930 1.395 . S
C1928 C1931 1.403 . S
H1929 C1935 0.930 . S
C1930 H1916 0.930 . S
C1930 C1928 1.395 . S
C1930 C1933 1.403 . S
C1931 C1928 1.403 . S
C1931 C1932 1.524 . S
C1931 C1935 1.400 . S
C1932 H1917 0.960 . S
C1932 H1918 0.960 . S
C1932 H1919 0.960 . S
C1932 C1931 1.524 . S
C1933 C1930 1.403 . S
C1933 C1934 1.392 . S
C1933 C1937 1.495 . S
C1934 C1933 1.392 . S
C1934 C1935 1.385 . S
C1934 C1936 1.478 . S
C1935 H1929 0.930 . S
C1935 C1931 1.400 . S
C1935 C1934 1.385 . S
C1936 C1934 1.478 . S
C1936 C1938 1.381 . S
C1936 C1942 1.383 . S
C1937 C1933 1.495 . S
C1937 H1943 0.959 . S
C1937 H1944 0.961 . S
C1937 H1945 0.960 . S
C1938 C1936 1.381 . S
C1938 C1939 1.394 . S
C1938 H1946 0.930 . S
C1939 C1938 1.394 . S
C1939 C1940 1.383 . S
C1939 H1947 0.929 . S
C1940 C1939 1.383 . S
C1940 C1941 1.377 . S
C1941 H1925 0.930 . S
C1941 C1940 1.377 . S
C1941 C1942 1.379 . S
C1942 H1926 0.931 . S
C1942 C1936 1.383 . S
C1942 C1941 1.379 . S
H1943 C1937 0.959 . S
H1944 C1937 0.961 . S
H1945 C1937 0.960 . S
H1946 C1938 0.930 . S
H1947 C1939 0.929 . S
H1948 C1956 0.929 . S
H1949 C1958 0.930 . S
H1950 C1960 0.930 . S
H1951 C1963 0.929 . S
H1952 C1966 0.930 . S
H1953 C1968 0.960 . S
H1954 C1968 0.960 . S
H1955 C1968 0.960 . S
C1956 H1948 0.929 . S
C1956 C1957 1.377 . S
C1956 C1958 1.384 . S
C1957 C1956 1.377 . S
C1957 C1963 1.390 . S
C1958 H1949 0.930 . S
C1958 C1956 1.384 . S
C1958 C1959 1.372 . S
C1959 C1958 1.372 . S
C1959 C1960 1.400 . S
C1959 C1964 1.490 . S
C1960 H1950 0.930 . S
C1960 C1959 1.400 . S
C1960 C1963 1.386 . S
H1961 C1977 0.930 . S
H1962 C1978 0.931 . S
C1963 H1951 0.929 . S
C1963 C1957 1.390 . S
C1963 C1960 1.386 . S
C1964 C1959 1.490 . S
C1964 C1966 1.395 . S
C1964 C1967 1.403 . S
H1965 C1971 0.930 . S
C1966 H1952 0.930 . S
C1966 C1964 1.395 . S
C1966 C1969 1.403 . S
C1967 C1964 1.403 . S
C1967 C1968 1.524 . S
C1967 C1971 1.400 . S
C1968 H1953 0.960 . S
C1968 H1954 0.960 . S
C1968 H1955 0.960 . S
C1968 C1967 1.524 . S
C1969 C1966 1.403 . S
C1969 C1970 1.392 . S
C1969 C1973 1.495 . S
C1970 C1969 1.392 . S
C1970 C1971 1.385 . S
C1970 C1972 1.478 . S
C1971 H1965 0.930 . S
C1971 C1967 1.400 . S
C1971 C1970 1.385 . S
C1972 C1970 1.478 . S
C1972 C1974 1.381 . S
C1972 C1978 1.383 . S
C1973 C1969 1.495 . S
C1973 H1979 0.959 . S
C1973 H1980 0.961 . S
C1973 H1981 0.960 . S
C1974 C1972 1.381 . S
C1974 C1975 1.394 . S
C1974 H1982 0.930 . S
C1975 C1974 1.394 . S
C1975 C1976 1.383 . S
C1975 H1983 0.929 . S
C1976 C1975 1.383 . S
C1976 C1977 1.377 . S
C1977 H1961 0.930 . S
C1977 C1976 1.377 . S
C1977 C1978 1.379 . S
C1978 H1962 0.931 . S
C1978 C1972 1.383 . S
C1978 C1977 1.379 . S
H1979 C1973 0.959 . S
H1980 C1973 0.961 . S
H1981 C1973 0.960 . S
H1982 C1974 0.930 . S
H1983 C1975 0.929 . S
H1984 C1992 0.929 . S
H1985 C1994 0.930 . S
H1986 C1996 0.930 . S
H1987 C1999 0.929 . S
H1988 C2002 0.930 . S
H1989 C2004 0.960 . S
H1990 C2004 0.960 . S
H1991 C2004 0.960 . S
C1992 H1984 0.929 . S
C1992 C1993 1.377 . S
C1992 C1994 1.384 . S
C1993 C1992 1.377 . S
C1993 C1999 1.390 . S
C1994 H1985 0.930 . S
C1994 C1992 1.384 . S
C1994 C1995 1.372 . S
C1995 C1994 1.372 . S
C1995 C1996 1.400 . S
C1995 C2000 1.490 . S
C1996 H1986 0.930 . S
C1996 C1995 1.400 . S
C1996 C1999 1.386 . S
H1997 C2013 0.930 . S
H1998 C2014 0.931 . S
C1999 H1987 0.929 . S
C1999 C1993 1.390 . S
C1999 C1996 1.386 . S
C2000 C1995 1.490 . S
C2000 C2002 1.395 . S
C2000 C2003 1.403 . S
H2001 C2007 0.930 . S
C2002 H1988 0.930 . S
C2002 C2000 1.395 . S
C2002 C2005 1.403 . S
C2003 C2000 1.403 . S
C2003 C2004 1.524 . S
C2003 C2007 1.400 . S
C2004 H1989 0.960 . S
C2004 H1990 0.960 . S
C2004 H1991 0.960 . S
C2004 C2003 1.524 . S
C2005 C2002 1.403 . S
C2005 C2006 1.392 . S
C2005 C2009 1.495 . S
C2006 C2005 1.392 . S
C2006 C2007 1.385 . S
C2006 C2008 1.478 . S
C2007 H2001 0.930 . S
C2007 C2003 1.400 . S
C2007 C2006 1.385 . S
C2008 C2006 1.478 . S
C2008 C2010 1.381 . S
C2008 C2014 1.383 . S
C2009 C2005 1.495 . S
C2009 H2015 0.959 . S
C2009 H2016 0.961 . S
C2009 H2017 0.960 . S
C2010 C2008 1.381 . S
C2010 C2011 1.394 . S
C2010 H2018 0.930 . S
C2011 C2010 1.394 . S
C2011 C2012 1.383 . S
C2011 H2019 0.929 . S
C2012 C2011 1.383 . S
C2012 C2013 1.377 . S
C2013 H1997 0.930 . S
C2013 C2012 1.377 . S
C2013 C2014 1.379 . S
C2014 H1998 0.931 . S
C2014 C2008 1.383 . S
C2014 C2013 1.379 . S
H2015 C2009 0.959 . S
H2016 C2009 0.961 . S
H2017 C2009 0.960 . S
H2018 C2010 0.930 . S
H2019 C2011 0.929 . S
H2020 C2028 0.929 . S
H2021 C2030 0.930 . S
H2022 C2032 0.930 . S
H2023 C2035 0.929 . S
H2024 C2038 0.930 . S
H2025 C2040 0.960 . S
H2026 C2040 0.960 . S
H2027 C2040 0.960 . S
C2028 H2020 0.929 . S
C2028 C2029 1.377 . S
C2028 C2030 1.384 . S
C2029 C2028 1.377 . S
C2029 C2035 1.390 . S
C2030 H2021 0.930 . S
C2030 C2028 1.384 . S
C2030 C2031 1.372 . S
C2031 C2030 1.372 . S
C2031 C2032 1.400 . S
C2031 C2036 1.490 . S
C2032 H2022 0.930 . S
C2032 C2031 1.400 . S
C2032 C2035 1.386 . S
H2033 C2049 0.930 . S
H2034 C2050 0.931 . S
C2035 H2023 0.929 . S
C2035 C2029 1.390 . S
C2035 C2032 1.386 . S
C2036 C2031 1.490 . S
C2036 C2038 1.395 . S
C2036 C2039 1.403 . S
H2037 C2043 0.930 . S
C2038 H2024 0.930 . S
C2038 C2036 1.395 . S
C2038 C2041 1.403 . S
C2039 C2036 1.403 . S
C2039 C2040 1.524 . S
C2039 C2043 1.400 . S
C2040 H2025 0.960 . S
C2040 H2026 0.960 . S
C2040 H2027 0.960 . S
C2040 C2039 1.524 . S
C2041 C2038 1.403 . S
C2041 C2042 1.392 . S
C2041 C2045 1.495 . S
C2042 C2041 1.392 . S
C2042 C2043 1.385 . S
C2042 C2044 1.478 . S
C2043 H2037 0.930 . S
C2043 C2039 1.400 . S
C2043 C2042 1.385 . S
C2044 C2042 1.478 . S
C2044 C2046 1.381 . S
C2044 C2050 1.383 . S
C2045 C2041 1.495 . S
C2045 H2051 0.959 . S
C2045 H2052 0.961 . S
C2045 H2053 0.960 . S
C2046 C2044 1.381 . S
C2046 C2047 1.394 . S
C2046 H2054 0.930 . S
C2047 C2046 1.394 . S
C2047 C2048 1.383 . S
C2047 H2055 0.929 . S
C2048 C2047 1.383 . S
C2048 C2049 1.377 . S
C2049 H2033 0.930 . S
C2049 C2048 1.377 . S
C2049 C2050 1.379 . S
C2050 H2034 0.931 . S
C2050 C2044 1.383 . S
C2050 C2049 1.379 . S
H2051 C2045 0.959 . S
H2052 C2045 0.961 . S
H2053 C2045 0.960 . S
H2054 C2046 0.930 . S
H2055 C2047 0.929 . S
H2056 C2064 0.929 . S
H2057 C2066 0.930 . S
H2058 C2068 0.930 . S
H2059 C2071 0.929 . S
H2060 C2074 0.930 . S
H2061 C2076 0.960 . S
H2062 C2076 0.960 . S
H2063 C2076 0.960 . S
C2064 H2056 0.929 . S
C2064 C2065 1.377 . S
C2064 C2066 1.384 . S
C2065 C2064 1.377 . S
C2065 C2071 1.390 . S
C2066 H2057 0.930 . S
C2066 C2064 1.384 . S
C2066 C2067 1.372 . S
C2067 C2066 1.372 . S
C2067 C2068 1.400 . S
C2067 C2072 1.490 . S
C2068 H2058 0.930 . S
C2068 C2067 1.400 . S
C2068 C2071 1.386 . S
H2069 C2085 0.930 . S
H2070 C2086 0.931 . S
C2071 H2059 0.929 . S
C2071 C2065 1.390 . S
C2071 C2068 1.386 . S
C2072 C2067 1.490 . S
C2072 C2074 1.395 . S
C2072 C2075 1.403 . S
H2073 C2079 0.930 . S
C2074 H2060 0.930 . S
C2074 C2072 1.395 . S
C2074 C2077 1.403 . S
C2075 C2072 1.403 . S
C2075 C2076 1.524 . S
C2075 C2079 1.400 . S
C2076 H2061 0.960 . S
C2076 H2062 0.960 . S
C2076 H2063 0.960 . S
C2076 C2075 1.524 . S
C2077 C2074 1.403 . S
C2077 C2078 1.392 . S
C2077 C2081 1.495 . S
C2078 C2077 1.392 . S
C2078 C2079 1.385 . S
C2078 C2080 1.478 . S
C2079 H2073 0.930 . S
C2079 C2075 1.400 . S
C2079 C2078 1.385 . S
C2080 C2078 1.478 . S
C2080 C2082 1.381 . S
C2080 C2086 1.383 . S
C2081 C2077 1.495 . S
C2081 H2087 0.959 . S
C2081 H2088 0.961 . S
C2081 H2089 0.960 . S
C2082 C2080 1.381 . S
C2082 C2083 1.394 . S
C2082 H2090 0.930 . S
C2083 C2082 1.394 . S
C2083 C2084 1.383 . S
C2083 H2091 0.929 . S
C2084 C2083 1.383 . S
C2084 C2085 1.377 . S
C2085 H2069 0.930 . S
C2085 C2084 1.377 . S
C2085 C2086 1.379 . S
C2086 H2070 0.931 . S
C2086 C2080 1.383 . S
C2086 C2085 1.379 . S
H2087 C2081 0.959 . S
H2088 C2081 0.961 . S
H2089 C2081 0.960 . S
H2090 C2082 0.930 . S
H2091 C2083 0.929 . S
H2092 C2100 0.929 . S
H2093 C2102 0.930 . S
H2094 C2104 0.930 . S
H2095 C2107 0.929 . S
H2096 C2110 0.930 . S
H2097 C2112 0.960 . S
H2098 C2112 0.960 . S
H2099 C2112 0.960 . S
C2100 H2092 0.929 . S
C2100 C2101 1.377 . S
C2100 C2102 1.384 . S
C2101 C2100 1.377 . S
C2101 C2107 1.390 . S
C2102 H2093 0.930 . S
C2102 C2100 1.384 . S
C2102 C2103 1.372 . S
C2103 C2102 1.372 . S
C2103 C2104 1.400 . S
C2103 C2108 1.490 . S
C2104 H2094 0.930 . S
C2104 C2103 1.400 . S
C2104 C2107 1.386 . S
H2105 C2121 0.930 . S
H2106 C2122 0.931 . S
C2107 H2095 0.929 . S
C2107 C2101 1.390 . S
C2107 C2104 1.386 . S
C2108 C2103 1.490 . S
C2108 C2110 1.395 . S
C2108 C2111 1.403 . S
H2109 C2115 0.930 . S
C2110 H2096 0.930 . S
C2110 C2108 1.395 . S
C2110 C2113 1.403 . S
C2111 C2108 1.403 . S
C2111 C2112 1.524 . S
C2111 C2115 1.400 . S
C2112 H2097 0.960 . S
C2112 H2098 0.960 . S
C2112 H2099 0.960 . S
C2112 C2111 1.524 . S
C2113 C2110 1.403 . S
C2113 C2114 1.392 . S
C2113 C2117 1.495 . S
C2114 C2113 1.392 . S
C2114 C2115 1.385 . S
C2114 C2116 1.478 . S
C2115 H2109 0.930 . S
C2115 C2111 1.400 . S
C2115 C2114 1.385 . S
C2116 C2114 1.478 . S
C2116 C2118 1.381 . S
C2116 C2122 1.383 . S
C2117 C2113 1.495 . S
C2117 H2123 0.959 . S
C2117 H2124 0.961 . S
C2117 H2125 0.960 . S
C2118 C2116 1.381 . S
C2118 C2119 1.394 . S
C2118 H2126 0.930 . S
C2119 C2118 1.394 . S
C2119 C2120 1.383 . S
C2119 H2127 0.929 . S
C2120 C2119 1.383 . S
C2120 C2121 1.377 . S
C2121 H2105 0.930 . S
C2121 C2120 1.377 . S
C2121 C2122 1.379 . S
C2122 H2106 0.931 . S
C2122 C2116 1.383 . S
C2122 C2121 1.379 . S
H2123 C2117 0.959 . S
H2124 C2117 0.961 . S
H2125 C2117 0.960 . S
H2126 C2118 0.930 . S
H2127 C2119 0.929 . S
H2128 C2136 0.929 . S
H2129 C2138 0.930 . S
H2130 C2140 0.930 . S
H2131 C2143 0.929 . S
H2132 C2146 0.930 . S
H2133 C2148 0.960 . S
H2134 C2148 0.960 . S
H2135 C2148 0.960 . S
C2136 H2128 0.929 . S
C2136 C2137 1.377 . S
C2136 C2138 1.384 . S
C2137 C2136 1.377 . S
C2137 C2143 1.390 . S
C2138 H2129 0.930 . S
C2138 C2136 1.384 . S
C2138 C2139 1.372 . S
C2139 C2138 1.372 . S
C2139 C2140 1.400 . S
C2139 C2144 1.490 . S
C2140 H2130 0.930 . S
C2140 C2139 1.400 . S
C2140 C2143 1.386 . S
H2141 C2157 0.930 . S
H2142 C2158 0.931 . S
C2143 H2131 0.929 . S
C2143 C2137 1.390 . S
C2143 C2140 1.386 . S
C2144 C2139 1.490 . S
C2144 C2146 1.395 . S
C2144 C2147 1.403 . S
H2145 C2151 0.930 . S
C2146 H2132 0.930 . S
C2146 C2144 1.395 . S
C2146 C2149 1.403 . S
C2147 C2144 1.403 . S
C2147 C2148 1.524 . S
C2147 C2151 1.400 . S
C2148 H2133 0.960 . S
C2148 H2134 0.960 . S
C2148 H2135 0.960 . S
C2148 C2147 1.524 . S
C2149 C2146 1.403 . S
C2149 C2150 1.392 . S
C2149 C2153 1.495 . S
C2150 C2149 1.392 . S
C2150 C2151 1.385 . S
C2150 C2152 1.478 . S
C2151 H2145 0.930 . S
C2151 C2147 1.400 . S
C2151 C2150 1.385 . S
C2152 C2150 1.478 . S
C2152 C2154 1.381 . S
C2152 C2158 1.383 . S
C2153 C2149 1.495 . S
C2153 H2159 0.959 . S
C2153 H2160 0.961 . S
C2153 H2161 0.960 . S
C2154 C2152 1.381 . S
C2154 C2155 1.394 . S
C2154 H2162 0.930 . S
C2155 C2154 1.394 . S
C2155 C2156 1.383 . S
C2155 H2163 0.929 . S
C2156 C2155 1.383 . S
C2156 C2157 1.377 . S
C2157 H2141 0.930 . S
C2157 C2156 1.377 . S
C2157 C2158 1.379 . S
C2158 H2142 0.931 . S
C2158 C2152 1.383 . S
C2158 C2157 1.379 . S
H2159 C2153 0.959 . S
H2160 C2153 0.961 . S
H2161 C2153 0.960 . S
H2162 C2154 0.930 . S
H2163 C2155 0.929 . S
H2164 C2172 0.929 . S
H2165 C2174 0.930 . S
H2166 C2176 0.930 . S
H2167 C2179 0.929 . S
H2168 C2182 0.930 . S
H2169 C2184 0.960 . S
H2170 C2184 0.960 . S
H2171 C2184 0.960 . S
C2172 H2164 0.929 . S
C2172 C2173 1.377 . S
C2172 C2174 1.384 . S
C2173 C2172 1.377 . S
C2173 C2179 1.390 . S
C2174 H2165 0.930 . S
C2174 C2172 1.384 . S
C2174 C2175 1.372 . S
C2175 C2174 1.372 . S
C2175 C2176 1.400 . S
C2175 C2180 1.490 . S
C2176 H2166 0.930 . S
C2176 C2175 1.400 . S
C2176 C2179 1.386 . S
H2177 C2193 0.930 . S
H2178 C2194 0.931 . S
C2179 H2167 0.929 . S
C2179 C2173 1.390 . S
C2179 C2176 1.386 . S
C2180 C2175 1.490 . S
C2180 C2182 1.395 . S
C2180 C2183 1.403 . S
H2181 C2187 0.930 . S
C2182 H2168 0.930 . S
C2182 C2180 1.395 . S
C2182 C2185 1.403 . S
C2183 C2180 1.403 . S
C2183 C2184 1.524 . S
C2183 C2187 1.400 . S
C2184 H2169 0.960 . S
C2184 H2170 0.960 . S
C2184 H2171 0.960 . S
C2184 C2183 1.524 . S
C2185 C2182 1.403 . S
C2185 C2186 1.392 . S
C2185 C2189 1.495 . S
C2186 C2185 1.392 . S
C2186 C2187 1.385 . S
C2186 C2188 1.478 . S
C2187 H2181 0.930 . S
C2187 C2183 1.400 . S
C2187 C2186 1.385 . S
C2188 C2186 1.478 . S
C2188 C2190 1.381 . S
C2188 C2194 1.383 . S
C2189 C2185 1.495 . S
C2189 H2195 0.959 . S
C2189 H2196 0.961 . S
C2189 H2197 0.960 . S
C2190 C2188 1.381 . S
C2190 C2191 1.394 . S
C2190 H2198 0.930 . S
C2191 C2190 1.394 . S
C2191 C2192 1.383 . S
C2191 H2199 0.929 . S
C2192 C2191 1.383 . S
C2192 C2193 1.377 . S
C2193 H2177 0.930 . S
C2193 C2192 1.377 . S
C2193 C2194 1.379 . S
C2194 H2178 0.931 . S
C2194 C2188 1.383 . S
C2194 C2193 1.379 . S
H2195 C2189 0.959 . S
H2196 C2189 0.961 . S
H2197 C2189 0.960 . S
H2198 C2190 0.930 . S
H2199 C2191 0.929 . S
H2200 C2208 0.929 . S
H2201 C2210 0.930 . S
H2202 C2212 0.930 . S
H2203 C2215 0.929 . S
H2204 C2218 0.930 . S
H2205 C2220 0.960 . S
H2206 C2220 0.960 . S
H2207 C2220 0.960 . S
C2208 H2200 0.929 . S
C2208 C2209 1.377 . S
C2208 C2210 1.384 . S
C2209 C2208 1.377 . S
C2209 C2215 1.390 . S
C2210 H2201 0.930 . S
C2210 C2208 1.384 . S
C2210 C2211 1.372 . S
C2211 C2210 1.372 . S
C2211 C2212 1.400 . S
C2211 C2216 1.490 . S
C2212 H2202 0.930 . S
C2212 C2211 1.400 . S
C2212 C2215 1.386 . S
H2213 C2229 0.930 . S
H2214 C2230 0.931 . S
C2215 H2203 0.929 . S
C2215 C2209 1.390 . S
C2215 C2212 1.386 . S
C2216 C2211 1.490 . S
C2216 C2218 1.395 . S
C2216 C2219 1.403 . S
H2217 C2223 0.930 . S
C2218 H2204 0.930 . S
C2218 C2216 1.395 . S
C2218 C2221 1.403 . S
C2219 C2216 1.403 . S
C2219 C2220 1.524 . S
C2219 C2223 1.400 . S
C2220 H2205 0.960 . S
C2220 H2206 0.960 . S
C2220 H2207 0.960 . S
C2220 C2219 1.524 . S
C2221 C2218 1.403 . S
C2221 C2222 1.392 . S
C2221 C2225 1.495 . S
C2222 C2221 1.392 . S
C2222 C2223 1.385 . S
C2222 C2224 1.478 . S
C2223 H2217 0.930 . S
C2223 C2219 1.400 . S
C2223 C2222 1.385 . S
C2224 C2222 1.478 . S
C2224 C2226 1.381 . S
C2224 C2230 1.383 . S
C2225 C2221 1.495 . S
C2225 H2231 0.959 . S
C2225 H2232 0.961 . S
C2225 H2233 0.960 . S
C2226 C2224 1.381 . S
C2226 C2227 1.394 . S
C2226 H2234 0.930 . S
C2227 C2226 1.394 . S
C2227 C2228 1.383 . S
C2227 H2235 0.929 . S
C2228 C2227 1.383 . S
C2228 C2229 1.377 . S
C2229 H2213 0.930 . S
C2229 C2228 1.377 . S
C2229 C2230 1.379 . S
C2230 H2214 0.931 . S
C2230 C2224 1.383 . S
C2230 C2229 1.379 . S
H2231 C2225 0.959 . S
H2232 C2225 0.961 . S
H2233 C2225 0.960 . S
H2234 C2226 0.930 . S
H2235 C2227 0.929 . S
H2236 C2244 0.929 . S
H2237 C2246 0.930 . S
H2238 C2248 0.930 . S
H2239 C2251 0.929 . S
H2240 C2254 0.930 . S
H2241 C2256 0.960 . S
H2242 C2256 0.960 . S
H2243 C2256 0.960 . S
C2244 H2236 0.929 . S
C2244 C2245 1.377 . S
C2244 C2246 1.384 . S
C2245 C2244 1.377 . S
C2245 C2251 1.390 . S
C2246 H2237 0.930 . S
C2246 C2244 1.384 . S
C2246 C2247 1.372 . S
C2247 C2246 1.372 . S
C2247 C2248 1.400 . S
C2247 C2252 1.490 . S
C2248 H2238 0.930 . S
C2248 C2247 1.400 . S
C2248 C2251 1.386 . S
H2249 C2265 0.930 . S
H2250 C2266 0.931 . S
C2251 H2239 0.929 . S
C2251 C2245 1.390 . S
C2251 C2248 1.386 . S
C2252 C2247 1.490 . S
C2252 C2254 1.395 . S
C2252 C2255 1.403 . S
H2253 C2259 0.930 . S
C2254 H2240 0.930 . S
C2254 C2252 1.395 . S
C2254 C2257 1.403 . S
C2255 C2252 1.403 . S
C2255 C2256 1.524 . S
C2255 C2259 1.400 . S
C2256 H2241 0.960 . S
C2256 H2242 0.960 . S
C2256 H2243 0.960 . S
C2256 C2255 1.524 . S
C2257 C2254 1.403 . S
C2257 C2258 1.392 . S
C2257 C2261 1.495 . S
C2258 C2257 1.392 . S
C2258 C2259 1.385 . S
C2258 C2260 1.478 . S
C2259 H2253 0.930 . S
C2259 C2255 1.400 . S
C2259 C2258 1.385 . S
C2260 C2258 1.478 . S
C2260 C2262 1.381 . S
C2260 C2266 1.383 . S
C2261 C2257 1.495 . S
C2261 H2267 0.959 . S
C2261 H2268 0.961 . S
C2261 H2269 0.960 . S
C2262 C2260 1.381 . S
C2262 C2263 1.394 . S
C2262 H2270 0.930 . S
C2263 C2262 1.394 . S
C2263 C2264 1.383 . S
C2263 H2271 0.929 . S
C2264 C2263 1.383 . S
C2264 C2265 1.377 . S
C2265 H2249 0.930 . S
C2265 C2264 1.377 . S
C2265 C2266 1.379 . S
C2266 H2250 0.931 . S
C2266 C2260 1.383 . S
C2266 C2265 1.379 . S
H2267 C2261 0.959 . S
H2268 C2261 0.961 . S
H2269 C2261 0.960 . S
H2270 C2262 0.930 . S
H2271 C2263 0.929 . S
H2272 C2280 0.929 . S
H2273 C2282 0.930 . S
H2274 C2284 0.930 . S
H2275 C2287 0.929 . S
H2276 C2290 0.930 . S
H2277 C2292 0.960 . S
H2278 C2292 0.960 . S
H2279 C2292 0.960 . S
C2280 H2272 0.929 . S
C2280 C2281 1.377 . S
C2280 C2282 1.384 . S
C2281 C2280 1.377 . S
C2281 C2287 1.390 . S
C2282 H2273 0.930 . S
C2282 C2280 1.384 . S
C2282 C2283 1.372 . S
C2283 C2282 1.372 . S
C2283 C2284 1.400 . S
C2283 C2288 1.490 . S
C2284 H2274 0.930 . S
C2284 C2283 1.400 . S
C2284 C2287 1.386 . S
H2285 C2301 0.930 . S
H2286 C2302 0.931 . S
C2287 H2275 0.929 . S
C2287 C2281 1.390 . S
C2287 C2284 1.386 . S
C2288 C2283 1.490 . S
C2288 C2290 1.395 . S
C2288 C2291 1.403 . S
H2289 C2295 0.930 . S
C2290 H2276 0.930 . S
C2290 C2288 1.395 . S
C2290 C2293 1.403 . S
C2291 C2288 1.403 . S
C2291 C2292 1.524 . S
C2291 C2295 1.400 . S
C2292 H2277 0.960 . S
C2292 H2278 0.960 . S
C2292 H2279 0.960 . S
C2292 C2291 1.524 . S
C2293 C2290 1.403 . S
C2293 C2294 1.392 . S
C2293 C2297 1.495 . S
C2294 C2293 1.392 . S
C2294 C2295 1.385 . S
C2294 C2296 1.478 . S
C2295 H2289 0.930 . S
C2295 C2291 1.400 . S
C2295 C2294 1.385 . S
C2296 C2294 1.478 . S
C2296 C2298 1.381 . S
C2296 C2302 1.383 . S
C2297 C2293 1.495 . S
C2297 H2303 0.959 . S
C2297 H2304 0.961 . S
C2297 H2305 0.960 . S
C2298 C2296 1.381 . S
C2298 C2299 1.394 . S
C2298 H2306 0.930 . S
C2299 C2298 1.394 . S
C2299 C2300 1.383 . S
C2299 H2307 0.929 . S
C2300 C2299 1.383 . S
C2300 C2301 1.377 . S
C2301 H2285 0.930 . S
C2301 C2300 1.377 . S
C2301 C2302 1.379 . S
C2302 H2286 0.931 . S
C2302 C2296 1.383 . S
C2302 C2301 1.379 . S
H2303 C2297 0.959 . S
H2304 C2297 0.961 . S
H2305 C2297 0.960 . S
H2306 C2298 0.930 . S
H2307 C2299 0.929 . S
H2308 C2316 0.929 . S
H2309 C2318 0.930 . S
H2310 C2320 0.930 . S
H2311 C2323 0.929 . S
H2312 C2326 0.930 . S
H2313 C2328 0.960 . S
H2314 C2328 0.960 . S
H2315 C2328 0.960 . S
C2316 H2308 0.929 . S
C2316 C2317 1.377 . S
C2316 C2318 1.384 . S
C2317 C2316 1.377 . S
C2317 C2323 1.390 . S
C2318 H2309 0.930 . S
C2318 C2316 1.384 . S
C2318 C2319 1.372 . S
C2319 C2318 1.372 . S
C2319 C2320 1.400 . S
C2319 C2324 1.490 . S
C2320 H2310 0.930 . S
C2320 C2319 1.400 . S
C2320 C2323 1.386 . S
H2321 C2337 0.930 . S
H2322 C2338 0.931 . S
C2323 H2311 0.929 . S
C2323 C2317 1.390 . S
C2323 C2320 1.386 . S
C2324 C2319 1.490 . S
C2324 C2326 1.395 . S
C2324 C2327 1.403 . S
H2325 C2331 0.930 . S
C2326 H2312 0.930 . S
C2326 C2324 1.395 . S
C2326 C2329 1.403 . S
C2327 C2324 1.403 . S
C2327 C2328 1.524 . S
C2327 C2331 1.400 . S
C2328 H2313 0.960 . S
C2328 H2314 0.960 . S
C2328 H2315 0.960 . S
C2328 C2327 1.524 . S
C2329 C2326 1.403 . S
C2329 C2330 1.392 . S
C2329 C2333 1.495 . S
C2330 C2329 1.392 . S
C2330 C2331 1.385 . S
C2330 C2332 1.478 . S
C2331 H2325 0.930 . S
C2331 C2327 1.400 . S
C2331 C2330 1.385 . S
C2332 C2330 1.478 . S
C2332 C2334 1.381 . S
C2332 C2338 1.383 . S
C2333 C2329 1.495 . S
C2333 H2339 0.959 . S
C2333 H2340 0.961 . S
C2333 H2341 0.960 . S
C2334 C2332 1.381 . S
C2334 C2335 1.394 . S
C2334 H2342 0.930 . S
C2335 C2334 1.394 . S
C2335 C2336 1.383 . S
C2335 H2343 0.929 . S
C2336 C2335 1.383 . S
C2336 C2337 1.377 . S
C2337 H2321 0.930 . S
C2337 C2336 1.377 . S
C2337 C2338 1.379 . S
C2338 H2322 0.931 . S
C2338 C2332 1.383 . S
C2338 C2337 1.379 . S
H2339 C2333 0.959 . S
H2340 C2333 0.961 . S
H2341 C2333 0.960 . S
H2342 C2334 0.930 . S
H2343 C2335 0.929 . S
H2344 C2352 0.929 . S
H2345 C2354 0.930 . S
H2346 C2356 0.930 . S
H2347 C2359 0.929 . S
H2348 C2362 0.930 . S
H2349 C2364 0.960 . S
H2350 C2364 0.960 . S
H2351 C2364 0.960 . S
C2352 H2344 0.929 . S
C2352 C2353 1.377 . S
C2352 C2354 1.384 . S
C2353 C2352 1.377 . S
C2353 C2359 1.390 . S
C2354 H2345 0.930 . S
C2354 C2352 1.384 . S
C2354 C2355 1.372 . S
C2355 C2354 1.372 . S
C2355 C2356 1.400 . S
C2355 C2360 1.490 . S
C2356 H2346 0.930 . S
C2356 C2355 1.400 . S
C2356 C2359 1.386 . S
H2357 C2373 0.930 . S
H2358 C2374 0.931 . S
C2359 H2347 0.929 . S
C2359 C2353 1.390 . S
C2359 C2356 1.386 . S
C2360 C2355 1.490 . S
C2360 C2362 1.395 . S
C2360 C2363 1.403 . S
H2361 C2367 0.930 . S
C2362 H2348 0.930 . S
C2362 C2360 1.395 . S
C2362 C2365 1.403 . S
C2363 C2360 1.403 . S
C2363 C2364 1.524 . S
C2363 C2367 1.400 . S
C2364 H2349 0.960 . S
C2364 H2350 0.960 . S
C2364 H2351 0.960 . S
C2364 C2363 1.524 . S
C2365 C2362 1.403 . S
C2365 C2366 1.392 . S
C2365 C2369 1.495 . S
C2366 C2365 1.392 . S
C2366 C2367 1.385 . S
C2366 C2368 1.478 . S
C2367 H2361 0.930 . S
C2367 C2363 1.400 . S
C2367 C2366 1.385 . S
C2368 C2366 1.478 . S
C2368 C2370 1.381 . S
C2368 C2374 1.383 . S
C2369 C2365 1.495 . S
C2369 H2375 0.959 . S
C2369 H2376 0.961 . S
C2369 H2377 0.960 . S
C2370 C2368 1.381 . S
C2370 C2371 1.394 . S
C2370 H2378 0.930 . S
C2371 C2370 1.394 . S
C2371 C2372 1.383 . S
C2371 H2379 0.929 . S
C2372 C2371 1.383 . S
C2372 C2373 1.377 . S
C2373 H2357 0.930 . S
C2373 C2372 1.377 . S
C2373 C2374 1.379 . S
C2374 H2358 0.931 . S
C2374 C2368 1.383 . S
C2374 C2373 1.379 . S
H2375 C2369 0.959 . S
H2376 C2369 0.961 . S
H2377 C2369 0.960 . S
H2378 C2370 0.930 . S
H2379 C2371 0.929 . S
H2380 C2388 0.929 . S
H2381 C2390 0.930 . S
H2382 C2392 0.930 . S
H2383 C2395 0.929 . S
H2384 C2398 0.930 . S
H2385 C2400 0.960 . S
H2386 C2400 0.960 . S
H2387 C2400 0.960 . S
C2388 H2380 0.929 . S
C2388 C2389 1.377 . S
C2388 C2390 1.384 . S
C2389 C2388 1.377 . S
C2389 C2395 1.390 . S
C2390 H2381 0.930 . S
C2390 C2388 1.384 . S
C2390 C2391 1.372 . S
C2391 C2390 1.372 . S
C2391 C2392 1.400 . S
C2391 C2396 1.490 . S
C2392 H2382 0.930 . S
C2392 C2391 1.400 . S
C2392 C2395 1.386 . S
H2393 C2409 0.930 . S
H2394 C2410 0.931 . S
C2395 H2383 0.929 . S
C2395 C2389 1.390 . S
C2395 C2392 1.386 . S
C2396 C2391 1.490 . S
C2396 C2398 1.395 . S
C2396 C2399 1.403 . S
H2397 C2403 0.930 . S
C2398 H2384 0.930 . S
C2398 C2396 1.395 . S
C2398 C2401 1.403 . S
C2399 C2396 1.403 . S
C2399 C2400 1.524 . S
C2399 C2403 1.400 . S
C2400 H2385 0.960 . S
C2400 H2386 0.960 . S
C2400 H2387 0.960 . S
C2400 C2399 1.524 . S
C2401 C2398 1.403 . S
C2401 C2402 1.392 . S
C2401 C2405 1.495 . S
C2402 C2401 1.392 . S
C2402 C2403 1.385 . S
C2402 C2404 1.478 . S
C2403 H2397 0.930 . S
C2403 C2399 1.400 . S
C2403 C2402 1.385 . S
C2404 C2402 1.478 . S
C2404 C2406 1.381 . S
C2404 C2410 1.383 . S
C2405 C2401 1.495 . S
C2405 H2411 0.959 . S
C2405 H2412 0.961 . S
C2405 H2413 0.960 . S
C2406 C2404 1.381 . S
C2406 C2407 1.394 . S
C2406 H2414 0.930 . S
C2407 C2406 1.394 . S
C2407 C2408 1.383 . S
C2407 H2415 0.929 . S
C2408 C2407 1.383 . S
C2408 C2409 1.377 . S
C2409 H2393 0.930 . S
C2409 C2408 1.377 . S
C2409 C2410 1.379 . S
C2410 H2394 0.931 . S
C2410 C2404 1.383 . S
C2410 C2409 1.379 . S
H2411 C2405 0.959 . S
H2412 C2405 0.961 . S
H2413 C2405 0.960 . S
H2414 C2406 0.930 . S
H2415 C2407 0.929 . S
H2416 C2424 0.929 . S
H2417 C2426 0.930 . S
H2418 C2428 0.930 . S
H2419 C2431 0.929 . S
H2420 C2434 0.930 . S
H2421 C2436 0.960 . S
H2422 C2436 0.960 . S
H2423 C2436 0.960 . S
C2424 H2416 0.929 . S
C2424 C2425 1.377 . S
C2424 C2426 1.384 . S
C2425 C2424 1.377 . S
C2425 C2431 1.390 . S
C2426 H2417 0.930 . S
C2426 C2424 1.384 . S
C2426 C2427 1.372 . S
C2427 C2426 1.372 . S
C2427 C2428 1.400 . S
C2427 C2432 1.490 . S
C2428 H2418 0.930 . S
C2428 C2427 1.400 . S
C2428 C2431 1.386 . S
H2429 C2445 0.930 . S
H2430 C2446 0.931 . S
C2431 H2419 0.929 . S
C2431 C2425 1.390 . S
C2431 C2428 1.386 . S
C2432 C2427 1.490 . S
C2432 C2434 1.395 . S
C2432 C2435 1.403 . S
H2433 C2439 0.930 . S
C2434 H2420 0.930 . S
C2434 C2432 1.395 . S
C2434 C2437 1.403 . S
C2435 C2432 1.403 . S
C2435 C2436 1.524 . S
C2435 C2439 1.400 . S
C2436 H2421 0.960 . S
C2436 H2422 0.960 . S
C2436 H2423 0.960 . S
C2436 C2435 1.524 . S
C2437 C2434 1.403 . S
C2437 C2438 1.392 . S
C2437 C2441 1.495 . S
C2438 C2437 1.392 . S
C2438 C2439 1.385 . S
C2438 C2440 1.478 . S
C2439 H2433 0.930 . S
C2439 C2435 1.400 . S
C2439 C2438 1.385 . S
C2440 C2438 1.478 . S
C2440 C2442 1.381 . S
C2440 C2446 1.383 . S
C2441 C2437 1.495 . S
C2441 H2447 0.959 . S
C2441 H2448 0.961 . S
C2441 H2449 0.960 . S
C2442 C2440 1.381 . S
C2442 C2443 1.394 . S
C2442 H2450 0.930 . S
C2443 C2442 1.394 . S
C2443 C2444 1.383 . S
C2443 H2451 0.929 . S
C2444 C2443 1.383 . S
C2444 C2445 1.377 . S
C2445 H2429 0.930 . S
C2445 C2444 1.377 . S
C2445 C2446 1.379 . S
C2446 H2430 0.931 . S
C2446 C2440 1.383 . S
C2446 C2445 1.379 . S
H2447 C2441 0.959 . S
H2448 C2441 0.961 . S
H2449 C2441 0.960 . S
H2450 C2442 0.930 . S
H2451 C2443 0.929 . S
H2452 C2460 0.929 . S
H2453 C2462 0.930 . S
H2454 C2464 0.930 . S
H2455 C2467 0.929 . S
H2456 C2470 0.930 . S
H2457 C2472 0.960 . S
H2458 C2472 0.960 . S
H2459 C2472 0.960 . S
C2460 H2452 0.929 . S
C2460 C2461 1.377 . S
C2460 C2462 1.384 . S
C2461 C2460 1.377 . S
C2461 C2467 1.390 . S
C2462 H2453 0.930 . S
C2462 C2460 1.384 . S
C2462 C2463 1.372 . S
C2463 C2462 1.372 . S
C2463 C2464 1.400 . S
C2463 C2468 1.490 . S
C2464 H2454 0.930 . S
C2464 C2463 1.400 . S
C2464 C2467 1.386 . S
H2465 C2481 0.930 . S
H2466 C2482 0.931 . S
C2467 H2455 0.929 . S
C2467 C2461 1.390 . S
C2467 C2464 1.386 . S
C2468 C2463 1.490 . S
C2468 C2470 1.395 . S
C2468 C2471 1.403 . S
H2469 C2475 0.930 . S
C2470 H2456 0.930 . S
C2470 C2468 1.395 . S
C2470 C2473 1.403 . S
C2471 C2468 1.403 . S
C2471 C2472 1.524 . S
C2471 C2475 1.400 . S
C2472 H2457 0.960 . S
C2472 H2458 0.960 . S
C2472 H2459 0.960 . S
C2472 C2471 1.524 . S
C2473 C2470 1.403 . S
C2473 C2474 1.392 . S
C2473 C2477 1.495 . S
C2474 C2473 1.392 . S
C2474 C2475 1.385 . S
C2474 C2476 1.478 . S
C2475 H2469 0.930 . S
C2475 C2471 1.400 . S
C2475 C2474 1.385 . S
C2476 C2474 1.478 . S
C2476 C2478 1.381 . S
C2476 C2482 1.383 . S
C2477 C2473 1.495 . S
C2477 H2483 0.959 . S
C2477 H2484 0.961 . S
C2477 H2485 0.960 . S
C2478 C2476 1.381 . S
C2478 C2479 1.394 . S
C2478 H2486 0.930 . S
C2479 C2478 1.394 . S
C2479 C2480 1.383 . S
C2479 H2487 0.929 . S
C2480 C2479 1.383 . S
C2480 C2481 1.377 . S
C2481 H2465 0.930 . S
C2481 C2480 1.377 . S
C2481 C2482 1.379 . S
C2482 H2466 0.931 . S
C2482 C2476 1.383 . S
C2482 C2481 1.379 . S
H2483 C2477 0.959 . S
H2484 C2477 0.961 . S
H2485 C2477 0.960 . S
H2486 C2478 0.930 . S
H2487 C2479 0.929 . S
H2488 C2496 0.929 . S
H2489 C2498 0.930 . S
H2490 C2500 0.930 . S
H2491 C2503 0.929 . S
H2492 C2506 0.930 . S
H2493 C2508 0.960 . S
H2494 C2508 0.960 . S
H2495 C2508 0.960 . S
C2496 H2488 0.929 . S
C2496 C2497 1.377 . S
C2496 C2498 1.384 . S
C2497 C2496 1.377 . S
C2497 C2503 1.390 . S
C2498 H2489 0.930 . S
C2498 C2496 1.384 . S
C2498 C2499 1.372 . S
C2499 C2498 1.372 . S
C2499 C2500 1.400 . S
C2499 C2504 1.490 . S
C2500 H2490 0.930 . S
C2500 C2499 1.400 . S
C2500 C2503 1.386 . S
H2501 C2517 0.930 . S
H2502 C2518 0.931 . S
C2503 H2491 0.929 . S
C2503 C2497 1.390 . S
C2503 C2500 1.386 . S
C2504 C2499 1.490 . S
C2504 C2506 1.395 . S
C2504 C2507 1.403 . S
H2505 C2511 0.930 . S
C2506 H2492 0.930 . S
C2506 C2504 1.395 . S
C2506 C2509 1.403 . S
C2507 C2504 1.403 . S
C2507 C2508 1.524 . S
C2507 C2511 1.400 . S
C2508 H2493 0.960 . S
C2508 H2494 0.960 . S
C2508 H2495 0.960 . S
C2508 C2507 1.524 . S
C2509 C2506 1.403 . S
C2509 C2510 1.392 . S
C2509 C2513 1.495 . S
C2510 C2509 1.392 . S
C2510 C2511 1.385 . S
C2510 C2512 1.478 . S
C2511 H2505 0.930 . S
C2511 C2507 1.400 . S
C2511 C2510 1.385 . S
C2512 C2510 1.478 . S
C2512 C2514 1.381 . S
C2512 C2518 1.383 . S
C2513 C2509 1.495 . S
C2513 H2519 0.959 . S
C2513 H2520 0.961 . S
C2513 H2521 0.960 . S
C2514 C2512 1.381 . S
C2514 C2515 1.394 . S
C2514 H2522 0.930 . S
C2515 C2514 1.394 . S
C2515 C2516 1.383 . S
C2515 H2523 0.929 . S
C2516 C2515 1.383 . S
C2516 C2517 1.377 . S
C2517 H2501 0.930 . S
C2517 C2516 1.377 . S
C2517 C2518 1.379 . S
C2518 H2502 0.931 . S
C2518 C2512 1.383 . S
C2518 C2517 1.379 . S
H2519 C2513 0.959 . S
H2520 C2513 0.961 . S
H2521 C2513 0.960 . S
H2522 C2514 0.930 . S
H2523 C2515 0.929 . S
H2524 C2532 0.929 . S
H2525 C2534 0.930 . S
H2526 C2536 0.930 . S
H2527 C2539 0.929 . S
H2528 C2542 0.930 . S
H2529 C2544 0.960 . S
H2530 C2544 0.960 . S
H2531 C2544 0.960 . S
C2532 H2524 0.929 . S
C2532 C2533 1.377 . S
C2532 C2534 1.384 . S
C2533 C2532 1.377 . S
C2533 C2539 1.390 . S
C2534 H2525 0.930 . S
C2534 C2532 1.384 . S
C2534 C2535 1.372 . S
C2535 C2534 1.372 . S
C2535 C2536 1.400 . S
C2535 C2540 1.490 . S
C2536 H2526 0.930 . S
C2536 C2535 1.400 . S
C2536 C2539 1.386 . S
H2537 C2553 0.930 . S
H2538 C2554 0.931 . S
C2539 H2527 0.929 . S
C2539 C2533 1.390 . S
C2539 C2536 1.386 . S
C2540 C2535 1.490 . S
C2540 C2542 1.395 . S
C2540 C2543 1.403 . S
H2541 C2547 0.930 . S
C2542 H2528 0.930 . S
C2542 C2540 1.395 . S
C2542 C2545 1.403 . S
C2543 C2540 1.403 . S
C2543 C2544 1.524 . S
C2543 C2547 1.400 . S
C2544 H2529 0.960 . S
C2544 H2530 0.960 . S
C2544 H2531 0.960 . S
C2544 C2543 1.524 . S
C2545 C2542 1.403 . S
C2545 C2546 1.392 . S
C2545 C2549 1.495 . S
C2546 C2545 1.392 . S
C2546 C2547 1.385 . S
C2546 C2548 1.478 . S
C2547 H2541 0.930 . S
C2547 C2543 1.400 . S
C2547 C2546 1.385 . S
C2548 C2546 1.478 . S
C2548 C2550 1.381 . S
C2548 C2554 1.383 . S
C2549 C2545 1.495 . S
C2549 H2555 0.959 . S
C2549 H2556 0.961 . S
C2549 H2557 0.960 . S
C2550 C2548 1.381 . S
C2550 C2551 1.394 . S
C2550 H2558 0.930 . S
C2551 C2550 1.394 . S
C2551 C2552 1.383 . S
C2551 H2559 0.929 . S
C2552 C2551 1.383 . S
C2552 C2553 1.377 . S
C2553 H2537 0.930 . S
C2553 C2552 1.377 . S
C2553 C2554 1.379 . S
C2554 H2538 0.931 . S
C2554 C2548 1.383 . S
C2554 C2553 1.379 . S
H2555 C2549 0.959 . S
H2556 C2549 0.961 . S
H2557 C2549 0.960 . S
H2558 C2550 0.930 . S
H2559 C2551 0.929 . S
H2560 C2568 0.929 . S
H2561 C2570 0.930 . S
H2562 C2572 0.930 . S
H2563 C2575 0.929 . S
H2564 C2578 0.930 . S
H2565 C2580 0.960 . S
H2566 C2580 0.960 . S
H2567 C2580 0.960 . S
C2568 H2560 0.929 . S
C2568 C2569 1.377 . S
C2568 C2570 1.384 . S
C2569 C2568 1.377 . S
C2569 C2575 1.390 . S
C2570 H2561 0.930 . S
C2570 C2568 1.384 . S
C2570 C2571 1.372 . S
C2571 C2570 1.372 . S
C2571 C2572 1.400 . S
C2571 C2576 1.490 . S
C2572 H2562 0.930 . S
C2572 C2571 1.400 . S
C2572 C2575 1.386 . S
H2573 C2589 0.930 . S
H2574 C2590 0.931 . S
C2575 H2563 0.929 . S
C2575 C2569 1.390 . S
C2575 C2572 1.386 . S
C2576 C2571 1.490 . S
C2576 C2578 1.395 . S
C2576 C2579 1.403 . S
H2577 C2583 0.930 . S
C2578 H2564 0.930 . S
C2578 C2576 1.395 . S
C2578 C2581 1.403 . S
C2579 C2576 1.403 . S
C2579 C2580 1.524 . S
C2579 C2583 1.400 . S
C2580 H2565 0.960 . S
C2580 H2566 0.960 . S
C2580 H2567 0.960 . S
C2580 C2579 1.524 . S
C2581 C2578 1.403 . S
C2581 C2582 1.392 . S
C2581 C2585 1.495 . S
C2582 C2581 1.392 . S
C2582 C2583 1.385 . S
C2582 C2584 1.478 . S
C2583 H2577 0.930 . S
C2583 C2579 1.400 . S
C2583 C2582 1.385 . S
C2584 C2582 1.478 . S
C2584 C2586 1.381 . S
C2584 C2590 1.383 . S
C2585 C2581 1.495 . S
C2585 H2591 0.959 . S
C2585 H2592 0.961 . S
C2585 H2593 0.960 . S
C2586 C2584 1.381 . S
C2586 C2587 1.394 . S
C2586 H2594 0.930 . S
C2587 C2586 1.394 . S
C2587 C2588 1.383 . S
C2587 H2595 0.929 . S
C2588 C2587 1.383 . S
C2588 C2589 1.377 . S
C2589 H2573 0.930 . S
C2589 C2588 1.377 . S
C2589 C2590 1.379 . S
C2590 H2574 0.931 . S
C2590 C2584 1.383 . S
C2590 C2589 1.379 . S
H2591 C2585 0.959 . S
H2592 C2585 0.961 . S
H2593 C2585 0.960 . S
H2594 C2586 0.930 . S
H2595 C2587 0.929 . S
H2596 C2604 0.929 . S
H2597 C2606 0.930 . S
H2598 C2608 0.930 . S
H2599 C2611 0.929 . S
H2600 C2614 0.930 . S
H2601 C2616 0.960 . S
H2602 C2616 0.960 . S
H2603 C2616 0.960 . S
C2604 H2596 0.929 . S
C2604 C2605 1.377 . S
C2604 C2606 1.384 . S
C2605 C2604 1.377 . S
C2605 C2611 1.390 . S
C2606 H2597 0.930 . S
C2606 C2604 1.384 . S
C2606 C2607 1.372 . S
C2607 C2606 1.372 . S
C2607 C2608 1.400 . S
C2607 C2612 1.490 . S
C2608 H2598 0.930 . S
C2608 C2607 1.400 . S
C2608 C2611 1.386 . S
H2609 C2625 0.930 . S
H2610 C2626 0.931 . S
C2611 H2599 0.929 . S
C2611 C2605 1.390 . S
C2611 C2608 1.386 . S
C2612 C2607 1.490 . S
C2612 C2614 1.395 . S
C2612 C2615 1.403 . S
H2613 C2619 0.930 . S
C2614 H2600 0.930 . S
C2614 C2612 1.395 . S
C2614 C2617 1.403 . S
C2615 C2612 1.403 . S
C2615 C2616 1.524 . S
C2615 C2619 1.400 . S
C2616 H2601 0.960 . S
C2616 H2602 0.960 . S
C2616 H2603 0.960 . S
C2616 C2615 1.524 . S
C2617 C2614 1.403 . S
C2617 C2618 1.392 . S
C2617 C2621 1.495 . S
C2618 C2617 1.392 . S
C2618 C2619 1.385 . S
C2618 C2620 1.478 . S
C2619 H2613 0.930 . S
C2619 C2615 1.400 . S
C2619 C2618 1.385 . S
C2620 C2618 1.478 . S
C2620 C2622 1.381 . S
C2620 C2626 1.383 . S
C2621 C2617 1.495 . S
C2621 H2627 0.959 . S
C2621 H2628 0.961 . S
C2621 H2629 0.960 . S
C2622 C2620 1.381 . S
C2622 C2623 1.394 . S
C2622 H2630 0.930 . S
C2623 C2622 1.394 . S
C2623 C2624 1.383 . S
C2623 H2631 0.929 . S
C2624 C2623 1.383 . S
C2624 C2625 1.377 . S
C2625 H2609 0.930 . S
C2625 C2624 1.377 . S
C2625 C2626 1.379 . S
C2626 H2610 0.931 . S
C2626 C2620 1.383 . S
C2626 C2625 1.379 . S
H2627 C2621 0.959 . S
H2628 C2621 0.961 . S
H2629 C2621 0.960 . S
H2630 C2622 0.930 . S
H2631 C2623 0.929 . S
H2632 C2640 0.929 . S
H2633 C2642 0.930 . S
H2634 C2644 0.930 . S
H2635 C2647 0.929 . S
H2636 C2650 0.930 . S
H2637 C2652 0.960 . S
H2638 C2652 0.960 . S
H2639 C2652 0.960 . S
C2640 H2632 0.929 . S
C2640 C2641 1.377 . S
C2640 C2642 1.384 . S
C2641 C2640 1.377 . S
C2641 C2647 1.390 . S
C2642 H2633 0.930 . S
C2642 C2640 1.384 . S
C2642 C2643 1.372 . S
C2643 C2642 1.372 . S
C2643 C2644 1.400 . S
C2643 C2648 1.490 . S
C2644 H2634 0.930 . S
C2644 C2643 1.400 . S
C2644 C2647 1.386 . S
H2645 C2661 0.930 . S
H2646 C2662 0.931 . S
C2647 H2635 0.929 . S
C2647 C2641 1.390 . S
C2647 C2644 1.386 . S
C2648 C2643 1.490 . S
C2648 C2650 1.395 . S
C2648 C2651 1.403 . S
H2649 C2655 0.930 . S
C2650 H2636 0.930 . S
C2650 C2648 1.395 . S
C2650 C2653 1.403 . S
C2651 C2648 1.403 . S
C2651 C2652 1.524 . S
C2651 C2655 1.400 . S
C2652 H2637 0.960 . S
C2652 H2638 0.960 . S
C2652 H2639 0.960 . S
C2652 C2651 1.524 . S
C2653 C2650 1.403 . S
C2653 C2654 1.392 . S
C2653 C2657 1.495 . S
C2654 C2653 1.392 . S
C2654 C2655 1.385 . S
C2654 C2656 1.478 . S
C2655 H2649 0.930 . S
C2655 C2651 1.400 . S
C2655 C2654 1.385 . S
C2656 C2654 1.478 . S
C2656 C2658 1.381 . S
C2656 C2662 1.383 . S
C2657 C2653 1.495 . S
C2657 H2663 0.959 . S
C2657 H2664 0.961 . S
C2657 H2665 0.960 . S
C2658 C2656 1.381 . S
C2658 C2659 1.394 . S
C2658 H2666 0.930 . S
C2659 C2658 1.394 . S
C2659 C2660 1.383 . S
C2659 H2667 0.929 . S
C2660 C2659 1.383 . S
C2660 C2661 1.377 . S
C2661 H2645 0.930 . S
C2661 C2660 1.377 . S
C2661 C2662 1.379 . S
C2662 H2646 0.931 . S
C2662 C2656 1.383 . S
C2662 C2661 1.379 . S
H2663 C2657 0.959 . S
H2664 C2657 0.961 . S
H2665 C2657 0.960 . S
H2666 C2658 0.930 . S
H2667 C2659 0.929 . S
H2668 C2676 0.929 . S
H2669 C2678 0.930 . S
H2670 C2680 0.930 . S
H2671 C2683 0.929 . S
H2672 C2686 0.930 . S
H2673 C2688 0.960 . S
H2674 C2688 0.960 . S
H2675 C2688 0.960 . S
C2676 H2668 0.929 . S
C2676 C2677 1.377 . S
C2676 C2678 1.384 . S
C2677 C2676 1.377 . S
C2677 C2683 1.390 . S
C2678 H2669 0.930 . S
C2678 C2676 1.384 . S
C2678 C2679 1.372 . S
C2679 C2678 1.372 . S
C2679 C2680 1.400 . S
C2679 C2684 1.490 . S
C2680 H2670 0.930 . S
C2680 C2679 1.400 . S
C2680 C2683 1.386 . S
H2681 C2697 0.930 . S
H2682 C2698 0.931 . S
C2683 H2671 0.929 . S
C2683 C2677 1.390 . S
C2683 C2680 1.386 . S
C2684 C2679 1.490 . S
C2684 C2686 1.395 . S
C2684 C2687 1.403 . S
H2685 C2691 0.930 . S
C2686 H2672 0.930 . S
C2686 C2684 1.395 . S
C2686 C2689 1.403 . S
C2687 C2684 1.403 . S
C2687 C2688 1.524 . S
C2687 C2691 1.400 . S
C2688 H2673 0.960 . S
C2688 H2674 0.960 . S
C2688 H2675 0.960 . S
C2688 C2687 1.524 . S
C2689 C2686 1.403 . S
C2689 C2690 1.392 . S
C2689 C2693 1.495 . S
C2690 C2689 1.392 . S
C2690 C2691 1.385 . S
C2690 C2692 1.478 . S
C2691 H2685 0.930 . S
C2691 C2687 1.400 . S
C2691 C2690 1.385 . S
C2692 C2690 1.478 . S
C2692 C2694 1.381 . S
C2692 C2698 1.383 . S
C2693 C2689 1.495 . S
C2693 H2699 0.959 . S
C2693 H2700 0.961 . S
C2693 H2701 0.960 . S
C2694 C2692 1.381 . S
C2694 C2695 1.394 . S
C2694 H2702 0.930 . S
C2695 C2694 1.394 . S
C2695 C2696 1.383 . S
C2695 H2703 0.929 . S
C2696 C2695 1.383 . S
C2696 C2697 1.377 . S
C2697 H2681 0.930 . S
C2697 C2696 1.377 . S
C2697 C2698 1.379 . S
C2698 H2682 0.931 . S
C2698 C2692 1.383 . S
C2698 C2697 1.379 . S
H2699 C2693 0.959 . S
H2700 C2693 0.961 . S
H2701 C2693 0.960 . S
H2702 C2694 0.930 . S
H2703 C2695 0.929 . S
H2704 C2712 0.929 . S
H2705 C2714 0.930 . S
H2706 C2716 0.930 . S
H2707 C2719 0.929 . S
H2708 C2722 0.930 . S
H2709 C2724 0.960 . S
H2710 C2724 0.960 . S
H2711 C2724 0.960 . S
C2712 H2704 0.929 . S
C2712 C2713 1.377 . S
C2712 C2714 1.384 . S
C2713 C2712 1.377 . S
C2713 C2719 1.390 . S
C2714 H2705 0.930 . S
C2714 C2712 1.384 . S
C2714 C2715 1.372 . S
C2715 C2714 1.372 . S
C2715 C2716 1.400 . S
C2715 C2720 1.490 . S
C2716 H2706 0.930 . S
C2716 C2715 1.400 . S
C2716 C2719 1.386 . S
H2717 C2733 0.930 . S
H2718 C2734 0.931 . S
C2719 H2707 0.929 . S
C2719 C2713 1.390 . S
C2719 C2716 1.386 . S
C2720 C2715 1.490 . S
C2720 C2722 1.395 . S
C2720 C2723 1.403 . S
H2721 C2727 0.930 . S
C2722 H2708 0.930 . S
C2722 C2720 1.395 . S
C2722 C2725 1.403 . S
C2723 C2720 1.403 . S
C2723 C2724 1.524 . S
C2723 C2727 1.400 . S
C2724 H2709 0.960 . S
C2724 H2710 0.960 . S
C2724 H2711 0.960 . S
C2724 C2723 1.524 . S
C2725 C2722 1.403 . S
C2725 C2726 1.392 . S
C2725 C2729 1.495 . S
C2726 C2725 1.392 . S
C2726 C2727 1.385 . S
C2726 C2728 1.478 . S
C2727 H2721 0.930 . S
C2727 C2723 1.400 . S
C2727 C2726 1.385 . S
C2728 C2726 1.478 . S
C2728 C2730 1.381 . S
C2728 C2734 1.383 . S
C2729 C2725 1.495 . S
C2729 H2735 0.959 . S
C2729 H2736 0.961 . S
C2729 H2737 0.960 . S
C2730 C2728 1.381 . S
C2730 C2731 1.394 . S
C2730 H2738 0.930 . S
C2731 C2730 1.394 . S
C2731 C2732 1.383 . S
C2731 H2739 0.929 . S
C2732 C2731 1.383 . S
C2732 C2733 1.377 . S
C2733 H2717 0.930 . S
C2733 C2732 1.377 . S
C2733 C2734 1.379 . S
C2734 H2718 0.931 . S
C2734 C2728 1.383 . S
C2734 C2733 1.379 . S
H2735 C2729 0.959 . S
H2736 C2729 0.961 . S
H2737 C2729 0.960 . S
H2738 C2730 0.930 . S
H2739 C2731 0.929 . S
H2740 C2748 0.929 . S
H2741 C2750 0.930 . S
H2742 C2752 0.930 . S
H2743 C2755 0.929 . S
H2744 C2758 0.930 . S
H2745 C2760 0.960 . S
H2746 C2760 0.960 . S
H2747 C2760 0.960 . S
C2748 H2740 0.929 . S
C2748 C2749 1.377 . S
C2748 C2750 1.384 . S
C2749 C2748 1.377 . S
C2749 C2755 1.390 . S
C2750 H2741 0.930 . S
C2750 C2748 1.384 . S
C2750 C2751 1.372 . S
C2751 C2750 1.372 . S
C2751 C2752 1.400 . S
C2751 C2756 1.490 . S
C2752 H2742 0.930 . S
C2752 C2751 1.400 . S
C2752 C2755 1.386 . S
H2753 C2769 0.930 . S
H2754 C2770 0.931 . S
C2755 H2743 0.929 . S
C2755 C2749 1.390 . S
C2755 C2752 1.386 . S
C2756 C2751 1.490 . S
C2756 C2758 1.395 . S
C2756 C2759 1.403 . S
H2757 C2763 0.930 . S
C2758 H2744 0.930 . S
C2758 C2756 1.395 . S
C2758 C2761 1.403 . S
C2759 C2756 1.403 . S
C2759 C2760 1.524 . S
C2759 C2763 1.400 . S
C2760 H2745 0.960 . S
C2760 H2746 0.960 . S
C2760 H2747 0.960 . S
C2760 C2759 1.524 . S
C2761 C2758 1.403 . S
C2761 C2762 1.392 . S
C2761 C2765 1.495 . S
C2762 C2761 1.392 . S
C2762 C2763 1.385 . S
C2762 C2764 1.478 . S
C2763 H2757 0.930 . S
C2763 C2759 1.400 . S
C2763 C2762 1.385 . S
C2764 C2762 1.478 . S
C2764 C2766 1.381 . S
C2764 C2770 1.383 . S
C2765 C2761 1.495 . S
C2765 H2771 0.959 . S
C2765 H2772 0.961 . S
C2765 H2773 0.960 . S
C2766 C2764 1.381 . S
C2766 C2767 1.394 . S
C2766 H2774 0.930 . S
C2767 C2766 1.394 . S
C2767 C2768 1.383 . S
C2767 H2775 0.929 . S
C2768 C2767 1.383 . S
C2768 C2769 1.377 . S
C2769 H2753 0.930 . S
C2769 C2768 1.377 . S
C2769 C2770 1.379 . S
C2770 H2754 0.931 . S
C2770 C2764 1.383 . S
C2770 C2769 1.379 . S
H2771 C2765 0.959 . S
H2772 C2765 0.961 . S
H2773 C2765 0.960 . S
H2774 C2766 0.930 . S
H2775 C2767 0.929 . S
H2776 C2784 0.929 . S
H2777 C2786 0.930 . S
H2778 C2788 0.930 . S
H2779 C2791 0.929 . S
H2780 C2794 0.930 . S
H2781 C2796 0.960 . S
H2782 C2796 0.960 . S
H2783 C2796 0.960 . S
C2784 H2776 0.929 . S
C2784 C2785 1.377 . S
C2784 C2786 1.384 . S
C2785 C2784 1.377 . S
C2785 C2791 1.390 . S
C2786 H2777 0.930 . S
C2786 C2784 1.384 . S
C2786 C2787 1.372 . S
C2787 C2786 1.372 . S
C2787 C2788 1.400 . S
C2787 C2792 1.490 . S
C2788 H2778 0.930 . S
C2788 C2787 1.400 . S
C2788 C2791 1.386 . S
H2789 C2805 0.930 . S
H2790 C2806 0.931 . S
C2791 H2779 0.929 . S
C2791 C2785 1.390 . S
C2791 C2788 1.386 . S
C2792 C2787 1.490 . S
C2792 C2794 1.395 . S
C2792 C2795 1.403 . S
H2793 C2799 0.930 . S
C2794 H2780 0.930 . S
C2794 C2792 1.395 . S
C2794 C2797 1.403 . S
C2795 C2792 1.403 . S
C2795 C2796 1.524 . S
C2795 C2799 1.400 . S
C2796 H2781 0.960 . S
C2796 H2782 0.960 . S
C2796 H2783 0.960 . S
C2796 C2795 1.524 . S
C2797 C2794 1.403 . S
C2797 C2798 1.392 . S
C2797 C2801 1.495 . S
C2798 C2797 1.392 . S
C2798 C2799 1.385 . S
C2798 C2800 1.478 . S
C2799 H2793 0.930 . S
C2799 C2795 1.400 . S
C2799 C2798 1.385 . S
C2800 C2798 1.478 . S
C2800 C2802 1.381 . S
C2800 C2806 1.383 . S
C2801 C2797 1.495 . S
C2801 H2807 0.959 . S
C2801 H2808 0.961 . S
C2801 H2809 0.960 . S
C2802 C2800 1.381 . S
C2802 C2803 1.394 . S
C2802 H2810 0.930 . S
C2803 C2802 1.394 . S
C2803 C2804 1.383 . S
C2803 H2811 0.929 . S
C2804 C2803 1.383 . S
C2804 C2805 1.377 . S
C2805 H2789 0.930 . S
C2805 C2804 1.377 . S
C2805 C2806 1.379 . S
C2806 H2790 0.931 . S
C2806 C2800 1.383 . S
C2806 C2805 1.379 . S
H2807 C2801 0.959 . S
H2808 C2801 0.961 . S
H2809 C2801 0.960 . S
H2810 C2802 0.930 . S
H2811 C2803 0.929 . S
H2812 C2820 0.929 . S
H2813 C2822 0.930 . S
H2814 C2824 0.930 . S
H2815 C2827 0.929 . S
H2816 C2830 0.930 . S
H2817 C2832 0.960 . S
H2818 C2832 0.960 . S
H2819 C2832 0.960 . S
C2820 H2812 0.929 . S
C2820 C2821 1.377 . S
C2820 C2822 1.384 . S
C2821 C2820 1.377 . S
C2821 C2827 1.390 . S
C2822 H2813 0.930 . S
C2822 C2820 1.384 . S
C2822 C2823 1.372 . S
C2823 C2822 1.372 . S
C2823 C2824 1.400 . S
C2823 C2828 1.490 . S
C2824 H2814 0.930 . S
C2824 C2823 1.400 . S
C2824 C2827 1.386 . S
H2825 C2841 0.930 . S
H2826 C2842 0.931 . S
C2827 H2815 0.929 . S
C2827 C2821 1.390 . S
C2827 C2824 1.386 . S
C2828 C2823 1.490 . S
C2828 C2830 1.395 . S
C2828 C2831 1.403 . S
H2829 C2835 0.930 . S
C2830 H2816 0.930 . S
C2830 C2828 1.395 . S
C2830 C2833 1.403 . S
C2831 C2828 1.403 . S
C2831 C2832 1.524 . S
C2831 C2835 1.400 . S
C2832 H2817 0.960 . S
C2832 H2818 0.960 . S
C2832 H2819 0.960 . S
C2832 C2831 1.524 . S
C2833 C2830 1.403 . S
C2833 C2834 1.392 . S
C2833 C2837 1.495 . S
C2834 C2833 1.392 . S
C2834 C2835 1.385 . S
C2834 C2836 1.478 . S
C2835 H2829 0.930 . S
C2835 C2831 1.400 . S
C2835 C2834 1.385 . S
C2836 C2834 1.478 . S
C2836 C2838 1.381 . S
C2836 C2842 1.383 . S
C2837 C2833 1.495 . S
C2837 H2843 0.959 . S
C2837 H2844 0.961 . S
C2837 H2845 0.960 . S
C2838 C2836 1.381 . S
C2838 C2839 1.394 . S
C2838 H2846 0.930 . S
C2839 C2838 1.394 . S
C2839 C2840 1.383 . S
C2839 H2847 0.929 . S
C2840 C2839 1.383 . S
C2840 C2841 1.377 . S
C2841 H2825 0.930 . S
C2841 C2840 1.377 . S
C2841 C2842 1.379 . S
C2842 H2826 0.931 . S
C2842 C2836 1.383 . S
C2842 C2841 1.379 . S
H2843 C2837 0.959 . S
H2844 C2837 0.961 . S
H2845 C2837 0.960 . S
H2846 C2838 0.930 . S
H2847 C2839 0.929 . S
H2848 C2856 0.929 . S
H2849 C2858 0.930 . S
H2850 C2860 0.930 . S
H2851 C2863 0.929 . S
H2852 C2866 0.930 . S
H2853 C2868 0.960 . S
H2854 C2868 0.960 . S
H2855 C2868 0.960 . S
C2856 H2848 0.929 . S
C2856 C2857 1.377 . S
C2856 C2858 1.384 . S
C2857 C2856 1.377 . S
C2857 C2863 1.390 . S
C2858 H2849 0.930 . S
C2858 C2856 1.384 . S
C2858 C2859 1.372 . S
C2859 C2858 1.372 . S
C2859 C2860 1.400 . S
C2859 C2864 1.490 . S
C2860 H2850 0.930 . S
C2860 C2859 1.400 . S
C2860 C2863 1.386 . S
H2861 C2877 0.930 . S
H2862 C2878 0.931 . S
C2863 H2851 0.929 . S
C2863 C2857 1.390 . S
C2863 C2860 1.386 . S
C2864 C2859 1.490 . S
C2864 C2866 1.395 . S
C2864 C2867 1.403 . S
H2865 C2871 0.930 . S
C2866 H2852 0.930 . S
C2866 C2864 1.395 . S
C2866 C2869 1.403 . S
C2867 C2864 1.403 . S
C2867 C2868 1.524 . S
C2867 C2871 1.400 . S
C2868 H2853 0.960 . S
C2868 H2854 0.960 . S
C2868 H2855 0.960 . S
C2868 C2867 1.524 . S
C2869 C2866 1.403 . S
C2869 C2870 1.392 . S
C2869 C2873 1.495 . S
C2870 C2869 1.392 . S
C2870 C2871 1.385 . S
C2870 C2872 1.478 . S
C2871 H2865 0.930 . S
C2871 C2867 1.400 . S
C2871 C2870 1.385 . S
C2872 C2870 1.478 . S
C2872 C2874 1.381 . S
C2872 C2878 1.383 . S
C2873 C2869 1.495 . S
C2873 H2879 0.959 . S
C2873 H2880 0.961 . S
C2873 H2881 0.960 . S
C2874 C2872 1.381 . S
C2874 C2875 1.394 . S
C2874 H2882 0.930 . S
C2875 C2874 1.394 . S
C2875 C2876 1.383 . S
C2875 H2883 0.929 . S
C2876 C2875 1.383 . S
C2876 C2877 1.377 . S
C2877 H2861 0.930 . S
C2877 C2876 1.377 . S
C2877 C2878 1.379 . S
C2878 H2862 0.931 . S
C2878 C2872 1.383 . S
C2878 C2877 1.379 . S
H2879 C2873 0.959 . S
H2880 C2873 0.961 . S
H2881 C2873 0.960 . S
H2882 C2874 0.930 . S
H2883 C2875 0.929 . S
H2884 C2892 0.929 . S
H2885 C2894 0.930 . S
H2886 C2896 0.930 . S
H2887 C2899 0.929 . S
H2888 C2902 0.930 . S
H2889 C2904 0.960 . S
H2890 C2904 0.960 . S
H2891 C2904 0.960 . S
C2892 H2884 0.929 . S
C2892 C2893 1.377 . S
C2892 C2894 1.384 . S
C2893 C2892 1.377 . S
C2893 C2899 1.390 . S
C2894 H2885 0.930 . S
C2894 C2892 1.384 . S
C2894 C2895 1.372 . S
C2895 C2894 1.372 . S
C2895 C2896 1.400 . S
C2895 C2900 1.490 . S
C2896 H2886 0.930 . S
C2896 C2895 1.400 . S
C2896 C2899 1.386 . S
H2897 C2913 0.930 . S
H2898 C2914 0.931 . S
C2899 H2887 0.929 . S
C2899 C2893 1.390 . S
C2899 C2896 1.386 . S
C2900 C2895 1.490 . S
C2900 C2902 1.395 . S
C2900 C2903 1.403 . S
H2901 C2907 0.930 . S
C2902 H2888 0.930 . S
C2902 C2900 1.395 . S
C2902 C2905 1.403 . S
C2903 C2900 1.403 . S
C2903 C2904 1.524 . S
C2903 C2907 1.400 . S
C2904 H2889 0.960 . S
C2904 H2890 0.960 . S
C2904 H2891 0.960 . S
C2904 C2903 1.524 . S
C2905 C2902 1.403 . S
C2905 C2906 1.392 . S
C2905 C2909 1.495 . S
C2906 C2905 1.392 . S
C2906 C2907 1.385 . S
C2906 C2908 1.478 . S
C2907 H2901 0.930 . S
C2907 C2903 1.400 . S
C2907 C2906 1.385 . S
C2908 C2906 1.478 . S
C2908 C2910 1.381 . S
C2908 C2914 1.383 . S
C2909 C2905 1.495 . S
C2909 H2915 0.959 . S
C2909 H2916 0.961 . S
C2909 H2917 0.960 . S
C2910 C2908 1.381 . S
C2910 C2911 1.394 . S
C2910 H2918 0.930 . S
C2911 C2910 1.394 . S
C2911 C2912 1.383 . S
C2911 H2919 0.929 . S
C2912 C2911 1.383 . S
C2912 C2913 1.377 . S
C2913 H2897 0.930 . S
C2913 C2912 1.377 . S
C2913 C2914 1.379 . S
C2914 H2898 0.931 . S
C2914 C2908 1.383 . S
C2914 C2913 1.379 . S
H2915 C2909 0.959 . S
H2916 C2909 0.961 . S
H2917 C2909 0.960 . S
H2918 C2910 0.930 . S
H2919 C2911 0.929 . S
H2920 C2928 0.929 . S
H2921 C2930 0.930 . S
H2922 C2932 0.930 . S
H2923 C2935 0.929 . S
H2924 C2938 0.930 . S
H2925 C2940 0.960 . S
H2926 C2940 0.960 . S
H2927 C2940 0.960 . S
C2928 H2920 0.929 . S
C2928 C2929 1.377 . S
C2928 C2930 1.384 . S
C2929 C2928 1.377 . S
C2929 C2935 1.390 . S
C2930 H2921 0.930 . S
C2930 C2928 1.384 . S
C2930 C2931 1.372 . S
C2931 C2930 1.372 . S
C2931 C2932 1.400 . S
C2931 C2936 1.490 . S
C2932 H2922 0.930 . S
C2932 C2931 1.400 . S
C2932 C2935 1.386 . S
H2933 C2949 0.930 . S
H2934 C2950 0.931 . S
C2935 H2923 0.929 . S
C2935 C2929 1.390 . S
C2935 C2932 1.386 . S
C2936 C2931 1.490 . S
C2936 C2938 1.395 . S
C2936 C2939 1.403 . S
H2937 C2943 0.930 . S
C2938 H2924 0.930 . S
C2938 C2936 1.395 . S
C2938 C2941 1.403 . S
C2939 C2936 1.403 . S
C2939 C2940 1.524 . S
C2939 C2943 1.400 . S
C2940 H2925 0.960 . S
C2940 H2926 0.960 . S
C2940 H2927 0.960 . S
C2940 C2939 1.524 . S
C2941 C2938 1.403 . S
C2941 C2942 1.392 . S
C2941 C2945 1.495 . S
C2942 C2941 1.392 . S
C2942 C2943 1.385 . S
C2942 C2944 1.478 . S
C2943 H2937 0.930 . S
C2943 C2939 1.400 . S
C2943 C2942 1.385 . S
C2944 C2942 1.478 . S
C2944 C2946 1.381 . S
C2944 C2950 1.383 . S
C2945 C2941 1.495 . S
C2945 H2951 0.959 . S
C2945 H2952 0.961 . S
C2945 H2953 0.960 . S
C2946 C2944 1.381 . S
C2946 C2947 1.394 . S
C2946 H2954 0.930 . S
C2947 C2946 1.394 . S
C2947 C2948 1.383 . S
C2947 H2955 0.929 . S
C2948 C2947 1.383 . S
C2948 C2949 1.377 . S
C2949 H2933 0.930 . S
C2949 C2948 1.377 . S
C2949 C2950 1.379 . S
C2950 H2934 0.931 . S
C2950 C2944 1.383 . S
C2950 C2949 1.379 . S
H2951 C2945 0.959 . S
H2952 C2945 0.961 . S
H2953 C2945 0.960 . S
H2954 C2946 0.930 . S
H2955 C2947 0.929 . S
H2956 C2964 0.929 . S
H2957 C2966 0.930 . S
H2958 C2968 0.930 . S
H2959 C2971 0.929 . S
H2960 C2974 0.930 . S
H2961 C2976 0.960 . S
H2962 C2976 0.960 . S
H2963 C2976 0.960 . S
C2964 H2956 0.929 . S
C2964 C2965 1.377 . S
C2964 C2966 1.384 . S
C2965 C2964 1.377 . S
C2965 C2971 1.390 . S
C2966 H2957 0.930 . S
C2966 C2964 1.384 . S
C2966 C2967 1.372 . S
C2967 C2966 1.372 . S
C2967 C2968 1.400 . S
C2967 C2972 1.490 . S
C2968 H2958 0.930 . S
C2968 C2967 1.400 . S
C2968 C2971 1.386 . S
H2969 C2985 0.930 . S
H2970 C2986 0.931 . S
C2971 H2959 0.929 . S
C2971 C2965 1.390 . S
C2971 C2968 1.386 . S
C2972 C2967 1.490 . S
C2972 C2974 1.395 . S
C2972 C2975 1.403 . S
H2973 C2979 0.930 . S
C2974 H2960 0.930 . S
C2974 C2972 1.395 . S
C2974 C2977 1.403 . S
C2975 C2972 1.403 . S
C2975 C2976 1.524 . S
C2975 C2979 1.400 . S
C2976 H2961 0.960 . S
C2976 H2962 0.960 . S
C2976 H2963 0.960 . S
C2976 C2975 1.524 . S
C2977 C2974 1.403 . S
C2977 C2978 1.392 . S
C2977 C2981 1.495 . S
C2978 C2977 1.392 . S
C2978 C2979 1.385 . S
C2978 C2980 1.478 . S
C2979 H2973 0.930 . S
C2979 C2975 1.400 . S
C2979 C2978 1.385 . S
C2980 C2978 1.478 . S
C2980 C2982 1.381 . S
C2980 C2986 1.383 . S
C2981 C2977 1.495 . S
C2981 H2987 0.959 . S
C2981 H2988 0.961 . S
C2981 H2989 0.960 . S
C2982 C2980 1.381 . S
C2982 C2983 1.394 . S
C2982 H2990 0.930 . S
C2983 C2982 1.394 . S
C2983 C2984 1.383 . S
C2983 H2991 0.929 . S
C2984 C2983 1.383 . S
C2984 C2985 1.377 . S
C2985 H2969 0.930 . S
C2985 C2984 1.377 . S
C2985 C2986 1.379 . S
C2986 H2970 0.931 . S
C2986 C2980 1.383 . S
C2986 C2985 1.379 . S
H2987 C2981 0.959 . S
H2988 C2981 0.961 . S
H2989 C2981 0.960 . S
H2990 C2982 0.930 . S
H2991 C2983 0.929 . S
H2992 C3000 0.929 . S
H2993 C3002 0.930 . S
H2994 C3004 0.930 . S
H2995 C3007 0.929 . S
H2996 C3010 0.930 . S
H2997 C3012 0.960 . S
H2998 C3012 0.960 . S
H2999 C3012 0.960 . S
C3000 H2992 0.929 . S
C3000 C3001 1.377 . S
C3000 C3002 1.384 . S
C3001 C3000 1.377 . S
C3001 C3007 1.390 . S
C3002 H2993 0.930 . S
C3002 C3000 1.384 . S
C3002 C3003 1.372 . S
C3003 C3002 1.372 . S
C3003 C3004 1.400 . S
C3003 C3008 1.490 . S
C3004 H2994 0.930 . S
C3004 C3003 1.400 . S
C3004 C3007 1.386 . S
H3005 C3021 0.930 . S
H3006 C3022 0.931 . S
C3007 H2995 0.929 . S
C3007 C3001 1.390 . S
C3007 C3004 1.386 . S
C3008 C3003 1.490 . S
C3008 C3010 1.395 . S
C3008 C3011 1.403 . S
H3009 C3015 0.930 . S
C3010 H2996 0.930 . S
C3010 C3008 1.395 . S
C3010 C3013 1.403 . S
C3011 C3008 1.403 . S
C3011 C3012 1.524 . S
C3011 C3015 1.400 . S
C3012 H2997 0.960 . S
C3012 H2998 0.960 . S
C3012 H2999 0.960 . S
C3012 C3011 1.524 . S
C3013 C3010 1.403 . S
C3013 C3014 1.392 . S
C3013 C3017 1.495 . S
C3014 C3013 1.392 . S
C3014 C3015 1.385 . S
C3014 C3016 1.478 . S
C3015 H3009 0.930 . S
C3015 C3011 1.400 . S
C3015 C3014 1.385 . S
C3016 C3014 1.478 . S
C3016 C3018 1.381 . S
C3016 C3022 1.383 . S
C3017 C3013 1.495 . S
C3017 H3023 0.959 . S
C3017 H3024 0.961 . S
C3017 H3025 0.960 . S
C3018 C3016 1.381 . S
C3018 C3019 1.394 . S
C3018 H3026 0.930 . S
C3019 C3018 1.394 . S
C3019 C3020 1.383 . S
C3019 H3027 0.929 . S
C3020 C3019 1.383 . S
C3020 C3021 1.377 . S
C3021 H3005 0.930 . S
C3021 C3020 1.377 . S
C3021 C3022 1.379 . S
C3022 H3006 0.931 . S
C3022 C3016 1.383 . S
C3022 C3021 1.379 . S
H3023 C3017 0.959 . S
H3024 C3017 0.961 . S
H3025 C3017 0.960 . S
H3026 C3018 0.930 . S
H3027 C3019 0.929 . S
H3028 C3036 0.929 . S
H3029 C3038 0.930 . S
H3030 C3040 0.930 . S
H3031 C3043 0.929 . S
H3032 C3046 0.930 . S
H3033 C3048 0.960 . S
H3034 C3048 0.960 . S
H3035 C3048 0.960 . S
C3036 H3028 0.929 . S
C3036 C3037 1.377 . S
C3036 C3038 1.384 . S
C3037 C3036 1.377 . S
C3037 C3043 1.390 . S
C3038 H3029 0.930 . S
C3038 C3036 1.384 . S
C3038 C3039 1.372 . S
C3039 C3038 1.372 . S
C3039 C3040 1.400 . S
C3039 C3044 1.490 . S
C3040 H3030 0.930 . S
C3040 C3039 1.400 . S
C3040 C3043 1.386 . S
H3041 C3057 0.930 . S
H3042 C3058 0.931 . S
C3043 H3031 0.929 . S
C3043 C3037 1.390 . S
C3043 C3040 1.386 . S
C3044 C3039 1.490 . S
C3044 C3046 1.395 . S
C3044 C3047 1.403 . S
H3045 C3051 0.930 . S
C3046 H3032 0.930 . S
C3046 C3044 1.395 . S
C3046 C3049 1.403 . S
C3047 C3044 1.403 . S
C3047 C3048 1.524 . S
C3047 C3051 1.400 . S
C3048 H3033 0.960 . S
C3048 H3034 0.960 . S
C3048 H3035 0.960 . S
C3048 C3047 1.524 . S
C3049 C3046 1.403 . S
C3049 C3050 1.392 . S
C3049 C3053 1.495 . S
C3050 C3049 1.392 . S
C3050 C3051 1.385 . S
C3050 C3052 1.478 . S
C3051 H3045 0.930 . S
C3051 C3047 1.400 . S
C3051 C3050 1.385 . S
C3052 C3050 1.478 . S
C3052 C3054 1.381 . S
C3052 C3058 1.383 . S
C3053 C3049 1.495 . S
C3053 H3059 0.959 . S
C3053 H3060 0.961 . S
C3053 H3061 0.960 . S
C3054 C3052 1.381 . S
C3054 C3055 1.394 . S
C3054 H3062 0.930 . S
C3055 C3054 1.394 . S
C3055 C3056 1.383 . S
C3055 H3063 0.929 . S
C3056 C3055 1.383 . S
C3056 C3057 1.377 . S
C3057 H3041 0.930 . S
C3057 C3056 1.377 . S
C3057 C3058 1.379 . S
C3058 H3042 0.931 . S
C3058 C3052 1.383 . S
C3058 C3057 1.379 . S
H3059 C3053 0.959 . S
H3060 C3053 0.961 . S
H3061 C3053 0.960 . S
H3062 C3054 0.930 . S
H3063 C3055 0.929 . S
H3064 C3072 0.929 . S
H3065 C3074 0.930 . S
H3066 C3076 0.930 . S
H3067 C3079 0.929 . S
H3068 C3082 0.930 . S
H3069 C3084 0.960 . S
H3070 C3084 0.960 . S
H3071 C3084 0.960 . S
C3072 H3064 0.929 . S
C3072 C3073 1.377 . S
C3072 C3074 1.384 . S
C3073 C3072 1.377 . S
C3073 C3079 1.390 . S
C3074 H3065 0.930 . S
C3074 C3072 1.384 . S
C3074 C3075 1.372 . S
C3075 C3074 1.372 . S
C3075 C3076 1.400 . S
C3075 C3080 1.490 . S
C3076 H3066 0.930 . S
C3076 C3075 1.400 . S
C3076 C3079 1.386 . S
H3077 C3093 0.930 . S
H3078 C3094 0.931 . S
C3079 H3067 0.929 . S
C3079 C3073 1.390 . S
C3079 C3076 1.386 . S
C3080 C3075 1.490 . S
C3080 C3082 1.395 . S
C3080 C3083 1.403 . S
H3081 C3087 0.930 . S
C3082 H3068 0.930 . S
C3082 C3080 1.395 . S
C3082 C3085 1.403 . S
C3083 C3080 1.403 . S
C3083 C3084 1.524 . S
C3083 C3087 1.400 . S
C3084 H3069 0.960 . S
C3084 H3070 0.960 . S
C3084 H3071 0.960 . S
C3084 C3083 1.524 . S
C3085 C3082 1.403 . S
C3085 C3086 1.392 . S
C3085 C3089 1.495 . S
C3086 C3085 1.392 . S
C3086 C3087 1.385 . S
C3086 C3088 1.478 . S
C3087 H3081 0.930 . S
C3087 C3083 1.400 . S
C3087 C3086 1.385 . S
C3088 C3086 1.478 . S
C3088 C3090 1.381 . S
C3088 C3094 1.383 . S
C3089 C3085 1.495 . S
C3089 H3095 0.959 . S
C3089 H3096 0.961 . S
C3089 H3097 0.960 . S
C3090 C3088 1.381 . S
C3090 C3091 1.394 . S
C3090 H3098 0.930 . S
C3091 C3090 1.394 . S
C3091 C3092 1.383 . S
C3091 H3099 0.929 . S
C3092 C3091 1.383 . S
C3092 C3093 1.377 . S
C3093 H3077 0.930 . S
C3093 C3092 1.377 . S
C3093 C3094 1.379 . S
C3094 H3078 0.931 . S
C3094 C3088 1.383 . S
C3094 C3093 1.379 . S
H3095 C3089 0.959 . S
H3096 C3089 0.961 . S
H3097 C3089 0.960 . S
H3098 C3090 0.930 . S
H3099 C3091 0.929 . S
H3100 C3108 0.929 . S
H3101 C3110 0.930 . S
H3102 C3112 0.930 . S
H3103 C3115 0.929 . S
H3104 C3118 0.930 . S
H3105 C3120 0.960 . S
H3106 C3120 0.960 . S
H3107 C3120 0.960 . S
C3108 H3100 0.929 . S
C3108 C3109 1.377 . S
C3108 C3110 1.384 . S
C3109 C3108 1.377 . S
C3109 C3115 1.390 . S
C3110 H3101 0.930 . S
C3110 C3108 1.384 . S
C3110 C3111 1.372 . S
C3111 C3110 1.372 . S
C3111 C3112 1.400 . S
C3111 C3116 1.490 . S
C3112 H3102 0.930 . S
C3112 C3111 1.400 . S
C3112 C3115 1.386 . S
H3113 C3129 0.930 . S
H3114 C3130 0.931 . S
C3115 H3103 0.929 . S
C3115 C3109 1.390 . S
C3115 C3112 1.386 . S
C3116 C3111 1.490 . S
C3116 C3118 1.395 . S
C3116 C3119 1.403 . S
H3117 C3123 0.930 . S
C3118 H3104 0.930 . S
C3118 C3116 1.395 . S
C3118 C3121 1.403 . S
C3119 C3116 1.403 . S
C3119 C3120 1.524 . S
C3119 C3123 1.400 . S
C3120 H3105 0.960 . S
C3120 H3106 0.960 . S
C3120 H3107 0.960 . S
C3120 C3119 1.524 . S
C3121 C3118 1.403 . S
C3121 C3122 1.392 . S
C3121 C3125 1.495 . S
C3122 C3121 1.392 . S
C3122 C3123 1.385 . S
C3122 C3124 1.478 . S
C3123 H3117 0.930 . S
C3123 C3119 1.400 . S
C3123 C3122 1.385 . S
C3124 C3122 1.478 . S
C3124 C3126 1.381 . S
C3124 C3130 1.383 . S
C3125 C3121 1.495 . S
C3125 H3131 0.959 . S
C3125 H3132 0.961 . S
C3125 H3133 0.960 . S
C3126 C3124 1.381 . S
C3126 C3127 1.394 . S
C3126 H3134 0.930 . S
C3127 C3126 1.394 . S
C3127 C3128 1.383 . S
C3127 H3135 0.929 . S
C3128 C3127 1.383 . S
C3128 C3129 1.377 . S
C3129 H3113 0.930 . S
C3129 C3128 1.377 . S
C3129 C3130 1.379 . S
C3130 H3114 0.931 . S
C3130 C3124 1.383 . S
C3130 C3129 1.379 . S
H3131 C3125 0.959 . S
H3132 C3125 0.961 . S
H3133 C3125 0.960 . S
H3134 C3126 0.930 . S
H3135 C3127 0.929 . S
H3136 C3144 0.929 . S
H3137 C3146 0.930 . S
H3138 C3148 0.930 . S
H3139 C3151 0.929 . S
H3140 C3154 0.930 . S
H3141 C3156 0.960 . S
H3142 C3156 0.960 . S
H3143 C3156 0.960 . S
C3144 H3136 0.929 . S
C3144 C3145 1.377 . S
C3144 C3146 1.384 . S
C3145 C3144 1.377 . S
C3145 C3151 1.390 . S
C3146 H3137 0.930 . S
C3146 C3144 1.384 . S
C3146 C3147 1.372 . S
C3147 C3146 1.372 . S
C3147 C3148 1.400 . S
C3147 C3152 1.490 . S
C3148 H3138 0.930 . S
C3148 C3147 1.400 . S
C3148 C3151 1.386 . S
H3149 C3165 0.930 . S
H3150 C3166 0.931 . S
C3151 H3139 0.929 . S
C3151 C3145 1.390 . S
C3151 C3148 1.386 . S
C3152 C3147 1.490 . S
C3152 C3154 1.395 . S
C3152 C3155 1.403 . S
H3153 C3159 0.930 . S
C3154 H3140 0.930 . S
C3154 C3152 1.395 . S
C3154 C3157 1.403 . S
C3155 C3152 1.403 . S
C3155 C3156 1.524 . S
C3155 C3159 1.400 . S
C3156 H3141 0.960 . S
C3156 H3142 0.960 . S
C3156 H3143 0.960 . S
C3156 C3155 1.524 . S
C3157 C3154 1.403 . S
C3157 C3158 1.392 . S
C3157 C3161 1.495 . S
C3158 C3157 1.392 . S
C3158 C3159 1.385 . S
C3158 C3160 1.478 . S
C3159 H3153 0.930 . S
C3159 C3155 1.400 . S
C3159 C3158 1.385 . S
C3160 C3158 1.478 . S
C3160 C3162 1.381 . S
C3160 C3166 1.383 . S
C3161 C3157 1.495 . S
C3161 H3167 0.959 . S
C3161 H3168 0.961 . S
C3161 H3169 0.960 . S
C3162 C3160 1.381 . S
C3162 C3163 1.394 . S
C3162 H3170 0.930 . S
C3163 C3162 1.394 . S
C3163 C3164 1.383 . S
C3163 H3171 0.929 . S
C3164 C3163 1.383 . S
C3164 C3165 1.377 . S
C3165 H3149 0.930 . S
C3165 C3164 1.377 . S
C3165 C3166 1.379 . S
C3166 H3150 0.931 . S
C3166 C3160 1.383 . S
C3166 C3165 1.379 . S
H3167 C3161 0.959 . S
H3168 C3161 0.961 . S
H3169 C3161 0.960 . S
H3170 C3162 0.930 . S
H3171 C3163 0.929 . S
H3172 C3180 0.929 . S
H3173 C3182 0.930 . S
H3174 C3184 0.930 . S
H3175 C3187 0.929 . S
H3176 C3190 0.930 . S
H3177 C3192 0.960 . S
H3178 C3192 0.960 . S
H3179 C3192 0.960 . S
C3180 H3172 0.929 . S
C3180 C3181 1.377 . S
C3180 C3182 1.384 . S
C3181 C3180 1.377 . S
C3181 C3187 1.390 . S
C3182 H3173 0.930 . S
C3182 C3180 1.384 . S
C3182 C3183 1.372 . S
C3183 C3182 1.372 . S
C3183 C3184 1.400 . S
C3183 C3188 1.490 . S
C3184 H3174 0.930 . S
C3184 C3183 1.400 . S
C3184 C3187 1.386 . S
H3185 C3201 0.930 . S
H3186 C3202 0.931 . S
C3187 H3175 0.929 . S
C3187 C3181 1.390 . S
C3187 C3184 1.386 . S
C3188 C3183 1.490 . S
C3188 C3190 1.395 . S
C3188 C3191 1.403 . S
H3189 C3195 0.930 . S
C3190 H3176 0.930 . S
C3190 C3188 1.395 . S
C3190 C3193 1.403 . S
C3191 C3188 1.403 . S
C3191 C3192 1.524 . S
C3191 C3195 1.400 . S
C3192 H3177 0.960 . S
C3192 H3178 0.960 . S
C3192 H3179 0.960 . S
C3192 C3191 1.524 . S
C3193 C3190 1.403 . S
C3193 C3194 1.392 . S
C3193 C3197 1.495 . S
C3194 C3193 1.392 . S
C3194 C3195 1.385 . S
C3194 C3196 1.478 . S
C3195 H3189 0.930 . S
C3195 C3191 1.400 . S
C3195 C3194 1.385 . S
C3196 C3194 1.478 . S
C3196 C3198 1.381 . S
C3196 C3202 1.383 . S
C3197 C3193 1.495 . S
C3197 H3203 0.959 . S
C3197 H3204 0.961 . S
C3197 H3205 0.960 . S
C3198 C3196 1.381 . S
C3198 C3199 1.394 . S
C3198 H3206 0.930 . S
C3199 C3198 1.394 . S
C3199 C3200 1.383 . S
C3199 H3207 0.929 . S
C3200 C3199 1.383 . S
C3200 C3201 1.377 . S
C3201 H3185 0.930 . S
C3201 C3200 1.377 . S
C3201 C3202 1.379 . S
C3202 H3186 0.931 . S
C3202 C3196 1.383 . S
C3202 C3201 1.379 . S
H3203 C3197 0.959 . S
H3204 C3197 0.961 . S
H3205 C3197 0.960 . S
H3206 C3198 0.930 . S
H3207 C3199 0.929 . S
H3208 C3216 0.929 . S
H3209 C3218 0.930 . S
H3210 C3220 0.930 . S
H3211 C3223 0.929 . S
H3212 C3226 0.930 . S
H3213 C3228 0.960 . S
H3214 C3228 0.960 . S
H3215 C3228 0.960 . S
C3216 H3208 0.929 . S
C3216 C3217 1.377 . S
C3216 C3218 1.384 . S
C3217 C3216 1.377 . S
C3217 C3223 1.390 . S
C3218 H3209 0.930 . S
C3218 C3216 1.384 . S
C3218 C3219 1.372 . S
C3219 C3218 1.372 . S
C3219 C3220 1.400 . S
C3219 C3224 1.490 . S
C3220 H3210 0.930 . S
C3220 C3219 1.400 . S
C3220 C3223 1.386 . S
H3221 C3237 0.930 . S
H3222 C3238 0.931 . S
C3223 H3211 0.929 . S
C3223 C3217 1.390 . S
C3223 C3220 1.386 . S
C3224 C3219 1.490 . S
C3224 C3226 1.395 . S
C3224 C3227 1.403 . S
H3225 C3231 0.930 . S
C3226 H3212 0.930 . S
C3226 C3224 1.395 . S
C3226 C3229 1.403 . S
C3227 C3224 1.403 . S
C3227 C3228 1.524 . S
C3227 C3231 1.400 . S
C3228 H3213 0.960 . S
C3228 H3214 0.960 . S
C3228 H3215 0.960 . S
C3228 C3227 1.524 . S
C3229 C3226 1.403 . S
C3229 C3230 1.392 . S
C3229 C3233 1.495 . S
C3230 C3229 1.392 . S
C3230 C3231 1.385 . S
C3230 C3232 1.478 . S
C3231 H3225 0.930 . S
C3231 C3227 1.400 . S
C3231 C3230 1.385 . S
C3232 C3230 1.478 . S
C3232 C3234 1.381 . S
C3232 C3238 1.383 . S
C3233 C3229 1.495 . S
C3233 H3239 0.959 . S
C3233 H3240 0.961 . S
C3233 H3241 0.960 . S
C3234 C3232 1.381 . S
C3234 C3235 1.394 . S
C3234 H3242 0.930 . S
C3235 C3234 1.394 . S
C3235 C3236 1.383 . S
C3235 H3243 0.929 . S
C3236 C3235 1.383 . S
C3236 C3237 1.377 . S
C3237 H3221 0.930 . S
C3237 C3236 1.377 . S
C3237 C3238 1.379 . S
C3238 H3222 0.931 . S
C3238 C3232 1.383 . S
C3238 C3237 1.379 . S
H3239 C3233 0.959 . S
H3240 C3233 0.961 . S
H3241 C3233 0.960 . S
H3242 C3234 0.930 . S
H3243 C3235 0.929 . S
H3244 C3252 0.929 . S
H3245 C3254 0.930 . S
H3246 C3256 0.930 . S
H3247 C3259 0.929 . S
H3248 C3262 0.930 . S
H3249 C3264 0.960 . S
H3250 C3264 0.960 . S
H3251 C3264 0.960 . S
C3252 H3244 0.929 . S
C3252 C3253 1.377 . S
C3252 C3254 1.384 . S
C3253 C3252 1.377 . S
C3253 C3259 1.390 . S
C3254 H3245 0.930 . S
C3254 C3252 1.384 . S
C3254 C3255 1.372 . S
C3255 C3254 1.372 . S
C3255 C3256 1.400 . S
C3255 C3260 1.490 . S
C3256 H3246 0.930 . S
C3256 C3255 1.400 . S
C3256 C3259 1.386 . S
H3257 C3273 0.930 . S
H3258 C3274 0.931 . S
C3259 H3247 0.929 . S
C3259 C3253 1.390 . S
C3259 C3256 1.386 . S
C3260 C3255 1.490 . S
C3260 C3262 1.395 . S
C3260 C3263 1.403 . S
H3261 C3267 0.930 . S
C3262 H3248 0.930 . S
C3262 C3260 1.395 . S
C3262 C3265 1.403 . S
C3263 C3260 1.403 . S
C3263 C3264 1.524 . S
C3263 C3267 1.400 . S
C3264 H3249 0.960 . S
C3264 H3250 0.960 . S
C3264 H3251 0.960 . S
C3264 C3263 1.524 . S
C3265 C3262 1.403 . S
C3265 C3266 1.392 . S
C3265 C3269 1.495 . S
C3266 C3265 1.392 . S
C3266 C3267 1.385 . S
C3266 C3268 1.478 . S
C3267 H3261 0.930 . S
C3267 C3263 1.400 . S
C3267 C3266 1.385 . S
C3268 C3266 1.478 . S
C3268 C3270 1.381 . S
C3268 C3274 1.383 . S
C3269 C3265 1.495 . S
C3269 H3275 0.959 . S
C3269 H3276 0.961 . S
C3269 H3277 0.960 . S
C3270 C3268 1.381 . S
C3270 C3271 1.394 . S
C3270 H3278 0.930 . S
C3271 C3270 1.394 . S
C3271 C3272 1.383 . S
C3271 H3279 0.929 . S
C3272 C3271 1.383 . S
C3272 C3273 1.377 . S
C3273 H3257 0.930 . S
C3273 C3272 1.377 . S
C3273 C3274 1.379 . S
C3274 H3258 0.931 . S
C3274 C3268 1.383 . S
C3274 C3273 1.379 . S
H3275 C3269 0.959 . S
H3276 C3269 0.961 . S
H3277 C3269 0.960 . S
H3278 C3270 0.930 . S
H3279 C3271 0.929 . S
H3280 C3288 0.929 . S
H3281 C3290 0.930 . S
H3282 C3292 0.930 . S
H3283 C3295 0.929 . S
H3284 C3298 0.930 . S
H3285 C3300 0.960 . S
H3286 C3300 0.960 . S
H3287 C3300 0.960 . S
C3288 H3280 0.929 . S
C3288 C3289 1.377 . S
C3288 C3290 1.384 . S
C3289 C3288 1.377 . S
C3289 C3295 1.390 . S
C3290 H3281 0.930 . S
C3290 C3288 1.384 . S
C3290 C3291 1.372 . S
C3291 C3290 1.372 . S
C3291 C3292 1.400 . S
C3291 C3296 1.490 . S
C3292 H3282 0.930 . S
C3292 C3291 1.400 . S
C3292 C3295 1.386 . S
H3293 C3309 0.930 . S
H3294 C3310 0.931 . S
C3295 H3283 0.929 . S
C3295 C3289 1.390 . S
C3295 C3292 1.386 . S
C3296 C3291 1.490 . S
C3296 C3298 1.395 . S
C3296 C3299 1.403 . S
H3297 C3303 0.930 . S
C3298 H3284 0.930 . S
C3298 C3296 1.395 . S
C3298 C3301 1.403 . S
C3299 C3296 1.403 . S
C3299 C3300 1.524 . S
C3299 C3303 1.400 . S
C3300 H3285 0.960 . S
C3300 H3286 0.960 . S
C3300 H3287 0.960 . S
C3300 C3299 1.524 . S
C3301 C3298 1.403 . S
C3301 C3302 1.392 . S
C3301 C3305 1.495 . S
C3302 C3301 1.392 . S
C3302 C3303 1.385 . S
C3302 C3304 1.478 . S
C3303 H3297 0.930 . S
C3303 C3299 1.400 . S
C3303 C3302 1.385 . S
C3304 C3302 1.478 . S
C3304 C3306 1.381 . S
C3304 C3310 1.383 . S
C3305 C3301 1.495 . S
C3305 H3311 0.959 . S
C3305 H3312 0.961 . S
C3305 H3313 0.960 . S
C3306 C3304 1.381 . S
C3306 C3307 1.394 . S
C3306 H3314 0.930 . S
C3307 C3306 1.394 . S
C3307 C3308 1.383 . S
C3307 H3315 0.929 . S
C3308 C3307 1.383 . S
C3308 C3309 1.377 . S
C3309 H3293 0.930 . S
C3309 C3308 1.377 . S
C3309 C3310 1.379 . S
C3310 H3294 0.931 . S
C3310 C3304 1.383 . S
C3310 C3309 1.379 . S
H3311 C3305 0.959 . S
H3312 C3305 0.961 . S
H3313 C3305 0.960 . S
H3314 C3306 0.930 . S
H3315 C3307 0.929 . S
H3316 C3324 0.929 . S
H3317 C3326 0.930 . S
H3318 C3328 0.930 . S
H3319 C3331 0.929 . S
H3320 C3334 0.930 . S
H3321 C3336 0.960 . S
H3322 C3336 0.960 . S
H3323 C3336 0.960 . S
C3324 H3316 0.929 . S
C3324 C3325 1.377 . S
C3324 C3326 1.384 . S
C3325 C3324 1.377 . S
C3325 C3331 1.390 . S
C3326 H3317 0.930 . S
C3326 C3324 1.384 . S
C3326 C3327 1.372 . S
C3327 C3326 1.372 . S
C3327 C3328 1.400 . S
C3327 C3332 1.490 . S
C3328 H3318 0.930 . S
C3328 C3327 1.400 . S
C3328 C3331 1.386 . S
H3329 C3345 0.930 . S
H3330 C3346 0.931 . S
C3331 H3319 0.929 . S
C3331 C3325 1.390 . S
C3331 C3328 1.386 . S
C3332 C3327 1.490 . S
C3332 C3334 1.395 . S
C3332 C3335 1.403 . S
H3333 C3339 0.930 . S
C3334 H3320 0.930 . S
C3334 C3332 1.395 . S
C3334 C3337 1.403 . S
C3335 C3332 1.403 . S
C3335 C3336 1.524 . S
C3335 C3339 1.400 . S
C3336 H3321 0.960 . S
C3336 H3322 0.960 . S
C3336 H3323 0.960 . S
C3336 C3335 1.524 . S
C3337 C3334 1.403 . S
C3337 C3338 1.392 . S
C3337 C3341 1.495 . S
C3338 C3337 1.392 . S
C3338 C3339 1.385 . S
C3338 C3340 1.478 . S
C3339 H3333 0.930 . S
C3339 C3335 1.400 . S
C3339 C3338 1.385 . S
C3340 C3338 1.478 . S
C3340 C3342 1.381 . S
C3340 C3346 1.383 . S
C3341 C3337 1.495 . S
C3341 H3347 0.959 . S
C3341 H3348 0.961 . S
C3341 H3349 0.960 . S
C3342 C3340 1.381 . S
C3342 C3343 1.394 . S
C3342 H3350 0.930 . S
C3343 C3342 1.394 . S
C3343 C3344 1.383 . S
C3343 H3351 0.929 . S
C3344 C3343 1.383 . S
C3344 C3345 1.377 . S
C3345 H3329 0.930 . S
C3345 C3344 1.377 . S
C3345 C3346 1.379 . S
C3346 H3330 0.931 . S
C3346 C3340 1.383 . S
C3346 C3345 1.379 . S
H3347 C3341 0.959 . S
H3348 C3341 0.961 . S
H3349 C3341 0.960 . S
H3350 C3342 0.930 . S
H3351 C3343 0.929 . S
H3352 C3360 0.929 . S
H3353 C3362 0.930 . S
H3354 C3364 0.930 . S
H3355 C3367 0.929 . S
H3356 C3370 0.930 . S
H3357 C3372 0.960 . S
H3358 C3372 0.960 . S
H3359 C3372 0.960 . S
C3360 H3352 0.929 . S
C3360 C3361 1.377 . S
C3360 C3362 1.384 . S
C3361 C3360 1.377 . S
C3361 C3367 1.390 . S
C3362 H3353 0.930 . S
C3362 C3360 1.384 . S
C3362 C3363 1.372 . S
C3363 C3362 1.372 . S
C3363 C3364 1.400 . S
C3363 C3368 1.490 . S
C3364 H3354 0.930 . S
C3364 C3363 1.400 . S
C3364 C3367 1.386 . S
H3365 C3381 0.930 . S
H3366 C3382 0.931 . S
C3367 H3355 0.929 . S
C3367 C3361 1.390 . S
C3367 C3364 1.386 . S
C3368 C3363 1.490 . S
C3368 C3370 1.395 . S
C3368 C3371 1.403 . S
H3369 C3375 0.930 . S
C3370 H3356 0.930 . S
C3370 C3368 1.395 . S
C3370 C3373 1.403 . S
C3371 C3368 1.403 . S
C3371 C3372 1.524 . S
C3371 C3375 1.400 . S
C3372 H3357 0.960 . S
C3372 H3358 0.960 . S
C3372 H3359 0.960 . S
C3372 C3371 1.524 . S
C3373 C3370 1.403 . S
C3373 C3374 1.392 . S
C3373 C3377 1.495 . S
C3374 C3373 1.392 . S
C3374 C3375 1.385 . S
C3374 C3376 1.478 . S
C3375 H3369 0.930 . S
C3375 C3371 1.400 . S
C3375 C3374 1.385 . S
C3376 C3374 1.478 . S
C3376 C3378 1.381 . S
C3376 C3382 1.383 . S
C3377 C3373 1.495 . S
C3377 H3383 0.959 . S
C3377 H3384 0.961 . S
C3377 H3385 0.960 . S
C3378 C3376 1.381 . S
C3378 C3379 1.394 . S
C3378 H3386 0.930 . S
C3379 C3378 1.394 . S
C3379 C3380 1.383 . S
C3379 H3387 0.929 . S
C3380 C3379 1.383 . S
C3380 C3381 1.377 . S
C3381 H3365 0.930 . S
C3381 C3380 1.377 . S
C3381 C3382 1.379 . S
C3382 H3366 0.931 . S
C3382 C3376 1.383 . S
C3382 C3381 1.379 . S
H3383 C3377 0.959 . S
H3384 C3377 0.961 . S
H3385 C3377 0.960 . S
H3386 C3378 0.930 . S
H3387 C3379 0.929 . S
H3388 C3396 0.929 . S
H3389 C3398 0.930 . S
H3390 C3400 0.930 . S
H3391 C3403 0.929 . S
H3392 C3406 0.930 . S
H3393 C3408 0.960 . S
H3394 C3408 0.960 . S
H3395 C3408 0.960 . S
C3396 H3388 0.929 . S
C3396 C3397 1.377 . S
C3396 C3398 1.384 . S
C3397 C3396 1.377 . S
C3397 C3403 1.390 . S
C3398 H3389 0.930 . S
C3398 C3396 1.384 . S
C3398 C3399 1.372 . S
C3399 C3398 1.372 . S
C3399 C3400 1.400 . S
C3399 C3404 1.490 . S
C3400 H3390 0.930 . S
C3400 C3399 1.400 . S
C3400 C3403 1.386 . S
H3401 C3417 0.930 . S
H3402 C3418 0.931 . S
C3403 H3391 0.929 . S
C3403 C3397 1.390 . S
C3403 C3400 1.386 . S
C3404 C3399 1.490 . S
C3404 C3406 1.395 . S
C3404 C3407 1.403 . S
H3405 C3411 0.930 . S
C3406 H3392 0.930 . S
C3406 C3404 1.395 . S
C3406 C3409 1.403 . S
C3407 C3404 1.403 . S
C3407 C3408 1.524 . S
C3407 C3411 1.400 . S
C3408 H3393 0.960 . S
C3408 H3394 0.960 . S
C3408 H3395 0.960 . S
C3408 C3407 1.524 . S
C3409 C3406 1.403 . S
C3409 C3410 1.392 . S
C3409 C3413 1.495 . S
C3410 C3409 1.392 . S
C3410 C3411 1.385 . S
C3410 C3412 1.478 . S
C3411 H3405 0.930 . S
C3411 C3407 1.400 . S
C3411 C3410 1.385 . S
C3412 C3410 1.478 . S
C3412 C3414 1.381 . S
C3412 C3418 1.383 . S
C3413 C3409 1.495 . S
C3413 H3419 0.959 . S
C3413 H3420 0.961 . S
C3413 H3421 0.960 . S
C3414 C3412 1.381 . S
C3414 C3415 1.394 . S
C3414 H3422 0.930 . S
C3415 C3414 1.394 . S
C3415 C3416 1.383 . S
C3415 H3423 0.929 . S
C3416 C3415 1.383 . S
C3416 C3417 1.377 . S
C3417 H3401 0.930 . S
C3417 C3416 1.377 . S
C3417 C3418 1.379 . S
C3418 H3402 0.931 . S
C3418 C3412 1.383 . S
C3418 C3417 1.379 . S
H3419 C3413 0.959 . S
H3420 C3413 0.961 . S
H3421 C3413 0.960 . S
H3422 C3414 0.930 . S
H3423 C3415 0.929 . S
H3424 C3432 0.929 . S
H3425 C3434 0.930 . S
H3426 C3436 0.930 . S
H3427 C3439 0.929 . S
H3428 C3442 0.930 . S
H3429 C3444 0.960 . S
H3430 C3444 0.960 . S
H3431 C3444 0.960 . S
C3432 H3424 0.929 . S
C3432 C3433 1.377 . S
C3432 C3434 1.384 . S
C3433 C3432 1.377 . S
C3433 C3439 1.390 . S
C3434 H3425 0.930 . S
C3434 C3432 1.384 . S
C3434 C3435 1.372 . S
C3435 C3434 1.372 . S
C3435 C3436 1.400 . S
C3435 C3440 1.490 . S
C3436 H3426 0.930 . S
C3436 C3435 1.400 . S
C3436 C3439 1.386 . S
H3437 C3453 0.930 . S
H3438 C3454 0.931 . S
C3439 H3427 0.929 . S
C3439 C3433 1.390 . S
C3439 C3436 1.386 . S
C3440 C3435 1.490 . S
C3440 C3442 1.395 . S
C3440 C3443 1.403 . S
H3441 C3447 0.930 . S
C3442 H3428 0.930 . S
C3442 C3440 1.395 . S
C3442 C3445 1.403 . S
C3443 C3440 1.403 . S
C3443 C3444 1.524 . S
C3443 C3447 1.400 . S
C3444 H3429 0.960 . S
C3444 H3430 0.960 . S
C3444 H3431 0.960 . S
C3444 C3443 1.524 . S
C3445 C3442 1.403 . S
C3445 C3446 1.392 . S
C3445 C3449 1.495 . S
C3446 C3445 1.392 . S
C3446 C3447 1.385 . S
C3446 C3448 1.478 . S
C3447 H3441 0.930 . S
C3447 C3443 1.400 . S
C3447 C3446 1.385 . S
C3448 C3446 1.478 . S
C3448 C3450 1.381 . S
C3448 C3454 1.383 . S
C3449 C3445 1.495 . S
C3449 H3455 0.959 . S
C3449 H3456 0.961 . S
C3449 H3457 0.960 . S
C3450 C3448 1.381 . S
C3450 C3451 1.394 . S
C3450 H3458 0.930 . S
C3451 C3450 1.394 . S
C3451 C3452 1.383 . S
C3451 H3459 0.929 . S
C3452 C3451 1.383 . S
C3452 C3453 1.377 . S
C3453 H3437 0.930 . S
C3453 C3452 1.377 . S
C3453 C3454 1.379 . S
C3454 H3438 0.931 . S
C3454 C3448 1.383 . S
C3454 C3453 1.379 . S
H3455 C3449 0.959 . S
H3456 C3449 0.961 . S
H3457 C3449 0.960 . S
H3458 C3450 0.930 . S
H3459 C3451 0.929 . S
H3460 C3468 0.929 . S
H3461 C3470 0.930 . S
H3462 C3472 0.930 . S
H3463 C3475 0.929 . S
H3464 C3478 0.930 . S
H3465 C3480 0.960 . S
H3466 C3480 0.960 . S
H3467 C3480 0.960 . S
C3468 H3460 0.929 . S
C3468 C3469 1.377 . S
C3468 C3470 1.384 . S
C3469 C3468 1.377 . S
C3469 C3475 1.390 . S
C3470 H3461 0.930 . S
C3470 C3468 1.384 . S
C3470 C3471 1.372 . S
C3471 C3470 1.372 . S
C3471 C3472 1.400 . S
C3471 C3476 1.490 . S
C3472 H3462 0.930 . S
C3472 C3471 1.400 . S
C3472 C3475 1.386 . S
H3473 C3489 0.930 . S
H3474 C3490 0.931 . S
C3475 H3463 0.929 . S
C3475 C3469 1.390 . S
C3475 C3472 1.386 . S
C3476 C3471 1.490 . S
C3476 C3478 1.395 . S
C3476 C3479 1.403 . S
H3477 C3483 0.930 . S
C3478 H3464 0.930 . S
C3478 C3476 1.395 . S
C3478 C3481 1.403 . S
C3479 C3476 1.403 . S
C3479 C3480 1.524 . S
C3479 C3483 1.400 . S
C3480 H3465 0.960 . S
C3480 H3466 0.960 . S
C3480 H3467 0.960 . S
C3480 C3479 1.524 . S
C3481 C3478 1.403 . S
C3481 C3482 1.392 . S
C3481 C3485 1.495 . S
C3482 C3481 1.392 . S
C3482 C3483 1.385 . S
C3482 C3484 1.478 . S
C3483 H3477 0.930 . S
C3483 C3479 1.400 . S
C3483 C3482 1.385 . S
C3484 C3482 1.478 . S
C3484 C3486 1.381 . S
C3484 C3490 1.383 . S
C3485 C3481 1.495 . S
C3485 H3491 0.959 . S
C3485 H3492 0.961 . S
C3485 H3493 0.960 . S
C3486 C3484 1.381 . S
C3486 C3487 1.394 . S
C3486 H3494 0.930 . S
C3487 C3486 1.394 . S
C3487 C3488 1.383 . S
C3487 H3495 0.929 . S
C3488 C3487 1.383 . S
C3488 C3489 1.377 . S
C3489 H3473 0.930 . S
C3489 C3488 1.377 . S
C3489 C3490 1.379 . S
C3490 H3474 0.931 . S
C3490 C3484 1.383 . S
C3490 C3489 1.379 . S
H3491 C3485 0.959 . S
H3492 C3485 0.961 . S
H3493 C3485 0.960 . S
H3494 C3486 0.930 . S
H3495 C3487 0.929 . S
H3496 C3504 0.929 . S
H3497 C3506 0.930 . S
H3498 C3508 0.930 . S
H3499 C3511 0.929 . S
H3500 C3514 0.930 . S
H3501 C3516 0.960 . S
H3502 C3516 0.960 . S
H3503 C3516 0.960 . S
C3504 H3496 0.929 . S
C3504 C3505 1.377 . S
C3504 C3506 1.384 . S
C3505 C3504 1.377 . S
C3505 C3511 1.390 . S
C3506 H3497 0.930 . S
C3506 C3504 1.384 . S
C3506 C3507 1.372 . S
C3507 C3506 1.372 . S
C3507 C3508 1.400 . S
C3507 C3512 1.490 . S
C3508 H3498 0.930 . S
C3508 C3507 1.400 . S
C3508 C3511 1.386 . S
H3509 C3525 0.930 . S
H3510 C3526 0.931 . S
C3511 H3499 0.929 . S
C3511 C3505 1.390 . S
C3511 C3508 1.386 . S
C3512 C3507 1.490 . S
C3512 C3514 1.395 . S
C3512 C3515 1.403 . S
H3513 C3519 0.930 . S
C3514 H3500 0.930 . S
C3514 C3512 1.395 . S
C3514 C3517 1.403 . S
C3515 C3512 1.403 . S
C3515 C3516 1.524 . S
C3515 C3519 1.400 . S
C3516 H3501 0.960 . S
C3516 H3502 0.960 . S
C3516 H3503 0.960 . S
C3516 C3515 1.524 . S
C3517 C3514 1.403 . S
C3517 C3518 1.392 . S
C3517 C3521 1.495 . S
C3518 C3517 1.392 . S
C3518 C3519 1.385 . S
C3518 C3520 1.478 . S
C3519 H3513 0.930 . S
C3519 C3515 1.400 . S
C3519 C3518 1.385 . S
C3520 C3518 1.478 . S
C3520 C3522 1.381 . S
C3520 C3526 1.383 . S
C3521 C3517 1.495 . S
C3521 H3527 0.959 . S
C3521 H3528 0.961 . S
C3521 H3529 0.960 . S
C3522 C3520 1.381 . S
C3522 C3523 1.394 . S
C3522 H3530 0.930 . S
C3523 C3522 1.394 . S
C3523 C3524 1.383 . S
C3523 H3531 0.929 . S
C3524 C3523 1.383 . S
C3524 C3525 1.377 . S
C3525 H3509 0.930 . S
C3525 C3524 1.377 . S
C3525 C3526 1.379 . S
C3526 H3510 0.931 . S
C3526 C3520 1.383 . S
C3526 C3525 1.379 . S
H3527 C3521 0.959 . S
H3528 C3521 0.961 . S
H3529 C3521 0.960 . S
H3530 C3522 0.930 . S
H3531 C3523 0.929 . S
H3532 C3540 0.929 . S
H3533 C3542 0.930 . S
H3534 C3544 0.930 . S
H3535 C3547 0.929 . S
H3536 C3550 0.930 . S
H3537 C3552 0.960 . S
H3538 C3552 0.960 . S
H3539 C3552 0.960 . S
C3540 H3532 0.929 . S
C3540 C3541 1.377 . S
C3540 C3542 1.384 . S
C3541 C3540 1.377 . S
C3541 C3547 1.390 . S
C3542 H3533 0.930 . S
C3542 C3540 1.384 . S
C3542 C3543 1.372 . S
C3543 C3542 1.372 . S
C3543 C3544 1.400 . S
C3543 C3548 1.490 . S
C3544 H3534 0.930 . S
C3544 C3543 1.400 . S
C3544 C3547 1.386 . S
H3545 C3561 0.930 . S
H3546 C3562 0.931 . S
C3547 H3535 0.929 . S
C3547 C3541 1.390 . S
C3547 C3544 1.386 . S
C3548 C3543 1.490 . S
C3548 C3550 1.395 . S
C3548 C3551 1.403 . S
H3549 C3555 0.930 . S
C3550 H3536 0.930 . S
C3550 C3548 1.395 . S
C3550 C3553 1.403 . S
C3551 C3548 1.403 . S
C3551 C3552 1.524 . S
C3551 C3555 1.400 . S
C3552 H3537 0.960 . S
C3552 H3538 0.960 . S
C3552 H3539 0.960 . S
C3552 C3551 1.524 . S
C3553 C3550 1.403 . S
C3553 C3554 1.392 . S
C3553 C3557 1.495 . S
C3554 C3553 1.392 . S
C3554 C3555 1.385 . S
C3554 C3556 1.478 . S
C3555 H3549 0.930 . S
C3555 C3551 1.400 . S
C3555 C3554 1.385 . S
C3556 C3554 1.478 . S
C3556 C3558 1.381 . S
C3556 C3562 1.383 . S
C3557 C3553 1.495 . S
C3557 H3563 0.959 . S
C3557 H3564 0.961 . S
C3557 H3565 0.960 . S
C3558 C3556 1.381 . S
C3558 C3559 1.394 . S
C3558 H3566 0.930 . S
C3559 C3558 1.394 . S
C3559 C3560 1.383 . S
C3559 H3567 0.929 . S
C3560 C3559 1.383 . S
C3560 C3561 1.377 . S
C3561 H3545 0.930 . S
C3561 C3560 1.377 . S
C3561 C3562 1.379 . S
C3562 H3546 0.931 . S
C3562 C3556 1.383 . S
C3562 C3561 1.379 . S
H3563 C3557 0.959 . S
H3564 C3557 0.961 . S
H3565 C3557 0.960 . S
H3566 C3558 0.930 . S
H3567 C3559 0.929 . S
H3568 C3576 0.929 . S
H3569 C3578 0.930 . S
H3570 C3580 0.930 . S
H3571 C3583 0.929 . S
H3572 C3586 0.930 . S
H3573 C3588 0.960 . S
H3574 C3588 0.960 . S
H3575 C3588 0.960 . S
C3576 H3568 0.929 . S
C3576 C3577 1.377 . S
C3576 C3578 1.384 . S
C3577 C3576 1.377 . S
C3577 C3583 1.390 . S
C3578 H3569 0.930 . S
C3578 C3576 1.384 . S
C3578 C3579 1.372 . S
C3579 C3578 1.372 . S
C3579 C3580 1.400 . S
C3579 C3584 1.490 . S
C3580 H3570 0.930 . S
C3580 C3579 1.400 . S
C3580 C3583 1.386 . S
H3581 C3597 0.930 . S
H3582 C3598 0.931 . S
C3583 H3571 0.929 . S
C3583 C3577 1.390 . S
C3583 C3580 1.386 . S
C3584 C3579 1.490 . S
C3584 C3586 1.395 . S
C3584 C3587 1.403 . S
H3585 C3591 0.930 . S
C3586 H3572 0.930 . S
C3586 C3584 1.395 . S
C3586 C3589 1.403 . S
C3587 C3584 1.403 . S
C3587 C3588 1.524 . S
C3587 C3591 1.400 . S
C3588 H3573 0.960 . S
C3588 H3574 0.960 . S
C3588 H3575 0.960 . S
C3588 C3587 1.524 . S
C3589 C3586 1.403 . S
C3589 C3590 1.392 . S
C3589 C3593 1.495 . S
C3590 C3589 1.392 . S
C3590 C3591 1.385 . S
C3590 C3592 1.478 . S
C3591 H3585 0.930 . S
C3591 C3587 1.400 . S
C3591 C3590 1.385 . S
C3592 C3590 1.478 . S
C3592 C3594 1.381 . S
C3592 C3598 1.383 . S
C3593 C3589 1.495 . S
C3593 H3599 0.959 . S
C3593 H3600 0.961 . S
C3593 H3601 0.960 . S
C3594 C3592 1.381 . S
C3594 C3595 1.394 . S
C3594 H3602 0.930 . S
C3595 C3594 1.394 . S
C3595 C3596 1.383 . S
C3595 H3603 0.929 . S
C3596 C3595 1.383 . S
C3596 C3597 1.377 . S
C3597 H3581 0.930 . S
C3597 C3596 1.377 . S
C3597 C3598 1.379 . S
C3598 H3582 0.931 . S
C3598 C3592 1.383 . S
C3598 C3597 1.379 . S
H3599 C3593 0.959 . S
H3600 C3593 0.961 . S
H3601 C3593 0.960 . S
H3602 C3594 0.930 . S
H3603 C3595 0.929 . S
H3604 C3612 0.929 . S
H3605 C3614 0.930 . S
H3606 C3616 0.930 . S
H3607 C3619 0.929 . S
H3608 C3622 0.930 . S
H3609 C3624 0.960 . S
H3610 C3624 0.960 . S
H3611 C3624 0.960 . S
C3612 H3604 0.929 . S
C3612 C3613 1.377 . S
C3612 C3614 1.384 . S
C3613 C3612 1.377 . S
C3613 C3619 1.390 . S
C3614 H3605 0.930 . S
C3614 C3612 1.384 . S
C3614 C3615 1.372 . S
C3615 C3614 1.372 . S
C3615 C3616 1.400 . S
C3615 C3620 1.490 . S
C3616 H3606 0.930 . S
C3616 C3615 1.400 . S
C3616 C3619 1.386 . S
H3617 C3633 0.930 . S
H3618 C3634 0.931 . S
C3619 H3607 0.929 . S
C3619 C3613 1.390 . S
C3619 C3616 1.386 . S
C3620 C3615 1.490 . S
C3620 C3622 1.395 . S
C3620 C3623 1.403 . S
H3621 C3627 0.930 . S
C3622 H3608 0.930 . S
C3622 C3620 1.395 . S
C3622 C3625 1.403 . S
C3623 C3620 1.403 . S
C3623 C3624 1.524 . S
C3623 C3627 1.400 . S
C3624 H3609 0.960 . S
C3624 H3610 0.960 . S
C3624 H3611 0.960 . S
C3624 C3623 1.524 . S
C3625 C3622 1.403 . S
C3625 C3626 1.392 . S
C3625 C3629 1.495 . S
C3626 C3625 1.392 . S
C3626 C3627 1.385 . S
C3626 C3628 1.478 . S
C3627 H3621 0.930 . S
C3627 C3623 1.400 . S
C3627 C3626 1.385 . S
C3628 C3626 1.478 . S
C3628 C3630 1.381 . S
C3628 C3634 1.383 . S
C3629 C3625 1.495 . S
C3629 H3635 0.959 . S
C3629 H3636 0.961 . S
C3629 H3637 0.960 . S
C3630 C3628 1.381 . S
C3630 C3631 1.394 . S
C3630 H3638 0.930 . S
C3631 C3630 1.394 . S
C3631 C3632 1.383 . S
C3631 H3639 0.929 . S
C3632 C3631 1.383 . S
C3632 C3633 1.377 . S
C3633 H3617 0.930 . S
C3633 C3632 1.377 . S
C3633 C3634 1.379 . S
C3634 H3618 0.931 . S
C3634 C3628 1.383 . S
C3634 C3633 1.379 . S
H3635 C3629 0.959 . S
H3636 C3629 0.961 . S
H3637 C3629 0.960 . S
H3638 C3630 0.930 . S
H3639 C3631 0.929 . S
H3640 C3648 0.929 . S
H3641 C3650 0.930 . S
H3642 C3652 0.930 . S
H3643 C3655 0.929 . S
H3644 C3658 0.930 . S
H3645 C3660 0.960 . S
H3646 C3660 0.960 . S
H3647 C3660 0.960 . S
C3648 H3640 0.929 . S
C3648 C3649 1.377 . S
C3648 C3650 1.384 . S
C3649 C3648 1.377 . S
C3649 C3655 1.390 . S
C3650 H3641 0.930 . S
C3650 C3648 1.384 . S
C3650 C3651 1.372 . S
C3651 C3650 1.372 . S
C3651 C3652 1.400 . S
C3651 C3656 1.490 . S
C3652 H3642 0.930 . S
C3652 C3651 1.400 . S
C3652 C3655 1.386 . S
H3653 C3669 0.930 . S
H3654 C3670 0.931 . S
C3655 H3643 0.929 . S
C3655 C3649 1.390 . S
C3655 C3652 1.386 . S
C3656 C3651 1.490 . S
C3656 C3658 1.395 . S
C3656 C3659 1.403 . S
H3657 C3663 0.930 . S
C3658 H3644 0.930 . S
C3658 C3656 1.395 . S
C3658 C3661 1.403 . S
C3659 C3656 1.403 . S
C3659 C3660 1.524 . S
C3659 C3663 1.400 . S
C3660 H3645 0.960 . S
C3660 H3646 0.960 . S
C3660 H3647 0.960 . S
C3660 C3659 1.524 . S
C3661 C3658 1.403 . S
C3661 C3662 1.392 . S
C3661 C3665 1.495 . S
C3662 C3661 1.392 . S
C3662 C3663 1.385 . S
C3662 C3664 1.478 . S
C3663 H3657 0.930 . S
C3663 C3659 1.400 . S
C3663 C3662 1.385 . S
C3664 C3662 1.478 . S
C3664 C3666 1.381 . S
C3664 C3670 1.383 . S
C3665 C3661 1.495 . S
C3665 H3671 0.959 . S
C3665 H3672 0.961 . S
C3665 H3673 0.960 . S
C3666 C3664 1.381 . S
C3666 C3667 1.394 . S
C3666 H3674 0.930 . S
C3667 C3666 1.394 . S
C3667 C3668 1.383 . S
C3667 H3675 0.929 . S
C3668 C3667 1.383 . S
C3668 C3669 1.377 . S
C3669 H3653 0.930 . S
C3669 C3668 1.377 . S
C3669 C3670 1.379 . S
C3670 H3654 0.931 . S
C3670 C3664 1.383 . S
C3670 C3669 1.379 . S
H3671 C3665 0.959 . S
H3672 C3665 0.961 . S
H3673 C3665 0.960 . S
H3674 C3666 0.930 . S
H3675 C3667 0.929 . S
H3676 C3684 0.929 . S
H3677 C3686 0.930 . S
H3678 C3688 0.930 . S
H3679 C3691 0.929 . S
H3680 C3694 0.930 . S
H3681 C3696 0.960 . S
H3682 C3696 0.960 . S
H3683 C3696 0.960 . S
C3684 H3676 0.929 . S
C3684 C3685 1.377 . S
C3684 C3686 1.384 . S
C3685 C3684 1.377 . S
C3685 C3691 1.390 . S
C3686 H3677 0.930 . S
C3686 C3684 1.384 . S
C3686 C3687 1.372 . S
C3687 C3686 1.372 . S
C3687 C3688 1.400 . S
C3687 C3692 1.490 . S
C3688 H3678 0.930 . S
C3688 C3687 1.400 . S
C3688 C3691 1.386 . S
H3689 C3705 0.930 . S
H3690 C3706 0.931 . S
C3691 H3679 0.929 . S
C3691 C3685 1.390 . S
C3691 C3688 1.386 . S
C3692 C3687 1.490 . S
C3692 C3694 1.395 . S
C3692 C3695 1.403 . S
H3693 C3699 0.930 . S
C3694 H3680 0.930 . S
C3694 C3692 1.395 . S
C3694 C3697 1.403 . S
C3695 C3692 1.403 . S
C3695 C3696 1.524 . S
C3695 C3699 1.400 . S
C3696 H3681 0.960 . S
C3696 H3682 0.960 . S
C3696 H3683 0.960 . S
C3696 C3695 1.524 . S
C3697 C3694 1.403 . S
C3697 C3698 1.392 . S
C3697 C3701 1.495 . S
C3698 C3697 1.392 . S
C3698 C3699 1.385 . S
C3698 C3700 1.478 . S
C3699 H3693 0.930 . S
C3699 C3695 1.400 . S
C3699 C3698 1.385 . S
C3700 C3698 1.478 . S
C3700 C3702 1.381 . S
C3700 C3706 1.383 . S
C3701 C3697 1.495 . S
C3701 H3707 0.959 . S
C3701 H3708 0.961 . S
C3701 H3709 0.960 . S
C3702 C3700 1.381 . S
C3702 C3703 1.394 . S
C3702 H3710 0.930 . S
C3703 C3702 1.394 . S
C3703 C3704 1.383 . S
C3703 H3711 0.929 . S
C3704 C3703 1.383 . S
C3704 C3705 1.377 . S
C3705 H3689 0.930 . S
C3705 C3704 1.377 . S
C3705 C3706 1.379 . S
C3706 H3690 0.931 . S
C3706 C3700 1.383 . S
C3706 C3705 1.379 . S
H3707 C3701 0.959 . S
H3708 C3701 0.961 . S
H3709 C3701 0.960 . S
H3710 C3702 0.930 . S
H3711 C3703 0.929 . S
H3712 C3720 0.929 . S
H3713 C3722 0.930 . S
H3714 C3724 0.930 . S
H3715 C3727 0.929 . S
H3716 C3730 0.930 . S
H3717 C3732 0.960 . S
H3718 C3732 0.960 . S
H3719 C3732 0.960 . S
C3720 H3712 0.929 . S
C3720 C3721 1.377 . S
C3720 C3722 1.384 . S
C3721 C3720 1.377 . S
C3721 C3727 1.390 . S
C3722 H3713 0.930 . S
C3722 C3720 1.384 . S
C3722 C3723 1.372 . S
C3723 C3722 1.372 . S
C3723 C3724 1.400 . S
C3723 C3728 1.490 . S
C3724 H3714 0.930 . S
C3724 C3723 1.400 . S
C3724 C3727 1.386 . S
H3725 C3741 0.930 . S
H3726 C3742 0.931 . S
C3727 H3715 0.929 . S
C3727 C3721 1.390 . S
C3727 C3724 1.386 . S
C3728 C3723 1.490 . S
C3728 C3730 1.395 . S
C3728 C3731 1.403 . S
H3729 C3735 0.930 . S
C3730 H3716 0.930 . S
C3730 C3728 1.395 . S
C3730 C3733 1.403 . S
C3731 C3728 1.403 . S
C3731 C3732 1.524 . S
C3731 C3735 1.400 . S
C3732 H3717 0.960 . S
C3732 H3718 0.960 . S
C3732 H3719 0.960 . S
C3732 C3731 1.524 . S
C3733 C3730 1.403 . S
C3733 C3734 1.392 . S
C3733 C3737 1.495 . S
C3734 C3733 1.392 . S
C3734 C3735 1.385 . S
C3734 C3736 1.478 . S
C3735 H3729 0.930 . S
C3735 C3731 1.400 . S
C3735 C3734 1.385 . S
C3736 C3734 1.478 . S
C3736 C3738 1.381 . S
C3736 C3742 1.383 . S
C3737 C3733 1.495 . S
C3737 H3743 0.959 . S
C3737 H3744 0.961 . S
C3737 H3745 0.960 . S
C3738 C3736 1.381 . S
C3738 C3739 1.394 . S
C3738 H3746 0.930 . S
C3739 C3738 1.394 . S
C3739 C3740 1.383 . S
C3739 H3747 0.929 . S
C3740 C3739 1.383 . S
C3740 C3741 1.377 . S
C3741 H3725 0.930 . S
C3741 C3740 1.377 . S
C3741 C3742 1.379 . S
C3742 H3726 0.931 . S
C3742 C3736 1.383 . S
C3742 C3741 1.379 . S
H3743 C3737 0.959 . S
H3744 C3737 0.961 . S
H3745 C3737 0.960 . S
H3746 C3738 0.930 . S
H3747 C3739 0.929 . S
H3748 C3756 0.929 . S
H3749 C3758 0.930 . S
H3750 C3760 0.930 . S
H3751 C3763 0.929 . S
H3752 C3766 0.930 . S
H3753 C3768 0.960 . S
H3754 C3768 0.960 . S
H3755 C3768 0.960 . S
C3756 H3748 0.929 . S
C3756 C3757 1.377 . S
C3756 C3758 1.384 . S
C3757 C3756 1.377 . S
C3757 C3763 1.390 . S
C3758 H3749 0.930 . S
C3758 C3756 1.384 . S
C3758 C3759 1.372 . S
C3759 C3758 1.372 . S
C3759 C3760 1.400 . S
C3759 C3764 1.490 . S
C3760 H3750 0.930 . S
C3760 C3759 1.400 . S
C3760 C3763 1.386 . S
H3761 C3777 0.930 . S
H3762 C3778 0.931 . S
C3763 H3751 0.929 . S
C3763 C3757 1.390 . S
C3763 C3760 1.386 . S
C3764 C3759 1.490 . S
C3764 C3766 1.395 . S
C3764 C3767 1.403 . S
H3765 C3771 0.930 . S
C3766 H3752 0.930 . S
C3766 C3764 1.395 . S
C3766 C3769 1.403 . S
C3767 C3764 1.403 . S
C3767 C3768 1.524 . S
C3767 C3771 1.400 . S
C3768 H3753 0.960 . S
C3768 H3754 0.960 . S
C3768 H3755 0.960 . S
C3768 C3767 1.524 . S
C3769 C3766 1.403 . S
C3769 C3770 1.392 . S
C3769 C3773 1.495 . S
C3770 C3769 1.392 . S
C3770 C3771 1.385 . S
C3770 C3772 1.478 . S
C3771 H3765 0.930 . S
C3771 C3767 1.400 . S
C3771 C3770 1.385 . S
C3772 C3770 1.478 . S
C3772 C3774 1.381 . S
C3772 C3778 1.383 . S
C3773 C3769 1.495 . S
C3773 H3779 0.959 . S
C3773 H3780 0.961 . S
C3773 H3781 0.960 . S
C3774 C3772 1.381 . S
C3774 C3775 1.394 . S
C3774 H3782 0.930 . S
C3775 C3774 1.394 . S
C3775 C3776 1.383 . S
C3775 H3783 0.929 . S
C3776 C3775 1.383 . S
C3776 C3777 1.377 . S
C3777 H3761 0.930 . S
C3777 C3776 1.377 . S
C3777 C3778 1.379 . S
C3778 H3762 0.931 . S
C3778 C3772 1.383 . S
C3778 C3777 1.379 . S
H3779 C3773 0.959 . S
H3780 C3773 0.961 . S
H3781 C3773 0.960 . S
H3782 C3774 0.930 . S
H3783 C3775 0.929 . S
H3784 C3792 0.929 . S
H3785 C3794 0.930 . S
H3786 C3796 0.930 . S
H3787 C3799 0.929 . S
H3788 C3802 0.930 . S
H3789 C3804 0.960 . S
H3790 C3804 0.960 . S
H3791 C3804 0.960 . S
C3792 H3784 0.929 . S
C3792 C3793 1.377 . S
C3792 C3794 1.384 . S
C3793 C3792 1.377 . S
C3793 C3799 1.390 . S
C3794 H3785 0.930 . S
C3794 C3792 1.384 . S
C3794 C3795 1.372 . S
C3795 C3794 1.372 . S
C3795 C3796 1.400 . S
C3795 C3800 1.490 . S
C3796 H3786 0.930 . S
C3796 C3795 1.400 . S
C3796 C3799 1.386 . S
H3797 C3813 0.930 . S
H3798 C3814 0.931 . S
C3799 H3787 0.929 . S
C3799 C3793 1.390 . S
C3799 C3796 1.386 . S
C3800 C3795 1.490 . S
C3800 C3802 1.395 . S
C3800 C3803 1.403 . S
H3801 C3807 0.930 . S
C3802 H3788 0.930 . S
C3802 C3800 1.395 . S
C3802 C3805 1.403 . S
C3803 C3800 1.403 . S
C3803 C3804 1.524 . S
C3803 C3807 1.400 . S
C3804 H3789 0.960 . S
C3804 H3790 0.960 . S
C3804 H3791 0.960 . S
C3804 C3803 1.524 . S
C3805 C3802 1.403 . S
C3805 C3806 1.392 . S
C3805 C3809 1.495 . S
C3806 C3805 1.392 . S
C3806 C3807 1.385 . S
C3806 C3808 1.478 . S
C3807 H3801 0.930 . S
C3807 C3803 1.400 . S
C3807 C3806 1.385 . S
C3808 C3806 1.478 . S
C3808 C3810 1.381 . S
C3808 C3814 1.383 . S
C3809 C3805 1.495 . S
C3809 H3815 0.959 . S
C3809 H3816 0.961 . S
C3809 H3817 0.960 . S
C3810 C3808 1.381 . S
C3810 C3811 1.394 . S
C3810 H3818 0.930 . S
C3811 C3810 1.394 . S
C3811 C3812 1.383 . S
C3811 H3819 0.929 . S
C3812 C3811 1.383 . S
C3812 C3813 1.377 . S
C3813 H3797 0.930 . S
C3813 C3812 1.377 . S
C3813 C3814 1.379 . S
C3814 H3798 0.931 . S
C3814 C3808 1.383 . S
C3814 C3813 1.379 . S
H3815 C3809 0.959 . S
H3816 C3809 0.961 . S
H3817 C3809 0.960 . S
H3818 C3810 0.930 . S
H3819 C3811 0.929 . S
H3820 C3828 0.929 . S
H3821 C3830 0.930 . S
H3822 C3832 0.930 . S
H3823 C3835 0.929 . S
H3824 C3838 0.930 . S
H3825 C3840 0.960 . S
H3826 C3840 0.960 . S
H3827 C3840 0.960 . S
C3828 H3820 0.929 . S
C3828 C3829 1.377 . S
C3828 C3830 1.384 . S
C3829 C3828 1.377 . S
C3829 C3835 1.390 . S
C3830 H3821 0.930 . S
C3830 C3828 1.384 . S
C3830 C3831 1.372 . S
C3831 C3830 1.372 . S
C3831 C3832 1.400 . S
C3831 C3836 1.490 . S
C3832 H3822 0.930 . S
C3832 C3831 1.400 . S
C3832 C3835 1.386 . S
H3833 C3849 0.930 . S
H3834 C3850 0.931 . S
C3835 H3823 0.929 . S
C3835 C3829 1.390 . S
C3835 C3832 1.386 . S
C3836 C3831 1.490 . S
C3836 C3838 1.395 . S
C3836 C3839 1.403 . S
H3837 C3843 0.930 . S
C3838 H3824 0.930 . S
C3838 C3836 1.395 . S
C3838 C3841 1.403 . S
C3839 C3836 1.403 . S
C3839 C3840 1.524 . S
C3839 C3843 1.400 . S
C3840 H3825 0.960 . S
C3840 H3826 0.960 . S
C3840 H3827 0.960 . S
C3840 C3839 1.524 . S
C3841 C3838 1.403 . S
C3841 C3842 1.392 . S
C3841 C3845 1.495 . S
C3842 C3841 1.392 . S
C3842 C3843 1.385 . S
C3842 C3844 1.478 . S
C3843 H3837 0.930 . S
C3843 C3839 1.400 . S
C3843 C3842 1.385 . S
C3844 C3842 1.478 . S
C3844 C3846 1.381 . S
C3844 C3850 1.383 . S
C3845 C3841 1.495 . S
C3845 H3851 0.959 . S
C3845 H3852 0.961 . S
C3845 H3853 0.960 . S
C3846 C3844 1.381 . S
C3846 C3847 1.394 . S
C3846 H3854 0.930 . S
C3847 C3846 1.394 . S
C3847 C3848 1.383 . S
C3847 H3855 0.929 . S
C3848 C3847 1.383 . S
C3848 C3849 1.377 . S
C3849 H3833 0.930 . S
C3849 C3848 1.377 . S
C3849 C3850 1.379 . S
C3850 H3834 0.931 . S
C3850 C3844 1.383 . S
C3850 C3849 1.379 . S
H3851 C3845 0.959 . S
H3852 C3845 0.961 . S
H3853 C3845 0.960 . S
H3854 C3846 0.930 . S
H3855 C3847 0.929 . S
H3856 C3864 0.929 . S
H3857 C3866 0.930 . S
H3858 C3868 0.930 . S
H3859 C3871 0.929 . S
H3860 C3874 0.930 . S
H3861 C3876 0.960 . S
H3862 C3876 0.960 . S
H3863 C3876 0.960 . S
C3864 H3856 0.929 . S
C3864 C3865 1.377 . S
C3864 C3866 1.384 . S
C3865 C3864 1.377 . S
C3865 C3871 1.390 . S
C3866 H3857 0.930 . S
C3866 C3864 1.384 . S
C3866 C3867 1.372 . S
C3867 C3866 1.372 . S
C3867 C3868 1.400 . S
C3867 C3872 1.490 . S
C3868 H3858 0.930 . S
C3868 C3867 1.400 . S
C3868 C3871 1.386 . S
H3869 C3885 0.930 . S
H3870 C3886 0.931 . S
C3871 H3859 0.929 . S
C3871 C3865 1.390 . S
C3871 C3868 1.386 . S
C3872 C3867 1.490 . S
C3872 C3874 1.395 . S
C3872 C3875 1.403 . S
H3873 C3879 0.930 . S
C3874 H3860 0.930 . S
C3874 C3872 1.395 . S
C3874 C3877 1.403 . S
C3875 C3872 1.403 . S
C3875 C3876 1.524 . S
C3875 C3879 1.400 . S
C3876 H3861 0.960 . S
C3876 H3862 0.960 . S
C3876 H3863 0.960 . S
C3876 C3875 1.524 . S
C3877 C3874 1.403 . S
C3877 C3878 1.392 . S
C3877 C3881 1.495 . S
C3878 C3877 1.392 . S
C3878 C3879 1.385 . S
C3878 C3880 1.478 . S
C3879 H3873 0.930 . S
C3879 C3875 1.400 . S
C3879 C3878 1.385 . S
C3880 C3878 1.478 . S
C3880 C3882 1.381 . S
C3880 C3886 1.383 . S
C3881 C3877 1.495 . S
C3881 H3887 0.959 . S
C3881 H3888 0.961 . S
C3881 H3889 0.960 . S
C3882 C3880 1.381 . S
C3882 C3883 1.394 . S
C3882 H3890 0.930 . S
C3883 C3882 1.394 . S
C3883 C3884 1.383 . S
C3883 H3891 0.929 . S
C3884 C3883 1.383 . S
C3884 C3885 1.377 . S
C3885 H3869 0.930 . S
C3885 C3884 1.377 . S
C3885 C3886 1.379 . S
C3886 H3870 0.931 . S
C3886 C3880 1.383 . S
C3886 C3885 1.379 . S
H3887 C3881 0.959 . S
H3888 C3881 0.961 . S
H3889 C3881 0.960 . S
H3890 C3882 0.930 . S
H3891 C3883 0.929 . S
H3892 C3900 0.929 . S
H3893 C3902 0.930 . S
H3894 C3904 0.930 . S
H3895 C3907 0.929 . S
H3896 C3910 0.930 . S
H3897 C3912 0.960 . S
H3898 C3912 0.960 . S
H3899 C3912 0.960 . S
C3900 H3892 0.929 . S
C3900 C3901 1.377 . S
C3900 C3902 1.384 . S
C3901 C3900 1.377 . S
C3901 C3907 1.390 . S
C3902 H3893 0.930 . S
C3902 C3900 1.384 . S
C3902 C3903 1.372 . S
C3903 C3902 1.372 . S
C3903 C3904 1.400 . S
C3903 C3908 1.490 . S
C3904 H3894 0.930 . S
C3904 C3903 1.400 . S
C3904 C3907 1.386 . S
H3905 C3921 0.930 . S
H3906 C3922 0.931 . S
C3907 H3895 0.929 . S
C3907 C3901 1.390 . S
C3907 C3904 1.386 . S
C3908 C3903 1.490 . S
C3908 C3910 1.395 . S
C3908 C3911 1.403 . S
H3909 C3915 0.930 . S
C3910 H3896 0.930 . S
C3910 C3908 1.395 . S
C3910 C3913 1.403 . S
C3911 C3908 1.403 . S
C3911 C3912 1.524 . S
C3911 C3915 1.400 . S
C3912 H3897 0.960 . S
C3912 H3898 0.960 . S
C3912 H3899 0.960 . S
C3912 C3911 1.524 . S
C3913 C3910 1.403 . S
C3913 C3914 1.392 . S
C3913 C3917 1.495 . S
C3914 C3913 1.392 . S
C3914 C3915 1.385 . S
C3914 C3916 1.478 . S
C3915 H3909 0.930 . S
C3915 C3911 1.400 . S
C3915 C3914 1.385 . S
C3916 C3914 1.478 . S
C3916 C3918 1.381 . S
C3916 C3922 1.383 . S
C3917 C3913 1.495 . S
C3917 H3923 0.959 . S
C3917 H3924 0.961 . S
C3917 H3925 0.960 . S
C3918 C3916 1.381 . S
C3918 C3919 1.394 . S
C3918 H3926 0.930 . S
C3919 C3918 1.394 . S
C3919 C3920 1.383 . S
C3919 H3927 0.929 . S
C3920 C3919 1.383 . S
C3920 C3921 1.377 . S
C3921 H3905 0.930 . S
C3921 C3920 1.377 . S
C3921 C3922 1.379 . S
C3922 H3906 0.931 . S
C3922 C3916 1.383 . S
C3922 C3921 1.379 . S
H3923 C3917 0.959 . S
H3924 C3917 0.961 . S
H3925 C3917 0.960 . S
H3926 C3918 0.930 . S
H3927 C3919 0.929 . S
H3928 C3936 0.929 . S
H3929 C3938 0.930 . S
H3930 C3940 0.930 . S
H3931 C3943 0.929 . S
H3932 C3946 0.930 . S
H3933 C3948 0.960 . S
H3934 C3948 0.960 . S
H3935 C3948 0.960 . S
C3936 H3928 0.929 . S
C3936 C3937 1.377 . S
C3936 C3938 1.384 . S
C3937 C3936 1.377 . S
C3937 C3943 1.390 . S
C3938 H3929 0.930 . S
C3938 C3936 1.384 . S
C3938 C3939 1.372 . S
C3939 C3938 1.372 . S
C3939 C3940 1.400 . S
C3939 C3944 1.490 . S
C3940 H3930 0.930 . S
C3940 C3939 1.400 . S
C3940 C3943 1.386 . S
H3941 C3957 0.930 . S
H3942 C3958 0.931 . S
C3943 H3931 0.929 . S
C3943 C3937 1.390 . S
C3943 C3940 1.386 . S
C3944 C3939 1.490 . S
C3944 C3946 1.395 . S
C3944 C3947 1.403 . S
H3945 C3951 0.930 . S
C3946 H3932 0.930 . S
C3946 C3944 1.395 . S
C3946 C3949 1.403 . S
C3947 C3944 1.403 . S
C3947 C3948 1.524 . S
C3947 C3951 1.400 . S
C3948 H3933 0.960 . S
C3948 H3934 0.960 . S
C3948 H3935 0.960 . S
C3948 C3947 1.524 . S
C3949 C3946 1.403 . S
C3949 C3950 1.392 . S
C3949 C3953 1.495 . S
C3950 C3949 1.392 . S
C3950 C3951 1.385 . S
C3950 C3952 1.478 . S
C3951 H3945 0.930 . S
C3951 C3947 1.400 . S
C3951 C3950 1.385 . S
C3952 C3950 1.478 . S
C3952 C3954 1.381 . S
C3952 C3958 1.383 . S
C3953 C3949 1.495 . S
C3953 H3959 0.959 . S
C3953 H3960 0.961 . S
C3953 H3961 0.960 . S
C3954 C3952 1.381 . S
C3954 C3955 1.394 . S
C3954 H3962 0.930 . S
C3955 C3954 1.394 . S
C3955 C3956 1.383 . S
C3955 H3963 0.929 . S
C3956 C3955 1.383 . S
C3956 C3957 1.377 . S
C3957 H3941 0.930 . S
C3957 C3956 1.377 . S
C3957 C3958 1.379 . S
C3958 H3942 0.931 . S
C3958 C3952 1.383 . S
C3958 C3957 1.379 . S
H3959 C3953 0.959 . S
H3960 C3953 0.961 . S
H3961 C3953 0.960 . S
H3962 C3954 0.930 . S
H3963 C3955 0.929 . S
H3964 C3972 0.929 . S
H3965 C3974 0.930 . S
H3966 C3976 0.930 . S
H3967 C3979 0.929 . S
H3968 C3982 0.930 . S
H3969 C3984 0.960 . S
H3970 C3984 0.960 . S
H3971 C3984 0.960 . S
C3972 H3964 0.929 . S
C3972 C3973 1.377 . S
C3972 C3974 1.384 . S
C3973 C3972 1.377 . S
C3973 C3979 1.390 . S
C3974 H3965 0.930 . S
C3974 C3972 1.384 . S
C3974 C3975 1.372 . S
C3975 C3974 1.372 . S
C3975 C3976 1.400 . S
C3975 C3980 1.490 . S
C3976 H3966 0.930 . S
C3976 C3975 1.400 . S
C3976 C3979 1.386 . S
H3977 C3993 0.930 . S
H3978 C3994 0.931 . S
C3979 H3967 0.929 . S
C3979 C3973 1.390 . S
C3979 C3976 1.386 . S
C3980 C3975 1.490 . S
C3980 C3982 1.395 . S
C3980 C3983 1.403 . S
H3981 C3987 0.930 . S
C3982 H3968 0.930 . S
C3982 C3980 1.395 . S
C3982 C3985 1.403 . S
C3983 C3980 1.403 . S
C3983 C3984 1.524 . S
C3983 C3987 1.400 . S
C3984 H3969 0.960 . S
C3984 H3970 0.960 . S
C3984 H3971 0.960 . S
C3984 C3983 1.524 . S
C3985 C3982 1.403 . S
C3985 C3986 1.392 . S
C3985 C3989 1.495 . S
C3986 C3985 1.392 . S
C3986 C3987 1.385 . S
C3986 C3988 1.478 . S
C3987 H3981 0.930 . S
C3987 C3983 1.400 . S
C3987 C3986 1.385 . S
C3988 C3986 1.478 . S
C3988 C3990 1.381 . S
C3988 C3994 1.383 . S
C3989 C3985 1.495 . S
C3989 H3995 0.959 . S
C3989 H3996 0.961 . S
C3989 H3997 0.960 . S
C3990 C3988 1.381 . S
C3990 C3991 1.394 . S
C3990 H3998 0.930 . S
C3991 C3990 1.394 . S
C3991 C3992 1.383 . S
C3991 H3999 0.929 . S
C3992 C3991 1.383 . S
C3992 C3993 1.377 . S
C3993 H3977 0.930 . S
C3993 C3992 1.377 . S
C3993 C3994 1.379 . S
C3994 H3978 0.931 . S
C3994 C3988 1.383 . S
C3994 C3993 1.379 . S
H3995 C3989 0.959 . S
H3996 C3989 0.961 . S
H3997 C3989 0.960 . S
H3998 C3990 0.930 . S
H3999 C3991 0.929 . S
H4000 C4008 0.929 . S
H4001 C4010 0.930 . S
H4002 C4012 0.930 . S
H4003 C4015 0.929 . S
H4004 C4018 0.930 . S
H4005 C4020 0.960 . S
H4006 C4020 0.960 . S
H4007 C4020 0.960 . S
C4008 H4000 0.929 . S
C4008 C4009 1.377 . S
C4008 C4010 1.384 . S
C4009 C4008 1.377 . S
C4009 C4015 1.390 . S
C4010 H4001 0.930 . S
C4010 C4008 1.384 . S
C4010 C4011 1.372 . S
C4011 C4010 1.372 . S
C4011 C4012 1.400 . S
C4011 C4016 1.490 . S
C4012 H4002 0.930 . S
C4012 C4011 1.400 . S
C4012 C4015 1.386 . S
H4013 C4029 0.930 . S
H4014 C4030 0.931 . S
C4015 H4003 0.929 . S
C4015 C4009 1.390 . S
C4015 C4012 1.386 . S
C4016 C4011 1.490 . S
C4016 C4018 1.395 . S
C4016 C4019 1.403 . S
H4017 C4023 0.930 . S
C4018 H4004 0.930 . S
C4018 C4016 1.395 . S
C4018 C4021 1.403 . S
C4019 C4016 1.403 . S
C4019 C4020 1.524 . S
C4019 C4023 1.400 . S
C4020 H4005 0.960 . S
C4020 H4006 0.960 . S
C4020 H4007 0.960 . S
C4020 C4019 1.524 . S
C4021 C4018 1.403 . S
C4021 C4022 1.392 . S
C4021 C4025 1.495 . S
C4022 C4021 1.392 . S
C4022 C4023 1.385 . S
C4022 C4024 1.478 . S
C4023 H4017 0.930 . S
C4023 C4019 1.400 . S
C4023 C4022 1.385 . S
C4024 C4022 1.478 . S
C4024 C4026 1.381 . S
C4024 C4030 1.383 . S
C4025 C4021 1.495 . S
C4025 H4031 0.959 . S
C4025 H4032 0.961 . S
C4025 H4033 0.960 . S
C4026 C4024 1.381 . S
C4026 C4027 1.394 . S
C4026 H4034 0.930 . S
C4027 C4026 1.394 . S
C4027 C4028 1.383 . S
C4027 H4035 0.929 . S
C4028 C4027 1.383 . S
C4028 C4029 1.377 . S
C4029 H4013 0.930 . S
C4029 C4028 1.377 . S
C4029 C4030 1.379 . S
C4030 H4014 0.931 . S
C4030 C4024 1.383 . S
C4030 C4029 1.379 . S
H4031 C4025 0.959 . S
H4032 C4025 0.961 . S
H4033 C4025 0.960 . S
H4034 C4026 0.930 . S
H4035 C4027 0.929 . S
H4036 C4044 0.929 . S
H4037 C4046 0.930 . S
H4038 C4048 0.930 . S
H4039 C4051 0.929 . S
H4040 C4054 0.930 . S
H4041 C4056 0.960 . S
H4042 C4056 0.960 . S
H4043 C4056 0.960 . S
C4044 H4036 0.929 . S
C4044 C4045 1.377 . S
C4044 C4046 1.384 . S
C4045 C4044 1.377 . S
C4045 C4051 1.390 . S
C4046 H4037 0.930 . S
C4046 C4044 1.384 . S
C4046 C4047 1.372 . S
C4047 C4046 1.372 . S
C4047 C4048 1.400 . S
C4047 C4052 1.490 . S
C4048 H4038 0.930 . S
C4048 C4047 1.400 . S
C4048 C4051 1.386 . S
H4049 C4065 0.930 . S
H4050 C4066 0.931 . S
C4051 H4039 0.929 . S
C4051 C4045 1.390 . S
C4051 C4048 1.386 . S
C4052 C4047 1.490 . S
C4052 C4054 1.395 . S
C4052 C4055 1.403 . S
H4053 C4059 0.930 . S
C4054 H4040 0.930 . S
C4054 C4052 1.395 . S
C4054 C4057 1.403 . S
C4055 C4052 1.403 . S
C4055 C4056 1.524 . S
C4055 C4059 1.400 . S
C4056 H4041 0.960 . S
C4056 H4042 0.960 . S
C4056 H4043 0.960 . S
C4056 C4055 1.524 . S
C4057 C4054 1.403 . S
C4057 C4058 1.392 . S
C4057 C4061 1.495 . S
C4058 C4057 1.392 . S
C4058 C4059 1.385 . S
C4058 C4060 1.478 . S
C4059 H4053 0.930 . S
C4059 C4055 1.400 . S
C4059 C4058 1.385 . S
C4060 C4058 1.478 . S
C4060 C4062 1.381 . S
C4060 C4066 1.383 . S
C4061 C4057 1.495 . S
C4061 H4067 0.959 . S
C4061 H4068 0.961 . S
C4061 H4069 0.960 . S
C4062 C4060 1.381 . S
C4062 C4063 1.394 . S
C4062 H4070 0.930 . S
C4063 C4062 1.394 . S
C4063 C4064 1.383 . S
C4063 H4071 0.929 . S
C4064 C4063 1.383 . S
C4064 C4065 1.377 . S
C4065 H4049 0.930 . S
C4065 C4064 1.377 . S
C4065 C4066 1.379 . S
C4066 H4050 0.931 . S
C4066 C4060 1.383 . S
C4066 C4065 1.379 . S
H4067 C4061 0.959 . S
H4068 C4061 0.961 . S
H4069 C4061 0.960 . S
H4070 C4062 0.930 . S
H4071 C4063 0.929 . S
H4072 C4080 0.929 . S
H4073 C4082 0.930 . S
H4074 C4084 0.930 . S
H4075 C4087 0.929 . S
H4076 C4090 0.930 . S
H4077 C4092 0.960 . S
H4078 C4092 0.960 . S
H4079 C4092 0.960 . S
C4080 H4072 0.929 . S
C4080 C4081 1.377 . S
C4080 C4082 1.384 . S
C4081 C4080 1.377 . S
C4081 C4087 1.390 . S
C4082 H4073 0.930 . S
C4082 C4080 1.384 . S
C4082 C4083 1.372 . S
C4083 C4082 1.372 . S
C4083 C4084 1.400 . S
C4083 C4088 1.490 . S
C4084 H4074 0.930 . S
C4084 C4083 1.400 . S
C4084 C4087 1.386 . S
H4085 C4101 0.930 . S
H4086 C4102 0.931 . S
C4087 H4075 0.929 . S
C4087 C4081 1.390 . S
C4087 C4084 1.386 . S
C4088 C4083 1.490 . S
C4088 C4090 1.395 . S
C4088 C4091 1.403 . S
H4089 C4095 0.930 . S
C4090 H4076 0.930 . S
C4090 C4088 1.395 . S
C4090 C4093 1.403 . S
C4091 C4088 1.403 . S
C4091 C4092 1.524 . S
C4091 C4095 1.400 . S
C4092 H4077 0.960 . S
C4092 H4078 0.960 . S
C4092 H4079 0.960 . S
C4092 C4091 1.524 . S
C4093 C4090 1.403 . S
C4093 C4094 1.392 . S
C4093 C4097 1.495 . S
C4094 C4093 1.392 . S
C4094 C4095 1.385 . S
C4094 C4096 1.478 . S
C4095 H4089 0.930 . S
C4095 C4091 1.400 . S
C4095 C4094 1.385 . S
C4096 C4094 1.478 . S
C4096 C4098 1.381 . S
C4096 C4102 1.383 . S
C4097 C4093 1.495 . S
C4097 H4103 0.959 . S
C4097 H4104 0.961 . S
C4097 H4105 0.960 . S
C4098 C4096 1.381 . S
C4098 C4099 1.394 . S
C4098 H4106 0.930 . S
C4099 C4098 1.394 . S
C4099 C4100 1.383 . S
C4099 H4107 0.929 . S
C4100 C4099 1.383 . S
C4100 C4101 1.377 . S
C4101 H4085 0.930 . S
C4101 C4100 1.377 . S
C4101 C4102 1.379 . S
C4102 H4086 0.931 . S
C4102 C4096 1.383 . S
C4102 C4101 1.379 . S
H4103 C4097 0.959 . S
H4104 C4097 0.961 . S
H4105 C4097 0.960 . S
H4106 C4098 0.930 . S
H4107 C4099 0.929 . S
H4108 C4116 0.929 . S
H4109 C4118 0.930 . S
H4110 C4120 0.930 . S
H4111 C4123 0.929 . S
H4112 C4126 0.930 . S
H4113 C4128 0.960 . S
H4114 C4128 0.960 . S
H4115 C4128 0.960 . S
C4116 H4108 0.929 . S
C4116 C4117 1.377 . S
C4116 C4118 1.384 . S
C4117 C4116 1.377 . S
C4117 C4123 1.390 . S
C4118 H4109 0.930 . S
C4118 C4116 1.384 . S
C4118 C4119 1.372 . S
C4119 C4118 1.372 . S
C4119 C4120 1.400 . S
C4119 C4124 1.490 . S
C4120 H4110 0.930 . S
C4120 C4119 1.400 . S
C4120 C4123 1.386 . S
H4121 C4137 0.930 . S
H4122 C4138 0.931 . S
C4123 H4111 0.929 . S
C4123 C4117 1.390 . S
C4123 C4120 1.386 . S
C4124 C4119 1.490 . S
C4124 C4126 1.395 . S
C4124 C4127 1.403 . S
H4125 C4131 0.930 . S
C4126 H4112 0.930 . S
C4126 C4124 1.395 . S
C4126 C4129 1.403 . S
C4127 C4124 1.403 . S
C4127 C4128 1.524 . S
C4127 C4131 1.400 . S
C4128 H4113 0.960 . S
C4128 H4114 0.960 . S
C4128 H4115 0.960 . S
C4128 C4127 1.524 . S
C4129 C4126 1.403 . S
C4129 C4130 1.392 . S
C4129 C4133 1.495 . S
C4130 C4129 1.392 . S
C4130 C4131 1.385 . S
C4130 C4132 1.478 . S
C4131 H4125 0.930 . S
C4131 C4127 1.400 . S
C4131 C4130 1.385 . S
C4132 C4130 1.478 . S
C4132 C4134 1.381 . S
C4132 C4138 1.383 . S
C4133 C4129 1.495 . S
C4133 H4139 0.959 . S
C4133 H4140 0.961 . S
C4133 H4141 0.960 . S
C4134 C4132 1.381 . S
C4134 C4135 1.394 . S
C4134 H4142 0.930 . S
C4135 C4134 1.394 . S
C4135 C4136 1.383 . S
C4135 H4143 0.929 . S
C4136 C4135 1.383 . S
C4136 C4137 1.377 . S
C4137 H4121 0.930 . S
C4137 C4136 1.377 . S
C4137 C4138 1.379 . S
C4138 H4122 0.931 . S
C4138 C4132 1.383 . S
C4138 C4137 1.379 . S
H4139 C4133 0.959 . S
H4140 C4133 0.961 . S
H4141 C4133 0.960 . S
H4142 C4134 0.930 . S
H4143 C4135 0.929 . S
H4144 C4152 0.929 . S
H4145 C4154 0.930 . S
H4146 C4156 0.930 . S
H4147 C4159 0.929 . S
H4148 C4162 0.930 . S
H4149 C4164 0.960 . S
H4150 C4164 0.960 . S
H4151 C4164 0.960 . S
C4152 H4144 0.929 . S
C4152 C4153 1.377 . S
C4152 C4154 1.384 . S
C4153 C4152 1.377 . S
C4153 C4159 1.390 . S
C4154 H4145 0.930 . S
C4154 C4152 1.384 . S
C4154 C4155 1.372 . S
C4155 C4154 1.372 . S
C4155 C4156 1.400 . S
C4155 C4160 1.490 . S
C4156 H4146 0.930 . S
C4156 C4155 1.400 . S
C4156 C4159 1.386 . S
H4157 C4173 0.930 . S
H4158 C4174 0.931 . S
C4159 H4147 0.929 . S
C4159 C4153 1.390 . S
C4159 C4156 1.386 . S
C4160 C4155 1.490 . S
C4160 C4162 1.395 . S
C4160 C4163 1.403 . S
H4161 C4167 0.930 . S
C4162 H4148 0.930 . S
C4162 C4160 1.395 . S
C4162 C4165 1.403 . S
C4163 C4160 1.403 . S
C4163 C4164 1.524 . S
C4163 C4167 1.400 . S
C4164 H4149 0.960 . S
C4164 H4150 0.960 . S
C4164 H4151 0.960 . S
C4164 C4163 1.524 . S
C4165 C4162 1.403 . S
C4165 C4166 1.392 . S
C4165 C4169 1.495 . S
C4166 C4165 1.392 . S
C4166 C4167 1.385 . S
C4166 C4168 1.478 . S
C4167 H4161 0.930 . S
C4167 C4163 1.400 . S
C4167 C4166 1.385 . S
C4168 C4166 1.478 . S
C4168 C4170 1.381 . S
C4168 C4174 1.383 . S
C4169 C4165 1.495 . S
C4169 H4175 0.959 . S
C4169 H4176 0.961 . S
C4169 H4177 0.960 . S
C4170 C4168 1.381 . S
C4170 C4171 1.394 . S
C4170 H4178 0.930 . S
C4171 C4170 1.394 . S
C4171 C4172 1.383 . S
C4171 H4179 0.929 . S
C4172 C4171 1.383 . S
C4172 C4173 1.377 . S
C4173 H4157 0.930 . S
C4173 C4172 1.377 . S
C4173 C4174 1.379 . S
C4174 H4158 0.931 . S
C4174 C4168 1.383 . S
C4174 C4173 1.379 . S
H4175 C4169 0.959 . S
H4176 C4169 0.961 . S
H4177 C4169 0.960 . S
H4178 C4170 0.930 . S
H4179 C4171 0.929 . S
H4180 C4188 0.929 . S
H4181 C4190 0.930 . S
H4182 C4192 0.930 . S
H4183 C4195 0.929 . S
H4184 C4198 0.930 . S
H4185 C4200 0.960 . S
H4186 C4200 0.960 . S
H4187 C4200 0.960 . S
C4188 H4180 0.929 . S
C4188 C4189 1.377 . S
C4188 C4190 1.384 . S
C4189 C4188 1.377 . S
C4189 C4195 1.390 . S
C4190 H4181 0.930 . S
C4190 C4188 1.384 . S
C4190 C4191 1.372 . S
C4191 C4190 1.372 . S
C4191 C4192 1.400 . S
C4191 C4196 1.490 . S
C4192 H4182 0.930 . S
C4192 C4191 1.400 . S
C4192 C4195 1.386 . S
H4193 C4209 0.930 . S
H4194 C4210 0.931 . S
C4195 H4183 0.929 . S
C4195 C4189 1.390 . S
C4195 C4192 1.386 . S
C4196 C4191 1.490 . S
C4196 C4198 1.395 . S
C4196 C4199 1.403 . S
H4197 C4203 0.930 . S
C4198 H4184 0.930 . S
C4198 C4196 1.395 . S
C4198 C4201 1.403 . S
C4199 C4196 1.403 . S
C4199 C4200 1.524 . S
C4199 C4203 1.400 . S
C4200 H4185 0.960 . S
C4200 H4186 0.960 . S
C4200 H4187 0.960 . S
C4200 C4199 1.524 . S
C4201 C4198 1.403 . S
C4201 C4202 1.392 . S
C4201 C4205 1.495 . S
C4202 C4201 1.392 . S
C4202 C4203 1.385 . S
C4202 C4204 1.478 . S
C4203 H4197 0.930 . S
C4203 C4199 1.400 . S
C4203 C4202 1.385 . S
C4204 C4202 1.478 . S
C4204 C4206 1.381 . S
C4204 C4210 1.383 . S
C4205 C4201 1.495 . S
C4205 H4211 0.959 . S
C4205 H4212 0.961 . S
C4205 H4213 0.960 . S
C4206 C4204 1.381 . S
C4206 C4207 1.394 . S
C4206 H4214 0.930 . S
C4207 C4206 1.394 . S
C4207 C4208 1.383 . S
C4207 H4215 0.929 . S
C4208 C4207 1.383 . S
C4208 C4209 1.377 . S
C4209 H4193 0.930 . S
C4209 C4208 1.377 . S
C4209 C4210 1.379 . S
C4210 H4194 0.931 . S
C4210 C4204 1.383 . S
C4210 C4209 1.379 . S
H4211 C4205 0.959 . S
H4212 C4205 0.961 . S
H4213 C4205 0.960 . S
H4214 C4206 0.930 . S
H4215 C4207 0.929 . S
H4216 C4224 0.929 . S
H4217 C4226 0.930 . S
H4218 C4228 0.930 . S
H4219 C4231 0.929 . S
H4220 C4234 0.930 . S
H4221 C4236 0.960 . S
H4222 C4236 0.960 . S
H4223 C4236 0.960 . S
C4224 H4216 0.929 . S
C4224 C4225 1.377 . S
C4224 C4226 1.384 . S
C4225 C4224 1.377 . S
C4225 C4231 1.390 . S
C4226 H4217 0.930 . S
C4226 C4224 1.384 . S
C4226 C4227 1.372 . S
C4227 C4226 1.372 . S
C4227 C4228 1.400 . S
C4227 C4232 1.490 . S
C4228 H4218 0.930 . S
C4228 C4227 1.400 . S
C4228 C4231 1.386 . S
H4229 C4245 0.930 . S
H4230 C4246 0.931 . S
C4231 H4219 0.929 . S
C4231 C4225 1.390 . S
C4231 C4228 1.386 . S
C4232 C4227 1.490 . S
C4232 C4234 1.395 . S
C4232 C4235 1.403 . S
H4233 C4239 0.930 . S
C4234 H4220 0.930 . S
C4234 C4232 1.395 . S
C4234 C4237 1.403 . S
C4235 C4232 1.403 . S
C4235 C4236 1.524 . S
C4235 C4239 1.400 . S
C4236 H4221 0.960 . S
C4236 H4222 0.960 . S
C4236 H4223 0.960 . S
C4236 C4235 1.524 . S
C4237 C4234 1.403 . S
C4237 C4238 1.392 . S
C4237 C4241 1.495 . S
C4238 C4237 1.392 . S
C4238 C4239 1.385 . S
C4238 C4240 1.478 . S
C4239 H4233 0.930 . S
C4239 C4235 1.400 . S
C4239 C4238 1.385 . S
C4240 C4238 1.478 . S
C4240 C4242 1.381 . S
C4240 C4246 1.383 . S
C4241 C4237 1.495 . S
C4241 H4247 0.959 . S
C4241 H4248 0.961 . S
C4241 H4249 0.960 . S
C4242 C4240 1.381 . S
C4242 C4243 1.394 . S
C4242 H4250 0.930 . S
C4243 C4242 1.394 . S
C4243 C4244 1.383 . S
C4243 H4251 0.929 . S
C4244 C4243 1.383 . S
C4244 C4245 1.377 . S
C4245 H4229 0.930 . S
C4245 C4244 1.377 . S
C4245 C4246 1.379 . S
C4246 H4230 0.931 . S
C4246 C4240 1.383 . S
C4246 C4245 1.379 . S
H4247 C4241 0.959 . S
H4248 C4241 0.961 . S
H4249 C4241 0.960 . S
H4250 C4242 0.930 . S
H4251 C4243 0.929 . S
H4252 C4260 0.929 . S
H4253 C4262 0.930 . S
H4254 C4264 0.930 . S
H4255 C4267 0.929 . S
H4256 C4270 0.930 . S
H4257 C4272 0.960 . S
H4258 C4272 0.960 . S
H4259 C4272 0.960 . S
C4260 H4252 0.929 . S
C4260 C4261 1.377 . S
C4260 C4262 1.384 . S
C4261 C4260 1.377 . S
C4261 C4267 1.390 . S
C4262 H4253 0.930 . S
C4262 C4260 1.384 . S
C4262 C4263 1.372 . S
C4263 C4262 1.372 . S
C4263 C4264 1.400 . S
C4263 C4268 1.490 . S
C4264 H4254 0.930 . S
C4264 C4263 1.400 . S
C4264 C4267 1.386 . S
H4265 C4281 0.930 . S
H4266 C4282 0.931 . S
C4267 H4255 0.929 . S
C4267 C4261 1.390 . S
C4267 C4264 1.386 . S
C4268 C4263 1.490 . S
C4268 C4270 1.395 . S
C4268 C4271 1.403 . S
H4269 C4275 0.930 . S
C4270 H4256 0.930 . S
C4270 C4268 1.395 . S
C4270 C4273 1.403 . S
C4271 C4268 1.403 . S
C4271 C4272 1.524 . S
C4271 C4275 1.400 . S
C4272 H4257 0.960 . S
C4272 H4258 0.960 . S
C4272 H4259 0.960 . S
C4272 C4271 1.524 . S
C4273 C4270 1.403 . S
C4273 C4274 1.392 . S
C4273 C4277 1.495 . S
C4274 C4273 1.392 . S
C4274 C4275 1.385 . S
C4274 C4276 1.478 . S
C4275 H4269 0.930 . S
C4275 C4271 1.400 . S
C4275 C4274 1.385 . S
C4276 C4274 1.478 . S
C4276 C4278 1.381 . S
C4276 C4282 1.383 . S
C4277 C4273 1.495 . S
C4277 H4283 0.959 . S
C4277 H4284 0.961 . S
C4277 H4285 0.960 . S
C4278 C4276 1.381 . S
C4278 C4279 1.394 . S
C4278 H4286 0.930 . S
C4279 C4278 1.394 . S
C4279 C4280 1.383 . S
C4279 H4287 0.929 . S
C4280 C4279 1.383 . S
C4280 C4281 1.377 . S
C4281 H4265 0.930 . S
C4281 C4280 1.377 . S
C4281 C4282 1.379 . S
C4282 H4266 0.931 . S
C4282 C4276 1.383 . S
C4282 C4281 1.379 . S
H4283 C4277 0.959 . S
H4284 C4277 0.961 . S
H4285 C4277 0.960 . S
H4286 C4278 0.930 . S
H4287 C4279 0.929 . S
H4288 C4296 0.929 . S
H4289 C4298 0.930 . S
H4290 C4300 0.930 . S
H4291 C4303 0.929 . S
H4292 C4306 0.930 . S
H4293 C4308 0.960 . S
H4294 C4308 0.960 . S
H4295 C4308 0.960 . S
C4296 H4288 0.929 . S
C4296 C4297 1.377 . S
C4296 C4298 1.384 . S
C4297 C4296 1.377 . S
C4297 C4303 1.390 . S
C4298 H4289 0.930 . S
C4298 C4296 1.384 . S
C4298 C4299 1.372 . S
C4299 C4298 1.372 . S
C4299 C4300 1.400 . S
C4299 C4304 1.490 . S
C4300 H4290 0.930 . S
C4300 C4299 1.400 . S
C4300 C4303 1.386 . S
H4301 C4317 0.930 . S
H4302 C4318 0.931 . S
C4303 H4291 0.929 . S
C4303 C4297 1.390 . S
C4303 C4300 1.386 . S
C4304 C4299 1.490 . S
C4304 C4306 1.395 . S
C4304 C4307 1.403 . S
H4305 C4311 0.930 . S
C4306 H4292 0.930 . S
C4306 C4304 1.395 . S
C4306 C4309 1.403 . S
C4307 C4304 1.403 . S
C4307 C4308 1.524 . S
C4307 C4311 1.400 . S
C4308 H4293 0.960 . S
C4308 H4294 0.960 . S
C4308 H4295 0.960 . S
C4308 C4307 1.524 . S
C4309 C4306 1.403 . S
C4309 C4310 1.392 . S
C4309 C4313 1.495 . S
C4310 C4309 1.392 . S
C4310 C4311 1.385 . S
C4310 C4312 1.478 . S
C4311 H4305 0.930 . S
C4311 C4307 1.400 . S
C4311 C4310 1.385 . S
C4312 C4310 1.478 . S
C4312 C4314 1.381 . S
C4312 C4318 1.383 . S
C4313 C4309 1.495 . S
C4313 H4319 0.959 . S
C4313 H4320 0.961 . S
C4313 H4321 0.960 . S
C4314 C4312 1.381 . S
C4314 C4315 1.394 . S
C4314 H4322 0.930 . S
C4315 C4314 1.394 . S
C4315 C4316 1.383 . S
C4315 H4323 0.929 . S
C4316 C4315 1.383 . S
C4316 C4317 1.377 . S
C4317 H4301 0.930 . S
C4317 C4316 1.377 . S
C4317 C4318 1.379 . S
C4318 H4302 0.931 . S
C4318 C4312 1.383 . S
C4318 C4317 1.379 . S
H4319 C4313 0.959 . S
H4320 C4313 0.961 . S
H4321 C4313 0.960 . S
H4322 C4314 0.930 . S
H4323 C4315 0.929 . S
H4324 C4332 0.929 . S
H4325 C4334 0.930 . S
H4326 C4336 0.930 . S
H4327 C4339 0.929 . S
H4328 C4342 0.930 . S
H4329 C4344 0.960 . S
H4330 C4344 0.960 . S
H4331 C4344 0.960 . S
C4332 H4324 0.929 . S
C4332 C4333 1.377 . S
C4332 C4334 1.384 . S
C4333 C4332 1.377 . S
C4333 C4339 1.390 . S
C4334 H4325 0.930 . S
C4334 C4332 1.384 . S
C4334 C4335 1.372 . S
C4335 C4334 1.372 . S
C4335 C4336 1.400 . S
C4335 C4340 1.490 . S
C4336 H4326 0.930 . S
C4336 C4335 1.400 . S
C4336 C4339 1.386 . S
H4337 C4353 0.930 . S
H4338 C4354 0.931 . S
C4339 H4327 0.929 . S
C4339 C4333 1.390 . S
C4339 C4336 1.386 . S
C4340 C4335 1.490 . S
C4340 C4342 1.395 . S
C4340 C4343 1.403 . S
H4341 C4347 0.930 . S
C4342 H4328 0.930 . S
C4342 C4340 1.395 . S
C4342 C4345 1.403 . S
C4343 C4340 1.403 . S
C4343 C4344 1.524 . S
C4343 C4347 1.400 . S
C4344 H4329 0.960 . S
C4344 H4330 0.960 . S
C4344 H4331 0.960 . S
C4344 C4343 1.524 . S
C4345 C4342 1.403 . S
C4345 C4346 1.392 . S
C4345 C4349 1.495 . S
C4346 C4345 1.392 . S
C4346 C4347 1.385 . S
C4346 C4348 1.478 . S
C4347 H4341 0.930 . S
C4347 C4343 1.400 . S
C4347 C4346 1.385 . S
C4348 C4346 1.478 . S
C4348 C4350 1.381 . S
C4348 C4354 1.383 . S
C4349 C4345 1.495 . S
C4349 H4355 0.959 . S
C4349 H4356 0.961 . S
C4349 H4357 0.960 . S
C4350 C4348 1.381 . S
C4350 C4351 1.394 . S
C4350 H4358 0.930 . S
C4351 C4350 1.394 . S
C4351 C4352 1.383 . S
C4351 H4359 0.929 . S
C4352 C4351 1.383 . S
C4352 C4353 1.377 . S
C4353 H4337 0.930 . S
C4353 C4352 1.377 . S
C4353 C4354 1.379 . S
C4354 H4338 0.931 . S
C4354 C4348 1.383 . S
C4354 C4353 1.379 . S
H4355 C4349 0.959 . S
H4356 C4349 0.961 . S
H4357 C4349 0.960 . S
H4358 C4350 0.930 . S
H4359 C4351 0.929 . S
H4360 C4368 0.929 . S
H4361 C4370 0.930 . S
H4362 C4372 0.930 . S
H4363 C4375 0.929 . S
H4364 C4378 0.930 . S
H4365 C4380 0.960 . S
H4366 C4380 0.960 . S
H4367 C4380 0.960 . S
C4368 H4360 0.929 . S
C4368 C4369 1.377 . S
C4368 C4370 1.384 . S
C4369 C4368 1.377 . S
C4369 C4375 1.390 . S
C4370 H4361 0.930 . S
C4370 C4368 1.384 . S
C4370 C4371 1.372 . S
C4371 C4370 1.372 . S
C4371 C4372 1.400 . S
C4371 C4376 1.490 . S
C4372 H4362 0.930 . S
C4372 C4371 1.400 . S
C4372 C4375 1.386 . S
H4373 C4389 0.930 . S
H4374 C4390 0.931 . S
C4375 H4363 0.929 . S
C4375 C4369 1.390 . S
C4375 C4372 1.386 . S
C4376 C4371 1.490 . S
C4376 C4378 1.395 . S
C4376 C4379 1.403 . S
H4377 C4383 0.930 . S
C4378 H4364 0.930 . S
C4378 C4376 1.395 . S
C4378 C4381 1.403 . S
C4379 C4376 1.403 . S
C4379 C4380 1.524 . S
C4379 C4383 1.400 . S
C4380 H4365 0.960 . S
C4380 H4366 0.960 . S
C4380 H4367 0.960 . S
C4380 C4379 1.524 . S
C4381 C4378 1.403 . S
C4381 C4382 1.392 . S
C4381 C4385 1.495 . S
C4382 C4381 1.392 . S
C4382 C4383 1.385 . S
C4382 C4384 1.478 . S
C4383 H4377 0.930 . S
C4383 C4379 1.400 . S
C4383 C4382 1.385 . S
C4384 C4382 1.478 . S
C4384 C4386 1.381 . S
C4384 C4390 1.383 . S
C4385 C4381 1.495 . S
C4385 H4391 0.959 . S
C4385 H4392 0.961 . S
C4385 H4393 0.960 . S
C4386 C4384 1.381 . S
C4386 C4387 1.394 . S
C4386 H4394 0.930 . S
C4387 C4386 1.394 . S
C4387 C4388 1.383 . S
C4387 H4395 0.929 . S
C4388 C4387 1.383 . S
C4388 C4389 1.377 . S
C4389 H4373 0.930 . S
C4389 C4388 1.377 . S
C4389 C4390 1.379 . S
C4390 H4374 0.931 . S
C4390 C4384 1.383 . S
C4390 C4389 1.379 . S
H4391 C4385 0.959 . S
H4392 C4385 0.961 . S
H4393 C4385 0.960 . S
H4394 C4386 0.930 . S
H4395 C4387 0.929 . S
H4396 C4404 0.929 . S
H4397 C4406 0.930 . S
H4398 C4408 0.930 . S
H4399 C4411 0.929 . S
H4400 C4414 0.930 . S
H4401 C4416 0.960 . S
H4402 C4416 0.960 . S
H4403 C4416 0.960 . S
C4404 H4396 0.929 . S
C4404 C4405 1.377 . S
C4404 C4406 1.384 . S
C4405 C4404 1.377 . S
C4405 C4411 1.390 . S
C4406 H4397 0.930 . S
C4406 C4404 1.384 . S
C4406 C4407 1.372 . S
C4407 C4406 1.372 . S
C4407 C4408 1.400 . S
C4407 C4412 1.490 . S
C4408 H4398 0.930 . S
C4408 C4407 1.400 . S
C4408 C4411 1.386 . S
H4409 C4425 0.930 . S
H4410 C4426 0.931 . S
C4411 H4399 0.929 . S
C4411 C4405 1.390 . S
C4411 C4408 1.386 . S
C4412 C4407 1.490 . S
C4412 C4414 1.395 . S
C4412 C4415 1.403 . S
H4413 C4419 0.930 . S
C4414 H4400 0.930 . S
C4414 C4412 1.395 . S
C4414 C4417 1.403 . S
C4415 C4412 1.403 . S
C4415 C4416 1.524 . S
C4415 C4419 1.400 . S
C4416 H4401 0.960 . S
C4416 H4402 0.960 . S
C4416 H4403 0.960 . S
C4416 C4415 1.524 . S
C4417 C4414 1.403 . S
C4417 C4418 1.392 . S
C4417 C4421 1.495 . S
C4418 C4417 1.392 . S
C4418 C4419 1.385 . S
C4418 C4420 1.478 . S
C4419 H4413 0.930 . S
C4419 C4415 1.400 . S
C4419 C4418 1.385 . S
C4420 C4418 1.478 . S
C4420 C4422 1.381 . S
C4420 C4426 1.383 . S
C4421 C4417 1.495 . S
C4421 H4427 0.959 . S
C4421 H4428 0.961 . S
C4421 H4429 0.960 . S
C4422 C4420 1.381 . S
C4422 C4423 1.394 . S
C4422 H4430 0.930 . S
C4423 C4422 1.394 . S
C4423 C4424 1.383 . S
C4423 H4431 0.929 . S
C4424 C4423 1.383 . S
C4424 C4425 1.377 . S
C4425 H4409 0.930 . S
C4425 C4424 1.377 . S
C4425 C4426 1.379 . S
C4426 H4410 0.931 . S
C4426 C4420 1.383 . S
C4426 C4425 1.379 . S
H4427 C4421 0.959 . S
H4428 C4421 0.961 . S
H4429 C4421 0.960 . S
H4430 C4422 0.930 . S
H4431 C4423 0.929 . S
H4432 C4440 0.929 . S
H4433 C4442 0.930 . S
H4434 C4444 0.930 . S
H4435 C4447 0.929 . S
H4436 C4450 0.930 . S
H4437 C4452 0.960 . S
H4438 C4452 0.960 . S
H4439 C4452 0.960 . S
C4440 H4432 0.929 . S
C4440 C4441 1.377 . S
C4440 C4442 1.384 . S
C4441 C4440 1.377 . S
C4441 C4447 1.390 . S
C4442 H4433 0.930 . S
C4442 C4440 1.384 . S
C4442 C4443 1.372 . S
C4443 C4442 1.372 . S
C4443 C4444 1.400 . S
C4443 C4448 1.490 . S
C4444 H4434 0.930 . S
C4444 C4443 1.400 . S
C4444 C4447 1.386 . S
H4445 C4461 0.930 . S
H4446 C4462 0.931 . S
C4447 H4435 0.929 . S
C4447 C4441 1.390 . S
C4447 C4444 1.386 . S
C4448 C4443 1.490 . S
C4448 C4450 1.395 . S
C4448 C4451 1.403 . S
H4449 C4455 0.930 . S
C4450 H4436 0.930 . S
C4450 C4448 1.395 . S
C4450 C4453 1.403 . S
C4451 C4448 1.403 . S
C4451 C4452 1.524 . S
C4451 C4455 1.400 . S
C4452 H4437 0.960 . S
C4452 H4438 0.960 . S
C4452 H4439 0.960 . S
C4452 C4451 1.524 . S
C4453 C4450 1.403 . S
C4453 C4454 1.392 . S
C4453 C4457 1.495 . S
C4454 C4453 1.392 . S
C4454 C4455 1.385 . S
C4454 C4456 1.478 . S
C4455 H4449 0.930 . S
C4455 C4451 1.400 . S
C4455 C4454 1.385 . S
C4456 C4454 1.478 . S
C4456 C4458 1.381 . S
C4456 C4462 1.383 . S
C4457 C4453 1.495 . S
C4457 H4463 0.959 . S
C4457 H4464 0.961 . S
C4457 H4465 0.960 . S
C4458 C4456 1.381 . S
C4458 C4459 1.394 . S
C4458 H4466 0.930 . S
C4459 C4458 1.394 . S
C4459 C4460 1.383 . S
C4459 H4467 0.929 . S
C4460 C4459 1.383 . S
C4460 C4461 1.377 . S
C4461 H4445 0.930 . S
C4461 C4460 1.377 . S
C4461 C4462 1.379 . S
C4462 H4446 0.931 . S
C4462 C4456 1.383 . S
C4462 C4461 1.379 . S
H4463 C4457 0.959 . S
H4464 C4457 0.961 . S
H4465 C4457 0.960 . S
H4466 C4458 0.930 . S
H4467 C4459 0.929 . S
H4468 C4476 0.929 . S
H4469 C4478 0.930 . S
H4470 C4480 0.930 . S
H4471 C4483 0.929 . S
H4472 C4486 0.930 . S
H4473 C4488 0.960 . S
H4474 C4488 0.960 . S
H4475 C4488 0.960 . S
C4476 H4468 0.929 . S
C4476 C4477 1.377 . S
C4476 C4478 1.384 . S
C4477 C4476 1.377 . S
C4477 C4483 1.390 . S
C4478 H4469 0.930 . S
C4478 C4476 1.384 . S
C4478 C4479 1.372 . S
C4479 C4478 1.372 . S
C4479 C4480 1.400 . S
C4479 C4484 1.490 . S
C4480 H4470 0.930 . S
C4480 C4479 1.400 . S
C4480 C4483 1.386 . S
H4481 C4497 0.930 . S
H4482 C4498 0.931 . S
C4483 H4471 0.929 . S
C4483 C4477 1.390 . S
C4483 C4480 1.386 . S
C4484 C4479 1.490 . S
C4484 C4486 1.395 . S
C4484 C4487 1.403 . S
H4485 C4491 0.930 . S
C4486 H4472 0.930 . S
C4486 C4484 1.395 . S
C4486 C4489 1.403 . S
C4487 C4484 1.403 . S
C4487 C4488 1.524 . S
C4487 C4491 1.400 . S
C4488 H4473 0.960 . S
C4488 H4474 0.960 . S
C4488 H4475 0.960 . S
C4488 C4487 1.524 . S
C4489 C4486 1.403 . S
C4489 C4490 1.392 . S
C4489 C4493 1.495 . S
C4490 C4489 1.392 . S
C4490 C4491 1.385 . S
C4490 C4492 1.478 . S
C4491 H4485 0.930 . S
C4491 C4487 1.400 . S
C4491 C4490 1.385 . S
C4492 C4490 1.478 . S
C4492 C4494 1.381 . S
C4492 C4498 1.383 . S
C4493 C4489 1.495 . S
C4493 H4499 0.959 . S
C4493 H4500 0.961 . S
C4493 H4501 0.960 . S
C4494 C4492 1.381 . S
C4494 C4495 1.394 . S
C4494 H4502 0.930 . S
C4495 C4494 1.394 . S
C4495 C4496 1.383 . S
C4495 H4503 0.929 . S
C4496 C4495 1.383 . S
C4496 C4497 1.377 . S
C4497 H4481 0.930 . S
C4497 C4496 1.377 . S
C4497 C4498 1.379 . S
C4498 H4482 0.931 . S
C4498 C4492 1.383 . S
C4498 C4497 1.379 . S
H4499 C4493 0.959 . S
H4500 C4493 0.961 . S
H4501 C4493 0.960 . S
H4502 C4494 0.930 . S
H4503 C4495 0.929 . S
H4504 C4512 0.929 . S
H4505 C4514 0.930 . S
H4506 C4516 0.930 . S
H4507 C4519 0.929 . S
H4508 C4522 0.930 . S
H4509 C4524 0.960 . S
H4510 C4524 0.960 . S
H4511 C4524 0.960 . S
C4512 H4504 0.929 . S
C4512 C4513 1.377 . S
C4512 C4514 1.384 . S
C4513 C4512 1.377 . S
C4513 C4519 1.390 . S
C4514 H4505 0.930 . S
C4514 C4512 1.384 . S
C4514 C4515 1.372 . S
C4515 C4514 1.372 . S
C4515 C4516 1.400 . S
C4515 C4520 1.490 . S
C4516 H4506 0.930 . S
C4516 C4515 1.400 . S
C4516 C4519 1.386 . S
H4517 C4533 0.930 . S
H4518 C4534 0.931 . S
C4519 H4507 0.929 . S
C4519 C4513 1.390 . S
C4519 C4516 1.386 . S
C4520 C4515 1.490 . S
C4520 C4522 1.395 . S
C4520 C4523 1.403 . S
H4521 C4527 0.930 . S
C4522 H4508 0.930 . S
C4522 C4520 1.395 . S
C4522 C4525 1.403 . S
C4523 C4520 1.403 . S
C4523 C4524 1.524 . S
C4523 C4527 1.400 . S
C4524 H4509 0.960 . S
C4524 H4510 0.960 . S
C4524 H4511 0.960 . S
C4524 C4523 1.524 . S
C4525 C4522 1.403 . S
C4525 C4526 1.392 . S
C4525 C4529 1.495 . S
C4526 C4525 1.392 . S
C4526 C4527 1.385 . S
C4526 C4528 1.478 . S
C4527 H4521 0.930 . S
C4527 C4523 1.400 . S
C4527 C4526 1.385 . S
C4528 C4526 1.478 . S
C4528 C4530 1.381 . S
C4528 C4534 1.383 . S
C4529 C4525 1.495 . S
C4529 H4535 0.959 . S
C4529 H4536 0.961 . S
C4529 H4537 0.960 . S
C4530 C4528 1.381 . S
C4530 C4531 1.394 . S
C4530 H4538 0.930 . S
C4531 C4530 1.394 . S
C4531 C4532 1.383 . S
C4531 H4539 0.929 . S
C4532 C4531 1.383 . S
C4532 C4533 1.377 . S
C4533 H4517 0.930 . S
C4533 C4532 1.377 . S
C4533 C4534 1.379 . S
C4534 H4518 0.931 . S
C4534 C4528 1.383 . S
C4534 C4533 1.379 . S
H4535 C4529 0.959 . S
H4536 C4529 0.961 . S
H4537 C4529 0.960 . S
H4538 C4530 0.930 . S
H4539 C4531 0.929 . S
H4540 C4548 0.929 . S
H4541 C4550 0.930 . S
H4542 C4552 0.930 . S
H4543 C4555 0.929 . S
H4544 C4558 0.930 . S
H4545 C4560 0.960 . S
H4546 C4560 0.960 . S
H4547 C4560 0.960 . S
C4548 H4540 0.929 . S
C4548 C4549 1.377 . S
C4548 C4550 1.384 . S
C4549 C4548 1.377 . S
C4549 C4555 1.390 . S
C4550 H4541 0.930 . S
C4550 C4548 1.384 . S
C4550 C4551 1.372 . S
C4551 C4550 1.372 . S
C4551 C4552 1.400 . S
C4551 C4556 1.490 . S
C4552 H4542 0.930 . S
C4552 C4551 1.400 . S
C4552 C4555 1.386 . S
H4553 C4569 0.930 . S
H4554 C4570 0.931 . S
C4555 H4543 0.929 . S
C4555 C4549 1.390 . S
C4555 C4552 1.386 . S
C4556 C4551 1.490 . S
C4556 C4558 1.395 . S
C4556 C4559 1.403 . S
H4557 C4563 0.930 . S
C4558 H4544 0.930 . S
C4558 C4556 1.395 . S
C4558 C4561 1.403 . S
C4559 C4556 1.403 . S
C4559 C4560 1.524 . S
C4559 C4563 1.400 . S
C4560 H4545 0.960 . S
C4560 H4546 0.960 . S
C4560 H4547 0.960 . S
C4560 C4559 1.524 . S
C4561 C4558 1.403 . S
C4561 C4562 1.392 . S
C4561 C4565 1.495 . S
C4562 C4561 1.392 . S
C4562 C4563 1.385 . S
C4562 C4564 1.478 . S
C4563 H4557 0.930 . S
C4563 C4559 1.400 . S
C4563 C4562 1.385 . S
C4564 C4562 1.478 . S
C4564 C4566 1.381 . S
C4564 C4570 1.383 . S
C4565 C4561 1.495 . S
C4565 H4571 0.959 . S
C4565 H4572 0.961 . S
C4565 H4573 0.960 . S
C4566 C4564 1.381 . S
C4566 C4567 1.394 . S
C4566 H4574 0.930 . S
C4567 C4566 1.394 . S
C4567 C4568 1.383 . S
C4567 H4575 0.929 . S
C4568 C4567 1.383 . S
C4568 C4569 1.377 . S
C4569 H4553 0.930 . S
C4569 C4568 1.377 . S
C4569 C4570 1.379 . S
C4570 H4554 0.931 . S
C4570 C4564 1.383 . S
C4570 C4569 1.379 . S
H4571 C4565 0.959 . S
H4572 C4565 0.961 . S
H4573 C4565 0.960 . S
H4574 C4566 0.930 . S
H4575 C4567 0.929 . S
H4576 C4584 0.929 . S
H4577 C4586 0.930 . S
H4578 C4588 0.930 . S
H4579 C4591 0.929 . S
H4580 C4594 0.930 . S
H4581 C4596 0.960 . S
H4582 C4596 0.960 . S
H4583 C4596 0.960 . S
C4584 H4576 0.929 . S
C4584 C4585 1.377 . S
C4584 C4586 1.384 . S
C4585 C4584 1.377 . S
C4585 C4591 1.390 . S
C4586 H4577 0.930 . S
C4586 C4584 1.384 . S
C4586 C4587 1.372 . S
C4587 C4586 1.372 . S
C4587 C4588 1.400 . S
C4587 C4592 1.490 . S
C4588 H4578 0.930 . S
C4588 C4587 1.400 . S
C4588 C4591 1.386 . S
H4589 C4605 0.930 . S
H4590 C4606 0.931 . S
C4591 H4579 0.929 . S
C4591 C4585 1.390 . S
C4591 C4588 1.386 . S
C4592 C4587 1.490 . S
C4592 C4594 1.395 . S
C4592 C4595 1.403 . S
H4593 C4599 0.930 . S
C4594 H4580 0.930 . S
C4594 C4592 1.395 . S
C4594 C4597 1.403 . S
C4595 C4592 1.403 . S
C4595 C4596 1.524 . S
C4595 C4599 1.400 . S
C4596 H4581 0.960 . S
C4596 H4582 0.960 . S
C4596 H4583 0.960 . S
C4596 C4595 1.524 . S
C4597 C4594 1.403 . S
C4597 C4598 1.392 . S
C4597 C4601 1.495 . S
C4598 C4597 1.392 . S
C4598 C4599 1.385 . S
C4598 C4600 1.478 . S
C4599 H4593 0.930 . S
C4599 C4595 1.400 . S
C4599 C4598 1.385 . S
C4600 C4598 1.478 . S
C4600 C4602 1.381 . S
C4600 C4606 1.383 . S
C4601 C4597 1.495 . S
C4601 H4607 0.959 . S
C4601 H4608 0.961 . S
C4601 H4609 0.960 . S
C4602 C4600 1.381 . S
C4602 C4603 1.394 . S
C4602 H4610 0.930 . S
C4603 C4602 1.394 . S
C4603 C4604 1.383 . S
C4603 H4611 0.929 . S
C4604 C4603 1.383 . S
C4604 C4605 1.377 . S
C4605 H4589 0.930 . S
C4605 C4604 1.377 . S
C4605 C4606 1.379 . S
C4606 H4590 0.931 . S
C4606 C4600 1.383 . S
C4606 C4605 1.379 . S
H4607 C4601 0.959 . S
H4608 C4601 0.961 . S
H4609 C4601 0.960 . S
H4610 C4602 0.930 . S
H4611 C4603 0.929 . S
H4612 C4620 0.929 . S
H4613 C4622 0.930 . S
H4614 C4624 0.930 . S
H4615 C4627 0.929 . S
H4616 C4630 0.930 . S
H4617 C4632 0.960 . S
H4618 C4632 0.960 . S
H4619 C4632 0.960 . S
C4620 H4612 0.929 . S
C4620 C4621 1.377 . S
C4620 C4622 1.384 . S
C4621 C4620 1.377 . S
C4621 C4627 1.390 . S
C4622 H4613 0.930 . S
C4622 C4620 1.384 . S
C4622 C4623 1.372 . S
C4623 C4622 1.372 . S
C4623 C4624 1.400 . S
C4623 C4628 1.490 . S
C4624 H4614 0.930 . S
C4624 C4623 1.400 . S
C4624 C4627 1.386 . S
H4625 C4641 0.930 . S
H4626 C4642 0.931 . S
C4627 H4615 0.929 . S
C4627 C4621 1.390 . S
C4627 C4624 1.386 . S
C4628 C4623 1.490 . S
C4628 C4630 1.395 . S
C4628 C4631 1.403 . S
H4629 C4635 0.930 . S
C4630 H4616 0.930 . S
C4630 C4628 1.395 . S
C4630 C4633 1.403 . S
C4631 C4628 1.403 . S
C4631 C4632 1.524 . S
C4631 C4635 1.400 . S
C4632 H4617 0.960 . S
C4632 H4618 0.960 . S
C4632 H4619 0.960 . S
C4632 C4631 1.524 . S
C4633 C4630 1.403 . S
C4633 C4634 1.392 . S
C4633 C4637 1.495 . S
C4634 C4633 1.392 . S
C4634 C4635 1.385 . S
C4634 C4636 1.478 . S
C4635 H4629 0.930 . S
C4635 C4631 1.400 . S
C4635 C4634 1.385 . S
C4636 C4634 1.478 . S
C4636 C4638 1.381 . S
C4636 C4642 1.383 . S
C4637 C4633 1.495 . S
C4637 H4643 0.959 . S
C4637 H4644 0.961 . S
C4637 H4645 0.960 . S
C4638 C4636 1.381 . S
C4638 C4639 1.394 . S
C4638 H4646 0.930 . S
C4639 C4638 1.394 . S
C4639 C4640 1.383 . S
C4639 H4647 0.929 . S
C4640 C4639 1.383 . S
C4640 C4641 1.377 . S
C4641 H4625 0.930 . S
C4641 C4640 1.377 . S
C4641 C4642 1.379 . S
C4642 H4626 0.931 . S
C4642 C4636 1.383 . S
C4642 C4641 1.379 . S
H4643 C4637 0.959 . S
H4644 C4637 0.961 . S
H4645 C4637 0.960 . S
H4646 C4638 0.930 . S
H4647 C4639 0.929 . S
H4648 C4656 0.929 . S
H4649 C4658 0.930 . S
H4650 C4660 0.930 . S
H4651 C4663 0.929 . S
H4652 C4666 0.930 . S
H4653 C4668 0.960 . S
H4654 C4668 0.960 . S
H4655 C4668 0.960 . S
C4656 H4648 0.929 . S
C4656 C4657 1.377 . S
C4656 C4658 1.384 . S
C4657 C4656 1.377 . S
C4657 C4663 1.390 . S
C4658 H4649 0.930 . S
C4658 C4656 1.384 . S
C4658 C4659 1.372 . S
C4659 C4658 1.372 . S
C4659 C4660 1.400 . S
C4659 C4664 1.490 . S
C4660 H4650 0.930 . S
C4660 C4659 1.400 . S
C4660 C4663 1.386 . S
H4661 C4677 0.930 . S
H4662 C4678 0.931 . S
C4663 H4651 0.929 . S
C4663 C4657 1.390 . S
C4663 C4660 1.386 . S
C4664 C4659 1.490 . S
C4664 C4666 1.395 . S
C4664 C4667 1.403 . S
H4665 C4671 0.930 . S
C4666 H4652 0.930 . S
C4666 C4664 1.395 . S
C4666 C4669 1.403 . S
C4667 C4664 1.403 . S
C4667 C4668 1.524 . S
C4667 C4671 1.400 . S
C4668 H4653 0.960 . S
C4668 H4654 0.960 . S
C4668 H4655 0.960 . S
C4668 C4667 1.524 . S
C4669 C4666 1.403 . S
C4669 C4670 1.392 . S
C4669 C4673 1.495 . S
C4670 C4669 1.392 . S
C4670 C4671 1.385 . S
C4670 C4672 1.478 . S
C4671 H4665 0.930 . S
C4671 C4667 1.400 . S
C4671 C4670 1.385 . S
C4672 C4670 1.478 . S
C4672 C4674 1.381 . S
C4672 C4678 1.383 . S
C4673 C4669 1.495 . S
C4673 H4679 0.959 . S
C4673 H4680 0.961 . S
C4673 H4681 0.960 . S
C4674 C4672 1.381 . S
C4674 C4675 1.394 . S
C4674 H4682 0.930 . S
C4675 C4674 1.394 . S
C4675 C4676 1.383 . S
C4675 H4683 0.929 . S
C4676 C4675 1.383 . S
C4676 C4677 1.377 . S
C4677 H4661 0.930 . S
C4677 C4676 1.377 . S
C4677 C4678 1.379 . S
C4678 H4662 0.931 . S
C4678 C4672 1.383 . S
C4678 C4677 1.379 . S
H4679 C4673 0.959 . S
H4680 C4673 0.961 . S
H4681 C4673 0.960 . S
H4682 C4674 0.930 . S
H4683 C4675 0.929 . S
H4684 C4692 0.929 . S
H4685 C4694 0.930 . S
H4686 C4696 0.930 . S
H4687 C4699 0.929 . S
H4688 C4702 0.930 . S
H4689 C4704 0.960 . S
H4690 C4704 0.960 . S
H4691 C4704 0.960 . S
C4692 H4684 0.929 . S
C4692 C4693 1.377 . S
C4692 C4694 1.384 . S
C4693 C4692 1.377 . S
C4693 C4699 1.390 . S
C4694 H4685 0.930 . S
C4694 C4692 1.384 . S
C4694 C4695 1.372 . S
C4695 C4694 1.372 . S
C4695 C4696 1.400 . S
C4695 C4700 1.490 . S
C4696 H4686 0.930 . S
C4696 C4695 1.400 . S
C4696 C4699 1.386 . S
H4697 C4713 0.930 . S
H4698 C4714 0.931 . S
C4699 H4687 0.929 . S
C4699 C4693 1.390 . S
C4699 C4696 1.386 . S
C4700 C4695 1.490 . S
C4700 C4702 1.395 . S
C4700 C4703 1.403 . S
H4701 C4707 0.930 . S
C4702 H4688 0.930 . S
C4702 C4700 1.395 . S
C4702 C4705 1.403 . S
C4703 C4700 1.403 . S
C4703 C4704 1.524 . S
C4703 C4707 1.400 . S
C4704 H4689 0.960 . S
C4704 H4690 0.960 . S
C4704 H4691 0.960 . S
C4704 C4703 1.524 . S
C4705 C4702 1.403 . S
C4705 C4706 1.392 . S
C4705 C4709 1.495 . S
C4706 C4705 1.392 . S
C4706 C4707 1.385 . S
C4706 C4708 1.478 . S
C4707 H4701 0.930 . S
C4707 C4703 1.400 . S
C4707 C4706 1.385 . S
C4708 C4706 1.478 . S
C4708 C4710 1.381 . S
C4708 C4714 1.383 . S
C4709 C4705 1.495 . S
C4709 H4715 0.959 . S
C4709 H4716 0.961 . S
C4709 H4717 0.960 . S
C4710 C4708 1.381 . S
C4710 C4711 1.394 . S
C4710 H4718 0.930 . S
C4711 C4710 1.394 . S
C4711 C4712 1.383 . S
C4711 H4719 0.929 . S
C4712 C4711 1.383 . S
C4712 C4713 1.377 . S
C4713 H4697 0.930 . S
C4713 C4712 1.377 . S
C4713 C4714 1.379 . S
C4714 H4698 0.931 . S
C4714 C4708 1.383 . S
C4714 C4713 1.379 . S
H4715 C4709 0.959 . S
H4716 C4709 0.961 . S
H4717 C4709 0.960 . S
H4718 C4710 0.930 . S
H4719 C4711 0.929 . S
H4720 C4728 0.929 . S
H4721 C4730 0.930 . S
H4722 C4732 0.930 . S
H4723 C4735 0.929 . S
H4724 C4738 0.930 . S
H4725 C4740 0.960 . S
H4726 C4740 0.960 . S
H4727 C4740 0.960 . S
C4728 H4720 0.929 . S
C4728 C4729 1.377 . S
C4728 C4730 1.384 . S
C4729 C4728 1.377 . S
C4729 C4735 1.390 . S
C4730 H4721 0.930 . S
C4730 C4728 1.384 . S
C4730 C4731 1.372 . S
C4731 C4730 1.372 . S
C4731 C4732 1.400 . S
C4731 C4736 1.490 . S
C4732 H4722 0.930 . S
C4732 C4731 1.400 . S
C4732 C4735 1.386 . S
H4733 C4749 0.930 . S
H4734 C4750 0.931 . S
C4735 H4723 0.929 . S
C4735 C4729 1.390 . S
C4735 C4732 1.386 . S
C4736 C4731 1.490 . S
C4736 C4738 1.395 . S
C4736 C4739 1.403 . S
H4737 C4743 0.930 . S
C4738 H4724 0.930 . S
C4738 C4736 1.395 . S
C4738 C4741 1.403 . S
C4739 C4736 1.403 . S
C4739 C4740 1.524 . S
C4739 C4743 1.400 . S
C4740 H4725 0.960 . S
C4740 H4726 0.960 . S
C4740 H4727 0.960 . S
C4740 C4739 1.524 . S
C4741 C4738 1.403 . S
C4741 C4742 1.392 . S
C4741 C4745 1.495 . S
C4742 C4741 1.392 . S
C4742 C4743 1.385 . S
C4742 C4744 1.478 . S
C4743 H4737 0.930 . S
C4743 C4739 1.400 . S
C4743 C4742 1.385 . S
C4744 C4742 1.478 . S
C4744 C4746 1.381 . S
C4744 C4750 1.383 . S
C4745 C4741 1.495 . S
C4745 H4751 0.959 . S
C4745 H4752 0.961 . S
C4745 H4753 0.960 . S
C4746 C4744 1.381 . S
C4746 C4747 1.394 . S
C4746 H4754 0.930 . S
C4747 C4746 1.394 . S
C4747 C4748 1.383 . S
C4747 H4755 0.929 . S
C4748 C4747 1.383 . S
C4748 C4749 1.377 . S
C4749 H4733 0.930 . S
C4749 C4748 1.377 . S
C4749 C4750 1.379 . S
C4750 H4734 0.931 . S
C4750 C4744 1.383 . S
C4750 C4749 1.379 . S
H4751 C4745 0.959 . S
H4752 C4745 0.961 . S
H4753 C4745 0.960 . S
H4754 C4746 0.930 . S
H4755 C4747 0.929 . S
H4756 C4764 0.929 . S
H4757 C4766 0.930 . S
H4758 C4768 0.930 . S
H4759 C4771 0.929 . S
H4760 C4774 0.930 . S
H4761 C4776 0.960 . S
H4762 C4776 0.960 . S
H4763 C4776 0.960 . S
C4764 H4756 0.929 . S
C4764 C4765 1.377 . S
C4764 C4766 1.384 . S
C4765 C4764 1.377 . S
C4765 C4771 1.390 . S
C4766 H4757 0.930 . S
C4766 C4764 1.384 . S
C4766 C4767 1.372 . S
C4767 C4766 1.372 . S
C4767 C4768 1.400 . S
C4767 C4772 1.490 . S
C4768 H4758 0.930 . S
C4768 C4767 1.400 . S
C4768 C4771 1.386 . S
H4769 C4785 0.930 . S
H4770 C4786 0.931 . S
C4771 H4759 0.929 . S
C4771 C4765 1.390 . S
C4771 C4768 1.386 . S
C4772 C4767 1.490 . S
C4772 C4774 1.395 . S
C4772 C4775 1.403 . S
H4773 C4779 0.930 . S
C4774 H4760 0.930 . S
C4774 C4772 1.395 . S
C4774 C4777 1.403 . S
C4775 C4772 1.403 . S
C4775 C4776 1.524 . S
C4775 C4779 1.400 . S
C4776 H4761 0.960 . S
C4776 H4762 0.960 . S
C4776 H4763 0.960 . S
C4776 C4775 1.524 . S
C4777 C4774 1.403 . S
C4777 C4778 1.392 . S
C4777 C4781 1.495 . S
C4778 C4777 1.392 . S
C4778 C4779 1.385 . S
C4778 C4780 1.478 . S
C4779 H4773 0.930 . S
C4779 C4775 1.400 . S
C4779 C4778 1.385 . S
C4780 C4778 1.478 . S
C4780 C4782 1.381 . S
C4780 C4786 1.383 . S
C4781 C4777 1.495 . S
C4781 H4787 0.959 . S
C4781 H4788 0.961 . S
C4781 H4789 0.960 . S
C4782 C4780 1.381 . S
C4782 C4783 1.394 . S
C4782 H4790 0.930 . S
C4783 C4782 1.394 . S
C4783 C4784 1.383 . S
C4783 H4791 0.929 . S
C4784 C4783 1.383 . S
C4784 C4785 1.377 . S
C4785 H4769 0.930 . S
C4785 C4784 1.377 . S
C4785 C4786 1.379 . S
C4786 H4770 0.931 . S
C4786 C4780 1.383 . S
C4786 C4785 1.379 . S
H4787 C4781 0.959 . S
H4788 C4781 0.961 . S
H4789 C4781 0.960 . S
H4790 C4782 0.930 . S
H4791 C4783 0.929 . S
H4792 C4800 0.929 . S
H4793 C4802 0.930 . S
H4794 C4804 0.930 . S
H4795 C4807 0.929 . S
H4796 C4810 0.930 . S
H4797 C4812 0.960 . S
H4798 C4812 0.960 . S
H4799 C4812 0.960 . S
C4800 H4792 0.929 . S
C4800 C4801 1.377 . S
C4800 C4802 1.384 . S
C4801 C4800 1.377 . S
C4801 C4807 1.390 . S
C4802 H4793 0.930 . S
C4802 C4800 1.384 . S
C4802 C4803 1.372 . S
C4803 C4802 1.372 . S
C4803 C4804 1.400 . S
C4803 C4808 1.490 . S
C4804 H4794 0.930 . S
C4804 C4803 1.400 . S
C4804 C4807 1.386 . S
H4805 C4821 0.930 . S
H4806 C4822 0.931 . S
C4807 H4795 0.929 . S
C4807 C4801 1.390 . S
C4807 C4804 1.386 . S
C4808 C4803 1.490 . S
C4808 C4810 1.395 . S
C4808 C4811 1.403 . S
H4809 C4815 0.930 . S
C4810 H4796 0.930 . S
C4810 C4808 1.395 . S
C4810 C4813 1.403 . S
C4811 C4808 1.403 . S
C4811 C4812 1.524 . S
C4811 C4815 1.400 . S
C4812 H4797 0.960 . S
C4812 H4798 0.960 . S
C4812 H4799 0.960 . S
C4812 C4811 1.524 . S
C4813 C4810 1.403 . S
C4813 C4814 1.392 . S
C4813 C4817 1.495 . S
C4814 C4813 1.392 . S
C4814 C4815 1.385 . S
C4814 C4816 1.478 . S
C4815 H4809 0.930 . S
C4815 C4811 1.400 . S
C4815 C4814 1.385 . S
C4816 C4814 1.478 . S
C4816 C4818 1.381 . S
C4816 C4822 1.383 . S
C4817 C4813 1.495 . S
C4817 H4823 0.959 . S
C4817 H4824 0.961 . S
C4817 H4825 0.960 . S
C4818 C4816 1.381 . S
C4818 C4819 1.394 . S
C4818 H4826 0.930 . S
C4819 C4818 1.394 . S
C4819 C4820 1.383 . S
C4819 H4827 0.929 . S
C4820 C4819 1.383 . S
C4820 C4821 1.377 . S
C4821 H4805 0.930 . S
C4821 C4820 1.377 . S
C4821 C4822 1.379 . S
C4822 H4806 0.931 . S
C4822 C4816 1.383 . S
C4822 C4821 1.379 . S
H4823 C4817 0.959 . S
H4824 C4817 0.961 . S
H4825 C4817 0.960 . S
H4826 C4818 0.930 . S
H4827 C4819 0.929 . S
H4828 C4836 0.929 . S
H4829 C4838 0.930 . S
H4830 C4840 0.930 . S
H4831 C4843 0.929 . S
H4832 C4846 0.930 . S
H4833 C4848 0.960 . S
H4834 C4848 0.960 . S
H4835 C4848 0.960 . S
C4836 H4828 0.929 . S
C4836 C4837 1.377 . S
C4836 C4838 1.384 . S
C4837 C4836 1.377 . S
C4837 C4843 1.390 . S
C4838 H4829 0.930 . S
C4838 C4836 1.384 . S
C4838 C4839 1.372 . S
C4839 C4838 1.372 . S
C4839 C4840 1.400 . S
C4839 C4844 1.490 . S
C4840 H4830 0.930 . S
C4840 C4839 1.400 . S
C4840 C4843 1.386 . S
H4841 C4857 0.930 . S
H4842 C4858 0.931 . S
C4843 H4831 0.929 . S
C4843 C4837 1.390 . S
C4843 C4840 1.386 . S
C4844 C4839 1.490 . S
C4844 C4846 1.395 . S
C4844 C4847 1.403 . S
H4845 C4851 0.930 . S
C4846 H4832 0.930 . S
C4846 C4844 1.395 . S
C4846 C4849 1.403 . S
C4847 C4844 1.403 . S
C4847 C4848 1.524 . S
C4847 C4851 1.400 . S
C4848 H4833 0.960 . S
C4848 H4834 0.960 . S
C4848 H4835 0.960 . S
C4848 C4847 1.524 . S
C4849 C4846 1.403 . S
C4849 C4850 1.392 . S
C4849 C4853 1.495 . S
C4850 C4849 1.392 . S
C4850 C4851 1.385 . S
C4850 C4852 1.478 . S
C4851 H4845 0.930 . S
C4851 C4847 1.400 . S
C4851 C4850 1.385 . S
C4852 C4850 1.478 . S
C4852 C4854 1.381 . S
C4852 C4858 1.383 . S
C4853 C4849 1.495 . S
C4853 H4859 0.959 . S
C4853 H4860 0.961 . S
C4853 H4861 0.960 . S
C4854 C4852 1.381 . S
C4854 C4855 1.394 . S
C4854 H4862 0.930 . S
C4855 C4854 1.394 . S
C4855 C4856 1.383 . S
C4855 H4863 0.929 . S
C4856 C4855 1.383 . S
C4856 C4857 1.377 . S
C4857 H4841 0.930 . S
C4857 C4856 1.377 . S
C4857 C4858 1.379 . S
C4858 H4842 0.931 . S
C4858 C4852 1.383 . S
C4858 C4857 1.379 . S
H4859 C4853 0.959 . S
H4860 C4853 0.961 . S
H4861 C4853 0.960 . S
H4862 C4854 0.930 . S
H4863 C4855 0.929 . S
H4864 C4872 0.929 . S
H4865 C4874 0.930 . S
H4866 C4876 0.930 . S
H4867 C4879 0.929 . S
H4868 C4882 0.930 . S
H4869 C4884 0.960 . S
H4870 C4884 0.960 . S
H4871 C4884 0.960 . S
C4872 H4864 0.929 . S
C4872 C4873 1.377 . S
C4872 C4874 1.384 . S
C4873 C4872 1.377 . S
C4873 C4879 1.390 . S
C4874 H4865 0.930 . S
C4874 C4872 1.384 . S
C4874 C4875 1.372 . S
C4875 C4874 1.372 . S
C4875 C4876 1.400 . S
C4875 C4880 1.490 . S
C4876 H4866 0.930 . S
C4876 C4875 1.400 . S
C4876 C4879 1.386 . S
H4877 C4893 0.930 . S
H4878 C4894 0.931 . S
C4879 H4867 0.929 . S
C4879 C4873 1.390 . S
C4879 C4876 1.386 . S
C4880 C4875 1.490 . S
C4880 C4882 1.395 . S
C4880 C4883 1.403 . S
H4881 C4887 0.930 . S
C4882 H4868 0.930 . S
C4882 C4880 1.395 . S
C4882 C4885 1.403 . S
C4883 C4880 1.403 . S
C4883 C4884 1.524 . S
C4883 C4887 1.400 . S
C4884 H4869 0.960 . S
C4884 H4870 0.960 . S
C4884 H4871 0.960 . S
C4884 C4883 1.524 . S
C4885 C4882 1.403 . S
C4885 C4886 1.392 . S
C4885 C4889 1.495 . S
C4886 C4885 1.392 . S
C4886 C4887 1.385 . S
C4886 C4888 1.478 . S
C4887 H4881 0.930 . S
C4887 C4883 1.400 . S
C4887 C4886 1.385 . S
C4888 C4886 1.478 . S
C4888 C4890 1.381 . S
C4888 C4894 1.383 . S
C4889 C4885 1.495 . S
C4889 H4895 0.959 . S
C4889 H4896 0.961 . S
C4889 H4897 0.960 . S
C4890 C4888 1.381 . S
C4890 C4891 1.394 . S
C4890 H4898 0.930 . S
C4891 C4890 1.394 . S
C4891 C4892 1.383 . S
C4891 H4899 0.929 . S
C4892 C4891 1.383 . S
C4892 C4893 1.377 . S
C4893 H4877 0.930 . S
C4893 C4892 1.377 . S
C4893 C4894 1.379 . S
C4894 H4878 0.931 . S
C4894 C4888 1.383 . S
C4894 C4893 1.379 . S
H4895 C4889 0.959 . S
H4896 C4889 0.961 . S
H4897 C4889 0.960 . S
H4898 C4890 0.930 . S
H4899 C4891 0.929 . S
H4900 C4908 0.929 . S
H4901 C4910 0.930 . S
H4902 C4912 0.930 . S
H4903 C4915 0.929 . S
H4904 C4918 0.930 . S
H4905 C4920 0.960 . S
H4906 C4920 0.960 . S
H4907 C4920 0.960 . S
C4908 H4900 0.929 . S
C4908 C4909 1.377 . S
C4908 C4910 1.384 . S
C4909 C4908 1.377 . S
C4909 C4915 1.390 . S
C4910 H4901 0.930 . S
C4910 C4908 1.384 . S
C4910 C4911 1.372 . S
C4911 C4910 1.372 . S
C4911 C4912 1.400 . S
C4911 C4916 1.490 . S
C4912 H4902 0.930 . S
C4912 C4911 1.400 . S
C4912 C4915 1.386 . S
H4913 C4929 0.930 . S
H4914 C4930 0.931 . S
C4915 H4903 0.929 . S
C4915 C4909 1.390 . S
C4915 C4912 1.386 . S
C4916 C4911 1.490 . S
C4916 C4918 1.395 . S
C4916 C4919 1.403 . S
H4917 C4923 0.930 . S
C4918 H4904 0.930 . S
C4918 C4916 1.395 . S
C4918 C4921 1.403 . S
C4919 C4916 1.403 . S
C4919 C4920 1.524 . S
C4919 C4923 1.400 . S
C4920 H4905 0.960 . S
C4920 H4906 0.960 . S
C4920 H4907 0.960 . S
C4920 C4919 1.524 . S
C4921 C4918 1.403 . S
C4921 C4922 1.392 . S
C4921 C4925 1.495 . S
C4922 C4921 1.392 . S
C4922 C4923 1.385 . S
C4922 C4924 1.478 . S
C4923 H4917 0.930 . S
C4923 C4919 1.400 . S
C4923 C4922 1.385 . S
C4924 C4922 1.478 . S
C4924 C4926 1.381 . S
C4924 C4930 1.383 . S
C4925 C4921 1.495 . S
C4925 H4931 0.959 . S
C4925 H4932 0.961 . S
C4925 H4933 0.960 . S
C4926 C4924 1.381 . S
C4926 C4927 1.394 . S
C4926 H4934 0.930 . S
C4927 C4926 1.394 . S
C4927 C4928 1.383 . S
C4927 H4935 0.929 . S
C4928 C4927 1.383 . S
C4928 C4929 1.377 . S
C4929 H4913 0.930 . S
C4929 C4928 1.377 . S
C4929 C4930 1.379 . S
C4930 H4914 0.931 . S
C4930 C4924 1.383 . S
C4930 C4929 1.379 . S
H4931 C4925 0.959 . S
H4932 C4925 0.961 . S
H4933 C4925 0.960 . S
H4934 C4926 0.930 . S
H4935 C4927 0.929 . S
H4936 C4944 0.929 . S
H4937 C4946 0.930 . S
H4938 C4948 0.930 . S
H4939 C4951 0.929 . S
H4940 C4954 0.930 . S
H4941 C4956 0.960 . S
H4942 C4956 0.960 . S
H4943 C4956 0.960 . S
C4944 H4936 0.929 . S
C4944 C4945 1.377 . S
C4944 C4946 1.384 . S
C4945 C4944 1.377 . S
C4945 C4951 1.390 . S
C4946 H4937 0.930 . S
C4946 C4944 1.384 . S
C4946 C4947 1.372 . S
C4947 C4946 1.372 . S
C4947 C4948 1.400 . S
C4947 C4952 1.490 . S
C4948 H4938 0.930 . S
C4948 C4947 1.400 . S
C4948 C4951 1.386 . S
H4949 C4965 0.930 . S
H4950 C4966 0.931 . S
C4951 H4939 0.929 . S
C4951 C4945 1.390 . S
C4951 C4948 1.386 . S
C4952 C4947 1.490 . S
C4952 C4954 1.395 . S
C4952 C4955 1.403 . S
H4953 C4959 0.930 . S
C4954 H4940 0.930 . S
C4954 C4952 1.395 . S
C4954 C4957 1.403 . S
C4955 C4952 1.403 . S
C4955 C4956 1.524 . S
C4955 C4959 1.400 . S
C4956 H4941 0.960 . S
C4956 H4942 0.960 . S
C4956 H4943 0.960 . S
C4956 C4955 1.524 . S
C4957 C4954 1.403 . S
C4957 C4958 1.392 . S
C4957 C4961 1.495 . S
C4958 C4957 1.392 . S
C4958 C4959 1.385 . S
C4958 C4960 1.478 . S
C4959 H4953 0.930 . S
C4959 C4955 1.400 . S
C4959 C4958 1.385 . S
C4960 C4958 1.478 . S
C4960 C4962 1.381 . S
C4960 C4966 1.383 . S
C4961 C4957 1.495 . S
C4961 H4967 0.959 . S
C4961 H4968 0.961 . S
C4961 H4969 0.960 . S
C4962 C4960 1.381 . S
C4962 C4963 1.394 . S
C4962 H4970 0.930 . S
C4963 C4962 1.394 . S
C4963 C4964 1.383 . S
C4963 H4971 0.929 . S
C4964 C4963 1.383 . S
C4964 C4965 1.377 . S
C4965 H4949 0.930 . S
C4965 C4964 1.377 . S
C4965 C4966 1.379 . S
C4966 H4950 0.931 . S
C4966 C4960 1.383 . S
C4966 C4965 1.379 . S
H4967 C4961 0.959 . S
H4968 C4961 0.961 . S
H4969 C4961 0.960 . S
H4970 C4962 0.930 . S
H4971 C4963 0.929 . S
H4972 C4980 0.929 . S
H4973 C4982 0.930 . S
H4974 C4984 0.930 . S
H4975 C4987 0.929 . S
H4976 C4990 0.930 . S
H4977 C4992 0.960 . S
H4978 C4992 0.960 . S
H4979 C4992 0.960 . S
C4980 H4972 0.929 . S
C4980 C4981 1.377 . S
C4980 C4982 1.384 . S
C4981 C4980 1.377 . S
C4981 C4987 1.390 . S
C4982 H4973 0.930 . S
C4982 C4980 1.384 . S
C4982 C4983 1.372 . S
C4983 C4982 1.372 . S
C4983 C4984 1.400 . S
C4983 C4988 1.490 . S
C4984 H4974 0.930 . S
C4984 C4983 1.400 . S
C4984 C4987 1.386 . S
H4985 C5001 0.930 . S
H4986 C5002 0.931 . S
C4987 H4975 0.929 . S
C4987 C4981 1.390 . S
C4987 C4984 1.386 . S
C4988 C4983 1.490 . S
C4988 C4990 1.395 . S
C4988 C4991 1.403 . S
H4989 C4995 0.930 . S
C4990 H4976 0.930 . S
C4990 C4988 1.395 . S
C4990 C4993 1.403 . S
C4991 C4988 1.403 . S
C4991 C4992 1.524 . S
C4991 C4995 1.400 . S
C4992 H4977 0.960 . S
C4992 H4978 0.960 . S
C4992 H4979 0.960 . S
C4992 C4991 1.524 . S
C4993 C4990 1.403 . S
C4993 C4994 1.392 . S
C4993 C4997 1.495 . S
C4994 C4993 1.392 . S
C4994 C4995 1.385 . S
C4994 C4996 1.478 . S
C4995 H4989 0.930 . S
C4995 C4991 1.400 . S
C4995 C4994 1.385 . S
C4996 C4994 1.478 . S
C4996 C4998 1.381 . S
C4996 C5002 1.383 . S
C4997 C4993 1.495 . S
C4997 H5003 0.959 . S
C4997 H5004 0.961 . S
C4997 H5005 0.960 . S
C4998 C4996 1.381 . S
C4998 C4999 1.394 . S
C4998 H5006 0.930 . S
C4999 C4998 1.394 . S
C4999 C5000 1.383 . S
C4999 H5007 0.929 . S
C5000 C4999 1.383 . S
C5000 C5001 1.377 . S
C5001 H4985 0.930 . S
C5001 C5000 1.377 . S
C5001 C5002 1.379 . S
C5002 H4986 0.931 . S
C5002 C4996 1.383 . S
C5002 C5001 1.379 . S
H5003 C4997 0.959 . S
H5004 C4997 0.961 . S
H5005 C4997 0.960 . S
H5006 C4998 0.930 . S
H5007 C4999 0.929 . S
H5008 C5016 0.929 . S
H5009 C5018 0.930 . S
H5010 C5020 0.930 . S
H5011 C5023 0.929 . S
H5012 C5026 0.930 . S
H5013 C5028 0.960 . S
H5014 C5028 0.960 . S
H5015 C5028 0.960 . S
C5016 H5008 0.929 . S
C5016 C5017 1.377 . S
C5016 C5018 1.384 . S
C5017 C5016 1.377 . S
C5017 C5023 1.390 . S
C5018 H5009 0.930 . S
C5018 C5016 1.384 . S
C5018 C5019 1.372 . S
C5019 C5018 1.372 . S
C5019 C5020 1.400 . S
C5019 C5024 1.490 . S
C5020 H5010 0.930 . S
C5020 C5019 1.400 . S
C5020 C5023 1.386 . S
H5021 C5037 0.930 . S
H5022 C5038 0.931 . S
C5023 H5011 0.929 . S
C5023 C5017 1.390 . S
C5023 C5020 1.386 . S
C5024 C5019 1.490 . S
C5024 C5026 1.395 . S
C5024 C5027 1.403 . S
H5025 C5031 0.930 . S
C5026 H5012 0.930 . S
C5026 C5024 1.395 . S
C5026 C5029 1.403 . S
C5027 C5024 1.403 . S
C5027 C5028 1.524 . S
C5027 C5031 1.400 . S
C5028 H5013 0.960 . S
C5028 H5014 0.960 . S
C5028 H5015 0.960 . S
C5028 C5027 1.524 . S
C5029 C5026 1.403 . S
C5029 C5030 1.392 . S
C5029 C5033 1.495 . S
C5030 C5029 1.392 . S
C5030 C5031 1.385 . S
C5030 C5032 1.478 . S
C5031 H5025 0.930 . S
C5031 C5027 1.400 . S
C5031 C5030 1.385 . S
C5032 C5030 1.478 . S
C5032 C5034 1.381 . S
C5032 C5038 1.383 . S
C5033 C5029 1.495 . S
C5033 H5039 0.959 . S
C5033 H5040 0.961 . S
C5033 H5041 0.960 . S
C5034 C5032 1.381 . S
C5034 C5035 1.394 . S
C5034 H5042 0.930 . S
C5035 C5034 1.394 . S
C5035 C5036 1.383 . S
C5035 H5043 0.929 . S
C5036 C5035 1.383 . S
C5036 C5037 1.377 . S
C5037 H5021 0.930 . S
C5037 C5036 1.377 . S
C5037 C5038 1.379 . S
C5038 H5022 0.931 . S
C5038 C5032 1.383 . S
C5038 C5037 1.379 . S
H5039 C5033 0.959 . S
H5040 C5033 0.961 . S
H5041 C5033 0.960 . S
H5042 C5034 0.930 . S
H5043 C5035 0.929 . S
H5044 C5052 0.929 . S
H5045 C5054 0.930 . S
H5046 C5056 0.930 . S
H5047 C5059 0.929 . S
H5048 C5062 0.930 . S
H5049 C5064 0.960 . S
H5050 C5064 0.960 . S
H5051 C5064 0.960 . S
C5052 H5044 0.929 . S
C5052 C5053 1.377 . S
C5052 C5054 1.384 . S
C5053 C5052 1.377 . S
C5053 C5059 1.390 . S
C5054 H5045 0.930 . S
C5054 C5052 1.384 . S
C5054 C5055 1.372 . S
C5055 C5054 1.372 . S
C5055 C5056 1.400 . S
C5055 C5060 1.490 . S
C5056 H5046 0.930 . S
C5056 C5055 1.400 . S
C5056 C5059 1.386 . S
H5057 C5073 0.930 . S
H5058 C5074 0.931 . S
C5059 H5047 0.929 . S
C5059 C5053 1.390 . S
C5059 C5056 1.386 . S
C5060 C5055 1.490 . S
C5060 C5062 1.395 . S
C5060 C5063 1.403 . S
H5061 C5067 0.930 . S
C5062 H5048 0.930 . S
C5062 C5060 1.395 . S
C5062 C5065 1.403 . S
C5063 C5060 1.403 . S
C5063 C5064 1.524 . S
C5063 C5067 1.400 . S
C5064 H5049 0.960 . S
C5064 H5050 0.960 . S
C5064 H5051 0.960 . S
C5064 C5063 1.524 . S
C5065 C5062 1.403 . S
C5065 C5066 1.392 . S
C5065 C5069 1.495 . S
C5066 C5065 1.392 . S
C5066 C5067 1.385 . S
C5066 C5068 1.478 . S
C5067 H5061 0.930 . S
C5067 C5063 1.400 . S
C5067 C5066 1.385 . S
C5068 C5066 1.478 . S
C5068 C5070 1.381 . S
C5068 C5074 1.383 . S
C5069 C5065 1.495 . S
C5069 H5075 0.959 . S
C5069 H5076 0.961 . S
C5069 H5077 0.960 . S
C5070 C5068 1.381 . S
C5070 C5071 1.394 . S
C5070 H5078 0.930 . S
C5071 C5070 1.394 . S
C5071 C5072 1.383 . S
C5071 H5079 0.929 . S
C5072 C5071 1.383 . S
C5072 C5073 1.377 . S
C5073 H5057 0.930 . S
C5073 C5072 1.377 . S
C5073 C5074 1.379 . S
C5074 H5058 0.931 . S
C5074 C5068 1.383 . S
C5074 C5073 1.379 . S
H5075 C5069 0.959 . S
H5076 C5069 0.961 . S
H5077 C5069 0.960 . S
H5078 C5070 0.930 . S
H5079 C5071 0.929 . S
H5080 C5088 0.929 . S
H5081 C5090 0.930 . S
H5082 C5092 0.930 . S
H5083 C5095 0.929 . S
H5084 C5098 0.930 . S
H5085 C5100 0.960 . S
H5086 C5100 0.960 . S
H5087 C5100 0.960 . S
C5088 H5080 0.929 . S
C5088 C5089 1.377 . S
C5088 C5090 1.384 . S
C5089 C5088 1.377 . S
C5089 C5095 1.390 . S
C5090 H5081 0.930 . S
C5090 C5088 1.384 . S
C5090 C5091 1.372 . S
C5091 C5090 1.372 . S
C5091 C5092 1.400 . S
C5091 C5096 1.490 . S
C5092 H5082 0.930 . S
C5092 C5091 1.400 . S
C5092 C5095 1.386 . S
H5093 C5109 0.930 . S
H5094 C5110 0.931 . S
C5095 H5083 0.929 . S
C5095 C5089 1.390 . S
C5095 C5092 1.386 . S
C5096 C5091 1.490 . S
C5096 C5098 1.395 . S
C5096 C5099 1.403 . S
H5097 C5103 0.930 . S
C5098 H5084 0.930 . S
C5098 C5096 1.395 . S
C5098 C5101 1.403 . S
C5099 C5096 1.403 . S
C5099 C5100 1.524 . S
C5099 C5103 1.400 . S
C5100 H5085 0.960 . S
C5100 H5086 0.960 . S
C5100 H5087 0.960 . S
C5100 C5099 1.524 . S
C5101 C5098 1.403 . S
C5101 C5102 1.392 . S
C5101 C5105 1.495 . S
C5102 C5101 1.392 . S
C5102 C5103 1.385 . S
C5102 C5104 1.478 . S
C5103 H5097 0.930 . S
C5103 C5099 1.400 . S
C5103 C5102 1.385 . S
C5104 C5102 1.478 . S
C5104 C5106 1.381 . S
C5104 C5110 1.383 . S
C5105 C5101 1.495 . S
C5105 H5111 0.959 . S
C5105 H5112 0.961 . S
C5105 H5113 0.960 . S
C5106 C5104 1.381 . S
C5106 C5107 1.394 . S
C5106 H5114 0.930 . S
C5107 C5106 1.394 . S
C5107 C5108 1.383 . S
C5107 H5115 0.929 . S
C5108 C5107 1.383 . S
C5108 C5109 1.377 . S
C5109 H5093 0.930 . S
C5109 C5108 1.377 . S
C5109 C5110 1.379 . S
C5110 H5094 0.931 . S
C5110 C5104 1.383 . S
C5110 C5109 1.379 . S
H5111 C5105 0.959 . S
H5112 C5105 0.961 . S
H5113 C5105 0.960 . S
H5114 C5106 0.930 . S
H5115 C5107 0.929 . S
H5116 C5124 0.929 . S
H5117 C5126 0.930 . S
H5118 C5128 0.930 . S
H5119 C5131 0.929 . S
H5120 C5134 0.930 . S
H5121 C5136 0.960 . S
H5122 C5136 0.960 . S
H5123 C5136 0.960 . S
C5124 H5116 0.929 . S
C5124 C5125 1.377 . S
C5124 C5126 1.384 . S
C5125 C5124 1.377 . S
C5125 C5131 1.390 . S
C5126 H5117 0.930 . S
C5126 C5124 1.384 . S
C5126 C5127 1.372 . S
C5127 C5126 1.372 . S
C5127 C5128 1.400 . S
C5127 C5132 1.490 . S
C5128 H5118 0.930 . S
C5128 C5127 1.400 . S
C5128 C5131 1.386 . S
H5129 C5145 0.930 . S
H5130 C5146 0.931 . S
C5131 H5119 0.929 . S
C5131 C5125 1.390 . S
C5131 C5128 1.386 . S
C5132 C5127 1.490 . S
C5132 C5134 1.395 . S
C5132 C5135 1.403 . S
H5133 C5139 0.930 . S
C5134 H5120 0.930 . S
C5134 C5132 1.395 . S
C5134 C5137 1.403 . S
C5135 C5132 1.403 . S
C5135 C5136 1.524 . S
C5135 C5139 1.400 . S
C5136 H5121 0.960 . S
C5136 H5122 0.960 . S
C5136 H5123 0.960 . S
C5136 C5135 1.524 . S
C5137 C5134 1.403 . S
C5137 C5138 1.392 . S
C5137 C5141 1.495 . S
C5138 C5137 1.392 . S
C5138 C5139 1.385 . S
C5138 C5140 1.478 . S
C5139 H5133 0.930 . S
C5139 C5135 1.400 . S
C5139 C5138 1.385 . S
C5140 C5138 1.478 . S
C5140 C5142 1.381 . S
C5140 C5146 1.383 . S
C5141 C5137 1.495 . S
C5141 H5147 0.959 . S
C5141 H5148 0.961 . S
C5141 H5149 0.960 . S
C5142 C5140 1.381 . S
C5142 C5143 1.394 . S
C5142 H5150 0.930 . S
C5143 C5142 1.394 . S
C5143 C5144 1.383 . S
C5143 H5151 0.929 . S
C5144 C5143 1.383 . S
C5144 C5145 1.377 . S
C5145 H5129 0.930 . S
C5145 C5144 1.377 . S
C5145 C5146 1.379 . S
C5146 H5130 0.931 . S
C5146 C5140 1.383 . S
C5146 C5145 1.379 . S
H5147 C5141 0.959 . S
H5148 C5141 0.961 . S
H5149 C5141 0.960 . S
H5150 C5142 0.930 . S
H5151 C5143 0.929 . S
H5152 C5160 0.929 . S
H5153 C5162 0.930 . S
H5154 C5164 0.930 . S
H5155 C5167 0.929 . S
H5156 C5170 0.930 . S
H5157 C5172 0.960 . S
H5158 C5172 0.960 . S
H5159 C5172 0.960 . S
C5160 H5152 0.929 . S
C5160 C5161 1.377 . S
C5160 C5162 1.384 . S
C5161 C5160 1.377 . S
C5161 C5167 1.390 . S
C5162 H5153 0.930 . S
C5162 C5160 1.384 . S
C5162 C5163 1.372 . S
C5163 C5162 1.372 . S
C5163 C5164 1.400 . S
C5163 C5168 1.490 . S
C5164 H5154 0.930 . S
C5164 C5163 1.400 . S
C5164 C5167 1.386 . S
H5165 C5181 0.930 . S
H5166 C5182 0.931 . S
C5167 H5155 0.929 . S
C5167 C5161 1.390 . S
C5167 C5164 1.386 . S
C5168 C5163 1.490 . S
C5168 C5170 1.395 . S
C5168 C5171 1.403 . S
H5169 C5175 0.930 . S
C5170 H5156 0.930 . S
C5170 C5168 1.395 . S
C5170 C5173 1.403 . S
C5171 C5168 1.403 . S
C5171 C5172 1.524 . S
C5171 C5175 1.400 . S
C5172 H5157 0.960 . S
C5172 H5158 0.960 . S
C5172 H5159 0.960 . S
C5172 C5171 1.524 . S
C5173 C5170 1.403 . S
C5173 C5174 1.392 . S
C5173 C5177 1.495 . S
C5174 C5173 1.392 . S
C5174 C5175 1.385 . S
C5174 C5176 1.478 . S
C5175 H5169 0.930 . S
C5175 C5171 1.400 . S
C5175 C5174 1.385 . S
C5176 C5174 1.478 . S
C5176 C5178 1.381 . S
C5176 C5182 1.383 . S
C5177 C5173 1.495 . S
C5177 H5183 0.959 . S
C5177 H5184 0.961 . S
C5177 H5185 0.960 . S
C5178 C5176 1.381 . S
C5178 C5179 1.394 . S
C5178 H5186 0.930 . S
C5179 C5178 1.394 . S
C5179 C5180 1.383 . S
C5179 H5187 0.929 . S
C5180 C5179 1.383 . S
C5180 C5181 1.377 . S
C5181 H5165 0.930 . S
C5181 C5180 1.377 . S
C5181 C5182 1.379 . S
C5182 H5166 0.931 . S
C5182 C5176 1.383 . S
C5182 C5181 1.379 . S
H5183 C5177 0.959 . S
H5184 C5177 0.961 . S
H5185 C5177 0.960 . S
H5186 C5178 0.930 . S
H5187 C5179 0.929 . S
H5188 C5196 0.929 . S
H5189 C5198 0.930 . S
H5190 C5200 0.930 . S
H5191 C5203 0.929 . S
H5192 C5206 0.930 . S
H5193 C5208 0.960 . S
H5194 C5208 0.960 . S
H5195 C5208 0.960 . S
C5196 H5188 0.929 . S
C5196 C5197 1.377 . S
C5196 C5198 1.384 . S
C5197 C5196 1.377 . S
C5197 C5203 1.390 . S
C5198 H5189 0.930 . S
C5198 C5196 1.384 . S
C5198 C5199 1.372 . S
C5199 C5198 1.372 . S
C5199 C5200 1.400 . S
C5199 C5204 1.490 . S
C5200 H5190 0.930 . S
C5200 C5199 1.400 . S
C5200 C5203 1.386 . S
H5201 C5217 0.930 . S
H5202 C5218 0.931 . S
C5203 H5191 0.929 . S
C5203 C5197 1.390 . S
C5203 C5200 1.386 . S
C5204 C5199 1.490 . S
C5204 C5206 1.395 . S
C5204 C5207 1.403 . S
H5205 C5211 0.930 . S
C5206 H5192 0.930 . S
C5206 C5204 1.395 . S
C5206 C5209 1.403 . S
C5207 C5204 1.403 . S
C5207 C5208 1.524 . S
C5207 C5211 1.400 . S
C5208 H5193 0.960 . S
C5208 H5194 0.960 . S
C5208 H5195 0.960 . S
C5208 C5207 1.524 . S
C5209 C5206 1.403 . S
C5209 C5210 1.392 . S
C5209 C5213 1.495 . S
C5210 C5209 1.392 . S
C5210 C5211 1.385 . S
C5210 C5212 1.478 . S
C5211 H5205 0.930 . S
C5211 C5207 1.400 . S
C5211 C5210 1.385 . S
C5212 C5210 1.478 . S
C5212 C5214 1.381 . S
C5212 C5218 1.383 . S
C5213 C5209 1.495 . S
C5213 H5219 0.959 . S
C5213 H5220 0.961 . S
C5213 H5221 0.960 . S
C5214 C5212 1.381 . S
C5214 C5215 1.394 . S
C5214 H5222 0.930 . S
C5215 C5214 1.394 . S
C5215 C5216 1.383 . S
C5215 H5223 0.929 . S
C5216 C5215 1.383 . S
C5216 C5217 1.377 . S
C5217 H5201 0.930 . S
C5217 C5216 1.377 . S
C5217 C5218 1.379 . S
C5218 H5202 0.931 . S
C5218 C5212 1.383 . S
C5218 C5217 1.379 . S
H5219 C5213 0.959 . S
H5220 C5213 0.961 . S
H5221 C5213 0.960 . S
H5222 C5214 0.930 . S
H5223 C5215 0.929 . S
H5224 C5232 0.929 . S
H5225 C5234 0.930 . S
H5226 C5236 0.930 . S
H5227 C5239 0.929 . S
H5228 C5242 0.930 . S
H5229 C5244 0.960 . S
H5230 C5244 0.960 . S
H5231 C5244 0.960 . S
C5232 H5224 0.929 . S
C5232 C5233 1.377 . S
C5232 C5234 1.384 . S
C5233 C5232 1.377 . S
C5233 C5239 1.390 . S
C5234 H5225 0.930 . S
C5234 C5232 1.384 . S
C5234 C5235 1.372 . S
C5235 C5234 1.372 . S
C5235 C5236 1.400 . S
C5235 C5240 1.490 . S
C5236 H5226 0.930 . S
C5236 C5235 1.400 . S
C5236 C5239 1.386 . S
H5237 C5253 0.930 . S
H5238 C5254 0.931 . S
C5239 H5227 0.929 . S
C5239 C5233 1.390 . S
C5239 C5236 1.386 . S
C5240 C5235 1.490 . S
C5240 C5242 1.395 . S
C5240 C5243 1.403 . S
H5241 C5247 0.930 . S
C5242 H5228 0.930 . S
C5242 C5240 1.395 . S
C5242 C5245 1.403 . S
C5243 C5240 1.403 . S
C5243 C5244 1.524 . S
C5243 C5247 1.400 . S
C5244 H5229 0.960 . S
C5244 H5230 0.960 . S
C5244 H5231 0.960 . S
C5244 C5243 1.524 . S
C5245 C5242 1.403 . S
C5245 C5246 1.392 . S
C5245 C5249 1.495 . S
C5246 C5245 1.392 . S
C5246 C5247 1.385 . S
C5246 C5248 1.478 . S
C5247 H5241 0.930 . S
C5247 C5243 1.400 . S
C5247 C5246 1.385 . S
C5248 C5246 1.478 . S
C5248 C5250 1.381 . S
C5248 C5254 1.383 . S
C5249 C5245 1.495 . S
C5249 H5255 0.959 . S
C5249 H5256 0.961 . S
C5249 H5257 0.960 . S
C5250 C5248 1.381 . S
C5250 C5251 1.394 . S
C5250 H5258 0.930 . S
C5251 C5250 1.394 . S
C5251 C5252 1.383 . S
C5251 H5259 0.929 . S
C5252 C5251 1.383 . S
C5252 C5253 1.377 . S
C5253 H5237 0.930 . S
C5253 C5252 1.377 . S
C5253 C5254 1.379 . S
C5254 H5238 0.931 . S
C5254 C5248 1.383 . S
C5254 C5253 1.379 . S
H5255 C5249 0.959 . S
H5256 C5249 0.961 . S
H5257 C5249 0.960 . S
H5258 C5250 0.930 . S
H5259 C5251 0.929 . S
H5260 C5268 0.929 . S
H5261 C5270 0.930 . S
H5262 C5272 0.930 . S
H5263 C5275 0.929 . S
H5264 C5278 0.930 . S
H5265 C5280 0.960 . S
H5266 C5280 0.960 . S
H5267 C5280 0.960 . S
C5268 H5260 0.929 . S
C5268 C5269 1.377 . S
C5268 C5270 1.384 . S
C5269 C5268 1.377 . S
C5269 C5275 1.390 . S
C5270 H5261 0.930 . S
C5270 C5268 1.384 . S
C5270 C5271 1.372 . S
C5271 C5270 1.372 . S
C5271 C5272 1.400 . S
C5271 C5276 1.490 . S
C5272 H5262 0.930 . S
C5272 C5271 1.400 . S
C5272 C5275 1.386 . S
H5273 C5289 0.930 . S
H5274 C5290 0.931 . S
C5275 H5263 0.929 . S
C5275 C5269 1.390 . S
C5275 C5272 1.386 . S
C5276 C5271 1.490 . S
C5276 C5278 1.395 . S
C5276 C5279 1.403 . S
H5277 C5283 0.930 . S
C5278 H5264 0.930 . S
C5278 C5276 1.395 . S
C5278 C5281 1.403 . S
C5279 C5276 1.403 . S
C5279 C5280 1.524 . S
C5279 C5283 1.400 . S
C5280 H5265 0.960 . S
C5280 H5266 0.960 . S
C5280 H5267 0.960 . S
C5280 C5279 1.524 . S
C5281 C5278 1.403 . S
C5281 C5282 1.392 . S
C5281 C5285 1.495 . S
C5282 C5281 1.392 . S
C5282 C5283 1.385 . S
C5282 C5284 1.478 . S
C5283 H5277 0.930 . S
C5283 C5279 1.400 . S
C5283 C5282 1.385 . S
C5284 C5282 1.478 . S
C5284 C5286 1.381 . S
C5284 C5290 1.383 . S
C5285 C5281 1.495 . S
C5285 H5291 0.959 . S
C5285 H5292 0.961 . S
C5285 H5293 0.960 . S
C5286 C5284 1.381 . S
C5286 C5287 1.394 . S
C5286 H5294 0.930 . S
C5287 C5286 1.394 . S
C5287 C5288 1.383 . S
C5287 H5295 0.929 . S
C5288 C5287 1.383 . S
C5288 C5289 1.377 . S
C5289 H5273 0.930 . S
C5289 C5288 1.377 . S
C5289 C5290 1.379 . S
C5290 H5274 0.931 . S
C5290 C5284 1.383 . S
C5290 C5289 1.379 . S
H5291 C5285 0.959 . S
H5292 C5285 0.961 . S
H5293 C5285 0.960 . S
H5294 C5286 0.930 . S
H5295 C5287 0.929 . S
C1868 C399 1.957 . S
C1849 C7 1.997 . S
C1904 C461 1.204 . S
C1885 C19 1.290 . S
C1921 C29 1.912 . S
C1940 C523 1.851 . S
C1976 C591 1.186 . S
C1957 C41 1.248 . S
C1993 C52 1.360 . S
C2012 C573 1.346 . S
C2029 C62 1.664 . S
C2048 C381 1.604 . S
C2065 C73 1.227 . S
C2084 C443 1.166 . S
C2120 C505 1.809 . S
C2101 C82 1.683 . S
C2156 C653 1.828 . S
C2137 C5 1.702 . S
C2173 C16 1.410 . S
C2192 C691 1.559 . S
C2209 C30 1.885 . S
C2228 C777 1.846 1_655 S
C2264 C821 1.111 . S
C2245 C40 1.175 . S
C2281 C49 1.035 . S
C2300 C883 1.201 . S
C2336 C945 1.485 . S
C2317 C63 1.505 . S
C2353 C74 1.290 . S
C2372 C1001 1.142 . S
C2408 C1063 1.508 . S
C2389 C85 1.629 . S
C2425 C8 1.713 . S
C2444 C839 1.696 . S
C2461 C51 1.494 . S
C2480 C963 1.508 . S
C2516 C1019 1.747 . S
C2497 C60 1.667 . S
C2533 C71 1.174 . S
C2552 C1081 1.350 . S
C2588 C901 2.137 . S
C2569 C84 2.085 . S
C2624 C709 1.577 . S
C2605 C27 1.478 . S
C2641 C38 1.353 . S
C2660 C759 1.429 . S
C2696 C635 1.794 . S
C2677 C18 1.743 . S
C2732 C1143 2.082 . S
C2713 C95 2.106 . S
C2749 C107 1.229 . S
C2768 C1193 1.218 . S
C2785 C117 1.817 . S
C2804 C1249 1.762 . S
C2840 C1335 1.253 . S
C2821 C129 1.363 . S
C2857 C140 1.425 . S
C2876 C1317 1.401 . S
C2893 C150 1.693 . S
C2912 C1125 1.653 . S
C2929 C161 1.144 . S
C2948 C1211 1.194 . S
C2965 C170 1.769 . S
C2984 C1267 1.918 . S
C3020 C877 1.862 . S
C3001 C93 1.779 . S
C3037 C104 1.305 . S
C3056 C1397 1.515 . S
C3092 C1007 1.779 . S
C3073 C118 1.828 . S
C3109 C128 1.256 . S
C3128 C1459 1.188 . S
C3145 C137 1.067 . S
C3164 C647 1.148 . S
C3200 C1503 1.541 . S
C3181 C151 1.569 . S
C3217 C162 1.254 . S
C3236 C771 1.299 . S
C3272 C1559 1.572 . S
C3253 C173 1.712 . S
C3289 C96 1.809 . S
C3308 C1441 1.757 . S
C3344 C1521 1.613 . S
C3325 C139 1.574 . S
C3361 C148 1.708 . S
C3380 C753 1.880 . S
C3416 C1577 1.310 . S
C3397 C159 1.114 . S
C3433 C172 2.309 . S
C3452 C629 2.302 . S
C3469 C115 1.268 . S
C3488 C1379 1.461 . S
C3505 C126 1.345 . S
C3524 C1025 1.380 . S
C3541 C106 1.601 . S
C3560 C895 1.600 . S
C3577 C183 1.888 . S
C3596 C1255 1.924 . S
C3632 C1329 1.186 . S
C3613 C195 1.260 . S
C3649 C205 1.867 . S
C3668 C1149 1.867 . S
C3685 C217 1.238 . S
C3704 C1187 1.136 . S
C3721 C228 1.494 . S
C3740 C1205 1.419 . S
C3757 C238 1.585 . S
C3776 C1273 1.599 . S
C3812 C1311 1.217 . S
C3793 C249 1.240 . S
C3829 C258 1.645 . S
C3848 C1131 1.833 . S
C3884 C1627 1.743 . S
C3865 C181 1.648 . S
C3901 C192 1.480 . S
C3920 C939 1.640 . S
C3956 C1689 1.692 . S
C3937 C206 1.763 . S
C3973 C216 1.321 . S
C3992 C1069 1.256 . S
C4009 C225 1.191 . S
C4028 C1745 1.300 . S
C4045 C239 1.519 . S
C4064 C697 1.441 . S
C4100 C1825 1.310 . S
C4081 C250 1.349 . S
C4117 C261 1.626 . S
C4136 C815 1.494 . S
C4172 C1087 1.543 . S
C4153 C184 1.587 . S
C4208 C715 1.656 . S
C4189 C227 1.629 . S
C4225 C236 1.600 . S
C4244 C1807 1.783 . S
C4261 C247 1.118 . S
C4280 C833 1.240 . S
C4316 C1763 2.153 . S
C4297 C260 2.152 . S
C4352 C957 1.342 . S
C4333 C203 1.223 . S
C4388 C1707 1.385 . S
C4369 C214 1.294 . S
C4424 C1645 1.769 . S
C4405 C194 1.717 . S
C4441 C271 1.933 . S
C4460 C529 1.956 . S
C4477 C283 1.287 . S
C4496 C585 1.190 . S
C4532 C405 1.848 . S
C4513 C293 1.837 . S
C4568 C467 1.218 . S
C4549 C305 1.288 . S
C4604 C449 1.515 . S
C4585 C316 1.533 . S
C4640 C511 1.694 . S
C4621 C326 1.670 . S
C4676 C567 1.082 . S
C4657 C337 1.139 . S
C4693 C346 1.673 . S
C4712 C387 1.812 . S
C4729 C269 1.617 . S
C4748 C1751 1.706 . S
C4784 C1497 1.574 . S
C4765 C280 1.453 . S
C4820 C1831 1.820 . S
C4801 C294 1.876 . S
C4856 C1565 1.124 . S
C4837 C304 1.222 . S
C4873 C313 1.206 . S
C4892 C1621 1.323 . S
C4928 C1391 1.382 . S
C4909 C327 1.516 . S
C4964 C1683 1.092 . S
C4945 C338 1.217 . S
C4981 C349 1.610 . S
C5000 C1453 1.488 . S
C5036 C1583 1.527 . S
C5017 C272 1.573 . S
C5072 C1373 1.551 . S
C5053 C315 1.630 . S
C5108 C1701 1.798 . S
C5089 C324 1.680 . S
C5125 C335 1.156 . S
C5144 C1435 1.354 . S
C5161 C348 2.196 . S
C5180 C1639 2.182 . S
C5197 C291 1.267 . S
C5216 C1515 1.375 . S
C5233 C302 1.401 . S
C5252 C1813 1.446 . S
C5288 C1769 1.758 . S
C5269 C282 1.703 . S
