# Generated by pormake.
# Topology pyr, (3,6)-cn, num edge types: 1
# Building blocks:
#     Node 0, Type 0, BuildingBlock: PAMTOO_clean_linker_0, # of connection points: 3
#     Node 1, Type 0, BuildingBlock: PAMTOO_clean_linker_0, # of connection points: 3
#     Node 2, Type 0, BuildingBlock: PAMTOO_clean_linker_0, # of connection points: 3
#     Node 3, Type 0, BuildingBlock: PAMTOO_clean_linker_0, # of connection points: 3
#     Node 4, Type 0, BuildingBlock: PAMTOO_clean_linker_0, # of connection points: 3
#     Node 5, Type 0, BuildingBlock: PAMTOO_clean_linker_0, # of connection points: 3
#     Node 6, Type 0, BuildingBlock: PAMTOO_clean_linker_0, # of connection points: 3
#     Node 7, Type 0, BuildingBlock: PAMTOO_clean_linker_0, # of connection points: 3
#     Node 8, Type 1, BuildingBlock: BETDIP_clean_sbu_0, # of connection points: 6
#     Node 9, Type 1, BuildingBlock: BETDIP_clean_sbu_0, # of connection points: 6
#     Node 10, Type 1, BuildingBlock: BETDIP_clean_sbu_0, # of connection points: 6
#     Node 11, Type 1, BuildingBlock: BETDIP_clean_sbu_0, # of connection points: 6
#     Edge 12, Type (0, 1), BuildingBlock: XIVTED_clean_linker_0, # of connection points: 2
#     Edge 13, Type (0, 1), BuildingBlock: XIVTED_clean_linker_0, # of connection points: 2
#     Edge 14, Type (0, 1), BuildingBlock: XIVTED_clean_linker_0, # of connection points: 2
#     Edge 15, Type (0, 1), BuildingBlock: XIVTED_clean_linker_0, # of connection points: 2
#     Edge 16, Type (0, 1), BuildingBlock: XIVTED_clean_linker_0, # of connection points: 2
#     Edge 17, Type (0, 1), BuildingBlock: XIVTED_clean_linker_0, # of connection points: 2
#     Edge 18, Type (0, 1), BuildingBlock: XIVTED_clean_linker_0, # of connection points: 2
#     Edge 19, Type (0, 1), BuildingBlock: XIVTED_clean_linker_0, # of connection points: 2
#     Edge 20, Type (0, 1), BuildingBlock: XIVTED_clean_linker_0, # of connection points: 2
#     Edge 21, Type (0, 1), BuildingBlock: XIVTED_clean_linker_0, # of connection points: 2
#     Edge 22, Type (0, 1), BuildingBlock: XIVTED_clean_linker_0, # of connection points: 2
#     Edge 23, Type (0, 1), BuildingBlock: XIVTED_clean_linker_0, # of connection points: 2
#     Edge 24, Type (0, 1), BuildingBlock: XIVTED_clean_linker_0, # of connection points: 2
#     Edge 25, Type (0, 1), BuildingBlock: XIVTED_clean_linker_0, # of connection points: 2
#     Edge 26, Type (0, 1), BuildingBlock: XIVTED_clean_linker_0, # of connection points: 2
#     Edge 27, Type (0, 1), BuildingBlock: XIVTED_clean_linker_0, # of connection points: 2
#     Edge 28, Type (0, 1), BuildingBlock: XIVTED_clean_linker_0, # of connection points: 2
#     Edge 29, Type (0, 1), BuildingBlock: XIVTED_clean_linker_0, # of connection points: 2
#     Edge 30, Type (0, 1), BuildingBlock: XIVTED_clean_linker_0, # of connection points: 2
#     Edge 31, Type (0, 1), BuildingBlock: XIVTED_clean_linker_0, # of connection points: 2
#     Edge 32, Type (0, 1), BuildingBlock: XIVTED_clean_linker_0, # of connection points: 2
#     Edge 33, Type (0, 1), BuildingBlock: XIVTED_clean_linker_0, # of connection points: 2
#     Edge 34, Type (0, 1), BuildingBlock: XIVTED_clean_linker_0, # of connection points: 2
#     Edge 35, Type (0, 1), BuildingBlock: XIVTED_clean_linker_0, # of connection points: 2
# Relax obj value: 0.181
# Max RMSD: 0.284
# Mean RMSD: 0.150
data_MOF--net-pyr--node1-BETDIP_clean_sbu_0--node2-PAMTOO_clean_linker_0--edge1-XIVTED_clean_linker_0
_symmetry_space_group_name_H-M    P1
_symmetry_Int_Tables_number       1
_symmetry_cell_setting            triclinic
loop_
_symmetry_equiv_pos_as_xyz
'x, y, z'
_cell_length_a     35.18579
_cell_length_b     39.268471
_cell_length_c     38.298871
_cell_angle_alpha  89.48666
_cell_angle_beta   93.668186
_cell_angle_gamma 107.39848
loop_
_atom_site_label
_atom_site_type_symbol
_atom_site_fract_x
_atom_site_fract_y
_atom_site_fract_z
_atom_type_partial_charge
H0 H 0.30227 0.27155 0.23958 0.0
H1 H 0.41542 0.28412 0.29525 0.0
H2 H 0.41149 0.32278 0.19037 0.0
H3 H 0.48095 0.28642 0.27758 0.0
C4 C 0.48484 0.29879 0.2513 0.0
O5 O 0.45811 0.31805 0.24495 0.0
H6 H 0.5155 0.31776 0.25265 0.0
C7 C 0.33456 0.27985 0.23989 0.0
C8 C 0.35391 0.29776 0.21101 0.0
C9 C 0.35649 0.27422 0.27008 0.0
C10 C 0.39822 0.28683 0.27146 0.0
C11 C 0.41799 0.30354 0.24245 0.0
C12 C 0.3959 0.3086 0.21214 0.0
H13 H 0.2131 0.85056 0.74805 0.0
H14 H 0.13403 0.77351 0.67652 0.0
H15 H 0.22723 0.74621 0.73775 0.0
H16 H 0.1778 0.73973 0.63964 0.0
C17 C 0.17785 0.71708 0.65736 0.0
O18 O 0.16771 0.72345 0.6904 0.0
H19 H 0.15442 0.69351 0.64588 0.0
C20 C 0.20396 0.82444 0.73554 0.0
C21 C 0.22421 0.79977 0.74545 0.0
C22 C 0.17145 0.81555 0.71067 0.0
C23 C 0.15886 0.78101 0.696 0.0
C24 C 0.17937 0.75628 0.70537 0.0
C25 C 0.2118 0.76554 0.73033 0.0
H26 H 0.70961 0.34117 0.948 0.0
H27 H 0.6221 0.32489 0.86072 0.0
H28 H 0.71989 0.42171 0.86947 0.0
H29 H 0.63954 0.42743 0.84897 0.0
C30 C 0.63093 0.40631 0.82824 0.0
O31 O 0.65713 0.38599 0.83037 0.0
H32 H 0.60047 0.38891 0.8332 0.0
C33 C 0.69758 0.3507 0.92445 0.0
C34 C 0.71829 0.3844 0.91172 0.0
C35 C 0.66253 0.32874 0.90686 0.0
C36 C 0.64894 0.34099 0.87495 0.0
C37 C 0.66976 0.37449 0.8614 0.0
C38 C 0.70433 0.3959 0.87986 0.0
H39 H 0.87882 0.75866 0.43565 0.0
H40 H 0.87502 0.66814 0.37114 0.0
H41 H 0.96531 0.76855 0.35878 0.0
H42 H 0.92352 0.72716 0.29079 0.0
C43 C 0.92051 0.69962 0.30012 0.0
O44 O 0.93587 0.70172 0.33476 0.0
H45 H 0.88814 0.68474 0.29896 0.0
C46 C 0.89069 0.74681 0.41516 0.0
C47 C 0.92427 0.76813 0.39888 0.0
C48 C 0.87266 0.71057 0.4061 0.0
C49 C 0.88809 0.69592 0.37862 0.0
C50 C 0.92108 0.71675 0.36096 0.0
C51 C 0.93946 0.75271 0.3717 0.0
H52 H 0.67735 0.85938 0.87194 0.0
H53 H 0.64261 0.78372 0.95464 0.0
H54 H 0.72212 0.76865 0.88005 0.0
H55 H 0.65424 0.7059 0.9005 0.0
C56 C 0.66696 0.70893 0.92811 0.0
O57 O 0.68604 0.74417 0.93674 0.0
H58 H 0.64195 0.69825 0.94535 0.0
C59 C 0.67766 0.8345 0.88431 0.0
C60 C 0.70151 0.81494 0.8717 0.0
C61 C 0.65649 0.82358 0.91426 0.0
C62 C 0.65787 0.79195 0.93087 0.0
C63 C 0.68102 0.772 0.91816 0.0
C64 C 0.70282 0.78344 0.88865 0.0
H65 H 0.91538 0.26234 0.35266 0.0
H66 H 0.89286 0.36247 0.37205 0.0
H67 H 0.96253 0.32117 0.44768 0.0
H68 H 0.9359 0.38162 0.48608 0.0
C69 C 0.9132 0.36874 0.46489 0.0
O70 O 0.93181 0.37301 0.43373 0.0
H71 H 0.90173 0.34007 0.47208 0.0
C72 C 0.92018 0.28619 0.36851 0.0
C73 C 0.94123 0.28891 0.40113 0.0
C74 C 0.9028 0.31275 0.35747 0.0
C75 C 0.90666 0.34208 0.37971 0.0
C76 C 0.92875 0.34531 0.41192 0.0
C77 C 0.94658 0.31907 0.42223 0.0
H78 H 0.36698 0.75437 0.17531 0.0
H79 H 0.36218 0.6716 0.2511 0.0
H80 H 0.45133 0.77342 0.26494 0.0
H81 H 0.48043 0.71271 0.28768 0.0
C82 C 0.45159 0.69291 0.2935 0.0
O83 O 0.42199 0.70962 0.29201 0.0
H84 H 0.4447 0.67155 0.27308 0.0
C85 C 0.3785 0.74511 0.19928 0.0
C86 C 0.41133 0.76841 0.21849 0.0
C87 C 0.36047 0.71002 0.21049 0.0
C88 C 0.3755 0.69844 0.24191 0.0
C89 C 0.40833 0.72113 0.26145 0.0
C90 C 0.42623 0.75598 0.2496 0.0
H91 H 0.09724 0.31941 0.79916 0.0
H92 H 0.1875 0.42107 0.78878 0.0
H93 H 0.18076 0.33579 0.71805 0.0
H94 H 0.26129 0.37846 0.74964 0.0
C95 C 0.25762 0.40522 0.74402 0.0
O96 O 0.21805 0.4019 0.73451 0.0
H97 H 0.26671 0.4214 0.76852 0.0
C98 C 0.12242 0.33635 0.78618 0.0
C99 C 0.13695 0.32256 0.75721 0.0
C100 C 0.14039 0.37223 0.79809 0.0
C101 C 0.17293 0.39375 0.78035 0.0
C102 C 0.18747 0.38046 0.75187 0.0
C103 C 0.16953 0.34523 0.74058 0.0
Tb104 Tb 0.99027 1.03174 0.58078 0.0
Tb105 Tb 0.07407 0.06209 0.56899 0.0
C106 C 0.92141 0.99064 0.58989 0.0
C107 C 0.90324 0.96675 0.61782 0.0
C108 C 0.86389 0.94462 0.61269 0.0
C109 C 0.84532 0.92358 0.64 0.0
C110 C 0.86589 0.92453 0.67287 0.0
C111 C 0.90586 0.94593 0.67747 0.0
C112 C 0.92439 0.96688 0.65014 0.0
C113 C 0.02509 0.09229 0.61655 0.0
C114 C 0.05484 1.00571 0.62577 0.0
C115 C 0.14314 0.10253 0.56038 0.0
C116 C 0.16496 0.12029 0.5305 0.0
C117 C 0.18634 0.15665 0.53313 0.0
C118 C 0.20736 0.17405 0.50513 0.0
C119 C 0.20763 0.15522 0.47417 0.0
C120 C 0.18616 0.1188 0.47155 0.0
C121 C 0.16479 0.10151 0.49939 0.0
C122 C 0.03936 1.00178 0.53288 0.0
C123 C 0.00963 0.08817 0.52302 0.0
O124 O 0.94798 0.98132 0.57316 0.0
O125 O 0.93308 1.02458 0.59791 0.0
O126 O 0.04007 0.06727 0.61179 0.0
O127 O 0.98887 0.0826 0.60296 0.0
O128 O 0.01799 0.99707 0.61165 0.0
O129 O 0.08094 1.03609 0.6179 0.0
O130 O 0.11383 0.11408 0.56917 0.0
O131 O 0.13389 0.06773 0.56103 0.0
O132 O 0.02439 1.02672 0.53796 0.0
O133 O 0.07582 1.01175 0.54582 0.0
O134 O 0.04719 0.09519 0.53519 0.0
O135 O 0.98184 0.06003 0.53359 0.0
H136 H 0.84721 0.94427 0.58784 0.0
H137 H 0.81439 0.90768 0.63579 0.0
H138 H 0.9226 0.94688 0.70237 0.0
H139 H 0.9549 0.98378 0.65447 0.0
H140 H 0.1868 0.17157 0.5569 0.0
H141 H 0.2239 0.20209 0.50787 0.0
H142 H 0.18549 0.10382 0.44779 0.0
H143 H 0.14818 0.07349 0.49654 0.0
Tb144 Tb 0.58302 0.06887 0.08371 0.0
Tb145 Tb 0.49416 1.03552 0.0553 0.0
C146 C 0.65044 0.10829 0.10507 0.0
C147 C 0.66955 0.1439 0.12093 0.0
C148 C 0.70264 0.1671 0.10578 0.0
C149 C 0.72622 0.19764 0.1239 0.0
C150 C 0.71746 0.20525 0.15779 0.0
C151 C 0.68242 0.18341 0.17166 0.0
C152 C 0.65862 0.15314 0.15337 0.0
C153 C 0.54353 1.00714 0.11063 0.0
C154 C 0.51429 0.10048 0.10652 0.0
C155 C 0.42725 0.9904 0.04373 0.0
C156 C 0.40999 0.96835 1.01264 0.0
C157 C 0.37254 0.94272 1.01295 0.0
C158 C 0.35734 0.92048 0.98378 0.0
C159 C 0.3796 0.92344 0.95399 0.0
C160 C 0.41728 0.9492 0.95406 0.0
C161 C 0.43221 0.97153 0.98303 0.0
C162 C 0.53318 0.08986 1.01582 0.0
C163 C 0.56501 1.01187 1.02424 0.0
O164 O 0.63708 0.10674 0.07213 0.0
O165 O 0.62666 0.08467 0.12455 0.0
O166 O 0.52934 1.03245 0.10248 0.0
O167 O 0.58125 1.01701 0.10544 0.0
O168 O 0.55266 0.10545 0.1023 0.0
O169 O 0.48579 0.07177 0.09468 0.0
O170 O 0.45796 0.98289 0.05936 0.0
O171 O 0.43335 1.02487 1.04012 0.0
O172 O 0.5451 0.07593 0.04216 0.0
O173 O 0.49612 0.07132 1.00941 0.0
O174 O 0.52637 1.00454 1.02886 0.0
O175 O 0.59262 0.03903 1.03976 0.0
H176 H 0.71149 0.16064 0.0807 0.0
H177 H 0.7524 0.21433 0.11202 0.0
H178 H 0.6747 0.18814 0.19771 0.0
H179 H 0.63302 0.13593 0.16564 0.0
H180 H 0.35515 0.93983 1.03574 0.0
H181 H 0.32798 0.9013 0.98442 0.0
H182 H 0.43549 0.9519 0.93185 0.0
H183 H 0.46136 0.99109 0.98247 0.0
Tb184 Tb 0.55597 0.58777 0.57784 0.0
Tb185 Tb 0.54693 0.51891 0.54146 0.0
C186 C 0.54214 0.64318 0.59883 0.0
C187 C 0.50582 0.65075 0.6091 0.0
C188 C 0.46806 0.63069 0.5949 0.0
C189 C 0.43367 0.63762 0.60502 0.0
C190 C 0.4363 0.66494 0.62938 0.0
C191 C 0.4742 0.68511 0.64347 0.0
C192 C 0.50867 0.67794 0.63349 0.0
C193 C 0.58931 0.5445 0.6131 0.0
C194 C 0.47664 0.52105 0.58545 0.0
C195 C 0.56118 0.46326 0.52157 0.0
C196 C 0.59725 0.45608 0.51021 0.0
C197 C 0.63509 0.47982 0.51925 0.0
C198 C 0.6694 0.47278 0.50932 0.0
C199 C 0.66687 0.44118 0.49106 0.0
C200 C 0.62879 0.41749 0.48175 0.0
C201 C 0.59426 0.42502 0.49112 0.0
C202 C 0.51208 0.56121 0.5069 0.0
C203 C 0.62611 0.58618 0.5333 0.0
O204 O 0.54249 0.63514 0.56578 0.0
O205 O 0.5555 0.62208 0.61954 0.0
O206 O 0.55672 0.53598 0.59476 0.0
O207 O 0.60374 0.57909 0.61328 0.0
O208 O 0.4941 0.55605 0.58749 0.0
O209 O 0.49358 0.49974 0.57027 0.0
O210 O 0.56299 0.47298 0.55438 0.0
O211 O 0.54569 0.48288 0.50074 0.0
O212 O 0.54526 0.57042 0.52448 0.0
O213 O 0.49815 0.52657 0.50696 0.0
O214 O 0.60761 0.55153 0.52945 0.0
O215 O 0.61036 0.60723 0.55033 0.0
H216 H 0.46508 0.60976 0.57577 0.0
H217 H 0.40502 0.62198 0.59325 0.0
H218 H 0.47717 0.70616 0.66246 0.0
H219 H 0.53755 0.69364 0.6448 0.0
H220 H 0.63841 0.50353 0.53464 0.0
H221 H 0.69798 0.4921 0.51636 0.0
H222 H 0.6256 0.39267 0.4681 0.0
H223 H 0.5653 0.40625 0.48408 0.0
Tb224 Tb 0.04357 0.56402 1.034 0.0
Tb225 Tb 0.04598 0.50543 0.08293 0.0
C226 C 0.02084 0.60743 0.99566 0.0
C227 C 0.98402 0.61764 0.9922 0.0
C228 C 0.9501 0.59782 1.00883 0.0
C229 C 0.91393 0.6054 1.00275 0.0
C230 C 0.91114 0.63293 0.97991 0.0
C231 C 0.94557 0.65327 0.96404 0.0
C232 C 0.98172 0.64562 0.97011 0.0
C233 C 0.11458 0.57189 0.06625 0.0
C234 C 0.01401 0.56498 0.11203 0.0
C235 C 0.06912 0.46158 0.12027 0.0
C236 C 0.09603 0.43978 0.11615 0.0
C237 C 0.12705 0.45003 0.09329 0.0
C238 C 0.1545 0.43074 0.09191 0.0
C239 C 0.15132 0.40083 0.11328 0.0
C240 C 0.11925 0.38992 0.13512 0.0
C241 C 0.0919 0.40929 0.13655 0.0
C242 C 0.97503 0.49916 0.05168 0.0
C243 C 0.07153 0.50221 1.0035 0.0
O244 O 0.01653 0.57443 0.98667 0.0
O245 O 0.0429 0.61675 1.02483 0.0
O246 O 0.08108 0.55972 0.07887 0.0
O247 O 0.10888 0.58259 1.03477 0.0
O248 O 0.01093 0.57434 0.0787 0.0
O249 O 0.03046 0.53963 0.12088 0.0
O250 O 0.08621 0.49612 0.12163 0.0
O251 O 0.03583 0.45278 0.10056 0.0
O252 O 0.0083 0.51022 1.0385 0.0
O253 O 0.98059 0.48864 0.08334 0.0
O254 O 0.07234 0.49047 1.03616 0.0
O255 O 0.05905 0.53017 0.996 0.0
H256 H 0.95133 0.57586 1.02575 0.0
H257 H 0.88792 0.58901 1.01508 0.0
H258 H 0.94454 0.67502 0.94677 0.0
H259 H 0.00766 0.66109 0.95704 0.0
H260 H 0.13069 0.47347 0.0772 0.0
H261 H 0.17862 0.4396 0.07457 0.0
H262 H 0.11623 0.36731 0.15226 0.0
H263 H 0.06815 0.40102 0.15434 0.0
H264 H 0.3708 0.22027 0.30914 0.0
H265 H 0.20833 0.21952 0.44595 0.0
H266 H 0.29519 0.28891 0.30084 0.0
H267 H 0.25811 0.13247 0.43535 0.0
H268 H 0.24557 0.24919 0.39675 0.0
H269 H 0.33526 0.1914 0.35966 0.0
C270 C 0.3468 0.22929 0.31809 0.0
C271 C 0.33569 0.25681 0.30082 0.0
C272 C 0.24831 0.22358 0.40518 0.0
C273 C 0.29516 0.22418 0.35834 0.0
C274 C 0.22728 0.20678 0.43333 0.0
C275 C 0.23017 0.17353 0.44461 0.0
C276 C 0.27274 0.20718 0.38846 0.0
C277 C 0.25481 0.15796 0.42719 0.0
C278 C 0.32644 0.21274 0.34672 0.0
C279 C 0.3043 0.26746 0.31322 0.0
N280 N 0.27529 0.17499 0.40002 0.0
N281 N 0.2852 0.25119 0.34132 0.0
H282 H 0.2913 0.85607 0.74432 0.0
H283 H 0.33584 0.85236 0.95097 0.0
H284 H 0.23061 0.76873 0.8088 0.0
H285 H 0.3859 0.94243 0.88515 0.0
H286 H 0.3057 0.81679 0.89858 0.0
H287 H 0.33657 0.8824 0.79451 0.0
C288 C 0.28825 0.84206 0.76899 0.0
C289 C 0.25719 0.81044 0.77271 0.0
C290 C 0.32366 0.84423 0.89567 0.0
C291 C 0.30794 0.84078 0.83047 0.0
C292 C 0.34059 0.86466 0.92556 0.0
C293 C 0.36317 0.9006 0.92255 0.0
C294 C 0.32932 0.85986 0.86254 0.0
C295 C 0.36906 0.91482 0.88887 0.0
C296 C 0.31385 0.85717 0.79768 0.0
C297 C 0.25432 0.79318 0.80504 0.0
N298 N 0.35202 0.89451 0.86028 0.0
N299 N 0.27898 0.80892 0.83297 0.0
H300 H 0.68198 0.46933 0.80549 0.0
H301 H 0.54989 0.47463 0.6272 0.0
H302 H 0.57822 0.38372 0.77051 0.0
H303 H 0.65161 0.56186 0.66335 0.0
H304 H 0.56346 0.43893 0.67657 0.0
H305 H 0.6754 0.50127 0.75101 0.0
C306 C 0.6581 0.45709 0.78611 0.0
C307 C 0.63037 0.42399 0.79274 0.0
C308 C 0.58306 0.46576 0.67362 0.0
C309 C 0.62239 0.46048 0.73022 0.0
C310 C 0.5754 0.48616 0.64529 0.0
C311 C 0.5996 0.5214 0.64105 0.0
C312 C 0.61519 0.48058 0.69817 0.0
C313 C 0.63209 0.53488 0.66555 0.0
C314 C 0.65422 0.47538 0.75505 0.0
C315 C 0.60009 0.40928 0.76661 0.0
N316 N 0.63878 0.5146 0.69306 0.0
N317 N 0.59671 0.42769 0.73676 0.0
H318 H 0.94296 0.63704 0.30893 0.0
H319 H 0.98604 0.62358 0.10563 0.0
H320 H 0.93983 0.71751 0.23266 0.0
H321 H 0.01024 0.55123 0.18319 0.0
H322 H 0.96631 0.65633 0.15183 0.0
H323 H 0.96586 0.60405 0.26416 0.0
C324 C 0.9479 0.6482 0.28306 0.0
C325 C 0.94048 0.6808 0.27507 0.0
C326 C 0.97588 0.63327 0.15886 0.0
C327 C 0.9653 0.64232 0.22295 0.0
C328 C 0.98706 0.61434 0.13231 0.0
C329 C 0.99995 0.58431 0.14014 0.0
C330 C 0.97712 0.62227 0.19394 0.0
C331 C 1.00058 0.57409 0.17558 0.0
C332 C 0.96067 0.62918 0.25734 0.0
C333 C 0.94604 0.69307 0.2405 0.0
N334 N 0.98934 0.59285 0.20095 0.0
N335 N 0.95789 0.67397 0.21599 0.0
H336 H 0.5238 0.30536 0.19077 0.0
H337 H 0.4467 0.09708 0.14092 0.0
H338 H 0.43747 0.22895 0.24936 0.0
H339 H 0.55786 0.17025 0.11122 0.0
H340 H 0.4328 0.14653 0.17156 0.0
H341 H 0.52527 0.25742 0.15087 0.0
C342 C 0.50479 0.27849 0.19486 0.0
C343 C 0.48119 0.27075 0.22366 0.0
C344 C 0.46006 0.15161 0.15809 0.0
C345 C 0.4826 0.21593 0.17841 0.0
C346 C 0.46797 0.1235 0.14064 0.0
C347 C 0.50371 0.12949 0.12396 0.0
C348 C 0.48779 0.18588 0.15815 0.0
C349 C 0.53022 0.16425 0.12423 0.0
C350 C 0.5057 0.25116 0.17227 0.0
C351 C 0.45654 0.2357 0.22766 0.0
N352 N 0.52173 0.19104 0.14105 0.0
N353 N 0.45818 0.20938 0.20549 0.0
H354 H 0.09108 0.80724 0.69796 0.0
H355 H 0.12793 1.015 0.65964 0.0
H356 H 0.20679 0.88636 0.69914 0.0
H357 H 0.01362 0.93589 0.63823 0.0
H358 H 0.15452 0.96854 0.68352 0.0
H359 H 0.05996 0.85407 0.68264 0.0
C360 C 0.10993 0.83435 0.69487 0.0
C361 C 0.15161 0.84289 0.70007 0.0
C362 C 0.12351 0.96132 0.67388 0.0
C363 C 0.11626 0.89651 0.68326 0.0
C364 C 0.10821 0.98792 0.66044 0.0
C365 C 0.06863 0.97926 0.64649 0.0
C366 C 0.09916 0.9257 0.67331 0.0
C367 C 0.04443 0.94372 0.6485 0.0
C368 C 0.09214 0.86108 0.68642 0.0
C369 C 0.17453 0.87856 0.69608 0.0
N370 N 0.06021 0.9181 0.66127 0.0
N371 N 0.15657 0.90396 0.688 0.0
H372 H 0.72902 0.39569 0.98262 0.0
H373 H 0.96093 0.50613 0.9812 0.0
H374 H 0.79023 0.42474 0.88771 0.0
H375 H 0.9009 0.46727 0.07481 0.0
H376 H 0.89737 0.48292 0.94664 0.0
H377 H 0.79007 0.42778 1.01659 0.0
C378 C 0.75533 0.40887 0.96887 0.0
C379 C 0.75452 0.407 0.93218 0.0
C380 C 0.89801 0.47968 0.97476 0.0
C381 C 0.82487 0.44427 0.97117 0.0
C382 C 0.93428 0.49303 0.99453 0.0
C383 C 0.93623 0.48838 1.03093 0.0
C384 C 0.86339 0.46154 0.9915 0.0
C385 C 0.90078 0.47123 0.0468 0.0
C386 C 0.79021 0.42734 0.98834 0.0
C387 C 0.78937 0.42544 0.91588 0.0
N388 N 0.86593 0.45827 1.027 0.0
N389 N 0.82319 0.44303 0.93548 0.0
H390 H 0.86021 0.71516 0.47616 0.0
H391 H 0.65522 0.55802 0.47913 0.0
H392 H 0.8059 0.6553 0.38241 0.0
H393 H 0.68352 0.65059 0.54686 0.0
H394 H 0.71577 0.58596 0.44832 0.0
H395 H 0.80144 0.68436 0.50699 0.0
C396 C 0.83594 0.69576 0.46177 0.0
C397 C 0.8381 0.68876 0.42602 0.0
C398 C 0.70872 0.60005 0.46998 0.0
C399 C 0.77062 0.65207 0.46226 0.0
C400 C 0.67428 0.58407 0.48778 0.0
C401 C 0.66406 0.60197 0.51573 0.0
C402 C 0.73377 0.6339 0.48061 0.0
C403 C 0.68997 0.63579 0.52547 0.0
C404 C 0.80238 0.67796 0.47967 0.0
C405 C 0.80597 0.66186 0.40979 0.0
N406 N 0.72362 0.65049 0.50814 0.0
N407 N 0.77363 0.64458 0.42798 0.0
H408 H 0.37021 0.36315 0.17994 0.0
H409 H 0.14271 0.32901 0.11671 0.0
H410 H 0.28231 0.25936 0.17819 0.0
H411 H 0.23222 0.43173 0.11479 0.0
H412 H 0.1955 0.30107 0.12909 0.0
H413 H 0.32328 0.38626 0.14487 0.0
C414 C 0.34145 0.34493 0.17134 0.0
C415 C 0.32993 0.30939 0.1826 0.0
C416 C 0.20367 0.32966 0.12541 0.0
C417 C 0.27552 0.33599 0.14325 0.0
C418 C 0.1735 0.34564 0.11851 0.0
C419 C 0.183 0.38283 0.11521 0.0
C420 C 0.24364 0.35105 0.1294 0.0
C421 C 0.22346 0.40298 0.1171 0.0
C422 C 0.31445 0.35825 0.15157 0.0
C423 C 0.29209 0.28716 0.17082 0.0
N424 N 0.25222 0.3869 0.12458 0.0
N425 N 0.26598 0.30097 0.15235 0.0
H426 H 0.65435 0.31144 0.97653 0.0
H427 H 0.51786 0.11026 0.94955 0.0
H428 H 0.62105 0.2646 0.87323 0.0
H429 H 0.59455 0.14669 0.04249 0.0
H430 H 0.54862 0.16783 0.92189 0.0
H431 H 0.62543 0.25305 1.00185 0.0
C432 C 0.64127 0.28895 0.95897 0.0
C433 C 0.64115 0.29331 0.92238 0.0
C434 C 0.55899 0.1631 0.9482 0.0
C435 C 0.60648 0.22583 0.95184 0.0
C436 C 0.54148 0.13029 0.964 0.0
C437 C 0.55407 0.12351 0.99821 0.0
C438 C 0.58865 0.1898 0.96706 0.0
C439 C 0.58451 0.15049 1.01586 0.0
C440 C 0.62454 0.2555 0.97364 0.0
C441 C 0.62198 0.26294 0.90147 0.0
N442 N 0.60045 0.18253 1.00025 0.0
N443 N 0.60544 0.2306 0.91646 0.0
H444 H 1.00394 0.80299 0.41632 0.0
H445 H 0.9636 0.97644 0.49978 0.0
H446 H 0.88792 0.81915 0.41319 0.0
H447 H 0.07532 0.9525 0.51429 0.0
H448 H 0.93659 0.92184 0.4637 0.0
H449 H 0.03222 0.86088 0.44663 0.0
C450 C 0.9845 0.81894 0.42138 0.0
C451 C 0.94336 0.80584 0.41218 0.0
C452 C 0.96707 0.92859 0.47469 0.0
C453 C 0.97555 0.87234 0.44755 0.0
C454 C 0.98248 0.95981 0.49534 0.0
C455 C 0.02181 0.96919 0.51025 0.0
C456 C 0.99117 0.90654 0.4686 0.0
C457 C 0.04484 0.94646 0.50343 0.0
C458 C 1.0006 0.85191 0.43907 0.0
C459 C 0.91971 0.82779 0.42 0.0
N460 N 0.02929 0.91644 0.48325 0.0
N461 N 0.93599 0.85964 0.43723 0.0
H462 H 0.25192 0.76588 0.65427 0.0
H463 H 0.36476 0.61723 0.64408 0.0
H464 H 0.1942 0.6532 0.66449 0.0
H465 H 0.42402 0.73021 0.63705 0.0
H466 H 0.30304 0.63023 0.65566 0.0
H467 H 0.31637 0.75396 0.65246 0.0
C468 C 0.253 0.73865 0.65625 0.0
C469 C 0.21786 0.71036 0.65878 0.0
C470 C 0.32958 0.65223 0.65182 0.0
C471 C 0.2911 0.69643 0.65685 0.0
C472 C 0.36479 0.6448 0.64503 0.0
C473 C 0.39953 0.67267 0.63926 0.0
C474 C 0.32891 0.6878 0.65267 0.0
C475 C 0.39801 0.70791 0.64149 0.0
C476 C 0.28967 0.73182 0.65525 0.0
C477 C 0.22067 0.67561 0.66193 0.0
N478 N 0.3632 0.71446 0.64772 0.0
N479 N 0.25662 0.66957 0.66052 0.0
H480 H 0.75093 0.8825 0.86638 0.0
H481 H 0.81397 0.85653 0.67442 0.0
H482 H 0.71282 0.78059 0.81283 0.0
H483 H 0.86931 0.94946 0.73958 0.0
H484 H 0.77573 0.8279 0.72369 0.0
H485 H 0.79343 0.90743 0.81897 0.0
C486 C 0.75143 0.86542 0.84446 0.0
C487 C 0.72801 0.82958 0.84322 0.0
C488 C 0.79655 0.85441 0.72723 0.0
C489 C 0.77686 0.85786 0.78887 0.0
C490 C 0.81821 0.8708 0.69913 0.0
C491 C 0.84483 0.90544 0.70292 0.0
C492 C 0.80126 0.87299 0.75915 0.0
C493 C 0.84949 0.9226 0.73556 0.0
C494 C 0.77592 0.87958 0.81751 0.0
C495 C 0.73042 0.8084 0.81463 0.0
N496 N 0.82771 0.90632 0.76229 0.0
N497 N 0.7542 0.82295 0.78834 0.0
H498 H 0.82879 0.32167 0.34425 0.0
H499 H 0.79896 0.22192 0.16021 0.0
H500 H 0.92133 0.2927 0.2943 0.0
H501 H 0.70425 0.24987 0.20802 0.0
H502 H 0.84658 0.25783 0.204 0.0
H503 H 0.78556 0.30512 0.2905 0.0
C504 C 0.84027 0.3125 0.32173 0.0
C505 C 0.87848 0.30806 0.32382 0.0
C506 C 0.81547 0.25655 0.20472 0.0
C507 C 0.82917 0.28877 0.26253 0.0
C508 C 0.78813 0.23626 0.17936 0.0
C509 C 0.74722 0.23236 0.18049 0.0
C510 C 0.80195 0.27283 0.23183 0.0
C511 C 0.73531 0.25132 0.20654 0.0
C512 C 0.81553 0.30289 0.29114 0.0
C513 C 0.89179 0.29587 0.29398 0.0
N514 N 0.76245 0.27029 0.23149 0.0
N515 N 0.86705 0.28632 0.26473 0.0
H516 H 0.40378 0.63022 0.31965 0.0
H517 H 0.54953 0.63109 0.4906 0.0
H518 H 0.50869 0.71757 0.34785 0.0
H519 H 0.44659 0.54239 0.46041 0.0
H520 H 0.5317 0.66542 0.44174 0.0
H521 H 0.41521 0.60008 0.37408 0.0
C522 C 0.42895 0.64321 0.33756 0.0
C523 C 0.45549 0.67628 0.32905 0.0
C524 C 0.5128 0.63855 0.44592 0.0
C525 C 0.4691 0.64189 0.39143 0.0
C526 C 0.52292 0.61896 0.47394 0.0
C527 C 0.49962 0.58371 0.47959 0.0
C528 C 0.47909 0.62285 0.42323 0.0
C529 C 0.46553 0.5694 0.45701 0.0
C530 C 0.43561 0.62597 0.36857 0.0
C531 C 0.48761 0.692 0.35326 0.0
N532 N 0.45646 0.58887 0.42981 0.0
N533 N 0.49368 0.67459 0.3831 0.0
H534 H 0.12016 0.34395 0.8638 0.0
H535 H 0.08012 0.52236 0.93484 0.0
H536 H 0.12845 0.4381 0.80241 0.0
H537 H 0.08751 0.43674 1.00367 0.0
H538 H 0.09436 0.48969 0.88597 0.0
H539 H 0.10373 0.37441 0.91431 0.0
C540 C 0.11809 0.37079 0.86072 0.0
C541 C 0.12602 0.38836 0.82853 0.0
C542 C 0.093 0.47791 0.9117 0.0
C543 C 0.10739 0.42369 0.88665 0.0
C544 C 0.08487 0.49671 0.93987 0.0
C545 C 0.08259 0.48261 0.97387 0.0
C546 C 0.09877 0.44423 0.91692 0.0
C547 C 0.08908 0.44898 0.97815 0.0
C548 C 0.10903 0.38832 0.88973 0.0
C549 C 0.12316 0.4234 0.82656 0.0
N550 N 0.09668 0.43098 0.95014 0.0
N551 N 0.11421 0.43967 0.85492 0.0
H552 H 0.67148 0.8495 0.98069 0.0
H553 H 0.52232 0.96557 0.97265 0.0
H554 H 0.60191 0.85449 0.88496 0.0
H555 H 0.63674 0.99868 1.03087 0.0
H556 H 0.54235 0.91798 0.94488 0.0
H557 H 0.64858 0.89641 1.00586 0.0
C558 C 0.65073 0.86004 0.96527 0.0
C559 C 0.63831 0.84815 0.93085 0.0
C560 C 0.56305 0.93597 0.9635 0.0
C561 C 0.61244 0.90177 0.95922 0.0
C562 C 0.55175 0.96306 0.9793 0.0
C563 C 0.57802 0.98612 1.00399 0.0
C564 C 0.60034 0.93149 0.97328 0.0
C565 C 0.61573 0.9817 1.01176 0.0
C566 C 0.63811 0.88701 0.97944 0.0
C567 C 0.61201 0.86306 0.91164 0.0
N568 N 0.62557 0.95457 0.99679 0.0
N569 N 0.59973 0.88913 0.92616 0.0
H570 H 1.0024 0.26358 0.38411 0.0
H571 H 0.93508 0.09388 0.50735 0.0
H572 H 0.90372 0.24408 0.45024 0.0
H573 H 0.05835 0.14073 0.48452 0.0
H574 H 0.91786 0.14106 0.47392 0.0
H575 H 0.01871 0.21127 0.40964 0.0
C576 C 0.98427 0.24816 0.40394 0.0
C577 C 0.952 0.25794 0.41551 0.0
C578 C 0.94861 0.14076 0.47598 0.0
C579 C 0.9696 0.1984 0.44388 0.0
C580 C 0.95843 0.11373 0.49483 0.0
C581 C 0.99826 0.11355 0.49894 0.0
C582 C 0.9787 0.16753 0.46075 0.0
C583 C 0.02731 0.14008 0.48223 0.0
C584 C 0.99348 0.21852 0.41841 0.0
C585 C 0.92903 0.2373 0.44099 0.0
N586 N 0.01697 0.16613 0.46388 0.0
N587 N 0.93816 0.20838 0.45427 0.0
H588 H 0.35092 0.70157 0.13903 0.0
H589 H 0.1275 0.56896 0.13751 0.0
H590 H 0.29138 0.66297 0.23303 0.0
H591 H 0.18779 0.60907 0.04432 0.0
H592 H 0.18863 0.5992 0.173 0.0
H593 H 0.29296 0.66465 0.10419 0.0
C594 C 0.32562 0.68538 0.15241 0.0
C595 C 0.32603 0.68579 0.18913 0.0
C596 C 0.18863 0.60116 0.14478 0.0
C597 C 0.25927 0.64291 0.14913 0.0
C598 C 0.15376 0.58375 0.12448 0.0
C599 C 0.15249 0.58659 0.08787 0.0
C600 C 0.22254 0.62167 0.12838 0.0
C601 C 0.18737 0.60627 0.07245 0.0
C602 C 0.29254 0.6641 0.13244 0.0
C603 C 0.29259 0.6635 0.20486 0.0
N604 N 0.2208 0.6232 0.09274 0.0
N605 N 0.26053 0.6432 0.18481 0.0
H606 H 0.28285 0.37338 0.68995 0.0
H607 H 0.43608 0.5552 0.62507 0.0
H608 H 0.29345 0.47692 0.73317 0.0
H609 H 0.43204 0.45046 0.58848 0.0
H610 H 0.379 0.52787 0.65983 0.0
H611 H 0.33205 0.40181 0.64775 0.0
C612 C 0.29534 0.40217 0.69031 0.0
C613 C 0.28456 0.4228 0.71542 0.0
C614 C 0.39039 0.51087 0.64399 0.0
C615 C 0.34097 0.45568 0.66717 0.0
C616 C 0.423 0.52649 0.62396 0.0
C617 C 0.43924 0.50518 0.60376 0.0
C618 C 0.37366 0.47355 0.64397 0.0
C619 C 0.4208 0.46807 0.60363 0.0
C620 C 0.32351 0.41841 0.66629 0.0
C621 C 0.3013 0.46003 0.71448 0.0
N622 N 0.38927 0.4535 0.62351 0.0
N623 N 0.32887 0.47524 0.69102 0.0
H624 H 0.7161 0.69661 0.88043 0.0
H625 H 0.85383 0.63321 1.02518 0.0
H626 H 0.68825 0.67925 0.98829 0.0
H627 H 0.87976 0.64805 0.91646 0.0
H628 H 0.79044 0.64546 1.01142 0.0
H629 H 0.77325 0.67384 0.89205 0.0
C630 C 0.72156 0.6871 0.90635 0.0
C631 C 0.69717 0.68903 0.93331 0.0
C632 C 0.80993 0.6459 0.99054 0.0
C633 C 0.76304 0.66416 0.9472 0.0
C634 C 0.84608 0.6388 0.99837 0.0
C635 C 0.87231 0.63987 0.97199 0.0
C636 C 0.7999 0.65416 0.95607 0.0
C637 C 0.86084 0.64762 0.93776 0.0
C638 C 0.7543 0.6744 0.91309 0.0
C639 C 0.70603 0.67747 0.96672 0.0
N640 N 0.82559 0.65458 0.93083 0.0
N641 N 0.73841 0.66568 0.9728 0.0
H642 H 0.37426 0.81666 0.19211 0.0
H643 H 0.57479 0.95365 0.12834 0.0
H644 H 0.49109 0.80433 0.2143 0.0
H645 H 0.46558 0.98179 0.1309 0.0
H646 H 0.54295 0.89717 0.15625 0.0
H647 H 0.40529 0.87522 0.16671 0.0
C648 C 0.40646 0.82627 0.19172 0.0
C649 C 0.43005 0.80532 0.20533 0.0
C650 C 0.52581 0.91559 0.15078 0.0
C651 C 0.46581 0.87251 0.17599 0.0
C652 C 0.54396 0.94792 0.1347 0.0
C653 C 0.52281 0.97255 0.12702 0.0
C654 C 0.48583 0.9073 0.15919 0.0
C655 C 0.48292 0.9635 0.13599 0.0
C656 C 0.42414 0.85981 0.17732 0.0
C657 C 0.47166 0.8195 0.20441 0.0
N658 N 0.46565 0.93153 0.15143 0.0
N659 N 0.4881 0.85194 0.18976 0.0
H660 H 0.05722 0.2862 0.74105 0.0
H661 H 0.10106 0.11831 0.64902 0.0
H662 H 0.17472 0.274 0.73866 0.0
H663 H 0.98795 0.14005 0.63735 0.0
H664 H 0.12732 0.17199 0.6865 0.0
H665 H 0.02976 0.2292 0.70888 0.0
C666 C 0.07718 0.27129 0.73438 0.0
C667 C 0.11846 0.28524 0.74263 0.0
C668 C 0.0967 0.16496 0.67583 0.0
C669 C 0.08719 0.21976 0.70518 0.0
C670 C 0.0817 0.13424 0.65441 0.0
C671 C 0.04218 0.12449 0.63988 0.0
C672 C 0.072 0.18614 0.68315 0.0
C673 C 0.01859 0.14639 0.64785 0.0
C674 C 0.06154 0.23883 0.71564 0.0
C675 C 0.14278 0.26464 0.73271 0.0
N676 N 0.03374 0.17592 0.66883 0.0
N677 N 0.12692 0.23327 0.71457 0.0
H678 H 0.90738 0.42713 0.50027 0.0
H679 H 0.68153 0.40629 0.43335 0.0
H680 H 0.84165 0.34537 0.42621 0.0
H681 H 0.73705 0.45584 0.53161 0.0
H682 H 0.74288 0.39162 0.42282 0.0
H683 H 0.84841 0.44749 0.50319 0.0
C684 C 0.88062 0.41382 0.48425 0.0
C685 C 0.87911 0.38447 0.46312 0.0
C686 C 0.7415 0.40592 0.44652 0.0
C687 C 0.8116 0.40736 0.46646 0.0
C688 C 0.70644 0.41411 0.45271 0.0
C689 C 0.70394 0.43252 0.48339 0.0
C690 C 0.77437 0.41655 0.47099 0.0
C691 C 0.73759 0.44239 0.5072 0.0
C692 C 0.84696 0.42529 0.48604 0.0
C693 C 0.84382 0.36814 0.44279 0.0
N694 N 0.77129 0.43435 0.50045 0.0
N695 N 0.81124 0.37968 0.44509 0.0
loop_
_geom_bond_atom_site_label_1
_geom_bond_atom_site_label_2
_geom_bond_distance
_geom_bond_site_symmetry_2
_ccdc_geom_bond_type
H0 C7 0.929 . S
H1 C10 0.930 . S
H2 C12 0.929 . S
H3 C4 0.969 . S
C4 H3 0.969 . S
C4 O5 1.550 . S
C4 H6 0.973 . S
O5 C4 1.550 . S
O5 C11 1.412 . S
H6 C4 0.973 . S
C7 H0 0.929 . S
C7 C8 1.400 . S
C7 C9 1.364 . S
C8 C7 1.400 . S
C8 C12 1.377 . S
C9 C7 1.364 . S
C9 C10 1.374 . S
C10 H1 0.930 . S
C10 C9 1.374 . S
C10 C11 1.383 . S
C11 O5 1.412 . S
C11 C10 1.383 . S
C11 C12 1.394 . S
C12 H2 0.929 . S
C12 C8 1.377 . S
C12 C11 1.394 . S
H13 C20 0.929 . S
H14 C23 0.930 . S
H15 C25 0.929 . S
H16 C17 0.969 . S
C17 H16 0.969 . S
C17 O18 1.550 . S
C17 H19 0.973 . S
O18 C17 1.550 . S
O18 C24 1.412 . S
H19 C17 0.973 . S
C20 H13 0.929 . S
C20 C21 1.400 . S
C20 C22 1.364 . S
C21 C20 1.400 . S
C21 C25 1.377 . S
C22 C20 1.364 . S
C22 C23 1.374 . S
C23 H14 0.930 . S
C23 C22 1.374 . S
C23 C24 1.383 . S
C24 O18 1.412 . S
C24 C23 1.383 . S
C24 C25 1.394 . S
C25 H15 0.929 . S
C25 C21 1.377 . S
C25 C24 1.394 . S
H26 C33 0.929 . S
H27 C36 0.930 . S
H28 C38 0.929 . S
H29 C30 0.969 . S
C30 H29 0.969 . S
C30 O31 1.550 . S
C30 H32 0.973 . S
O31 C30 1.550 . S
O31 C37 1.412 . S
H32 C30 0.973 . S
C33 H26 0.929 . S
C33 C34 1.400 . S
C33 C35 1.364 . S
C34 C33 1.400 . S
C34 C38 1.377 . S
C35 C33 1.364 . S
C35 C36 1.374 . S
C36 H27 0.930 . S
C36 C35 1.374 . S
C36 C37 1.383 . S
C37 O31 1.412 . S
C37 C36 1.383 . S
C37 C38 1.394 . S
C38 H28 0.929 . S
C38 C34 1.377 . S
C38 C37 1.394 . S
H39 C46 0.929 . S
H40 C49 0.930 . S
H41 C51 0.929 . S
H42 C43 0.969 . S
C43 H42 0.969 . S
C43 O44 1.550 . S
C43 H45 0.973 . S
O44 C43 1.550 . S
O44 C50 1.412 . S
H45 C43 0.973 . S
C46 H39 0.929 . S
C46 C47 1.400 . S
C46 C48 1.364 . S
C47 C46 1.400 . S
C47 C51 1.377 . S
C48 C46 1.364 . S
C48 C49 1.374 . S
C49 H40 0.930 . S
C49 C48 1.374 . S
C49 C50 1.383 . S
C50 O44 1.412 . S
C50 C49 1.383 . S
C50 C51 1.394 . S
C51 H41 0.929 . S
C51 C47 1.377 . S
C51 C50 1.394 . S
H52 C59 0.929 . S
H53 C62 0.930 . S
H54 C64 0.929 . S
H55 C56 0.969 . S
C56 H55 0.969 . S
C56 O57 1.550 . S
C56 H58 0.973 . S
O57 C56 1.550 . S
O57 C63 1.412 . S
H58 C56 0.973 . S
C59 H52 0.929 . S
C59 C60 1.400 . S
C59 C61 1.364 . S
C60 C59 1.400 . S
C60 C64 1.377 . S
C61 C59 1.364 . S
C61 C62 1.374 . S
C62 H53 0.930 . S
C62 C61 1.374 . S
C62 C63 1.383 . S
C63 O57 1.412 . S
C63 C62 1.383 . S
C63 C64 1.394 . S
C64 H54 0.929 . S
C64 C60 1.377 . S
C64 C63 1.394 . S
H65 C72 0.929 . S
H66 C75 0.930 . S
H67 C77 0.929 . S
H68 C69 0.969 . S
C69 H68 0.969 . S
C69 O70 1.550 . S
C69 H71 0.973 . S
O70 C69 1.550 . S
O70 C76 1.412 . S
H71 C69 0.973 . S
C72 H65 0.929 . S
C72 C73 1.400 . S
C72 C74 1.364 . S
C73 C72 1.400 . S
C73 C77 1.377 . S
C74 C72 1.364 . S
C74 C75 1.374 . S
C75 H66 0.930 . S
C75 C74 1.374 . S
C75 C76 1.383 . S
C76 O70 1.412 . S
C76 C75 1.383 . S
C76 C77 1.394 . S
C77 H67 0.929 . S
C77 C73 1.377 . S
C77 C76 1.394 . S
H78 C85 0.929 . S
H79 C88 0.930 . S
H80 C90 0.929 . S
H81 C82 0.969 . S
C82 H81 0.969 . S
C82 O83 1.550 . S
C82 H84 0.973 . S
O83 C82 1.550 . S
O83 C89 1.412 . S
H84 C82 0.973 . S
C85 H78 0.929 . S
C85 C86 1.400 . S
C85 C87 1.364 . S
C86 C85 1.400 . S
C86 C90 1.377 . S
C87 C85 1.364 . S
C87 C88 1.374 . S
C88 H79 0.930 . S
C88 C87 1.374 . S
C88 C89 1.383 . S
C89 O83 1.412 . S
C89 C88 1.383 . S
C89 C90 1.394 . S
C90 H80 0.929 . S
C90 C86 1.377 . S
C90 C89 1.394 . S
H91 C98 0.929 . S
H92 C101 0.930 . S
H93 C103 0.929 . S
H94 C95 0.969 . S
C95 H94 0.969 . S
C95 O96 1.550 . S
C95 H97 0.973 . S
O96 C95 1.550 . S
O96 C102 1.412 . S
H97 C95 0.973 . S
C98 H91 0.929 . S
C98 C99 1.400 . S
C98 C100 1.364 . S
C99 C98 1.400 . S
C99 C103 1.377 . S
C100 C98 1.364 . S
C100 C101 1.374 . S
C101 H92 0.930 . S
C101 C100 1.374 . S
C101 C102 1.383 . S
C102 O96 1.412 . S
C102 C101 1.383 . S
C102 C103 1.394 . S
C103 H93 0.929 . S
C103 C99 1.377 . S
C103 C102 1.394 . S
Tb104 C106 2.809 1_545 S
Tb104 O124 2.484 1_545 S
Tb104 O125 2.440 1_545 S
Tb104 O126 2.658 1_655 S
Tb104 O127 2.409 1_655 S
Tb104 O128 2.378 1_645 S
Tb104 O132 2.325 1_545 S
Tb104 O135 2.341 . S
Tb105 C115 2.809 . S
Tb105 O126 2.325 . S
Tb105 O129 2.341 1_545 S
Tb105 O130 2.484 . S
Tb105 O131 2.440 . S
Tb105 O132 2.658 1_445 S
Tb105 O133 2.409 1_545 S
Tb105 O134 2.378 . S
C106 Tb104 2.809 1_565 S
C106 C107 1.514 . S
C106 O124 1.248 . S
C106 O125 1.266 . S
C107 C106 1.514 . S
C107 C108 1.359 . S
C107 C112 1.348 . S
C108 C107 1.359 . S
C108 C109 1.380 . S
C108 H136 0.929 . S
C109 C108 1.380 . S
C109 C110 1.347 . S
C109 H137 0.931 . S
C110 C109 1.347 . S
C110 C111 1.369 . S
C111 C110 1.369 . S
C111 C112 1.408 . S
C111 H138 0.930 . S
C112 C107 1.348 . S
C112 C111 1.408 . S
C112 H139 0.930 . S
C113 O126 1.281 . S
C113 O127 1.254 . S
C114 O128 1.236 . S
C114 O129 1.266 . S
C115 Tb105 2.809 . S
C115 C116 1.514 . S
C115 O130 1.248 . S
C115 O131 1.266 . S
C116 C115 1.514 . S
C116 C117 1.359 . S
C116 C121 1.348 . S
C117 C116 1.359 . S
C117 C118 1.380 . S
C117 H140 0.929 . S
C118 C117 1.380 . S
C118 C119 1.347 . S
C118 H141 0.931 . S
C119 C118 1.347 . S
C119 C120 1.369 . S
C120 C119 1.369 . S
C120 C121 1.408 . S
C120 H142 0.930 . S
C121 C116 1.348 . S
C121 C120 1.408 . S
C121 H143 0.930 . S
C122 O132 1.281 . S
C122 O133 1.254 1_655 S
C123 O134 1.236 1_655 S
C123 O135 1.266 . S
O124 Tb104 2.484 1_565 S
O124 C106 1.248 . S
O125 Tb104 2.440 1_565 S
O125 C106 1.266 . S
O126 Tb104 2.658 1_455 S
O126 Tb105 2.325 . S
O126 C113 1.281 . S
O127 Tb104 2.409 1_455 S
O127 C113 1.254 . S
O128 Tb104 2.378 1_465 S
O128 C114 1.236 . S
O129 Tb105 2.341 1_565 S
O129 C114 1.266 . S
O130 Tb105 2.484 . S
O130 C115 1.248 . S
O131 Tb105 2.440 . S
O131 C115 1.266 . S
O132 Tb104 2.325 1_565 S
O132 Tb105 2.658 1_665 S
O132 C122 1.281 . S
O133 Tb105 2.409 1_565 S
O133 C122 1.254 1_455 S
O134 Tb105 2.378 . S
O134 C123 1.236 1_455 S
O135 Tb104 2.341 . S
O135 C123 1.266 . S
H136 C108 0.929 . S
H137 C109 0.931 . S
H138 C111 0.930 . S
H139 C112 0.930 . S
H140 C117 0.929 . S
H141 C118 0.931 . S
H142 C120 0.930 . S
H143 C121 0.930 . S
Tb144 C146 2.809 . S
Tb144 O164 2.484 . S
Tb144 O165 2.440 . S
Tb144 O166 2.658 1_545 S
Tb144 O167 2.409 1_545 S
Tb144 O168 2.378 . S
Tb144 O172 2.325 1_554 S
Tb144 O175 2.341 1_544 S
Tb145 C155 2.809 1_545 S
Tb145 O166 2.325 1_546 S
Tb145 O169 2.341 1_556 S
Tb145 O170 2.484 1_545 S
Tb145 O171 2.440 1_545 S
Tb145 O172 2.658 . S
Tb145 O173 2.409 . S
Tb145 O174 2.378 1_545 S
C146 Tb144 2.809 . S
C146 C147 1.514 . S
C146 O164 1.248 . S
C146 O165 1.266 . S
C147 C146 1.514 . S
C147 C148 1.359 . S
C147 C152 1.348 . S
C148 C147 1.359 . S
C148 C149 1.380 . S
C148 H176 0.929 . S
C149 C148 1.380 . S
C149 C150 1.347 . S
C149 H177 0.931 . S
C150 C149 1.347 . S
C150 C151 1.369 . S
C151 C150 1.369 . S
C151 C152 1.408 . S
C151 H178 0.930 . S
C152 C147 1.348 . S
C152 C151 1.408 . S
C152 H179 0.930 . S
C153 O166 1.281 . S
C153 O167 1.254 . S
C154 O168 1.236 . S
C154 O169 1.266 . S
C155 Tb145 2.809 1_565 S
C155 C156 1.514 . S
C155 O170 1.248 . S
C155 O171 1.266 . S
C156 C155 1.514 . S
C156 C157 1.359 . S
C156 C161 1.348 . S
C157 C156 1.359 . S
C157 C158 1.380 . S
C157 H180 0.929 . S
C158 C157 1.380 . S
C158 C159 1.347 . S
C158 H181 0.931 . S
C159 C158 1.347 . S
C159 C160 1.369 . S
C160 C159 1.369 . S
C160 C161 1.408 . S
C160 H182 0.930 . S
C161 C156 1.348 . S
C161 C160 1.408 . S
C161 H183 0.930 . S
C162 O172 1.281 . S
C162 O173 1.254 . S
C163 O174 1.236 . S
C163 O175 1.266 . S
O164 Tb144 2.484 . S
O164 C146 1.248 . S
O165 Tb144 2.440 . S
O165 C146 1.266 . S
O166 Tb144 2.658 1_565 S
O166 Tb145 2.325 1_564 S
O166 C153 1.281 . S
O167 Tb144 2.409 1_565 S
O167 C153 1.254 . S
O168 Tb144 2.378 . S
O168 C154 1.236 . S
O169 Tb145 2.341 1_554 S
O169 C154 1.266 . S
O170 Tb145 2.484 1_565 S
O170 C155 1.248 . S
O171 Tb145 2.440 1_565 S
O171 C155 1.266 . S
O172 Tb144 2.325 1_556 S
O172 Tb145 2.658 . S
O172 C162 1.281 . S
O173 Tb145 2.409 . S
O173 C162 1.254 . S
O174 Tb145 2.378 1_565 S
O174 C163 1.236 . S
O175 Tb144 2.341 1_566 S
O175 C163 1.266 . S
H176 C148 0.929 . S
H177 C149 0.931 . S
H178 C151 0.930 . S
H179 C152 0.930 . S
H180 C157 0.929 . S
H181 C158 0.931 . S
H182 C160 0.930 . S
H183 C161 0.930 . S
Tb184 C186 2.809 . S
Tb184 O204 2.484 . S
Tb184 O205 2.440 . S
Tb184 O206 2.658 . S
Tb184 O207 2.409 . S
Tb184 O208 2.378 . S
Tb184 O212 2.325 . S
Tb184 O215 2.341 . S
Tb185 C195 2.809 . S
Tb185 O206 2.325 . S
Tb185 O209 2.341 . S
Tb185 O210 2.484 . S
Tb185 O211 2.440 . S
Tb185 O212 2.658 . S
Tb185 O213 2.409 . S
Tb185 O214 2.378 . S
C186 Tb184 2.809 . S
C186 C187 1.514 . S
C186 O204 1.248 . S
C186 O205 1.266 . S
C187 C186 1.514 . S
C187 C188 1.359 . S
C187 C192 1.348 . S
C188 C187 1.359 . S
C188 C189 1.380 . S
C188 H216 0.929 . S
C189 C188 1.380 . S
C189 C190 1.347 . S
C189 H217 0.931 . S
C190 C189 1.347 . S
C190 C191 1.369 . S
C191 C190 1.369 . S
C191 C192 1.408 . S
C191 H218 0.930 . S
C192 C187 1.348 . S
C192 C191 1.408 . S
C192 H219 0.930 . S
C193 O206 1.281 . S
C193 O207 1.254 . S
C194 O208 1.236 . S
C194 O209 1.266 . S
C195 Tb185 2.809 . S
C195 C196 1.514 . S
C195 O210 1.248 . S
C195 O211 1.266 . S
C196 C195 1.514 . S
C196 C197 1.359 . S
C196 C201 1.348 . S
C197 C196 1.359 . S
C197 C198 1.380 . S
C197 H220 0.929 . S
C198 C197 1.380 . S
C198 C199 1.347 . S
C198 H221 0.931 . S
C199 C198 1.347 . S
C199 C200 1.369 . S
C200 C199 1.369 . S
C200 C201 1.408 . S
C200 H222 0.930 . S
C201 C196 1.348 . S
C201 C200 1.408 . S
C201 H223 0.930 . S
C202 O212 1.281 . S
C202 O213 1.254 . S
C203 O214 1.236 . S
C203 O215 1.266 . S
O204 Tb184 2.484 . S
O204 C186 1.248 . S
O205 Tb184 2.440 . S
O205 C186 1.266 . S
O206 Tb184 2.658 . S
O206 Tb185 2.325 . S
O206 C193 1.281 . S
O207 Tb184 2.409 . S
O207 C193 1.254 . S
O208 Tb184 2.378 . S
O208 C194 1.236 . S
O209 Tb185 2.341 . S
O209 C194 1.266 . S
O210 Tb185 2.484 . S
O210 C195 1.248 . S
O211 Tb185 2.440 . S
O211 C195 1.266 . S
O212 Tb184 2.325 . S
O212 Tb185 2.658 . S
O212 C202 1.281 . S
O213 Tb185 2.409 . S
O213 C202 1.254 . S
O214 Tb185 2.378 . S
O214 C203 1.236 . S
O215 Tb184 2.341 . S
O215 C203 1.266 . S
H216 C188 0.929 . S
H217 C189 0.931 . S
H218 C191 0.930 . S
H219 C192 0.930 . S
H220 C197 0.929 . S
H221 C198 0.931 . S
H222 C200 0.930 . S
H223 C201 0.930 . S
Tb224 C226 2.809 1_455 S
Tb224 O244 2.484 1_455 S
Tb224 O245 2.440 . S
Tb224 O246 2.658 . S
Tb224 O247 2.409 . S
Tb224 O248 2.378 1_455 S
Tb224 O252 2.325 1_455 S
Tb224 O255 2.341 1_554 S
Tb225 C235 2.809 . S
Tb225 O246 2.325 . S
Tb225 O249 2.341 1_455 S
Tb225 O250 2.484 . S
Tb225 O251 2.440 . S
Tb225 O252 2.658 1_455 S
Tb225 O253 2.409 1_455 S
Tb225 O254 2.378 . S
C226 Tb224 2.809 1_655 S
C226 C227 1.514 . S
C226 O244 1.248 . S
C226 O245 1.266 1_655 S
C227 C226 1.514 . S
C227 C228 1.358 1_554 S
C227 C232 1.349 . S
C228 C227 1.358 1_556 S
C228 C229 1.380 . S
C228 H256 0.929 . S
C229 C228 1.380 . S
C229 C230 1.347 . S
C229 H257 0.931 . S
C230 C229 1.347 . S
C230 C231 1.369 . S
C231 C230 1.369 . S
C231 C232 1.408 1_556 S
C231 H258 0.930 . S
C232 C227 1.349 . S
C232 C231 1.408 1_554 S
C232 H259 0.930 . S
C233 O246 1.281 . S
C233 O247 1.254 . S
C234 O248 1.236 . S
C234 O249 1.266 . S
C235 Tb225 2.809 . S
C235 C236 1.514 . S
C235 O250 1.248 . S
C235 O251 1.266 . S
C236 C235 1.514 . S
C236 C237 1.359 . S
C236 C241 1.348 . S
C237 C236 1.359 . S
C237 C238 1.380 . S
C237 H260 0.929 . S
C238 C237 1.380 . S
C238 C239 1.347 . S
C238 H261 0.931 . S
C239 C238 1.347 . S
C239 C240 1.369 . S
C240 C239 1.369 . S
C240 C241 1.408 . S
C240 H262 0.930 . S
C241 C236 1.348 . S
C241 C240 1.408 . S
C241 H263 0.930 . S
C242 O252 1.281 . S
C242 O253 1.254 . S
C243 O254 1.236 . S
C243 O255 1.266 1_554 S
O244 Tb224 2.484 1_655 S
O244 C226 1.248 . S
O245 Tb224 2.440 . S
O245 C226 1.266 1_455 S
O246 Tb224 2.658 . S
O246 Tb225 2.325 . S
O246 C233 1.281 . S
O247 Tb224 2.409 . S
O247 C233 1.254 . S
O248 Tb224 2.378 1_655 S
O248 C234 1.236 . S
O249 Tb225 2.341 1_655 S
O249 C234 1.266 . S
O250 Tb225 2.484 . S
O250 C235 1.248 . S
O251 Tb225 2.440 . S
O251 C235 1.266 . S
O252 Tb224 2.325 1_655 S
O252 Tb225 2.658 1_655 S
O252 C242 1.281 . S
O253 Tb225 2.409 1_655 S
O253 C242 1.254 . S
O254 Tb225 2.378 . S
O254 C243 1.236 . S
O255 Tb224 2.341 1_556 S
O255 C243 1.266 1_556 S
H256 C228 0.929 . S
H257 C229 0.931 . S
H258 C231 0.930 . S
H259 C232 0.930 . S
H260 C237 0.929 . S
H261 C238 0.931 . S
H262 C240 0.930 . S
H263 C241 0.930 . S
H264 C270 0.930 . S
H265 C274 0.930 . S
H266 C279 0.929 . S
H267 C277 0.929 . S
H268 C272 0.929 . S
H269 C278 0.929 . S
C270 H264 0.930 . S
C270 C271 1.367 . S
C270 C278 1.378 . S
C271 C270 1.367 . S
C271 C279 1.433 . S
C272 H268 0.929 . S
C272 C274 1.378 . S
C272 C276 1.350 . S
C273 C276 1.463 . S
C273 C278 1.350 . S
C273 N281 1.427 . S
C274 H265 0.930 . S
C274 C272 1.378 . S
C274 C275 1.367 . S
C275 C274 1.367 . S
C275 C277 1.433 . S
C276 C272 1.350 . S
C276 C273 1.463 . S
C276 N280 1.427 . S
C277 H267 0.929 . S
C277 C275 1.433 . S
C277 N280 1.384 . S
C278 H269 0.929 . S
C278 C270 1.378 . S
C278 C273 1.350 . S
C279 H266 0.929 . S
C279 C271 1.433 . S
C279 N281 1.384 . S
N280 C276 1.427 . S
N280 C277 1.384 . S
N281 C273 1.427 . S
N281 C279 1.384 . S
H282 C288 0.930 . S
H283 C292 0.930 . S
H284 C297 0.929 . S
H285 C295 0.929 . S
H286 C290 0.929 . S
H287 C296 0.929 . S
C288 H282 0.930 . S
C288 C289 1.367 . S
C288 C296 1.378 . S
C289 C288 1.367 . S
C289 C297 1.433 . S
C290 H286 0.929 . S
C290 C292 1.378 . S
C290 C294 1.350 . S
C291 C294 1.463 . S
C291 C296 1.350 . S
C291 N299 1.427 . S
C292 H283 0.930 . S
C292 C290 1.378 . S
C292 C293 1.367 . S
C293 C292 1.367 . S
C293 C295 1.433 . S
C294 C290 1.350 . S
C294 C291 1.463 . S
C294 N298 1.427 . S
C295 H285 0.929 . S
C295 C293 1.433 . S
C295 N298 1.384 . S
C296 H287 0.929 . S
C296 C288 1.378 . S
C296 C291 1.350 . S
C297 H284 0.929 . S
C297 C289 1.433 . S
C297 N299 1.384 . S
N298 C294 1.427 . S
N298 C295 1.384 . S
N299 C291 1.427 . S
N299 C297 1.384 . S
H300 C306 0.930 . S
H301 C310 0.930 . S
H302 C315 0.929 . S
H303 C313 0.929 . S
H304 C308 0.929 . S
H305 C314 0.929 . S
C306 H300 0.930 . S
C306 C307 1.367 . S
C306 C314 1.378 . S
C307 C306 1.367 . S
C307 C315 1.433 . S
C308 H304 0.929 . S
C308 C310 1.378 . S
C308 C312 1.350 . S
C309 C312 1.463 . S
C309 C314 1.350 . S
C309 N317 1.427 . S
C310 H301 0.930 . S
C310 C308 1.378 . S
C310 C311 1.367 . S
C311 C310 1.367 . S
C311 C313 1.433 . S
C312 C308 1.350 . S
C312 C309 1.463 . S
C312 N316 1.427 . S
C313 H303 0.929 . S
C313 C311 1.433 . S
C313 N316 1.384 . S
C314 H305 0.929 . S
C314 C306 1.378 . S
C314 C309 1.350 . S
C315 H302 0.929 . S
C315 C307 1.433 . S
C315 N317 1.384 . S
N316 C312 1.427 . S
N316 C313 1.384 . S
N317 C309 1.427 . S
N317 C315 1.384 . S
H318 C324 0.930 . S
H319 C328 0.930 . S
H320 C333 0.929 . S
H321 C331 0.929 . S
H322 C326 0.929 . S
H323 C332 0.929 . S
C324 H318 0.930 . S
C324 C325 1.367 . S
C324 C332 1.378 . S
C325 C324 1.367 . S
C325 C333 1.433 . S
C326 H322 0.929 . S
C326 C328 1.378 . S
C326 C330 1.350 . S
C327 C330 1.463 . S
C327 C332 1.350 . S
C327 N335 1.427 . S
C328 H319 0.930 . S
C328 C326 1.378 . S
C328 C329 1.367 . S
C329 C328 1.367 . S
C329 C331 1.433 . S
C330 C326 1.350 . S
C330 C327 1.463 . S
C330 N334 1.427 . S
C331 H321 0.929 . S
C331 C329 1.433 . S
C331 N334 1.384 . S
C332 H323 0.929 . S
C332 C324 1.378 . S
C332 C327 1.350 . S
C333 H320 0.929 . S
C333 C325 1.433 . S
C333 N335 1.384 . S
N334 C330 1.427 . S
N334 C331 1.384 . S
N335 C327 1.427 . S
N335 C333 1.384 . S
H336 C342 0.930 . S
H337 C346 0.930 . S
H338 C351 0.929 . S
H339 C349 0.929 . S
H340 C344 0.929 . S
H341 C350 0.929 . S
C342 H336 0.930 . S
C342 C343 1.367 . S
C342 C350 1.378 . S
C343 C342 1.367 . S
C343 C351 1.433 . S
C344 H340 0.929 . S
C344 C346 1.378 . S
C344 C348 1.350 . S
C345 C348 1.463 . S
C345 C350 1.350 . S
C345 N353 1.427 . S
C346 H337 0.930 . S
C346 C344 1.378 . S
C346 C347 1.367 . S
C347 C346 1.367 . S
C347 C349 1.433 . S
C348 C344 1.350 . S
C348 C345 1.463 . S
C348 N352 1.427 . S
C349 H339 0.929 . S
C349 C347 1.433 . S
C349 N352 1.384 . S
C350 H341 0.929 . S
C350 C342 1.378 . S
C350 C345 1.350 . S
C351 H338 0.929 . S
C351 C343 1.433 . S
C351 N353 1.384 . S
N352 C348 1.427 . S
N352 C349 1.384 . S
N353 C345 1.427 . S
N353 C351 1.384 . S
H354 C360 0.930 . S
H355 C364 0.930 . S
H356 C369 0.929 . S
H357 C367 0.929 . S
H358 C362 0.929 . S
H359 C368 0.929 . S
C360 H354 0.930 . S
C360 C361 1.367 . S
C360 C368 1.378 . S
C361 C360 1.367 . S
C361 C369 1.433 . S
C362 H358 0.929 . S
C362 C364 1.378 . S
C362 C366 1.350 . S
C363 C366 1.463 . S
C363 C368 1.350 . S
C363 N371 1.427 . S
C364 H355 0.930 . S
C364 C362 1.378 . S
C364 C365 1.367 . S
C365 C364 1.367 . S
C365 C367 1.433 . S
C366 C362 1.350 . S
C366 C363 1.463 . S
C366 N370 1.427 . S
C367 H357 0.929 . S
C367 C365 1.433 . S
C367 N370 1.384 . S
C368 H359 0.929 . S
C368 C360 1.378 . S
C368 C363 1.350 . S
C369 H356 0.929 . S
C369 C361 1.433 . S
C369 N371 1.384 . S
N370 C366 1.427 . S
N370 C367 1.384 . S
N371 C363 1.427 . S
N371 C369 1.384 . S
H372 C378 0.930 . S
H373 C382 0.930 . S
H374 C387 0.929 . S
H375 C385 0.929 . S
H376 C380 0.929 . S
H377 C386 0.929 . S
C378 H372 0.930 . S
C378 C379 1.367 . S
C378 C386 1.378 . S
C379 C378 1.367 . S
C379 C387 1.433 . S
C380 H376 0.929 . S
C380 C382 1.378 . S
C380 C384 1.350 . S
C381 C384 1.463 . S
C381 C386 1.350 . S
C381 N389 1.427 . S
C382 H373 0.930 . S
C382 C380 1.378 . S
C382 C383 1.367 . S
C383 C382 1.367 . S
C383 C385 1.433 . S
C384 C380 1.350 . S
C384 C381 1.463 . S
C384 N388 1.427 . S
C385 H375 0.929 . S
C385 C383 1.433 . S
C385 N388 1.384 . S
C386 H377 0.929 . S
C386 C378 1.378 . S
C386 C381 1.350 . S
C387 H374 0.929 . S
C387 C379 1.433 . S
C387 N389 1.384 . S
N388 C384 1.427 . S
N388 C385 1.384 . S
N389 C381 1.427 . S
N389 C387 1.384 . S
H390 C396 0.930 . S
H391 C400 0.930 . S
H392 C405 0.929 . S
H393 C403 0.929 . S
H394 C398 0.929 . S
H395 C404 0.929 . S
C396 H390 0.930 . S
C396 C397 1.367 . S
C396 C404 1.378 . S
C397 C396 1.367 . S
C397 C405 1.433 . S
C398 H394 0.929 . S
C398 C400 1.378 . S
C398 C402 1.350 . S
C399 C402 1.463 . S
C399 C404 1.350 . S
C399 N407 1.427 . S
C400 H391 0.930 . S
C400 C398 1.378 . S
C400 C401 1.367 . S
C401 C400 1.367 . S
C401 C403 1.433 . S
C402 C398 1.350 . S
C402 C399 1.463 . S
C402 N406 1.427 . S
C403 H393 0.929 . S
C403 C401 1.433 . S
C403 N406 1.384 . S
C404 H395 0.929 . S
C404 C396 1.378 . S
C404 C399 1.350 . S
C405 H392 0.929 . S
C405 C397 1.433 . S
C405 N407 1.384 . S
N406 C402 1.427 . S
N406 C403 1.384 . S
N407 C399 1.427 . S
N407 C405 1.384 . S
H408 C414 0.930 . S
H409 C418 0.930 . S
H410 C423 0.929 . S
H411 C421 0.929 . S
H412 C416 0.929 . S
H413 C422 0.929 . S
C414 H408 0.930 . S
C414 C415 1.367 . S
C414 C422 1.378 . S
C415 C414 1.367 . S
C415 C423 1.433 . S
C416 H412 0.929 . S
C416 C418 1.378 . S
C416 C420 1.350 . S
C417 C420 1.463 . S
C417 C422 1.350 . S
C417 N425 1.427 . S
C418 H409 0.930 . S
C418 C416 1.378 . S
C418 C419 1.367 . S
C419 C418 1.367 . S
C419 C421 1.433 . S
C420 C416 1.350 . S
C420 C417 1.463 . S
C420 N424 1.427 . S
C421 H411 0.929 . S
C421 C419 1.433 . S
C421 N424 1.384 . S
C422 H413 0.929 . S
C422 C414 1.378 . S
C422 C417 1.350 . S
C423 H410 0.929 . S
C423 C415 1.433 . S
C423 N425 1.384 . S
N424 C420 1.427 . S
N424 C421 1.384 . S
N425 C417 1.427 . S
N425 C423 1.384 . S
H426 C432 0.930 . S
H427 C436 0.930 . S
H428 C441 0.929 . S
H429 C439 0.929 . S
H430 C434 0.929 . S
H431 C440 0.929 . S
C432 H426 0.930 . S
C432 C433 1.367 . S
C432 C440 1.378 . S
C433 C432 1.367 . S
C433 C441 1.433 . S
C434 H430 0.929 . S
C434 C436 1.378 . S
C434 C438 1.350 . S
C435 C438 1.463 . S
C435 C440 1.350 . S
C435 N443 1.427 . S
C436 H427 0.930 . S
C436 C434 1.378 . S
C436 C437 1.367 . S
C437 C436 1.367 . S
C437 C439 1.433 . S
C438 C434 1.350 . S
C438 C435 1.463 . S
C438 N442 1.427 . S
C439 H429 0.929 . S
C439 C437 1.433 . S
C439 N442 1.384 . S
C440 H431 0.929 . S
C440 C432 1.378 . S
C440 C435 1.350 . S
C441 H428 0.929 . S
C441 C433 1.433 . S
C441 N443 1.384 . S
N442 C438 1.427 . S
N442 C439 1.384 . S
N443 C435 1.427 . S
N443 C441 1.384 . S
H444 C450 0.930 . S
H445 C454 0.930 . S
H446 C459 0.929 . S
H447 C457 0.929 . S
H448 C452 0.929 . S
H449 C458 0.929 . S
C450 H444 0.930 . S
C450 C451 1.367 . S
C450 C458 1.378 . S
C451 C450 1.367 . S
C451 C459 1.433 . S
C452 H448 0.929 . S
C452 C454 1.378 . S
C452 C456 1.350 . S
C453 C456 1.463 . S
C453 C458 1.350 . S
C453 N461 1.427 . S
C454 H445 0.930 . S
C454 C452 1.378 . S
C454 C455 1.367 . S
C455 C454 1.367 . S
C455 C457 1.433 . S
C456 C452 1.350 . S
C456 C453 1.463 . S
C456 N460 1.427 . S
C457 H447 0.929 . S
C457 C455 1.433 . S
C457 N460 1.384 . S
C458 H449 0.929 . S
C458 C450 1.378 . S
C458 C453 1.350 . S
C459 H446 0.929 . S
C459 C451 1.433 . S
C459 N461 1.384 . S
N460 C456 1.427 . S
N460 C457 1.384 . S
N461 C453 1.427 . S
N461 C459 1.384 . S
H462 C468 0.930 . S
H463 C472 0.930 . S
H464 C477 0.929 . S
H465 C475 0.929 . S
H466 C470 0.929 . S
H467 C476 0.929 . S
C468 H462 0.930 . S
C468 C469 1.367 . S
C468 C476 1.378 . S
C469 C468 1.367 . S
C469 C477 1.433 . S
C470 H466 0.929 . S
C470 C472 1.378 . S
C470 C474 1.350 . S
C471 C474 1.463 . S
C471 C476 1.350 . S
C471 N479 1.427 . S
C472 H463 0.930 . S
C472 C470 1.378 . S
C472 C473 1.367 . S
C473 C472 1.367 . S
C473 C475 1.433 . S
C474 C470 1.350 . S
C474 C471 1.463 . S
C474 N478 1.427 . S
C475 H465 0.929 . S
C475 C473 1.433 . S
C475 N478 1.384 . S
C476 H467 0.929 . S
C476 C468 1.378 . S
C476 C471 1.350 . S
C477 H464 0.929 . S
C477 C469 1.433 . S
C477 N479 1.384 . S
N478 C474 1.427 . S
N478 C475 1.384 . S
N479 C471 1.427 . S
N479 C477 1.384 . S
H480 C486 0.930 . S
H481 C490 0.930 . S
H482 C495 0.929 . S
H483 C493 0.929 . S
H484 C488 0.929 . S
H485 C494 0.929 . S
C486 H480 0.930 . S
C486 C487 1.367 . S
C486 C494 1.378 . S
C487 C486 1.367 . S
C487 C495 1.433 . S
C488 H484 0.929 . S
C488 C490 1.378 . S
C488 C492 1.350 . S
C489 C492 1.463 . S
C489 C494 1.350 . S
C489 N497 1.427 . S
C490 H481 0.930 . S
C490 C488 1.378 . S
C490 C491 1.367 . S
C491 C490 1.367 . S
C491 C493 1.433 . S
C492 C488 1.350 . S
C492 C489 1.463 . S
C492 N496 1.427 . S
C493 H483 0.929 . S
C493 C491 1.433 . S
C493 N496 1.384 . S
C494 H485 0.929 . S
C494 C486 1.378 . S
C494 C489 1.350 . S
C495 H482 0.929 . S
C495 C487 1.433 . S
C495 N497 1.384 . S
N496 C492 1.427 . S
N496 C493 1.384 . S
N497 C489 1.427 . S
N497 C495 1.384 . S
H498 C504 0.930 . S
H499 C508 0.930 . S
H500 C513 0.929 . S
H501 C511 0.929 . S
H502 C506 0.929 . S
H503 C512 0.929 . S
C504 H498 0.930 . S
C504 C505 1.367 . S
C504 C512 1.378 . S
C505 C504 1.367 . S
C505 C513 1.433 . S
C506 H502 0.929 . S
C506 C508 1.378 . S
C506 C510 1.350 . S
C507 C510 1.463 . S
C507 C512 1.350 . S
C507 N515 1.427 . S
C508 H499 0.930 . S
C508 C506 1.378 . S
C508 C509 1.367 . S
C509 C508 1.367 . S
C509 C511 1.433 . S
C510 C506 1.350 . S
C510 C507 1.463 . S
C510 N514 1.427 . S
C511 H501 0.929 . S
C511 C509 1.433 . S
C511 N514 1.384 . S
C512 H503 0.929 . S
C512 C504 1.378 . S
C512 C507 1.350 . S
C513 H500 0.929 . S
C513 C505 1.433 . S
C513 N515 1.384 . S
N514 C510 1.427 . S
N514 C511 1.384 . S
N515 C507 1.427 . S
N515 C513 1.384 . S
H516 C522 0.930 . S
H517 C526 0.930 . S
H518 C531 0.929 . S
H519 C529 0.929 . S
H520 C524 0.929 . S
H521 C530 0.929 . S
C522 H516 0.930 . S
C522 C523 1.367 . S
C522 C530 1.378 . S
C523 C522 1.367 . S
C523 C531 1.433 . S
C524 H520 0.929 . S
C524 C526 1.378 . S
C524 C528 1.350 . S
C525 C528 1.463 . S
C525 C530 1.350 . S
C525 N533 1.427 . S
C526 H517 0.930 . S
C526 C524 1.378 . S
C526 C527 1.367 . S
C527 C526 1.367 . S
C527 C529 1.433 . S
C528 C524 1.350 . S
C528 C525 1.463 . S
C528 N532 1.427 . S
C529 H519 0.929 . S
C529 C527 1.433 . S
C529 N532 1.384 . S
C530 H521 0.929 . S
C530 C522 1.378 . S
C530 C525 1.350 . S
C531 H518 0.929 . S
C531 C523 1.433 . S
C531 N533 1.384 . S
N532 C528 1.427 . S
N532 C529 1.384 . S
N533 C525 1.427 . S
N533 C531 1.384 . S
H534 C540 0.930 . S
H535 C544 0.930 . S
H536 C549 0.929 . S
H537 C547 0.929 . S
H538 C542 0.929 . S
H539 C548 0.929 . S
C540 H534 0.930 . S
C540 C541 1.367 . S
C540 C548 1.378 . S
C541 C540 1.367 . S
C541 C549 1.433 . S
C542 H538 0.929 . S
C542 C544 1.378 . S
C542 C546 1.350 . S
C543 C546 1.463 . S
C543 C548 1.350 . S
C543 N551 1.427 . S
C544 H535 0.930 . S
C544 C542 1.378 . S
C544 C545 1.367 . S
C545 C544 1.367 . S
C545 C547 1.433 . S
C546 C542 1.350 . S
C546 C543 1.463 . S
C546 N550 1.427 . S
C547 H537 0.929 . S
C547 C545 1.433 . S
C547 N550 1.384 . S
C548 H539 0.929 . S
C548 C540 1.378 . S
C548 C543 1.350 . S
C549 H536 0.929 . S
C549 C541 1.433 . S
C549 N551 1.384 . S
N550 C546 1.427 . S
N550 C547 1.384 . S
N551 C543 1.427 . S
N551 C549 1.384 . S
H552 C558 0.930 . S
H553 C562 0.930 . S
H554 C567 0.929 . S
H555 C565 0.929 . S
H556 C560 0.929 . S
H557 C566 0.929 . S
C558 H552 0.930 . S
C558 C559 1.367 . S
C558 C566 1.378 . S
C559 C558 1.367 . S
C559 C567 1.433 . S
C560 H556 0.929 . S
C560 C562 1.378 . S
C560 C564 1.350 . S
C561 C564 1.463 . S
C561 C566 1.350 . S
C561 N569 1.427 . S
C562 H553 0.930 . S
C562 C560 1.378 . S
C562 C563 1.367 . S
C563 C562 1.367 . S
C563 C565 1.433 . S
C564 C560 1.350 . S
C564 C561 1.463 . S
C564 N568 1.427 . S
C565 H555 0.929 . S
C565 C563 1.433 . S
C565 N568 1.384 . S
C566 H557 0.929 . S
C566 C558 1.378 . S
C566 C561 1.350 . S
C567 H554 0.929 . S
C567 C559 1.433 . S
C567 N569 1.384 . S
N568 C564 1.427 . S
N568 C565 1.384 . S
N569 C561 1.427 . S
N569 C567 1.384 . S
H570 C576 0.930 1_455 S
H571 C580 0.930 . S
H572 C585 0.929 . S
H573 C583 0.929 . S
H574 C578 0.929 . S
H575 C584 0.946 . S
C576 H570 0.930 1_655 S
C576 C577 1.367 . S
C576 C584 1.372 1_655 S
C577 C576 1.367 . S
C577 C585 1.433 . S
C578 H574 0.929 . S
C578 C580 1.378 . S
C578 C582 1.350 . S
C579 C582 1.463 . S
C579 C584 1.338 1_655 S
C579 N587 1.427 . S
C580 H571 0.930 . S
C580 C578 1.378 . S
C580 C581 1.367 . S
C581 C580 1.367 . S
C581 C583 1.433 1_655 S
C582 C578 1.350 . S
C582 C579 1.463 . S
C582 N586 1.427 1_655 S
C583 H573 0.929 . S
C583 C581 1.433 1_455 S
C583 N586 1.384 . S
C584 H575 0.946 . S
C584 C576 1.372 1_455 S
C584 C579 1.338 1_455 S
C585 H572 0.929 . S
C585 C577 1.433 . S
C585 N587 1.384 . S
N586 C582 1.427 1_455 S
N586 C583 1.384 . S
N587 C579 1.427 . S
N587 C585 1.384 . S
H588 C594 0.930 . S
H589 C598 0.930 . S
H590 C603 0.929 . S
H591 C601 0.929 . S
H592 C596 0.929 . S
H593 C602 0.929 . S
C594 H588 0.930 . S
C594 C595 1.367 . S
C594 C602 1.378 . S
C595 C594 1.367 . S
C595 C603 1.433 . S
C596 H592 0.929 . S
C596 C598 1.378 . S
C596 C600 1.350 . S
C597 C600 1.463 . S
C597 C602 1.350 . S
C597 N605 1.427 . S
C598 H589 0.930 . S
C598 C596 1.378 . S
C598 C599 1.367 . S
C599 C598 1.367 . S
C599 C601 1.433 . S
C600 C596 1.350 . S
C600 C597 1.463 . S
C600 N604 1.427 . S
C601 H591 0.929 . S
C601 C599 1.433 . S
C601 N604 1.384 . S
C602 H593 0.929 . S
C602 C594 1.378 . S
C602 C597 1.350 . S
C603 H590 0.929 . S
C603 C595 1.433 . S
C603 N605 1.384 . S
N604 C600 1.427 . S
N604 C601 1.384 . S
N605 C597 1.427 . S
N605 C603 1.384 . S
H606 C612 0.930 . S
H607 C616 0.930 . S
H608 C621 0.929 . S
H609 C619 0.929 . S
H610 C614 0.929 . S
H611 C620 0.929 . S
C612 H606 0.930 . S
C612 C613 1.367 . S
C612 C620 1.378 . S
C613 C612 1.367 . S
C613 C621 1.433 . S
C614 H610 0.929 . S
C614 C616 1.378 . S
C614 C618 1.350 . S
C615 C618 1.463 . S
C615 C620 1.350 . S
C615 N623 1.427 . S
C616 H607 0.930 . S
C616 C614 1.378 . S
C616 C617 1.367 . S
C617 C616 1.367 . S
C617 C619 1.433 . S
C618 C614 1.350 . S
C618 C615 1.463 . S
C618 N622 1.427 . S
C619 H609 0.929 . S
C619 C617 1.433 . S
C619 N622 1.384 . S
C620 H611 0.929 . S
C620 C612 1.378 . S
C620 C615 1.350 . S
C621 H608 0.929 . S
C621 C613 1.433 . S
C621 N623 1.384 . S
N622 C618 1.427 . S
N622 C619 1.384 . S
N623 C615 1.427 . S
N623 C621 1.384 . S
H624 C630 0.930 . S
H625 C634 0.930 . S
H626 C639 0.929 . S
H627 C637 0.929 . S
H628 C632 0.929 . S
H629 C638 0.929 . S
C630 H624 0.930 . S
C630 C631 1.367 . S
C630 C638 1.378 . S
C631 C630 1.367 . S
C631 C639 1.433 . S
C632 H628 0.929 . S
C632 C634 1.378 . S
C632 C636 1.350 . S
C633 C636 1.463 . S
C633 C638 1.350 . S
C633 N641 1.427 . S
C634 H625 0.930 . S
C634 C632 1.378 . S
C634 C635 1.367 . S
C635 C634 1.367 . S
C635 C637 1.433 . S
C636 C632 1.350 . S
C636 C633 1.463 . S
C636 N640 1.427 . S
C637 H627 0.929 . S
C637 C635 1.433 . S
C637 N640 1.384 . S
C638 H629 0.929 . S
C638 C630 1.378 . S
C638 C633 1.350 . S
C639 H626 0.929 . S
C639 C631 1.433 . S
C639 N641 1.384 . S
N640 C636 1.427 . S
N640 C637 1.384 . S
N641 C633 1.427 . S
N641 C639 1.384 . S
H642 C648 0.930 . S
H643 C652 0.930 . S
H644 C657 0.929 . S
H645 C655 0.929 . S
H646 C650 0.929 . S
H647 C656 0.929 . S
C648 H642 0.930 . S
C648 C649 1.367 . S
C648 C656 1.378 . S
C649 C648 1.367 . S
C649 C657 1.433 . S
C650 H646 0.929 . S
C650 C652 1.378 . S
C650 C654 1.350 . S
C651 C654 1.463 . S
C651 C656 1.350 . S
C651 N659 1.427 . S
C652 H643 0.930 . S
C652 C650 1.378 . S
C652 C653 1.367 . S
C653 C652 1.367 . S
C653 C655 1.433 . S
C654 C650 1.350 . S
C654 C651 1.463 . S
C654 N658 1.427 . S
C655 H645 0.929 . S
C655 C653 1.433 . S
C655 N658 1.384 . S
C656 H647 0.929 . S
C656 C648 1.378 . S
C656 C651 1.350 . S
C657 H644 0.929 . S
C657 C649 1.433 . S
C657 N659 1.384 . S
N658 C654 1.427 . S
N658 C655 1.384 . S
N659 C651 1.427 . S
N659 C657 1.384 . S
H660 C666 0.930 . S
H661 C670 0.930 . S
H662 C675 0.929 . S
H663 C673 0.929 . S
H664 C668 0.929 . S
H665 C674 0.929 . S
C666 H660 0.930 . S
C666 C667 1.367 . S
C666 C674 1.378 . S
C667 C666 1.367 . S
C667 C675 1.433 . S
C668 H664 0.929 . S
C668 C670 1.378 . S
C668 C672 1.350 . S
C669 C672 1.463 . S
C669 C674 1.350 . S
C669 N677 1.427 . S
C670 H661 0.930 . S
C670 C668 1.378 . S
C670 C671 1.367 . S
C671 C670 1.367 . S
C671 C673 1.433 . S
C672 C668 1.350 . S
C672 C669 1.463 . S
C672 N676 1.427 . S
C673 H663 0.929 . S
C673 C671 1.433 . S
C673 N676 1.384 . S
C674 H665 0.929 . S
C674 C666 1.378 . S
C674 C669 1.350 . S
C675 H662 0.929 . S
C675 C667 1.433 . S
C675 N677 1.384 . S
N676 C672 1.427 . S
N676 C673 1.384 . S
N677 C669 1.427 . S
N677 C675 1.384 . S
H678 C684 0.930 . S
H679 C688 0.930 . S
H680 C693 0.929 . S
H681 C691 0.929 . S
H682 C686 0.929 . S
H683 C692 0.929 . S
C684 H678 0.930 . S
C684 C685 1.367 . S
C684 C692 1.378 . S
C685 C684 1.367 . S
C685 C693 1.433 . S
C686 H682 0.929 . S
C686 C688 1.378 . S
C686 C690 1.350 . S
C687 C690 1.463 . S
C687 C692 1.350 . S
C687 N695 1.427 . S
C688 H679 0.930 . S
C688 C686 1.378 . S
C688 C689 1.367 . S
C689 C688 1.367 . S
C689 C691 1.433 . S
C690 C686 1.350 . S
C690 C687 1.463 . S
C690 N694 1.427 . S
C691 H681 0.929 . S
C691 C689 1.433 . S
C691 N694 1.384 . S
C692 H683 0.929 . S
C692 C684 1.378 . S
C692 C687 1.350 . S
C693 H680 0.929 . S
C693 C685 1.433 . S
C693 N695 1.384 . S
N694 C690 1.427 . S
N694 C691 1.384 . S
N695 C687 1.427 . S
N695 C693 1.384 . S
C271 C9 1.593 . S
C275 C119 1.624 . S
C289 C21 1.023 . S
C293 C159 1.054 . S
C311 C193 2.046 . S
C307 C30 2.009 . S
C325 C43 2.375 . S
C329 C234 2.405 . S
C347 C154 1.362 . S
C343 C4 1.239 . S
C365 C114 2.478 . S
C361 C22 2.391 . S
C383 C242 1.332 1_556 S
C379 C34 1.331 . S
C401 C203 1.635 . S
C397 C48 1.680 . S
C415 C8 1.429 . S
C419 C239 1.455 . S
C437 C162 1.923 . S
C433 C35 1.960 . S
C451 C47 2.553 . S
C455 C122 2.443 . S
C469 C17 1.429 . S
C473 C190 1.481 . S
C491 C110 1.145 . S
C487 C60 1.136 . S
C505 C74 1.074 . S
C509 C150 1.106 . S
C523 C82 1.647 . S
C527 C202 1.727 . S
C541 C100 3.002 . S
C545 C243 2.926 1_556 S
C559 C61 1.699 . S
C563 C163 1.751 . S
C581 C123 1.919 . S
C577 C73 1.830 . S
C599 C233 1.751 . S
C595 C87 1.797 . S
C617 C194 1.590 . S
C613 C95 1.665 . S
C631 C56 1.223 . S
C635 C230 1.206 . S
C653 C153 2.145 . S
C649 C86 2.196 . S
C671 C113 2.426 . S
C667 C99 2.497 . S
C685 C69 1.200 . S
C689 C199 1.352 . S
