# Generated by pormake.
# Topology rtl, (3,6)-cn, num edge types: 1
# Building blocks:
#     Node 0, Type 0, BuildingBlock: VETTIZ_charged_linker_0, # of connection points: 3
#     Node 1, Type 0, BuildingBlock: VETTIZ_charged_linker_0, # of connection points: 3
#     Node 2, Type 0, BuildingBlock: VETTIZ_charged_linker_0, # of connection points: 3
#     Node 3, Type 0, BuildingBlock: VETTIZ_charged_linker_0, # of connection points: 3
#     Node 4, Type 1, BuildingBlock: KUMBOL_clean_sbu_1, # of connection points: 6
#     Node 5, Type 1, BuildingBlock: KUMBOL_clean_sbu_1, # of connection points: 6
#     Edge 6, Type (0, 1), BuildingBlock: TEMPAE_clean_linker_10, # of connection points: 2
#     Edge 7, Type (0, 1), BuildingBlock: TEMPAE_clean_linker_10, # of connection points: 2
#     Edge 8, Type (0, 1), BuildingBlock: TEMPAE_clean_linker_10, # of connection points: 2
#     Edge 9, Type (0, 1), BuildingBlock: TEMPAE_clean_linker_10, # of connection points: 2
#     Edge 10, Type (0, 1), BuildingBlock: TEMPAE_clean_linker_10, # of connection points: 2
#     Edge 11, Type (0, 1), BuildingBlock: TEMPAE_clean_linker_10, # of connection points: 2
#     Edge 12, Type (0, 1), BuildingBlock: TEMPAE_clean_linker_10, # of connection points: 2
#     Edge 13, Type (0, 1), BuildingBlock: TEMPAE_clean_linker_10, # of connection points: 2
#     Edge 14, Type (0, 1), BuildingBlock: TEMPAE_clean_linker_10, # of connection points: 2
#     Edge 15, Type (0, 1), BuildingBlock: TEMPAE_clean_linker_10, # of connection points: 2
#     Edge 16, Type (0, 1), BuildingBlock: TEMPAE_clean_linker_10, # of connection points: 2
#     Edge 17, Type (0, 1), BuildingBlock: TEMPAE_clean_linker_10, # of connection points: 2
# Relax obj value: 0.017
# Max RMSD: 0.097
# Mean RMSD: 0.057
data_MOF--net-rtl--node1-KUMBOL_clean_sbu_1--node2-VETTIZ_charged_linker_0--edge1-TEMPAE_clean_linker_10
_symmetry_space_group_name_H-M    P1
_symmetry_Int_Tables_number       1
_symmetry_cell_setting            triclinic
loop_
_symmetry_equiv_pos_as_xyz
'x, y, z'
_cell_length_a     39.854323
_cell_length_b     40.554639
_cell_length_c     35.509257
_cell_angle_alpha  80.112342
_cell_angle_beta   99.552961
_cell_angle_gamma 90.377417
loop_
_atom_site_label
_atom_site_type_symbol
_atom_site_fract_x
_atom_site_fract_y
_atom_site_fract_z
_atom_type_partial_charge
C0 C 0.17349 0.88865 0.88353 0.0
C1 C 0.14734 0.9132 0.87505 0.0
C2 C 0.13478 0.92389 0.90594 0.0
C3 C 0.17271 0.88425 0.95241 0.0
C4 C 0.18562 0.87452 0.92214 0.0
C5 C 0.21236 0.84722 0.93578 0.0
H6 H 0.29775 0.7332 0.08064 0.0
C7 C 0.18945 0.86315 0.98881 0.0
C8 C 0.21266 0.84141 0.97921 0.0
H9 H 0.30844 0.75316 0.95969 0.0
H10 H 0.26684 0.79805 0.94739 0.0
H11 H 0.29596 0.81238 0.08938 0.0
H12 H 0.2158 0.74267 0.06753 0.0
H13 H 0.20478 0.76644 0.10084 0.0
H14 H 0.24252 0.7399 0.11399 0.0
H15 H 0.2878 0.77797 0.12561 0.0
H16 H 0.26509 0.81746 0.11815 0.0
C17 C 0.2466 0.86105 0.9251 0.0
C18 C 0.19972 0.81626 0.91768 0.0
C19 C 0.15469 0.87636 0.1167 0.0
C20 C 0.16278 0.85839 0.15478 0.0
C21 C 0.18641 0.83129 0.16208 0.0
C22 C 0.20152 0.82231 0.13217 0.0
C23 C 0.1928 0.84035 0.0943 0.0
C24 C 0.16956 0.86675 0.0871 0.0
C25 C 0.16181 0.882 0.04485 0.0
C26 C 0.18484 0.86096 0.02795 0.0
C27 C 0.20312 0.83666 0.05702 0.0
C28 C 0.17247 0.91907 0.04037 0.0
C29 C 0.12358 0.87687 0.03004 0.0
C30 C 0.29089 0.74726 0.05154 0.0
C31 C 0.30629 0.73967 0.02102 0.0
C32 C 0.29713 0.75874 0.98366 0.0
C33 C 0.27283 0.78473 0.97654 0.0
C34 C 0.25742 0.79193 0.0071 0.0
C35 C 0.26682 0.77372 0.04399 0.0
C36 C 0.2486 0.78615 0.073 0.0
C37 C 0.2266 0.81455 0.04727 0.0
C38 C 0.23165 0.81738 0.00866 0.0
C39 C 0.27557 0.79903 0.10343 0.0
C40 C 0.22688 0.75739 0.09012 0.0
H41 H 0.13648 0.9185 0.9667 0.0
H42 H 0.18414 0.88031 0.86052 0.0
H43 H 0.17204 0.81282 0.91806 0.0
H44 H 0.21205 0.79254 0.93369 0.0
H45 H 0.20362 0.81925 0.88703 0.0
H46 H 0.24745 0.88874 0.92294 0.0
H47 H 0.25065 0.85515 0.89675 0.0
H48 H 0.26869 0.85149 0.94751 0.0
H49 H 0.13699 0.89752 0.10981 0.0
H50 H 0.19276 0.81647 0.19081 0.0
H51 H 0.21909 0.80136 0.1396 0.0
H52 H 0.19694 0.9217 0.05979 0.0
H53 H 0.15299 0.935 0.0481 0.0
H54 H 0.17706 0.9294 0.01087 0.0
H55 H 0.11425 0.85366 0.04633 0.0
H56 H 0.11848 0.87335 0.99946 0.0
H57 H 0.10765 0.89815 0.03354 0.0
H58 H 0.11451 0.94265 0.90021 0.0
C59 C 0.14736 0.90961 0.94453 0.0
C60 C 0.65429 0.6606 0.73938 0.0
C61 C 0.62911 0.63609 0.74191 0.0
C62 C 0.61608 0.62262 0.70847 0.0
C63 C 0.65197 0.65839 0.67097 0.0
C64 C 0.66526 0.67138 0.70371 0.0
C65 C 0.69167 0.6973 0.69566 0.0
H66 H 0.77508 0.79127 0.56402 0.0
C67 C 0.66807 0.6752 0.63838 0.0
C68 C 0.69133 0.69821 0.65258 0.0
H69 H 0.79011 0.79014 0.68735 0.0
H70 H 0.74703 0.74771 0.69437 0.0
H71 H 0.7763 0.71478 0.57074 0.0
H72 H 0.69297 0.7856 0.54996 0.0
H73 H 0.68197 0.75674 0.51853 0.0
H74 H 0.71942 0.78149 0.51468 0.0
H75 H 0.76177 0.73887 0.52362 0.0
H76 H 0.74421 0.69868 0.53938 0.0
C77 C 0.72626 0.6842 0.72028 0.0
C78 C 0.67927 0.73095 0.70403 0.0
C79 C 0.63608 0.6434 0.50419 0.0
C80 C 0.64719 0.65488 0.46868 0.0
C81 C 0.67013 0.68147 0.46637 0.0
C82 C 0.68254 0.69582 0.49887 0.0
C83 C 0.67204 0.68356 0.53438 0.0
C84 C 0.64893 0.65802 0.53663 0.0
C85 C 0.64074 0.64852 0.57699 0.0
C86 C 0.66333 0.67206 0.59855 0.0
C87 C 0.6815 0.69245 0.57332 0.0
C88 C 0.65155 0.61134 0.59212 0.0
C89 C 0.60241 0.65624 0.57516 0.0
C90 C 0.76876 0.78204 0.59244 0.0
C91 C 0.7854 0.79409 0.62512 0.0
C92 C 0.77727 0.78114 0.66183 0.0
C93 C 0.75236 0.75657 0.66575 0.0
C94 C 0.73587 0.7446 0.63264 0.0
C95 C 0.74454 0.75721 0.59687 0.0
C96 C 0.7263 0.7404 0.56514 0.0
C97 C 0.70477 0.71589 0.58744 0.0
C98 C 0.71004 0.71858 0.62691 0.0
C99 C 0.75331 0.72237 0.54848 0.0
C100 C 0.7041 0.76729 0.5352 0.0
H101 H 0.61621 0.62235 0.64897 0.0
H102 H 0.66485 0.67154 0.76441 0.0
H103 H 0.65177 0.73546 0.69197 0.0
H104 H 0.69241 0.7527 0.69049 0.0
H105 H 0.68261 0.73088 0.73573 0.0
H106 H 0.72866 0.65651 0.72335 0.0
H107 H 0.72902 0.69043 0.74989 0.0
H108 H 0.7482 0.69393 0.70677 0.0
H109 H 0.61844 0.62303 0.5069 0.0
H110 H 0.67851 0.69129 0.4392 0.0
H111 H 0.70004 0.71581 0.49502 0.0
H112 H 0.67557 0.60533 0.58236 0.0
H113 H 0.63175 0.59434 0.58113 0.0
H114 H 0.65715 0.60512 0.62406 0.0
H115 H 0.59372 0.67867 0.5529 0.0
H116 H 0.59657 0.66253 0.60247 0.0
H117 H 0.58659 0.63496 0.56748 0.0
H118 H 0.59731 0.60319 0.70962 0.0
C119 C 0.62726 0.63364 0.67318 0.0
C120 C 0.84997 0.10874 0.17585 0.0
C121 C 0.87214 0.08067 0.1828 0.0
C122 C 0.88072 0.06836 0.15065 0.0
C123 C 0.84579 0.112 0.10634 0.0
C124 C 0.83685 0.12355 0.13776 0.0
C125 C 0.81193 0.15257 0.12592 0.0
H126 H 0.71231 0.25907 0.98493 0.0
C127 C 0.82765 0.13321 0.07074 0.0
C128 C 0.80738 0.15664 0.0821 0.0
H129 H 0.72506 0.25432 0.10894 0.0
H130 H 0.76557 0.20852 0.1188 0.0
H131 H 0.79298 0.25161 0.98458 0.0
H132 H 0.71398 0.17843 0.98408 0.0
H133 H 0.73986 0.17166 0.95034 0.0
H134 H 0.71645 0.21075 0.94322 0.0
H135 H 0.76151 0.25008 0.94246 0.0
H136 H 0.80012 0.22491 0.95258 0.0
C137 C 0.82894 0.18338 0.14104 0.0
C138 C 0.77865 0.14175 0.14142 0.0
C139 C 0.8535 0.11923 0.93906 0.0
C140 C 0.84115 0.13541 0.90103 0.0
C141 C 0.81442 0.15933 0.89476 0.0
C142 C 0.80107 0.1679 0.92608 0.0
C143 C 0.81452 0.15231 0.96409 0.0
C144 C 0.83981 0.12791 0.96997 0.0
C145 C 0.85023 0.11308 0.01212 0.0
C146 C 0.82823 0.13375 0.03077 0.0
C147 C 0.8074 0.15679 0.00254 0.0
C148 C 0.88861 0.1193 0.02397 0.0
C149 C 0.84073 0.07562 0.01799 0.0
C150 C 0.72375 0.2478 0.0141 0.0
C151 C 0.71548 0.25988 0.04632 0.0
C152 C 0.73119 0.24525 0.08385 0.0
C153 C 0.75462 0.21864 0.08945 0.0
C154 C 0.76277 0.20668 0.05713 0.0
C155 C 0.74779 0.22145 0.02017 0.0
C156 C 0.76141 0.20666 0.98941 0.0
C157 C 0.78615 0.17994 0.01409 0.0
C158 C 0.78654 0.18003 0.05367 0.0
C159 C 0.77983 0.23461 0.96566 0.0
C160 C 0.73149 0.19118 0.96514 0.0
H161 H 0.87543 0.07349 0.08942 0.0
H162 H 0.84311 0.11944 0.19951 0.0
H163 H 0.77358 0.11494 0.13997 0.0
H164 H 0.7558 0.15541 0.12411 0.0
H165 H 0.78035 0.14485 0.17215 0.0
H166 H 0.85696 0.18259 0.14184 0.0
H167 H 0.82445 0.18432 0.17088 0.0
H168 H 0.82027 0.20734 0.122 0.0
H169 H 0.87352 0.10022 0.94464 0.0
H170 H 0.80447 0.17204 0.86568 0.0
H171 H 0.78105 0.18659 0.91954 0.0
H172 H 0.89475 0.14548 0.01227 0.0
H173 H 0.90441 0.10223 0.01239 0.0
H174 H 0.8968 0.11618 0.05561 0.0
H175 H 0.81896 0.07079 0.99574 0.0
H176 H 0.83201 0.06718 0.04601 0.0
H177 H 0.86245 0.05939 0.01589 0.0
H178 H 0.89723 0.04648 0.15485 0.0
C179 C 0.86779 0.08392 0.11257 0.0
C180 C 0.3543 0.35536 0.32811 0.0
C181 C 0.37835 0.381 0.32515 0.0
C182 C 0.39053 0.39508 0.35843 0.0
C183 C 0.35473 0.35903 0.39584 0.0
C184 C 0.3431 0.34465 0.36366 0.0
C185 C 0.31834 0.31716 0.37223 0.0
H186 H 0.23598 0.22284 0.50465 0.0
C187 C 0.33858 0.34218 0.42837 0.0
C188 C 0.31752 0.31719 0.41491 0.0
H189 H 0.22705 0.21724 0.38305 0.0
H190 H 0.26731 0.26214 0.37501 0.0
H191 H 0.31603 0.23151 0.52184 0.0
H192 H 0.23075 0.30044 0.49201 0.0
H193 H 0.26004 0.31715 0.52579 0.0
H194 H 0.24273 0.27653 0.53975 0.0
H195 H 0.28946 0.23833 0.55603 0.0
H196 H 0.32637 0.26335 0.54931 0.0
C197 C 0.3335 0.284 0.36565 0.0
C198 C 0.28346 0.32756 0.34661 0.0
C199 C 0.35794 0.38373 0.558 0.0
C200 C 0.34627 0.37245 0.59332 0.0
C201 C 0.32767 0.34269 0.59716 0.0
C202 C 0.31933 0.32546 0.56615 0.0
C203 C 0.32977 0.3378 0.53063 0.0
C204 C 0.34948 0.36594 0.52717 0.0
C205 C 0.35953 0.37415 0.48751 0.0
C206 C 0.34105 0.34727 0.4674 0.0
C207 C 0.32355 0.32632 0.49286 0.0
C208 C 0.39876 0.37011 0.49221 0.0
C209 C 0.34554 0.40969 0.46851 0.0
C210 C 0.24306 0.23089 0.47637 0.0
C211 C 0.22872 0.2162 0.44459 0.0
C212 C 0.23784 0.22817 0.40802 0.0
C213 C 0.26124 0.25416 0.40347 0.0
C214 C 0.27538 0.26857 0.43575 0.0
C215 C 0.2659 0.25691 0.47131 0.0
C216 C 0.28169 0.27593 0.50214 0.0
C217 C 0.30269 0.3008 0.47958 0.0
C218 C 0.29928 0.29637 0.44073 0.0
C219 C 0.30443 0.25118 0.53429 0.0
C220 C 0.25254 0.29333 0.51606 0.0
H221 H 0.38905 0.39624 0.41753 0.0
H222 H 0.34413 0.344 0.30328 0.0
H223 H 0.27859 0.35496 0.34358 0.0
H224 H 0.26191 0.31567 0.3592 0.0
H225 H 0.28251 0.32165 0.31705 0.0
H226 H 0.36117 0.28176 0.37765 0.0
H227 H 0.33044 0.28288 0.33423 0.0
H228 H 0.32209 0.26164 0.38044 0.0
H229 H 0.37257 0.40628 0.55407 0.0
H230 H 0.31936 0.33267 0.62429 0.0
H231 H 0.3047 0.30333 0.57103 0.0
H232 H 0.40933 0.35249 0.51915 0.0
H233 H 0.41144 0.39444 0.49371 0.0
H234 H 0.40675 0.35908 0.46858 0.0
H235 H 0.31876 0.41277 0.47272 0.0
H236 H 0.34501 0.41497 0.4369 0.0
H237 H 0.36082 0.42911 0.48165 0.0
H238 H 0.40964 0.41417 0.35765 0.0
C239 C 0.3788 0.38438 0.39349 0.0
C240 C 0.9253 0.07811 0.47155 0.0
C241 C 0.87172 0.04965 0.47102 0.0
C242 C 0.90591 0.05296 0.48792 0.0
C243 C 0.85811 0.07085 0.43625 0.0
C244 C 0.91135 0.10059 0.43783 0.0
C245 C 0.87787 0.09635 0.41975 0.0
N246 N 0.95775 0.08109 0.48933 0.0
C247 C 0.97691 0.10746 0.47685 0.0
C248 C 0.93133 0.12692 0.42374 0.0
C249 C 0.9641 0.13064 0.44367 0.0
Gd250 Gd 0.03328 0.96597 0.51703 0.0
Gd251 Gd 0.97828 0.04047 0.5435 0.0
N252 N 0.91981 0.03326 0.52178 0.0
C253 C 0.8519 0.02601 0.49035 0.0
C254 C 0.89962 0.01261 0.54249 0.0
C255 C 0.86573 0.00793 0.52668 0.0
H256 H 0.90931 1.00009 0.57153 0.0
H257 H 0.85017 0.99078 0.54281 0.0
H258 H 0.11169 0.99552 0.52477 0.0
H259 H 0.00232 0.1101 0.49213 0.0
H260 H 0.1674 0.98351 0.56787 0.0
H261 H 0.82554 0.02264 0.47836 0.0
H262 H 0.83204 0.06841 0.42256 0.0
H263 H 0.98754 0.89603 0.53546 0.0
H264 H 0.92155 0.14475 0.3979 0.0
H265 H 0.97957 0.15116 0.43333 0.0
H266 H 0.14726 0.88712 0.66003 0.0
H267 H 0.8668 0.11308 0.3935 0.0
H268 H 0.03877 0.83561 0.6394 0.0
H269 H 0.98887 0.84665 0.58692 0.0
N270 N 0.03343 0.91575 0.56172 0.0
C271 C 0.06221 0.90877 0.58847 0.0
C272 C 0.00826 0.8928 0.55958 0.0
C273 C 0.03766 0.85805 0.61766 0.0
C274 C 0.00942 0.86423 0.58816 0.0
C275 C 0.06503 0.87983 0.61732 0.0
H276 H 0.09806 0.85081 0.66629 0.0
N277 N 0.08676 0.95629 0.55628 0.0
C278 C 0.08995 0.92925 0.58516 0.0
C279 C 0.14913 0.94149 0.60432 0.0
C280 C 0.12115 0.92137 0.61035 0.0
C281 C 0.11427 0.97503 0.54897 0.0
C282 C 0.14577 0.96821 0.5732 0.0
O283 O 0.98409 0.03807 0.48176 0.0
O284 O 0.98194 0.98202 0.48192 0.0
O285 O 0.05098 0.97316 0.46143 0.0
O286 O 0.04827 0.92338 0.49371 0.0
O287 O 0.96767 0.98673 0.56874 0.0
O288 O 0.97799 0.95573 0.5229 0.0
O289 O 0.05261 0.99061 0.5691 0.0
O290 O 0.00352 1.00007 0.59095 0.0
O291 O 0.94894 0.06398 0.57878 0.0
O292 O 0.99992 0.07987 0.57355 0.0
O293 O 0.04945 0.01862 0.49601 0.0
O294 O 0.03261 0.05329 0.53594 0.0
C295 C 0.97579 0.01282 0.46376 0.0
C296 C 0.96212 0.96049 0.55136 0.0
C297 C 0.03625 0.92968 0.42596 0.0
C298 C 0.03926 0.91156 0.36459 0.0
C299 C 0.98562 0.91019 0.38886 0.0
C300 C 1.00147 0.92251 0.42155 0.0
C301 C 0.00439 0.90453 0.3606 0.0
C302 C 0.05501 0.92454 0.39724 0.0
C303 C 0.05329 0.94123 0.46116 0.0
C304 C 0.12359 0.89339 0.64012 0.0
C305 C 0.09555 0.87276 0.64373 0.0
H306 H 0.17353 0.93627 0.62309 0.0
C307 C 0.03597 0.99203 0.59771 0.0
C308 C 0.05167 0.0464 0.51097 0.0
C309 C 0.98385 0.07535 0.63529 0.0
C310 C 0.96819 0.07618 0.6988 0.0
C311 C 0.02276 0.05233 0.69406 0.0
C312 C 0.01512 0.05977 0.65378 0.0
C313 C 0.99942 0.0602 0.71652 0.0
C314 C 0.96058 0.08391 0.65803 0.0
C315 C 0.97477 0.0806 0.59258 0.0
H316 H 0.95881 0.90459 0.38566 0.0
H317 H 0.98675 0.92599 0.44366 0.0
H318 H 0.9917 0.89468 0.3356 0.0
H319 H 0.08198 0.92969 0.40084 0.0
H320 H 0.04682 0.04025 0.70783 0.0
H321 H 0.03361 0.05295 0.63715 0.0
H322 H 0.00595 0.0542 0.74782 0.0
H323 H 0.93634 0.09578 0.64407 0.0
C324 C 0.61171 0.5336 0.0355 0.0
C325 C 0.60933 0.59366 0.01285 0.0
C326 C 0.595 0.56428 0.0303 0.0
C327 C 0.63996 0.59143 0.99869 0.0
C328 C 0.64335 0.5315 0.02311 0.0
C329 C 0.65687 0.56038 0.00366 0.0
N330 N 0.59813 0.50628 0.05492 0.0
C331 C 0.61698 0.47726 0.06703 0.0
C332 C 0.66108 0.50074 0.03202 0.0
C333 C 0.64817 0.4737 0.05484 0.0
Gd334 Gd 0.47387 0.47939 0.99082 0.0
Gd335 Gd 0.54391 0.5144 0.07087 0.0
N336 N 0.56491 0.56547 0.0433 0.0
C337 C 0.59262 0.62439 0.01064 0.0
C338 C 0.54928 0.59541 0.04295 0.0
C339 C 0.56271 0.6253 0.02625 0.0
H340 H 0.52616 0.596 0.05501 0.0
H341 H 0.54995 0.64897 0.02528 0.0
H342 H 0.51248 0.40839 0.97878 0.0
H343 H 0.60835 0.45685 0.08658 0.0
H344 H 0.50791 0.34756 0.99844 0.0
H345 H 0.60284 0.64754 0.99747 0.0
H346 H 0.65113 0.61364 0.9846 0.0
H347 H 0.39979 0.51314 0.99675 0.0
H348 H 0.68545 0.49804 0.02301 0.0
H349 H 0.6625 0.4503 0.06365 0.0
H350 H 0.40432 0.33563 0.05125 0.0
H351 H 0.68091 0.55916 0.99346 0.0
H352 H 0.33656 0.43505 0.0413 0.0
H353 H 0.34512 0.49504 0.0173 0.0
N354 N 0.42151 0.46406 0.00932 0.0
C355 C 0.4168 0.43093 0.02064 0.0
C356 C 0.396 0.48697 0.00698 0.0
C357 C 0.36042 0.44288 0.03213 0.0
C358 C 0.36513 0.47677 0.01858 0.0
C359 C 0.38632 0.41943 0.03302 0.0
H360 H 0.35937 0.37566 0.05513 0.0
N361 N 0.47007 0.42055 0.00371 0.0
C362 C 0.44215 0.40851 0.01842 0.0
C363 C 0.4623 0.35172 0.02264 0.0
C364 C 0.43762 0.37378 0.02859 0.0
C365 C 0.49247 0.39906 0.99454 0.0
C366 C 0.48951 0.36443 0.00484 0.0
O367 O 0.5313 0.54086 0.00808 0.0
O368 O 0.52498 0.49614 0.97743 0.0
O369 O 0.45501 0.4608 0.93746 0.0
O370 O 0.45312 0.51393 0.93857 0.0
O371 O 0.49127 0.53749 0.06255 0.0
O372 O 0.46408 0.53224 1.00035 0.0
O373 O 0.4616 0.4781 0.05133 0.0
O374 O 0.51424 0.46839 0.08895 0.0
O375 O 0.53411 0.53668 0.11979 0.0
O376 O 0.58166 0.51061 0.1231 0.0
O377 O 0.52819 0.45926 0.00269 0.0
O378 O 0.54707 0.45898 0.0676 0.0
C379 C 0.5347 0.52683 0.97829 0.0
C380 C 0.46797 0.54675 0.03145 0.0
C381 C 0.41271 0.49317 0.89167 0.0
C382 C 0.37987 0.48309 0.83042 0.0
C383 C 0.35459 0.51448 0.8716 0.0
C384 C 0.38475 0.51076 0.89852 0.0
C385 C 0.35215 0.50091 0.83764 0.0
C386 C 0.41003 0.47921 0.85777 0.0
C387 C 0.44557 0.49036 0.91807 0.0
C388 C 0.40806 0.3622 0.0429 0.0
C389 C 0.38242 0.38498 0.04503 0.0
H390 H 0.45982 0.32487 0.03012 0.0
C391 C 0.48093 0.46718 0.0849 0.0
C392 C 0.54637 0.44576 0.0361 0.0
C393 C 0.58294 0.55679 0.15543 0.0
C394 C 0.59684 0.58961 0.20734 0.0
C395 C 0.62231 0.60253 0.14897 0.0
C396 C 0.60502 0.57631 0.1343 0.0
C397 C 0.6183 0.60921 0.1852 0.0
C398 C 0.57903 0.56339 0.19209 0.0
C399 C 0.56436 0.5293 0.13963 0.0
H400 H 0.3331 0.5281 0.87696 0.0
H401 H 0.3863 0.52195 0.9243 0.0
H402 H 0.32851 0.50405 0.8172 0.0
H403 H 0.43179 0.466 0.85222 0.0
H404 H 0.63928 0.61744 0.13244 0.0
H405 H 0.60929 0.57108 0.10669 0.0
H406 H 0.63276 0.62918 0.19635 0.0
H407 H 0.56225 0.54816 0.20867 0.0
C408 C 0.21047 0.16306 0.482 0.0
C409 C 0.20371 0.18919 0.45011 0.0
C410 C 0.18586 0.13923 0.49031 0.0
C411 C 0.15355 0.14166 0.4663 0.0
C412 C 0.14688 0.16741 0.43337 0.0
C413 C 0.17214 0.1908 0.42555 0.0
C414 C 0.19419 0.11193 0.5254 0.0
C415 C 0.1127 0.17089 0.40717 0.0
C416 C 0.09862 0.06448 0.47329 0.0
C417 C 0.07726 0.07115 0.49898 0.0
C418 C 0.12324 0.08734 0.46204 0.0
C419 C 0.1265 0.11781 0.4765 0.0
C420 C 0.10472 0.12498 0.50194 0.0
C421 C 0.0805 0.10154 0.51299 0.0
C422 C 0.14612 0.07864 0.4351 0.0
C423 C 0.10727 0.15729 0.51786 0.0
H424 H 0.23499 0.16153 0.50082 0.0
H425 H 0.1667 0.21114 0.4011 0.0
H426 H 0.17728 0.11465 0.54661 0.0
H427 H 0.18954 0.08701 0.51688 0.0
H428 H 0.22104 0.11255 0.53999 0.0
H429 H 0.11208 0.19128 0.38177 0.0
H430 H 0.10619 0.14708 0.39657 0.0
H431 H 0.09267 0.17625 0.42372 0.0
H432 H 0.09638 0.0412 0.46208 0.0
H433 H 0.06416 0.10709 0.53274 0.0
H434 H 0.17303 0.07736 0.44982 0.0
H435 H 0.14412 0.09847 0.40903 0.0
H436 H 0.13977 0.0543 0.42562 0.0
H437 H 0.13272 0.15866 0.53569 0.0
H438 H 0.08755 0.15971 0.53602 0.0
H439 H 0.10457 0.17897 0.49373 0.0
C440 C 0.32406 0.67967 0.04549 0.0
C441 C 0.33149 0.71173 0.02735 0.0
C442 C 0.34629 0.65233 0.048 0.0
C443 C 0.37682 0.65738 0.03244 0.0
C444 C 0.38499 0.68996 0.01541 0.0
C445 C 0.36212 0.7167 0.01287 0.0
C446 C 0.3366 0.61791 0.06611 0.0
C447 C 0.41752 0.69647 0.99905 0.0
C448 C 0.44818 0.59176 0.0636 0.0
C449 C 0.44445 0.5749 0.03178 0.0
C450 C 0.42624 0.61848 0.06434 0.0
C451 C 0.39971 0.62847 0.03268 0.0
C452 C 0.39557 0.61143 1.00063 0.0
C453 C 0.41811 0.58504 1.00045 0.0
C454 C 0.43167 0.63625 0.09885 0.0
C455 C 0.36745 0.62123 0.96638 0.0
H456 H 0.30024 0.67576 0.0564 0.0
H457 H 0.36804 0.74157 0.99918 0.0
H458 H 0.33319 0.6013 0.04402 0.0
H459 H 0.35728 0.60663 0.08962 0.0
H460 H 0.31269 0.61841 0.07825 0.0
H461 H 0.42097 0.72353 0.98874 0.0
H462 H 0.43976 0.68681 0.02134 0.0
H463 H 0.41741 0.68296 0.97438 0.0
H464 H 0.46844 0.58428 0.08798 0.0
H465 H 0.415 0.57238 0.97562 0.0
H466 H 0.40832 0.63521 0.11217 0.0
H467 H 0.43674 0.66307 0.08933 0.0
H468 H 0.45328 0.62518 0.12133 0.0
H469 H 0.34243 0.62036 0.97629 0.0
H470 H 0.36685 0.6046 0.94447 0.0
H471 H 0.37082 0.64735 0.9522 0.0
C472 C 0.84626 0.81027 0.63121 0.0
C473 C 0.81178 0.81948 0.62028 0.0
C474 C 0.87166 0.83296 0.62183 0.0
C475 C 0.86219 0.8657 0.60163 0.0
C476 C 0.82731 0.8754 0.59186 0.0
C477 C 0.80248 0.85198 0.6009 0.0
C478 C 0.90851 0.8215 0.63211 0.0
C479 C 0.81619 0.91023 0.57099 0.0
C480 C 0.92863 0.93346 0.60161 0.0
C481 C 0.93718 0.93566 0.56449 0.0
C482 C 0.90428 0.91084 0.61411 0.0
C483 C 0.8886 0.88939 0.58921 0.0
C484 C 0.8976 0.89106 0.55197 0.0
C485 C 0.92146 0.91445 0.5399 0.0
C486 C 0.89499 0.91025 0.65374 0.0
C487 C 0.88185 0.86827 0.52475 0.0
H488 H 0.85325 0.78489 0.64569 0.0
H489 H 0.77571 0.85885 0.59225 0.0
H490 H 0.91946 0.82224 0.60521 0.0
H491 H 0.92347 0.83867 0.64926 0.0
H492 H 0.9117 0.79567 0.649 0.0
H493 H 0.78829 0.91448 0.56788 0.0
H494 H 0.82943 0.92919 0.58684 0.0
H495 H 0.82331 0.9144 0.54166 0.0
H496 H 0.94082 0.94966 0.62087 0.0
H497 H 0.92768 0.91624 0.51104 0.0
H498 H 0.89971 0.88485 0.67134 0.0
H499 H 0.86744 0.91617 0.65086 0.0
H500 H 0.90964 0.92847 0.66965 0.0
H501 H 0.88561 0.84174 0.53925 0.0
H502 H 0.89286 0.87156 0.49762 0.0
H503 H 0.85402 0.87334 0.51702 0.0
C504 C 0.70096 0.31726 0.05545 0.0
C505 C 0.6908 0.28791 0.04141 0.0
C506 C 0.67745 0.34333 0.0535 0.0
C507 C 0.64284 0.33953 0.03792 0.0
C508 C 0.63252 0.30994 0.02344 0.0
C509 C 0.65679 0.28456 0.02497 0.0
C510 C 0.68961 0.37488 0.06816 0.0
C511 C 0.59575 0.30479 0.00722 0.0
C512 C 0.57826 0.39315 0.06928 0.0
C513 C 0.57049 0.41823 0.0366 0.0
C514 C 0.60131 0.36697 0.06983 0.0
C515 C 0.61743 0.36641 0.03722 0.0
C516 C 0.60977 0.39192 0.00426 0.0
C517 C 0.58611 0.41734 0.00421 0.0
C518 C 0.60849 0.33995 0.10529 0.0
C519 C 0.62695 0.39265 0.96929 0.0
H520 H 0.72738 0.31973 0.06803 0.0
H521 H 0.64903 0.26163 0.01448 0.0
H522 H 0.68423 0.39668 0.04428 0.0
H523 H 0.67563 0.3794 0.0914 0.0
H524 H 0.71732 0.37374 0.0797 0.0
H525 H 0.59192 0.2804 0.99707 0.0
H526 H 0.57972 0.30587 0.02975 0.0
H527 H 0.58658 0.32516 0.9826 0.0
H528 H 0.56601 0.39385 0.09423 0.0
H529 H 0.58036 0.43701 0.97907 0.0
H530 H 0.63576 0.33994 0.1184 0.0
H531 H 0.60331 0.31502 0.09697 0.0
H532 H 0.59287 0.34334 0.12757 0.0
H533 H 0.65491 0.394 0.97793 0.0
H534 H 0.61815 0.4143 0.94604 0.0
H535 H 0.62189 0.36925 0.95729 0.0
C536 C 0.11182 0.87861 0.1785 0.0
C537 C 0.14595 0.86733 0.18637 0.0
C538 C 0.09553 0.88707 0.20777 0.0
C539 C 0.11342 0.88339 0.24621 0.0
C540 C 0.14778 0.87195 0.25452 0.0
C541 C 0.16372 0.86439 0.22448 0.0
C542 C 0.05898 0.89957 0.1976 0.0
C543 C 0.16756 0.86726 0.29527 0.0
C544 C 0.07853 0.92918 0.31697 0.0
C545 C 0.05925 0.90427 0.33524 0.0
C546 C 0.09651 0.92274 0.28804 0.0
C547 C 0.09568 0.89042 0.27784 0.0
C548 C 0.0769 0.86497 0.297 0.0
C549 C 0.05862 0.87232 0.32518 0.0
C550 C 0.11567 0.9507 0.26774 0.0
C551 C 0.0759 0.83004 0.28753 0.0
H552 H 0.09749 0.88036 0.14948 0.0
H553 H 0.1902 0.85628 0.23091 0.0
H554 H 0.04253 0.88153 0.21275 0.0
H555 H 0.05646 0.9238 0.20752 0.0
H556 H 0.04935 0.90304 0.16594 0.0
H557 H 0.1941 0.85821 0.29694 0.0
H558 H 0.16828 0.89123 0.3064 0.0
H559 H 0.15466 0.84895 0.31477 0.0
H560 H 0.07882 0.95394 0.32466 0.0
H561 H 0.04396 0.85298 0.33965 0.0
H562 H 0.10498 0.95583 0.23634 0.0
H563 H 0.14278 0.94317 0.27044 0.0
H564 H 0.11436 0.97419 0.27962 0.0
H565 H 0.06377 0.83072 0.25694 0.0
H566 H 0.06157 0.81269 0.30649 0.0
H567 H 0.10217 0.8198 0.29071 0.0
C568 C 0.6385 0.61797 0.81456 0.0
C569 C 0.61622 0.62423 0.77893 0.0
C570 C 0.62668 0.60434 0.84906 0.0
C571 C 0.59182 0.59669 0.84786 0.0
C572 C 0.56907 0.60403 0.81225 0.0
C573 C 0.58149 0.61784 0.77838 0.0
C574 C 0.65162 0.59724 0.88659 0.0
C575 C 0.53171 0.5963 0.80967 0.0
C576 C 0.56493 0.52701 0.92212 0.0
C577 C 0.55045 0.54497 0.94603 0.0
C578 C 0.57927 0.54357 0.89074 0.0
C579 C 0.57929 0.57902 0.88311 0.0
C580 C 0.56533 0.59729 0.90766 0.0
C581 C 0.55075 0.58003 0.93859 0.0
C582 C 0.59368 0.52308 0.8652 0.0
C583 C 0.5653 0.63506 0.9009 0.0
H584 H 0.66537 0.62268 0.81533 0.0
H585 H 0.56392 0.62332 0.7512 0.0
H586 H 0.64276 0.60969 0.90875 0.0
H587 H 0.65308 0.56994 0.89797 0.0
H588 H 0.67757 0.60594 0.88301 0.0
H589 H 0.51713 0.60481 0.78011 0.0
H590 H 0.52862 0.5689 0.81769 0.0
H591 H 0.52044 0.60847 0.83049 0.0
H592 H 0.56494 0.49987 0.92784 0.0
H593 H 0.53908 0.594 0.9566 0.0
H594 H 0.62041 0.52996 0.86335 0.0
H595 H 0.57895 0.52856 0.83535 0.0
H596 H 0.59298 0.49574 0.87601 0.0
H597 H 0.59171 0.64397 0.90121 0.0
H598 H 0.55418 0.64549 0.92317 0.0
H599 H 0.55055 0.64517 0.87191 0.0
C600 C 0.86725 0.06425 0.25323 0.0
C601 C 0.88657 0.06498 0.22339 0.0
C602 C 0.88157 0.05309 0.29213 0.0
C603 C 0.91577 0.04133 0.30148 0.0
C604 C 0.93482 0.03996 0.2715 0.0
C605 C 0.92017 0.0522 0.23287 0.0
C606 C 0.86052 0.05523 0.32335 0.0
C607 C 0.97116 0.02684 0.28038 0.0
C608 C 0.9641 0.05116 0.40005 0.0
C609 C 0.96141 0.01938 0.42199 0.0
C610 C 0.94935 0.05856 0.36086 0.0
C611 C 0.93234 0.03321 0.34277 0.0
C612 C 0.93037 0.00071 0.36444 0.0
C613 C 0.9447 0.99426 0.40396 0.0
C614 C 0.95134 0.09377 0.3391 0.0
C615 C 0.91322 0.97279 0.34593 0.0
H616 H 0.84096 0.07302 0.24632 0.0
H617 H 0.93554 0.0528 0.21031 0.0
H618 H 0.86053 0.03064 0.34268 0.0
H619 H 0.87193 0.07343 0.34153 0.0
H620 H 0.83375 0.06327 0.31119 0.0
H621 H 0.98119 0.02392 0.25373 0.0
H622 H 0.98761 0.04435 0.29551 0.0
H623 H 0.9731 0.00227 0.30006 0.0
H624 H 0.9777 0.07043 0.41353 0.0
H625 H 0.94239 0.96967 0.42082 0.0
H626 H 0.92531 0.10497 0.32982 0.0
H627 H 0.9625 0.09349 0.31255 0.0
H628 H 0.96683 0.11015 0.35697 0.0
H629 H 0.8875 0.98095 0.3299 0.0
H630 H 0.91077 0.95001 0.36758 0.0
H631 H 0.9283 0.96612 0.3246 0.0
C632 C 0.32699 0.39394 0.64845 0.0
C633 C 0.35251 0.39154 0.62605 0.0
C634 C 0.33269 0.40991 0.68087 0.0
C635 C 0.36451 0.42456 0.69088 0.0
C636 C 0.39007 0.42329 0.66775 0.0
C637 C 0.38384 0.40663 0.6357 0.0
C638 C 0.30478 0.41057 0.70481 0.0
C639 C 0.42417 0.43902 0.67725 0.0
C640 C 0.36453 0.48797 0.75827 0.0
C641 C 0.37741 0.46862 0.7944 0.0
C642 C 0.36147 0.47435 0.72409 0.0
C643 C 0.37101 0.44042 0.72619 0.0
C644 C 0.38452 0.42093 0.76256 0.0
C645 C 0.38776 0.43534 0.79619 0.0
C646 C 0.34744 0.49608 0.68581 0.0
C647 C 0.39452 0.38453 0.76613 0.0
H648 H 0.30238 0.38317 0.64071 0.0
H649 H 0.40378 0.40479 0.61876 0.0
H650 H 0.31388 0.39792 0.73505 0.0
H651 H 0.29794 0.4368 0.70595 0.0
H652 H 0.28147 0.39801 0.69307 0.0
H653 H 0.44054 0.43764 0.65509 0.0
H654 H 0.42059 0.46568 0.67954 0.0
H655 H 0.43768 0.42617 0.70579 0.0
H656 H 0.35697 0.51386 0.75675 0.0
H657 H 0.39754 0.42026 0.82412 0.0
H658 H 0.32265 0.48642 0.67354 0.0
H659 H 0.36491 0.49522 0.66469 0.0
H660 H 0.34364 0.52258 0.68875 0.0
H661 H 0.37173 0.37009 0.75711 0.0
H662 H 0.40611 0.37329 0.79622 0.0
H663 H 0.41291 0.3818 0.74654 0.0
C664 C 0.60117 0.63307 0.42228 0.0
C665 C 0.63567 0.63936 0.43389 0.0
C666 C 0.58999 0.62173 0.38708 0.0
C667 C 0.61391 0.61665 0.36311 0.0
C668 C 0.64893 0.62142 0.37571 0.0
C669 C 0.65934 0.6326 0.41092 0.0
C670 C 0.5525 0.61662 0.37479 0.0
C671 C 0.67535 0.61609 0.35122 0.0
C672 C 0.59835 0.56941 0.27853 0.0
C673 C 0.59479 0.5959 0.24694 0.0
C674 C 0.60222 0.57563 0.31676 0.0
C675 C 0.60261 0.60909 0.32342 0.0
C676 C 0.59658 0.63577 0.2915 0.0
C677 C 0.59269 0.62884 0.25369 0.0
C678 C 0.60821 0.54648 0.34999 0.0
C679 C 0.59655 0.67181 0.29724 0.0
H680 H 0.58277 0.63828 0.43992 0.0
H681 H 0.68612 0.63672 0.42019 0.0
H682 H 0.54222 0.63656 0.35013 0.0
H683 H 0.54831 0.59229 0.36466 0.0
H684 H 0.53788 0.61736 0.3987 0.0
H685 H 0.70169 0.61903 0.36622 0.0
H686 H 0.67328 0.5907 0.34351 0.0
H687 H 0.67085 0.63443 0.32374 0.0
H688 H 0.60007 0.54389 0.27353 0.0
H689 H 0.58927 0.64936 0.22931 0.0
H690 H 0.59303 0.54979 0.37264 0.0
H691 H 0.63543 0.54525 0.36356 0.0
H692 H 0.60166 0.52227 0.34027 0.0
H693 H 0.5798 0.67538 0.31829 0.0
H694 H 0.58794 0.68934 0.26967 0.0
H695 H 0.62268 0.67853 0.30938 0.0
C696 C 0.89249 0.12789 0.87128 0.0
C697 C 0.85699 0.12802 0.86833 0.0
C698 C 0.9082 0.1204 0.84113 0.0
C699 C 0.88794 0.11237 0.80735 0.0
C700 C 0.85202 0.11273 0.80404 0.0
C701 C 0.83693 0.12083 0.83449 0.0
C702 C 0.94656 0.12078 0.84563 0.0
C703 C 0.8296 0.10383 0.76875 0.0
C704 C 0.93193 0.11777 0.71931 0.0
C705 C 0.94404 0.08478 0.72336 0.0
C706 C 0.91254 0.12698 0.74568 0.0
C707 C 0.9047 0.10246 0.77634 0.0
C708 C 0.91539 0.06876 0.77921 0.0
C709 C 0.93519 0.06039 0.75288 0.0
C710 C 0.90198 0.16323 0.74191 0.0
C711 C 0.90709 0.04174 0.81102 0.0
H712 H 0.90802 0.13389 0.8972 0.0
H713 H 0.80947 0.12074 0.83226 0.0
H714 H 0.95661 0.09534 0.84559 0.0
H715 H 0.95444 0.13773 0.82076 0.0
H716 H 0.95851 0.12908 0.87289 0.0
H717 H 0.8021 0.10632 0.77008 0.0
H718 H 0.83505 0.12016 0.74213 0.0
H719 H 0.83522 0.07765 0.76606 0.0
H720 H 0.93898 0.13666 0.69662 0.0
H721 H 0.94431 0.0348 0.75577 0.0
H722 H 0.91573 0.17369 0.76689 0.0
H723 H 0.87437 0.16546 0.74256 0.0
H724 H 0.90757 0.17865 0.71473 0.0
H725 H 0.92084 0.04622 0.83946 0.0
H726 H 0.91435 0.01634 0.80694 0.0
H727 H 0.87947 0.04238 0.81223 0.0
C728 C 0.39859 0.42695 0.27742 0.0
C729 C 0.39116 0.39301 0.28796 0.0
C730 C 0.41256 0.43845 0.24388 0.0
C731 C 0.41871 0.4157 0.21957 0.0
C732 C 0.41033 0.38164 0.22923 0.0
C733 C 0.39692 0.37065 0.2634 0.0
C734 C 0.42119 0.47497 0.23473 0.0
C735 C 0.41603 0.35668 0.20377 0.0
C736 C 0.42945 0.45391 0.11666 0.0
C737 C 0.46493 0.45315 0.11904 0.0
C738 C 0.41401 0.441 0.14874 0.0
C739 C 0.43456 0.42758 0.18452 0.0
C740 C 0.47043 0.42683 0.18724 0.0
C741 C 0.48515 0.43942 0.15448 0.0
C742 C 0.37567 0.44188 0.14437 0.0
C743 C 0.49332 0.41326 0.225 0.0
H744 H 0.39351 0.4447 0.29547 0.0
H745 H 0.39169 0.34435 0.27128 0.0
H746 H 0.44876 0.47734 0.23348 0.0
H747 H 0.40715 0.48642 0.20584 0.0
H748 H 0.4149 0.48945 0.2566 0.0
H749 H 0.40638 0.33154 0.21406 0.0
H750 H 0.4032 0.36564 0.17355 0.0
H751 H 0.44362 0.35422 0.20308 0.0
H752 H 0.41362 0.46503 0.08983 0.0
H753 H 0.51261 0.43878 0.15683 0.0
H754 H 0.36751 0.45562 0.16588 0.0
H755 H 0.36629 0.41599 0.15019 0.0
H756 H 0.36334 0.45401 0.11491 0.0
H757 H 0.48936 0.42813 0.24744 0.0
H758 H 0.52068 0.41393 0.22219 0.0
H759 H 0.48679 0.38704 0.23551 0.0
C760 C 0.1246 0.96072 0.8219 0.0
C761 C 0.13231 0.92649 0.83415 0.0
C762 C 0.10997 0.97331 0.78336 0.0
C763 C 0.10248 0.95103 0.75657 0.0
C764 C 0.11032 0.91646 0.76881 0.0
C765 C 0.12521 0.90464 0.80736 0.0
C766 C 0.10181 0.01031 0.77191 0.0
C767 C 0.10314 0.89189 0.74116 0.0
C768 C 0.03387 0.97312 0.6679 0.0
C769 C 0.05319 0.98266 0.63837 0.0
C770 C 0.04958 0.96372 0.70663 0.0
C771 C 0.08551 0.96343 0.71603 0.0
C772 C 0.10513 0.97363 0.68644 0.0
C773 C 0.08867 0.98346 0.64799 0.0
C774 C 0.02772 0.95369 0.73743 0.0
C775 C 0.14348 0.97381 0.69532 0.0
H776 H 0.13023 0.97776 0.84242 0.0
H777 H 0.13071 0.87808 0.81674 0.0
H778 H 0.10668 0.02004 0.74219 0.0
H779 H 0.07445 0.01463 0.77248 0.0
H780 H 0.11685 0.02492 0.79232 0.0
H781 H 0.10793 0.86551 0.75599 0.0
H782 H 0.07638 0.89463 0.72595 0.0
H783 H 0.11978 0.89729 0.71888 0.0
H784 H 0.00637 0.97272 0.66075 0.0
H785 H 0.1036 0.99182 0.62546 0.0
H786 H 0.03336 0.96957 0.76013 0.0
H787 H 0.0337 0.92735 0.75166 0.0
H788 H 1.00009 0.95611 0.72544 0.0
H789 H 0.15191 0.98803 0.71914 0.0
H790 H 0.15485 0.98501 0.66966 0.0
H791 H 0.15353 0.94777 0.70526 0.0
loop_
_geom_bond_atom_site_label_1
_geom_bond_atom_site_label_2
_geom_bond_distance
_geom_bond_site_symmetry_2
_ccdc_geom_bond_type
C0 C1 1.391 . S
C0 C4 1.391 . S
C0 H42 0.948 . S
C1 C0 1.391 . S
C1 C2 1.391 . S
C2 C1 1.391 . S
C2 H58 0.947 . S
C2 C59 1.392 . S
C3 C4 1.391 . S
C3 C7 1.397 . S
C3 C59 1.419 . S
C4 C0 1.391 . S
C4 C3 1.391 . S
C4 C5 1.399 . S
C5 C4 1.399 . S
C5 C8 1.396 . S
C5 C17 1.453 . S
C5 C18 1.684 . S
H6 C30 0.948 . S
C7 C3 1.397 . S
C7 C8 1.394 . S
C7 C26 1.723 1_556 S
C8 C5 1.396 . S
C8 C7 1.394 . S
C8 C38 1.723 1_556 S
H9 C32 0.947 . S
H10 C33 0.948 . S
H11 C39 0.982 . S
H12 C40 0.979 . S
H13 C40 0.980 . S
H14 C40 0.983 . S
H15 C39 0.979 . S
H16 C39 0.977 . S
C17 C5 1.453 . S
C17 H46 0.982 . S
C17 H47 0.979 . S
C17 H48 0.977 . S
C18 C5 1.684 . S
C18 H43 0.979 . S
C18 H44 0.980 . S
C18 H45 0.983 . S
C19 C20 1.391 . S
C19 C24 1.391 . S
C19 H49 0.948 . S
C20 C19 1.391 . S
C20 C21 1.391 . S
C21 C20 1.391 . S
C21 C22 1.392 . S
C21 H50 0.947 . S
C22 C21 1.392 . S
C22 C23 1.419 . S
C22 H51 0.948 . S
C23 C22 1.419 . S
C23 C24 1.391 . S
C23 C27 1.397 . S
C24 C19 1.391 . S
C24 C23 1.391 . S
C24 C25 1.399 . S
C25 C24 1.399 . S
C25 C26 1.396 . S
C25 C28 1.453 . S
C25 C29 1.684 . S
C26 C7 1.723 1_554 S
C26 C25 1.396 . S
C26 C27 1.394 . S
C27 C23 1.397 . S
C27 C26 1.394 . S
C27 C37 1.723 . S
C28 C25 1.453 . S
C28 H52 0.982 . S
C28 H53 0.979 . S
C28 H54 0.977 1_554 S
C29 C25 1.684 . S
C29 H55 0.979 . S
C29 H56 0.980 1_554 S
C29 H57 0.983 . S
C30 H6 0.948 . S
C30 C31 1.391 . S
C30 C35 1.391 . S
C31 C30 1.391 . S
C31 C32 1.391 1_554 S
C32 H9 0.947 . S
C32 C31 1.391 1_556 S
C32 C33 1.392 . S
C33 H10 0.948 . S
C33 C32 1.392 . S
C33 C34 1.419 1_556 S
C34 C33 1.419 1_554 S
C34 C35 1.391 . S
C34 C38 1.397 . S
C35 C30 1.391 . S
C35 C34 1.391 . S
C35 C36 1.399 . S
C36 C35 1.399 . S
C36 C37 1.396 . S
C36 C39 1.453 . S
C36 C40 1.684 . S
C37 C27 1.723 . S
C37 C36 1.396 . S
C37 C38 1.394 . S
C38 C8 1.723 1_554 S
C38 C34 1.397 . S
C38 C37 1.394 . S
C39 H11 0.982 . S
C39 H15 0.979 . S
C39 H16 0.977 . S
C39 C36 1.453 . S
C40 H12 0.979 . S
C40 H13 0.980 . S
C40 H14 0.983 . S
C40 C36 1.684 . S
H41 C59 0.948 . S
H42 C0 0.948 . S
H43 C18 0.979 . S
H44 C18 0.980 . S
H45 C18 0.983 . S
H46 C17 0.982 . S
H47 C17 0.979 . S
H48 C17 0.977 . S
H49 C19 0.948 . S
H50 C21 0.947 . S
H51 C22 0.948 . S
H52 C28 0.982 . S
H53 C28 0.979 . S
H54 C28 0.977 1_556 S
H55 C29 0.979 . S
H56 C29 0.980 1_556 S
H57 C29 0.983 . S
H58 C2 0.947 . S
C59 C2 1.392 . S
C59 C3 1.419 . S
C59 H41 0.948 . S
C60 C61 1.391 . S
C60 C64 1.391 . S
C60 H102 0.948 . S
C61 C60 1.391 . S
C61 C62 1.391 . S
C62 C61 1.391 . S
C62 H118 0.947 . S
C62 C119 1.392 . S
C63 C64 1.391 . S
C63 C67 1.397 . S
C63 C119 1.419 . S
C64 C60 1.391 . S
C64 C63 1.391 . S
C64 C65 1.399 . S
C65 C64 1.399 . S
C65 C68 1.396 . S
C65 C77 1.453 . S
C65 C78 1.684 . S
H66 C90 0.948 . S
C67 C63 1.397 . S
C67 C68 1.394 . S
C67 C86 1.723 . S
C68 C65 1.396 . S
C68 C67 1.394 . S
C68 C98 1.723 . S
H69 C92 0.947 . S
H70 C93 0.948 . S
H71 C99 0.982 . S
H72 C100 0.979 . S
H73 C100 0.980 . S
H74 C100 0.983 . S
H75 C99 0.979 . S
H76 C99 0.977 . S
C77 C65 1.453 . S
C77 H106 0.982 . S
C77 H107 0.979 . S
C77 H108 0.977 . S
C78 C65 1.684 . S
C78 H103 0.979 . S
C78 H104 0.980 . S
C78 H105 0.983 . S
C79 C80 1.391 . S
C79 C84 1.391 . S
C79 H109 0.948 . S
C80 C79 1.391 . S
C80 C81 1.391 . S
C81 C80 1.391 . S
C81 C82 1.392 . S
C81 H110 0.947 . S
C82 C81 1.392 . S
C82 C83 1.419 . S
C82 H111 0.948 . S
C83 C82 1.419 . S
C83 C84 1.391 . S
C83 C87 1.397 . S
C84 C79 1.391 . S
C84 C83 1.391 . S
C84 C85 1.399 . S
C85 C84 1.399 . S
C85 C86 1.396 . S
C85 C88 1.453 . S
C85 C89 1.684 . S
C86 C67 1.723 . S
C86 C85 1.396 . S
C86 C87 1.394 . S
C87 C83 1.397 . S
C87 C86 1.394 . S
C87 C97 1.723 . S
C88 C85 1.453 . S
C88 H112 0.982 . S
C88 H113 0.979 . S
C88 H114 0.977 . S
C89 C85 1.684 . S
C89 H115 0.979 . S
C89 H116 0.980 . S
C89 H117 0.983 . S
C90 H66 0.948 . S
C90 C91 1.391 . S
C90 C95 1.391 . S
C91 C90 1.391 . S
C91 C92 1.391 . S
C92 H69 0.947 . S
C92 C91 1.391 . S
C92 C93 1.392 . S
C93 H70 0.948 . S
C93 C92 1.392 . S
C93 C94 1.419 . S
C94 C93 1.419 . S
C94 C95 1.391 . S
C94 C98 1.397 . S
C95 C90 1.391 . S
C95 C94 1.391 . S
C95 C96 1.399 . S
C96 C95 1.399 . S
C96 C97 1.396 . S
C96 C99 1.453 . S
C96 C100 1.684 . S
C97 C87 1.723 . S
C97 C96 1.396 . S
C97 C98 1.394 . S
C98 C68 1.723 . S
C98 C94 1.397 . S
C98 C97 1.394 . S
C99 H71 0.982 . S
C99 H75 0.979 . S
C99 H76 0.977 . S
C99 C96 1.453 . S
C100 H72 0.979 . S
C100 H73 0.980 . S
C100 H74 0.983 . S
C100 C96 1.684 . S
H101 C119 0.948 . S
H102 C60 0.948 . S
H103 C78 0.979 . S
H104 C78 0.980 . S
H105 C78 0.983 . S
H106 C77 0.982 . S
H107 C77 0.979 . S
H108 C77 0.977 . S
H109 C79 0.948 . S
H110 C81 0.947 . S
H111 C82 0.948 . S
H112 C88 0.982 . S
H113 C88 0.979 . S
H114 C88 0.977 . S
H115 C89 0.979 . S
H116 C89 0.980 . S
H117 C89 0.983 . S
H118 C62 0.947 . S
C119 C62 1.392 . S
C119 C63 1.419 . S
C119 H101 0.948 . S
C120 C121 1.391 . S
C120 C124 1.391 . S
C120 H162 0.948 . S
C121 C120 1.391 . S
C121 C122 1.391 . S
C122 C121 1.391 . S
C122 H178 0.947 . S
C122 C179 1.392 . S
C123 C124 1.391 . S
C123 C127 1.397 . S
C123 C179 1.419 . S
C124 C120 1.391 . S
C124 C123 1.391 . S
C124 C125 1.399 . S
C125 C124 1.399 . S
C125 C128 1.396 . S
C125 C137 1.453 . S
C125 C138 1.684 . S
H126 C150 0.948 . S
C127 C123 1.397 . S
C127 C128 1.394 . S
C127 C146 1.723 . S
C128 C125 1.396 . S
C128 C127 1.394 . S
C128 C158 1.723 . S
H129 C152 0.947 . S
H130 C153 0.948 . S
H131 C159 0.982 . S
H132 C160 0.979 . S
H133 C160 0.980 . S
H134 C160 0.983 . S
H135 C159 0.979 . S
H136 C159 0.977 . S
C137 C125 1.453 . S
C137 H166 0.982 . S
C137 H167 0.979 . S
C137 H168 0.977 . S
C138 C125 1.684 . S
C138 H163 0.979 . S
C138 H164 0.980 . S
C138 H165 0.983 . S
C139 C140 1.391 . S
C139 C144 1.391 . S
C139 H169 0.948 . S
C140 C139 1.391 . S
C140 C141 1.391 . S
C141 C140 1.391 . S
C141 C142 1.392 . S
C141 H170 0.947 . S
C142 C141 1.392 . S
C142 C143 1.419 . S
C142 H171 0.948 . S
C143 C142 1.419 . S
C143 C144 1.391 . S
C143 C147 1.397 1_556 S
C144 C139 1.391 . S
C144 C143 1.391 . S
C144 C145 1.399 1_556 S
C145 C144 1.399 1_554 S
C145 C146 1.396 . S
C145 C148 1.453 . S
C145 C149 1.684 . S
C146 C127 1.723 . S
C146 C145 1.396 . S
C146 C147 1.394 . S
C147 C143 1.397 1_554 S
C147 C146 1.394 . S
C147 C157 1.723 . S
C148 C145 1.453 . S
C148 H172 0.982 . S
C148 H173 0.979 . S
C148 H174 0.977 . S
C149 C145 1.684 . S
C149 H175 0.979 . S
C149 H176 0.980 . S
C149 H177 0.983 . S
C150 H126 0.948 . S
C150 C151 1.391 1_556 S
C150 C155 1.391 1_556 S
C151 C150 1.391 1_554 S
C151 C152 1.391 . S
C152 H129 0.947 . S
C152 C151 1.391 . S
C152 C153 1.392 . S
C153 H130 0.948 . S
C153 C152 1.392 . S
C153 C154 1.419 . S
C154 C153 1.419 . S
C154 C155 1.391 . S
C154 C158 1.397 . S
C155 C150 1.391 1_554 S
C155 C154 1.391 . S
C155 C156 1.399 1_554 S
C156 C155 1.399 1_556 S
C156 C157 1.396 1_556 S
C156 C159 1.453 . S
C156 C160 1.684 . S
C157 C147 1.723 . S
C157 C156 1.396 1_554 S
C157 C158 1.394 . S
C158 C128 1.723 . S
C158 C154 1.397 . S
C158 C157 1.394 . S
C159 H131 0.982 . S
C159 H135 0.979 . S
C159 H136 0.977 . S
C159 C156 1.453 . S
C160 H132 0.979 . S
C160 H133 0.980 . S
C160 H134 0.983 . S
C160 C156 1.684 . S
H161 C179 0.948 . S
H162 C120 0.948 . S
H163 C138 0.979 . S
H164 C138 0.980 . S
H165 C138 0.983 . S
H166 C137 0.982 . S
H167 C137 0.979 . S
H168 C137 0.977 . S
H169 C139 0.948 . S
H170 C141 0.947 . S
H171 C142 0.948 . S
H172 C148 0.982 . S
H173 C148 0.979 . S
H174 C148 0.977 . S
H175 C149 0.979 . S
H176 C149 0.980 . S
H177 C149 0.983 . S
H178 C122 0.947 . S
C179 C122 1.392 . S
C179 C123 1.419 . S
C179 H161 0.948 . S
C180 C181 1.391 . S
C180 C184 1.391 . S
C180 H222 0.948 . S
C181 C180 1.391 . S
C181 C182 1.391 . S
C182 C181 1.391 . S
C182 H238 0.947 . S
C182 C239 1.392 . S
C183 C184 1.391 . S
C183 C187 1.397 . S
C183 C239 1.419 . S
C184 C180 1.391 . S
C184 C183 1.391 . S
C184 C185 1.399 . S
C185 C184 1.399 . S
C185 C188 1.396 . S
C185 C197 1.453 . S
C185 C198 1.684 . S
H186 C210 0.948 . S
C187 C183 1.397 . S
C187 C188 1.394 . S
C187 C206 1.723 . S
C188 C185 1.396 . S
C188 C187 1.394 . S
C188 C218 1.723 . S
H189 C212 0.947 . S
H190 C213 0.948 . S
H191 C219 0.982 . S
H192 C220 0.979 . S
H193 C220 0.980 . S
H194 C220 0.983 . S
H195 C219 0.979 . S
H196 C219 0.977 . S
C197 C185 1.453 . S
C197 H226 0.982 . S
C197 H227 0.979 . S
C197 H228 0.977 . S
C198 C185 1.684 . S
C198 H223 0.979 . S
C198 H224 0.980 . S
C198 H225 0.983 . S
C199 C200 1.391 . S
C199 C204 1.391 . S
C199 H229 0.948 . S
C200 C199 1.391 . S
C200 C201 1.391 . S
C201 C200 1.391 . S
C201 C202 1.392 . S
C201 H230 0.947 . S
C202 C201 1.392 . S
C202 C203 1.419 . S
C202 H231 0.948 . S
C203 C202 1.419 . S
C203 C204 1.391 . S
C203 C207 1.397 . S
C204 C199 1.391 . S
C204 C203 1.391 . S
C204 C205 1.399 . S
C205 C204 1.399 . S
C205 C206 1.396 . S
C205 C208 1.453 . S
C205 C209 1.684 . S
C206 C187 1.723 . S
C206 C205 1.396 . S
C206 C207 1.394 . S
C207 C203 1.397 . S
C207 C206 1.394 . S
C207 C217 1.723 . S
C208 C205 1.453 . S
C208 H232 0.982 . S
C208 H233 0.979 . S
C208 H234 0.977 . S
C209 C205 1.684 . S
C209 H235 0.979 . S
C209 H236 0.980 . S
C209 H237 0.983 . S
C210 H186 0.948 . S
C210 C211 1.391 . S
C210 C215 1.391 . S
C211 C210 1.391 . S
C211 C212 1.391 . S
C212 H189 0.947 . S
C212 C211 1.391 . S
C212 C213 1.392 . S
C213 H190 0.948 . S
C213 C212 1.392 . S
C213 C214 1.419 . S
C214 C213 1.419 . S
C214 C215 1.391 . S
C214 C218 1.397 . S
C215 C210 1.391 . S
C215 C214 1.391 . S
C215 C216 1.399 . S
C216 C215 1.399 . S
C216 C217 1.396 . S
C216 C219 1.453 . S
C216 C220 1.684 . S
C217 C207 1.723 . S
C217 C216 1.396 . S
C217 C218 1.394 . S
C218 C188 1.723 . S
C218 C214 1.397 . S
C218 C217 1.394 . S
C219 H191 0.982 . S
C219 H195 0.979 . S
C219 H196 0.977 . S
C219 C216 1.453 . S
C220 H192 0.979 . S
C220 H193 0.980 . S
C220 H194 0.983 . S
C220 C216 1.684 . S
H221 C239 0.948 . S
H222 C180 0.948 . S
H223 C198 0.979 . S
H224 C198 0.980 . S
H225 C198 0.983 . S
H226 C197 0.982 . S
H227 C197 0.979 . S
H228 C197 0.977 . S
H229 C199 0.948 . S
H230 C201 0.947 . S
H231 C202 0.948 . S
H232 C208 0.982 . S
H233 C208 0.979 . S
H234 C208 0.977 . S
H235 C209 0.979 . S
H236 C209 0.980 . S
H237 C209 0.983 . S
H238 C182 0.947 . S
C239 C182 1.392 . S
C239 C183 1.419 . S
C239 H221 0.948 . S
C240 C242 1.422 . S
C240 C244 1.415 . S
C240 N246 1.369 . S
C241 C242 1.421 . S
C241 C243 1.417 . S
C241 C253 1.422 . S
C242 C240 1.422 . S
C242 C241 1.421 . S
C242 N252 1.359 . S
C243 C241 1.417 . S
C243 C245 1.329 . S
C243 H262 0.930 . S
C244 C240 1.415 . S
C244 C245 1.437 . S
C244 C248 1.413 . S
C245 C243 1.329 . S
C245 C244 1.437 . S
C245 H267 0.929 . S
N246 C240 1.369 . S
N246 C247 1.324 1_655 S
N246 Gd251 2.622 . S
C247 N246 1.324 1_455 S
C247 C249 1.378 1_455 S
C247 H259 0.944 . S
C248 C244 1.413 . S
C248 C249 1.348 . S
C248 H264 0.931 . S
C249 C247 1.378 1_655 S
C249 C248 1.348 . S
C249 H265 0.930 1_655 S
Gd250 N270 2.622 . S
Gd250 N277 2.570 . S
Gd250 O284 2.353 1_455 S
Gd250 O285 2.468 . S
Gd250 O286 2.427 . S
Gd250 O288 2.388 1_455 S
Gd250 O289 2.386 . S
Gd250 O293 2.307 1_565 S
Gd250 C303 2.805 . S
Gd251 N246 2.622 . S
Gd251 N252 2.570 . S
Gd251 O283 2.386 . S
Gd251 O287 2.307 1_545 S
Gd251 O290 2.353 1_655 S
Gd251 O291 2.468 . S
Gd251 O292 2.427 . S
Gd251 O294 2.388 1_655 S
Gd251 C315 2.805 . S
N252 C242 1.359 . S
N252 Gd251 2.570 . S
N252 C254 1.343 . S
C253 C241 1.422 . S
C253 C255 1.321 . S
C253 H261 0.931 . S
C254 N252 1.343 . S
C254 C255 1.390 . S
C254 H256 0.931 . S
C255 C253 1.321 . S
C255 C254 1.390 . S
C255 H257 0.930 . S
H256 C254 0.931 . S
H257 C255 0.930 . S
H258 C281 0.931 . S
H259 C247 0.944 . S
H260 C282 0.930 . S
H261 C253 0.931 . S
H262 C243 0.930 . S
H263 C272 0.929 1_655 S
H264 C248 0.931 . S
H265 C249 0.930 1_455 S
H266 C304 0.930 . S
H267 C245 0.929 . S
H268 C273 0.931 . S
H269 C274 0.930 1_655 S
N270 Gd250 2.622 . S
N270 C271 1.369 . S
N270 C272 1.338 . S
C271 N270 1.369 . S
C271 C275 1.415 . S
C271 C278 1.422 . S
C272 H263 0.929 1_455 S
C272 N270 1.338 . S
C272 C274 1.378 . S
C273 H268 0.931 . S
C273 C274 1.348 . S
C273 C275 1.413 . S
C274 H269 0.930 1_455 S
C274 C272 1.378 . S
C274 C273 1.348 . S
C275 C271 1.415 . S
C275 C273 1.413 . S
C275 C305 1.437 . S
H276 C305 0.929 . S
N277 Gd250 2.570 . S
N277 C278 1.359 . S
N277 C281 1.343 . S
C278 C271 1.422 . S
C278 N277 1.359 . S
C278 C280 1.421 . S
C279 C280 1.422 . S
C279 C282 1.321 . S
C279 H306 0.931 . S
C280 C278 1.421 . S
C280 C279 1.422 . S
C280 C304 1.417 . S
C281 H258 0.931 . S
C281 N277 1.343 . S
C281 C282 1.390 . S
C282 H260 0.930 . S
C282 C279 1.321 . S
C282 C281 1.390 . S
O283 Gd251 2.386 . S
O283 C295 1.265 . S
O284 Gd250 2.353 1_655 S
O284 C295 1.242 1_565 S
O285 Gd250 2.468 . S
O285 C303 1.263 . S
O286 Gd250 2.427 . S
O286 C303 1.252 . S
O287 Gd251 2.307 1_565 S
O287 C296 1.261 . S
O288 Gd250 2.388 1_655 S
O288 C296 1.252 . S
O289 Gd250 2.386 . S
O289 C307 1.265 . S
O290 Gd251 2.353 1_455 S
O290 C307 1.242 1_545 S
O291 Gd251 2.468 . S
O291 C315 1.263 . S
O292 Gd251 2.427 . S
O292 C315 1.252 . S
O293 Gd250 2.307 1_545 S
O293 C308 1.261 . S
O294 Gd251 2.388 1_455 S
O294 C308 1.252 . S
C295 O283 1.265 . S
C295 O284 1.242 1_545 S
C296 O287 1.261 . S
C296 O288 1.252 . S
C297 C300 1.394 . S
C297 C302 1.370 . S
C297 C303 1.500 . S
C298 C301 1.383 . S
C298 C302 1.395 . S
C299 C300 1.396 . S
C299 C301 1.365 . S
C299 H316 0.929 . S
C300 C297 1.394 . S
C300 C299 1.396 . S
C300 H317 0.930 . S
C301 C298 1.383 . S
C301 C299 1.365 . S
C301 H318 0.931 . S
C302 C297 1.370 . S
C302 C298 1.395 . S
C302 H319 0.930 . S
C303 Gd250 2.805 . S
C303 O285 1.263 . S
C303 O286 1.252 . S
C303 C297 1.500 . S
C304 H266 0.930 . S
C304 C280 1.417 . S
C304 C305 1.329 . S
C305 C275 1.437 . S
C305 H276 0.929 . S
C305 C304 1.329 . S
H306 C279 0.931 . S
C307 O289 1.265 . S
C307 O290 1.242 1_565 S
C308 O293 1.261 . S
C308 O294 1.252 . S
C309 C312 1.394 . S
C309 C314 1.370 . S
C309 C315 1.500 . S
C310 C313 1.383 . S
C310 C314 1.395 . S
C311 C312 1.396 . S
C311 C313 1.365 . S
C311 H320 0.929 . S
C312 C309 1.394 . S
C312 C311 1.396 . S
C312 H321 0.930 . S
C313 C310 1.383 . S
C313 C311 1.365 . S
C313 H322 0.931 . S
C314 C309 1.370 . S
C314 C310 1.395 . S
C314 H323 0.930 . S
C315 Gd251 2.805 . S
C315 O291 1.263 . S
C315 O292 1.252 . S
C315 C309 1.500 . S
H316 C299 0.929 . S
H317 C300 0.930 . S
H318 C301 0.931 . S
H319 C302 0.930 . S
H320 C311 0.929 . S
H321 C312 0.930 . S
H322 C313 0.931 . S
H323 C314 0.930 . S
C324 C326 1.422 . S
C324 C328 1.415 . S
C324 N330 1.369 . S
C325 C326 1.421 . S
C325 C327 1.417 . S
C325 C337 1.422 . S
C326 C324 1.422 . S
C326 C325 1.421 . S
C326 N336 1.359 . S
C327 C325 1.417 . S
C327 C329 1.329 . S
C327 H346 0.930 . S
C328 C324 1.415 . S
C328 C329 1.437 . S
C328 C332 1.413 . S
C329 C327 1.329 . S
C329 C328 1.437 . S
C329 H351 0.929 . S
N330 C324 1.369 . S
N330 C331 1.338 . S
N330 Gd335 2.622 . S
C331 N330 1.338 . S
C331 C333 1.378 . S
C331 H343 0.929 . S
C332 C328 1.413 . S
C332 C333 1.348 . S
C332 H348 0.931 . S
C333 C331 1.378 . S
C333 C332 1.348 . S
C333 H349 0.930 . S
Gd334 N354 2.622 . S
Gd334 N361 2.570 1_556 S
Gd334 O368 2.353 . S
Gd334 O369 2.468 . S
Gd334 O370 2.427 . S
Gd334 O372 2.388 . S
Gd334 O373 2.386 1_556 S
Gd334 O377 2.307 1_556 S
Gd334 C387 2.805 . S
Gd335 N330 2.622 . S
Gd335 N336 2.570 . S
Gd335 O367 2.386 1_554 S
Gd335 O371 2.307 . S
Gd335 O374 2.353 . S
Gd335 O375 2.468 . S
Gd335 O376 2.427 . S
Gd335 O378 2.388 . S
Gd335 C399 2.805 . S
N336 C326 1.359 . S
N336 Gd335 2.570 . S
N336 C338 1.343 . S
C337 C325 1.422 . S
C337 C339 1.321 . S
C337 H345 0.931 . S
C338 N336 1.343 . S
C338 C339 1.390 . S
C338 H340 0.931 . S
C339 C337 1.321 . S
C339 C338 1.390 . S
C339 H341 0.930 . S
H340 C338 0.931 . S
H341 C339 0.930 . S
H342 C365 0.931 . S
H343 C331 0.929 . S
H344 C366 0.930 . S
H345 C337 0.931 . S
H346 C327 0.930 . S
H347 C356 0.929 . S
H348 C332 0.931 . S
H349 C333 0.930 . S
H350 C388 0.930 . S
H351 C329 0.929 . S
H352 C357 0.931 . S
H353 C358 0.930 . S
N354 Gd334 2.622 . S
N354 C355 1.369 1_556 S
N354 C356 1.338 . S
C355 N354 1.369 1_554 S
C355 C359 1.415 . S
C355 C362 1.422 . S
C356 H347 0.929 . S
C356 N354 1.338 . S
C356 C358 1.378 . S
C357 H352 0.931 . S
C357 C358 1.348 1_554 S
C357 C359 1.413 . S
C358 H353 0.930 . S
C358 C356 1.378 . S
C358 C357 1.348 1_556 S
C359 C355 1.415 . S
C359 C357 1.413 . S
C359 C389 1.437 . S
H360 C389 0.929 . S
N361 Gd334 2.570 1_554 S
N361 C362 1.359 . S
N361 C365 1.343 . S
C362 C355 1.422 . S
C362 N361 1.359 . S
C362 C364 1.421 . S
C363 C364 1.422 . S
C363 C366 1.321 . S
C363 H390 0.931 . S
C364 C362 1.421 . S
C364 C363 1.422 . S
C364 C388 1.417 . S
C365 H342 0.931 . S
C365 N361 1.343 . S
C365 C366 1.390 . S
C366 H344 0.930 . S
C366 C363 1.321 . S
C366 C365 1.390 . S
O367 Gd335 2.386 1_556 S
O367 C379 1.265 . S
O368 Gd334 2.353 . S
O368 C379 1.242 . S
O369 Gd334 2.468 . S
O369 C387 1.263 . S
O370 Gd334 2.427 . S
O370 C387 1.252 . S
O371 Gd335 2.307 . S
O371 C380 1.261 . S
O372 Gd334 2.388 . S
O372 C380 1.252 1_556 S
O373 Gd334 2.386 1_554 S
O373 C391 1.265 . S
O374 Gd335 2.353 . S
O374 C391 1.242 . S
O375 Gd335 2.468 . S
O375 C399 1.263 . S
O376 Gd335 2.427 . S
O376 C399 1.252 . S
O377 Gd334 2.307 1_554 S
O377 C392 1.261 . S
O378 Gd335 2.388 . S
O378 C392 1.252 . S
C379 O367 1.265 . S
C379 O368 1.242 . S
C380 O371 1.261 . S
C380 O372 1.252 1_554 S
C381 C384 1.394 . S
C381 C386 1.370 . S
C381 C387 1.500 . S
C382 C385 1.383 . S
C382 C386 1.395 . S
C383 C384 1.396 . S
C383 C385 1.365 . S
C383 H400 0.929 . S
C384 C381 1.394 . S
C384 C383 1.396 . S
C384 H401 0.930 . S
C385 C382 1.383 . S
C385 C383 1.365 . S
C385 H402 0.931 . S
C386 C381 1.370 . S
C386 C382 1.395 . S
C386 H403 0.930 . S
C387 Gd334 2.805 . S
C387 O369 1.263 . S
C387 O370 1.252 . S
C387 C381 1.500 . S
C388 H350 0.930 . S
C388 C364 1.417 . S
C388 C389 1.329 . S
C389 C359 1.437 . S
C389 H360 0.929 . S
C389 C388 1.329 . S
H390 C363 0.931 . S
C391 O373 1.265 . S
C391 O374 1.242 . S
C392 O377 1.261 . S
C392 O378 1.252 . S
C393 C396 1.394 . S
C393 C398 1.370 . S
C393 C399 1.500 . S
C394 C397 1.383 . S
C394 C398 1.395 . S
C395 C396 1.396 . S
C395 C397 1.365 . S
C395 H404 0.929 . S
C396 C393 1.394 . S
C396 C395 1.396 . S
C396 H405 0.930 . S
C397 C394 1.383 . S
C397 C395 1.365 . S
C397 H406 0.931 . S
C398 C393 1.370 . S
C398 C394 1.395 . S
C398 H407 0.930 . S
C399 Gd335 2.805 . S
C399 O375 1.263 . S
C399 O376 1.252 . S
C399 C393 1.500 . S
H400 C383 0.929 . S
H401 C384 0.930 . S
H402 C385 0.931 . S
H403 C386 0.930 . S
H404 C395 0.929 . S
H405 C396 0.930 . S
H406 C397 0.931 . S
H407 C398 0.930 . S
C408 C409 1.391 . S
C408 C410 1.394 . S
C408 H424 0.931 . S
C409 C408 1.391 . S
C409 C413 1.376 . S
C410 C408 1.394 . S
C410 C411 1.369 . S
C410 C414 1.531 . S
C411 C410 1.369 . S
C411 C412 1.410 . S
C411 C419 1.503 . S
C412 C411 1.410 . S
C412 C413 1.392 . S
C412 C415 1.511 . S
C413 C409 1.376 . S
C413 C412 1.392 . S
C413 H425 0.929 . S
C414 C410 1.531 . S
C414 H426 0.960 . S
C414 H427 0.962 . S
C414 H428 0.960 . S
C415 C412 1.511 . S
C415 H429 0.961 . S
C415 H430 0.961 . S
C415 H431 0.961 . S
C416 C417 1.370 . S
C416 C418 1.363 . S
C416 H432 0.931 . S
C417 C416 1.370 . S
C417 C421 1.408 . S
C418 C416 1.363 . S
C418 C419 1.370 . S
C418 C422 1.524 . S
C419 C411 1.503 . S
C419 C418 1.370 . S
C419 C420 1.403 . S
C420 C419 1.403 . S
C420 C421 1.404 . S
C420 C423 1.539 . S
C421 C417 1.408 . S
C421 C420 1.404 . S
C421 H433 0.930 . S
C422 C418 1.524 . S
C422 H434 0.956 . S
C422 H435 0.961 . S
C422 H436 0.961 . S
C423 C420 1.539 . S
C423 H437 0.958 . S
C423 H438 0.961 . S
C423 H439 0.960 . S
H424 C408 0.931 . S
H425 C413 0.929 . S
H426 C414 0.960 . S
H427 C414 0.962 . S
H428 C414 0.960 . S
H429 C415 0.961 . S
H430 C415 0.961 . S
H431 C415 0.961 . S
H432 C416 0.931 . S
H433 C421 0.930 . S
H434 C422 0.956 . S
H435 C422 0.961 . S
H436 C422 0.961 . S
H437 C423 0.958 . S
H438 C423 0.961 . S
H439 C423 0.960 . S
C440 C441 1.391 . S
C440 C442 1.394 . S
C440 H456 0.931 . S
C441 C440 1.391 . S
C441 C445 1.376 . S
C442 C440 1.394 . S
C442 C443 1.369 . S
C442 C446 1.531 1_554 S
C443 C442 1.369 . S
C443 C444 1.410 . S
C443 C451 1.503 . S
C444 C443 1.410 . S
C444 C445 1.392 . S
C444 C447 1.511 . S
C445 C441 1.376 . S
C445 C444 1.392 . S
C445 H457 0.929 . S
C446 C442 1.531 1_556 S
C446 H458 0.960 . S
C446 H459 0.962 1_556 S
C446 H460 0.960 . S
C447 C444 1.511 . S
C447 H461 0.961 . S
C447 H462 0.961 . S
C447 H463 0.961 . S
C448 C449 1.370 . S
C448 C450 1.363 . S
C448 H464 0.931 . S
C449 C448 1.370 . S
C449 C453 1.408 1_554 S
C450 C448 1.363 . S
C450 C451 1.370 . S
C450 C454 1.524 . S
C451 C443 1.503 . S
C451 C450 1.370 . S
C451 C452 1.403 1_554 S
C452 C451 1.403 1_556 S
C452 C453 1.404 . S
C452 C455 1.539 . S
C453 C449 1.408 1_556 S
C453 C452 1.404 . S
C453 H465 0.930 . S
C454 C450 1.524 . S
C454 H466 0.956 . S
C454 H467 0.961 . S
C454 H468 0.961 . S
C455 C452 1.539 . S
C455 H469 0.958 . S
C455 H470 0.961 . S
C455 H471 0.960 . S
H456 C440 0.931 . S
H457 C445 0.929 . S
H458 C446 0.960 . S
H459 C446 0.962 1_554 S
H460 C446 0.960 . S
H461 C447 0.961 . S
H462 C447 0.961 . S
H463 C447 0.961 . S
H464 C448 0.931 . S
H465 C453 0.930 . S
H466 C454 0.956 . S
H467 C454 0.961 . S
H468 C454 0.961 . S
H469 C455 0.958 . S
H470 C455 0.961 . S
H471 C455 0.960 . S
C472 C473 1.391 . S
C472 C474 1.394 . S
C472 H488 0.931 . S
C473 C472 1.391 . S
C473 C477 1.376 . S
C474 C472 1.394 . S
C474 C475 1.369 . S
C474 C478 1.531 . S
C475 C474 1.369 . S
C475 C476 1.410 . S
C475 C483 1.503 . S
C476 C475 1.410 . S
C476 C477 1.392 . S
C476 C479 1.511 . S
C477 C473 1.376 . S
C477 C476 1.392 . S
C477 H489 0.929 . S
C478 C474 1.531 . S
C478 H490 0.960 . S
C478 H491 0.962 . S
C478 H492 0.960 . S
C479 C476 1.511 . S
C479 H493 0.961 . S
C479 H494 0.961 . S
C479 H495 0.961 . S
C480 C481 1.370 . S
C480 C482 1.363 . S
C480 H496 0.931 . S
C481 C480 1.370 . S
C481 C485 1.408 . S
C482 C480 1.363 . S
C482 C483 1.370 . S
C482 C486 1.524 . S
C483 C475 1.503 . S
C483 C482 1.370 . S
C483 C484 1.403 . S
C484 C483 1.403 . S
C484 C485 1.404 . S
C484 C487 1.539 . S
C485 C481 1.408 . S
C485 C484 1.404 . S
C485 H497 0.930 . S
C486 C482 1.524 . S
C486 H498 0.956 . S
C486 H499 0.961 . S
C486 H500 0.961 . S
C487 C484 1.539 . S
C487 H501 0.958 . S
C487 H502 0.961 . S
C487 H503 0.960 . S
H488 C472 0.931 . S
H489 C477 0.929 . S
H490 C478 0.960 . S
H491 C478 0.962 . S
H492 C478 0.960 . S
H493 C479 0.961 . S
H494 C479 0.961 . S
H495 C479 0.961 . S
H496 C480 0.931 . S
H497 C485 0.930 . S
H498 C486 0.956 . S
H499 C486 0.961 . S
H500 C486 0.961 . S
H501 C487 0.958 . S
H502 C487 0.961 . S
H503 C487 0.960 . S
C504 C505 1.391 1_556 S
C504 C506 1.394 . S
C504 H520 0.931 . S
C505 C504 1.391 1_554 S
C505 C509 1.376 . S
C506 C504 1.394 . S
C506 C507 1.369 1_556 S
C506 C510 1.531 . S
C507 C506 1.369 1_554 S
C507 C508 1.410 . S
C507 C515 1.503 . S
C508 C507 1.410 . S
C508 C509 1.392 . S
C508 C511 1.511 . S
C509 C505 1.376 . S
C509 C508 1.392 . S
C509 H521 0.929 . S
C510 C506 1.531 . S
C510 H522 0.960 . S
C510 H523 0.962 . S
C510 H524 0.960 . S
C511 C508 1.511 . S
C511 H525 0.961 . S
C511 H526 0.961 . S
C511 H527 0.961 . S
C512 C513 1.370 . S
C512 C514 1.363 . S
C512 H528 0.931 . S
C513 C512 1.370 . S
C513 C517 1.408 1_554 S
C514 C512 1.363 . S
C514 C515 1.370 . S
C514 C518 1.524 . S
C515 C507 1.503 . S
C515 C514 1.370 . S
C515 C516 1.403 1_554 S
C516 C515 1.403 1_556 S
C516 C517 1.404 . S
C516 C519 1.539 . S
C517 C513 1.408 1_556 S
C517 C516 1.404 . S
C517 H529 0.930 . S
C518 C514 1.524 . S
C518 H530 0.956 . S
C518 H531 0.961 . S
C518 H532 0.961 . S
C519 C516 1.539 . S
C519 H533 0.958 . S
C519 H534 0.961 . S
C519 H535 0.960 . S
H520 C504 0.931 . S
H521 C509 0.929 . S
H522 C510 0.960 . S
H523 C510 0.962 . S
H524 C510 0.960 . S
H525 C511 0.961 . S
H526 C511 0.961 . S
H527 C511 0.961 . S
H528 C512 0.931 . S
H529 C517 0.930 . S
H530 C518 0.956 . S
H531 C518 0.961 . S
H532 C518 0.961 . S
H533 C519 0.958 . S
H534 C519 0.961 . S
H535 C519 0.960 . S
C536 C537 1.391 . S
C536 C538 1.394 . S
C536 H552 0.931 . S
C537 C536 1.391 . S
C537 C541 1.376 . S
C538 C536 1.394 . S
C538 C539 1.369 . S
C538 C542 1.531 . S
C539 C538 1.369 . S
C539 C540 1.410 . S
C539 C547 1.503 . S
C540 C539 1.410 . S
C540 C541 1.392 . S
C540 C543 1.511 . S
C541 C537 1.376 . S
C541 C540 1.392 . S
C541 H553 0.929 . S
C542 C538 1.531 . S
C542 H554 0.960 . S
C542 H555 0.962 . S
C542 H556 0.960 . S
C543 C540 1.511 . S
C543 H557 0.961 . S
C543 H558 0.961 . S
C543 H559 0.961 . S
C544 C545 1.370 . S
C544 C546 1.363 . S
C544 H560 0.931 . S
C545 C544 1.370 . S
C545 C549 1.408 . S
C546 C544 1.363 . S
C546 C547 1.370 . S
C546 C550 1.524 . S
C547 C539 1.503 . S
C547 C546 1.370 . S
C547 C548 1.403 . S
C548 C547 1.403 . S
C548 C549 1.404 . S
C548 C551 1.539 . S
C549 C545 1.408 . S
C549 C548 1.404 . S
C549 H561 0.930 . S
C550 C546 1.524 . S
C550 H562 0.960 . S
C550 H563 0.961 . S
C550 H564 0.961 1_565 S
C551 C548 1.539 . S
C551 H565 0.958 . S
C551 H566 0.961 . S
C551 H567 0.960 . S
H552 C536 0.931 . S
H553 C541 0.929 . S
H554 C542 0.960 . S
H555 C542 0.962 . S
H556 C542 0.960 . S
H557 C543 0.961 . S
H558 C543 0.961 . S
H559 C543 0.961 . S
H560 C544 0.931 . S
H561 C549 0.930 . S
H562 C550 0.960 . S
H563 C550 0.961 . S
H564 C550 0.961 1_545 S
H565 C551 0.958 . S
H566 C551 0.961 . S
H567 C551 0.960 . S
C568 C569 1.391 . S
C568 C570 1.394 . S
C568 H584 0.931 . S
C569 C568 1.391 . S
C569 C573 1.376 . S
C570 C568 1.394 . S
C570 C571 1.369 . S
C570 C574 1.531 . S
C571 C570 1.369 . S
C571 C572 1.410 . S
C571 C579 1.503 . S
C572 C571 1.410 . S
C572 C573 1.392 . S
C572 C575 1.511 . S
C573 C569 1.376 . S
C573 C572 1.392 . S
C573 H585 0.929 . S
C574 C570 1.531 . S
C574 H586 0.960 . S
C574 H587 0.962 . S
C574 H588 0.960 . S
C575 C572 1.511 . S
C575 H589 0.961 . S
C575 H590 0.961 . S
C575 H591 0.961 . S
C576 C577 1.370 . S
C576 C578 1.363 . S
C576 H592 0.931 . S
C577 C576 1.370 . S
C577 C581 1.408 . S
C578 C576 1.363 . S
C578 C579 1.370 . S
C578 C582 1.524 . S
C579 C571 1.503 . S
C579 C578 1.370 . S
C579 C580 1.403 . S
C580 C579 1.403 . S
C580 C581 1.404 . S
C580 C583 1.539 . S
C581 C577 1.408 . S
C581 C580 1.404 . S
C581 H593 0.930 . S
C582 C578 1.524 . S
C582 H594 0.956 . S
C582 H595 0.961 . S
C582 H596 0.961 . S
C583 C580 1.539 . S
C583 H597 0.958 . S
C583 H598 0.961 . S
C583 H599 0.960 . S
H584 C568 0.931 . S
H585 C573 0.929 . S
H586 C574 0.960 . S
H587 C574 0.962 . S
H588 C574 0.960 . S
H589 C575 0.961 . S
H590 C575 0.961 . S
H591 C575 0.961 . S
H592 C576 0.931 . S
H593 C581 0.930 . S
H594 C582 0.956 . S
H595 C582 0.961 . S
H596 C582 0.961 . S
H597 C583 0.958 . S
H598 C583 0.961 . S
H599 C583 0.960 . S
C600 C601 1.391 . S
C600 C602 1.394 . S
C600 H616 0.931 . S
C601 C600 1.391 . S
C601 C605 1.376 . S
C602 C600 1.394 . S
C602 C603 1.369 . S
C602 C606 1.531 . S
C603 C602 1.369 . S
C603 C604 1.410 . S
C603 C611 1.503 . S
C604 C603 1.410 . S
C604 C605 1.392 . S
C604 C607 1.511 . S
C605 C601 1.376 . S
C605 C604 1.392 . S
C605 H617 0.929 . S
C606 C602 1.531 . S
C606 H618 0.960 . S
C606 H619 0.962 . S
C606 H620 0.960 . S
C607 C604 1.511 . S
C607 H621 0.961 . S
C607 H622 0.961 . S
C607 H623 0.961 1_545 S
C608 C609 1.370 . S
C608 C610 1.363 . S
C608 H624 0.931 . S
C609 C608 1.370 . S
C609 C613 1.408 . S
C610 C608 1.363 . S
C610 C611 1.370 . S
C610 C614 1.524 . S
C611 C603 1.503 . S
C611 C610 1.370 . S
C611 C612 1.403 . S
C612 C611 1.403 . S
C612 C613 1.404 . S
C612 C615 1.539 1_545 S
C613 C609 1.408 . S
C613 C612 1.404 . S
C613 H625 0.930 1_545 S
C614 C610 1.524 . S
C614 H626 0.956 . S
C614 H627 0.961 . S
C614 H628 0.961 . S
C615 C612 1.539 1_565 S
C615 H629 0.958 . S
C615 H630 0.961 . S
C615 H631 0.960 . S
H616 C600 0.931 . S
H617 C605 0.929 . S
H618 C606 0.960 . S
H619 C606 0.962 . S
H620 C606 0.960 . S
H621 C607 0.961 . S
H622 C607 0.961 . S
H623 C607 0.961 1_565 S
H624 C608 0.931 . S
H625 C613 0.930 1_565 S
H626 C614 0.956 . S
H627 C614 0.961 . S
H628 C614 0.961 . S
H629 C615 0.958 . S
H630 C615 0.961 . S
H631 C615 0.960 . S
C632 C633 1.391 . S
C632 C634 1.394 . S
C632 H648 0.931 . S
C633 C632 1.391 . S
C633 C637 1.376 . S
C634 C632 1.394 . S
C634 C635 1.369 . S
C634 C638 1.531 . S
C635 C634 1.369 . S
C635 C636 1.410 . S
C635 C643 1.503 . S
C636 C635 1.410 . S
C636 C637 1.392 . S
C636 C639 1.511 . S
C637 C633 1.376 . S
C637 C636 1.392 . S
C637 H649 0.929 . S
C638 C634 1.531 . S
C638 H650 0.960 . S
C638 H651 0.962 . S
C638 H652 0.960 . S
C639 C636 1.511 . S
C639 H653 0.961 . S
C639 H654 0.961 . S
C639 H655 0.961 . S
C640 C641 1.370 . S
C640 C642 1.363 . S
C640 H656 0.931 . S
C641 C640 1.370 . S
C641 C645 1.408 . S
C642 C640 1.363 . S
C642 C643 1.370 . S
C642 C646 1.524 . S
C643 C635 1.503 . S
C643 C642 1.370 . S
C643 C644 1.403 . S
C644 C643 1.403 . S
C644 C645 1.404 . S
C644 C647 1.539 . S
C645 C641 1.408 . S
C645 C644 1.404 . S
C645 H657 0.930 . S
C646 C642 1.524 . S
C646 H658 0.956 . S
C646 H659 0.961 . S
C646 H660 0.961 . S
C647 C644 1.539 . S
C647 H661 0.958 . S
C647 H662 0.961 . S
C647 H663 0.960 . S
H648 C632 0.931 . S
H649 C637 0.929 . S
H650 C638 0.960 . S
H651 C638 0.962 . S
H652 C638 0.960 . S
H653 C639 0.961 . S
H654 C639 0.961 . S
H655 C639 0.961 . S
H656 C640 0.931 . S
H657 C645 0.930 . S
H658 C646 0.956 . S
H659 C646 0.961 . S
H660 C646 0.961 . S
H661 C647 0.958 . S
H662 C647 0.961 . S
H663 C647 0.960 . S
C664 C665 1.391 . S
C664 C666 1.394 . S
C664 H680 0.931 . S
C665 C664 1.391 . S
C665 C669 1.376 . S
C666 C664 1.394 . S
C666 C667 1.369 . S
C666 C670 1.531 . S
C667 C666 1.369 . S
C667 C668 1.410 . S
C667 C675 1.503 . S
C668 C667 1.410 . S
C668 C669 1.392 . S
C668 C671 1.511 . S
C669 C665 1.376 . S
C669 C668 1.392 . S
C669 H681 0.929 . S
C670 C666 1.531 . S
C670 H682 0.960 . S
C670 H683 0.962 . S
C670 H684 0.960 . S
C671 C668 1.511 . S
C671 H685 0.961 . S
C671 H686 0.961 . S
C671 H687 0.961 . S
C672 C673 1.370 . S
C672 C674 1.363 . S
C672 H688 0.931 . S
C673 C672 1.370 . S
C673 C677 1.408 . S
C674 C672 1.363 . S
C674 C675 1.370 . S
C674 C678 1.524 . S
C675 C667 1.503 . S
C675 C674 1.370 . S
C675 C676 1.403 . S
C676 C675 1.403 . S
C676 C677 1.404 . S
C676 C679 1.539 . S
C677 C673 1.408 . S
C677 C676 1.404 . S
C677 H689 0.930 . S
C678 C674 1.524 . S
C678 H690 0.956 . S
C678 H691 0.961 . S
C678 H692 0.961 . S
C679 C676 1.539 . S
C679 H693 0.958 . S
C679 H694 0.961 . S
C679 H695 0.960 . S
H680 C664 0.931 . S
H681 C669 0.929 . S
H682 C670 0.960 . S
H683 C670 0.962 . S
H684 C670 0.960 . S
H685 C671 0.961 . S
H686 C671 0.961 . S
H687 C671 0.961 . S
H688 C672 0.931 . S
H689 C677 0.930 . S
H690 C678 0.956 . S
H691 C678 0.961 . S
H692 C678 0.961 . S
H693 C679 0.958 . S
H694 C679 0.961 . S
H695 C679 0.960 . S
C696 C697 1.391 . S
C696 C698 1.394 . S
C696 H712 0.931 . S
C697 C696 1.391 . S
C697 C701 1.376 . S
C698 C696 1.394 . S
C698 C699 1.369 . S
C698 C702 1.531 . S
C699 C698 1.369 . S
C699 C700 1.410 . S
C699 C707 1.503 . S
C700 C699 1.410 . S
C700 C701 1.392 . S
C700 C703 1.511 . S
C701 C697 1.376 . S
C701 C700 1.392 . S
C701 H713 0.929 . S
C702 C698 1.531 . S
C702 H714 0.960 . S
C702 H715 0.962 . S
C702 H716 0.960 . S
C703 C700 1.511 . S
C703 H717 0.961 . S
C703 H718 0.961 . S
C703 H719 0.961 1_545 S
C704 C705 1.370 . S
C704 C706 1.363 . S
C704 H720 0.931 . S
C705 C704 1.370 . S
C705 C709 1.408 . S
C706 C704 1.363 . S
C706 C707 1.370 . S
C706 C710 1.524 . S
C707 C699 1.503 . S
C707 C706 1.370 . S
C707 C708 1.403 . S
C708 C707 1.403 . S
C708 C709 1.404 . S
C708 C711 1.539 . S
C709 C705 1.408 . S
C709 C708 1.404 . S
C709 H721 0.930 . S
C710 C706 1.524 . S
C710 H722 0.956 . S
C710 H723 0.961 . S
C710 H724 0.961 . S
C711 C708 1.539 . S
C711 H725 0.958 . S
C711 H726 0.961 1_545 S
C711 H727 0.960 . S
H712 C696 0.931 . S
H713 C701 0.929 . S
H714 C702 0.960 . S
H715 C702 0.962 . S
H716 C702 0.960 . S
H717 C703 0.961 . S
H718 C703 0.961 . S
H719 C703 0.961 1_565 S
H720 C704 0.931 . S
H721 C709 0.930 . S
H722 C710 0.956 . S
H723 C710 0.961 . S
H724 C710 0.961 . S
H725 C711 0.958 . S
H726 C711 0.961 1_565 S
H727 C711 0.960 . S
C728 C729 1.391 . S
C728 C730 1.394 . S
C728 H744 0.931 . S
C729 C728 1.391 . S
C729 C733 1.376 . S
C730 C728 1.394 . S
C730 C731 1.369 . S
C730 C734 1.531 . S
C731 C730 1.369 . S
C731 C732 1.410 . S
C731 C739 1.503 . S
C732 C731 1.410 . S
C732 C733 1.392 . S
C732 C735 1.511 . S
C733 C729 1.376 . S
C733 C732 1.392 . S
C733 H745 0.929 . S
C734 C730 1.531 . S
C734 H746 0.960 . S
C734 H747 0.962 . S
C734 H748 0.960 . S
C735 C732 1.511 . S
C735 H749 0.961 . S
C735 H750 0.961 . S
C735 H751 0.961 . S
C736 C737 1.370 . S
C736 C738 1.363 . S
C736 H752 0.931 . S
C737 C736 1.370 . S
C737 C741 1.408 . S
C738 C736 1.363 . S
C738 C739 1.370 . S
C738 C742 1.524 . S
C739 C731 1.503 . S
C739 C738 1.370 . S
C739 C740 1.403 . S
C740 C739 1.403 . S
C740 C741 1.404 . S
C740 C743 1.539 . S
C741 C737 1.408 . S
C741 C740 1.404 . S
C741 H753 0.930 . S
C742 C738 1.524 . S
C742 H754 0.956 . S
C742 H755 0.961 . S
C742 H756 0.961 . S
C743 C740 1.539 . S
C743 H757 0.958 . S
C743 H758 0.961 . S
C743 H759 0.960 . S
H744 C728 0.931 . S
H745 C733 0.929 . S
H746 C734 0.960 . S
H747 C734 0.962 . S
H748 C734 0.960 . S
H749 C735 0.961 . S
H750 C735 0.961 . S
H751 C735 0.961 . S
H752 C736 0.931 . S
H753 C741 0.930 . S
H754 C742 0.956 . S
H755 C742 0.961 . S
H756 C742 0.961 . S
H757 C743 0.958 . S
H758 C743 0.961 . S
H759 C743 0.960 . S
C760 C761 1.391 . S
C760 C762 1.394 . S
C760 H776 0.931 . S
C761 C760 1.391 . S
C761 C765 1.376 . S
C762 C760 1.394 . S
C762 C763 1.369 . S
C762 C766 1.531 1_565 S
C763 C762 1.369 . S
C763 C764 1.410 . S
C763 C771 1.503 . S
C764 C763 1.410 . S
C764 C765 1.392 . S
C764 C767 1.511 . S
C765 C761 1.376 . S
C765 C764 1.392 . S
C765 H777 0.929 . S
C766 C762 1.531 1_545 S
C766 H778 0.960 . S
C766 H779 0.962 . S
C766 H780 0.960 . S
C767 C764 1.511 . S
C767 H781 0.961 . S
C767 H782 0.961 . S
C767 H783 0.961 . S
C768 C769 1.370 . S
C768 C770 1.363 . S
C768 H784 0.931 . S
C769 C768 1.370 . S
C769 C773 1.408 . S
C770 C768 1.363 . S
C770 C771 1.370 . S
C770 C774 1.524 . S
C771 C763 1.503 . S
C771 C770 1.370 . S
C771 C772 1.403 . S
C772 C771 1.403 . S
C772 C773 1.404 . S
C772 C775 1.539 . S
C773 C769 1.408 . S
C773 C772 1.404 . S
C773 H785 0.930 . S
C774 C770 1.524 . S
C774 H786 0.956 1_565 S
C774 H787 0.961 . S
C774 H788 0.961 . S
C775 C772 1.539 . S
C775 H789 0.958 . S
C775 H790 0.961 . S
C775 H791 0.960 . S
H776 C760 0.931 . S
H777 C765 0.929 . S
H778 C766 0.960 . S
H779 C766 0.962 . S
H780 C766 0.960 . S
H781 C767 0.961 . S
H782 C767 0.961 . S
H783 C767 0.961 . S
H784 C768 0.931 . S
H785 C773 0.930 . S
H786 C774 0.956 1_545 S
H787 C774 0.961 . S
H788 C774 0.961 . S
H789 C775 0.958 . S
H790 C775 0.961 . S
H791 C775 0.960 . S
C417 C308 1.622 . S
C409 C211 1.596 . S
C441 C31 1.529 . S
C449 C380 1.609 . S
C473 C91 1.642 . S
C481 C296 1.617 . S
C505 C151 1.611 . S
C513 C392 1.620 . S
C545 C298 1.392 . S
C537 C20 1.494 . S
C577 C379 1.607 . S
C569 C61 1.585 . S
C601 C121 1.601 . S
C609 C295 1.614 . S
C633 C200 1.492 . S
C641 C382 1.416 . S
C673 C394 1.413 . S
C665 C80 1.490 . S
C705 C310 1.422 . S
C697 C140 1.558 . S
C737 C391 1.607 . S
C729 C181 1.507 . S
C761 C1 1.570 . S
C769 C307 1.617 . S
