# Generated by pormake.
# Topology sqc, (4,8)-cn, num edge types: 1
# Building blocks:
#     Node 0, Type 0, BuildingBlock: KUFVIS_clean_linker_0, # of connection points: 4
#     Node 1, Type 0, BuildingBlock: KUFVIS_clean_linker_0, # of connection points: 4
#     Node 2, Type 0, BuildingBlock: KUFVIS_clean_linker_0, # of connection points: 4
#     Node 3, Type 0, BuildingBlock: KUFVIS_clean_linker_0, # of connection points: 4
#     Node 4, Type 0, BuildingBlock: KUFVIS_clean_linker_0, # of connection points: 4
#     Node 5, Type 0, BuildingBlock: KUFVIS_clean_linker_0, # of connection points: 4
#     Node 6, Type 0, BuildingBlock: KUFVIS_clean_linker_0, # of connection points: 4
#     Node 7, Type 0, BuildingBlock: KUFVIS_clean_linker_0, # of connection points: 4
#     Node 8, Type 1, BuildingBlock: VETTIZ_charged_sbu_0, # of connection points: 8
#     Node 9, Type 1, BuildingBlock: VETTIZ_charged_sbu_0, # of connection points: 8
#     Node 10, Type 1, BuildingBlock: VETTIZ_charged_sbu_0, # of connection points: 8
#     Node 11, Type 1, BuildingBlock: VETTIZ_charged_sbu_0, # of connection points: 8
#     Edge 12, Type (0, 1), BuildingBlock: EZIPEK_clean_linker_0, # of connection points: 2
#     Edge 13, Type (0, 1), BuildingBlock: EZIPEK_clean_linker_0, # of connection points: 2
#     Edge 14, Type (0, 1), BuildingBlock: EZIPEK_clean_linker_0, # of connection points: 2
#     Edge 15, Type (0, 1), BuildingBlock: EZIPEK_clean_linker_0, # of connection points: 2
#     Edge 16, Type (0, 1), BuildingBlock: EZIPEK_clean_linker_0, # of connection points: 2
#     Edge 17, Type (0, 1), BuildingBlock: EZIPEK_clean_linker_0, # of connection points: 2
#     Edge 18, Type (0, 1), BuildingBlock: EZIPEK_clean_linker_0, # of connection points: 2
#     Edge 19, Type (0, 1), BuildingBlock: EZIPEK_clean_linker_0, # of connection points: 2
#     Edge 20, Type (0, 1), BuildingBlock: EZIPEK_clean_linker_0, # of connection points: 2
#     Edge 21, Type (0, 1), BuildingBlock: EZIPEK_clean_linker_0, # of connection points: 2
#     Edge 22, Type (0, 1), BuildingBlock: EZIPEK_clean_linker_0, # of connection points: 2
#     Edge 23, Type (0, 1), BuildingBlock: EZIPEK_clean_linker_0, # of connection points: 2
#     Edge 24, Type (0, 1), BuildingBlock: EZIPEK_clean_linker_0, # of connection points: 2
#     Edge 25, Type (0, 1), BuildingBlock: EZIPEK_clean_linker_0, # of connection points: 2
#     Edge 26, Type (0, 1), BuildingBlock: EZIPEK_clean_linker_0, # of connection points: 2
#     Edge 27, Type (0, 1), BuildingBlock: EZIPEK_clean_linker_0, # of connection points: 2
#     Edge 28, Type (0, 1), BuildingBlock: EZIPEK_clean_linker_0, # of connection points: 2
#     Edge 29, Type (0, 1), BuildingBlock: EZIPEK_clean_linker_0, # of connection points: 2
#     Edge 30, Type (0, 1), BuildingBlock: EZIPEK_clean_linker_0, # of connection points: 2
#     Edge 31, Type (0, 1), BuildingBlock: EZIPEK_clean_linker_0, # of connection points: 2
#     Edge 32, Type (0, 1), BuildingBlock: EZIPEK_clean_linker_0, # of connection points: 2
#     Edge 33, Type (0, 1), BuildingBlock: EZIPEK_clean_linker_0, # of connection points: 2
#     Edge 34, Type (0, 1), BuildingBlock: EZIPEK_clean_linker_0, # of connection points: 2
#     Edge 35, Type (0, 1), BuildingBlock: EZIPEK_clean_linker_0, # of connection points: 2
#     Edge 36, Type (0, 1), BuildingBlock: EZIPEK_clean_linker_0, # of connection points: 2
#     Edge 37, Type (0, 1), BuildingBlock: EZIPEK_clean_linker_0, # of connection points: 2
#     Edge 38, Type (0, 1), BuildingBlock: EZIPEK_clean_linker_0, # of connection points: 2
#     Edge 39, Type (0, 1), BuildingBlock: EZIPEK_clean_linker_0, # of connection points: 2
#     Edge 40, Type (0, 1), BuildingBlock: EZIPEK_clean_linker_0, # of connection points: 2
#     Edge 41, Type (0, 1), BuildingBlock: EZIPEK_clean_linker_0, # of connection points: 2
#     Edge 42, Type (0, 1), BuildingBlock: EZIPEK_clean_linker_0, # of connection points: 2
#     Edge 43, Type (0, 1), BuildingBlock: EZIPEK_clean_linker_0, # of connection points: 2
# Relax obj value: 0.164
# Max RMSD: 0.278
# Mean RMSD: 0.218
data_MOF--net-sqc--node1-VETTIZ_charged_sbu_0--node2-KUFVIS_clean_linker_0--edge1-EZIPEK_clean_linker_0
_symmetry_space_group_name_H-M    P1
_symmetry_Int_Tables_number       1
_symmetry_cell_setting            triclinic
loop_
_symmetry_equiv_pos_as_xyz
'x, y, z'
_cell_length_a     18.127026
_cell_length_b     18.347631
_cell_length_c     52.768077
_cell_angle_alpha  90.18229
_cell_angle_beta   89.991471
_cell_angle_gamma 89.833379
loop_
_atom_site_label
_atom_site_type_symbol
_atom_site_fract_x
_atom_site_fract_y
_atom_site_fract_z
_atom_type_partial_charge
H0 H 0.76433 0.99783 0.48304 0.0
H1 H 0.95337 0.08336 0.52008 0.0
H2 H 0.97195 0.98697 0.44477 0.0
H3 H 0.08816 0.98299 0.4495 0.0
H4 H 0.27322 1.01607 0.49748 0.0
H5 H 0.06825 0.1046 0.5204 0.0
C6 C 0.82361 1.00655 0.48298 0.0
C7 C 0.86457 0.98751 0.46167 0.0
C8 C 0.8549 0.04468 0.50289 0.0
C9 C 0.93177 0.05538 0.50371 0.0
C10 C 0.97826 0.03143 0.48355 0.0
C11 C 0.94192 1.00046 0.46179 0.0
C12 C 0.06286 0.03749 0.48563 0.0
C13 C 0.10991 1.00645 0.46668 0.0
C14 C 0.18716 1.00503 0.46982 0.0
C15 C 0.21549 0.02458 0.49341 0.0
C16 C 0.1761 0.06535 0.5108 0.0
C17 C 0.0988 0.07258 0.50681 0.0
H18 H 0.27507 0.04245 0.74309 0.0
H19 H 0.29054 0.85872 0.79189 0.0
H20 H 0.36287 0.84288 0.7136 0.0
H21 H 0.37136 0.7268 0.71892 0.0
H22 H 0.34054 0.54105 0.76627 0.0
H23 H 0.25837 0.74677 0.79111 0.0
C24 C 0.2887 0.98525 0.74568 0.0
C25 C 0.32384 0.94759 0.72618 0.0
C26 C 0.27947 0.95428 0.76942 0.0
C27 C 0.29616 0.88015 0.77296 0.0
C28 C 0.31886 0.83511 0.75243 0.0
C29 C 0.33734 0.87161 0.72918 0.0
C30 C 0.32391 0.75216 0.75605 0.0
C31 C 0.35394 0.70565 0.73701 0.0
C32 C 0.35875 0.62955 0.74075 0.0
C33 C 0.33689 0.59973 0.76374 0.0
C34 C 0.29558 0.64023 0.78079 0.0
C35 C 0.29173 0.7169 0.77767 0.0
H36 H 0.80211 1.01725 0.98875 0.0
H37 H 0.59759 0.97178 0.02462 0.0
H38 H 0.60292 0.09753 0.95504 0.0
H39 H 0.5004 0.03816 0.94556 0.0
H40 H 0.28909 0.02547 0.98141 0.0
H41 H 0.48229 0.99743 0.0263 0.0
C42 C 0.74237 0.02237 -0.01112 0.0
C43 C 0.70681 0.06032 0.96951 0.0
C44 C 0.70368 0.99699 0.0096 0.0
C45 C 0.62605 0.9982 0.00923 0.0
C46 C 0.58721 0.02946 0.98856 0.0
C47 C 0.62935 0.06526 0.96958 0.0
C48 C 0.50405 0.02505 0.98663 0.0
C49 C 0.46863 0.0336 0.96284 0.0
C50 C 0.3913 0.0367 0.96104 0.0
C51 C 0.34887 0.02536 0.98273 0.0
C52 C 0.38169 1.00651 0.0056 0.0
C53 C 0.45893 1.0091 0.00794 0.0
H54 H 0.23002 0.5404 0.25874 0.0
H55 H 0.23437 0.33811 0.29832 0.0
H56 H 0.17589 0.34461 0.2184 0.0
H57 H 0.12446 0.23386 0.22907 0.0
H58 H 0.23571 0.03591 0.24935 0.0
H59 H 0.28216 0.23057 0.29082 0.0
C60 C 0.22034 0.48197 0.25865 0.0
C61 C 0.19711 0.4485 0.2364 0.0
C62 C 0.23464 0.44228 0.28051 0.0
C63 C 0.22355 0.36676 0.28083 0.0
C64 C 0.2057 0.32859 0.25839 0.0
C65 C 0.19061 0.37102 0.23604 0.0
C66 C 0.20826 0.24549 0.25817 0.0
C67 C 0.16552 0.20615 0.24043 0.0
C68 C 0.17522 0.13055 0.23742 0.0
C69 C 0.22684 0.09386 0.25239 0.0
C70 C 0.2605 0.1271 0.27305 0.0
C71 C 0.25283 0.20403 0.27558 0.0
H72 H 0.81833 0.50828 0.25556 0.0
H73 H 0.75999 0.30095 0.28439 0.0
H74 H 0.87168 0.318 0.21189 0.0
H75 H 0.86297 0.19858 0.20708 0.0
H76 H 0.77135 1.00941 0.2429 0.0
H77 H 0.80885 0.19831 0.28717 0.0
C78 C 0.81997 0.44927 0.25394 0.0
C79 C 0.84865 0.41738 0.23197 0.0
C80 C 0.78507 0.40781 0.27225 0.0
C81 C 0.78887 0.33132 0.27003 0.0
C82 C 0.82415 0.29611 0.24884 0.0
C83 C 0.85047 0.34112 0.22929 0.0
C84 C 0.82716 0.21352 0.2467 0.0
C85 C 0.84124 0.17252 0.2238 0.0
C86 C 0.82598 0.09601 0.22286 0.0
C87 C 0.79117 0.06518 0.24381 0.0
C88 C 0.78693 0.10248 0.26663 0.0
C89 C 0.81066 0.1736 0.26858 0.0
H90 H 0.73376 0.02037 0.76096 0.0
H91 H 0.80688 0.81167 0.78436 0.0
H92 H 0.68106 0.83387 0.71503 0.0
H93 H 0.69064 0.7133 0.70995 0.0
H94 H 0.77525 0.51836 0.7449 0.0
H95 H 0.75412 0.71052 0.78902 0.0
C96 C 0.73342 0.96164 0.75826 0.0
C97 C 0.70463 0.9323 0.7359 0.0
C98 C 0.77336 0.9186 0.77485 0.0
C99 C 0.77266 0.84273 0.77156 0.0
C100 C 0.73384 0.80907 0.75104 0.0
C101 C 0.7037 0.8558 0.73238 0.0
C102 C 0.73151 0.72642 0.74884 0.0
C103 C 0.71364 0.68618 0.7263 0.0
C104 C 0.72556 0.60916 0.72523 0.0
C105 C 0.7603 0.57564 0.74586 0.0
C106 C 0.77015 0.61291 0.76851 0.0
C107 C 0.75019 0.68572 0.77046 0.0
H108 H 0.79295 0.53517 0.97199 0.0
H109 H 0.57573 0.45838 0.95436 0.0
H110 H 0.61037 0.61754 0.01441 0.0
H111 H 0.5053 0.56881 0.02917 0.0
H112 H 0.28875 0.59201 -0.00152 0.0
H113 H 0.46324 0.51418 0.95042 0.0
C114 C 0.73361 0.53816 0.97492 0.0
C115 C 0.70682 0.57923 -0.00509 0.0
C116 C 0.68749 0.49366 0.96069 0.0
C117 C 0.61053 0.49513 0.96504 0.0
C118 C 0.58 0.54162 0.98405 0.0
C119 C 0.63004 0.58309 -0.00085 0.0
C120 C 0.49727 0.54639 0.98857 0.0
C121 C 0.46903 0.56473 0.01294 0.0
C122 C 0.39338 0.57979 0.01644 0.0
C123 C 0.34634 0.57739 -0.00425 0.0
C124 C 0.36913 0.5481 0.97258 0.0
C125 C 0.44525 0.53404 0.96873 0.0
H126 H 0.25336 0.44992 0.48004 0.0
H127 H 0.05542 0.4618 0.52336 0.0
H128 H 0.06324 0.54407 0.44612 0.0
H129 H 0.95485 0.58048 0.45188 0.0
H130 H 0.75211 0.56319 0.49165 0.0
H131 H 0.93849 0.44309 0.51872 0.0
C132 C 0.1946 0.46189 0.48084 0.0
C133 C 0.16261 0.50011 0.46108 0.0
C134 C 0.15752 0.45324 0.50361 0.0
C135 C 0.08199 0.46889 0.50522 0.0
C136 C 0.04343 0.49699 0.48397 0.0
C137 C 0.08639 0.5156 0.46208 0.0
C138 C 0.96106 0.51198 0.4857 0.0
C139 C 0.92569 0.55662 0.46758 0.0
C140 C 0.85021 0.57122 0.46922 0.0
C141 C 0.80977 0.54769 0.49005 0.0
C142 C 0.84061 0.50092 0.50788 0.0
C143 C 0.91608 0.48161 0.50531 0.0
Fe144 Fe 1.02509 0.77232 0.14953 0.0
O145 O 0.09102 0.81946 0.12468 0.0
Fe146 Fe 0.87274 0.7227 0.11884 0.0
Fe147 Fe 0.19623 0.82154 0.13254 0.0
O148 O 0.98049 0.72536 0.11951 0.0
O149 O 0.98288 0.72301 0.11671 0.0
O150 O 0.09018 0.82251 0.1219 0.0
Fe151 Fe 0.04499 0.77563 0.09079 0.0
C152 C 0.11584 0.89286 0.17519 0.0
O153 O 0.09353 0.68464 0.15282 0.0
O154 O 0.19232 0.74593 0.16327 0.0
O155 O 0.98452 0.71746 0.06313 0.0
O156 O 0.89012 0.66206 0.086 0.0
O157 O 0.88809 0.64216 0.14376 0.0
O158 O 0.95475 0.70883 0.17244 0.0
O159 O 0.2253 0.73911 0.10994 0.0
O160 O 0.12881 0.69429 0.08883 0.0
C161 C 0.91896 0.65067 0.16543 0.0
O162 O 0.96405 0.85801 0.08491 0.0
O163 O 0.8584 0.80663 0.09626 0.0
O164 O 0.0749 0.83535 0.17817 0.0
O165 O 0.16383 0.89989 0.15729 0.0
C166 C 0.15384 0.68761 0.16447 0.0
C167 C 0.19889 0.69776 0.0933 0.0
C168 C 0.1759 0.87851 0.07658 0.0
O169 O 0.20177 0.88588 0.09965 0.0
O170 O 0.11895 0.83912 0.06985 0.0
C171 C 0.92649 0.67528 0.06511 0.0
O172 O 0.85562 0.79618 0.14969 0.0
O173 O 0.95647 0.86017 0.14637 0.0
C174 C 0.89317 0.85227 0.08353 0.0
C175 C 0.89003 0.85633 0.15295 0.0
Fe176 Fe 0.48262 0.77916 0.42353 0.0
O177 O 0.46777 0.77155 0.38671 0.0
Fe178 Fe 0.51383 0.85742 0.36546 0.0
Fe179 Fe 0.50939 0.68724 0.36779 0.0
O180 O 0.46878 0.7799 0.38677 0.0
O181 O 0.54681 0.7726 0.34453 0.0
O182 O 0.54848 0.76506 0.34482 0.0
Fe183 Fe 0.53564 0.76872 0.30782 0.0
C184 C 0.61128 0.68457 0.41225 0.0
O185 O 0.40373 0.70143 0.42212 0.0
O186 O 0.45572 0.6179 0.3947 0.0
O187 O 0.4609 0.85809 0.30669 0.0
O188 O 0.4171 0.87031 0.3457 0.0
O189 O 0.46884 0.93704 0.3906 0.0
O190 O 0.41313 0.86303 0.41989 0.0
O191 O 0.41466 0.67536 0.34701 0.0
O192 O 0.45008 0.69649 0.3073 0.0
C193 C 0.42089 0.92453 0.40854 0.0
O194 O 0.61608 0.84734 0.30933 0.0
O195 O 0.5694 0.92433 0.34024 0.0
O196 O 0.55545 0.69369 0.42616 0.0
O197 O 0.60649 0.69353 0.38845 0.0
C198 C 0.40647 0.63756 0.41167 0.0
C199 C 0.409 0.66477 0.32325 0.0
C200 C 0.60216 0.61672 0.32458 0.0
O201 O 0.56176 0.60974 0.34484 0.0
O202 O 0.60451 0.67516 0.31034 0.0
C203 C 0.41709 0.88897 0.32258 0.0
O204 O 0.61271 0.85209 0.38427 0.0
O205 O 0.57025 0.85498 0.42351 0.0
C206 C 0.61272 0.90892 0.32141 0.0
C207 C 0.62246 0.86466 0.40757 0.0
Fe208 Fe 0.52207 0.27973 0.64926 0.0
O209 O 0.57872 0.23618 0.62063 0.0
Fe210 Fe 0.35076 0.31828 0.6247 0.0
Fe211 Fe 0.68698 0.24179 0.62016 0.0
O212 O 0.45884 0.32257 0.6223 0.0
O213 O 0.45896 0.32323 0.61986 0.0
O214 O 0.57772 0.23451 0.61816 0.0
Fe215 Fe 0.51494 0.27876 0.59083 0.0
C216 C 0.65222 0.37595 0.65391 0.0
O217 O 0.59174 0.22161 0.67415 0.0
O218 O 0.67681 0.16628 0.64802 0.0
O219 O 0.44248 0.18846 0.58962 0.0
O220 O 0.33455 0.24235 0.59733 0.0
O221 O 0.34803 0.23578 0.6529 0.0
O222 O 0.45957 0.18769 0.65033 0.0
O223 O 0.67728 0.17147 0.59013 0.0
O224 O 0.58599 0.22314 0.56476 0.0
C225 C 0.39277 0.18267 0.65664 0.0
O226 O 0.43901 0.334 0.56725 0.0
O227 O 0.35538 0.389 0.59467 0.0
O228 O 0.58465 0.37189 0.64861 0.0
O229 O 0.69554 0.32265 0.64889 0.0
C230 C 0.63873 0.16997 0.6686 0.0
C231 C 0.6435 0.18056 0.56866 0.0
C232 C 0.65495 0.36996 0.58462 0.0
O233 O 0.69577 0.31935 0.59293 0.0
O234 O 0.58495 0.37005 0.58833 0.0
C235 C 0.37172 0.19145 0.58736 0.0
O236 O 0.36798 0.39334 0.65259 0.0
O237 O 0.45867 0.33817 0.6762 0.0
C238 C 0.38387 0.37815 0.57232 0.0
C239 C 0.4107 0.3899 0.67206 0.0
Fe240 Fe 0.08239 0.28121 0.92754 0.0
O241 O 0.08808 0.27958 0.89055 0.0
Fe242 Fe 0.03851 0.367 0.87169 0.0
Fe243 Fe 0.04588 0.19818 0.87012 0.0
O244 O 0.09031 0.28763 0.89027 0.0
O245 O 1.00316 0.28553 0.84942 0.0
O246 O 1.00054 0.27828 0.84976 0.0
Fe247 Fe 1.00912 0.28381 0.81246 0.0
C248 C 0.15813 0.14273 0.90952 0.0
O249 O 1.00834 0.19761 0.92979 0.0
O250 O 0.9529 0.1915 0.89271 0.0
O251 O 0.9327 0.36827 0.81648 0.0
O252 O 0.97708 0.43747 0.84985 0.0
O253 O 0.94499 0.35122 0.8931 0.0
O254 O 0.99614 0.35693 0.93087 0.0
O255 O 0.9919 0.12435 0.84527 0.0
O256 O 0.9372 0.19591 0.8145 0.0
C257 C 0.93963 0.3631 0.91667 0.0
O258 O 0.08699 0.36669 0.81062 0.0
O259 O 0.12899 0.39004 0.84937 0.0
O260 O 0.1604 0.20194 0.92298 0.0
O261 O 0.10577 0.12599 0.89357 0.0
C262 C 0.95511 0.17616 0.91619 0.0
C263 C 0.94648 0.13459 0.8264 0.0
C264 C 0.13899 0.17968 0.82535 0.0
O265 O 0.13893 0.19873 0.84834 0.0
O266 O 0.09076 0.20366 0.80985 0.0
C267 C 0.93388 0.42667 0.83069 0.0
O268 O 0.08554 0.44287 0.89786 0.0
O269 O 0.15105 0.36733 0.92443 0.0
C270 C 0.12807 0.40312 0.82562 0.0
C271 C 0.13769 0.43019 0.91445 0.0
C272 C 0.30898 0.95233 0.45825 0.0
C273 C 0.24346 0.98638 0.44966 0.0
C274 C 0.3093 1.00576 0.40928 0.0
C275 C 0.37577 0.98181 0.42084 0.0
N276 N 0.44054 0.96808 0.46022 0.0
N277 N 0.19066 0.06359 0.41669 0.0
C278 C 0.37582 0.97332 0.44727 0.0
C279 C 0.24566 1.01882 0.42494 0.0
N280 N 0.30731 0.90054 0.47672 0.0
N281 N 0.30631 1.0137 0.38366 0.0
H282 H 0.14549 0.07807 0.42777 0.0
H283 H 0.19397 0.09157 0.39956 0.0
H284 H 0.3531 1.00665 0.37237 0.0
H285 H 0.25728 0.02422 0.37399 0.0
H286 H 0.35477 0.87303 0.48261 0.0
H287 H 0.25752 0.8819 0.48425 0.0
H288 H 0.44193 0.95944 0.47977 0.0
H289 H 0.491 0.97803 0.45132 0.0
C290 C 0.32475 0.99539 0.68042 0.0
C291 C 0.35399 0.99519 0.70535 0.0
C292 C 0.40012 0.11948 0.69878 0.0
C293 C 0.37397 0.11923 0.67343 0.0
N294 N 0.3393 0.0434 0.63796 0.0
N295 N 0.44395 0.04633 0.73374 0.0
C296 C 0.34432 0.05315 0.6635 0.0
C297 C 0.40004 0.05383 0.71291 0.0
N298 N 0.27748 0.94184 0.67295 0.0
N299 N 0.42385 0.18265 0.7097 0.0
H300 H 0.44733 0.99718 0.74359 0.0
H301 H 0.48316 0.08488 0.73907 0.0
H302 H 0.4219 0.23232 0.70033 0.0
H303 H 0.43754 0.18685 0.72883 0.0
H304 H 0.24917 0.94353 0.65577 0.0
H305 H 0.26351 0.89835 0.68468 0.0
H306 H 0.32296 0.99434 0.62971 0.0
H307 H 0.36029 0.08139 0.62525 0.0
C308 C 0.29374 0.99926 0.93051 0.0
C309 C 0.35088 0.04906 0.93681 0.0
C310 C 0.29361 0.13778 0.90877 0.0
C311 C 0.2266 0.09864 0.91053 0.0
N312 N 0.16404 0.9864 0.91999 0.0
N313 N 0.40729 0.16711 0.93013 0.0
C314 C 0.22728 0.02648 0.91975 0.0
C315 C 0.35315 0.11789 0.92468 0.0
N316 N 0.30224 0.92729 0.93622 0.0
N317 N 0.29809 0.19632 0.89296 0.0
H318 H 0.45197 0.15582 0.94183 0.0
H319 H 0.40545 0.22112 0.92411 0.0
H320 H 0.25399 0.21164 0.88138 0.0
H321 H 0.34711 0.22414 0.88951 0.0
H322 H 0.26444 0.88734 0.93097 0.0
H323 H 0.35121 0.90747 0.94407 0.0
H324 H 0.15953 0.93648 0.9292 0.0
H325 H 0.11524 1.00463 0.91168 0.0
C326 C 0.13209 0.08864 0.19401 0.0
C327 C 0.12851 0.08408 0.22072 0.0
C328 C 0.09859 0.95466 0.21813 0.0
C329 C 0.10462 0.95831 0.19139 0.0
N330 N 0.09031 0.03545 0.1546 0.0
N331 N 0.0744 0.02396 0.25648 0.0
C332 C 0.1085 0.02785 0.17956 0.0
C333 C 0.09816 0.02087 0.23199 0.0
N334 N 0.16274 0.14753 0.18237 0.0
N335 N 0.09914 0.88951 0.23053 0.0
H336 H 0.07052 0.07376 0.26604 0.0
H337 H 0.05162 0.97974 0.266 0.0
H338 H 0.10343 0.83948 0.22137 0.0
H339 H 0.10199 0.88566 0.25021 0.0
H340 H 0.17344 0.14873 0.16296 0.0
H341 H 0.18195 0.19292 0.19218 0.0
H342 H 0.08788 0.08602 0.14566 0.0
H343 H 0.06933 0.9923 0.14387 0.0
C344 C 0.2938 0.12842 0.52524 0.0
C345 C 0.22245 0.10012 0.53173 0.0
C346 C 0.25402 0.12156 0.57652 0.0
C347 C 0.32784 0.14263 0.56986 0.0
N348 N 0.42206 0.13759 0.53749 0.0
N349 N 0.1473 0.04935 0.56506 0.0
C350 C 0.34928 0.13621 0.54414 0.0
C351 C 0.206 0.09086 0.55781 0.0
N352 N 0.3087 0.1477 0.50073 0.0
N353 N 0.2285 0.13143 0.60065 0.0
H354 H 0.11288 0.0228 0.55225 0.0
H355 H 0.13776 0.0348 0.58385 0.0
H356 H 0.26119 0.14958 0.61557 0.0
H357 H 0.17305 0.12561 0.60546 0.0
H358 H 0.35978 0.16628 0.49452 0.0
H359 H 0.2675 0.1519 0.48699 0.0
H360 H 0.4405 0.12744 0.51912 0.0
H361 H 0.46468 0.1377 0.55065 0.0
C362 C 0.2931 0.07005 0.79437 0.0
C363 C 0.25456 1.00347 0.79027 0.0
C364 C 0.16138 0.04548 0.81995 0.0
C365 C 0.18725 0.11805 0.81744 0.0
N366 N 0.28221 0.19956 0.80321 0.0
N367 N 0.14534 0.93111 0.79819 0.0
C368 C 0.25496 0.13054 0.80505 0.0
C369 C 0.18715 0.99139 0.80303 0.0
N370 N 0.36606 0.07452 0.78836 0.0
N371 N 0.11445 0.02743 0.83898 0.0
H372 H 0.15998 0.89112 0.78508 0.0
H373 H 0.09253 0.92447 0.80567 0.0
H374 H 0.10355 0.0637 0.85359 0.0
H375 H 0.09711 0.97418 0.84233 0.0
H376 H 0.39819 0.12026 0.79217 0.0
H377 H 0.39573 0.02872 0.78247 0.0
H378 H 0.32786 0.21252 0.7921 0.0
H379 H 0.25659 0.24423 0.81184 0.0
C380 C 0.30394 1.01466 0.04508 0.0
C381 C 0.33335 0.97225 0.02501 0.0
C382 C 0.25148 0.87036 0.03615 0.0
C383 C 0.22108 0.91339 0.05626 0.0
N384 N 0.20577 0.031 0.07594 0.0
N385 N 0.33356 0.86252 -0.00017 0.0
C386 C 0.24403 0.98687 0.05962 0.0
C387 C 0.30638 0.90093 0.02011 0.0
N388 N 0.33385 0.08133 0.0503 0.0
N389 N 0.23099 0.79913 0.03299 0.0
H390 H 0.38 0.87872 -0.01034 0.0
H391 H 0.30918 0.81608 -0.00775 0.0
H392 H 0.19106 0.77292 0.04363 0.0
H393 H 0.25646 0.7628 0.02061 0.0
H394 H 0.32044 0.11226 0.06622 0.0
H395 H 0.37671 0.10349 0.03964 0.0
H396 H 0.21487 0.08672 0.07783 0.0
H397 H 0.15948 1.01317 0.0859 0.0
C398 C 0.37298 0.08131 0.29861 0.0
C399 C 0.29758 0.07596 0.29183 0.0
C400 C 0.29699 0.94923 0.30799 0.0
C401 C 0.3723 0.95496 0.31463 0.0
N402 N 0.46196 0.04171 0.32964 0.0
N403 N 0.18301 1.01611 0.30168 0.0
C404 C 0.40489 0.02555 0.31392 0.0
C405 C 0.25798 1.01318 0.30021 0.0
N406 N 0.41501 0.13785 0.29029 0.0
N407 N 0.26248 0.88335 0.30907 0.0
H408 H 0.15449 0.06474 0.29859 0.0
H409 H 0.15115 0.97405 0.30909 0.0
H410 H 0.28899 0.83627 0.31546 0.0
H411 H 0.2093 0.8751 0.30213 0.0
H412 H 0.47144 0.14092 0.29387 0.0
H413 H 0.39495 0.17816 0.27825 0.0
H414 H 0.48575 0.09331 0.33065 0.0
H415 H 0.47462 1.00775 0.34475 0.0
C416 C 0.78046 0.15418 0.51528 0.0
C417 C 0.80236 0.08138 0.52045 0.0
C418 C 0.69757 0.06882 0.5496 0.0
C419 C 0.68228 0.14432 0.54721 0.0
N420 N 0.71248 0.26041 0.52881 0.0
N421 N 0.78551 0.97001 0.54365 0.0
C422 C 0.72396 0.18715 0.53007 0.0
C423 C 0.76169 0.03874 0.53792 0.0
N424 N 0.81159 0.1912 0.49552 0.0
N425 N 0.65 0.02624 0.56307 0.0
H426 H 0.83271 0.94707 0.53553 0.0
H427 H 0.76244 0.93811 0.55786 0.0
H428 H 0.60214 0.04751 0.57132 0.0
H429 H 0.65393 0.96972 0.56406 0.0
H430 H 0.79099 0.24047 0.48873 0.0
H431 H 0.85491 0.17051 0.48464 0.0
H432 H 0.74987 0.29576 0.52037 0.0
H433 H 0.66734 0.28583 0.53718 0.0
C434 C 0.66595 0.0725 0.2832 0.0
C435 C 0.74282 0.07089 0.28683 0.0
C436 C 0.73027 0.97763 0.31914 0.0
C437 C 0.65618 0.96851 0.31123 0.0
N438 N 0.55653 0.99988 0.28267 0.0
N439 N 0.85077 0.02539 0.30811 0.0
C440 C 0.62417 1.01466 0.29273 0.0
C441 C 0.77594 0.02534 0.30514 0.0
N442 N 0.6339 0.12726 0.26951 0.0
N443 N 0.75663 0.94021 0.33959 0.0
H444 H 0.88476 0.06192 0.2985 0.0
H445 H 0.87909 0.98764 0.31916 0.0
H446 H 0.72422 0.90389 0.3499 0.0
H447 H 0.80847 0.94933 0.34747 0.0
H448 H 0.57707 0.13336 0.26759 0.0
H449 H 0.66394 0.17066 0.26209 0.0
H450 H 0.53455 0.02733 0.26715 0.0
H451 H 0.52542 0.95545 0.28815 0.0
C452 C 0.79769 1.00417 0.04492 0.0
C453 C 0.74703 0.96248 0.03025 0.0
C454 C 0.78559 0.85266 0.05212 0.0
C455 C 0.84504 0.89169 0.06461 0.0
N456 N 0.90566 1.00687 0.07222 0.0
N457 N 0.70473 0.84526 0.01596 0.0
C458 C 0.85097 0.96812 0.06059 0.0
C459 C 0.74413 0.88662 0.03288 0.0
N460 N 0.79245 0.07848 0.04462 0.0
N461 N 0.76616 0.78294 0.05828 0.0
H462 H 0.67543 0.86661 0.0007 0.0
H463 H 0.70615 0.78855 0.01562 0.0
H464 H 0.79877 0.74508 0.06733 0.0
H465 H 0.71421 0.7617 0.05409 0.0
H466 H 0.82272 0.11271 0.05642 0.0
H467 H 0.75224 0.10581 0.03415 0.0
H468 H 0.91862 0.0604 0.06755 0.0
H469 H 0.94044 0.98495 0.08593 0.0
C470 C 0.8983 0.968 0.786 0.0
C471 C 0.82348 0.9572 0.79293 0.0
C472 C 0.83214 0.05679 0.82417 0.0
C473 C 0.90575 0.07026 0.81627 0.0
N474 N 1.00514 0.04665 0.78701 0.0
N475 N 0.7241 0.97834 0.82206 0.0
C476 C 0.93836 0.02703 0.79682 0.0
C477 C 0.79213 0.99763 0.81322 0.0
N478 N 0.93102 0.92215 0.76885 0.0
N479 N 0.79889 0.10384 0.84079 0.0
H480 H 0.69462 0.93473 0.81438 0.0
H481 H 0.69978 1.00067 0.83818 0.0
H482 H 0.82665 0.14736 0.84923 0.0
H483 H 0.74308 0.10246 0.84534 0.0
H484 H 0.9875 0.92095 0.76533 0.0
H485 H 0.90301 0.88067 0.75946 0.0
H486 H 0.02822 0.02413 0.77071 0.0
H487 H 0.03554 0.09011 0.794 0.0
C488 C 0.75964 1.00757 0.4318 0.0
C489 C 0.81958 0.96235 0.43924 0.0
C490 C 0.76117 0.86152 0.41595 0.0
C491 C 0.69315 0.9007 0.41565 0.0
N492 N 0.62987 1.0155 0.42111 0.0
N493 N 0.88021 0.84565 0.43651 0.0
C494 C 0.69326 0.97539 0.42271 0.0
C495 C 0.82192 0.88933 0.43035 0.0
N496 N 0.76638 0.08141 0.43409 0.0
N497 N 0.76818 0.79871 0.40227 0.0
H498 H 0.92534 0.86435 0.44684 0.0
H499 H 0.88228 0.79018 0.43235 0.0
H500 H 0.7258 0.77841 0.39098 0.0
H501 H 0.81795 0.77087 0.40011 0.0
H502 H 0.72728 0.11827 0.42737 0.0
H503 H 0.81514 0.10549 0.44047 0.0
H504 H 0.62426 0.06754 0.42882 0.0
H505 H 0.58156 0.9953 0.41309 0.0
C506 C 0.82069 0.0433 0.17732 0.0
C507 C 0.84922 0.04195 0.20246 0.0
C508 C 0.88332 0.91277 0.19615 0.0
C509 C 0.86315 0.91608 0.1703 0.0
N510 N 0.82155 0.98877 0.13514 0.0
N511 N 0.92428 0.97893 0.23315 0.0
C512 C 0.8348 0.98288 0.16051 0.0
C513 C 0.88655 0.97781 0.21077 0.0
N514 N 0.77717 0.10003 0.16981 0.0
N515 N 0.89741 0.84684 0.20704 0.0
H516 H 0.93141 0.02662 0.24369 0.0
H517 H 0.95394 0.93464 0.24005 0.0
H518 H 0.88967 0.79821 0.1973 0.0
H519 H 0.90642 0.83969 0.22636 0.0
H520 H 0.74855 0.10044 0.1527 0.0
H521 H 0.7654 0.14437 0.18153 0.0
H522 H 0.80886 0.03798 0.12634 0.0
H523 H 0.82721 0.94467 0.12276 0.0
C524 C 0.80718 0.14756 0.96494 0.0
C525 C 0.75577 0.10268 0.95237 0.0
C526 C 0.83892 0.09688 0.91552 0.0
C527 C 0.89105 0.13991 0.92912 0.0
N528 N 0.93698 0.15601 0.97203 0.0
N529 N 0.71796 0.03838 0.91484 0.0
C530 C 0.87929 0.15174 0.95542 0.0
C531 C 0.76998 0.07867 0.92724 0.0
N532 N 0.78904 0.17858 0.98766 0.0
N533 N 0.8598 0.06508 0.89321 0.0
H534 H 0.66839 0.02339 0.92333 0.0
H535 H 0.72108 0.02402 0.89579 0.0
H536 H 0.91312 0.06958 0.886 0.0
H537 H 0.82826 0.02711 0.8834 0.0
H538 H 0.82579 0.20905 -0.00151 0.0
H539 H 0.7351 0.17764 -0.00537 0.0
H540 H 0.92977 0.16023 -0.00843 0.0
H541 H 0.99069 0.14138 0.96715 0.0
C542 C 0.61698 0.99081 0.70423 0.0
C543 C 0.6878 0.98547 0.71541 0.0
C544 C 0.72099 0.10499 0.69848 0.0
C545 C 0.6516 0.10954 0.68646 0.0
N546 N 0.54639 0.044 0.67002 0.0
N547 N 0.81525 0.02374 0.71418 0.0
C548 C 0.60296 0.04869 0.68698 0.0
C549 C 0.74248 0.03833 0.70961 0.0
N550 N 0.56315 0.94185 0.71018 0.0
N551 N 0.76641 0.16427 0.69933 0.0
H552 H 0.8333 0.97337 0.72097 0.0
H553 H 0.85778 0.05814 0.70851 0.0
H554 H 0.75213 0.21437 0.69137 0.0
H555 H 0.81489 0.16539 0.70994 0.0
H556 H 0.50977 0.94459 0.70301 0.0
H557 H 0.57012 0.90105 0.72365 0.0
H558 H 0.51314 0.99811 0.66809 0.0
H559 H 0.53851 0.08243 0.65583 0.0
C560 C 0.75144 0.45991 0.92089 0.0
C561 C 0.72713 0.4385 0.94504 0.0
C562 C 0.83846 0.36345 0.95057 0.0
C563 C 0.86657 0.38936 0.92697 0.0
N564 N 0.85625 0.4788 0.8935 0.0
N565 N 0.73566 0.35815 0.98032 0.0
C566 C 0.82397 0.44082 0.91276 0.0
C567 C 0.76686 0.38549 0.95879 0.0
N568 N 0.70557 0.50124 0.90627 0.0
N569 N 0.88163 0.32217 0.96611 0.0
H570 H 0.68254 0.37299 0.98605 0.0
H571 H 0.75938 0.31824 -0.00841 0.0
H572 H 0.93004 0.29668 0.96046 0.0
H573 H 0.87199 0.3174 0.98546 0.0
H574 H 0.7163 0.51401 0.88741 0.0
H575 H 0.65297 0.51619 0.91252 0.0
H576 H 0.83002 0.52007 0.88342 0.0
H577 H 0.91268 0.47666 0.88996 0.0
C578 C 0.81197 0.52019 0.20459 0.0
C579 C 0.86629 0.46759 0.211 0.0
C580 C 0.95412 0.53056 0.18394 0.0
C581 C 0.90538 0.59143 0.18322 0.0
N582 N 0.78852 0.64611 0.19431 0.0
N583 N 0.9913 0.42254 0.20698 0.0
C584 C 0.83444 0.5869 0.19408 0.0
C585 C 0.93813 0.4721 0.20058 0.0
N586 N 0.73891 0.50557 0.20838 0.0
N587 N 1.01361 0.52726 0.16809 0.0
H588 H 0.9831 0.38122 0.22013 0.0
H589 H 0.04559 0.42556 0.20067 0.0
H590 H 1.02541 0.56799 0.15504 0.0
H591 H 0.04703 0.48128 0.16621 0.0
H592 H 0.69667 0.53991 0.20226 0.0
H593 H 0.72073 0.45525 0.21511 0.0
H594 H 0.73866 0.64707 0.20415 0.0
H595 H 0.80329 0.69627 0.1866 0.0
C596 C 0.7795 0.67826 0.45585 0.0
C597 C 0.80967 0.6104 0.44916 0.0
C598 C 0.72083 0.59899 0.41438 0.0
C599 C 0.68174 0.66054 0.42421 0.0
N600 N 0.67068 0.75216 0.4578 0.0
N601 N 0.81144 0.50416 0.42236 0.0
C602 C 0.71029 0.69876 0.44582 0.0
C603 C 0.78238 0.57111 0.42803 0.0
N604 N 0.81621 0.72157 0.47276 0.0
N605 N 0.69729 0.56442 0.39288 0.0
H606 H 0.85804 0.48327 0.43138 0.0
H607 H 0.78771 0.46778 0.40959 0.0
H608 H 0.64604 0.57333 0.38459 0.0
H609 H 0.7298 0.52749 0.38279 0.0
H610 H 0.80068 0.77499 0.47694 0.0
H611 H 0.86721 0.7065 0.48036 0.0
H612 H 0.68616 0.77499 0.47508 0.0
H613 H 0.61883 0.76948 0.45235 0.0
C614 C 0.7194 0.56258 0.67893 0.0
C615 C 0.69781 0.55814 0.70477 0.0
C616 C 0.65833 0.43188 0.69741 0.0
C617 C 0.6743 0.43752 0.6712 0.0
N618 N 0.69141 0.52088 0.63639 0.0
N619 N 0.61852 0.49737 0.73474 0.0
C620 C 0.69646 0.50667 0.66165 0.0
C621 C 0.65792 0.49555 0.71269 0.0
N622 N 0.76318 0.61809 0.67083 0.0
N623 N 0.64466 0.36567 0.70802 0.0
H624 H 0.61344 0.54481 0.74558 0.0
H625 H 0.58386 0.45513 0.74035 0.0
H626 H 0.64965 0.31747 0.69779 0.0
H627 H 0.63783 0.35843 0.72747 0.0
H628 H 0.78513 0.61965 0.65257 0.0
H629 H 0.78238 0.65885 0.68292 0.0
H630 H 0.70199 0.57217 0.62878 0.0
H631 H 0.6679 0.48394 0.62372 0.0
C632 C 0.80617 0.66945 0.0061 0.0
C633 C 0.76366 0.60747 0.01281 0.0
C634 C 0.85672 0.5756 0.04469 0.0
C635 C 0.88982 0.64493 0.04194 0.0
N636 N 0.8991 0.75742 0.01811 0.0
N637 N 0.74836 0.50063 0.03886 0.0
C638 C 0.86664 0.69117 0.02172 0.0
C639 C 0.78906 0.56024 0.03223 0.0
N640 N 0.78955 0.70678 0.98443 0.0
N641 N 0.89108 0.52442 0.05931 0.0
H642 H 0.69917 0.48644 0.0299 0.0
H643 H 0.76023 0.46841 0.05456 0.0
H644 H 0.94175 0.53469 0.06803 0.0
H645 H 0.87385 0.47045 0.06057 0.0
H646 H 0.82375 0.74625 0.9766 0.0
H647 H 0.74296 0.6956 0.9735 0.0
H648 H 0.87676 0.79781 0.00658 0.0
H649 H 0.94756 0.77355 0.02695 0.0
C650 C 0.66294 0.43804 0.2943 0.0
C651 C 0.74043 0.44811 0.29201 0.0
C652 C 0.72897 0.56356 0.31582 0.0
C653 C 0.65138 0.55388 0.31734 0.0
N654 N 0.55456 0.46347 0.31937 0.0
N655 N 0.84869 0.5069 0.30869 0.0
C656 C 0.62155 0.4851 0.31045 0.0
C657 C 0.77391 0.50656 0.30555 0.0
N658 N 0.62688 0.38808 0.27964 0.0
N659 N 0.75982 0.62702 0.32423 0.0
H660 H 0.88215 0.46463 0.30197 0.0
H661 H 0.87631 0.54455 0.32001 0.0
H662 H 0.72962 0.66701 0.33382 0.0
H663 H 0.81461 0.64099 0.3209 0.0
H664 H 0.56958 0.38418 0.27923 0.0
H665 H 0.65264 0.35569 0.26605 0.0
H666 H 0.53613 0.40998 0.31733 0.0
H667 H 0.52155 0.49548 0.3311 0.0
C668 C 0.72024 0.44442 0.52265 0.0
C669 C 0.79126 0.47276 0.52869 0.0
C670 C 0.76626 0.44761 0.57354 0.0
C671 C 0.6931 0.42368 0.56752 0.0
N672 N 0.59445 0.42819 0.53663 0.0
N673 N 0.86915 0.52376 0.56131 0.0
C674 C 0.66774 0.43276 0.54228 0.0
C675 C 0.81049 0.48133 0.55457 0.0
N676 N 0.70414 0.42368 0.49838 0.0
N677 N 0.79511 0.43647 0.59713 0.0
H678 H 0.90092 0.55211 0.54818 0.0
H679 H 0.88095 0.5373 0.58007 0.0
H680 H 0.76511 0.41495 0.61214 0.0
H681 H 0.85069 0.44454 0.60132 0.0
H682 H 0.6555 0.39683 0.49354 0.0
H683 H 0.74304 0.42443 0.48382 0.0
H684 H 0.57383 0.43881 0.51857 0.0
H685 H 0.55365 0.42399 0.55038 0.0
C686 C 0.76807 0.51836 0.80241 0.0
C687 C 0.80543 0.57591 0.79008 0.0
C688 C 0.91358 0.55537 0.81655 0.0
C689 C 0.88393 0.48663 0.82331 0.0
N690 N 0.77874 0.4079 0.82737 0.0
N691 N 0.91516 0.64908 0.7846 0.0
C692 C 0.80924 0.47018 0.81793 0.0
C693 C 0.87808 0.59552 0.79727 0.0
N694 N 0.69366 0.51066 0.79933 0.0
N695 N 0.97528 0.58229 0.82811 0.0
H696 H 0.89267 0.67864 0.76964 0.0
H697 H 0.97071 0.66042 0.78754 0.0
H698 H 1.00253 0.55646 0.84289 0.0
H699 H 0.99458 0.63499 0.82512 0.0
H700 H 0.66197 0.47279 0.80909 0.0
H701 H 0.66241 0.54699 0.78857 0.0
H702 H 0.72753 0.38783 0.82187 0.0
H703 H 0.80614 0.37537 0.8406 0.0
C704 C 0.3057 0.557 0.05248 0.0
C705 C 0.35981 0.60234 0.04111 0.0
C706 C 0.32125 0.70251 0.06867 0.0
C707 C 0.2565 0.66206 0.07647 0.0
N708 N 0.19252 0.54698 0.07701 0.0
N709 N 0.415 0.72049 0.03676 0.0
C710 C 0.25034 0.58803 0.06868 0.0
C711 C 0.36756 0.6749 0.04921 0.0
N712 N 0.30894 0.4837 0.04808 0.0
N713 N 0.33958 0.7686 0.07892 0.0
H714 H 0.45175 0.70311 0.0228 0.0
H715 H 0.41438 0.77697 0.03897 0.0
H716 H 0.3046 0.80381 0.08838 0.0
H717 H 0.39291 0.78956 0.0778 0.0
H718 H 0.27506 0.44575 0.05689 0.0
H719 H 0.35129 0.46034 0.03735 0.0
H720 H 0.17954 0.49592 0.06964 0.0
H721 H 0.15589 0.56481 0.09095 0.0
C722 C 0.27843 0.55037 0.81625 0.0
C723 C 0.2459 0.59575 0.79759 0.0
C724 C 0.13521 0.51766 0.79768 0.0
C725 C 0.16951 0.46893 0.81548 0.0
N726 N 0.2807 0.43284 0.83733 0.0
N727 N 0.13908 0.63003 0.77337 0.0
C728 C 0.24268 0.48436 0.8239 0.0
C729 C 0.17305 0.58143 0.78922 0.0
N730 N 0.34447 0.5709 0.82646 0.0
N731 N 0.06725 0.5022 0.78784 0.0
H732 H 0.16447 0.67641 0.76631 0.0
H733 H 0.08378 0.62829 0.7683 0.0
H734 H 0.03034 0.46593 0.79571 0.0
H735 H 0.04668 0.52451 0.77117 0.0
H736 H 0.36992 0.54447 0.84154 0.0
H737 H 0.37065 0.61915 0.82117 0.0
H738 H 0.33613 0.43733 0.84215 0.0
H739 H 0.2593 0.38164 0.84152 0.0
C740 C 0.2357 0.49028 0.54053 0.0
C741 C 0.20428 0.43388 0.52553 0.0
C742 C 0.31247 0.35866 0.53278 0.0
C743 C 0.33822 0.4078 0.55135 0.0
N744 N 0.32781 0.52493 0.57178 0.0
N745 N 0.20483 0.30905 0.51224 0.0
C746 C 0.30063 0.47529 0.55488 0.0
C747 C 0.23963 0.36581 0.52383 0.0
N748 N 0.20541 0.55851 0.54017 0.0
N749 N 0.35911 0.31011 0.52158 0.0
H750 H 0.15088 0.31319 0.50542 0.0
H751 H 0.22717 0.25694 0.5119 0.0
H752 H 0.41539 0.30791 0.52541 0.0
H753 H 0.3439 0.28307 0.50505 0.0
H754 H 0.23055 0.60408 0.54814 0.0
H755 H 0.15603 0.57012 0.53088 0.0
H756 H 0.29901 0.57116 0.57765 0.0
H757 H 0.37937 0.51834 0.58032 0.0
C758 C 0.35389 0.48083 0.29632 0.0
C759 C 0.2773 0.48088 0.30026 0.0
C760 C 0.28665 0.5986 0.32229 0.0
C761 C 0.36146 0.60402 0.31417 0.0
N762 N 0.45949 0.55367 0.28723 0.0
N763 N 0.16861 0.53688 0.31728 0.0
C764 C 0.39336 0.54632 0.29944 0.0
C765 C 0.24324 0.53845 0.31385 0.0
N766 N 0.38853 0.41861 0.28834 0.0
N767 N 0.25641 0.65197 0.33717 0.0
H768 H 0.13725 0.49151 0.31212 0.0
H769 H 0.13787 0.58042 0.32435 0.0
H770 H 0.28334 0.70071 0.3413 0.0
H771 H 0.20546 0.64702 0.34609 0.0
H772 H 0.44529 0.41434 0.28602 0.0
H773 H 0.36165 0.3688 0.28662 0.0
H774 H 0.47738 0.51722 0.27332 0.0
H775 H 0.49513 0.59728 0.28888 0.0
C776 C 0.30204 0.54787 0.92938 0.0
C777 C 0.30859 0.52411 0.95499 0.0
C778 C 0.18064 0.48417 0.95346 0.0
C779 C 0.18011 0.4893 0.92689 0.0
N780 N 0.24054 0.52836 0.88882 0.0
N781 N 0.25868 0.44545 0.98751 0.0
C782 C 0.24072 0.52273 0.91454 0.0
C783 C 0.24892 0.48526 0.96595 0.0
N784 N 0.3524 0.59496 0.9195 0.0
N785 N 0.11697 0.46969 0.96622 0.0
H786 H 0.3107 0.43752 -0.0045 0.0
H787 H 0.21721 0.41308 -0.00476 0.0
H788 H 0.06626 0.46722 0.95684 0.0
H789 H 0.11456 0.46766 0.98596 0.0
H790 H 0.34676 0.61822 0.90162 0.0
H791 H 0.39641 0.6153 0.93005 0.0
H792 H 0.28614 0.54567 0.87849 0.0
H793 H 0.19481 0.51325 0.87802 0.0
C794 C 0.31545 0.52354 0.71518 0.0
C795 C 0.37145 0.57611 0.71984 0.0
C796 C 0.45142 0.51074 0.69023 0.0
C797 C 0.40178 0.4506 0.69037 0.0
N798 N 0.28863 0.39752 0.70546 0.0
N799 N 0.496 0.61714 0.71288 0.0
C800 C 0.33441 0.45633 0.70368 0.0
C801 C 0.44065 0.56908 0.70769 0.0
N802 N 0.24383 0.53876 0.72138 0.0
N803 N 0.50529 0.51493 0.67228 0.0
H804 H 0.49018 0.65999 0.72574 0.0
H805 H 0.54906 0.61172 0.70557 0.0
H806 H 0.50999 0.47686 0.65774 0.0
H807 H 0.53869 0.56054 0.66995 0.0
H808 H 0.20001 0.50464 0.71669 0.0
H809 H 0.22759 0.58935 0.7286 0.0
H810 H 0.24186 0.39712 0.71695 0.0
H811 H 0.30132 0.34701 0.69737 0.0
C812 C 0.26508 0.58706 0.45799 0.0
C813 C 0.2164 0.54019 0.44482 0.0
C814 C 0.29924 0.54647 0.40782 0.0
C815 C 0.35133 0.58606 0.42268 0.0
N816 N 0.39302 0.61521 0.46489 0.0
N817 N 0.19196 0.46631 0.40806 0.0
C818 C 0.33718 0.59616 0.44883 0.0
C819 C 0.23485 0.51699 0.41989 0.0
N820 N 0.24287 0.62132 0.47972 0.0
N821 N 0.30985 0.53839 0.3824 0.0
H822 H 0.1436 0.44646 0.41624 0.0
H823 H 0.2064 0.44159 0.39096 0.0
H824 H 0.35722 0.55641 0.37323 0.0
H825 H 0.27023 0.51627 0.37036 0.0
H826 H 0.2756 0.65936 0.48917 0.0
H827 H 0.18898 0.61732 0.48654 0.0
H828 H 0.38605 0.61861 0.48448 0.0
H829 H 0.44759 0.61938 0.45871 0.0
C830 C 0.22942 0.50938 0.19411 0.0
C831 C 0.17986 0.50005 0.2148 0.0
C832 C 0.12303 0.61901 0.20465 0.0
C833 C 0.16935 0.62669 0.18302 0.0
N834 N 0.25828 0.57248 0.15477 0.0
N835 N 0.07066 0.54016 0.23679 0.0
C836 C 0.2201 0.56977 0.17705 0.0
C837 C 0.12383 0.55318 0.21897 0.0
N838 N 0.2876 0.46258 0.19141 0.0
N839 N 0.07935 0.67591 0.21205 0.0
H840 H 0.0691 0.4923 0.24741 0.0
H841 H 1.02376 0.57235 0.23913 0.0
H842 H 0.07716 0.72456 0.20214 0.0
H843 H 0.05055 0.67772 0.2291 0.0
H844 H 0.33064 0.47102 0.17869 0.0
H845 H 0.29509 0.41732 0.20304 0.0
H846 H 0.28955 0.52916 0.14778 0.0
H847 H 0.25477 0.61665 0.14242 0.0
loop_
_geom_bond_atom_site_label_1
_geom_bond_atom_site_label_2
_geom_bond_distance
_geom_bond_site_symmetry_2
_ccdc_geom_bond_type
H0 C6 0.930 . S
H1 C9 0.931 . S
H2 C11 0.931 . S
H3 C13 0.930 . S
H4 C15 0.930 . S
H5 C17 0.931 . S
C6 H0 0.930 . S
C6 C7 1.380 1_545 S
C6 C8 1.394 . S
C7 C6 1.380 1_565 S
C7 C11 1.382 . S
C8 C6 1.394 . S
C8 C9 1.400 . S
C9 H1 0.931 . S
C9 C8 1.400 . S
C9 C10 1.375 . S
C10 C9 1.375 . S
C10 C11 1.415 1_545 S
C10 C12 1.501 1_655 S
C11 H2 0.931 . S
C11 C7 1.382 . S
C11 C10 1.415 1_565 S
C12 C10 1.501 1_455 S
C12 C13 1.384 1_545 S
C12 C17 1.408 . S
C13 H3 0.930 . S
C13 C12 1.384 1_565 S
C13 C14 1.389 . S
C14 C13 1.389 . S
C14 C15 1.405 1_565 S
C15 H4 0.930 . S
C15 C14 1.405 1_545 S
C15 C16 1.364 . S
C16 C15 1.364 . S
C16 C17 1.400 . S
C17 H5 0.931 . S
C17 C12 1.408 . S
C17 C16 1.400 . S
H18 C24 0.930 . S
H19 C27 0.931 . S
H20 C29 0.931 . S
H21 C31 0.930 . S
H22 C33 0.930 . S
H23 C35 0.931 . S
C24 H18 0.930 . S
C24 C25 1.380 . S
C24 C26 1.394 . S
C25 C24 1.380 . S
C25 C29 1.382 . S
C26 C24 1.394 . S
C26 C27 1.400 . S
C27 H19 0.931 . S
C27 C26 1.400 . S
C27 C28 1.375 . S
C28 C27 1.375 . S
C28 C29 1.415 . S
C28 C30 1.501 . S
C29 H20 0.931 . S
C29 C25 1.382 . S
C29 C28 1.415 . S
C30 C28 1.501 . S
C30 C31 1.384 . S
C30 C35 1.408 . S
C31 H21 0.930 . S
C31 C30 1.384 . S
C31 C32 1.389 . S
C32 C31 1.389 . S
C32 C33 1.405 . S
C33 H22 0.930 . S
C33 C32 1.405 . S
C33 C34 1.364 . S
C34 C33 1.364 . S
C34 C35 1.400 . S
C35 H23 0.931 . S
C35 C30 1.408 . S
C35 C34 1.400 . S
H36 C42 0.930 1_565 S
H37 C45 0.931 . S
H38 C47 0.931 . S
H39 C49 0.930 . S
H40 C51 0.930 . S
H41 C53 0.931 . S
C42 H36 0.930 1_545 S
C42 C43 1.380 1_554 S
C42 C44 1.394 1_545 S
C43 C42 1.380 1_556 S
C43 C47 1.382 . S
C44 C42 1.394 1_565 S
C44 C45 1.400 . S
C45 H37 0.931 . S
C45 C44 1.400 . S
C45 C46 1.375 1_565 S
C46 C45 1.375 1_545 S
C46 C47 1.415 1_554 S
C46 C48 1.501 . S
C47 H38 0.931 . S
C47 C43 1.382 . S
C47 C46 1.415 1_556 S
C48 C46 1.501 . S
C48 C49 1.384 1_554 S
C48 C53 1.408 1_545 S
C49 H39 0.930 . S
C49 C48 1.384 1_556 S
C49 C50 1.389 . S
C50 C49 1.389 . S
C50 C51 1.405 1_556 S
C51 H40 0.930 . S
C51 C50 1.405 1_554 S
C51 C52 1.364 1_545 S
C52 C51 1.364 1_565 S
C52 C53 1.400 . S
C53 H41 0.931 . S
C53 C48 1.408 1_565 S
C53 C52 1.400 . S
H54 C60 0.930 . S
H55 C63 0.931 . S
H56 C65 0.931 . S
H57 C67 0.930 . S
H58 C69 0.930 . S
H59 C71 0.931 . S
C60 H54 0.930 . S
C60 C61 1.380 . S
C60 C62 1.394 . S
C61 C60 1.380 . S
C61 C65 1.382 . S
C62 C60 1.394 . S
C62 C63 1.400 . S
C63 H55 0.931 . S
C63 C62 1.400 . S
C63 C64 1.375 . S
C64 C63 1.375 . S
C64 C65 1.415 . S
C64 C66 1.501 . S
C65 H56 0.931 . S
C65 C61 1.382 . S
C65 C64 1.415 . S
C66 C64 1.501 . S
C66 C67 1.384 . S
C66 C71 1.408 . S
C67 H57 0.930 . S
C67 C66 1.384 . S
C67 C68 1.389 . S
C68 C67 1.389 . S
C68 C69 1.405 . S
C69 H58 0.930 . S
C69 C68 1.405 . S
C69 C70 1.364 . S
C70 C69 1.364 . S
C70 C71 1.400 . S
C71 H59 0.931 . S
C71 C66 1.408 . S
C71 C70 1.400 . S
H72 C78 0.930 . S
H73 C81 0.931 . S
H74 C83 0.931 . S
H75 C85 0.930 . S
H76 C87 0.930 . S
H77 C89 0.931 . S
C78 H72 0.930 . S
C78 C79 1.380 . S
C78 C80 1.394 . S
C79 C78 1.380 . S
C79 C83 1.382 . S
C80 C78 1.394 . S
C80 C81 1.400 . S
C81 H73 0.931 . S
C81 C80 1.400 . S
C81 C82 1.375 . S
C82 C81 1.375 . S
C82 C83 1.415 . S
C82 C84 1.501 . S
C83 H74 0.931 . S
C83 C79 1.382 . S
C83 C82 1.415 . S
C84 C82 1.501 . S
C84 C85 1.384 . S
C84 C89 1.408 . S
C85 H75 0.930 . S
C85 C84 1.384 . S
C85 C86 1.389 . S
C86 C85 1.389 . S
C86 C87 1.405 . S
C87 H76 0.930 . S
C87 C86 1.405 . S
C87 C88 1.364 . S
C88 C87 1.364 . S
C88 C89 1.400 . S
C89 H77 0.931 . S
C89 C84 1.408 . S
C89 C88 1.400 . S
H90 C96 0.930 . S
H91 C99 0.931 . S
H92 C101 0.931 . S
H93 C103 0.930 . S
H94 C105 0.930 . S
H95 C107 0.931 . S
C96 H90 0.930 . S
C96 C97 1.380 . S
C96 C98 1.394 . S
C97 C96 1.380 . S
C97 C101 1.382 . S
C98 C96 1.394 . S
C98 C99 1.400 . S
C99 H91 0.931 . S
C99 C98 1.400 . S
C99 C100 1.375 . S
C100 C99 1.375 . S
C100 C101 1.415 . S
C100 C102 1.501 . S
C101 H92 0.931 . S
C101 C97 1.382 . S
C101 C100 1.415 . S
C102 C100 1.501 . S
C102 C103 1.384 . S
C102 C107 1.408 . S
C103 H93 0.930 . S
C103 C102 1.384 . S
C103 C104 1.389 . S
C104 C103 1.389 . S
C104 C105 1.405 . S
C105 H94 0.930 . S
C105 C104 1.405 . S
C105 C106 1.364 . S
C106 C105 1.364 . S
C106 C107 1.400 . S
C107 H95 0.931 . S
C107 C102 1.408 . S
C107 C106 1.400 . S
H108 C114 0.930 . S
H109 C117 0.931 . S
H110 C119 0.931 . S
H111 C121 0.930 . S
H112 C123 0.930 . S
H113 C125 0.931 . S
C114 H108 0.930 . S
C114 C115 1.380 . S
C114 C116 1.394 1_554 S
C115 C114 1.380 . S
C115 C119 1.382 . S
C116 C114 1.394 1_556 S
C116 C117 1.400 . S
C117 H109 0.931 . S
C117 C116 1.400 . S
C117 C118 1.375 1_556 S
C118 C117 1.375 1_554 S
C118 C119 1.415 . S
C118 C120 1.501 . S
C119 H110 0.931 . S
C119 C115 1.382 . S
C119 C118 1.415 . S
C120 C118 1.501 . S
C120 C121 1.384 . S
C120 C125 1.408 1_554 S
C121 H111 0.930 . S
C121 C120 1.384 . S
C121 C122 1.389 . S
C122 C121 1.389 . S
C122 C123 1.405 . S
C123 H112 0.930 . S
C123 C122 1.405 . S
C123 C124 1.364 1_554 S
C124 C123 1.364 1_556 S
C124 C125 1.400 . S
C125 H113 0.931 . S
C125 C120 1.408 1_556 S
C125 C124 1.400 . S
H126 C132 0.930 . S
H127 C135 0.931 . S
H128 C137 0.931 . S
H129 C139 0.930 . S
H130 C141 0.930 . S
H131 C143 0.931 . S
C132 H126 0.930 . S
C132 C133 1.380 . S
C132 C134 1.394 . S
C133 C132 1.380 . S
C133 C137 1.382 . S
C134 C132 1.394 . S
C134 C135 1.400 . S
C135 H127 0.931 . S
C135 C134 1.400 . S
C135 C136 1.375 . S
C136 C135 1.375 . S
C136 C137 1.415 . S
C136 C138 1.501 1_455 S
C137 H128 0.931 . S
C137 C133 1.382 . S
C137 C136 1.415 . S
C138 C136 1.501 1_655 S
C138 C139 1.384 . S
C138 C143 1.408 . S
C139 H129 0.930 . S
C139 C138 1.384 . S
C139 C140 1.389 . S
C140 C139 1.389 . S
C140 C141 1.405 . S
C141 H130 0.930 . S
C141 C140 1.405 . S
C141 C142 1.364 . S
C142 C141 1.364 . S
C142 C143 1.400 . S
C143 H131 0.931 . S
C143 C138 1.408 . S
C143 C142 1.400 . S
Fe144 O145 1.886 . S
Fe144 O148 1.715 1_455 S
Fe144 O153 2.077 . S
Fe144 O158 1.935 1_455 S
Fe144 O164 2.077 . S
Fe144 O173 1.935 1_455 S
O145 Fe144 1.886 . S
O145 Fe147 1.715 . S
Fe146 O148 1.886 . S
Fe146 O149 1.715 . S
Fe146 O156 1.935 . S
Fe146 O157 2.077 . S
Fe146 O163 1.935 . S
Fe146 O172 2.077 . S
Fe147 O145 1.715 . S
Fe147 O150 1.886 . S
Fe147 O154 1.935 . S
Fe147 O159 2.077 . S
Fe147 O165 1.935 . S
Fe147 O169 2.077 . S
O148 Fe144 1.715 1_655 S
O148 Fe146 1.886 . S
O149 Fe146 1.715 . S
O149 Fe151 1.886 . S
O150 Fe147 1.886 . S
O150 Fe151 1.715 1_455 S
Fe151 O149 1.886 . S
Fe151 O150 1.715 1_655 S
Fe151 O155 2.077 . S
Fe151 O160 1.935 1_655 S
Fe151 O162 2.077 . S
Fe151 O170 1.935 1_655 S
C152 O164 1.381 . S
C152 O165 1.421 . S
O153 Fe144 2.077 . S
O153 C166 1.381 . S
O154 Fe147 1.935 . S
O154 C166 1.421 . S
O155 Fe151 2.077 . S
O155 C171 1.381 . S
O156 Fe146 1.935 . S
O156 C171 1.421 . S
O157 Fe146 2.077 . S
O157 C161 1.381 . S
O158 Fe144 1.935 1_655 S
O158 C161 1.421 . S
O159 Fe147 2.077 . S
O159 C167 1.381 . S
O160 Fe151 1.935 1_455 S
O160 C167 1.421 . S
C161 O157 1.381 . S
C161 O158 1.421 . S
O162 Fe151 2.077 . S
O162 C174 1.381 . S
O163 Fe146 1.935 . S
O163 C174 1.421 . S
O164 Fe144 2.077 . S
O164 C152 1.381 . S
O165 Fe147 1.935 . S
O165 C152 1.421 . S
C166 O153 1.381 . S
C166 O154 1.421 . S
C167 O159 1.381 . S
C167 O160 1.421 . S
C168 O169 1.381 . S
C168 O170 1.421 . S
O169 Fe147 2.077 . S
O169 C168 1.381 . S
O170 Fe151 1.935 1_455 S
O170 C168 1.421 . S
C171 O155 1.381 . S
C171 O156 1.421 . S
O172 Fe146 2.077 . S
O172 C175 1.381 . S
O173 Fe144 1.935 1_655 S
O173 C175 1.421 . S
C174 O162 1.381 . S
C174 O163 1.421 . S
C175 O172 1.381 . S
C175 O173 1.421 . S
Fe176 O177 1.886 . S
Fe176 O180 1.715 . S
Fe176 O185 2.077 . S
Fe176 O190 1.935 . S
Fe176 O196 2.077 . S
Fe176 O205 1.935 . S
O177 Fe176 1.886 . S
O177 Fe179 1.715 . S
Fe178 O180 1.886 . S
Fe178 O181 1.715 . S
Fe178 O188 1.935 . S
Fe178 O189 2.077 . S
Fe178 O195 1.935 . S
Fe178 O204 2.077 . S
Fe179 O177 1.715 . S
Fe179 O182 1.886 . S
Fe179 O186 1.935 . S
Fe179 O191 2.077 . S
Fe179 O197 1.935 . S
Fe179 O201 2.077 . S
O180 Fe176 1.715 . S
O180 Fe178 1.886 . S
O181 Fe178 1.715 . S
O181 Fe183 1.886 . S
O182 Fe179 1.886 . S
O182 Fe183 1.715 . S
Fe183 O181 1.886 . S
Fe183 O182 1.715 . S
Fe183 O187 2.077 . S
Fe183 O192 1.935 . S
Fe183 O194 2.077 . S
Fe183 O202 1.935 . S
C184 O196 1.381 . S
C184 O197 1.421 . S
O185 Fe176 2.077 . S
O185 C198 1.381 . S
O186 Fe179 1.935 . S
O186 C198 1.421 . S
O187 Fe183 2.077 . S
O187 C203 1.381 . S
O188 Fe178 1.935 . S
O188 C203 1.421 . S
O189 Fe178 2.077 . S
O189 C193 1.381 . S
O190 Fe176 1.935 . S
O190 C193 1.421 . S
O191 Fe179 2.077 . S
O191 C199 1.381 . S
O192 Fe183 1.935 . S
O192 C199 1.421 . S
C193 O189 1.381 . S
C193 O190 1.421 . S
O194 Fe183 2.077 . S
O194 C206 1.381 . S
O195 Fe178 1.935 . S
O195 C206 1.421 . S
O196 Fe176 2.077 . S
O196 C184 1.381 . S
O197 Fe179 1.935 . S
O197 C184 1.421 . S
C198 O185 1.381 . S
C198 O186 1.421 . S
C199 O191 1.381 . S
C199 O192 1.421 . S
C200 O201 1.381 . S
C200 O202 1.421 . S
O201 Fe179 2.077 . S
O201 C200 1.381 . S
O202 Fe183 1.935 . S
O202 C200 1.421 . S
C203 O187 1.381 . S
C203 O188 1.421 . S
O204 Fe178 2.077 . S
O204 C207 1.381 . S
O205 Fe176 1.935 . S
O205 C207 1.421 . S
C206 O194 1.381 . S
C206 O195 1.421 . S
C207 O204 1.381 . S
C207 O205 1.421 . S
Fe208 O209 1.886 . S
Fe208 O212 1.715 . S
Fe208 O217 2.077 . S
Fe208 O222 1.935 . S
Fe208 O228 2.077 . S
Fe208 O237 1.935 . S
O209 Fe208 1.886 . S
O209 Fe211 1.715 . S
Fe210 O212 1.886 . S
Fe210 O213 1.715 . S
Fe210 O220 1.935 . S
Fe210 O221 2.077 . S
Fe210 O227 1.935 . S
Fe210 O236 2.077 . S
Fe211 O209 1.715 . S
Fe211 O214 1.886 . S
Fe211 O218 1.935 . S
Fe211 O223 2.077 . S
Fe211 O229 1.935 . S
Fe211 O233 2.077 . S
O212 Fe208 1.715 . S
O212 Fe210 1.886 . S
O213 Fe210 1.715 . S
O213 Fe215 1.886 . S
O214 Fe211 1.886 . S
O214 Fe215 1.715 . S
Fe215 O213 1.886 . S
Fe215 O214 1.715 . S
Fe215 O219 2.077 . S
Fe215 O224 1.935 . S
Fe215 O226 2.077 . S
Fe215 O234 1.935 . S
C216 O228 1.381 . S
C216 O229 1.421 . S
O217 Fe208 2.077 . S
O217 C230 1.381 . S
O218 Fe211 1.935 . S
O218 C230 1.421 . S
O219 Fe215 2.077 . S
O219 C235 1.381 . S
O220 Fe210 1.935 . S
O220 C235 1.421 . S
O221 Fe210 2.077 . S
O221 C225 1.381 . S
O222 Fe208 1.935 . S
O222 C225 1.421 . S
O223 Fe211 2.077 . S
O223 C231 1.381 . S
O224 Fe215 1.935 . S
O224 C231 1.421 . S
C225 O221 1.381 . S
C225 O222 1.421 . S
O226 Fe215 2.077 . S
O226 C238 1.381 . S
O227 Fe210 1.935 . S
O227 C238 1.421 . S
O228 Fe208 2.077 . S
O228 C216 1.381 . S
O229 Fe211 1.935 . S
O229 C216 1.421 . S
C230 O217 1.381 . S
C230 O218 1.421 . S
C231 O223 1.381 . S
C231 O224 1.421 . S
C232 O233 1.381 . S
C232 O234 1.421 . S
O233 Fe211 2.077 . S
O233 C232 1.381 . S
O234 Fe215 1.935 . S
O234 C232 1.421 . S
C235 O219 1.381 . S
C235 O220 1.421 . S
O236 Fe210 2.077 . S
O236 C239 1.381 . S
O237 Fe208 1.935 . S
O237 C239 1.421 . S
C238 O226 1.381 . S
C238 O227 1.421 . S
C239 O236 1.381 . S
C239 O237 1.421 . S
Fe240 O241 1.886 . S
Fe240 O244 1.715 . S
Fe240 O249 2.077 1_455 S
Fe240 O254 1.935 1_455 S
Fe240 O260 2.077 . S
Fe240 O269 1.935 . S
O241 Fe240 1.886 . S
O241 Fe243 1.715 . S
Fe242 O244 1.886 . S
Fe242 O245 1.715 . S
Fe242 O252 1.934 1_455 S
Fe242 O253 2.076 1_455 S
Fe242 O259 1.936 . S
Fe242 O268 2.078 . S
Fe243 O241 1.715 . S
Fe243 O246 1.886 . S
Fe243 O250 1.936 1_455 S
Fe243 O255 2.078 1_455 S
Fe243 O261 1.934 . S
Fe243 O265 2.076 . S
O244 Fe240 1.715 . S
O244 Fe242 1.886 . S
O245 Fe242 1.715 . S
O245 Fe247 1.886 . S
O246 Fe243 1.886 . S
O246 Fe247 1.715 . S
Fe247 O245 1.886 . S
Fe247 O246 1.715 . S
Fe247 O251 2.077 1_455 S
Fe247 O256 1.935 1_455 S
Fe247 O258 2.077 . S
Fe247 O266 1.935 . S
C248 O260 1.381 . S
C248 O261 1.421 . S
O249 Fe240 2.077 1_655 S
O249 C262 1.381 . S
O250 Fe243 1.936 1_655 S
O250 C262 1.421 . S
O251 Fe247 2.077 1_655 S
O251 C267 1.381 . S
O252 Fe242 1.934 1_655 S
O252 C267 1.421 . S
O253 Fe242 2.076 1_655 S
O253 C257 1.381 . S
O254 Fe240 1.935 1_655 S
O254 C257 1.421 . S
O255 Fe243 2.078 1_655 S
O255 C263 1.381 . S
O256 Fe247 1.935 1_655 S
O256 C263 1.421 . S
C257 O253 1.381 . S
C257 O254 1.421 . S
O258 Fe247 2.077 . S
O258 C270 1.381 . S
O259 Fe242 1.936 . S
O259 C270 1.421 . S
O260 Fe240 2.077 . S
O260 C248 1.381 . S
O261 Fe243 1.934 . S
O261 C248 1.421 . S
C262 O249 1.381 . S
C262 O250 1.421 . S
C263 O255 1.381 . S
C263 O256 1.421 . S
C264 O265 1.381 . S
C264 O266 1.421 . S
O265 Fe243 2.076 . S
O265 C264 1.381 . S
O266 Fe247 1.935 . S
O266 C264 1.421 . S
C267 O251 1.381 . S
C267 O252 1.421 . S
O268 Fe242 2.078 . S
O268 C271 1.381 . S
O269 Fe240 1.935 . S
O269 C271 1.421 . S
C270 O258 1.381 . S
C270 O259 1.421 . S
C271 O268 1.381 . S
C271 O269 1.421 . S
C272 C273 1.363 . S
C272 C278 1.379 . S
C272 N280 1.356 . S
C273 C272 1.363 . S
C273 C279 1.363 . S
C274 C275 1.363 . S
C274 C279 1.379 . S
C274 N281 1.356 . S
C275 C274 1.363 . S
C275 C278 1.363 . S
N276 C278 1.356 . S
N276 H288 0.984 . S
N276 H289 0.985 . S
N277 C279 1.356 1_545 S
N277 H282 0.984 . S
N277 H283 0.985 . S
C278 C272 1.379 . S
C278 C275 1.363 . S
C278 N276 1.356 . S
C279 C273 1.363 . S
C279 C274 1.379 . S
C279 N277 1.356 1_565 S
N280 C272 1.356 . S
N280 H286 0.984 . S
N280 H287 0.984 . S
N281 C274 1.356 . S
N281 H284 0.984 . S
N281 H285 0.985 1_565 S
H282 N277 0.984 . S
H283 N277 0.985 . S
H284 N281 0.984 . S
H285 N281 0.985 1_545 S
H286 N280 0.984 . S
H287 N280 0.984 . S
H288 N276 0.984 . S
H289 N276 0.985 . S
C290 C291 1.363 . S
C290 C296 1.379 1_565 S
C290 N298 1.356 . S
C291 C290 1.363 . S
C291 C297 1.363 1_565 S
C292 C293 1.363 . S
C292 C297 1.379 . S
C292 N299 1.356 . S
C293 C292 1.363 . S
C293 C296 1.363 . S
N294 C296 1.356 . S
N294 H306 0.984 1_545 S
N294 H307 0.985 . S
N295 C297 1.356 . S
N295 H300 0.984 1_545 S
N295 H301 0.985 . S
C296 C290 1.379 1_545 S
C296 C293 1.363 . S
C296 N294 1.356 . S
C297 C291 1.363 1_545 S
C297 C292 1.379 . S
C297 N295 1.356 . S
N298 C290 1.356 . S
N298 H304 0.984 . S
N298 H305 0.984 . S
N299 C292 1.356 . S
N299 H302 0.984 . S
N299 H303 0.985 . S
H300 N295 0.984 1_565 S
H301 N295 0.985 . S
H302 N299 0.984 . S
H303 N299 0.985 . S
H304 N298 0.984 . S
H305 N298 0.984 . S
H306 N294 0.984 1_565 S
H307 N294 0.985 . S
C308 C309 1.363 . S
C308 C314 1.379 . S
C308 N316 1.356 1_545 S
C309 C308 1.363 . S
C309 C315 1.363 . S
C310 C311 1.363 . S
C310 C315 1.379 . S
C310 N317 1.356 . S
C311 C310 1.363 . S
C311 C314 1.363 . S
N312 C314 1.356 . S
N312 H324 0.984 1_545 S
N312 H325 0.985 . S
N313 C315 1.356 . S
N313 H318 0.984 . S
N313 H319 0.985 . S
C314 C308 1.379 . S
C314 C311 1.363 . S
C314 N312 1.356 . S
C315 C309 1.363 . S
C315 C310 1.379 . S
C315 N313 1.356 . S
N316 C308 1.356 1_565 S
N316 H322 0.984 . S
N316 H323 0.984 . S
N317 C310 1.356 . S
N317 H320 0.984 . S
N317 H321 0.985 . S
H318 N313 0.984 . S
H319 N313 0.985 . S
H320 N317 0.984 . S
H321 N317 0.985 . S
H322 N316 0.984 . S
H323 N316 0.984 . S
H324 N312 0.984 1_565 S
H325 N312 0.985 . S
C326 C327 1.363 . S
C326 C332 1.379 1_545 S
C326 N334 1.356 . S
C327 C326 1.363 . S
C327 C333 1.363 1_545 S
C328 C329 1.363 . S
C328 C333 1.379 . S
C328 N335 1.356 . S
C329 C328 1.363 . S
C329 C332 1.363 . S
N330 C332 1.356 . S
N330 H342 0.984 1_565 S
N330 H343 0.985 . S
N331 C333 1.356 1_545 S
N331 H336 0.984 . S
N331 H337 0.985 1_545 S
C332 C326 1.379 1_565 S
C332 C329 1.363 . S
C332 N330 1.356 . S
C333 C327 1.363 1_565 S
C333 C328 1.379 . S
C333 N331 1.356 1_565 S
N334 C326 1.356 . S
N334 H340 0.984 . S
N334 H341 0.984 . S
N335 C328 1.356 . S
N335 H338 0.984 . S
N335 H339 0.985 . S
H336 N331 0.984 . S
H337 N331 0.985 1_565 S
H338 N335 0.984 . S
H339 N335 0.985 . S
H340 N334 0.984 . S
H341 N334 0.984 . S
H342 N330 0.984 1_545 S
H343 N330 0.985 . S
C344 C345 1.363 . S
C344 C350 1.379 . S
C344 N352 1.356 . S
C345 C344 1.363 . S
C345 C351 1.363 . S
C346 C347 1.363 . S
C346 C351 1.379 . S
C346 N353 1.356 . S
C347 C346 1.363 . S
C347 C350 1.363 . S
N348 C350 1.356 . S
N348 H360 0.984 . S
N348 H361 0.985 . S
N349 C351 1.356 . S
N349 H354 0.984 . S
N349 H355 0.985 1_545 S
C350 C344 1.379 . S
C350 C347 1.363 . S
C350 N348 1.356 . S
C351 C345 1.363 . S
C351 C346 1.379 . S
C351 N349 1.356 . S
N352 C344 1.356 . S
N352 H358 0.984 . S
N352 H359 0.984 . S
N353 C346 1.356 . S
N353 H356 0.984 . S
N353 H357 0.985 1_545 S
H354 N349 0.984 . S
H355 N349 0.985 1_565 S
H356 N353 0.984 . S
H357 N353 0.985 1_565 S
H358 N352 0.984 . S
H359 N352 0.984 . S
H360 N348 0.984 . S
H361 N348 0.985 . S
C362 C363 1.363 1_545 S
C362 C368 1.379 . S
C362 N370 1.356 . S
C363 C362 1.363 1_565 S
C363 C369 1.363 . S
C364 C365 1.363 . S
C364 C369 1.379 1_545 S
C364 N371 1.356 . S
C365 C364 1.363 . S
C365 C368 1.363 . S
N366 C368 1.356 . S
N366 H378 0.984 . S
N366 H379 0.985 . S
N367 C369 1.356 . S
N367 H372 0.984 . S
N367 H373 0.985 . S
C368 C362 1.379 . S
C368 C365 1.363 . S
C368 N366 1.356 . S
C369 C363 1.363 . S
C369 C364 1.379 1_565 S
C369 N367 1.356 . S
N370 C362 1.356 . S
N370 H376 0.984 . S
N370 H377 0.984 1_545 S
N371 C364 1.356 . S
N371 H374 0.984 . S
N371 H375 0.985 . S
H372 N367 0.984 . S
H373 N367 0.985 . S
H374 N371 0.984 . S
H375 N371 0.985 . S
H376 N370 0.984 . S
H377 N370 0.984 1_565 S
H378 N366 0.984 . S
H379 N366 0.985 . S
C380 C381 1.363 . S
C380 C386 1.379 . S
C380 N388 1.356 1_565 S
C381 C380 1.363 . S
C381 C387 1.363 . S
C382 C383 1.363 . S
C382 C387 1.379 . S
C382 N389 1.356 . S
C383 C382 1.363 . S
C383 C386 1.363 . S
N384 C386 1.356 . S
N384 H396 0.984 1_565 S
N384 H397 0.985 . S
N385 C387 1.356 . S
N385 H390 0.984 . S
N385 H391 0.985 . S
C386 C380 1.379 . S
C386 C383 1.363 . S
C386 N384 1.356 . S
C387 C381 1.363 . S
C387 C382 1.379 . S
C387 N385 1.356 . S
N388 C380 1.356 1_545 S
N388 H394 0.984 . S
N388 H395 0.984 . S
N389 C382 1.356 . S
N389 H392 0.984 . S
N389 H393 0.985 . S
H390 N385 0.984 . S
H391 N385 0.985 . S
H392 N389 0.984 . S
H393 N389 0.985 . S
H394 N388 0.984 . S
H395 N388 0.984 . S
H396 N384 0.984 1_545 S
H397 N384 0.985 . S
C398 C399 1.363 . S
C398 C404 1.379 1_545 S
C398 N406 1.356 . S
C399 C398 1.363 . S
C399 C405 1.363 1_545 S
C400 C401 1.363 . S
C400 C405 1.379 . S
C400 N407 1.356 . S
C401 C400 1.363 . S
C401 C404 1.363 . S
N402 C404 1.356 . S
N402 H414 0.984 1_565 S
N402 H415 0.985 . S
N403 C405 1.356 1_545 S
N403 H408 0.984 . S
N403 H409 0.985 1_545 S
C404 C398 1.379 1_565 S
C404 C401 1.363 . S
C404 N402 1.356 . S
C405 C399 1.363 1_565 S
C405 C400 1.379 . S
C405 N403 1.356 1_565 S
N406 C398 1.356 . S
N406 H412 0.984 . S
N406 H413 0.984 . S
N407 C400 1.356 . S
N407 H410 0.984 . S
N407 H411 0.985 . S
H408 N403 0.984 . S
H409 N403 0.985 1_565 S
H410 N407 0.984 . S
H411 N407 0.985 . S
H412 N406 0.984 . S
H413 N406 0.984 . S
H414 N402 0.984 1_545 S
H415 N402 0.985 . S
C416 C417 1.363 . S
C416 C422 1.379 . S
C416 N424 1.356 . S
C417 C416 1.363 . S
C417 C423 1.363 . S
C418 C419 1.363 . S
C418 C423 1.379 . S
C418 N425 1.356 . S
C419 C418 1.363 . S
C419 C422 1.363 . S
N420 C422 1.356 . S
N420 H432 0.984 . S
N420 H433 0.985 . S
N421 C423 1.356 1_565 S
N421 H426 0.984 . S
N421 H427 0.985 . S
C422 C416 1.379 . S
C422 C419 1.363 . S
C422 N420 1.356 . S
C423 C417 1.363 . S
C423 C418 1.379 . S
C423 N421 1.356 1_545 S
N424 C416 1.356 . S
N424 H430 0.984 . S
N424 H431 0.984 . S
N425 C418 1.356 . S
N425 H428 0.984 . S
N425 H429 0.985 1_545 S
H426 N421 0.984 . S
H427 N421 0.985 . S
H428 N425 0.984 . S
H429 N425 0.985 1_565 S
H430 N424 0.984 . S
H431 N424 0.984 . S
H432 N420 0.984 . S
H433 N420 0.985 . S
C434 C435 1.363 . S
C434 C440 1.379 1_545 S
C434 N442 1.356 . S
C435 C434 1.363 . S
C435 C441 1.363 . S
C436 C437 1.363 . S
C436 C441 1.379 1_565 S
C436 N443 1.356 . S
C437 C436 1.363 . S
C437 C440 1.363 . S
N438 C440 1.356 . S
N438 H450 0.984 . S
N438 H451 0.985 . S
N439 C441 1.356 . S
N439 H444 0.984 . S
N439 H445 0.985 . S
C440 C434 1.379 1_565 S
C440 C437 1.363 . S
C440 N438 1.356 . S
C441 C435 1.363 . S
C441 C436 1.379 1_545 S
C441 N439 1.356 . S
N442 C434 1.356 . S
N442 H448 0.984 . S
N442 H449 0.984 . S
N443 C436 1.356 . S
N443 H446 0.984 . S
N443 H447 0.985 . S
H444 N439 0.984 . S
H445 N439 0.985 . S
H446 N443 0.984 . S
H447 N443 0.985 . S
H448 N442 0.984 . S
H449 N442 0.984 . S
H450 N438 0.984 . S
H451 N438 0.985 . S
C452 C453 1.363 . S
C452 C458 1.379 . S
C452 N460 1.356 1_565 S
C453 C452 1.363 . S
C453 C459 1.363 . S
C454 C455 1.363 . S
C454 C459 1.379 . S
C454 N461 1.356 . S
C455 C454 1.363 . S
C455 C458 1.363 . S
N456 C458 1.356 . S
N456 H468 0.984 1_565 S
N456 H469 0.985 . S
N457 C459 1.356 . S
N457 H462 0.984 . S
N457 H463 0.985 . S
C458 C452 1.379 . S
C458 C455 1.363 . S
C458 N456 1.356 . S
C459 C453 1.363 . S
C459 C454 1.379 . S
C459 N457 1.356 . S
N460 C452 1.356 1_545 S
N460 H466 0.984 . S
N460 H467 0.984 . S
N461 C454 1.356 . S
N461 H464 0.984 . S
N461 H465 0.985 . S
H462 N457 0.984 . S
H463 N457 0.985 . S
H464 N461 0.984 . S
H465 N461 0.985 . S
H466 N460 0.984 . S
H467 N460 0.984 . S
H468 N456 0.984 1_545 S
H469 N456 0.985 . S
C470 C471 1.363 . S
C470 C476 1.379 1_565 S
C470 N478 1.356 . S
C471 C470 1.363 . S
C471 C477 1.363 . S
C472 C473 1.363 . S
C472 C477 1.379 1_545 S
C472 N479 1.356 . S
C473 C472 1.363 . S
C473 C476 1.363 . S
N474 C476 1.356 . S
N474 H486 0.984 . S
N474 H487 0.985 . S
N475 C477 1.356 . S
N475 H480 0.984 . S
N475 H481 0.985 . S
C476 C470 1.379 1_545 S
C476 C473 1.363 . S
C476 N474 1.356 . S
C477 C471 1.363 . S
C477 C472 1.379 1_565 S
C477 N475 1.356 . S
N478 C470 1.356 . S
N478 H484 0.984 . S
N478 H485 0.984 . S
N479 C472 1.356 . S
N479 H482 0.984 . S
N479 H483 0.985 . S
H480 N475 0.984 . S
H481 N475 0.985 . S
H482 N479 0.984 . S
H483 N479 0.985 . S
H484 N478 0.984 . S
H485 N478 0.984 . S
H486 N474 0.984 . S
H487 N474 0.985 . S
C488 C489 1.363 . S
C488 C494 1.379 . S
C488 N496 1.356 1_565 S
C489 C488 1.363 . S
C489 C495 1.363 . S
C490 C491 1.363 . S
C490 C495 1.379 . S
C490 N497 1.356 . S
C491 C490 1.363 . S
C491 C494 1.363 . S
N492 C494 1.356 1_545 S
N492 H504 0.984 . S
N492 H505 0.985 1_545 S
N493 C495 1.356 . S
N493 H498 0.984 . S
N493 H499 0.985 . S
C494 C488 1.379 . S
C494 C491 1.363 . S
C494 N492 1.356 1_565 S
C495 C489 1.363 . S
C495 C490 1.379 . S
C495 N493 1.356 . S
N496 C488 1.356 1_545 S
N496 H502 0.984 . S
N496 H503 0.984 . S
N497 C490 1.356 . S
N497 H500 0.984 . S
N497 H501 0.985 . S
H498 N493 0.984 . S
H499 N493 0.985 . S
H500 N497 0.984 . S
H501 N497 0.985 . S
H502 N496 0.984 . S
H503 N496 0.984 . S
H504 N492 0.984 . S
H505 N492 0.985 1_565 S
C506 C507 1.363 . S
C506 C512 1.379 1_545 S
C506 N514 1.356 . S
C507 C506 1.363 . S
C507 C513 1.363 1_545 S
C508 C509 1.363 . S
C508 C513 1.379 . S
C508 N515 1.356 . S
C509 C508 1.363 . S
C509 C512 1.363 . S
N510 C512 1.356 . S
N510 H522 0.984 1_565 S
N510 H523 0.985 . S
N511 C513 1.356 1_545 S
N511 H516 0.984 . S
N511 H517 0.985 1_545 S
C512 C506 1.379 1_565 S
C512 C509 1.363 . S
C512 N510 1.356 . S
C513 C507 1.363 1_565 S
C513 C508 1.379 . S
C513 N511 1.356 1_565 S
N514 C506 1.356 . S
N514 H520 0.984 . S
N514 H521 0.984 . S
N515 C508 1.356 . S
N515 H518 0.984 . S
N515 H519 0.985 . S
H516 N511 0.984 . S
H517 N511 0.985 1_565 S
H518 N515 0.984 . S
H519 N515 0.985 . S
H520 N514 0.984 . S
H521 N514 0.984 . S
H522 N510 0.984 1_545 S
H523 N510 0.985 . S
C524 C525 1.363 . S
C524 C530 1.379 . S
C524 N532 1.356 1_556 S
C525 C524 1.363 . S
C525 C531 1.363 . S
C526 C527 1.363 . S
C526 C531 1.379 . S
C526 N533 1.356 . S
C527 C526 1.363 . S
C527 C530 1.363 . S
N528 C530 1.356 . S
N528 H540 0.984 . S
N528 H541 0.985 . S
N529 C531 1.356 . S
N529 H534 0.984 . S
N529 H535 0.985 . S
C530 C524 1.379 . S
C530 C527 1.363 . S
C530 N528 1.356 . S
C531 C525 1.363 . S
C531 C526 1.379 . S
C531 N529 1.356 . S
N532 C524 1.356 1_554 S
N532 H538 0.984 . S
N532 H539 0.984 . S
N533 C526 1.356 . S
N533 H536 0.984 . S
N533 H537 0.985 . S
H534 N529 0.984 . S
H535 N529 0.985 . S
H536 N533 0.984 . S
H537 N533 0.985 . S
H538 N532 0.984 . S
H539 N532 0.984 . S
H540 N528 0.984 . S
H541 N528 0.985 . S
C542 C543 1.363 . S
C542 C548 1.379 1_565 S
C542 N550 1.356 . S
C543 C542 1.363 . S
C543 C549 1.363 1_565 S
C544 C545 1.363 . S
C544 C549 1.379 . S
C544 N551 1.356 . S
C545 C544 1.363 . S
C545 C548 1.363 . S
N546 C548 1.356 . S
N546 H558 0.984 . S
N546 H559 0.985 . S
N547 C549 1.356 1_565 S
N547 H552 0.984 . S
N547 H553 0.985 . S
C548 C542 1.379 1_545 S
C548 C545 1.363 . S
C548 N546 1.356 . S
C549 C543 1.363 1_545 S
C549 C544 1.379 . S
C549 N547 1.356 1_545 S
N550 C542 1.356 . S
N550 H556 0.984 . S
N550 H557 0.984 . S
N551 C544 1.356 . S
N551 H554 0.984 . S
N551 H555 0.985 . S
H552 N547 0.984 . S
H553 N547 0.985 . S
H554 N551 0.984 . S
H555 N551 0.985 . S
H556 N550 0.984 . S
H557 N550 0.984 . S
H558 N546 0.984 . S
H559 N546 0.985 . S
C560 C561 1.363 . S
C560 C566 1.379 . S
C560 N568 1.356 . S
C561 C560 1.363 . S
C561 C567 1.363 . S
C562 C563 1.363 . S
C562 C567 1.379 . S
C562 N569 1.356 . S
C563 C562 1.363 . S
C563 C566 1.363 . S
N564 C566 1.356 . S
N564 H576 0.984 . S
N564 H577 0.985 . S
N565 C567 1.356 . S
N565 H570 0.984 . S
N565 H571 0.985 . S
C566 C560 1.379 . S
C566 C563 1.363 . S
C566 N564 1.356 . S
C567 C561 1.363 . S
C567 C562 1.379 . S
C567 N565 1.356 . S
N568 C560 1.356 . S
N568 H574 0.984 . S
N568 H575 0.984 . S
N569 C562 1.356 . S
N569 H572 0.984 . S
N569 H573 0.985 . S
H570 N565 0.984 . S
H571 N565 0.985 . S
H572 N569 0.984 . S
H573 N569 0.985 . S
H574 N568 0.984 . S
H575 N568 0.984 . S
H576 N564 0.984 . S
H577 N564 0.985 . S
C578 C579 1.363 . S
C578 C584 1.379 . S
C578 N586 1.356 . S
C579 C578 1.363 . S
C579 C585 1.363 . S
C580 C581 1.363 . S
C580 C585 1.379 . S
C580 N587 1.356 . S
C581 C580 1.363 . S
C581 C584 1.363 . S
N582 C584 1.356 . S
N582 H594 0.984 . S
N582 H595 0.985 . S
N583 C585 1.356 . S
N583 H588 0.984 . S
N583 H589 0.985 . S
C584 C578 1.379 . S
C584 C581 1.363 . S
C584 N582 1.356 . S
C585 C579 1.363 . S
C585 C580 1.379 . S
C585 N583 1.356 . S
N586 C578 1.356 . S
N586 H592 0.984 . S
N586 H593 0.984 . S
N587 C580 1.356 . S
N587 H590 0.984 . S
N587 H591 0.985 1_655 S
H588 N583 0.984 . S
H589 N583 0.985 . S
H590 N587 0.984 . S
H591 N587 0.985 1_455 S
H592 N586 0.984 . S
H593 N586 0.984 . S
H594 N582 0.984 . S
H595 N582 0.985 . S
C596 C597 1.363 . S
C596 C602 1.379 . S
C596 N604 1.356 . S
C597 C596 1.363 . S
C597 C603 1.363 . S
C598 C599 1.363 . S
C598 C603 1.379 . S
C598 N605 1.356 . S
C599 C598 1.363 . S
C599 C602 1.363 . S
N600 C602 1.356 . S
N600 H612 0.984 . S
N600 H613 0.985 . S
N601 C603 1.356 . S
N601 H606 0.984 . S
N601 H607 0.985 . S
C602 C596 1.379 . S
C602 C599 1.363 . S
C602 N600 1.356 . S
C603 C597 1.363 . S
C603 C598 1.379 . S
C603 N601 1.356 . S
N604 C596 1.356 . S
N604 H610 0.984 . S
N604 H611 0.984 . S
N605 C598 1.356 . S
N605 H608 0.984 . S
N605 H609 0.985 . S
H606 N601 0.984 . S
H607 N601 0.985 . S
H608 N605 0.984 . S
H609 N605 0.985 . S
H610 N604 0.984 . S
H611 N604 0.984 . S
H612 N600 0.984 . S
H613 N600 0.985 . S
C614 C615 1.363 . S
C614 C620 1.379 . S
C614 N622 1.356 . S
C615 C614 1.363 . S
C615 C621 1.363 . S
C616 C617 1.363 . S
C616 C621 1.379 . S
C616 N623 1.356 . S
C617 C616 1.363 . S
C617 C620 1.363 . S
N618 C620 1.356 . S
N618 H630 0.984 . S
N618 H631 0.985 . S
N619 C621 1.356 . S
N619 H624 0.984 . S
N619 H625 0.985 . S
C620 C614 1.379 . S
C620 C617 1.363 . S
C620 N618 1.356 . S
C621 C615 1.363 . S
C621 C616 1.379 . S
C621 N619 1.356 . S
N622 C614 1.356 . S
N622 H628 0.984 . S
N622 H629 0.984 . S
N623 C616 1.356 . S
N623 H626 0.984 . S
N623 H627 0.985 . S
H624 N619 0.984 . S
H625 N619 0.985 . S
H626 N623 0.984 . S
H627 N623 0.985 . S
H628 N622 0.984 . S
H629 N622 0.984 . S
H630 N618 0.984 . S
H631 N618 0.985 . S
C632 C633 1.363 . S
C632 C638 1.379 . S
C632 N640 1.356 . S
C633 C632 1.363 . S
C633 C639 1.363 . S
C634 C635 1.363 . S
C634 C639 1.379 . S
C634 N641 1.356 . S
C635 C634 1.363 . S
C635 C638 1.363 . S
N636 C638 1.356 . S
N636 H648 0.984 . S
N636 H649 0.985 . S
N637 C639 1.356 . S
N637 H642 0.984 . S
N637 H643 0.985 . S
C638 C632 1.379 . S
C638 C635 1.363 . S
C638 N636 1.356 . S
C639 C633 1.363 . S
C639 C634 1.379 . S
C639 N637 1.356 . S
N640 C632 1.356 . S
N640 H646 0.984 1_554 S
N640 H647 0.995 . S
N641 C634 1.356 . S
N641 H644 0.984 . S
N641 H645 0.985 . S
H642 N637 0.984 . S
H643 N637 0.985 . S
H644 N641 0.984 . S
H645 N641 0.985 . S
H646 N640 0.984 1_556 S
H647 N640 0.995 . S
H648 N636 0.984 . S
H649 N636 0.985 . S
C650 C651 1.363 . S
C650 C656 1.379 . S
C650 N658 1.356 . S
C651 C650 1.363 . S
C651 C657 1.363 . S
C652 C653 1.363 . S
C652 C657 1.379 . S
C652 N659 1.356 . S
C653 C652 1.363 . S
C653 C656 1.363 . S
N654 C656 1.356 . S
N654 H666 0.984 . S
N654 H667 0.985 . S
N655 C657 1.356 . S
N655 H660 0.984 . S
N655 H661 0.985 . S
C656 C650 1.379 . S
C656 C653 1.363 . S
C656 N654 1.356 . S
C657 C651 1.363 . S
C657 C652 1.379 . S
C657 N655 1.356 . S
N658 C650 1.356 . S
N658 H664 0.984 . S
N658 H665 0.984 . S
N659 C652 1.356 . S
N659 H662 0.984 . S
N659 H663 0.985 . S
H660 N655 0.984 . S
H661 N655 0.985 . S
H662 N659 0.984 . S
H663 N659 0.985 . S
H664 N658 0.984 . S
H665 N658 0.984 . S
H666 N654 0.984 . S
H667 N654 0.985 . S
C668 C669 1.363 . S
C668 C674 1.379 . S
C668 N676 1.356 . S
C669 C668 1.363 . S
C669 C675 1.363 . S
C670 C671 1.363 . S
C670 C675 1.379 . S
C670 N677 1.356 . S
C671 C670 1.363 . S
C671 C674 1.363 . S
N672 C674 1.356 . S
N672 H684 0.984 . S
N672 H685 0.985 . S
N673 C675 1.356 . S
N673 H678 0.984 . S
N673 H679 0.985 . S
C674 C668 1.379 . S
C674 C671 1.363 . S
C674 N672 1.356 . S
C675 C669 1.363 . S
C675 C670 1.379 . S
C675 N673 1.356 . S
N676 C668 1.356 . S
N676 H682 0.984 . S
N676 H683 0.984 . S
N677 C670 1.356 . S
N677 H680 0.984 . S
N677 H681 0.985 . S
H678 N673 0.984 . S
H679 N673 0.985 . S
H680 N677 0.984 . S
H681 N677 0.985 . S
H682 N676 0.984 . S
H683 N676 0.984 . S
H684 N672 0.984 . S
H685 N672 0.985 . S
C686 C687 1.363 . S
C686 C692 1.379 . S
C686 N694 1.356 . S
C687 C686 1.363 . S
C687 C693 1.363 . S
C688 C689 1.363 . S
C688 C693 1.379 . S
C688 N695 1.356 . S
C689 C688 1.363 . S
C689 C692 1.363 . S
N690 C692 1.356 . S
N690 H702 0.984 . S
N690 H703 0.985 . S
N691 C693 1.356 . S
N691 H696 0.984 . S
N691 H697 0.985 . S
C692 C686 1.379 . S
C692 C689 1.363 . S
C692 N690 1.356 . S
C693 C687 1.363 . S
C693 C688 1.379 . S
C693 N691 1.356 . S
N694 C686 1.356 . S
N694 H700 0.984 . S
N694 H701 0.984 . S
N695 C688 1.356 . S
N695 H698 0.984 . S
N695 H699 0.985 . S
H696 N691 0.984 . S
H697 N691 0.985 . S
H698 N695 0.984 . S
H699 N695 0.985 . S
H700 N694 0.984 . S
H701 N694 0.984 . S
H702 N690 0.984 . S
H703 N690 0.985 . S
C704 C705 1.363 . S
C704 C710 1.379 . S
C704 N712 1.356 . S
C705 C704 1.363 . S
C705 C711 1.363 . S
C706 C707 1.363 . S
C706 C711 1.379 . S
C706 N713 1.356 . S
C707 C706 1.363 . S
C707 C710 1.363 . S
N708 C710 1.356 . S
N708 H720 0.984 . S
N708 H721 0.985 . S
N709 C711 1.356 . S
N709 H714 0.984 . S
N709 H715 0.985 . S
C710 C704 1.379 . S
C710 C707 1.363 . S
C710 N708 1.356 . S
C711 C705 1.363 . S
C711 C706 1.379 . S
C711 N709 1.356 . S
N712 C704 1.356 . S
N712 H718 0.984 . S
N712 H719 0.984 . S
N713 C706 1.356 . S
N713 H716 0.984 . S
N713 H717 0.985 . S
H714 N709 0.984 . S
H715 N709 0.985 . S
H716 N713 0.984 . S
H717 N713 0.985 . S
H718 N712 0.984 . S
H719 N712 0.984 . S
H720 N708 0.984 . S
H721 N708 0.985 . S
C722 C723 1.363 . S
C722 C728 1.379 . S
C722 N730 1.356 . S
C723 C722 1.363 . S
C723 C729 1.363 . S
C724 C725 1.363 . S
C724 C729 1.379 . S
C724 N731 1.356 . S
C725 C724 1.363 . S
C725 C728 1.363 . S
N726 C728 1.356 . S
N726 H738 0.984 . S
N726 H739 0.985 . S
N727 C729 1.356 . S
N727 H732 0.984 . S
N727 H733 0.985 . S
C728 C722 1.379 . S
C728 C725 1.363 . S
C728 N726 1.356 . S
C729 C723 1.363 . S
C729 C724 1.379 . S
C729 N727 1.356 . S
N730 C722 1.356 . S
N730 H736 0.984 . S
N730 H737 0.984 . S
N731 C724 1.356 . S
N731 H734 0.984 . S
N731 H735 0.985 1_455 S
H732 N727 0.984 . S
H733 N727 0.985 . S
H734 N731 0.984 . S
H735 N731 0.985 1_655 S
H736 N730 0.984 . S
H737 N730 0.984 . S
H738 N726 0.984 . S
H739 N726 0.985 . S
C740 C741 1.363 . S
C740 C746 1.379 . S
C740 N748 1.356 . S
C741 C740 1.363 . S
C741 C747 1.363 . S
C742 C743 1.363 . S
C742 C747 1.379 . S
C742 N749 1.356 . S
C743 C742 1.363 . S
C743 C746 1.363 . S
N744 C746 1.356 . S
N744 H756 0.984 . S
N744 H757 0.985 . S
N745 C747 1.356 . S
N745 H750 0.984 . S
N745 H751 0.985 . S
C746 C740 1.379 . S
C746 C743 1.363 . S
C746 N744 1.356 . S
C747 C741 1.363 . S
C747 C742 1.379 . S
C747 N745 1.356 . S
N748 C740 1.356 . S
N748 H754 0.984 . S
N748 H755 0.984 . S
N749 C742 1.356 . S
N749 H752 0.984 . S
N749 H753 0.985 . S
H750 N745 0.984 . S
H751 N745 0.985 . S
H752 N749 0.984 . S
H753 N749 0.985 . S
H754 N748 0.984 . S
H755 N748 0.984 . S
H756 N744 0.984 . S
H757 N744 0.985 . S
C758 C759 1.363 . S
C758 C764 1.379 . S
C758 N766 1.356 . S
C759 C758 1.363 . S
C759 C765 1.363 . S
C760 C761 1.363 . S
C760 C765 1.379 . S
C760 N767 1.356 . S
C761 C760 1.363 . S
C761 C764 1.363 . S
N762 C764 1.356 . S
N762 H774 0.984 . S
N762 H775 0.985 . S
N763 C765 1.356 . S
N763 H768 0.984 . S
N763 H769 0.985 . S
C764 C758 1.379 . S
C764 C761 1.363 . S
C764 N762 1.356 . S
C765 C759 1.363 . S
C765 C760 1.379 . S
C765 N763 1.356 . S
N766 C758 1.356 . S
N766 H772 0.984 . S
N766 H773 0.984 . S
N767 C760 1.356 . S
N767 H770 0.984 . S
N767 H771 0.985 . S
H768 N763 0.984 . S
H769 N763 0.985 . S
H770 N767 0.984 . S
H771 N767 0.985 . S
H772 N766 0.984 . S
H773 N766 0.984 . S
H774 N762 0.984 . S
H775 N762 0.985 . S
C776 C777 1.363 . S
C776 C782 1.379 . S
C776 N784 1.356 . S
C777 C776 1.363 . S
C777 C783 1.363 . S
C778 C779 1.363 . S
C778 C783 1.379 . S
C778 N785 1.356 . S
C779 C778 1.363 . S
C779 C782 1.363 . S
N780 C782 1.356 . S
N780 H792 0.984 . S
N780 H793 0.985 . S
N781 C783 1.356 1_554 S
N781 H786 0.984 . S
N781 H787 0.985 . S
C782 C776 1.379 . S
C782 C779 1.363 . S
C782 N780 1.356 . S
C783 C777 1.363 . S
C783 C778 1.379 . S
C783 N781 1.356 1_556 S
N784 C776 1.356 . S
N784 H790 0.984 . S
N784 H791 0.984 . S
N785 C778 1.356 . S
N785 H788 0.984 . S
N785 H789 0.985 . S
H786 N781 0.984 . S
H787 N781 0.985 . S
H788 N785 0.984 . S
H789 N785 0.985 . S
H790 N784 0.984 . S
H791 N784 0.984 . S
H792 N780 0.984 . S
H793 N780 0.985 . S
C794 C795 1.363 . S
C794 C800 1.379 . S
C794 N802 1.356 . S
C795 C794 1.363 . S
C795 C801 1.363 . S
C796 C797 1.363 . S
C796 C801 1.379 . S
C796 N803 1.356 . S
C797 C796 1.363 . S
C797 C800 1.363 . S
N798 C800 1.356 . S
N798 H810 0.984 . S
N798 H811 0.985 . S
N799 C801 1.356 . S
N799 H804 0.984 . S
N799 H805 0.985 . S
C800 C794 1.379 . S
C800 C797 1.363 . S
C800 N798 1.356 . S
C801 C795 1.363 . S
C801 C796 1.379 . S
C801 N799 1.356 . S
N802 C794 1.356 . S
N802 H808 0.984 . S
N802 H809 0.984 . S
N803 C796 1.356 . S
N803 H806 0.984 . S
N803 H807 0.985 . S
H804 N799 0.984 . S
H805 N799 0.985 . S
H806 N803 0.984 . S
H807 N803 0.985 . S
H808 N802 0.984 . S
H809 N802 0.984 . S
H810 N798 0.984 . S
H811 N798 0.985 . S
C812 C813 1.363 . S
C812 C818 1.379 . S
C812 N820 1.356 . S
C813 C812 1.363 . S
C813 C819 1.363 . S
C814 C815 1.363 . S
C814 C819 1.379 . S
C814 N821 1.356 . S
C815 C814 1.363 . S
C815 C818 1.363 . S
N816 C818 1.356 . S
N816 H828 0.984 . S
N816 H829 0.985 . S
N817 C819 1.356 . S
N817 H822 0.984 . S
N817 H823 0.985 . S
C818 C812 1.379 . S
C818 C815 1.363 . S
C818 N816 1.356 . S
C819 C813 1.363 . S
C819 C814 1.379 . S
C819 N817 1.356 . S
N820 C812 1.356 . S
N820 H826 0.984 . S
N820 H827 0.984 . S
N821 C814 1.356 . S
N821 H824 0.984 . S
N821 H825 0.985 . S
H822 N817 0.984 . S
H823 N817 0.985 . S
H824 N821 0.984 . S
H825 N821 0.985 . S
H826 N820 0.984 . S
H827 N820 0.984 . S
H828 N816 0.984 . S
H829 N816 0.985 . S
C830 C831 1.363 . S
C830 C836 1.379 . S
C830 N838 1.356 . S
C831 C830 1.363 . S
C831 C837 1.363 . S
C832 C833 1.363 . S
C832 C837 1.379 . S
C832 N839 1.356 . S
C833 C832 1.363 . S
C833 C836 1.363 . S
N834 C836 1.356 . S
N834 H846 0.984 . S
N834 H847 0.985 . S
N835 C837 1.356 . S
N835 H840 0.984 . S
N835 H841 0.985 . S
C836 C830 1.379 . S
C836 C833 1.363 . S
C836 N834 1.356 . S
C837 C831 1.363 . S
C837 C832 1.379 . S
C837 N835 1.356 . S
N838 C830 1.356 . S
N838 H844 0.984 . S
N838 H845 0.984 . S
N839 C832 1.356 . S
N839 H842 0.984 . S
N839 H843 0.985 . S
H840 N835 0.984 . S
H841 N835 0.985 . S
H842 N839 0.984 . S
H843 N839 0.985 . S
H844 N838 0.984 . S
H845 N838 0.984 . S
H846 N834 0.984 . S
H847 N834 0.985 . S
C275 C193 1.586 . S
C273 C14 1.562 . S
C291 C25 1.552 . S
C293 C225 1.585 . S
C309 C50 1.560 . S
C311 C248 1.600 . S
C329 C152 1.602 . S
C327 C68 1.562 . S
C347 C235 1.408 . S
C345 C16 1.527 . S
C365 C264 1.420 . S
C363 C26 1.537 . S
C383 C168 1.423 . S
C381 C52 1.526 . S
C401 C203 1.407 . S
C399 C70 1.525 . S
C417 C8 1.516 . S
C419 C231 1.417 . S
C435 C88 1.519 . S
C437 C206 1.402 . S
C453 C44 1.516 . S
C455 C174 1.399 . S
C473 C263 1.418 . S
C471 C98 1.517 . S
C491 C207 1.580 . S
C489 C7 1.549 . S
C507 C86 1.550 . S
C509 C175 1.579 . S
C525 C43 1.548 . S
C527 C262 1.589 . S
C545 C230 1.589 . S
C543 C97 1.547 . S
C561 C116 1.555 . S
C563 C257 1.579 . S
C579 C79 1.551 . S
C581 C161 1.585 . S
C597 C140 1.561 . S
C599 C184 1.601 . S
C615 C104 1.562 . S
C617 C216 1.602 . S
C635 C171 1.410 . S
C633 C115 1.533 . S
C651 C80 1.537 . S
C653 C200 1.420 . S
C669 C142 1.526 . S
C671 C232 1.423 . S
C689 C267 1.407 . S
C687 C106 1.526 . S
C705 C122 1.519 . S
C707 C167 1.422 . S
C723 C34 1.519 . S
C725 C270 1.402 . S
C741 C134 1.516 . S
C743 C238 1.398 . S
C761 C199 1.418 . S
C759 C62 1.517 . S
C779 C271 1.577 . S
C777 C124 1.548 . S
C797 C239 1.579 . S
C795 C32 1.550 . S
C815 C198 1.589 . S
C813 C133 1.548 . S
C833 C166 1.589 . S
C831 C61 1.547 . S
