# Generated by pormake.
# Topology apo, (3,6)-cn, num edge types: 1
# Building blocks:
#     Node 0, Type 0, BuildingBlock: VETTIZ_charged_linker_0, # of connection points: 3
#     Node 1, Type 0, BuildingBlock: VETTIZ_charged_linker_0, # of connection points: 3
#     Node 2, Type 0, BuildingBlock: VETTIZ_charged_linker_0, # of connection points: 3
#     Node 3, Type 0, BuildingBlock: VETTIZ_charged_linker_0, # of connection points: 3
#     Node 4, Type 0, BuildingBlock: VETTIZ_charged_linker_0, # of connection points: 3
#     Node 5, Type 0, BuildingBlock: VETTIZ_charged_linker_0, # of connection points: 3
#     Node 6, Type 0, BuildingBlock: VETTIZ_charged_linker_0, # of connection points: 3
#     Node 7, Type 0, BuildingBlock: VETTIZ_charged_linker_0, # of connection points: 3
#     Node 8, Type 1, BuildingBlock: KUMBOL_clean_sbu_1, # of connection points: 6
#     Node 9, Type 1, BuildingBlock: KUMBOL_clean_sbu_1, # of connection points: 6
#     Node 10, Type 1, BuildingBlock: KUMBOL_clean_sbu_1, # of connection points: 6
#     Node 11, Type 1, BuildingBlock: KUMBOL_clean_sbu_1, # of connection points: 6
#     Edge 12, Type (0, 1), BuildingBlock: OJICUG_clean_linker_0, # of connection points: 2
#     Edge 13, Type (0, 1), BuildingBlock: OJICUG_clean_linker_0, # of connection points: 2
#     Edge 14, Type (0, 1), BuildingBlock: OJICUG_clean_linker_0, # of connection points: 2
#     Edge 15, Type (0, 1), BuildingBlock: OJICUG_clean_linker_0, # of connection points: 2
#     Edge 16, Type (0, 1), BuildingBlock: OJICUG_clean_linker_0, # of connection points: 2
#     Edge 17, Type (0, 1), BuildingBlock: OJICUG_clean_linker_0, # of connection points: 2
#     Edge 18, Type (0, 1), BuildingBlock: OJICUG_clean_linker_0, # of connection points: 2
#     Edge 19, Type (0, 1), BuildingBlock: OJICUG_clean_linker_0, # of connection points: 2
#     Edge 20, Type (0, 1), BuildingBlock: OJICUG_clean_linker_0, # of connection points: 2
#     Edge 21, Type (0, 1), BuildingBlock: OJICUG_clean_linker_0, # of connection points: 2
#     Edge 22, Type (0, 1), BuildingBlock: OJICUG_clean_linker_0, # of connection points: 2
#     Edge 23, Type (0, 1), BuildingBlock: OJICUG_clean_linker_0, # of connection points: 2
#     Edge 24, Type (0, 1), BuildingBlock: OJICUG_clean_linker_0, # of connection points: 2
#     Edge 25, Type (0, 1), BuildingBlock: OJICUG_clean_linker_0, # of connection points: 2
#     Edge 26, Type (0, 1), BuildingBlock: OJICUG_clean_linker_0, # of connection points: 2
#     Edge 27, Type (0, 1), BuildingBlock: OJICUG_clean_linker_0, # of connection points: 2
#     Edge 28, Type (0, 1), BuildingBlock: OJICUG_clean_linker_0, # of connection points: 2
#     Edge 29, Type (0, 1), BuildingBlock: OJICUG_clean_linker_0, # of connection points: 2
#     Edge 30, Type (0, 1), BuildingBlock: OJICUG_clean_linker_0, # of connection points: 2
#     Edge 31, Type (0, 1), BuildingBlock: OJICUG_clean_linker_0, # of connection points: 2
#     Edge 32, Type (0, 1), BuildingBlock: OJICUG_clean_linker_0, # of connection points: 2
#     Edge 33, Type (0, 1), BuildingBlock: OJICUG_clean_linker_0, # of connection points: 2
#     Edge 34, Type (0, 1), BuildingBlock: OJICUG_clean_linker_0, # of connection points: 2
#     Edge 35, Type (0, 1), BuildingBlock: OJICUG_clean_linker_0, # of connection points: 2
# Relax obj value: 0.009
# Max RMSD: 0.112
# Mean RMSD: 0.087
data_MOF--net-apo--node1-KUMBOL_clean_sbu_1--node2-VETTIZ_charged_linker_0--edge1-OJICUG_clean_linker_0
_symmetry_space_group_name_H-M    P1
_symmetry_Int_Tables_number       1
_symmetry_cell_setting            triclinic
loop_
_symmetry_equiv_pos_as_xyz
'x, y, z'
_cell_length_a     22.83627
_cell_length_b     40.423984
_cell_length_c     51.20998
_cell_angle_alpha  90.129771
_cell_angle_beta   89.807491
_cell_angle_gamma 90.803159
loop_
_atom_site_label
_atom_site_type_symbol
_atom_site_fract_x
_atom_site_fract_y
_atom_site_fract_z
_atom_type_partial_charge
C0 C 0.28909 0.36109 0.50159 0.0
C1 C 0.31964 0.38533 0.51622 0.0
C2 C 0.34852 0.41133 0.50287 0.0
C3 C 0.31205 0.39071 0.46148 0.0
C4 C 0.28585 0.36429 0.47429 0.0
C5 C 0.25394 0.34144 0.45563 0.0
H6 H 0.17676 0.30544 0.33035 0.0
C7 C 0.29758 0.38816 0.43344 0.0
C8 C 0.2638 0.35916 0.42977 0.0
H9 H 0.13894 0.24726 0.39901 0.0
H10 H 0.18654 0.28892 0.42632 0.0
H11 H 0.13892 0.37253 0.35583 0.0
H12 H 0.30668 0.32807 0.34454 0.0
H13 H 0.31414 0.37008 0.33611 0.0
H14 H 0.26311 0.34416 0.31848 0.0
H15 H 0.17742 0.37576 0.32537 0.0
H16 H 0.1879 0.40579 0.35121 0.0
C17 C 0.1884 0.34024 0.46337 0.0
C18 C 0.28415 0.30744 0.45628 0.0
C19 C 0.36108 0.48013 0.37102 0.0
C20 C 0.34907 0.48585 0.34451 0.0
C21 C 0.31533 0.46251 0.33048 0.0
C22 C 0.29409 0.43374 0.34255 0.0
C23 C 0.30603 0.42831 0.36909 0.0
C24 C 0.33846 0.45144 0.38297 0.0
C25 C 0.34377 0.44221 0.41134 0.0
C26 C 0.30972 0.40958 0.41204 0.0
C27 C 0.28835 0.40154 0.38717 0.0
C28 C 0.31354 0.46942 0.42771 0.0
C29 C 0.4095 0.43756 0.4176 0.0
C30 C 0.17904 0.30172 0.35127 0.0
C31 C 0.15514 0.27309 0.36265 0.0
C32 C 0.15757 0.26921 0.38995 0.0
C33 C 0.1854 0.2933 0.40566 0.0
C34 C 0.21035 0.32167 0.39389 0.0
C35 C 0.20578 0.32565 0.36715 0.0
C36 C 0.23201 0.35776 0.35789 0.0
C37 C 0.25599 0.37177 0.3832 0.0
C38 C 0.24333 0.35069 0.40433 0.0
C39 C 0.18191 0.37914 0.3468 0.0
C40 C 0.28141 0.3499 0.33807 0.0
H41 H 0.36767 0.43461 0.46683 0.0
H42 H 0.26649 0.34077 0.51122 0.0
H43 H 0.33254 0.3106 0.45751 0.0
H44 H 0.27652 0.29268 0.43845 0.0
H45 H 0.26951 0.29282 0.47351 0.0
H46 H 0.17316 0.36527 0.46909 0.0
H47 H 0.18077 0.32342 0.4802 0.0
H48 H 0.15965 0.33244 0.44715 0.0
H49 H 0.38647 0.4979 0.38229 0.0
H50 H 0.30604 0.46638 0.30998 0.0
H51 H 0.26926 0.41682 0.33067 0.0
H52 H 0.27297 0.47783 0.41791 0.0
H53 H 0.34285 0.49135 0.4302 0.0
H54 H 0.29891 0.46083 0.44711 0.0
H55 H 0.43354 0.42786 0.40033 0.0
H56 H 0.41671 0.41907 0.4331 0.0
H57 H 0.43074 0.46136 0.42332 0.0
H58 H 0.37345 0.42987 0.51356 0.0
C59 C 0.34507 0.41408 0.47569 0.0
C60 C 0.33594 0.19082 0.84985 0.0
C61 C 0.35144 0.22197 0.85987 0.0
C62 C 0.33816 0.22958 0.88607 0.0
C63 C 0.29373 0.17508 0.89172 0.0
C64 C 0.30655 0.16806 0.86589 0.0
C65 C 0.28328 0.13484 0.85749 0.0
H66 H 0.12004 0.99829 0.88307 0.0
C67 C 0.26067 0.14641 0.90256 0.0
C68 C 0.2538 0.12307 0.8824 0.0
H69 H 0.21262 0.02349 0.81198 0.0
H70 H 0.25094 0.07324 0.83207 0.0
H71 H 0.23189 0.01935 0.92085 0.0
H72 H 0.0743 0.06816 0.89746 0.0
H73 H 0.08648 0.07899 0.93024 0.0
H74 H 0.07378 0.03613 0.92167 0.0
H75 H 0.16045 0.00689 0.93214 0.0
H76 H 0.2026 0.03855 0.94865 0.0
C77 C 0.33599 0.11296 0.84992 0.0
C78 C 0.23853 0.14031 0.83524 0.0
C79 C 0.20539 0.1416 0.99895 0.0
C80 C 0.17266 0.11857 0.01395 0.0
C81 C 0.14526 0.09168 1.00101 0.0
C82 C 0.15246 0.08692 0.97412 0.0
C83 C 0.18698 0.10939 0.95972 0.0
C84 C 0.21142 0.13671 0.97195 0.0
C85 C 0.24302 0.15924 0.95296 0.0
C86 C 0.23685 0.13965 0.92773 0.0
C87 C 0.20421 0.11039 0.93193 0.0
C88 C 0.30771 0.16278 0.96146 0.0
C89 C 0.20998 0.19244 0.95186 0.0
C90 C 0.1486 0.01465 0.87195 0.0
C91 C 0.16319 0.00732 0.84593 0.0
C92 C 0.20114 0.02874 0.8321 0.0
C93 C 0.22304 0.05766 0.84377 0.0
C94 C 0.20718 0.06513 0.86964 0.0
C95 C 0.17166 0.04343 0.88349 0.0
C96 C 0.16233 0.05458 0.91121 0.0
C97 C 0.19625 0.08719 0.91136 0.0
C98 C 0.2219 0.09328 0.88691 0.0
C99 C 0.19026 0.02856 0.92936 0.0
C100 C 0.09584 0.05957 0.91564 0.0
H101 H 0.30125 0.21309 0.92203 0.0
H102 H 0.3451 0.18463 0.82965 0.0
H103 H 0.21276 0.16305 0.83882 0.0
H104 H 0.20544 0.12027 0.83364 0.0
H105 H 0.26102 0.14325 0.8161 0.0
H106 H 0.37556 0.11973 0.8615 0.0
H107 H 0.34748 0.11583 0.82895 0.0
H108 H 0.32818 0.08646 0.85421 0.0
H109 H 0.22707 0.16264 1.00797 0.0
H110 H 0.11808 0.07413 0.01163 0.0
H111 H 0.13088 0.0658 0.96561 0.0
H112 H 0.32601 0.13812 0.96608 0.0
H113 H 0.31176 0.17853 0.97919 0.0
H114 H 0.33609 0.17345 0.94608 0.0
H115 H 0.16257 0.18887 0.95629 0.0
H116 H 0.21096 0.20365 0.93219 0.0
H117 H 0.22793 0.21048 0.96624 0.0
H118 H 0.34999 0.25359 0.89405 0.0
C119 C 0.30982 0.20614 0.90216 0.0
C120 C 0.80959 0.14848 0.52456 0.0
C121 C 0.83958 0.12696 0.50772 0.0
C122 C 0.85806 0.0962 0.51739 0.0
C123 C 0.81788 0.10932 0.56012 0.0
C124 C 0.79922 0.13925 0.55045 0.0
C125 C 0.76776 0.15949 0.57061 0.0
H126 H 0.68042 0.17749 0.69609 0.0
C127 C 0.79951 0.1073 0.58782 0.0
C128 C 0.76974 0.13662 0.59398 0.0
H129 H 0.65934 0.2468 0.63262 0.0
H130 H 0.70394 0.20827 0.60283 0.0
H131 H 0.6339 0.11705 0.66525 0.0
H132 H 0.80739 0.15303 0.68133 0.0
H133 H 0.80698 0.11013 0.68681 0.0
H134 H 0.75844 0.13573 0.70536 0.0
H135 H 0.67099 0.1059 0.69464 0.0
H136 H 0.67675 0.08137 0.66519 0.0
C137 C 0.70425 0.16489 0.56117 0.0
C138 C 0.80359 0.19182 0.57513 0.0
C139 C 0.85997 0.01047 0.6453 0.0
C140 C 0.84766 0.00299 0.67167 0.0
C141 C 0.80686 0.02235 0.68535 0.0
C142 C 0.78237 0.05011 0.67392 0.0
C143 C 0.79825 0.05876 0.64837 0.0
C144 C 0.83432 0.03843 0.634 0.0
C145 C 0.84188 0.05075 0.60635 0.0
C146 C 0.80715 0.08268 0.60727 0.0
C147 C 0.78284 0.08729 0.63216 0.0
C148 C 0.81394 0.02485 0.58767 0.0
C149 C 0.90783 0.05744 0.60136 0.0
C150 C 0.68445 0.18442 0.67575 0.0
C151 C 0.6667 0.21561 0.667 0.0
C152 C 0.67384 0.22335 0.64024 0.0
C153 C 0.69938 0.20079 0.62285 0.0
C154 C 0.7177 0.16994 0.63215 0.0
C155 C 0.70907 0.16211 0.65812 0.0
C156 C 0.72954 0.12807 0.66466 0.0
C157 C 0.75388 0.11704 0.63852 0.0
C158 C 0.74709 0.14159 0.61953 0.0
C159 C 0.67537 0.10691 0.67305 0.0
C160 C 0.7779 0.13159 0.68573 0.0
H161 H 0.86312 0.06376 0.54986 0.0
H162 H 0.79367 0.172 0.51763 0.0
H163 H 0.85143 0.18705 0.57415 0.0
H164 H 0.7965 0.20274 0.59462 0.0
H165 H 0.7935 0.21057 0.56003 0.0
H166 H 0.68685 0.14239 0.55114 0.0
H167 H 0.70225 0.18578 0.54716 0.0
H168 H 0.67331 0.16942 0.57736 0.0
H169 H 0.89025 0.9957 0.63408 0.0
H170 H 0.79468 0.01642 0.70529 0.0
H171 H 0.75314 0.06423 0.68576 0.0
H172 H 0.77593 0.01204 0.59705 0.0
H173 H 0.84598 0.00566 0.58203 0.0
H174 H 0.79578 0.03611 0.56986 0.0
H175 H 0.9277 0.0709 0.61818 0.0
H176 H 0.91623 0.07315 0.58414 0.0
H177 H 0.9317 0.03389 0.59878 0.0
H178 H 0.88129 0.07923 0.50481 0.0
C179 C 0.84753 0.08732 0.54353 0.0
C180 C 0.82159 0.30562 0.17536 0.0
C181 C 0.84527 0.27616 0.16539 0.0
C182 C 0.84386 0.27084 0.1381 0.0
C183 C 0.79427 0.32284 0.13178 0.0
C184 C 0.79755 0.32865 0.15829 0.0
C185 C 0.77398 0.36186 0.16579 0.0
H186 H 0.62136 0.49739 0.13414 0.0
C187 C 0.76484 0.35132 0.11973 0.0
C188 C 0.75362 0.37443 0.13949 0.0
H189 H 0.70137 0.47342 0.20786 0.0
H190 H 0.74341 0.42448 0.18893 0.0
H191 H 0.73854 0.47904 0.09945 0.0
H192 H 0.58117 0.42311 0.11749 0.0
H193 H 0.59697 0.41883 0.08397 0.0
H194 H 0.58111 0.45912 0.09699 0.0
H195 H 0.66933 0.48846 0.08493 0.0
H196 H 0.71676 0.45756 0.07118 0.0
C197 C 0.82511 0.38324 0.177 0.0
C198 C 0.72215 0.3562 0.18494 0.0
C199 C 0.7095 0.3463 0.02415 0.0
C200 C 0.67926 0.36763 1.00742 0.0
C201 C 0.65895 0.39794 0.01754 0.0
C202 C 0.6682 0.40657 0.04381 0.0
C203 C 0.69837 0.38478 0.06018 0.0
C204 C 0.71885 0.35538 0.05013 0.0
C205 C 0.75037 0.33521 0.07009 0.0
C206 C 0.74504 0.35715 0.09395 0.0
C207 C 0.71448 0.38618 0.08813 0.0
C208 C 0.81498 0.33177 0.0612 0.0
C209 C 0.71667 0.30192 0.07337 0.0
C210 C 0.64845 0.48155 0.14595 0.0
C211 C 0.65825 0.48877 0.17243 0.0
C212 C 0.69378 0.46809 0.18739 0.0
C213 C 0.71788 0.43969 0.17637 0.0
C214 C 0.70651 0.43205 0.15009 0.0
C215 C 0.67376 0.45325 0.13507 0.0
C216 C 0.66925 0.44174 0.10712 0.0
C217 C 0.70349 0.40975 0.10814 0.0
C218 C 0.72413 0.40408 0.13351 0.0
C219 C 0.69958 0.46802 0.08955 0.0
C220 C 0.60378 0.43548 0.1008 0.0
H221 H 0.81819 0.28816 0.10086 0.0
H222 H 0.82117 0.31084 0.19608 0.0
H223 H 0.6934 0.33556 0.178 0.0
H224 H 0.69342 0.37777 0.18678 0.0
H225 H 0.73818 0.34965 0.20469 0.0
H226 H 0.86856 0.37409 0.17053 0.0
H227 H 0.82482 0.38314 0.19868 0.0
H228 H 0.82412 0.40915 0.17001 0.0
H229 H 0.72479 0.32253 0.0174 0.0
H230 H 0.63616 0.41514 1.00513 0.0
H231 H 0.65133 0.4298 0.05037 0.0
H232 H 0.8302 0.35406 0.05026 0.0
H233 H 0.82041 0.31002 0.04816 0.0
H234 H 0.84565 0.32992 0.07777 0.0
H235 H 0.66854 0.30581 0.07279 0.0
H236 H 0.72465 0.28986 0.09228 0.0
H237 H 0.72786 0.28439 0.05745 0.0
H238 H 0.86318 0.24906 0.12951 0.0
C239 C 0.81823 0.29384 0.12134 0.0
C240 C 0.68132 0.52527 0.67292 0.0
C241 C 0.64337 0.50015 0.66381 0.0
C242 C 0.62398 0.50132 0.63768 0.0
C243 C 0.6788 0.55235 0.63071 0.0
C244 C 0.69767 0.55115 0.65627 0.0
C245 C 0.73351 0.58105 0.66379 0.0
H246 H 0.84221 0.73262 0.63437 0.0
C247 C 0.70215 0.58327 0.61904 0.0
C248 C 0.73366 0.60031 0.63842 0.0
H249 H 0.84624 0.68068 0.70795 0.0
H250 H 0.80057 0.63289 0.68816 0.0
H251 H 0.87644 0.66724 0.5981 0.0
H252 H 0.71083 0.7106 0.61862 0.0
H253 H 0.71088 0.70134 0.58501 0.0
H254 H 0.76316 0.73097 0.59766 0.0
H255 H 0.85313 0.70569 0.5844 0.0
H256 H 0.83158 0.66644 0.5703 0.0
C257 C 0.79575 0.56942 0.67107 0.0
C258 C 0.70056 0.59941 0.68598 0.0
C259 C 0.66686 0.60712 0.52325 0.0
C260 C 0.68422 0.63312 0.50666 0.0
C261 C 0.7151 0.66043 0.51732 0.0
C262 C 0.7298 0.66137 0.5439 0.0
C263 C 0.71332 0.63478 0.56009 0.0
C264 C 0.68186 0.60842 0.54971 0.0
C265 C 0.66781 0.58237 0.56973 0.0
C266 C 0.69771 0.59687 0.59363 0.0
C267 C 0.72412 0.62769 0.58798 0.0
C268 C 0.69616 0.54959 0.56087 0.0
C269 C 0.60033 0.58036 0.57312 0.0
C270 C 0.83333 0.71075 0.64599 0.0
C271 C 0.84708 0.71022 0.67274 0.0
C272 C 0.83524 0.68153 0.68739 0.0
C273 C 0.80856 0.6539 0.67586 0.0
C274 C 0.79247 0.6551 0.64945 0.0
C275 C 0.80558 0.68292 0.63477 0.0
C276 C 0.78462 0.67932 0.60697 0.0
C277 C 0.75512 0.64531 0.6078 0.0
C278 C 0.76012 0.63142 0.63277 0.0
C279 C 0.83893 0.6799 0.5888 0.0
C280 C 0.74026 0.70705 0.60152 0.0
H281 H 0.62505 0.52676 0.60151 0.0
H282 H 0.69768 0.52515 0.69274 0.0
H283 H 0.65244 0.59491 0.68487 0.0
H284 H 0.70538 0.62661 0.68477 0.0
H285 H 0.71517 0.59107 0.70553 0.0
H286 H 0.80963 0.54873 0.6582 0.0
H287 H 0.79715 0.56047 0.69155 0.0
H288 H 0.82968 0.58888 0.66836 0.0
H289 H 0.64254 0.58597 0.51574 0.0
H290 H 0.72955 0.68063 0.5049 0.0
H291 H 0.75401 0.68258 0.55074 0.0
H292 H 0.74078 0.55433 0.55279 0.0
H293 H 0.66968 0.53728 0.54539 0.0
H294 H 0.70234 0.53195 0.57699 0.0
H295 H 0.57985 0.60466 0.56918 0.0
H296 H 0.58685 0.57427 0.59332 0.0
H297 H 0.58049 0.56201 0.55948 0.0
H298 H 0.59393 0.48269 0.63016 0.0
C299 C 0.64165 0.52717 0.62109 0.0
C300 C 0.65637 0.80908 0.17125 0.0
C301 C 0.64011 0.77796 0.16105 0.0
C302 C 0.65125 0.77157 0.13435 0.0
C303 C 0.69745 0.82578 0.12942 0.0
C304 C 0.68562 0.8321 0.15541 0.0
C305 C 0.71102 0.86455 0.16446 0.0
H306 H 0.87814 0.00038 0.14137 0.0
C307 C 0.73176 0.85433 0.11904 0.0
C308 C 0.7403 0.87681 0.13967 0.0
H309 H 0.79641 0.96944 0.21364 0.0
H310 H 0.75172 0.92258 0.19193 0.0
H311 H 0.92039 0.92994 0.12458 0.0
H312 H 0.76427 0.98195 0.1035 0.0
H313 H 0.79191 0.96323 0.07511 0.0
H314 H 0.83573 0.99393 0.09193 0.0
H315 H 0.92177 0.9637 0.10187 0.0
H316 H 0.90732 0.9217 0.09143 0.0
C317 C 0.7561 0.85747 0.18635 0.0
C318 C 0.65978 0.88703 0.1728 0.0
C319 C 0.79009 0.85962 0.02304 0.0
C320 C 0.82362 0.8825 1.00825 0.0
C321 C 0.84973 0.90972 0.02132 0.0
C322 C 0.84101 0.9147 0.04813 0.0
C323 C 0.80646 0.89205 0.06236 0.0
C324 C 0.78263 0.86468 0.04994 0.0
C325 C 0.74994 0.84225 0.0686 0.0
C326 C 0.75557 0.8616 0.09395 0.0
C327 C 0.7887 0.89081 0.09012 0.0
C328 C 0.78238 0.80888 0.0698 0.0
C329 C 0.68554 0.83917 0.05957 0.0
C330 C 0.85014 0.98352 0.1523 0.0
C331 C 0.84071 0.98825 0.17919 0.0
C332 C 0.80448 0.96591 0.19296 0.0
C333 C 0.77875 0.93872 0.18031 0.0
C334 C 0.79022 0.93342 0.15366 0.0
C335 C 0.82483 0.95578 0.13999 0.0
C336 C 0.83275 0.94562 0.11189 0.0
C337 C 0.79785 0.91329 0.11114 0.0
C338 C 0.77324 0.90638 0.13567 0.0
C339 C 0.89892 0.94012 0.10691 0.0
C340 C 0.80522 0.97253 0.0945 0.0
H341 H 0.68714 0.78891 0.09843 0.0
H342 H 0.64772 0.81542 0.19144 0.0
H343 H 0.62135 0.88324 0.15977 0.0
H344 H 0.67066 0.91368 0.17127 0.0
H345 H 0.64532 0.88149 0.19307 0.0
H346 H 0.77596 0.83267 0.18386 0.0
H347 H 0.73518 0.85806 0.20595 0.0
H348 H 0.79397 0.87479 0.18612 0.0
H349 H 0.76894 0.83847 0.01392 0.0
H350 H 0.87722 0.92729 0.01089 0.0
H351 H 0.86165 0.93606 0.05672 0.0
H352 H 0.83038 0.81255 0.06699 0.0
H353 H 0.76668 0.79164 0.05433 0.0
H354 H 0.77815 0.79668 0.08901 0.0
H355 H 0.66846 0.86384 0.05411 0.0
H356 H 0.65594 0.82968 0.07496 0.0
H357 H 0.68164 0.82272 0.04224 0.0
H358 H 0.63982 0.74782 0.12583 0.0
C359 C 0.67946 0.79535 0.11848 0.0
C360 C 0.17518 0.97285 0.35292 0.0
C361 C 0.14418 -0.00094 0.36434 0.0
C362 C 0.13417 0.99836 0.3916 0.0
C363 C 0.18305 0.94553 0.39484 0.0
C364 C 0.1948 0.94694 0.36842 0.0
C365 C 0.23058 0.91838 0.35905 0.0
H366 H 0.33046 0.76499 0.37848 0.0
C367 C 0.20707 0.91416 0.40482 0.0
C368 C 0.23536 0.89837 0.38393 0.0
H369 H 0.35908 0.82922 0.31175 0.0
H370 H 0.30969 0.87281 0.33375 0.0
H371 H 0.37244 0.82313 0.41893 0.0
H372 H 0.20235 0.78736 0.39503 0.0
H373 H 0.20075 0.79319 0.42907 0.0
H374 H 0.25042 0.76369 0.41515 0.0
H375 H 0.34219 0.7847 0.43058 0.0
H376 H 0.3273 0.82347 0.4467 0.0
C377 C 0.29107 0.932 0.34971 0.0
C378 C 0.19521 0.89968 0.33774 0.0
C379 C 0.16777 0.87844 0.49869 0.0
C380 C 0.17946 0.8491 0.5123 0.0
C381 C 0.20845 0.82328 0.49921 0.0
C382 C 0.22542 0.82644 0.47307 0.0
C383 C 0.21328 0.85574 0.45965 0.0
C384 C 0.18463 0.8811 0.47236 0.0
C385 C 0.17396 0.90997 0.45455 0.0
C386 C 0.20245 0.89808 0.42941 0.0
C387 C 0.22538 0.86623 0.43255 0.0
C388 C 0.20579 0.94086 0.46586 0.0
C389 C 0.10691 0.91374 0.45169 0.0
C390 C 0.32684 0.78845 0.36854 0.0
C391 C 0.34709 0.79267 0.3426 0.0
C392 C 0.34161 0.82416 0.33101 0.0
C393 C 0.31351 0.84991 0.34401 0.0
C394 C 0.29144 0.8448 0.36925 0.0
C395 C 0.30028 0.81498 0.38156 0.0
C396 C 0.2789 0.81557 0.40947 0.0
C397 C 0.25394 0.85026 0.41134 0.0
C398 C 0.26033 0.86679 0.38747 0.0
C399 C 0.33259 0.81127 0.42754 0.0
C400 C 0.23081 0.78847 0.41261 0.0
H401 H 0.14406 0.97258 0.4274 0.0
H402 H 0.18354 0.97194 0.33213 0.0
H403 H 0.14912 0.8956 0.34422 0.0
H404 H 0.21244 0.87497 0.33327 0.0
H405 H 0.19448 0.91405 0.31929 0.0
H406 H 0.30033 0.95738 0.35725 0.0
H407 H 0.29352 0.93322 0.32807 0.0
H408 H 0.3278 0.91699 0.35704 0.0
H409 H 0.14535 0.89863 0.50819 0.0
H410 H 0.21885 0.80064 0.50938 0.0
H411 H 0.24727 0.80587 0.46433 0.0
H412 H 0.24793 0.93396 0.47508 0.0
H413 H 0.17864 0.9531 0.48099 0.0
H414 H 0.21795 0.95912 0.4507 0.0
H415 H 0.085 0.88908 0.44987 0.0
H416 H 0.0943 0.92732 0.43399 0.0
H417 H 0.08803 0.92634 0.46901 0.0
H418 H 0.11188 0.01843 0.40127 0.0
C419 C 0.15323 0.97173 0.40685 0.0
C420 C 0.17651 0.68768 0.84654 0.0
C421 C 0.15372 0.71721 0.85671 0.0
C422 C 0.15642 0.7225 0.88399 0.0
C423 C 0.20614 0.67038 0.88984 0.0
C424 C 0.20144 0.66466 0.86336 0.0
C425 C 0.22563 0.63182 0.85545 0.0
H426 H 0.3883 0.49917 0.88256 0.0
C427 C 0.23696 0.64198 0.90145 0.0
C428 C 0.248 0.61927 0.88143 0.0
H429 H 0.30001 0.52455 0.81072 0.0
H430 H 0.257 0.57104 0.83151 0.0
H431 H 0.42298 0.57401 0.90247 0.0
H432 H 0.26797 0.51477 0.91927 0.0
H433 H 0.29331 0.53405 0.94803 0.0
H434 H 0.3386 0.50409 0.93179 0.0
H435 H 0.42617 0.53575 0.92021 0.0
H436 H 0.40792 0.57377 0.93633 0.0
C437 C 0.27601 0.63831 0.83563 0.0
C438 C 0.17427 0.61006 0.84486 0.0
C439 C 0.29461 0.64643 0.99668 0.0
C440 C 0.32628 0.62555 0.01314 0.0
C441 C 0.34645 0.59521 1.00313 0.0
C442 C 0.33673 0.58647 0.97681 0.0
C443 C 0.30615 0.6082 0.96043 0.0
C444 C 0.28511 0.6374 0.97069 0.0
C445 C 0.25289 0.65756 0.95099 0.0
C446 C 0.25792 0.63586 0.92702 0.0
C447 C 0.28951 0.60694 0.93241 0.0
C448 C 0.28622 0.69097 0.94767 0.0
C449 C 0.18845 0.66079 0.96019 0.0
C450 C 0.35938 0.51468 0.8714 0.0
C451 C 0.34959 0.50872 0.84452 0.0
C452 C 0.31063 0.52921 0.83101 0.0
C453 C 0.28493 0.55617 0.84325 0.0
C454 C 0.29742 0.56291 0.8695 0.0
C455 C 0.33236 0.54183 0.88354 0.0
C456 C 0.33674 0.55232 0.91188 0.0
C457 C 0.30078 0.58388 0.91193 0.0
C458 C 0.27885 0.5899 0.88683 0.0
C459 C 0.40185 0.55923 0.91829 0.0
C460 C 0.30809 0.5249 0.92883 0.0
H461 H 0.18388 0.70512 0.92099 0.0
H462 H 0.17601 0.68252 0.82581 0.0
H463 H 0.13107 0.61858 0.85219 0.0
H464 H 0.17671 0.58405 0.85152 0.0
H465 H 0.17263 0.61055 0.8232 0.0
H466 H 0.30285 0.66021 0.84164 0.0
H467 H 0.25848 0.6433 0.81584 0.0
H468 H 0.30727 0.61786 0.83421 0.0
H469 H 0.27736 0.66956 1.00391 0.0
H470 H 0.37079 0.57865 0.0155 0.0
H471 H 0.35386 0.56335 0.97013 0.0
H472 H 0.3344 0.68724 0.948 0.0
H473 H 0.27527 0.70839 0.96372 0.0
H474 H 0.27768 0.70311 0.92884 0.0
H475 H 0.17366 0.63839 0.9711 0.0
H476 H 0.1574 0.66268 0.94376 0.0
H477 H 0.18314 0.68245 0.97332 0.0
H478 H 0.13789 0.74441 0.89273 0.0
C479 C 0.18271 0.69941 0.90052 0.0
C480 C 0.80014 0.1192 0.26901 0.0
C481 C 0.79061 0.06051 0.27842 0.0
C482 C 0.82405 0.09012 0.27851 0.0
C483 C 0.73283 0.06064 0.26912 0.0
C484 C 0.74239 0.11929 0.25934 0.0
C485 C 0.70879 0.08993 0.25963 0.0
N486 N 0.83394 0.14717 0.26853 0.0
C487 C 0.81258 0.17609 0.25903 0.0
C488 C 0.72027 0.14885 0.24945 0.0
C489 C 0.75555 0.17736 0.24929 0.0
Gd490 Gd 0.06868 0.13427 0.23741 0.0
Gd491 Gd 0.92759 0.14278 0.28655 0.0
N492 N 0.88068 0.09055 0.28686 0.0
C493 C 0.81639 0.03153 0.28747 0.0
C494 C 0.90562 0.06243 0.29602 0.0
C495 C 0.8741 0.03253 0.29633 0.0
H496 H 0.94966 0.06269 0.30311 0.0
H497 H 0.89436 0.01027 0.30345 0.0
H498 H 0.04144 0.21352 0.21966 0.0
H499 H 0.83903 0.19843 0.25956 0.0
H500 H 0.09141 0.26743 0.22001 0.0
H501 H 0.79218 0.00829 0.28768 0.0
H502 H 0.70648 0.03813 0.26899 0.0
H503 H 0.17142 0.07868 0.24955 0.0
H504 H 0.67608 0.14992 0.24189 0.0
H505 H 0.7387 0.20036 0.24184 0.0
H506 H 0.2861 0.24329 0.24816 0.0
H507 H 0.66428 0.08956 0.25236 0.0
H508 H 0.33309 0.13009 0.26439 0.0
H509 H 0.2762 0.07767 0.26151 0.0
N510 N 0.16824 0.131 0.2478 0.0
C511 C 0.19901 0.15999 0.2484 0.0
C512 C 0.19542 0.10168 0.25191 0.0
C513 C 0.28688 0.13066 0.25971 0.0
C514 C 0.25491 0.10103 0.25818 0.0
C515 C 0.25922 0.16061 0.25449 0.0
H516 H 0.33632 0.19184 0.25936 0.0
N517 N 0.11276 0.1874 0.2357 0.0
C518 C 0.17069 0.18897 0.24188 0.0
C519 C 0.17253 0.24795 0.23421 0.0
C520 C 0.20192 0.21934 0.24156 0.0
C521 C 0.0851 0.21494 0.22702 0.0
C522 C 0.11404 0.24564 0.2266 0.0
O523 O 0.91563 0.11531 0.24826 0.0
O524 O 0.00555 0.092 0.24424 0.0
O525 O 0.06252 0.14027 0.19525 0.0
O526 O 0.11393 0.1008 0.21118 0.0
O527 O 0.00563 0.11567 0.30281 0.0
O528 O 0.06371 0.09474 0.26889 0.0
O529 O 0.08599 0.1615 0.27544 0.0
O530 O 0.99612 0.18328 0.28432 0.0
O531 O 0.92054 0.13822 0.32934 0.0
O532 O 0.87092 0.17529 0.30794 0.0
O533 O 0.98576 0.15898 0.22324 0.0
O534 O 0.94867 0.18492 0.25958 0.0
C535 C 0.95039 0.09345 0.23775 0.0
C536 C 0.04762 0.0965 0.29382 0.0
C537 C 0.14634 0.12448 0.17134 0.0
C538 C 0.17976 0.13048 0.12629 0.0
C539 C 0.24623 0.14252 0.16199 0.0
C540 C 0.20228 0.13436 0.17991 0.0
C541 C 0.23501 0.14079 0.13529 0.0
C542 C 0.1354 0.12224 0.14436 0.0
C543 C 0.0992 0.11667 0.19021 0.0
C544 C 0.26152 0.22017 0.24823 0.0
C545 C 0.29011 0.19088 0.25465 0.0
H546 H 0.19494 0.27174 0.23371 0.0
C547 C 0.05185 0.18025 0.28973 0.0
C548 C 0.95163 0.18102 0.23419 0.0
C549 C 0.8559 0.17479 0.35464 0.0
C550 C 0.84157 0.17367 0.40193 0.0
C551 C 0.79341 0.21518 0.37568 0.0
C552 C 0.81881 0.20222 0.35321 0.0
C553 C 0.80477 0.20112 0.39988 0.0
C554 C 0.86679 0.16028 0.37914 0.0
C555 C 0.883 0.16223 0.33039 0.0
H556 H 0.28917 0.15008 0.16883 0.0
H557 H 0.21241 0.13564 0.20038 0.0
H558 H 0.26975 0.14698 0.12161 0.0
H559 H 0.09259 0.11433 0.13746 0.0
H560 H 0.76488 0.23626 0.37435 0.0
H561 H 0.80944 0.21385 0.33469 0.0
H562 H 0.78423 0.21156 0.41708 0.0
H563 H 0.8953 0.13915 0.38057 0.0
C564 C 0.69792 0.38474 0.76515 0.0
C565 C 0.70604 0.44335 0.77556 0.0
C566 C 0.67443 0.41316 0.77604 0.0
C567 C 0.76097 0.44487 0.76321 0.0
C568 C 0.75412 0.38598 0.75362 0.0
C569 C 0.78493 0.41627 0.75225 0.0
N570 N 0.66745 0.35563 0.76717 0.0
C571 C 0.69319 0.32658 0.76017 0.0
C572 C 0.77858 0.35654 0.74458 0.0
C573 C 0.74834 0.32667 0.74824 0.0
Gd574 Gd 0.44134 0.35683 0.73441 0.0
Gd575 Gd 0.57465 0.3591 0.78726 0.0
N576 N 0.62079 0.41114 0.78754 0.0
C577 C 0.68197 0.47094 0.78801 0.0
C578 C 0.59866 0.43731 0.80109 0.0
C579 C 0.62842 0.46777 0.80113 0.0
H580 H 0.55767 0.43467 0.81151 0.0
H581 H 0.61018 0.48873 0.81135 0.0
H582 H 0.46342 0.27698 0.71773 0.0
H583 H 0.67226 0.30306 0.76423 0.0
H584 H 0.40963 0.22392 0.72014 0.0
H585 H 0.70498 0.49456 0.7881 0.0
H586 H 0.7858 0.46789 0.76249 0.0
H587 H 0.34739 0.41489 0.75455 0.0
H588 H 0.82165 0.35645 0.73563 0.0
H589 H 0.76796 0.30361 0.74231 0.0
H590 H 0.22199 0.25242 0.75533 0.0
H591 H 0.82797 0.41768 0.74332 0.0
H592 H 0.18641 0.36625 0.77518 0.0
H593 H 0.24633 0.41747 0.77131 0.0
N594 N 0.34608 0.36247 0.75046 0.0
C595 C 0.31334 0.33415 0.7515 0.0
C596 C 0.32249 0.39221 0.75696 0.0
C597 C 0.2311 0.36489 0.76813 0.0
C598 C 0.26485 0.39384 0.76608 0.0
C599 C 0.25506 0.33459 0.76067 0.0
H600 H 0.17773 0.30477 0.76909 0.0
N601 N 0.39473 0.30481 0.73468 0.0
C602 C 0.33834 0.30453 0.74348 0.0
C603 C 0.33195 0.24544 0.73656 0.0
C604 C 0.3056 0.27474 0.74479 0.0
C605 C 0.42 0.27651 0.72591 0.0
C606 C 0.38925 0.24638 0.72694 0.0
O607 O 0.5637 0.40091 0.7586 0.0
O608 O 0.53334 0.37145 0.72353 0.0
O609 O 0.41384 0.34502 0.69489 0.0
O610 O 0.41137 0.39579 0.70868 0.0
O611 O 0.48798 0.38143 0.79838 0.0
O612 O 0.4508 0.40256 0.7599 0.0
O613 O 0.42664 0.33447 0.77467 0.0
O614 O 0.51675 0.31367 0.78496 0.0
O615 O 0.55906 0.36329 0.82909 0.0
O616 O 0.6407 0.3437 0.8147 0.0
O617 O 0.52196 0.32808 0.72336 0.0
O618 O 0.57065 0.31301 0.76147 0.0
C619 C 0.55971 0.39732 0.73333 0.0
C620 C 0.45727 0.40333 0.78553 0.0
C621 C 0.34967 0.38087 0.67288 0.0
C622 C 0.30759 0.38544 0.62926 0.0
C623 C 0.24789 0.39586 0.66771 0.0
C624 C 0.29552 0.38926 0.68385 0.0
C625 C 0.25395 0.39427 0.64058 0.0
C626 C 0.35529 0.37849 0.64554 0.0
C627 C 0.40155 0.37551 0.68923 0.0
C628 C 0.24774 0.27509 0.75417 0.0
C629 C 0.22252 0.30491 0.76203 0.0
H630 H 0.30826 0.22205 0.73728 0.0
C631 C 0.45961 0.3138 0.78768 0.0
C632 C 0.55991 0.31006 0.73621 0.0
C633 C 0.61131 0.32794 0.85708 0.0
C634 C 0.62955 0.31954 0.90333 0.0
C635 C 0.61593 0.2723 0.87444 0.0
C636 C 0.60807 0.29358 0.85329 0.0
C637 C 0.62733 0.28517 0.89932 0.0
C638 C 0.62097 0.3408 0.88216 0.0
C639 C 0.60955 0.35103 0.83513 0.0
H640 H 0.20629 0.40255 0.67626 0.0
H641 H 0.29013 0.39105 0.70477 0.0
H642 H 0.21673 0.3999 0.62838 0.0
H643 H 0.39714 0.37218 0.63692 0.0
H644 H 0.61404 0.24579 0.87148 0.0
H645 H 0.60063 0.28331 0.83401 0.0
H646 H 0.63419 0.26837 0.91544 0.0
H647 H 0.62401 0.36737 0.88505 0.0
C648 C 0.80755 0.84006 0.77453 0.0
C649 C 0.79667 0.78336 0.78956 0.0
C650 C 0.83173 0.81191 0.78554 0.0
C651 C 0.73738 0.78346 0.78235 0.0
C652 C 0.74808 0.84022 0.76727 0.0
C653 C 0.7132 0.81177 0.7712 0.0
N654 N 0.84204 0.86743 0.77131 0.0
C655 C 0.81999 0.89582 0.76123 0.0
C656 C 0.72529 0.86912 0.75649 0.0
C657 C 0.76142 0.89704 0.75349 0.0
Gd658 Gd 0.07483 0.85379 0.73494 0.0
Gd659 Gd 0.93808 0.86333 0.78628 0.0
N660 N 0.88962 0.8123 0.79188 0.0
C661 C 0.82227 0.75552 0.80071 0.0
C662 C 0.9141 0.78568 0.8037 0.0
C663 C 0.88114 0.75677 0.80793 0.0
H664 H 0.95839 0.78676 0.81062 0.0
H665 H 0.90097 0.73563 0.81714 0.0
H666 H 0.04938 0.93103 0.71195 0.0
H667 H 0.84717 0.91778 0.75975 0.0
H668 H 0.10096 0.98449 0.70935 0.0
H669 H 0.79681 0.73311 0.80413 0.0
H670 H 0.70983 0.76174 0.78531 0.0
H671 H 0.16743 0.80205 0.7639 0.0
H672 H 0.67978 0.87023 0.75068 0.0
H673 H 0.74399 0.91962 0.74551 0.0
H674 H 0.291 0.96309 0.74441 0.0
H675 H 0.66736 0.81146 0.7658 0.0
H676 H 0.32947 0.8542 0.77619 0.0
H677 H 0.26936 0.80302 0.7799 0.0
N678 N 0.16953 0.85239 0.75202 0.0
C679 C 0.20191 0.88068 0.74943 0.0
C680 C 0.19294 0.82469 0.76272 0.0
C681 C 0.28469 0.85397 0.76926 0.0
C682 C 0.25081 0.82506 0.77152 0.0
C683 C 0.26034 0.88228 0.75822 0.0
H684 H 0.33717 0.91379 0.7628 0.0
N685 N 0.11835 0.90668 0.73152 0.0
C686 C 0.17553 0.90864 0.73907 0.0
C687 C 0.17983 0.96634 0.72683 0.0
C688 C 0.20749 0.93867 0.7372 0.0
C689 C 0.09232 0.93316 0.72018 0.0
C690 C 0.12217 0.96347 0.7181 0.0
O691 O 0.91857 0.83366 0.74939 0.0
O692 O 0.00799 0.81258 0.73754 0.0
O693 O 0.0832 0.85736 0.69203 0.0
O694 O 0.13108 0.82044 0.7143 0.0
O695 O 0.01905 0.83655 0.79965 0.0
O696 O 0.05689 0.8115 0.76268 0.0
O697 O 0.09244 0.88013 0.77346 0.0
O698 O 0.00403 0.90405 0.77985 0.0
O699 O 0.94394 0.86192 0.82872 0.0
O700 O 0.88701 0.8969 0.81009 0.0
O701 O 0.99298 0.8789 0.71995 0.0
O702 O 0.9556 0.90368 0.75698 0.0
C703 C 0.95109 0.81442 0.73465 0.0
C704 C 0.05184 0.81425 0.78819 0.0
C705 C 0.14944 0.82028 0.6679 0.0
C706 C 0.16575 0.81935 0.62076 0.0
C707 C 0.21849 0.78178 0.6488 0.0
C708 C 0.19033 0.79479 0.67058 0.0
C709 C 0.20619 0.79385 0.62405 0.0
C710 C 0.13763 0.83288 0.6428 0.0
C711 C 0.12087 0.83339 0.69164 0.0
C712 C 0.26587 0.94021 0.74573 0.0
C713 C 0.29222 0.91211 0.75616 0.0
H714 H 0.20286 0.98985 0.7251 0.0
C715 C 0.0594 0.90147 0.78573 0.0
C716 C 0.95798 0.9002 0.73142 0.0
C717 C 0.85647 0.87522 0.85094 0.0
C718 C 0.82301 0.86828 0.89595 0.0
C719 C 0.75776 0.85496 0.86005 0.0
C720 C 0.80114 0.8644 0.84225 0.0
C721 C 0.76866 0.85667 0.88677 0.0
C722 C 0.867 0.87756 0.87797 0.0
C723 C 0.90329 0.88386 0.83207 0.0
H724 H 0.24994 0.76223 0.65112 0.0
H725 H 0.20084 0.78482 0.68958 0.0
H726 H 0.22862 0.78337 0.60735 0.0
H727 H 0.10649 0.85261 0.64035 0.0
H728 H 0.71538 0.84654 0.8531 0.0
H729 H 0.79105 0.86346 0.82176 0.0
H730 H 0.73421 0.84963 0.90035 0.0
H731 H 0.90919 0.88637 0.88497 0.0
C732 C 0.69142 0.65783 0.27244 0.0
C733 C 0.70311 0.71607 0.28306 0.0
C734 C 0.66785 0.68723 0.28116 0.0
C735 C 0.76202 0.7151 0.2752 0.0
C736 C 0.75137 0.65637 0.26579 0.0
C737 C 0.78612 0.6853 0.26662 0.0
N738 N 0.65698 0.63014 0.27249 0.0
C739 C 0.68123 0.5998 0.26833 0.0
C740 C 0.77521 0.62564 0.25958 0.0
C741 C 0.74017 0.59717 0.26128 0.0
Gd742 Gd 0.41959 0.63795 0.23134 0.0
Gd743 Gd 0.55822 0.63734 0.28477 0.0
N744 N 0.61088 0.68734 0.28876 0.0
C745 C 0.67833 0.74484 0.29328 0.0
C746 C 0.58736 0.7148 0.3 0.0
C747 C 0.62034 0.74409 0.30204 0.0
H748 H 0.54298 0.7141 0.30717 0.0
H749 H 0.60113 0.76599 0.3105 0.0
H750 H 0.42592 0.56642 0.19697 0.0
H751 H 0.65521 0.57743 0.27055 0.0
H752 H 0.37093 0.5138 0.1939 0.0
H753 H 0.70392 0.76751 0.295 0.0
H754 H 0.78966 0.73707 0.2763 0.0
H755 H 0.32884 0.69187 0.25941 0.0
H756 H 0.82105 0.62347 0.25443 0.0
H757 H 0.7587 0.57313 0.25749 0.0
H758 H 0.19731 0.53254 0.24437 0.0
H759 H 0.8321 0.68469 0.26136 0.0
H760 H 0.17069 0.64079 0.28043 0.0
H761 H 0.23126 0.69203 0.27999 0.0
N762 N 0.32608 0.64072 0.25031 0.0
C763 C 0.29218 0.6129 0.24887 0.0
C764 C 0.30407 0.66917 0.26046 0.0
C765 C 0.21404 0.64052 0.27177 0.0
C766 C 0.24818 0.66944 0.27168 0.0
C767 C 0.23556 0.61188 0.25996 0.0
H768 H 0.15864 0.58121 0.2672 0.0
N769 N 0.368 0.58774 0.22469 0.0
C770 C 0.3141 0.58547 0.23599 0.0
C771 C 0.30153 0.52987 0.2193 0.0
C772 C 0.27971 0.55632 0.23385 0.0
C773 C 0.38705 0.56306 0.20868 0.0
C774 C 0.35495 0.5335 0.20625 0.0
O775 O 0.55507 0.67939 0.25566 0.0
O776 O 0.51241 0.65281 0.22092 0.0
O777 O 0.3919 0.63283 0.19077 0.0
O778 O 0.387 0.68083 0.21052 0.0
O779 O 0.47106 0.65995 0.29495 0.0
O780 O 0.43549 0.68291 0.25708 0.0
O781 O 0.40387 0.61456 0.27098 0.0
O782 O 0.4955 0.59493 0.2776 0.0
O783 O 0.55397 0.64687 0.32683 0.0
O784 O 0.59279 0.60221 0.31238 0.0
O785 O 0.4907 0.60127 0.22123 0.0
O786 O 0.56883 0.60141 0.25112 0.0
C787 C 0.54182 0.67799 0.23068 0.0
C788 C 0.44471 0.68392 0.2825 0.0
C789 C 0.35396 0.67858 0.16526 0.0
C790 C 0.33666 0.67737 0.1181 0.0
C791 C 0.30259 0.72351 0.14446 0.0
C792 C 0.32567 0.70911 0.16679 0.0
C793 C 0.30802 0.70786 0.12031 0.0
C794 C 0.35893 0.66254 0.14083 0.0
C795 C 0.37783 0.66378 0.18925 0.0
C796 C 0.22411 0.55481 0.24565 0.0
C797 C 0.20204 0.58254 0.25862 0.0
H798 H 0.27647 0.50706 0.21719 0.0
C799 C 0.43976 0.59509 0.28349 0.0
C800 C 0.54175 0.59074 0.22987 0.0
C801 C 0.634 0.62519 0.35052 0.0
C802 C 0.67348 0.62773 0.39467 0.0
C803 C 0.7393 0.62793 0.35744 0.0
C804 C 0.69151 0.62625 0.34062 0.0
C805 C 0.73043 0.62844 0.38435 0.0
C806 C 0.62511 0.62633 0.37772 0.0
C807 C 0.58377 0.62076 0.33269 0.0
H808 H 0.2804 0.74694 0.14585 0.0
H809 H 0.32093 0.72179 0.18532 0.0
H810 H 0.28937 0.71957 0.10331 0.0
H811 H 0.38118 0.6391 0.1394 0.0
H812 H 0.78337 0.62843 0.34959 0.0
H813 H 0.69985 0.62507 0.31994 0.0
H814 H 0.76807 0.62938 0.39718 0.0
H815 H 0.58106 0.62527 0.38567 0.0
C816 C 0.15113 0.03514 0.32437 0.0
C817 C 0.12172 0.0263 0.34758 0.0
H818 H 0.15023 0.06279 0.28928 0.0
C819 C 0.06929 0.04256 0.35372 0.0
H820 H 0.1928 0.02444 0.31923 0.0
C821 C 0.04634 0.06614 0.33675 0.0
C822 C 0.07408 0.07327 0.31276 0.0
H823 H 0.04479 0.03647 0.37122 0.0
H824 H 0.0057 0.07791 0.3421 0.0
C825 C 0.12701 0.0577 0.30707 0.0
C826 C 0.38966 0.45094 0.84158 0.0
C827 C 0.37964 0.48182 0.83 0.0
H828 H 0.42189 0.40179 0.83646 0.0
C829 C 0.39674 0.48667 0.80378 0.0
H830 H 0.37669 0.44619 0.86159 0.0
C831 C 0.42111 0.46106 0.78925 0.0
C832 C 0.43033 0.43019 0.80073 0.0
H833 H 0.39141 0.51039 0.79437 0.0
H834 H 0.43357 0.46559 0.76912 0.0
C835 C 0.41512 0.42544 0.82712 0.0
C836 C 0.61157 0.48046 0.70824 0.0
C837 C 0.62278 0.47351 0.68174 0.0
H838 H 0.5828 0.46187 0.74525 0.0
C839 C 0.61356 0.44105 0.67255 0.0
H840 H 0.61689 0.50528 0.71595 0.0
C841 C 0.59311 0.41629 0.68936 0.0
C842 C 0.58213 0.42336 0.71576 0.0
H843 H 0.62262 0.43463 0.65242 0.0
H844 H 0.58635 0.39152 0.68171 0.0
C845 C 0.5918 0.45561 0.72508 0.0
C846 C 0.8603 0.04854 0.18686 0.0
C847 C 0.87043 0.01542 0.19339 0.0
H848 H 0.87714 0.09954 0.19653 0.0
C849 C 0.90781 0.00816 0.21426 0.0
H850 H 0.83137 0.0546 0.1709 0.0
C851 C 0.93508 0.03363 0.22832 0.0
C852 C 0.92397 0.06671 0.22217 0.0
H853 H 0.91597 0.98273 0.21963 0.0
H854 H 0.96361 0.02752 0.24442 0.0
C855 C 0.88618 0.07408 0.20148 0.0
C856 C 0.88947 0.94551 0.67452 0.0
C857 C 0.87879 0.97657 0.68589 0.0
H858 H 0.92291 0.89658 0.6802 0.0
C859 C 0.89675 0.9824 0.71174 0.0
H860 H 0.87617 0.94031 0.65464 0.0
C861 C 0.92224 0.95752 0.7263 0.0
C862 C 0.9314 0.9262 0.71532 0.0
H863 H 0.89097 0.00635 0.72086 0.0
H864 H 0.93511 0.96299 0.74621 0.0
C865 C 0.91584 0.9205 0.68914 0.0
C866 C 0.56856 0.51255 0.19164 0.0
C867 C 0.62801 0.51614 0.18533 0.0
H868 H 0.49575 0.53252 0.21227 0.0
C869 C 0.65925 0.54434 0.19364 0.0
H870 H 0.54435 0.49043 0.186 0.0
C871 C 0.6309 0.56893 0.20793 0.0
C872 C 0.57136 0.56527 0.21439 0.0
H873 H 0.70547 0.54718 0.18921 0.0
H874 H 0.65538 0.59081 0.21385 0.0
C875 C 0.54063 0.53677 0.20635 0.0
C876 C 0.33356 0.53598 0.31708 0.0
C877 C 0.37175 0.51576 0.3311 0.0
H878 H 0.3247 0.57765 0.29203 0.0
C879 C 0.43195 0.52313 0.33085 0.0
H880 H 0.28683 0.53094 0.31721 0.0
C881 C 0.45389 0.54935 0.31577 0.0
C882 C 0.41589 0.56905 0.30104 0.0
H883 H 0.46222 0.50783 0.34149 0.0
H884 H 0.50075 0.5538 0.31533 0.0
C885 C 0.35534 0.56264 0.30253 0.0
C886 C 0.07605 0.9742 0.83178 0.0
C887 C 0.13709 0.9783 0.83266 0.0
H888 H 0.00363 0.9468 0.81603 0.0
C889 C 0.17274 0.95567 0.8195 0.0
H890 H 0.04775 0.99143 0.8418 0.0
C891 C 0.14763 0.92973 0.80518 0.0
C892 C 0.08647 0.92666 0.80301 0.0
H893 H 0.22001 0.95821 0.82017 0.0
H894 H 0.17625 0.91259 0.79546 0.0
C895 C 0.05094 0.94877 0.81692 0.0
C896 C 0.16975 0.15318 0.05506 0.0
C897 C 0.16864 0.12184 0.04296 0.0
H898 H 0.17423 0.18034 0.09108 0.0
C899 C 0.16613 0.09347 0.05896 0.0
H900 H 0.17031 0.17562 0.04358 0.0
C901 C 0.16627 0.09639 0.08616 0.0
C902 C 0.17002 0.12763 0.09794 0.0
H903 H 0.16639 0.06887 0.05059 0.0
H904 H 0.16625 0.07419 0.098 0.0
C905 C 0.17117 0.156 0.08226 0.0
C906 C 0.327 0.35555 0.55941 0.0
C907 C 0.31886 0.38496 0.54529 0.0
H908 H 0.33103 0.3328 0.59732 0.0
C909 C 0.30892 0.41445 0.55917 0.0
H910 H 0.33506 0.3325 0.54928 0.0
C911 C 0.30613 0.4145 0.58641 0.0
C912 C 0.31393 0.38518 0.60047 0.0
H913 H 0.30187 0.43746 0.54893 0.0
H914 H 0.29754 0.43748 0.59656 0.0
C915 C 0.32512 0.35573 0.58682 0.0
C916 C 0.61492 0.36526 0.9675 0.0
C917 C 0.668 0.35757 0.97987 0.0
H918 H 0.5614 0.35928 0.93335 0.0
C919 C 0.70923 0.33857 0.96612 0.0
H920 H 0.58186 0.3795 0.97749 0.0
C921 C 0.69657 0.32623 0.94127 0.0
C922 C 0.64309 0.33327 0.92935 0.0
H923 H 0.75129 0.33296 0.97459 0.0
H924 H 0.72867 0.31124 0.93129 0.0
C925 C 0.60286 0.35346 0.94236 0.0
C926 C 0.83868 0.11487 0.4594 0.0
C927 C 0.85016 0.13686 0.48017 0.0
H928 H 0.82741 0.10934 0.41794 0.0
C929 C 0.86707 0.16961 0.47444 0.0
H930 H 0.8255 0.08949 0.46323 0.0
C931 C 0.86799 0.18085 0.44875 0.0
C932 C 0.85231 0.1596 0.42813 0.0
H933 H 0.87755 0.18694 0.48996 0.0
H934 H 0.87861 0.20663 0.44504 0.0
C935 C 0.83983 0.12617 0.43352 0.0
C936 C 0.82929 0.84707 0.96761 0.0
C937 C 0.82981 0.87865 0.97932 0.0
H938 H 0.82666 0.81914 0.93192 0.0
C939 C 0.83373 0.90665 0.96297 0.0
H940 H 0.82783 0.82485 0.97936 0.0
C941 C 0.83527 0.90316 0.93579 0.0
C942 C 0.8318 0.87168 0.92437 0.0
H943 H 0.83316 0.93143 0.97099 0.0
H944 H 0.83616 0.9251 0.92368 0.0
C945 C 0.82949 0.84367 0.94044 0.0
C946 C 0.65591 0.65849 0.46375 0.0
C947 C 0.67376 0.63077 0.47811 0.0
H948 H 0.64044 0.67888 0.4257 0.0
C949 C 0.6852 0.6011 0.46475 0.0
H950 H 0.64632 0.68157 0.47354 0.0
C951 C 0.68178 0.59966 0.43756 0.0
C952 C 0.66612 0.62769 0.42326 0.0
H953 H 0.69962 0.57943 0.4752 0.0
H954 H 0.69359 0.57703 0.42759 0.0
C955 C 0.65192 0.6569 0.4365 0.0
C956 C 0.35668 0.66917 0.04509 0.0
C957 C 0.33815 0.63641 0.0404 0.0
H958 H 0.37187 0.70739 0.07323 0.0
C959 C 0.32607 0.61571 0.06186 0.0
H960 H 0.36751 0.68551 0.02898 0.0
C961 C 0.32848 0.62837 0.08744 0.0
C962 C 0.343 0.66189 0.09185 0.0
H963 H 0.31172 0.59035 0.05881 0.0
H964 H 0.31597 0.61248 0.10357 0.0
C965 C 0.35911 0.68171 0.07044 0.0
C966 C 0.13862 0.81485 0.54875 0.0
C967 C 0.16324 0.84499 0.54021 0.0
H968 H 0.119 0.78352 0.58134 0.0
C969 C 0.17831 0.86926 0.55886 0.0
H970 H 0.12558 0.79595 0.53482 0.0
C971 C 0.17392 0.86218 0.58562 0.0
C972 C 0.15427 0.83085 0.59392 0.0
H973 H 0.19741 0.8927 0.5528 0.0
H974 H 0.19005 0.88017 0.59967 0.0
C975 C 0.13434 0.80783 0.57532 0.0
C976 C 0.06862 0.24069 0.34616 0.0
C977 C 0.12904 0.24735 0.34564 0.0
H978 H 0.9966 0.2145 0.32853 0.0
C979 C 0.16428 0.23104 0.32734 0.0
H980 H 0.04068 0.25319 0.36007 0.0
C981 C 0.13951 0.20855 0.30968 0.0
C982 C 0.07867 0.20275 0.30936 0.0
H983 H 0.21105 0.23589 0.32662 0.0
H984 H 0.16808 0.19621 0.29604 0.0
C985 C 0.04353 0.21879 0.32801 0.0
C986 C 0.43582 0.24011 0.83215 0.0
C987 C 0.38022 0.24644 0.84257 0.0
H988 H 0.5048 0.25667 0.80675 0.0
C989 C 0.35061 0.27499 0.83491 0.0
H990 H 0.45907 0.21803 0.83767 0.0
C991 C 0.37603 0.29674 0.81677 0.0
C992 C 0.43197 0.29057 0.80642 0.0
H993 H 0.30731 0.28003 0.84251 0.0
H994 H 0.3521 0.31848 0.81101 0.0
C995 C 0.46177 0.26216 0.81445 0.0
C996 C 0.65152 0.27403 0.68253 0.0
C997 C 0.64142 0.23986 0.68577 0.0
H998 H 0.63333 0.32299 0.69626 0.0
C999 C 0.60721 0.2291 0.70723 0.0
H1000 H 0.67868 0.28335 0.66674 0.0
C1001 C 0.58338 0.2519 0.72473 0.0
C1002 C 0.59209 0.28582 0.72071 0.0
H1003 H 0.59733 0.20312 0.71019 0.0
H1004 H 0.5559 0.24313 0.74064 0.0
C1005 C 0.6264 0.29676 0.69962 0.0
C1006 C 0.89838 0.26164 0.20687 0.0
C1007 C 0.87175 0.25145 0.18332 0.0
H1008 H 0.94305 0.24717 0.24166 0.0
C1009 C 0.8707 0.21743 0.17718 0.0
H1010 H 0.90181 0.28751 0.21217 0.0
C1011 C 0.89674 0.19451 0.19373 0.0
C1012 C 0.92265 0.20495 0.21716 0.0
H1013 H 0.84946 0.2083 0.15968 0.0
H1014 H 0.89595 0.16855 0.18841 0.0
C1015 C 0.92254 0.23857 0.22379 0.0
C1016 C 0.83934 0.75427 0.70641 0.0
C1017 C 0.87139 0.73961 0.68617 0.0
H1018 H 0.83825 0.7903 0.73675 0.0
C1019 C 0.9282 0.75123 0.68065 0.0
H1020 H 0.79532 0.74565 0.71093 0.0
C1021 C 0.95372 0.77604 0.69618 0.0
C1022 C 0.92229 0.79006 0.71708 0.0
H1023 H 0.95359 0.74019 0.66508 0.0
H1024 H 0.9983 0.78397 0.69204 0.0
C1025 C 0.86417 0.77967 0.72138 0.0
C1026 C 0.5721 0.72908 0.16966 0.0
C1027 C 0.61433 0.75209 0.17865 0.0
H1028 H 0.5161 0.68768 0.17894 0.0
C1029 C 0.63207 0.7503 0.20492 0.0
H1030 H 0.55662 0.72987 0.14972 0.0
C1031 C 0.60773 0.72674 0.22175 0.0
C1032 C 0.56617 0.70355 0.21277 0.0
H1033 H 0.66545 0.76689 0.2126 0.0
H1034 H 0.62208 0.72666 0.24178 0.0
C1035 C 0.54853 0.70499 0.18649 0.0
C1036 C 0.36842 0.76378 0.29991 0.0
C1037 C 0.37292 0.7647 0.32736 0.0
H1038 H 0.38983 0.73904 0.26434 0.0
C1039 C 0.40215 0.73868 0.33982 0.0
H1040 H 0.34509 0.78257 0.28933 0.0
C1041 C 0.4251 0.71243 0.32532 0.0
C1042 C 0.4208 0.71187 0.29792 0.0
H1043 H 0.40797 0.73853 0.36078 0.0
H1044 H 0.4467 0.69272 0.33565 0.0
C1045 C 0.39321 0.73825 0.28542 0.0
C1046 C 0.09998 0.7325 0.81549 0.0
C1047 C 0.1278 0.74226 0.8389 0.0
H1048 H 0.05554 0.74779 0.78079 0.0
C1049 C 0.13134 0.77627 0.84488 0.0
H1050 H 0.0948 0.70666 0.81035 0.0
C1051 C 0.10677 0.79963 0.82828 0.0
C1052 C 0.07974 0.78966 0.80498 0.0
H1053 H 0.15354 0.78504 0.86225 0.0
H1054 H 0.10952 0.82561 0.8335 0.0
C1055 C 0.07711 0.756 0.79852 0.0
loop_
_geom_bond_atom_site_label_1
_geom_bond_atom_site_label_2
_geom_bond_distance
_geom_bond_site_symmetry_2
_ccdc_geom_bond_type
C0 C1 1.391 . S
C0 C4 1.391 . S
C0 H42 0.948 . S
C1 C0 1.391 . S
C1 C2 1.391 . S
C2 C1 1.391 . S
C2 H58 0.947 . S
C2 C59 1.392 . S
C3 C4 1.391 . S
C3 C7 1.397 . S
C3 C59 1.419 . S
C4 C0 1.391 . S
C4 C3 1.391 . S
C4 C5 1.399 . S
C5 C4 1.399 . S
C5 C8 1.396 . S
C5 C17 1.453 . S
C5 C18 1.684 . S
H6 C30 0.948 . S
C7 C3 1.397 . S
C7 C8 1.394 . S
C7 C26 1.723 . S
C8 C5 1.396 . S
C8 C7 1.394 . S
C8 C38 1.723 . S
H9 C32 0.947 . S
H10 C33 0.948 . S
H11 C39 0.982 . S
H12 C40 0.979 . S
H13 C40 0.980 . S
H14 C40 0.983 . S
H15 C39 0.979 . S
H16 C39 0.977 . S
C17 C5 1.453 . S
C17 H46 0.982 . S
C17 H47 0.979 . S
C17 H48 0.977 . S
C18 C5 1.684 . S
C18 H43 0.979 . S
C18 H44 0.980 . S
C18 H45 0.983 . S
C19 C20 1.391 . S
C19 C24 1.391 . S
C19 H49 0.948 . S
C20 C19 1.391 . S
C20 C21 1.391 . S
C21 C20 1.391 . S
C21 C22 1.392 . S
C21 H50 0.947 . S
C22 C21 1.392 . S
C22 C23 1.419 . S
C22 H51 0.948 . S
C23 C22 1.419 . S
C23 C24 1.391 . S
C23 C27 1.397 . S
C24 C19 1.391 . S
C24 C23 1.391 . S
C24 C25 1.399 . S
C25 C24 1.399 . S
C25 C26 1.396 . S
C25 C28 1.453 . S
C25 C29 1.684 . S
C26 C7 1.723 . S
C26 C25 1.396 . S
C26 C27 1.394 . S
C27 C23 1.397 . S
C27 C26 1.394 . S
C27 C37 1.723 . S
C28 C25 1.453 . S
C28 H52 0.982 . S
C28 H53 0.979 . S
C28 H54 0.977 . S
C29 C25 1.684 . S
C29 H55 0.979 . S
C29 H56 0.980 . S
C29 H57 0.983 . S
C30 H6 0.948 . S
C30 C31 1.391 . S
C30 C35 1.391 . S
C31 C30 1.391 . S
C31 C32 1.391 . S
C32 H9 0.947 . S
C32 C31 1.391 . S
C32 C33 1.392 . S
C33 H10 0.948 . S
C33 C32 1.392 . S
C33 C34 1.419 . S
C34 C33 1.419 . S
C34 C35 1.391 . S
C34 C38 1.397 . S
C35 C30 1.391 . S
C35 C34 1.391 . S
C35 C36 1.399 . S
C36 C35 1.399 . S
C36 C37 1.396 . S
C36 C39 1.453 . S
C36 C40 1.684 . S
C37 C27 1.723 . S
C37 C36 1.396 . S
C37 C38 1.394 . S
C38 C8 1.723 . S
C38 C34 1.397 . S
C38 C37 1.394 . S
C39 H11 0.982 . S
C39 H15 0.979 . S
C39 H16 0.977 . S
C39 C36 1.453 . S
C40 H12 0.979 . S
C40 H13 0.980 . S
C40 H14 0.983 . S
C40 C36 1.684 . S
H41 C59 0.948 . S
H42 C0 0.948 . S
H43 C18 0.979 . S
H44 C18 0.980 . S
H45 C18 0.983 . S
H46 C17 0.982 . S
H47 C17 0.979 . S
H48 C17 0.977 . S
H49 C19 0.948 . S
H50 C21 0.947 . S
H51 C22 0.948 . S
H52 C28 0.982 . S
H53 C28 0.979 . S
H54 C28 0.977 . S
H55 C29 0.979 . S
H56 C29 0.980 . S
H57 C29 0.983 . S
H58 C2 0.947 . S
C59 C2 1.392 . S
C59 C3 1.419 . S
C59 H41 0.948 . S
C60 C61 1.391 . S
C60 C64 1.391 . S
C60 H102 0.948 . S
C61 C60 1.391 . S
C61 C62 1.391 . S
C62 C61 1.391 . S
C62 H118 0.947 . S
C62 C119 1.392 . S
C63 C64 1.391 . S
C63 C67 1.397 . S
C63 C119 1.419 . S
C64 C60 1.391 . S
C64 C63 1.391 . S
C64 C65 1.399 . S
C65 C64 1.399 . S
C65 C68 1.396 . S
C65 C77 1.453 . S
C65 C78 1.684 . S
H66 C90 0.948 1_565 S
C67 C63 1.397 . S
C67 C68 1.394 . S
C67 C86 1.723 . S
C68 C65 1.396 . S
C68 C67 1.394 . S
C68 C98 1.723 . S
H69 C92 0.947 . S
H70 C93 0.948 . S
H71 C99 0.982 . S
H72 C100 0.979 . S
H73 C100 0.980 . S
H74 C100 0.983 . S
H75 C99 0.979 . S
H76 C99 0.977 . S
C77 C65 1.453 . S
C77 H106 0.982 . S
C77 H107 0.979 . S
C77 H108 0.977 . S
C78 C65 1.684 . S
C78 H103 0.979 . S
C78 H104 0.980 . S
C78 H105 0.983 . S
C79 C80 1.391 1_556 S
C79 C84 1.391 . S
C79 H109 0.948 . S
C80 C79 1.391 1_554 S
C80 C81 1.391 1_554 S
C81 C80 1.391 1_556 S
C81 C82 1.392 . S
C81 H110 0.947 1_556 S
C82 C81 1.392 . S
C82 C83 1.419 . S
C82 H111 0.948 . S
C83 C82 1.419 . S
C83 C84 1.391 . S
C83 C87 1.397 . S
C84 C79 1.391 . S
C84 C83 1.391 . S
C84 C85 1.399 . S
C85 C84 1.399 . S
C85 C86 1.396 . S
C85 C88 1.453 . S
C85 C89 1.684 . S
C86 C67 1.723 . S
C86 C85 1.396 . S
C86 C87 1.394 . S
C87 C83 1.397 . S
C87 C86 1.394 . S
C87 C97 1.723 . S
C88 C85 1.453 . S
C88 H112 0.982 . S
C88 H113 0.979 . S
C88 H114 0.977 . S
C89 C85 1.684 . S
C89 H115 0.979 . S
C89 H116 0.980 . S
C89 H117 0.983 . S
C90 H66 0.948 1_545 S
C90 C91 1.391 . S
C90 C95 1.391 . S
C91 C90 1.391 . S
C91 C92 1.391 . S
C92 H69 0.947 . S
C92 C91 1.391 . S
C92 C93 1.392 . S
C93 H70 0.948 . S
C93 C92 1.392 . S
C93 C94 1.419 . S
C94 C93 1.419 . S
C94 C95 1.391 . S
C94 C98 1.397 . S
C95 C90 1.391 . S
C95 C94 1.391 . S
C95 C96 1.399 . S
C96 C95 1.399 . S
C96 C97 1.396 . S
C96 C99 1.453 . S
C96 C100 1.684 . S
C97 C87 1.723 . S
C97 C96 1.396 . S
C97 C98 1.394 . S
C98 C68 1.723 . S
C98 C94 1.397 . S
C98 C97 1.394 . S
C99 H71 0.982 . S
C99 H75 0.979 . S
C99 H76 0.977 . S
C99 C96 1.453 . S
C100 H72 0.979 . S
C100 H73 0.980 . S
C100 H74 0.983 . S
C100 C96 1.684 . S
H101 C119 0.948 . S
H102 C60 0.948 . S
H103 C78 0.979 . S
H104 C78 0.980 . S
H105 C78 0.983 . S
H106 C77 0.982 . S
H107 C77 0.979 . S
H108 C77 0.977 . S
H109 C79 0.948 . S
H110 C81 0.947 1_554 S
H111 C82 0.948 . S
H112 C88 0.982 . S
H113 C88 0.979 . S
H114 C88 0.977 . S
H115 C89 0.979 . S
H116 C89 0.980 . S
H117 C89 0.983 . S
H118 C62 0.947 . S
C119 C62 1.392 . S
C119 C63 1.419 . S
C119 H101 0.948 . S
C120 C121 1.391 . S
C120 C124 1.391 . S
C120 H162 0.948 . S
C121 C120 1.391 . S
C121 C122 1.391 . S
C122 C121 1.391 . S
C122 H178 0.947 . S
C122 C179 1.392 . S
C123 C124 1.391 . S
C123 C127 1.397 . S
C123 C179 1.419 . S
C124 C120 1.391 . S
C124 C123 1.391 . S
C124 C125 1.399 . S
C125 C124 1.399 . S
C125 C128 1.396 . S
C125 C137 1.453 . S
C125 C138 1.684 . S
H126 C150 0.948 . S
C127 C123 1.397 . S
C127 C128 1.394 . S
C127 C146 1.723 . S
C128 C125 1.396 . S
C128 C127 1.394 . S
C128 C158 1.723 . S
H129 C152 0.947 . S
H130 C153 0.948 . S
H131 C159 0.982 . S
H132 C160 0.979 . S
H133 C160 0.980 . S
H134 C160 0.983 . S
H135 C159 0.979 . S
H136 C159 0.977 . S
C137 C125 1.453 . S
C137 H166 0.982 . S
C137 H167 0.979 . S
C137 H168 0.977 . S
C138 C125 1.684 . S
C138 H163 0.979 . S
C138 H164 0.980 . S
C138 H165 0.983 . S
C139 C140 1.391 . S
C139 C144 1.391 . S
C139 H169 0.948 1_545 S
C140 C139 1.391 . S
C140 C141 1.391 . S
C141 C140 1.391 . S
C141 C142 1.392 . S
C141 H170 0.947 . S
C142 C141 1.392 . S
C142 C143 1.419 . S
C142 H171 0.948 . S
C143 C142 1.419 . S
C143 C144 1.391 . S
C143 C147 1.397 . S
C144 C139 1.391 . S
C144 C143 1.391 . S
C144 C145 1.399 . S
C145 C144 1.399 . S
C145 C146 1.396 . S
C145 C148 1.453 . S
C145 C149 1.684 . S
C146 C127 1.723 . S
C146 C145 1.396 . S
C146 C147 1.394 . S
C147 C143 1.397 . S
C147 C146 1.394 . S
C147 C157 1.723 . S
C148 C145 1.453 . S
C148 H172 0.982 . S
C148 H173 0.979 . S
C148 H174 0.977 . S
C149 C145 1.684 . S
C149 H175 0.979 . S
C149 H176 0.980 . S
C149 H177 0.983 . S
C150 H126 0.948 . S
C150 C151 1.391 . S
C150 C155 1.391 . S
C151 C150 1.391 . S
C151 C152 1.391 . S
C152 H129 0.947 . S
C152 C151 1.391 . S
C152 C153 1.392 . S
C153 H130 0.948 . S
C153 C152 1.392 . S
C153 C154 1.419 . S
C154 C153 1.419 . S
C154 C155 1.391 . S
C154 C158 1.397 . S
C155 C150 1.391 . S
C155 C154 1.391 . S
C155 C156 1.399 . S
C156 C155 1.399 . S
C156 C157 1.396 . S
C156 C159 1.453 . S
C156 C160 1.684 . S
C157 C147 1.723 . S
C157 C156 1.396 . S
C157 C158 1.394 . S
C158 C128 1.723 . S
C158 C154 1.397 . S
C158 C157 1.394 . S
C159 H131 0.982 . S
C159 H135 0.979 . S
C159 H136 0.977 . S
C159 C156 1.453 . S
C160 H132 0.979 . S
C160 H133 0.980 . S
C160 H134 0.983 . S
C160 C156 1.684 . S
H161 C179 0.948 . S
H162 C120 0.948 . S
H163 C138 0.979 . S
H164 C138 0.980 . S
H165 C138 0.983 . S
H166 C137 0.982 . S
H167 C137 0.979 . S
H168 C137 0.977 . S
H169 C139 0.948 1_565 S
H170 C141 0.947 . S
H171 C142 0.948 . S
H172 C148 0.982 . S
H173 C148 0.979 . S
H174 C148 0.977 . S
H175 C149 0.979 . S
H176 C149 0.980 . S
H177 C149 0.983 . S
H178 C122 0.947 . S
C179 C122 1.392 . S
C179 C123 1.419 . S
C179 H161 0.948 . S
C180 C181 1.391 . S
C180 C184 1.391 . S
C180 H222 0.948 . S
C181 C180 1.391 . S
C181 C182 1.391 . S
C182 C181 1.391 . S
C182 H238 0.947 . S
C182 C239 1.392 . S
C183 C184 1.391 . S
C183 C187 1.397 . S
C183 C239 1.419 . S
C184 C180 1.391 . S
C184 C183 1.391 . S
C184 C185 1.399 . S
C185 C184 1.399 . S
C185 C188 1.396 . S
C185 C197 1.453 . S
C185 C198 1.684 . S
H186 C210 0.948 . S
C187 C183 1.397 . S
C187 C188 1.394 . S
C187 C206 1.723 . S
C188 C185 1.396 . S
C188 C187 1.394 . S
C188 C218 1.723 . S
H189 C212 0.947 . S
H190 C213 0.948 . S
H191 C219 0.982 . S
H192 C220 0.979 . S
H193 C220 0.980 . S
H194 C220 0.983 . S
H195 C219 0.979 . S
H196 C219 0.977 . S
C197 C185 1.453 . S
C197 H226 0.982 . S
C197 H227 0.979 . S
C197 H228 0.977 . S
C198 C185 1.684 . S
C198 H223 0.979 . S
C198 H224 0.980 . S
C198 H225 0.983 . S
C199 C200 1.376 1_554 S
C199 C204 1.391 . S
C199 H229 0.948 . S
C200 C199 1.376 1_556 S
C200 C201 1.379 1_556 S
C201 C200 1.379 1_554 S
C201 C202 1.392 . S
C201 H230 0.947 . S
C202 C201 1.392 . S
C202 C203 1.419 . S
C202 H231 0.948 . S
C203 C202 1.419 . S
C203 C204 1.391 . S
C203 C207 1.397 . S
C204 C199 1.391 . S
C204 C203 1.391 . S
C204 C205 1.399 . S
C205 C204 1.399 . S
C205 C206 1.396 . S
C205 C208 1.453 . S
C205 C209 1.684 . S
C206 C187 1.723 . S
C206 C205 1.396 . S
C206 C207 1.394 . S
C207 C203 1.397 . S
C207 C206 1.394 . S
C207 C217 1.723 . S
C208 C205 1.453 . S
C208 H232 0.982 . S
C208 H233 0.979 . S
C208 H234 0.977 . S
C209 C205 1.684 . S
C209 H235 0.979 . S
C209 H236 0.980 . S
C209 H237 0.983 . S
C210 H186 0.948 . S
C210 C211 1.391 . S
C210 C215 1.391 . S
C211 C210 1.391 . S
C211 C212 1.391 . S
C212 H189 0.947 . S
C212 C211 1.391 . S
C212 C213 1.392 . S
C213 H190 0.948 . S
C213 C212 1.392 . S
C213 C214 1.419 . S
C214 C213 1.419 . S
C214 C215 1.391 . S
C214 C218 1.397 . S
C215 C210 1.391 . S
C215 C214 1.391 . S
C215 C216 1.399 . S
C216 C215 1.399 . S
C216 C217 1.396 . S
C216 C219 1.453 . S
C216 C220 1.684 . S
C217 C207 1.723 . S
C217 C216 1.396 . S
C217 C218 1.394 . S
C218 C188 1.723 . S
C218 C214 1.397 . S
C218 C217 1.394 . S
C219 H191 0.982 . S
C219 H195 0.979 . S
C219 H196 0.977 . S
C219 C216 1.453 . S
C220 H192 0.979 . S
C220 H193 0.980 . S
C220 H194 0.983 . S
C220 C216 1.684 . S
H221 C239 0.948 . S
H222 C180 0.948 . S
H223 C198 0.979 . S
H224 C198 0.980 . S
H225 C198 0.983 . S
H226 C197 0.982 . S
H227 C197 0.979 . S
H228 C197 0.977 . S
H229 C199 0.948 . S
H230 C201 0.947 . S
H231 C202 0.948 . S
H232 C208 0.982 . S
H233 C208 0.979 . S
H234 C208 0.977 . S
H235 C209 0.979 . S
H236 C209 0.980 . S
H237 C209 0.983 . S
H238 C182 0.947 . S
C239 C182 1.392 . S
C239 C183 1.419 . S
C239 H221 0.948 . S
C240 C241 1.391 . S
C240 C244 1.391 . S
C240 H282 0.948 . S
C241 C240 1.391 . S
C241 C242 1.391 . S
C242 C241 1.391 . S
C242 H298 0.947 . S
C242 C299 1.392 . S
C243 C244 1.391 . S
C243 C247 1.397 . S
C243 C299 1.419 . S
C244 C240 1.391 . S
C244 C243 1.391 . S
C244 C245 1.399 . S
C245 C244 1.399 . S
C245 C248 1.396 . S
C245 C257 1.453 . S
C245 C258 1.684 . S
H246 C270 0.948 . S
C247 C243 1.397 . S
C247 C248 1.394 . S
C247 C266 1.723 . S
C248 C245 1.396 . S
C248 C247 1.394 . S
C248 C278 1.723 . S
H249 C272 0.947 . S
H250 C273 0.948 . S
H251 C279 0.982 . S
H252 C280 0.979 . S
H253 C280 0.980 . S
H254 C280 0.983 . S
H255 C279 0.979 . S
H256 C279 0.977 . S
C257 C245 1.453 . S
C257 H286 0.982 . S
C257 H287 0.979 . S
C257 H288 0.977 . S
C258 C245 1.684 . S
C258 H283 0.979 . S
C258 H284 0.980 . S
C258 H285 0.983 . S
C259 C260 1.391 . S
C259 C264 1.391 . S
C259 H289 0.948 . S
C260 C259 1.391 . S
C260 C261 1.391 . S
C261 C260 1.391 . S
C261 C262 1.392 . S
C261 H290 0.947 . S
C262 C261 1.392 . S
C262 C263 1.419 . S
C262 H291 0.948 . S
C263 C262 1.419 . S
C263 C264 1.391 . S
C263 C267 1.397 . S
C264 C259 1.391 . S
C264 C263 1.391 . S
C264 C265 1.399 . S
C265 C264 1.399 . S
C265 C266 1.396 . S
C265 C268 1.453 . S
C265 C269 1.684 . S
C266 C247 1.723 . S
C266 C265 1.396 . S
C266 C267 1.394 . S
C267 C263 1.397 . S
C267 C266 1.394 . S
C267 C277 1.723 . S
C268 C265 1.453 . S
C268 H292 0.982 . S
C268 H293 0.979 . S
C268 H294 0.977 . S
C269 C265 1.684 . S
C269 H295 0.979 . S
C269 H296 0.980 . S
C269 H297 0.983 . S
C270 H246 0.948 . S
C270 C271 1.391 . S
C270 C275 1.391 . S
C271 C270 1.391 . S
C271 C272 1.391 . S
C272 H249 0.947 . S
C272 C271 1.391 . S
C272 C273 1.392 . S
C273 H250 0.948 . S
C273 C272 1.392 . S
C273 C274 1.419 . S
C274 C273 1.419 . S
C274 C275 1.391 . S
C274 C278 1.397 . S
C275 C270 1.391 . S
C275 C274 1.391 . S
C275 C276 1.399 . S
C276 C275 1.399 . S
C276 C277 1.396 . S
C276 C279 1.453 . S
C276 C280 1.684 . S
C277 C267 1.723 . S
C277 C276 1.396 . S
C277 C278 1.394 . S
C278 C248 1.723 . S
C278 C274 1.397 . S
C278 C277 1.394 . S
C279 H251 0.982 . S
C279 H255 0.979 . S
C279 H256 0.977 . S
C279 C276 1.453 . S
C280 H252 0.979 . S
C280 H253 0.980 . S
C280 H254 0.983 . S
C280 C276 1.684 . S
H281 C299 0.948 . S
H282 C240 0.948 . S
H283 C258 0.979 . S
H284 C258 0.980 . S
H285 C258 0.983 . S
H286 C257 0.982 . S
H287 C257 0.979 . S
H288 C257 0.977 . S
H289 C259 0.948 . S
H290 C261 0.947 . S
H291 C262 0.948 . S
H292 C268 0.982 . S
H293 C268 0.979 . S
H294 C268 0.977 . S
H295 C269 0.979 . S
H296 C269 0.980 . S
H297 C269 0.983 . S
H298 C242 0.947 . S
C299 C242 1.392 . S
C299 C243 1.419 . S
C299 H281 0.948 . S
C300 C301 1.391 . S
C300 C304 1.391 . S
C300 H342 0.948 . S
C301 C300 1.391 . S
C301 C302 1.391 . S
C302 C301 1.391 . S
C302 H358 0.947 . S
C302 C359 1.392 . S
C303 C304 1.391 . S
C303 C307 1.397 . S
C303 C359 1.419 . S
C304 C300 1.391 . S
C304 C303 1.391 . S
C304 C305 1.399 . S
C305 C304 1.399 . S
C305 C308 1.396 . S
C305 C317 1.453 . S
C305 C318 1.684 . S
H306 C330 0.948 1_545 S
C307 C303 1.397 . S
C307 C308 1.394 . S
C307 C326 1.723 . S
C308 C305 1.396 . S
C308 C307 1.394 . S
C308 C338 1.723 . S
H309 C332 0.947 . S
H310 C333 0.948 . S
H311 C339 0.982 . S
H312 C340 0.979 . S
H313 C340 0.980 . S
H314 C340 0.957 1_545 S
H315 C339 0.979 . S
H316 C339 0.977 . S
C317 C305 1.453 . S
C317 H346 0.982 . S
C317 H347 0.979 . S
C317 H348 0.977 . S
C318 C305 1.684 . S
C318 H343 0.979 . S
C318 H344 0.980 . S
C318 H345 0.983 . S
C319 C320 1.391 1_554 S
C319 C324 1.391 . S
C319 H349 0.951 . S
C320 C319 1.391 1_556 S
C320 C321 1.391 1_556 S
C321 C320 1.391 1_554 S
C321 C322 1.392 . S
C321 H350 0.947 1_554 S
C322 C321 1.392 . S
C322 C323 1.419 . S
C322 H351 0.948 . S
C323 C322 1.419 . S
C323 C324 1.391 . S
C323 C327 1.397 . S
C324 C319 1.391 . S
C324 C323 1.391 . S
C324 C325 1.399 . S
C325 C324 1.399 . S
C325 C326 1.396 . S
C325 C328 1.453 . S
C325 C329 1.684 . S
C326 C307 1.723 . S
C326 C325 1.396 . S
C326 C327 1.394 . S
C327 C323 1.397 . S
C327 C326 1.394 . S
C327 C337 1.723 . S
C328 C325 1.453 . S
C328 H352 0.982 . S
C328 H353 0.979 . S
C328 H354 0.977 . S
C329 C325 1.684 . S
C329 H355 0.979 . S
C329 H356 0.980 . S
C329 H357 0.983 . S
C330 H306 0.948 1_565 S
C330 C331 1.391 . S
C330 C335 1.391 . S
C331 C330 1.391 . S
C331 C332 1.391 . S
C332 H309 0.947 . S
C332 C331 1.391 . S
C332 C333 1.392 . S
C333 H310 0.948 . S
C333 C332 1.392 . S
C333 C334 1.419 . S
C334 C333 1.419 . S
C334 C335 1.391 . S
C334 C338 1.397 . S
C335 C330 1.391 . S
C335 C334 1.391 . S
C335 C336 1.399 . S
C336 C335 1.399 . S
C336 C337 1.396 . S
C336 C339 1.453 . S
C336 C340 1.684 . S
C337 C327 1.723 . S
C337 C336 1.396 . S
C337 C338 1.394 . S
C338 C308 1.723 . S
C338 C334 1.397 . S
C338 C337 1.394 . S
C339 H311 0.982 . S
C339 H315 0.979 . S
C339 H316 0.977 . S
C339 C336 1.453 . S
C340 H312 0.979 . S
C340 H313 0.980 . S
C340 H314 0.957 1_565 S
C340 C336 1.684 . S
H341 C359 0.948 . S
H342 C300 0.948 . S
H343 C318 0.979 . S
H344 C318 0.980 . S
H345 C318 0.983 . S
H346 C317 0.982 . S
H347 C317 0.979 . S
H348 C317 0.977 . S
H349 C319 0.951 . S
H350 C321 0.947 1_556 S
H351 C322 0.948 . S
H352 C328 0.982 . S
H353 C328 0.979 . S
H354 C328 0.977 . S
H355 C329 0.979 . S
H356 C329 0.980 . S
H357 C329 0.983 . S
H358 C302 0.947 . S
C359 C302 1.392 . S
C359 C303 1.419 . S
C359 H341 0.948 . S
C360 C361 1.391 . S
C360 C364 1.391 . S
C360 H402 0.948 . S
C361 C360 1.391 . S
C361 C362 1.391 . S
C362 C361 1.391 . S
C362 H418 0.947 1_565 S
C362 C419 1.392 . S
C363 C364 1.391 . S
C363 C367 1.397 . S
C363 C419 1.419 . S
C364 C360 1.391 . S
C364 C363 1.391 . S
C364 C365 1.399 . S
C365 C364 1.399 . S
C365 C368 1.396 . S
C365 C377 1.453 . S
C365 C378 1.684 . S
H366 C390 0.948 . S
C367 C363 1.397 . S
C367 C368 1.394 . S
C367 C386 1.723 . S
C368 C365 1.396 . S
C368 C367 1.394 . S
C368 C398 1.723 . S
H369 C392 0.947 . S
H370 C393 0.948 . S
H371 C399 0.982 . S
H372 C400 0.979 . S
H373 C400 0.980 . S
H374 C400 0.983 . S
H375 C399 0.979 . S
H376 C399 0.977 . S
C377 C365 1.453 . S
C377 H406 0.982 . S
C377 H407 0.979 . S
C377 H408 0.977 . S
C378 C365 1.684 . S
C378 H403 0.979 . S
C378 H404 0.980 . S
C378 H405 0.983 . S
C379 C380 1.391 . S
C379 C384 1.391 . S
C379 H409 0.948 . S
C380 C379 1.391 . S
C380 C381 1.391 . S
C381 C380 1.391 . S
C381 C382 1.392 . S
C381 H410 0.947 . S
C382 C381 1.392 . S
C382 C383 1.419 . S
C382 H411 0.948 . S
C383 C382 1.419 . S
C383 C384 1.391 . S
C383 C387 1.397 . S
C384 C379 1.391 . S
C384 C383 1.391 . S
C384 C385 1.399 . S
C385 C384 1.399 . S
C385 C386 1.396 . S
C385 C388 1.453 . S
C385 C389 1.684 . S
C386 C367 1.723 . S
C386 C385 1.396 . S
C386 C387 1.394 . S
C387 C383 1.397 . S
C387 C386 1.394 . S
C387 C397 1.723 . S
C388 C385 1.453 . S
C388 H412 0.982 . S
C388 H413 0.979 . S
C388 H414 0.977 . S
C389 C385 1.684 . S
C389 H415 0.979 . S
C389 H416 0.980 . S
C389 H417 0.983 . S
C390 H366 0.948 . S
C390 C391 1.391 . S
C390 C395 1.391 . S
C391 C390 1.391 . S
C391 C392 1.391 . S
C392 H369 0.947 . S
C392 C391 1.391 . S
C392 C393 1.392 . S
C393 H370 0.948 . S
C393 C392 1.392 . S
C393 C394 1.419 . S
C394 C393 1.419 . S
C394 C395 1.391 . S
C394 C398 1.397 . S
C395 C390 1.391 . S
C395 C394 1.391 . S
C395 C396 1.399 . S
C396 C395 1.399 . S
C396 C397 1.396 . S
C396 C399 1.453 . S
C396 C400 1.684 . S
C397 C387 1.723 . S
C397 C396 1.396 . S
C397 C398 1.394 . S
C398 C368 1.723 . S
C398 C394 1.397 . S
C398 C397 1.394 . S
C399 H371 0.982 . S
C399 H375 0.979 . S
C399 H376 0.977 . S
C399 C396 1.453 . S
C400 H372 0.979 . S
C400 H373 0.980 . S
C400 H374 0.983 . S
C400 C396 1.684 . S
H401 C419 0.948 . S
H402 C360 0.948 . S
H403 C378 0.979 . S
H404 C378 0.980 . S
H405 C378 0.983 . S
H406 C377 0.982 . S
H407 C377 0.979 . S
H408 C377 0.977 . S
H409 C379 0.948 . S
H410 C381 0.947 . S
H411 C382 0.948 . S
H412 C388 0.982 . S
H413 C388 0.979 . S
H414 C388 0.977 . S
H415 C389 0.979 . S
H416 C389 0.980 . S
H417 C389 0.983 . S
H418 C362 0.947 1_545 S
C419 C362 1.392 . S
C419 C363 1.419 . S
C419 H401 0.948 . S
C420 C421 1.391 . S
C420 C424 1.391 . S
C420 H462 0.948 . S
C421 C420 1.391 . S
C421 C422 1.391 . S
C422 C421 1.391 . S
C422 H478 0.947 . S
C422 C479 1.392 . S
C423 C424 1.391 . S
C423 C427 1.397 . S
C423 C479 1.419 . S
C424 C420 1.391 . S
C424 C423 1.391 . S
C424 C425 1.399 . S
C425 C424 1.399 . S
C425 C428 1.396 . S
C425 C437 1.453 . S
C425 C438 1.684 . S
H426 C450 0.948 . S
C427 C423 1.397 . S
C427 C428 1.394 . S
C427 C446 1.723 . S
C428 C425 1.396 . S
C428 C427 1.394 . S
C428 C458 1.723 . S
H429 C452 0.947 . S
H430 C453 0.948 . S
H431 C459 0.982 . S
H432 C460 0.979 . S
H433 C460 0.980 . S
H434 C460 0.983 . S
H435 C459 0.979 . S
H436 C459 0.977 . S
C437 C425 1.453 . S
C437 H466 0.982 . S
C437 H467 0.979 . S
C437 H468 0.977 . S
C438 C425 1.684 . S
C438 H463 0.979 . S
C438 H464 0.980 . S
C438 H465 0.983 . S
C439 C440 1.391 1_556 S
C439 C444 1.391 . S
C439 H469 0.948 . S
C440 C439 1.391 1_554 S
C440 C441 1.391 1_554 S
C441 C440 1.391 1_556 S
C441 C442 1.392 . S
C441 H470 0.964 . S
C442 C441 1.392 . S
C442 C443 1.419 . S
C442 H471 0.948 . S
C443 C442 1.419 . S
C443 C444 1.391 . S
C443 C447 1.397 . S
C444 C439 1.391 . S
C444 C443 1.391 . S
C444 C445 1.399 . S
C445 C444 1.399 . S
C445 C446 1.396 . S
C445 C448 1.453 . S
C445 C449 1.684 . S
C446 C427 1.723 . S
C446 C445 1.396 . S
C446 C447 1.394 . S
C447 C443 1.397 . S
C447 C446 1.394 . S
C447 C457 1.723 . S
C448 C445 1.453 . S
C448 H472 0.982 . S
C448 H473 0.979 . S
C448 H474 0.977 . S
C449 C445 1.684 . S
C449 H475 0.979 . S
C449 H476 0.980 . S
C449 H477 0.983 . S
C450 H426 0.948 . S
C450 C451 1.391 . S
C450 C455 1.391 . S
C451 C450 1.391 . S
C451 C452 1.391 . S
C452 H429 0.947 . S
C452 C451 1.391 . S
C452 C453 1.392 . S
C453 H430 0.948 . S
C453 C452 1.392 . S
C453 C454 1.419 . S
C454 C453 1.419 . S
C454 C455 1.391 . S
C454 C458 1.397 . S
C455 C450 1.391 . S
C455 C454 1.391 . S
C455 C456 1.399 . S
C456 C455 1.399 . S
C456 C457 1.396 . S
C456 C459 1.453 . S
C456 C460 1.684 . S
C457 C447 1.723 . S
C457 C456 1.396 . S
C457 C458 1.394 . S
C458 C428 1.723 . S
C458 C454 1.397 . S
C458 C457 1.394 . S
C459 H431 0.982 . S
C459 H435 0.979 . S
C459 H436 0.977 . S
C459 C456 1.453 . S
C460 H432 0.979 . S
C460 H433 0.980 . S
C460 H434 0.983 . S
C460 C456 1.684 . S
H461 C479 0.948 . S
H462 C420 0.948 . S
H463 C438 0.979 . S
H464 C438 0.980 . S
H465 C438 0.983 . S
H466 C437 0.982 . S
H467 C437 0.979 . S
H468 C437 0.977 . S
H469 C439 0.948 . S
H470 C441 0.964 . S
H471 C442 0.948 . S
H472 C448 0.982 . S
H473 C448 0.979 . S
H474 C448 0.977 . S
H475 C449 0.979 . S
H476 C449 0.980 . S
H477 C449 0.983 . S
H478 C422 0.947 . S
C479 C422 1.392 . S
C479 C423 1.419 . S
C479 H461 0.948 . S
C480 C482 1.422 . S
C480 C484 1.415 . S
C480 N486 1.369 . S
C481 C482 1.421 . S
C481 C483 1.417 . S
C481 C493 1.422 . S
C482 C480 1.422 . S
C482 C481 1.421 . S
C482 N492 1.359 . S
C483 C481 1.417 . S
C483 C485 1.329 . S
C483 H502 0.930 . S
C484 C480 1.415 . S
C484 C485 1.437 . S
C484 C488 1.413 . S
C485 C483 1.329 . S
C485 C484 1.437 . S
C485 H507 0.929 . S
N486 C480 1.369 . S
N486 C487 1.338 . S
N486 Gd491 2.622 . S
C487 N486 1.338 . S
C487 C489 1.378 . S
C487 H499 0.929 . S
C488 C484 1.413 . S
C488 C489 1.348 . S
C488 H504 0.931 . S
C489 C487 1.378 . S
C489 C488 1.348 . S
C489 H505 0.930 . S
Gd490 N510 2.622 . S
Gd490 N517 2.570 . S
Gd490 O524 2.355 . S
Gd490 O525 2.468 . S
Gd490 O526 2.427 . S
Gd490 O528 2.388 . S
Gd490 O529 2.386 . S
Gd490 O533 2.293 1_455 S
Gd490 C543 2.805 . S
Gd491 N486 2.622 . S
Gd491 N492 2.570 . S
Gd491 O523 2.386 . S
Gd491 O527 2.307 1_655 S
Gd491 O530 2.353 1_655 S
Gd491 O531 2.468 . S
Gd491 O532 2.427 . S
Gd491 O534 2.388 . S
Gd491 C555 2.805 . S
N492 C482 1.359 . S
N492 Gd491 2.570 . S
N492 C494 1.343 . S
C493 C481 1.422 . S
C493 C495 1.321 . S
C493 H501 0.931 . S
C494 N492 1.343 . S
C494 C495 1.390 . S
C494 H496 0.931 . S
C495 C493 1.321 . S
C495 C494 1.390 . S
C495 H497 0.930 . S
H496 C494 0.931 . S
H497 C495 0.930 . S
H498 C521 0.931 . S
H499 C487 0.929 . S
H500 C522 0.930 . S
H501 C493 0.931 . S
H502 C483 0.930 . S
H503 C512 0.929 . S
H504 C488 0.931 . S
H505 C489 0.930 . S
H506 C544 0.930 . S
H507 C485 0.929 . S
H508 C513 0.931 . S
H509 C514 0.930 . S
N510 Gd490 2.622 . S
N510 C511 1.369 . S
N510 C512 1.338 . S
C511 N510 1.369 . S
C511 C515 1.415 . S
C511 C518 1.422 . S
C512 H503 0.929 . S
C512 N510 1.338 . S
C512 C514 1.378 . S
C513 H508 0.931 . S
C513 C514 1.348 . S
C513 C515 1.413 . S
C514 H509 0.930 . S
C514 C512 1.378 . S
C514 C513 1.348 . S
C515 C511 1.415 . S
C515 C513 1.413 . S
C515 C545 1.437 . S
H516 C545 0.929 . S
N517 Gd490 2.570 . S
N517 C518 1.359 . S
N517 C521 1.343 . S
C518 C511 1.422 . S
C518 N517 1.359 . S
C518 C520 1.421 . S
C519 C520 1.422 . S
C519 C522 1.321 . S
C519 H546 0.931 . S
C520 C518 1.421 . S
C520 C519 1.422 . S
C520 C544 1.417 . S
C521 H498 0.931 . S
C521 N517 1.343 . S
C521 C522 1.390 . S
C522 H500 0.930 . S
C522 C519 1.321 . S
C522 C521 1.390 . S
O523 Gd491 2.386 . S
O523 C535 1.265 . S
O524 Gd490 2.355 . S
O524 C535 1.239 1_455 S
O525 Gd490 2.468 . S
O525 C543 1.263 . S
O526 Gd490 2.427 . S
O526 C543 1.252 . S
O527 Gd491 2.307 1_455 S
O527 C536 1.261 . S
O528 Gd490 2.388 . S
O528 C536 1.252 . S
O529 Gd490 2.386 . S
O529 C547 1.265 . S
O530 Gd491 2.353 1_455 S
O530 C547 1.242 . S
O531 Gd491 2.468 . S
O531 C555 1.263 . S
O532 Gd491 2.427 . S
O532 C555 1.252 . S
O533 Gd490 2.293 1_655 S
O533 C548 1.278 . S
O534 Gd491 2.388 . S
O534 C548 1.252 . S
C535 O523 1.265 . S
C535 O524 1.239 1_655 S
C536 O527 1.261 . S
C536 O528 1.252 . S
C537 C540 1.394 . S
C537 C542 1.370 . S
C537 C543 1.500 . S
C538 C541 1.383 . S
C538 C542 1.395 . S
C539 C540 1.396 . S
C539 C541 1.365 . S
C539 H556 0.929 . S
C540 C537 1.394 . S
C540 C539 1.396 . S
C540 H557 0.930 . S
C541 C538 1.383 . S
C541 C539 1.365 . S
C541 H558 0.931 . S
C542 C537 1.370 . S
C542 C538 1.395 . S
C542 H559 0.930 . S
C543 Gd490 2.805 . S
C543 O525 1.263 . S
C543 O526 1.252 . S
C543 C537 1.500 . S
C544 H506 0.930 . S
C544 C520 1.417 . S
C544 C545 1.329 . S
C545 C515 1.437 . S
C545 H516 0.929 . S
C545 C544 1.329 . S
H546 C519 0.931 . S
C547 O529 1.265 . S
C547 O530 1.242 . S
C548 O533 1.278 . S
C548 O534 1.252 . S
C549 C552 1.394 . S
C549 C554 1.370 . S
C549 C555 1.500 . S
C550 C553 1.383 . S
C550 C554 1.395 . S
C551 C552 1.396 . S
C551 C553 1.365 . S
C551 H560 0.929 . S
C552 C549 1.394 . S
C552 C551 1.396 . S
C552 H561 0.930 . S
C553 C550 1.383 . S
C553 C551 1.365 . S
C553 H562 0.931 . S
C554 C549 1.370 . S
C554 C550 1.395 . S
C554 H563 0.930 . S
C555 Gd491 2.805 . S
C555 O531 1.263 . S
C555 O532 1.252 . S
C555 C549 1.500 . S
H556 C539 0.929 . S
H557 C540 0.930 . S
H558 C541 0.931 . S
H559 C542 0.930 . S
H560 C551 0.929 . S
H561 C552 0.930 . S
H562 C553 0.931 . S
H563 C554 0.930 . S
C564 C566 1.422 . S
C564 C568 1.415 . S
C564 N570 1.369 . S
C565 C566 1.421 . S
C565 C567 1.417 . S
C565 C577 1.422 . S
C566 C564 1.422 . S
C566 C565 1.421 . S
C566 N576 1.359 . S
C567 C565 1.417 . S
C567 C569 1.329 . S
C567 H586 0.930 . S
C568 C564 1.415 . S
C568 C569 1.437 . S
C568 C572 1.413 . S
C569 C567 1.329 . S
C569 C568 1.437 . S
C569 H591 0.929 . S
N570 C564 1.369 . S
N570 C571 1.338 . S
N570 Gd575 2.622 . S
C571 N570 1.338 . S
C571 C573 1.378 . S
C571 H583 0.929 . S
C572 C568 1.413 . S
C572 C573 1.348 . S
C572 H588 0.931 . S
C573 C571 1.378 . S
C573 C572 1.348 . S
C573 H589 0.930 . S
Gd574 N594 2.622 . S
Gd574 N601 2.570 . S
Gd574 O608 2.353 . S
Gd574 O609 2.468 . S
Gd574 O610 2.427 . S
Gd574 O612 2.388 . S
Gd574 O613 2.386 . S
Gd574 O617 2.307 . S
Gd574 C627 2.805 . S
Gd575 N570 2.622 . S
Gd575 N576 2.570 . S
Gd575 O607 2.386 . S
Gd575 O611 2.307 . S
Gd575 O614 2.353 . S
Gd575 O615 2.468 . S
Gd575 O616 2.427 . S
Gd575 O618 2.388 . S
Gd575 C639 2.805 . S
N576 C566 1.359 . S
N576 Gd575 2.570 . S
N576 C578 1.343 . S
C577 C565 1.422 . S
C577 C579 1.321 . S
C577 H585 0.931 . S
C578 N576 1.343 . S
C578 C579 1.390 . S
C578 H580 0.931 . S
C579 C577 1.321 . S
C579 C578 1.390 . S
C579 H581 0.930 . S
H580 C578 0.931 . S
H581 C579 0.930 . S
H582 C605 0.931 . S
H583 C571 0.929 . S
H584 C606 0.930 . S
H585 C577 0.931 . S
H586 C567 0.930 . S
H587 C596 0.929 . S
H588 C572 0.931 . S
H589 C573 0.930 . S
H590 C628 0.930 . S
H591 C569 0.929 . S
H592 C597 0.931 . S
H593 C598 0.930 . S
N594 Gd574 2.622 . S
N594 C595 1.369 . S
N594 C596 1.338 . S
C595 N594 1.369 . S
C595 C599 1.415 . S
C595 C602 1.422 . S
C596 H587 0.929 . S
C596 N594 1.338 . S
C596 C598 1.378 . S
C597 H592 0.931 . S
C597 C598 1.348 . S
C597 C599 1.413 . S
C598 H593 0.930 . S
C598 C596 1.378 . S
C598 C597 1.348 . S
C599 C595 1.415 . S
C599 C597 1.413 . S
C599 C629 1.437 . S
H600 C629 0.929 . S
N601 Gd574 2.570 . S
N601 C602 1.359 . S
N601 C605 1.343 . S
C602 C595 1.422 . S
C602 N601 1.359 . S
C602 C604 1.421 . S
C603 C604 1.422 . S
C603 C606 1.321 . S
C603 H630 0.931 . S
C604 C602 1.421 . S
C604 C603 1.422 . S
C604 C628 1.417 . S
C605 H582 0.931 . S
C605 N601 1.343 . S
C605 C606 1.390 . S
C606 H584 0.930 . S
C606 C603 1.321 . S
C606 C605 1.390 . S
O607 Gd575 2.386 . S
O607 C619 1.265 . S
O608 Gd574 2.353 . S
O608 C619 1.242 . S
O609 Gd574 2.468 . S
O609 C627 1.263 . S
O610 Gd574 2.427 . S
O610 C627 1.252 . S
O611 Gd575 2.307 . S
O611 C620 1.261 . S
O612 Gd574 2.388 . S
O612 C620 1.252 . S
O613 Gd574 2.386 . S
O613 C631 1.265 . S
O614 Gd575 2.353 . S
O614 C631 1.242 . S
O615 Gd575 2.468 . S
O615 C639 1.263 . S
O616 Gd575 2.427 . S
O616 C639 1.252 . S
O617 Gd574 2.307 . S
O617 C632 1.261 . S
O618 Gd575 2.388 . S
O618 C632 1.252 . S
C619 O607 1.265 . S
C619 O608 1.242 . S
C620 O611 1.261 . S
C620 O612 1.252 . S
C621 C624 1.394 . S
C621 C626 1.370 . S
C621 C627 1.500 . S
C622 C625 1.383 . S
C622 C626 1.395 . S
C623 C624 1.396 . S
C623 C625 1.365 . S
C623 H640 0.929 . S
C624 C621 1.394 . S
C624 C623 1.396 . S
C624 H641 0.930 . S
C625 C622 1.383 . S
C625 C623 1.365 . S
C625 H642 0.931 . S
C626 C621 1.370 . S
C626 C622 1.395 . S
C626 H643 0.930 . S
C627 Gd574 2.805 . S
C627 O609 1.263 . S
C627 O610 1.252 . S
C627 C621 1.500 . S
C628 H590 0.930 . S
C628 C604 1.417 . S
C628 C629 1.329 . S
C629 C599 1.437 . S
C629 H600 0.929 . S
C629 C628 1.329 . S
H630 C603 0.931 . S
C631 O613 1.265 . S
C631 O614 1.242 . S
C632 O617 1.261 . S
C632 O618 1.252 . S
C633 C636 1.394 . S
C633 C638 1.370 . S
C633 C639 1.500 . S
C634 C637 1.383 . S
C634 C638 1.395 . S
C635 C636 1.396 . S
C635 C637 1.365 . S
C635 H644 0.929 . S
C636 C633 1.394 . S
C636 C635 1.396 . S
C636 H645 0.930 . S
C637 C634 1.383 . S
C637 C635 1.365 . S
C637 H646 0.931 . S
C638 C633 1.370 . S
C638 C634 1.395 . S
C638 H647 0.930 . S
C639 Gd575 2.805 . S
C639 O615 1.263 . S
C639 O616 1.252 . S
C639 C633 1.500 . S
H640 C623 0.929 . S
H641 C624 0.930 . S
H642 C625 0.931 . S
H643 C626 0.930 . S
H644 C635 0.929 . S
H645 C636 0.930 . S
H646 C637 0.931 . S
H647 C638 0.930 . S
C648 C650 1.422 . S
C648 C652 1.415 . S
C648 N654 1.369 . S
C649 C650 1.421 . S
C649 C651 1.417 . S
C649 C661 1.422 . S
C650 C648 1.422 . S
C650 C649 1.421 . S
C650 N660 1.359 . S
C651 C649 1.417 . S
C651 C653 1.329 . S
C651 H670 0.930 . S
C652 C648 1.415 . S
C652 C653 1.437 . S
C652 C656 1.413 . S
C653 C651 1.329 . S
C653 C652 1.437 . S
C653 H675 0.929 . S
N654 C648 1.369 . S
N654 C655 1.338 . S
N654 Gd659 2.622 . S
C655 N654 1.338 . S
C655 C657 1.378 . S
C655 H667 0.929 . S
C656 C652 1.413 . S
C656 C657 1.348 . S
C656 H672 0.931 . S
C657 C655 1.378 . S
C657 C656 1.348 . S
C657 H673 0.930 . S
Gd658 N678 2.622 . S
Gd658 N685 2.570 . S
Gd658 O692 2.353 . S
Gd658 O693 2.468 . S
Gd658 O694 2.427 . S
Gd658 O696 2.388 . S
Gd658 O697 2.386 . S
Gd658 O701 2.307 . S
Gd658 C711 2.805 . S
Gd659 N654 2.622 . S
Gd659 N660 2.570 . S
Gd659 O691 2.386 . S
Gd659 O695 2.307 1_655 S
Gd659 O698 2.353 1_655 S
Gd659 O699 2.468 . S
Gd659 O700 2.427 . S
Gd659 O702 2.388 . S
Gd659 C723 2.805 . S
N660 C650 1.359 . S
N660 Gd659 2.570 . S
N660 C662 1.343 . S
C661 C649 1.422 . S
C661 C663 1.321 . S
C661 H669 0.931 . S
C662 N660 1.343 . S
C662 C663 1.390 . S
C662 H664 0.931 . S
C663 C661 1.321 . S
C663 C662 1.390 . S
C663 H665 0.930 . S
H664 C662 0.931 . S
H665 C663 0.930 . S
H666 C689 0.931 . S
H667 C655 0.929 . S
H668 C690 0.930 . S
H669 C661 0.931 . S
H670 C651 0.930 . S
H671 C680 0.929 . S
H672 C656 0.931 . S
H673 C657 0.930 . S
H674 C712 0.930 . S
H675 C653 0.929 . S
H676 C681 0.931 . S
H677 C682 0.930 . S
N678 Gd658 2.622 . S
N678 C679 1.369 . S
N678 C680 1.338 . S
C679 N678 1.369 . S
C679 C683 1.415 . S
C679 C686 1.422 . S
C680 H671 0.929 . S
C680 N678 1.338 . S
C680 C682 1.378 . S
C681 H676 0.931 . S
C681 C682 1.348 . S
C681 C683 1.413 . S
C682 H677 0.930 . S
C682 C680 1.378 . S
C682 C681 1.348 . S
C683 C679 1.415 . S
C683 C681 1.413 . S
C683 C713 1.437 . S
H684 C713 0.929 . S
N685 Gd658 2.570 . S
N685 C686 1.359 . S
N685 C689 1.343 . S
C686 C679 1.422 . S
C686 N685 1.359 . S
C686 C688 1.421 . S
C687 C688 1.422 . S
C687 C690 1.321 . S
C687 H714 0.931 . S
C688 C686 1.421 . S
C688 C687 1.422 . S
C688 C712 1.417 . S
C689 H666 0.931 . S
C689 N685 1.343 . S
C689 C690 1.390 . S
C690 H668 0.930 . S
C690 C687 1.321 . S
C690 C689 1.390 . S
O691 Gd659 2.386 . S
O691 C703 1.265 . S
O692 Gd658 2.353 . S
O692 C703 1.242 1_455 S
O693 Gd658 2.468 . S
O693 C711 1.263 . S
O694 Gd658 2.427 . S
O694 C711 1.252 . S
O695 Gd659 2.307 1_455 S
O695 C704 1.261 . S
O696 Gd658 2.388 . S
O696 C704 1.252 . S
O697 Gd658 2.386 . S
O697 C715 1.265 . S
O698 Gd659 2.353 1_455 S
O698 C715 1.242 . S
O699 Gd659 2.468 . S
O699 C723 1.263 . S
O700 Gd659 2.427 . S
O700 C723 1.252 . S
O701 Gd658 2.307 . S
O701 C716 1.261 1_455 S
O702 Gd659 2.388 . S
O702 C716 1.252 . S
C703 O691 1.265 . S
C703 O692 1.242 1_655 S
C704 O695 1.261 . S
C704 O696 1.252 . S
C705 C708 1.394 . S
C705 C710 1.370 . S
C705 C711 1.500 . S
C706 C709 1.383 . S
C706 C710 1.395 . S
C707 C708 1.396 . S
C707 C709 1.365 . S
C707 H724 0.929 . S
C708 C705 1.394 . S
C708 C707 1.396 . S
C708 H725 0.930 . S
C709 C706 1.383 . S
C709 C707 1.365 . S
C709 H726 0.931 . S
C710 C705 1.370 . S
C710 C706 1.395 . S
C710 H727 0.930 . S
C711 Gd658 2.805 . S
C711 O693 1.263 . S
C711 O694 1.252 . S
C711 C705 1.500 . S
C712 H674 0.930 . S
C712 C688 1.417 . S
C712 C713 1.329 . S
C713 C683 1.437 . S
C713 H684 0.929 . S
C713 C712 1.329 . S
H714 C687 0.931 . S
C715 O697 1.265 . S
C715 O698 1.242 . S
C716 O701 1.261 1_655 S
C716 O702 1.252 . S
C717 C720 1.394 . S
C717 C722 1.370 . S
C717 C723 1.500 . S
C718 C721 1.383 . S
C718 C722 1.395 . S
C719 C720 1.396 . S
C719 C721 1.365 . S
C719 H728 0.929 . S
C720 C717 1.394 . S
C720 C719 1.396 . S
C720 H729 0.930 . S
C721 C718 1.383 . S
C721 C719 1.365 . S
C721 H730 0.931 . S
C722 C717 1.370 . S
C722 C718 1.395 . S
C722 H731 0.930 . S
C723 Gd659 2.805 . S
C723 O699 1.263 . S
C723 O700 1.252 . S
C723 C717 1.500 . S
H724 C707 0.929 . S
H725 C708 0.930 . S
H726 C709 0.931 . S
H727 C710 0.930 . S
H728 C719 0.929 . S
H729 C720 0.930 . S
H730 C721 0.931 . S
H731 C722 0.930 . S
C732 C734 1.422 . S
C732 C736 1.415 . S
C732 N738 1.369 . S
C733 C734 1.421 . S
C733 C735 1.417 . S
C733 C745 1.422 . S
C734 C732 1.422 . S
C734 C733 1.421 . S
C734 N744 1.359 . S
C735 C733 1.417 . S
C735 C737 1.329 . S
C735 H754 0.930 . S
C736 C732 1.415 . S
C736 C737 1.437 . S
C736 C740 1.413 . S
C737 C735 1.329 . S
C737 C736 1.437 . S
C737 H759 0.929 . S
N738 C732 1.369 . S
N738 C739 1.338 . S
N738 Gd743 2.622 . S
C739 N738 1.338 . S
C739 C741 1.378 . S
C739 H751 0.929 . S
C740 C736 1.413 . S
C740 C741 1.348 . S
C740 H756 0.931 . S
C741 C739 1.378 . S
C741 C740 1.348 . S
C741 H757 0.930 . S
Gd742 N762 2.622 . S
Gd742 N769 2.570 . S
Gd742 O776 2.353 . S
Gd742 O777 2.468 . S
Gd742 O778 2.427 . S
Gd742 O780 2.388 . S
Gd742 O781 2.386 . S
Gd742 O785 2.307 . S
Gd742 C795 2.805 . S
Gd743 N738 2.622 . S
Gd743 N744 2.570 . S
Gd743 O775 2.386 . S
Gd743 O779 2.307 . S
Gd743 O782 2.353 . S
Gd743 O783 2.468 . S
Gd743 O784 2.427 . S
Gd743 O786 2.388 . S
Gd743 C807 2.805 . S
N744 C734 1.359 . S
N744 Gd743 2.570 . S
N744 C746 1.343 . S
C745 C733 1.422 . S
C745 C747 1.321 . S
C745 H753 0.931 . S
C746 N744 1.343 . S
C746 C747 1.390 . S
C746 H748 0.931 . S
C747 C745 1.321 . S
C747 C746 1.390 . S
C747 H749 0.930 . S
H748 C746 0.931 . S
H749 C747 0.930 . S
H750 C773 0.931 . S
H751 C739 0.929 . S
H752 C774 0.930 . S
H753 C745 0.931 . S
H754 C735 0.930 . S
H755 C764 0.929 . S
H756 C740 0.931 . S
H757 C741 0.930 . S
H758 C796 0.930 . S
H759 C737 0.929 . S
H760 C765 0.931 . S
H761 C766 0.930 . S
N762 Gd742 2.622 . S
N762 C763 1.369 . S
N762 C764 1.338 . S
C763 N762 1.369 . S
C763 C767 1.415 . S
C763 C770 1.422 . S
C764 H755 0.929 . S
C764 N762 1.338 . S
C764 C766 1.378 . S
C765 H760 0.931 . S
C765 C766 1.348 . S
C765 C767 1.413 . S
C766 H761 0.930 . S
C766 C764 1.378 . S
C766 C765 1.348 . S
C767 C763 1.415 . S
C767 C765 1.413 . S
C767 C797 1.437 . S
H768 C797 0.929 . S
N769 Gd742 2.570 . S
N769 C770 1.359 . S
N769 C773 1.343 . S
C770 C763 1.422 . S
C770 N769 1.359 . S
C770 C772 1.421 . S
C771 C772 1.422 . S
C771 C774 1.321 . S
C771 H798 0.931 . S
C772 C770 1.421 . S
C772 C771 1.422 . S
C772 C796 1.417 . S
C773 H750 0.931 . S
C773 N769 1.343 . S
C773 C774 1.390 . S
C774 H752 0.930 . S
C774 C771 1.321 . S
C774 C773 1.390 . S
O775 Gd743 2.386 . S
O775 C787 1.265 . S
O776 Gd742 2.353 . S
O776 C787 1.242 . S
O777 Gd742 2.468 . S
O777 C795 1.263 . S
O778 Gd742 2.427 . S
O778 C795 1.252 . S
O779 Gd743 2.307 . S
O779 C788 1.261 . S
O780 Gd742 2.388 . S
O780 C788 1.252 . S
O781 Gd742 2.386 . S
O781 C799 1.265 . S
O782 Gd743 2.353 . S
O782 C799 1.242 . S
O783 Gd743 2.468 . S
O783 C807 1.263 . S
O784 Gd743 2.427 . S
O784 C807 1.252 . S
O785 Gd742 2.307 . S
O785 C800 1.261 . S
O786 Gd743 2.388 . S
O786 C800 1.252 . S
C787 O775 1.265 . S
C787 O776 1.242 . S
C788 O779 1.261 . S
C788 O780 1.252 . S
C789 C792 1.394 . S
C789 C794 1.370 . S
C789 C795 1.500 . S
C790 C793 1.383 . S
C790 C794 1.395 . S
C791 C792 1.396 . S
C791 C793 1.365 . S
C791 H808 0.929 . S
C792 C789 1.394 . S
C792 C791 1.396 . S
C792 H809 0.930 . S
C793 C790 1.383 . S
C793 C791 1.365 . S
C793 H810 0.931 . S
C794 C789 1.370 . S
C794 C790 1.395 . S
C794 H811 0.930 . S
C795 Gd742 2.805 . S
C795 O777 1.263 . S
C795 O778 1.252 . S
C795 C789 1.500 . S
C796 H758 0.930 . S
C796 C772 1.417 . S
C796 C797 1.329 . S
C797 C767 1.437 . S
C797 H768 0.929 . S
C797 C796 1.329 . S
H798 C771 0.931 . S
C799 O781 1.265 . S
C799 O782 1.242 . S
C800 O785 1.261 . S
C800 O786 1.252 . S
C801 C804 1.394 . S
C801 C806 1.370 . S
C801 C807 1.500 . S
C802 C805 1.383 . S
C802 C806 1.395 . S
C803 C804 1.396 . S
C803 C805 1.365 . S
C803 H812 0.929 . S
C804 C801 1.394 . S
C804 C803 1.396 . S
C804 H813 0.930 . S
C805 C802 1.383 . S
C805 C803 1.365 . S
C805 H814 0.931 . S
C806 C801 1.370 . S
C806 C802 1.395 . S
C806 H815 0.930 . S
C807 Gd743 2.805 . S
C807 O783 1.263 . S
C807 O784 1.252 . S
C807 C801 1.500 . S
H808 C791 0.929 . S
H809 C792 0.930 . S
H810 C793 0.931 . S
H811 C794 0.930 . S
H812 C803 0.929 . S
H813 C804 0.930 . S
H814 C805 0.931 . S
H815 C806 0.930 . S
C816 C817 1.387 . S
C816 H820 0.950 . S
C816 C825 1.390 . S
C817 C816 1.387 . S
C817 C819 1.387 . S
H818 C825 0.950 . S
C819 C817 1.387 . S
C819 C821 1.390 . S
C819 H823 0.950 . S
H820 C816 0.950 . S
C821 C819 1.390 . S
C821 C822 1.387 . S
C821 H824 0.950 . S
C822 C821 1.387 . S
C822 C825 1.387 . S
H823 C819 0.950 . S
H824 C821 0.950 . S
C825 C816 1.390 . S
C825 H818 0.950 . S
C825 C822 1.387 . S
C826 C827 1.387 . S
C826 H830 0.950 . S
C826 C835 1.390 . S
C827 C826 1.387 . S
C827 C829 1.387 . S
H828 C835 0.950 . S
C829 C827 1.387 . S
C829 C831 1.390 . S
C829 H833 0.950 . S
H830 C826 0.950 . S
C831 C829 1.390 . S
C831 C832 1.387 . S
C831 H834 0.950 . S
C832 C831 1.387 . S
C832 C835 1.387 . S
H833 C829 0.950 . S
H834 C831 0.950 . S
C835 C826 1.390 . S
C835 H828 0.950 . S
C835 C832 1.387 . S
C836 C837 1.387 . S
C836 H840 0.950 . S
C836 C845 1.390 . S
C837 C836 1.387 . S
C837 C839 1.387 . S
H838 C845 0.950 . S
C839 C837 1.387 . S
C839 C841 1.390 . S
C839 H843 0.950 . S
H840 C836 0.950 . S
C841 C839 1.390 . S
C841 C842 1.387 . S
C841 H844 0.950 . S
C842 C841 1.387 . S
C842 C845 1.387 . S
H843 C839 0.950 . S
H844 C841 0.950 . S
C845 C836 1.390 . S
C845 H838 0.950 . S
C845 C842 1.387 . S
C846 C847 1.387 . S
C846 H850 0.950 . S
C846 C855 1.390 . S
C847 C846 1.387 . S
C847 C849 1.387 . S
H848 C855 0.950 . S
C849 C847 1.387 . S
C849 C851 1.390 . S
C849 H853 0.950 . S
H850 C846 0.950 . S
C851 C849 1.390 . S
C851 C852 1.387 . S
C851 H854 0.950 . S
C852 C851 1.387 . S
C852 C855 1.387 . S
H853 C849 0.950 . S
H854 C851 0.950 . S
C855 C846 1.390 . S
C855 H848 0.950 . S
C855 C852 1.387 . S
C856 C857 1.387 . S
C856 H860 0.950 . S
C856 C865 1.390 . S
C857 C856 1.387 . S
C857 C859 1.387 . S
H858 C865 0.950 . S
C859 C857 1.387 . S
C859 C861 1.390 . S
C859 H863 0.950 . S
H860 C856 0.950 . S
C861 C859 1.390 . S
C861 C862 1.387 . S
C861 H864 0.950 . S
C862 C861 1.387 . S
C862 C865 1.387 . S
H863 C859 0.950 . S
H864 C861 0.950 . S
C865 C856 1.390 . S
C865 H858 0.950 . S
C865 C862 1.387 . S
C866 C867 1.387 . S
C866 H870 0.950 . S
C866 C875 1.390 . S
C867 C866 1.387 . S
C867 C869 1.387 . S
H868 C875 0.950 . S
C869 C867 1.387 . S
C869 C871 1.390 . S
C869 H873 0.950 . S
H870 C866 0.950 . S
C871 C869 1.390 . S
C871 C872 1.387 . S
C871 H874 0.950 . S
C872 C871 1.387 . S
C872 C875 1.387 . S
H873 C869 0.950 . S
H874 C871 0.950 . S
C875 C866 1.390 . S
C875 H868 0.950 . S
C875 C872 1.387 . S
C876 C877 1.387 . S
C876 H880 0.950 . S
C876 C885 1.390 . S
C877 C876 1.387 . S
C877 C879 1.387 . S
H878 C885 0.950 . S
C879 C877 1.387 . S
C879 C881 1.390 . S
C879 H883 0.950 . S
H880 C876 0.950 . S
C881 C879 1.390 . S
C881 C882 1.387 . S
C881 H884 0.950 . S
C882 C881 1.387 . S
C882 C885 1.387 . S
H883 C879 0.950 . S
H884 C881 0.950 . S
C885 C876 1.390 . S
C885 H878 0.950 . S
C885 C882 1.387 . S
C886 C887 1.387 . S
C886 H890 0.950 . S
C886 C895 1.390 . S
C887 C886 1.387 . S
C887 C889 1.387 . S
H888 C895 0.950 . S
C889 C887 1.387 . S
C889 C891 1.390 . S
C889 H893 0.950 . S
H890 C886 0.950 . S
C891 C889 1.390 . S
C891 C892 1.387 . S
C891 H894 0.950 . S
C892 C891 1.387 . S
C892 C895 1.387 . S
H893 C889 0.950 . S
H894 C891 0.950 . S
C895 C886 1.390 . S
C895 H888 0.950 . S
C895 C892 1.387 . S
C896 C897 1.387 . S
C896 H900 0.950 . S
C896 C905 1.390 . S
C897 C896 1.387 . S
C897 C899 1.387 . S
H898 C905 0.950 . S
C899 C897 1.387 . S
C899 C901 1.390 . S
C899 H903 0.950 . S
H900 C896 0.950 . S
C901 C899 1.390 . S
C901 C902 1.387 . S
C901 H904 0.950 . S
C902 C901 1.387 . S
C902 C905 1.387 . S
H903 C899 0.950 . S
H904 C901 0.950 . S
C905 C896 1.390 . S
C905 H898 0.950 . S
C905 C902 1.387 . S
C906 C907 1.387 . S
C906 H910 0.950 . S
C906 C915 1.390 . S
C907 C906 1.387 . S
C907 C909 1.387 . S
H908 C915 0.950 . S
C909 C907 1.387 . S
C909 C911 1.390 . S
C909 H913 0.950 . S
H910 C906 0.950 . S
C911 C909 1.390 . S
C911 C912 1.387 . S
C911 H914 0.950 . S
C912 C911 1.387 . S
C912 C915 1.387 . S
H913 C909 0.950 . S
H914 C911 0.950 . S
C915 C906 1.390 . S
C915 H908 0.950 . S
C915 C912 1.387 . S
C916 C917 1.387 . S
C916 H920 0.950 . S
C916 C925 1.390 . S
C917 C916 1.387 . S
C917 C919 1.387 . S
H918 C925 0.950 . S
C919 C917 1.387 . S
C919 C921 1.390 . S
C919 H923 0.950 . S
H920 C916 0.950 . S
C921 C919 1.390 . S
C921 C922 1.387 . S
C921 H924 0.950 . S
C922 C921 1.387 . S
C922 C925 1.387 . S
H923 C919 0.950 . S
H924 C921 0.950 . S
C925 C916 1.390 . S
C925 H918 0.950 . S
C925 C922 1.387 . S
C926 C927 1.387 . S
C926 H930 0.950 . S
C926 C935 1.390 . S
C927 C926 1.387 . S
C927 C929 1.387 . S
H928 C935 0.950 . S
C929 C927 1.387 . S
C929 C931 1.390 . S
C929 H933 0.950 . S
H930 C926 0.950 . S
C931 C929 1.390 . S
C931 C932 1.387 . S
C931 H934 0.950 . S
C932 C931 1.387 . S
C932 C935 1.387 . S
H933 C929 0.950 . S
H934 C931 0.950 . S
C935 C926 1.390 . S
C935 H928 0.950 . S
C935 C932 1.387 . S
C936 C937 1.387 . S
C936 H940 0.950 . S
C936 C945 1.390 . S
C937 C936 1.387 . S
C937 C939 1.387 . S
H938 C945 0.950 . S
C939 C937 1.387 . S
C939 C941 1.390 . S
C939 H943 0.950 . S
H940 C936 0.950 . S
C941 C939 1.390 . S
C941 C942 1.387 . S
C941 H944 0.950 . S
C942 C941 1.387 . S
C942 C945 1.387 . S
H943 C939 0.950 . S
H944 C941 0.950 . S
C945 C936 1.390 . S
C945 H938 0.950 . S
C945 C942 1.387 . S
C946 C947 1.387 . S
C946 H950 0.950 . S
C946 C955 1.390 . S
C947 C946 1.387 . S
C947 C949 1.387 . S
H948 C955 0.950 . S
C949 C947 1.387 . S
C949 C951 1.390 . S
C949 H953 0.950 . S
H950 C946 0.950 . S
C951 C949 1.390 . S
C951 C952 1.387 . S
C951 H954 0.950 . S
C952 C951 1.387 . S
C952 C955 1.387 . S
H953 C949 0.950 . S
H954 C951 0.950 . S
C955 C946 1.390 . S
C955 H948 0.950 . S
C955 C952 1.387 . S
C956 C957 1.387 . S
C956 H960 0.950 . S
C956 C965 1.390 . S
C957 C956 1.387 . S
C957 C959 1.387 . S
H958 C965 0.950 . S
C959 C957 1.387 . S
C959 C961 1.390 . S
C959 H963 0.950 . S
H960 C956 0.950 . S
C961 C959 1.390 . S
C961 C962 1.387 . S
C961 H964 0.950 . S
C962 C961 1.387 . S
C962 C965 1.387 . S
H963 C959 0.950 . S
H964 C961 0.950 . S
C965 C956 1.390 . S
C965 H958 0.950 . S
C965 C962 1.387 . S
C966 C967 1.387 . S
C966 H970 0.950 . S
C966 C975 1.390 . S
C967 C966 1.387 . S
C967 C969 1.387 . S
H968 C975 0.950 . S
C969 C967 1.387 . S
C969 C971 1.390 . S
C969 H973 0.950 . S
H970 C966 0.950 . S
C971 C969 1.390 . S
C971 C972 1.387 . S
C971 H974 0.950 . S
C972 C971 1.387 . S
C972 C975 1.387 . S
H973 C969 0.950 . S
H974 C971 0.950 . S
C975 C966 1.390 . S
C975 H968 0.950 . S
C975 C972 1.387 . S
C976 C977 1.387 . S
C976 H980 0.950 . S
C976 C985 1.390 . S
C977 C976 1.387 . S
C977 C979 1.387 . S
H978 C985 0.948 . S
C979 C977 1.387 . S
C979 C981 1.390 . S
C979 H983 0.950 . S
H980 C976 0.950 . S
C981 C979 1.390 . S
C981 C982 1.387 . S
C981 H984 0.950 . S
C982 C981 1.387 . S
C982 C985 1.387 . S
H983 C979 0.950 . S
H984 C981 0.950 . S
C985 C976 1.390 . S
C985 H978 0.948 . S
C985 C982 1.387 . S
C986 C987 1.387 . S
C986 H990 0.950 . S
C986 C995 1.390 . S
C987 C986 1.387 . S
C987 C989 1.387 . S
H988 C995 0.950 . S
C989 C987 1.387 . S
C989 C991 1.390 . S
C989 H993 0.950 . S
H990 C986 0.950 . S
C991 C989 1.390 . S
C991 C992 1.387 . S
C991 H994 0.950 . S
C992 C991 1.387 . S
C992 C995 1.387 . S
H993 C989 0.950 . S
H994 C991 0.950 . S
C995 C986 1.390 . S
C995 H988 0.950 . S
C995 C992 1.387 . S
C996 C997 1.387 . S
C996 H1000 0.950 . S
C996 C1005 1.390 . S
C997 C996 1.387 . S
C997 C999 1.387 . S
H998 C1005 0.950 . S
C999 C997 1.387 . S
C999 C1001 1.390 . S
C999 H1003 0.950 . S
H1000 C996 0.950 . S
C1001 C999 1.390 . S
C1001 C1002 1.387 . S
C1001 H1004 0.950 . S
C1002 C1001 1.387 . S
C1002 C1005 1.387 . S
H1003 C999 0.950 . S
H1004 C1001 0.950 . S
C1005 C996 1.390 . S
C1005 H998 0.950 . S
C1005 C1002 1.387 . S
C1006 C1007 1.387 . S
C1006 H1010 0.950 . S
C1006 C1015 1.390 . S
C1007 C1006 1.387 . S
C1007 C1009 1.387 . S
H1008 C1015 0.950 . S
C1009 C1007 1.387 . S
C1009 C1011 1.390 . S
C1009 H1013 0.950 . S
H1010 C1006 0.950 . S
C1011 C1009 1.390 . S
C1011 C1012 1.387 . S
C1011 H1014 0.950 . S
C1012 C1011 1.387 . S
C1012 C1015 1.387 . S
H1013 C1009 0.950 . S
H1014 C1011 0.950 . S
C1015 C1006 1.390 . S
C1015 H1008 0.950 . S
C1015 C1012 1.387 . S
C1016 C1017 1.387 . S
C1016 H1020 0.950 . S
C1016 C1025 1.390 . S
C1017 C1016 1.387 . S
C1017 C1019 1.387 . S
H1018 C1025 0.950 . S
C1019 C1017 1.387 . S
C1019 C1021 1.390 . S
C1019 H1023 0.950 . S
H1020 C1016 0.950 . S
C1021 C1019 1.390 . S
C1021 C1022 1.387 . S
C1021 H1024 0.950 . S
C1022 C1021 1.387 . S
C1022 C1025 1.387 . S
H1023 C1019 0.950 . S
H1024 C1021 0.950 . S
C1025 C1016 1.390 . S
C1025 H1018 0.950 . S
C1025 C1022 1.387 . S
C1026 C1027 1.387 . S
C1026 H1030 0.950 . S
C1026 C1035 1.390 . S
C1027 C1026 1.387 . S
C1027 C1029 1.387 . S
H1028 C1035 0.950 . S
C1029 C1027 1.387 . S
C1029 C1031 1.390 . S
C1029 H1033 0.950 . S
H1030 C1026 0.950 . S
C1031 C1029 1.390 . S
C1031 C1032 1.387 . S
C1031 H1034 0.950 . S
C1032 C1031 1.387 . S
C1032 C1035 1.387 . S
H1033 C1029 0.950 . S
H1034 C1031 0.950 . S
C1035 C1026 1.390 . S
C1035 H1028 0.950 . S
C1035 C1032 1.387 . S
C1036 C1037 1.387 . S
C1036 H1040 0.950 . S
C1036 C1045 1.390 . S
C1037 C1036 1.387 . S
C1037 C1039 1.387 . S
H1038 C1045 0.950 . S
C1039 C1037 1.387 . S
C1039 C1041 1.390 . S
C1039 H1043 0.950 . S
H1040 C1036 0.950 . S
C1041 C1039 1.390 . S
C1041 C1042 1.387 . S
C1041 H1044 0.950 . S
C1042 C1041 1.387 . S
C1042 C1045 1.387 . S
H1043 C1039 0.950 . S
H1044 C1041 0.950 . S
C1045 C1036 1.390 . S
C1045 H1038 0.950 . S
C1045 C1042 1.387 . S
C1046 C1047 1.387 . S
C1046 H1050 0.950 . S
C1046 C1055 1.390 . S
C1047 C1046 1.387 . S
C1047 C1049 1.387 . S
H1048 C1055 0.950 . S
C1049 C1047 1.387 . S
C1049 C1051 1.390 . S
C1049 H1053 0.950 . S
H1050 C1046 0.950 . S
C1051 C1049 1.390 . S
C1051 C1052 1.387 . S
C1051 H1054 0.950 . S
C1052 C1051 1.387 . S
C1052 C1055 1.387 . S
H1053 C1049 0.950 . S
H1054 C1051 0.950 . S
C1055 C1046 1.390 . S
C1055 H1048 0.950 . S
C1055 C1052 1.387 . S
C817 C361 1.448 1_545 S
C822 C536 1.464 . S
C832 C620 1.465 . S
C827 C451 1.463 . S
C842 C619 1.474 . S
C837 C241 1.445 . S
C847 C331 1.457 1_545 S
C852 C535 1.473 . S
C862 C716 1.465 . S
C857 C140 1.441 1_565 S
C872 C800 1.464 . S
C867 C211 1.441 . S
C877 C20 1.427 . S
C882 C799 1.473 . S
C887 C91 1.430 1_565 S
C892 C715 1.474 . S
C902 C538 1.318 . S
C897 C80 1.478 . S
C912 C622 1.319 . S
C907 C1 1.477 . S
C922 C634 1.405 . S
C917 C200 1.526 . S
C932 C550 1.402 . S
C927 C121 1.497 . S
C942 C718 1.316 . S
C937 C320 1.507 . S
C947 C260 1.486 . S
C952 C802 1.316 . S
C962 C790 1.403 . S
C957 C440 1.525 . S
C967 C380 1.503 . S
C972 C706 1.402 . S
C982 C547 1.581 . S
C977 C31 1.554 . S
C992 C631 1.582 . S
C987 C61 1.555 . S
C997 C151 1.544 . S
C1002 C632 1.565 . S
C1012 C548 1.564 . S
C1007 C181 1.546 . S
C1022 C703 1.581 . S
C1017 C271 1.500 . S
C1027 C301 1.589 . S
C1032 C787 1.581 . S
C1037 C391 1.493 . S
C1042 C788 1.564 . S
C1047 C421 1.573 . S
C1052 C704 1.565 . S
