# Generated by pormake.
# Topology pyr, (3,6)-cn, num edge types: 1
# Building blocks:
#     Node 0, Type 0, BuildingBlock: BELTOD_clean_linker_0, # of connection points: 3
#     Node 1, Type 0, BuildingBlock: BELTOD_clean_linker_0, # of connection points: 3
#     Node 2, Type 0, BuildingBlock: BELTOD_clean_linker_0, # of connection points: 3
#     Node 3, Type 0, BuildingBlock: BELTOD_clean_linker_0, # of connection points: 3
#     Node 4, Type 0, BuildingBlock: BELTOD_clean_linker_0, # of connection points: 3
#     Node 5, Type 0, BuildingBlock: BELTOD_clean_linker_0, # of connection points: 3
#     Node 6, Type 0, BuildingBlock: BELTOD_clean_linker_0, # of connection points: 3
#     Node 7, Type 0, BuildingBlock: BELTOD_clean_linker_0, # of connection points: 3
#     Node 8, Type 1, BuildingBlock: MIDCAF_clean_sbu_0, # of connection points: 6
#     Node 9, Type 1, BuildingBlock: MIDCAF_clean_sbu_0, # of connection points: 6
#     Node 10, Type 1, BuildingBlock: MIDCAF_clean_sbu_0, # of connection points: 6
#     Node 11, Type 1, BuildingBlock: MIDCAF_clean_sbu_0, # of connection points: 6
#     Edge 12, Type (0, 1), None
#     Edge 13, Type (0, 1), None
#     Edge 14, Type (0, 1), None
#     Edge 15, Type (0, 1), None
#     Edge 16, Type (0, 1), None
#     Edge 17, Type (0, 1), None
#     Edge 18, Type (0, 1), None
#     Edge 19, Type (0, 1), None
#     Edge 20, Type (0, 1), None
#     Edge 21, Type (0, 1), None
#     Edge 22, Type (0, 1), None
#     Edge 23, Type (0, 1), None
#     Edge 24, Type (0, 1), None
#     Edge 25, Type (0, 1), None
#     Edge 26, Type (0, 1), None
#     Edge 27, Type (0, 1), None
#     Edge 28, Type (0, 1), None
#     Edge 29, Type (0, 1), None
#     Edge 30, Type (0, 1), None
#     Edge 31, Type (0, 1), None
#     Edge 32, Type (0, 1), None
#     Edge 33, Type (0, 1), None
#     Edge 34, Type (0, 1), None
#     Edge 35, Type (0, 1), None
# Relax obj value: 0.021
# Max RMSD: 0.064
# Mean RMSD: 0.032
data_MOF--net-pyr--node1-MIDCAF_clean_sbu_0--node2-BELTOD_clean_linker_0--edge1-none
_symmetry_space_group_name_H-M    P1
_symmetry_Int_Tables_number       1
_symmetry_cell_setting            triclinic
loop_
_symmetry_equiv_pos_as_xyz
'x, y, z'
_cell_length_a     20.584535
_cell_length_b     20.7176
_cell_length_c     20.324759
_cell_angle_alpha  88.244836
_cell_angle_beta   89.809811
_cell_angle_gamma 90.574959
loop_
_atom_site_label
_atom_site_type_symbol
_atom_site_fract_x
_atom_site_fract_y
_atom_site_fract_z
_atom_type_partial_charge
P0 P 0.28557 0.27551 0.27608 0.0
H1 H 0.4066 0.30363 0.20443 0.0
H2 H 0.46952 0.24219 0.12495 0.0
H3 H 0.33524 0.08224 0.14916 0.0
H4 H 0.27064 0.1444 0.22572 0.0
H5 H 0.28038 0.41662 0.24866 0.0
H6 H 0.20472 0.48398 0.1836 0.0
H7 H 0.10349 0.31203 0.12442 0.0
H8 H 0.17888 0.24526 0.1886 0.0
H9 H 0.3213 0.16173 0.35515 0.0
H10 H 0.14813 0.27334 0.32151 0.0
O11 O 0.33391 0.32161 0.32121 0.0
H12 H 0.25801 0.0815 0.41947 0.0
H13 H 0.08461 0.19302 0.38603 0.0
C14 C 0.33494 0.22801 0.22257 0.0
C15 C 0.39127 0.25496 0.19352 0.0
C16 C 0.42729 0.21988 0.14851 0.0
C17 C 0.40807 0.15695 0.13301 0.0
C18 C 0.35197 0.1299 0.16222 0.0
C19 C 0.31515 0.16551 0.20596 0.0
C20 C 0.23418 0.32591 0.22462 0.0
C21 C 0.24229 0.39346 0.22105 0.0
C22 C 0.19972 0.43196 0.18321 0.0
C23 C 0.14852 0.40323 0.14886 0.0
C24 C 0.14248 0.33549 0.1506 0.0
C25 C 0.1853 0.29725 0.18746 0.0
C26 C 0.23919 0.22237 0.33141 0.0
C27 C 0.26975 0.16927 0.36198 0.0
C28 C 0.23356 0.12346 0.39877 0.0
C29 C 0.16631 0.13083 0.40745 0.0
C30 C 0.1364 0.18622 0.38036 0.0
C31 C 0.17266 0.23185 0.34289 0.0
P32 P 0.31563 0.8099 0.72396 0.0
H33 H 0.4462 0.80749 0.77632 0.0
H34 H 0.4955 0.86833 0.86434 0.0
H35 H 0.30523 0.92467 0.92927 0.0
H36 H 0.25537 0.85848 0.84523 0.0
H37 H 0.30275 0.74761 0.5989 0.0
H38 H 0.36685 0.66256 0.55105 0.0
H39 H 0.45086 0.61873 0.74122 0.0
H40 H 0.38266 0.7004 0.79029 0.0
H41 H 0.24393 0.92719 0.74504 0.0
H42 H 0.20337 0.73783 0.67143 0.0
O43 O 0.35496 0.86055 0.6719 0.0
H44 H 0.14804 0.96898 0.69013 0.0
H45 H 0.11007 0.78125 0.61156 0.0
C46 C 0.34712 0.82943 0.80333 0.0
C47 C 0.41475 0.82948 0.81192 0.0
C48 C 0.44301 0.86447 0.86202 0.0
C49 C 0.4039 0.90165 0.90227 0.0
C50 C 0.33607 0.89637 0.89816 0.0
C51 C 0.3077 0.8591 0.84969 0.0
C52 C 0.33857 0.73113 0.69799 0.0
C53 C 0.33187 0.71718 0.63123 0.0
C54 C 0.36887 0.6688 0.60374 0.0
C55 C 0.41447 0.63533 0.64241 0.0
C56 C 0.4163 0.64461 0.71048 0.0
C57 C 0.37752 0.69154 0.73839 0.0
C58 C 0.23145 0.82943 0.71196 0.0
C59 C 0.21255 0.89362 0.72011 0.0
C60 C 0.15758 0.91772 0.68836 0.0
C61 C 0.12253 0.87852 0.64581 0.0
C62 C 0.13675 0.81241 0.64398 0.0
C63 C 0.19054 0.78776 0.67775 0.0
P64 P 0.79139 0.28072 0.76153 0.0
H65 H 0.91124 0.25888 0.83556 0.0
H66 H 0.969 0.32261 0.91747 0.0
H67 H 0.82833 0.47411 0.89347 0.0
H68 H 0.76953 0.40989 0.81304 0.0
H69 H 0.78241 0.13978 0.78822 0.0
H70 H 0.70394 0.07251 0.85184 0.0
H71 H 0.60364 0.24402 0.90831 0.0
H72 H 0.68143 0.31095 0.84483 0.0
H73 H 0.83114 0.3929 0.68081 0.0
H74 H 0.65662 0.27848 0.70996 0.0
O75 O 0.84261 0.23472 0.72033 0.0
H76 H 0.77174 0.46832 0.60889 0.0
H77 H 0.59672 0.35466 0.6391 0.0
C78 C 0.83706 0.33032 0.81684 0.0
C79 C 0.89342 0.30626 0.84701 0.0
C80 C 0.92641 0.3426 0.89357 0.0
C81 C 0.90385 0.40376 0.91002 0.0
C82 C 0.84742 0.42776 0.88007 0.0
C83 C 0.81396 0.39108 0.83415 0.0
C84 C 0.73707 0.23039 0.81111 0.0
C85 C 0.74393 0.16292 0.8149 0.0
C86 C 0.69983 0.12447 0.85201 0.0
C87 C 0.64855 0.15316 0.88568 0.0
C88 C 0.64296 0.22075 0.8829 0.0
C89 C 0.68719 0.25901 0.84655 0.0
C90 C 0.74803 0.33113 0.70246 0.0
C91 C 0.78017 0.38369 0.67136 0.0
C92 C 0.74621 0.42665 0.6301 0.0
C93 C 0.67961 0.41721 0.61804 0.0
C94 C 0.6482 0.36261 0.64655 0.0
C95 C 0.68232 0.31955 0.68794 0.0
P96 P 0.762 0.7983 0.2403 0.0
H97 H 0.85095 0.90566 0.21229 0.0
H98 H 0.93041 0.96208 0.28038 0.0
H99 H 0.86225 0.85418 0.45214 0.0
H100 H 0.78648 0.79464 0.38391 0.0
H101 H 0.79284 0.77204 0.1018 0.0
H102 H 0.8626 0.69102 0.05215 0.0
H103 H 0.92224 0.62445 0.24544 0.0
H104 H 0.85213 0.70455 0.29511 0.0
H105 H 0.66978 0.83353 0.34234 0.0
H106 H 0.71765 0.66212 0.2377 0.0
O107 O 0.72565 0.84533 0.1837 0.0
H108 H 0.60554 0.76774 0.42123 0.0
H109 H 0.65233 0.59657 0.31569 0.0
C110 C 0.81102 0.84741 0.2931 0.0
C111 C 0.8521 0.89507 0.2648 0.0
C112 C 0.8974 0.92716 0.30355 0.0
C113 C 0.90119 0.91299 0.37138 0.0
C114 C 0.85893 0.86676 0.40013 0.0
C115 C 0.81514 0.83317 0.36103 0.0
C116 C 0.81756 0.74423 0.20212 0.0
C117 C 0.82186 0.74087 0.13343 0.0
C118 C 0.86237 0.6954 0.10503 0.0
C119 C 0.89889 0.65302 0.145 0.0
C120 C 0.89507 0.65722 0.21366 0.0
C121 C 0.8551 0.70284 0.24197 0.0
C122 C 0.70114 0.75238 0.28626 0.0
C123 C 0.66542 0.78201 0.33552 0.0
C124 C 0.62867 0.74446 0.38041 0.0
C125 C 0.62498 0.67707 0.37494 0.0
C126 C 0.65461 0.64841 0.32103 0.0
C127 C 0.69253 0.68591 0.27688 0.0
P128 P 0.97927 0.98278 0.97681 0.0
H129 H 0.91557 0.03895 0.08915 0.0
H130 H 0.80163 0.05734 0.11561 0.0
H131 H 0.74619 0.99349 0.92356 0.0
H132 H 0.86079 0.97711 0.89625 0.0
H133 H 0.08593 0.91577 0.04206 0.0
H134 H 0.11081 0.80127 0.05657 0.0
H135 H 0.92414 0.75148 0.97612 0.0
H136 H 0.89799 0.86621 0.96397 0.0
H137 H 0.01938 0.09815 0.90338 0.0
H138 H 0.98635 0.89752 0.86203 0.0
O139 O 0.02794 0.02853 0.02203 0.0
H140 H 0.03422 0.12262 0.78637 0.0
H141 H 0.00077 0.922 0.74407 0.0
C142 C 0.89671 0.00714 0.99061 0.0
C143 C 0.87923 0.0312 0.05173 0.0
C144 C 0.8141 0.04212 0.06665 0.0
C145 C 0.76511 0.02865 0.02087 0.0
C146 C 0.78298 0.00729 0.95849 0.0
C147 C 0.84841 0.99668 0.94341 0.0
C148 C 0.98998 0.89957 0.00228 0.0
C149 C 0.04901 0.88038 0.03036 0.0
C150 C 0.06302 0.81493 0.03916 0.0
C151 C 0.01841 0.76759 0.01962 0.0
C152 C 0.95777 0.7868 0.99499 0.0
C153 C 0.94344 0.85248 0.98678 0.0
C154 C 0.00154 0.99622 0.89159 0.0
C155 C 0.0169 0.05903 0.86929 0.0
C156 C 0.02564 0.07285 0.80229 0.0
C157 C 0.01857 0.02416 0.75599 0.0
C158 C 0.00729 0.96029 0.77863 0.0
C159 C 0.99836 0.94647 0.8461 0.0
P160 P 0.62634 0.12919 0.41085 0.0
H161 H 0.68924 0.23625 0.47279 0.0
H162 H 0.64308 0.33609 0.50961 0.0
H163 H 0.4522 0.24674 0.51342 0.0
H164 H 0.49874 0.14795 0.47204 0.0
H165 H 0.72484 0.04887 0.35607 0.0
H166 H 0.82155 0.00646 0.40787 0.0
H167 H 0.73464 0.03048 0.59934 0.0
H168 H 0.63944 0.07807 0.54664 0.0
H169 H 0.5499 0.18512 0.3061 0.0
H170 H 0.56793 0.99923 0.40508 0.0
O171 O 0.67443 0.1714 0.35861 0.0
H172 H 0.51356 0.13341 0.20798 0.0
H173 H 0.5256 0.94698 0.30813 0.0
C174 C 0.59678 0.18626 0.46733 0.0
C175 C 0.63779 0.23741 0.48405 0.0
C176 C 0.61135 0.29442 0.50608 0.0
C177 C 0.5438 0.29982 0.51329 0.0
C178 C 0.50441 0.24432 0.50721 0.0
C179 C 0.53081 0.18777 0.48352 0.0
C180 C 0.67703 0.0692 0.44792 0.0
C181 C 0.72556 0.04252 0.40919 0.0
C182 C 0.7807 0.01691 0.43897 0.0
C183 C 0.78664 0.01642 0.50771 0.0
C184 C 0.73204 0.03168 0.54607 0.0
C185 C 0.67758 0.05907 0.51617 0.0
C186 C 0.56418 0.09556 0.36115 0.0
C187 C 0.54155 0.13336 0.30809 0.0
C188 C 0.5194 0.10364 0.25192 0.0
C189 C 0.51768 0.03602 0.24957 0.0
C190 C 0.5278 0.99926 0.30802 0.0
C191 C 0.552 0.02901 0.36361 0.0
P192 P 0.48083 0.57659 0.04933 0.0
H193 H 0.40803 0.52393 0.94078 0.0
H194 H 0.29215 0.50877 0.92135 0.0
H195 H 0.24988 0.57292 0.11672 0.0
H196 H 0.36674 0.58703 0.13666 0.0
H197 H 0.6015 0.64183 0.01628 0.0
H198 H 0.63227 0.75556 0.00659 0.0
H199 H 0.43114 0.80913 0.02666 0.0
H200 H 0.40038 0.69438 0.03658 0.0
H201 H 0.52293 0.45835 0.11523 0.0
H202 H 0.49159 0.65596 0.1671 0.0
O203 O 0.52393 0.53048 -0.00029 0.0
H204 H 0.54092 0.42887 0.23068 0.0
H205 H 0.50918 0.62645 0.28344 0.0
C206 C 0.39605 0.55645 0.04013 0.0
C207 C 0.37417 0.5329 0.98027 0.0
C208 C 0.30791 0.52375 0.96942 0.0
C209 C 0.26211 0.53842 0.01807 0.0
C210 C 0.28417 0.55902 0.07934 0.0
C211 C 0.35087 0.56813 0.09026 0.0
C212 C 0.49884 0.65966 0.02725 0.0
C213 C 0.56371 0.67784 0.01661 0.0
C214 C 0.58119 0.7429 0.01087 0.0
C215 C 0.53406 0.79115 0.01587 0.0
C216 C 0.4683 0.77292 0.02172 0.0
C217 C 0.45081 0.70736 0.02799 0.0
C218 C 0.50605 0.55921 0.1326 0.0
C219 C 0.52174 0.49577 0.15126 0.0
C220 C 0.53233 0.47908 0.21727 0.0
C221 C 0.52687 0.5255 0.26601 0.0
C222 C 0.51501 0.59001 0.24684 0.0
C223 C 0.50427 0.60671 0.18044 0.0
P224 P 0.14113 0.40124 0.63635 0.0
H225 H 0.19113 0.29268 0.5674 0.0
H226 H 0.13594 0.20133 0.52041 0.0
H227 H 0.95358 0.3027 0.53014 0.0
H228 H 0.00938 0.39298 0.58099 0.0
H229 H 0.25084 0.47424 0.68405 0.0
H230 H 0.3437 0.52093 0.62536 0.0
H231 H 0.24071 0.5039 0.44147 0.0
H232 H 0.14877 0.45452 0.5008 0.0
H233 H 0.07356 0.35432 0.75342 0.0
H234 H 0.08344 0.53045 0.63513 0.0
O235 O 0.18782 0.35513 0.68521 0.0
H236 H 0.03063 0.41319 0.84481 0.0
H237 H 0.03643 0.58952 0.72559 0.0
C238 C 0.1037 0.34798 0.57985 0.0
C239 C 0.13957 0.29602 0.55747 0.0
C240 C 0.10793 0.24404 0.52937 0.0
C241 C 0.04007 0.24415 0.52196 0.0
C242 C 0.00584 0.30077 0.53579 0.0
C243 C 0.03752 0.35234 0.56522 0.0
C244 C 0.1946 0.4586 0.5962 0.0
C245 C 0.24745 0.48271 0.63131 0.0
C246 C 0.30034 0.51043 0.59764 0.0
C247 C 0.30027 0.51492 0.52854 0.0
C248 C 0.24266 0.50003 0.49471 0.0
C249 C 0.19012 0.47145 0.52845 0.0
C250 C 0.08403 0.43882 0.68901 0.0
C251 C 0.0633 0.40523 0.74614 0.0
C252 C 0.0374 0.43884 0.7982 0.0
C253 C 0.03074 0.50618 0.79294 0.0
C254 C 0.04188 0.53771 0.73148 0.0
C255 C 0.06901 0.50414 0.67975 0.0
Zn256 Zn 0.94035 0.09703 0.58871 0.0
Zn257 Zn 0.07841 0.95318 0.4592 0.0
Zn258 Zn 0.00598 0.02677 0.53026 0.0
C259 C 0.12742 0.07794 0.43933 0.0
C260 C 0.95419 0.94032 0.41029 0.0
O261 O 0.01732 0.00423 0.63852 0.0
O262 O 0.98484 0.0979 0.67392 0.0
C263 C 0.00462 0.18201 0.51857 0.0
O264 O 0.07635 0.08952 0.47376 0.0
O265 O 0.14363 0.02031 0.4298 0.0
O266 O 0.01175 0.92708 0.39462 0.0
O267 O 0.94251 0.97426 0.46107 0.0
O268 O 0.94625 0.17979 0.53762 0.0
O269 O 0.03624 0.12883 0.51426 0.0
O270 O 0.90335 0.01136 0.50289 0.0
O271 O 0.85661 0.05047 0.59024 0.0
C272 C 0.85172 0.02112 0.53712 0.0
O273 O 0.05451 0.96139 0.59997 0.0
O274 O 0.09968 0.89197 0.53364 0.0
C275 C 0.00929 0.04337 0.68605 0.0
C276 C 0.08688 0.90958 0.5912 0.0
Zn277 Zn 0.46523 0.08646 0.95446 0.0
Zn278 Zn 0.60534 0.94837 0.10357 0.0
Zn279 Zn 0.54298 0.01307 0.02908 0.0
C280 C 0.69742 0.02106 0.04418 0.0
C281 C 0.55566 0.85757 0.02933 0.0
O282 O 0.48289 0.07958 0.09004 0.0
O283 O 0.42222 0.1379 0.02119 0.0
C284 C 0.59657 0.11433 0.9184 0.0
O285 O 0.64824 0.02932 0.00569 0.0
O286 O 0.68887 0.99571 0.10076 0.0
O287 O 0.60685 0.86414 0.06229 0.0
O288 O 0.52079 0.90757 0.01538 0.0
O289 O 0.53852 0.12914 0.9053 0.0
O290 O 0.60904 0.07039 0.96272 0.0
O291 O 0.48145 0.947 0.97513 0.0
O292 O 0.41575 0.01226 0.91903 0.0
C293 C 0.43336 0.95593 0.93584 0.0
O294 O 0.52119 0.03856 0.13133 0.0
O295 O 0.55438 0.95155 0.18558 0.0
C296 C 0.44003 0.12379 0.07902 0.0
C297 C 0.52652 0.0054 0.18577 0.0
Zn298 Zn 0.59274 0.59054 0.56222 0.0
Zn299 Zn 0.44907 0.44891 0.43272 0.0
Zn300 Zn 0.5199 0.51632 0.49199 0.0
C301 C 0.51393 0.36404 0.50796 0.0
C302 C 0.51876 0.50327 0.33522 0.0
O303 O 0.45699 0.56839 0.55894 0.0
O304 O 0.52525 0.61503 0.62697 0.0
C305 C 0.64225 0.46855 0.58321 0.0
O306 O 0.54883 0.41584 0.51113 0.0
O307 O 0.45713 0.36756 0.48521 0.0
O308 O 0.49057 0.44969 0.34567 0.0
O309 O 0.5307 0.53991 0.38406 0.0
O310 O 0.65851 0.52657 0.59194 0.0
O311 O 0.59131 0.45563 0.54894 0.0
O312 O 0.56702 0.58451 0.42097 0.0
O313 O 0.6136 0.65299 0.48813 0.0
C314 C 0.59933 0.63694 0.43042 0.0
O315 O 0.41663 0.52622 0.52275 0.0
O316 O 0.36397 0.49133 0.43668 0.0
C317 C 0.46779 0.60213 0.60993 0.0
C318 C 0.36263 0.51604 0.49251 0.0
Zn319 Zn 0.09834 0.61406 0.93379 0.0
Zn320 Zn 0.96537 0.47246 0.08985 0.0
Zn321 Zn 0.03995 0.54634 0.01307 0.0
C322 C 0.09612 0.44176 0.11782 0.0
C323 C 0.93444 0.43885 0.96383 0.0
O324 O 0.01228 0.65046 0.02476 0.0
O325 O 0.09191 0.69993 0.96979 0.0
C326 C 0.19389 0.54756 0.99822 0.0
O327 O 0.10766 0.49147 0.07957 0.0
O328 O 0.03847 0.42229 0.12763 0.0
O329 O 0.91245 0.42988 0.02141 0.0
O330 O 0.98259 0.47806 0.95271 0.0
O331 O 0.18436 0.57464 0.94279 0.0
O332 O 0.14532 0.53524 0.03712 0.0
O333 O 0.02475 0.51552 0.91036 0.0
O334 O 0.05435 0.60061 0.84946 0.0
C335 C 0.03155 0.54396 0.85327 0.0
O336 O 0.97346 0.61 0.06655 0.0
O337 O 0.92672 0.5435 0.14034 0.0
C338 C 0.04271 0.70281 0.0064 0.0
C339 C 0.93509 0.59985 0.11616 0.0
loop_
_geom_bond_atom_site_label_1
_geom_bond_atom_site_label_2
_geom_bond_distance
_geom_bond_site_symmetry_2
_ccdc_geom_bond_type
P0 O11 1.490 . S
P0 C14 1.812 . S
P0 C20 1.803 . S
P0 C26 1.819 . S
H1 C15 0.941 . S
H2 C16 0.939 . S
H3 C18 0.940 . S
H4 C19 0.940 . S
H5 C21 0.939 . S
H6 C22 0.942 . S
H7 C24 0.940 . S
H8 C25 0.939 . S
H9 C27 0.941 . S
H10 C31 0.939 . S
O11 P0 1.490 . S
H12 C28 0.939 . S
H13 C30 0.940 . S
C14 P0 1.812 . S
C14 C15 1.389 . S
C14 C19 1.391 . S
C15 H1 0.941 . S
C15 C14 1.389 . S
C15 C16 1.397 . S
C16 H2 0.939 . S
C16 C15 1.397 . S
C16 C17 1.378 . S
C17 C16 1.378 . S
C17 C18 1.378 . S
C18 H3 0.940 . S
C18 C17 1.378 . S
C18 C19 1.396 . S
C19 H4 0.940 . S
C19 C14 1.391 . S
C19 C18 1.396 . S
C20 P0 1.803 . S
C20 C21 1.378 . S
C20 C25 1.400 . S
C21 H5 0.939 . S
C21 C20 1.378 . S
C21 C22 1.361 . S
C22 H6 0.942 . S
C22 C21 1.361 . S
C22 C23 1.369 . S
C23 C22 1.369 . S
C23 C24 1.404 . S
C24 H7 0.940 . S
C24 C23 1.404 . S
C24 C25 1.389 . S
C25 H8 0.939 . S
C25 C20 1.400 . S
C25 C24 1.389 . S
C26 P0 1.819 . S
C26 C27 1.391 . S
C26 C31 1.391 . S
C27 H9 0.941 . S
C27 C26 1.391 . S
C27 C28 1.396 . S
C28 H12 0.939 . S
C28 C27 1.396 . S
C28 C29 1.397 . S
C29 C28 1.397 . S
C29 C30 1.385 . S
C30 H13 0.940 . S
C30 C29 1.385 . S
C30 C31 1.388 . S
C31 H10 0.939 . S
C31 C26 1.391 . S
C31 C30 1.388 . S
P32 O43 1.490 . S
P32 C46 1.812 . S
P32 C52 1.803 . S
P32 C58 1.819 . S
H33 C47 0.941 . S
H34 C48 0.939 . S
H35 C50 0.940 . S
H36 C51 0.940 . S
H37 C53 0.939 . S
H38 C54 0.942 . S
H39 C56 0.940 . S
H40 C57 0.939 . S
H41 C59 0.941 1_545 S
H42 C63 0.939 . S
O43 P32 1.490 . S
H44 C60 0.939 1_545 S
H45 C62 0.940 . S
C46 P32 1.812 . S
C46 C47 1.389 . S
C46 C51 1.391 . S
C47 H33 0.941 . S
C47 C46 1.389 . S
C47 C48 1.397 . S
C48 H34 0.939 . S
C48 C47 1.397 . S
C48 C49 1.378 . S
C49 C48 1.378 . S
C49 C50 1.378 . S
C50 H35 0.940 . S
C50 C49 1.378 . S
C50 C51 1.396 . S
C51 H36 0.940 . S
C51 C46 1.391 . S
C51 C50 1.396 . S
C52 P32 1.803 . S
C52 C53 1.378 . S
C52 C57 1.400 . S
C53 H37 0.939 . S
C53 C52 1.378 . S
C53 C54 1.361 . S
C54 H38 0.942 . S
C54 C53 1.361 . S
C54 C55 1.369 . S
C55 C54 1.369 . S
C55 C56 1.404 . S
C56 H39 0.940 . S
C56 C55 1.404 . S
C56 C57 1.389 . S
C57 H40 0.939 . S
C57 C52 1.400 . S
C57 C56 1.389 . S
C58 P32 1.819 . S
C58 C59 1.391 . S
C58 C63 1.391 . S
C59 H41 0.941 1_565 S
C59 C58 1.391 . S
C59 C60 1.396 . S
C60 H44 0.939 1_565 S
C60 C59 1.396 . S
C60 C61 1.397 . S
C61 C60 1.397 . S
C61 C62 1.385 . S
C62 H45 0.940 . S
C62 C61 1.385 . S
C62 C63 1.388 . S
C63 H42 0.939 . S
C63 C58 1.391 . S
C63 C62 1.388 . S
P64 O75 1.490 . S
P64 C78 1.812 . S
P64 C84 1.803 . S
P64 C90 1.819 . S
H65 C79 0.941 . S
H66 C80 0.939 . S
H67 C82 0.940 . S
H68 C83 0.940 . S
H69 C85 0.939 . S
H70 C86 0.942 . S
H71 C88 0.940 . S
H72 C89 0.939 . S
H73 C91 0.941 . S
H74 C95 0.939 . S
O75 P64 1.490 . S
H76 C92 0.939 . S
H77 C94 0.940 . S
C78 P64 1.812 . S
C78 C79 1.389 . S
C78 C83 1.391 . S
C79 H65 0.941 . S
C79 C78 1.389 . S
C79 C80 1.397 . S
C80 H66 0.939 . S
C80 C79 1.397 . S
C80 C81 1.378 . S
C81 C80 1.378 . S
C81 C82 1.378 . S
C82 H67 0.940 . S
C82 C81 1.378 . S
C82 C83 1.396 . S
C83 H68 0.940 . S
C83 C78 1.391 . S
C83 C82 1.396 . S
C84 P64 1.803 . S
C84 C85 1.378 . S
C84 C89 1.400 . S
C85 H69 0.939 . S
C85 C84 1.378 . S
C85 C86 1.361 . S
C86 H70 0.942 . S
C86 C85 1.361 . S
C86 C87 1.369 . S
C87 C86 1.369 . S
C87 C88 1.404 . S
C88 H71 0.940 . S
C88 C87 1.404 . S
C88 C89 1.389 . S
C89 H72 0.939 . S
C89 C84 1.400 . S
C89 C88 1.389 . S
C90 P64 1.819 . S
C90 C91 1.391 . S
C90 C95 1.391 . S
C91 H73 0.941 . S
C91 C90 1.391 . S
C91 C92 1.396 . S
C92 H76 0.939 . S
C92 C91 1.396 . S
C92 C93 1.397 . S
C93 C92 1.397 . S
C93 C94 1.385 . S
C94 H77 0.940 . S
C94 C93 1.385 . S
C94 C95 1.388 . S
C95 H74 0.939 . S
C95 C90 1.391 . S
C95 C94 1.388 . S
P96 O107 1.490 . S
P96 C110 1.812 . S
P96 C116 1.803 . S
P96 C122 1.819 . S
H97 C111 0.941 . S
H98 C112 0.939 . S
H99 C114 0.940 . S
H100 C115 0.940 . S
H101 C117 0.939 . S
H102 C118 0.942 . S
H103 C120 0.940 . S
H104 C121 0.939 . S
H105 C123 0.941 . S
H106 C127 0.939 . S
O107 P96 1.490 . S
H108 C124 0.939 . S
H109 C126 0.940 . S
C110 P96 1.812 . S
C110 C111 1.389 . S
C110 C115 1.391 . S
C111 H97 0.941 . S
C111 C110 1.389 . S
C111 C112 1.397 . S
C112 H98 0.939 . S
C112 C111 1.397 . S
C112 C113 1.378 . S
C113 C112 1.378 . S
C113 C114 1.378 . S
C114 H99 0.940 . S
C114 C113 1.378 . S
C114 C115 1.396 . S
C115 H100 0.940 . S
C115 C110 1.391 . S
C115 C114 1.396 . S
C116 P96 1.803 . S
C116 C117 1.378 . S
C116 C121 1.400 . S
C117 H101 0.939 . S
C117 C116 1.378 . S
C117 C118 1.361 . S
C118 H102 0.942 . S
C118 C117 1.361 . S
C118 C119 1.369 . S
C119 C118 1.369 . S
C119 C120 1.404 . S
C120 H103 0.940 . S
C120 C119 1.404 . S
C120 C121 1.389 . S
C121 H104 0.939 . S
C121 C116 1.400 . S
C121 C120 1.389 . S
C122 P96 1.819 . S
C122 C123 1.391 . S
C122 C127 1.391 . S
C123 H105 0.941 . S
C123 C122 1.391 . S
C123 C124 1.396 . S
C124 H108 0.939 . S
C124 C123 1.396 . S
C124 C125 1.397 . S
C125 C124 1.397 . S
C125 C126 1.385 . S
C126 H109 0.940 . S
C126 C125 1.385 . S
C126 C127 1.388 . S
C127 H106 0.939 . S
C127 C122 1.391 . S
C127 C126 1.388 . S
P128 O139 1.490 1_666 S
P128 C142 1.812 1_556 S
P128 C148 1.803 1_556 S
P128 C154 1.819 . S
H129 C143 0.941 . S
H130 C144 0.939 . S
H131 C146 0.940 . S
H132 C147 0.940 . S
H133 C149 0.939 . S
H134 C150 0.942 . S
H135 C152 0.941 . S
H136 C153 0.939 . S
H137 C155 0.941 . S
H138 C159 0.939 . S
O139 P128 1.490 1_444 S
H140 C156 0.939 . S
H141 C158 0.940 . S
C142 P128 1.812 1_554 S
C142 C143 1.389 1_565 S
C142 C147 1.391 1_554 S
C143 H129 0.941 . S
C143 C142 1.389 1_545 S
C143 C144 1.397 . S
C144 H130 0.939 . S
C144 C143 1.397 . S
C144 C145 1.378 . S
C145 C144 1.378 . S
C145 C146 1.378 1_544 S
C146 H131 0.940 . S
C146 C145 1.378 1_566 S
C146 C147 1.396 . S
C147 H132 0.940 . S
C147 C142 1.391 1_556 S
C147 C146 1.396 . S
C148 P128 1.803 1_554 S
C148 C149 1.378 1_655 S
C148 C153 1.400 1_554 S
C149 H133 0.939 . S
C149 C148 1.378 1_455 S
C149 C150 1.361 . S
C150 H134 0.942 . S
C150 C149 1.361 . S
C150 C151 1.369 . S
C151 C150 1.369 . S
C151 C152 1.402 1_454 S
C152 H135 0.941 . S
C152 C151 1.402 1_656 S
C152 C153 1.390 . S
C153 H136 0.939 . S
C153 C148 1.400 1_556 S
C153 C152 1.390 . S
C154 P128 1.819 . S
C154 C155 1.391 1_565 S
C154 C159 1.391 1_655 S
C155 H137 0.941 . S
C155 C154 1.391 1_545 S
C155 C156 1.396 1_655 S
C156 H140 0.939 . S
C156 C155 1.396 1_455 S
C156 C157 1.397 . S
C157 C156 1.397 . S
C157 C158 1.385 1_545 S
C158 H141 0.940 . S
C158 C157 1.385 1_565 S
C158 C159 1.388 . S
C159 H138 0.939 . S
C159 C154 1.391 1_455 S
C159 C158 1.388 . S
P160 O171 1.490 . S
P160 C174 1.812 . S
P160 C180 1.803 . S
P160 C186 1.819 . S
H161 C175 0.941 . S
H162 C176 0.939 . S
H163 C178 0.940 . S
H164 C179 0.940 . S
H165 C181 0.939 . S
H166 C182 0.942 . S
H167 C184 0.940 . S
H168 C185 0.939 . S
H169 C187 0.941 . S
H170 C191 0.939 . S
O171 P160 1.490 . S
H172 C188 0.939 . S
H173 C190 0.940 1_565 S
C174 P160 1.812 . S
C174 C175 1.389 . S
C174 C179 1.391 . S
C175 H161 0.941 . S
C175 C174 1.389 . S
C175 C176 1.397 . S
C176 H162 0.939 . S
C176 C175 1.397 . S
C176 C177 1.378 . S
C177 C176 1.378 . S
C177 C178 1.378 . S
C178 H163 0.940 . S
C178 C177 1.378 . S
C178 C179 1.396 . S
C179 H164 0.940 . S
C179 C174 1.391 . S
C179 C178 1.396 . S
C180 P160 1.803 . S
C180 C181 1.378 . S
C180 C185 1.400 . S
C181 H165 0.939 . S
C181 C180 1.378 . S
C181 C182 1.361 . S
C182 H166 0.942 . S
C182 C181 1.361 . S
C182 C183 1.369 . S
C183 C182 1.369 . S
C183 C184 1.404 . S
C184 H167 0.940 . S
C184 C183 1.404 . S
C184 C185 1.389 . S
C185 H168 0.939 . S
C185 C180 1.400 . S
C185 C184 1.389 . S
C186 P160 1.819 . S
C186 C187 1.391 . S
C186 C191 1.391 . S
C187 H169 0.941 . S
C187 C186 1.391 . S
C187 C188 1.396 . S
C188 H172 0.939 . S
C188 C187 1.396 . S
C188 C189 1.397 . S
C189 C188 1.397 . S
C189 C190 1.385 . S
C190 H173 0.940 1_545 S
C190 C189 1.385 . S
C190 C191 1.388 . S
C191 H170 0.939 . S
C191 C186 1.391 . S
C191 C190 1.388 . S
P192 O203 1.490 1_554 S
P192 C206 1.812 . S
P192 C212 1.803 . S
P192 C218 1.819 . S
H193 C207 0.941 . S
H194 C208 0.939 . S
H195 C210 0.940 . S
H196 C211 0.940 . S
H197 C213 0.939 . S
H198 C214 0.942 1_556 S
H199 C216 0.940 . S
H200 C217 0.939 . S
H201 C219 0.941 . S
H202 C223 0.939 . S
O203 P192 1.490 1_556 S
H204 C220 0.939 . S
H205 C222 0.940 . S
C206 P192 1.812 . S
C206 C207 1.389 1_554 S
C206 C211 1.391 . S
C207 H193 0.941 . S
C207 C206 1.389 1_556 S
C207 C208 1.397 . S
C208 H194 0.939 . S
C208 C207 1.397 . S
C208 C209 1.378 1_556 S
C209 C208 1.378 1_554 S
C209 C210 1.378 . S
C210 H195 0.940 . S
C210 C209 1.378 . S
C210 C211 1.396 . S
C211 H196 0.940 . S
C211 C206 1.391 . S
C211 C210 1.396 . S
C212 P192 1.803 . S
C212 C213 1.378 . S
C212 C217 1.400 . S
C213 H197 0.939 . S
C213 C212 1.378 . S
C213 C214 1.361 . S
C214 H198 0.942 1_554 S
C214 C213 1.361 . S
C214 C215 1.369 . S
C215 C214 1.369 . S
C215 C216 1.404 . S
C216 H199 0.940 . S
C216 C215 1.404 . S
C216 C217 1.389 . S
C217 H200 0.939 . S
C217 C212 1.400 . S
C217 C216 1.389 . S
C218 P192 1.819 . S
C218 C219 1.391 . S
C218 C223 1.391 . S
C219 H201 0.941 . S
C219 C218 1.391 . S
C219 C220 1.396 . S
C220 H204 0.939 . S
C220 C219 1.396 . S
C220 C221 1.397 . S
C221 C220 1.397 . S
C221 C222 1.385 . S
C222 H205 0.940 . S
C222 C221 1.385 . S
C222 C223 1.388 . S
C223 H202 0.939 . S
C223 C218 1.391 . S
C223 C222 1.388 . S
P224 O235 1.490 . S
P224 C238 1.812 . S
P224 C244 1.803 . S
P224 C250 1.819 . S
H225 C239 0.941 . S
H226 C240 0.939 . S
H227 C242 0.940 1_655 S
H228 C243 0.940 . S
H229 C245 0.939 . S
H230 C246 0.942 . S
H231 C248 0.940 . S
H232 C249 0.939 . S
H233 C251 0.941 . S
H234 C255 0.939 . S
O235 P224 1.490 . S
H236 C252 0.939 . S
H237 C254 0.940 . S
C238 P224 1.812 . S
C238 C239 1.389 . S
C238 C243 1.391 . S
C239 H225 0.941 . S
C239 C238 1.389 . S
C239 C240 1.397 . S
C240 H226 0.939 . S
C240 C239 1.397 . S
C240 C241 1.378 . S
C241 C240 1.378 . S
C241 C242 1.378 . S
C242 H227 0.940 1_455 S
C242 C241 1.378 . S
C242 C243 1.396 . S
C243 H228 0.940 . S
C243 C238 1.391 . S
C243 C242 1.396 . S
C244 P224 1.803 . S
C244 C245 1.378 . S
C244 C249 1.400 . S
C245 H229 0.939 . S
C245 C244 1.378 . S
C245 C246 1.361 . S
C246 H230 0.942 . S
C246 C245 1.361 . S
C246 C247 1.369 . S
C247 C246 1.369 . S
C247 C248 1.404 . S
C248 H231 0.940 . S
C248 C247 1.404 . S
C248 C249 1.389 . S
C249 H232 0.939 . S
C249 C244 1.400 . S
C249 C248 1.389 . S
C250 P224 1.819 . S
C250 C251 1.391 . S
C250 C255 1.391 . S
C251 H233 0.941 . S
C251 C250 1.391 . S
C251 C252 1.396 . S
C252 H236 0.939 . S
C252 C251 1.396 . S
C252 C253 1.397 . S
C253 C252 1.397 . S
C253 C254 1.385 . S
C254 H237 0.940 . S
C254 C253 1.385 . S
C254 C255 1.388 . S
C255 H234 0.939 . S
C255 C250 1.391 . S
C255 C254 1.388 . S
Zn256 O262 1.920 . S
Zn256 O268 1.898 . S
Zn256 O271 1.905 . S
Zn257 O265 1.905 1_565 S
Zn257 O266 1.898 . S
Zn257 O274 1.920 . S
Zn258 O261 2.080 1_455 S
Zn258 O264 2.114 . S
Zn258 O267 2.120 1_445 S
Zn258 O269 2.120 . S
Zn258 O270 2.114 1_455 S
Zn258 O273 2.080 . S
C259 O264 1.166 . S
C259 O265 1.182 . S
C260 O266 1.167 1_655 S
C260 O267 1.299 . S
O261 Zn258 2.080 1_655 S
O261 C275 1.305 . S
O262 Zn256 1.920 . S
O262 C275 1.234 . S
C263 O268 1.167 1_455 S
C263 O269 1.299 . S
O264 Zn258 2.114 . S
O264 C259 1.166 . S
O265 Zn257 1.905 1_545 S
O265 C259 1.182 . S
O266 Zn257 1.898 . S
O266 C260 1.167 1_455 S
O267 Zn258 2.120 1_665 S
O267 C260 1.299 . S
O268 Zn256 1.898 . S
O268 C263 1.167 1_655 S
O269 Zn258 2.120 . S
O269 C263 1.299 . S
O270 Zn258 2.114 1_655 S
O270 C272 1.166 . S
O271 Zn256 1.905 . S
O271 C272 1.182 . S
C272 O270 1.166 . S
C272 O271 1.182 . S
O273 Zn258 2.080 . S
O273 C276 1.305 1_545 S
O274 Zn257 1.920 . S
O274 C276 1.234 . S
C275 O261 1.305 . S
C275 O262 1.234 . S
C276 O273 1.305 1_565 S
C276 O274 1.234 . S
Zn277 O283 1.920 1_556 S
Zn277 O289 1.898 . S
Zn277 O292 1.905 . S
Zn278 O286 1.905 . S
Zn278 O287 1.898 . S
Zn278 O295 1.920 . S
Zn279 O282 2.080 . S
Zn279 O285 2.114 1_545 S
Zn279 O288 2.120 1_545 S
Zn279 O290 2.120 . S
Zn279 O291 2.114 1_544 S
Zn279 O294 2.080 . S
C280 O285 1.166 . S
C280 O286 1.182 . S
C281 O287 1.167 . S
C281 O288 1.299 . S
O282 Zn279 2.080 . S
O282 C296 1.305 . S
O283 Zn277 1.920 1_554 S
O283 C296 1.234 . S
C284 O289 1.167 . S
C284 O290 1.299 1_556 S
O285 Zn279 2.114 1_565 S
O285 C280 1.166 . S
O286 Zn278 1.905 . S
O286 C280 1.182 . S
O287 Zn278 1.898 . S
O287 C281 1.167 . S
O288 Zn279 2.120 1_565 S
O288 C281 1.299 . S
O289 Zn277 1.898 . S
O289 C284 1.167 . S
O290 Zn279 2.120 . S
O290 C284 1.299 1_554 S
O291 Zn279 2.114 1_566 S
O291 C293 1.166 . S
O292 Zn277 1.905 . S
O292 C293 1.182 1_545 S
C293 O291 1.166 . S
C293 O292 1.182 1_565 S
O294 Zn279 2.080 . S
O294 C297 1.305 . S
O295 Zn278 1.920 . S
O295 C297 1.234 1_565 S
C296 O282 1.305 . S
C296 O283 1.234 . S
C297 O294 1.305 . S
C297 O295 1.234 1_545 S
Zn298 O304 1.920 . S
Zn298 O310 1.898 . S
Zn298 O313 1.905 . S
Zn299 O307 1.905 . S
Zn299 O308 1.898 . S
Zn299 O316 1.920 . S
Zn300 O303 2.080 . S
Zn300 O306 2.114 . S
Zn300 O309 2.120 . S
Zn300 O311 2.120 . S
Zn300 O312 2.114 . S
Zn300 O315 2.080 . S
C301 O306 1.166 . S
C301 O307 1.182 . S
C302 O308 1.167 . S
C302 O309 1.299 . S
O303 Zn300 2.080 . S
O303 C317 1.305 . S
O304 Zn298 1.920 . S
O304 C317 1.234 . S
C305 O310 1.167 . S
C305 O311 1.299 . S
O306 Zn300 2.114 . S
O306 C301 1.166 . S
O307 Zn299 1.905 . S
O307 C301 1.182 . S
O308 Zn299 1.898 . S
O308 C302 1.167 . S
O309 Zn300 2.120 . S
O309 C302 1.299 . S
O310 Zn298 1.898 . S
O310 C305 1.167 . S
O311 Zn300 2.120 . S
O311 C305 1.299 . S
O312 Zn300 2.114 . S
O312 C314 1.166 . S
O313 Zn298 1.905 . S
O313 C314 1.182 . S
C314 O312 1.166 . S
C314 O313 1.182 . S
O315 Zn300 2.080 . S
O315 C318 1.305 . S
O316 Zn299 1.920 . S
O316 C318 1.234 . S
C317 O303 1.305 . S
C317 O304 1.234 . S
C318 O315 1.305 . S
C318 O316 1.234 . S
Zn319 O325 1.920 . S
Zn319 O331 1.898 . S
Zn319 O334 1.905 . S
Zn320 O328 1.905 1_655 S
Zn320 O329 1.898 . S
Zn320 O337 1.920 . S
Zn321 O324 2.080 1_554 S
Zn321 O327 2.114 . S
Zn321 O330 2.120 1_454 S
Zn321 O332 2.120 . S
Zn321 O333 2.114 1_554 S
Zn321 O336 2.085 . S
C322 O327 1.166 . S
C322 O328 1.182 . S
C323 O329 1.167 1_556 S
C323 O330 1.299 . S
O324 Zn321 2.080 1_556 S
O324 C338 1.305 . S
O325 Zn319 1.920 . S
O325 C338 1.234 . S
C326 O331 1.167 1_554 S
C326 O332 1.299 . S
O327 Zn321 2.114 . S
O327 C322 1.166 . S
O328 Zn320 1.905 1_455 S
O328 C322 1.182 . S
O329 Zn320 1.898 . S
O329 C323 1.167 1_554 S
O330 Zn321 2.120 1_656 S
O330 C323 1.299 . S
O331 Zn319 1.898 . S
O331 C326 1.167 1_556 S
O332 Zn321 2.120 . S
O332 C326 1.299 . S
O333 Zn321 2.114 1_556 S
O333 C335 1.166 . S
O334 Zn319 1.905 . S
O334 C335 1.182 . S
C335 O333 1.166 . S
C335 O334 1.182 . S
O336 Zn321 2.085 . S
O336 C339 1.293 1_455 S
O337 Zn320 1.920 . S
O337 C339 1.234 . S
C338 O324 1.305 . S
C338 O325 1.234 . S
C339 O336 1.293 1_655 S
C339 O337 1.234 . S
C29 C259 1.611 . S
C49 C293 1.379 . S
C305 C93 1.601 . S
C119 C339 1.488 . S
C296 C17 1.558 . S
C276 C61 1.434 . S
C323 C81 1.542 . S
C314 C125 1.543 . S
C23 C322 1.458 . S
C284 C87 1.481 . S
C113 C260 1.588 . S
C55 C317 1.442 . S
C275 C157 2.127 1_655 S
C189 C297 1.700 . S
C221 C302 2.191 . S
C253 C335 1.773 . S
C145 C280 2.202 1_545 S
C272 C183 1.705 . S
C326 C209 2.195 . S
C318 C247 1.714 . S
C151 C338 2.219 1_554 S
C281 C215 2.246 . S
C263 C241 1.753 . S
C177 C301 1.817 . S
