# Generated by pormake.
# Topology pto, (3,4)-cn, num edge types: 1
# Building blocks:
#     Node 0, Type 0, BuildingBlock: WUSLED_clean_sbu_0, # of connection points: 3
#     Node 1, Type 0, BuildingBlock: WUSLED_clean_sbu_0, # of connection points: 3
#     Node 2, Type 0, BuildingBlock: WUSLED_clean_sbu_0, # of connection points: 3
#     Node 3, Type 0, BuildingBlock: WUSLED_clean_sbu_0, # of connection points: 3
#     Node 4, Type 0, BuildingBlock: WUSLED_clean_sbu_0, # of connection points: 3
#     Node 5, Type 0, BuildingBlock: WUSLED_clean_sbu_0, # of connection points: 3
#     Node 6, Type 0, BuildingBlock: WUSLED_clean_sbu_0, # of connection points: 3
#     Node 7, Type 0, BuildingBlock: WUSLED_clean_sbu_0, # of connection points: 3
#     Node 8, Type 1, BuildingBlock: NAWXER_clean_linker_0, # of connection points: 4
#     Node 9, Type 1, BuildingBlock: NAWXER_clean_linker_0, # of connection points: 4
#     Node 10, Type 1, BuildingBlock: NAWXER_clean_linker_0, # of connection points: 4
#     Node 11, Type 1, BuildingBlock: NAWXER_clean_linker_0, # of connection points: 4
#     Node 12, Type 1, BuildingBlock: NAWXER_clean_linker_0, # of connection points: 4
#     Node 13, Type 1, BuildingBlock: NAWXER_clean_linker_0, # of connection points: 4
#     Edge 14, Type (0, 1), BuildingBlock: CIFDUS_clean_linker_0, # of connection points: 2
#     Edge 15, Type (0, 1), BuildingBlock: CIFDUS_clean_linker_0, # of connection points: 2
#     Edge 16, Type (0, 1), BuildingBlock: CIFDUS_clean_linker_0, # of connection points: 2
#     Edge 17, Type (0, 1), BuildingBlock: CIFDUS_clean_linker_0, # of connection points: 2
#     Edge 18, Type (0, 1), BuildingBlock: CIFDUS_clean_linker_0, # of connection points: 2
#     Edge 19, Type (0, 1), BuildingBlock: CIFDUS_clean_linker_0, # of connection points: 2
#     Edge 20, Type (0, 1), BuildingBlock: CIFDUS_clean_linker_0, # of connection points: 2
#     Edge 21, Type (0, 1), BuildingBlock: CIFDUS_clean_linker_0, # of connection points: 2
#     Edge 22, Type (0, 1), BuildingBlock: CIFDUS_clean_linker_0, # of connection points: 2
#     Edge 23, Type (0, 1), BuildingBlock: CIFDUS_clean_linker_0, # of connection points: 2
#     Edge 24, Type (0, 1), BuildingBlock: CIFDUS_clean_linker_0, # of connection points: 2
#     Edge 25, Type (0, 1), BuildingBlock: CIFDUS_clean_linker_0, # of connection points: 2
#     Edge 26, Type (0, 1), BuildingBlock: CIFDUS_clean_linker_0, # of connection points: 2
#     Edge 27, Type (0, 1), BuildingBlock: CIFDUS_clean_linker_0, # of connection points: 2
#     Edge 28, Type (0, 1), BuildingBlock: CIFDUS_clean_linker_0, # of connection points: 2
#     Edge 29, Type (0, 1), BuildingBlock: CIFDUS_clean_linker_0, # of connection points: 2
#     Edge 30, Type (0, 1), BuildingBlock: CIFDUS_clean_linker_0, # of connection points: 2
#     Edge 31, Type (0, 1), BuildingBlock: CIFDUS_clean_linker_0, # of connection points: 2
#     Edge 32, Type (0, 1), BuildingBlock: CIFDUS_clean_linker_0, # of connection points: 2
#     Edge 33, Type (0, 1), BuildingBlock: CIFDUS_clean_linker_0, # of connection points: 2
#     Edge 34, Type (0, 1), BuildingBlock: CIFDUS_clean_linker_0, # of connection points: 2
#     Edge 35, Type (0, 1), BuildingBlock: CIFDUS_clean_linker_0, # of connection points: 2
#     Edge 36, Type (0, 1), BuildingBlock: CIFDUS_clean_linker_0, # of connection points: 2
#     Edge 37, Type (0, 1), BuildingBlock: CIFDUS_clean_linker_0, # of connection points: 2
# Relax obj value: 0.000
# Max RMSD: 0.010
# Mean RMSD: 0.005
data_MOF--net-pto--node1-WUSLED_clean_sbu_0--node2-NAWXER_clean_linker_0--edge1-CIFDUS_clean_linker_0
_symmetry_space_group_name_H-M    P1
_symmetry_Int_Tables_number       1
_symmetry_cell_setting            triclinic
loop_
_symmetry_equiv_pos_as_xyz
'x, y, z'
_cell_length_a     47.098626
_cell_length_b     64.383372
_cell_length_c     56.037598
_cell_angle_alpha  89.666291
_cell_angle_beta   90.51476
_cell_angle_gamma 90.564662
loop_
_atom_site_label
_atom_site_type_symbol
_atom_site_fract_x
_atom_site_fract_y
_atom_site_fract_z
_atom_type_partial_charge
C0 C 0.24843 0.23369 0.35565 0.0
C1 C 0.26993 0.21945 0.35072 0.0
C2 C 0.25473 0.19762 0.38402 0.0
C3 C 0.27308 0.20158 0.36479 0.0
C4 C 0.23319 0.21198 0.38882 0.0
C5 C 0.2301 0.22986 0.37475 0.0
U6 U 0.27075 0.26699 0.3029 0.0
O7 O 0.24544 0.28428 0.27642 0.0
O8 O 0.27605 0.30086 0.29934 0.0
C9 C 0.25594 0.30236 0.28303 0.0
C10 C 0.245 0.25249 0.34094 0.0
C11 C 0.23521 0.31894 0.28658 0.0
C12 C 0.19461 0.33353 0.30686 0.0
C13 C 0.21437 0.31755 0.30429 0.0
C14 C 0.21663 0.35236 0.27423 0.0
C15 C 0.1954 0.35106 0.29171 0.0
C16 C 0.23628 0.33646 0.27171 0.0
C17 C 0.33115 0.24853 0.2636 0.0
C18 C 0.34195 0.2639 0.22496 0.0
C19 C 0.37501 0.24004 0.24358 0.0
C20 C 0.35684 0.23778 0.26303 0.0
C21 C 0.36773 0.25307 0.22427 0.0
C22 C 0.32386 0.26172 0.24452 0.0
C23 C 0.31226 0.24581 0.28417 0.0
O24 O 0.26631 0.26581 0.34192 0.0
O25 O 0.23561 0.24928 0.3191 0.0
O26 O 0.28534 0.24243 0.27899 0.0
O27 O 0.31612 0.25914 0.30159 0.0
H28 H 0.28422 0.22215 0.33595 0.0
H29 H 0.28965 0.19074 0.36041 0.0
H30 H 0.21894 0.20955 0.40366 0.0
H31 H 0.21342 0.24072 0.37883 0.0
H32 H 0.17845 0.33199 0.3204 0.0
H33 H 0.21328 0.30409 0.31595 0.0
H34 H 0.2182 0.36579 0.26257 0.0
H35 H 0.25233 0.33782 0.25804 0.0
H36 H 0.33591 0.27423 0.2105 0.0
H37 H 0.39456 0.23133 0.24347 0.0
H38 H 0.36281 0.22755 0.27762 0.0
H39 H 0.30417 0.27028 0.24473 0.0
C40 C 0.2508 0.80289 0.67745 0.0
C41 C 0.26904 0.8188 0.68545 0.0
C42 C 0.25656 0.84 0.65079 0.0
C43 C 0.2719 0.83719 0.67223 0.0
C44 C 0.23832 0.82394 0.64291 0.0
C45 C 0.23549 0.80556 0.65614 0.0
U46 U 0.27117 0.76858 0.73022 0.0
O47 O 0.24502 0.7486 0.75336 0.0
O48 O 0.27893 0.73493 0.73206 0.0
C49 C 0.25729 0.73149 0.74623 0.0
C50 C 0.24777 0.78345 0.69109 0.0
C51 C 0.23824 0.71424 0.73933 0.0
C52 C 0.19468 0.70092 0.72118 0.0
C53 C 0.21262 0.71767 0.72697 0.0
C54 C 0.22806 0.67721 0.73962 0.0
C55 C 0.20222 0.6805 0.72746 0.0
C56 C 0.24584 0.69392 0.74551 0.0
C57 C 0.32654 0.78747 0.77513 0.0
C58 C 0.33833 0.76724 0.81052 0.0
C59 C 0.36509 0.79856 0.80127 0.0
C60 C 0.34834 0.80157 0.78084 0.0
C61 C 0.36029 0.78136 0.81639 0.0
C62 C 0.32163 0.77026 0.79005 0.0
C63 C 0.30933 0.79073 0.75346 0.0
O64 O 0.27013 0.7714 0.69108 0.0
O65 O 0.23638 0.78527 0.7123 0.0
O66 O 0.28187 0.79241 0.75686 0.0
O67 O 0.31553 0.7787 0.73542 0.0
H68 H 0.28101 0.81697 0.70192 0.0
H69 H 0.28585 0.84932 0.67897 0.0
H70 H 0.2265 0.82546 0.62633 0.0
H71 H 0.22141 0.79339 0.64967 0.0
H72 H 0.17505 0.70393 0.71161 0.0
H73 H 0.20646 0.73326 0.72188 0.0
H74 H 0.23431 0.66171 0.74498 0.0
H75 H 0.26551 0.69099 0.75508 0.0
H76 H 0.33385 0.75397 0.82189 0.0
H77 H 0.38207 0.80955 0.80503 0.0
H78 H 0.35251 0.81487 0.76942 0.0
H79 H 0.30486 0.75919 0.78585 0.0
C80 C 0.71909 0.78797 0.26464 0.0
C81 C 0.72601 0.77492 0.2456 0.0
C82 C 0.68104 0.78281 0.22585 0.0
C83 C 0.70721 0.77245 0.22632 0.0
C84 C 0.67406 0.79561 0.24515 0.0
C85 C 0.69296 0.7982 0.26433 0.0
U86 U 0.77837 0.76878 0.30576 0.0
O87 O 0.81585 0.78514 0.3203 0.0
O88 O 0.78399 0.77204 0.34459 0.0
C89 C 0.80706 0.78353 0.34244 0.0
C90 C 0.73877 0.79104 0.28493 0.0
C91 C 0.8075 0.80291 0.35618 0.0
C92 C 0.79086 0.83797 0.36309 0.0
C93 C 0.78998 0.8196 0.34983 0.0
C94 C 0.82669 0.82308 0.38915 0.0
C95 C 0.8093 0.83996 0.3829 0.0
C96 C 0.82578 0.80476 0.3759 0.0
C97 C 0.80797 0.71421 0.29572 0.0
C98 C 0.85009 0.70057 0.31547 0.0
C99 C 0.81962 0.67772 0.2922 0.0
C100 C 0.80183 0.69438 0.28683 0.0
C101 C 0.84397 0.6806 0.30657 0.0
C102 C 0.83216 0.71725 0.31015 0.0
C103 C 0.78882 0.73141 0.28971 0.0
O104 O 0.73399 0.77921 0.30368 0.0
O105 O 0.76583 0.79259 0.27956 0.0
O106 O 0.80094 0.74833 0.28118 0.0
O107 O 0.76908 0.73521 0.30547 0.0
H108 H 0.74597 0.7667 0.2456 0.0
H109 H 0.71304 0.7623 0.21186 0.0
H110 H 0.65419 0.80395 0.24522 0.0
H111 H 0.68723 0.80829 0.27889 0.0
H112 H 0.77741 0.85072 0.35763 0.0
H113 H 0.77574 0.81842 0.33459 0.0
H114 H 0.8408 0.82393 0.40449 0.0
H115 H 0.83937 0.79199 0.38109 0.0
H116 H 0.86852 0.70325 0.32677 0.0
H117 H 0.8145 0.66263 0.28478 0.0
H118 H 0.78327 0.69177 0.27564 0.0
H119 H 0.83713 0.73247 0.31729 0.0
C120 C 0.75397 0.21159 0.70152 0.0
C121 C 0.77623 0.21255 0.68505 0.0
C122 C 0.75828 0.18113 0.66576 0.0
C123 C 0.77843 0.19738 0.66733 0.0
C124 C 0.73612 0.18029 0.68243 0.0
C125 C 0.73402 0.19537 0.70011 0.0
U126 U 0.77334 0.26369 0.73072 0.0
O127 O 0.7453 0.28673 0.74679 0.0
O128 O 0.77769 0.27135 0.76882 0.0
C129 C 0.75574 0.28379 0.76836 0.0
C130 C 0.75093 0.22734 0.72018 0.0
C131 C 0.73469 0.28026 0.78719 0.0
C132 C 0.69479 0.26098 0.80377 0.0
C133 C 0.7149 0.26386 0.78577 0.0
C134 C 0.71429 0.29071 0.82482 0.0
C135 C 0.69427 0.27438 0.82353 0.0
C136 C 0.73429 0.29361 0.80681 0.0
C137 C 0.82885 0.30026 0.70505 0.0
C138 C 0.83834 0.33358 0.72379 0.0
C139 C 0.86435 0.32376 0.68856 0.0
C140 C 0.8494 0.30487 0.68784 0.0
C141 C 0.85892 0.33838 0.7065 0.0
C142 C 0.82345 0.31469 0.72307 0.0
C143 C 0.81292 0.28054 0.70399 0.0
O144 O 0.77277 0.22968 0.73473 0.0
O145 O 0.73991 0.24504 0.71313 0.0
O146 O 0.78563 0.28233 0.6994 0.0
O147 O 0.8184 0.26734 0.72137 0.0
H148 H 0.79178 0.22504 0.68585 0.0
H149 H 0.79559 0.19856 0.65465 0.0
H150 H 0.72052 0.16782 0.68197 0.0
H151 H 0.71675 0.19438 0.71273 0.0
H152 H 0.67985 0.24814 0.80236 0.0
H153 H 0.715 0.25335 0.77074 0.0
H154 H 0.71423 0.30149 0.83959 0.0
H155 H 0.74938 0.30637 0.80814 0.0
H156 H 0.8339 0.34435 0.73802 0.0
H157 H 0.8798 0.32706 0.67481 0.0
H158 H 0.85377 0.29392 0.67377 0.0
H159 H 0.80768 0.31133 0.73655 0.0
C160 C 0.81297 0.71655 0.74587 0.0
C161 C 0.83086 0.71836 0.72606 0.0
C162 C 0.8489 0.68354 0.73362 0.0
C163 C 0.84868 0.70197 0.71996 0.0
C164 C 0.83069 0.68184 0.75333 0.0
C165 C 0.81292 0.6982 0.75938 0.0
U166 U 0.78236 0.77067 0.73583 0.0
O167 O 0.73873 0.78173 0.7411 0.0
O168 O 0.77408 0.79543 0.76158 0.0
C169 C 0.74639 0.79405 0.75868 0.0
C170 C 0.79444 0.73367 0.7528 0.0
C171 C 0.72994 0.79168 0.78076 0.0
C172 C 0.72313 0.77614 0.81996 0.0
C173 C 0.73862 0.77791 0.79885 0.0
C174 C 0.68969 0.80151 0.80489 0.0
C175 C 0.69852 0.78798 0.82325 0.0
C176 C 0.70533 0.80338 0.78386 0.0
C177 C 0.80617 0.80308 0.68201 0.0
C178 C 0.78655 0.8369 0.67226 0.0
C179 C 0.82661 0.82394 0.65017 0.0
C180 C 0.82625 0.80579 0.66396 0.0
C181 C 0.80683 0.83975 0.65419 0.0
C182 C 0.78628 0.81872 0.68611 0.0
C183 C 0.80665 0.78403 0.69657 0.0
O184 O 0.80759 0.75073 0.75972 0.0
O185 O 0.77281 0.73721 0.73842 0.0
O186 O 0.78302 0.77299 0.69666 0.0
O187 O 0.81829 0.78598 0.71784 0.0
H188 H 0.83115 0.73248 0.71544 0.0
H189 H 0.8626 0.70386 0.70481 0.0
H190 H 0.82997 0.66776 0.76398 0.0
H191 H 0.79914 0.69653 0.77467 0.0
H192 H 0.73026 0.76539 0.83364 0.0
H193 H 0.75744 0.76858 0.79669 0.0
H194 H 0.67098 0.81096 0.80697 0.0
H195 H 0.69829 0.81406 0.77006 0.0
H196 H 0.77122 0.84886 0.67596 0.0
H197 H 0.84225 0.82552 0.63621 0.0
H198 H 0.84174 0.79385 0.66055 0.0
H199 H 0.7707 0.81691 0.7001 0.0
C200 C 0.71713 0.25031 0.26478 0.0
C201 C 0.72202 0.26743 0.24972 0.0
C202 C 0.68222 0.25687 0.22429 0.0
C203 C 0.70474 0.27067 0.22963 0.0
C204 C 0.67738 0.2398 0.23959 0.0
C205 C 0.69471 0.23657 0.25964 0.0
U206 U 0.77545 0.26781 0.30786 0.0
O207 O 0.77867 0.26448 0.34688 0.0
O208 O 0.8106 0.25027 0.32405 0.0
C209 C 0.80058 0.25205 0.34575 0.0
C210 C 0.73524 0.24664 0.28585 0.0
C211 C 0.79778 0.2325 0.35923 0.0
C212 C 0.77648 0.19828 0.36454 0.0
C213 C 0.77905 0.2168 0.35151 0.0
C214 C 0.81133 0.211 0.39312 0.0
C215 C 0.79259 0.19515 0.38553 0.0
C216 C 0.81388 0.2295 0.38007 0.0
C217 C 0.81054 0.32115 0.29797 0.0
C218 C 0.8509 0.33389 0.32114 0.0
C219 C 0.82889 0.35604 0.29131 0.0
C220 C 0.80938 0.34023 0.28592 0.0
C221 C 0.85002 0.35304 0.30888 0.0
C222 C 0.8313 0.31806 0.31572 0.0
C223 C 0.79005 0.3047 0.2916 0.0
O224 O 0.76239 0.24437 0.28147 0.0
O225 O 0.73045 0.25874 0.30416 0.0
O226 O 0.76927 0.30164 0.30675 0.0
O227 O 0.80105 0.28735 0.2838 0.0
H228 H 0.73929 0.27821 0.25346 0.0
H229 H 0.70928 0.28383 0.2181 0.0
H230 H 0.65999 0.22905 0.23624 0.0
H231 H 0.69057 0.22333 0.27117 0.0
H232 H 0.76211 0.18632 0.35802 0.0
H233 H 0.76647 0.21887 0.3354 0.0
H234 H 0.82374 0.20925 0.40936 0.0
H235 H 0.82836 0.24151 0.38631 0.0
H236 H 0.86702 0.331 0.33462 0.0
H237 H 0.82726 0.37069 0.28183 0.0
H238 H 0.79337 0.3429 0.27226 0.0
H239 H 0.83246 0.30338 0.32521 0.0
C240 C 0.25191 0.23642 0.67507 0.0
C241 C 0.26734 0.21894 0.68241 0.0
C242 C 0.25503 0.20139 0.64524 0.0
C243 C 0.26883 0.20154 0.66763 0.0
C244 C 0.23978 0.21905 0.63798 0.0
C245 C 0.23823 0.23639 0.65279 0.0
U246 U 0.27508 0.268 0.72948 0.0
O247 O 0.28066 0.30183 0.73321 0.0
O248 O 0.24942 0.28517 0.75516 0.0
C249 C 0.25953 0.30331 0.74825 0.0
C250 C 0.24974 0.25472 0.69046 0.0
C251 C 0.23811 0.31896 0.74206 0.0
C252 C 0.19502 0.32911 0.72104 0.0
C253 C 0.2155 0.31418 0.72649 0.0
C254 C 0.21988 0.35387 0.74628 0.0
C255 C 0.19695 0.34912 0.73092 0.0
C256 C 0.24025 0.3389 0.75182 0.0
C257 C 0.33396 0.24748 0.77061 0.0
C258 C 0.34559 0.2623 0.80933 0.0
C259 C 0.37454 0.2349 0.79324 0.0
C260 C 0.35727 0.23426 0.77285 0.0
C261 C 0.36877 0.24878 0.81187 0.0
C262 C 0.32834 0.26166 0.78885 0.0
C263 C 0.31549 0.24589 0.74941 0.0
O264 O 0.23992 0.25114 0.71199 0.0
O265 O 0.27178 0.26739 0.69028 0.0
O266 O 0.32022 0.25967 0.73247 0.0
O267 O 0.28836 0.24287 0.75367 0.0
H268 H 0.27817 0.21876 0.69955 0.0
H269 H 0.28101 0.18828 0.67363 0.0
H270 H 0.22864 0.21935 0.62099 0.0
H271 H 0.2262 0.24976 0.64688 0.0
H272 H 0.1778 0.32505 0.70895 0.0
H273 H 0.21365 0.29888 0.71862 0.0
H274 H 0.2218 0.36907 0.75437 0.0
H275 H 0.25759 0.34285 0.76384 0.0
H276 H 0.34038 0.27304 0.8234 0.0
H277 H 0.39247 0.22453 0.7944 0.0
H278 H 0.362 0.22329 0.75887 0.0
H279 H 0.3104 0.27202 0.78739 0.0
C280 C 0.21247 0.74087 0.3286 0.0
C281 C 0.18568 0.74088 0.31732 0.0
C282 C 0.17717 0.70498 0.32956 0.0
C283 C 0.16831 0.72314 0.31771 0.0
C284 C 0.20389 0.70501 0.34098 0.0
C285 C 0.2213 0.72275 0.34057 0.0
U286 U 0.27306 0.77471 0.30357 0.0
O287 O 0.27518 0.80837 0.29696 0.0
O288 O 0.30516 0.79392 0.32211 0.0
C289 C 0.29553 0.8113 0.31282 0.0
C290 C 0.23045 0.75996 0.32861 0.0
C291 C 0.291 0.82831 0.32969 0.0
C292 C 0.26421 0.84451 0.36132 0.0
C293 C 0.26849 0.82777 0.34593 0.0
C294 C 0.30507 0.86224 0.34449 0.0
C295 C 0.28234 0.86203 0.36062 0.0
C296 C 0.30931 0.84555 0.32918 0.0
C297 C 0.31566 0.75575 0.25052 0.0
C298 C 0.35565 0.77538 0.23457 0.0
C299 C 0.33834 0.74465 0.2141 0.0
C300 C 0.31761 0.74182 0.23154 0.0
C301 C 0.35753 0.76151 0.21533 0.0
C302 C 0.3348 0.77256 0.25199 0.0
C303 C 0.29322 0.75278 0.26831 0.0
O304 O 0.25719 0.7578 0.33505 0.0
O305 O 0.22717 0.77262 0.31029 0.0
O306 O 0.27136 0.76517 0.26595 0.0
O307 O 0.30193 0.75071 0.29054 0.0
H308 H 0.17806 0.75464 0.30818 0.0
H309 H 0.148 0.72362 0.30852 0.0
H310 H 0.2112 0.69142 0.35062 0.0
H311 H 0.24158 0.72226 0.34979 0.0
H312 H 0.24639 0.84393 0.3734 0.0
H313 H 0.25412 0.81454 0.34651 0.0
H314 H 0.31971 0.87531 0.34377 0.0
H315 H 0.32687 0.84616 0.31682 0.0
H316 H 0.36993 0.78862 0.23591 0.0
H317 H 0.33946 0.73353 0.19972 0.0
H318 H 0.30301 0.72876 0.23015 0.0
H319 H 0.33347 0.78354 0.2665 0.0
C320 C 0.98388 0.45213 0.30015 0.0
C321 C 0.96036 0.44849 0.31496 0.0
C322 C 1.00166 0.46933 0.3038 0.0
C323 C 0.99664 0.48313 0.3226 0.0
C324 C 0.95539 0.46231 0.33379 0.0
C325 C 0.97325 0.47953 0.33747 0.0
C326 C 1.01436 0.50212 0.32564 0.0
C327 C 0.07253 0.44806 0.33901 0.0
C328 C 0.0944 0.44641 0.32221 0.0
C329 C 0.05617 0.46607 0.34009 0.0
C330 C 0.06132 0.48273 0.32434 0.0
C331 C 0.09975 0.46326 0.30676 0.0
C332 C 0.0835 0.48126 0.30792 0.0
C333 C 0.04438 0.50201 0.32519 0.0
C334 C 0.07582 0.59179 0.34407 0.0
C335 C 0.09824 0.59407 0.3278 0.0
C336 C 0.05852 0.57399 0.34381 0.0
C337 C 0.06304 0.55824 0.32705 0.0
C338 C 0.1029 0.57813 0.31127 0.0
C339 C 0.08558 0.56039 0.31098 0.0
C340 C 0.0452 0.53911 0.32655 0.0
C341 C 0.98665 0.59151 0.30717 0.0
C342 C 0.96404 0.59431 0.32303 0.0
C343 C 1.00344 0.57375 0.30859 0.0
C344 C 0.99827 0.55853 0.32612 0.0
C345 C 0.95877 0.57895 0.34045 0.0
C346 C 0.97563 0.5612 0.34188 0.0
C347 C 1.01518 0.53923 0.32714 0.0
H348 H 0.98845 0.44175 0.28557 0.0
H349 H 0.01901 0.47205 0.29159 0.0
H350 H 0.93723 0.46016 0.3453 0.0
H351 H 0.96869 0.49013 0.35185 0.0
H352 H 0.06788 0.43535 0.35115 0.0
H353 H 0.0396 0.46701 0.35331 0.0
H354 H 0.11677 0.46265 0.29392 0.0
H355 H 0.0881 0.49398 0.29577 0.0
H356 H 0.07198 0.6036 0.35732 0.0
H357 H 0.04182 0.57246 0.35688 0.0
H358 H 0.11977 0.57946 0.29833 0.0
H359 H 0.0896 0.54842 0.29797 0.0
H360 H 0.99092 0.60279 0.29321 0.0
H361 H 0.02015 0.57176 0.29567 0.0
H362 H 0.94167 0.58067 0.35306 0.0
H363 H 0.97105 0.54956 0.35539 0.0
N364 N 1.00099 0.52072 0.32679 0.0
N365 N 0.05855 0.52051 0.32551 0.0
C366 C 0.98376 0.44252 0.68783 0.0
C367 C 0.96298 0.43767 0.70492 0.0
C368 C 0.99847 0.46148 0.68863 0.0
C369 C 0.99296 0.4759 0.70669 0.0
C370 C 0.95713 0.45232 0.7227 0.0
C371 C 0.97187 0.47127 0.72349 0.0
C372 C 1.00844 0.49606 0.7078 0.0
C373 C 0.07466 0.4478 0.72346 0.0
C374 C 0.09764 0.44748 0.70762 0.0
C375 C 0.05499 0.4639 0.72249 0.0
C376 C 0.05757 0.47985 0.70539 0.0
C377 C 0.10015 0.46341 0.69047 0.0
C378 C 0.08037 0.47947 0.68944 0.0
C379 C 0.03825 0.49791 0.7055 0.0
C380 C 0.06325 0.58655 0.73054 0.0
C381 C 0.08326 0.59174 0.71294 0.0
C382 C 0.0472 0.56822 0.72889 0.0
C383 C 0.05052 0.55484 0.70942 0.0
C384 C 0.08657 0.57827 0.6935 0.0
C385 C 0.07047 0.55997 0.69184 0.0
C386 C 0.03481 0.53483 0.70806 0.0
C387 C 0.97039 0.58576 0.70422 0.0
C388 C 0.95149 0.58553 0.72352 0.0
C389 C 0.98758 0.56862 0.69978 0.0
C390 C 0.98636 0.551 0.71469 0.0
C391 C 0.94968 0.56758 0.73788 0.0
C392 C 0.96683 0.55049 0.73344 0.0
C393 C 1.00511 0.53296 0.71099 0.0
H394 H 0.98838 0.43179 0.67361 0.0
H395 H 1.01401 0.46492 0.675 0.0
H396 H 0.94145 0.44902 0.73626 0.0
H397 H 0.96709 0.4822 0.73749 0.0
H398 H 0.07245 0.43601 0.7372 0.0
H399 H 0.03827 0.46419 0.73562 0.0
H400 H 0.1175 0.46354 0.67792 0.0
H401 H 0.08301 0.4917 0.67627 0.0
H402 H 0.06057 0.59636 0.74598 0.0
H403 H 0.03262 0.56431 0.7431 0.0
H404 H 0.10161 0.58188 0.67953 0.0
H405 H 0.07359 0.54979 0.67678 0.0
H406 H 0.97232 0.59934 0.69283 0.0
H407 H 1.00196 0.5692 0.68481 0.0
H408 H 0.93494 0.56673 0.75258 0.0
H409 H 0.96524 0.53698 0.74499 0.0
N410 N 0.99312 0.51365 0.71074 0.0
N411 N 0.05016 0.51723 0.70541 0.0
C412 C 0.22798 0.09074 0.4838 0.0
C413 C 0.24688 0.09463 0.46496 0.0
C414 C 0.23036 0.07278 0.49775 0.0
C415 C 0.25196 0.05841 0.49344 0.0
C416 C 0.26837 0.08015 0.46056 0.0
C417 C 0.27077 0.06218 0.47457 0.0
C418 C 0.25387 0.03886 0.50751 0.0
C419 C 0.27225 0.09024 0.55939 0.0
C420 C 0.25263 0.09192 0.57803 0.0
C421 C 0.27196 0.07284 0.54457 0.0
C422 C 0.25178 0.05687 0.54787 0.0
C423 C 0.23272 0.07577 0.5815 0.0
C424 C 0.2324 0.0584 0.56664 0.0
C425 C 0.25164 0.0381 0.53266 0.0
C426 C 0.26899 0.9474 0.5562 0.0
C427 C 0.2466 0.94422 0.57232 0.0
C428 C 0.27098 0.96585 0.54295 0.0
C429 C 0.25048 0.98139 0.54542 0.0
C430 C 0.22653 0.96003 0.57513 0.0
C431 C 0.22856 0.97844 0.56191 0.0
C432 C 0.25196 1.001 0.5315 0.0
C433 C 0.23825 0.94948 0.47826 0.0
C434 C 0.25992 0.94802 0.46126 0.0
C435 C 0.23653 0.96689 0.49299 0.0
C436 C 0.25675 0.98302 0.49129 0.0
C437 C 0.27986 0.96435 0.45939 0.0
C438 C 0.2782 0.98168 0.47417 0.0
C439 C 0.25516 1.00177 0.50643 0.0
H440 H 0.21129 0.10161 0.4878 0.0
H441 H 0.215 0.06999 0.51171 0.0
H442 H 0.283 0.08249 0.44596 0.0
H443 H 0.28734 0.05118 0.47066 0.0
H444 H 0.28822 0.10219 0.55653 0.0
H445 H 0.28777 0.07175 0.53073 0.0
H446 H 0.21715 0.07666 0.59555 0.0
H447 H 0.21679 0.04622 0.56968 0.0
H448 H 0.28475 0.93552 0.55357 0.0
H449 H 0.28852 0.96796 0.53079 0.0
H450 H 0.20934 0.95825 0.5877 0.0
H451 H 0.21272 0.99032 0.56437 0.0
H452 H 0.22228 0.93734 0.47986 0.0
H453 H 0.21923 0.96783 0.50552 0.0
H454 H 0.29698 0.96363 0.44666 0.0
H455 H 0.2939 0.994 0.4724 0.0
N456 N 0.25596 0.02067 0.49546 0.0
N457 N 0.25036 0.0192 0.54358 0.0
C458 C 0.4804 0.79741 0.93879 0.0
C459 C 0.45802 0.78334 0.93416 0.0
C460 C 0.49775 0.79499 0.95895 0.0
C461 C 0.49333 0.7783 0.97479 0.0
C462 C 0.45352 0.76671 0.95013 0.0
C463 C 0.47088 0.76431 0.97033 0.0
C464 C 0.51097 0.7761 0.99669 0.0
C465 C 0.56796 0.76562 0.93486 0.0
C466 C 0.59031 0.78007 0.93242 0.0
C467 C 0.55219 0.76466 0.95584 0.0
C468 C 0.55799 0.77845 0.97466 0.0
C469 C 0.59678 0.79337 0.95159 0.0
C470 C 0.5808 0.79253 0.97251 0.0
C471 C 0.54091 0.77785 0.99681 0.0
C472 C 0.5736 0.76284 0.10009 0.0
C473 C 0.59522 0.77798 0.10198 0.0
C474 C 0.55575 0.76224 0.07996 0.0
C475 C 0.5588 0.77706 0.0616 0.0
C476 C 0.5983 0.79269 0.08353 0.0
C477 C 0.58034 0.7922 0.06359 0.0
C478 C 0.54119 0.77634 0.03951 0.0
C479 C 0.47607 0.78417 0.09864 0.0
C480 C 0.45543 0.76821 0.0993 0.0
C481 C 0.495 0.78571 0.07953 0.0
C482 C 0.49381 0.77117 0.06092 0.0
C483 C 0.45483 0.75346 0.08089 0.0
C484 C 0.47366 0.75502 0.06188 0.0
C485 C 0.51134 0.77355 0.03925 0.0
H486 H 0.48456 0.81031 0.92679 0.0
H487 H 0.51442 0.80634 0.9623 0.0
H488 H 0.43621 0.75578 0.94727 0.0
H489 H 0.46682 0.75149 0.98247 0.0
H490 H 0.56287 0.75487 0.92061 0.0
H491 H 0.53548 0.75307 0.95734 0.0
H492 H 0.61384 0.8047 0.95021 0.0
H493 H 0.58594 0.80316 0.98687 0.0
H494 H 0.571 0.75112 0.11386 0.0
H495 H 0.54002 0.74992 0.07857 0.0
H496 H 0.61458 0.80466 0.08457 0.0
H497 H 0.5833 0.80372 0.04963 0.0
H498 H 0.4769 0.7959 0.11241 0.0
H499 H 0.50992 0.79861 0.07891 0.0
H500 H 0.43957 0.74077 0.08104 0.0
H501 H 0.47227 0.74367 0.04769 0.0
N502 N 0.49749 0.77366 0.01785 0.0
N503 N 0.55474 0.77826 0.01822 0.0
C504 C 0.78056 0.08831 0.48043 0.0
C505 C 0.80283 0.09098 0.4641 0.0
C506 C 0.77818 0.07005 0.49396 0.0
C507 C 0.79822 0.05418 0.49163 0.0
C508 C 0.82251 0.07486 0.46148 0.0
C509 C 0.82012 0.05662 0.47501 0.0
C510 C 0.79597 0.03469 0.50573 0.0
C511 C 0.81205 0.08593 0.55907 0.0
C512 C 0.79009 0.08831 0.57568 0.0
C513 C 0.81272 0.06848 0.5443 0.0
C514 C 0.79132 0.05316 0.5457 0.0
C515 C 0.76893 0.0728 0.5772 0.0
C516 C 0.76963 0.05539 0.56246 0.0
C517 C 0.79197 0.03426 0.53072 0.0
C518 C 0.80758 0.94391 0.55533 0.0
C519 C 0.78659 0.94141 0.57285 0.0
C520 C 0.80875 0.96192 0.54128 0.0
C521 C 0.78873 0.97772 0.54426 0.0
C522 C 0.76679 0.95737 0.57596 0.0
C523 C 0.76797 0.97537 0.5619 0.0
C524 C 0.79018 0.99717 0.52998 0.0
C525 C 0.7698 0.94616 0.4782 0.0
C526 C 0.79031 0.94311 0.46049 0.0
C527 C 0.77082 0.9638 0.49262 0.0
C528 C 0.79263 0.97865 0.48994 0.0
C529 C 0.81183 0.95821 0.45755 0.0
C530 C 0.81288 0.97584 0.47205 0.0
C531 C 0.79369 0.99758 0.50493 0.0
H532 H 0.76511 0.10043 0.48298 0.0
H533 H 0.76061 0.06833 0.50617 0.0
H534 H 0.83962 0.07624 0.44877 0.0
H535 H 0.83558 0.04447 0.47265 0.0
H536 H 0.82864 0.0976 0.55742 0.0
H537 H 0.83012 0.06688 0.53196 0.0
H538 H 0.75203 0.07392 0.59009 0.0
H539 H 0.75312 0.04365 0.56411 0.0
H540 H 0.82306 0.93189 0.55236 0.0
H541 H 0.82548 0.96356 0.52826 0.0
H542 H 0.75065 0.95611 0.58955 0.0
H543 H 0.75255 0.98746 0.56477 0.0
H544 H 0.75302 0.93482 0.48107 0.0
H545 H 0.7544 0.96586 0.50578 0.0
H546 H 0.82768 0.95656 0.44383 0.0
H547 H 0.82965 0.98723 0.46938 0.0
N548 N 0.79675 0.01633 0.49386 0.0
N549 N 0.78917 1.01552 0.5418 0.0
C550 C 0.48274 0.2807 0.93552 0.0
C551 C 0.46116 0.26589 0.93118 0.0
C552 C 0.49848 0.28025 0.95683 0.0
C553 C 0.49323 0.26479 0.97409 0.0
C554 C 0.45566 0.25069 0.94871 0.0
C555 C 0.47145 0.2502 0.96993 0.0
C556 C 0.50913 0.26425 0.99706 0.0
C557 C 0.57579 0.25423 0.94048 0.0
C558 C 0.59756 0.26935 0.94034 0.0
C559 C 0.55633 0.25329 0.95922 0.0
C560 C 0.55808 0.26761 0.97802 0.0
C561 C 0.59907 0.28372 0.95914 0.0
C562 C 0.57967 0.28277 0.97781 0.0
C563 C 0.53902 0.26609 0.99886 0.0
C564 C 0.56257 0.24214 0.10071 0.0
C565 C 0.58506 0.25592 0.1061 0.0
C566 C 0.54638 0.2447 0.07989 0.0
C567 C 0.55211 0.26124 0.06413 0.0
C568 C 0.59078 0.27244 0.09027 0.0
C569 C 0.57457 0.27498 0.06943 0.0
C570 C 0.53613 0.26344 0.04134 0.0
C571 C 0.47312 0.27376 0.09957 0.0
C572 C 0.45042 0.25943 0.10013 0.0
C573 C 0.49126 0.2747 0.07996 0.0
C574 C 0.48737 0.26108 0.06067 0.0
C575 C 0.44625 0.24608 0.0806 0.0
C576 C 0.46447 0.24696 0.06105 0.0
C577 C 0.50621 0.26204 0.0396 0.0
H578 H 0.48762 0.29259 0.9224 0.0
H579 H 0.51455 0.29211 0.95986 0.0
H580 H 0.43882 0.2393 0.94622 0.0
H581 H 0.46667 0.23832 0.98312 0.0
H582 H 0.57428 0.24274 0.92648 0.0
H583 H 0.54035 0.24107 0.95929 0.0
H584 H 0.61529 0.29576 0.95944 0.0
H585 H 0.58155 0.2939 0.99218 0.0
H586 H 0.55749 0.22933 0.11258 0.0
H587 H 0.5297 0.23351 0.07592 0.0
H588 H 0.60822 0.28314 0.09368 0.0
H589 H 0.57966 0.28768 0.05738 0.0
H590 H 0.47657 0.28453 0.11411 0.0
H591 H 0.50813 0.28625 0.07979 0.0
H592 H 0.42909 0.23476 0.08054 0.0
H593 H 0.46086 0.23642 0.0463 0.0
N594 N 0.49396 0.26227 0.01752 0.0
N595 N 0.55126 0.26564 0.02093 0.0
H596 H 0.17507 0.3687 0.33237 0.0
H597 H 0.16799 0.37139 0.25556 0.0
H598 H 0.13577 0.40065 0.2583 0.0
H599 H 0.11064 0.42616 0.28229 0.0
H600 H 0.11733 0.42379 0.35906 0.0
H601 H 0.14802 0.39345 0.35657 0.0
C602 C 0.16618 0.37552 0.31625 0.0
C603 C 0.17424 0.36797 0.29379 0.0
C604 C 0.14754 0.3924 0.31793 0.0
C605 C 0.16264 0.37713 0.27308 0.0
C606 C 0.14407 0.39381 0.27461 0.0
C607 C 0.1189 0.41905 0.29848 0.0
C608 C 0.11186 0.42733 0.32081 0.0
C609 C 0.13667 0.40174 0.29691 0.0
C610 C 0.12227 0.41766 0.34164 0.0
C611 C 0.13996 0.40038 0.34022 0.0
H612 H 0.1448 0.67786 0.7327 0.0
H613 H 0.21706 0.64286 0.70949 0.0
H614 H 0.18658 0.6126 0.70239 0.0
H615 H 0.13983 0.59562 0.70429 0.0
H616 H 0.06732 0.63051 0.7272 0.0
H617 H 0.09746 0.66124 0.73292 0.0
C618 C 0.15379 0.66369 0.72578 0.0
C619 C 0.18319 0.66261 0.72175 0.0
C620 C 0.13614 0.64628 0.72184 0.0
C621 C 0.19457 0.64403 0.71306 0.0
C622 C 0.17714 0.62674 0.70891 0.0
C623 C 0.13051 0.61003 0.71019 0.0
C624 C 0.10134 0.61072 0.71533 0.0
C625 C 0.14795 0.62762 0.71347 0.0
C626 C 0.08976 0.62945 0.72339 0.0
C627 C 0.10696 0.64706 0.72656 0.0
H628 H 0.90191 0.68 0.3064 0.0
H629 H 0.82842 0.64102 0.31889 0.0
H630 H 0.859 0.61112 0.32561 0.0
H631 H 0.90643 0.59573 0.3265 0.0
H632 H 0.9801 0.63466 0.31454 0.0
H633 H 0.94964 0.66485 0.30907 0.0
C634 C 0.89261 0.66503 0.3109 0.0
C635 C 0.86289 0.66276 0.312 0.0
C636 C 0.91034 0.64784 0.3147 0.0
C637 C 0.8512 0.64315 0.31757 0.0
C638 C 0.86867 0.62605 0.32152 0.0
C639 C 0.91588 0.61086 0.32305 0.0
C640 C 0.94554 0.61287 0.32088 0.0
C641 C 0.89825 0.62817 0.31992 0.0
C642 C 0.95733 0.63258 0.31599 0.0
C643 C 0.93993 0.64989 0.31297 0.0
H644 H 0.91527 0.34558 0.69873 0.0
H645 H 0.83733 0.37678 0.7155 0.0
H646 H 0.86255 0.41007 0.71668 0.0
H647 H 0.90659 0.43043 0.71242 0.0
H648 H 0.98461 0.39926 0.69581 0.0
H649 H 0.95937 0.36597 0.69451 0.0
C650 C 0.90375 0.35968 0.70244 0.0
C651 C 0.87444 0.35863 0.70706 0.0
C652 C 0.91837 0.37882 0.70298 0.0
C653 C 0.85995 0.37706 0.71219 0.0
C654 C 0.87433 0.39614 0.71273 0.0
C655 C 0.91814 0.41634 0.70873 0.0
C656 C 0.94748 0.4174 0.7042 0.0
C657 C 0.90354 0.39721 0.70818 0.0
C658 C 0.96198 0.39898 0.69906 0.0
C659 C 0.94759 0.3799 0.69845 0.0
H660 H 0.21307 0.17201 0.40102 0.0
H661 H 0.30406 0.18051 0.40077 0.0
H662 H 0.30971 0.14938 0.42541 0.0
H663 H 0.28877 0.12005 0.44769 0.0
H664 H 0.19775 0.11158 0.4477 0.0
H665 H 0.19218 0.14263 0.42301 0.0
C666 C 0.23413 0.16717 0.40652 0.0
C667 C 0.25809 0.17863 0.39903 0.0
C668 C 0.23724 0.1493 0.4208 0.0
C669 C 0.28526 0.17188 0.40602 0.0
C670 C 0.28851 0.15413 0.42024 0.0
C671 C 0.26773 0.12489 0.44212 0.0
C672 C 0.24373 0.1135 0.44967 0.0
C673 C 0.26465 0.14272 0.42775 0.0
C674 C 0.21659 0.12019 0.44251 0.0
C675 C 0.21338 0.13789 0.42824 0.0
H676 H 0.37914 0.81059 0.8479 0.0
H677 H 0.38181 0.74483 0.83371 0.0
H678 H 0.41162 0.73956 0.86907 0.0
H679 H 0.43799 0.75376 0.9035 0.0
H680 H 0.4356 0.81959 0.91731 0.0
H681 H 0.40523 0.82473 0.88231 0.0
C682 C 0.38644 0.79512 0.85239 0.0
C683 C 0.37822 0.77815 0.8381 0.0
C684 C 0.40381 0.79222 0.87262 0.0
C685 C 0.38749 0.75816 0.84451 0.0
C686 C 0.4047 0.75514 0.86466 0.0
C687 C 0.43062 0.7692 0.89897 0.0
C688 C 0.43918 0.78626 0.91299 0.0
C689 C 0.41306 0.77206 0.87882 0.0
C690 C 0.4297 0.80621 0.90666 0.0
C691 C 0.41218 0.80917 0.88671 0.0
H692 H 0.76507 0.86411 0.39666 0.0
H693 H 0.85636 0.85975 0.40097 0.0
H694 H 0.85853 0.89108 0.42524 0.0
H695 H 0.83454 0.91944 0.44581 0.0
H696 H 0.74338 0.92444 0.44052 0.0
H697 H 0.7412 0.89319 0.41611 0.0
C698 C 0.78548 0.87014 0.40266 0.0
C699 C 0.81049 0.85948 0.39704 0.0
C700 C 0.78662 0.88825 0.41656 0.0
C701 C 0.83672 0.86741 0.40531 0.0
C702 C 0.83801 0.88541 0.41909 0.0
C703 C 0.81421 0.91385 0.4391 0.0
C704 C 0.78917 0.9243 0.44511 0.0
C705 C 0.81309 0.89592 0.42492 0.0
C706 C 0.76297 0.91658 0.43652 0.0
C707 C 0.7617 0.89876 0.42242 0.0
H708 H 0.70274 0.27709 0.87148 0.0
H709 H 0.63758 0.26532 0.81854 0.0
H710 H 0.60205 0.26207 0.84993 0.0
H711 H 0.58917 0.26402 0.8924 0.0
H712 H 0.6547 0.27578 0.9451 0.0
H713 H 0.69021 0.27803 0.91379 0.0
C714 C 0.68073 0.27393 0.86678 0.0
C715 C 0.67285 0.27156 0.84267 0.0
C716 C 0.6604 0.27226 0.88488 0.0
C717 C 0.64431 0.26705 0.83696 0.0
C718 C 0.62394 0.26531 0.8549 0.0
C719 C 0.61126 0.26686 0.89705 0.0
C720 C 0.61915 0.26993 0.92109 0.0
C721 C 0.6317 0.26804 0.87892 0.0
C722 C 0.64788 0.27377 0.92674 0.0
C723 C 0.66828 0.27493 0.90885 0.0
H724 H 0.21472 0.8619 0.62848 0.0
H725 H 0.30518 0.86215 0.64144 0.0
H726 H 0.31012 0.8943 0.61843 0.0
H727 H 0.28873 0.92244 0.59463 0.0
H728 H 0.1984 0.9216 0.58098 0.0
H729 H 0.19351 0.88958 0.60415 0.0
C730 C 0.23557 0.86886 0.62608 0.0
C731 C 0.25953 0.85957 0.6367 0.0
C732 C 0.2383 0.88729 0.61271 0.0
C733 C 0.28632 0.86906 0.63374 0.0
C734 C 0.2892 0.8874 0.62045 0.0
C735 C 0.26802 0.91514 0.59653 0.0
C736 C 0.24397 0.92447 0.58611 0.0
C737 C 0.26534 0.89665 0.60985 0.0
C738 C 0.21722 0.91494 0.58907 0.0
C739 C 0.21441 0.89655 0.60222 0.0
H740 H 0.69409 0.78415 0.17871 0.0
H741 H 0.62352 0.7766 0.2266 0.0
H742 H 0.59079 0.77388 0.19261 0.0
H743 H 0.5821 0.77438 0.14914 0.0
H744 H 0.65282 0.78234 0.10145 0.0
H745 H 0.68557 0.78406 0.13543 0.0
C746 C 0.67158 0.78168 0.1817 0.0
C747 C 0.66128 0.78056 0.20516 0.0
C748 C 0.65288 0.78027 0.16208 0.0
C749 C 0.63197 0.77771 0.20873 0.0
C750 C 0.61326 0.77607 0.18929 0.0
C751 C 0.60471 0.7763 0.14622 0.0
C752 C 0.61499 0.7783 0.12281 0.0
C753 C 0.62345 0.77743 0.16588 0.0
C754 C 0.64432 0.78102 0.1193 0.0
C755 C 0.66309 0.78192 0.13872 0.0
H756 H 0.80552 0.16109 0.65032 0.0
H757 H 0.71502 0.16501 0.63874 0.0
H758 H 0.71704 0.13718 0.60946 0.0
H759 H 0.74416 0.1111 0.58791 0.0
H760 H 0.83457 0.10669 0.59963 0.0
H761 H 0.83303 0.13567 0.62756 0.0
C762 C 0.78631 0.15603 0.64117 0.0
C763 C 0.76012 0.16503 0.64689 0.0
C764 C 0.7876 0.13995 0.62432 0.0
C765 C 0.73538 0.15813 0.635 0.0
C766 C 0.73652 0.14227 0.61816 0.0
C767 C 0.76353 0.11641 0.59665 0.0
C768 C 0.7894 0.10663 0.59175 0.0
C769 C 0.76245 0.13291 0.61289 0.0
C770 C 0.81438 0.11402 0.60289 0.0
C771 C 0.8135 0.13051 0.619 0.0
H772 H 0.35325 0.25281 0.17712 0.0
H773 H 0.42542 0.25797 0.22474 0.0
H774 H 0.45727 0.26055 0.19065 0.0
H775 H 0.46472 0.26081 0.1473 0.0
H776 H 0.39253 0.25582 0.09965 0.0
H777 H 0.36063 0.25368 0.13373 0.0
C778 C 0.37592 0.25471 0.18002 0.0
C779 C 0.38693 0.25518 0.20345 0.0
C780 C 0.39414 0.25612 0.16033 0.0
C781 C 0.41642 0.25733 0.2069 0.0
C782 C 0.43464 0.25889 0.18742 0.0
C783 C 0.44199 0.25946 0.14437 0.0
C784 C 0.43106 0.25845 0.12094 0.0
C785 C 0.42375 0.25823 0.16406 0.0
C786 C 0.40155 0.25637 0.11749 0.0
C787 C 0.38327 0.25526 0.13697 0.0
H788 H 0.88003 0.65973 0.76414 0.0
H789 H 0.86096 0.66832 0.6893 0.0
H790 H 0.89162 0.63923 0.67944 0.0
H791 H 0.92261 0.61053 0.69227 0.0
H792 H 0.94119 0.60208 0.76724 0.0
H793 H 0.91147 0.63163 0.77685 0.0
C794 C 0.88238 0.65515 0.74567 0.0
C795 C 0.86808 0.66616 0.72751 0.0
C796 C 0.89982 0.63832 0.74015 0.0
C797 C 0.87189 0.66026 0.70363 0.0
C798 C 0.8893 0.64354 0.69799 0.0
C799 C 0.92037 0.61528 0.71068 0.0
C800 C 0.93397 0.60398 0.72901 0.0
C801 C 0.90326 0.63238 0.71612 0.0
C802 C 0.93059 0.61025 0.75281 0.0
C803 C 0.91373 0.62723 0.75833 0.0
H804 H 0.87713 0.37824 0.27712 0.0
H805 H 0.87041 0.36553 0.35255 0.0
H806 H 0.90432 0.39357 0.36112 0.0
H807 H 0.93533 0.42216 0.34715 0.0
H808 H 0.9405 0.43529 0.27167 0.0
H809 H 0.90772 0.40669 0.26323 0.0
C810 C 0.88286 0.3817 0.29547 0.0
C811 C 0.8711 0.36982 0.31415 0.0
C812 C 0.90215 0.39794 0.30027 0.0
C813 C 0.8793 0.37428 0.33779 0.0
C814 C 0.89857 0.3904 0.34272 0.0
C815 C 0.92914 0.41884 0.32887 0.0
C816 C 0.9405 0.43085 0.31009 0.0
C817 C 0.91003 0.40241 0.3241 0.0
C818 C 0.9325 0.42613 0.28647 0.0
C819 C 0.91358 0.40985 0.28161 0.0
H820 H 0.2049 0.39003 0.72012 0.0
H821 H 0.13936 0.34355 0.72983 0.0
H822 H 0.10289 0.36963 0.72258 0.0
H823 H 0.08957 0.40591 0.71473 0.0
H824 H 0.15521 0.45245 0.70567 0.0
H825 H 0.19162 0.42609 0.71127 0.0
C826 C 0.18263 0.38564 0.72074 0.0
C827 C 0.17488 0.36489 0.72562 0.0
C828 C 0.16177 0.40072 0.71663 0.0
C829 C 0.14593 0.35937 0.72593 0.0
C830 C 0.12505 0.3743 0.72191 0.0
C831 C 0.11185 0.41028 0.71405 0.0
C832 C 0.11962 0.43114 0.70983 0.0
C833 C 0.13272 0.39506 0.71744 0.0
C834 C 0.1486 0.43648 0.70862 0.0
C835 C 0.16946 0.42144 0.71199 0.0
H836 H 0.19271 0.66454 0.32465 0.0
H837 H 0.11959 0.70307 0.33576 0.0
H838 H 0.08885 0.67233 0.33618 0.0
H839 H 0.0826 0.63446 0.33315 0.0
H840 H 0.15595 0.59592 0.32314 0.0
H841 H 0.18665 0.62667 0.32265 0.0
C842 C 0.1701 0.66622 0.32743 0.0
C843 C 0.15854 0.68614 0.33012 0.0
C844 C 0.15252 0.64845 0.3278 0.0
C845 C 0.12907 0.68799 0.3333 0.0
C846 C 0.11146 0.67039 0.33369 0.0
C847 C 0.10534 0.63277 0.33111 0.0
C848 C 0.11689 0.61288 0.32811 0.0
C849 C 0.12294 0.65054 0.33093 0.0
C850 C 0.14639 0.61103 0.32514 0.0
C851 C 0.16401 0.62862 0.32499 0.0
H852 H 0.76212 0.86067 0.63465 0.0
H853 H 0.85347 0.86248 0.64113 0.0
H854 H 0.85527 0.89387 0.61653 0.0
H855 H 0.83098 0.92091 0.59332 0.0
H856 H 0.73965 0.91908 0.5865 0.0
H857 H 0.73775 0.8879 0.6115 0.0
C858 C 0.78239 0.86804 0.63086 0.0
C859 C 0.80762 0.85917 0.63967 0.0
C860 C 0.78329 0.88614 0.6167 0.0
C861 C 0.83375 0.8688 0.63431 0.0
C862 C 0.8348 0.88682 0.62034 0.0
C863 C 0.81067 0.91359 0.5971 0.0
C864 C 0.78551 0.92235 0.58799 0.0
C865 C 0.80972 0.89558 0.61136 0.0
C866 C 0.75934 0.91283 0.59347 0.0
C867 C 0.75823 0.89492 0.60767 0.0
H868 H 0.66186 0.22771 0.19332 0.0
H869 H 0.66138 0.29361 0.20695 0.0
H870 H 0.63158 0.29915 0.17164 0.0
H871 H 0.60511 0.28524 0.13712 0.0
H872 H 0.60552 0.2193 0.12373 0.0
H873 H 0.63522 0.2138 0.15906 0.0
C874 C 0.655 0.24327 0.18874 0.0
C875 C 0.66391 0.2602 0.20282 0.0
C876 C 0.63767 0.24634 0.16851 0.0
C877 C 0.65519 0.2803 0.1963 0.0
C878 C 0.63799 0.28348 0.17617 0.0
C879 C 0.61186 0.26968 0.14184 0.0
C880 C 0.60299 0.25271 0.12779 0.0
C881 C 0.62912 0.26662 0.16213 0.0
C882 C 0.61165 0.23262 0.13438 0.0
C883 C 0.62881 0.22946 0.15451 0.0
H884 H 0.24948 0.1607 0.65812 0.0
H885 H 0.26322 0.20053 0.59703 0.0
H886 H 0.26377 0.17028 0.57094 0.0
H887 H 0.25958 0.13256 0.56535 0.0
H888 H 0.24659 0.09267 0.62652 0.0
H889 H 0.24648 0.12289 0.65265 0.0
C890 C 0.25292 0.16274 0.63913 0.0
C891 C 0.25626 0.18287 0.62956 0.0
C892 C 0.25319 0.14528 0.62421 0.0
C893 C 0.26024 0.18524 0.60484 0.0
C894 C 0.26069 0.16795 0.58992 0.0
C895 C 0.25702 0.13045 0.58443 0.0
C896 C 0.25303 0.11036 0.59392 0.0
C897 C 0.25706 0.1479 0.59939 0.0
C898 C 0.2493 0.10796 0.61867 0.0
C899 C 0.24941 0.12523 0.63366 0.0
H900 H 0.35005 0.75788 0.16743 0.0
H901 H 0.41368 0.77229 0.2208 0.0
H902 H 0.44947 0.77634 0.18968 0.0
H903 H 0.46305 0.77444 0.14726 0.0
H904 H 0.39883 0.76006 0.09428 0.0
H905 H 0.36313 0.75697 0.12531 0.0
C906 C 0.37179 0.76177 0.17229 0.0
C907 C 0.37919 0.76463 0.19643 0.0
C908 C 0.39225 0.76394 0.15436 0.0
C909 C 0.40735 0.77012 0.20234 0.0
C910 C 0.42787 0.77233 0.18457 0.0
C911 C 0.4412 0.77083 0.14251 0.0
C912 C 0.43376 0.76724 0.11847 0.0
C913 C 0.42061 0.76914 0.1605 0.0
C914 C 0.40532 0.76246 0.11266 0.0
C915 C 0.38481 0.76082 0.13039 0.0
H916 H 0.83476 0.17271 0.40671 0.0
H917 H 0.74395 0.17338 0.39579 0.0
H918 H 0.73915 0.14122 0.41877 0.0
H919 H 0.76068 0.11295 0.44215 0.0
H920 H 0.85135 0.11287 0.45402 0.0
H921 H 0.8562 0.14473 0.43054 0.0
C922 C 0.81388 0.16594 0.40954 0.0
C923 C 0.78977 0.1755 0.39951 0.0
C924 C 0.81123 0.1475 0.42292 0.0
C925 C 0.76293 0.16626 0.40302 0.0
C926 C 0.76013 0.14792 0.4163 0.0
C927 C 0.78148 0.12 0.4398 0.0
C928 C 0.8056 0.11048 0.44986 0.0
C929 C 0.78412 0.13842 0.42637 0.0
C930 C 0.83244 0.11968 0.44625 0.0
C931 C 0.83524 0.13799 0.43293 0.0
H932 H 0.38779 0.28211 0.83771 0.0
H933 H 0.38943 0.21511 0.83601 0.0
H934 H 0.41864 0.21457 0.87212 0.0
H935 H 0.44356 0.23298 0.90433 0.0
H936 H 0.44055 0.29989 0.9072 0.0
H937 H 0.41222 0.30058 0.87049 0.0
C938 C 0.39434 0.26739 0.84535 0.0
C939 C 0.38647 0.24869 0.83403 0.0
C940 C 0.411 0.26715 0.86631 0.0
C941 C 0.39551 0.22976 0.84406 0.0
C942 C 0.4121 0.22942 0.86483 0.0
C943 C 0.4365 0.24772 0.89708 0.0
C944 C 0.4442 0.26634 0.9086 0.0
C945 C 0.41994 0.248 0.87612 0.0
C946 C 0.43528 0.28532 0.89861 0.0
C947 C 0.41889 0.28572 0.87768 0.0
H948 H 0.268 0.86193 0.40781 0.0
H949 H 0.28577 0.90309 0.34861 0.0
H950 H 0.28011 0.93313 0.37436 0.0
H951 H 0.27075 0.94781 0.4137 0.0
H952 H 0.253 0.90696 0.47312 0.0
H953 H 0.25731 0.87677 0.44716 0.0
C954 C 0.27033 0.87747 0.40049 0.0
C955 C 0.27754 0.8802 0.37633 0.0
C956 C 0.26697 0.89476 0.41542 0.0
C957 C 0.28073 0.90049 0.36722 0.0
C958 C 0.27735 0.91771 0.3819 0.0
C959 C 0.26801 0.9323 0.42102 0.0
C960 C 0.26172 0.92967 0.44535 0.0
C961 C 0.27071 0.91503 0.40605 0.0
C962 C 0.25764 0.90945 0.45442 0.0
C963 C 0.26026 0.89217 0.43961 0.0
H964 H 0.64122 0.78493 0.82847 0.0
H965 H 0.71959 0.78745 0.86881 0.0
H966 H 0.69317 0.78526 0.90609 0.0
H967 H 0.64769 0.78281 0.92729 0.0
H968 H 0.56936 0.78013 0.88689 0.0
H969 H 0.59581 0.78223 0.84963 0.0
C970 C 0.65248 0.78514 0.84543 0.0
C971 C 0.68232 0.78639 0.84585 0.0
C972 C 0.63715 0.78383 0.8668 0.0
C973 C 0.69665 0.7863 0.86798 0.0
C974 C 0.68154 0.78516 0.88931 0.0
C975 C 0.63644 0.78283 0.91032 0.0
C976 C 0.60661 0.78135 0.90987 0.0
C977 C 0.65179 0.78396 0.88894 0.0
C978 C 0.59233 0.78107 0.88773 0.0
C979 C 0.60742 0.78236 0.86641 0.0
loop_
_geom_bond_atom_site_label_1
_geom_bond_atom_site_label_2
_geom_bond_distance
_geom_bond_site_symmetry_2
_ccdc_geom_bond_type
C0 C1 1.264 . S
C0 C5 1.479 . S
C0 C10 1.465 . S
C1 C0 1.264 . S
C1 C3 1.339 . S
C1 H28 0.931 . S
C2 C3 1.395 . S
C2 C4 1.320 . S
C3 C1 1.339 . S
C3 C2 1.395 . S
C3 H29 0.929 . S
C4 C2 1.320 . S
C4 C5 1.405 . S
C4 H30 0.930 . S
C5 C0 1.479 . S
C5 C4 1.405 . S
C5 H31 0.931 . S
U6 O7 2.454 . S
U6 O8 2.458 . S
U6 C9 2.984 . S
U6 C10 2.847 . S
U6 C23 2.882 . S
U6 O24 2.441 . S
U6 O25 2.420 . S
U6 O26 2.455 . S
U6 O27 2.449 . S
O7 U6 2.454 . S
O7 C9 1.353 . S
O8 U6 2.458 . S
O8 C9 1.286 . S
C9 U6 2.984 . S
C9 O7 1.353 . S
C9 O8 1.286 . S
C9 C11 1.363 . S
C10 C0 1.465 . S
C10 U6 2.847 . S
C10 O24 1.249 . S
C10 O25 1.202 . S
C11 C9 1.363 . S
C11 C13 1.408 . S
C11 C16 1.342 . S
C12 C13 1.310 . S
C12 C15 1.461 . S
C12 H32 0.932 . S
C13 C11 1.408 . S
C13 C12 1.310 . S
C13 H33 0.930 . S
C14 C15 1.474 . S
C14 C16 1.285 . S
C14 H34 0.929 . S
C15 C12 1.461 . S
C15 C14 1.474 . S
C16 C11 1.342 . S
C16 C14 1.285 . S
C16 H35 0.930 . S
C17 C20 1.424 . S
C17 C22 1.245 . S
C17 C23 1.428 . S
C18 C21 1.260 . S
C18 C22 1.477 . S
C18 H36 0.932 . S
C19 C20 1.384 . S
C19 C21 1.479 . S
C19 H37 0.929 . S
C20 C17 1.424 . S
C20 C19 1.384 . S
C20 H38 0.928 . S
C21 C18 1.260 . S
C21 C19 1.479 . S
C22 C17 1.245 . S
C22 C18 1.477 . S
C22 H39 0.932 . S
C23 U6 2.882 . S
C23 C17 1.428 . S
C23 O26 1.301 . S
C23 O27 1.282 . S
O24 U6 2.441 . S
O24 C10 1.249 . S
O25 U6 2.420 . S
O25 C10 1.202 . S
O26 U6 2.455 . S
O26 C23 1.301 . S
O27 U6 2.449 . S
O27 C23 1.282 . S
H28 C1 0.931 . S
H29 C3 0.929 . S
H30 C4 0.930 . S
H31 C5 0.931 . S
H32 C12 0.932 . S
H33 C13 0.930 . S
H34 C14 0.929 . S
H35 C16 0.930 . S
H36 C18 0.932 . S
H37 C19 0.929 . S
H38 C20 0.928 . S
H39 C22 0.932 . S
C40 C41 1.264 . S
C40 C45 1.479 . S
C40 C50 1.465 . S
C41 C40 1.264 . S
C41 C43 1.339 . S
C41 H68 0.931 . S
C42 C43 1.395 . S
C42 C44 1.320 . S
C43 C41 1.339 . S
C43 C42 1.395 . S
C43 H69 0.929 . S
C44 C42 1.320 . S
C44 C45 1.405 . S
C44 H70 0.930 . S
C45 C40 1.479 . S
C45 C44 1.405 . S
C45 H71 0.931 . S
U46 O47 2.454 . S
U46 O48 2.458 . S
U46 C49 2.984 . S
U46 C50 2.847 . S
U46 C63 2.882 . S
U46 O64 2.441 . S
U46 O65 2.420 . S
U46 O66 2.455 . S
U46 O67 2.449 . S
O47 U46 2.454 . S
O47 C49 1.353 . S
O48 U46 2.458 . S
O48 C49 1.286 . S
C49 U46 2.984 . S
C49 O47 1.353 . S
C49 O48 1.286 . S
C49 C51 1.363 . S
C50 C40 1.465 . S
C50 U46 2.847 . S
C50 O64 1.249 . S
C50 O65 1.202 . S
C51 C49 1.363 . S
C51 C53 1.408 . S
C51 C56 1.342 . S
C52 C53 1.310 . S
C52 C55 1.461 . S
C52 H72 0.932 . S
C53 C51 1.408 . S
C53 C52 1.310 . S
C53 H73 0.930 . S
C54 C55 1.474 . S
C54 C56 1.285 . S
C54 H74 0.929 . S
C55 C52 1.461 . S
C55 C54 1.474 . S
C56 C51 1.342 . S
C56 C54 1.285 . S
C56 H75 0.930 . S
C57 C60 1.424 . S
C57 C62 1.245 . S
C57 C63 1.428 . S
C58 C61 1.260 . S
C58 C62 1.477 . S
C58 H76 0.932 . S
C59 C60 1.384 . S
C59 C61 1.479 . S
C59 H77 0.929 . S
C60 C57 1.424 . S
C60 C59 1.384 . S
C60 H78 0.928 . S
C61 C58 1.260 . S
C61 C59 1.479 . S
C62 C57 1.245 . S
C62 C58 1.477 . S
C62 H79 0.932 . S
C63 U46 2.882 . S
C63 C57 1.428 . S
C63 O66 1.301 . S
C63 O67 1.282 . S
O64 U46 2.441 . S
O64 C50 1.249 . S
O65 U46 2.420 . S
O65 C50 1.202 . S
O66 U46 2.455 . S
O66 C63 1.301 . S
O67 U46 2.449 . S
O67 C63 1.282 . S
H68 C41 0.931 . S
H69 C43 0.929 . S
H70 C44 0.930 . S
H71 C45 0.931 . S
H72 C52 0.932 . S
H73 C53 0.930 . S
H74 C54 0.929 . S
H75 C56 0.930 . S
H76 C58 0.932 . S
H77 C59 0.929 . S
H78 C60 0.928 . S
H79 C62 0.932 . S
C80 C81 1.264 . S
C80 C85 1.479 . S
C80 C90 1.465 . S
C81 C80 1.264 . S
C81 C83 1.339 . S
C81 H108 0.931 . S
C82 C83 1.395 . S
C82 C84 1.320 . S
C83 C81 1.339 . S
C83 C82 1.395 . S
C83 H109 0.929 . S
C84 C82 1.320 . S
C84 C85 1.405 . S
C84 H110 0.930 . S
C85 C80 1.479 . S
C85 C84 1.405 . S
C85 H111 0.931 . S
U86 O87 2.454 . S
U86 O88 2.458 . S
U86 C89 2.984 . S
U86 C90 2.847 . S
U86 C103 2.882 . S
U86 O104 2.441 . S
U86 O105 2.420 . S
U86 O106 2.455 . S
U86 O107 2.449 . S
O87 U86 2.454 . S
O87 C89 1.353 . S
O88 U86 2.458 . S
O88 C89 1.286 . S
C89 U86 2.984 . S
C89 O87 1.353 . S
C89 O88 1.286 . S
C89 C91 1.363 . S
C90 C80 1.465 . S
C90 U86 2.847 . S
C90 O104 1.249 . S
C90 O105 1.202 . S
C91 C89 1.363 . S
C91 C93 1.408 . S
C91 C96 1.342 . S
C92 C93 1.310 . S
C92 C95 1.461 . S
C92 H112 0.932 . S
C93 C91 1.408 . S
C93 C92 1.310 . S
C93 H113 0.930 . S
C94 C95 1.474 . S
C94 C96 1.285 . S
C94 H114 0.929 . S
C95 C92 1.461 . S
C95 C94 1.474 . S
C96 C91 1.342 . S
C96 C94 1.285 . S
C96 H115 0.930 . S
C97 C100 1.424 . S
C97 C102 1.245 . S
C97 C103 1.428 . S
C98 C101 1.260 . S
C98 C102 1.477 . S
C98 H116 0.932 . S
C99 C100 1.384 . S
C99 C101 1.479 . S
C99 H117 0.929 . S
C100 C97 1.424 . S
C100 C99 1.384 . S
C100 H118 0.928 . S
C101 C98 1.260 . S
C101 C99 1.479 . S
C102 C97 1.245 . S
C102 C98 1.477 . S
C102 H119 0.932 . S
C103 U86 2.882 . S
C103 C97 1.428 . S
C103 O106 1.301 . S
C103 O107 1.282 . S
O104 U86 2.441 . S
O104 C90 1.249 . S
O105 U86 2.420 . S
O105 C90 1.202 . S
O106 U86 2.455 . S
O106 C103 1.301 . S
O107 U86 2.449 . S
O107 C103 1.282 . S
H108 C81 0.931 . S
H109 C83 0.929 . S
H110 C84 0.930 . S
H111 C85 0.931 . S
H112 C92 0.932 . S
H113 C93 0.930 . S
H114 C94 0.929 . S
H115 C96 0.930 . S
H116 C98 0.932 . S
H117 C99 0.929 . S
H118 C100 0.928 . S
H119 C102 0.932 . S
C120 C121 1.264 . S
C120 C125 1.479 . S
C120 C130 1.465 . S
C121 C120 1.264 . S
C121 C123 1.339 . S
C121 H148 0.931 . S
C122 C123 1.395 . S
C122 C124 1.320 . S
C123 C121 1.339 . S
C123 C122 1.395 . S
C123 H149 0.929 . S
C124 C122 1.320 . S
C124 C125 1.405 . S
C124 H150 0.930 . S
C125 C120 1.479 . S
C125 C124 1.405 . S
C125 H151 0.931 . S
U126 O127 2.454 . S
U126 O128 2.458 . S
U126 C129 2.984 . S
U126 C130 2.847 . S
U126 C143 2.882 . S
U126 O144 2.441 . S
U126 O145 2.420 . S
U126 O146 2.455 . S
U126 O147 2.449 . S
O127 U126 2.454 . S
O127 C129 1.353 . S
O128 U126 2.458 . S
O128 C129 1.286 . S
C129 U126 2.984 . S
C129 O127 1.353 . S
C129 O128 1.286 . S
C129 C131 1.363 . S
C130 C120 1.465 . S
C130 U126 2.847 . S
C130 O144 1.249 . S
C130 O145 1.202 . S
C131 C129 1.363 . S
C131 C133 1.408 . S
C131 C136 1.342 . S
C132 C133 1.310 . S
C132 C135 1.461 . S
C132 H152 0.932 . S
C133 C131 1.408 . S
C133 C132 1.310 . S
C133 H153 0.930 . S
C134 C135 1.474 . S
C134 C136 1.285 . S
C134 H154 0.929 . S
C135 C132 1.461 . S
C135 C134 1.474 . S
C136 C131 1.342 . S
C136 C134 1.285 . S
C136 H155 0.930 . S
C137 C140 1.424 . S
C137 C142 1.245 . S
C137 C143 1.428 . S
C138 C141 1.260 . S
C138 C142 1.477 . S
C138 H156 0.932 . S
C139 C140 1.384 . S
C139 C141 1.479 . S
C139 H157 0.929 . S
C140 C137 1.424 . S
C140 C139 1.384 . S
C140 H158 0.928 . S
C141 C138 1.260 . S
C141 C139 1.479 . S
C142 C137 1.245 . S
C142 C138 1.477 . S
C142 H159 0.932 . S
C143 U126 2.882 . S
C143 C137 1.428 . S
C143 O146 1.301 . S
C143 O147 1.282 . S
O144 U126 2.441 . S
O144 C130 1.249 . S
O145 U126 2.420 . S
O145 C130 1.202 . S
O146 U126 2.455 . S
O146 C143 1.301 . S
O147 U126 2.449 . S
O147 C143 1.282 . S
H148 C121 0.931 . S
H149 C123 0.929 . S
H150 C124 0.930 . S
H151 C125 0.931 . S
H152 C132 0.932 . S
H153 C133 0.930 . S
H154 C134 0.929 . S
H155 C136 0.930 . S
H156 C138 0.932 . S
H157 C139 0.929 . S
H158 C140 0.928 . S
H159 C142 0.932 . S
C160 C161 1.264 . S
C160 C165 1.479 . S
C160 C170 1.465 . S
C161 C160 1.264 . S
C161 C163 1.339 . S
C161 H188 0.931 . S
C162 C163 1.395 . S
C162 C164 1.320 . S
C163 C161 1.339 . S
C163 C162 1.395 . S
C163 H189 0.929 . S
C164 C162 1.320 . S
C164 C165 1.405 . S
C164 H190 0.930 . S
C165 C160 1.479 . S
C165 C164 1.405 . S
C165 H191 0.931 . S
U166 O167 2.454 . S
U166 O168 2.458 . S
U166 C169 2.984 . S
U166 C170 2.847 . S
U166 C183 2.882 . S
U166 O184 2.441 . S
U166 O185 2.420 . S
U166 O186 2.455 . S
U166 O187 2.449 . S
O167 U166 2.454 . S
O167 C169 1.353 . S
O168 U166 2.458 . S
O168 C169 1.286 . S
C169 U166 2.984 . S
C169 O167 1.353 . S
C169 O168 1.286 . S
C169 C171 1.363 . S
C170 C160 1.465 . S
C170 U166 2.847 . S
C170 O184 1.249 . S
C170 O185 1.202 . S
C171 C169 1.363 . S
C171 C173 1.408 . S
C171 C176 1.342 . S
C172 C173 1.310 . S
C172 C175 1.461 . S
C172 H192 0.932 . S
C173 C171 1.408 . S
C173 C172 1.310 . S
C173 H193 0.930 . S
C174 C175 1.474 . S
C174 C176 1.285 . S
C174 H194 0.929 . S
C175 C172 1.461 . S
C175 C174 1.474 . S
C176 C171 1.342 . S
C176 C174 1.285 . S
C176 H195 0.930 . S
C177 C180 1.424 . S
C177 C182 1.245 . S
C177 C183 1.428 . S
C178 C181 1.260 . S
C178 C182 1.477 . S
C178 H196 0.932 . S
C179 C180 1.384 . S
C179 C181 1.479 . S
C179 H197 0.929 . S
C180 C177 1.424 . S
C180 C179 1.384 . S
C180 H198 0.928 . S
C181 C178 1.260 . S
C181 C179 1.479 . S
C182 C177 1.245 . S
C182 C178 1.477 . S
C182 H199 0.932 . S
C183 U166 2.882 . S
C183 C177 1.428 . S
C183 O186 1.301 . S
C183 O187 1.282 . S
O184 U166 2.441 . S
O184 C170 1.249 . S
O185 U166 2.420 . S
O185 C170 1.202 . S
O186 U166 2.455 . S
O186 C183 1.301 . S
O187 U166 2.449 . S
O187 C183 1.282 . S
H188 C161 0.931 . S
H189 C163 0.929 . S
H190 C164 0.930 . S
H191 C165 0.931 . S
H192 C172 0.932 . S
H193 C173 0.930 . S
H194 C174 0.929 . S
H195 C176 0.930 . S
H196 C178 0.932 . S
H197 C179 0.929 . S
H198 C180 0.928 . S
H199 C182 0.932 . S
C200 C201 1.264 . S
C200 C205 1.479 . S
C200 C210 1.465 . S
C201 C200 1.264 . S
C201 C203 1.339 . S
C201 H228 0.931 . S
C202 C203 1.395 . S
C202 C204 1.320 . S
C203 C201 1.339 . S
C203 C202 1.395 . S
C203 H229 0.929 . S
C204 C202 1.320 . S
C204 C205 1.405 . S
C204 H230 0.930 . S
C205 C200 1.479 . S
C205 C204 1.405 . S
C205 H231 0.931 . S
U206 O207 2.454 . S
U206 O208 2.458 . S
U206 C209 2.984 . S
U206 C210 2.847 . S
U206 C223 2.882 . S
U206 O224 2.441 . S
U206 O225 2.420 . S
U206 O226 2.455 . S
U206 O227 2.449 . S
O207 U206 2.454 . S
O207 C209 1.353 . S
O208 U206 2.458 . S
O208 C209 1.286 . S
C209 U206 2.984 . S
C209 O207 1.353 . S
C209 O208 1.286 . S
C209 C211 1.363 . S
C210 C200 1.465 . S
C210 U206 2.847 . S
C210 O224 1.249 . S
C210 O225 1.202 . S
C211 C209 1.363 . S
C211 C213 1.408 . S
C211 C216 1.342 . S
C212 C213 1.310 . S
C212 C215 1.461 . S
C212 H232 0.932 . S
C213 C211 1.408 . S
C213 C212 1.310 . S
C213 H233 0.930 . S
C214 C215 1.474 . S
C214 C216 1.285 . S
C214 H234 0.929 . S
C215 C212 1.461 . S
C215 C214 1.474 . S
C216 C211 1.342 . S
C216 C214 1.285 . S
C216 H235 0.930 . S
C217 C220 1.424 . S
C217 C222 1.245 . S
C217 C223 1.428 . S
C218 C221 1.260 . S
C218 C222 1.477 . S
C218 H236 0.932 . S
C219 C220 1.384 . S
C219 C221 1.479 . S
C219 H237 0.929 . S
C220 C217 1.424 . S
C220 C219 1.384 . S
C220 H238 0.928 . S
C221 C218 1.260 . S
C221 C219 1.479 . S
C222 C217 1.245 . S
C222 C218 1.477 . S
C222 H239 0.932 . S
C223 U206 2.882 . S
C223 C217 1.428 . S
C223 O226 1.301 . S
C223 O227 1.282 . S
O224 U206 2.441 . S
O224 C210 1.249 . S
O225 U206 2.420 . S
O225 C210 1.202 . S
O226 U206 2.455 . S
O226 C223 1.301 . S
O227 U206 2.449 . S
O227 C223 1.282 . S
H228 C201 0.931 . S
H229 C203 0.929 . S
H230 C204 0.930 . S
H231 C205 0.931 . S
H232 C212 0.932 . S
H233 C213 0.930 . S
H234 C214 0.929 . S
H235 C216 0.930 . S
H236 C218 0.932 . S
H237 C219 0.929 . S
H238 C220 0.928 . S
H239 C222 0.932 . S
C240 C241 1.264 . S
C240 C245 1.479 . S
C240 C250 1.465 . S
C241 C240 1.264 . S
C241 C243 1.339 . S
C241 H268 0.931 . S
C242 C243 1.395 . S
C242 C244 1.320 . S
C243 C241 1.339 . S
C243 C242 1.395 . S
C243 H269 0.929 . S
C244 C242 1.320 . S
C244 C245 1.405 . S
C244 H270 0.930 . S
C245 C240 1.479 . S
C245 C244 1.405 . S
C245 H271 0.931 . S
U246 O247 2.454 . S
U246 O248 2.458 . S
U246 C249 2.984 . S
U246 C250 2.847 . S
U246 C263 2.882 . S
U246 O264 2.441 . S
U246 O265 2.420 . S
U246 O266 2.455 . S
U246 O267 2.449 . S
O247 U246 2.454 . S
O247 C249 1.353 . S
O248 U246 2.458 . S
O248 C249 1.286 . S
C249 U246 2.984 . S
C249 O247 1.353 . S
C249 O248 1.286 . S
C249 C251 1.363 . S
C250 C240 1.465 . S
C250 U246 2.847 . S
C250 O264 1.249 . S
C250 O265 1.202 . S
C251 C249 1.363 . S
C251 C253 1.408 . S
C251 C256 1.342 . S
C252 C253 1.310 . S
C252 C255 1.461 . S
C252 H272 0.932 . S
C253 C251 1.408 . S
C253 C252 1.310 . S
C253 H273 0.930 . S
C254 C255 1.474 . S
C254 C256 1.285 . S
C254 H274 0.929 . S
C255 C252 1.461 . S
C255 C254 1.474 . S
C256 C251 1.342 . S
C256 C254 1.285 . S
C256 H275 0.930 . S
C257 C260 1.424 . S
C257 C262 1.245 . S
C257 C263 1.428 . S
C258 C261 1.260 . S
C258 C262 1.477 . S
C258 H276 0.932 . S
C259 C260 1.384 . S
C259 C261 1.479 . S
C259 H277 0.929 . S
C260 C257 1.424 . S
C260 C259 1.384 . S
C260 H278 0.928 . S
C261 C258 1.260 . S
C261 C259 1.479 . S
C262 C257 1.245 . S
C262 C258 1.477 . S
C262 H279 0.932 . S
C263 U246 2.882 . S
C263 C257 1.428 . S
C263 O266 1.301 . S
C263 O267 1.282 . S
O264 U246 2.441 . S
O264 C250 1.249 . S
O265 U246 2.420 . S
O265 C250 1.202 . S
O266 U246 2.455 . S
O266 C263 1.301 . S
O267 U246 2.449 . S
O267 C263 1.282 . S
H268 C241 0.931 . S
H269 C243 0.929 . S
H270 C244 0.930 . S
H271 C245 0.931 . S
H272 C252 0.932 . S
H273 C253 0.930 . S
H274 C254 0.929 . S
H275 C256 0.930 . S
H276 C258 0.932 . S
H277 C259 0.929 . S
H278 C260 0.928 . S
H279 C262 0.932 . S
C280 C281 1.264 . S
C280 C285 1.479 . S
C280 C290 1.465 . S
C281 C280 1.264 . S
C281 C283 1.339 . S
C281 H308 0.931 . S
C282 C283 1.395 . S
C282 C284 1.320 . S
C283 C281 1.339 . S
C283 C282 1.395 . S
C283 H309 0.929 . S
C284 C282 1.320 . S
C284 C285 1.405 . S
C284 H310 0.930 . S
C285 C280 1.479 . S
C285 C284 1.405 . S
C285 H311 0.931 . S
U286 O287 2.454 . S
U286 O288 2.458 . S
U286 C289 2.984 . S
U286 C290 2.847 . S
U286 C303 2.882 . S
U286 O304 2.441 . S
U286 O305 2.420 . S
U286 O306 2.455 . S
U286 O307 2.449 . S
O287 U286 2.454 . S
O287 C289 1.353 . S
O288 U286 2.458 . S
O288 C289 1.286 . S
C289 U286 2.984 . S
C289 O287 1.353 . S
C289 O288 1.286 . S
C289 C291 1.363 . S
C290 C280 1.465 . S
C290 U286 2.847 . S
C290 O304 1.249 . S
C290 O305 1.202 . S
C291 C289 1.363 . S
C291 C293 1.408 . S
C291 C296 1.342 . S
C292 C293 1.310 . S
C292 C295 1.461 . S
C292 H312 0.932 . S
C293 C291 1.408 . S
C293 C292 1.310 . S
C293 H313 0.930 . S
C294 C295 1.474 . S
C294 C296 1.285 . S
C294 H314 0.929 . S
C295 C292 1.461 . S
C295 C294 1.474 . S
C296 C291 1.342 . S
C296 C294 1.285 . S
C296 H315 0.930 . S
C297 C300 1.424 . S
C297 C302 1.245 . S
C297 C303 1.428 . S
C298 C301 1.260 . S
C298 C302 1.477 . S
C298 H316 0.932 . S
C299 C300 1.384 . S
C299 C301 1.479 . S
C299 H317 0.929 . S
C300 C297 1.424 . S
C300 C299 1.384 . S
C300 H318 0.928 . S
C301 C298 1.260 . S
C301 C299 1.479 . S
C302 C297 1.245 . S
C302 C298 1.477 . S
C302 H319 0.932 . S
C303 U286 2.882 . S
C303 C297 1.428 . S
C303 O306 1.301 . S
C303 O307 1.282 . S
O304 U286 2.441 . S
O304 C290 1.249 . S
O305 U286 2.420 . S
O305 C290 1.202 . S
O306 U286 2.455 . S
O306 C303 1.301 . S
O307 U286 2.449 . S
O307 C303 1.282 . S
H308 C281 0.931 . S
H309 C283 0.929 . S
H310 C284 0.930 . S
H311 C285 0.931 . S
H312 C292 0.932 . S
H313 C293 0.930 . S
H314 C294 0.929 . S
H315 C296 0.930 . S
H316 C298 0.932 . S
H317 C299 0.929 . S
H318 C300 0.928 . S
H319 C302 0.932 . S
C320 C321 1.384 . S
C320 C322 1.384 . S
C320 H348 0.931 . S
C321 C320 1.384 . S
C321 C324 1.382 . S
C322 C320 1.384 . S
C322 C323 1.381 . S
C322 H349 0.930 . S
C323 C322 1.381 . S
C323 C325 1.381 . S
C323 C326 1.487 . S
C324 C321 1.382 . S
C324 C325 1.387 . S
C324 H350 0.930 . S
C325 C323 1.381 . S
C325 C324 1.387 . S
C325 H351 0.931 . S
C326 C323 1.487 . S
C326 C333 1.399 1_655 S
C326 N364 1.343 . S
C327 C328 1.384 . S
C327 C329 1.384 . S
C327 H352 0.931 . S
C328 C327 1.384 . S
C328 C331 1.382 . S
C329 C327 1.384 . S
C329 C330 1.381 . S
C329 H353 0.930 . S
C330 C329 1.381 . S
C330 C332 1.381 . S
C330 C333 1.487 . S
C331 C328 1.382 . S
C331 C332 1.387 . S
C331 H354 0.930 . S
C332 C330 1.381 . S
C332 C331 1.387 . S
C332 H355 0.931 . S
C333 C326 1.399 1_455 S
C333 C330 1.487 . S
C333 N365 1.343 . S
C334 C335 1.384 . S
C334 C336 1.384 . S
C334 H356 0.931 . S
C335 C334 1.384 . S
C335 C338 1.382 . S
C336 C334 1.384 . S
C336 C337 1.381 . S
C336 H357 0.930 . S
C337 C336 1.381 . S
C337 C339 1.381 . S
C337 C340 1.487 . S
C338 C335 1.382 . S
C338 C339 1.387 . S
C338 H358 0.930 . S
C339 C337 1.381 . S
C339 C338 1.387 . S
C339 H359 0.931 . S
C340 C337 1.487 . S
C340 C347 1.399 1_455 S
C340 N365 1.343 . S
C341 C342 1.384 . S
C341 C343 1.384 . S
C341 H360 0.931 . S
C342 C341 1.384 . S
C342 C345 1.382 . S
C343 C341 1.384 . S
C343 C344 1.381 . S
C343 H361 0.930 . S
C344 C343 1.381 . S
C344 C346 1.381 . S
C344 C347 1.487 . S
C345 C342 1.382 . S
C345 C346 1.387 . S
C345 H362 0.930 . S
C346 C344 1.381 . S
C346 C345 1.387 . S
C346 H363 0.931 . S
C347 C340 1.399 1_655 S
C347 C344 1.487 . S
C347 N364 1.343 . S
H348 C320 0.931 . S
H349 C322 0.930 . S
H350 C324 0.930 . S
H351 C325 0.931 . S
H352 C327 0.931 . S
H353 C329 0.930 . S
H354 C331 0.930 . S
H355 C332 0.931 . S
H356 C334 0.931 . S
H357 C336 0.930 . S
H358 C338 0.930 . S
H359 C339 0.931 . S
H360 C341 0.931 . S
H361 C343 0.930 . S
H362 C345 0.930 . S
H363 C346 0.931 . S
N364 C326 1.343 . S
N364 C347 1.343 . S
N365 C333 1.343 . S
N365 C340 1.343 . S
C366 C367 1.384 . S
C366 C368 1.384 . S
C366 H394 0.931 . S
C367 C366 1.384 . S
C367 C370 1.382 . S
C368 C366 1.384 . S
C368 C369 1.381 . S
C368 H395 0.930 . S
C369 C368 1.381 . S
C369 C371 1.381 . S
C369 C372 1.487 . S
C370 C367 1.382 . S
C370 C371 1.387 . S
C370 H396 0.930 . S
C371 C369 1.381 . S
C371 C370 1.387 . S
C371 H397 0.931 . S
C372 C369 1.487 . S
C372 C379 1.399 1_655 S
C372 N410 1.343 . S
C373 C374 1.384 . S
C373 C375 1.384 . S
C373 H398 0.931 . S
C374 C373 1.384 . S
C374 C377 1.382 . S
C375 C373 1.384 . S
C375 C376 1.381 . S
C375 H399 0.930 . S
C376 C375 1.381 . S
C376 C378 1.381 . S
C376 C379 1.487 . S
C377 C374 1.382 . S
C377 C378 1.387 . S
C377 H400 0.930 . S
C378 C376 1.381 . S
C378 C377 1.387 . S
C378 H401 0.931 . S
C379 C372 1.399 1_455 S
C379 C376 1.487 . S
C379 N411 1.343 . S
C380 C381 1.384 . S
C380 C382 1.384 . S
C380 H402 0.931 . S
C381 C380 1.384 . S
C381 C384 1.382 . S
C382 C380 1.384 . S
C382 C383 1.381 . S
C382 H403 0.930 . S
C383 C382 1.381 . S
C383 C385 1.381 . S
C383 C386 1.487 . S
C384 C381 1.382 . S
C384 C385 1.387 . S
C384 H404 0.930 . S
C385 C383 1.381 . S
C385 C384 1.387 . S
C385 H405 0.931 . S
C386 C383 1.487 . S
C386 C393 1.399 1_455 S
C386 N411 1.343 . S
C387 C388 1.384 . S
C387 C389 1.384 . S
C387 H406 0.931 . S
C388 C387 1.384 . S
C388 C391 1.382 . S
C389 C387 1.384 . S
C389 C390 1.381 . S
C389 H407 0.930 . S
C390 C389 1.381 . S
C390 C392 1.381 . S
C390 C393 1.487 . S
C391 C388 1.382 . S
C391 C392 1.387 . S
C391 H408 0.930 . S
C392 C390 1.381 . S
C392 C391 1.387 . S
C392 H409 0.931 . S
C393 C386 1.399 1_655 S
C393 C390 1.487 . S
C393 N410 1.343 . S
H394 C366 0.931 . S
H395 C368 0.930 . S
H396 C370 0.930 . S
H397 C371 0.931 . S
H398 C373 0.931 . S
H399 C375 0.930 . S
H400 C377 0.930 . S
H401 C378 0.931 . S
H402 C380 0.931 . S
H403 C382 0.930 . S
H404 C384 0.930 . S
H405 C385 0.931 . S
H406 C387 0.931 . S
H407 C389 0.930 . S
H408 C391 0.930 . S
H409 C392 0.931 . S
N410 C372 1.343 . S
N410 C393 1.343 . S
N411 C379 1.343 . S
N411 C386 1.343 . S
C412 C413 1.384 . S
C412 C414 1.384 . S
C412 H440 0.931 . S
C413 C412 1.384 . S
C413 C416 1.382 . S
C414 C412 1.384 . S
C414 C415 1.381 . S
C414 H441 0.930 . S
C415 C414 1.381 . S
C415 C417 1.381 . S
C415 C418 1.487 . S
C416 C413 1.382 . S
C416 C417 1.387 . S
C416 H442 0.930 . S
C417 C415 1.381 . S
C417 C416 1.387 . S
C417 H443 0.931 . S
C418 C415 1.487 . S
C418 C425 1.399 . S
C418 N456 1.343 . S
C419 C420 1.384 . S
C419 C421 1.384 . S
C419 H444 0.931 . S
C420 C419 1.384 . S
C420 C423 1.382 . S
C421 C419 1.384 . S
C421 C422 1.381 . S
C421 H445 0.930 . S
C422 C421 1.381 . S
C422 C424 1.381 . S
C422 C425 1.487 . S
C423 C420 1.382 . S
C423 C424 1.387 . S
C423 H446 0.930 . S
C424 C422 1.381 . S
C424 C423 1.387 . S
C424 H447 0.931 . S
C425 C418 1.399 . S
C425 C422 1.487 . S
C425 N457 1.343 . S
C426 C427 1.384 . S
C426 C428 1.384 . S
C426 H448 0.931 . S
C427 C426 1.384 . S
C427 C430 1.382 . S
C428 C426 1.384 . S
C428 C429 1.381 . S
C428 H449 0.930 . S
C429 C428 1.381 . S
C429 C431 1.381 . S
C429 C432 1.487 . S
C430 C427 1.382 . S
C430 C431 1.387 . S
C430 H450 0.930 . S
C431 C429 1.381 . S
C431 C430 1.387 . S
C431 H451 0.931 . S
C432 C429 1.487 . S
C432 C439 1.399 . S
C432 N457 1.343 1_565 S
C433 C434 1.384 . S
C433 C435 1.384 . S
C433 H452 0.931 . S
C434 C433 1.384 . S
C434 C437 1.382 . S
C435 C433 1.384 . S
C435 C436 1.381 . S
C435 H453 0.930 . S
C436 C435 1.381 . S
C436 C438 1.381 . S
C436 C439 1.487 . S
C437 C434 1.382 . S
C437 C438 1.387 . S
C437 H454 0.930 . S
C438 C436 1.381 . S
C438 C437 1.387 . S
C438 H455 0.931 . S
C439 C432 1.399 . S
C439 C436 1.487 . S
C439 N456 1.343 1_565 S
H440 C412 0.931 . S
H441 C414 0.930 . S
H442 C416 0.930 . S
H443 C417 0.931 . S
H444 C419 0.931 . S
H445 C421 0.930 . S
H446 C423 0.930 . S
H447 C424 0.931 . S
H448 C426 0.931 . S
H449 C428 0.930 . S
H450 C430 0.930 . S
H451 C431 0.931 . S
H452 C433 0.931 . S
H453 C435 0.930 . S
H454 C437 0.930 . S
H455 C438 0.931 . S
N456 C418 1.343 . S
N456 C439 1.343 1_545 S
N457 C425 1.343 . S
N457 C432 1.343 1_545 S
C458 C459 1.384 . S
C458 C460 1.384 . S
C458 H486 0.931 . S
C459 C458 1.384 . S
C459 C462 1.382 . S
C460 C458 1.384 . S
C460 C461 1.381 . S
C460 H487 0.930 . S
C461 C460 1.381 . S
C461 C463 1.381 . S
C461 C464 1.487 . S
C462 C459 1.382 . S
C462 C463 1.387 . S
C462 H488 0.930 . S
C463 C461 1.381 . S
C463 C462 1.387 . S
C463 H489 0.931 . S
C464 C461 1.487 . S
C464 C471 1.399 . S
C464 N502 1.343 1_556 S
C465 C466 1.384 . S
C465 C467 1.384 . S
C465 H490 0.931 . S
C466 C465 1.384 . S
C466 C469 1.382 . S
C467 C465 1.384 . S
C467 C468 1.381 . S
C467 H491 0.930 . S
C468 C467 1.381 . S
C468 C470 1.381 . S
C468 C471 1.487 . S
C469 C466 1.382 . S
C469 C470 1.387 . S
C469 H492 0.930 . S
C470 C468 1.381 . S
C470 C469 1.387 . S
C470 H493 0.931 . S
C471 C464 1.399 . S
C471 C468 1.487 . S
C471 N503 1.343 1_556 S
C472 C473 1.384 . S
C472 C474 1.384 . S
C472 H494 0.931 . S
C473 C472 1.384 . S
C473 C476 1.382 . S
C474 C472 1.384 . S
C474 C475 1.381 . S
C474 H495 0.930 . S
C475 C474 1.381 . S
C475 C477 1.381 . S
C475 C478 1.487 . S
C476 C473 1.382 . S
C476 C477 1.387 . S
C476 H496 0.930 . S
C477 C475 1.381 . S
C477 C476 1.387 . S
C477 H497 0.931 . S
C478 C475 1.487 . S
C478 C485 1.399 . S
C478 N503 1.343 . S
C479 C480 1.384 . S
C479 C481 1.384 . S
C479 H498 0.931 . S
C480 C479 1.384 . S
C480 C483 1.382 . S
C481 C479 1.384 . S
C481 C482 1.381 . S
C481 H499 0.930 . S
C482 C481 1.381 . S
C482 C484 1.381 . S
C482 C485 1.487 . S
C483 C480 1.382 . S
C483 C484 1.387 . S
C483 H500 0.930 . S
C484 C482 1.381 . S
C484 C483 1.387 . S
C484 H501 0.931 . S
C485 C478 1.399 . S
C485 C482 1.487 . S
C485 N502 1.343 . S
H486 C458 0.931 . S
H487 C460 0.930 . S
H488 C462 0.930 . S
H489 C463 0.931 . S
H490 C465 0.931 . S
H491 C467 0.930 . S
H492 C469 0.930 . S
H493 C470 0.931 . S
H494 C472 0.931 . S
H495 C474 0.930 . S
H496 C476 0.930 . S
H497 C477 0.931 . S
H498 C479 0.931 . S
H499 C481 0.930 . S
H500 C483 0.930 . S
H501 C484 0.931 . S
N502 C464 1.343 1_554 S
N502 C485 1.343 . S
N503 C471 1.343 1_554 S
N503 C478 1.343 . S
C504 C505 1.384 . S
C504 C506 1.384 . S
C504 H532 0.931 . S
C505 C504 1.384 . S
C505 C508 1.382 . S
C506 C504 1.384 . S
C506 C507 1.381 . S
C506 H533 0.930 . S
C507 C506 1.381 . S
C507 C509 1.381 . S
C507 C510 1.487 . S
C508 C505 1.382 . S
C508 C509 1.387 . S
C508 H534 0.930 . S
C509 C507 1.381 . S
C509 C508 1.387 . S
C509 H535 0.931 . S
C510 C507 1.487 . S
C510 C517 1.399 . S
C510 N548 1.343 . S
C511 C512 1.384 . S
C511 C513 1.384 . S
C511 H536 0.931 . S
C512 C511 1.384 . S
C512 C515 1.382 . S
C513 C511 1.384 . S
C513 C514 1.381 . S
C513 H537 0.930 . S
C514 C513 1.381 . S
C514 C516 1.381 . S
C514 C517 1.487 . S
C515 C512 1.382 . S
C515 C516 1.387 . S
C515 H538 0.930 . S
C516 C514 1.381 . S
C516 C515 1.387 . S
C516 H539 0.931 . S
C517 C510 1.399 . S
C517 C514 1.487 . S
C517 N549 1.393 . S
C518 C519 1.384 . S
C518 C520 1.384 . S
C518 H540 0.931 . S
C519 C518 1.384 . S
C519 C522 1.382 . S
C520 C518 1.384 . S
C520 C521 1.381 . S
C520 H541 0.930 . S
C521 C520 1.381 . S
C521 C523 1.381 . S
C521 C524 1.487 . S
C522 C519 1.382 . S
C522 C523 1.387 . S
C522 H542 0.930 . S
C523 C521 1.381 . S
C523 C522 1.387 . S
C523 H543 0.931 . S
C524 C521 1.487 . S
C524 C531 1.399 . S
C524 N549 1.293 1_565 S
C525 C526 1.384 . S
C525 C527 1.384 . S
C525 H544 0.931 . S
C526 C525 1.384 . S
C526 C529 1.382 . S
C527 C525 1.384 . S
C527 C528 1.381 . S
C527 H545 0.930 . S
C528 C527 1.381 . S
C528 C530 1.381 . S
C528 C531 1.487 . S
C529 C526 1.382 . S
C529 C530 1.387 . S
C529 H546 0.930 . S
C530 C528 1.381 . S
C530 C529 1.387 . S
C530 H547 0.931 . S
C531 C524 1.399 . S
C531 C528 1.487 . S
C531 N548 1.343 1_565 S
H532 C504 0.931 . S
H533 C506 0.930 . S
H534 C508 0.930 . S
H535 C509 0.931 . S
H536 C511 0.931 . S
H537 C513 0.930 . S
H538 C515 0.930 . S
H539 C516 0.931 . S
H540 C518 0.931 . S
H541 C520 0.930 . S
H542 C522 0.930 . S
H543 C523 0.931 . S
H544 C525 0.931 . S
H545 C527 0.930 . S
H546 C529 0.930 . S
H547 C530 0.931 . S
N548 C510 1.343 . S
N548 C531 1.343 1_545 S
N549 C517 1.393 . S
N549 C524 1.293 1_545 S
C550 C551 1.384 . S
C550 C552 1.384 . S
C550 H578 0.931 . S
C551 C550 1.384 . S
C551 C554 1.382 . S
C552 C550 1.384 . S
C552 C553 1.381 . S
C552 H579 0.930 . S
C553 C552 1.381 . S
C553 C555 1.381 . S
C553 C556 1.487 . S
C554 C551 1.382 . S
C554 C555 1.387 . S
C554 H580 0.930 . S
C555 C553 1.381 . S
C555 C554 1.387 . S
C555 H581 0.931 . S
C556 C553 1.487 . S
C556 C563 1.399 . S
C556 N594 1.343 1_556 S
C557 C558 1.384 . S
C557 C559 1.384 . S
C557 H582 0.931 . S
C558 C557 1.384 . S
C558 C561 1.382 . S
C559 C557 1.384 . S
C559 C560 1.381 . S
C559 H583 0.930 . S
C560 C559 1.381 . S
C560 C562 1.381 . S
C560 C563 1.487 . S
C561 C558 1.382 . S
C561 C562 1.387 . S
C561 H584 0.930 . S
C562 C560 1.381 . S
C562 C561 1.387 . S
C562 H585 0.931 . S
C563 C556 1.399 . S
C563 C560 1.487 . S
C563 N595 1.343 1_556 S
C564 C565 1.384 . S
C564 C566 1.384 . S
C564 H586 0.931 . S
C565 C564 1.384 . S
C565 C568 1.382 . S
C566 C564 1.384 . S
C566 C567 1.381 . S
C566 H587 0.930 . S
C567 C566 1.381 . S
C567 C569 1.381 . S
C567 C570 1.487 . S
C568 C565 1.382 . S
C568 C569 1.387 . S
C568 H588 0.930 . S
C569 C567 1.381 . S
C569 C568 1.387 . S
C569 H589 0.931 . S
C570 C567 1.487 . S
C570 C577 1.399 . S
C570 N595 1.343 . S
C571 C572 1.384 . S
C571 C573 1.384 . S
C571 H590 0.931 . S
C572 C571 1.384 . S
C572 C575 1.382 . S
C573 C571 1.384 . S
C573 C574 1.381 . S
C573 H591 0.930 . S
C574 C573 1.381 . S
C574 C576 1.381 . S
C574 C577 1.487 . S
C575 C572 1.382 . S
C575 C576 1.387 . S
C575 H592 0.930 . S
C576 C574 1.381 . S
C576 C575 1.387 . S
C576 H593 0.931 . S
C577 C570 1.399 . S
C577 C574 1.487 . S
C577 N594 1.343 . S
H578 C550 0.931 . S
H579 C552 0.930 . S
H580 C554 0.930 . S
H581 C555 0.931 . S
H582 C557 0.931 . S
H583 C559 0.930 . S
H584 C561 0.930 . S
H585 C562 0.931 . S
H586 C564 0.931 . S
H587 C566 0.930 . S
H588 C568 0.930 . S
H589 C569 0.931 . S
H590 C571 0.931 . S
H591 C573 0.930 . S
H592 C575 0.930 . S
H593 C576 0.931 . S
N594 C556 1.343 1_554 S
N594 C577 1.343 . S
N595 C563 1.343 1_554 S
N595 C570 1.343 . S
H596 C602 0.930 . S
H597 C605 0.930 . S
H598 C606 0.930 . S
H599 C607 0.930 . S
H600 C610 0.930 . S
H601 C611 0.930 . S
C602 H596 0.930 . S
C602 C603 1.355 . S
C602 C604 1.415 . S
C603 C602 1.355 . S
C603 C605 1.419 . S
C604 C602 1.415 . S
C604 C609 1.425 . S
C604 C611 1.409 . S
C605 H597 0.930 . S
C605 C603 1.419 . S
C605 C606 1.362 . S
C606 H598 0.930 . S
C606 C605 1.362 . S
C606 C609 1.409 . S
C607 H599 0.930 . S
C607 C608 1.355 . S
C607 C609 1.415 . S
C608 C607 1.355 . S
C608 C610 1.419 . S
C609 C604 1.425 . S
C609 C606 1.409 . S
C609 C607 1.415 . S
C610 H600 0.930 . S
C610 C608 1.419 . S
C610 C611 1.362 . S
C611 H601 0.930 . S
C611 C604 1.409 . S
C611 C610 1.362 . S
H612 C618 0.930 . S
H613 C621 0.930 . S
H614 C622 0.930 . S
H615 C623 0.930 . S
H616 C626 0.930 . S
H617 C627 0.930 . S
C618 H612 0.930 . S
C618 C619 1.355 . S
C618 C620 1.415 . S
C619 C618 1.355 . S
C619 C621 1.419 . S
C620 C618 1.415 . S
C620 C625 1.425 . S
C620 C627 1.409 . S
C621 H613 0.930 . S
C621 C619 1.419 . S
C621 C622 1.362 . S
C622 H614 0.930 . S
C622 C621 1.362 . S
C622 C625 1.409 . S
C623 H615 0.930 . S
C623 C624 1.355 . S
C623 C625 1.415 . S
C624 C623 1.355 . S
C624 C626 1.419 . S
C625 C620 1.425 . S
C625 C622 1.409 . S
C625 C623 1.415 . S
C626 H616 0.930 . S
C626 C624 1.419 . S
C626 C627 1.362 . S
C627 H617 0.930 . S
C627 C620 1.409 . S
C627 C626 1.362 . S
H628 C634 0.930 . S
H629 C637 0.930 . S
H630 C638 0.930 . S
H631 C639 0.930 . S
H632 C642 0.930 . S
H633 C643 0.930 . S
C634 H628 0.930 . S
C634 C635 1.355 . S
C634 C636 1.415 . S
C635 C634 1.355 . S
C635 C637 1.419 . S
C636 C634 1.415 . S
C636 C641 1.425 . S
C636 C643 1.409 . S
C637 H629 0.930 . S
C637 C635 1.419 . S
C637 C638 1.362 . S
C638 H630 0.930 . S
C638 C637 1.362 . S
C638 C641 1.409 . S
C639 H631 0.930 . S
C639 C640 1.355 . S
C639 C641 1.415 . S
C640 C639 1.355 . S
C640 C642 1.419 . S
C641 C636 1.425 . S
C641 C638 1.409 . S
C641 C639 1.415 . S
C642 H632 0.930 . S
C642 C640 1.419 . S
C642 C643 1.362 . S
C643 H633 0.930 . S
C643 C636 1.409 . S
C643 C642 1.362 . S
H644 C650 0.930 . S
H645 C653 0.930 . S
H646 C654 0.930 . S
H647 C655 0.930 . S
H648 C658 0.930 . S
H649 C659 0.930 . S
C650 H644 0.930 . S
C650 C651 1.355 . S
C650 C652 1.415 . S
C651 C650 1.355 . S
C651 C653 1.419 . S
C652 C650 1.415 . S
C652 C657 1.425 . S
C652 C659 1.409 . S
C653 H645 0.930 . S
C653 C651 1.419 . S
C653 C654 1.362 . S
C654 H646 0.930 . S
C654 C653 1.362 . S
C654 C657 1.409 . S
C655 H647 0.930 . S
C655 C656 1.355 . S
C655 C657 1.415 . S
C656 C655 1.355 . S
C656 C658 1.419 . S
C657 C652 1.425 . S
C657 C654 1.409 . S
C657 C655 1.415 . S
C658 H648 0.930 . S
C658 C656 1.419 . S
C658 C659 1.362 . S
C659 H649 0.930 . S
C659 C652 1.409 . S
C659 C658 1.362 . S
H660 C666 0.930 . S
H661 C669 0.930 . S
H662 C670 0.930 . S
H663 C671 0.930 . S
H664 C674 0.930 . S
H665 C675 0.930 . S
C666 H660 0.930 . S
C666 C667 1.355 . S
C666 C668 1.415 . S
C667 C666 1.355 . S
C667 C669 1.419 . S
C668 C666 1.415 . S
C668 C673 1.425 . S
C668 C675 1.409 . S
C669 H661 0.930 . S
C669 C667 1.419 . S
C669 C670 1.362 . S
C670 H662 0.930 . S
C670 C669 1.362 . S
C670 C673 1.409 . S
C671 H663 0.930 . S
C671 C672 1.355 . S
C671 C673 1.415 . S
C672 C671 1.355 . S
C672 C674 1.419 . S
C673 C668 1.425 . S
C673 C670 1.409 . S
C673 C671 1.415 . S
C674 H664 0.930 . S
C674 C672 1.419 . S
C674 C675 1.362 . S
C675 H665 0.930 . S
C675 C668 1.409 . S
C675 C674 1.362 . S
H676 C682 0.930 . S
H677 C685 0.930 . S
H678 C686 0.930 . S
H679 C687 0.930 . S
H680 C690 0.930 . S
H681 C691 0.930 . S
C682 H676 0.930 . S
C682 C683 1.355 . S
C682 C684 1.415 . S
C683 C682 1.355 . S
C683 C685 1.419 . S
C684 C682 1.415 . S
C684 C689 1.425 . S
C684 C691 1.409 . S
C685 H677 0.930 . S
C685 C683 1.419 . S
C685 C686 1.362 . S
C686 H678 0.930 . S
C686 C685 1.362 . S
C686 C689 1.409 . S
C687 H679 0.930 . S
C687 C688 1.355 . S
C687 C689 1.415 . S
C688 C687 1.355 . S
C688 C690 1.419 . S
C689 C684 1.425 . S
C689 C686 1.409 . S
C689 C687 1.415 . S
C690 H680 0.930 . S
C690 C688 1.419 . S
C690 C691 1.362 . S
C691 H681 0.930 . S
C691 C684 1.409 . S
C691 C690 1.362 . S
H692 C698 0.930 . S
H693 C701 0.930 . S
H694 C702 0.930 . S
H695 C703 0.930 . S
H696 C706 0.930 . S
H697 C707 0.930 . S
C698 H692 0.930 . S
C698 C699 1.355 . S
C698 C700 1.415 . S
C699 C698 1.355 . S
C699 C701 1.419 . S
C700 C698 1.415 . S
C700 C705 1.425 . S
C700 C707 1.409 . S
C701 H693 0.930 . S
C701 C699 1.419 . S
C701 C702 1.362 . S
C702 H694 0.930 . S
C702 C701 1.362 . S
C702 C705 1.409 . S
C703 H695 0.930 . S
C703 C704 1.355 . S
C703 C705 1.415 . S
C704 C703 1.355 . S
C704 C706 1.419 . S
C705 C700 1.425 . S
C705 C702 1.409 . S
C705 C703 1.415 . S
C706 H696 0.930 . S
C706 C704 1.419 . S
C706 C707 1.362 . S
C707 H697 0.930 . S
C707 C700 1.409 . S
C707 C706 1.362 . S
H708 C714 0.930 . S
H709 C717 0.930 . S
H710 C718 0.930 . S
H711 C719 0.930 . S
H712 C722 0.930 . S
H713 C723 0.930 . S
C714 H708 0.930 . S
C714 C715 1.355 . S
C714 C716 1.415 . S
C715 C714 1.355 . S
C715 C717 1.419 . S
C716 C714 1.415 . S
C716 C721 1.425 . S
C716 C723 1.409 . S
C717 H709 0.930 . S
C717 C715 1.419 . S
C717 C718 1.362 . S
C718 H710 0.930 . S
C718 C717 1.362 . S
C718 C721 1.409 . S
C719 H711 0.930 . S
C719 C720 1.355 . S
C719 C721 1.415 . S
C720 C719 1.355 . S
C720 C722 1.419 . S
C721 C716 1.425 . S
C721 C718 1.409 . S
C721 C719 1.415 . S
C722 H712 0.930 . S
C722 C720 1.419 . S
C722 C723 1.362 . S
C723 H713 0.930 . S
C723 C716 1.409 . S
C723 C722 1.362 . S
H724 C730 0.930 . S
H725 C733 0.930 . S
H726 C734 0.930 . S
H727 C735 0.930 . S
H728 C738 0.930 . S
H729 C739 0.930 . S
C730 H724 0.930 . S
C730 C731 1.355 . S
C730 C732 1.415 . S
C731 C730 1.355 . S
C731 C733 1.419 . S
C732 C730 1.415 . S
C732 C737 1.425 . S
C732 C739 1.409 . S
C733 H725 0.930 . S
C733 C731 1.419 . S
C733 C734 1.362 . S
C734 H726 0.930 . S
C734 C733 1.362 . S
C734 C737 1.409 . S
C735 H727 0.930 . S
C735 C736 1.355 . S
C735 C737 1.415 . S
C736 C735 1.355 . S
C736 C738 1.419 . S
C737 C732 1.425 . S
C737 C734 1.409 . S
C737 C735 1.415 . S
C738 H728 0.930 . S
C738 C736 1.419 . S
C738 C739 1.362 . S
C739 H729 0.930 . S
C739 C732 1.409 . S
C739 C738 1.362 . S
H740 C746 0.930 . S
H741 C749 0.930 . S
H742 C750 0.930 . S
H743 C751 0.930 . S
H744 C754 0.930 . S
H745 C755 0.930 . S
C746 H740 0.930 . S
C746 C747 1.355 . S
C746 C748 1.415 . S
C747 C746 1.355 . S
C747 C749 1.419 . S
C748 C746 1.415 . S
C748 C753 1.425 . S
C748 C755 1.409 . S
C749 H741 0.930 . S
C749 C747 1.419 . S
C749 C750 1.362 . S
C750 H742 0.930 . S
C750 C749 1.362 . S
C750 C753 1.409 . S
C751 H743 0.930 . S
C751 C752 1.355 . S
C751 C753 1.415 . S
C752 C751 1.355 . S
C752 C754 1.419 . S
C753 C748 1.425 . S
C753 C750 1.409 . S
C753 C751 1.415 . S
C754 H744 0.930 . S
C754 C752 1.419 . S
C754 C755 1.362 . S
C755 H745 0.930 . S
C755 C748 1.409 . S
C755 C754 1.362 . S
H756 C762 0.930 . S
H757 C765 0.930 . S
H758 C766 0.930 . S
H759 C767 0.930 . S
H760 C770 0.930 . S
H761 C771 0.930 . S
C762 H756 0.930 . S
C762 C763 1.355 . S
C762 C764 1.415 . S
C763 C762 1.355 . S
C763 C765 1.419 . S
C764 C762 1.415 . S
C764 C769 1.425 . S
C764 C771 1.409 . S
C765 H757 0.930 . S
C765 C763 1.419 . S
C765 C766 1.362 . S
C766 H758 0.930 . S
C766 C765 1.362 . S
C766 C769 1.409 . S
C767 H759 0.930 . S
C767 C768 1.355 . S
C767 C769 1.415 . S
C768 C767 1.355 . S
C768 C770 1.419 . S
C769 C764 1.425 . S
C769 C766 1.409 . S
C769 C767 1.415 . S
C770 H760 0.930 . S
C770 C768 1.419 . S
C770 C771 1.362 . S
C771 H761 0.930 . S
C771 C764 1.409 . S
C771 C770 1.362 . S
H772 C778 0.930 . S
H773 C781 0.930 . S
H774 C782 0.930 . S
H775 C783 0.930 . S
H776 C786 0.930 . S
H777 C787 0.930 . S
C778 H772 0.930 . S
C778 C779 1.355 . S
C778 C780 1.415 . S
C779 C778 1.355 . S
C779 C781 1.419 . S
C780 C778 1.415 . S
C780 C785 1.425 . S
C780 C787 1.409 . S
C781 H773 0.930 . S
C781 C779 1.419 . S
C781 C782 1.362 . S
C782 H774 0.930 . S
C782 C781 1.362 . S
C782 C785 1.409 . S
C783 H775 0.930 . S
C783 C784 1.355 . S
C783 C785 1.415 . S
C784 C783 1.355 . S
C784 C786 1.419 . S
C785 C780 1.425 . S
C785 C782 1.409 . S
C785 C783 1.415 . S
C786 H776 0.930 . S
C786 C784 1.419 . S
C786 C787 1.362 . S
C787 H777 0.930 . S
C787 C780 1.409 . S
C787 C786 1.362 . S
H788 C794 0.930 . S
H789 C797 0.930 . S
H790 C798 0.930 . S
H791 C799 0.930 . S
H792 C802 0.930 . S
H793 C803 0.930 . S
C794 H788 0.930 . S
C794 C795 1.355 . S
C794 C796 1.415 . S
C795 C794 1.355 . S
C795 C797 1.419 . S
C796 C794 1.415 . S
C796 C801 1.425 . S
C796 C803 1.409 . S
C797 H789 0.930 . S
C797 C795 1.419 . S
C797 C798 1.362 . S
C798 H790 0.930 . S
C798 C797 1.362 . S
C798 C801 1.409 . S
C799 H791 0.930 . S
C799 C800 1.355 . S
C799 C801 1.415 . S
C800 C799 1.355 . S
C800 C802 1.419 . S
C801 C796 1.425 . S
C801 C798 1.409 . S
C801 C799 1.415 . S
C802 H792 0.930 . S
C802 C800 1.419 . S
C802 C803 1.362 . S
C803 H793 0.930 . S
C803 C796 1.409 . S
C803 C802 1.362 . S
H804 C810 0.930 . S
H805 C813 0.930 . S
H806 C814 0.930 . S
H807 C815 0.930 . S
H808 C818 0.930 . S
H809 C819 0.930 . S
C810 H804 0.930 . S
C810 C811 1.355 . S
C810 C812 1.415 . S
C811 C810 1.355 . S
C811 C813 1.419 . S
C812 C810 1.415 . S
C812 C817 1.425 . S
C812 C819 1.409 . S
C813 H805 0.930 . S
C813 C811 1.419 . S
C813 C814 1.362 . S
C814 H806 0.930 . S
C814 C813 1.362 . S
C814 C817 1.409 . S
C815 H807 0.930 . S
C815 C816 1.355 . S
C815 C817 1.415 . S
C816 C815 1.355 . S
C816 C818 1.419 . S
C817 C812 1.425 . S
C817 C814 1.409 . S
C817 C815 1.415 . S
C818 H808 0.930 . S
C818 C816 1.419 . S
C818 C819 1.362 . S
C819 H809 0.930 . S
C819 C812 1.409 . S
C819 C818 1.362 . S
H820 C826 0.930 . S
H821 C829 0.930 . S
H822 C830 0.930 . S
H823 C831 0.930 . S
H824 C834 0.930 . S
H825 C835 0.930 . S
C826 H820 0.930 . S
C826 C827 1.355 . S
C826 C828 1.415 . S
C827 C826 1.355 . S
C827 C829 1.419 . S
C828 C826 1.415 . S
C828 C833 1.425 . S
C828 C835 1.409 . S
C829 H821 0.930 . S
C829 C827 1.419 . S
C829 C830 1.362 . S
C830 H822 0.930 . S
C830 C829 1.362 . S
C830 C833 1.409 . S
C831 H823 0.930 . S
C831 C832 1.355 . S
C831 C833 1.415 . S
C832 C831 1.355 . S
C832 C834 1.419 . S
C833 C828 1.425 . S
C833 C830 1.409 . S
C833 C831 1.415 . S
C834 H824 0.930 . S
C834 C832 1.419 . S
C834 C835 1.362 . S
C835 H825 0.930 . S
C835 C828 1.409 . S
C835 C834 1.362 . S
H836 C842 0.930 . S
H837 C845 0.930 . S
H838 C846 0.930 . S
H839 C847 0.930 . S
H840 C850 0.930 . S
H841 C851 0.930 . S
C842 H836 0.930 . S
C842 C843 1.355 . S
C842 C844 1.415 . S
C843 C842 1.355 . S
C843 C845 1.419 . S
C844 C842 1.415 . S
C844 C849 1.425 . S
C844 C851 1.409 . S
C845 H837 0.930 . S
C845 C843 1.419 . S
C845 C846 1.362 . S
C846 H838 0.930 . S
C846 C845 1.362 . S
C846 C849 1.409 . S
C847 H839 0.930 . S
C847 C848 1.355 . S
C847 C849 1.415 . S
C848 C847 1.355 . S
C848 C850 1.419 . S
C849 C844 1.425 . S
C849 C846 1.409 . S
C849 C847 1.415 . S
C850 H840 0.930 . S
C850 C848 1.419 . S
C850 C851 1.362 . S
C851 H841 0.930 . S
C851 C844 1.409 . S
C851 C850 1.362 . S
H852 C858 0.930 . S
H853 C861 0.930 . S
H854 C862 0.930 . S
H855 C863 0.930 . S
H856 C866 0.930 . S
H857 C867 0.930 . S
C858 H852 0.930 . S
C858 C859 1.355 . S
C858 C860 1.415 . S
C859 C858 1.355 . S
C859 C861 1.419 . S
C860 C858 1.415 . S
C860 C865 1.425 . S
C860 C867 1.409 . S
C861 H853 0.930 . S
C861 C859 1.419 . S
C861 C862 1.362 . S
C862 H854 0.930 . S
C862 C861 1.362 . S
C862 C865 1.409 . S
C863 H855 0.930 . S
C863 C864 1.355 . S
C863 C865 1.415 . S
C864 C863 1.355 . S
C864 C866 1.419 . S
C865 C860 1.425 . S
C865 C862 1.409 . S
C865 C863 1.415 . S
C866 H856 0.930 . S
C866 C864 1.419 . S
C866 C867 1.362 . S
C867 H857 0.930 . S
C867 C860 1.409 . S
C867 C866 1.362 . S
H868 C874 0.930 . S
H869 C877 0.930 . S
H870 C878 0.930 . S
H871 C879 0.930 . S
H872 C882 0.930 . S
H873 C883 0.930 . S
C874 H868 0.930 . S
C874 C875 1.355 . S
C874 C876 1.415 . S
C875 C874 1.355 . S
C875 C877 1.419 . S
C876 C874 1.415 . S
C876 C881 1.425 . S
C876 C883 1.409 . S
C877 H869 0.930 . S
C877 C875 1.419 . S
C877 C878 1.362 . S
C878 H870 0.930 . S
C878 C877 1.362 . S
C878 C881 1.409 . S
C879 H871 0.930 . S
C879 C880 1.355 . S
C879 C881 1.415 . S
C880 C879 1.355 . S
C880 C882 1.419 . S
C881 C876 1.425 . S
C881 C878 1.409 . S
C881 C879 1.415 . S
C882 H872 0.930 . S
C882 C880 1.419 . S
C882 C883 1.362 . S
C883 H873 0.930 . S
C883 C876 1.409 . S
C883 C882 1.362 . S
H884 C890 0.930 . S
H885 C893 0.930 . S
H886 C894 0.930 . S
H887 C895 0.930 . S
H888 C898 0.930 . S
H889 C899 0.930 . S
C890 H884 0.930 . S
C890 C891 1.355 . S
C890 C892 1.415 . S
C891 C890 1.355 . S
C891 C893 1.419 . S
C892 C890 1.415 . S
C892 C897 1.425 . S
C892 C899 1.409 . S
C893 H885 0.930 . S
C893 C891 1.419 . S
C893 C894 1.362 . S
C894 H886 0.930 . S
C894 C893 1.362 . S
C894 C897 1.409 . S
C895 H887 0.930 . S
C895 C896 1.355 . S
C895 C897 1.415 . S
C896 C895 1.355 . S
C896 C898 1.419 . S
C897 C892 1.425 . S
C897 C894 1.409 . S
C897 C895 1.415 . S
C898 H888 0.930 . S
C898 C896 1.419 . S
C898 C899 1.362 . S
C899 H889 0.930 . S
C899 C892 1.409 . S
C899 C898 1.362 . S
H900 C906 0.930 . S
H901 C909 0.930 . S
H902 C910 0.930 . S
H903 C911 0.930 . S
H904 C914 0.930 . S
H905 C915 0.930 . S
C906 H900 0.930 . S
C906 C907 1.355 . S
C906 C908 1.415 . S
C907 C906 1.355 . S
C907 C909 1.419 . S
C908 C906 1.415 . S
C908 C913 1.425 . S
C908 C915 1.409 . S
C909 H901 0.930 . S
C909 C907 1.419 . S
C909 C910 1.362 . S
C910 H902 0.930 . S
C910 C909 1.362 . S
C910 C913 1.409 . S
C911 H903 0.930 . S
C911 C912 1.355 . S
C911 C913 1.415 . S
C912 C911 1.355 . S
C912 C914 1.419 . S
C913 C908 1.425 . S
C913 C910 1.409 . S
C913 C911 1.415 . S
C914 H904 0.930 . S
C914 C912 1.419 . S
C914 C915 1.362 . S
C915 H905 0.930 . S
C915 C908 1.409 . S
C915 C914 1.362 . S
H916 C922 0.930 . S
H917 C925 0.930 . S
H918 C926 0.930 . S
H919 C927 0.930 . S
H920 C930 0.930 . S
H921 C931 0.930 . S
C922 H916 0.930 . S
C922 C923 1.355 . S
C922 C924 1.415 . S
C923 C922 1.355 . S
C923 C925 1.419 . S
C924 C922 1.415 . S
C924 C929 1.425 . S
C924 C931 1.409 . S
C925 H917 0.930 . S
C925 C923 1.419 . S
C925 C926 1.362 . S
C926 H918 0.930 . S
C926 C925 1.362 . S
C926 C929 1.409 . S
C927 H919 0.930 . S
C927 C928 1.355 . S
C927 C929 1.415 . S
C928 C927 1.355 . S
C928 C930 1.419 . S
C929 C924 1.425 . S
C929 C926 1.409 . S
C929 C927 1.415 . S
C930 H920 0.930 . S
C930 C928 1.419 . S
C930 C931 1.362 . S
C931 H921 0.930 . S
C931 C924 1.409 . S
C931 C930 1.362 . S
H932 C938 0.930 . S
H933 C941 0.930 . S
H934 C942 0.930 . S
H935 C943 0.930 . S
H936 C946 0.930 . S
H937 C947 0.930 . S
C938 H932 0.930 . S
C938 C939 1.355 . S
C938 C940 1.415 . S
C939 C938 1.355 . S
C939 C941 1.419 . S
C940 C938 1.415 . S
C940 C945 1.425 . S
C940 C947 1.409 . S
C941 H933 0.930 . S
C941 C939 1.419 . S
C941 C942 1.362 . S
C942 H934 0.930 . S
C942 C941 1.362 . S
C942 C945 1.409 . S
C943 H935 0.930 . S
C943 C944 1.355 . S
C943 C945 1.415 . S
C944 C943 1.355 . S
C944 C946 1.419 . S
C945 C940 1.425 . S
C945 C942 1.409 . S
C945 C943 1.415 . S
C946 H936 0.930 . S
C946 C944 1.419 . S
C946 C947 1.362 . S
C947 H937 0.930 . S
C947 C940 1.409 . S
C947 C946 1.362 . S
H948 C954 0.930 . S
H949 C957 0.930 . S
H950 C958 0.930 . S
H951 C959 0.930 . S
H952 C962 0.930 . S
H953 C963 0.930 . S
C954 H948 0.930 . S
C954 C955 1.355 . S
C954 C956 1.415 . S
C955 C954 1.355 . S
C955 C957 1.419 . S
C956 C954 1.415 . S
C956 C961 1.425 . S
C956 C963 1.409 . S
C957 H949 0.930 . S
C957 C955 1.419 . S
C957 C958 1.362 . S
C958 H950 0.930 . S
C958 C957 1.362 . S
C958 C961 1.409 . S
C959 H951 0.930 . S
C959 C960 1.355 . S
C959 C961 1.415 . S
C960 C959 1.355 . S
C960 C962 1.419 . S
C961 C956 1.425 . S
C961 C958 1.409 . S
C961 C959 1.415 . S
C962 H952 0.930 . S
C962 C960 1.419 . S
C962 C963 1.362 . S
C963 H953 0.930 . S
C963 C956 1.409 . S
C963 C962 1.362 . S
H964 C970 0.930 . S
H965 C973 0.930 . S
H966 C974 0.930 . S
H967 C975 0.930 . S
H968 C978 0.930 . S
H969 C979 0.930 . S
C970 H964 0.930 . S
C970 C971 1.355 . S
C970 C972 1.415 . S
C971 C970 1.355 . S
C971 C973 1.419 . S
C972 C970 1.415 . S
C972 C977 1.425 . S
C972 C979 1.409 . S
C973 H965 0.930 . S
C973 C971 1.419 . S
C973 C974 1.362 . S
C974 H966 0.930 . S
C974 C973 1.362 . S
C974 C977 1.409 . S
C975 H967 0.930 . S
C975 C976 1.355 . S
C975 C977 1.415 . S
C976 C975 1.355 . S
C976 C978 1.419 . S
C977 C972 1.425 . S
C977 C974 1.409 . S
C977 C975 1.415 . S
C978 H968 0.930 . S
C978 C976 1.419 . S
C978 C979 1.362 . S
C979 H969 0.930 . S
C979 C972 1.409 . S
C979 C978 1.362 . S
C608 C328 1.546 . S
C603 C15 1.539 . S
C624 C381 1.549 . S
C619 C55 1.562 . S
C640 C342 1.572 . S
C635 C101 1.575 . S
C656 C367 1.595 . S
C651 C141 1.593 . S
C672 C413 1.523 . S
C667 C2 1.509 . S
C688 C459 1.526 . S
C683 C61 1.515 . S
C699 C95 1.605 . S
C704 C526 1.600 . S
C720 C558 1.516 . S
C715 C135 1.519 . S
C736 C427 1.515 . S
C731 C42 1.504 . S
C747 C82 1.516 . S
C752 C473 1.542 . S
C768 C512 1.619 . S
C763 C122 1.620 . S
C784 C572 1.531 . S
C779 C21 1.515 . S
C795 C162 1.583 . S
C800 C388 1.563 . S
C816 C321 1.562 . S
C811 C221 1.557 . S
C827 C255 1.553 . S
C832 C374 1.554 . S
C843 C282 1.504 . S
C848 C335 1.541 . S
C864 C519 1.600 . S
C859 C181 1.631 . S
C880 C565 1.538 . S
C875 C202 1.526 . S
C896 C420 1.525 . S
C891 C242 1.505 . S
C907 C301 1.528 . S
C912 C480 1.534 . S
C928 C505 1.630 . S
C923 C215 1.634 . S
C944 C551 1.522 . S
C939 C261 1.514 . S
C960 C434 1.501 . S
C955 C295 1.508 . S
C971 C175 1.514 . S
C976 C466 1.511 . S
