# Generated by pormake.
# Topology zzz, (3,6)-cn, num edge types: 1
# Building blocks:
#     Node 0, Type 0, BuildingBlock: MIDCAF_clean_linker_0, # of connection points: 3
#     Node 1, Type 0, BuildingBlock: MIDCAF_clean_linker_0, # of connection points: 3
#     Node 2, Type 0, BuildingBlock: MIDCAF_clean_linker_0, # of connection points: 3
#     Node 3, Type 0, BuildingBlock: MIDCAF_clean_linker_0, # of connection points: 3
#     Node 4, Type 0, BuildingBlock: MIDCAF_clean_linker_0, # of connection points: 3
#     Node 5, Type 0, BuildingBlock: MIDCAF_clean_linker_0, # of connection points: 3
#     Node 6, Type 0, BuildingBlock: MIDCAF_clean_linker_0, # of connection points: 3
#     Node 7, Type 0, BuildingBlock: MIDCAF_clean_linker_0, # of connection points: 3
#     Node 8, Type 1, BuildingBlock: CIFDUS_clean_sbu_1, # of connection points: 6
#     Node 9, Type 1, BuildingBlock: CIFDUS_clean_sbu_1, # of connection points: 6
#     Node 10, Type 1, BuildingBlock: CIFDUS_clean_sbu_1, # of connection points: 6
#     Node 11, Type 1, BuildingBlock: CIFDUS_clean_sbu_1, # of connection points: 6
#     Edge 12, Type (0, 1), BuildingBlock: XIVTED_clean_linker_0, # of connection points: 2
#     Edge 13, Type (0, 1), BuildingBlock: XIVTED_clean_linker_0, # of connection points: 2
#     Edge 14, Type (0, 1), BuildingBlock: XIVTED_clean_linker_0, # of connection points: 2
#     Edge 15, Type (0, 1), BuildingBlock: XIVTED_clean_linker_0, # of connection points: 2
#     Edge 16, Type (0, 1), BuildingBlock: XIVTED_clean_linker_0, # of connection points: 2
#     Edge 17, Type (0, 1), BuildingBlock: XIVTED_clean_linker_0, # of connection points: 2
#     Edge 18, Type (0, 1), BuildingBlock: XIVTED_clean_linker_0, # of connection points: 2
#     Edge 19, Type (0, 1), BuildingBlock: XIVTED_clean_linker_0, # of connection points: 2
#     Edge 20, Type (0, 1), BuildingBlock: XIVTED_clean_linker_0, # of connection points: 2
#     Edge 21, Type (0, 1), BuildingBlock: XIVTED_clean_linker_0, # of connection points: 2
#     Edge 22, Type (0, 1), BuildingBlock: XIVTED_clean_linker_0, # of connection points: 2
#     Edge 23, Type (0, 1), BuildingBlock: XIVTED_clean_linker_0, # of connection points: 2
#     Edge 24, Type (0, 1), BuildingBlock: XIVTED_clean_linker_0, # of connection points: 2
#     Edge 25, Type (0, 1), BuildingBlock: XIVTED_clean_linker_0, # of connection points: 2
#     Edge 26, Type (0, 1), BuildingBlock: XIVTED_clean_linker_0, # of connection points: 2
#     Edge 27, Type (0, 1), BuildingBlock: XIVTED_clean_linker_0, # of connection points: 2
#     Edge 28, Type (0, 1), BuildingBlock: XIVTED_clean_linker_0, # of connection points: 2
#     Edge 29, Type (0, 1), BuildingBlock: XIVTED_clean_linker_0, # of connection points: 2
#     Edge 30, Type (0, 1), BuildingBlock: XIVTED_clean_linker_0, # of connection points: 2
#     Edge 31, Type (0, 1), BuildingBlock: XIVTED_clean_linker_0, # of connection points: 2
#     Edge 32, Type (0, 1), BuildingBlock: XIVTED_clean_linker_0, # of connection points: 2
#     Edge 33, Type (0, 1), BuildingBlock: XIVTED_clean_linker_0, # of connection points: 2
#     Edge 34, Type (0, 1), BuildingBlock: XIVTED_clean_linker_0, # of connection points: 2
#     Edge 35, Type (0, 1), BuildingBlock: XIVTED_clean_linker_0, # of connection points: 2
# Relax obj value: 0.311
# Max RMSD: 0.222
# Mean RMSD: 0.208
data_MOF--net-zzz--node1-CIFDUS_clean_sbu_1--node2-MIDCAF_clean_linker_0--edge1-XIVTED_clean_linker_0
_symmetry_space_group_name_H-M    P1
_symmetry_Int_Tables_number       1
_symmetry_cell_setting            triclinic
loop_
_symmetry_equiv_pos_as_xyz
'x, y, z'
_cell_length_a     54.099863
_cell_length_b     58.154814
_cell_length_c     20.898172
_cell_angle_alpha  89.685598
_cell_angle_beta   90.009937
_cell_angle_gamma 88.614024
loop_
_atom_site_label
_atom_site_type_symbol
_atom_site_fract_x
_atom_site_fract_y
_atom_site_fract_z
_atom_type_partial_charge
C0 C 0.83707 0.60071 0.32338 0.0
C1 C 0.83272 0.58089 0.35973 0.0
C2 C 0.81012 0.56967 0.35128 0.0
C3 C 0.79298 0.57736 0.30458 0.0
H4 H 0.70404 0.59704 0.20171 0.0
H5 H 0.66401 0.58693 0.1534 0.0
H6 H 0.70176 0.56762 0.97918 0.0
H7 H 0.74099 0.57729 0.0267 0.0
H8 H 0.77397 0.61473 0.97515 0.0
H9 H 0.80556 0.60723 0.89485 0.0
H10 H 0.86157 0.6293 0.0266 0.0
H11 H 0.83019 0.63686 0.10687 0.0
H12 H 0.82454 0.62356 0.24975 0.0
H13 H 0.85394 0.6101 0.32964 0.0
H14 H 0.80617 0.55436 0.37879 0.0
H15 H 0.77641 0.56766 0.29682 0.0
N16 N 0.76013 0.59425 0.19604 0.0
N17 N 0.7614 0.61031 0.09237 0.0
N18 N 0.79474 0.61456 0.16092 0.0
C19 C 0.74908 0.5985 0.13796 0.0
C20 C 0.78414 0.61846 0.10322 0.0
C21 C 0.78316 0.60268 0.20779 0.0
C22 C 0.72559 0.58808 0.11787 0.0
C23 C 0.70369 0.59002 0.15384 0.0
C24 C 0.68084 0.58444 0.12601 0.0
C25 C 0.67972 0.57706 0.06189 0.0
C26 C 0.70188 0.57383 0.02797 0.0
C27 C 0.72441 0.5792 0.05552 0.0
C28 C 0.79982 0.62514 0.04861 0.0
C29 C 0.79284 0.61909 0.98614 0.0
C30 C 0.81093 0.61478 0.9399 0.0
C31 C 0.83601 0.61676 0.95561 0.0
C32 C 0.84238 0.62728 0.01346 0.0
C33 C 0.82434 0.63147 0.05981 0.0
C34 C 0.79805 0.59655 0.26591 0.0
C35 C 0.81998 0.60849 0.27766 0.0
C36 C 0.01642 0.82217 0.34028 0.0
C37 C 1.0043 0.81664 0.39724 0.0
C38 C 0.99489 0.79436 0.40449 0.0
C39 C 0.99617 0.77849 0.35343 0.0
H40 H 0.03512 0.70356 0.18879 0.0
H41 H 0.03581 0.66682 0.1307 0.0
H42 H 0.96069 0.67985 0.06965 0.0
H43 H 0.95997 0.71629 0.12746 0.0
H44 H 0.01798 0.76469 1.00161 0.0
H45 H 0.01974 0.79245 0.91214 0.0
H46 H 0.97967 0.84247 0.02671 0.0
H47 H 0.97845 0.81549 0.11485 0.0
H48 H 0.02702 0.81184 0.24664 0.0
H49 H 0.02422 0.83902 0.33372 0.0
H50 H 0.98557 0.78963 0.44831 0.0
H51 H 0.98747 0.76201 0.35853 0.0
N52 N 1.00253 0.7478 0.23174 0.0
N53 N 0.99878 0.75062 0.11908 0.0
N54 N 1.00299 0.78371 0.17977 0.0
C55 C 0.99978 0.73753 0.17306 0.0
C56 C 1.00027 0.77367 0.12234 0.0
C57 C 1.00433 0.77129 0.23466 0.0
C58 C 0.99728 0.7125 0.16403 0.0
C59 C 0.01832 0.69786 0.16629 0.0
C60 C 0.01879 0.67699 0.13247 0.0
C61 C 0.99822 0.67051 0.09614 0.0
C62 C 0.97661 0.68427 0.09813 0.0
C63 C 0.97615 0.70502 0.13174 0.0
C64 C 0.99828 0.78817 0.06495 0.0
C65 C 0.00908 0.78147 0.00654 0.0
C66 C 0.01002 0.79719 0.9556 0.0
C67 C 0.99945 0.81933 0.96241 0.0
C68 C 0.98739 0.8253 0.01959 0.0
C69 C 0.98697 0.80996 0.0704 0.0
C70 C 0.00713 0.7847 0.29493 0.0
C71 C 0.01804 0.80644 0.29037 0.0
C72 C 0.68457 0.90111 0.34897 0.0
C73 C 0.68691 0.92346 0.37306 0.0
C74 C 0.70748 0.93623 0.35323 0.0
C75 C 0.72422 0.92745 0.3074 0.0
H76 H 0.80798 0.91326 0.2095 0.0
H77 H 0.84794 0.92386 0.16181 0.0
H78 H 0.81622 0.91816 0.97319 0.0
H79 H 0.77725 0.90787 0.01938 0.0
H80 H 0.73504 0.88341 0.98893 0.0
H81 H 0.70122 0.89092 0.91473 0.0
H82 H 0.6489 0.87173 0.06025 0.0
H83 H 0.68255 0.86419 0.13467 0.0
H84 H 0.69796 0.87551 0.28399 0.0
H85 H 0.66903 0.89071 0.3622 0.0
H86 H 0.71025 0.95334 0.37162 0.0
H87 H 0.73889 0.93824 0.29034 0.0
N88 N 0.75645 0.90597 0.20297 0.0
N89 N 0.7515 0.88856 0.10251 0.0
N90 N 0.72018 0.88629 0.17813 0.0
C91 C 0.76561 0.90061 0.14356 0.0
C92 C 0.72885 0.88135 0.11906 0.0
C93 C 0.73359 0.89839 0.2206 0.0
C94 C 0.78946 0.90928 0.1185 0.0
C95 C 0.80963 0.91448 0.15796 0.0
C96 C 0.83247 0.92046 0.13064 0.0
C97 C 0.83545 0.92124 0.06356 0.0
C98 C 0.81492 0.91697 0.02484 0.0
C99 C 0.79241 0.91113 0.0517 0.0
C100 C 0.71131 0.87447 0.06881 0.0
C101 C 0.71645 0.87967 1.00439 0.0
C102 C 0.69708 0.88397 0.96164 0.0
C103 C 0.67251 0.88282 0.9828 0.0
C104 C 0.66769 0.87311 0.04301 0.0
C105 C 0.68704 0.86893 0.0859 0.0
C106 C 0.72074 0.90571 0.2804 0.0
C107 C 0.70123 0.89238 0.30361 0.0
C108 C 0.52709 0.68643 0.00874 0.0
C109 C 0.50785 0.68789 0.96361 0.0
C110 C 0.49211 0.70746 0.96245 0.0
C111 C 0.49427 0.72431 0.00948 0.0
H112 H 0.46362 0.79077 0.11669 0.0
H113 H 0.46535 0.82723 0.05864 0.0
H114 H 0.53609 0.84031 0.14407 0.0
H115 H 0.53455 0.80332 0.2017 0.0
H116 H 0.51426 0.74486 0.35922 0.0
H117 H 0.51594 0.71709 0.4496 0.0
H118 H 0.49647 0.66263 0.32127 0.0
H119 H 0.4941 0.68955 0.23348 0.0
H120 H 0.54256 0.7004 0.09362 0.0
H121 H 0.53928 0.6714 0.01149 0.0
H122 H 0.47713 0.70889 0.92813 0.0
H123 H 0.48085 0.73844 0.01086 0.0
N124 N 0.5056 0.75749 0.11645 0.0
N125 N 0.5028 0.75782 0.22948 0.0
N126 N 0.50989 0.72327 0.17389 0.0
C127 C 0.5026 0.76933 0.17179 0.0
C128 C 0.50616 0.73433 0.23005 0.0
C129 C 0.50967 0.73458 0.11749 0.0
C130 C 0.49871 0.79442 0.16482 0.0
C131 C 0.47886 0.80203 0.1261 0.0
C132 C 0.48 0.82275 0.09216 0.0
C133 C 0.50089 0.83646 0.0967 0.0
C134 C 0.51969 0.83009 0.14028 0.0
C135 C 0.51865 0.80911 0.17396 0.0
C136 C 0.50456 0.71951 0.28855 0.0
C137 C 0.51001 0.72703 0.35081 0.0
C138 C 0.51108 0.71114 0.40233 0.0
C139 C 0.50695 0.68758 0.39195 0.0
C140 C 0.50039 0.6805 0.33053 0.0
C141 C 0.49905 0.69613 0.28003 0.0
C142 C 0.51183 0.72135 0.05845 0.0
C143 C 0.52888 0.70292 0.05614 0.0
C144 C 0.18387 0.39683 0.1232 0.0
C145 C 0.18711 0.4189 0.09733 0.0
C146 C 0.20807 0.43115 0.11669 0.0
C147 C 0.22427 0.42223 0.16386 0.0
H148 H 0.29906 0.42208 0.27224 0.0
H149 H 0.33876 0.43392 0.3166 0.0
H150 H 0.32448 0.39459 0.48817 0.0
H151 H 0.28616 0.38223 0.44372 0.0
H152 H 0.22688 0.3882 0.48289 0.0
H153 H 0.19044 0.39399 0.54728 0.0
H154 H 0.14725 0.35773 0.40756 0.0
H155 H 0.1839 0.35328 0.34081 0.0
H156 H 0.196 0.37138 0.19092 0.0
H157 H 0.168 0.38684 0.11033 0.0
H158 H 0.21152 0.44802 0.09694 0.0
H159 H 0.23926 0.43267 0.1805 0.0
N160 N 0.2553 0.40011 0.27117 0.0
N161 N 0.24914 0.3837 0.37306 0.0
N162 N 0.21789 0.38245 0.29675 0.0
C163 C 0.26416 0.39455 0.331 0.0
C164 C 0.22611 0.37752 0.35634 0.0
C165 C 0.23204 0.39364 0.25374 0.0
C166 C 0.28915 0.40123 0.35409 0.0
C167 C 0.30463 0.41576 0.31902 0.0
C168 C 0.32735 0.42268 0.34481 0.0
C169 C 0.33514 0.41519 0.40621 0.0
C170 C 0.31971 0.4004 0.44035 0.0
C171 C 0.2973 0.39348 0.41474 0.0
C172 C 0.20796 0.3712 0.40559 0.0
C173 C 0.20987 0.38061 0.467 0.0
C174 C 0.18873 0.38388 0.50429 0.0
C175 C 0.16545 0.37737 0.48115 0.0
C176 C 0.16462 0.364 0.42533 0.0
C177 C 0.18568 0.36121 0.38733 0.0
C178 C 0.21984 0.40086 0.19272 0.0
C179 C 0.19998 0.38796 0.16992 0.0
C180 C 0.0373 0.18676 0.11249 0.0
C181 C 0.01798 0.18931 0.0679 0.0
C182 C 1.00208 0.20888 0.07287 0.0
C183 C 1.00489 0.22485 0.12281 0.0
H184 H 0.03985 0.30502 0.25094 0.0
H185 H 0.04046 0.34224 0.30676 0.0
H186 H 0.98253 0.31966 0.43228 0.0
H187 H 0.98163 0.28303 0.37635 0.0
H188 H 0.00905 0.23607 0.46138 0.0
H189 H 0.00712 0.20563 0.54226 0.0
H190 H 0.05772 0.16373 0.42973 0.0
H191 H 0.05968 0.1939 0.35016 0.0
H192 H 0.05456 0.19924 0.19671 0.0
H193 H 0.04969 0.17186 0.11143 0.0
H194 H 0.9871 0.21156 0.03909 0.0
H195 H 0.99166 0.23904 0.1273 0.0
N196 N 0.01703 0.25707 0.23664 0.0
N197 N 0.02248 0.25375 0.3485 0.0
N198 N 0.03002 0.22196 0.28362 0.0
C199 C 0.01662 0.26678 0.29642 0.0
C200 C 0.02946 0.23149 0.34235 0.0
C201 C 0.02378 0.23428 0.23056 0.0
C202 C 0.01047 0.29126 0.30879 0.0
C203 C 0.02633 0.30859 0.28802 0.0
C204 C 0.0269 0.32974 0.32052 0.0
C205 C 0.01182 0.33361 0.37449 0.0
C206 C 0.9945 0.31705 0.39124 0.0
C207 C 0.99376 0.2962 0.35863 0.0
C208 C 0.03394 0.2169 0.39885 0.0
C209 C 0.0205 0.22069 0.45549 0.0
C210 C 0.01938 0.2033 0.5017 0.0
C211 C 0.03183 0.18214 0.49167 0.0
C212 C 0.0479 0.1798 0.43916 0.0
C213 C 0.04881 0.19699 0.39293 0.0
C214 C 0.02354 0.22146 0.16896 0.0
C215 C 0.04003 0.20253 0.16192 0.0
C216 C 0.34106 0.08937 0.15893 0.0
C217 C 0.33149 0.08347 0.09899 0.0
C218 C 0.30558 0.08532 0.0901 0.0
C219 C 0.28984 0.09306 0.13984 0.0
H220 H 0.21951 0.07662 0.26492 0.0
H221 H 0.18062 0.06234 0.30755 0.0
H222 H 0.18002 0.11583 0.45036 0.0
H223 H 0.21776 0.13056 0.40617 0.0
H224 H 0.27541 0.12022 0.48199 0.0
H225 H 0.30756 0.11089 0.5599 0.0
H226 H 0.36271 0.13544 0.4283 0.0
H227 H 0.33068 0.14535 0.35172 0.0
H228 H 0.3341 0.10135 0.25306 0.0
H229 H 0.36064 0.08756 0.16898 0.0
H230 H 0.29743 0.08104 0.04452 0.0
H231 H 0.27012 0.09451 0.13143 0.0
N232 N 0.2599 0.10371 0.26193 0.0
N233 N 0.26097 0.12181 0.36266 0.0
N234 N 0.2964 0.11989 0.29985 0.0
C235 C 0.24798 0.11088 0.31668 0.0
C236 C 0.2851 0.12652 0.35448 0.0
C237 C 0.28439 0.1085 0.25337 0.0
C238 C 0.2221 0.10451 0.33255 0.0
C239 C 0.21069 0.08567 0.30424 0.0
C240 C 0.18848 0.07732 0.32941 0.0
C241 C 0.1772 0.08756 0.38364 0.0
C242 C 0.18781 0.10741 0.40866 0.0
C243 C 0.20979 0.11578 0.38342 0.0
C244 C 0.30076 0.13242 0.40955 0.0
C245 C 0.29423 0.12486 0.47112 0.0
C246 C 0.3127 0.11933 0.5157 0.0
C247 C 0.33774 0.12127 0.49884 0.0
C248 C 0.34366 0.13326 0.44254 0.0
C249 C 0.32523 0.13887 0.39821 0.0
C250 C 0.29973 0.09931 0.19928 0.0
C251 C 0.32557 0.0972 0.20782 0.0
C252 C 0.49688 0.32634 0.41975 0.0
C253 C 0.5016 0.32009 0.48356 0.0
C254 C 0.50995 0.29764 0.49815 0.0
C255 C 0.51373 0.28171 0.4489 0.0
H256 H 0.55308 0.21574 0.37405 0.0
H257 H 0.5476 0.17938 0.4305 0.0
H258 H 0.48742 0.16337 0.30448 0.0
H259 H 0.49275 0.20027 0.24777 0.0
H260 H 0.4994 0.25955 0.10422 0.0
H261 H 0.49596 0.28754 0.01491 0.0
H262 H 0.54628 0.33186 0.11211 0.0
H263 H 0.5503 0.30405 0.19916 0.0
H264 H 0.49768 0.31644 0.32224 0.0
H265 H 0.4912 0.34377 0.407 0.0
H266 H 0.51415 0.2927 0.54708 0.0
H267 H 0.52055 0.26455 0.46075 0.0
N268 N 0.51739 0.2498 0.34052 0.0
N269 N 0.52344 0.24424 0.22954 0.0
N270 N 0.51779 0.28137 0.27184 0.0
C271 C 0.52141 0.23543 0.2904 0.0
C272 C 0.52198 0.26763 0.22083 0.0
C273 C 0.51524 0.27272 0.33137 0.0
C274 C 0.52358 0.21066 0.30591 0.0
C275 C 0.53939 0.20402 0.35647 0.0
C276 C 0.53613 0.18334 0.38919 0.0
C277 C 0.51704 0.16874 0.37195 0.0
C278 C 0.50238 0.17436 0.31823 0.0
C279 C 0.50561 0.19528 0.28536 0.0
C280 C 0.52522 0.27952 0.15849 0.0
C281 C 0.51053 0.27477 0.10488 0.0
C282 C 0.50832 0.2909 0.05435 0.0
C283 C 0.52056 0.31199 0.05744 0.0
C284 C 0.53647 0.31588 0.10889 0.0
C285 C 0.5389 0.29982 0.1584 0.0
C286 C 0.50979 0.28838 0.38477 0.0
C287 C 0.501 0.31073 0.37099 0.0
O288 O 1.00632 0.03394 0.78184 0.0
Mn289 Mn 1.00561 0.00277 0.7301 0.0
O290 O 0.96754 0.04889 0.77122 0.0
Mn291 Mn 0.95375 0.02557 0.72307 0.0
O292 O 1.00447 0.97178 0.67914 0.0
O293 O 0.04292 0.00522 0.70556 0.0
Mn294 Mn 0.05383 0.98022 0.74777 0.0
O295 O 0.01037 0.98351 0.81345 0.0
O296 O 0.04017 0.95444 0.70934 0.0
O297 O 0.99926 0.02164 0.64734 0.0
O298 O 0.95865 0.02755 0.63592 0.0
O299 O 0.08157 0.99152 0.71519 0.0
O300 O 0.04977 0.98309 0.83438 0.0
C301 C 0.94802 -0.00581 0.77339 0.0
C302 C 0.98966 0.04981 0.7927 0.0
C303 C 0.01942 0.95417 0.68006 0.0
C304 C 0.06648 0.00673 0.69018 0.0
C305 C 0.02825 0.97789 0.85048 0.0
C306 C 0.9806 0.02923 0.61516 0.0
O307 O 0.9691 0.00036 0.75011 0.0
O308 O 0.92968 0.00802 0.75961 0.0
O309 O 0.52612 0.98808 0.80276 0.0
Mn310 Mn 0.5045 0.00056 0.72729 0.0
O311 O 0.553 0.01482 0.83105 0.0
Mn312 Mn 0.55199 0.02835 0.75088 0.0
O313 O 0.48286 0.01294 0.65123 0.0
O314 O 0.48837 0.96969 0.72724 0.0
Mn315 Mn 0.45777 0.9724 0.70029 0.0
O316 O 0.47632 0.01264 0.78952 0.0
O317 O 0.45935 0.9843 0.61849 0.0
O318 O 0.53233 0.98844 0.66433 0.0
O319 O 0.56558 0.01001 0.68633 0.0
O320 O 0.46259 0.94188 0.72367 0.0
O321 O 0.44305 0.99247 0.7592 0.0
C322 C 0.5252 0.0525 0.71314 0.0
C323 C 0.5436 -0.00486 0.83867 0.0
C324 C 0.46697 0.0047 0.61239 0.0
C325 C 0.48386 0.94868 0.74328 0.0
C326 C 0.45305 0.00802 0.79315 0.0
C327 C 0.55501 -0.00586 0.65502 0.0
O328 O 0.52076 0.03142 0.72872 0.0
O329 O 0.54667 0.05913 0.73189 0.0
O330 O 0.5007 0.52073 0.81304 0.0
Mn331 Mn 0.50633 0.50168 0.73038 0.0
O332 O 0.46026 0.52344 0.83005 0.0
Mn333 Mn 0.45432 0.52334 0.74333 0.0
O334 O 0.51173 0.48275 0.64785 0.0
O335 O 0.54306 0.50472 0.74737 0.0
Mn336 Mn 0.55828 0.48015 0.71579 0.0
O337 O 0.50724 0.47047 0.78216 0.0
O338 O 0.552 0.48025 0.62919 0.0
O339 O 0.50565 0.5328 0.67865 0.0
O340 O 0.46762 0.54806 0.69841 0.0
O341 O 0.58273 0.49729 0.7515 0.0
O342 O 0.54524 0.45536 0.76066 0.0
C343 C 0.44836 0.49256 0.69071 0.0
C344 C 0.48223 0.5275 0.84702 0.0
C345 C 0.52997 0.47608 0.61313 0.0
C346 C 0.56455 0.51085 0.76791 0.0
C347 C 0.52376 0.45406 0.78605 0.0
C348 C 0.48926 0.54925 0.67389 0.0
O349 O 0.46964 0.49865 0.71289 0.0
O350 O 0.43011 0.50614 0.70652 0.0
O351 O 0.0361 0.48854 0.79753 0.0
Mn352 Mn 0.01002 0.5023 0.73139 0.0
O353 O 0.06964 0.51072 0.78607 0.0
Mn354 Mn 0.05744 0.53047 0.72261 0.0
O355 O 0.98358 0.51579 0.6658 0.0
O356 O 0.99443 0.47138 0.72355 0.0
Mn357 Mn 0.96287 0.47317 0.74313 0.0
O358 O 0.98613 0.51251 0.80398 0.0
O359 O 0.94987 0.4942 0.68384 0.0
O360 O 0.03351 0.49195 0.65776 0.0
O361 O 0.0609 0.51942 0.64046 0.0
O362 O 0.96934 0.44314 0.71777 0.0
O363 O 0.96065 0.48393 0.82595 0.0
C364 C 0.03037 0.55456 0.75677 0.0
C365 C 0.05842 0.49399 0.81223 0.0
C366 C 0.96065 0.51091 0.6561 0.0
C367 C 0.99116 0.45052 0.70493 0.0
C368 C 0.96827 0.50411 0.8362 0.0
C369 C 0.05152 0.50029 0.62621 0.0
O370 O 0.02574 0.53353 0.74059 0.0
O371 O 0.0525 0.56093 0.74287 0.0
H372 H 0.16881 0.04149 0.39757 0.0
H373 H 0.05827 0.05305 0.65384 0.0
H374 H 0.13787 0.10781 0.45087 0.0
H375 H 0.09791 0.99068 0.60181 0.0
H376 H 0.08222 0.07393 0.57137 0.0
H377 H 0.13789 0.02312 0.46248 0.0
C378 C 0.15527 0.05231 0.42186 0.0
C379 C 0.15624 0.07637 0.41818 0.0
C380 C 0.08537 0.05562 0.57793 0.0
C381 C 0.12065 0.0551 0.49573 0.0
C382 C 0.07158 0.04372 0.62457 0.0
C383 C 0.0762 0.02011 0.63511 0.0
C384 C 0.10361 0.04367 0.54186 0.0
C385 C 0.09379 0.0089 0.596 0.0
C386 C 0.13763 0.04173 0.4599 0.0
C387 C 0.13825 0.08922 0.45279 0.0
N388 N 0.10679 0.0207 0.55195 0.0
N389 N 0.12135 0.07846 0.49047 0.0
H390 H 0.49496 0.1717 0.48791 0.0
H391 H 0.53276 0.04332 0.58845 0.0
H392 H 0.52614 0.12243 0.35583 0.0
H393 H 0.49543 0.0911 0.7143 0.0
H394 H 0.52551 0.07 0.49881 0.0
H395 H 0.49008 0.14095 0.56709 0.0
C396 C 0.50039 0.15424 0.47539 0.0
C397 C 0.51092 0.14949 0.41546 0.0
C398 C 0.51826 0.07444 0.54554 0.0
C399 C 0.50591 0.1142 0.5062 0.0
C400 C 0.52215 0.05909 0.59655 0.0
C401 C 0.51387 0.06472 0.65831 0.0
C402 C 0.50659 0.0959 0.55667 0.0
C403 C 0.50131 0.08581 0.66698 0.0
C404 C 0.49766 0.13669 0.52057 0.0
C405 C 0.51784 0.12669 0.40151 0.0
N406 N 0.4982 0.1007 0.61687 0.0
N407 N 0.51549 0.10992 0.44684 0.0
H408 H 0.36705 0.39162 0.48824 0.0
H409 H 0.44711 0.50202 0.56474 0.0
H410 H 0.35687 0.45761 0.39486 0.0
H411 H 0.43707 0.44702 0.7001 0.0
H412 H 0.424 0.4806 0.48486 0.0
H413 H 0.40121 0.40711 0.54968 0.0
C414 C 0.37194 0.40934 0.48024 0.0
C415 C 0.35844 0.4234 0.43682 0.0
C416 C 0.42747 0.47285 0.53135 0.0
C417 C 0.39837 0.44101 0.50625 0.0
C418 C 0.44103 0.4849 0.57659 0.0
C419 C 0.44446 0.47604 0.63864 0.0
C420 C 0.41704 0.45182 0.54836 0.0
C421 C 0.43536 0.45418 0.65233 0.0
C422 C 0.39165 0.41808 0.5152 0.0
C423 C 0.36654 0.44598 0.42737 0.0
N424 N 0.42183 0.44289 0.60777 0.0
N425 N 0.38578 0.45409 0.46207 0.0
H426 H 0.00861 0.38024 0.34915 0.0
H427 H 0.01932 0.41158 0.72126 0.0
H428 H 0.0242 0.33129 0.50013 0.0
H429 H 0.99359 0.45996 0.57825 0.0
H430 H 0.03067 0.38438 0.63642 0.0
H431 H 0.01128 0.41162 0.42765 0.0
C432 C 0.01294 0.37617 0.3986 0.0
C433 C 0.01586 0.35319 0.41849 0.0
C434 C 0.02318 0.40118 0.62324 0.0
C435 C 0.01914 0.38879 0.50824 0.0
C436 C 0.0171 0.41683 0.67173 0.0
C437 C 1.0062 0.43825 0.65656 0.0
C438 C 0.01769 0.40675 0.55906 0.0
C439 C 1.00262 0.44382 0.59173 0.0
C440 C 0.01443 0.39402 0.44338 0.0
C441 C 0.02145 0.34879 0.48307 0.0
N442 N 0.00804 0.42808 0.54537 0.0
N443 N 0.02278 0.36634 0.52551 0.0
H444 H 0.85723 0.89968 0.96132 0.0
H445 H 0.95079 0.00113 0.90033 0.0
H446 H 0.86827 0.95519 0.09344 0.0
H447 H 0.93371 0.94978 0.76075 0.0
H448 H 0.92888 0.9791 0.98183 0.0
H449 H 0.89227 0.91261 0.89825 0.0
C450 C 0.86722 0.91448 0.97751 0.0
C451 C 0.85944 0.92665 0.0322 0.0
C452 C 0.93054 0.97221 0.93394 0.0
C453 C 0.89984 0.94157 0.95987 0.0
C454 C 0.94337 0.98462 0.88764 0.0
C455 C 0.94455 0.97694 0.82415 0.0
C456 C 0.91826 0.95221 0.91627 0.0
C457 C 0.93378 0.95595 0.80954 0.0
C458 C 0.88731 0.92182 0.94147 0.0
C459 C 0.8735 0.94536 0.05155 0.0
N460 N 0.9208 0.94446 0.855 0.0
N461 N 0.89277 0.95245 0.01491 0.0
H462 H 0.50071 0.88352 0.11338 0.0
H463 H 0.50751 0.90718 0.7347 0.0
H464 H 0.50911 0.83099 0.97006 0.0
H465 H 0.48544 0.95938 0.8698 0.0
H466 H 0.51712 0.88091 0.82377 0.0
H467 H 0.50296 0.91309 0.02845 0.0
C468 C 0.50335 0.87829 0.06415 0.0
C469 C 0.50455 0.85488 0.04837 0.0
C470 C 0.51071 0.89826 0.83423 0.0
C471 C 0.50729 0.88835 0.95142 0.0
C472 C 0.50553 0.91333 0.78333 0.0
C473 C 0.49635 0.93561 0.79505 0.0
C474 C 0.50605 0.90531 0.8975 0.0
C475 C 0.49311 0.94248 0.85895 0.0
C476 C 0.50459 0.8951 0.01575 0.0
C477 C 0.50793 0.8489 0.98399 0.0
N478 N 0.49778 0.92734 0.90781 0.0
N479 N 0.50909 0.86546 0.93802 0.0
H480 H 0.63995 0.55168 0.10099 0.0
H481 H 0.58236 0.55355 0.74888 0.0
H482 H 0.66548 0.59377 0.94516 0.0
H483 H 0.56044 0.50631 0.8963 0.0
H484 H 0.60543 0.57509 0.82857 0.0
H485 H 0.60424 0.54107 0.03541 0.0
C486 C 0.63778 0.55903 0.05352 0.0
C487 C 0.65591 0.5733 0.0281 0.0
C488 C 0.59496 0.56045 0.84413 0.0
C489 C 0.61526 0.56125 0.95277 0.0
C490 C 0.58144 0.5484 0.79872 0.0
C491 C 0.56901 0.52851 0.81642 0.0
C492 C 0.59654 0.55219 0.9075 0.0
C493 C 0.56934 0.52191 0.88113 0.0
C494 C 0.61747 0.55291 0.01597 0.0
C495 C 0.65219 0.58234 0.96622 0.0
N496 N 0.58317 0.53351 0.92419 0.0
N497 N 0.6325 0.57599 0.93059 0.0
H498 H 0.01103 0.67601 0.9724 0.0
H499 H 0.01892 0.54355 0.88035 0.0
H500 H 0.99032 0.62389 0.1079 0.0
H501 H 0.01355 0.5984 0.74155 0.0
H502 H 0.00827 0.57126 0.96534 0.0
H503 H 0.01369 0.64683 0.88861 0.0
C504 C 0.00709 0.65832 0.98433 0.0
C505 C 1.00062 0.65226 0.04696 0.0
C506 C 0.00875 0.57711 0.91609 0.0
C507 C 1.00337 0.61864 0.95117 0.0
C508 C 0.01448 0.56125 0.8675 0.0
C509 C 0.01616 0.56856 0.80344 0.0
C510 C 1.00566 0.60058 0.9007 0.0
C511 C 0.01158 0.59191 0.78991 0.0
C512 C 0.00842 0.64168 0.93648 0.0
C513 C 0.99559 0.62914 0.06013 0.0
N514 N 1.00682 0.60706 0.83799 0.0
N515 N 0.9972 0.61308 0.01266 0.0
H516 H 0.98459 0.17043 0.51986 0.0
H517 H 0.02392 0.03819 0.55362 0.0
H518 H 0.0602 0.14529 0.53353 0.0
H519 H 0.94869 0.06356 0.57496 0.0
H520 H 0.03651 0.07712 0.52787 0.0
H521 H 0.9705 0.13148 0.53662 0.0
C522 C 0.99827 0.15685 0.52843 0.0
C523 C 0.02367 0.16104 0.5241 0.0
C524 C 0.0172 0.07407 0.53748 0.0
C525 C 0.00762 0.11633 0.53997 0.0
C526 C 0.0099 0.05179 0.55078 0.0
C527 C 0.98543 0.04781 0.56917 0.0
C528 C 0.9998 0.09227 0.54189 0.0
C529 C 0.96792 0.06592 0.56286 0.0
C530 C 0.99018 0.13452 0.53659 0.0
C531 C 0.04046 0.14269 0.53512 0.0
N532 N 0.97557 0.08757 0.55151 0.0
N533 N 0.03213 0.12101 0.54141 0.0
H534 H 0.33204 0.07675 0.53589 0.0
H535 H 0.47539 0.0498 0.58536 0.0
H536 H 0.38692 0.12935 0.52358 0.0
H537 H 0.4207 -0.00208 0.5634 0.0
H538 H 0.44415 0.07944 0.56227 0.0
H539 H 0.36459 0.04826 0.55551 0.0
C540 C 0.35088 0.08251 0.53915 0.0
C541 C 0.3567 0.1056 0.52782 0.0
C542 C 0.43905 0.06155 0.56155 0.0
C543 C 0.3943 0.07261 0.5475 0.0
C544 C 0.45705 0.0446 0.57392 0.0
C545 C 0.45085 0.02137 0.57726 0.0
C546 C 0.41449 0.05516 0.55285 0.0
C547 C 0.42651 0.01559 0.56183 0.0
C548 C 0.36955 0.06605 0.549 0.0
C549 C 0.38161 0.11173 0.53134 0.0
N550 N 0.40913 0.03241 0.55146 0.0
N551 N 0.39956 0.09528 0.54033 0.0
H552 H 0.53979 0.33225 0.55924 0.0
H553 H 0.48688 0.46118 0.56159 0.0
H554 H 0.4644 0.35078 0.5112 0.0
H555 H 0.56367 0.44158 0.58808 0.0
H556 H 0.47701 0.42069 0.55034 0.0
H557 H 0.54646 0.37184 0.59191 0.0
C558 C 0.52434 0.34445 0.55829 0.0
C559 C 0.50174 0.33861 0.53092 0.0
C560 C 0.49606 0.4253 0.55796 0.0
C561 C 0.50951 0.38384 0.56453 0.0
C562 C 0.50174 0.44843 0.56307 0.0
C563 C 0.52597 0.45479 0.5773 0.0
C564 C 0.51486 0.40851 0.56634 0.0
C565 C 0.54464 0.43757 0.5778 0.0
C566 C 0.52829 0.36716 0.57543 0.0
C567 C 0.48225 0.35493 0.53096 0.0
N568 N 0.53861 0.41517 0.57371 0.0
N569 N 0.48676 0.37709 0.54559 0.0
H570 H 0.12409 0.39143 0.41323 0.0
H571 H 0.09997 0.49261 0.64588 0.0
H572 H 0.15466 0.39131 0.60457 0.0
H573 H 0.03867 0.46933 0.53364 0.0
H574 H 0.12391 0.45848 0.61476 0.0
H575 H 0.09364 0.42042 0.44605 0.0
C576 C 0.12409 0.39682 0.46269 0.0
C577 C 0.14264 0.38915 0.50573 0.0
C578 C 0.10525 0.46088 0.59665 0.0
C579 C 0.10839 0.42323 0.5419 0.0
C580 C 0.0918 0.48058 0.61305 0.0
C581 C 0.06733 0.48366 0.59205 0.0
C582 C 0.09434 0.44434 0.55809 0.0
C583 C 0.05741 0.46728 0.55109 0.0
C584 C 0.10677 0.41365 0.48093 0.0
C585 C 0.14147 0.39725 0.56888 0.0
N586 N 0.07103 0.44818 0.53503 0.0
N587 N 0.1251 0.41434 0.58457 0.0
H588 H 0.04429 0.83347 0.92203 0.0
H589 H 0.98603 0.95957 0.89729 0.0
H590 H 0.96616 0.84852 0.90495 0.0
H591 H 0.06412 0.94503 0.87625 0.0
H592 H 0.97889 0.91849 0.90508 0.0
H593 H 0.05262 0.87353 0.89575 0.0
C594 C 0.02895 0.84499 0.90979 0.0
C595 C 1.0045 0.83802 0.91711 0.0
C596 C 0.99764 0.92429 0.89919 0.0
C597 C 0.01372 0.88375 0.89067 0.0
C598 C 1.00171 0.94778 0.89612 0.0
C599 C 0.02549 0.9558 0.8843 0.0
C600 C 0.01764 0.90873 0.89167 0.0
C601 C 0.04535 0.93972 0.88452 0.0
C602 C 0.03366 0.86796 0.89622 0.0
C603 C 0.98526 0.85351 0.90079 0.0
N604 N 0.04092 0.91688 0.88691 0.0
N605 N 0.99023 0.87591 0.89015 0.0
H606 H 0.6767 0.92727 0.94639 0.0
H607 H 0.54078 0.94864 0.83048 0.0
H608 H 0.62424 0.87257 0.95557 0.0
H609 H 0.58218 0.00168 0.9218 0.0
H610 H 0.5707 0.92004 0.86749 0.0
H611 H 0.64316 0.95437 0.9202 0.0
C612 C 0.65819 0.92082 0.9411 0.0
C613 C 0.65321 0.89758 0.95259 0.0
C614 C 0.57288 0.93785 0.88097 0.0
C615 C 0.61475 0.92869 0.92474 0.0
C616 C 0.55532 0.95421 0.86135 0.0
C617 C 0.55822 0.97762 0.87485 0.0
C618 C 0.59413 0.94504 0.91223 0.0
C619 C 0.57893 0.98384 0.91076 0.0
C620 C 0.63903 0.93641 0.92752 0.0
C621 C 0.62879 0.89034 0.94679 0.0
N622 N 0.59637 0.96767 0.92719 0.0
N623 N 0.61036 0.90589 0.93311 0.0
H624 H 0.46271 0.66845 0.95597 0.0
H625 H 0.52581 0.54688 0.88031 0.0
H626 H 0.53869 0.65877 0.89725 0.0
H627 H 0.44678 0.55668 0.898 0.0
H628 H 0.53093 0.58761 0.89882 0.0
H629 H 0.45567 0.62791 0.9348 0.0
C630 C 0.47769 0.65798 0.93643 0.0
C631 C 0.50145 0.6668 0.92927 0.0
C632 C 0.51246 0.58082 0.89933 0.0
C633 C 0.49382 0.62039 0.90802 0.0
C634 C 0.50957 0.55741 0.89008 0.0
C635 C 0.48584 0.54834 0.88563 0.0
C636 C 0.49145 0.59523 0.90534 0.0
C637 C 0.46546 0.56291 0.89973 0.0
C638 C 0.47377 0.63474 0.92555 0.0
C639 C 0.52023 0.65245 0.90438 0.0
N640 N 0.4687 0.58578 0.90775 0.0
N641 N 0.51614 0.62979 0.8958 0.0
H642 H 0.88316 0.62772 0.91981 0.0
H643 H 0.92514 0.49562 0.9014 0.0
H644 H 0.83191 0.57197 0.92302 0.0
H645 H 0.9699 0.55076 0.83139 0.0
H646 H 0.89195 0.52386 0.92322 0.0
H647 H 0.9166 0.60002 0.89507 0.0
C648 C 0.87889 0.60976 0.91368 0.0
C649 C 0.8548 0.60213 0.92328 0.0
C650 C 0.90937 0.52972 0.9044 0.0
C651 C 0.89282 0.5704 0.89763 0.0
C652 C 0.92845 0.51367 0.89289 0.0
C653 C 0.95086 0.52081 0.86633 0.0
C654 C 0.91285 0.55303 0.88976 0.0
C655 C 0.95371 0.54444 0.85484 0.0
C656 C 0.89793 0.59396 0.90022 0.0
C657 C 0.85018 0.57865 0.91523 0.0
N658 N 0.93496 0.55966 0.86641 0.0
N659 N 0.86911 0.56354 0.90382 0.0
H660 H 0.97377 0.17228 0.02555 0.0
H661 H 0.0352 0.06828 0.82267 0.0
H662 H 0.05262 0.16315 1.00141 0.0
H663 H 0.95681 0.07853 0.85319 0.0
H664 H 0.04247 0.1034 0.88479 0.0
H665 H 0.96756 0.13907 0.95688 0.0
C666 C 0.98981 0.16356 0.00519 0.0
C667 C 0.01379 0.17063 0.01999 0.0
C668 C 0.0237 0.09787 0.87784 0.0
C669 C 1.00678 0.13194 0.94181 0.0
C670 C 0.01957 0.07775 0.84264 0.0
C671 C 0.99536 0.07033 0.83238 0.0
C672 C 1.0035 0.11058 0.9033 0.0
C673 C 0.97581 0.08353 0.85913 0.0
C674 C 0.98625 0.14436 0.96636 0.0
C675 C 0.03379 0.1582 0.99253 0.0
N676 N 0.98031 0.10283 0.89312 0.0
N677 N 0.02985 0.13947 0.95522 0.0
H678 H 0.32334 0.0502 0.00829 0.0
H679 H 0.46342 0.04299 0.8796 0.0
H680 H 0.37937 0.09645 0.0724 0.0
H681 H 0.40331 0.00311 0.80691 0.0
H682 H 0.43372 0.06328 0.95037 0.0
H683 H 0.35285 0.03374 0.93221 0.0
C684 C 0.34171 0.05713 0.0061 0.0
C685 C 0.34872 0.07466 0.04781 0.0
C686 C 0.42716 0.05008 0.91867 0.0
C687 C 0.38317 0.05533 0.96099 0.0
C688 C 0.44413 0.03846 0.87837 0.0
C689 C 0.43609 0.02108 0.83725 0.0
C690 C 0.402 0.04428 0.91784 0.0
C691 C 0.4107 0.01615 0.83776 0.0
C692 C 0.35873 0.04754 0.96282 0.0
C693 C 0.37312 0.08258 0.0426 0.0
N694 N 0.39478 0.02756 0.87721 0.0
N695 N 0.38945 0.07277 1.00056 0.0
H696 H 0.53296 0.31368 0.93015 0.0
H697 H 0.49088 0.44662 0.88536 0.0
H698 H 0.49822 0.3536 0.07957 0.0
H699 H 0.54458 0.41162 0.76566 0.0
H700 H 0.4862 0.41074 0.94699 0.0
H701 H 0.53011 0.34751 0.85894 0.0
C702 C 0.52429 0.32945 0.9474 0.0
C703 C 0.5158 0.33092 0.0106 0.0
C704 C 0.49887 0.41095 0.9069 0.0
C705 C 0.51253 0.36967 0.92995 0.0
C706 C 0.50145 0.43139 0.87159 0.0
C707 C 0.5184 0.43228 0.82079 0.0
C708 C 0.51302 0.39118 0.89062 0.0
C709 C 0.53159 0.41192 0.80508 0.0
C710 C 0.52281 0.34879 0.90706 0.0
C711 C 0.50499 0.35184 0.03104 0.0
N712 N 0.52867 0.39233 0.8398 0.0
N713 N 0.50371 0.37039 0.991 0.0
H714 H 0.17069 0.46396 0.09362 0.0
H715 H 0.06658 0.44702 0.82415 0.0
H716 H 0.15818 0.39836 0.00504 0.0
H717 H 0.08386 0.51177 0.9106 0.0
H718 H 0.09739 0.42774 0.89474 0.0
H719 H 0.13738 0.48091 0.02944 0.0
C720 C 0.16121 0.45311 0.06012 0.0
C721 C 0.16761 0.42964 0.05481 0.0
C722 C 0.09414 0.44611 0.89884 0.0
C723 C 0.12854 0.44903 0.98151 0.0
C724 C 0.07636 0.45705 0.85913 0.0
C725 C 0.07262 0.481 0.86188 0.0
C726 C 0.10807 0.45928 0.9416 0.0
C727 C 0.08618 0.49327 0.90697 0.0
C728 C 0.14188 0.46279 0.02383 0.0
C729 C 0.15391 0.41647 0.01144 0.0
N730 N 0.10327 0.48234 0.94467 0.0
N731 N 0.13509 0.42632 0.97653 0.0
H732 H 0.97999 0.85792 0.38411 0.0
H733 H 0.03871 0.91079 0.69946 0.0
H734 H 0.02202 0.8174 0.52072 0.0
H735 H 0.98592 0.94827 0.58159 0.0
H736 H 0.03137 0.87621 0.63738 0.0
H737 H 0.98008 0.89052 0.45796 0.0
C738 C 0.98891 0.85581 0.43027 0.0
C739 C 1.00096 0.83491 0.44646 0.0
C740 C 0.02123 0.89191 0.62522 0.0
C741 C 1.00169 0.87241 0.53087 0.0
C742 C 0.02548 0.91178 0.66058 0.0
C743 C 0.01314 0.93268 0.64541 0.0
C744 C 1.00469 0.89279 0.57344 0.0
C745 C 0.99594 0.93264 0.59499 0.0
C746 C 0.98902 0.87445 0.47236 0.0
C747 C 0.01234 0.83313 0.50664 0.0
N748 N 0.99246 0.91312 0.56041 0.0
N749 N 0.0127 0.85171 0.54628 0.0
H750 H 0.66909 0.96817 0.3743 0.0
H751 H 0.56241 0.94759 0.63494 0.0
H752 H 0.65843 0.90239 0.46578 0.0
H753 H 0.5837 0.01418 0.56585 0.0
H754 H 0.59405 0.92961 0.56496 0.0
H755 H 0.63526 0.9844 0.43776 0.0
C756 C 0.65991 0.95713 0.40824 0.0
C757 C 0.66699 0.93382 0.41463 0.0
C758 C 0.59155 0.94813 0.56458 0.0
C759 C 0.62737 0.95236 0.4869 0.0
C760 C 0.57332 0.95835 0.60391 0.0
C761 C 0.5704 0.98238 0.60583 0.0
C762 C 0.6067 0.9621 0.52659 0.0
C763 C 0.58537 -0.00442 0.56577 0.0
C764 C 0.64032 0.96641 0.44412 0.0
C765 C 0.65364 0.92038 0.45845 0.0
N766 N 0.6028 0.98532 0.52802 0.0
N767 N 0.63453 0.92982 0.49277 0.0
H768 H 0.53542 0.64832 0.38954 0.0
H769 H 0.46599 0.59126 0.6847 0.0
H770 H 0.48367 0.68564 0.50909 0.0
H771 H 0.52609 0.55709 0.58472 0.0
H772 H 0.47368 0.62632 0.62436 0.0
H773 H 0.53419 0.61568 0.46375 0.0
C774 C 0.5241 0.64976 0.43215 0.0
C775 C 0.50958 0.66973 0.44312 0.0
C776 C 0.48531 0.61124 0.61571 0.0
C777 C 0.50769 0.63212 0.52794 0.0
C778 C 0.48086 0.59108 0.65 0.0
C779 C 0.4952 0.57095 0.63932 0.0
C780 C 0.50412 0.61145 0.56951 0.0
C781 C 0.51447 0.57208 0.59442 0.0
C782 C 0.52336 0.63108 0.47443 0.0
C783 C 0.49525 0.67065 0.49901 0.0
N784 N 0.51817 0.59188 0.56071 0.0
N785 N 0.49441 0.65201 0.53886 0.0
H786 H 0.82711 0.56515 0.48296 0.0
H787 H 0.97042 0.5297 0.53627 0.0
H788 H 0.88277 0.57618 0.33908 0.0
H789 H 0.91371 0.52474 0.68022 0.0
H790 H 0.93978 0.54833 0.46383 0.0
H791 H 0.8594 0.551 0.55611 0.0
C792 C 0.84611 0.56447 0.46663 0.0
C793 C 0.85216 0.57186 0.40475 0.0
C794 C 0.93418 0.54337 0.51159 0.0
C795 C 0.88951 0.55567 0.48849 0.0
C796 C 0.95171 0.53292 0.55298 0.0
C797 C 0.94454 0.52551 0.6141 0.0
C798 C 0.90943 0.54645 0.53182 0.0
C799 C 0.91997 0.5299 0.63318 0.0
C800 C 0.86464 0.55653 0.50856 0.0
C801 C 0.87725 0.57086 0.38659 0.0
N802 N 0.90339 0.53989 0.59229 0.0
N803 N 0.89495 0.56283 0.42804 0.0
loop_
_geom_bond_atom_site_label_1
_geom_bond_atom_site_label_2
_geom_bond_distance
_geom_bond_site_symmetry_2
_ccdc_geom_bond_type
C0 C1 1.384 . S
C0 H13 0.947 . S
C0 C35 1.382 . S
C1 C0 1.384 . S
C1 C2 1.378 . S
C2 C1 1.378 . S
C2 C3 1.378 . S
C2 H14 0.952 . S
C3 C2 1.378 . S
C3 H15 0.950 . S
C3 C34 1.383 . S
H4 C23 0.947 . S
H5 C24 0.946 . S
H6 C26 0.953 . S
H7 C27 0.945 1_556 S
H8 C29 0.952 . S
H9 C30 0.949 . S
H10 C32 0.950 . S
H11 C33 0.948 . S
H12 C35 0.951 . S
H13 C0 0.947 . S
H14 C2 0.952 . S
H15 C3 0.950 . S
N16 C19 1.382 . S
N16 C21 1.363 . S
N17 C19 1.371 . S
N17 C20 1.372 . S
N18 C20 1.361 . S
N18 C21 1.377 . S
C19 N16 1.382 . S
C19 N17 1.371 . S
C19 C22 1.480 . S
C20 N17 1.372 . S
C20 N18 1.361 . S
C20 C28 1.457 . S
C21 N16 1.363 . S
C21 N18 1.377 . S
C21 C34 1.479 . S
C22 C19 1.480 . S
C22 C23 1.383 . S
C22 C27 1.385 . S
C23 H4 0.947 . S
C23 C22 1.383 . S
C23 C24 1.388 . S
C24 H5 0.946 . S
C24 C23 1.388 . S
C24 C25 1.384 . S
C25 C24 1.384 . S
C25 C26 1.377 1_554 S
C26 H6 0.953 . S
C26 C25 1.377 1_556 S
C26 C27 1.369 1_556 S
C27 H7 0.945 1_554 S
C27 C22 1.385 . S
C27 C26 1.369 1_554 S
C28 C20 1.457 . S
C28 C29 1.372 1_554 S
C28 C33 1.364 . S
C29 H8 0.952 . S
C29 C28 1.372 1_556 S
C29 C30 1.389 . S
C30 H9 0.949 . S
C30 C29 1.389 . S
C30 C31 1.387 . S
C31 C30 1.387 . S
C31 C32 1.372 . S
C32 H10 0.950 . S
C32 C31 1.372 . S
C32 C33 1.379 1_556 S
C33 H11 0.948 . S
C33 C28 1.364 . S
C33 C32 1.379 1_554 S
C34 C3 1.383 . S
C34 C21 1.479 . S
C34 C35 1.398 . S
C35 C0 1.382 . S
C35 H12 0.951 . S
C35 C34 1.398 . S
C36 C37 1.384 1_655 S
C36 H49 0.948 . S
C36 C71 1.382 1_655 S
C37 C36 1.384 1_455 S
C37 C38 1.378 . S
C38 C37 1.378 . S
C38 C39 1.378 . S
C38 H50 0.952 . S
C39 C38 1.378 . S
C39 H51 0.950 . S
C39 C70 1.383 . S
H40 C59 0.947 . S
H41 C60 0.952 . S
H42 C62 0.953 1_556 S
H43 C63 0.945 1_556 S
H44 C65 0.948 1_655 S
H45 C66 0.957 . S
H46 C68 0.950 1_554 S
H47 C69 0.948 . S
H48 C71 0.951 1_655 S
H49 C36 0.948 . S
H50 C38 0.952 . S
H51 C39 0.950 . S
N52 C55 1.382 . S
N52 C57 1.363 . S
N53 C55 1.371 . S
N53 C56 1.372 . S
N54 C56 1.361 . S
N54 C57 1.377 . S
C55 N52 1.382 . S
C55 N53 1.371 . S
C55 C58 1.480 . S
C56 N53 1.372 . S
C56 N54 1.361 . S
C56 C64 1.457 . S
C57 N52 1.363 . S
C57 N54 1.377 . S
C57 C70 1.479 . S
C58 C55 1.480 . S
C58 C59 1.383 . S
C58 C63 1.385 . S
C59 H40 0.947 . S
C59 C58 1.383 . S
C59 C60 1.385 1_455 S
C60 H41 0.952 . S
C60 C59 1.385 1_655 S
C60 C61 1.382 1_655 S
C61 C60 1.382 1_455 S
C61 C62 1.377 . S
C62 H42 0.953 1_554 S
C62 C61 1.377 . S
C62 C63 1.369 . S
C63 H43 0.945 1_554 S
C63 C58 1.385 . S
C63 C62 1.369 . S
C64 C56 1.457 . S
C64 C65 1.376 1_554 S
C64 C69 1.364 . S
C65 H44 0.948 1_455 S
C65 C64 1.376 1_556 S
C65 C66 1.388 1_455 S
C66 H45 0.957 . S
C66 C65 1.388 1_655 S
C66 C67 1.381 1_655 S
C67 C66 1.381 1_455 S
C67 C68 1.372 . S
C68 H46 0.950 1_556 S
C68 C67 1.372 . S
C68 C69 1.379 1_556 S
C69 H47 0.948 . S
C69 C64 1.364 . S
C69 C68 1.379 1_554 S
C70 C39 1.383 . S
C70 C57 1.479 . S
C70 C71 1.398 . S
C71 C36 1.382 1_455 S
C71 H48 0.951 1_455 S
C71 C70 1.398 . S
C72 C73 1.384 . S
C72 H85 0.947 . S
C72 C107 1.382 . S
C73 C72 1.384 . S
C73 C74 1.378 . S
C74 C73 1.378 . S
C74 C75 1.378 . S
C74 H86 0.952 . S
C75 C74 1.378 . S
C75 H87 0.950 . S
C75 C106 1.383 . S
H76 C95 0.947 . S
H77 C96 0.946 . S
H78 C98 0.953 1_556 S
H79 C99 0.945 1_556 S
H80 C101 0.952 . S
H81 C102 0.949 . S
H82 C104 0.950 . S
H83 C105 0.948 . S
H84 C107 0.951 . S
H85 C72 0.947 . S
H86 C74 0.952 . S
H87 C75 0.950 . S
N88 C91 1.382 . S
N88 C93 1.363 . S
N89 C91 1.371 . S
N89 C92 1.372 . S
N90 C92 1.361 . S
N90 C93 1.377 . S
C91 N88 1.382 . S
C91 N89 1.371 . S
C91 C94 1.480 . S
C92 N89 1.372 . S
C92 N90 1.361 . S
C92 C100 1.457 . S
C93 N88 1.363 . S
C93 N90 1.377 . S
C93 C106 1.479 . S
C94 C91 1.480 . S
C94 C95 1.383 . S
C94 C99 1.385 . S
C95 H76 0.947 . S
C95 C94 1.383 . S
C95 C96 1.388 . S
C96 H77 0.946 . S
C96 C95 1.388 . S
C96 C97 1.384 . S
C97 C96 1.384 . S
C97 C98 1.377 . S
C98 H78 0.953 1_554 S
C98 C97 1.377 . S
C98 C99 1.369 . S
C99 H79 0.945 1_554 S
C99 C94 1.385 . S
C99 C98 1.369 . S
C100 C92 1.457 . S
C100 C101 1.372 1_554 S
C100 C105 1.364 . S
C101 H80 0.952 . S
C101 C100 1.372 1_556 S
C101 C102 1.389 . S
C102 H81 0.949 . S
C102 C101 1.389 . S
C102 C103 1.387 . S
C103 C102 1.387 . S
C103 C104 1.372 . S
C104 H82 0.950 . S
C104 C103 1.372 . S
C104 C105 1.379 1_556 S
C105 H83 0.948 . S
C105 C100 1.364 . S
C105 C104 1.379 1_554 S
C106 C75 1.383 . S
C106 C93 1.479 . S
C106 C107 1.398 . S
C107 C72 1.382 . S
C107 H84 0.951 . S
C107 C106 1.398 . S
C108 C109 1.384 1_554 S
C108 H121 0.947 . S
C108 C143 1.381 . S
C109 C108 1.384 1_556 S
C109 C110 1.378 . S
C110 C109 1.378 . S
C110 C111 1.378 . S
C110 H122 0.952 . S
C111 C110 1.378 . S
C111 H123 0.950 . S
C111 C142 1.383 1_556 S
H112 C131 0.947 . S
H113 C132 0.946 1_556 S
H114 C134 0.953 . S
H115 C135 0.945 . S
H116 C137 0.952 . S
H117 C138 0.949 . S
H118 C140 0.950 . S
H119 C141 0.948 . S
H120 C143 0.951 . S
H121 C108 0.947 . S
H122 C110 0.952 . S
H123 C111 0.950 . S
N124 C127 1.382 . S
N124 C129 1.363 . S
N125 C127 1.371 . S
N125 C128 1.372 . S
N126 C128 1.361 . S
N126 C129 1.377 . S
C127 N124 1.382 . S
C127 N125 1.371 . S
C127 C130 1.480 . S
C128 N125 1.372 . S
C128 N126 1.361 . S
C128 C136 1.457 . S
C129 N124 1.363 . S
C129 N126 1.377 . S
C129 C142 1.479 . S
C130 C127 1.480 . S
C130 C131 1.383 . S
C130 C135 1.385 . S
C131 H112 0.947 . S
C131 C130 1.383 . S
C131 C132 1.388 . S
C132 H113 0.946 1_554 S
C132 C131 1.388 . S
C132 C133 1.384 . S
C133 C132 1.384 . S
C133 C134 1.377 . S
C134 H114 0.953 . S
C134 C133 1.377 . S
C134 C135 1.369 . S
C135 H115 0.945 . S
C135 C130 1.385 . S
C135 C134 1.369 . S
C136 C128 1.457 . S
C136 C137 1.372 . S
C136 C141 1.364 . S
C137 H116 0.952 . S
C137 C136 1.372 . S
C137 C138 1.389 . S
C138 H117 0.949 . S
C138 C137 1.389 . S
C138 C139 1.387 . S
C139 C138 1.387 . S
C139 C140 1.372 . S
C140 H118 0.950 . S
C140 C139 1.372 . S
C140 C141 1.379 . S
C141 H119 0.948 . S
C141 C136 1.364 . S
C141 C140 1.379 . S
C142 C111 1.383 1_554 S
C142 C129 1.479 . S
C142 C143 1.398 . S
C143 C108 1.381 . S
C143 H120 0.951 . S
C143 C142 1.398 . S
C144 C145 1.384 . S
C144 H157 0.947 . S
C144 C179 1.382 . S
C145 C144 1.384 . S
C145 C146 1.378 . S
C146 C145 1.378 . S
C146 C147 1.378 . S
C146 H158 0.952 . S
C147 C146 1.378 . S
C147 H159 0.950 . S
C147 C178 1.383 . S
H148 C167 0.947 . S
H149 C168 0.946 . S
H150 C170 0.953 . S
H151 C171 0.945 . S
H152 C173 0.952 . S
H153 C174 0.949 . S
H154 C176 0.950 . S
H155 C177 0.948 . S
H156 C179 0.951 . S
H157 C144 0.947 . S
H158 C146 0.952 . S
H159 C147 0.950 . S
N160 C163 1.382 . S
N160 C165 1.363 . S
N161 C163 1.371 . S
N161 C164 1.372 . S
N162 C164 1.361 . S
N162 C165 1.377 . S
C163 N160 1.382 . S
C163 N161 1.371 . S
C163 C166 1.480 . S
C164 N161 1.372 . S
C164 N162 1.361 . S
C164 C172 1.457 . S
C165 N160 1.363 . S
C165 N162 1.377 . S
C165 C178 1.479 . S
C166 C163 1.480 . S
C166 C167 1.383 . S
C166 C171 1.385 . S
C167 H148 0.947 . S
C167 C166 1.383 . S
C167 C168 1.388 . S
C168 H149 0.946 . S
C168 C167 1.388 . S
C168 C169 1.384 . S
C169 C168 1.384 . S
C169 C170 1.377 . S
C170 H150 0.953 . S
C170 C169 1.377 . S
C170 C171 1.369 . S
C171 H151 0.945 . S
C171 C166 1.385 . S
C171 C170 1.369 . S
C172 C164 1.457 . S
C172 C173 1.372 . S
C172 C177 1.364 . S
C173 H152 0.952 . S
C173 C172 1.372 . S
C173 C174 1.389 . S
C174 H153 0.949 . S
C174 C173 1.389 . S
C174 C175 1.387 . S
C175 C174 1.387 . S
C175 C176 1.372 . S
C176 H154 0.950 . S
C176 C175 1.372 . S
C176 C177 1.379 . S
C177 H155 0.948 . S
C177 C172 1.364 . S
C177 C176 1.379 . S
C178 C147 1.383 . S
C178 C165 1.479 . S
C178 C179 1.398 . S
C179 C144 1.382 . S
C179 H156 0.951 . S
C179 C178 1.398 . S
C180 C181 1.384 1_655 S
C180 H193 0.947 . S
C180 C215 1.382 1_655 S
C181 C180 1.384 1_455 S
C181 C182 1.378 . S
C182 C181 1.378 . S
C182 C183 1.378 . S
C182 H194 0.952 . S
C183 C182 1.378 . S
C183 H195 0.950 . S
C183 C214 1.383 . S
H184 C203 0.947 . S
H185 C204 0.948 . S
H186 C206 0.953 . S
H187 C207 0.945 . S
H188 C209 0.948 1_655 S
H189 C210 0.954 . S
H190 C212 0.950 . S
H191 C213 0.948 . S
H192 C215 0.950 1_655 S
H193 C180 0.947 . S
H194 C182 0.952 . S
H195 C183 0.950 . S
N196 C199 1.382 . S
N196 C201 1.363 . S
N197 C199 1.371 . S
N197 C200 1.372 . S
N198 C200 1.361 . S
N198 C201 1.377 . S
C199 N196 1.382 . S
C199 N197 1.371 . S
C199 C202 1.480 . S
C200 N197 1.372 . S
C200 N198 1.361 . S
C200 C208 1.457 . S
C201 N196 1.363 . S
C201 N198 1.377 . S
C201 C214 1.479 . S
C202 C199 1.480 . S
C202 C203 1.383 . S
C202 C207 1.385 . S
C203 H184 0.947 . S
C203 C202 1.383 . S
C203 C204 1.387 1_455 S
C204 H185 0.948 . S
C204 C203 1.387 1_655 S
C204 C205 1.382 1_655 S
C205 C204 1.382 1_455 S
C205 C206 1.377 . S
C206 H186 0.953 . S
C206 C205 1.377 . S
C206 C207 1.369 . S
C207 H187 0.945 . S
C207 C202 1.385 . S
C207 C206 1.369 . S
C208 C200 1.457 . S
C208 C209 1.378 . S
C208 C213 1.364 . S
C209 H188 0.948 1_455 S
C209 C208 1.378 . S
C209 C210 1.385 1_455 S
C210 H189 0.954 . S
C210 C209 1.385 1_655 S
C210 C211 1.384 1_655 S
C211 C210 1.384 1_455 S
C211 C212 1.372 . S
C212 H190 0.950 . S
C212 C211 1.372 . S
C212 C213 1.379 . S
C213 H191 0.948 . S
C213 C208 1.364 . S
C213 C212 1.379 . S
C214 C183 1.383 . S
C214 C201 1.479 . S
C214 C215 1.400 . S
C215 C180 1.382 1_455 S
C215 H192 0.950 1_455 S
C215 C214 1.400 . S
C216 C217 1.384 . S
C216 H229 0.947 . S
C216 C251 1.382 . S
C217 C216 1.384 . S
C217 C218 1.378 . S
C218 C217 1.378 . S
C218 C219 1.378 . S
C218 H230 0.952 . S
C219 C218 1.378 . S
C219 H231 0.950 . S
C219 C250 1.383 . S
H220 C239 0.947 . S
H221 C240 0.946 . S
H222 C242 0.953 . S
H223 C243 0.945 . S
H224 C245 0.952 . S
H225 C246 0.949 . S
H226 C248 0.950 . S
H227 C249 0.948 . S
H228 C251 0.951 . S
H229 C216 0.947 . S
H230 C218 0.952 . S
H231 C219 0.950 . S
N232 C235 1.382 . S
N232 C237 1.363 . S
N233 C235 1.371 . S
N233 C236 1.372 . S
N234 C236 1.361 . S
N234 C237 1.377 . S
C235 N232 1.382 . S
C235 N233 1.371 . S
C235 C238 1.480 . S
C236 N233 1.372 . S
C236 N234 1.361 . S
C236 C244 1.457 . S
C237 N232 1.363 . S
C237 N234 1.377 . S
C237 C250 1.479 . S
C238 C235 1.480 . S
C238 C239 1.383 . S
C238 C243 1.385 . S
C239 H220 0.947 . S
C239 C238 1.383 . S
C239 C240 1.388 . S
C240 H221 0.946 . S
C240 C239 1.388 . S
C240 C241 1.384 . S
C241 C240 1.384 . S
C241 C242 1.377 . S
C242 H222 0.953 . S
C242 C241 1.377 . S
C242 C243 1.369 . S
C243 H223 0.945 . S
C243 C238 1.385 . S
C243 C242 1.369 . S
C244 C236 1.457 . S
C244 C245 1.372 . S
C244 C249 1.364 . S
C245 H224 0.952 . S
C245 C244 1.372 . S
C245 C246 1.389 . S
C246 H225 0.949 . S
C246 C245 1.389 . S
C246 C247 1.387 . S
C247 C246 1.387 . S
C247 C248 1.372 . S
C248 H226 0.950 . S
C248 C247 1.372 . S
C248 C249 1.379 . S
C249 H227 0.948 . S
C249 C244 1.364 . S
C249 C248 1.379 . S
C250 C219 1.383 . S
C250 C237 1.479 . S
C250 C251 1.398 . S
C251 C216 1.382 . S
C251 H228 0.951 . S
C251 C250 1.398 . S
C252 C253 1.384 . S
C252 H265 0.947 . S
C252 C287 1.382 . S
C253 C252 1.384 . S
C253 C254 1.378 . S
C254 C253 1.378 . S
C254 C255 1.378 . S
C254 H266 0.952 . S
C255 C254 1.378 . S
C255 H267 0.950 . S
C255 C286 1.383 . S
H256 C275 0.947 . S
H257 C276 0.946 . S
H258 C278 0.953 . S
H259 C279 0.945 . S
H260 C281 0.952 . S
H261 C282 0.949 . S
H262 C284 0.950 . S
H263 C285 0.948 . S
H264 C287 0.951 . S
H265 C252 0.947 . S
H266 C254 0.952 . S
H267 C255 0.950 . S
N268 C271 1.382 . S
N268 C273 1.363 . S
N269 C271 1.371 . S
N269 C272 1.372 . S
N270 C272 1.361 . S
N270 C273 1.377 . S
C271 N268 1.382 . S
C271 N269 1.371 . S
C271 C274 1.480 . S
C272 N269 1.372 . S
C272 N270 1.361 . S
C272 C280 1.457 . S
C273 N268 1.363 . S
C273 N270 1.377 . S
C273 C286 1.479 . S
C274 C271 1.480 . S
C274 C275 1.383 . S
C274 C279 1.385 . S
C275 H256 0.947 . S
C275 C274 1.383 . S
C275 C276 1.388 . S
C276 H257 0.946 . S
C276 C275 1.388 . S
C276 C277 1.384 . S
C277 C276 1.384 . S
C277 C278 1.377 . S
C278 H258 0.953 . S
C278 C277 1.377 . S
C278 C279 1.369 . S
C279 H259 0.945 . S
C279 C274 1.385 . S
C279 C278 1.369 . S
C280 C272 1.457 . S
C280 C281 1.372 . S
C280 C285 1.364 . S
C281 H260 0.952 . S
C281 C280 1.372 . S
C281 C282 1.389 . S
C282 H261 0.949 . S
C282 C281 1.389 . S
C282 C283 1.387 . S
C283 C282 1.387 . S
C283 C284 1.372 . S
C284 H262 0.950 . S
C284 C283 1.372 . S
C284 C285 1.379 . S
C285 H263 0.948 . S
C285 C280 1.364 . S
C285 C284 1.379 . S
C286 C255 1.383 . S
C286 C273 1.479 . S
C286 C287 1.398 . S
C287 C252 1.382 . S
C287 H264 0.951 . S
C287 C286 1.398 . S
O288 Mn289 2.163 1_455 S
O288 C302 1.244 . S
Mn289 O288 2.163 1_655 S
Mn289 O292 2.160 1_545 S
Mn289 O293 2.221 1_655 S
Mn289 O295 2.163 1_645 S
Mn289 O297 2.160 . S
Mn289 O307 2.221 . S
O290 Mn291 2.087 . S
O290 C302 1.256 1_655 S
Mn291 O290 2.087 . S
Mn291 O298 2.089 . S
Mn291 O307 2.290 . S
Mn291 O308 2.251 . S
O292 Mn289 2.160 1_565 S
O292 C303 1.239 . S
O293 Mn289 2.221 1_455 S
O293 Mn294 2.290 1_545 S
O293 C304 1.278 . S
Mn294 O293 2.290 1_565 S
Mn294 O296 2.089 . S
Mn294 O299 2.251 . S
Mn294 O300 2.087 . S
O295 Mn289 2.163 1_465 S
O295 C305 1.244 . S
O296 Mn294 2.089 . S
O296 C303 1.256 1_455 S
O297 Mn289 2.160 . S
O297 C306 1.239 . S
O298 Mn291 2.089 . S
O298 C306 1.256 . S
O299 Mn294 2.251 . S
O299 C304 1.241 1_565 S
O300 Mn294 2.087 . S
O300 C305 1.256 . S
C301 O307 1.278 . S
C301 O308 1.241 . S
C302 O288 1.244 . S
C302 O290 1.256 1_455 S
C303 O292 1.239 . S
C303 O296 1.256 1_655 S
C304 O293 1.278 . S
C304 O299 1.241 1_545 S
C305 O295 1.244 . S
C305 O300 1.256 . S
C306 O297 1.239 . S
C306 O298 1.256 . S
O307 Mn289 2.221 . S
O307 Mn291 2.290 . S
O307 C301 1.278 . S
O308 Mn291 2.251 . S
O308 C301 1.241 . S
O309 Mn310 2.163 1_565 S
O309 C323 1.244 1_565 S
Mn310 O309 2.163 1_545 S
Mn310 O313 2.160 . S
Mn310 O314 2.221 1_545 S
Mn310 O316 2.163 . S
Mn310 O318 2.160 1_545 S
Mn310 O328 2.221 . S
O311 Mn312 2.087 . S
O311 C323 1.256 . S
Mn312 O311 2.087 . S
Mn312 O319 2.120 . S
Mn312 O328 2.290 . S
Mn312 O329 2.251 . S
O313 Mn310 2.160 . S
O313 C324 1.239 . S
O314 Mn310 2.221 1_565 S
O314 Mn315 2.290 . S
O314 C325 1.278 . S
Mn315 O314 2.290 . S
Mn315 O317 2.089 1_565 S
Mn315 O320 2.251 . S
Mn315 O321 2.087 1_565 S
O316 Mn310 2.163 . S
O316 C326 1.244 . S
O317 Mn315 2.089 1_545 S
O317 C324 1.256 . S
O318 Mn310 2.160 1_565 S
O318 C327 1.239 . S
O319 Mn312 2.120 . S
O319 C327 1.235 1_545 S
O320 Mn315 2.251 . S
O320 C325 1.241 . S
O321 Mn315 2.087 1_545 S
O321 C326 1.256 . S
C322 O328 1.278 . S
C322 O329 1.241 . S
C323 O309 1.244 1_545 S
C323 O311 1.256 . S
C324 O313 1.239 . S
C324 O317 1.256 . S
C325 O314 1.278 . S
C325 O320 1.241 . S
C326 O316 1.244 . S
C326 O321 1.256 . S
C327 O318 1.239 . S
C327 O319 1.235 1_565 S
O328 Mn310 2.221 . S
O328 Mn312 2.290 . S
O328 C322 1.278 . S
O329 Mn312 2.251 . S
O329 C322 1.241 . S
O330 Mn331 2.163 . S
O330 C344 1.244 . S
Mn331 O330 2.163 . S
Mn331 O334 2.160 . S
Mn331 O335 2.221 . S
Mn331 O337 2.163 . S
Mn331 O339 2.160 . S
Mn331 O349 2.221 . S
O332 Mn333 2.087 . S
O332 C344 1.256 . S
Mn333 O332 2.087 . S
Mn333 O340 2.089 . S
Mn333 O349 2.290 . S
Mn333 O350 2.251 . S
O334 Mn331 2.160 . S
O334 C345 1.239 . S
O335 Mn331 2.221 . S
O335 Mn336 2.290 . S
O335 C346 1.278 . S
Mn336 O335 2.290 . S
Mn336 O338 2.089 . S
Mn336 O341 2.251 . S
Mn336 O342 2.087 . S
O337 Mn331 2.163 . S
O337 C347 1.244 . S
O338 Mn336 2.089 . S
O338 C345 1.256 . S
O339 Mn331 2.160 . S
O339 C348 1.239 . S
O340 Mn333 2.089 . S
O340 C348 1.256 . S
O341 Mn336 2.251 . S
O341 C346 1.241 . S
O342 Mn336 2.087 . S
O342 C347 1.256 . S
C343 O349 1.278 . S
C343 O350 1.241 . S
C344 O330 1.244 . S
C344 O332 1.256 . S
C345 O334 1.239 . S
C345 O338 1.256 . S
C346 O335 1.278 . S
C346 O341 1.241 . S
C347 O337 1.244 . S
C347 O342 1.256 . S
C348 O339 1.239 . S
C348 O340 1.256 . S
O349 Mn331 2.221 . S
O349 Mn333 2.290 . S
O349 C343 1.278 . S
O350 Mn333 2.251 . S
O350 C343 1.241 . S
O351 Mn352 2.163 . S
O351 C365 1.244 . S
Mn352 O351 2.163 . S
Mn352 O355 2.160 1_455 S
Mn352 O356 2.221 1_455 S
Mn352 O358 2.163 1_455 S
Mn352 O360 2.160 . S
Mn352 O370 2.221 . S
O353 Mn354 2.087 . S
O353 C365 1.256 . S
Mn354 O353 2.087 . S
Mn354 O361 2.089 . S
Mn354 O370 2.290 . S
Mn354 O371 2.251 . S
O355 Mn352 2.160 1_655 S
O355 C366 1.239 . S
O356 Mn352 2.221 1_655 S
O356 Mn357 2.290 . S
O356 C367 1.278 . S
Mn357 O356 2.290 . S
Mn357 O359 2.089 . S
Mn357 O362 2.251 . S
Mn357 O363 2.087 . S
O358 Mn352 2.163 1_655 S
O358 C368 1.244 . S
O359 Mn357 2.089 . S
O359 C366 1.256 . S
O360 Mn352 2.160 . S
O360 C369 1.239 . S
O361 Mn354 2.089 . S
O361 C369 1.256 . S
O362 Mn357 2.251 . S
O362 C367 1.241 . S
O363 Mn357 2.087 . S
O363 C368 1.256 . S
C364 O370 1.278 . S
C364 O371 1.241 . S
C365 O351 1.244 . S
C365 O353 1.256 . S
C366 O355 1.239 . S
C366 O359 1.256 . S
C367 O356 1.278 . S
C367 O362 1.241 . S
C368 O358 1.244 . S
C368 O363 1.256 . S
C369 O360 1.239 . S
C369 O361 1.256 . S
O370 Mn352 2.221 . S
O370 Mn354 2.290 . S
O370 C364 1.278 . S
O371 Mn354 2.251 . S
O371 C364 1.241 . S
H372 C378 0.930 . S
H373 C382 0.930 . S
H374 C387 0.929 . S
H375 C385 0.929 . S
H376 C380 0.929 . S
H377 C386 0.929 . S
C378 H372 0.930 . S
C378 C379 1.367 . S
C378 C386 1.378 . S
C379 C378 1.367 . S
C379 C387 1.433 . S
C380 H376 0.929 . S
C380 C382 1.378 . S
C380 C384 1.350 . S
C381 C384 1.463 . S
C381 C386 1.350 . S
C381 N389 1.427 . S
C382 H373 0.930 . S
C382 C380 1.378 . S
C382 C383 1.367 . S
C383 C382 1.367 . S
C383 C385 1.433 . S
C384 C380 1.350 . S
C384 C381 1.463 . S
C384 N388 1.427 . S
C385 H375 0.929 . S
C385 C383 1.433 . S
C385 N388 1.384 . S
C386 H377 0.929 . S
C386 C378 1.378 . S
C386 C381 1.350 . S
C387 H374 0.929 . S
C387 C379 1.433 . S
C387 N389 1.384 . S
N388 C384 1.427 . S
N388 C385 1.384 . S
N389 C381 1.427 . S
N389 C387 1.384 . S
H390 C396 0.930 . S
H391 C400 0.930 . S
H392 C405 0.929 . S
H393 C403 0.929 . S
H394 C398 0.929 . S
H395 C404 0.929 . S
C396 H390 0.930 . S
C396 C397 1.367 . S
C396 C404 1.378 . S
C397 C396 1.367 . S
C397 C405 1.433 . S
C398 H394 0.929 . S
C398 C400 1.378 . S
C398 C402 1.350 . S
C399 C402 1.463 . S
C399 C404 1.350 . S
C399 N407 1.427 . S
C400 H391 0.930 . S
C400 C398 1.378 . S
C400 C401 1.367 . S
C401 C400 1.367 . S
C401 C403 1.433 . S
C402 C398 1.350 . S
C402 C399 1.463 . S
C402 N406 1.427 . S
C403 H393 0.929 . S
C403 C401 1.433 . S
C403 N406 1.384 . S
C404 H395 0.929 . S
C404 C396 1.378 . S
C404 C399 1.350 . S
C405 H392 0.929 . S
C405 C397 1.433 . S
C405 N407 1.384 . S
N406 C402 1.427 . S
N406 C403 1.384 . S
N407 C399 1.427 . S
N407 C405 1.384 . S
H408 C414 0.930 . S
H409 C418 0.930 . S
H410 C423 0.929 . S
H411 C421 0.929 . S
H412 C416 0.929 . S
H413 C422 0.929 . S
C414 H408 0.930 . S
C414 C415 1.367 . S
C414 C422 1.378 . S
C415 C414 1.367 . S
C415 C423 1.433 . S
C416 H412 0.929 . S
C416 C418 1.378 . S
C416 C420 1.350 . S
C417 C420 1.463 . S
C417 C422 1.350 . S
C417 N425 1.427 . S
C418 H409 0.930 . S
C418 C416 1.378 . S
C418 C419 1.367 . S
C419 C418 1.367 . S
C419 C421 1.433 . S
C420 C416 1.350 . S
C420 C417 1.463 . S
C420 N424 1.427 . S
C421 H411 0.929 . S
C421 C419 1.433 . S
C421 N424 1.384 . S
C422 H413 0.929 . S
C422 C414 1.378 . S
C422 C417 1.350 . S
C423 H410 0.929 . S
C423 C415 1.433 . S
C423 N425 1.384 . S
N424 C420 1.427 . S
N424 C421 1.384 . S
N425 C417 1.427 . S
N425 C423 1.384 . S
H426 C432 0.930 . S
H427 C436 0.930 . S
H428 C441 0.929 . S
H429 C439 0.929 . S
H430 C434 0.929 . S
H431 C440 0.929 . S
C432 H426 0.930 . S
C432 C433 1.388 . S
C432 C440 1.378 . S
C433 C432 1.388 . S
C433 C441 1.415 1_655 S
C434 H430 0.929 . S
C434 C436 1.378 . S
C434 C438 1.350 1_455 S
C435 C438 1.463 . S
C435 C440 1.350 . S
C435 N443 1.427 1_655 S
C436 H427 0.930 . S
C436 C434 1.378 . S
C436 C437 1.367 1_455 S
C437 C436 1.367 1_655 S
C437 C439 1.433 . S
C438 C434 1.350 1_655 S
C438 C435 1.463 . S
C438 N442 1.427 . S
C439 H429 0.929 . S
C439 C437 1.433 . S
C439 N442 1.384 . S
C440 H431 0.929 . S
C440 C432 1.378 . S
C440 C435 1.350 . S
C441 H428 0.929 . S
C441 C433 1.415 1_455 S
C441 N443 1.384 . S
N442 C438 1.427 . S
N442 C439 1.384 . S
N443 C435 1.427 1_455 S
N443 C441 1.384 . S
H444 C450 0.930 . S
H445 C454 0.930 1_545 S
H446 C459 0.929 . S
H447 C457 0.929 . S
H448 C452 0.929 . S
H449 C458 0.929 . S
C450 H444 0.930 . S
C450 C451 1.367 1_556 S
C450 C458 1.378 . S
C451 C450 1.367 1_554 S
C451 C459 1.433 . S
C452 H448 0.929 . S
C452 C454 1.378 . S
C452 C456 1.350 . S
C453 C456 1.463 . S
C453 C458 1.350 . S
C453 N461 1.427 . S
C454 H445 0.930 1_565 S
C454 C452 1.378 . S
C454 C455 1.367 . S
C455 C454 1.367 . S
C455 C457 1.433 . S
C456 C452 1.350 . S
C456 C453 1.463 . S
C456 N460 1.427 . S
C457 H447 0.929 . S
C457 C455 1.433 . S
C457 N460 1.384 . S
C458 H449 0.929 . S
C458 C450 1.378 . S
C458 C453 1.350 . S
C459 H446 0.929 . S
C459 C451 1.433 . S
C459 N461 1.384 1_554 S
N460 C456 1.427 . S
N460 C457 1.384 . S
N461 C453 1.427 . S
N461 C459 1.384 1_556 S
H462 C468 0.930 . S
H463 C472 0.930 . S
H464 C477 0.929 . S
H465 C475 0.929 . S
H466 C470 0.929 . S
H467 C476 0.929 . S
C468 H462 0.930 . S
C468 C469 1.367 . S
C468 C476 1.378 . S
C469 C468 1.367 . S
C469 C477 1.433 1_554 S
C470 H466 0.929 . S
C470 C472 1.378 . S
C470 C474 1.350 . S
C471 C474 1.463 . S
C471 C476 1.350 1_556 S
C471 N479 1.427 . S
C472 H463 0.930 . S
C472 C470 1.378 . S
C472 C473 1.367 . S
C473 C472 1.367 . S
C473 C475 1.433 . S
C474 C470 1.350 . S
C474 C471 1.463 . S
C474 N478 1.427 . S
C475 H465 0.929 . S
C475 C473 1.433 . S
C475 N478 1.384 . S
C476 H467 0.929 . S
C476 C468 1.378 . S
C476 C471 1.350 1_554 S
C477 H464 0.929 . S
C477 C469 1.433 1_556 S
C477 N479 1.384 . S
N478 C474 1.427 . S
N478 C475 1.384 . S
N479 C471 1.427 . S
N479 C477 1.384 . S
H480 C486 0.930 . S
H481 C490 0.930 . S
H482 C495 0.929 . S
H483 C493 0.929 . S
H484 C488 0.929 . S
H485 C494 0.929 1_554 S
C486 H480 0.930 . S
C486 C487 1.367 . S
C486 C494 1.378 1_554 S
C487 C486 1.367 . S
C487 C495 1.433 1_554 S
C488 H484 0.929 . S
C488 C490 1.378 . S
C488 C492 1.350 . S
C489 C492 1.463 . S
C489 C494 1.350 . S
C489 N497 1.427 . S
C490 H481 0.930 . S
C490 C488 1.378 . S
C490 C491 1.367 . S
C491 C490 1.367 . S
C491 C493 1.433 . S
C492 C488 1.350 . S
C492 C489 1.463 . S
C492 N496 1.427 . S
C493 H483 0.929 . S
C493 C491 1.433 . S
C493 N496 1.384 . S
C494 H485 0.929 1_556 S
C494 C486 1.378 1_556 S
C494 C489 1.350 . S
C495 H482 0.929 . S
C495 C487 1.433 1_556 S
C495 N497 1.384 . S
N496 C492 1.427 . S
N496 C493 1.384 . S
N497 C489 1.427 . S
N497 C495 1.384 . S
H498 C504 0.930 . S
H499 C508 0.930 . S
H500 C513 0.929 . S
H501 C511 0.929 . S
H502 C506 0.929 . S
H503 C512 0.929 . S
C504 H498 0.930 . S
C504 C505 1.378 1_556 S
C504 C512 1.378 . S
C505 C504 1.378 1_554 S
C505 C513 1.423 1_455 S
C506 H502 0.929 . S
C506 C508 1.378 . S
C506 C510 1.350 1_655 S
C507 C510 1.463 . S
C507 C512 1.350 . S
C507 N515 1.427 1_456 S
C508 H499 0.930 . S
C508 C506 1.378 . S
C508 C509 1.367 1_655 S
C509 C508 1.367 1_455 S
C509 C511 1.433 . S
C510 C506 1.350 1_455 S
C510 C507 1.463 . S
C510 N514 1.427 . S
C511 H501 0.929 . S
C511 C509 1.433 . S
C511 N514 1.384 . S
C512 H503 0.929 . S
C512 C504 1.378 . S
C512 C507 1.350 . S
C513 H500 0.929 . S
C513 C505 1.423 1_655 S
C513 N515 1.384 . S
N514 C510 1.427 . S
N514 C511 1.384 . S
N515 C507 1.427 1_654 S
N515 C513 1.384 . S
H516 C522 0.930 . S
H517 C526 0.930 . S
H518 C531 0.929 . S
H519 C529 0.929 . S
H520 C524 0.929 . S
H521 C530 0.929 . S
C522 H516 0.930 . S
C522 C523 1.367 1_655 S
C522 C530 1.378 . S
C523 C522 1.367 1_455 S
C523 C531 1.433 . S
C524 H520 0.929 . S
C524 C526 1.378 . S
C524 C528 1.350 1_455 S
C525 C528 1.463 . S
C525 C530 1.350 . S
C525 N533 1.427 1_655 S
C526 H517 0.930 . S
C526 C524 1.378 . S
C526 C527 1.367 1_455 S
C527 C526 1.367 1_655 S
C527 C529 1.433 . S
C528 C524 1.350 1_655 S
C528 C525 1.463 . S
C528 N532 1.427 . S
C529 H519 0.929 . S
C529 C527 1.433 . S
C529 N532 1.384 . S
C530 H521 0.929 . S
C530 C522 1.378 . S
C530 C525 1.350 . S
C531 H518 0.929 . S
C531 C523 1.433 . S
C531 N533 1.384 . S
N532 C528 1.427 . S
N532 C529 1.384 . S
N533 C525 1.427 1_455 S
N533 C531 1.384 . S
H534 C540 0.930 . S
H535 C544 0.930 . S
H536 C549 0.929 . S
H537 C547 0.929 1_565 S
H538 C542 0.929 . S
H539 C548 0.929 . S
C540 H534 0.930 . S
C540 C541 1.367 . S
C540 C548 1.378 . S
C541 C540 1.367 . S
C541 C549 1.433 . S
C542 H538 0.929 . S
C542 C544 1.378 . S
C542 C546 1.350 . S
C543 C546 1.463 . S
C543 C548 1.350 . S
C543 N551 1.427 . S
C544 H535 0.930 . S
C544 C542 1.378 . S
C544 C545 1.367 . S
C545 C544 1.367 . S
C545 C547 1.433 . S
C546 C542 1.350 . S
C546 C543 1.463 . S
C546 N550 1.427 . S
C547 H537 0.929 1_545 S
C547 C545 1.433 . S
C547 N550 1.384 . S
C548 H539 0.929 . S
C548 C540 1.378 . S
C548 C543 1.350 . S
C549 H536 0.929 . S
C549 C541 1.433 . S
C549 N551 1.384 . S
N550 C546 1.427 . S
N550 C547 1.384 . S
N551 C543 1.427 . S
N551 C549 1.384 . S
H552 C558 0.930 . S
H553 C562 0.930 . S
H554 C567 0.929 . S
H555 C565 0.929 . S
H556 C560 0.929 . S
H557 C566 0.929 . S
C558 H552 0.930 . S
C558 C559 1.367 . S
C558 C566 1.378 . S
C559 C558 1.367 . S
C559 C567 1.433 . S
C560 H556 0.929 . S
C560 C562 1.378 . S
C560 C564 1.350 . S
C561 C564 1.463 . S
C561 C566 1.350 . S
C561 N569 1.427 . S
C562 H553 0.930 . S
C562 C560 1.378 . S
C562 C563 1.367 . S
C563 C562 1.367 . S
C563 C565 1.433 . S
C564 C560 1.350 . S
C564 C561 1.463 . S
C564 N568 1.427 . S
C565 H555 0.929 . S
C565 C563 1.433 . S
C565 N568 1.384 . S
C566 H557 0.929 . S
C566 C558 1.378 . S
C566 C561 1.350 . S
C567 H554 0.929 . S
C567 C559 1.433 . S
C567 N569 1.384 . S
N568 C564 1.427 . S
N568 C565 1.384 . S
N569 C561 1.427 . S
N569 C567 1.384 . S
H570 C576 0.930 . S
H571 C580 0.930 . S
H572 C585 0.929 . S
H573 C583 0.929 . S
H574 C578 0.929 . S
H575 C584 0.929 . S
C576 H570 0.930 . S
C576 C577 1.367 . S
C576 C584 1.378 . S
C577 C576 1.367 . S
C577 C585 1.433 . S
C578 H574 0.929 . S
C578 C580 1.378 . S
C578 C582 1.350 . S
C579 C582 1.463 . S
C579 C584 1.350 . S
C579 N587 1.427 . S
C580 H571 0.930 . S
C580 C578 1.378 . S
C580 C581 1.367 . S
C581 C580 1.367 . S
C581 C583 1.433 . S
C582 C578 1.350 . S
C582 C579 1.463 . S
C582 N586 1.427 . S
C583 H573 0.929 . S
C583 C581 1.433 . S
C583 N586 1.384 . S
C584 H575 0.929 . S
C584 C576 1.378 . S
C584 C579 1.350 . S
C585 H572 0.929 . S
C585 C577 1.433 . S
C585 N587 1.384 . S
N586 C582 1.427 . S
N586 C583 1.384 . S
N587 C579 1.427 . S
N587 C585 1.384 . S
H588 C594 0.930 . S
H589 C598 0.930 . S
H590 C603 0.929 . S
H591 C601 0.929 . S
H592 C596 0.929 . S
H593 C602 0.929 . S
C594 H588 0.930 . S
C594 C595 1.342 1_455 S
C594 C602 1.378 . S
C595 C594 1.342 1_655 S
C595 C603 1.454 . S
C596 H592 0.929 . S
C596 C598 1.378 . S
C596 C600 1.350 1_655 S
C597 C600 1.463 . S
C597 C602 1.350 . S
C597 N605 1.427 1_455 S
C598 H589 0.930 . S
C598 C596 1.378 . S
C598 C599 1.367 1_655 S
C599 C598 1.367 1_455 S
C599 C601 1.433 . S
C600 C596 1.350 1_455 S
C600 C597 1.463 . S
C600 N604 1.427 . S
C601 H591 0.929 . S
C601 C599 1.433 . S
C601 N604 1.384 . S
C602 H593 0.929 . S
C602 C594 1.378 . S
C602 C597 1.350 . S
C603 H590 0.929 . S
C603 C595 1.454 . S
C603 N605 1.384 . S
N604 C600 1.427 . S
N604 C601 1.384 . S
N605 C597 1.427 1_655 S
N605 C603 1.384 . S
H606 C612 0.930 . S
H607 C616 0.930 . S
H608 C621 0.929 . S
H609 C619 0.929 1_545 S
H610 C614 0.929 . S
H611 C620 0.929 . S
C612 H606 0.930 . S
C612 C613 1.367 . S
C612 C620 1.378 . S
C613 C612 1.367 . S
C613 C621 1.433 . S
C614 H610 0.929 . S
C614 C616 1.378 . S
C614 C618 1.350 . S
C615 C618 1.463 . S
C615 C620 1.350 . S
C615 N623 1.427 . S
C616 H607 0.930 . S
C616 C614 1.378 . S
C616 C617 1.367 . S
C617 C616 1.367 . S
C617 C619 1.433 . S
C618 C614 1.350 . S
C618 C615 1.463 . S
C618 N622 1.427 . S
C619 H609 0.929 1_565 S
C619 C617 1.433 . S
C619 N622 1.384 . S
C620 H611 0.929 . S
C620 C612 1.378 . S
C620 C615 1.350 . S
C621 H608 0.929 . S
C621 C613 1.433 . S
C621 N623 1.384 . S
N622 C618 1.427 . S
N622 C619 1.384 . S
N623 C615 1.427 . S
N623 C621 1.384 . S
H624 C630 0.930 1_554 S
H625 C634 0.930 . S
H626 C639 0.929 . S
H627 C637 0.929 . S
H628 C632 0.929 . S
H629 C638 0.929 . S
C630 H624 0.930 1_556 S
C630 C631 1.367 . S
C630 C638 1.378 . S
C631 C630 1.367 . S
C631 C639 1.433 . S
C632 H628 0.929 . S
C632 C634 1.378 . S
C632 C636 1.350 . S
C633 C636 1.463 . S
C633 C638 1.350 . S
C633 N641 1.427 . S
C634 H625 0.930 . S
C634 C632 1.378 . S
C634 C635 1.367 . S
C635 C634 1.367 . S
C635 C637 1.433 . S
C636 C632 1.350 . S
C636 C633 1.463 . S
C636 N640 1.427 . S
C637 H627 0.929 . S
C637 C635 1.433 . S
C637 N640 1.384 . S
C638 H629 0.929 . S
C638 C630 1.378 . S
C638 C633 1.350 . S
C639 H626 0.929 . S
C639 C631 1.433 . S
C639 N641 1.384 . S
N640 C636 1.427 . S
N640 C637 1.384 . S
N641 C633 1.427 . S
N641 C639 1.384 . S
H642 C648 0.930 . S
H643 C652 0.930 . S
H644 C657 0.929 . S
H645 C655 0.929 . S
H646 C650 0.929 . S
H647 C656 0.929 . S
C648 H642 0.930 . S
C648 C649 1.367 . S
C648 C656 1.378 . S
C649 C648 1.367 . S
C649 C657 1.433 . S
C650 H646 0.929 . S
C650 C652 1.378 . S
C650 C654 1.350 . S
C651 C654 1.463 . S
C651 C656 1.350 . S
C651 N659 1.427 . S
C652 H643 0.930 . S
C652 C650 1.378 . S
C652 C653 1.367 . S
C653 C652 1.367 . S
C653 C655 1.433 . S
C654 C650 1.350 . S
C654 C651 1.463 . S
C654 N658 1.427 . S
C655 H645 0.929 . S
C655 C653 1.433 . S
C655 N658 1.384 . S
C656 H647 0.929 . S
C656 C648 1.378 . S
C656 C651 1.350 . S
C657 H644 0.929 . S
C657 C649 1.433 . S
C657 N659 1.384 . S
N658 C654 1.427 . S
N658 C655 1.384 . S
N659 C651 1.427 . S
N659 C657 1.384 . S
H660 C666 0.930 . S
H661 C670 0.930 . S
H662 C675 0.929 . S
H663 C673 0.929 . S
H664 C668 0.929 . S
H665 C674 0.929 . S
C666 H660 0.930 . S
C666 C667 1.367 1_655 S
C666 C674 1.378 . S
C667 C666 1.367 1_455 S
C667 C675 1.433 1_554 S
C668 H664 0.929 . S
C668 C670 1.378 . S
C668 C672 1.350 . S
C669 C672 1.463 . S
C669 C674 1.350 1_456 S
C669 N677 1.427 . S
C670 H661 0.930 . S
C670 C668 1.378 . S
C670 C671 1.367 . S
C671 C670 1.367 . S
C671 C673 1.433 1_455 S
C672 C668 1.350 . S
C672 C669 1.463 . S
C672 N676 1.427 1_455 S
C673 H663 0.929 . S
C673 C671 1.433 1_655 S
C673 N676 1.384 . S
C674 H665 0.929 . S
C674 C666 1.378 . S
C674 C669 1.350 1_654 S
C675 H662 0.929 . S
C675 C667 1.433 1_556 S
C675 N677 1.384 . S
N676 C672 1.427 1_655 S
N676 C673 1.384 . S
N677 C669 1.427 . S
N677 C675 1.384 . S
H678 C684 0.930 . S
H679 C688 0.930 . S
H680 C693 0.929 . S
H681 C691 0.929 . S
H682 C686 0.929 . S
H683 C692 0.929 . S
C684 H678 0.930 . S
C684 C685 1.367 1_556 S
C684 C692 1.378 . S
C685 C684 1.367 1_554 S
C685 C693 1.433 . S
C686 H682 0.929 . S
C686 C688 1.378 . S
C686 C690 1.350 . S
C687 C690 1.463 . S
C687 C692 1.350 . S
C687 N695 1.427 . S
C688 H679 0.930 . S
C688 C686 1.378 . S
C688 C689 1.367 . S
C689 C688 1.367 . S
C689 C691 1.433 . S
C690 C686 1.350 . S
C690 C687 1.463 . S
C690 N694 1.427 . S
C691 H681 0.929 . S
C691 C689 1.433 . S
C691 N694 1.384 . S
C692 H683 0.929 . S
C692 C684 1.378 . S
C692 C687 1.350 . S
C693 H680 0.929 . S
C693 C685 1.433 . S
C693 N695 1.384 1_554 S
N694 C690 1.427 . S
N694 C691 1.384 . S
N695 C687 1.427 . S
N695 C693 1.384 1_556 S
H696 C702 0.930 . S
H697 C706 0.930 . S
H698 C711 0.929 . S
H699 C709 0.929 . S
H700 C704 0.929 . S
H701 C710 0.929 . S
C702 H696 0.930 . S
C702 C703 1.367 1_556 S
C702 C710 1.378 . S
C703 C702 1.367 1_554 S
C703 C711 1.433 . S
C704 H700 0.929 . S
C704 C706 1.378 . S
C704 C708 1.350 . S
C705 C708 1.463 . S
C705 C710 1.350 . S
C705 N713 1.427 1_556 S
C706 H697 0.930 . S
C706 C704 1.378 . S
C706 C707 1.367 . S
C707 C706 1.367 . S
C707 C709 1.433 . S
C708 C704 1.350 . S
C708 C705 1.463 . S
C708 N712 1.427 . S
C709 H699 0.929 . S
C709 C707 1.433 . S
C709 N712 1.384 . S
C710 H701 0.929 . S
C710 C702 1.378 . S
C710 C705 1.350 . S
C711 H698 0.929 . S
C711 C703 1.433 . S
C711 N713 1.384 . S
N712 C708 1.427 . S
N712 C709 1.384 . S
N713 C705 1.427 1_554 S
N713 C711 1.384 . S
H714 C720 0.930 . S
H715 C724 0.930 . S
H716 C729 0.929 . S
H717 C727 0.929 . S
H718 C722 0.929 . S
H719 C728 0.929 . S
C720 H714 0.930 . S
C720 C721 1.367 . S
C720 C728 1.378 . S
C721 C720 1.367 . S
C721 C729 1.433 1_554 S
C722 H718 0.929 . S
C722 C724 1.378 . S
C722 C726 1.350 . S
C723 C726 1.463 . S
C723 C728 1.350 1_556 S
C723 N731 1.427 . S
C724 H715 0.930 . S
C724 C722 1.378 . S
C724 C725 1.367 . S
C725 C724 1.367 . S
C725 C727 1.433 . S
C726 C722 1.350 . S
C726 C723 1.463 . S
C726 N730 1.427 . S
C727 H717 0.929 . S
C727 C725 1.433 . S
C727 N730 1.384 . S
C728 H719 0.929 . S
C728 C720 1.378 . S
C728 C723 1.350 1_554 S
C729 H716 0.929 . S
C729 C721 1.433 1_556 S
C729 N731 1.384 . S
N730 C726 1.427 . S
N730 C727 1.384 . S
N731 C723 1.427 . S
N731 C729 1.384 . S
H732 C738 0.930 . S
H733 C742 0.930 . S
H734 C747 0.929 . S
H735 C745 0.929 . S
H736 C740 0.929 . S
H737 C746 0.929 . S
C738 H732 0.930 . S
C738 C739 1.367 . S
C738 C746 1.378 . S
C739 C738 1.367 . S
C739 C747 1.433 1_655 S
C740 H736 0.929 . S
C740 C742 1.378 . S
C740 C744 1.350 1_455 S
C741 C744 1.463 . S
C741 C746 1.350 . S
C741 N749 1.427 1_655 S
C742 H733 0.930 . S
C742 C740 1.378 . S
C742 C743 1.367 1_455 S
C743 C742 1.367 1_655 S
C743 C745 1.433 . S
C744 C740 1.350 1_655 S
C744 C741 1.463 . S
C744 N748 1.427 . S
C745 H735 0.929 . S
C745 C743 1.433 . S
C745 N748 1.384 . S
C746 H737 0.929 . S
C746 C738 1.378 . S
C746 C741 1.350 . S
C747 H734 0.929 . S
C747 C739 1.433 1_455 S
C747 N749 1.384 . S
N748 C744 1.427 . S
N748 C745 1.384 . S
N749 C741 1.427 1_455 S
N749 C747 1.384 . S
H750 C756 0.930 . S
H751 C760 0.930 . S
H752 C765 0.929 . S
H753 C763 0.929 . S
H754 C758 0.929 . S
H755 C764 0.929 . S
C756 H750 0.930 . S
C756 C757 1.367 . S
C756 C764 1.378 . S
C757 C756 1.367 . S
C757 C765 1.433 . S
C758 H754 0.929 . S
C758 C760 1.378 . S
C758 C762 1.350 . S
C759 C762 1.463 . S
C759 C764 1.350 . S
C759 N767 1.427 . S
C760 H751 0.930 . S
C760 C758 1.378 . S
C760 C761 1.367 . S
C761 C760 1.367 . S
C761 C763 1.433 . S
C762 C758 1.350 . S
C762 C759 1.463 . S
C762 N766 1.427 . S
C763 H753 0.929 . S
C763 C761 1.433 . S
C763 N766 1.384 . S
C764 H755 0.929 . S
C764 C756 1.378 . S
C764 C759 1.350 . S
C765 H752 0.929 . S
C765 C757 1.433 . S
C765 N767 1.384 . S
N766 C762 1.427 . S
N766 C763 1.384 . S
N767 C759 1.427 . S
N767 C765 1.384 . S
H768 C774 0.930 . S
H769 C778 0.930 . S
H770 C783 0.929 . S
H771 C781 0.929 . S
H772 C776 0.929 . S
H773 C782 0.929 . S
C774 H768 0.930 . S
C774 C775 1.367 . S
C774 C782 1.378 . S
C775 C774 1.367 . S
C775 C783 1.433 . S
C776 H772 0.929 . S
C776 C778 1.378 . S
C776 C780 1.350 . S
C777 C780 1.463 . S
C777 C782 1.350 . S
C777 N785 1.427 . S
C778 H769 0.930 . S
C778 C776 1.378 . S
C778 C779 1.367 . S
C779 C778 1.367 . S
C779 C781 1.433 . S
C780 C776 1.350 . S
C780 C777 1.463 . S
C780 N784 1.427 . S
C781 H771 0.929 . S
C781 C779 1.433 . S
C781 N784 1.384 . S
C782 H773 0.929 . S
C782 C774 1.378 . S
C782 C777 1.350 . S
C783 H770 0.929 . S
C783 C775 1.433 . S
C783 N785 1.384 . S
N784 C780 1.427 . S
N784 C781 1.384 . S
N785 C777 1.427 . S
N785 C783 1.384 . S
H786 C792 0.930 . S
H787 C796 0.930 . S
H788 C801 0.929 . S
H789 C799 0.929 . S
H790 C794 0.929 . S
H791 C800 0.929 . S
C792 H786 0.930 . S
C792 C793 1.367 . S
C792 C800 1.378 . S
C793 C792 1.367 . S
C793 C801 1.433 . S
C794 H790 0.929 . S
C794 C796 1.378 . S
C794 C798 1.350 . S
C795 C798 1.463 . S
C795 C800 1.350 . S
C795 N803 1.427 . S
C796 H787 0.930 . S
C796 C794 1.378 . S
C796 C797 1.367 . S
C797 C796 1.367 . S
C797 C799 1.433 . S
C798 C794 1.350 . S
C798 C795 1.463 . S
C798 N802 1.427 . S
C799 H789 0.929 . S
C799 C797 1.433 . S
C799 N802 1.384 . S
C800 H791 0.929 . S
C800 C792 1.378 . S
C800 C795 1.350 . S
C801 H788 0.929 . S
C801 C793 1.433 . S
C801 N803 1.384 . S
N802 C798 1.427 . S
N802 C799 1.384 . S
N803 C795 1.427 . S
N803 C801 1.384 . S
C379 C241 1.980 . S
C383 C304 1.929 . S
C401 C322 1.405 . S
C397 C277 1.612 . S
C419 C343 1.884 . S
C415 C169 1.965 . S
C437 C367 1.457 . S
C433 C205 1.606 1_655 S
C455 C301 1.794 1_565 S
C451 C97 1.798 . S
C469 C133 1.482 . S
C473 C325 1.302 . S
C487 C25 1.776 . S
C491 C346 1.780 . S
C505 C61 1.454 . S
C509 C364 1.322 . S
C527 C306 0.469 . S
C523 C211 0.431 . S
C545 C324 0.721 . S
C541 C247 0.717 . S
C563 C345 0.481 . S
C559 C253 0.387 . S
C577 C175 0.716 . S
C581 C369 0.714 . S
C595 C67 0.430 1_655 S
C599 C305 0.415 . S
C617 C323 0.769 1_565 S
C613 C103 0.747 . S
C635 C344 0.405 . S
C631 C109 0.375 . S
C649 C31 0.788 . S
C653 C368 0.784 . S
C667 C181 1.901 . S
C671 C302 1.914 . S
C685 C217 2.145 . S
C689 C326 2.164 . S
C707 C347 1.892 . S
C703 C283 1.859 . S
C725 C365 2.181 . S
C721 C145 2.156 . S
C739 C37 1.789 1_655 S
C743 C303 1.772 . S
C761 C327 2.020 . S
C757 C73 1.972 . S
C779 C348 1.744 . S
C775 C139 1.710 . S
C793 C1 2.005 . S
C797 C366 2.043 . S
