# Generated by pormake.
# Topology zzz, (3,6)-cn, num edge types: 1
# Building blocks:
#     Node 0, Type 0, BuildingBlock: MIDCAF_clean_linker_0, # of connection points: 3
#     Node 1, Type 0, BuildingBlock: MIDCAF_clean_linker_0, # of connection points: 3
#     Node 2, Type 0, BuildingBlock: MIDCAF_clean_linker_0, # of connection points: 3
#     Node 3, Type 0, BuildingBlock: MIDCAF_clean_linker_0, # of connection points: 3
#     Node 4, Type 0, BuildingBlock: MIDCAF_clean_linker_0, # of connection points: 3
#     Node 5, Type 0, BuildingBlock: MIDCAF_clean_linker_0, # of connection points: 3
#     Node 6, Type 0, BuildingBlock: MIDCAF_clean_linker_0, # of connection points: 3
#     Node 7, Type 0, BuildingBlock: MIDCAF_clean_linker_0, # of connection points: 3
#     Node 8, Type 1, BuildingBlock: FUNLAD_clean_sbu_0, # of connection points: 6
#     Node 9, Type 1, BuildingBlock: FUNLAD_clean_sbu_0, # of connection points: 6
#     Node 10, Type 1, BuildingBlock: FUNLAD_clean_sbu_0, # of connection points: 6
#     Node 11, Type 1, BuildingBlock: FUNLAD_clean_sbu_0, # of connection points: 6
#     Edge 12, Type (0, 1), BuildingBlock: AJUNOK_clean_linker_0, # of connection points: 2
#     Edge 13, Type (0, 1), BuildingBlock: AJUNOK_clean_linker_0, # of connection points: 2
#     Edge 14, Type (0, 1), BuildingBlock: AJUNOK_clean_linker_0, # of connection points: 2
#     Edge 15, Type (0, 1), BuildingBlock: AJUNOK_clean_linker_0, # of connection points: 2
#     Edge 16, Type (0, 1), BuildingBlock: AJUNOK_clean_linker_0, # of connection points: 2
#     Edge 17, Type (0, 1), BuildingBlock: AJUNOK_clean_linker_0, # of connection points: 2
#     Edge 18, Type (0, 1), BuildingBlock: AJUNOK_clean_linker_0, # of connection points: 2
#     Edge 19, Type (0, 1), BuildingBlock: AJUNOK_clean_linker_0, # of connection points: 2
#     Edge 20, Type (0, 1), BuildingBlock: AJUNOK_clean_linker_0, # of connection points: 2
#     Edge 21, Type (0, 1), BuildingBlock: AJUNOK_clean_linker_0, # of connection points: 2
#     Edge 22, Type (0, 1), BuildingBlock: AJUNOK_clean_linker_0, # of connection points: 2
#     Edge 23, Type (0, 1), BuildingBlock: AJUNOK_clean_linker_0, # of connection points: 2
#     Edge 24, Type (0, 1), BuildingBlock: AJUNOK_clean_linker_0, # of connection points: 2
#     Edge 25, Type (0, 1), BuildingBlock: AJUNOK_clean_linker_0, # of connection points: 2
#     Edge 26, Type (0, 1), BuildingBlock: AJUNOK_clean_linker_0, # of connection points: 2
#     Edge 27, Type (0, 1), BuildingBlock: AJUNOK_clean_linker_0, # of connection points: 2
#     Edge 28, Type (0, 1), BuildingBlock: AJUNOK_clean_linker_0, # of connection points: 2
#     Edge 29, Type (0, 1), BuildingBlock: AJUNOK_clean_linker_0, # of connection points: 2
#     Edge 30, Type (0, 1), BuildingBlock: AJUNOK_clean_linker_0, # of connection points: 2
#     Edge 31, Type (0, 1), BuildingBlock: AJUNOK_clean_linker_0, # of connection points: 2
#     Edge 32, Type (0, 1), BuildingBlock: AJUNOK_clean_linker_0, # of connection points: 2
#     Edge 33, Type (0, 1), BuildingBlock: AJUNOK_clean_linker_0, # of connection points: 2
#     Edge 34, Type (0, 1), BuildingBlock: AJUNOK_clean_linker_0, # of connection points: 2
#     Edge 35, Type (0, 1), BuildingBlock: AJUNOK_clean_linker_0, # of connection points: 2
# Relax obj value: 0.270
# Max RMSD: 0.237
# Mean RMSD: 0.194
data_MOF--net-zzz--node1-FUNLAD_clean_sbu_0--node2-MIDCAF_clean_linker_0--edge1-AJUNOK_clean_linker_0
_symmetry_space_group_name_H-M    P1
_symmetry_Int_Tables_number       1
_symmetry_cell_setting            triclinic
loop_
_symmetry_equiv_pos_as_xyz
'x, y, z'
_cell_length_a     45.265799
_cell_length_b     50.649775
_cell_length_c     17.869215
_cell_angle_alpha  85.650564
_cell_angle_beta   85.419645
_cell_angle_gamma 92.352545
loop_
_atom_site_label
_atom_site_type_symbol
_atom_site_fract_x
_atom_site_fract_y
_atom_site_fract_z
_atom_type_partial_charge
C0 C 0.87215 0.48539 0.40533 0.0
C1 C 0.874 0.47127 0.4753 0.0
C2 C 0.85489 0.44891 0.49589 0.0
C3 C 0.83594 0.43953 0.44451 0.0
H4 H 0.75505 0.47411 0.23918 0.0
H5 H 0.71229 0.48568 0.16907 0.0
H6 H 0.72187 0.41536 0.049 0.0
H7 H 0.7641 0.40366 0.11856 0.0
H8 H 0.83869 0.40583 0.05902 0.0
H9 H 0.88339 0.40649 0.97402 0.0
H10 H 0.93633 0.39694 0.16372 0.0
H11 H 0.89165 0.39683 0.24956 0.0
H12 H 0.85348 0.48632 0.29869 0.0
H13 H 0.88691 0.50254 0.38819 0.0
H14 H 0.85632 0.43755 0.54925 0.0
H15 H 0.82335 0.42092 0.45865 0.0
N16 N 0.79818 0.44336 0.28301 0.0
N17 N 0.81089 0.41721 0.18304 0.0
N18 N 0.84427 0.42364 0.27366 0.0
C19 C 0.79089 0.43209 0.21952 0.0
C20 C 0.83763 0.41287 0.20965 0.0
C21 C 0.82474 0.43855 0.31092 0.0
C22 C 0.76301 0.43796 0.18452 0.0
C23 C 0.74769 0.4609 0.1988 0.0
C24 C 0.7234 0.46763 0.15835 0.0
C25 C 0.71375 0.45133 0.10397 0.0
C26 C 0.72857 0.42809 0.09132 0.0
C27 C 0.75288 0.4215 0.131 0.0
C28 C 0.86177 0.40245 0.1611 0.0
C29 C 0.85965 0.40278 0.08295 0.0
C30 C 0.88531 0.40303 0.03399 0.0
C31 C 0.9133 0.40272 0.06261 0.0
C32 C 0.91497 0.39791 0.14051 0.0
C33 C 0.88936 0.39787 0.18954 0.0
C34 C 0.83548 0.45276 0.37275 0.0
C35 C 0.85288 0.47627 0.35459 0.0
C36 C 0.9057 0.81953 0.38332 0.0
C37 C 0.92677 0.81438 0.43535 0.0
C38 C 0.94385 0.79195 0.42958 0.0
C39 C 0.94299 0.77727 0.3666 0.0
H40 H 0.94192 0.70453 0.20063 0.0
H41 H 0.94539 0.66277 0.14117 0.0
H42 H 0.93982 0.70474 0.92336 0.0
H43 H 0.93795 0.74651 0.98244 0.0
H44 H 0.9711 0.80993 0.96781 0.0
H45 H 0.99809 0.84839 0.90097 0.0
H46 H 0.02475 0.87393 0.11197 0.0
H47 H 0.99632 0.83622 0.17908 0.0
H48 H 0.89154 0.81157 0.27549 0.0
H49 H 0.8925 0.83685 0.38618 0.0
H50 H 0.96029 0.78769 0.46914 0.0
H51 H 0.95906 0.76225 0.3584 0.0
N52 N 0.93191 0.75709 0.20171 0.0
N53 N 0.95836 0.77496 0.08902 0.0
N54 N 0.95156 0.80098 0.19087 0.0
C55 C 0.94289 0.75431 0.12956 0.0
C56 C 0.96308 0.79824 0.11993 0.0
C57 C 0.93574 0.78077 0.23149 0.0
C58 C 0.93993 0.72871 0.09601 0.0
C59 C 0.94086 0.70469 0.14025 0.0
C60 C 0.94266 0.68076 0.10617 0.0
C61 C 0.94287 0.68043 0.02744 0.0
C62 C 0.94013 0.70438 0.98398 0.0
C63 C 0.93896 0.72827 0.0178 0.0
C64 C 0.98141 0.82022 0.07853 0.0
C65 C 0.98303 0.8236 0.9997 0.0
C66 C 0.99885 0.84548 0.96142 0.0
C67 C 0.01408 0.86403 0.00107 0.0
C68 C 0.01323 0.86007 0.07985 0.0
C69 C 0.9969 0.83851 0.1182 0.0
C70 C 0.92522 0.78507 0.30893 0.0
C71 C 0.90507 0.80501 0.32007 0.0
C72 C 0.68784 0.98125 0.37766 0.0
C73 C 0.68109 0.00135 0.42553 0.0
C74 C 0.69954 0.02459 0.41863 0.0
C75 C 0.72196 0.02893 0.35974 0.0
H76 H 0.82645 0.00756 0.18282 0.0
H77 H 0.87376 -0.0004 0.11153 0.0
H78 H 0.83222 0.01179 0.90347 0.0
H79 H 0.78567 0.01935 0.97298 0.0
H80 H 0.73376 0.05608 0.96329 0.0
H81 H 0.69365 0.06154 0.88096 0.0
H82 H 0.62971 0.05537 0.0745 0.0
H83 H 0.66955 0.0504 0.15741 0.0
H84 H 0.71295 0.97099 0.2777 0.0
H85 H 0.67401 0.96315 0.38158 0.0
H86 H 0.69519 0.04027 0.45545 0.0
H87 H 0.73365 0.04817 0.35107 0.0
N88 N 0.76553 0.01302 0.19804 0.0
N89 N 0.75419 0.0347 0.08325 0.0
N90 N 0.71982 0.03309 0.18781 0.0
C91 C 0.77355 0.02103 0.12389 0.0
C92 C 0.72739 0.04088 0.11459 0.0
C93 C 0.73849 0.01939 0.22994 0.0
C94 C 0.80215 0.01417 0.08398 0.0
C95 C 0.82741 0.00818 0.12197 0.0
C96 C 0.85449 0.00377 0.08116 0.0
C97 C 0.85663 0.00477 0.00181 0.0
C98 C 0.83126 0.01034 0.96442 0.0
C99 C 0.80453 0.01494 0.00469 0.0
C100 C 0.70481 0.05182 0.06687 0.0
C101 C 0.71129 0.05673 0.98865 0.0
C102 C 0.68837 0.05995 0.9414 0.0
C103 C 0.65869 0.05817 0.97164 0.0
C104 C 0.65245 0.05667 0.04996 0.0
C105 C 0.67534 0.05358 0.09732 0.0
C106 C 0.72672 0.00999 0.30717 0.0
C107 C 0.71041 0.98559 0.31875 0.0
C108 C 0.48471 0.60861 0.11549 0.0
C109 C 0.48757 0.61019 0.03643 0.0
C110 C 0.49867 0.63403 0.99674 0.0
C111 C 0.50896 0.6551 0.03531 0.0
H112 H 0.54415 0.73214 0.01233 0.0
H113 H 0.54675 0.77714 0.95342 0.0
H114 H 0.55538 0.80792 0.16964 0.0
H115 H 0.55285 0.76245 0.22958 0.0
H116 H 0.54022 0.69857 0.39882 0.0
H117 H 0.54709 0.67116 0.51496 0.0
H118 H 0.59545 0.61624 0.38429 0.0
H119 H 0.58881 0.64361 0.26971 0.0
H120 H 0.49435 0.62716 0.21494 0.0
H121 H 0.47549 0.59074 0.14752 0.0
H122 H 0.5012 0.6358 0.93574 0.0
H123 H 0.51886 0.67269 0.00314 0.0
N124 N 0.52857 0.69798 0.12473 0.0
N125 N 0.55486 0.70874 0.22777 0.0
N126 N 0.53581 0.66525 0.21972 0.0
C127 C 0.54368 0.71622 0.16099 0.0
C128 C 0.55119 0.683 0.25649 0.0
C129 C 0.52418 0.67259 0.15438 0.0
C130 C 0.548 0.74372 0.12587 0.0
C131 C 0.54678 0.74842 0.04759 0.0
C132 C 0.54846 0.77419 0.01359 0.0
C133 C 0.55106 0.79595 0.05703 0.0
C134 C 0.55312 0.79141 0.13507 0.0
C135 C 0.55183 0.76545 0.1692 0.0
C136 C 0.56402 0.67311 0.32576 0.0
C137 C 0.55365 0.6814 0.39579 0.0
C138 C 0.55742 0.66561 0.46201 0.0
C139 C 0.57173 0.64146 0.45881 0.0
C140 C 0.58481 0.63487 0.38918 0.0
C141 C 0.58087 0.65049 0.32335 0.0
C142 C 0.50865 0.65251 0.11415 0.0
C143 C 0.49547 0.62946 0.15399 0.0
C144 C 0.16901 0.56498 0.97912 0.0
C145 C 0.17182 0.53831 0.96439 0.0
C146 C 0.19254 0.52337 0.00183 0.0
C147 C 0.20915 0.53464 0.05545 0.0
H148 H 0.28278 0.52899 0.20874 0.0
H149 H 0.32495 0.51408 0.27678 0.0
H150 H 0.3229 0.58465 0.3977 0.0
H151 H 0.28126 0.59956 0.33028 0.0
H152 H 0.20982 0.60477 0.39727 0.0
H153 H 0.16943 0.59992 0.4963 0.0
H154 H 0.10597 0.59566 0.32961 0.0
H155 H 0.1461 0.60061 0.22995 0.0
H156 H 0.18144 0.59631 0.04541 0.0
H157 H 0.15282 0.57688 0.95261 0.0
H158 H 0.19505 0.50274 0.99165 0.0
H159 H 0.22377 0.52236 0.08653 0.0
N160 N 0.24248 0.5644 0.1665 0.0
N161 N 0.23148 0.58702 0.27475 0.0
N162 N 0.1972 0.58509 0.18455 0.0
C163 C 0.25065 0.57304 0.23273 0.0
C164 C 0.20463 0.59301 0.25147 0.0
C165 C 0.21587 0.57106 0.14148 0.0
C166 C 0.27861 0.56538 0.26441 0.0
C167 C 0.29171 0.54149 0.24889 0.0
C168 C 0.31558 0.53282 0.28835 0.0
C169 C 0.32687 0.54808 0.34317 0.0
C170 C 0.31462 0.57249 0.35586 0.0
C171 C 0.29072 0.58097 0.31728 0.0
C172 C 0.18128 0.60177 0.30582 0.0
C173 C 0.18725 0.60401 0.38119 0.0
C174 C 0.16412 0.60139 0.4381 0.0
C175 C 0.13481 0.59678 0.42027 0.0
C176 C 0.12845 0.59911 0.34464 0.0
C177 C 0.15157 0.60171 0.28758 0.0
C178 C 0.20482 0.56085 0.07314 0.0
C179 C 0.18531 0.57608 0.03271 0.0
C180 C 0.13387 0.17718 0.04959 0.0
C181 C 0.1118 0.18164 0.99987 0.0
C182 C 0.09412 0.20362 0.00726 0.0
C183 C 0.09546 0.21843 0.06987 0.0
H184 H 0.10083 0.29098 0.24586 0.0
H185 H 0.09791 0.33131 0.31317 0.0
H186 H 0.10655 0.28507 0.52281 0.0
H187 H 0.10814 0.24482 0.45629 0.0
H188 H 0.06957 0.18463 0.46705 0.0
H189 H 0.04192 0.14643 0.533 0.0
H190 H 0.01484 0.12187 0.32136 0.0
H191 H 0.04384 0.15942 0.25497 0.0
H192 H 0.14948 0.18577 0.15546 0.0
H193 H 0.14757 0.16022 0.04552 0.0
H194 H 0.07695 0.2074 0.96943 0.0
H195 H 0.07898 0.23299 0.07966 0.0
N196 N 0.10992 0.23799 0.2361 0.0
N197 N 0.08385 0.21938 0.34847 0.0
N198 N 0.08819 0.19482 0.24314 0.0
C199 C 0.09984 0.24001 0.30936 0.0
C200 C 0.07765 0.19685 0.31524 0.0
C201 C 0.10451 0.21502 0.20375 0.0
C202 C 0.10418 0.2648 0.34617 0.0
C203 C 0.10265 0.28958 0.30609 0.0
C204 C 0.10097 0.31262 0.34459 0.0
C205 C 0.10113 0.31118 0.42349 0.0
C206 C 0.10531 0.28665 0.46236 0.0
C207 C 0.10644 0.26366 0.42424 0.0
C208 C 0.05905 0.1749 0.35594 0.0
C209 C 0.05742 0.17126 0.43475 0.0
C210 C 0.04121 0.14953 0.47257 0.0
C211 C 0.02565 0.13135 0.43251 0.0
C212 C 0.02657 0.1355 0.35376 0.0
C213 C 0.04325 0.15696 0.31583 0.0
C214 C 0.11441 0.21128 0.12552 0.0
C215 C 0.13507 0.19189 0.11238 0.0
C216 C 0.35659 0.96548 0.05302 0.0
C217 C 0.36238 0.99182 0.02286 0.0
C218 C 0.34408 0.01144 0.05066 0.0
C219 C 0.32249 0.00514 0.11148 0.0
H220 H 0.21553 0.98402 0.25786 0.0
H221 H 0.16697 0.99165 0.32305 0.0
H222 H 0.20812 0.99631 0.53172 0.0
H223 H 0.25599 0.9895 0.4673 0.0
H224 H 0.30766 0.95477 0.499 0.0
H225 H 0.34847 0.95125 0.57959 0.0
H226 H 0.4062 0.92954 0.39264 0.0
H227 H 0.36554 0.93286 0.31146 0.0
H228 H 0.33273 0.93897 0.13738 0.0
H229 H 0.37006 0.94971 0.03403 0.0
H230 H 0.34711 0.03182 0.02741 0.0
H231 H 0.3105 0.02093 0.13577 0.0
N232 N 0.2781 0.98211 0.24896 0.0
N233 N 0.2861 0.96399 0.37081 0.0
N234 N 0.32161 0.9599 0.27145 0.0
C235 C 0.26849 0.9771 0.32374 0.0
C236 C 0.31256 0.95524 0.34519 0.0
C237 C 0.30492 0.97319 0.22289 0.0
C238 C 0.23965 0.98586 0.35732 0.0
C239 C 0.21419 0.98723 0.31725 0.0
C240 C 0.18635 0.99125 0.35488 0.0
C241 C 0.18353 0.99412 0.4331 0.0
C242 C 0.20933 0.9942 0.47168 0.0
C243 C 0.23687 0.99011 0.43452 0.0
C244 C 0.33362 0.94497 0.39819 0.0
C245 C 0.32867 0.94825 0.4755 0.0
C246 C 0.35198 0.94616 0.52183 0.0
C247 C 0.3804 0.94048 0.49173 0.0
C248 C 0.38441 0.93386 0.41702 0.0
C249 C 0.36115 0.93605 0.37049 0.0
C250 C 0.31861 0.97907 0.14485 0.0
C251 C 0.33499 0.95923 0.11255 0.0
C252 C 0.51236 0.39352 0.37323 0.0
C253 C 0.53802 0.39039 0.41182 0.0
C254 C 0.55163 0.3659 0.41256 0.0
C255 C 0.53992 0.34513 0.37477 0.0
H256 H 0.53898 0.26177 0.34916 0.0
H257 H 0.54112 0.21701 0.40846 0.0
H258 H 0.45867 0.19467 0.31954 0.0
H259 H 0.45653 0.23971 0.25896 0.0
H260 H 0.4868 0.29743 0.05027 0.0
H261 H 0.48354 0.32471 0.93213 0.0
H262 H 0.43685 0.38275 0.05456 0.0
H263 H 0.43939 0.35531 0.1712 0.0
H264 H 0.48127 0.37626 0.30538 0.0
H265 H 0.50042 0.4116 0.37442 0.0
H266 H 0.57125 0.36281 0.44246 0.0
H267 H 0.55088 0.3265 0.37576 0.0
N268 N 0.50616 0.30159 0.31238 0.0
N269 N 0.48005 0.28923 0.21045 0.0
N270 N 0.48747 0.33408 0.23186 0.0
C271 C 0.4947 0.28232 0.27249 0.0
C272 C 0.47638 0.31532 0.19033 0.0
C273 C 0.50248 0.3275 0.29239 0.0
C274 C 0.49757 0.25425 0.29936 0.0
C275 C 0.52149 0.24725 0.34117 0.0
C276 C 0.52282 0.22162 0.37491 0.0
C277 C 0.5001 0.20246 0.36833 0.0
C278 C 0.47645 0.20916 0.32525 0.0
C279 C 0.47536 0.23481 0.29025 0.0
C280 C 0.46383 0.32456 0.11981 0.0
C281 C 0.47443 0.31529 0.05112 0.0
C282 C 0.47289 0.33109 0.98372 0.0
C283 C 0.4609 0.35632 0.98462 0.0
C284 C 0.44645 0.36356 0.05192 0.0
C285 C 0.44795 0.34783 0.11891 0.0
C286 C 0.51463 0.34866 0.33501 0.0
C287 C 0.50107 0.37308 0.33452 0.0
C288 C 0.03835 0.96008 0.81814 0.0
N289 N 0.99124 0.95284 0.63056 0.0
C290 C 0.00825 0.93144 0.62502 0.0
C291 C 0.99694 0.90829 0.59872 0.0
C292 C 0.96799 0.90713 0.57591 0.0
C293 C 0.95108 0.92974 0.58025 0.0
C294 C 0.96312 0.95246 0.60868 0.0
Zn295 Zn 0.00885 0.98375 0.68182 0.0
C296 C 0.96687 -0.00079 0.80903 0.0
N297 N 0.04794 0.043 0.80362 0.0
C298 C 0.07604 0.04342 0.8256 0.0
C299 C 0.03085 0.06434 0.80949 0.0
C300 C 0.04204 0.08745 0.8363 0.0
C301 C 0.07098 0.08864 0.85918 0.0
C302 C 0.08799 0.06611 0.85442 0.0
Zn303 Zn 0.03036 0.01205 0.75215 0.0
O304 O 0.02407 0.95601 0.76161 0.0
C305 C 0.07221 0.99632 0.62451 0.0
O306 O 0.04522 0.98366 0.83219 0.0
H307 H 0.00855 0.06367 0.7919 0.0
H308 H 0.03055 0.93208 0.64254 0.0
H309 H 0.08926 0.02625 0.82019 0.0
O310 O 0.04917 0.9826 0.61259 0.0
O311 O 0.07102 0.01061 0.68034 0.0
H312 H 0.94996 0.96968 0.61389 0.0
O313 O 0.01493 0.0398 0.67255 0.0
O314 O 0.99417 0.01206 0.60155 0.0
O315 O 0.98976 0.01297 0.82216 0.0
O316 O 0.96841 0.98531 0.7525 0.0
C317 C 1.0008 0.03566 0.61578 0.0
H318 H 0.01075 0.89135 0.59684 0.0
H319 H 0.92897 0.93002 0.56129 0.0
H320 H 0.02816 0.10434 0.83854 0.0
H321 H 0.11011 0.06588 0.87336 0.0
C322 C 0.48299 0.97617 0.63666 0.0
N323 N 0.50971 0.05615 0.63996 0.0
C324 C 0.51197 0.0557 0.56361 0.0
C325 C 0.50932 0.07878 0.5175 0.0
C326 C 0.50414 0.10265 0.55005 0.0
C327 C 0.50091 0.10253 0.62894 0.0
C328 C 0.50397 0.07891 0.6732 0.0
Zn329 Zn 0.51693 0.02135 0.70089 0.0
C330 C 0.4718 0.00574 0.82412 0.0
N331 N 0.53284 0.94535 0.80597 0.0
C332 C 0.53711 0.92275 0.77078 0.0
C333 C 0.5329 0.94538 0.88214 0.0
C334 C 0.53719 0.92209 0.92605 0.0
C335 C 0.54095 0.89832 0.89161 0.0
C336 C 0.54118 0.89889 0.81274 0.0
Zn337 Zn 0.52547 0.98037 0.74637 0.0
O338 O 0.48784 0.0011 0.63571 0.0
C339 C 0.57038 0.99596 0.62187 0.0
O340 O 0.49738 0.96081 0.67814 0.0
H341 H 0.52945 0.96352 0.90916 0.0
H342 H 0.51631 0.03741 0.53812 0.0
H343 H 0.53704 0.92315 0.71019 0.0
O344 O 0.55435 0.01599 0.62319 0.0
O345 O 0.56338 0.9761 0.66887 0.0
H346 H 0.50225 0.07884 0.73394 0.0
O347 O 0.55383 0.00061 0.81303 0.0
O348 O 0.5459 0.04099 0.76741 0.0
O349 O 0.48697 0.98513 0.8221 0.0
O350 O 0.47984 0.02609 0.7799 0.0
C351 C 0.55958 0.02545 0.81015 0.0
H352 H 0.51148 0.07803 0.45689 0.0
H353 H 0.4969 0.12064 0.65593 0.0
H354 H 0.53759 0.92273 0.9864 0.0
H355 H 0.54394 0.88099 0.78391 0.0
C356 C 0.54505 0.47128 0.61276 0.0
N357 N 0.46315 0.50669 0.63382 0.0
C358 C 0.47044 0.51459 0.55985 0.0
C359 C 0.44846 0.51968 0.51113 0.0
C360 C 0.41852 0.51658 0.5383 0.0
C361 C 0.41144 0.50807 0.61463 0.0
C362 C 0.43427 0.5032 0.66175 0.0
Zn363 Zn 0.498 0.50122 0.6995 0.0
C364 C 0.49539 0.45134 0.79206 0.0
N365 N 0.57618 0.49149 0.81572 0.0
C366 C 0.60507 0.49485 0.78775 0.0
C367 C 0.56886 0.48335 0.8895 0.0
C368 C 0.5908 0.47769 0.93787 0.0
C369 C 0.62072 0.48023 0.91032 0.0
C370 C 0.62787 0.48939 0.83453 0.0
Zn371 Zn 0.54134 0.497 0.75011 0.0
O372 O 0.51921 0.48021 0.61401 0.0
C373 C 0.54399 0.54677 0.65675 0.0
O374 O 0.56131 0.47525 0.66584 0.0
H375 H 0.54584 0.48084 0.91095 0.0
H376 H 0.49348 0.51725 0.53844 0.0
H377 H 0.61042 0.50134 0.72897 0.0
O378 O 0.51791 0.53748 0.65016 0.0
O379 O 0.56115 0.53338 0.69629 0.0
H380 H 0.42894 0.497 0.72072 0.0
O381 O 0.52057 0.51842 0.83435 0.0
O382 O 0.47771 0.52236 0.78597 0.0
O383 O 0.5211 0.46105 0.80069 0.0
O384 O 0.47843 0.46452 0.75145 0.0
C385 C 0.49446 0.52676 0.83792 0.0
H386 H 0.45483 0.52611 0.45265 0.0
H387 H 0.38857 0.50585 0.63799 0.0
H388 H 0.5844 0.47119 0.99629 0.0
H389 H 0.65077 0.49162 0.81137 0.0
C390 C 0.05205 0.53008 0.62226 0.0
N391 N 0.05197 0.44734 0.65365 0.0
C392 C 0.05247 0.44781 0.57728 0.0
C393 C 0.06293 0.42644 0.53971 0.0
C394 C 0.07266 0.40435 0.5813 0.0
C395 C 0.0728 0.40471 0.65971 0.0
C396 C 0.06233 0.42656 0.69497 0.0
Zn397 Zn 0.03376 0.47773 0.70705 0.0
C398 C 0.07315 0.50075 0.81052 0.0
N399 N 0.99543 0.54276 0.8096 0.0
C400 C 0.98351 0.56267 0.76814 0.0
C401 C 0.99616 0.54316 0.88552 0.0
C402 C 0.98493 0.56436 0.92254 0.0
C403 C 0.97317 0.5854 0.8808 0.0
C404 C 0.97239 0.5844 0.80277 0.0
Zn405 Zn 0.01353 0.51225 0.75659 0.0
O406 O 0.05634 0.50539 0.62622 0.0
C407 C 0.97435 0.48989 0.65106 0.0
O408 O 0.03307 0.53911 0.6686 0.0
H409 H 1.00597 0.52725 0.91728 0.0
H410 H 0.04408 0.46451 0.54556 0.0
H411 H 0.98306 0.5619 0.70793 0.0
O412 O 0.99656 0.47556 0.6412 0.0
O413 O 0.97484 0.50722 0.69878 0.0
H414 H 0.06189 0.42669 0.75554 0.0
O415 O 0.9948 0.48508 0.84445 0.0
O416 O 0.01116 0.45048 0.79002 0.0
O417 O 0.05258 0.51707 0.81273 0.0
O418 O 0.07086 0.48062 0.77272 0.0
C419 C 0.99663 0.46012 0.84436 0.0
H420 H 0.06239 0.42674 0.47915 0.0
H421 H 0.08045 0.38806 0.69342 0.0
H422 H 0.98631 0.56473 0.9827 0.0
H423 H 0.9635 0.60038 0.76893 0.0
C424 C 0.1502 0.01411 0.5315 0.0
C425 C 0.15401 0.99571 0.4765 0.0
C426 C 0.1238 0.01423 0.57866 0.0
C427 C 0.09992 0.99595 0.57303 0.0
H428 H 0.16795 0.02847 0.5387 0.0
H429 H 0.1222 0.02876 0.62009 0.0
S430 S 0.09863 0.94325 0.43913 0.0
N431 N 0.13164 0.95844 0.42005 0.0
N432 N 0.082 0.95882 0.50737 0.0
C433 C 0.10327 0.97764 0.51752 0.0
C434 C 0.13022 0.97751 0.46961 0.0
C435 C 0.4771 0.16733 0.46387 0.0
C436 C 0.50056 0.17608 0.41014 0.0
C437 C 0.47841 0.1436 0.50929 0.0
C438 C 0.503 0.12763 0.50157 0.0
H439 H 0.45799 0.17929 0.47225 0.0
H440 H 0.46005 0.13765 0.55059 0.0
S441 S 0.56978 0.14145 0.3678 0.0
N442 N 0.54879 0.16679 0.35091 0.0
N443 N 0.55117 0.12212 0.43565 0.0
C444 C 0.52633 0.13595 0.44709 0.0
C445 C 0.52514 0.1602 0.40157 0.0
C446 C 0.37573 0.5555 0.39622 0.0
C447 C 0.35081 0.53864 0.38923 0.0
C448 C 0.39754 0.54805 0.44402 0.0
C449 C 0.39514 0.52355 0.48738 0.0
H450 H 0.37828 0.57473 0.36485 0.0
H451 H 0.41618 0.56183 0.44814 0.0
S452 S 0.33441 0.47205 0.48869 0.0
N453 N 0.32507 0.49623 0.42911 0.0
N454 N 0.36623 0.48214 0.51878 0.0
C455 C 0.37049 0.50637 0.48041 0.0
C456 C 0.34835 0.51389 0.4312 0.0
C457 C 0.1088 0.35953 0.44303 0.0
C458 C 0.09455 0.33467 0.4658 0.0
C459 C 0.10192 0.38202 0.48114 0.0
C460 C 0.0807 0.38034 0.54347 0.0
H461 H 0.12538 0.3616 0.39552 0.0
H462 H 0.11329 0.40084 0.46185 0.0
S463 S 0.03526 0.32054 0.62141 0.0
N464 N 0.05684 0.3102 0.55174 0.0
N465 N 0.04442 0.35232 0.6238 0.0
C466 C 0.06618 0.3557 0.56643 0.0
C467 C 0.07298 0.33291 0.52749 0.0
C468 C 0.91094 0.01651 0.9679 0.0
C469 C 0.88526 0.00119 0.95673 0.0
C470 C 0.93716 0.01562 0.92033 0.0
C471 C 0.93889 -0.00073 0.85967 0.0
H472 H 0.91049 0.02995 0.01228 0.0
H473 H 0.9561 0.02818 0.9307 0.0
S474 S 0.87846 0.95333 0.81093 0.0
N475 N 0.86376 0.96783 0.88384 0.0
N476 N 0.91271 0.96612 0.79457 0.0
C477 C 0.91356 0.9832 0.84955 0.0
C478 C 0.8869 0.98416 0.89794 0.0
C479 C 0.56895 0.83112 0.95558 0.0
C480 C 0.55001 0.82314 0.02034 0.0
C481 C 0.56622 0.85562 0.91512 0.0
C482 C 0.5443 0.873 0.93756 0.0
H483 H 0.58579 0.81815 0.93554 0.0
H484 H 0.5813 0.86091 0.8656 0.0
S485 S 0.48829 0.86073 0.10141 0.0
N486 N 0.50834 0.83422 0.10442 0.0
N487 N 0.50278 0.88005 0.02792 0.0
C488 C 0.52535 0.86529 0.00266 0.0
C489 C 0.52832 0.84043 0.04413 0.0
C490 C 0.69016 0.48376 0.01673 0.0
C491 C 0.68908 0.45887 0.05793 0.0
C492 C 0.66816 0.49049 0.9684 0.0
C493 C 0.64413 0.47269 0.96044 0.0
H494 H 0.70848 0.4979 0.02065 0.0
H495 H 0.66984 0.5098 0.93747 0.0
S496 S 0.63086 0.40523 0.05673 0.0
N497 N 0.66184 0.41658 0.08842 0.0
N498 N 0.62065 0.42912 0.99755 0.0
C499 C 0.64269 0.44786 0.00189 0.0
C500 C 0.66512 0.44097 0.05059 0.0
C501 C 0.96967 0.65694 0.92636 0.0
C502 C 0.94884 0.65582 0.98959 0.0
C503 C 0.97688 0.63412 0.8908 0.0
C504 C 0.96382 0.60923 0.91753 0.0
H505 H 0.98108 0.67554 0.90503 0.0
H506 H 0.9934 0.63588 0.8431 0.0
S507 S 0.90656 0.59548 0.07739 0.0
N508 N 0.91393 0.62777 0.07456 0.0
N509 N 0.92822 0.58468 0.00851 0.0
C510 C 0.94272 0.60772 0.97994 0.0
C511 C 0.93508 0.63104 0.01581 0.0
C512 C 0.01694 0.08201 0.44364 0.0
C513 C 0.01137 0.10669 0.47225 0.0
C514 C 0.0098 0.0582 0.48783 0.0
C515 C 0.99719 0.05841 0.56207 0.0
H516 H 0.02908 0.08108 0.38924 0.0
H517 H 0.01692 0.03983 0.46645 0.0
S518 S 0.97229 0.11698 0.6575 0.0
N519 N 0.98738 0.12933 0.57432 0.0
N520 N 0.97529 0.08457 0.65844 0.0
C521 C 0.98883 0.08261 0.58853 0.0
C522 C 0.99562 0.10679 0.54333 0.0
C523 C 0.41002 0.97427 0.5492 0.0
C524 C 0.40646 0.94788 0.53134 0.0
C525 C 0.43525 0.98315 0.58132 0.0
C526 C 0.45788 0.96594 0.59774 0.0
H527 H 0.39332 0.98835 0.53694 0.0
H528 H 0.43671 0.00368 0.59443 0.0
S529 S 0.45922 0.89486 0.56105 0.0
N530 N 0.42757 0.90459 0.53067 0.0
N531 N 0.47515 0.92114 0.59346 0.0
C532 C 0.45462 0.93939 0.58037 0.0
C533 C 0.42892 0.93041 0.54633 0.0
C534 C 0.55451 0.40597 0.5321 0.0
C535 C 0.54843 0.41192 0.45674 0.0
C536 C 0.55697 0.42607 0.58133 0.0
C537 C 0.5531 0.4526 0.55677 0.0
H538 H 0.55493 0.38557 0.55494 0.0
H539 H 0.55908 0.42053 0.64039 0.0
S540 S 0.54335 0.47923 0.36221 0.0
N541 N 0.54436 0.44685 0.35707 0.0
N542 N 0.54718 0.48435 0.45119 0.0
C543 C 0.54982 0.45908 0.48044 0.0
C544 C 0.548 0.43877 0.42991 0.0
C545 C 0.12145 0.55722 0.50734 0.0
C546 C 0.11344 0.58197 0.4764 0.0
C547 C 0.10115 0.54059 0.55329 0.0
C548 C 0.07208 0.54817 0.57107 0.0
H549 H 0.14344 0.55025 0.49404 0.0
H550 H 0.10846 0.52168 0.5756 0.0
S551 S 0.04022 0.6113 0.50566 0.0
N552 N 0.07464 0.61346 0.46636 0.0
N553 N 0.03634 0.58235 0.55566 0.0
C554 C 0.06383 0.57312 0.54189 0.0
C555 C 0.08452 0.58995 0.49357 0.0
C556 C 0.02221 0.91345 0.98977 0.0
C557 C 0.02795 0.88882 0.96101 0.0
C558 C 0.02926 0.93733 0.94584 0.0
C559 C 0.04197 0.93726 0.87165 0.0
H560 H 0.01006 0.9143 0.0442 0.0
H561 H 0.02205 0.95565 0.96739 0.0
S562 S 0.06714 0.87891 0.77559 0.0
N563 N 0.05208 0.86641 0.85864 0.0
N564 N 0.06399 0.91129 0.77499 0.0
C565 C 0.0504 0.91312 0.84492 0.0
C566 C 0.04369 0.88886 0.88987 0.0
C567 C 0.60872 0.06642 0.92456 0.0
C568 C 0.63466 0.05198 0.92353 0.0
C569 C 0.58446 0.05833 0.88588 0.0
C570 C 0.58526 0.03516 0.84736 0.0
H571 H 0.60706 0.08376 0.95631 0.0
H572 H 0.56469 0.06969 0.88823 0.0
S573 S 0.64825 0.99097 0.82594 0.0
N574 N 0.65985 0.01394 0.87892 0.0
N575 N 0.61442 -0.00129 0.80725 0.0
C576 C 0.61127 0.02095 0.84481 0.0
C577 C 0.63595 0.02936 0.88275 0.0
C578 C 0.46843 0.5874 0.92877 0.0
C579 C 0.48326 0.58616 0.99521 0.0
C580 C 0.4696 0.56671 0.88075 0.0
C581 C 0.48594 0.54431 0.89739 0.0
H582 H 0.45714 0.60507 0.91192 0.0
H583 H 0.4596 0.56923 0.82772 0.0
S584 S 0.52567 0.5299 0.06838 0.0
N585 N 0.51257 0.55949 0.07802 0.0
N586 N 0.51428 0.52062 0.98854 0.0
C587 C 0.49882 0.5419 0.96641 0.0
C588 C 0.49762 0.56284 0.01518 0.0
C589 C 0.9462 0.40447 0.94235 0.0
C590 C 0.93951 0.41376 0.01368 0.0
C591 C 0.96653 0.41862 0.889 0.0
C592 C 0.98021 0.44277 0.90495 0.0
H593 H 0.93462 0.38686 0.92657 0.0
H594 H 0.97006 0.41151 0.83346 0.0
S595 S 0.97213 0.47445 0.08531 0.0
N596 N 0.94979 0.44765 0.09896 0.0
N597 N 0.98778 0.47412 0.99879 0.0
C598 C 0.97501 0.45141 0.9774 0.0
C599 C 0.9547 0.43692 0.03182 0.0
C600 C 0.07289 0.14872 0.97312 0.0
C601 C 0.10187 0.15972 0.95625 0.0
C602 C 0.06335 0.12582 0.94157 0.0
C603 C 0.08229 0.11302 0.89108 0.0
H604 H 0.05771 0.15732 0.0135 0.0
H605 H 0.04108 0.11774 0.95842 0.0
S606 S 0.15993 0.13492 0.82509 0.0
N607 N 0.14936 0.15672 0.8849 0.0
N608 N 0.13114 0.11395 0.82272 0.0
C609 C 0.11125 0.12413 0.87243 0.0
C610 C 0.1211 0.14741 0.90563 0.0
C611 C 0.39603 0.98021 0.91204 0.0
C612 C 0.38868 0.99819 0.96648 0.0
C613 C 0.42282 0.98307 0.8663 0.0
C614 C 0.44317 0.00444 0.87113 0.0
H615 H 0.38123 0.96333 0.90569 0.0
H616 H 0.42769 0.96832 0.82675 0.0
S617 S 0.4349 0.05784 1.00062 0.0
N618 N 0.40457 0.03854 0.02118 0.0
N619 N 0.45402 0.04456 0.93153 0.0
C620 C 0.43575 0.02333 0.92215 0.0
C621 C 0.40873 0.0201 0.97049 0.0
C622 C 0.44751 0.39483 0.89802 0.0
C623 C 0.46882 0.37728 0.92241 0.0
C624 C 0.45593 0.41817 0.85212 0.0
C625 C 0.48599 0.42495 0.83018 0.0
H626 H 0.42431 0.39104 0.91723 0.0
H627 H 0.43896 0.43162 0.83719 0.0
S628 S 0.55021 0.38476 0.87357 0.0
N629 N 0.52115 0.36771 0.91704 0.0
N630 N 0.53682 0.41108 0.83056 0.0
C631 C 0.50728 0.40683 0.85064 0.0
C632 C 0.49874 0.38311 0.89673 0.0
C633 C 0.13344 0.50281 0.94538 0.0
C634 C 0.15053 0.52583 0.91687 0.0
C635 C 0.10905 0.49374 0.90875 0.0
C636 C 0.10104 0.50752 0.84288 0.0
H637 H 0.13786 0.49263 0.99856 0.0
H638 H 0.09556 0.47671 0.93401 0.0
S639 S 0.14081 0.56624 0.7392 0.0
N640 N 0.15961 0.56012 0.81365 0.0
N641 N 0.11338 0.54342 0.74636 0.0
C642 C 0.11886 0.5295 0.81146 0.0
C643 C 0.14375 0.53856 0.84803 0.0
C644 C 0.96592 0.84679 0.46317 0.0
C645 C 0.93679 0.83609 0.47943 0.0
C646 C 0.97555 0.86968 0.49458 0.0
C647 C 0.95659 0.88273 0.5444 0.0
H648 H 0.98111 0.838 0.42326 0.0
H649 H 0.99793 0.87756 0.47803 0.0
S650 S 0.87857 0.86157 0.6087 0.0
N651 N 0.88911 0.83961 0.54938 0.0
N652 N 0.90755 0.88229 0.61165 0.0
C653 C 0.92749 0.87187 0.56257 0.0
C654 C 0.91753 0.84863 0.52939 0.0
C655 C 0.64504 0.97786 0.52717 0.0
C656 C 0.65273 -0.00022 0.47497 0.0
C657 C 0.61823 0.97647 0.57363 0.0
C658 C 0.59786 0.9968 0.56905 0.0
H659 H 0.66008 0.96188 0.53294 0.0
H660 H 0.61364 0.95947 0.61405 0.0
S661 S 0.60637 0.05721 0.43559 0.0
N662 N 0.63693 0.04132 0.41774 0.0
N663 N 0.58689 0.03885 0.50393 0.0
C664 C 0.60505 0.01844 0.51526 0.0
C665 C 0.63233 0.01989 0.4686 0.0
C666 C 0.53801 0.61398 0.55339 0.0
C667 C 0.56713 0.62055 0.5223 0.0
C668 C 0.53123 0.59069 0.59972 0.0
C669 C 0.55328 0.573 0.61758 0.0
H670 H 0.51987 0.626 0.53782 0.0
H671 H 0.5082 0.58603 0.61941 0.0
S672 S 0.63368 0.58275 0.55917 0.0
N673 N 0.61878 0.60887 0.5188 0.0
N674 N 0.60596 0.56494 0.60675 0.0
C675 C 0.58286 0.5802 0.59157 0.0
C676 C 0.58977 0.60396 0.54358 0.0
C677 C 0.92802 0.47285 0.4922 0.0
C678 C 0.89897 0.47728 0.5208 0.0
C679 C 0.95222 0.47699 0.53483 0.0
C680 C 0.94831 0.48624 0.60706 0.0
H681 H 0.93198 0.46564 0.43687 0.0
H682 H 0.97418 0.47304 0.5108 0.0
S683 S 0.87651 0.50098 0.70693 0.0
N684 N 0.8674 0.49114 0.62537 0.0
N685 N 0.91298 0.49976 0.70521 0.0
C686 C 0.91933 0.49112 0.63585 0.0
C687 C 0.89461 0.48637 0.59285 0.0
loop_
_geom_bond_atom_site_label_1
_geom_bond_atom_site_label_2
_geom_bond_distance
_geom_bond_site_symmetry_2
_ccdc_geom_bond_type
C0 C1 1.384 . S
C0 H13 0.947 . S
C0 C35 1.382 . S
C1 C0 1.384 . S
C1 C2 1.378 . S
C2 C1 1.378 . S
C2 C3 1.378 . S
C2 H14 0.952 . S
C3 C2 1.378 . S
C3 H15 0.950 . S
C3 C34 1.383 . S
H4 C23 0.947 . S
H5 C24 0.946 . S
H6 C26 0.953 1_556 S
H7 C27 0.945 . S
H8 C29 0.952 . S
H9 C30 0.949 . S
H10 C32 0.950 . S
H11 C33 0.948 . S
H12 C35 0.951 . S
H13 C0 0.947 . S
H14 C2 0.952 . S
H15 C3 0.950 . S
N16 C19 1.382 . S
N16 C21 1.363 . S
N17 C19 1.371 . S
N17 C20 1.372 . S
N18 C20 1.361 . S
N18 C21 1.377 . S
C19 N16 1.382 . S
C19 N17 1.371 . S
C19 C22 1.480 . S
C20 N17 1.372 . S
C20 N18 1.361 . S
C20 C28 1.457 . S
C21 N16 1.363 . S
C21 N18 1.377 . S
C21 C34 1.479 . S
C22 C19 1.480 . S
C22 C23 1.383 . S
C22 C27 1.385 . S
C23 H4 0.947 . S
C23 C22 1.383 . S
C23 C24 1.388 . S
C24 H5 0.946 . S
C24 C23 1.388 . S
C24 C25 1.384 . S
C25 C24 1.384 . S
C25 C26 1.377 . S
C26 H6 0.953 1_554 S
C26 C25 1.377 . S
C26 C27 1.369 . S
C27 H7 0.945 . S
C27 C22 1.385 . S
C27 C26 1.369 . S
C28 C20 1.457 . S
C28 C29 1.372 1_554 S
C28 C33 1.364 . S
C29 H8 0.952 . S
C29 C28 1.372 1_556 S
C29 C30 1.389 . S
C30 H9 0.949 . S
C30 C29 1.389 . S
C30 C31 1.387 . S
C31 C30 1.387 . S
C31 C32 1.372 1_556 S
C32 H10 0.950 . S
C32 C31 1.372 1_554 S
C32 C33 1.379 . S
C33 H11 0.948 . S
C33 C28 1.364 . S
C33 C32 1.379 . S
C34 C3 1.383 . S
C34 C21 1.479 . S
C34 C35 1.398 . S
C35 C0 1.382 . S
C35 H12 0.951 . S
C35 C34 1.398 . S
C36 C37 1.384 . S
C36 H49 0.947 . S
C36 C71 1.382 . S
C37 C36 1.384 . S
C37 C38 1.378 . S
C38 C37 1.378 . S
C38 C39 1.378 . S
C38 H50 0.952 . S
C39 C38 1.378 . S
C39 H51 0.950 . S
C39 C70 1.383 . S
H40 C59 0.947 . S
H41 C60 0.946 . S
H42 C62 0.953 . S
H43 C63 0.945 . S
H44 C65 0.952 . S
H45 C66 0.949 . S
H46 C68 0.950 . S
H47 C69 0.948 . S
H48 C71 0.951 . S
H49 C36 0.947 . S
H50 C38 0.952 . S
H51 C39 0.950 . S
N52 C55 1.382 1_554 S
N52 C57 1.363 . S
N53 C55 1.371 . S
N53 C56 1.372 . S
N54 C56 1.361 1_554 S
N54 C57 1.377 . S
C55 N52 1.382 1_556 S
C55 N53 1.371 . S
C55 C58 1.480 . S
C56 N53 1.372 . S
C56 N54 1.361 1_556 S
C56 C64 1.457 . S
C57 N52 1.363 . S
C57 N54 1.377 . S
C57 C70 1.479 . S
C58 C55 1.480 . S
C58 C59 1.383 1_556 S
C58 C63 1.385 . S
C59 H40 0.947 . S
C59 C58 1.383 1_554 S
C59 C60 1.388 . S
C60 H41 0.946 . S
C60 C59 1.388 . S
C60 C61 1.384 1_554 S
C61 C60 1.384 1_556 S
C61 C62 1.377 . S
C62 H42 0.953 . S
C62 C61 1.377 . S
C62 C63 1.369 . S
C63 H43 0.945 . S
C63 C58 1.385 . S
C63 C62 1.369 . S
C64 C56 1.457 . S
C64 C65 1.372 . S
C64 C69 1.364 . S
C65 H44 0.952 . S
C65 C64 1.372 . S
C65 C66 1.389 . S
C66 H45 0.949 . S
C66 C65 1.389 . S
C66 C67 1.387 . S
C67 C66 1.387 . S
C67 C68 1.372 . S
C68 H46 0.950 . S
C68 C67 1.372 . S
C68 C69 1.379 . S
C69 H47 0.948 . S
C69 C64 1.364 . S
C69 C68 1.379 . S
C70 C39 1.383 . S
C70 C57 1.479 . S
C70 C71 1.398 . S
C71 C36 1.382 . S
C71 H48 0.951 . S
C71 C70 1.398 . S
C72 C73 1.383 1_565 S
C72 H85 0.947 . S
C72 C107 1.382 1_565 S
C73 C72 1.383 1_545 S
C73 C74 1.378 . S
C74 C73 1.378 . S
C74 C75 1.378 . S
C74 H86 0.952 . S
C75 C74 1.378 . S
C75 H87 0.950 . S
C75 C106 1.383 . S
H76 C95 0.947 . S
H77 C96 0.951 . S
H78 C98 0.953 . S
H79 C99 0.945 . S
H80 C101 0.947 1_565 S
H81 C102 0.960 . S
H82 C104 0.950 . S
H83 C105 0.948 . S
H84 C107 0.951 1_565 S
H85 C72 0.947 . S
H86 C74 0.952 . S
H87 C75 0.950 . S
N88 C91 1.382 . S
N88 C93 1.363 . S
N89 C91 1.371 . S
N89 C92 1.372 . S
N90 C92 1.361 . S
N90 C93 1.377 . S
C91 N88 1.382 . S
C91 N89 1.371 . S
C91 C94 1.480 . S
C92 N89 1.372 . S
C92 N90 1.361 . S
C92 C100 1.457 1_554 S
C93 N88 1.363 . S
C93 N90 1.377 . S
C93 C106 1.479 . S
C94 C91 1.480 . S
C94 C95 1.383 . S
C94 C99 1.385 1_554 S
C95 H76 0.947 . S
C95 C94 1.383 . S
C95 C96 1.384 1_545 S
C96 H77 0.951 . S
C96 C95 1.384 1_565 S
C96 C97 1.384 1_565 S
C97 C96 1.384 1_545 S
C97 C98 1.377 1_554 S
C98 H78 0.953 . S
C98 C97 1.377 1_556 S
C98 C99 1.369 . S
C99 H79 0.945 . S
C99 C94 1.385 1_556 S
C99 C98 1.369 . S
C100 C92 1.457 1_556 S
C100 C101 1.378 . S
C100 C105 1.364 1_556 S
C101 H80 0.947 1_545 S
C101 C100 1.378 . S
C101 C102 1.385 1_545 S
C102 H81 0.960 . S
C102 C101 1.385 1_565 S
C102 C103 1.380 1_565 S
C103 C102 1.380 1_545 S
C103 C104 1.372 . S
C104 H82 0.950 . S
C104 C103 1.372 . S
C104 C105 1.379 1_556 S
C105 H83 0.948 . S
C105 C100 1.364 1_554 S
C105 C104 1.379 1_554 S
C106 C75 1.383 . S
C106 C93 1.479 . S
C106 C107 1.398 . S
C107 C72 1.382 1_545 S
C107 H84 0.951 1_545 S
C107 C106 1.398 . S
C108 C109 1.384 . S
C108 H121 0.947 . S
C108 C143 1.382 1_556 S
C109 C108 1.384 . S
C109 C110 1.378 . S
C110 C109 1.378 . S
C110 C111 1.378 . S
C110 H122 0.952 . S
C111 C110 1.378 . S
C111 H123 0.950 . S
C111 C142 1.383 . S
H112 C131 0.947 1_556 S
H113 C132 0.946 . S
H114 C134 0.953 . S
H115 C135 0.945 . S
H116 C137 0.952 . S
H117 C138 0.949 . S
H118 C140 0.950 . S
H119 C141 0.948 . S
H120 C143 0.951 . S
H121 C108 0.947 . S
H122 C110 0.952 . S
H123 C111 0.950 . S
N124 C127 1.382 . S
N124 C129 1.363 . S
N125 C127 1.371 . S
N125 C128 1.372 . S
N126 C128 1.361 . S
N126 C129 1.377 . S
C127 N124 1.382 . S
C127 N125 1.371 . S
C127 C130 1.480 . S
C128 N125 1.372 . S
C128 N126 1.361 . S
C128 C136 1.457 . S
C129 N124 1.363 . S
C129 N126 1.377 . S
C129 C142 1.479 1_554 S
C130 C127 1.480 . S
C130 C131 1.383 . S
C130 C135 1.385 . S
C131 H112 0.947 1_554 S
C131 C130 1.383 . S
C131 C132 1.388 1_554 S
C132 H113 0.946 . S
C132 C131 1.388 1_556 S
C132 C133 1.384 1_556 S
C133 C132 1.384 1_554 S
C133 C134 1.377 . S
C134 H114 0.953 . S
C134 C133 1.377 . S
C134 C135 1.369 . S
C135 H115 0.945 . S
C135 C130 1.385 . S
C135 C134 1.369 . S
C136 C128 1.457 . S
C136 C137 1.372 . S
C136 C141 1.364 . S
C137 H116 0.952 . S
C137 C136 1.372 . S
C137 C138 1.389 . S
C138 H117 0.949 . S
C138 C137 1.389 . S
C138 C139 1.387 . S
C139 C138 1.387 . S
C139 C140 1.372 . S
C140 H118 0.950 . S
C140 C139 1.372 . S
C140 C141 1.379 . S
C141 H119 0.948 . S
C141 C136 1.364 . S
C141 C140 1.379 . S
C142 C111 1.383 . S
C142 C129 1.479 1_556 S
C142 C143 1.398 1_556 S
C143 C108 1.382 1_554 S
C143 H120 0.951 . S
C143 C142 1.398 1_554 S
C144 C145 1.384 1_554 S
C144 H157 0.947 . S
C144 C179 1.382 . S
C145 C144 1.384 1_556 S
C145 C146 1.378 . S
C146 C145 1.378 . S
C146 C147 1.378 1_556 S
C146 H158 0.952 . S
C147 C146 1.378 1_554 S
C147 H159 0.950 . S
C147 C178 1.383 . S
H148 C167 0.947 . S
H149 C168 0.946 . S
H150 C170 0.953 . S
H151 C171 0.945 . S
H152 C173 0.952 . S
H153 C174 0.949 . S
H154 C176 0.950 . S
H155 C177 0.948 . S
H156 C179 0.951 . S
H157 C144 0.947 . S
H158 C146 0.952 . S
H159 C147 0.950 . S
N160 C163 1.382 . S
N160 C165 1.363 . S
N161 C163 1.371 . S
N161 C164 1.372 . S
N162 C164 1.361 . S
N162 C165 1.377 . S
C163 N160 1.382 . S
C163 N161 1.371 . S
C163 C166 1.480 . S
C164 N161 1.372 . S
C164 N162 1.361 . S
C164 C172 1.457 . S
C165 N160 1.363 . S
C165 N162 1.377 . S
C165 C178 1.479 . S
C166 C163 1.480 . S
C166 C167 1.383 . S
C166 C171 1.385 . S
C167 H148 0.947 . S
C167 C166 1.383 . S
C167 C168 1.388 . S
C168 H149 0.946 . S
C168 C167 1.388 . S
C168 C169 1.384 . S
C169 C168 1.384 . S
C169 C170 1.377 . S
C170 H150 0.953 . S
C170 C169 1.377 . S
C170 C171 1.369 . S
C171 H151 0.945 . S
C171 C166 1.385 . S
C171 C170 1.369 . S
C172 C164 1.457 . S
C172 C173 1.372 . S
C172 C177 1.364 . S
C173 H152 0.952 . S
C173 C172 1.372 . S
C173 C174 1.389 . S
C174 H153 0.949 . S
C174 C173 1.389 . S
C174 C175 1.387 . S
C175 C174 1.387 . S
C175 C176 1.372 . S
C176 H154 0.950 . S
C176 C175 1.372 . S
C176 C177 1.379 . S
C177 H155 0.948 . S
C177 C172 1.364 . S
C177 C176 1.379 . S
C178 C147 1.383 . S
C178 C165 1.479 . S
C178 C179 1.398 . S
C179 C144 1.382 . S
C179 H156 0.951 . S
C179 C178 1.398 . S
C180 C181 1.384 . S
C180 H193 0.947 . S
C180 C215 1.382 . S
C181 C180 1.384 . S
C181 C182 1.378 . S
C182 C181 1.378 . S
C182 C183 1.378 . S
C182 H194 0.952 . S
C183 C182 1.378 . S
C183 H195 0.950 . S
C183 C214 1.383 . S
H184 C203 0.947 . S
H185 C204 0.946 . S
H186 C206 0.953 . S
H187 C207 0.945 . S
H188 C209 0.952 . S
H189 C210 0.949 . S
H190 C212 0.950 . S
H191 C213 0.948 . S
H192 C215 0.951 . S
H193 C180 0.947 . S
H194 C182 0.952 . S
H195 C183 0.950 . S
N196 C199 1.382 . S
N196 C201 1.363 . S
N197 C199 1.371 . S
N197 C200 1.372 . S
N198 C200 1.361 . S
N198 C201 1.377 . S
C199 N196 1.382 . S
C199 N197 1.371 . S
C199 C202 1.480 . S
C200 N197 1.372 . S
C200 N198 1.361 . S
C200 C208 1.457 . S
C201 N196 1.363 . S
C201 N198 1.377 . S
C201 C214 1.479 . S
C202 C199 1.480 . S
C202 C203 1.383 . S
C202 C207 1.385 . S
C203 H184 0.947 . S
C203 C202 1.383 . S
C203 C204 1.388 . S
C204 H185 0.946 . S
C204 C203 1.388 . S
C204 C205 1.384 . S
C205 C204 1.384 . S
C205 C206 1.377 . S
C206 H186 0.953 . S
C206 C205 1.377 . S
C206 C207 1.369 . S
C207 H187 0.945 . S
C207 C202 1.385 . S
C207 C206 1.369 . S
C208 C200 1.457 . S
C208 C209 1.372 . S
C208 C213 1.364 . S
C209 H188 0.952 . S
C209 C208 1.372 . S
C209 C210 1.389 . S
C210 H189 0.949 . S
C210 C209 1.389 . S
C210 C211 1.387 . S
C211 C210 1.387 . S
C211 C212 1.372 . S
C212 H190 0.950 . S
C212 C211 1.372 . S
C212 C213 1.379 . S
C213 H191 0.948 . S
C213 C208 1.364 . S
C213 C212 1.379 . S
C214 C183 1.383 . S
C214 C201 1.479 . S
C214 C215 1.398 . S
C215 C180 1.382 . S
C215 H192 0.951 . S
C215 C214 1.398 . S
C216 C217 1.384 1_565 S
C216 H229 0.947 . S
C216 C251 1.381 1_565 S
C217 C216 1.384 1_545 S
C217 C218 1.378 . S
C218 C217 1.378 . S
C218 C219 1.378 . S
C218 H230 0.952 . S
C219 C218 1.378 . S
C219 H231 0.950 . S
C219 C250 1.383 . S
H220 C239 0.947 . S
H221 C240 0.950 . S
H222 C242 0.953 . S
H223 C243 0.945 . S
H224 C245 0.949 1_565 S
H225 C246 0.952 . S
H226 C248 0.950 . S
H227 C249 0.948 . S
H228 C251 0.950 1_565 S
H229 C216 0.947 . S
H230 C218 0.952 . S
H231 C219 0.950 . S
N232 C235 1.382 . S
N232 C237 1.363 . S
N233 C235 1.371 . S
N233 C236 1.372 . S
N234 C236 1.361 . S
N234 C237 1.377 . S
C235 N232 1.382 . S
C235 N233 1.371 . S
C235 C238 1.480 . S
C236 N233 1.372 . S
C236 N234 1.361 . S
C236 C244 1.457 . S
C237 N232 1.363 . S
C237 N234 1.377 . S
C237 C250 1.479 . S
C238 C235 1.480 . S
C238 C239 1.383 . S
C238 C243 1.385 . S
C239 H220 0.947 . S
C239 C238 1.383 . S
C239 C240 1.388 1_545 S
C240 H221 0.950 . S
C240 C239 1.388 1_565 S
C240 C241 1.381 1_565 S
C241 C240 1.381 1_545 S
C241 C242 1.377 . S
C242 H222 0.953 . S
C242 C241 1.377 . S
C242 C243 1.369 . S
C243 H223 0.945 . S
C243 C238 1.385 . S
C243 C242 1.369 . S
C244 C236 1.457 . S
C244 C245 1.376 . S
C244 C249 1.364 . S
C245 H224 0.949 1_545 S
C245 C244 1.376 . S
C245 C246 1.388 1_545 S
C246 H225 0.952 . S
C246 C245 1.388 1_565 S
C246 C247 1.386 1_565 S
C247 C246 1.386 1_545 S
C247 C248 1.372 . S
C248 H226 0.950 . S
C248 C247 1.372 . S
C248 C249 1.379 . S
C249 H227 0.948 . S
C249 C244 1.364 . S
C249 C248 1.379 . S
C250 C219 1.383 . S
C250 C237 1.479 . S
C250 C251 1.400 . S
C251 C216 1.381 1_545 S
C251 H228 0.950 1_545 S
C251 C250 1.400 . S
C252 C253 1.384 . S
C252 H265 0.947 . S
C252 C287 1.382 . S
C253 C252 1.384 . S
C253 C254 1.378 . S
C254 C253 1.378 . S
C254 C255 1.378 . S
C254 H266 0.952 . S
C255 C254 1.378 . S
C255 H267 0.950 . S
C255 C286 1.383 . S
H256 C275 0.947 . S
H257 C276 0.946 . S
H258 C278 0.953 . S
H259 C279 0.945 . S
H260 C281 0.952 . S
H261 C282 0.949 . S
H262 C284 0.950 . S
H263 C285 0.948 . S
H264 C287 0.951 . S
H265 C252 0.947 . S
H266 C254 0.952 . S
H267 C255 0.950 . S
N268 C271 1.382 . S
N268 C273 1.363 . S
N269 C271 1.371 . S
N269 C272 1.372 . S
N270 C272 1.361 . S
N270 C273 1.377 . S
C271 N268 1.382 . S
C271 N269 1.371 . S
C271 C274 1.480 . S
C272 N269 1.372 . S
C272 N270 1.361 . S
C272 C280 1.457 . S
C273 N268 1.363 . S
C273 N270 1.377 . S
C273 C286 1.479 . S
C274 C271 1.480 . S
C274 C275 1.383 . S
C274 C279 1.385 . S
C275 H256 0.947 . S
C275 C274 1.383 . S
C275 C276 1.388 . S
C276 H257 0.946 . S
C276 C275 1.388 . S
C276 C277 1.384 . S
C277 C276 1.384 . S
C277 C278 1.377 . S
C278 H258 0.953 . S
C278 C277 1.377 . S
C278 C279 1.369 . S
C279 H259 0.945 . S
C279 C274 1.385 . S
C279 C278 1.369 . S
C280 C272 1.457 . S
C280 C281 1.372 . S
C280 C285 1.364 . S
C281 H260 0.952 . S
C281 C280 1.372 . S
C281 C282 1.389 . S
C282 H261 0.949 . S
C282 C281 1.389 . S
C282 C283 1.387 . S
C283 C282 1.387 . S
C283 C284 1.372 . S
C284 H262 0.950 . S
C284 C283 1.372 . S
C284 C285 1.379 . S
C285 H263 0.948 . S
C285 C280 1.364 . S
C285 C284 1.379 . S
C286 C255 1.383 . S
C286 C273 1.479 . S
C286 C287 1.398 . S
C287 C252 1.382 . S
C287 H264 0.951 . S
C287 C286 1.398 . S
C288 O304 1.251 1_455 S
C288 O306 1.254 . S
N289 C290 1.333 . S
N289 C294 1.307 . S
N289 Zn295 2.020 1_655 S
C290 N289 1.333 . S
C290 C291 1.379 . S
C290 H308 0.952 . S
C291 C290 1.379 . S
C291 C292 1.390 . S
C291 H318 0.949 . S
C292 C291 1.390 . S
C292 C293 1.357 . S
C293 C292 1.357 . S
C293 C294 1.370 . S
C293 H319 0.950 . S
C294 N289 1.307 . S
C294 C293 1.370 . S
C294 H312 0.948 1_565 S
Zn295 N289 2.020 1_455 S
Zn295 O304 2.039 1_455 S
Zn295 O310 2.034 . S
Zn295 O314 2.025 1_565 S
Zn295 O316 2.022 1_465 S
C296 O315 1.246 . S
C296 O316 1.252 . S
N297 C298 1.307 . S
N297 C299 1.333 . S
N297 Zn303 2.020 . S
C298 N297 1.307 . S
C298 C302 1.373 . S
C298 H309 0.948 1_545 S
C299 N297 1.333 . S
C299 C300 1.379 . S
C299 H307 0.952 . S
C300 C299 1.379 . S
C300 C301 1.390 1_556 S
C300 H320 0.949 . S
C301 C300 1.390 1_554 S
C301 C302 1.356 1_554 S
C302 C298 1.373 . S
C302 C301 1.356 1_556 S
C302 H321 0.948 1_556 S
Zn303 N297 2.020 . S
Zn303 O306 2.025 1_545 S
Zn303 O311 2.025 1_545 S
Zn303 O313 2.039 . S
Zn303 O315 2.034 1_455 S
O304 C288 1.251 1_655 S
O304 Zn295 2.039 1_655 S
C305 O310 1.246 . S
C305 O311 1.248 . S
O306 C288 1.254 . S
O306 Zn303 2.025 1_565 S
H307 C299 0.952 . S
H308 C290 0.952 . S
H309 C298 0.948 1_565 S
O310 Zn295 2.034 . S
O310 C305 1.246 . S
O311 Zn303 2.025 1_565 S
O311 C305 1.248 . S
H312 C294 0.948 1_545 S
O313 Zn303 2.039 . S
O313 C317 1.251 . S
O314 Zn295 2.025 1_545 S
O314 C317 1.254 . S
O315 C296 1.246 . S
O315 Zn303 2.034 1_655 S
O316 Zn295 2.022 1_645 S
O316 C296 1.252 . S
C317 O313 1.251 . S
C317 O314 1.254 . S
H318 C291 0.949 . S
H319 C293 0.950 . S
H320 C300 0.949 . S
H321 C302 0.948 1_554 S
C322 O338 1.251 1_565 S
C322 O340 1.254 . S
N323 C324 1.333 . S
N323 C328 1.307 . S
N323 Zn329 2.020 . S
C324 N323 1.333 . S
C324 C325 1.379 . S
C324 H342 0.952 . S
C325 C324 1.379 . S
C325 C326 1.390 . S
C325 H352 0.949 . S
C326 C325 1.390 . S
C326 C327 1.357 . S
C327 C326 1.357 . S
C327 C328 1.370 . S
C327 H353 0.950 . S
C328 N323 1.307 . S
C328 C327 1.370 . S
C328 H346 0.948 . S
Zn329 N323 2.020 . S
Zn329 O338 2.039 . S
Zn329 O344 2.034 . S
Zn329 O348 2.025 . S
Zn329 O350 2.024 . S
C330 O349 1.246 1_545 S
C330 O350 1.249 . S
N331 C332 1.307 . S
N331 C333 1.333 . S
N331 Zn337 2.020 . S
C332 N331 1.307 . S
C332 C336 1.370 . S
C332 H343 0.948 . S
C333 N331 1.333 . S
C333 C334 1.379 . S
C333 H341 0.952 . S
C334 C333 1.379 . S
C334 C335 1.390 . S
C334 H354 0.949 . S
C335 C334 1.390 . S
C335 C336 1.357 . S
C336 C332 1.370 . S
C336 C335 1.357 . S
C336 H355 0.950 . S
Zn337 N331 2.020 . S
Zn337 O340 2.025 . S
Zn337 O345 2.024 . S
Zn337 O347 2.039 . S
Zn337 O349 2.034 . S
O338 C322 1.251 1_545 S
O338 Zn329 2.039 . S
C339 O344 1.246 1_565 S
C339 O345 1.249 . S
O340 C322 1.254 . S
O340 Zn337 2.025 . S
H341 C333 0.952 . S
H342 C324 0.952 . S
H343 C332 0.948 . S
O344 Zn329 2.034 . S
O344 C339 1.246 1_545 S
O345 Zn337 2.024 . S
O345 C339 1.249 . S
H346 C328 0.948 . S
O347 Zn337 2.039 . S
O347 C351 1.251 1_565 S
O348 Zn329 2.025 . S
O348 C351 1.254 . S
O349 C330 1.246 1_565 S
O349 Zn337 2.034 . S
O350 Zn329 2.024 . S
O350 C330 1.249 . S
C351 O347 1.251 1_545 S
C351 O348 1.254 . S
H352 C325 0.949 . S
H353 C327 0.950 . S
H354 C334 0.949 . S
H355 C336 0.950 . S
C356 O372 1.251 . S
C356 O374 1.254 . S
N357 C358 1.333 . S
N357 C362 1.307 . S
N357 Zn363 2.020 . S
C358 N357 1.333 . S
C358 C359 1.379 . S
C358 H376 0.952 . S
C359 C358 1.379 . S
C359 C360 1.390 . S
C359 H386 0.949 . S
C360 C359 1.390 . S
C360 C361 1.357 . S
C361 C360 1.357 . S
C361 C362 1.370 . S
C361 H387 0.950 . S
C362 N357 1.307 . S
C362 C361 1.370 . S
C362 H380 0.948 . S
Zn363 N357 2.020 . S
Zn363 O372 2.039 . S
Zn363 O378 2.034 . S
Zn363 O382 2.025 . S
Zn363 O384 2.024 . S
C364 O383 1.246 . S
C364 O384 1.249 . S
N365 C366 1.307 . S
N365 C367 1.333 . S
N365 Zn371 2.020 . S
C366 N365 1.307 . S
C366 C370 1.370 . S
C366 H377 0.948 . S
C367 N365 1.333 . S
C367 C368 1.379 . S
C367 H375 0.952 . S
C368 C367 1.379 . S
C368 C369 1.390 . S
C368 H388 0.949 . S
C369 C368 1.390 . S
C369 C370 1.357 . S
C370 C366 1.370 . S
C370 C369 1.357 . S
C370 H389 0.950 . S
Zn371 N365 2.020 . S
Zn371 O374 2.025 . S
Zn371 O379 2.024 . S
Zn371 O381 2.039 . S
Zn371 O383 2.034 . S
O372 C356 1.251 . S
O372 Zn363 2.039 . S
C373 O378 1.246 . S
C373 O379 1.249 . S
O374 C356 1.254 . S
O374 Zn371 2.025 . S
H375 C367 0.952 . S
H376 C358 0.952 . S
H377 C366 0.948 . S
O378 Zn363 2.034 . S
O378 C373 1.246 . S
O379 Zn371 2.024 . S
O379 C373 1.249 . S
H380 C362 0.948 . S
O381 Zn371 2.039 . S
O381 C385 1.251 . S
O382 Zn363 2.025 . S
O382 C385 1.254 . S
O383 C364 1.246 . S
O383 Zn371 2.034 . S
O384 Zn363 2.024 . S
O384 C364 1.249 . S
C385 O381 1.251 . S
C385 O382 1.254 . S
H386 C359 0.949 . S
H387 C361 0.950 . S
H388 C368 0.949 . S
H389 C370 0.950 . S
C390 O406 1.251 . S
C390 O408 1.254 . S
N391 C392 1.333 . S
N391 C396 1.307 . S
N391 Zn397 2.020 . S
C392 N391 1.333 . S
C392 C393 1.379 . S
C392 H410 0.952 . S
C393 C392 1.379 . S
C393 C394 1.390 . S
C393 H420 0.949 . S
C394 C393 1.390 . S
C394 C395 1.357 . S
C395 C394 1.357 . S
C395 C396 1.370 . S
C395 H421 0.950 . S
C396 N391 1.307 . S
C396 C395 1.370 . S
C396 H414 0.948 . S
Zn397 N391 2.020 . S
Zn397 O406 2.039 . S
Zn397 O412 2.034 1_455 S
Zn397 O416 2.025 1_455 S
Zn397 O418 2.024 . S
C398 O417 1.246 . S
C398 O418 1.249 . S
N399 C400 1.307 . S
N399 C401 1.333 . S
N399 Zn405 2.020 1_655 S
C400 N399 1.307 . S
C400 C404 1.370 . S
C400 H411 0.948 1_655 S
C401 N399 1.333 . S
C401 C402 1.379 . S
C401 H409 0.952 . S
C402 C401 1.379 . S
C402 C403 1.390 . S
C402 H422 0.949 . S
C403 C402 1.390 . S
C403 C404 1.357 . S
C404 C400 1.370 . S
C404 C403 1.357 . S
C404 H423 0.950 . S
Zn405 N399 2.020 1_455 S
Zn405 O408 2.025 . S
Zn405 O413 2.024 1_455 S
Zn405 O415 2.039 1_455 S
Zn405 O417 2.034 . S
O406 C390 1.251 . S
O406 Zn397 2.039 . S
C407 O412 1.246 . S
C407 O413 1.249 . S
O408 C390 1.254 . S
O408 Zn405 2.025 . S
H409 C401 0.952 . S
H410 C392 0.952 . S
H411 C400 0.948 1_455 S
O412 Zn397 2.034 1_655 S
O412 C407 1.246 . S
O413 Zn405 2.024 1_655 S
O413 C407 1.249 . S
H414 C396 0.948 . S
O415 Zn405 2.039 1_655 S
O415 C419 1.251 . S
O416 Zn397 2.025 1_655 S
O416 C419 1.254 . S
O417 C398 1.246 . S
O417 Zn405 2.034 . S
O418 Zn397 2.024 . S
O418 C398 1.249 . S
C419 O415 1.251 . S
C419 O416 1.254 . S
H420 C393 0.949 . S
H421 C395 0.950 . S
H422 C402 0.949 . S
H423 C404 0.950 . S
C424 C425 1.369 1_545 S
C424 C426 1.419 . S
C424 H428 0.930 . S
C425 C424 1.369 1_565 S
C425 C434 1.429 . S
C426 C424 1.419 . S
C426 C427 1.363 1_545 S
C426 H429 0.929 . S
C427 C426 1.363 1_565 S
C427 C433 1.428 . S
H428 C424 0.930 . S
H429 C426 0.929 . S
S430 N431 1.613 . S
S430 N432 1.610 . S
N431 S430 1.613 . S
N431 C434 1.350 . S
N432 S430 1.610 . S
N432 C433 1.351 . S
C433 C427 1.428 . S
C433 N432 1.351 . S
C433 C434 1.434 . S
C434 C425 1.429 . S
C434 N431 1.350 . S
C434 C433 1.434 . S
C435 C436 1.369 . S
C435 C437 1.419 . S
C435 H439 0.930 . S
C436 C435 1.369 . S
C436 C445 1.429 . S
C437 C435 1.419 . S
C437 C438 1.363 . S
C437 H440 0.929 . S
C438 C437 1.363 . S
C438 C444 1.428 . S
H439 C435 0.930 . S
H440 C437 0.929 . S
S441 N442 1.613 . S
S441 N443 1.610 . S
N442 S441 1.613 . S
N442 C445 1.350 . S
N443 S441 1.610 . S
N443 C444 1.351 . S
C444 C438 1.428 . S
C444 N443 1.351 . S
C444 C445 1.434 . S
C445 C436 1.429 . S
C445 N442 1.350 . S
C445 C444 1.434 . S
C446 C447 1.369 . S
C446 C448 1.419 . S
C446 H450 0.930 . S
C447 C446 1.369 . S
C447 C456 1.429 . S
C448 C446 1.419 . S
C448 C449 1.363 . S
C448 H451 0.929 . S
C449 C448 1.363 . S
C449 C455 1.428 . S
H450 C446 0.930 . S
H451 C448 0.929 . S
S452 N453 1.613 . S
S452 N454 1.610 . S
N453 S452 1.613 . S
N453 C456 1.350 . S
N454 S452 1.610 . S
N454 C455 1.351 . S
C455 C449 1.428 . S
C455 N454 1.351 . S
C455 C456 1.434 . S
C456 C447 1.429 . S
C456 N453 1.350 . S
C456 C455 1.434 . S
C457 C458 1.369 . S
C457 C459 1.419 . S
C457 H461 0.930 . S
C458 C457 1.369 . S
C458 C467 1.429 . S
C459 C457 1.419 . S
C459 C460 1.363 . S
C459 H462 0.929 . S
C460 C459 1.363 . S
C460 C466 1.428 . S
H461 C457 0.930 . S
H462 C459 0.929 . S
S463 N464 1.613 . S
S463 N465 1.610 . S
N464 S463 1.613 . S
N464 C467 1.350 . S
N465 S463 1.610 . S
N465 C466 1.351 . S
C466 C460 1.428 . S
C466 N465 1.351 . S
C466 C467 1.434 . S
C467 C458 1.429 . S
C467 N464 1.350 . S
C467 C466 1.434 . S
C468 C469 1.369 . S
C468 C470 1.419 . S
C468 H472 0.930 1_556 S
C469 C468 1.369 . S
C469 C478 1.429 1_545 S
C470 C468 1.419 . S
C470 C471 1.363 . S
C470 H473 0.929 . S
C471 C470 1.363 . S
C471 C477 1.428 . S
H472 C468 0.930 1_554 S
H473 C470 0.929 . S
S474 N475 1.613 . S
S474 N476 1.610 . S
N475 S474 1.613 . S
N475 C478 1.350 . S
N476 S474 1.610 . S
N476 C477 1.351 1_565 S
C477 C471 1.428 . S
C477 N476 1.351 1_545 S
C477 C478 1.434 1_545 S
C478 C469 1.429 1_565 S
C478 N475 1.350 . S
C478 C477 1.434 1_565 S
C479 C480 1.369 . S
C479 C481 1.419 . S
C479 H483 0.930 . S
C480 C479 1.369 . S
C480 C489 1.429 1_556 S
C481 C479 1.419 . S
C481 C482 1.363 . S
C481 H484 0.929 . S
C482 C481 1.363 . S
C482 C488 1.428 . S
H483 C479 0.930 . S
H484 C481 0.929 . S
S485 N486 1.613 . S
S485 N487 1.610 1_554 S
N486 S485 1.613 . S
N486 C489 1.350 . S
N487 S485 1.610 1_556 S
N487 C488 1.351 . S
C488 C482 1.428 . S
C488 N487 1.351 . S
C488 C489 1.434 1_556 S
C489 C480 1.429 1_554 S
C489 N486 1.350 . S
C489 C488 1.434 1_554 S
C490 C491 1.369 1_556 S
C490 C492 1.419 . S
C490 H494 0.930 1_556 S
C491 C490 1.369 1_554 S
C491 C500 1.429 . S
C492 C490 1.419 . S
C492 C493 1.363 . S
C492 H495 0.929 . S
C493 C492 1.363 . S
C493 C499 1.428 . S
H494 C490 0.930 1_554 S
H495 C492 0.929 . S
S496 N497 1.613 1_556 S
S496 N498 1.610 . S
N497 S496 1.613 1_554 S
N497 C500 1.350 . S
N498 S496 1.610 . S
N498 C499 1.351 . S
C499 C493 1.428 . S
C499 N498 1.351 . S
C499 C500 1.434 1_556 S
C500 C491 1.429 . S
C500 N497 1.350 . S
C500 C499 1.434 1_554 S
C501 C502 1.369 . S
C501 C503 1.419 . S
C501 H505 0.930 . S
C502 C501 1.369 . S
C502 C511 1.429 . S
C503 C501 1.419 . S
C503 C504 1.363 . S
C503 H506 0.929 . S
C504 C503 1.363 . S
C504 C510 1.428 . S
H505 C501 0.930 . S
H506 C503 0.929 . S
S507 N508 1.613 . S
S507 N509 1.610 . S
N508 S507 1.613 . S
N508 C511 1.350 . S
N509 S507 1.610 . S
N509 C510 1.351 . S
C510 C504 1.428 . S
C510 N509 1.351 . S
C510 C511 1.434 . S
C511 C502 1.429 . S
C511 N508 1.350 . S
C511 C510 1.434 . S
C512 C513 1.369 . S
C512 C514 1.419 . S
C512 H516 0.930 . S
C513 C512 1.369 . S
C513 C522 1.429 . S
C514 C512 1.419 . S
C514 C515 1.363 . S
C514 H517 0.929 . S
C515 C514 1.363 . S
C515 C521 1.428 . S
H516 C512 0.930 . S
H517 C514 0.929 . S
S518 N519 1.613 . S
S518 N520 1.610 . S
N519 S518 1.613 . S
N519 C522 1.350 . S
N520 S518 1.610 . S
N520 C521 1.351 . S
C521 C515 1.428 . S
C521 N520 1.351 . S
C521 C522 1.434 . S
C522 C513 1.429 . S
C522 N519 1.350 . S
C522 C521 1.434 . S
C523 C524 1.353 1_545 S
C523 C525 1.419 . S
C523 H527 0.930 . S
C524 C523 1.353 1_565 S
C524 C533 1.451 . S
C525 C523 1.419 . S
C525 C526 1.363 1_545 S
C525 H528 0.929 . S
C526 C525 1.363 1_565 S
C526 C532 1.428 . S
H527 C523 0.930 . S
H528 C525 0.929 . S
S529 N530 1.613 . S
S529 N531 1.610 . S
N530 S529 1.613 . S
N530 C533 1.350 . S
N531 S529 1.610 . S
N531 C532 1.351 . S
C532 C526 1.428 . S
C532 N531 1.351 . S
C532 C533 1.434 . S
C533 C524 1.451 . S
C533 N530 1.350 . S
C533 C532 1.434 . S
C534 C535 1.369 . S
C534 C536 1.419 . S
C534 H538 0.930 . S
C535 C534 1.369 . S
C535 C544 1.429 . S
C536 C534 1.419 . S
C536 C537 1.363 . S
C536 H539 0.929 . S
C537 C536 1.363 . S
C537 C543 1.428 . S
H538 C534 0.930 . S
H539 C536 0.929 . S
S540 N541 1.613 . S
S540 N542 1.610 . S
N541 S540 1.613 . S
N541 C544 1.350 . S
N542 S540 1.610 . S
N542 C543 1.351 . S
C543 C537 1.428 . S
C543 N542 1.351 . S
C543 C544 1.434 . S
C544 C535 1.429 . S
C544 N541 1.350 . S
C544 C543 1.434 . S
C545 C546 1.369 . S
C545 C547 1.419 . S
C545 H549 0.930 . S
C546 C545 1.369 . S
C546 C555 1.429 . S
C547 C545 1.419 . S
C547 C548 1.363 . S
C547 H550 0.929 . S
C548 C547 1.363 . S
C548 C554 1.428 . S
H549 C545 0.930 . S
H550 C547 0.929 . S
S551 N552 1.613 . S
S551 N553 1.610 . S
N552 S551 1.613 . S
N552 C555 1.350 . S
N553 S551 1.610 . S
N553 C554 1.351 . S
C554 C548 1.428 . S
C554 N553 1.351 . S
C554 C555 1.434 . S
C555 C546 1.429 . S
C555 N552 1.350 . S
C555 C554 1.434 . S
C556 C557 1.369 . S
C556 C558 1.419 . S
C556 H560 0.930 . S
C557 C556 1.369 . S
C557 C566 1.429 . S
C558 C556 1.419 . S
C558 C559 1.363 . S
C558 H561 0.929 . S
C559 C558 1.363 . S
C559 C565 1.428 . S
H560 C556 0.930 . S
H561 C558 0.929 . S
S562 N563 1.613 . S
S562 N564 1.610 1_655 S
N563 S562 1.613 . S
N563 C566 1.350 . S
N564 S562 1.610 1_455 S
N564 C565 1.351 1_455 S
C565 C559 1.428 . S
C565 N564 1.351 1_655 S
C565 C566 1.434 . S
C566 C557 1.429 . S
C566 N563 1.350 . S
C566 C565 1.434 . S
C567 C568 1.372 . S
C567 C569 1.419 . S
C567 H571 0.930 . S
C568 C567 1.372 . S
C568 C577 1.426 1_545 S
C569 C567 1.419 . S
C569 C570 1.363 . S
C569 H572 0.929 . S
C570 C569 1.363 . S
C570 C576 1.428 1_545 S
H571 C567 0.930 . S
H572 C569 0.929 . S
S573 N574 1.613 . S
S573 N575 1.610 . S
N574 S573 1.613 . S
N574 C577 1.350 . S
N575 S573 1.610 . S
N575 C576 1.351 . S
C576 C570 1.428 1_565 S
C576 N575 1.351 . S
C576 C577 1.434 . S
C577 C568 1.426 1_565 S
C577 N574 1.350 . S
C577 C576 1.434 . S
C578 C579 1.369 . S
C578 C580 1.419 . S
C578 H582 0.930 . S
C579 C578 1.369 . S
C579 C588 1.429 . S
C580 C578 1.419 . S
C580 C581 1.363 . S
C580 H583 0.929 . S
C581 C580 1.363 . S
C581 C587 1.428 . S
H582 C578 0.930 . S
H583 C580 0.929 . S
S584 N585 1.613 . S
S584 N586 1.610 . S
N585 S584 1.613 . S
N585 C588 1.350 . S
N586 S584 1.610 . S
N586 C587 1.351 . S
C587 C581 1.428 . S
C587 N586 1.351 . S
C587 C588 1.434 . S
C588 C579 1.429 . S
C588 N585 1.350 . S
C588 C587 1.434 . S
C589 C590 1.369 . S
C589 C591 1.419 . S
C589 H593 0.930 . S
C590 C589 1.369 . S
C590 C599 1.429 . S
C591 C589 1.419 . S
C591 C592 1.363 . S
C591 H594 0.929 . S
C592 C591 1.363 . S
C592 C598 1.428 . S
H593 C589 0.930 . S
H594 C591 0.929 . S
S595 N596 1.613 . S
S595 N597 1.610 . S
N596 S595 1.613 . S
N596 C599 1.350 . S
N597 S595 1.610 . S
N597 C598 1.351 . S
C598 C592 1.428 . S
C598 N597 1.351 . S
C598 C599 1.434 . S
C599 C590 1.429 . S
C599 N596 1.350 . S
C599 C598 1.434 . S
C600 C601 1.369 . S
C600 C602 1.419 . S
C600 H604 0.930 . S
C601 C600 1.369 . S
C601 C610 1.429 . S
C602 C600 1.419 . S
C602 C603 1.363 . S
C602 H605 0.929 . S
C603 C602 1.363 . S
C603 C609 1.428 . S
H604 C600 0.930 . S
H605 C602 0.929 . S
S606 N607 1.613 . S
S606 N608 1.610 . S
N607 S606 1.613 . S
N607 C610 1.350 1_556 S
N608 S606 1.610 . S
N608 C609 1.351 1_556 S
C609 C603 1.428 . S
C609 N608 1.351 1_554 S
C609 C610 1.434 . S
C610 C601 1.429 . S
C610 N607 1.350 1_554 S
C610 C609 1.434 . S
C611 C612 1.369 1_565 S
C611 C613 1.419 . S
C611 H615 0.930 1_556 S
C612 C611 1.369 1_545 S
C612 C621 1.429 . S
C613 C611 1.419 . S
C613 C614 1.363 1_565 S
C613 H616 0.929 . S
C614 C613 1.363 1_545 S
C614 C620 1.428 . S
H615 C611 0.930 1_554 S
H616 C613 0.929 . S
S617 N618 1.613 . S
S617 N619 1.610 . S
N618 S617 1.613 . S
N618 C621 1.350 . S
N619 S617 1.610 . S
N619 C620 1.351 . S
C620 C614 1.428 . S
C620 N619 1.351 . S
C620 C621 1.434 . S
C621 C612 1.429 . S
C621 N618 1.350 . S
C621 C620 1.434 . S
C622 C623 1.365 1_554 S
C622 C624 1.416 1_554 S
C622 H626 0.937 . S
C623 C622 1.365 1_556 S
C623 C632 1.429 . S
C624 C622 1.416 1_556 S
C624 C625 1.363 . S
C624 H627 0.929 . S
C625 C624 1.363 . S
C625 C631 1.428 . S
H626 C622 0.937 . S
H627 C624 0.929 . S
S628 N629 1.613 . S
S628 N630 1.610 . S
N629 S628 1.613 . S
N629 C632 1.350 . S
N630 S628 1.610 . S
N630 C631 1.351 . S
C631 C625 1.428 . S
C631 N630 1.351 . S
C631 C632 1.434 . S
C632 C623 1.429 . S
C632 N629 1.350 . S
C632 C631 1.434 . S
C633 C634 1.369 . S
C633 C635 1.419 . S
C633 H637 0.917 1_556 S
C634 C633 1.369 . S
C634 C643 1.429 . S
C635 C633 1.419 . S
C635 C636 1.363 . S
C635 H638 0.929 . S
C636 C635 1.363 . S
C636 C642 1.428 . S
H637 C633 0.917 1_554 S
H638 C635 0.929 . S
S639 N640 1.613 . S
S639 N641 1.610 . S
N640 S639 1.613 . S
N640 C643 1.350 . S
N641 S639 1.610 . S
N641 C642 1.351 . S
C642 C636 1.428 . S
C642 N641 1.351 . S
C642 C643 1.434 . S
C643 C634 1.429 . S
C643 N640 1.350 . S
C643 C642 1.434 . S
C644 C645 1.369 . S
C644 C646 1.419 . S
C644 H648 0.930 . S
C645 C644 1.369 . S
C645 C654 1.429 . S
C646 C644 1.419 . S
C646 C647 1.363 . S
C646 H649 0.929 . S
C647 C646 1.363 . S
C647 C653 1.428 . S
H648 C644 0.930 . S
H649 C646 0.929 . S
S650 N651 1.613 . S
S650 N652 1.610 . S
N651 S650 1.613 . S
N651 C654 1.350 . S
N652 S650 1.610 . S
N652 C653 1.351 . S
C653 C647 1.428 . S
C653 N652 1.351 . S
C653 C654 1.434 . S
C654 C645 1.429 . S
C654 N651 1.350 . S
C654 C653 1.434 . S
C655 C656 1.386 . S
C655 C657 1.419 . S
C655 H659 0.930 . S
C656 C655 1.386 . S
C656 C665 1.410 1_565 S
C657 C655 1.419 . S
C657 C658 1.363 . S
C657 H660 0.929 . S
C658 C657 1.363 . S
C658 C664 1.428 1_565 S
H659 C655 0.930 . S
H660 C657 0.929 . S
S661 N662 1.613 . S
S661 N663 1.610 . S
N662 S661 1.613 . S
N662 C665 1.350 . S
N663 S661 1.610 . S
N663 C664 1.351 . S
C664 C658 1.428 1_545 S
C664 N663 1.351 . S
C664 C665 1.434 . S
C665 C656 1.410 1_545 S
C665 N662 1.350 . S
C665 C664 1.434 . S
C666 C667 1.369 . S
C666 C668 1.419 . S
C666 H670 0.930 . S
C667 C666 1.369 . S
C667 C676 1.429 . S
C668 C666 1.419 . S
C668 C669 1.363 . S
C668 H671 0.929 . S
C669 C668 1.363 . S
C669 C675 1.428 . S
H670 C666 0.930 . S
H671 C668 0.929 . S
S672 N673 1.613 . S
S672 N674 1.610 . S
N673 S672 1.613 . S
N673 C676 1.350 . S
N674 S672 1.610 . S
N674 C675 1.351 . S
C675 C669 1.428 . S
C675 N674 1.351 . S
C675 C676 1.434 . S
C676 C667 1.429 . S
C676 N673 1.350 . S
C676 C675 1.434 . S
C677 C678 1.369 . S
C677 C679 1.419 . S
C677 H681 0.930 . S
C678 C677 1.369 . S
C678 C687 1.429 . S
C679 C677 1.419 . S
C679 C680 1.363 . S
C679 H682 0.929 . S
C680 C679 1.363 . S
C680 C686 1.428 . S
H681 C677 0.930 . S
H682 C679 0.929 . S
S683 N684 1.613 . S
S683 N685 1.610 . S
N684 S683 1.613 . S
N684 C687 1.350 . S
N685 S683 1.610 . S
N685 C686 1.351 . S
C686 C680 1.428 . S
C686 N685 1.351 . S
C686 C687 1.434 . S
C687 C678 1.429 . S
C687 N684 1.350 . S
C687 C686 1.434 . S
C425 C241 1.924 1_565 S
C427 C305 1.966 . S
C438 C326 1.817 . S
C436 C277 1.750 . S
C449 C360 1.763 . S
C447 C169 1.656 . S
C460 C394 1.770 . S
C458 C205 1.726 . S
C471 C296 1.969 . S
C469 C97 1.903 1_556 S
C480 C133 1.812 1_556 S
C482 C335 1.824 . S
C491 C25 1.699 . S
C493 C369 1.757 . S
C502 C61 1.669 . S
C504 C403 1.767 . S
C515 C317 1.279 . S
C513 C211 1.144 . S
C526 C322 0.840 . S
C524 C247 0.827 1_565 S
C537 C356 1.006 . S
C535 C253 0.951 . S
C546 C175 0.646 . S
C548 C390 0.541 . S
C557 C67 1.012 . S
C559 C288 1.284 1_655 S
C570 C351 0.831 . S
C568 C103 0.833 . S
C581 C385 0.996 . S
C579 C109 1.004 . S
C590 C31 0.568 . S
C592 C419 0.555 . S
C601 C181 1.799 . S
C603 C301 1.888 . S
C612 C217 2.101 1_556 S
C614 C330 2.229 . S
C625 C364 1.979 . S
C623 C283 1.782 1_556 S
C636 C398 2.065 . S
C634 C145 1.888 . S
C645 C37 1.746 . S
C647 C292 1.900 . S
C658 C339 2.229 . S
C656 C73 2.104 1_565 S
C669 C373 1.978 . S
C667 C139 1.828 . S
C678 C1 1.933 . S
C680 C407 2.067 . S
