# Generated by pormake.
# Topology pth, (4,4)-cn, num edge types: 1
# Building blocks:
#     Node 0, Type 0, BuildingBlock: QUQFOY_clean_sbu_1, # of connection points: 4
#     Node 1, Type 0, BuildingBlock: QUQFOY_clean_sbu_1, # of connection points: 4
#     Node 2, Type 0, BuildingBlock: QUQFOY_clean_sbu_1, # of connection points: 4
#     Node 3, Type 1, BuildingBlock: AZAVOO_clean_linker_0, # of connection points: 4
#     Node 4, Type 1, BuildingBlock: AZAVOO_clean_linker_0, # of connection points: 4
#     Node 5, Type 1, BuildingBlock: AZAVOO_clean_linker_0, # of connection points: 4
#     Edge 6, Type (0, 1), BuildingBlock: FUNLAD_clean_linker_1, # of connection points: 2
#     Edge 7, Type (0, 1), BuildingBlock: FUNLAD_clean_linker_1, # of connection points: 2
#     Edge 8, Type (0, 1), BuildingBlock: FUNLAD_clean_linker_1, # of connection points: 2
#     Edge 9, Type (0, 1), BuildingBlock: FUNLAD_clean_linker_1, # of connection points: 2
#     Edge 10, Type (0, 1), BuildingBlock: FUNLAD_clean_linker_1, # of connection points: 2
#     Edge 11, Type (0, 1), BuildingBlock: FUNLAD_clean_linker_1, # of connection points: 2
#     Edge 12, Type (0, 1), BuildingBlock: FUNLAD_clean_linker_1, # of connection points: 2
#     Edge 13, Type (0, 1), BuildingBlock: FUNLAD_clean_linker_1, # of connection points: 2
#     Edge 14, Type (0, 1), BuildingBlock: FUNLAD_clean_linker_1, # of connection points: 2
#     Edge 15, Type (0, 1), BuildingBlock: FUNLAD_clean_linker_1, # of connection points: 2
#     Edge 16, Type (0, 1), BuildingBlock: FUNLAD_clean_linker_1, # of connection points: 2
#     Edge 17, Type (0, 1), BuildingBlock: FUNLAD_clean_linker_1, # of connection points: 2
# Relax obj value: 0.115
# Max RMSD: 0.231
# Mean RMSD: 0.168
data_MOF--net-pth--node1-QUQFOY_clean_sbu_1--node2-AZAVOO_clean_linker_0--edge1-FUNLAD_clean_linker_1
_symmetry_space_group_name_H-M    P1
_symmetry_Int_Tables_number       1
_symmetry_cell_setting            triclinic
loop_
_symmetry_equiv_pos_as_xyz
'x, y, z'
_cell_length_a     26.058114
_cell_length_b     28.897593
_cell_length_c     75.520141
_cell_angle_alpha  92.467235
_cell_angle_beta   88.79877
_cell_angle_gamma 120.45926
loop_
_atom_site_label
_atom_site_type_symbol
_atom_site_fract_x
_atom_site_fract_y
_atom_site_fract_z
_atom_type_partial_charge
O0 O 0.1152 0.15003 0.02765 0.0
Cd1 Cd 0.03874 0.09402 0.03996 0.0
Cd2 Cd 0.09893 0.04103 0.04012 0.0
O3 O 0.1684 0.11059 0.03007 0.0
O4 O 0.99817 0.13363 0.0485 0.0
O5 O 0.0352 0.09939 0.06656 0.0
C6 C 0.00948 0.12698 0.06442 0.0
C7 C 0.10691 1.00089 0.06511 0.0
C8 C 0.16338 0.14972 0.0252 0.0
C9 C 0.98747 0.99178 0.01814 0.0
O10 O 0.03334 0.99023 0.0225 0.0
O11 O 0.97861 0.02875 0.02437 0.0
O12 O 0.13018 0.99746 0.0502 0.0
O13 O 0.08166 0.02951 0.06605 0.0
O14 O 0.99942 0.09573 0.38386 0.0
Cd15 Cd 0.0655 0.11569 0.36508 0.0
Cd16 Cd 0.02008 0.00422 0.36667 0.0
O17 O 0.95144 0.00749 0.37963 0.0
O18 O 0.09072 0.19138 0.35976 0.0
O19 O 0.05029 0.12471 0.33963 0.0
C20 C 0.07189 0.17503 0.34382 0.0
C21 C 0.99878 0.92908 0.34836 0.0
C22 C 0.95556 0.04952 0.38705 0.0
C23 C 0.1436 0.08164 0.38107 0.0
O24 O 0.09837 0.03449 0.38069 0.0
O25 O 0.14232 0.11971 0.3737 0.0
O26 O 0.99042 0.92545 0.36519 0.0
O27 O 0.01737 0.97523 0.34159 0.0
O28 O 0.97074 0.03227 0.69332 0.0
Cd29 Cd 0.02918 0.02032 0.70788 0.0
Cd30 Cd 0.09804 0.12844 0.70379 0.0
O31 O 0.02641 0.11968 0.68967 0.0
O32 O 0.97827 0.94989 0.71911 0.0
O33 O 0.02774 0.02706 0.73447 0.0
C34 C 0.99144 0.97581 0.73423 0.0
C35 C 0.1409 0.19086 0.72725 0.0
C36 C 0.97817 0.07533 0.68704 0.0
C37 C 0.14549 0.05896 0.689 0.0
O38 O 0.15265 0.10565 0.69115 0.0
O39 O 0.09918 0.01817 0.69485 0.0
O40 O 0.15118 0.20549 0.71103 0.0
O41 O 0.10407 0.14092 0.73018 0.0
H42 H 0.98681 0.45541 0.08639 0.0
H43 H 0.15175 0.89857 0.23067 0.0
H44 H 0.93919 0.42533 0.18011 0.0
H45 H 0.92989 0.34386 0.16598 0.0
H46 H 0.10664 0.39083 0.18406 0.0
H47 H 0.11517 0.4723 0.19839 0.0
H48 H 0.9601 0.52455 0.15821 0.0
H49 H 0.95611 0.49586 0.12706 0.0
H50 H 0.1238 0.50145 0.13327 0.0
H51 H 0.12765 0.5309 0.16433 0.0
H52 H 0.97894 0.63144 0.17865 0.0
H53 H 0.99713 0.70042 0.15808 0.0
H54 H 0.16842 0.71768 0.14497 0.0
H55 H 0.14993 0.64913 0.16619 0.0
H56 H 0.97112 0.63394 0.21846 0.0
H57 H 0.98594 0.72187 0.22808 0.0
H58 H 0.1721 0.79561 0.21398 0.0
H59 H 0.15674 0.70733 0.20459 0.0
H60 H 0.95287 0.54383 0.24091 0.0
H61 H 0.94967 0.59421 0.2672 0.0
H62 H 0.14087 0.69804 0.26455 0.0
H63 H 0.1434 0.64602 0.23853 0.0
H64 H 0.94278 0.42604 0.22109 0.0
H65 H 0.93699 0.36025 0.24162 0.0
H66 H 0.11801 0.47204 0.25833 0.0
H67 H 0.12364 0.53618 0.23744 0.0
O68 O 0.98961 0.46737 0.09869 0.0
O69 O 0.07682 0.47255 0.10242 0.0
O70 O 0.04811 0.82379 0.23331 0.0
O71 O 0.14458 0.86334 0.2269 0.0
C72 C 0.03743 0.50859 0.19574 0.0
C73 C 0.04516 0.54515 0.18259 0.0
C74 C 0.05361 0.59615 0.18757 0.0
C75 C 0.05425 0.61062 0.20567 0.0
C76 C 0.04765 0.57459 0.21887 0.0
C77 C 0.03928 0.52344 0.21395 0.0
C78 C 0.02809 0.45497 0.19009 0.0
C79 C 0.97549 0.41755 0.18125 0.0
C80 C 0.97063 0.37133 0.17299 0.0
C81 C 0.01858 0.36191 0.17337 0.0
C82 C 0.06936 0.39745 0.18338 0.0
C83 C 0.07424 0.4438 0.19162 0.0
C84 C 0.04411 0.52976 0.16351 0.0
C85 C 0.99614 0.51997 0.15277 0.0
C86 C 0.99387 0.50338 0.135 0.0
C87 C 0.03958 0.49625 0.12768 0.0
C88 C 0.08786 0.50654 0.13849 0.0
C89 C 0.09015 0.5233 0.15623 0.0
C90 C 0.06301 0.6352 0.17389 0.0
C91 C 0.02021 0.64995 0.17123 0.0
C92 C 0.03081 0.68948 0.15929 0.0
C93 C 0.08442 0.71468 0.14959 0.0
C94 C 0.12671 0.69904 0.15217 0.0
C95 C 0.11616 0.65973 0.1642 0.0
C96 C 0.06291 0.66434 0.21089 0.0
C97 C 0.01505 0.66916 0.21748 0.0
C98 C 0.02364 0.71941 0.22295 0.0
C99 C 0.08027 0.76578 0.22183 0.0
C100 C 0.12797 0.76074 0.21505 0.0
C101 C 0.11932 0.71044 0.20962 0.0
C102 C 0.04826 0.59158 0.23773 0.0
C103 C 0.99425 0.57608 0.24647 0.0
C104 C 0.99252 0.60597 0.26132 0.0
C105 C 0.04498 0.65211 0.26752 0.0
C106 C 0.09963 0.66343 0.25991 0.0
C107 C 0.10129 0.63342 0.24515 0.0
C108 C 0.03376 0.4858 0.22768 0.0
C109 C 0.9811 0.43616 0.22922 0.0
C110 C 0.97793 0.39863 0.24094 0.0
C111 C 0.02726 0.40987 0.25138 0.0
C112 C 0.07937 0.46067 0.25026 0.0
C113 C 0.08256 0.49805 0.23845 0.0
C114 C 0.03669 0.47803 0.10886 0.0
C115 C 0.08976 0.81925 0.22771 0.0
H116 H 0.59307 0.01718 0.42129 0.0
H117 H 0.23725 0.103 0.57057 0.0
H118 H 0.59706 0.9762 0.51558 0.0
H119 H 0.67666 0.98055 0.49676 0.0
H120 H 0.7885 0.14835 0.51195 0.0
H121 H 0.70816 0.14359 0.53087 0.0
H122 H 0.50181 0.9802 0.49387 0.0
H123 H 0.52578 0.98052 0.46235 0.0
H124 H 0.66448 0.14718 0.46852 0.0
H125 H 0.63968 0.14636 0.50002 0.0
H126 H 0.39374 0.9809 0.51344 0.0
H127 H 0.33147 0.98123 0.48962 0.0
H128 H 0.4619 0.14747 0.48068 0.0
H129 H 0.52356 0.14636 0.50431 0.0
H130 H 0.38723 0.97458 0.555 0.0
H131 H 0.29737 0.97364 0.56569 0.0
H132 H 0.37531 0.14019 0.55245 0.0
H133 H 0.46519 0.14075 0.54205 0.0
H134 H 0.48792 0.96991 0.57483 0.0
H135 H 0.43498 0.95387 0.60324 0.0
H136 H 0.47124 0.11741 0.60522 0.0
H137 H 0.52349 0.13287 0.57691 0.0
H138 H 0.61724 0.98703 0.55313 0.0
H139 H 0.69095 0.99301 0.57418 0.0
H140 H 0.70842 0.13959 0.59725 0.0
H141 H 0.6373 0.13515 0.57559 0.0
O142 O 0.58424 0.01799 0.43378 0.0
O143 O 0.64808 0.10575 0.43699 0.0
O144 O 0.23261 0.0157 0.57193 0.0
O145 O 0.27213 0.10217 0.56637 0.0
C146 C 0.59329 0.06055 0.53103 0.0
C147 C 0.55504 0.06231 0.51841 0.0
C148 C 0.50293 0.06199 0.52394 0.0
C149 C 0.48828 0.05901 0.54207 0.0
C150 C 0.52667 0.05761 0.5548 0.0
C151 C 0.57983 0.05911 0.54933 0.0
C152 C 0.64679 0.05967 0.52446 0.0
C153 C 0.63943 0.01345 0.51529 0.0
C154 C 0.68457 0.01625 0.50433 0.0
C155 C 0.73784 0.06543 0.50242 0.0
C156 C 0.74747 0.11023 0.51305 0.0
C157 C 0.70196 0.10749 0.52395 0.0
C158 C 0.569 0.06324 0.49918 0.0
C159 C 0.53714 0.01678 0.48835 0.0
C160 C 0.55109 0.01704 0.47038 0.0
C161 C 0.59703 0.06389 0.46292 0.0
C162 C 0.62874 0.11048 0.47384 0.0
C163 C 0.61476 0.11012 0.49182 0.0
C164 C 0.46316 0.06352 0.5105 0.0
C165 C 0.40847 0.01738 0.50637 0.0
C166 C 0.37322 0.01761 0.49274 0.0
C167 C 0.39229 0.06376 0.48291 0.0
C168 C 0.44646 0.11053 0.48748 0.0
C169 C 0.48159 0.11026 0.50115 0.0
C170 C 0.43267 0.05775 0.54779 0.0
C171 C 0.38473 0.01077 0.55442 0.0
C172 C 0.33348 0.01035 0.56049 0.0
C173 C 0.32918 0.05689 0.55993 0.0
C174 C 0.37716 0.1037 0.55309 0.0
C175 C 0.42845 0.1041 0.54707 0.0
C176 C 0.50877 0.05231 0.57373 0.0
C177 C 0.48577 0.00262 0.58168 0.0
C178 C 0.45529 0.99344 0.5978 0.0
C179 C 0.44697 0.03363 0.60606 0.0
C180 C 0.47483 0.0849 0.59884 0.0
C181 C 0.50545 0.0941 0.5828 0.0
C182 C 0.62193 0.06078 0.56271 0.0
C183 C 0.63727 0.02067 0.56262 0.0
C184 C 0.67903 0.02392 0.57468 0.0
C185 C 0.70459 0.06626 0.58744 0.0
C186 C 0.68843 0.10588 0.58778 0.0
C187 C 0.64786 0.10339 0.57541 0.0
C188 C 0.61153 0.06402 0.44381 0.0
C189 C 0.275 0.05679 0.56645 0.0
H190 H 0.60641 0.62942 0.99529 0.0
H191 H 0.32235 0.22514 0.83515 0.0
H192 H 0.58574 0.68753 0.89366 0.0
H193 H 0.64846 0.76928 0.91168 0.0
H194 H 0.78978 0.7322 0.90982 0.0
H195 H 0.72636 0.65036 0.89211 0.0
H196 H 0.5197 0.59132 0.92225 0.0
H197 H 0.54239 0.6101 0.95395 0.0
H198 H 0.69303 0.58705 0.94626 0.0
H199 H 0.66953 0.5681 0.91461 0.0
H200 H 0.42262 0.47478 0.90455 0.0
H201 H 0.3741 0.40616 0.92657 0.0
H202 H 0.53094 0.39147 0.92892 0.0
H203 H 0.57857 0.45961 0.90645 0.0
H204 H 0.40213 0.47275 0.86578 0.0
H205 H 0.32634 0.38585 0.85291 0.0
H206 H 0.45197 0.32994 0.85358 0.0
H207 H 0.52752 0.41732 0.86625 0.0
H208 H 0.46714 0.56511 0.84532 0.0
H209 H 0.41366 0.52333 0.81764 0.0
H210 H 0.5265 0.45568 0.80736 0.0
H211 H 0.58035 0.49839 0.83509 0.0
H212 H 0.56472 0.65876 0.84717 0.0
H213 H 0.62597 0.72316 0.8247 0.0
H214 H 0.76767 0.691 0.8345 0.0
H215 H 0.70641 0.6272 0.85671 0.0
O216 O 0.59857 0.62234 0.9827 0.0
O217 O 0.67517 0.6096 0.97806 0.0
O218 O 0.28883 0.2908 0.84 0.0
O219 O 0.35105 0.25946 0.84058 0.0
C220 C 0.60869 0.6082 0.88483 0.0
C221 C 0.57891 0.56703 0.89704 0.0
C222 C 0.53422 0.51539 0.89115 0.0
C223 C 0.51759 0.50541 0.87315 0.0
C224 C 0.54727 0.54661 0.86089 0.0
C225 C 0.59413 0.59768 0.86663 0.0
C226 C 0.65157 0.66312 0.89167 0.0
C227 C 0.63083 0.69794 0.89679 0.0
C228 C 0.6665 0.74432 0.90716 0.0
C229 C 0.72311 0.75618 0.91273 0.0
C230 C 0.7455 0.72328 0.90638 0.0
C231 C 0.7098 0.67694 0.89597 0.0
C232 C 0.59309 0.57853 0.91621 0.0
C233 C 0.55755 0.59038 0.92747 0.0
C234 C 0.57065 0.60111 0.94555 0.0
C235 C 0.61952 0.60006 0.95264 0.0
C236 C 0.65508 0.58819 0.94124 0.0
C237 C 0.64184 0.57741 0.92317 0.0
C238 C 0.50407 0.4722 0.904 0.0
C239 C 0.44633 0.45659 0.90981 0.0
C240 C 0.41907 0.41783 0.92261 0.0
C241 C 0.44949 0.39437 0.92992 0.0
C242 C 0.5068 0.4093 0.92369 0.0
C243 C 0.53399 0.44806 0.91089 0.0
C244 C 0.47018 0.45119 0.8669 0.0
C245 C 0.41299 0.44152 0.86324 0.0
C246 C 0.36987 0.39191 0.85586 0.0
C247 C 0.38318 0.35099 0.85215 0.0
C248 C 0.44027 0.36057 0.85623 0.0
C249 C 0.48341 0.4103 0.86355 0.0
C250 C 0.52769 0.53491 0.84214 0.0
C251 C 0.48165 0.54286 0.83677 0.0
C252 C 0.45037 0.51802 0.82112 0.0
C253 C 0.46468 0.48464 0.81067 0.0
C254 C 0.51425 0.48075 0.81529 0.0
C255 C 0.54534 0.50542 0.83101 0.0
C256 C 0.63118 0.63838 0.85356 0.0
C257 C 0.60909 0.66593 0.84447 0.0
C258 C 0.64417 0.70276 0.83172 0.0
C259 C 0.70215 0.71322 0.82805 0.0
C260 C 0.72411 0.68556 0.8373 0.0
C261 C 0.68892 0.6486 0.84994 0.0
C262 C 0.63298 0.61096 0.97188 0.0
C263 C 0.33802 0.29868 0.8439 0.0
H264 H 0.97379 0.17537 0.0766 0.0
C265 C 0.99708 0.15417 0.07943 0.0
H266 H 0.04255 0.13814 0.09893 0.0
H267 H 0.06223 0.3688 0.12652 0.0
H268 H 0.12856 0.40627 0.10147 0.0
H269 H 0.14517 0.34797 0.08022 0.0
H270 H 0.09536 0.25185 0.08381 0.0
C271 C 0.01923 0.159 0.09575 0.0
C272 C 0.01459 0.19494 0.10965 0.0
C273 C 0.04538 0.25137 0.10757 0.0
C274 C 0.03691 0.28516 0.12005 0.0
C275 C 0.06719 0.34123 0.11748 0.0
C276 C 0.10549 0.36334 0.10317 0.0
C277 C 0.1148 0.33051 0.0912 0.0
C278 C 0.08545 0.27524 0.09334 0.0
H279 H 0.0491 0.30436 0.16638 0.0
C280 C 0.0186 0.31757 0.16264 0.0
H281 H 0.96185 0.31411 0.14233 0.0
H282 H 0.95347 0.08939 0.11836 0.0
H283 H 0.89111 0.05253 0.1443 0.0
H284 H 0.8775 0.11141 0.16614 0.0
H285 H 0.92617 0.20758 0.16222 0.0
C286 C 0.98851 0.29831 0.14728 0.0
C287 C 0.99932 0.26277 0.13489 0.0
C288 C 0.97098 0.20683 0.13747 0.0
C289 C 0.97873 0.17285 0.12483 0.0
C290 C 0.94921 0.117 0.12757 0.0
C291 C 0.91328 0.09533 0.14239 0.0
C292 C 0.90563 0.1285 0.15469 0.0
C293 C 0.93388 0.18361 0.15231 0.0
H294 H 0.87239 0.00427 0.40224 0.0
C295 C 0.91198 0.04355 0.40086 0.0
H296 H 0.96301 0.12253 0.41184 0.0
H297 H 0.7562 0.12026 0.45758 0.0
H298 H 0.77112 0.18454 0.43547 0.0
H299 H 0.8367 0.19832 0.40977 0.0
H300 H 0.8885 0.14852 0.40612 0.0
C301 C 0.92352 0.08309 0.41299 0.0
C302 C 0.88387 0.07442 0.42851 0.0
C303 C 0.85362 0.10357 0.43034 0.0
C304 C 0.81522 0.09516 0.44504 0.0
C305 C 0.78565 0.12491 0.44661 0.0
C306 C 0.79377 0.16189 0.43402 0.0
C307 C 0.8308 0.16973 0.41956 0.0
C308 C 0.86036 0.14094 0.41765 0.0
H309 H 0.82832 0.10146 0.49071 0.0
C310 C 0.78161 0.07181 0.48849 0.0
H311 H 0.71725 0.02014 0.46946 0.0
H312 H 0.94288 0.01848 0.43076 0.0
H313 H 0.92843 0.95507 0.45302 0.0
H314 H 0.85751 0.93696 0.47757 0.0
H315 H 0.80132 0.98299 0.48013 0.0
C316 C 0.76415 0.0465 0.47251 0.0
C317 C 0.80716 0.0576 0.45784 0.0
C318 C 0.83834 0.02932 0.45626 0.0
C319 C 0.87761 0.0384 0.44175 0.0
C320 C 0.91054 0.01158 0.44104 0.0
C321 C 0.90308 0.97536 0.45384 0.0
C322 C 0.86327 0.96527 0.46769 0.0
C323 C 0.83129 0.99193 0.46899 0.0
H324 H 0.98113 0.97027 0.76335 0.0
C325 C 0.96439 0.94811 0.75079 0.0
H326 H 0.90155 0.87496 0.73809 0.0
H327 H 0.84059 0.72095 0.8007 0.0
H328 H 0.89534 0.69271 0.78114 0.0
H329 H 0.94886 0.74508 0.75516 0.0
H330 H 0.94761 0.82582 0.74852 0.0
C331 C 0.91798 0.89745 0.7506 0.0
C332 C 0.88941 0.86889 0.76715 0.0
C333 C 0.89146 0.82228 0.77105 0.0
C334 C 0.86148 0.79261 0.78621 0.0
C335 C 0.86323 0.74552 0.78952 0.0
C336 C 0.89442 0.72874 0.77838 0.0
C337 C 0.92448 0.75817 0.76374 0.0
C338 C 0.92321 0.8044 0.76006 0.0
H339 H 0.71274 0.75699 0.80362 0.0
C340 C 0.73715 0.75072 0.81385 0.0
H341 H 0.82293 0.77263 0.82318 0.0
H342 H 0.87094 0.95324 0.76275 0.0
H343 H 0.82039 0.98387 0.78311 0.0
H344 H 0.776 0.93689 0.81074 0.0
H345 H 0.78077 0.85818 0.81794 0.0
C346 C 0.79704 0.7772 0.81306 0.0
C347 C 0.82986 0.80981 0.79758 0.0
C348 C 0.8293 0.85736 0.79401 0.0
C349 C 0.85774 0.88615 0.77853 0.0
C350 C 0.85272 0.93125 0.77469 0.0
C351 C 0.82337 0.94907 0.78621 0.0
C352 C 0.79817 0.92251 0.80173 0.0
C353 C 0.80092 0.87716 0.80564 0.0
H354 H 0.08123 0.97121 0.09218 0.0
C355 C 0.10435 0.96926 0.08028 0.0
H356 H 0.14485 0.93049 0.06688 0.0
H357 H 0.12827 0.85788 0.15072 0.0
H358 H 0.19825 0.95184 0.15786 0.0
H359 H 0.22959 0.01992 0.13513 0.0
H360 H 0.19045 0.99454 0.10519 0.0
C361 C 0.12404 0.9343 0.07904 0.0
C362 C 0.10873 0.89348 0.09266 0.0
C363 C 0.13348 0.90883 0.10994 0.0
C364 C 0.11706 0.86927 0.12288 0.0
C365 C 0.14054 0.88597 0.14024 0.0
C366 C 0.18056 0.93983 0.14454 0.0
C367 C 0.19807 0.97818 0.13175 0.0
C368 C 0.17501 0.96311 0.11464 0.0
H369 H 0.14376 0.77888 0.13155 0.0
C370 C 0.09893 0.75802 0.13699 0.0
H371 H 0.01402 0.75128 0.13581 0.0
H372 H 0.05248 0.85027 0.0608 0.0
H373 H 0.98497 0.75607 0.05347 0.0
H374 H 0.95934 0.6873 0.07561 0.0
H375 H 0.00083 0.71243 0.10527 0.0
C376 C 0.06016 0.77241 0.13167 0.0
C377 C 0.07739 0.81429 0.11833 0.0
C378 C 0.05319 0.79891 0.10101 0.0
C379 C 0.06875 0.83851 0.08817 0.0
C380 C 0.04305 0.82194 0.07103 0.0
C381 C 0.00404 0.76794 0.06664 0.0
C382 C 0.98954 0.72924 0.07911 0.0
C383 C 0.01364 0.74427 0.0961 0.0
H384 H 0.23613 0.13302 0.39067 0.0
C385 C 0.19643 0.09355 0.39148 0.0
H386 H 0.15483 0.01921 0.40405 0.0
H387 H 0.3789 0.02448 0.43437 0.0
H388 H 0.35088 0.95642 0.41068 0.0
H389 H 0.27437 0.94108 0.38876 0.0
H390 H 0.2254 0.99361 0.3904 0.0
C391 C 0.1942 0.05886 0.4032 0.0
C392 C 0.24431 0.07223 0.4154 0.0
C393 C 0.27282 0.04147 0.41414 0.0
C394 C 0.31692 0.05029 0.42674 0.0
C395 C 0.3447 0.01901 0.42521 0.0
C396 C 0.32919 0.97997 0.41165 0.0
C397 C 0.28612 0.97134 0.39931 0.0
C398 C 0.25821 0.00166 0.40045 0.0
H399 H 0.30781 0.02918 0.46801 0.0
C400 C 0.35409 0.0615 0.4682 0.0
H401 H 0.41987 0.12747 0.4539 0.0
H402 H 0.19539 0.13601 0.42273 0.0
H403 H 0.2259 0.20535 0.44589 0.0
H404 H 0.30639 0.22366 0.46667 0.0
H405 H 0.35624 0.17188 0.46451 0.0
C406 C 0.37388 0.09542 0.45476 0.0
C407 C 0.33235 0.08981 0.44056 0.0
C408 C 0.30561 0.12196 0.44148 0.0
C409 C 0.26061 0.11253 0.4291 0.0
C410 C 0.23162 0.14274 0.4312 0.0
C411 C 0.24833 0.18248 0.44458 0.0
C412 C 0.29353 0.1927 0.45631 0.0
C413 C 0.32177 0.16271 0.45491 0.0
H414 H 0.15834 0.2169 0.75552 0.0
C415 C 0.17278 0.22938 0.74207 0.0
H416 H 0.23632 0.28998 0.72591 0.0
H417 H 0.33235 0.48574 0.78026 0.0
H418 H 0.28072 0.50907 0.75923 0.0
H419 H 0.21721 0.44376 0.73585 0.0
H420 H 0.20518 0.35484 0.73329 0.0
C421 C 0.22185 0.27721 0.73934 0.0
C422 C 0.25743 0.31502 0.7542 0.0
C423 C 0.26338 0.36664 0.75565 0.0
C424 C 0.29932 0.40408 0.76928 0.0
C425 C 0.30517 0.4556 0.77026 0.0
C426 C 0.27582 0.46954 0.75826 0.0
C427 C 0.24012 0.43279 0.74509 0.0
C428 C 0.23375 0.3819 0.74374 0.0
H429 H 0.4467 0.43765 0.78528 0.0
C430 C 0.42657 0.45054 0.79565 0.0
H431 H 0.34515 0.4399 0.80602 0.0
H432 H 0.26252 0.22219 0.75402 0.0
H433 H 0.30957 0.19743 0.77603 0.0
H434 H 0.3635 0.2591 0.80134 0.0
H435 H 0.37188 0.34645 0.8045 0.0
C436 C 0.36713 0.42943 0.79557 0.0
C437 C 0.32892 0.38977 0.78151 0.0
C438 C 0.32158 0.33761 0.78043 0.0
C439 C 0.2874 0.3008 0.76643 0.0
C440 C 0.285 0.25068 0.76489 0.0
C441 C 0.31233 0.23609 0.77737 0.0
C442 C 0.3429 0.27088 0.79157 0.0
C443 C 0.34769 0.3211 0.79315 0.0
H444 H 0.88508 0.0396 0.67837 0.0
C445 C 0.93015 0.07247 0.67624 0.0
H446 H 0.98628 0.13798 0.66055 0.0
H447 H 0.72622 0.98406 0.61721 0.0
H448 H 0.74621 0.9111 0.61876 0.0
H449 H 0.83661 0.92484 0.63361 0.0
H450 H 0.90581 0.01078 0.64766 0.0
C451 C 0.94115 0.10544 0.66285 0.0
C452 C 0.89266 0.09945 0.65103 0.0
C453 C 0.85577 0.05029 0.64145 0.0
C454 C 0.80692 0.04391 0.63136 0.0
C455 C 0.76659 0.99244 0.62382 0.0
C456 C 0.77716 0.94997 0.62479 0.0
C457 C 0.82779 0.95759 0.63325 0.0
C458 C 0.86681 0.00705 0.64147 0.0
H459 H 0.78075 0.05733 0.59463 0.0
C460 C 0.74989 0.06952 0.59974 0.0
H461 H 0.72069 0.09545 0.62225 0.0
H462 H 0.95402 0.19884 0.66774 0.0
H463 H 0.93902 0.27398 0.66403 0.0
H464 H 0.86126 0.26592 0.64395 0.0
H465 H 0.79737 0.18244 0.62769 0.0
C466 C 0.75216 0.08422 0.61699 0.0
C467 C 0.79912 0.08853 0.62911 0.0
C468 C 0.83721 0.13818 0.6382 0.0
C469 C 0.88331 0.14336 0.64938 0.0
C470 C 0.9192 0.19289 0.65877 0.0
C471 C 0.911 0.23641 0.6568 0.0
C472 C 0.86716 0.23184 0.64552 0.0
C473 C 0.83062 0.1835 0.63629 0.0
H474 H 0.95335 0.91792 0.00142 0.0
C475 C 0.94648 0.95123 0.00504 0.0
H476 H 0.89967 0.99068 0.99905 0.0
H477 H 0.86129 0.88892 0.92028 0.0
H478 H 0.93006 0.98304 0.91535 0.0
H479 H 0.97251 0.04874 0.9405 0.0
H480 H 0.94666 0.02051 0.97077 0.0
C481 C 0.90507 0.95613 0.9964 0.0
C482 C 0.87178 0.9181 0.98138 0.0
C483 C 0.88563 0.93558 0.96375 0.0
C484 C 0.86021 0.89783 0.94923 0.0
C485 C 0.87763 0.91596 0.9318 0.0
C486 C 0.91749 0.96991 0.92877 0.0
C487 C 0.94147 0.00688 0.94293 0.0
C488 C 0.92617 0.99012 0.96024 0.0
H489 H 0.74353 0.83193 0.92726 0.0
C490 C 0.75582 0.80115 0.92591 0.0
H491 H 0.80426 0.76963 0.9375 0.0
H492 H 0.83002 0.87309 0.01347 0.0
H493 H 0.75914 0.77932 0.01856 0.0
H494 H 0.71474 0.71376 0.99351 0.0
H495 H 0.74057 0.74129 0.96317 0.0
C496 C 0.79502 0.80227 0.93748 0.0
C497 C 0.81972 0.84291 0.95242 0.0
C498 C 0.80396 0.82592 0.97006 0.0
C499 C 0.82983 0.86362 0.98454 0.0
C500 C 0.81265 0.84583 0.00201 0.0
C501 C 0.77171 0.79222 0.00512 0.0
C502 C 0.74665 0.75529 0.99099 0.0
C503 C 0.76216 0.77168 0.97365 0.0
H504 H 0.96364 0.84256 0.34351 0.0
C505 C 0.98957 0.88159 0.33766 0.0
H506 H 0.04379 0.92414 0.31619 0.0
H507 H 0.03365 0.68702 0.31585 0.0
H508 H 0.08208 0.71664 0.34452 0.0
H509 H 0.10329 0.80338 0.35844 0.0
H510 H 0.07444 0.86003 0.34404 0.0
C511 C 0.01739 0.88536 0.32215 0.0
C512 C 0.01286 0.83688 0.31272 0.0
C513 C 0.0337 0.80594 0.32082 0.0
C514 C 0.02546 0.75782 0.31221 0.0
C515 C 0.04191 0.72541 0.3213 0.0
C516 C 0.06933 0.74172 0.33785 0.0
C517 C 0.08097 0.79039 0.34572 0.0
C518 C 0.06356 0.8223 0.33737 0.0
H519 H 0.08775 0.7246 0.28534 0.0
C520 C 0.0448 0.69222 0.28058 0.0
H521 H 0.95264 0.66532 0.27983 0.0
H522 H 0.96897 0.88709 0.29333 0.0
H523 H 0.92728 0.86095 0.26372 0.0
H524 H 0.92011 0.7815 0.24784 0.0
H525 H 0.95394 0.72744 0.26148 0.0
C526 C 0.99597 0.69481 0.28509 0.0
C527 C 0.00085 0.74291 0.2949 0.0
C528 C 0.98192 0.77486 0.28655 0.0
C529 C 0.98737 0.82149 0.29553 0.0
C530 C 0.96675 0.85178 0.28703 0.0
C531 C 0.94263 0.8372 0.27003 0.0
C532 C 0.93847 0.79242 0.2611 0.0
C533 C 0.95793 0.76158 0.26916 0.0
H534 H 0.22993 0.09054 0.67459 0.0
C535 C 0.1917 0.05367 0.6791 0.0
H536 H 0.14913 0.9689 0.67835 0.0
H537 H 0.28058 0.98031 0.60487 0.0
H538 H 0.17647 0.93118 0.59614 0.0
H539 H 0.09756 0.91593 0.61773 0.0
H540 H 0.12207 0.94901 0.64826 0.0
C541 C 0.18789 0.00652 0.67467 0.0
C542 C 0.23376 0.00566 0.66275 0.0
C543 C 0.21849 0.98532 0.64506 0.0
C544 C 0.26404 0.99475 0.63255 0.0
C545 C 0.24773 0.97476 0.61486 0.0
C546 C 0.18819 0.94646 0.60968 0.0
C547 C 0.14374 0.93778 0.62185 0.0
C548 C 0.15843 0.95702 0.63933 0.0
H549 H 0.39958 0.98807 0.62983 0.0
C550 C 0.40593 0.02017 0.62141 0.0
H551 H 0.37325 0.07074 0.61468 0.0
H552 H 0.27657 0.03882 0.69644 0.0
H553 H 0.3805 0.08574 0.70546 0.0
H554 H 0.46 0.10584 0.68353 0.0
H555 H 0.43617 0.07861 0.65255 0.0
C556 C 0.37173 0.04242 0.62398 0.0
C557 C 0.32464 0.02433 0.63779 0.0
C558 C 0.33963 0.04091 0.65579 0.0
C559 C 0.29397 0.03083 0.66834 0.0
C560 C 0.30981 0.04698 0.68631 0.0
C561 C 0.36916 0.07361 0.69166 0.0
C562 C 0.41391 0.08481 0.67932 0.0
C563 C 0.39961 0.06886 0.66157 0.0
H564 H 0.20528 0.22709 0.0122 0.0
C565 C 0.21128 0.19369 0.01528 0.0
H566 H 0.2624 0.15659 0.01017 0.0
H567 H 0.32453 0.26188 0.9345 0.0
H568 H 0.263 0.16732 0.92655 0.0
H569 H 0.21608 0.10021 0.9496 0.0
H570 H 0.23019 0.12745 0.98075 0.0
C571 C 0.25739 0.19109 0.00812 0.0
C572 C 0.29528 0.23028 0.99466 0.0
C573 C 0.28862 0.21341 0.97652 0.0
C574 C 0.31665 0.25203 0.96324 0.0
C575 C 0.30604 0.23433 0.94519 0.0
C576 C 0.27036 0.18008 0.94041 0.0
C577 C 0.24387 0.14231 0.95338 0.0
C578 C 0.25243 0.15854 0.97123 0.0
H579 H 0.44006 0.32688 0.94532 0.0
C580 C 0.4224 0.35342 0.94368 0.0
H581 H 0.36288 0.37701 0.95424 0.0
H582 H 0.32378 0.2746 0.02826 0.0
H583 H 0.38774 0.36915 0.03641 0.0
H584 H 0.43672 0.4363 0.01344 0.0
H585 H 0.42216 0.40939 0.98221 0.0
C586 C 0.37837 0.34856 0.95447 0.0
C587 C 0.35266 0.3073 0.9682 0.0
C588 C 0.36169 0.32375 0.98638 0.0
C589 C 0.33318 0.28516 0.99962 0.0
C590 C 0.34348 0.30253 0.01768 0.0
C591 C 0.38035 0.35657 0.02253 0.0
C592 C 0.40796 0.39437 0.0096 0.0
C593 C 0.39904 0.3784 0.99172 0.0
H594 H 0.09564 0.25563 0.33565 0.0
C595 C 0.07408 0.21363 0.33122 0.0
H596 H 0.02739 0.15754 0.31029 0.0
H597 H 0.0061 0.37593 0.29772 0.0
H598 H 0.94508 0.35063 0.32415 0.0
H599 H 0.92854 0.27281 0.34092 0.0
H600 H 0.97422 0.22069 0.33155 0.0
C601 C 0.04831 0.1991 0.31515 0.0
C602 C 0.04971 0.24005 0.30342 0.0
C603 C 0.01995 0.2683 0.3085 0.0
C604 C 0.02668 0.31126 0.29825 0.0
C605 C 1.00019 0.34129 0.30445 0.0
C606 C 0.96536 0.32746 0.31971 0.0
C607 C 0.95627 0.28381 0.32919 0.0
C608 C 0.98314 0.25447 0.32373 0.0
H609 H 0.97806 0.33241 0.26481 0.0
C610 C 0.02203 0.36752 0.26317 0.0
H611 H 0.11343 0.40136 0.26938 0.0
H612 H 0.10997 0.19234 0.28944 0.0
H613 H 0.16611 0.21391 0.26199 0.0
H614 H 0.17354 0.28514 0.24338 0.0
H615 H 0.12535 0.33557 0.25214 0.0
C616 C 0.06822 0.36905 0.27145 0.0
C617 C 0.0603 0.32388 0.28232 0.0
C618 C 0.0879 0.29406 0.27686 0.0
C619 C 0.0828 0.25232 0.28744 0.0
C620 C 0.1119 0.22406 0.28183 0.0
C621 C 0.14429 0.23603 0.2661 0.0
C622 C 0.14853 0.27618 0.25563 0.0
C623 C 0.12076 0.30494 0.26086 0.0
loop_
_geom_bond_atom_site_label_1
_geom_bond_atom_site_label_2
_geom_bond_distance
_geom_bond_site_symmetry_2
_ccdc_geom_bond_type
O0 Cd1 2.223 . S
O0 C8 1.315 . S
Cd1 O0 2.223 . S
Cd1 O4 2.297 . S
Cd1 O5 2.439 . S
Cd1 O11 2.240 . S
Cd2 O3 2.240 . S
Cd2 O10 2.223 1_545 S
Cd2 O12 2.297 1_545 S
Cd2 O13 2.439 1_545 S
O3 Cd2 2.240 . S
O3 C8 1.279 . S
O4 Cd1 2.297 . S
O4 C6 1.247 . S
O5 Cd1 2.439 . S
O5 C6 1.208 . S
C6 O4 1.247 . S
C6 O5 1.208 . S
C7 O12 1.247 . S
C7 O13 1.208 . S
C8 O0 1.315 . S
C8 O3 1.279 . S
C9 O10 1.315 . S
C9 O11 1.279 1_565 S
O10 Cd2 2.223 1_565 S
O10 C9 1.315 . S
O11 Cd1 2.240 . S
O11 C9 1.279 1_545 S
O12 Cd2 2.297 1_565 S
O12 C7 1.247 . S
O13 Cd2 2.439 1_565 S
O13 C7 1.208 . S
O14 Cd15 2.223 . S
O14 C22 1.315 1_455 S
Cd15 O14 2.223 . S
Cd15 O18 2.297 . S
Cd15 O19 2.439 . S
Cd15 O25 2.240 . S
Cd16 O17 2.240 1_565 S
Cd16 O24 2.223 1_655 S
Cd16 O26 2.297 1_655 S
Cd16 O27 2.439 1_655 S
O17 Cd16 2.240 1_545 S
O17 C22 1.279 . S
O18 Cd15 2.297 . S
O18 C20 1.247 . S
O19 Cd15 2.439 . S
O19 C20 1.208 . S
C20 O18 1.247 . S
C20 O19 1.208 . S
C21 O26 1.247 . S
C21 O27 1.208 . S
C22 O14 1.315 1_655 S
C22 O17 1.279 . S
C23 O24 1.315 1_545 S
C23 O25 1.279 . S
O24 Cd16 2.223 1_455 S
O24 C23 1.315 1_565 S
O25 Cd15 2.240 . S
O25 C23 1.279 . S
O26 Cd16 2.297 1_455 S
O26 C21 1.247 . S
O27 Cd16 2.439 1_455 S
O27 C21 1.208 . S
O28 Cd29 2.223 . S
O28 C36 1.315 . S
Cd29 O28 2.223 . S
Cd29 O32 2.297 1_445 S
Cd29 O33 2.439 . S
Cd29 O39 2.240 . S
Cd30 O31 2.240 . S
Cd30 O38 2.223 . S
Cd30 O40 2.297 . S
Cd30 O41 2.439 . S
O31 Cd30 2.240 . S
O31 C36 1.279 . S
O32 Cd29 2.297 1_665 S
O32 C34 1.247 . S
O33 Cd29 2.439 . S
O33 C34 1.208 1_445 S
C34 O32 1.247 . S
C34 O33 1.208 1_665 S
C35 O40 1.247 . S
C35 O41 1.208 . S
C36 O28 1.315 . S
C36 O31 1.279 . S
C37 O38 1.315 . S
C37 O39 1.279 . S
O38 Cd30 2.223 . S
O38 C37 1.315 . S
O39 Cd29 2.240 . S
O39 C37 1.279 . S
O40 Cd30 2.297 . S
O40 C35 1.247 . S
O41 Cd30 2.439 . S
O41 C35 1.208 . S
H42 O68 0.856 . S
H43 O71 0.854 . S
H44 C79 0.930 . S
H45 C80 0.930 . S
H46 C82 0.930 . S
H47 C83 0.930 . S
H48 C85 0.931 1_655 S
H49 C86 0.930 1_655 S
H50 C88 0.930 . S
H51 C89 0.929 . S
H52 C91 0.930 1_655 S
H53 C92 0.931 1_655 S
H54 C94 0.930 . S
H55 C95 0.929 . S
H56 C97 0.931 . S
H57 C98 0.936 . S
H58 C100 0.930 . S
H59 C101 0.932 . S
H60 C103 0.930 . S
H61 C104 0.929 . S
H62 C106 0.931 . S
H63 C107 0.930 . S
H64 C109 0.929 . S
H65 C110 0.931 . S
H66 C112 0.930 . S
H67 C113 0.929 . S
O68 H42 0.856 . S
O68 C114 1.300 . S
O69 C114 1.209 . S
O70 C115 1.199 . S
O71 H43 0.854 . S
O71 C115 1.297 . S
C72 C73 1.404 . S
C72 C77 1.397 . S
C72 C78 1.492 . S
C73 C72 1.404 . S
C73 C74 1.396 . S
C73 C84 1.492 . S
C74 C73 1.396 . S
C74 C75 1.397 . S
C74 C90 1.509 . S
C75 C74 1.397 . S
C75 C76 1.412 . S
C75 C96 1.485 . S
C76 C75 1.412 . S
C76 C77 1.388 . S
C76 C102 1.490 . S
C77 C72 1.397 . S
C77 C76 1.388 . S
C77 C108 1.519 . S
C78 C72 1.492 . S
C78 C79 1.363 1_455 S
C78 C83 1.390 . S
C79 H44 0.930 . S
C79 C78 1.363 1_655 S
C79 C80 1.372 . S
C80 H45 0.930 . S
C80 C79 1.372 . S
C80 C81 1.383 1_655 S
C81 C80 1.383 1_455 S
C81 C82 1.395 . S
C82 H46 0.930 . S
C82 C81 1.395 . S
C82 C83 1.362 . S
C83 H47 0.930 . S
C83 C78 1.390 . S
C83 C82 1.362 . S
C84 C73 1.492 . S
C84 C85 1.377 . S
C84 C89 1.397 . S
C85 H48 0.931 1_455 S
C85 C84 1.377 . S
C85 C86 1.376 . S
C86 H49 0.930 1_455 S
C86 C85 1.376 . S
C86 C87 1.376 . S
C87 C86 1.376 . S
C87 C88 1.378 . S
C87 C114 1.486 . S
C88 H50 0.930 . S
C88 C87 1.378 . S
C88 C89 1.376 . S
C89 H51 0.929 . S
C89 C84 1.397 . S
C89 C88 1.376 . S
C90 C74 1.509 . S
C90 C91 1.391 . S
C90 C95 1.386 . S
C91 H52 0.930 1_455 S
C91 C90 1.391 . S
C91 C92 1.375 . S
C92 H53 0.931 1_455 S
C92 C91 1.375 . S
C92 C93 1.375 . S
C93 C92 1.375 . S
C93 C94 1.361 . S
C94 H54 0.930 . S
C94 C93 1.361 . S
C94 C95 1.399 . S
C95 H55 0.929 . S
C95 C90 1.386 . S
C95 C94 1.399 . S
C96 C75 1.485 . S
C96 C97 1.394 1_455 S
C96 C101 1.360 . S
C97 H56 0.931 . S
C97 C96 1.394 1_655 S
C97 C98 1.369 . S
C98 H57 0.936 . S
C98 C97 1.369 . S
C98 C99 1.394 1_655 S
C99 C98 1.394 1_455 S
C99 C100 1.390 . S
C99 C115 1.476 . S
C100 H58 0.930 . S
C100 C99 1.390 . S
C100 C101 1.366 . S
C101 H59 0.932 . S
C101 C96 1.360 . S
C101 C100 1.366 . S
C102 C76 1.490 . S
C102 C103 1.380 1_455 S
C102 C107 1.386 . S
C103 H60 0.930 . S
C103 C102 1.380 1_655 S
C103 C104 1.381 . S
C104 H61 0.929 . S
C104 C103 1.381 . S
C104 C105 1.371 1_655 S
C105 C104 1.371 1_455 S
C105 C106 1.380 . S
C106 H62 0.931 . S
C106 C105 1.380 . S
C106 C107 1.387 . S
C107 H63 0.930 . S
C107 C102 1.386 . S
C107 C106 1.387 . S
C108 C77 1.519 . S
C108 C109 1.377 1_455 S
C108 C113 1.361 . S
C109 H64 0.929 . S
C109 C108 1.377 1_655 S
C109 C110 1.386 . S
C110 H65 0.931 . S
C110 C109 1.386 . S
C110 C111 1.363 1_655 S
C111 C110 1.363 1_455 S
C111 C112 1.385 . S
C112 H66 0.930 . S
C112 C111 1.385 . S
C112 C113 1.396 . S
C113 H67 0.929 . S
C113 C108 1.361 . S
C113 C112 1.396 . S
C114 O68 1.300 . S
C114 O69 1.209 . S
C114 C87 1.486 . S
C115 O70 1.199 . S
C115 O71 1.297 . S
C115 C99 1.476 . S
H116 O142 0.856 . S
H117 O145 0.854 . S
H118 C153 0.930 1_565 S
H119 C154 0.930 1_565 S
H120 C156 0.930 . S
H121 C157 0.930 . S
H122 C159 0.931 . S
H123 C160 0.933 . S
H124 C162 0.930 . S
H125 C163 0.929 . S
H126 C165 0.930 . S
H127 C166 0.931 . S
H128 C168 0.930 . S
H129 C169 0.929 . S
H130 C171 0.931 . S
H131 C172 0.930 . S
H132 C174 0.930 . S
H133 C175 0.932 . S
H134 C177 0.930 1_565 S
H135 C178 0.929 1_565 S
H136 C180 0.931 . S
H137 C181 0.930 . S
H138 C183 0.923 1_565 S
H139 C184 0.931 . S
H140 C186 0.930 . S
H141 C187 0.929 . S
O142 H116 0.856 . S
O142 C188 1.300 . S
O143 C188 1.209 . S
O144 C189 1.199 . S
O145 H117 0.854 . S
O145 C189 1.297 . S
C146 C147 1.404 . S
C146 C151 1.397 . S
C146 C152 1.492 . S
C147 C146 1.404 . S
C147 C148 1.396 . S
C147 C158 1.492 . S
C148 C147 1.396 . S
C148 C149 1.397 . S
C148 C164 1.509 . S
C149 C148 1.397 . S
C149 C150 1.412 . S
C149 C170 1.485 . S
C150 C149 1.412 . S
C150 C151 1.388 . S
C150 C176 1.490 . S
C151 C146 1.397 . S
C151 C150 1.388 . S
C151 C182 1.519 . S
C152 C146 1.492 . S
C152 C153 1.363 . S
C152 C157 1.390 . S
C153 H118 0.930 1_545 S
C153 C152 1.363 . S
C153 C154 1.372 . S
C154 H119 0.930 1_545 S
C154 C153 1.372 . S
C154 C155 1.383 . S
C155 C154 1.383 . S
C155 C156 1.395 . S
C156 H120 0.930 . S
C156 C155 1.395 . S
C156 C157 1.362 . S
C157 H121 0.930 . S
C157 C152 1.390 . S
C157 C156 1.362 . S
C158 C147 1.492 . S
C158 C159 1.377 . S
C158 C163 1.397 . S
C159 H122 0.931 . S
C159 C158 1.377 . S
C159 C160 1.376 . S
C160 H123 0.933 . S
C160 C159 1.376 . S
C160 C161 1.376 . S
C161 C160 1.376 . S
C161 C162 1.378 . S
C161 C188 1.486 . S
C162 H124 0.930 . S
C162 C161 1.378 . S
C162 C163 1.376 . S
C163 H125 0.929 . S
C163 C158 1.397 . S
C163 C162 1.376 . S
C164 C148 1.509 . S
C164 C165 1.391 . S
C164 C169 1.386 . S
C165 H126 0.930 . S
C165 C164 1.391 . S
C165 C166 1.375 . S
C166 H127 0.931 . S
C166 C165 1.375 . S
C166 C167 1.375 . S
C167 C166 1.375 . S
C167 C168 1.361 . S
C168 H128 0.930 . S
C168 C167 1.361 . S
C168 C169 1.399 . S
C169 H129 0.929 . S
C169 C164 1.386 . S
C169 C168 1.399 . S
C170 C149 1.485 . S
C170 C171 1.394 . S
C170 C175 1.360 . S
C171 H130 0.931 . S
C171 C170 1.394 . S
C171 C172 1.372 . S
C172 H131 0.930 . S
C172 C171 1.372 . S
C172 C173 1.397 . S
C173 C172 1.397 . S
C173 C174 1.390 . S
C173 C189 1.476 . S
C174 H132 0.930 . S
C174 C173 1.390 . S
C174 C175 1.366 . S
C175 H133 0.932 . S
C175 C170 1.360 . S
C175 C174 1.366 . S
C176 C150 1.490 . S
C176 C177 1.380 . S
C176 C181 1.386 . S
C177 H134 0.930 1_545 S
C177 C176 1.380 . S
C177 C178 1.381 . S
C178 H135 0.929 1_545 S
C178 C177 1.381 . S
C178 C179 1.371 . S
C179 C178 1.371 . S
C179 C180 1.380 . S
C180 H136 0.931 . S
C180 C179 1.380 . S
C180 C181 1.387 . S
C181 H137 0.930 . S
C181 C176 1.386 . S
C181 C180 1.387 . S
C182 C151 1.519 . S
C182 C183 1.377 . S
C182 C187 1.361 . S
C183 H138 0.923 1_545 S
C183 C182 1.377 . S
C183 C184 1.386 . S
C184 H139 0.931 . S
C184 C183 1.386 . S
C184 C185 1.363 . S
C185 C184 1.363 . S
C185 C186 1.385 . S
C186 H140 0.930 . S
C186 C185 1.385 . S
C186 C187 1.396 . S
C187 H141 0.929 . S
C187 C182 1.361 . S
C187 C186 1.396 . S
C188 O142 1.300 . S
C188 O143 1.209 . S
C188 C161 1.486 . S
C189 O144 1.199 . S
C189 O145 1.297 . S
C189 C173 1.476 . S
H190 O216 0.856 . S
H191 O219 0.854 . S
H192 C227 0.930 . S
H193 C228 0.930 . S
H194 C230 0.930 . S
H195 C231 0.930 . S
H196 C233 0.931 . S
H197 C234 0.930 . S
H198 C236 0.930 . S
H199 C237 0.929 . S
H200 C239 0.930 . S
H201 C240 0.931 . S
H202 C242 0.930 . S
H203 C243 0.929 . S
H204 C245 0.931 . S
H205 C246 0.930 . S
H206 C248 0.930 . S
H207 C249 0.932 . S
H208 C251 0.930 . S
H209 C252 0.929 . S
H210 C254 0.931 . S
H211 C255 0.930 . S
H212 C257 0.929 . S
H213 C258 0.931 . S
H214 C260 0.930 . S
H215 C261 0.929 . S
O216 H190 0.856 . S
O216 C262 1.300 . S
O217 C262 1.209 . S
O218 C263 1.199 . S
O219 H191 0.854 . S
O219 C263 1.297 . S
C220 C221 1.404 . S
C220 C225 1.397 . S
C220 C226 1.492 . S
C221 C220 1.404 . S
C221 C222 1.396 . S
C221 C232 1.492 . S
C222 C221 1.396 . S
C222 C223 1.397 . S
C222 C238 1.509 . S
C223 C222 1.397 . S
C223 C224 1.412 . S
C223 C244 1.485 . S
C224 C223 1.412 . S
C224 C225 1.388 . S
C224 C250 1.490 . S
C225 C220 1.397 . S
C225 C224 1.388 . S
C225 C256 1.519 . S
C226 C220 1.492 . S
C226 C227 1.363 . S
C226 C231 1.390 . S
C227 H192 0.930 . S
C227 C226 1.363 . S
C227 C228 1.372 . S
C228 H193 0.930 . S
C228 C227 1.372 . S
C228 C229 1.383 . S
C229 C228 1.383 . S
C229 C230 1.395 . S
C230 H194 0.930 . S
C230 C229 1.395 . S
C230 C231 1.362 . S
C231 H195 0.930 . S
C231 C226 1.390 . S
C231 C230 1.362 . S
C232 C221 1.492 . S
C232 C233 1.377 . S
C232 C237 1.397 . S
C233 H196 0.931 . S
C233 C232 1.377 . S
C233 C234 1.376 . S
C234 H197 0.930 . S
C234 C233 1.376 . S
C234 C235 1.376 . S
C235 C234 1.376 . S
C235 C236 1.378 . S
C235 C262 1.486 . S
C236 H198 0.930 . S
C236 C235 1.378 . S
C236 C237 1.376 . S
C237 H199 0.929 . S
C237 C232 1.397 . S
C237 C236 1.376 . S
C238 C222 1.509 . S
C238 C239 1.391 . S
C238 C243 1.386 . S
C239 H200 0.930 . S
C239 C238 1.391 . S
C239 C240 1.375 . S
C240 H201 0.931 . S
C240 C239 1.375 . S
C240 C241 1.375 . S
C241 C240 1.375 . S
C241 C242 1.361 . S
C242 H202 0.930 . S
C242 C241 1.361 . S
C242 C243 1.399 . S
C243 H203 0.929 . S
C243 C238 1.386 . S
C243 C242 1.399 . S
C244 C223 1.485 . S
C244 C245 1.394 . S
C244 C249 1.360 . S
C245 H204 0.931 . S
C245 C244 1.394 . S
C245 C246 1.372 . S
C246 H205 0.930 . S
C246 C245 1.372 . S
C246 C247 1.397 . S
C247 C246 1.397 . S
C247 C248 1.390 . S
C247 C263 1.476 . S
C248 H206 0.930 . S
C248 C247 1.390 . S
C248 C249 1.366 . S
C249 H207 0.932 . S
C249 C244 1.360 . S
C249 C248 1.366 . S
C250 C224 1.490 . S
C250 C251 1.380 . S
C250 C255 1.386 . S
C251 H208 0.930 . S
C251 C250 1.380 . S
C251 C252 1.381 . S
C252 H209 0.929 . S
C252 C251 1.381 . S
C252 C253 1.371 . S
C253 C252 1.371 . S
C253 C254 1.380 . S
C254 H210 0.931 . S
C254 C253 1.380 . S
C254 C255 1.387 . S
C255 H211 0.930 . S
C255 C250 1.386 . S
C255 C254 1.387 . S
C256 C225 1.519 . S
C256 C257 1.377 . S
C256 C261 1.361 . S
C257 H212 0.929 . S
C257 C256 1.377 . S
C257 C258 1.386 . S
C258 H213 0.931 . S
C258 C257 1.386 . S
C258 C259 1.363 . S
C259 C258 1.363 . S
C259 C260 1.385 . S
C260 H214 0.930 . S
C260 C259 1.385 . S
C260 C261 1.396 . S
C261 H215 0.929 . S
C261 C256 1.361 . S
C261 C260 1.396 . S
C262 O216 1.300 . S
C262 O217 1.209 . S
C262 C235 1.486 . S
C263 O218 1.199 . S
C263 O219 1.297 . S
C263 C247 1.476 . S
H264 C265 0.951 . S
C265 H264 0.951 . S
C265 C271 1.265 . S
H266 C271 0.950 . S
H267 C275 0.949 . S
H268 C276 0.950 . S
H269 C277 0.951 . S
H270 C278 0.951 . S
C271 C265 1.265 . S
C271 H266 0.950 . S
C271 C272 1.478 . S
C272 C271 1.478 . S
C272 C273 1.397 . S
C272 C289 1.394 . S
C273 C272 1.397 . S
C273 C274 1.438 . S
C273 C278 1.429 . S
C274 C273 1.438 . S
C274 C275 1.428 . S
C274 C287 1.394 . S
C275 H267 0.949 . S
C275 C274 1.428 . S
C275 C276 1.345 . S
C276 H268 0.950 . S
C276 C275 1.345 . S
C276 C277 1.424 . S
C277 H269 0.951 . S
C277 C276 1.424 . S
C277 C278 1.347 . S
C278 H270 0.951 . S
C278 C273 1.429 . S
C278 C277 1.347 . S
H279 C280 0.951 . S
C280 H279 0.951 . S
C280 C286 1.265 1_455 S
H281 C286 0.950 . S
H282 C290 0.949 . S
H283 C291 0.950 . S
H284 C292 0.951 . S
H285 C293 0.951 . S
C286 C280 1.265 1_655 S
C286 H281 0.950 . S
C286 C287 1.478 1_655 S
C287 C274 1.394 . S
C287 C286 1.478 1_455 S
C287 C288 1.397 . S
C288 C287 1.397 . S
C288 C289 1.438 . S
C288 C293 1.429 1_455 S
C289 C272 1.394 . S
C289 C288 1.438 . S
C289 C290 1.428 . S
C290 H282 0.949 . S
C290 C289 1.428 . S
C290 C291 1.345 1_455 S
C291 H283 0.950 . S
C291 C290 1.345 1_655 S
C291 C292 1.424 . S
C292 H284 0.951 . S
C292 C291 1.424 . S
C292 C293 1.347 . S
C293 H285 0.951 . S
C293 C288 1.429 1_655 S
C293 C292 1.347 . S
H294 C295 0.951 . S
C295 H294 0.951 . S
C295 C301 1.265 . S
H296 C301 0.950 . S
H297 C305 0.949 . S
H298 C306 0.950 . S
H299 C307 0.951 1_455 S
H300 C308 0.951 . S
C301 C295 1.265 . S
C301 H296 0.950 . S
C301 C302 1.478 . S
C302 C301 1.478 . S
C302 C303 1.397 . S
C302 C319 1.394 1_545 S
C303 C302 1.397 . S
C303 C304 1.438 . S
C303 C308 1.429 . S
C304 C303 1.438 . S
C304 C305 1.428 . S
C304 C317 1.394 . S
C305 H297 0.949 . S
C305 C304 1.428 . S
C305 C306 1.345 . S
C306 H298 0.950 . S
C306 C305 1.345 . S
C306 C307 1.424 . S
C307 H299 0.951 1_655 S
C307 C306 1.424 . S
C307 C308 1.347 . S
C308 H300 0.951 . S
C308 C303 1.429 . S
C308 C307 1.347 . S
H309 C310 0.951 . S
C310 H309 0.951 . S
C310 C316 1.265 . S
H311 C316 0.950 . S
H312 C320 0.949 . S
H313 C321 0.950 . S
H314 C322 0.951 . S
H315 C323 0.951 . S
C316 C310 1.265 . S
C316 H311 0.950 . S
C316 C317 1.478 . S
C317 C304 1.394 . S
C317 C316 1.478 . S
C317 C318 1.397 1_545 S
C318 C317 1.397 1_565 S
C318 C319 1.438 . S
C318 C323 1.429 . S
C319 C302 1.394 1_565 S
C319 C318 1.438 . S
C319 C320 1.428 . S
C320 H312 0.949 . S
C320 C319 1.428 . S
C320 C321 1.345 . S
C321 H313 0.950 . S
C321 C320 1.345 . S
C321 C322 1.424 . S
C322 H314 0.951 . S
C322 C321 1.424 . S
C322 C323 1.347 . S
C323 H315 0.951 . S
C323 C318 1.429 . S
C323 C322 1.347 . S
H324 C325 0.951 . S
C325 H324 0.951 . S
C325 C331 1.265 . S
H326 C331 0.950 . S
H327 C335 0.949 . S
H328 C336 0.950 . S
H329 C337 0.951 . S
H330 C338 0.951 . S
C331 C325 1.265 . S
C331 H326 0.950 . S
C331 C332 1.478 . S
C332 C331 1.478 . S
C332 C333 1.397 . S
C332 C349 1.394 . S
C333 C332 1.397 . S
C333 C334 1.438 . S
C333 C338 1.429 . S
C334 C333 1.438 . S
C334 C335 1.428 . S
C334 C347 1.394 . S
C335 H327 0.949 . S
C335 C334 1.428 . S
C335 C336 1.345 . S
C336 H328 0.950 . S
C336 C335 1.345 . S
C336 C337 1.424 . S
C337 H329 0.951 . S
C337 C336 1.424 . S
C337 C338 1.347 . S
C338 H330 0.951 . S
C338 C333 1.429 . S
C338 C337 1.347 . S
H339 C340 0.951 . S
C340 H339 0.951 . S
C340 C346 1.265 . S
H341 C346 0.950 . S
H342 C350 0.949 . S
H343 C351 0.950 1_545 S
H344 C352 0.951 . S
H345 C353 0.951 . S
C346 C340 1.265 . S
C346 H341 0.950 . S
C346 C347 1.478 . S
C347 C334 1.394 . S
C347 C346 1.478 . S
C347 C348 1.397 . S
C348 C347 1.397 . S
C348 C349 1.438 . S
C348 C353 1.429 . S
C349 C332 1.394 . S
C349 C348 1.438 . S
C349 C350 1.428 . S
C350 H342 0.949 . S
C350 C349 1.428 . S
C350 C351 1.345 . S
C351 H343 0.950 1_565 S
C351 C350 1.345 . S
C351 C352 1.424 . S
C352 H344 0.951 . S
C352 C351 1.424 . S
C352 C353 1.347 . S
C353 H345 0.951 . S
C353 C348 1.429 . S
C353 C352 1.347 . S
H354 C355 0.951 . S
C355 H354 0.951 . S
C355 C361 1.265 . S
H356 C361 0.950 . S
H357 C365 0.949 . S
H358 C366 0.950 . S
H359 C367 0.951 . S
H360 C368 0.951 . S
C361 C355 1.265 . S
C361 H356 0.950 . S
C361 C362 1.478 . S
C362 C361 1.478 . S
C362 C363 1.397 . S
C362 C379 1.394 . S
C363 C362 1.397 . S
C363 C364 1.438 . S
C363 C368 1.429 . S
C364 C363 1.438 . S
C364 C365 1.428 . S
C364 C377 1.394 . S
C365 H357 0.949 . S
C365 C364 1.428 . S
C365 C366 1.345 . S
C366 H358 0.950 . S
C366 C365 1.345 . S
C366 C367 1.424 . S
C367 H359 0.951 . S
C367 C366 1.424 . S
C367 C368 1.347 . S
C368 H360 0.951 . S
C368 C363 1.429 . S
C368 C367 1.347 . S
H369 C370 0.951 . S
C370 H369 0.951 . S
C370 C376 1.265 . S
H371 C376 0.950 . S
H372 C380 0.949 . S
H373 C381 0.950 1_655 S
H374 C382 0.951 . S
H375 C383 0.951 . S
C376 C370 1.265 . S
C376 H371 0.950 . S
C376 C377 1.478 . S
C377 C364 1.394 . S
C377 C376 1.478 . S
C377 C378 1.397 . S
C378 C377 1.397 . S
C378 C379 1.438 . S
C378 C383 1.429 . S
C379 C362 1.394 . S
C379 C378 1.438 . S
C379 C380 1.428 . S
C380 H372 0.949 . S
C380 C379 1.428 . S
C380 C381 1.345 . S
C381 H373 0.950 1_455 S
C381 C380 1.345 . S
C381 C382 1.424 1_455 S
C382 H374 0.951 . S
C382 C381 1.424 1_655 S
C382 C383 1.347 1_655 S
C383 H375 0.951 . S
C383 C378 1.429 . S
C383 C382 1.347 1_455 S
H384 C385 0.951 . S
C385 H384 0.951 . S
C385 C391 1.265 . S
H386 C391 0.950 . S
H387 C395 0.949 . S
H388 C396 0.950 . S
H389 C397 0.951 . S
H390 C398 0.951 . S
C391 C385 1.265 . S
C391 H386 0.950 . S
C391 C392 1.478 . S
C392 C391 1.478 . S
C392 C393 1.397 . S
C392 C409 1.394 . S
C393 C392 1.397 . S
C393 C394 1.438 . S
C393 C398 1.429 1_545 S
C394 C393 1.438 . S
C394 C395 1.428 1_545 S
C394 C407 1.394 . S
C395 H387 0.949 . S
C395 C394 1.428 1_565 S
C395 C396 1.345 . S
C396 H388 0.950 . S
C396 C395 1.345 . S
C396 C397 1.424 . S
C397 H389 0.951 . S
C397 C396 1.424 . S
C397 C398 1.347 . S
C398 H390 0.951 . S
C398 C393 1.429 1_565 S
C398 C397 1.347 . S
H399 C400 0.951 . S
C400 H399 0.951 . S
C400 C406 1.265 . S
H401 C406 0.950 . S
H402 C410 0.949 . S
H403 C411 0.950 . S
H404 C412 0.951 . S
H405 C413 0.951 . S
C406 C400 1.265 . S
C406 H401 0.950 . S
C406 C407 1.478 . S
C407 C394 1.394 . S
C407 C406 1.478 . S
C407 C408 1.397 . S
C408 C407 1.397 . S
C408 C409 1.438 . S
C408 C413 1.429 . S
C409 C392 1.394 . S
C409 C408 1.438 . S
C409 C410 1.428 . S
C410 H402 0.949 . S
C410 C409 1.428 . S
C410 C411 1.345 . S
C411 H403 0.950 . S
C411 C410 1.345 . S
C411 C412 1.424 . S
C412 H404 0.951 . S
C412 C411 1.424 . S
C412 C413 1.347 . S
C413 H405 0.951 . S
C413 C408 1.429 . S
C413 C412 1.347 . S
H414 C415 0.951 . S
C415 H414 0.951 . S
C415 C421 1.265 . S
H416 C421 0.950 . S
H417 C425 0.949 . S
H418 C426 0.950 . S
H419 C427 0.951 . S
H420 C428 0.951 . S
C421 C415 1.265 . S
C421 H416 0.950 . S
C421 C422 1.478 . S
C422 C421 1.478 . S
C422 C423 1.397 . S
C422 C439 1.394 . S
C423 C422 1.397 . S
C423 C424 1.438 . S
C423 C428 1.429 . S
C424 C423 1.438 . S
C424 C425 1.428 . S
C424 C437 1.394 . S
C425 H417 0.949 . S
C425 C424 1.428 . S
C425 C426 1.345 . S
C426 H418 0.950 . S
C426 C425 1.345 . S
C426 C427 1.424 . S
C427 H419 0.951 . S
C427 C426 1.424 . S
C427 C428 1.347 . S
C428 H420 0.951 . S
C428 C423 1.429 . S
C428 C427 1.347 . S
H429 C430 0.951 . S
C430 H429 0.951 . S
C430 C436 1.265 . S
H431 C436 0.950 . S
H432 C440 0.949 . S
H433 C441 0.950 . S
H434 C442 0.951 . S
H435 C443 0.951 . S
C436 C430 1.265 . S
C436 H431 0.950 . S
C436 C437 1.478 . S
C437 C424 1.394 . S
C437 C436 1.478 . S
C437 C438 1.397 . S
C438 C437 1.397 . S
C438 C439 1.438 . S
C438 C443 1.429 . S
C439 C422 1.394 . S
C439 C438 1.438 . S
C439 C440 1.428 . S
C440 H432 0.949 . S
C440 C439 1.428 . S
C440 C441 1.345 . S
C441 H433 0.950 . S
C441 C440 1.345 . S
C441 C442 1.424 . S
C442 H434 0.951 . S
C442 C441 1.424 . S
C442 C443 1.347 . S
C443 H435 0.951 . S
C443 C438 1.429 . S
C443 C442 1.347 . S
H444 C445 0.951 . S
C445 H444 0.951 . S
C445 C451 1.265 . S
H446 C451 0.950 . S
H447 C455 0.949 . S
H448 C456 0.950 . S
H449 C457 0.951 . S
H450 C458 0.951 . S
C451 C445 1.265 . S
C451 H446 0.950 . S
C451 C452 1.478 . S
C452 C451 1.478 . S
C452 C453 1.397 . S
C452 C469 1.394 . S
C453 C452 1.397 . S
C453 C454 1.438 . S
C453 C458 1.429 . S
C454 C453 1.438 . S
C454 C455 1.428 . S
C454 C467 1.394 . S
C455 H447 0.949 . S
C455 C454 1.428 . S
C455 C456 1.345 1_545 S
C456 H448 0.950 . S
C456 C455 1.345 1_565 S
C456 C457 1.424 . S
C457 H449 0.951 . S
C457 C456 1.424 . S
C457 C458 1.347 1_565 S
C458 H450 0.951 . S
C458 C453 1.429 . S
C458 C457 1.347 1_545 S
H459 C460 0.951 . S
C460 H459 0.951 . S
C460 C466 1.265 . S
H461 C466 0.950 . S
H462 C470 0.949 . S
H463 C471 0.950 . S
H464 C472 0.951 . S
H465 C473 0.951 . S
C466 C460 1.265 . S
C466 H461 0.950 . S
C466 C467 1.478 . S
C467 C454 1.394 . S
C467 C466 1.478 . S
C467 C468 1.397 . S
C468 C467 1.397 . S
C468 C469 1.438 . S
C468 C473 1.429 . S
C469 C452 1.394 . S
C469 C468 1.438 . S
C469 C470 1.428 . S
C470 H462 0.949 . S
C470 C469 1.428 . S
C470 C471 1.345 . S
C471 H463 0.950 . S
C471 C470 1.345 . S
C471 C472 1.424 . S
C472 H464 0.951 . S
C472 C471 1.424 . S
C472 C473 1.347 . S
C473 H465 0.951 . S
C473 C468 1.429 . S
C473 C472 1.347 . S
H474 C475 0.953 . S
C475 H474 0.953 . S
C475 C481 1.265 . S
H476 C481 0.979 . S
H477 C485 0.949 . S
H478 C486 0.950 . S
H479 C487 0.951 1_545 S
H480 C488 0.954 . S
C481 C475 1.265 . S
C481 H476 0.979 . S
C481 C482 1.478 . S
C482 C481 1.478 . S
C482 C483 1.397 . S
C482 C499 1.394 . S
C483 C482 1.397 . S
C483 C484 1.438 . S
C483 C488 1.429 . S
C484 C483 1.438 . S
C484 C485 1.428 . S
C484 C497 1.394 . S
C485 H477 0.949 . S
C485 C484 1.428 . S
C485 C486 1.345 . S
C486 H478 0.950 . S
C486 C485 1.345 . S
C486 C487 1.424 . S
C487 H479 0.951 1_565 S
C487 C486 1.424 . S
C487 C488 1.347 . S
C488 H480 0.954 . S
C488 C483 1.429 . S
C488 C487 1.347 . S
H489 C490 0.951 . S
C490 H489 0.951 . S
C490 C496 1.265 . S
H491 C496 0.950 . S
H492 C500 0.949 . S
H493 C501 0.950 . S
H494 C502 0.951 . S
H495 C503 0.951 . S
C496 C490 1.265 . S
C496 H491 0.950 . S
C496 C497 1.478 . S
C497 C484 1.394 . S
C497 C496 1.478 . S
C497 C498 1.397 . S
C498 C497 1.397 . S
C498 C499 1.438 . S
C498 C503 1.429 . S
C499 C482 1.394 . S
C499 C498 1.438 . S
C499 C500 1.428 . S
C500 H492 0.949 . S
C500 C499 1.428 . S
C500 C501 1.345 . S
C501 H493 0.950 . S
C501 C500 1.345 . S
C501 C502 1.424 . S
C502 H494 0.951 . S
C502 C501 1.424 . S
C502 C503 1.347 . S
C503 H495 0.951 . S
C503 C498 1.429 . S
C503 C502 1.347 . S
H504 C505 0.951 1_655 S
C505 H504 0.951 1_455 S
C505 C511 1.265 . S
H506 C511 0.950 . S
H507 C515 0.949 . S
H508 C516 0.950 . S
H509 C517 0.951 . S
H510 C518 0.951 . S
C511 C505 1.265 . S
C511 H506 0.950 . S
C511 C512 1.478 . S
C512 C511 1.478 . S
C512 C513 1.397 . S
C512 C529 1.394 1_455 S
C513 C512 1.397 . S
C513 C514 1.438 . S
C513 C518 1.429 . S
C514 C513 1.438 . S
C514 C515 1.428 . S
C514 C527 1.394 . S
C515 H507 0.949 . S
C515 C514 1.428 . S
C515 C516 1.345 . S
C516 H508 0.950 . S
C516 C515 1.345 . S
C516 C517 1.424 . S
C517 H509 0.951 . S
C517 C516 1.424 . S
C517 C518 1.347 . S
C518 H510 0.951 . S
C518 C513 1.429 . S
C518 C517 1.347 . S
H519 C520 0.951 . S
C520 H519 0.951 . S
C520 C526 1.265 1_455 S
H521 C526 0.950 . S
H522 C530 0.949 . S
H523 C531 0.950 . S
H524 C532 0.951 . S
H525 C533 0.951 . S
C526 C520 1.265 1_655 S
C526 H521 0.950 . S
C526 C527 1.478 1_655 S
C527 C514 1.394 . S
C527 C526 1.478 1_455 S
C527 C528 1.397 1_455 S
C528 C527 1.397 1_655 S
C528 C529 1.438 . S
C528 C533 1.429 . S
C529 C512 1.394 1_655 S
C529 C528 1.438 . S
C529 C530 1.428 . S
C530 H522 0.949 . S
C530 C529 1.428 . S
C530 C531 1.345 . S
C531 H523 0.950 . S
C531 C530 1.345 . S
C531 C532 1.424 . S
C532 H524 0.951 . S
C532 C531 1.424 . S
C532 C533 1.347 . S
C533 H525 0.951 . S
C533 C528 1.429 . S
C533 C532 1.347 . S
H534 C535 0.951 . S
C535 H534 0.951 . S
C535 C541 1.265 . S
H536 C541 0.950 . S
H537 C545 0.949 . S
H538 C546 0.950 . S
H539 C547 0.951 . S
H540 C548 0.951 . S
C541 C535 1.265 . S
C541 H536 0.950 . S
C541 C542 1.478 . S
C542 C541 1.478 . S
C542 C543 1.397 . S
C542 C559 1.394 . S
C543 C542 1.397 . S
C543 C544 1.438 . S
C543 C548 1.429 . S
C544 C543 1.438 . S
C544 C545 1.428 . S
C544 C557 1.394 . S
C545 H537 0.949 . S
C545 C544 1.428 . S
C545 C546 1.345 . S
C546 H538 0.950 . S
C546 C545 1.345 . S
C546 C547 1.424 . S
C547 H539 0.951 . S
C547 C546 1.424 . S
C547 C548 1.347 . S
C548 H540 0.951 . S
C548 C543 1.429 . S
C548 C547 1.347 . S
H549 C550 0.951 . S
C550 H549 0.951 . S
C550 C556 1.265 . S
H551 C556 0.950 . S
H552 C560 0.949 . S
H553 C561 0.950 . S
H554 C562 0.951 . S
H555 C563 0.951 . S
C556 C550 1.265 . S
C556 H551 0.950 . S
C556 C557 1.478 . S
C557 C544 1.394 . S
C557 C556 1.478 . S
C557 C558 1.397 . S
C558 C557 1.397 . S
C558 C559 1.438 . S
C558 C563 1.429 . S
C559 C542 1.394 . S
C559 C558 1.438 . S
C559 C560 1.428 . S
C560 H552 0.949 . S
C560 C559 1.428 . S
C560 C561 1.345 . S
C561 H553 0.950 . S
C561 C560 1.345 . S
C561 C562 1.424 . S
C562 H554 0.951 . S
C562 C561 1.424 . S
C562 C563 1.347 . S
C563 H555 0.951 . S
C563 C558 1.429 . S
C563 C562 1.347 . S
H564 C565 0.951 . S
C565 H564 0.951 . S
C565 C571 1.265 1_554 S
H566 C571 0.950 . S
H567 C575 0.949 . S
H568 C576 0.950 . S
H569 C577 0.951 . S
H570 C578 0.951 . S
C571 C565 1.265 1_556 S
C571 H566 0.950 . S
C571 C572 1.478 . S
C572 C571 1.478 . S
C572 C573 1.397 . S
C572 C589 1.394 . S
C573 C572 1.397 . S
C573 C574 1.438 . S
C573 C578 1.429 . S
C574 C573 1.438 . S
C574 C575 1.428 . S
C574 C587 1.394 . S
C575 H567 0.949 . S
C575 C574 1.428 . S
C575 C576 1.345 . S
C576 H568 0.950 . S
C576 C575 1.345 . S
C576 C577 1.424 . S
C577 H569 0.951 . S
C577 C576 1.424 . S
C577 C578 1.347 . S
C578 H570 0.951 . S
C578 C573 1.429 . S
C578 C577 1.347 . S
H579 C580 0.951 . S
C580 H579 0.951 . S
C580 C586 1.265 . S
H581 C586 0.950 . S
H582 C590 0.949 . S
H583 C591 0.950 . S
H584 C592 0.951 . S
H585 C593 0.951 . S
C586 C580 1.265 . S
C586 H581 0.950 . S
C586 C587 1.478 . S
C587 C574 1.394 . S
C587 C586 1.478 . S
C587 C588 1.397 . S
C588 C587 1.397 . S
C588 C589 1.438 . S
C588 C593 1.429 . S
C589 C572 1.394 . S
C589 C588 1.438 . S
C589 C590 1.428 1_556 S
C590 H582 0.949 . S
C590 C589 1.428 1_554 S
C590 C591 1.345 . S
C591 H583 0.950 . S
C591 C590 1.345 . S
C591 C592 1.424 . S
C592 H584 0.951 . S
C592 C591 1.424 . S
C592 C593 1.347 1_554 S
C593 H585 0.951 . S
C593 C588 1.429 . S
C593 C592 1.347 1_556 S
H594 C595 0.951 . S
C595 H594 0.951 . S
C595 C601 1.265 . S
H596 C601 0.950 1_655 S
H597 C605 0.949 . S
H598 C606 0.950 . S
H599 C607 0.951 . S
H600 C608 0.951 . S
C601 C595 1.265 . S
C601 H596 0.950 1_455 S
C601 C602 1.478 . S
C602 C601 1.478 . S
C602 C603 1.397 1_455 S
C602 C619 1.394 . S
C603 C602 1.397 1_655 S
C603 C604 1.438 1_655 S
C603 C608 1.429 . S
C604 C603 1.438 1_455 S
C604 C605 1.428 1_455 S
C604 C617 1.394 . S
C605 H597 0.949 . S
C605 C604 1.428 1_655 S
C605 C606 1.345 . S
C606 H598 0.950 . S
C606 C605 1.345 . S
C606 C607 1.424 . S
C607 H599 0.951 . S
C607 C606 1.424 . S
C607 C608 1.347 . S
C608 H600 0.951 . S
C608 C603 1.429 . S
C608 C607 1.347 . S
H609 C610 0.951 . S
C610 H609 0.951 . S
C610 C616 1.265 . S
H611 C616 0.950 . S
H612 C620 0.949 . S
H613 C621 0.950 . S
H614 C622 0.951 . S
H615 C623 0.951 . S
C616 C610 1.265 . S
C616 H611 0.950 . S
C616 C617 1.478 . S
C617 C604 1.394 . S
C617 C616 1.478 . S
C617 C618 1.397 . S
C618 C617 1.397 . S
C618 C619 1.438 . S
C618 C623 1.429 . S
C619 C602 1.394 . S
C619 C618 1.438 . S
C619 C620 1.428 . S
C620 H612 0.949 . S
C620 C619 1.428 . S
C620 C621 1.345 . S
C621 H613 0.950 . S
C621 C620 1.345 . S
C621 C622 1.424 . S
C622 H614 0.951 . S
C622 C621 1.424 . S
C622 C623 1.347 . S
C623 H615 0.951 . S
C623 C618 1.429 . S
C623 C622 1.347 . S
C280 C81 1.401 . S
C265 C6 1.455 . S
C295 C22 1.556 . S
C310 C155 1.521 . S
C325 C34 1.895 . S
C340 C259 1.912 . S
C355 C7 0.856 . S
C370 C93 0.840 . S
C400 C167 0.908 . S
C385 C23 0.901 . S
C415 C35 1.263 . S
C430 C253 1.248 . S
C460 C185 2.179 . S
C445 C36 2.163 1_655 S
C475 C9 1.778 1_656 S
C490 C229 1.701 . S
C520 C105 1.419 . S
C505 C21 1.503 . S
C550 C179 1.458 . S
C535 C37 1.526 . S
C580 C241 1.108 . S
C565 C8 1.047 . S
C595 C20 2.153 . S
C610 C111 2.195 . S
