# Generated by pormake.
# Topology anh, (6,3)-cn, num edge types: 1
# Building blocks:
#     Node 0, Type 0, BuildingBlock: BETFAJ_clean_sbu_0, # of connection points: 6
#     Node 1, Type 0, BuildingBlock: BETFAJ_clean_sbu_0, # of connection points: 6
#     Node 2, Type 0, BuildingBlock: BETFAJ_clean_sbu_0, # of connection points: 6
#     Node 3, Type 1, BuildingBlock: KAKCAD_clean_linker_0, # of connection points: 3
#     Node 4, Type 1, BuildingBlock: KAKCAD_clean_linker_0, # of connection points: 3
#     Node 5, Type 1, BuildingBlock: KAKCAD_clean_linker_0, # of connection points: 3
#     Node 6, Type 1, BuildingBlock: KAKCAD_clean_linker_0, # of connection points: 3
#     Node 7, Type 1, BuildingBlock: KAKCAD_clean_linker_0, # of connection points: 3
#     Node 8, Type 1, BuildingBlock: KAKCAD_clean_linker_0, # of connection points: 3
#     Edge 9, Type (0, 1), BuildingBlock: TEMPAE_clean_linker_10, # of connection points: 2
#     Edge 10, Type (0, 1), BuildingBlock: TEMPAE_clean_linker_10, # of connection points: 2
#     Edge 11, Type (0, 1), BuildingBlock: TEMPAE_clean_linker_10, # of connection points: 2
#     Edge 12, Type (0, 1), BuildingBlock: TEMPAE_clean_linker_10, # of connection points: 2
#     Edge 13, Type (0, 1), BuildingBlock: TEMPAE_clean_linker_10, # of connection points: 2
#     Edge 14, Type (0, 1), BuildingBlock: TEMPAE_clean_linker_10, # of connection points: 2
#     Edge 15, Type (0, 1), BuildingBlock: TEMPAE_clean_linker_10, # of connection points: 2
#     Edge 16, Type (0, 1), BuildingBlock: TEMPAE_clean_linker_10, # of connection points: 2
#     Edge 17, Type (0, 1), BuildingBlock: TEMPAE_clean_linker_10, # of connection points: 2
#     Edge 18, Type (0, 1), BuildingBlock: TEMPAE_clean_linker_10, # of connection points: 2
#     Edge 19, Type (0, 1), BuildingBlock: TEMPAE_clean_linker_10, # of connection points: 2
#     Edge 20, Type (0, 1), BuildingBlock: TEMPAE_clean_linker_10, # of connection points: 2
#     Edge 21, Type (0, 1), BuildingBlock: TEMPAE_clean_linker_10, # of connection points: 2
#     Edge 22, Type (0, 1), BuildingBlock: TEMPAE_clean_linker_10, # of connection points: 2
#     Edge 23, Type (0, 1), BuildingBlock: TEMPAE_clean_linker_10, # of connection points: 2
#     Edge 24, Type (0, 1), BuildingBlock: TEMPAE_clean_linker_10, # of connection points: 2
#     Edge 25, Type (0, 1), BuildingBlock: TEMPAE_clean_linker_10, # of connection points: 2
#     Edge 26, Type (0, 1), BuildingBlock: TEMPAE_clean_linker_10, # of connection points: 2
# Relax obj value: 0.181
# Max RMSD: 0.208
# Mean RMSD: 0.155
data_MOF--net-anh--node1-BETFAJ_clean_sbu_0--node2-KAKCAD_clean_linker_0--edge1-TEMPAE_clean_linker_10
_symmetry_space_group_name_H-M    P1
_symmetry_Int_Tables_number       1
_symmetry_cell_setting            triclinic
loop_
_symmetry_equiv_pos_as_xyz
'x, y, z'
_cell_length_a     38.144969
_cell_length_b     44.504155
_cell_length_c     67.535299
_cell_angle_alpha  92.398671
_cell_angle_beta   89.497289
_cell_angle_gamma 128.60726
loop_
_atom_site_label
_atom_site_type_symbol
_atom_site_fract_x
_atom_site_fract_y
_atom_site_fract_z
_atom_type_partial_charge
Sm0 Sm 0.09528 0.4992 0.15458 0.0
Sm1 Sm 0.04662 0.53046 0.15906 0.0
C2 C 0.15486 0.48866 0.14984 0.0
C3 C 0.2029 0.51692 0.1546 0.0
C4 C 0.22984 0.55237 0.14538 0.0
C5 C 0.27572 0.57838 0.14966 0.0
C6 C 0.2951 0.56905 0.16308 0.0
C7 C 0.26715 0.5359 0.17407 0.0
C8 C 0.22144 0.50981 0.16968 0.0
C9 C 0.07265 0.50319 0.19271 0.0
C10 C 0.15268 0.59475 0.15667 0.0
C11 C 0.99886 0.54502 0.17868 0.0
C12 C 0.95271 0.51746 0.18467 0.0
C13 C 0.93694 0.52602 0.20091 0.0
C14 C 0.89125 0.50144 0.20479 0.0
C15 C 0.86177 0.46886 0.19219 0.0
C16 C 0.87886 0.45697 0.17834 0.0
C17 C 0.92416 0.48181 0.17419 0.0
C18 C 0.05128 0.52169 0.11832 0.0
C19 C 0.99041 0.43671 0.15286 0.0
O20 O 0.1397 0.49584 0.13497 0.0
O21 O 0.12908 0.47656 0.1652 0.0
O22 O 0.09061 0.5296 0.18055 0.0
O23 O 0.06337 0.47209 0.18451 0.0
O24 O 0.15354 0.56555 0.15391 0.0
O25 O 0.11499 0.58923 0.15951 0.0
O26 O 1.02623 0.54138 0.18743 0.0
O27 O 1.00489 0.54934 0.15956 0.0
O28 O 0.06725 0.51353 0.13144 0.0
O29 O 1.0323 0.53501 0.12657 0.0
O30 O 0.99259 0.46453 0.16213 0.0
O31 O 1.02619 0.44404 0.14457 0.0
H32 H 0.216 0.55935 0.13424 0.0
H33 H 0.29665 0.60373 0.14101 0.0
H34 H 0.28118 0.5278 0.18443 0.0
H35 H 0.20091 0.48332 0.17751 0.0
H36 H 0.95917 0.55288 0.20955 0.0
H37 H 0.87839 0.51093 0.21556 0.0
H38 H 0.85642 0.43201 0.16843 0.0
H39 H 0.93592 0.47459 0.16169 0.0
Sm40 Sm 0.58425 0.99916 0.48109 0.0
Sm41 Sm 0.52666 0.02778 0.4763 0.0
C42 C 0.6161 0.96733 0.49669 0.0
C43 C 0.60279 0.92832 0.49451 0.0
C44 C 0.55963 0.8959 0.49969 0.0
C45 C 0.54767 0.85922 0.49788 0.0
C46 C 0.57839 0.85419 0.49067 0.0
C47 C 0.62088 0.88632 0.4848 0.0
C48 C 0.63305 0.92313 0.4868 0.0
C49 C 0.56708 0.99856 0.44122 0.0
C50 C 0.47362 0.93603 0.4741 0.0
C51 C 0.49593 0.06378 0.4652 0.0
C52 C 0.51022 0.1027 0.46868 0.0
C53 C 0.50117 0.11886 0.45425 0.0
C54 C 0.51395 0.1557 0.45758 0.0
C55 C 0.53583 0.17672 0.47544 0.0
C56 C 0.54615 0.16087 0.48959 0.0
C57 C 0.53362 0.12418 0.48619 0.0
C58 C 0.53512 0.01205 0.51396 0.0
C59 C 0.63846 0.09202 0.4815 0.0
O60 O 0.58787 0.97033 0.50587 0.0
O61 O 0.63392 0.98851 0.48116 0.0
O62 O 0.5543 0.00753 0.45588 0.0
O63 O 0.59025 0.98847 0.44761 0.0
O64 O 0.51055 0.94333 0.48131 0.0
O65 O 0.47263 0.96349 0.46823 0.0
O66 O 0.52259 0.06124 0.45434 0.0
O67 O 0.4811 0.0423 0.48061 0.0
O68 O 0.56593 0.02882 0.50142 0.0
O69 O 0.49879 0.00507 0.50715 0.0
O70 O 0.59934 0.0851 0.47993 0.0
O71 O 0.64208 0.06438 0.48237 0.0
H72 H 0.53516 0.89878 0.50536 0.0
H73 H 0.5146 0.83478 0.50236 0.0
H74 H 0.64525 0.88313 0.47937 0.0
H75 H 0.6663 0.94762 0.48254 0.0
H76 H 0.48372 0.10279 0.44053 0.0
H77 H 0.50549 0.16724 0.44648 0.0
H78 H 0.56362 0.17676 0.50333 0.0
H79 H 0.54178 0.11244 0.49732 0.0
Sm80 Sm 0.62256 0.57204 0.82784 0.0
Sm81 Sm 0.56016 0.48666 0.8304 0.0
C82 C 0.65902 0.64193 0.81659 0.0
C83 C 0.64498 0.66628 0.8163 0.0
C84 C 0.63498 0.67377 0.79811 0.0
C85 C 0.62187 0.6968 0.79745 0.0
C86 C 0.61893 0.71327 0.81498 0.0
C87 C 0.6282 0.70526 0.83325 0.0
C88 C 0.64109 0.68199 0.83391 0.0
C89 C 0.60899 0.54801 0.86529 0.0
C90 C 0.5103 0.52633 0.83355 0.0
C91 C 0.52126 0.41447 0.8386 0.0
C92 C 0.5315 0.38743 0.83603 0.0
C93 C 0.55382 0.38402 0.85119 0.0
C94 C 0.56264 0.3579 0.84888 0.0
C95 C 0.54882 0.33456 0.83149 0.0
C96 C 0.52676 0.33791 0.81633 0.0
C97 C 0.5182 0.36412 0.81855 0.0
C98 C 0.57334 0.51147 0.79267 0.0
C99 C 0.6732 0.53355 0.8312 0.0
O100 O 0.6374 0.61162 0.80431 0.0
O101 O 0.66735 0.63524 0.83392 0.0
O102 O 0.57907 0.53382 0.85199 0.0
O103 O 0.64774 0.57816 0.85963 0.0
O104 O 0.55086 0.55817 0.82892 0.0
O105 O 0.50542 0.49457 0.83671 0.0
O106 O 0.5462 0.44348 0.85142 0.0
O107 O 0.51199 0.42404 0.82256 0.0
O108 O 0.60406 0.52488 0.80558 0.0
O109 O 0.53447 0.48332 0.79916 0.0
O110 O 0.63161 0.5013 0.83379 0.0
O111 O 0.67918 0.56538 0.82688 0.0
H112 H 0.63736 0.66183 0.78433 0.0
H113 H 0.61408 0.70176 0.78316 0.0
H114 H 0.62656 0.71772 0.847 0.0
H115 H 0.64833 0.67662 0.84822 0.0
H116 H 0.56419 0.40131 0.86491 0.0
H117 H 0.5795 0.35544 0.86076 0.0
H118 H 0.51591 0.32003 0.8028 0.0
H119 H 0.50083 0.36586 0.80662 0.0
C120 C 0.57194 0.06161 0.28482 0.0
C121 C 0.56058 0.0296 0.29481 0.0
C122 C 0.57318 0.06156 0.26403 0.0
C123 C 0.56352 0.02963 0.25289 0.0
C124 C 0.55358 0.99825 0.26308 0.0
C125 C 0.5518 0.99813 0.2837 0.0
C126 C 0.56352 0.0283 0.23076 0.0
C127 C 0.59562 0.06083 0.22018 0.0
C128 C 0.59759 0.05845 0.19936 0.0
C129 C 0.56776 0.02208 0.18914 0.0
C130 C 0.53504 0.98898 0.19962 0.0
C131 C 0.53225 0.99333 0.22019 0.0
C132 C 0.50399 0.94911 0.1901 0.0
C133 C 0.48332 0.94131 0.17139 0.0
C134 C 0.49198 0.91764 0.20089 0.0
C135 C 0.45778 0.87987 0.19423 0.0
C136 C 0.4355 0.87147 0.17586 0.0
C137 C 0.63233 0.09441 0.189 0.0
C138 C 0.63929 0.12874 0.19428 0.0
C139 C 0.66167 0.09598 0.17551 0.0
C140 C 0.69845 0.1314 0.16833 0.0
C141 C 0.70646 0.16599 0.17433 0.0
C142 C 0.67571 0.16394 0.18707 0.0
C143 C 0.44985 0.90302 0.16427 0.0
H144 H 0.57893 0.0863 0.29305 0.0
H145 H 0.58084 0.08617 0.25672 0.0
H146 H 0.54741 0.97366 0.25513 0.0
H147 H 0.54403 0.97345 0.291 0.0
H148 H 0.62022 0.08797 0.22822 0.0
H149 H 0.50559 0.96889 0.22825 0.0
H150 H 0.57018 0.01962 0.17325 0.0
H151 H 0.49183 0.96468 0.16252 0.0
H152 H 0.50804 0.92208 0.21505 0.0
H153 H 0.44815 0.85757 0.20417 0.0
H154 H 0.61715 0.12853 0.20454 0.0
H155 H 0.65739 0.07013 0.1712 0.0
H156 H 0.43496 0.89846 0.14979 0.0
H157 H 0.68079 0.18982 0.19218 0.0
H158 H 0.72109 0.1318 0.15835 0.0
C159 C 0.53903 0.52624 0.63544 0.0
C160 C 0.57461 0.53102 0.64527 0.0
C161 C 0.53693 0.52483 0.61471 0.0
C162 C 0.56982 0.52726 0.60357 0.0
C163 C 0.6053 0.53194 0.61346 0.0
C164 C 0.6079 0.53418 0.63415 0.0
C165 C 0.56741 0.52491 0.58164 0.0
C166 C 0.56362 0.54947 0.57131 0.0
C167 C 0.56465 0.5491 0.55052 0.0
C168 C 0.56876 0.52359 0.54011 0.0
C169 C 0.57081 0.49771 0.55016 0.0
C170 C 0.57028 0.49876 0.57102 0.0
C171 C 0.57324 0.46963 0.53886 0.0
C172 C 0.5513 0.4537 0.52026 0.0
C173 C 0.59711 0.45817 0.54662 0.0
C174 C 0.59782 0.43067 0.53642 0.0
C175 C 0.57574 0.41463 0.51788 0.0
C176 C 0.56231 0.57584 0.53956 0.0
C177 C 0.52902 0.57952 0.54377 0.0
C178 C 0.59331 0.59769 0.52472 0.0
C179 C 0.59166 0.62344 0.51456 0.0
C180 C 0.55871 0.62745 0.51893 0.0
C181 C 0.52708 0.60499 0.53345 0.0
C182 C 0.55307 0.42699 0.5098 0.0
H183 H 0.51302 0.52373 0.64381 0.0
H184 H 0.50924 0.52115 0.60738 0.0
H185 H 0.6312 0.53414 0.60516 0.0
H186 H 0.63547 0.53769 0.64149 0.0
H187 H 0.56162 0.56987 0.57945 0.0
H188 H 0.57128 0.47881 0.57913 0.0
H189 H 0.5703 0.52401 0.5241 0.0
H190 H 0.53192 0.46121 0.51385 0.0
H191 H 0.61526 0.47027 0.56066 0.0
H192 H 0.61494 0.42145 0.54337 0.0
H193 H 0.50453 0.56269 0.55503 0.0
H194 H 0.61941 0.59544 0.52127 0.0
H195 H 0.53624 0.41582 0.49544 0.0
H196 H 0.5017 0.60798 0.53724 0.0
H197 H 0.61641 0.64053 0.50343 0.0
C198 C 0.12438 0.54586 0.95815 0.0
C199 C 0.08303 0.523 0.96786 0.0
C200 C 0.12606 0.5472 0.93736 0.0
C201 C 0.08645 0.52581 0.92556 0.0
C202 C 1.04513 0.50295 0.93526 0.0
C203 C 1.04345 0.50156 0.95603 0.0
C204 C 0.08812 0.52733 0.90328 0.0
C205 C 0.12025 0.52757 0.89281 0.0
C206 C 0.12427 0.5301 0.87199 0.0
C207 C 0.0908 0.52968 0.86132 0.0
C208 C 0.05602 0.52812 0.87174 0.0
C209 C 0.05743 0.52837 0.89268 0.0
C210 C 1.01663 0.52564 0.8627 0.0
C211 C 1.02089 0.54879 0.8475 0.0
C212 C 0.97399 0.50277 0.87177 0.0
C213 C 0.93922 0.50472 0.86717 0.0
C214 C 0.94376 0.52884 0.85269 0.0
C215 C 0.16474 0.53352 0.86335 0.0
C216 C 0.20621 0.55554 0.87419 0.0
C217 C 0.16234 0.5118 0.84664 0.0
C218 C 0.19861 0.51097 0.8418 0.0
C219 C 0.2388 0.53127 0.85362 0.0
C220 C 0.24155 0.55407 0.86968 0.0
C221 C 0.9852 0.55007 0.84251 0.0
H222 H 0.15568 0.56254 0.96659 0.0
H223 H 0.15855 0.56544 0.93054 0.0
H224 H 1.01385 0.48573 0.92678 0.0
H225 H 1.01088 0.48398 0.96281 0.0
H226 H 0.14246 0.52527 0.90123 0.0
H227 H 1.03418 0.52978 0.90112 0.0
H228 H 0.09181 0.53055 0.84532 0.0
H229 H 0.05243 0.56715 0.83996 0.0
H230 H 0.96753 0.48356 0.88316 0.0
H231 H 0.90826 0.48692 0.87519 0.0
H232 H 0.21121 0.57362 0.88688 0.0
H233 H 0.13174 0.49413 0.8377 0.0
H234 H 0.99087 0.56899 0.83112 0.0
H235 H 0.27152 0.57118 0.87904 0.0
H236 H 0.19432 0.4931 0.82916 0.0
C237 C 1.01452 0.50129 0.35188 0.0
C238 C 0.05271 0.51164 0.34172 0.0
C239 C 1.01358 0.50067 0.37261 0.0
C240 C 0.05112 0.51111 0.3836 0.0
C241 C 0.08946 0.52186 0.37346 0.0
C242 C 0.0901 0.52179 0.35273 0.0
C243 C 0.05052 0.51135 0.4056 0.0
C244 C 1.01536 0.47912 0.41539 0.0
C245 C 1.01304 0.47926 0.4363 0.0
C246 C 0.04829 0.51281 0.44738 0.0
C247 C 0.08484 0.54507 0.43762 0.0
C248 C 0.08505 0.54392 0.41678 0.0
C249 C 0.12346 0.58087 0.44838 0.0
C250 C 0.11711 0.60114 0.46254 0.0
C251 C 0.1673 0.59807 0.44208 0.0
C252 C 0.2032 0.6357 0.44833 0.0
C253 C 0.19645 0.65697 0.46133 0.0
C254 C 0.97378 0.44379 0.44586 0.0
C255 C 0.93197 0.41978 0.43578 0.0
C256 C 0.97776 0.43183 0.46412 0.0
C257 C 0.94158 0.39622 0.4715 0.0
C258 C 0.90062 0.37096 0.4606 0.0
C259 C 0.89684 0.38386 0.44263 0.0
C260 C 0.15347 0.63898 0.46901 0.0
H261 H 0.98516 0.49314 0.34377 0.0
H262 H 0.98372 0.49252 0.38009 0.0
H263 H 0.11879 0.52993 0.38157 0.0
H264 H 0.12005 0.53007 0.34529 0.0
H265 H 0.99023 0.45351 0.40645 0.0
H266 H 0.112 0.56898 0.40911 0.0
H267 H 0.04756 0.51389 0.46341 0.0
H268 H 0.08374 0.58875 0.4676 0.0
H269 H 0.17344 0.58305 0.4314 0.0
H270 H 0.23609 0.64881 0.44235 0.0
H271 H 0.9263 0.42816 0.42211 0.0
H272 H 1.00916 0.44935 0.47248 0.0
H273 H 0.14753 0.6549 0.47908 0.0
H274 H 0.86724 0.36603 0.43316 0.0
H275 H 0.94632 0.38861 0.48565 0.0
C276 C 0.53864 0.97242 0.67178 0.0
C277 C 0.56428 0.00683 0.66164 0.0
C278 C 0.5391 0.97323 0.69252 0.0
C279 C 0.56534 0.00848 0.70363 0.0
C280 C 0.59157 0.04284 0.69347 0.0
C281 C 0.591 0.04203 0.67275 0.0
C282 C 0.56471 0.00942 0.72572 0.0
C283 C 0.5639 0.98247 0.73624 0.0
C284 C 0.56113 0.9818 0.75708 0.0
C285 C 0.56158 0.01026 0.76739 0.0
C286 C 0.5644 0.03861 0.75718 0.0
C287 C 0.5647 0.03718 0.73634 0.0
C288 C 0.56754 0.0701 0.76808 0.0
C289 C 0.54353 0.06341 0.78553 0.0
C290 C 0.59444 0.10737 0.76079 0.0
C291 C 0.59574 0.13661 0.7701 0.0
C292 C 0.57086 0.1296 0.78716 0.0
C293 C 0.5582 0.95156 0.76786 0.0
C294 C 0.53849 0.91524 0.75853 0.0
C295 C 0.5756 0.95861 0.78731 0.0
C296 C 0.57401 0.93052 0.79691 0.0
C297 C 0.55649 0.895 0.78711 0.0
C298 C 0.5386 0.88788 0.76778 0.0
C299 C 0.54544 0.09299 0.79505 0.0
H300 H 0.51726 0.94483 0.66369 0.0
H301 H 0.51803 0.94621 0.69984 0.0
H302 H 0.61282 0.07048 0.70152 0.0
H303 H 0.61171 0.06905 0.66541 0.0
H304 H 0.56633 0.96244 0.72804 0.0
H305 H 0.56417 0.05745 0.72829 0.0
H306 H 0.56 0.01063 0.78338 0.0
H307 H 0.5222 0.03509 0.79152 0.0
H308 H 0.61448 0.11403 0.74777 0.0
H309 H 0.61607 0.16478 0.76389 0.0
H310 H 0.5232 0.90774 0.74388 0.0
H311 H 0.59151 0.98612 0.79512 0.0
H312 H 0.52578 0.0869 0.80815 0.0
H313 H 0.52556 0.86153 0.75933 0.0
H314 H 0.58717 0.93711 0.81195 0.0
C315 C 0.51236 0.43269 0.01155 0.0
C316 C 0.53596 0.46926 0.0038 0.0
C317 C 0.50607 0.42856 0.03191 0.0
C318 C 0.52388 0.46105 0.04456 0.0
C319 C 0.54699 0.49747 0.03676 0.0
C320 C 0.55297 0.50155 0.01651 0.0
C321 C 0.52128 0.4578 0.06603 0.0
C322 C 0.56091 0.48097 0.07745 0.0
C323 C 0.55963 0.47923 0.09802 0.0
C324 C 0.51799 0.45517 0.10709 0.0
C325 C 0.47766 0.43319 0.0959 0.0
C326 C 0.47975 0.43343 0.07515 0.0
C327 C 0.43565 0.419 0.10613 0.0
C328 C 0.4311 0.40978 0.1262 0.0
C329 C 0.41051 0.42949 0.09871 0.0
C330 C 0.39183 0.44058 0.11185 0.0
C331 C 0.39801 0.44089 0.13229 0.0
C332 C 0.60127 0.49851 0.10999 0.0
C333 C 0.63481 0.49684 0.103 0.0
C334 C 0.60317 0.51019 0.12993 0.0
C335 C 0.63176 0.51178 0.1434 0.0
C336 C 0.65932 0.50297 0.13673 0.0
C337 C 0.66405 0.49945 0.11636 0.0
C338 C 0.41382 0.42223 0.13946 0.0
H339 H 0.49893 0.40749 0.00189 0.0
H340 H 0.4885 0.40033 0.03783 0.0
H341 H 0.56092 0.52282 0.04639 0.0
H342 H 0.57173 0.53008 0.0108 0.0
H343 H 0.59284 0.49992 0.0702 0.0
H344 H 0.44917 0.41677 0.06615 0.0
H345 H 0.51706 0.45454 0.12308 0.0
H346 H 0.44802 0.39953 0.13215 0.0
H347 H 0.41183 0.43577 0.08328 0.0
H348 H 0.37887 0.45443 0.10615 0.0
H349 H 0.63507 0.48866 0.08771 0.0
H350 H 0.57914 0.51368 0.13551 0.0
H351 H 0.41802 0.42168 0.15525 0.0
H352 H 0.68652 0.49394 0.11099 0.0
H353 H 0.62867 0.51558 0.1591 0.0
C354 C 0.34897 0.57348 0.14143 0.0
C355 C 0.34116 0.583 0.16008 0.0
C356 C 0.37301 0.55954 0.13996 0.0
C357 C 0.39265 0.55859 0.15738 0.0
C358 C 0.39412 0.57728 0.17515 0.0
C359 C 0.36743 0.5889 0.17645 0.0
C360 C 0.37004 0.53952 0.12062 0.0
C361 C 0.4182 0.57984 0.1935 0.0
C362 C 0.36469 0.46177 0.15487 0.0
C363 C 0.4016 0.47044 0.14467 0.0
C364 C 0.36381 0.49143 0.16168 0.0
C365 C 0.4006 0.53016 0.15777 0.0
C366 C 0.44004 0.53902 0.14958 0.0
C367 C 0.44 0.50882 0.143 0.0
C368 C 0.32131 0.48083 0.17079 0.0
C369 C 0.48016 0.57986 0.14562 0.0
H370 H 0.32932 0.5697 0.12865 0.0
H371 H 0.36222 0.59729 0.19079 0.0
H372 H 0.40331 0.54819 0.11658 0.0
H373 H 0.34713 0.50789 0.12227 0.0
H374 H 0.35697 0.54583 0.10819 0.0
H375 H 0.42785 0.60446 0.20353 0.0
H376 H 0.39566 0.55309 0.20167 0.0
H377 H 0.44872 0.58307 0.18966 0.0
H378 H 0.33534 0.43193 0.1561 0.0
H379 H 0.46861 0.51512 0.13506 0.0
H380 H 0.30358 0.4858 0.16014 0.0
H381 H 0.32923 0.49909 0.18436 0.0
H382 H 0.29817 0.45018 0.17473 0.0
H383 H 0.47551 0.58767 0.13104 0.0
H384 H 0.51145 0.58306 0.14509 0.0
H385 H 0.48427 0.60054 0.15706 0.0
C386 C 0.68325 0.16077 0.49384 0.0
C387 C 0.67981 0.13257 0.48181 0.0
C388 C 0.7211 0.19984 0.49317 0.0
C389 C 0.75518 0.21121 0.47937 0.0
C390 C 0.75194 0.18258 0.46736 0.0
C391 C 0.71477 0.14355 0.46906 0.0
C392 C 0.72389 0.22894 0.50691 0.0
C393 C 0.78635 0.19329 0.45189 0.0
C394 C 0.81847 0.31149 0.45973 0.0
C395 C 0.86256 0.33104 0.4672 0.0
C396 C 0.78383 0.27263 0.4633 0.0
C397 C 0.79179 0.25299 0.47607 0.0
C398 C 0.83483 0.27306 0.48508 0.0
C399 C 0.8699 0.31127 0.48013 0.0
C400 C 0.73889 0.25231 0.45287 0.0
C401 C 0.84396 0.25402 0.49986 0.0
H402 H 0.65628 0.15223 0.50379 0.0
H403 H 0.71186 0.12174 0.45962 0.0
H404 H 0.7586 0.25087 0.51288 0.0
H405 H 0.71457 0.2441 0.49864 0.0
H406 H 0.70079 0.21506 0.51951 0.0
H407 H 0.77927 0.16762 0.44391 0.0
H408 H 0.78692 0.21146 0.44091 0.0
H409 H 0.82033 0.21048 0.45884 0.0
H410 H 0.8105 0.32611 0.45075 0.0
H411 H 0.90313 0.32506 0.4862 0.0
H412 H 0.71282 0.24406 0.46385 0.0
H413 H 0.72871 0.22546 0.44501 0.0
H414 H 0.7394 0.27053 0.44193 0.0
H415 H 0.81779 0.24066 0.51131 0.0
H416 H 0.87736 0.2747 0.50732 0.0
H417 H 0.84253 0.23068 0.49228 0.0
C418 C 0.62644 0.76676 0.79925 0.0
C419 C 0.6078 0.73977 0.81401 0.0
C420 C 0.6156 0.79135 0.79753 0.0
C421 C 0.58583 0.78939 0.81111 0.0
C422 C 0.56781 0.76302 0.82645 0.0
C423 C 0.57879 0.73829 0.82764 0.0
C424 C 0.63552 0.81902 0.78093 0.0
C425 C 0.5365 0.76054 0.84138 0.0
C426 C 0.59454 0.87864 0.8096 0.0
C427 C 0.55927 0.86644 0.7963 0.0
C428 C 0.60092 0.8528 0.81616 0.0
C429 C 0.57278 0.81425 0.80853 0.0
C430 C 0.53569 0.80112 0.79607 0.0
C431 C 0.52868 0.82707 0.79059 0.0
C432 C 0.63962 0.86745 0.83023 0.0
C433 C 0.50533 0.76035 0.78732 0.0
H434 H 0.64971 0.76873 0.78896 0.0
H435 H 0.56403 0.71734 0.83903 0.0
H436 H 0.60828 0.81339 0.77137 0.0
H437 H 0.6552 0.84905 0.78711 0.0
H438 H 0.65784 0.81668 0.77153 0.0
H439 H 0.53022 0.74231 0.85384 0.0
H440 H 0.55049 0.78967 0.84748 0.0
H441 H 0.50388 0.74808 0.83402 0.0
H442 H 0.61876 0.90872 0.81424 0.0
H443 H 0.49999 0.81652 0.78114 0.0
H444 H 0.66731 0.87133 0.82191 0.0
H445 H 0.62931 0.84639 0.84172 0.0
H446 H 0.65273 0.8955 0.83769 0.0
H447 H 0.52463 0.75588 0.77697 0.0
H448 H 0.47608 0.75383 0.77906 0.0
H449 H 0.49288 0.73947 0.79911 0.0
C450 C 0.78333 0.44356 0.19853 0.0
C451 C 0.8206 0.46191 0.18641 0.0
C452 C 0.74755 0.44349 0.19384 0.0
C453 C 0.75082 0.46337 0.17721 0.0
C454 C 0.7884 0.48136 0.16482 0.0
C455 C 0.82259 0.47999 0.16951 0.0
C456 C 0.70702 0.42316 0.2068 0.0
C457 C 0.79352 0.50335 0.14701 0.0
C458 C 0.66447 0.45312 0.14631 0.0
C459 C 0.67527 0.48917 0.15049 0.0
C460 C 0.68457 0.44134 0.15704 0.0
C461 C 0.71582 0.46633 0.17229 0.0
C462 C 0.72232 0.50044 0.17822 0.0
C463 C 0.70182 0.51165 0.16709 0.0
C464 C 0.67744 0.40513 0.15008 0.0
C465 C 0.75556 0.52765 0.19448 0.0
H466 H 0.7827 0.43016 0.21171 0.0
H467 H 0.85232 0.49494 0.1605 0.0
H468 H 0.70397 0.44436 0.21388 0.0
H469 H 0.67608 0.40238 0.19767 0.0
H470 H 0.70887 0.40748 0.21858 0.0
H471 H 0.82522 0.51564 0.1391 0.0
H472 H 0.76511 0.4842 0.13634 0.0
H473 H 0.79321 0.52735 0.15175 0.0
H474 H 0.64237 0.43515 0.13381 0.0
H475 H 0.70907 0.53909 0.17047 0.0
H476 H 0.67795 0.39027 0.16272 0.0
H477 H 0.70502 0.41286 0.14012 0.0
H478 H 0.64521 0.38484 0.14166 0.0
H479 H 0.75433 0.51162 0.20696 0.0
H480 H 0.7493 0.54767 0.20019 0.0
H481 H 0.78998 0.54505 0.18853 0.0
C482 C 0.39002 0.88702 0.47639 0.0
C483 C 0.43171 0.89557 0.47316 0.0
C484 C 0.35023 0.84866 0.47619 0.0
C485 C 0.35196 0.81811 0.47207 0.0
C486 C 0.39408 0.8267 0.46878 0.0
C487 C 0.43344 0.86524 0.46966 0.0
C488 C 0.3063 0.84082 0.48034 0.0
C489 C 0.39749 0.79519 0.46392 0.0
C490 C 0.25411 0.71418 0.48367 0.0
C491 C 0.23352 0.6988 0.46493 0.0
C492 C 0.29225 0.75322 0.48638 0.0
C493 C 0.30968 0.77736 0.47 0.0
C494 C 0.28776 0.76205 0.45122 0.0
C495 C 0.25025 0.72297 0.44891 0.0
C496 C 0.3147 0.76832 0.50661 0.0
C497 C 0.30471 0.78668 0.4334 0.0
H498 H 0.38862 0.91035 0.47945 0.0
H499 H 0.46561 0.87171 0.46718 0.0
H500 H 0.28354 0.8262 0.46715 0.0
H501 H 0.28943 0.82116 0.49275 0.0
H502 H 0.31086 0.86759 0.4842 0.0
H503 H 0.43279 0.80655 0.46219 0.0
H504 H 0.38215 0.77413 0.47576 0.0
H505 H 0.37855 0.77936 0.44993 0.0
H506 H 0.2413 0.6954 0.49603 0.0
H507 H 0.23416 0.71103 0.43442 0.0
H508 H 0.31882 0.79462 0.51116 0.0
H509 H 0.34875 0.77651 0.50606 0.0
H510 H 0.29542 0.74672 0.51807 0.0
H511 H 0.3071 0.81255 0.43666 0.0
H512 H 0.28266 0.77087 0.42007 0.0
H513 H 0.33894 0.79683 0.42993 0.0
C514 C 0.5974 0.31629 0.82359 0.0
C515 C 0.55571 0.30554 0.82919 0.0
C516 C 0.60255 0.28822 0.81882 0.0
C517 C 0.56508 0.24871 0.8198 0.0
C518 C 0.52355 0.23802 0.82651 0.0
C519 C 0.5193 0.26665 0.83099 0.0
C520 C 0.64733 0.30075 0.81173 0.0
C521 C 0.48294 0.19629 0.82793 0.0
C522 C 0.55902 0.17811 0.78363 0.0
C523 C 0.5696 0.16 0.79584 0.0
C524 C 0.55761 0.20706 0.79129 0.0
C525 C 0.56765 0.21858 0.81165 0.0
C526 C 0.57865 0.20055 0.82407 0.0
C527 C 0.57911 0.17112 0.81603 0.0
C528 C 0.54489 0.22503 0.7776 0.0
C529 C 0.59025 0.21255 0.84576 0.0
H530 H 0.62539 0.34653 0.82217 0.0
H531 H 0.48714 0.25865 0.83537 0.0
H532 H 0.65741 0.28583 0.8197 0.0
H533 H 0.64458 0.29267 0.79572 0.0
H534 H 0.67417 0.33234 0.81385 0.0
H535 H 0.45447 0.19295 0.83514 0.0
H536 H 0.47186 0.18226 0.81284 0.0
H537 H 0.49146 0.18076 0.83644 0.0
H538 H 0.55118 0.16916 0.76806 0.0
H539 H 0.58759 0.15723 0.82543 0.0
H540 H 0.57226 0.25654 0.77747 0.0
H541 H 0.51447 0.22055 0.78305 0.0
H542 H 0.53809 0.21278 0.76215 0.0
H543 H 0.62088 0.24308 0.84732 0.0
H544 H 0.59629 0.19463 0.85358 0.0
H545 H 0.56283 0.21051 0.85319 0.0
C546 C 0.5756 0.80097 0.47464 0.0
C547 C 0.56782 0.81618 0.4911 0.0
C548 C 0.57006 0.76682 0.47583 0.0
C549 C 0.55754 0.74828 0.49404 0.0
C550 C 0.54792 0.76278 0.51042 0.0
C551 C 0.5529 0.79645 0.50869 0.0
C552 C 0.57947 0.75157 0.45794 0.0
C553 C 0.53503 0.74409 0.53017 0.0
C554 C 0.52006 0.64849 0.50173 0.0
C555 C 0.55948 0.65725 0.50963 0.0
C556 C 0.51957 0.67768 0.49511 0.0
C557 C 0.55919 0.71638 0.49689 0.0
C558 C 0.59959 0.72504 0.50392 0.0
C559 C 0.59927 0.69526 0.5101 0.0
C560 C 0.47618 0.66733 0.48723 0.0
C561 C 0.64244 0.76602 0.50625 0.0
H562 H 0.58675 0.81615 0.46098 0.0
H563 H 0.54729 0.80846 0.52146 0.0
H564 H 0.61161 0.75675 0.46034 0.0
H565 H 0.55278 0.72003 0.4557 0.0
H566 H 0.58195 0.76569 0.44423 0.0
H567 H 0.52606 0.75763 0.54104 0.0
H568 H 0.50612 0.71302 0.52826 0.0
H569 H 0.56348 0.74644 0.53647 0.0
H570 H 0.48942 0.61894 0.50118 0.0
H571 H 0.62967 0.702 0.51634 0.0
H572 H 0.48209 0.68309 0.47369 0.0
H573 H 0.46219 0.6759 0.49848 0.0
H574 H 0.45076 0.63594 0.48369 0.0
H575 H 0.65002 0.78098 0.49224 0.0
H576 H 0.67162 0.76757 0.51051 0.0
H577 H 0.63829 0.78193 0.51786 0.0
C578 C 0.7586 0.56806 0.83484 0.0
C579 C 0.71373 0.53366 0.83353 0.0
C580 C 0.79611 0.56839 0.83768 0.0
C581 C 0.79013 0.53346 0.83894 0.0
C582 C 0.7449 0.49865 0.83737 0.0
C583 C 0.70798 0.49919 0.83493 0.0
C584 C 0.84254 0.60659 0.83957 0.0
C585 C 0.73524 0.46031 0.83823 0.0
C586 C 0.89242 0.53331 0.82969 0.0
C587 C 0.90557 0.53156 0.84887 0.0
C588 C 0.85549 0.53364 0.82627 0.0
C589 C 0.83051 0.53329 0.84231 0.0
C590 C 0.84436 0.53247 0.8617 0.0
C591 C 0.88057 0.53119 0.86466 0.0
C592 C 0.84262 0.53367 0.80525 0.0
C593 C 0.82087 0.53314 0.87959 0.0
H594 H 0.76459 0.59518 0.83398 0.0
H595 H 0.67418 0.47212 0.83401 0.0
H596 H 0.85896 0.60873 0.85364 0.0
H597 H 0.86342 0.60886 0.82728 0.0
H598 H 0.84211 0.6313 0.83929 0.0
H599 H 0.69908 0.43571 0.8357 0.0
H600 H 0.75492 0.45813 0.82691 0.0
H601 H 0.74581 0.45788 0.85293 0.0
H602 H 0.9103 0.53335 0.81713 0.0
H603 H 0.88975 0.53041 0.87965 0.0
H604 H 0.84622 0.56004 0.80311 0.0
H605 H 0.80684 0.50867 0.80226 0.0
H606 H 0.86353 0.53239 0.79425 0.0
H607 H 0.82202 0.55868 0.87955 0.0
H608 H 0.83616 0.53394 0.89372 0.0
H609 H 0.78501 0.50727 0.879 0.0
C610 C 0.2312 0.64625 0.14562 0.0
C611 C 0.19506 0.63492 0.15765 0.0
C612 C 0.27084 0.68477 0.14621 0.0
C613 C 0.27513 0.7122 0.15977 0.0
C614 C 0.23878 0.70058 0.17214 0.0
C615 C 0.199 0.66235 0.17065 0.0
C616 C 0.30804 0.69605 0.1323 0.0
C617 C 0.24227 0.72827 0.18735 0.0
C618 C 0.3919 0.79928 0.17778 0.0
C619 C 0.39652 0.83027 0.16965 0.0
C620 C 0.35277 0.76101 0.17472 0.0
C621 C 0.31823 0.75252 0.16191 0.0
C622 C 0.3239 0.78292 0.15227 0.0
C623 C 0.3622 0.82133 0.15662 0.0
C624 C 0.34762 0.72983 0.18595 0.0
C625 C 0.28889 0.77497 0.13771 0.0
H626 H 0.22809 0.62519 0.13543 0.0
H627 H 0.17123 0.65364 0.1801 0.0
H628 H 0.32037 0.72275 0.12488 0.0
H629 H 0.3367 0.70205 0.14077 0.0
H630 H 0.297 0.67301 0.12077 0.0
H631 H 0.21147 0.7144 0.19623 0.0
H632 H 0.27123 0.74016 0.19759 0.0
H633 H 0.24834 0.75285 0.17994 0.0
H634 H 0.41845 0.8046 0.18699 0.0
H635 H 0.36427 0.84418 0.15013 0.0
H636 H 0.34334 0.70788 0.17546 0.0
H637 H 0.31703 0.71498 0.19503 0.0
H638 H 0.37688 0.74132 0.19593 0.0
H639 H 0.27898 0.75112 0.127 0.0
H640 H 0.30103 0.80072 0.12935 0.0
H641 H 0.25836 0.76581 0.14572 0.0
C642 C 0.56474 0.24212 0.46559 0.0
C643 C 0.54553 0.2141 0.47983 0.0
C644 C 0.57258 0.27709 0.46956 0.0
C645 C 0.56069 0.28386 0.48816 0.0
C646 C 0.54146 0.25568 0.50259 0.0
C647 C 0.53414 0.22114 0.49824 0.0
C648 C 0.59314 0.30658 0.45387 0.0
C649 C 0.52805 0.26178 0.52256 0.0
C650 C 0.61087 0.38338 0.5094 0.0
C651 C 0.57442 0.38366 0.50765 0.0
C652 C 0.60766 0.35169 0.50232 0.0
C653 C 0.56755 0.32007 0.49268 0.0
C654 C 0.53197 0.32139 0.48944 0.0
C655 C 0.53554 0.35289 0.49722 0.0
C656 C 0.64613 0.35108 0.50622 0.0
C657 C 0.48904 0.28849 0.47881 0.0
H658 H 0.57378 0.23673 0.45138 0.0
H659 H 0.51858 0.19922 0.50914 0.0
H660 H 0.56994 0.31257 0.44987 0.0
H661 H 0.62463 0.33411 0.4597 0.0
H662 H 0.60074 0.29695 0.44022 0.0
H663 H 0.51468 0.2374 0.53231 0.0
H664 H 0.55734 0.28856 0.53019 0.0
H665 H 0.50195 0.26528 0.52055 0.0
H666 H 0.6416 0.40747 0.51686 0.0
H667 H 0.50692 0.35241 0.49587 0.0
H668 H 0.65501 0.34301 0.49243 0.0
H669 H 0.63584 0.32901 0.51709 0.0
H670 H 0.67648 0.37932 0.51223 0.0
H671 H 0.49651 0.27948 0.46489 0.0
H672 H 0.46727 0.29619 0.47514 0.0
H673 H 0.47004 0.26332 0.48831 0.0
C674 C 0.47574 0.56132 0.83758 0.0
C675 C 0.47005 0.52669 0.83586 0.0
C676 C 0.43883 0.562 0.84009 0.0
C677 C 0.3936 0.52725 0.84062 0.0
C678 C 0.38765 0.49222 0.83862 0.0
C679 C 0.42523 0.49237 0.83649 0.0
C680 C 0.44848 0.6004 0.84235 0.0
C681 C 0.34111 0.4541 0.83871 0.0
C682 C 0.30131 0.52878 0.86583 0.0
C683 C 0.27745 0.52888 0.84989 0.0
C684 C 0.3379 0.52782 0.86305 0.0
C685 C 0.35312 0.52752 0.84373 0.0
C686 C 0.32918 0.52747 0.82752 0.0
C687 C 0.29206 0.52778 0.83072 0.0
C688 C 0.3605 0.52717 0.88104 0.0
C689 C 0.34328 0.52766 0.80659 0.0
H690 H 0.50951 0.58833 0.83725 0.0
H691 H 0.41926 0.46516 0.83513 0.0
H692 H 0.43034 0.60274 0.83055 0.0
H693 H 0.43606 0.60274 0.85678 0.0
H694 H 0.48488 0.62495 0.84157 0.0
H695 H 0.3413 0.4293 0.83669 0.0
H696 H 0.32486 0.45163 0.85292 0.0
H697 H 0.32021 0.45235 0.82667 0.0
H698 H 0.29098 0.52898 0.88079 0.0
H699 H 0.27512 0.52813 0.81806 0.0
H700 H 0.39651 0.55279 0.88162 0.0
H701 H 0.35885 0.50136 0.88002 0.0
H702 H 0.34488 0.52685 0.89507 0.0
H703 H 0.3781 0.55427 0.80462 0.0
H704 H 0.32098 0.52625 0.79545 0.0
H705 H 0.34323 0.50292 0.80365 0.0
C706 C 0.92865 0.38408 0.17298 0.0
C707 C 0.94919 0.39638 0.15456 0.0
C708 C 0.88992 0.34594 0.17531 0.0
C709 C 0.86997 0.31966 0.15863 0.0
C710 C 0.89028 0.33218 0.13988 0.0
C711 C 0.93021 0.37019 0.13816 0.0
C712 C 0.8705 0.33376 0.19569 0.0
C713 C 0.86931 0.30565 0.12159 0.0
C714 C 0.78981 0.21241 0.1687 0.0
C715 C 0.74786 0.20436 0.16843 0.0
C716 C 0.82961 0.24944 0.16507 0.0
C717 C 0.82767 0.27934 0.16089 0.0
C718 C 0.78532 0.27111 0.15996 0.0
C719 C 0.74609 0.2339 0.16379 0.0
C720 C 0.87396 0.25694 0.16648 0.0
C721 C 0.7815 0.30189 0.15535 0.0
H722 H 0.94354 0.40421 0.18573 0.0
H723 H 0.94593 0.37975 0.12389 0.0
H724 H 0.8364 0.32547 0.19581 0.0
H725 H 0.86718 0.30812 0.1996 0.0
H726 H 0.89151 0.35697 0.2073 0.0
H727 H 0.88894 0.31977 0.1081 0.0
H728 H 0.86646 0.27961 0.12361 0.0
H729 H 0.8348 0.2959 0.11919 0.0
H730 H 0.79178 0.19009 0.17253 0.0
H731 H 0.71391 0.228 0.16328 0.0
H732 H 0.89455 0.27815 0.17891 0.0
H733 H 0.89301 0.2696 0.15273 0.0
H734 H 0.86973 0.23033 0.16896 0.0
H735 H 0.79749 0.32448 0.1675 0.0
H736 H 0.74605 0.29021 0.15353 0.0
H737 H 0.79955 0.316 0.14157 0.0
C738 C 1.03537 0.52806 0.08337 0.0
C739 C 0.0567 0.51995 0.0964 0.0
C740 C 1.04077 0.5279 0.06268 0.0
C741 C 0.06856 0.51971 0.05456 0.0
C742 C 0.09021 0.51142 0.06765 0.0
C743 C 0.08391 0.51149 0.08834 0.0
C744 C 1.01671 0.53666 0.04948 0.0
C745 C 0.12049 0.50292 0.05979 0.0
C746 C 0.04825 0.48732 -0.00053 0.0
C747 C 0.081 0.52174 0.99017 0.0
C748 C 1.0447 0.48602 0.0203 0.0
C749 C 0.07462 0.51991 0.03242 0.0
C750 C 0.10853 0.55453 0.02319 0.0
C751 C 0.11124 0.55504 0.00231 0.0
C752 C 1.00818 0.44837 0.02933 0.0
C753 C 0.14138 0.59139 0.03536 0.0
H754 H 1.01431 0.53465 0.08937 0.0
H755 H 0.10078 0.5054 0.09824 0.0
H756 H 1.04144 0.5624 0.04095 0.0
H757 H 0.99468 0.51226 0.03859 0.0
H758 H 0.99592 0.54202 0.058 0.0
H759 H 0.13406 0.49613 0.07175 0.0
H760 H 0.10193 0.47827 0.04877 0.0
H761 H 0.14901 0.52811 0.05205 0.0
H762 H 1.0252 0.46116 0.99043 0.0
H763 H 0.13647 0.58196 0.99547 0.0
H764 H 0.98469 0.45113 0.0373 0.0
H765 H 1.02289 0.44109 0.04037 0.0
H766 H 0.98879 0.42423 0.01803 0.0
H767 H 0.12323 0.60031 0.04312 0.0
H768 H 0.16764 0.61523 0.02615 0.0
H769 H 0.15796 0.5868 0.04689 0.0
C770 C 0.54291 0.01992 0.41431 0.0
C771 C 0.56258 0.00349 0.42007 0.0
C772 C 0.54134 0.0267 0.39428 0.0
C773 C 0.55928 0.01619 0.37968 0.0
C774 C 0.57855 0.99903 0.38544 0.0
C775 C 0.58006 0.99301 0.40554 0.0
C776 C 0.5206 0.04512 0.38876 0.0
C777 C 0.59772 0.98707 0.37036 0.0
C778 C 0.52141 0.99547 0.32564 0.0
C779 C 0.55802 0.0285 0.31677 0.0
C780 C 0.52039 0.99193 0.34623 0.0
C781 C 0.55708 0.02203 0.35827 0.0
C782 C 0.59332 0.05617 0.34949 0.0
C783 C 0.59325 0.05908 0.32882 0.0
C784 C 0.48089 0.95523 0.35497 0.0
C785 C 0.63315 0.08886 0.36179 0.0
H786 H 0.52909 0.02776 0.42545 0.0
H787 H 0.59522 0.98019 0.40989 0.0
H788 H 0.54514 0.07167 0.38073 0.0
H789 H 0.49135 0.02526 0.37858 0.0
H790 H 0.50936 0.05263 0.40193 0.0
H791 H 0.61187 0.9744 0.37728 0.0
H792 H 0.57122 0.96556 0.35941 0.0
H793 H 0.62458 0.01231 0.36207 0.0
H794 H 0.49381 0.97199 0.31638 0.0
H795 H 0.6217 0.08457 0.322 0.0
H796 H 0.46749 0.96189 0.36754 0.0
H797 H 0.4919 0.93936 0.36088 0.0
H798 H 0.45337 0.93606 0.34387 0.0
H799 H 0.62183 0.09726 0.37449 0.0
H800 H 0.65684 0.11456 0.35301 0.0
H801 H 0.65147 0.07935 0.36799 0.0
C802 C 0.60608 0.51544 0.75996 0.0
C803 C 0.58064 0.52155 0.77181 0.0
C804 C 0.60738 0.51924 0.73936 0.0
C805 C 0.58383 0.53063 0.73066 0.0
C806 C 0.56021 0.53895 0.74288 0.0
C807 C 0.55813 0.53349 0.7633 0.0
C808 C 0.63191 0.5091 0.7268 0.0
C809 C 0.53591 0.55235 0.7343 0.0
C810 C 0.61234 0.5642 0.67787 0.0
C811 C 0.57642 0.53156 0.66711 0.0
C812 C 0.61485 0.56465 0.69863 0.0
C813 C 0.58128 0.53125 0.70871 0.0
C814 C 0.54507 0.49813 0.6978 0.0
C815 C 0.5428 0.49889 0.67712 0.0
C816 C 0.65324 0.60082 0.70977 0.0
C817 C 0.50909 0.46169 0.70793 0.0
H818 H 0.62294 0.50569 0.76666 0.0
H819 H 0.53846 0.53815 0.77262 0.0
H820 H 0.60757 0.48375 0.71678 0.0
H821 H 0.65635 0.53321 0.71731 0.0
H822 H 0.65005 0.50228 0.7359 0.0
H823 H 0.52368 0.56187 0.74602 0.0
H824 H 0.55831 0.57654 0.72447 0.0
H825 H 0.50668 0.52858 0.72514 0.0
H826 H 0.6382 0.58947 0.67001 0.0
H827 H 0.51528 0.4736 0.66868 0.0
H828 H 0.67345 0.59502 0.7179 0.0
H829 H 0.64001 0.61024 0.72096 0.0
H830 H 0.67564 0.62476 0.69978 0.0
H831 H 0.52455 0.45169 0.71645 0.0
H832 H 0.48391 0.43816 0.69723 0.0
H833 H 0.49144 0.46739 0.71864 0.0
C834 C 0.50355 0.98288 0.54648 0.0
C835 C 0.54123 0.00697 0.53482 0.0
C836 C 0.50816 0.98023 0.56679 0.0
C837 C 0.55154 1.00275 0.57575 0.0
C838 C 0.58981 0.02601 0.56386 0.0
C839 C 0.5842 0.02762 0.54347 0.0
C840 C 0.46649 0.95451 0.57882 0.0
C841 C 0.6366 0.05052 0.57285 0.0
C842 C 0.55932 0.03208 0.63019 0.0
C843 C 0.56221 0.00616 0.6396 0.0
C844 C 0.55649 0.03154 0.60946 0.0
C845 C 0.55651 0.0044 0.59774 0.0
C846 C 0.55977 0.97831 0.60711 0.0
C847 C 0.56248 0.97944 0.62792 0.0
C848 C 0.55274 0.0597 0.6001 0.0
C849 C 0.55988 0.94894 0.59516 0.0
H850 H 0.47028 0.96652 0.53976 0.0
H851 H 0.61341 0.04621 0.53446 0.0
H852 H 0.46908 0.93562 0.58778 0.0
H853 H 0.46311 0.97242 0.58929 0.0
H854 H 0.43559 0.93617 0.56934 0.0
H855 H 0.66282 0.06454 0.56142 0.0
H856 H 0.64164 0.07325 0.583 0.0
H857 H 0.6412 0.03283 0.58181 0.0
H858 H 0.55835 0.05238 0.63909 0.0
H859 H 0.56512 0.95955 0.63507 0.0
H860 H 0.52042 0.04381 0.59172 0.0
H861 H 0.58001 0.07686 0.58938 0.0
H862 H 0.5546 0.07974 0.61125 0.0
H863 H 0.52747 0.92868 0.58691 0.0
H864 H 0.56507 0.93212 0.60461 0.0
H865 H 0.58669 0.96336 0.58403 0.0
C866 C 0.55888 0.49647 0.88824 0.0
C867 C 0.60048 0.53181 0.88473 0.0
C868 C 0.54917 0.48099 0.90688 0.0
C869 C 0.58116 0.50242 0.92247 0.0
C870 C 0.62388 0.53751 0.91885 0.0
C871 C 0.63327 0.55166 0.89983 0.0
C872 C 0.50364 0.44304 0.91016 0.0
C873 C 0.65842 0.56133 0.93532 0.0
C874 C 0.53554 0.49663 0.97286 0.0
C875 C 0.54386 0.47442 0.98252 0.0
C876 C 0.54713 0.50549 0.95315 0.0
C877 C 0.56727 0.49152 0.94297 0.0
C878 C 0.57445 0.46799 0.95244 0.0
C879 C 0.56255 0.45964 0.97226 0.0
C880 C 0.53874 0.53051 0.9434 0.0
C881 C 0.59545 0.45243 0.94177 0.0
H882 H 0.53341 0.48124 0.87655 0.0
H883 H 0.6655 0.57897 0.89699 0.0
H884 H 0.50657 0.42484 0.91958 0.0
H885 H 0.48219 0.4484 0.91798 0.0
H886 H 0.4865 0.42677 0.89595 0.0
H887 H 0.69161 0.58547 0.92962 0.0
H888 H 0.6468 0.57353 0.94556 0.0
H889 H 0.66256 0.54317 0.94409 0.0
H890 H 0.52056 0.50758 0.98087 0.0
H891 H 0.56919 0.44267 0.97993 0.0
H892 H 0.51654 0.515 0.93011 0.0
H893 H 0.57087 0.55702 0.93836 0.0
H894 H 0.5229 0.53903 0.95353 0.0
H895 H 0.57553 0.4355 0.92816 0.0
H896 H 0.59778 0.43384 0.95119 0.0
H897 H 0.62967 0.47658 0.93707 0.0
C898 C 0.10225 0.53931 0.22554 0.0
C899 C 0.06683 0.50773 0.21403 0.0
C900 C 0.09903 0.54139 0.24627 0.0
C901 C 0.05875 0.51194 0.25559 0.0
C902 C 1.02191 0.48125 0.24377 0.0
C903 C 1.02676 0.47907 0.22319 0.0
C904 C 0.13948 0.57406 0.25831 0.0
C905 C 0.97777 0.45014 0.25293 0.0
C906 C 0.06682 0.49243 0.3091 0.0
C907 C 0.05349 0.51142 0.31968 0.0
C908 C 0.06816 0.49208 0.2883 0.0
C909 C 0.05639 0.51161 0.27773 0.0
C910 C 1.04278 0.53081 0.28837 0.0
C911 C 1.04125 0.53029 0.30921 0.0
C912 C 0.08234 0.47084 0.27762 0.0
C913 C 1.03011 0.55207 0.27775 0.0
H914 H 0.13332 0.56136 0.21844 0.0
H915 H 0.99921 0.45485 0.21423 0.0
H916 H 0.13037 0.58871 0.26814 0.0
H917 H 0.15155 0.56248 0.26796 0.0
H918 H 0.16746 0.59568 0.24881 0.0
H919 H 0.95111 0.4306 0.24155 0.0
H920 H 0.98208 0.43276 0.26233 0.0
H921 H 0.96639 0.46315 0.26266 0.0
H922 H 0.07579 0.47743 0.31714 0.0
H923 H 1.03122 0.54523 0.31736 0.0
H924 H 0.11213 0.49097 0.26856 0.0
H925 H 0.05505 0.44804 0.26734 0.0
H926 H 0.09063 0.45726 0.28799 0.0
H927 H 0.0593 0.57585 0.2696 0.0
H928 H 1.01876 0.56438 0.28811 0.0
H929 H 1.0029 0.53242 0.26664 0.0
loop_
_geom_bond_atom_site_label_1
_geom_bond_atom_site_label_2
_geom_bond_distance
_geom_bond_site_symmetry_2
_ccdc_geom_bond_type
Sm0 C2 2.846 . S
Sm0 O20 2.543 . S
Sm0 O21 2.450 . S
Sm0 O22 2.681 . S
Sm0 O23 2.464 . S
Sm0 O24 2.396 . S
Sm0 O28 2.386 . S
Sm0 O31 2.408 1_455 S
Sm1 C11 2.846 . S
Sm1 O22 2.386 1_655 S
Sm1 O25 2.408 1_655 S
Sm1 O26 2.543 . S
Sm1 O27 2.450 . S
Sm1 O28 2.681 1_655 S
Sm1 O29 2.463 . S
Sm1 O30 2.396 . S
C2 Sm0 2.846 . S
C2 C3 1.506 . S
C2 O20 1.261 . S
C2 O21 1.242 . S
C3 C2 1.506 . S
C3 C4 1.358 . S
C3 C8 1.382 . S
C4 C3 1.358 . S
C4 C5 1.385 . S
C4 H32 0.930 . S
C5 C4 1.385 . S
C5 C6 1.395 . S
C5 H33 0.929 . S
C6 C5 1.395 . S
C6 C7 1.335 . S
C7 C6 1.335 . S
C7 C8 1.398 . S
C7 H34 0.930 . S
C8 C3 1.382 . S
C8 C7 1.398 . S
C8 H35 0.929 . S
C9 O22 1.271 . S
C9 O23 1.251 . S
C10 O24 1.252 . S
C10 O25 1.272 . S
C11 Sm1 2.846 . S
C11 C12 1.506 . S
C11 O26 1.261 . S
C11 O27 1.242 . S
C12 C11 1.506 . S
C12 C13 1.358 . S
C12 C17 1.382 . S
C13 C12 1.358 . S
C13 C14 1.385 . S
C13 H36 0.930 . S
C14 C13 1.385 . S
C14 C15 1.395 . S
C14 H37 0.929 . S
C15 C14 1.395 . S
C15 C16 1.335 . S
C16 C15 1.335 . S
C16 C17 1.398 . S
C16 H38 0.930 . S
C17 C12 1.382 . S
C17 C16 1.398 . S
C17 H39 0.929 . S
C18 O28 1.271 . S
C18 O29 1.255 1_455 S
C19 O30 1.252 . S
C19 O31 1.272 . S
O20 Sm0 2.543 . S
O20 C2 1.261 . S
O21 Sm0 2.450 . S
O21 C2 1.242 . S
O22 Sm0 2.681 . S
O22 Sm1 2.386 1_455 S
O22 C9 1.271 . S
O23 Sm0 2.464 . S
O23 C9 1.251 . S
O24 Sm0 2.396 . S
O24 C10 1.252 . S
O25 Sm1 2.408 1_455 S
O25 C10 1.272 . S
O26 Sm1 2.543 . S
O26 C11 1.261 . S
O27 Sm1 2.450 . S
O27 C11 1.242 . S
O28 Sm0 2.386 . S
O28 Sm1 2.681 1_455 S
O28 C18 1.271 . S
O29 Sm1 2.463 . S
O29 C18 1.255 1_655 S
O30 Sm1 2.396 . S
O30 C19 1.252 . S
O31 Sm0 2.408 1_655 S
O31 C19 1.272 . S
H32 C4 0.930 . S
H33 C5 0.929 . S
H34 C7 0.930 . S
H35 C8 0.929 . S
H36 C13 0.930 . S
H37 C14 0.929 . S
H38 C16 0.930 . S
H39 C17 0.929 . S
Sm40 C42 2.846 . S
Sm40 O60 2.543 . S
Sm40 O61 2.450 . S
Sm40 O62 2.681 1_565 S
Sm40 O63 2.464 . S
Sm40 O64 2.396 . S
Sm40 O68 2.384 . S
Sm40 O71 2.408 1_565 S
Sm41 C51 2.846 . S
Sm41 O62 2.386 . S
Sm41 O65 2.408 1_545 S
Sm41 O66 2.543 . S
Sm41 O67 2.450 . S
Sm41 O68 2.684 1_545 S
Sm41 O69 2.464 . S
Sm41 O70 2.396 . S
C42 Sm40 2.846 . S
C42 C43 1.506 . S
C42 O60 1.261 . S
C42 O61 1.242 . S
C43 C42 1.506 . S
C43 C44 1.358 . S
C43 C48 1.382 . S
C44 C43 1.358 . S
C44 C45 1.385 . S
C44 H72 0.930 . S
C45 C44 1.385 . S
C45 C46 1.395 . S
C45 H73 0.929 . S
C46 C45 1.395 . S
C46 C47 1.335 . S
C47 C46 1.335 . S
C47 C48 1.398 . S
C47 H74 0.930 . S
C48 C43 1.382 . S
C48 C47 1.398 . S
C48 H75 0.929 . S
C49 O62 1.271 . S
C49 O63 1.251 1_545 S
C50 O64 1.252 . S
C50 O65 1.272 . S
C51 Sm41 2.846 . S
C51 C52 1.506 . S
C51 O66 1.261 . S
C51 O67 1.242 . S
C52 C51 1.506 . S
C52 C53 1.358 . S
C52 C57 1.382 . S
C53 C52 1.358 . S
C53 C54 1.385 . S
C53 H76 0.930 . S
C54 C53 1.385 . S
C54 C55 1.395 . S
C54 H77 0.929 . S
C55 C54 1.395 . S
C55 C56 1.335 . S
C56 C55 1.335 . S
C56 C57 1.398 . S
C56 H78 0.930 . S
C57 C52 1.382 . S
C57 C56 1.398 . S
C57 H79 0.929 . S
C58 O68 1.273 1_545 S
C58 O69 1.251 . S
C59 O70 1.252 . S
C59 O71 1.272 . S
O60 Sm40 2.543 . S
O60 C42 1.261 . S
O61 Sm40 2.450 . S
O61 C42 1.242 . S
O62 Sm40 2.681 1_545 S
O62 Sm41 2.386 . S
O62 C49 1.271 . S
O63 Sm40 2.464 . S
O63 C49 1.251 1_565 S
O64 Sm40 2.396 . S
O64 C50 1.252 . S
O65 Sm41 2.408 1_565 S
O65 C50 1.272 . S
O66 Sm41 2.543 . S
O66 C51 1.261 . S
O67 Sm41 2.450 . S
O67 C51 1.242 . S
O68 Sm40 2.384 . S
O68 Sm41 2.684 1_565 S
O68 C58 1.273 1_565 S
O69 Sm41 2.464 . S
O69 C58 1.251 . S
O70 Sm41 2.396 . S
O70 C59 1.252 . S
O71 Sm40 2.408 1_545 S
O71 C59 1.272 . S
H72 C44 0.930 . S
H73 C45 0.929 . S
H74 C47 0.930 . S
H75 C48 0.929 . S
H76 C53 0.930 . S
H77 C54 0.929 . S
H78 C56 0.930 . S
H79 C57 0.929 . S
Sm80 C82 2.846 . S
Sm80 O100 2.543 . S
Sm80 O101 2.450 . S
Sm80 O102 2.681 . S
Sm80 O103 2.464 . S
Sm80 O104 2.396 . S
Sm80 O108 2.386 . S
Sm80 O111 2.408 . S
Sm81 C91 2.846 . S
Sm81 O102 2.386 . S
Sm81 O105 2.408 . S
Sm81 O106 2.543 . S
Sm81 O107 2.450 . S
Sm81 O108 2.681 . S
Sm81 O109 2.464 . S
Sm81 O110 2.396 . S
C82 Sm80 2.846 . S
C82 C83 1.506 . S
C82 O100 1.261 . S
C82 O101 1.242 . S
C83 C82 1.506 . S
C83 C84 1.358 . S
C83 C88 1.382 . S
C84 C83 1.358 . S
C84 C85 1.385 . S
C84 H112 0.930 . S
C85 C84 1.385 . S
C85 C86 1.395 . S
C85 H113 0.929 . S
C86 C85 1.395 . S
C86 C87 1.335 . S
C87 C86 1.335 . S
C87 C88 1.398 . S
C87 H114 0.930 . S
C88 C83 1.382 . S
C88 C87 1.398 . S
C88 H115 0.929 . S
C89 O102 1.271 . S
C89 O103 1.251 . S
C90 O104 1.252 . S
C90 O105 1.272 . S
C91 Sm81 2.846 . S
C91 C92 1.506 . S
C91 O106 1.261 . S
C91 O107 1.242 . S
C92 C91 1.506 . S
C92 C93 1.358 . S
C92 C97 1.382 . S
C93 C92 1.358 . S
C93 C94 1.385 . S
C93 H116 0.930 . S
C94 C93 1.385 . S
C94 C95 1.395 . S
C94 H117 0.929 . S
C95 C94 1.395 . S
C95 C96 1.335 . S
C96 C95 1.335 . S
C96 C97 1.398 . S
C96 H118 0.930 . S
C97 C92 1.382 . S
C97 C96 1.398 . S
C97 H119 0.929 . S
C98 O108 1.271 . S
C98 O109 1.251 . S
C99 O110 1.252 . S
C99 O111 1.272 . S
O100 Sm80 2.543 . S
O100 C82 1.261 . S
O101 Sm80 2.450 . S
O101 C82 1.242 . S
O102 Sm80 2.681 . S
O102 Sm81 2.386 . S
O102 C89 1.271 . S
O103 Sm80 2.464 . S
O103 C89 1.251 . S
O104 Sm80 2.396 . S
O104 C90 1.252 . S
O105 Sm81 2.408 . S
O105 C90 1.272 . S
O106 Sm81 2.543 . S
O106 C91 1.261 . S
O107 Sm81 2.450 . S
O107 C91 1.242 . S
O108 Sm80 2.386 . S
O108 Sm81 2.681 . S
O108 C98 1.271 . S
O109 Sm81 2.464 . S
O109 C98 1.251 . S
O110 Sm81 2.396 . S
O110 C99 1.252 . S
O111 Sm80 2.408 . S
O111 C99 1.272 . S
H112 C84 0.930 . S
H113 C85 0.929 . S
H114 C87 0.930 . S
H115 C88 0.929 . S
H116 C93 0.930 . S
H117 C94 0.929 . S
H118 C96 0.930 . S
H119 C97 0.929 . S
C120 C121 1.386 . S
C120 C122 1.397 . S
C120 H144 0.931 . S
C121 C120 1.386 . S
C121 C125 1.397 1_545 S
C122 C120 1.397 . S
C122 C123 1.384 . S
C122 H145 0.930 . S
C123 C122 1.384 . S
C123 C124 1.377 1_545 S
C123 C126 1.481 . S
C124 C123 1.377 1_565 S
C124 C125 1.389 . S
C124 H146 0.929 . S
C125 C121 1.397 1_565 S
C125 C124 1.389 . S
C125 H147 0.931 . S
C126 C123 1.481 . S
C126 C127 1.387 . S
C126 C131 1.390 1_545 S
C127 C126 1.387 . S
C127 C128 1.401 . S
C127 H148 0.930 . S
C128 C127 1.401 . S
C128 C129 1.376 . S
C128 C137 1.511 . S
C129 C128 1.376 . S
C129 C130 1.392 1_545 S
C129 H150 0.931 . S
C130 C129 1.392 1_565 S
C130 C131 1.361 . S
C130 C132 1.500 . S
C131 C126 1.390 1_565 S
C131 C130 1.361 . S
C131 H149 0.931 . S
C132 C130 1.500 . S
C132 C133 1.371 . S
C132 C134 1.365 . S
C133 C132 1.371 . S
C133 C143 1.386 . S
C133 H151 0.931 . S
C134 C132 1.365 . S
C134 C135 1.409 . S
C134 H152 0.929 . S
C135 C134 1.409 . S
C135 C136 1.380 . S
C135 H153 0.930 . S
C136 C135 1.380 . S
C136 C143 1.357 . S
C137 C128 1.511 . S
C137 C138 1.341 . S
C137 C139 1.371 . S
C138 C137 1.341 . S
C138 C142 1.394 . S
C138 H154 0.930 . S
C139 C137 1.371 . S
C139 C140 1.392 . S
C139 H155 0.931 . S
C140 C139 1.392 . S
C140 C141 1.331 . S
C140 H158 0.932 . S
C141 C140 1.331 . S
C141 C142 1.336 . S
C142 C138 1.394 . S
C142 C141 1.336 . S
C142 H157 0.929 . S
C143 C133 1.386 . S
C143 C136 1.357 . S
C143 H156 0.928 . S
H144 C120 0.931 . S
H145 C122 0.930 . S
H146 C124 0.929 . S
H147 C125 0.931 . S
H148 C127 0.930 . S
H149 C131 0.931 . S
H150 C129 0.931 . S
H151 C133 0.931 . S
H152 C134 0.929 . S
H153 C135 0.930 . S
H154 C138 0.930 . S
H155 C139 0.931 . S
H156 C143 0.928 . S
H157 C142 0.929 . S
H158 C140 0.932 . S
C159 C160 1.386 . S
C159 C161 1.397 . S
C159 H183 0.931 . S
C160 C159 1.386 . S
C160 C164 1.397 . S
C161 C159 1.397 . S
C161 C162 1.384 . S
C161 H184 0.930 . S
C162 C161 1.384 . S
C162 C163 1.377 . S
C162 C165 1.481 . S
C163 C162 1.377 . S
C163 C164 1.389 . S
C163 H185 0.929 . S
C164 C160 1.397 . S
C164 C163 1.389 . S
C164 H186 0.931 . S
C165 C162 1.481 . S
C165 C166 1.387 . S
C165 C170 1.390 . S
C166 C165 1.387 . S
C166 C167 1.401 . S
C166 H187 0.930 . S
C167 C166 1.401 . S
C167 C168 1.376 . S
C167 C176 1.511 . S
C168 C167 1.376 . S
C168 C169 1.392 . S
C168 H189 0.931 . S
C169 C168 1.392 . S
C169 C170 1.361 . S
C169 C171 1.500 . S
C170 C165 1.390 . S
C170 C169 1.361 . S
C170 H188 0.931 . S
C171 C169 1.500 . S
C171 C172 1.371 . S
C171 C173 1.365 . S
C172 C171 1.371 . S
C172 C182 1.386 . S
C172 H190 0.931 . S
C173 C171 1.365 . S
C173 C174 1.409 . S
C173 H191 0.929 . S
C174 C173 1.409 . S
C174 C175 1.380 . S
C174 H192 0.930 . S
C175 C174 1.380 . S
C175 C182 1.357 . S
C176 C167 1.511 . S
C176 C177 1.341 . S
C176 C178 1.371 . S
C177 C176 1.341 . S
C177 C181 1.394 . S
C177 H193 0.930 . S
C178 C176 1.371 . S
C178 C179 1.392 . S
C178 H194 0.931 . S
C179 C178 1.392 . S
C179 C180 1.331 . S
C179 H197 0.932 . S
C180 C179 1.331 . S
C180 C181 1.336 . S
C181 C177 1.394 . S
C181 C180 1.336 . S
C181 H196 0.929 . S
C182 C172 1.386 . S
C182 C175 1.357 . S
C182 H195 0.928 . S
H183 C159 0.931 . S
H184 C161 0.930 . S
H185 C163 0.929 . S
H186 C164 0.931 . S
H187 C166 0.930 . S
H188 C170 0.931 . S
H189 C168 0.931 . S
H190 C172 0.931 . S
H191 C173 0.929 . S
H192 C174 0.930 . S
H193 C177 0.930 . S
H194 C178 0.931 . S
H195 C182 0.928 . S
H196 C181 0.929 . S
H197 C179 0.932 . S
C198 C199 1.386 . S
C198 C200 1.397 . S
C198 H222 0.931 . S
C199 C198 1.386 . S
C199 C203 1.397 . S
C200 C198 1.397 . S
C200 C201 1.384 . S
C200 H223 0.930 . S
C201 C200 1.384 . S
C201 C202 1.377 . S
C201 C204 1.481 . S
C202 C201 1.377 . S
C202 C203 1.389 . S
C202 H224 0.929 1_455 S
C203 C199 1.397 . S
C203 C202 1.389 . S
C203 H225 0.931 1_455 S
C204 C201 1.481 . S
C204 C205 1.387 . S
C204 C209 1.390 . S
C205 C204 1.387 . S
C205 C206 1.401 . S
C205 H226 0.930 . S
C206 C205 1.401 . S
C206 C207 1.376 . S
C206 C215 1.511 . S
C207 C206 1.376 . S
C207 C208 1.392 . S
C207 H228 0.931 . S
C208 C207 1.392 . S
C208 C209 1.361 . S
C208 C210 1.500 1_455 S
C209 C204 1.390 . S
C209 C208 1.361 . S
C209 H227 0.931 1_455 S
C210 C208 1.500 1_655 S
C210 C211 1.371 . S
C210 C212 1.365 . S
C211 C210 1.371 . S
C211 C221 1.386 . S
C211 H229 0.931 1_655 S
C212 C210 1.365 . S
C212 C213 1.409 . S
C212 H230 0.929 . S
C213 C212 1.409 . S
C213 C214 1.380 . S
C213 H231 0.930 . S
C214 C213 1.380 . S
C214 C221 1.357 . S
C215 C206 1.511 . S
C215 C216 1.341 . S
C215 C217 1.371 . S
C216 C215 1.341 . S
C216 C220 1.394 . S
C216 H232 0.930 . S
C217 C215 1.371 . S
C217 C218 1.392 . S
C217 H233 0.931 . S
C218 C217 1.392 . S
C218 C219 1.331 . S
C218 H236 0.932 . S
C219 C218 1.331 . S
C219 C220 1.336 . S
C220 C216 1.394 . S
C220 C219 1.336 . S
C220 H235 0.929 . S
C221 C211 1.386 . S
C221 C214 1.357 . S
C221 H234 0.928 . S
H222 C198 0.931 . S
H223 C200 0.930 . S
H224 C202 0.929 1_655 S
H225 C203 0.931 1_655 S
H226 C205 0.930 . S
H227 C209 0.931 1_655 S
H228 C207 0.931 . S
H229 C211 0.931 1_455 S
H230 C212 0.929 . S
H231 C213 0.930 . S
H232 C216 0.930 . S
H233 C217 0.931 . S
H234 C221 0.928 . S
H235 C220 0.929 . S
H236 C218 0.932 . S
C237 C238 1.398 . S
C237 C239 1.397 . S
C237 H261 0.931 . S
C238 C237 1.398 . S
C238 C242 1.385 1_655 S
C239 C237 1.397 . S
C239 C240 1.384 . S
C239 H262 0.930 . S
C240 C239 1.384 . S
C240 C241 1.377 1_655 S
C240 C243 1.481 . S
C241 C240 1.377 1_455 S
C241 C242 1.389 . S
C241 H263 0.929 . S
C242 C238 1.385 1_455 S
C242 C241 1.389 . S
C242 H264 0.931 . S
C243 C240 1.481 . S
C243 C244 1.387 . S
C243 C248 1.390 1_655 S
C244 C243 1.387 . S
C244 C245 1.401 . S
C244 H265 0.930 . S
C245 C244 1.401 . S
C245 C246 1.376 . S
C245 C254 1.511 . S
C246 C245 1.376 . S
C246 C247 1.392 1_655 S
C246 H267 0.931 . S
C247 C246 1.392 1_455 S
C247 C248 1.361 . S
C247 C249 1.500 . S
C248 C243 1.390 1_455 S
C248 C247 1.361 . S
C248 H266 0.931 . S
C249 C247 1.500 . S
C249 C250 1.371 . S
C249 C251 1.365 . S
C250 C249 1.371 . S
C250 C260 1.386 . S
C250 H268 0.931 . S
C251 C249 1.365 . S
C251 C252 1.409 . S
C251 H269 0.929 . S
C252 C251 1.409 . S
C252 C253 1.380 . S
C252 H270 0.930 . S
C253 C252 1.380 . S
C253 C260 1.357 . S
C254 C245 1.511 . S
C254 C255 1.341 . S
C254 C256 1.371 . S
C255 C254 1.341 . S
C255 C259 1.394 . S
C255 H271 0.930 . S
C256 C254 1.371 . S
C256 C257 1.392 . S
C256 H272 0.931 . S
C257 C256 1.392 . S
C257 C258 1.331 . S
C257 H275 0.932 . S
C258 C257 1.331 . S
C258 C259 1.336 . S
C259 C255 1.394 . S
C259 C258 1.336 . S
C259 H274 0.929 . S
C260 C250 1.386 . S
C260 C253 1.357 . S
C260 H273 0.928 . S
H261 C237 0.931 . S
H262 C239 0.930 . S
H263 C241 0.929 . S
H264 C242 0.931 . S
H265 C244 0.930 . S
H266 C248 0.931 . S
H267 C246 0.931 . S
H268 C250 0.931 . S
H269 C251 0.929 . S
H270 C252 0.930 . S
H271 C255 0.930 . S
H272 C256 0.931 . S
H273 C260 0.928 . S
H274 C259 0.929 . S
H275 C257 0.932 . S
C276 C277 1.386 . S
C276 C278 1.397 . S
C276 H300 0.931 . S
C277 C276 1.386 . S
C277 C281 1.397 1_565 S
C278 C276 1.397 . S
C278 C279 1.384 . S
C278 H301 0.930 . S
C279 C278 1.384 . S
C279 C280 1.377 1_565 S
C279 C282 1.481 1_565 S
C280 C279 1.377 1_545 S
C280 C281 1.389 . S
C280 H302 0.929 . S
C281 C277 1.397 1_545 S
C281 C280 1.389 . S
C281 H303 0.931 . S
C282 C279 1.481 1_545 S
C282 C283 1.381 1_545 S
C282 C287 1.397 . S
C283 C282 1.381 1_565 S
C283 C284 1.401 . S
C283 H304 0.930 . S
C284 C283 1.401 . S
C284 C285 1.376 1_565 S
C284 C293 1.511 . S
C285 C284 1.376 1_545 S
C285 C286 1.392 . S
C285 H306 0.931 . S
C286 C285 1.392 . S
C286 C287 1.361 . S
C286 C288 1.500 . S
C287 C282 1.397 . S
C287 C286 1.361 . S
C287 H305 0.931 . S
C288 C286 1.500 . S
C288 C289 1.371 . S
C288 C290 1.365 . S
C289 C288 1.371 . S
C289 C299 1.386 . S
C289 H307 0.931 . S
C290 C288 1.365 . S
C290 C291 1.409 . S
C290 H308 0.929 . S
C291 C290 1.409 . S
C291 C292 1.380 . S
C291 H309 0.930 . S
C292 C291 1.380 . S
C292 C299 1.357 . S
C293 C284 1.511 . S
C293 C294 1.341 . S
C293 C295 1.371 . S
C294 C293 1.341 . S
C294 C298 1.394 . S
C294 H310 0.930 . S
C295 C293 1.371 . S
C295 C296 1.392 . S
C295 H311 0.931 . S
C296 C295 1.392 . S
C296 C297 1.331 . S
C296 H314 0.932 . S
C297 C296 1.331 . S
C297 C298 1.336 . S
C298 C294 1.394 . S
C298 C297 1.336 . S
C298 H313 0.929 . S
C299 C289 1.386 . S
C299 C292 1.357 . S
C299 H312 0.928 . S
H300 C276 0.931 . S
H301 C278 0.930 . S
H302 C280 0.929 . S
H303 C281 0.931 . S
H304 C283 0.930 . S
H305 C287 0.931 . S
H306 C285 0.931 . S
H307 C289 0.931 . S
H308 C290 0.929 . S
H309 C291 0.930 . S
H310 C294 0.930 . S
H311 C295 0.931 . S
H312 C299 0.928 . S
H313 C298 0.929 . S
H314 C296 0.932 . S
C315 C316 1.386 . S
C315 C317 1.397 . S
C315 H339 0.931 . S
C316 C315 1.386 . S
C316 C320 1.397 . S
C317 C315 1.397 . S
C317 C318 1.384 . S
C317 H340 0.930 . S
C318 C317 1.384 . S
C318 C319 1.377 . S
C318 C321 1.481 . S
C319 C318 1.377 . S
C319 C320 1.389 . S
C319 H341 0.929 . S
C320 C316 1.397 . S
C320 C319 1.389 . S
C320 H342 0.931 . S
C321 C318 1.481 . S
C321 C322 1.387 . S
C321 C326 1.390 . S
C322 C321 1.387 . S
C322 C323 1.401 . S
C322 H343 0.930 . S
C323 C322 1.401 . S
C323 C324 1.376 . S
C323 C332 1.511 . S
C324 C323 1.376 . S
C324 C325 1.392 . S
C324 H345 0.931 . S
C325 C324 1.392 . S
C325 C326 1.361 . S
C325 C327 1.500 . S
C326 C321 1.390 . S
C326 C325 1.361 . S
C326 H344 0.931 . S
C327 C325 1.500 . S
C327 C328 1.371 . S
C327 C329 1.365 . S
C328 C327 1.371 . S
C328 C338 1.386 . S
C328 H346 0.931 . S
C329 C327 1.365 . S
C329 C330 1.409 . S
C329 H347 0.929 . S
C330 C329 1.409 . S
C330 C331 1.380 . S
C330 H348 0.930 . S
C331 C330 1.380 . S
C331 C338 1.357 . S
C332 C323 1.511 . S
C332 C333 1.341 . S
C332 C334 1.371 . S
C333 C332 1.341 . S
C333 C337 1.394 . S
C333 H349 0.930 . S
C334 C332 1.371 . S
C334 C335 1.392 . S
C334 H350 0.931 . S
C335 C334 1.392 . S
C335 C336 1.331 . S
C335 H353 0.932 . S
C336 C335 1.331 . S
C336 C337 1.336 . S
C337 C333 1.394 . S
C337 C336 1.336 . S
C337 H352 0.929 . S
C338 C328 1.386 . S
C338 C331 1.357 . S
C338 H351 0.928 . S
H339 C315 0.931 . S
H340 C317 0.930 . S
H341 C319 0.929 . S
H342 C320 0.931 . S
H343 C322 0.930 . S
H344 C326 0.931 . S
H345 C324 0.931 . S
H346 C328 0.931 . S
H347 C329 0.929 . S
H348 C330 0.930 . S
H349 C333 0.930 . S
H350 C334 0.931 . S
H351 C338 0.928 . S
H352 C337 0.929 . S
H353 C335 0.932 . S
C354 C355 1.391 . S
C354 C356 1.394 . S
C354 H370 0.931 . S
C355 C354 1.391 . S
C355 C359 1.376 . S
C356 C354 1.394 . S
C356 C357 1.369 . S
C356 C360 1.531 . S
C357 C356 1.369 . S
C357 C358 1.410 . S
C357 C365 1.503 . S
C358 C357 1.410 . S
C358 C359 1.392 . S
C358 C361 1.511 . S
C359 C355 1.376 . S
C359 C358 1.392 . S
C359 H371 0.929 . S
C360 C356 1.531 . S
C360 H372 0.960 . S
C360 H373 0.962 . S
C360 H374 0.960 . S
C361 C358 1.511 . S
C361 H375 0.961 . S
C361 H376 0.961 . S
C361 H377 0.961 . S
C362 C363 1.370 . S
C362 C364 1.363 . S
C362 H378 0.931 . S
C363 C362 1.370 . S
C363 C367 1.408 . S
C364 C362 1.363 . S
C364 C365 1.370 . S
C364 C368 1.524 . S
C365 C357 1.503 . S
C365 C364 1.370 . S
C365 C366 1.403 . S
C366 C365 1.403 . S
C366 C367 1.404 . S
C366 C369 1.539 . S
C367 C363 1.408 . S
C367 C366 1.404 . S
C367 H379 0.930 . S
C368 C364 1.524 . S
C368 H380 0.956 . S
C368 H381 0.961 . S
C368 H382 0.961 . S
C369 C366 1.539 . S
C369 H383 0.958 . S
C369 H384 0.961 . S
C369 H385 0.960 . S
H370 C354 0.931 . S
H371 C359 0.929 . S
H372 C360 0.960 . S
H373 C360 0.962 . S
H374 C360 0.960 . S
H375 C361 0.961 . S
H376 C361 0.961 . S
H377 C361 0.961 . S
H378 C362 0.931 . S
H379 C367 0.930 . S
H380 C368 0.956 . S
H381 C368 0.961 . S
H382 C368 0.961 . S
H383 C369 0.958 . S
H384 C369 0.961 . S
H385 C369 0.960 . S
C386 C387 1.391 . S
C386 C388 1.394 . S
C386 H402 0.931 . S
C387 C386 1.391 . S
C387 C391 1.376 . S
C388 C386 1.394 . S
C388 C389 1.369 . S
C388 C392 1.531 . S
C389 C388 1.369 . S
C389 C390 1.410 . S
C389 C397 1.503 . S
C390 C389 1.410 . S
C390 C391 1.392 . S
C390 C393 1.511 . S
C391 C387 1.376 . S
C391 C390 1.392 . S
C391 H403 0.929 . S
C392 C388 1.531 . S
C392 H404 0.960 . S
C392 H405 0.962 . S
C392 H406 0.960 . S
C393 C390 1.511 . S
C393 H407 0.961 . S
C393 H408 0.961 . S
C393 H409 0.961 . S
C394 C395 1.370 . S
C394 C396 1.363 . S
C394 H410 0.931 . S
C395 C394 1.370 . S
C395 C399 1.408 . S
C396 C394 1.363 . S
C396 C397 1.370 . S
C396 C400 1.524 . S
C397 C389 1.503 . S
C397 C396 1.370 . S
C397 C398 1.403 . S
C398 C397 1.403 . S
C398 C399 1.404 . S
C398 C401 1.539 . S
C399 C395 1.408 . S
C399 C398 1.404 . S
C399 H411 0.930 . S
C400 C396 1.524 . S
C400 H412 0.956 . S
C400 H413 0.961 . S
C400 H414 0.961 . S
C401 C398 1.539 . S
C401 H415 0.958 . S
C401 H416 0.961 . S
C401 H417 0.960 . S
H402 C386 0.931 . S
H403 C391 0.929 . S
H404 C392 0.960 . S
H405 C392 0.962 . S
H406 C392 0.960 . S
H407 C393 0.961 . S
H408 C393 0.961 . S
H409 C393 0.961 . S
H410 C394 0.931 . S
H411 C399 0.930 . S
H412 C400 0.956 . S
H413 C400 0.961 . S
H414 C400 0.961 . S
H415 C401 0.958 . S
H416 C401 0.961 . S
H417 C401 0.960 . S
C418 C419 1.391 . S
C418 C420 1.394 . S
C418 H434 0.931 . S
C419 C418 1.391 . S
C419 C423 1.376 . S
C420 C418 1.394 . S
C420 C421 1.369 . S
C420 C424 1.531 . S
C421 C420 1.369 . S
C421 C422 1.410 . S
C421 C429 1.503 . S
C422 C421 1.410 . S
C422 C423 1.392 . S
C422 C425 1.511 . S
C423 C419 1.376 . S
C423 C422 1.392 . S
C423 H435 0.929 . S
C424 C420 1.531 . S
C424 H436 0.960 . S
C424 H437 0.962 . S
C424 H438 0.960 . S
C425 C422 1.511 . S
C425 H439 0.961 . S
C425 H440 0.961 . S
C425 H441 0.961 . S
C426 C427 1.370 . S
C426 C428 1.363 . S
C426 H442 0.931 . S
C427 C426 1.370 . S
C427 C431 1.408 . S
C428 C426 1.363 . S
C428 C429 1.370 . S
C428 C432 1.524 . S
C429 C421 1.503 . S
C429 C428 1.370 . S
C429 C430 1.403 . S
C430 C429 1.403 . S
C430 C431 1.404 . S
C430 C433 1.539 . S
C431 C427 1.408 . S
C431 C430 1.404 . S
C431 H443 0.930 . S
C432 C428 1.524 . S
C432 H444 0.956 . S
C432 H445 0.961 . S
C432 H446 0.961 . S
C433 C430 1.539 . S
C433 H447 0.958 . S
C433 H448 0.961 . S
C433 H449 0.960 . S
H434 C418 0.931 . S
H435 C423 0.929 . S
H436 C424 0.960 . S
H437 C424 0.962 . S
H438 C424 0.960 . S
H439 C425 0.961 . S
H440 C425 0.961 . S
H441 C425 0.961 . S
H442 C426 0.931 . S
H443 C431 0.930 . S
H444 C432 0.956 . S
H445 C432 0.961 . S
H446 C432 0.961 . S
H447 C433 0.958 . S
H448 C433 0.961 . S
H449 C433 0.960 . S
C450 C451 1.391 . S
C450 C452 1.394 . S
C450 H466 0.931 . S
C451 C450 1.391 . S
C451 C455 1.376 . S
C452 C450 1.394 . S
C452 C453 1.369 . S
C452 C456 1.531 . S
C453 C452 1.369 . S
C453 C454 1.410 . S
C453 C461 1.503 . S
C454 C453 1.410 . S
C454 C455 1.392 . S
C454 C457 1.511 . S
C455 C451 1.376 . S
C455 C454 1.392 . S
C455 H467 0.929 . S
C456 C452 1.531 . S
C456 H468 0.960 . S
C456 H469 0.962 . S
C456 H470 0.960 . S
C457 C454 1.511 . S
C457 H471 0.961 . S
C457 H472 0.961 . S
C457 H473 0.961 . S
C458 C459 1.370 . S
C458 C460 1.363 . S
C458 H474 0.931 . S
C459 C458 1.370 . S
C459 C463 1.408 . S
C460 C458 1.363 . S
C460 C461 1.370 . S
C460 C464 1.524 . S
C461 C453 1.503 . S
C461 C460 1.370 . S
C461 C462 1.403 . S
C462 C461 1.403 . S
C462 C463 1.404 . S
C462 C465 1.539 . S
C463 C459 1.408 . S
C463 C462 1.404 . S
C463 H475 0.930 . S
C464 C460 1.524 . S
C464 H476 0.956 . S
C464 H477 0.961 . S
C464 H478 0.961 . S
C465 C462 1.539 . S
C465 H479 0.958 . S
C465 H480 0.961 . S
C465 H481 0.960 . S
H466 C450 0.931 . S
H467 C455 0.929 . S
H468 C456 0.960 . S
H469 C456 0.962 . S
H470 C456 0.960 . S
H471 C457 0.961 . S
H472 C457 0.961 . S
H473 C457 0.961 . S
H474 C458 0.931 . S
H475 C463 0.930 . S
H476 C464 0.956 . S
H477 C464 0.961 . S
H478 C464 0.961 . S
H479 C465 0.958 . S
H480 C465 0.961 . S
H481 C465 0.960 . S
C482 C483 1.391 . S
C482 C484 1.394 . S
C482 H498 0.931 . S
C483 C482 1.391 . S
C483 C487 1.376 . S
C484 C482 1.394 . S
C484 C485 1.369 . S
C484 C488 1.531 . S
C485 C484 1.369 . S
C485 C486 1.410 . S
C485 C493 1.503 . S
C486 C485 1.410 . S
C486 C487 1.392 . S
C486 C489 1.511 . S
C487 C483 1.376 . S
C487 C486 1.392 . S
C487 H499 0.929 . S
C488 C484 1.531 . S
C488 H500 0.960 . S
C488 H501 0.962 . S
C488 H502 0.960 . S
C489 C486 1.511 . S
C489 H503 0.961 . S
C489 H504 0.961 . S
C489 H505 0.961 . S
C490 C491 1.370 . S
C490 C492 1.363 . S
C490 H506 0.931 . S
C491 C490 1.370 . S
C491 C495 1.408 . S
C492 C490 1.363 . S
C492 C493 1.370 . S
C492 C496 1.524 . S
C493 C485 1.503 . S
C493 C492 1.370 . S
C493 C494 1.403 . S
C494 C493 1.403 . S
C494 C495 1.404 . S
C494 C497 1.539 . S
C495 C491 1.408 . S
C495 C494 1.404 . S
C495 H507 0.930 . S
C496 C492 1.524 . S
C496 H508 0.956 . S
C496 H509 0.961 . S
C496 H510 0.961 . S
C497 C494 1.539 . S
C497 H511 0.958 . S
C497 H512 0.961 . S
C497 H513 0.960 . S
H498 C482 0.931 . S
H499 C487 0.929 . S
H500 C488 0.960 . S
H501 C488 0.962 . S
H502 C488 0.960 . S
H503 C489 0.961 . S
H504 C489 0.961 . S
H505 C489 0.961 . S
H506 C490 0.931 . S
H507 C495 0.930 . S
H508 C496 0.956 . S
H509 C496 0.961 . S
H510 C496 0.961 . S
H511 C497 0.958 . S
H512 C497 0.961 . S
H513 C497 0.960 . S
C514 C515 1.391 . S
C514 C516 1.394 . S
C514 H530 0.931 . S
C515 C514 1.391 . S
C515 C519 1.376 . S
C516 C514 1.394 . S
C516 C517 1.369 . S
C516 C520 1.531 . S
C517 C516 1.369 . S
C517 C518 1.410 . S
C517 C525 1.503 . S
C518 C517 1.410 . S
C518 C519 1.392 . S
C518 C521 1.511 . S
C519 C515 1.376 . S
C519 C518 1.392 . S
C519 H531 0.929 . S
C520 C516 1.531 . S
C520 H532 0.960 . S
C520 H533 0.962 . S
C520 H534 0.960 . S
C521 C518 1.511 . S
C521 H535 0.961 . S
C521 H536 0.961 . S
C521 H537 0.961 . S
C522 C523 1.370 . S
C522 C524 1.363 . S
C522 H538 0.931 . S
C523 C522 1.370 . S
C523 C527 1.408 . S
C524 C522 1.363 . S
C524 C525 1.370 . S
C524 C528 1.524 . S
C525 C517 1.503 . S
C525 C524 1.370 . S
C525 C526 1.403 . S
C526 C525 1.403 . S
C526 C527 1.404 . S
C526 C529 1.539 . S
C527 C523 1.408 . S
C527 C526 1.404 . S
C527 H539 0.930 . S
C528 C524 1.524 . S
C528 H540 0.956 . S
C528 H541 0.961 . S
C528 H542 0.961 . S
C529 C526 1.539 . S
C529 H543 0.958 . S
C529 H544 0.961 . S
C529 H545 0.960 . S
H530 C514 0.931 . S
H531 C519 0.929 . S
H532 C520 0.960 . S
H533 C520 0.962 . S
H534 C520 0.960 . S
H535 C521 0.961 . S
H536 C521 0.961 . S
H537 C521 0.961 . S
H538 C522 0.931 . S
H539 C527 0.930 . S
H540 C528 0.956 . S
H541 C528 0.961 . S
H542 C528 0.961 . S
H543 C529 0.958 . S
H544 C529 0.961 . S
H545 C529 0.960 . S
C546 C547 1.391 . S
C546 C548 1.394 . S
C546 H562 0.931 . S
C547 C546 1.391 . S
C547 C551 1.376 . S
C548 C546 1.394 . S
C548 C549 1.369 . S
C548 C552 1.531 . S
C549 C548 1.369 . S
C549 C550 1.410 . S
C549 C557 1.503 . S
C550 C549 1.410 . S
C550 C551 1.392 . S
C550 C553 1.511 . S
C551 C547 1.376 . S
C551 C550 1.392 . S
C551 H563 0.929 . S
C552 C548 1.531 . S
C552 H564 0.960 . S
C552 H565 0.962 . S
C552 H566 0.960 . S
C553 C550 1.511 . S
C553 H567 0.961 . S
C553 H568 0.961 . S
C553 H569 0.961 . S
C554 C555 1.370 . S
C554 C556 1.363 . S
C554 H570 0.931 . S
C555 C554 1.370 . S
C555 C559 1.408 . S
C556 C554 1.363 . S
C556 C557 1.370 . S
C556 C560 1.524 . S
C557 C549 1.503 . S
C557 C556 1.370 . S
C557 C558 1.403 . S
C558 C557 1.403 . S
C558 C559 1.404 . S
C558 C561 1.539 . S
C559 C555 1.408 . S
C559 C558 1.404 . S
C559 H571 0.930 . S
C560 C556 1.524 . S
C560 H572 0.956 . S
C560 H573 0.961 . S
C560 H574 0.961 . S
C561 C558 1.539 . S
C561 H575 0.958 . S
C561 H576 0.961 . S
C561 H577 0.960 . S
H562 C546 0.931 . S
H563 C551 0.929 . S
H564 C552 0.960 . S
H565 C552 0.962 . S
H566 C552 0.960 . S
H567 C553 0.961 . S
H568 C553 0.961 . S
H569 C553 0.961 . S
H570 C554 0.931 . S
H571 C559 0.930 . S
H572 C560 0.956 . S
H573 C560 0.961 . S
H574 C560 0.961 . S
H575 C561 0.958 . S
H576 C561 0.961 . S
H577 C561 0.960 . S
C578 C579 1.391 . S
C578 C580 1.394 . S
C578 H594 0.931 . S
C579 C578 1.391 . S
C579 C583 1.376 . S
C580 C578 1.394 . S
C580 C581 1.369 . S
C580 C584 1.531 . S
C581 C580 1.369 . S
C581 C582 1.410 . S
C581 C589 1.503 . S
C582 C581 1.410 . S
C582 C583 1.392 . S
C582 C585 1.511 . S
C583 C579 1.376 . S
C583 C582 1.392 . S
C583 H595 0.929 . S
C584 C580 1.531 . S
C584 H596 0.960 . S
C584 H597 0.962 . S
C584 H598 0.960 . S
C585 C582 1.511 . S
C585 H599 0.961 . S
C585 H600 0.961 . S
C585 H601 0.961 . S
C586 C587 1.370 . S
C586 C588 1.363 . S
C586 H602 0.931 . S
C587 C586 1.370 . S
C587 C591 1.408 . S
C588 C586 1.363 . S
C588 C589 1.370 . S
C588 C592 1.524 . S
C589 C581 1.503 . S
C589 C588 1.370 . S
C589 C590 1.403 . S
C590 C589 1.403 . S
C590 C591 1.404 . S
C590 C593 1.539 . S
C591 C587 1.408 . S
C591 C590 1.404 . S
C591 H603 0.930 . S
C592 C588 1.524 . S
C592 H604 0.956 . S
C592 H605 0.961 . S
C592 H606 0.961 . S
C593 C590 1.539 . S
C593 H607 0.958 . S
C593 H608 0.961 . S
C593 H609 0.960 . S
H594 C578 0.931 . S
H595 C583 0.929 . S
H596 C584 0.960 . S
H597 C584 0.962 . S
H598 C584 0.960 . S
H599 C585 0.961 . S
H600 C585 0.961 . S
H601 C585 0.961 . S
H602 C586 0.931 . S
H603 C591 0.930 . S
H604 C592 0.956 . S
H605 C592 0.961 . S
H606 C592 0.961 . S
H607 C593 0.958 . S
H608 C593 0.961 . S
H609 C593 0.960 . S
C610 C611 1.391 . S
C610 C612 1.394 . S
C610 H626 0.931 . S
C611 C610 1.391 . S
C611 C615 1.376 . S
C612 C610 1.394 . S
C612 C613 1.369 . S
C612 C616 1.531 . S
C613 C612 1.369 . S
C613 C614 1.410 . S
C613 C621 1.503 . S
C614 C613 1.410 . S
C614 C615 1.392 . S
C614 C617 1.511 . S
C615 C611 1.376 . S
C615 C614 1.392 . S
C615 H627 0.929 . S
C616 C612 1.531 . S
C616 H628 0.960 . S
C616 H629 0.962 . S
C616 H630 0.960 . S
C617 C614 1.511 . S
C617 H631 0.961 . S
C617 H632 0.961 . S
C617 H633 0.961 . S
C618 C619 1.370 . S
C618 C620 1.363 . S
C618 H634 0.931 . S
C619 C618 1.370 . S
C619 C623 1.408 . S
C620 C618 1.363 . S
C620 C621 1.370 . S
C620 C624 1.524 . S
C621 C613 1.503 . S
C621 C620 1.370 . S
C621 C622 1.403 . S
C622 C621 1.403 . S
C622 C623 1.404 . S
C622 C625 1.539 . S
C623 C619 1.408 . S
C623 C622 1.404 . S
C623 H635 0.930 . S
C624 C620 1.524 . S
C624 H636 0.956 . S
C624 H637 0.961 . S
C624 H638 0.961 . S
C625 C622 1.539 . S
C625 H639 0.958 . S
C625 H640 0.961 . S
C625 H641 0.960 . S
H626 C610 0.931 . S
H627 C615 0.929 . S
H628 C616 0.960 . S
H629 C616 0.962 . S
H630 C616 0.960 . S
H631 C617 0.961 . S
H632 C617 0.961 . S
H633 C617 0.961 . S
H634 C618 0.931 . S
H635 C623 0.930 . S
H636 C624 0.956 . S
H637 C624 0.961 . S
H638 C624 0.961 . S
H639 C625 0.958 . S
H640 C625 0.961 . S
H641 C625 0.960 . S
C642 C643 1.391 . S
C642 C644 1.394 . S
C642 H658 0.931 . S
C643 C642 1.391 . S
C643 C647 1.376 . S
C644 C642 1.394 . S
C644 C645 1.369 . S
C644 C648 1.531 . S
C645 C644 1.369 . S
C645 C646 1.410 . S
C645 C653 1.503 . S
C646 C645 1.410 . S
C646 C647 1.392 . S
C646 C649 1.511 . S
C647 C643 1.376 . S
C647 C646 1.392 . S
C647 H659 0.929 . S
C648 C644 1.531 . S
C648 H660 0.960 . S
C648 H661 0.962 . S
C648 H662 0.960 . S
C649 C646 1.511 . S
C649 H663 0.961 . S
C649 H664 0.961 . S
C649 H665 0.961 . S
C650 C651 1.370 . S
C650 C652 1.363 . S
C650 H666 0.931 . S
C651 C650 1.370 . S
C651 C655 1.408 . S
C652 C650 1.363 . S
C652 C653 1.370 . S
C652 C656 1.524 . S
C653 C645 1.503 . S
C653 C652 1.370 . S
C653 C654 1.403 . S
C654 C653 1.403 . S
C654 C655 1.404 . S
C654 C657 1.539 . S
C655 C651 1.408 . S
C655 C654 1.404 . S
C655 H667 0.930 . S
C656 C652 1.524 . S
C656 H668 0.956 . S
C656 H669 0.961 . S
C656 H670 0.961 . S
C657 C654 1.539 . S
C657 H671 0.958 . S
C657 H672 0.961 . S
C657 H673 0.960 . S
H658 C642 0.931 . S
H659 C647 0.929 . S
H660 C648 0.960 . S
H661 C648 0.962 . S
H662 C648 0.960 . S
H663 C649 0.961 . S
H664 C649 0.961 . S
H665 C649 0.961 . S
H666 C650 0.931 . S
H667 C655 0.930 . S
H668 C656 0.956 . S
H669 C656 0.961 . S
H670 C656 0.961 . S
H671 C657 0.958 . S
H672 C657 0.961 . S
H673 C657 0.960 . S
C674 C675 1.391 . S
C674 C676 1.394 . S
C674 H690 0.931 . S
C675 C674 1.391 . S
C675 C679 1.376 . S
C676 C674 1.394 . S
C676 C677 1.369 . S
C676 C680 1.531 . S
C677 C676 1.369 . S
C677 C678 1.410 . S
C677 C685 1.503 . S
C678 C677 1.410 . S
C678 C679 1.392 . S
C678 C681 1.511 . S
C679 C675 1.376 . S
C679 C678 1.392 . S
C679 H691 0.929 . S
C680 C676 1.531 . S
C680 H692 0.960 . S
C680 H693 0.962 . S
C680 H694 0.960 . S
C681 C678 1.511 . S
C681 H695 0.961 . S
C681 H696 0.961 . S
C681 H697 0.961 . S
C682 C683 1.370 . S
C682 C684 1.363 . S
C682 H698 0.931 . S
C683 C682 1.370 . S
C683 C687 1.408 . S
C684 C682 1.363 . S
C684 C685 1.370 . S
C684 C688 1.524 . S
C685 C677 1.503 . S
C685 C684 1.370 . S
C685 C686 1.403 . S
C686 C685 1.403 . S
C686 C687 1.404 . S
C686 C689 1.539 . S
C687 C683 1.408 . S
C687 C686 1.404 . S
C687 H699 0.930 . S
C688 C684 1.524 . S
C688 H700 0.956 . S
C688 H701 0.961 . S
C688 H702 0.961 . S
C689 C686 1.539 . S
C689 H703 0.958 . S
C689 H704 0.961 . S
C689 H705 0.960 . S
H690 C674 0.931 . S
H691 C679 0.929 . S
H692 C680 0.960 . S
H693 C680 0.962 . S
H694 C680 0.960 . S
H695 C681 0.961 . S
H696 C681 0.961 . S
H697 C681 0.961 . S
H698 C682 0.931 . S
H699 C687 0.930 . S
H700 C688 0.956 . S
H701 C688 0.961 . S
H702 C688 0.961 . S
H703 C689 0.958 . S
H704 C689 0.961 . S
H705 C689 0.960 . S
C706 C707 1.391 . S
C706 C708 1.394 . S
C706 H722 0.931 . S
C707 C706 1.391 . S
C707 C711 1.376 . S
C708 C706 1.394 . S
C708 C709 1.369 . S
C708 C712 1.531 . S
C709 C708 1.369 . S
C709 C710 1.410 . S
C709 C717 1.503 . S
C710 C709 1.410 . S
C710 C711 1.392 . S
C710 C713 1.511 . S
C711 C707 1.376 . S
C711 C710 1.392 . S
C711 H723 0.929 . S
C712 C708 1.531 . S
C712 H724 0.960 . S
C712 H725 0.962 . S
C712 H726 0.960 . S
C713 C710 1.511 . S
C713 H727 0.961 . S
C713 H728 0.961 . S
C713 H729 0.961 . S
C714 C715 1.370 . S
C714 C716 1.363 . S
C714 H730 0.931 . S
C715 C714 1.370 . S
C715 C719 1.408 . S
C716 C714 1.363 . S
C716 C717 1.370 . S
C716 C720 1.524 . S
C717 C709 1.503 . S
C717 C716 1.370 . S
C717 C718 1.403 . S
C718 C717 1.403 . S
C718 C719 1.404 . S
C718 C721 1.539 . S
C719 C715 1.408 . S
C719 C718 1.404 . S
C719 H731 0.930 . S
C720 C716 1.524 . S
C720 H732 0.956 . S
C720 H733 0.961 . S
C720 H734 0.961 . S
C721 C718 1.539 . S
C721 H735 0.958 . S
C721 H736 0.961 . S
C721 H737 0.960 . S
H722 C706 0.931 . S
H723 C711 0.929 . S
H724 C712 0.960 . S
H725 C712 0.962 . S
H726 C712 0.960 . S
H727 C713 0.961 . S
H728 C713 0.961 . S
H729 C713 0.961 . S
H730 C714 0.931 . S
H731 C719 0.930 . S
H732 C720 0.956 . S
H733 C720 0.961 . S
H734 C720 0.961 . S
H735 C721 0.958 . S
H736 C721 0.961 . S
H737 C721 0.960 . S
C738 C739 1.391 . S
C738 C740 1.394 . S
C738 H754 0.931 1_455 S
C739 C738 1.391 . S
C739 C743 1.376 . S
C740 C738 1.394 . S
C740 C741 1.369 . S
C740 C744 1.531 1_455 S
C741 C740 1.369 . S
C741 C742 1.410 . S
C741 C749 1.503 . S
C742 C741 1.410 . S
C742 C743 1.392 . S
C742 C745 1.511 . S
C743 C739 1.376 . S
C743 C742 1.392 . S
C743 H755 0.929 . S
C744 C740 1.531 1_655 S
C744 H756 0.960 1_655 S
C744 H757 0.962 . S
C744 H758 0.960 . S
C745 C742 1.511 . S
C745 H759 0.961 . S
C745 H760 0.961 . S
C745 H761 0.961 . S
C746 C747 1.381 . S
C746 C748 1.363 . S
C746 H762 0.931 1_455 S
C747 C746 1.381 . S
C747 C751 1.418 . S
C748 C746 1.363 . S
C748 C749 1.370 . S
C748 C752 1.524 1_455 S
C749 C741 1.503 . S
C749 C748 1.370 . S
C749 C750 1.403 . S
C750 C749 1.403 . S
C750 C751 1.404 . S
C750 C753 1.539 . S
C751 C747 1.418 . S
C751 C750 1.404 . S
C751 H763 0.930 . S
C752 C748 1.524 1_655 S
C752 H764 0.956 . S
C752 H765 0.961 . S
C752 H766 0.961 . S
C753 C750 1.539 . S
C753 H767 0.958 . S
C753 H768 0.961 . S
C753 H769 0.960 . S
H754 C738 0.931 1_655 S
H755 C743 0.929 . S
H756 C744 0.960 1_455 S
H757 C744 0.962 . S
H758 C744 0.960 . S
H759 C745 0.961 . S
H760 C745 0.961 . S
H761 C745 0.961 . S
H762 C746 0.931 1_655 S
H763 C751 0.930 . S
H764 C752 0.956 . S
H765 C752 0.961 . S
H766 C752 0.961 . S
H767 C753 0.958 . S
H768 C753 0.961 . S
H769 C753 0.960 . S
C770 C771 1.391 . S
C770 C772 1.394 . S
C770 H786 0.931 . S
C771 C770 1.391 . S
C771 C775 1.376 . S
C772 C770 1.394 . S
C772 C773 1.369 . S
C772 C776 1.531 . S
C773 C772 1.369 . S
C773 C774 1.410 . S
C773 C781 1.503 . S
C774 C773 1.410 . S
C774 C775 1.392 . S
C774 C777 1.511 1_545 S
C775 C771 1.376 . S
C775 C774 1.392 . S
C775 H787 0.929 1_545 S
C776 C772 1.531 . S
C776 H788 0.960 . S
C776 H789 0.962 . S
C776 H790 0.960 . S
C777 C774 1.511 1_565 S
C777 H791 0.961 . S
C777 H792 0.961 . S
C777 H793 0.961 1_565 S
C778 C779 1.370 1_565 S
C778 C780 1.363 . S
C778 H794 0.931 . S
C779 C778 1.370 1_545 S
C779 C783 1.408 . S
C780 C778 1.363 . S
C780 C781 1.370 1_565 S
C780 C784 1.524 . S
C781 C773 1.503 . S
C781 C780 1.370 1_545 S
C781 C782 1.403 . S
C782 C781 1.403 . S
C782 C783 1.404 . S
C782 C785 1.539 . S
C783 C779 1.408 . S
C783 C782 1.404 . S
C783 H795 0.930 . S
C784 C780 1.524 . S
C784 H796 0.956 . S
C784 H797 0.961 . S
C784 H798 0.961 . S
C785 C782 1.539 . S
C785 H799 0.958 . S
C785 H800 0.961 . S
C785 H801 0.960 . S
H786 C770 0.931 . S
H787 C775 0.929 1_565 S
H788 C776 0.960 . S
H789 C776 0.962 . S
H790 C776 0.960 . S
H791 C777 0.961 . S
H792 C777 0.961 . S
H793 C777 0.961 1_545 S
H794 C778 0.931 . S
H795 C783 0.930 . S
H796 C784 0.956 . S
H797 C784 0.961 . S
H798 C784 0.961 . S
H799 C785 0.958 . S
H800 C785 0.961 . S
H801 C785 0.960 . S
C802 C803 1.391 . S
C802 C804 1.394 . S
C802 H818 0.931 . S
C803 C802 1.391 . S
C803 C807 1.376 . S
C804 C802 1.394 . S
C804 C805 1.369 . S
C804 C808 1.531 . S
C805 C804 1.369 . S
C805 C806 1.410 . S
C805 C813 1.503 . S
C806 C805 1.410 . S
C806 C807 1.392 . S
C806 C809 1.511 . S
C807 C803 1.376 . S
C807 C806 1.392 . S
C807 H819 0.929 . S
C808 C804 1.531 . S
C808 H820 0.960 . S
C808 H821 0.962 . S
C808 H822 0.960 . S
C809 C806 1.511 . S
C809 H823 0.961 . S
C809 H824 0.961 . S
C809 H825 0.961 . S
C810 C811 1.370 . S
C810 C812 1.363 . S
C810 H826 0.931 . S
C811 C810 1.370 . S
C811 C815 1.408 . S
C812 C810 1.363 . S
C812 C813 1.370 . S
C812 C816 1.524 . S
C813 C805 1.503 . S
C813 C812 1.370 . S
C813 C814 1.403 . S
C814 C813 1.403 . S
C814 C815 1.404 . S
C814 C817 1.539 . S
C815 C811 1.408 . S
C815 C814 1.404 . S
C815 H827 0.930 . S
C816 C812 1.524 . S
C816 H828 0.956 . S
C816 H829 0.961 . S
C816 H830 0.961 . S
C817 C814 1.539 . S
C817 H831 0.958 . S
C817 H832 0.961 . S
C817 H833 0.960 . S
H818 C802 0.931 . S
H819 C807 0.929 . S
H820 C808 0.960 . S
H821 C808 0.962 . S
H822 C808 0.960 . S
H823 C809 0.961 . S
H824 C809 0.961 . S
H825 C809 0.961 . S
H826 C810 0.931 . S
H827 C815 0.930 . S
H828 C816 0.956 . S
H829 C816 0.961 . S
H830 C816 0.961 . S
H831 C817 0.958 . S
H832 C817 0.961 . S
H833 C817 0.960 . S
C834 C835 1.391 1_565 S
C834 C836 1.394 . S
C834 H850 0.931 . S
C835 C834 1.391 1_545 S
C835 C839 1.376 . S
C836 C834 1.394 . S
C836 C837 1.369 . S
C836 C840 1.531 . S
C837 C836 1.369 . S
C837 C838 1.410 1_565 S
C837 C845 1.503 . S
C838 C837 1.410 1_545 S
C838 C839 1.392 . S
C838 C841 1.511 . S
C839 C835 1.376 . S
C839 C838 1.392 . S
C839 H851 0.929 . S
C840 C836 1.531 . S
C840 H852 0.960 . S
C840 H853 0.962 . S
C840 H854 0.960 . S
C841 C838 1.511 . S
C841 H855 0.961 . S
C841 H856 0.961 . S
C841 H857 0.961 . S
C842 C843 1.370 1_545 S
C842 C844 1.363 . S
C842 H858 0.931 . S
C843 C842 1.370 1_565 S
C843 C847 1.408 . S
C844 C842 1.363 . S
C844 C845 1.370 1_545 S
C844 C848 1.524 . S
C845 C837 1.503 . S
C845 C844 1.370 1_565 S
C845 C846 1.403 . S
C846 C845 1.403 . S
C846 C847 1.404 . S
C846 C849 1.539 . S
C847 C843 1.408 . S
C847 C846 1.404 . S
C847 H859 0.930 . S
C848 C844 1.524 . S
C848 H860 0.956 . S
C848 H861 0.961 . S
C848 H862 0.961 . S
C849 C846 1.539 . S
C849 H863 0.958 . S
C849 H864 0.961 . S
C849 H865 0.960 . S
H850 C834 0.931 . S
H851 C839 0.929 . S
H852 C840 0.960 . S
H853 C840 0.962 . S
H854 C840 0.960 . S
H855 C841 0.961 . S
H856 C841 0.961 . S
H857 C841 0.961 . S
H858 C842 0.931 . S
H859 C847 0.930 . S
H860 C848 0.956 . S
H861 C848 0.961 . S
H862 C848 0.961 . S
H863 C849 0.958 . S
H864 C849 0.961 . S
H865 C849 0.960 . S
C866 C867 1.391 . S
C866 C868 1.394 . S
C866 H882 0.931 . S
C867 C866 1.391 . S
C867 C871 1.376 . S
C868 C866 1.394 . S
C868 C869 1.369 . S
C868 C872 1.531 . S
C869 C868 1.369 . S
C869 C870 1.410 . S
C869 C877 1.503 . S
C870 C869 1.410 . S
C870 C871 1.392 . S
C870 C873 1.511 . S
C871 C867 1.376 . S
C871 C870 1.392 . S
C871 H883 0.929 . S
C872 C868 1.531 . S
C872 H884 0.960 . S
C872 H885 0.962 . S
C872 H886 0.960 . S
C873 C870 1.511 . S
C873 H887 0.961 . S
C873 H888 0.961 . S
C873 H889 0.961 . S
C874 C875 1.370 . S
C874 C876 1.363 . S
C874 H890 0.931 . S
C875 C874 1.370 . S
C875 C879 1.408 . S
C876 C874 1.363 . S
C876 C877 1.370 . S
C876 C880 1.524 . S
C877 C869 1.503 . S
C877 C876 1.370 . S
C877 C878 1.403 . S
C878 C877 1.403 . S
C878 C879 1.404 . S
C878 C881 1.539 . S
C879 C875 1.408 . S
C879 C878 1.404 . S
C879 H891 0.930 . S
C880 C876 1.524 . S
C880 H892 0.956 . S
C880 H893 0.961 . S
C880 H894 0.961 . S
C881 C878 1.539 . S
C881 H895 0.958 . S
C881 H896 0.961 . S
C881 H897 0.960 . S
H882 C866 0.931 . S
H883 C871 0.929 . S
H884 C872 0.960 . S
H885 C872 0.962 . S
H886 C872 0.960 . S
H887 C873 0.961 . S
H888 C873 0.961 . S
H889 C873 0.961 . S
H890 C874 0.931 . S
H891 C879 0.930 . S
H892 C880 0.956 . S
H893 C880 0.961 . S
H894 C880 0.961 . S
H895 C881 0.958 . S
H896 C881 0.961 . S
H897 C881 0.960 . S
C898 C899 1.391 . S
C898 C900 1.394 . S
C898 H914 0.931 . S
C899 C898 1.391 . S
C899 C903 1.376 1_455 S
C900 C898 1.394 . S
C900 C901 1.369 . S
C900 C904 1.531 . S
C901 C900 1.369 . S
C901 C902 1.410 1_455 S
C901 C909 1.503 . S
C902 C901 1.410 1_655 S
C902 C903 1.392 . S
C902 C905 1.511 . S
C903 C899 1.376 1_655 S
C903 C902 1.392 . S
C903 H915 0.929 . S
C904 C900 1.531 . S
C904 H916 0.960 . S
C904 H917 0.962 . S
C904 H918 0.960 . S
C905 C902 1.511 . S
C905 H919 0.961 . S
C905 H920 0.961 . S
C905 H921 0.961 . S
C906 C907 1.370 . S
C906 C908 1.363 . S
C906 H922 0.931 . S
C907 C906 1.370 . S
C907 C911 1.408 . S
C908 C906 1.363 . S
C908 C909 1.370 . S
C908 C912 1.524 . S
C909 C901 1.503 . S
C909 C908 1.370 . S
C909 C910 1.403 . S
C910 C909 1.403 . S
C910 C911 1.404 . S
C910 C913 1.539 . S
C911 C907 1.408 . S
C911 C910 1.404 . S
C911 H923 0.930 . S
C912 C908 1.524 . S
C912 H924 0.956 . S
C912 H925 0.961 1_455 S
C912 H926 0.954 . S
C913 C910 1.539 . S
C913 H927 0.958 . S
C913 H928 0.961 1_455 S
C913 H929 0.960 1_455 S
H914 C898 0.931 . S
H915 C903 0.929 . S
H916 C904 0.960 . S
H917 C904 0.962 . S
H918 C904 0.960 . S
H919 C905 0.961 . S
H920 C905 0.961 . S
H921 C905 0.961 . S
H922 C906 0.931 . S
H923 C911 0.930 . S
H924 C912 0.956 . S
H925 C912 0.961 1_655 S
H926 C912 0.954 . S
H927 C913 0.958 . S
H928 C913 0.961 1_655 S
H929 C913 0.960 1_655 S
C355 C6 0.642 . S
C363 C331 0.554 . S
C387 C59 1.923 . S
C395 C258 1.908 . S
C419 C86 1.208 . S
C427 C297 1.236 . S
C451 C15 0.450 . S
C459 C336 0.331 . S
C491 C253 1.972 . S
C483 C50 2.013 . S
C523 C292 1.312 . S
C515 C95 1.316 . S
C547 C46 1.197 . S
C555 C180 1.224 . S
C579 C99 3.121 . S
C587 C214 3.066 . S
C611 C10 2.050 . S
C619 C136 2.026 . S
C651 C175 1.301 . S
C643 C55 1.285 . S
C683 C219 2.978 . S
C675 C90 3.007 . S
C707 C19 1.939 . S
C715 C141 1.905 . S
C747 C199 1.752 1_554 S
C739 C18 1.690 . S
C771 C49 1.322 . S
C779 C121 1.380 . S
C803 C98 1.421 . S
C811 C160 1.507 . S
C843 C277 1.489 . S
C835 C58 1.466 . S
C875 C316 1.097 1_556 S
C867 C89 1.100 . S
C899 C9 1.353 . S
C907 C238 1.367 1_455 S
