# Generated by pormake.
# Topology hwx, (6,3)-cn, num edge types: 1
# Building blocks:
#     Node 0, Type 0, BuildingBlock: OJICUG_clean_sbu_0, # of connection points: 6
#     Node 1, Type 0, BuildingBlock: OJICUG_clean_sbu_0, # of connection points: 6
#     Node 2, Type 0, BuildingBlock: OJICUG_clean_sbu_0, # of connection points: 6
#     Node 3, Type 0, BuildingBlock: OJICUG_clean_sbu_0, # of connection points: 6
#     Node 4, Type 1, BuildingBlock: MIDCAF_clean_linker_0, # of connection points: 3
#     Node 5, Type 1, BuildingBlock: MIDCAF_clean_linker_0, # of connection points: 3
#     Node 6, Type 1, BuildingBlock: MIDCAF_clean_linker_0, # of connection points: 3
#     Node 7, Type 1, BuildingBlock: MIDCAF_clean_linker_0, # of connection points: 3
#     Node 8, Type 1, BuildingBlock: MIDCAF_clean_linker_0, # of connection points: 3
#     Node 9, Type 1, BuildingBlock: MIDCAF_clean_linker_0, # of connection points: 3
#     Node 10, Type 1, BuildingBlock: MIDCAF_clean_linker_0, # of connection points: 3
#     Node 11, Type 1, BuildingBlock: MIDCAF_clean_linker_0, # of connection points: 3
#     Edge 12, Type (0, 1), BuildingBlock: ZUJKAS_clean_linker_0, # of connection points: 2
#     Edge 13, Type (0, 1), BuildingBlock: ZUJKAS_clean_linker_0, # of connection points: 2
#     Edge 14, Type (0, 1), BuildingBlock: ZUJKAS_clean_linker_0, # of connection points: 2
#     Edge 15, Type (0, 1), BuildingBlock: ZUJKAS_clean_linker_0, # of connection points: 2
#     Edge 16, Type (0, 1), BuildingBlock: ZUJKAS_clean_linker_0, # of connection points: 2
#     Edge 17, Type (0, 1), BuildingBlock: ZUJKAS_clean_linker_0, # of connection points: 2
#     Edge 18, Type (0, 1), BuildingBlock: ZUJKAS_clean_linker_0, # of connection points: 2
#     Edge 19, Type (0, 1), BuildingBlock: ZUJKAS_clean_linker_0, # of connection points: 2
#     Edge 20, Type (0, 1), BuildingBlock: ZUJKAS_clean_linker_0, # of connection points: 2
#     Edge 21, Type (0, 1), BuildingBlock: ZUJKAS_clean_linker_0, # of connection points: 2
#     Edge 22, Type (0, 1), BuildingBlock: ZUJKAS_clean_linker_0, # of connection points: 2
#     Edge 23, Type (0, 1), BuildingBlock: ZUJKAS_clean_linker_0, # of connection points: 2
#     Edge 24, Type (0, 1), BuildingBlock: ZUJKAS_clean_linker_0, # of connection points: 2
#     Edge 25, Type (0, 1), BuildingBlock: ZUJKAS_clean_linker_0, # of connection points: 2
#     Edge 26, Type (0, 1), BuildingBlock: ZUJKAS_clean_linker_0, # of connection points: 2
#     Edge 27, Type (0, 1), BuildingBlock: ZUJKAS_clean_linker_0, # of connection points: 2
#     Edge 28, Type (0, 1), BuildingBlock: ZUJKAS_clean_linker_0, # of connection points: 2
#     Edge 29, Type (0, 1), BuildingBlock: ZUJKAS_clean_linker_0, # of connection points: 2
#     Edge 30, Type (0, 1), BuildingBlock: ZUJKAS_clean_linker_0, # of connection points: 2
#     Edge 31, Type (0, 1), BuildingBlock: ZUJKAS_clean_linker_0, # of connection points: 2
#     Edge 32, Type (0, 1), BuildingBlock: ZUJKAS_clean_linker_0, # of connection points: 2
#     Edge 33, Type (0, 1), BuildingBlock: ZUJKAS_clean_linker_0, # of connection points: 2
#     Edge 34, Type (0, 1), BuildingBlock: ZUJKAS_clean_linker_0, # of connection points: 2
#     Edge 35, Type (0, 1), BuildingBlock: ZUJKAS_clean_linker_0, # of connection points: 2
# Relax obj value: 0.078
# Max RMSD: 0.103
# Mean RMSD: 0.095
data_MOF--net-hwx--node1-OJICUG_clean_sbu_0--node2-MIDCAF_clean_linker_0--edge1-ZUJKAS_clean_linker_0
_symmetry_space_group_name_H-M    P1
_symmetry_Int_Tables_number       1
_symmetry_cell_setting            triclinic
loop_
_symmetry_equiv_pos_as_xyz
'x, y, z'
_cell_length_a     75.106872
_cell_length_b     75.109962
_cell_length_c     34.0661
_cell_angle_alpha  89.866168
_cell_angle_beta   90.155438
_cell_angle_gamma 89.996629
loop_
_atom_site_label
_atom_site_type_symbol
_atom_site_fract_x
_atom_site_fract_y
_atom_site_fract_z
_atom_type_partial_charge
Sc0 Sc 0.21835 0.21782 0.04991 0.0
Sc1 Sc 0.18866 0.18923 1e-05 0.0
Sc2 Sc 0.21784 0.2172 0.94692 0.0
O3 O 0.20825 0.20807 0.99894 0.0
C4 C 0.21565 0.25289 0.9977 0.0
C5 C 0.17684 0.21461 0.06998 0.0
C6 C 0.17622 0.21429 0.929 0.0
C7 C 0.21459 0.17652 0.06934 0.0
C8 C 0.25343 0.21484 0.99747 0.0
C9 C 0.21341 0.17556 0.93029 0.0
O10 O 0.2158 0.24497 0.0307 0.0
O11 O 0.17322 0.20352 0.04297 0.0
O12 O 0.19164 0.2207 0.92318 0.0
O13 O 0.22188 0.19164 0.07373 0.0
O14 O 0.24517 0.21465 0.96491 0.0
O15 O 0.20204 0.17287 0.95727 0.0
O16 O 0.24552 0.21636 0.03021 0.0
O17 O 0.202 0.17373 0.04502 0.0
O18 O 0.21992 0.19083 0.92299 0.0
O19 O 0.19248 0.22042 0.07614 0.0
O20 O 0.21677 0.24466 0.96521 0.0
O21 O 0.17308 0.20258 0.95515 0.0
Sc22 Sc 0.28005 0.71729 0.44974 0.0
Sc23 Sc 0.30958 0.68941 0.50246 0.0
Sc24 Sc 0.28034 0.71818 0.55281 0.0
O25 O 0.29001 0.70827 0.50167 0.0
C26 C 0.2824 0.75311 0.49973 0.0
C27 C 0.32164 0.71439 0.43129 0.0
C28 C 0.32189 0.7152 0.57183 0.0
C29 C 0.28444 0.67574 0.4329 0.0
C30 C 0.24488 0.71469 0.50158 0.0
C31 C 0.28445 0.67683 0.57286 0.0
O32 O 0.2814 0.74478 0.46737 0.0
O33 O 0.32497 0.70303 0.45808 0.0
O34 O 0.3064 0.72145 0.5774 0.0
O35 O 0.27761 0.69093 0.42637 0.0
O36 O 0.25303 0.71606 0.53416 0.0
O37 O 0.29622 0.67381 0.54689 0.0
O38 O 0.25285 0.71486 0.46874 0.0
O39 O 0.29625 0.67311 0.45914 0.0
O40 O 0.27764 0.69213 0.57821 0.0
O41 O 0.30612 0.72054 0.425 0.0
O42 O 0.28221 0.74529 0.53284 0.0
O43 O 0.32519 0.70347 0.54597 0.0
Sc44 Sc 0.77906 0.77884 0.94879 0.0
Sc45 Sc 0.80802 0.80835 0.99848 0.0
Sc46 Sc 0.78046 0.77889 0.05177 0.0
O47 O 0.78919 0.78873 -0.00033 0.0
C48 C 0.74438 0.78098 0.00225 0.0
C49 C 0.78172 0.82047 0.92966 0.0
C50 C 0.78354 0.82043 0.07027 0.0
C51 C 0.82024 0.78313 0.92806 0.0
C52 C 0.78299 0.74357 0.0004 0.0
C53 C 0.82219 0.78317 0.06748 0.0
O54 O 0.75202 0.78044 0.96904 0.0
O55 O 0.79349 0.82381 0.95554 0.0
O56 O 0.77737 0.80493 0.07638 0.0
O57 O 0.805 0.77613 0.92337 0.0
O58 O 0.78275 0.75166 0.03308 0.0
O59 O 0.82464 0.79497 0.04119 0.0
O60 O 0.78153 0.75159 0.96767 0.0
O61 O 0.82334 0.79518 0.95337 0.0
O62 O 0.80702 0.7764 0.07453 0.0
O63 O 0.77553 0.80494 0.92394 0.0
O64 O 0.75288 0.78039 0.03454 0.0
O65 O 0.79484 0.82377 0.04347 0.0
Sc66 Sc 0.71923 0.28094 0.5496 0.0
Sc67 Sc 0.68932 0.30915 0.4989 0.0
Sc68 Sc 0.71838 0.28084 0.44659 0.0
O69 O 0.70895 0.29033 0.49835 0.0
C70 C 0.75411 0.28396 0.49656 0.0
C71 C 0.71552 0.32256 0.56682 0.0
C72 C 0.71334 0.32213 0.42706 0.0
C73 C 0.67796 0.28426 0.57071 0.0
C74 C 0.71676 0.2455 0.49882 0.0
C75 C 0.67651 0.28325 0.43012 0.0
O76 O 0.7463 0.2827 0.52948 0.0
O77 O 0.70328 0.32528 0.54157 0.0
O78 O 0.72029 0.30694 0.42132 0.0
O79 O 0.69351 0.27805 0.57592 0.0
O80 O 0.71755 0.25355 0.46601 0.0
O81 O 0.67344 0.29496 0.45621 0.0
O82 O 0.71703 0.2536 0.53152 0.0
O83 O 0.67434 0.29563 0.54414 0.0
O84 O 0.69199 0.2771 0.42354 0.0
O85 O 0.72239 0.30731 0.57276 0.0
O86 O 0.74578 0.2837 0.46405 0.0
O87 O 0.70185 0.32497 0.45367 0.0
C88 C 0.21753 0.56361 0.11437 0.0
C89 C 0.21889 0.55395 0.14963 0.0
C90 C 0.21602 0.53547 0.14899 0.0
C91 C 0.21227 0.52678 0.11368 0.0
H92 H 0.20176 0.47785 0.06743 0.0
H93 H 0.19985 0.44552 0.06648 0.0
H94 H 0.2006 0.44626 0.93973 0.0
H95 H 0.20225 0.47862 0.94041 0.0
H96 H 0.21557 0.51367 0.89743 0.0
H97 H 0.22437 0.5297 0.83833 0.0
H98 H 0.22124 0.57943 0.90142 0.0
H99 H 0.2129 0.56346 0.96067 0.0
H100 H 0.21328 0.5628 0.05242 0.0
H101 H 0.21987 0.57784 0.1138 0.0
H102 H 0.2168 0.52771 0.17578 0.0
H103 H 0.21043 0.51248 0.11416 0.0
N104 N 0.20591 0.50926 0.03931 0.0
N105 N 0.20699 0.50965 0.97052 0.0
N106 N 0.21111 0.53604 0.00593 0.0
C107 C 0.20477 0.50046 0.00458 0.0
C108 C 0.2101 0.52746 0.97095 0.0
C109 C 0.20902 0.52706 0.04024 0.0
C110 C 0.20231 0.48089 0.00399 0.0
C111 C 0.20138 0.47118 0.03929 0.0
C112 C 0.20037 0.45263 0.0388 0.0
C113 C 0.20021 0.44335 0.00305 0.0
C114 C 0.20056 0.45304 0.96774 0.0
C115 C 0.20161 0.47161 0.96819 0.0
C116 C 0.21371 0.53724 0.93399 0.0
C117 C 0.21661 0.52804 0.89866 0.0
C118 C 0.22159 0.53723 0.86468 0.0
C119 C 0.22372 0.55582 0.86527 0.0
C120 C 0.22013 0.56507 0.9002 0.0
C121 C 0.21523 0.5559 0.93415 0.0
C122 C 0.21143 0.53638 0.07819 0.0
C123 C 0.21386 0.55494 0.07909 0.0
C124 C 0.93465 0.72802 0.59585 0.0
C125 C 0.94254 0.72626 0.63304 0.0
C126 C 0.9595 0.7185 0.63615 0.0
C127 C 0.96864 0.71312 0.60242 0.0
H128 H 0.01809 0.69569 0.56133 0.0
H129 H 0.05033 0.69255 0.5645 0.0
H130 H 0.05355 0.70173 0.43941 0.0
H131 H 0.02138 0.70427 0.43597 0.0
H132 H 0.98666 0.70984 0.38616 0.0
H133 H 0.97176 0.71606 0.3238 0.0
H134 H 0.92147 0.72045 0.38424 0.0
H135 H 0.93614 0.714 0.44617 0.0
H136 H 0.93717 0.72433 0.53413 0.0
H137 H 0.92145 0.73367 0.59267 0.0
H138 H 0.96586 0.71699 0.66454 0.0
H139 H 0.98184 0.70751 0.60565 0.0
N140 N 0.98837 0.70655 0.53035 0.0
N141 N 0.98926 0.70505 0.46155 0.0
N142 N 0.96258 0.71193 0.49341 0.0
C143 C 0.9977 0.70366 0.49679 0.0
C144 C 0.97166 0.70907 0.45965 0.0
C145 C 0.97078 0.71071 0.52886 0.0
C146 C 0.01712 0.70036 0.49844 0.0
C147 C 0.02566 0.69687 0.53443 0.0
C148 C 0.04416 0.69516 0.5363 0.0
C149 C 0.05457 0.69702 0.50227 0.0
C150 C 0.04597 0.69997 0.46613 0.0
C151 C 0.02747 0.70154 0.46421 0.0
C152 C 0.96263 0.7115 0.42128 0.0
C153 C 0.97239 0.71193 0.3861 0.0
C154 C 0.96389 0.71559 0.35038 0.0
C155 C 0.94545 0.71876 0.34911 0.0
C156 C 0.93566 0.71784 0.38412 0.0
C157 C 0.94412 0.71427 0.41974 0.0
C158 C 0.96086 0.71524 0.56505 0.0
C159 C 0.94365 0.72252 0.56229 0.0
C160 C 0.78269 0.43488 0.88329 0.0
C161 C 0.78238 0.44451 0.84789 0.0
C162 C 0.78607 0.46285 0.84864 0.0
C163 C 0.78957 0.47145 0.88423 0.0
H164 H 0.80822 0.51863 0.93423 0.0
H165 H 0.81211 0.55081 0.93502 0.0
H166 H 0.79785 0.55179 0.05781 0.0
H167 H 0.79446 0.51967 0.05743 0.0
H168 H 0.79207 0.4815 0.10345 0.0
H169 H 0.78101 0.46653 0.16245 0.0
H170 H 0.75922 0.42448 0.09076 0.0
H171 H 0.7702 0.43922 0.03204 0.0
H172 H 0.78582 0.43563 0.94552 0.0
H173 H 0.77969 0.42078 0.88379 0.0
H174 H 0.78608 0.47058 0.82176 0.0
H175 H 0.79201 0.48566 0.88388 0.0
N176 N 0.79606 0.48854 0.95952 0.0
N177 N 0.79264 0.48833 0.02799 0.0
N178 N 0.78709 0.46248 0.99173 0.0
C179 C 0.79686 0.49722 0.99447 0.0
C180 C 0.78777 0.47094 0.02684 0.0
C181 C 0.79127 0.47112 0.95796 0.0
C182 C 0.80086 0.51653 0.99568 0.0
C183 C 0.80609 0.52567 0.96153 0.0
C184 C 0.80824 0.54414 0.9619 0.0
C185 C 0.80514 0.55391 0.99637 0.0
C186 C 0.80055 0.54469 0.03085 0.0
C187 C 0.7985 0.52622 0.03054 0.0
C188 C 0.78198 0.4616 0.06296 0.0
C189 C 0.78497 0.46903 0.10029 0.0
C190 C 0.7787 0.46047 0.13406 0.0
C191 C 0.76912 0.44448 0.13103 0.0
C192 C 0.76634 0.43695 0.09385 0.0
C193 C 0.77277 0.44535 0.06023 0.0
C194 C 0.78929 0.46189 0.91979 0.0
C195 C 0.78608 0.44346 0.91878 0.0
C196 C 0.0661 0.2832 0.39653 0.0
C197 C 0.05694 0.27885 0.36182 0.0
C198 C 0.03829 0.2804 0.36101 0.0
C199 C 0.02898 0.28557 0.39463 0.0
H200 H 0.97872 0.29413 0.4375 0.0
H201 H 0.94643 0.29593 0.43748 0.0
H202 H 0.94735 0.31093 0.55988 0.0
H203 H 0.97967 0.30859 0.5603 0.0
H204 H 0.01356 0.29189 0.60953 0.0
H205 H 0.02911 0.28495 0.67073 0.0
H206 H 0.07919 0.28463 0.60871 0.0
H207 H 0.06386 0.29181 0.54796 0.0
H208 H 0.06435 0.2912 0.45648 0.0
H209 H 0.0805 0.28256 0.39789 0.0
H210 H 0.03082 0.27705 0.33481 0.0
H211 H 0.01458 0.28614 0.39332 0.0
N212 N 0.0105 0.29604 0.46586 0.0
N213 N 0.0102 0.29771 0.53465 0.0
N214 N 0.03694 0.29231 0.50154 0.0
C215 C 0.00137 0.29855 0.49981 0.0
C216 C 0.02801 0.29462 0.53574 0.0
C217 C 0.02833 0.29302 0.4665 0.0
C218 C 0.98182 0.30106 0.499 0.0
C219 C 0.97208 0.29795 0.46438 0.0
C220 C 0.95353 0.29908 0.46429 0.0
C221 C 0.94427 0.3035 0.49873 0.0
C222 C 0.95404 0.30717 0.53303 0.0
C223 C 0.97259 0.30591 0.5332 0.0
C224 C 0.03743 0.29229 0.57369 0.0
C225 C 0.02792 0.2906 0.60904 0.0
C226 C 0.03679 0.28652 0.64409 0.0
C227 C 0.05536 0.28419 0.64454 0.0
C228 C 0.0649 0.28655 0.6095 0.0
C229 C 0.05606 0.29054 0.57453 0.0
C230 C 0.03813 0.28921 0.42978 0.0
C231 C 0.05682 0.28827 0.43011 0.0
C232 C 0.71609 0.93317 0.39175 0.0
C233 C 0.71807 0.94241 0.35611 0.0
C234 C 0.71572 0.96097 0.35569 0.0
C235 C 0.71189 0.97014 0.39036 0.0
H236 H 0.69636 0.01939 0.43607 0.0
H237 H 0.69496 0.05177 0.43544 0.0
H238 H 0.70752 0.05265 0.55932 0.0
H239 H 0.70835 0.02033 0.56029 0.0
H240 H 0.71027 0.98445 0.60748 0.0
H241 H 0.71624 0.96843 0.66847 0.0
H242 H 0.71813 0.91889 0.60447 0.0
H243 H 0.71188 0.93471 0.54376 0.0
H244 H 0.71125 0.93471 0.45332 0.0
H245 H 0.71805 0.9189 0.39324 0.0
H246 H 0.717 0.96844 0.32859 0.0
H247 H 0.71048 0.98448 0.38911 0.0
N248 N 0.70552 0.98855 0.46383 0.0
N249 N 0.70581 0.98855 0.53271 0.0
N250 N 0.7093 0.96182 0.49838 0.0
C251 C 0.70435 0.9976 0.49824 0.0
C252 C 0.7082 0.97063 0.53303 0.0
C253 C 0.70797 0.97064 0.46366 0.0
C254 C 0.70255 0.01723 0.49819 0.0
C255 C 0.69871 0.02648 0.46325 0.0
C256 C 0.698 0.04506 0.46283 0.0
C257 C 0.70124 0.05484 0.49727 0.0
C258 C 0.70471 0.04556 0.53236 0.0
C259 C 0.70529 0.02699 0.53285 0.0
C260 C 0.71067 0.9609 0.57057 0.0
C261 C 0.71179 0.97012 0.60641 0.0
C262 C 0.71531 0.96097 0.64138 0.0
C263 C 0.71769 0.94241 0.6413 0.0
C264 C 0.71614 0.93316 0.60564 0.0
C265 C 0.71267 0.94229 0.57072 0.0
C266 C 0.71044 0.96092 0.42624 0.0
C267 C 0.71231 0.9423 0.42635 0.0
C268 C 0.56624 0.21728 0.89684 0.0
C269 C 0.55728 0.21894 0.86074 0.0
C270 C 0.53881 0.21606 0.85949 0.0
C271 C 0.52944 0.21197 0.89378 0.0
H272 H 0.4796 0.2013 0.93529 0.0
H273 H 0.44727 0.19965 0.93338 0.0
H274 H 0.44581 0.19903 0.06011 0.0
H275 H 0.47817 0.20039 0.06226 0.0
H276 H 0.51312 0.20927 0.1101 0.0
H277 H 0.52848 0.21542 0.1718 0.0
H278 H 0.57863 0.21764 0.1102 0.0
H279 H 0.56347 0.21123 0.04885 0.0
H280 H 0.56426 0.21241 0.9584 0.0
H281 H 0.58044 0.21965 0.89893 0.0
H282 H 0.53157 0.21707 0.83204 0.0
H283 H 0.51517 0.2101 0.89186 0.0
N284 N 0.51051 0.20503 0.96625 0.0
N285 N 0.50984 0.2046 0.03509 0.0
N286 N 0.53682 0.20903 0.00216 0.0
C287 C 0.50116 0.20331 0.00014 0.0
C288 C 0.5277 0.20741 0.03634 0.0
C289 C 0.52836 0.20785 0.967 0.0
C290 C 0.48155 0.20111 0.99895 0.0
C291 C 0.47245 0.20068 0.96282 0.0
C292 C 0.45389 0.19982 0.96167 0.0
C293 C 0.444 0.19933 0.99658 0.0
C294 C 0.45307 0.19923 0.03269 0.0
C295 C 0.47165 0.20012 0.03388 0.0
C296 C 0.53702 0.20984 0.07437 0.0
C297 C 0.52745 0.21088 0.10974 0.0
C298 C 0.53622 0.21451 0.1451 0.0
C299 C 0.55476 0.21705 0.14588 0.0
C300 C 0.56437 0.21553 0.11072 0.0
C301 C 0.55562 0.21197 0.07542 0.0
C302 C 0.53836 0.21077 0.93009 0.0
C303 C 0.55691 0.21324 0.93106 0.0
C304 C 0.27924 0.06272 0.61248 0.0
C305 C 0.27578 0.05292 0.64679 0.0
C306 C 0.27833 0.03438 0.64643 0.0
C307 C 0.28345 0.02575 0.61189 0.0
H308 H 0.29292 0.97652 0.56401 0.0
H309 H 0.29502 0.94431 0.56093 0.0
H310 H 0.30728 0.94759 0.43723 0.0
H311 H 0.30461 0.97986 0.43996 0.0
H312 H 0.29166 0.01536 0.39374 0.0
H313 H 0.28221 0.03105 0.33417 0.0
H314 H 0.26784 0.07679 0.4037 0.0
H315 H 0.27717 0.06138 0.46291 0.0
H316 H 0.28644 0.06211 0.55197 0.0
H317 H 0.27783 0.07707 0.61206 0.0
H318 H 0.27571 0.02647 0.6724 0.0
H319 H 0.28472 0.01138 0.6122 0.0
N320 N 0.29331 0.00875 0.53817 0.0
N321 N 0.29312 0.00956 0.46924 0.0
N322 N 0.28733 0.03544 0.50512 0.0
C323 C 0.29532 0.00026 0.50322 0.0
C324 C 0.28911 0.02719 0.46998 0.0
C325 C 0.28946 0.0264 0.53931 0.0
C326 C 0.29842 0.9808 0.50214 0.0
C327 C 0.29624 0.97043 0.53619 0.0
C328 C 0.29755 0.95191 0.53448 0.0
C329 C 0.30121 0.94332 0.49877 0.0
C330 C 0.30409 0.95375 0.46505 0.0
C331 C 0.30265 0.97227 0.46668 0.0
C332 C 0.28504 0.03702 0.43326 0.0
C333 C 0.28662 0.02881 0.3963 0.0
C334 C 0.28125 0.03778 0.36218 0.0
C335 C 0.27406 0.055 0.3645 0.0
C336 C 0.27302 0.06338 0.40119 0.0
C337 C 0.27849 0.05454 0.43512 0.0
C338 C 0.28607 0.0355 0.57707 0.0
C339 C 0.28428 0.05412 0.57804 0.0
C340 C 0.43239 0.78149 0.10503 0.0
C341 C 0.44166 0.77769 0.13995 0.0
C342 C 0.46025 0.77979 0.14071 0.0
C343 C 0.46942 0.78498 0.10689 0.0
H344 H 0.51944 0.79251 0.06376 0.0
H345 H 0.55175 0.79337 0.06376 0.0
H346 H 0.55129 0.80791 0.94093 0.0
H347 H 0.51892 0.80651 0.94053 0.0
H348 H 0.48447 0.79216 0.89144 0.0
H349 H 0.46885 0.7858 0.83011 0.0
H350 H 0.41892 0.78419 0.89267 0.0
H351 H 0.43432 0.79081 0.95355 0.0
H352 H 0.43393 0.78911 0.04473 0.0
H353 H 0.41802 0.78038 0.1037 0.0
H354 H 0.4678 0.77686 0.16707 0.0
H355 H 0.48379 0.786 0.10825 0.0
N356 N 0.4878 0.79474 0.03526 0.0
N357 N 0.48804 0.7967 0.96651 0.0
N358 N 0.46126 0.79155 -0.00024 0.0
C359 C 0.49693 0.79724 0.0013 0.0
C360 C 0.47018 0.7939 0.96551 0.0
C361 C 0.46994 0.79199 0.03475 0.0
C362 C 0.51654 0.79929 0.00205 0.0
C363 C 0.52618 0.79604 0.03678 0.0
C364 C 0.54475 0.79663 0.03686 0.0
C365 C 0.55414 0.80062 0.0023 0.0
C366 C 0.54449 0.80447 0.96789 0.0
C367 C 0.5259 0.80375 0.96772 0.0
C368 C 0.46069 0.79187 0.92757 0.0
C369 C 0.47013 0.7907 0.89204 0.0
C370 C 0.46121 0.78695 0.85691 0.0
C371 C 0.44267 0.78443 0.85654 0.0
C372 C 0.43319 0.78627 0.89181 0.0
C373 C 0.44207 0.78994 0.92686 0.0
C374 C 0.46019 0.78812 0.07155 0.0
C375 C 0.44153 0.7866 0.07124 0.0
H376 H 0.17985 0.23563 0.13497 0.0
H377 H 0.15617 0.24623 0.1776 0.0
H378 H 0.11713 0.21961 0.10557 0.0
H379 H 0.14086 0.20859 0.06284 0.0
H380 H 0.12711 0.2674 0.16022 0.0
H381 H 0.10611 0.20092 0.21566 0.0
H382 H 0.1266 0.20422 0.18909 0.0
H383 H 0.10573 0.20368 0.16325 0.0
C384 C 0.16625 0.23196 0.12807 0.0
C385 C 0.1623 0.22113 0.09554 0.0
C386 C 0.15272 0.23808 0.15248 0.0
C387 C 0.13493 0.23355 0.14498 0.0
C388 C 0.13082 0.22299 0.11226 0.0
H389 H 0.0514 0.28663 0.28382 0.0
H390 H 0.06817 0.27539 0.22741 0.0
C391 C 0.1444 0.21676 0.08782 0.0
C392 C 0.12087 0.23993 0.1719 0.0
H393 H 0.09088 0.22585 0.24033 0.0
C394 C 0.11904 0.25835 0.1775 0.0
C395 C 0.11048 0.22803 0.19449 0.0
C396 C 0.11235 0.2081 0.1907 0.0
C397 C 0.10749 0.26521 0.20602 0.0
C398 C 0.09726 0.25331 0.22896 0.0
C399 C 0.09868 0.23491 0.22249 0.0
C400 C 0.08636 0.25954 0.26235 0.0
C401 C 0.107 0.28507 0.21264 0.0
C402 C 0.09071 0.25395 0.30047 0.0
C403 C 0.08107 0.26013 0.33257 0.0
C404 C 0.06685 0.2721 0.32725 0.0
C405 C 0.06226 0.27741 0.2889 0.0
C406 C 0.07192 0.27114 0.25668 0.0
H407 H 0.11827 0.29199 0.19807 0.0
H408 H 0.09442 0.29053 0.20044 0.0
H409 H 0.10741 0.28816 0.24449 0.0
H410 H 0.10175 0.24492 0.30545 0.0
H411 H 0.08471 0.25545 0.36159 0.0
H412 H 0.29255 0.64125 0.56668 0.0
H413 H 0.28173 0.61686 0.60809 0.0
H414 H 0.2518 0.65434 0.67732 0.0
H415 H 0.26218 0.67865 0.63599 0.0
H416 H 0.28634 0.61157 0.6864 0.0
H417 H 0.21449 0.61704 0.65332 0.0
H418 H 0.23126 0.62791 0.62391 0.0
H419 H 0.22354 0.63799 0.66868 0.0
C420 C 0.28359 0.6443 0.59061 0.0
C421 C 0.27818 0.66193 0.59786 0.0
C422 C 0.27741 0.63034 0.61417 0.0
C423 C 0.26566 0.63375 0.64522 0.0
C424 C 0.26044 0.65133 0.6528 0.0
H425 H 0.24782 0.583 0.86313 0.0
H426 H 0.25819 0.59956 0.80604 0.0
C427 C 0.26653 0.66525 0.62927 0.0
C428 C 0.25952 0.61919 0.67127 0.0
H429 H 0.22219 0.60199 0.71377 0.0
C430 C 0.27231 0.60925 0.69192 0.0
C431 C 0.24122 0.6159 0.67784 0.0
C432 C 0.22685 0.62515 0.65441 0.0
C433 C 0.26728 0.5969 0.72077 0.0
C434 C 0.24902 0.59476 0.72973 0.0
C435 C 0.23621 0.60385 0.70732 0.0
C436 C 0.24299 0.5842 0.76397 0.0
C437 C 0.28161 0.58645 0.74174 0.0
C438 C 0.23056 0.5704 0.75944 0.0
C439 C 0.22431 0.56109 0.79224 0.0
C440 C 0.2303 0.56553 0.83015 0.0
C441 C 0.24275 0.57937 0.83445 0.0
C442 C 0.24893 0.58868 0.80174 0.0
H443 H 0.29362 0.58495 0.72309 0.0
H444 H 0.28564 0.5937 0.76869 0.0
H445 H 0.27682 0.57301 0.75033 0.0
H446 H 0.22566 0.56688 0.73055 0.0
H447 H 0.21458 0.55063 0.78799 0.0
H448 H 0.85652 0.79592 0.06762 0.0
H449 H 0.88182 0.78474 0.10611 0.0
H450 H 0.84809 0.74463 0.15778 0.0
H451 H 0.82289 0.75551 0.11964 0.0
H452 H 0.88372 0.78222 0.18937 0.0
H453 H 0.8916 0.71618 0.11959 0.0
H454 H 0.87951 0.73423 0.0966 0.0
H455 H 0.86908 0.72083 0.13386 0.0
C456 C 0.85451 0.78466 0.08702 0.0
C457 C 0.83765 0.77663 0.0905 0.0
C458 C 0.86898 0.77829 0.1089 0.0
C459 C 0.86686 0.76367 0.13416 0.0
C460 C 0.85008 0.75568 0.13776 0.0
H461 H 0.91333 0.70711 0.32154 0.0
H462 H 0.89678 0.71837 0.26484 0.0
C463 C 0.83564 0.76205 0.11615 0.0
C464 C 0.88179 0.75727 0.15878 0.0
H465 H 0.90467 0.71963 0.18361 0.0
C466 C 0.88861 0.76866 0.1877 0.0
C467 C 0.88809 0.73957 0.15637 0.0
C468 C 0.88182 0.72703 0.12467 0.0
C469 C 0.90076 0.76247 0.21595 0.0
C470 C 0.90644 0.74451 0.21464 0.0
C471 C 0.90026 0.73337 0.18455 0.0
C472 C 0.91741 0.73665 0.24636 0.0
C473 C 0.90661 0.77489 0.24829 0.0
C474 C 0.93469 0.74283 0.25401 0.0
C475 C 0.94414 0.73651 0.28661 0.0
C476 C 0.93644 0.72387 0.31195 0.0
C477 C 0.91948 0.71707 0.30296 0.0
C478 C 0.91007 0.7234 0.27045 0.0
H479 H 0.89849 0.78724 0.24909 0.0
H480 H 0.9057 0.7682 0.27733 0.0
H481 H 0.9207 0.77874 0.24353 0.0
H482 H 0.94068 0.75286 0.23536 0.0
H483 H 0.95715 0.74206 0.29285 0.0
H484 H 0.70342 0.35713 0.56767 0.0
H485 H 0.71521 0.38201 0.6063 0.0
H486 H 0.7548 0.34725 0.657 0.0
H487 H 0.74333 0.32246 0.61867 0.0
H488 H 0.71793 0.38377 0.68897 0.0
H489 H 0.78416 0.39011 0.61938 0.0
H490 H 0.76589 0.37837 0.59652 0.0
H491 H 0.77909 0.3677 0.63394 0.0
C492 C 0.71469 0.3548 0.58688 0.0
C493 C 0.72242 0.33777 0.58998 0.0
C494 C 0.72142 0.36903 0.60885 0.0
C495 C 0.73607 0.36651 0.63387 0.0
C496 C 0.74374 0.34956 0.63714 0.0
H497 H 0.79327 0.41193 0.82172 0.0
H498 H 0.78181 0.39542 0.7653 0.0
C499 C 0.73703 0.33536 0.61541 0.0
C500 C 0.74286 0.38122 0.65854 0.0
H501 H 0.78103 0.40317 0.68337 0.0
C502 C 0.73161 0.38831 0.68733 0.0
C503 C 0.76072 0.38708 0.65619 0.0
C504 C 0.77312 0.38055 0.62458 0.0
C505 C 0.73807 0.40033 0.71546 0.0
C506 C 0.75616 0.40557 0.71418 0.0
C507 C 0.76718 0.39908 0.68429 0.0
C508 C 0.76421 0.41646 0.74569 0.0
C509 C 0.72575 0.40653 0.7476 0.0
C510 C 0.75849 0.43395 0.75258 0.0
C511 C 0.76494 0.44339 0.78497 0.0
C512 C 0.77724 0.43547 0.81088 0.0
C513 C 0.78359 0.41827 0.80266 0.0
C514 C 0.77714 0.40887 0.77033 0.0
H515 H 0.71319 0.39874 0.74842 0.0
H516 H 0.73237 0.40547 0.77671 0.0
H517 H 0.72229 0.42072 0.7426 0.0
H518 H 0.7487 0.44012 0.73351 0.0
H519 H 0.75973 0.45658 0.79062 0.0
H520 H 0.67749 0.25689 0.375 0.0
H521 H 0.65305 0.24573 0.33487 0.0
H522 H 0.61695 0.28226 0.39096 0.0
H523 H 0.64142 0.29374 0.43132 0.0
H524 H 0.61978 0.23044 0.35993 0.0
H525 H 0.61127 0.2924 0.27158 0.0
H526 H 0.63099 0.28818 0.30054 0.0
H527 H 0.61066 0.29465 0.32411 0.0
C528 C 0.66439 0.26263 0.37891 0.0
C529 C 0.66149 0.27634 0.40627 0.0
C530 C 0.65042 0.25616 0.356 0.0
C531 C 0.63327 0.26328 0.35975 0.0
C532 C 0.63017 0.27676 0.38733 0.0
H533 H 0.54401 0.24109 0.20123 0.0
H534 H 0.56076 0.25145 0.25857 0.0
C535 C 0.64417 0.28326 0.41042 0.0
C536 C 0.61883 0.25662 0.33411 0.0
H537 H 0.59324 0.26801 0.25507 0.0
C538 C 0.61382 0.23868 0.33723 0.0
C539 C 0.61105 0.26746 0.30474 0.0
C540 C 0.61628 0.28672 0.29965 0.0
C541 C 0.60151 0.23114 0.31107 0.0
C542 C 0.59432 0.24177 0.28059 0.0
C543 C 0.59879 0.2599 0.27848 0.0
C544 C 0.5833 0.23411 0.24871 0.0
C545 C 0.59642 0.21184 0.31614 0.0
C546 C 0.59038 0.22085 0.22437 0.0
C547 C 0.58083 0.21484 0.1918 0.0
C548 C 0.56406 0.2221 0.18272 0.0
C549 C 0.55679 0.23507 0.20772 0.0
C550 C 0.56638 0.24108 0.24034 0.0
H551 H 0.59825 0.2074 0.34702 0.0
H552 H 0.58237 0.20948 0.30736 0.0
H553 H 0.60513 0.2035 0.29739 0.0
H554 H 0.60358 0.21555 0.2298 0.0
H555 H 0.58672 0.20473 0.1733 0.0
H556 H 0.20596 0.14005 0.94094 0.0
H557 H 0.21705 0.11493 0.90238 0.0
H558 H 0.24577 0.15127 0.82757 0.0
H559 H 0.2351 0.17634 0.86605 0.0
H560 H 0.21218 0.10761 0.825 0.0
H561 H 0.28403 0.1154 0.85547 0.0
H562 H 0.26716 0.12657 0.88395 0.0
H563 H 0.27446 0.13578 0.83785 0.0
C564 C 0.2147 0.1427 0.91637 0.0
C565 C 0.2197 0.16024 0.90674 0.0
C566 C 0.22105 0.12832 0.89445 0.0
C567 C 0.23255 0.13122 0.86269 0.0
C568 C 0.23733 0.14869 0.85268 0.0
H569 H 0.2505 0.07888 0.64929 0.0
H570 H 0.23975 0.09504 0.70638 0.0
C571 C 0.23107 0.16304 0.87457 0.0
C572 C 0.23889 0.11618 0.83843 0.0
H573 H 0.27638 0.09904 0.79669 0.0
C574 C 0.22623 0.1055 0.81935 0.0
C575 C 0.25723 0.11315 0.83176 0.0
C576 C 0.27149 0.12321 0.85371 0.0
C577 C 0.2314 0.09273 0.79166 0.0
C578 C 0.24965 0.09089 0.78231 0.0
C579 C 0.26237 0.10066 0.80344 0.0
C580 C 0.25567 0.08025 0.74831 0.0
C581 C 0.21722 0.08159 0.77211 0.0
C582 C 0.26856 0.06685 0.75277 0.0
C583 C 0.27499 0.05774 0.71992 0.0
C584 C 0.26876 0.06206 0.6821 0.0
C585 C 0.25576 0.0754 0.67793 0.0
C586 C 0.24938 0.08446 0.71063 0.0
H587 H 0.20544 0.07997 0.79145 0.0
H588 H 0.2127 0.08838 0.74488 0.0
H589 H 0.22234 0.0682 0.76422 0.0
H590 H 0.27373 0.06355 0.7816 0.0
H591 H 0.28511 0.04763 0.72402 0.0
H592 H 0.3574 0.70708 0.43797 0.0
H593 H 0.38154 0.71838 0.39661 0.0
H594 H 0.34342 0.74749 0.32664 0.0
H595 H 0.31935 0.73661 0.36785 0.0
H596 H 0.38672 0.71384 0.31797 0.0
H597 H 0.38007 0.78554 0.35088 0.0
H598 H 0.36962 0.76852 0.38041 0.0
H599 H 0.35927 0.77606 0.33561 0.0
C600 C 0.35416 0.71596 0.4139 0.0
C601 C 0.33641 0.72098 0.40639 0.0
C602 C 0.36798 0.72242 0.39036 0.0
C603 C 0.3643 0.73407 0.3591 0.0
C604 C 0.34662 0.73892 0.35129 0.0
H605 H 0.41459 0.75347 0.14151 0.0
H606 H 0.39811 0.74271 0.19834 0.0
C607 C 0.33283 0.73254 0.37477 0.0
C608 C 0.37871 0.74049 0.3331 0.0
H609 H 0.39529 0.77819 0.29075 0.0
C610 C 0.38882 0.72792 0.31247 0.0
C611 C 0.3817 0.75886 0.32654 0.0
C612 C 0.37222 0.77301 0.34988 0.0
C613 C 0.40105 0.73321 0.28367 0.0
C614 C 0.40292 0.75153 0.27481 0.0
C615 C 0.39364 0.76414 0.29715 0.0
C616 C 0.4134 0.7578 0.24072 0.0
C617 C 0.41167 0.71911 0.26267 0.0
C618 C 0.42713 0.77029 0.24554 0.0
C619 C 0.4364 0.77674 0.2129 0.0
C620 C 0.43198 0.77091 0.17488 0.0
C621 C 0.41819 0.75841 0.1703 0.0
C622 C 0.40894 0.75202 0.20284 0.0
H623 H 0.41329 0.707 0.28115 0.0
H624 H 0.4045 0.71515 0.23553 0.0
H625 H 0.42506 0.72409 0.25436 0.0
H626 H 0.43063 0.77507 0.27452 0.0
H627 H 0.44682 0.7865 0.21737 0.0
H628 H 0.75545 0.81895 0.87403 0.0
H629 H 0.74449 0.84299 0.83231 0.0
H630 H 0.78096 0.87957 0.88746 0.0
H631 H 0.79224 0.85553 0.92937 0.0
H632 H 0.72922 0.8765 0.8547 0.0
H633 H 0.79169 0.88395 0.76845 0.0
H634 H 0.78728 0.86462 0.79846 0.0
H635 H 0.79378 0.88521 0.82097 0.0
C636 C 0.76121 0.83207 0.8774 0.0
C637 C 0.77486 0.83524 0.90493 0.0
C638 C 0.75486 0.84581 0.85357 0.0
C639 C 0.76204 0.86297 0.85658 0.0
C640 C 0.77543 0.86633 0.88438 0.0
H641 H 0.74163 0.95243 0.69776 0.0
H642 H 0.75148 0.93519 0.7549 0.0
C643 C 0.78181 0.85258 0.90835 0.0
C644 C 0.75557 0.87717 0.82999 0.0
H645 H 0.76767 0.90243 0.75111 0.0
C646 C 0.73764 0.8823 0.83223 0.0
C647 C 0.76664 0.88473 0.8009 0.0
C648 C 0.7859 0.87932 0.79666 0.0
C649 C 0.73038 0.89461 0.8056 0.0
C650 C 0.74127 0.90166 0.77557 0.0
C651 C 0.75936 0.89699 0.7742 0.0
C652 C 0.73398 0.9129 0.74359 0.0
C653 C 0.71109 0.89988 0.80978 0.0
C654 C 0.72081 0.90611 0.71846 0.0
C655 C 0.71509 0.91594 0.68599 0.0
C656 C 0.72254 0.93271 0.67781 0.0
C657 C 0.73546 0.93966 0.70354 0.0
C658 C 0.74118 0.9298 0.73605 0.0
H659 H 0.70636 0.89796 0.84037 0.0
H660 H 0.70897 0.91399 0.8012 0.0
H661 H 0.70282 0.89137 0.79037 0.0
H662 H 0.71534 0.89294 0.72327 0.0
H663 H 0.70502 0.91029 0.66691 0.0
H664 H 0.82142 0.75237 0.88599 0.0
H665 H 0.84477 0.74231 0.84181 0.0
H666 H 0.87544 0.78943 0.86759 0.0
H667 H 0.85224 0.79945 0.91289 0.0
H668 H 0.85507 0.75899 0.77644 0.0
H669 H 0.91304 0.75082 0.87612 0.0
H670 H 0.89055 0.75324 0.89396 0.0
H671 H 0.90296 0.77247 0.87842 0.0
C672 C 0.83319 0.76057 0.88258 0.0
C673 C 0.83492 0.77678 0.9028 0.0
C674 C 0.84655 0.75475 0.85738 0.0
C675 C 0.86192 0.76502 0.85168 0.0
C676 C 0.86387 0.7811 0.87222 0.0
H677 H 0.92607 0.75822 0.64217 0.0
H678 H 0.90771 0.76794 0.69724 0.0
C679 C 0.85054 0.78687 0.89786 0.0
C680 C 0.8751 0.75947 0.82181 0.0
H681 H 0.91893 0.74929 0.80739 0.0
C682 C 0.86901 0.7568 0.78329 0.0
C683 C 0.89324 0.75644 0.8309 0.0
C684 C 0.90034 0.75821 0.87217 0.0
C685 C 0.88057 0.75135 0.75349 0.0
C686 C 0.89884 0.74895 0.76219 0.0
C687 C 0.90494 0.75135 0.8008 0.0
C688 C 0.91166 0.7439 0.73129 0.0
C689 C 0.87304 0.74791 0.71307 0.0
C690 C 0.92063 0.72752 0.7331 0.0
C691 C 0.93125 0.72197 0.70172 0.0
C692 C 0.93296 0.73274 0.66815 0.0
C693 C 0.92467 0.74951 0.66737 0.0
C694 C 0.9142 0.75508 0.69876 0.0
H695 H 0.85842 0.74569 0.71391 0.0
H696 H 0.87559 0.75965 0.69408 0.0
H697 H 0.87942 0.73613 0.69938 0.0
H698 H 0.91887 0.71875 0.75809 0.0
H699 H 0.9375 0.70899 0.70302 0.0
H700 H 0.69774 0.35504 0.41875 0.0
H701 H 0.7059 0.37854 0.37207 0.0
H702 H 0.74957 0.34645 0.33072 0.0
H703 H 0.74145 0.32288 0.37653 0.0
H704 H 0.73793 0.39785 0.36014 0.0
H705 H 0.72037 0.35641 0.23125 0.0
H706 H 0.71377 0.35064 0.28056 0.0
H707 H 0.73595 0.34582 0.26384 0.0
C708 C 0.70913 0.35302 0.39983 0.0
C709 C 0.71877 0.33695 0.40097 0.0
C710 C 0.71377 0.36647 0.37326 0.0
C711 C 0.72811 0.36405 0.34751 0.0
C712 C 0.73821 0.34839 0.34977 0.0
H713 H 0.78652 0.43675 0.19954 0.0
H714 H 0.77534 0.41904 0.25474 0.0
C715 C 0.73354 0.33494 0.37605 0.0
C716 C 0.73231 0.37757 0.31729 0.0
H717 H 0.73686 0.38282 0.21842 0.0
C718 C 0.73757 0.39467 0.32911 0.0
C719 C 0.73151 0.37343 0.27685 0.0
C720 C 0.72492 0.35564 0.26227 0.0
C721 C 0.74264 0.40761 0.30144 0.0
C722 C 0.74271 0.40314 0.26111 0.0
C723 C 0.73694 0.3862 0.24937 0.0
C724 C 0.74892 0.4156 0.23025 0.0
C725 C 0.74774 0.42592 0.31564 0.0
C726 C 0.73784 0.41946 0.1981 0.0
C727 C 0.74428 0.42929 0.16641 0.0
C728 C 0.76192 0.43552 0.16631 0.0
C729 C 0.77282 0.43224 0.19911 0.0
C730 C 0.76641 0.42222 0.23071 0.0
H731 H 0.74186 0.42881 0.34483 0.0
H732 H 0.76243 0.42668 0.31862 0.0
H733 H 0.74338 0.43637 0.29459 0.0
H734 H 0.72431 0.41446 0.19711 0.0
H735 H 0.73555 0.4318 0.14164 0.0
H736 H 0.17767 0.2407 0.874 0.0
H737 H 0.15387 0.25143 0.83166 0.0
H738 H 0.11744 0.21395 0.88394 0.0
H739 H 0.14128 0.20309 0.92719 0.0
H740 H 0.13485 0.23029 0.77745 0.0
H741 H 0.09026 0.26214 0.88724 0.0
H742 H 0.11325 0.25691 0.89791 0.0
H743 H 0.09692 0.2395 0.89658 0.0
C744 C 0.16462 0.23471 0.87682 0.0
C745 C 0.16144 0.22094 0.90402 0.0
C746 C 0.15101 0.24092 0.85255 0.0
C747 C 0.1339 0.23359 0.8549 0.0
C748 C 0.13052 0.21996 0.88213 0.0
H749 H 0.04489 0.25863 0.69708 0.0
H750 H 0.06243 0.24601 0.7512 0.0
C751 C 0.14419 0.21371 0.90663 0.0
C752 C 0.12004 0.23981 0.82719 0.0
H753 H 0.08142 0.26372 0.82075 0.0
C754 C 0.1231 0.23748 0.78693 0.0
C755 C 0.1047 0.24911 0.83975 0.0
C756 C 0.10103 0.25222 0.88269 0.0
C757 C 0.11147 0.24457 0.75879 0.0
C758 C 0.09651 0.25443 0.77126 0.0
C759 C 0.09301 0.25622 0.81148 0.0
C760 C 0.08491 0.26354 0.7425 0.0
C761 C 0.11538 0.24169 0.71583 0.0
C762 C 0.09157 0.27794 0.72079 0.0
C763 C 0.0816 0.28522 0.69011 0.0
C764 C 0.06478 0.27822 0.6806 0.0
C765 C 0.05774 0.2644 0.70386 0.0
C766 C 0.06775 0.25713 0.73466 0.0
H767 H 0.12503 0.23068 0.71128 0.0
H768 H 0.10297 0.23864 0.69937 0.0
H769 H 0.12118 0.25404 0.70329 0.0
H770 H 0.10474 0.28316 0.72682 0.0
H771 H 0.08724 0.29605 0.67318 0.0
H772 H 0.29588 0.64091 0.43489 0.0
H773 H 0.2849 0.61605 0.39507 0.0
H774 H 0.24766 0.65122 0.33753 0.0
H775 H 0.25831 0.676 0.37703 0.0
H776 H 0.23295 0.61796 0.36406 0.0
H777 H 0.29478 0.60977 0.27581 0.0
H778 H 0.29707 0.60952 0.3284 0.0
H779 H 0.29039 0.62963 0.30393 0.0
C780 C 0.28537 0.64337 0.41372 0.0
C781 C 0.27807 0.66051 0.40905 0.0
C782 C 0.27915 0.62915 0.39097 0.0
C783 C 0.26558 0.63188 0.36322 0.0
C784 C 0.25815 0.64887 0.35882 0.0
H785 H 0.20699 0.58598 0.17705 0.0
H786 H 0.21802 0.60249 0.2338 0.0
C787 C 0.26434 0.66305 0.38138 0.0
C788 C 0.25905 0.61722 0.33812 0.0
H789 H 0.27034 0.59186 0.25908 0.0
C790 C 0.24116 0.61207 0.34138 0.0
C791 C 0.26986 0.60954 0.30879 0.0
C792 C 0.28907 0.6149 0.30363 0.0
C793 C 0.23361 0.59979 0.31524 0.0
C794 C 0.24417 0.59277 0.28467 0.0
C795 C 0.26228 0.5973 0.28254 0.0
C796 C 0.23642 0.58197 0.25261 0.0
C797 C 0.21434 0.59462 0.32029 0.0
C798 C 0.24323 0.56502 0.24413 0.0
C799 C 0.23708 0.55562 0.21143 0.0
C800 C 0.22413 0.56311 0.18644 0.0
C801 C 0.21706 0.57992 0.19557 0.0
C802 C 0.2232 0.58928 0.22826 0.0
H803 H 0.20996 0.59635 0.35117 0.0
H804 H 0.20592 0.60333 0.30154 0.0
H805 H 0.21202 0.58058 0.31148 0.0
H806 H 0.25357 0.55924 0.26237 0.0
H807 H 0.24295 0.5428 0.20488 0.0
H808 H 0.3568 0.70394 0.57508 0.0
H809 H 0.38032 0.71479 0.61914 0.0
H810 H 0.3437 0.75277 0.66856 0.0
H811 H 0.32023 0.74209 0.62536 0.0
H812 H 0.39428 0.75076 0.63008 0.0
H813 H 0.36206 0.72369 0.76377 0.0
H814 H 0.35617 0.71641 0.71495 0.0
H815 H 0.3474 0.73693 0.73395 0.0
C816 C 0.35377 0.71462 0.59529 0.0
C817 C 0.33654 0.72197 0.59697 0.0
C818 C 0.36722 0.72081 0.62034 0.0
C819 C 0.36361 0.73436 0.64745 0.0
C820 C 0.34664 0.74207 0.64832 0.0
H821 H 0.41048 0.79613 0.82909 0.0
H822 H 0.39306 0.78377 0.77489 0.0
C823 C 0.33324 0.73592 0.62349 0.0
C824 C 0.37731 0.74044 0.67562 0.0
H825 H 0.38483 0.74541 0.77375 0.0
C826 C 0.39241 0.7494 0.6615 0.0
C827 C 0.37481 0.73852 0.71652 0.0
C828 C 0.35932 0.72821 0.73327 0.0
C829 C 0.40465 0.75728 0.68748 0.0
C830 C 0.40166 0.75601 0.72832 0.0
C831 C 0.38693 0.7465 0.74234 0.0
C832 C 0.41326 0.76488 0.75738 0.0
C833 C 0.42029 0.76747 0.67128 0.0
C834 C 0.43047 0.75851 0.76495 0.0
C835 C 0.44042 0.76545 0.79612 0.0
C836 C 0.43323 0.77882 0.82028 0.0
C837 C 0.41627 0.78567 0.8114 0.0
C838 C 0.40635 0.77871 0.78035 0.0
H839 H 0.41938 0.76927 0.63896 0.0
H840 H 0.42123 0.78076 0.68536 0.0
H841 H 0.43276 0.76014 0.67808 0.0
H842 H 0.4359 0.74766 0.74784 0.0
H843 H 0.45335 0.75974 0.80249 0.0
H844 H 0.79502 0.85526 0.07268 0.0
H845 H 0.78487 0.87878 0.11725 0.0
H846 H 0.74739 0.84229 0.16933 0.0
H847 H 0.75741 0.8188 0.12563 0.0
H848 H 0.7495 0.89302 0.12992 0.0
H849 H 0.77723 0.86044 0.26287 0.0
H850 H 0.78391 0.85434 0.21384 0.0
H851 H 0.76345 0.84595 0.23401 0.0
C852 C 0.78461 0.85225 0.09361 0.0
C853 C 0.77721 0.83505 0.09585 0.0
C854 C 0.77882 0.8657 0.11895 0.0
C855 C 0.76562 0.86213 0.14694 0.0
C856 C 0.75786 0.84519 0.14843 0.0
H857 H 0.70593 0.9102 0.33014 0.0
H858 H 0.71774 0.89242 0.27612 0.0
C859 C 0.76361 0.83178 0.12331 0.0
C860 C 0.75992 0.87588 0.17524 0.0
H861 H 0.7559 0.8835 0.27347 0.0
C862 C 0.75109 0.89113 0.16131 0.0
C863 C 0.76214 0.87335 0.2161 0.0
C864 C 0.77235 0.85773 0.23265 0.0
C865 C 0.74364 0.9035 0.18744 0.0
C866 C 0.74521 0.90051 0.22826 0.0
C867 C 0.75458 0.88561 0.24208 0.0
C868 C 0.73679 0.91228 0.2575 0.0
C869 C 0.73358 0.91931 0.17143 0.0
C870 C 0.74346 0.92942 0.26443 0.0
C871 C 0.73685 0.93957 0.29552 0.0
C872 C 0.72351 0.93268 0.3202 0.0
C873 C 0.71639 0.91577 0.31205 0.0
C874 C 0.72303 0.90564 0.28109 0.0
H875 H 0.73144 0.91838 0.13922 0.0
H876 H 0.72045 0.92051 0.18611 0.0
H877 H 0.7412 0.93165 0.17765 0.0
H878 H 0.75427 0.93464 0.24684 0.0
H879 H 0.74276 0.95246 0.30131 0.0
H880 H 0.64312 0.29555 0.57434 0.0
H881 H 0.62005 0.28538 0.62007 0.0
H882 H 0.65719 0.24824 0.67152 0.0
H883 H 0.68025 0.25829 0.62665 0.0
H884 H 0.60617 0.24998 0.63379 0.0
H885 H 0.63951 0.27807 0.76519 0.0
H886 H 0.64523 0.28472 0.71584 0.0
H887 H 0.65384 0.2643 0.73605 0.0
C888 C 0.64637 0.28522 0.59538 0.0
C889 C 0.66362 0.27791 0.59708 0.0
C890 C 0.63317 0.27941 0.62139 0.0
C891 C 0.63705 0.26629 0.64952 0.0
C892 C 0.65405 0.25864 0.65051 0.0
H893 H 0.58999 0.20749 0.83649 0.0
H894 H 0.60777 0.21921 0.78226 0.0
C895 C 0.66722 0.26441 0.62471 0.0
C896 C 0.62354 0.26056 0.67837 0.0
H897 H 0.6165 0.25682 0.77691 0.0
C898 C 0.60825 0.25165 0.66508 0.0
C899 C 0.62632 0.26288 0.71911 0.0
C900 C 0.64202 0.27317 0.73496 0.0
C901 C 0.59605 0.24424 0.69172 0.0
C902 C 0.59925 0.24596 0.73243 0.0
C903 C 0.61422 0.25538 0.74561 0.0
C904 C 0.5876 0.23769 0.76221 0.0
C905 C 0.5802 0.23407 0.67633 0.0
C906 C 0.57031 0.24409 0.76849 0.0
C907 C 0.56015 0.23751 0.79965 0.0
C908 C 0.56719 0.22449 0.82511 0.0
C909 C 0.5843 0.21769 0.81777 0.0
C910 C 0.59443 0.22429 0.78671 0.0
H911 H 0.5812 0.23147 0.64432 0.0
H912 H 0.57883 0.22117 0.69201 0.0
H913 H 0.56791 0.2419 0.68169 0.0
H914 H 0.56494 0.25463 0.75023 0.0
H915 H 0.54711 0.24317 0.80482 0.0
H916 H 0.24641 0.17444 0.10743 0.0
H917 H 0.25691 0.15094 0.15107 0.0
H918 H 0.20831 0.12161 0.13158 0.0
H919 H 0.19783 0.14498 0.08679 0.0
H920 H 0.24138 0.14174 0.21848 0.0
H921 H 0.24553 0.08271 0.12135 0.0
H922 H 0.24342 0.10511 0.10252 0.0
H923 H 0.22418 0.09347 0.12059 0.0
C924 C 0.23799 0.16293 0.11208 0.0
C925 C 0.22121 0.16164 0.09386 0.0
C926 C 0.24405 0.14947 0.13694 0.0
C927 C 0.23348 0.13446 0.14433 0.0
C928 C 0.21686 0.1329 0.12563 0.0
H929 H 0.24234 0.072 0.35623 0.0
H930 H 0.23217 0.08998 0.30064 0.0
C931 C 0.21083 0.14632 0.10029 0.0
C932 C 0.23929 0.12136 0.17431 0.0
H933 H 0.24843 0.07736 0.1902 0.0
C934 C 0.24299 0.12768 0.21219 0.0
C935 C 0.24156 0.10305 0.16595 0.0
C936 C 0.23864 0.09567 0.12531 0.0
C937 C 0.24872 0.11621 0.24208 0.0
C938 C 0.25036 0.09781 0.23418 0.0
C939 C 0.24695 0.09146 0.19619 0.0
C940 C 0.25558 0.08512 0.26538 0.0
C941 C 0.25322 0.12396 0.28175 0.0
C942 C 0.27174 0.07579 0.26311 0.0
C943 C 0.27754 0.0654 0.29482 0.0
C944 C 0.26727 0.0643 0.32915 0.0
C945 C 0.25068 0.07294 0.33041 0.0
C946 C 0.24485 0.08317 0.29872 0.0
H947 H 0.25582 0.13851 0.27996 0.0
H948 H 0.24183 0.12189 0.30192 0.0
H949 H 0.2651 0.11736 0.29469 0.0
H950 H 0.28015 0.0771 0.23749 0.0
H951 H 0.29037 0.05886 0.29314 0.0
H952 H 0.21689 0.27525 0.93398 0.0
H953 H 0.21351 0.30763 0.93344 0.0
H954 H 0.20676 0.3074 0.05907 0.0
H955 H 0.21003 0.27506 0.06011 0.0
H956 H 0.18091 0.32809 0.01523 0.0
H957 H 0.25107 0.34371 0.97603 0.0
H958 H 0.23991 0.32791 0.94496 0.0
H959 H 0.24441 0.32231 0.99527 0.0
C960 C 0.21474 0.28206 0.96156 0.0
C961 C 0.21383 0.27253 0.99713 0.0
C962 C 0.21286 0.30056 0.96115 0.0
C963 C 0.21006 0.30984 0.99625 0.0
C964 C 0.20897 0.30042 0.03171 0.0
H965 H 0.22035 0.42132 0.04883 0.0
H966 H 0.22172 0.38882 0.0469 0.0
C967 C 0.21091 0.28195 0.03221 0.0
C968 C 0.20818 0.32941 0.99613 0.0
H969 H 0.23107 0.36793 0.9797 0.0
C970 C 0.19183 0.33683 0.00739 0.0
C971 C 0.22254 0.34069 0.9862 0.0
C972 C 0.24054 0.33333 0.9752 0.0
C973 C 0.18945 0.35535 0.00886 0.0
C974 C 0.20376 0.36662 0.99853 0.0
C975 C 0.22011 0.35918 0.98736 0.0
C976 C 0.20226 0.3862 0.00034 0.0
C977 C 0.17181 0.36273 0.02227 0.0
C978 C 0.19086 0.39542 0.97474 0.0
C979 C 0.18999 0.414 0.97586 0.0
C980 C 0.20053 0.42362 0.00263 0.0
C981 C 0.21186 0.41428 0.02833 0.0
C982 C 0.21276 0.39574 0.02708 0.0
H983 H 0.16344 0.3524 0.03657 0.0
H984 H 0.17384 0.37387 0.04319 0.0
H985 H 0.16441 0.368 0.9965 0.0
H986 H 0.18282 0.38826 0.95357 0.0
H987 H 0.18108 0.42084 0.95584 0.0
H988 H 0.22223 0.71935 0.56353 0.0
H989 H 0.18993 0.71514 0.56431 0.0
H990 H 0.19087 0.70059 0.44203 0.0
H991 H 0.22317 0.70483 0.44068 0.0
H992 H 0.16413 0.73334 0.50577 0.0
H993 H 0.1639 0.65916 0.50677 0.0
H994 H 0.18256 0.67198 0.52485 0.0
H995 H 0.17861 0.67035 0.47307 0.0
C996 C 0.21561 0.71524 0.53676 0.0
C997 C 0.2253 0.71244 0.50202 0.0
C998 C 0.19717 0.71286 0.53731 0.0
C999 C 0.18817 0.70743 0.50333 0.0
C1000 C 0.19771 0.70465 0.4686 0.0
H1001 H 0.07824 0.6824 0.45024 0.0
H1002 H 0.11069 0.68495 0.45106 0.0
C1003 C 0.21613 0.70717 0.46789 0.0
C1004 C 0.16869 0.70509 0.50397 0.0
H1005 H 0.13602 0.67355 0.50314 0.0
C1006 C 0.15792 0.7203 0.50532 0.0
C1007 C 0.16079 0.68804 0.50305 0.0
C1008 C 0.17198 0.67137 0.50205 0.0
C1009 C 0.13931 0.71893 0.50526 0.0
C1010 C 0.13134 0.70184 0.50501 0.0
C1011 C 0.14217 0.68662 0.50354 0.0
C1012 C 0.11177 0.69953 0.50572 0.0
C1013 C 0.12838 0.7358 0.50442 0.0
C1014 C 0.10168 0.70647 0.53671 0.0
C1015 C 0.08314 0.70529 0.53603 0.0
C1016 C 0.07433 0.6969 0.5046 0.0
C1017 C 0.08457 0.68926 0.47448 0.0
C1018 C 0.10312 0.69058 0.47504 0.0
H1019 H 0.13626 0.74731 0.49353 0.0
H1020 H 0.11642 0.73426 0.4855 0.0
H1021 H 0.12391 0.73894 0.53463 0.0
H1022 H 0.10814 0.71307 0.56114 0.0
H1023 H 0.07571 0.71145 0.55957 0.0
H1024 H 0.79258 0.72231 0.06233 0.0
H1025 H 0.79844 0.69034 0.06157 0.0
H1026 H 0.7853 0.68854 0.93832 0.0
H1027 H 0.77979 0.72058 0.93847 0.0
H1028 H 0.77638 0.66288 0.04402 0.0
H1029 H 0.83319 0.66382 0.94046 0.0
H1030 H 0.82459 0.68378 0.9629 0.0
H1031 H 0.81357 0.67425 0.92095 0.0
C1032 C 0.79092 0.71515 0.03501 0.0
C1033 C 0.78578 0.72405 0.00039 0.0
C1034 C 0.79432 0.69687 0.03464 0.0
C1035 C 0.79266 0.68715 -0.00027 0.0
C1036 C 0.78714 0.69589 0.96534 0.0
H1037 H 0.79285 0.57624 0.93884 0.0
H1038 H 0.79131 0.60872 0.94033 0.0
C1039 C 0.78386 0.71419 0.96558 0.0
C1040 C 0.79615 0.66775 -0.0004 0.0
H1041 H 0.82076 0.63532 0.95523 0.0
C1042 C 0.7862 0.65687 0.02489 0.0
C1043 C 0.80902 0.65997 0.97467 0.0
C1044 C 0.82083 0.67107 0.94849 0.0
C1045 C 0.78843 0.63834 0.02515 0.0
C1046 C 0.80101 0.63056 -0.00036 0.0
C1047 C 0.81111 0.64141 0.97466 0.0
C1048 C 0.80339 0.61109 0.99774 0.0
C1049 C 0.77702 0.62712 0.05194 0.0
C1050 C 0.81112 0.6018 0.02918 0.0
C1051 C 0.81222 0.58324 0.02828 0.0
C1052 C 0.80556 0.57368 0.99593 0.0
C1053 C 0.79833 0.58316 0.96397 0.0
C1054 C 0.79732 0.60171 0.96483 0.0
H1055 H 0.76602 0.63491 0.06527 0.0
H1056 H 0.77123 0.61571 0.0356 0.0
H1057 H 0.7854 0.62164 0.07598 0.0
H1058 H 0.81606 0.6089 0.05462 0.0
H1059 H 0.81814 0.57637 0.05308 0.0
H1060 H 0.7754 0.29265 0.43416 0.0
H1061 H 0.80773 0.29672 0.43429 0.0
H1062 H 0.80949 0.28451 0.55793 0.0
H1063 H 0.77721 0.28042 0.55833 0.0
H1064 H 0.82815 0.32153 0.48752 0.0
H1065 H 0.84603 0.2499 0.50202 0.0
H1066 H 0.82466 0.25721 0.48356 0.0
H1067 H 0.82938 0.2582 0.53517 0.0
C1068 C 0.78264 0.29073 0.46137 0.0
C1069 C 0.7737 0.28613 0.49622 0.0
C1070 C 0.80109 0.29313 0.46137 0.0
C1071 C 0.8109 0.29077 0.49604 0.0
C1072 C 0.80209 0.28621 0.53083 0.0
H1073 H 0.92245 0.29113 0.55687 0.0
H1074 H 0.89 0.2896 0.55658 0.0
C1075 C 0.78365 0.28393 0.53097 0.0
C1076 C 0.83039 0.29323 0.49603 0.0
H1077 H 0.86953 0.27069 0.5061 0.0
C1078 C 0.83726 0.31045 0.4914 0.0
C1079 C 0.84209 0.27871 0.50132 0.0
C1080 C 0.83526 0.25991 0.50555 0.0
C1081 C 0.85567 0.31362 0.49272 0.0
C1082 C 0.86743 0.29906 0.49786 0.0
C1083 C 0.86048 0.28182 0.50225 0.0
C1084 C 0.887 0.30133 0.49886 0.0
C1085 C 0.86231 0.33253 0.48967 0.0
C1086 C 0.89608 0.30851 0.46656 0.0
C1087 C 0.91464 0.30966 0.46686 0.0
C1088 C 0.92449 0.30342 0.49929 0.0
C1089 C 0.9153 0.29635 0.53171 0.0
C1090 C 0.89675 0.29532 0.53147 0.0
H1091 H 0.85173 0.34229 0.49711 0.0
H1092 H 0.87388 0.33477 0.5094 0.0
H1093 H 0.86659 0.33519 0.45906 0.0
H1094 H 0.88884 0.3129 0.44076 0.0
H1095 H 0.92128 0.31532 0.44156 0.0
H1096 H 0.72116 0.22274 0.43694 0.0
H1097 H 0.71783 0.19034 0.43698 0.0
H1098 H 0.70515 0.19134 0.56026 0.0
H1099 H 0.7085 0.22374 0.56078 0.0
H1100 H 0.73737 0.16502 0.49281 0.0
H1101 H 0.66332 0.1634 0.50071 0.0
H1102 H 0.67536 0.18242 0.48194 0.0
H1103 H 0.67492 0.17811 0.53371 0.0
C1104 C 0.71766 0.2161 0.4641 0.0
C1105 C 0.71509 0.22585 0.49887 0.0
C1106 C 0.71578 0.19761 0.46403 0.0
C1107 C 0.71111 0.18859 0.49852 0.0
C1108 C 0.70861 0.19818 0.5333 0.0
H1109 H 0.68865 0.07809 0.55266 0.0
H1110 H 0.69138 0.11052 0.55301 0.0
C1111 C 0.71062 0.21666 0.53353 0.0
C1112 C 0.70914 0.16905 0.49828 0.0
H1113 H 0.67829 0.1358 0.50302 0.0
C1114 C 0.72449 0.15857 0.49495 0.0
C1115 C 0.69229 0.16084 0.50136 0.0
C1116 C 0.67546 0.17169 0.50442 0.0
C1117 C 0.72346 0.13993 0.49509 0.0
C1118 C 0.70656 0.13165 0.49753 0.0
C1119 C 0.69121 0.14219 0.50101 0.0
C1120 C 0.70455 0.11205 0.49669 0.0
C1121 C 0.74051 0.12932 0.49362 0.0
C1122 C 0.71072 0.1022 0.46454 0.0
C1123 C 0.70943 0.08367 0.4645 0.0
C1124 C 0.7017 0.07462 0.4964 0.0
C1125 C 0.69498 0.0846 0.52797 0.0
C1126 C 0.6964 0.10314 0.5281 0.0
H1127 H 0.75214 0.13736 0.50323 0.0
H1128 H 0.73967 0.11726 0.51245 0.0
H1129 H 0.74295 0.12501 0.46297 0.0
H1130 H 0.71668 0.10885 0.43958 0.0
H1131 H 0.71488 0.07642 0.43985 0.0
H1132 H 0.27626 0.21647 0.06025 0.0
H1133 H 0.30863 0.21322 0.05975 0.0
H1134 H 0.30752 0.2057 0.93435 0.0
H1135 H 0.27514 0.20883 0.93437 0.0
H1136 H 0.32873 0.18035 0.97762 0.0
H1137 H 0.34421 0.25063 0.01567 0.0
H1138 H 0.32873 0.23961 0.04771 0.0
H1139 H 0.32268 0.24376 0.99748 0.0
C1140 C 0.28286 0.21417 0.03249 0.0
C1141 C 0.27307 0.21302 0.9973 0.0
C1142 C 0.30137 0.21238 0.0323 0.0
C1143 C 0.31041 0.20942 0.99697 0.0
C1144 C 0.30073 0.20805 0.96188 0.0
H1145 H 0.42279 0.21988 0.94972 0.0
H1146 H 0.39027 0.22134 0.94902 0.0
C1147 C 0.28223 0.2099 0.96198 0.0
C1148 C 0.32999 0.20764 0.99659 0.0
H1149 H 0.36846 0.23052 0.01374 0.0
C1150 C 0.33745 0.19129 0.98548 0.0
C1151 C 0.34125 0.22203 0.00652 0.0
C1152 C 0.33388 0.24007 0.01722 0.0
C1153 C 0.35597 0.18889 0.98443 0.0
C1154 C 0.36721 0.20318 0.9951 0.0
C1155 C 0.35975 0.21958 0.00584 0.0
C1156 C 0.38682 0.20155 0.99459 0.0
C1157 C 0.36337 0.17121 0.97129 0.0
C1158 C 0.39558 0.18994 0.02051 0.0
C1159 C 0.41417 0.18901 0.02088 0.0
C1160 C 0.42426 0.19971 0.99534 0.0
C1161 C 0.41538 0.21126 0.9693 0.0
C1162 C 0.39683 0.21221 0.96904 0.0
H1163 H 0.35319 0.16305 0.95594 0.0
H1164 H 0.3749 0.17316 0.9514 0.0
H1165 H 0.36807 0.16364 0.99735 0.0
H1166 H 0.38806 0.18179 0.04084 0.0
H1167 H 0.42063 0.17992 0.04112 0.0
H1168 H 0.2781 0.7755 0.43681 0.0
H1169 H 0.28228 0.80781 0.43526 0.0
H1170 H 0.29563 0.80739 0.55839 0.0
H1171 H 0.29143 0.77512 0.5605 0.0
H1172 H 0.26378 0.83408 0.49041 0.0
H1173 H 0.33788 0.83372 0.4969 0.0
H1174 H 0.32518 0.81494 0.4791 0.0
H1175 H 0.32617 0.81948 0.53071 0.0
C1176 C 0.28192 0.78225 0.46361 0.0
C1177 C 0.28443 0.77271 0.4988 0.0
C1178 C 0.28429 0.80069 0.46262 0.0
C1179 C 0.28942 0.80984 0.49661 0.0
C1180 C 0.29183 0.80045 0.5318 0.0
H1181 H 0.31416 0.91926 0.55249 0.0
H1182 H 0.31123 0.88685 0.55104 0.0
C1183 C 0.28932 0.78204 0.53294 0.0
C1184 C 0.29192 0.8293 0.49552 0.0
H1185 H 0.32365 0.86173 0.4999 0.0
C1186 C 0.27684 0.84018 0.49229 0.0
C1187 C 0.309 0.83707 0.49829 0.0
C1188 C 0.32556 0.82578 0.50122 0.0
C1189 C 0.27836 0.85879 0.49244 0.0
C1190 C 0.29548 0.86662 0.49479 0.0
C1191 C 0.31057 0.85568 0.49796 0.0
C1192 C 0.29795 0.88617 0.49462 0.0
C1193 C 0.26158 0.86985 0.49126 0.0
C1194 C 0.29186 0.89647 0.46293 0.0
C1195 C 0.29326 0.91499 0.46392 0.0
C1196 C 0.30103 0.92357 0.49641 0.0
C1197 C 0.3078 0.91312 0.52738 0.0
C1198 C 0.30626 0.89459 0.52648 0.0
H1199 H 0.24975 0.86203 0.50056 0.0
H1200 H 0.26276 0.88171 0.51049 0.0
H1201 H 0.2592 0.8745 0.46076 0.0
H1202 H 0.28577 0.89019 0.43765 0.0
H1203 H 0.28776 0.92259 0.4397 0.0
H1204 H 0.72089 0.77737 0.94123 0.0
H1205 H 0.68858 0.78135 0.94266 0.0
H1206 H 0.69108 0.79292 0.06641 0.0
H1207 H 0.72342 0.78893 0.06553 0.0
H1208 H 0.66329 0.76202 0.9979 0.0
H1209 H 0.6637 0.83597 0.01018 0.0
H1210 H 0.6823 0.82367 0.99045 0.0
H1211 H 0.67823 0.82357 0.04228 0.0
C1212 C 0.71461 0.78075 0.96881 0.0
C1213 C 0.72476 0.78284 0.00327 0.0
C1214 C 0.69616 0.783 0.96952 0.0
C1215 C 0.68759 0.78757 0.00454 0.0
C1216 C 0.69757 0.78955 0.03906 0.0
H1217 H 0.57745 0.81208 0.05906 0.0
H1218 H 0.60983 0.80866 0.0601 0.0
C1219 C 0.71601 0.78717 0.03848 0.0
C1220 C 0.66811 0.79005 0.00498 0.0
H1221 H 0.63572 0.82174 0.01141 0.0
C1222 C 0.6572 0.77505 0.00082 0.0
C1223 C 0.66036 0.80708 0.00908 0.0
C1224 C 0.67167 0.82357 0.01305 0.0
C1225 C 0.6386 0.77659 0.00096 0.0
C1226 C 0.63079 0.79368 0.00423 0.0
C1227 C 0.64175 0.80868 0.00874 0.0
C1228 C 0.61126 0.79624 0.00296 0.0
C1229 C 0.62752 0.75987 0.99841 0.0
C1230 C 0.60141 0.79076 0.9701 0.0
C1231 C 0.58291 0.79246 0.96963 0.0
C1232 C 0.57391 0.79992 0.00182 0.0
C1233 C 0.58392 0.80599 0.03411 0.0
C1234 C 0.60243 0.80416 0.03465 0.0
H1235 H 0.63522 0.74792 0.00753 0.0
H1236 H 0.61546 0.76084 0.01708 0.0
H1237 H 0.62318 0.75787 0.96756 0.0
H1238 H 0.60802 0.78498 0.94495 0.0
H1239 H 0.57564 0.78751 0.94442 0.0
loop_
_geom_bond_atom_site_label_1
_geom_bond_atom_site_label_2
_geom_bond_distance
_geom_bond_site_symmetry_2
_ccdc_geom_bond_type
Sc0 O3 2.039 . S
Sc0 O10 2.105 . S
Sc0 O13 2.105 . S
Sc0 O16 2.105 . S
Sc0 O19 2.105 . S
Sc1 O3 2.025 . S
Sc1 O11 2.116 . S
Sc1 O15 2.094 1_554 S
Sc1 O17 2.116 . S
Sc1 O21 2.094 1_554 S
Sc2 O3 2.011 1_556 S
Sc2 O12 2.105 . S
Sc2 O14 2.105 . S
Sc2 O18 2.105 . S
Sc2 O20 2.105 . S
O3 Sc0 2.039 . S
O3 Sc1 2.025 . S
O3 Sc2 2.011 1_554 S
C4 O10 1.279 . S
C4 O20 1.257 1_554 S
C5 O11 1.268 . S
C5 O19 1.268 . S
C6 O12 1.268 . S
C6 O21 1.268 . S
C7 O13 1.268 . S
C7 O17 1.268 . S
C8 O14 1.250 1_554 S
C8 O16 1.286 . S
C9 O15 1.268 . S
C9 O18 1.268 . S
O10 Sc0 2.105 . S
O10 C4 1.279 . S
O11 Sc1 2.116 . S
O11 C5 1.268 . S
O12 Sc2 2.105 . S
O12 C6 1.268 . S
O13 Sc0 2.105 . S
O13 C7 1.268 . S
O14 Sc2 2.105 . S
O14 C8 1.250 1_556 S
O15 Sc1 2.094 1_556 S
O15 C9 1.268 . S
O16 Sc0 2.105 . S
O16 C8 1.286 . S
O17 Sc1 2.116 . S
O17 C7 1.268 . S
O18 Sc2 2.105 . S
O18 C9 1.268 . S
O19 Sc0 2.105 . S
O19 C5 1.268 . S
O20 Sc2 2.105 . S
O20 C4 1.257 1_556 S
O21 Sc1 2.094 1_556 S
O21 C6 1.268 . S
Sc22 O25 2.025 . S
Sc22 O32 2.105 . S
Sc22 O35 2.105 . S
Sc22 O38 2.105 . S
Sc22 O41 2.105 . S
Sc23 O25 2.025 . S
Sc23 O33 2.105 . S
Sc23 O37 2.105 . S
Sc23 O39 2.105 . S
Sc23 O43 2.105 . S
Sc24 O25 2.025 . S
Sc24 O34 2.105 . S
Sc24 O36 2.105 . S
Sc24 O40 2.105 . S
Sc24 O42 2.105 . S
O25 Sc22 2.025 . S
O25 Sc23 2.025 . S
O25 Sc24 2.025 . S
C26 O32 1.268 . S
C26 O42 1.268 . S
C27 O33 1.268 . S
C27 O41 1.268 . S
C28 O34 1.268 . S
C28 O43 1.268 . S
C29 O35 1.268 . S
C29 O39 1.268 . S
C30 O36 1.268 . S
C30 O38 1.268 . S
C31 O37 1.268 . S
C31 O40 1.268 . S
O32 Sc22 2.105 . S
O32 C26 1.268 . S
O33 Sc23 2.105 . S
O33 C27 1.268 . S
O34 Sc24 2.105 . S
O34 C28 1.268 . S
O35 Sc22 2.105 . S
O35 C29 1.268 . S
O36 Sc24 2.105 . S
O36 C30 1.268 . S
O37 Sc23 2.105 . S
O37 C31 1.268 . S
O38 Sc22 2.105 . S
O38 C30 1.268 . S
O39 Sc23 2.105 . S
O39 C29 1.268 . S
O40 Sc24 2.105 . S
O40 C31 1.268 . S
O41 Sc22 2.105 . S
O41 C27 1.268 . S
O42 Sc24 2.105 . S
O42 C26 1.268 . S
O43 Sc23 2.105 . S
O43 C28 1.268 . S
Sc44 O47 2.011 1_556 S
Sc44 O54 2.105 . S
Sc44 O57 2.105 . S
Sc44 O60 2.105 . S
Sc44 O63 2.105 . S
Sc45 O47 2.025 . S
Sc45 O55 2.094 1_554 S
Sc45 O59 2.116 . S
Sc45 O61 2.094 1_554 S
Sc45 O65 2.116 . S
Sc46 O47 2.039 . S
Sc46 O56 2.105 . S
Sc46 O58 2.105 . S
Sc46 O62 2.105 . S
Sc46 O64 2.105 . S
O47 Sc44 2.011 1_554 S
O47 Sc45 2.025 . S
O47 Sc46 2.039 . S
C48 O54 1.257 1_554 S
C48 O64 1.279 . S
C49 O55 1.268 . S
C49 O63 1.268 . S
C50 O56 1.268 . S
C50 O65 1.268 . S
C51 O57 1.268 . S
C51 O61 1.268 . S
C52 O58 1.286 . S
C52 O60 1.250 1_554 S
C53 O59 1.268 . S
C53 O62 1.268 . S
O54 Sc44 2.105 . S
O54 C48 1.257 1_556 S
O55 Sc45 2.094 1_556 S
O55 C49 1.268 . S
O56 Sc46 2.105 . S
O56 C50 1.268 . S
O57 Sc44 2.105 . S
O57 C51 1.268 . S
O58 Sc46 2.105 . S
O58 C52 1.286 . S
O59 Sc45 2.116 . S
O59 C53 1.268 . S
O60 Sc44 2.105 . S
O60 C52 1.250 1_556 S
O61 Sc45 2.094 1_556 S
O61 C51 1.268 . S
O62 Sc46 2.105 . S
O62 C53 1.268 . S
O63 Sc44 2.105 . S
O63 C49 1.268 . S
O64 Sc46 2.105 . S
O64 C48 1.279 . S
O65 Sc45 2.116 . S
O65 C50 1.268 . S
Sc66 O69 2.025 . S
Sc66 O76 2.105 . S
Sc66 O79 2.105 . S
Sc66 O82 2.105 . S
Sc66 O85 2.105 . S
Sc67 O69 2.025 . S
Sc67 O77 2.105 . S
Sc67 O81 2.105 . S
Sc67 O83 2.105 . S
Sc67 O87 2.105 . S
Sc68 O69 2.025 . S
Sc68 O78 2.105 . S
Sc68 O80 2.105 . S
Sc68 O84 2.105 . S
Sc68 O86 2.105 . S
O69 Sc66 2.025 . S
O69 Sc67 2.025 . S
O69 Sc68 2.025 . S
C70 O76 1.268 . S
C70 O86 1.268 . S
C71 O77 1.268 . S
C71 O85 1.268 . S
C72 O78 1.268 . S
C72 O87 1.268 . S
C73 O79 1.268 . S
C73 O83 1.268 . S
C74 O80 1.268 . S
C74 O82 1.268 . S
C75 O81 1.268 . S
C75 O84 1.268 . S
O76 Sc66 2.105 . S
O76 C70 1.268 . S
O77 Sc67 2.105 . S
O77 C71 1.268 . S
O78 Sc68 2.105 . S
O78 C72 1.268 . S
O79 Sc66 2.105 . S
O79 C73 1.268 . S
O80 Sc68 2.105 . S
O80 C74 1.268 . S
O81 Sc67 2.105 . S
O81 C75 1.268 . S
O82 Sc66 2.105 . S
O82 C74 1.268 . S
O83 Sc67 2.105 . S
O83 C73 1.268 . S
O84 Sc68 2.105 . S
O84 C75 1.268 . S
O85 Sc66 2.105 . S
O85 C71 1.268 . S
O86 Sc68 2.105 . S
O86 C70 1.268 . S
O87 Sc67 2.105 . S
O87 C72 1.268 . S
C88 C89 1.384 . S
C88 H101 0.947 . S
C88 C123 1.382 . S
C89 C88 1.384 . S
C89 C90 1.378 . S
C90 C89 1.378 . S
C90 C91 1.378 . S
C90 H102 0.952 . S
C91 C90 1.378 . S
C91 H103 0.950 . S
C91 C122 1.383 . S
H92 C111 0.947 . S
H93 C112 0.946 . S
H94 C114 0.953 . S
H95 C115 0.945 . S
H96 C117 0.952 . S
H97 C118 0.949 . S
H98 C120 0.950 . S
H99 C121 0.948 . S
H100 C123 0.951 . S
H101 C88 0.947 . S
H102 C90 0.952 . S
H103 C91 0.950 . S
N104 C107 1.376 1_554 S
N104 C109 1.363 . S
N105 C107 1.377 . S
N105 C108 1.372 . S
N106 C108 1.361 . S
N106 C109 1.377 1_556 S
C107 N104 1.376 1_556 S
C107 N105 1.377 . S
C107 C110 1.480 . S
C108 N105 1.372 . S
C108 N106 1.361 . S
C108 C116 1.457 . S
C109 N104 1.363 . S
C109 N106 1.377 1_554 S
C109 C122 1.479 . S
C110 C107 1.480 . S
C110 C111 1.383 1_556 S
C110 C115 1.385 . S
C111 H92 0.947 . S
C111 C110 1.383 1_554 S
C111 C112 1.388 . S
C112 H93 0.946 . S
C112 C111 1.388 . S
C112 C113 1.384 1_554 S
C113 C112 1.384 1_556 S
C113 C114 1.377 . S
C114 H94 0.953 . S
C114 C113 1.377 . S
C114 C115 1.369 . S
C115 H95 0.945 . S
C115 C110 1.385 . S
C115 C114 1.369 . S
C116 C108 1.457 . S
C116 C117 1.372 . S
C116 C121 1.364 . S
C117 H96 0.952 . S
C117 C116 1.372 . S
C117 C118 1.389 . S
C118 H97 0.949 . S
C118 C117 1.389 . S
C118 C119 1.387 . S
C119 C118 1.387 . S
C119 C120 1.372 . S
C120 H98 0.950 . S
C120 C119 1.372 . S
C120 C121 1.379 . S
C121 H99 0.948 . S
C121 C116 1.364 . S
C121 C120 1.379 . S
C122 C91 1.383 . S
C122 C109 1.479 . S
C122 C123 1.398 . S
C123 C88 1.382 . S
C123 H100 0.951 . S
C123 C122 1.398 . S
C124 C125 1.384 . S
C124 H137 0.947 . S
C124 C159 1.382 . S
C125 C124 1.384 . S
C125 C126 1.378 . S
C126 C125 1.378 . S
C126 C127 1.378 . S
C126 H138 0.952 . S
C127 C126 1.378 . S
C127 H139 0.950 . S
C127 C158 1.383 . S
H128 C147 0.947 . S
H129 C148 0.946 . S
H130 C150 0.953 . S
H131 C151 0.945 . S
H132 C153 0.952 . S
H133 C154 0.949 . S
H134 C156 0.950 . S
H135 C157 0.948 . S
H136 C159 0.951 . S
H137 C124 0.947 . S
H138 C126 0.952 . S
H139 C127 0.950 . S
N140 C143 1.382 . S
N140 C145 1.363 . S
N141 C143 1.371 . S
N141 C144 1.372 . S
N142 C144 1.361 . S
N142 C145 1.377 . S
C143 N140 1.382 . S
C143 N141 1.371 . S
C143 C146 1.480 1_655 S
C144 N141 1.372 . S
C144 N142 1.361 . S
C144 C152 1.457 . S
C145 N140 1.363 . S
C145 N142 1.377 . S
C145 C158 1.479 . S
C146 C143 1.480 1_455 S
C146 C147 1.383 . S
C146 C151 1.385 . S
C147 H128 0.947 . S
C147 C146 1.383 . S
C147 C148 1.388 . S
C148 H129 0.946 . S
C148 C147 1.388 . S
C148 C149 1.384 . S
C149 C148 1.384 . S
C149 C150 1.377 . S
C150 H130 0.953 . S
C150 C149 1.377 . S
C150 C151 1.369 . S
C151 H131 0.945 . S
C151 C146 1.385 . S
C151 C150 1.369 . S
C152 C144 1.457 . S
C152 C153 1.372 . S
C152 C157 1.364 . S
C153 H132 0.952 . S
C153 C152 1.372 . S
C153 C154 1.389 . S
C154 H133 0.949 . S
C154 C153 1.389 . S
C154 C155 1.387 . S
C155 C154 1.387 . S
C155 C156 1.372 . S
C156 H134 0.950 . S
C156 C155 1.372 . S
C156 C157 1.379 . S
C157 H135 0.948 . S
C157 C152 1.364 . S
C157 C156 1.379 . S
C158 C127 1.383 . S
C158 C145 1.479 . S
C158 C159 1.398 . S
C159 C124 1.382 . S
C159 H136 0.951 . S
C159 C158 1.398 . S
C160 C161 1.384 . S
C160 H173 0.947 . S
C160 C195 1.382 . S
C161 C160 1.384 . S
C161 C162 1.378 . S
C162 C161 1.378 . S
C162 C163 1.378 . S
C162 H174 0.952 . S
C163 C162 1.378 . S
C163 H175 0.950 . S
C163 C194 1.383 . S
H164 C183 0.947 . S
H165 C184 0.946 . S
H166 C186 0.953 . S
H167 C187 0.945 . S
H168 C189 0.952 . S
H169 C190 0.949 . S
H170 C192 0.950 . S
H171 C193 0.948 . S
H172 C195 0.951 . S
H173 C160 0.947 . S
H174 C162 0.952 . S
H175 C163 0.950 . S
N176 C179 1.382 1_556 S
N176 C181 1.363 . S
N177 C179 1.371 . S
N177 C180 1.372 . S
N178 C180 1.361 . S
N178 C181 1.377 1_554 S
C179 N176 1.382 1_554 S
C179 N177 1.371 . S
C179 C182 1.480 . S
C180 N177 1.372 . S
C180 N178 1.361 . S
C180 C188 1.457 . S
C181 N176 1.363 . S
C181 N178 1.377 1_556 S
C181 C194 1.479 . S
C182 C179 1.480 . S
C182 C183 1.383 1_554 S
C182 C187 1.385 . S
C183 H164 0.947 . S
C183 C182 1.383 1_556 S
C183 C184 1.388 . S
C184 H165 0.946 . S
C184 C183 1.388 . S
C184 C185 1.384 1_556 S
C185 C184 1.384 1_554 S
C185 C186 1.377 . S
C186 H166 0.953 . S
C186 C185 1.377 . S
C186 C187 1.369 . S
C187 H167 0.945 . S
C187 C182 1.385 . S
C187 C186 1.369 . S
C188 C180 1.457 . S
C188 C189 1.372 . S
C188 C193 1.364 . S
C189 H168 0.952 . S
C189 C188 1.372 . S
C189 C190 1.389 . S
C190 H169 0.949 . S
C190 C189 1.389 . S
C190 C191 1.387 . S
C191 C190 1.387 . S
C191 C192 1.372 . S
C192 H170 0.950 . S
C192 C191 1.372 . S
C192 C193 1.379 . S
C193 H171 0.948 . S
C193 C188 1.364 . S
C193 C192 1.379 . S
C194 C163 1.383 . S
C194 C181 1.479 . S
C194 C195 1.398 . S
C195 C160 1.382 . S
C195 H172 0.951 . S
C195 C194 1.398 . S
C196 C197 1.384 . S
C196 H209 0.947 . S
C196 C231 1.382 . S
C197 C196 1.384 . S
C197 C198 1.378 . S
C198 C197 1.378 . S
C198 C199 1.378 . S
C198 H210 0.952 . S
C199 C198 1.378 . S
C199 H211 0.950 . S
C199 C230 1.383 . S
H200 C219 0.947 . S
H201 C220 0.946 . S
H202 C222 0.953 . S
H203 C223 0.945 . S
H204 C225 0.952 . S
H205 C226 0.949 . S
H206 C228 0.950 . S
H207 C229 0.948 . S
H208 C231 0.951 . S
H209 C196 0.947 . S
H210 C198 0.952 . S
H211 C199 0.950 . S
N212 C215 1.382 . S
N212 C217 1.363 . S
N213 C215 1.371 . S
N213 C216 1.372 . S
N214 C216 1.361 . S
N214 C217 1.377 . S
C215 N212 1.382 . S
C215 N213 1.371 . S
C215 C218 1.480 1_455 S
C216 N213 1.372 . S
C216 N214 1.361 . S
C216 C224 1.457 . S
C217 N212 1.363 . S
C217 N214 1.377 . S
C217 C230 1.479 . S
C218 C215 1.480 1_655 S
C218 C219 1.383 . S
C218 C223 1.385 . S
C219 H200 0.947 . S
C219 C218 1.383 . S
C219 C220 1.388 . S
C220 H201 0.946 . S
C220 C219 1.388 . S
C220 C221 1.384 . S
C221 C220 1.384 . S
C221 C222 1.377 . S
C222 H202 0.953 . S
C222 C221 1.377 . S
C222 C223 1.369 . S
C223 H203 0.945 . S
C223 C218 1.385 . S
C223 C222 1.369 . S
C224 C216 1.457 . S
C224 C225 1.372 . S
C224 C229 1.364 . S
C225 H204 0.952 . S
C225 C224 1.372 . S
C225 C226 1.389 . S
C226 H205 0.949 . S
C226 C225 1.389 . S
C226 C227 1.387 . S
C227 C226 1.387 . S
C227 C228 1.372 . S
C228 H206 0.950 . S
C228 C227 1.372 . S
C228 C229 1.379 . S
C229 H207 0.948 . S
C229 C224 1.364 . S
C229 C228 1.379 . S
C230 C199 1.383 . S
C230 C217 1.479 . S
C230 C231 1.398 . S
C231 C196 1.382 . S
C231 H208 0.951 . S
C231 C230 1.398 . S
C232 C233 1.384 . S
C232 H245 0.947 . S
C232 C267 1.382 . S
C233 C232 1.384 . S
C233 C234 1.378 . S
C234 C233 1.378 . S
C234 C235 1.378 . S
C234 H246 0.952 . S
C235 C234 1.378 . S
C235 H247 0.950 . S
C235 C266 1.383 . S
H236 C255 0.947 . S
H237 C256 0.946 . S
H238 C258 0.953 . S
H239 C259 0.945 . S
H240 C261 0.952 . S
H241 C262 0.949 . S
H242 C264 0.950 . S
H243 C265 0.948 . S
H244 C267 0.951 . S
H245 C232 0.947 . S
H246 C234 0.952 . S
H247 C235 0.950 . S
N248 C251 1.382 . S
N248 C253 1.363 . S
N249 C251 1.371 . S
N249 C252 1.372 . S
N250 C252 1.361 . S
N250 C253 1.377 . S
C251 N248 1.382 . S
C251 N249 1.371 . S
C251 C254 1.480 1_565 S
C252 N249 1.372 . S
C252 N250 1.361 . S
C252 C260 1.457 . S
C253 N248 1.363 . S
C253 N250 1.377 . S
C253 C266 1.479 . S
C254 C251 1.480 1_545 S
C254 C255 1.383 . S
C254 C259 1.385 . S
C255 H236 0.947 . S
C255 C254 1.383 . S
C255 C256 1.388 . S
C256 H237 0.946 . S
C256 C255 1.388 . S
C256 C257 1.384 . S
C257 C256 1.384 . S
C257 C258 1.377 . S
C258 H238 0.953 . S
C258 C257 1.377 . S
C258 C259 1.369 . S
C259 H239 0.945 . S
C259 C254 1.385 . S
C259 C258 1.369 . S
C260 C252 1.457 . S
C260 C261 1.372 . S
C260 C265 1.364 . S
C261 H240 0.952 . S
C261 C260 1.372 . S
C261 C262 1.389 . S
C262 H241 0.949 . S
C262 C261 1.389 . S
C262 C263 1.387 . S
C263 C262 1.387 . S
C263 C264 1.372 . S
C264 H242 0.950 . S
C264 C263 1.372 . S
C264 C265 1.379 . S
C265 H243 0.948 . S
C265 C260 1.364 . S
C265 C264 1.379 . S
C266 C235 1.383 . S
C266 C253 1.479 . S
C266 C267 1.398 . S
C267 C232 1.382 . S
C267 H244 0.951 . S
C267 C266 1.398 . S
C268 C269 1.384 . S
C268 H281 0.947 . S
C268 C303 1.382 . S
C269 C268 1.384 . S
C269 C270 1.378 . S
C270 C269 1.378 . S
C270 C271 1.378 . S
C270 H282 0.952 . S
C271 C270 1.378 . S
C271 H283 0.950 . S
C271 C302 1.383 . S
H272 C291 0.947 . S
H273 C292 0.946 . S
H274 C294 0.953 . S
H275 C295 0.945 . S
H276 C297 0.952 . S
H277 C298 0.949 . S
H278 C300 0.950 . S
H279 C301 0.948 . S
H280 C303 0.951 . S
H281 C268 0.947 . S
H282 C270 0.952 . S
H283 C271 0.950 . S
N284 C287 1.382 1_556 S
N284 C289 1.363 . S
N285 C287 1.371 . S
N285 C288 1.372 . S
N286 C288 1.361 . S
N286 C289 1.377 1_554 S
C287 N284 1.382 1_554 S
C287 N285 1.371 . S
C287 C290 1.480 . S
C288 N285 1.372 . S
C288 N286 1.361 . S
C288 C296 1.457 . S
C289 N284 1.363 . S
C289 N286 1.377 1_556 S
C289 C302 1.479 . S
C290 C287 1.480 . S
C290 C291 1.383 1_554 S
C290 C295 1.385 . S
C291 H272 0.947 . S
C291 C290 1.383 1_556 S
C291 C292 1.388 . S
C292 H273 0.946 . S
C292 C291 1.388 . S
C292 C293 1.384 1_556 S
C293 C292 1.384 1_554 S
C293 C294 1.377 . S
C294 H274 0.953 . S
C294 C293 1.377 . S
C294 C295 1.369 . S
C295 H275 0.945 . S
C295 C290 1.385 . S
C295 C294 1.369 . S
C296 C288 1.457 . S
C296 C297 1.372 . S
C296 C301 1.364 . S
C297 H276 0.952 . S
C297 C296 1.372 . S
C297 C298 1.389 . S
C298 H277 0.949 . S
C298 C297 1.389 . S
C298 C299 1.387 . S
C299 C298 1.387 . S
C299 C300 1.372 . S
C300 H278 0.950 . S
C300 C299 1.372 . S
C300 C301 1.379 . S
C301 H279 0.948 . S
C301 C296 1.364 . S
C301 C300 1.379 . S
C302 C271 1.383 . S
C302 C289 1.479 . S
C302 C303 1.398 . S
C303 C268 1.382 . S
C303 H280 0.951 . S
C303 C302 1.398 . S
C304 C305 1.384 . S
C304 H317 0.947 . S
C304 C339 1.382 . S
C305 C304 1.384 . S
C305 C306 1.378 . S
C306 C305 1.378 . S
C306 C307 1.378 . S
C306 H318 0.952 . S
C307 C306 1.378 . S
C307 H319 0.950 . S
C307 C338 1.383 . S
H308 C327 0.947 . S
H309 C328 0.946 . S
H310 C330 0.953 . S
H311 C331 0.945 . S
H312 C333 0.952 . S
H313 C334 0.949 . S
H314 C336 0.950 . S
H315 C337 0.948 . S
H316 C339 0.951 . S
H317 C304 0.947 . S
H318 C306 0.952 . S
H319 C307 0.950 . S
N320 C323 1.382 . S
N320 C325 1.363 . S
N321 C323 1.371 . S
N321 C324 1.372 . S
N322 C324 1.361 . S
N322 C325 1.377 . S
C323 N320 1.382 . S
C323 N321 1.371 . S
C323 C326 1.480 1_545 S
C324 N321 1.372 . S
C324 N322 1.361 . S
C324 C332 1.457 . S
C325 N320 1.363 . S
C325 N322 1.377 . S
C325 C338 1.479 . S
C326 C323 1.480 1_565 S
C326 C327 1.383 . S
C326 C331 1.385 . S
C327 H308 0.947 . S
C327 C326 1.383 . S
C327 C328 1.388 . S
C328 H309 0.946 . S
C328 C327 1.388 . S
C328 C329 1.384 . S
C329 C328 1.384 . S
C329 C330 1.377 . S
C330 H310 0.953 . S
C330 C329 1.377 . S
C330 C331 1.369 . S
C331 H311 0.945 . S
C331 C326 1.385 . S
C331 C330 1.369 . S
C332 C324 1.457 . S
C332 C333 1.372 . S
C332 C337 1.364 . S
C333 H312 0.952 . S
C333 C332 1.372 . S
C333 C334 1.389 . S
C334 H313 0.949 . S
C334 C333 1.389 . S
C334 C335 1.387 . S
C335 C334 1.387 . S
C335 C336 1.372 . S
C336 H314 0.950 . S
C336 C335 1.372 . S
C336 C337 1.379 . S
C337 H315 0.948 . S
C337 C332 1.364 . S
C337 C336 1.379 . S
C338 C307 1.383 . S
C338 C325 1.479 . S
C338 C339 1.398 . S
C339 C304 1.382 . S
C339 H316 0.951 . S
C339 C338 1.398 . S
C340 C341 1.384 . S
C340 H353 0.947 . S
C340 C375 1.382 . S
C341 C340 1.384 . S
C341 C342 1.378 . S
C342 C341 1.378 . S
C342 C343 1.378 . S
C342 H354 0.952 . S
C343 C342 1.378 . S
C343 H355 0.950 . S
C343 C374 1.383 . S
H344 C363 0.947 . S
H345 C364 0.946 . S
H346 C366 0.953 . S
H347 C367 0.945 . S
H348 C369 0.952 . S
H349 C370 0.949 . S
H350 C372 0.950 . S
H351 C373 0.948 . S
H352 C375 0.951 . S
H353 C340 0.947 . S
H354 C342 0.952 . S
H355 C343 0.950 . S
N356 C359 1.375 1_554 S
N356 C361 1.363 . S
N357 C359 1.378 . S
N357 C360 1.372 . S
N358 C360 1.361 . S
N358 C361 1.377 1_556 S
C359 N356 1.375 1_556 S
C359 N357 1.378 . S
C359 C362 1.480 . S
C360 N357 1.372 . S
C360 N358 1.361 . S
C360 C368 1.457 . S
C361 N356 1.363 . S
C361 N358 1.377 1_554 S
C361 C374 1.479 . S
C362 C359 1.480 . S
C362 C363 1.383 1_556 S
C362 C367 1.385 . S
C363 H344 0.947 . S
C363 C362 1.383 1_554 S
C363 C364 1.388 . S
C364 H345 0.946 . S
C364 C363 1.388 . S
C364 C365 1.384 1_554 S
C365 C364 1.384 1_556 S
C365 C366 1.377 . S
C366 H346 0.953 . S
C366 C365 1.377 . S
C366 C367 1.369 . S
C367 H347 0.945 . S
C367 C362 1.385 . S
C367 C366 1.369 . S
C368 C360 1.457 . S
C368 C369 1.372 . S
C368 C373 1.364 . S
C369 H348 0.952 . S
C369 C368 1.372 . S
C369 C370 1.389 . S
C370 H349 0.949 . S
C370 C369 1.389 . S
C370 C371 1.387 . S
C371 C370 1.387 . S
C371 C372 1.372 . S
C372 H350 0.950 . S
C372 C371 1.372 . S
C372 C373 1.379 . S
C373 H351 0.948 . S
C373 C368 1.364 . S
C373 C372 1.379 . S
C374 C343 1.383 . S
C374 C361 1.479 . S
C374 C375 1.398 . S
C375 C340 1.382 . S
C375 H352 0.951 . S
C375 C374 1.398 . S
H376 C384 0.929 . S
H377 C386 0.930 . S
H378 C388 0.930 . S
H379 C391 0.929 . S
H380 C394 0.930 . S
H381 C396 0.960 . S
H382 C396 0.960 . S
H383 C396 0.960 . S
C384 H376 0.929 . S
C384 C385 1.377 . S
C384 C386 1.384 . S
C385 C384 1.377 . S
C385 C391 1.390 . S
C386 H377 0.930 . S
C386 C384 1.384 . S
C386 C387 1.372 . S
C387 C386 1.372 . S
C387 C388 1.400 . S
C387 C392 1.490 . S
C388 H378 0.930 . S
C388 C387 1.400 . S
C388 C391 1.386 . S
H389 C405 0.930 . S
H390 C406 0.931 . S
C391 H379 0.929 . S
C391 C385 1.390 . S
C391 C388 1.386 . S
C392 C387 1.490 . S
C392 C394 1.395 . S
C392 C395 1.403 . S
H393 C399 0.930 . S
C394 H380 0.930 . S
C394 C392 1.395 . S
C394 C397 1.403 . S
C395 C392 1.403 . S
C395 C396 1.524 . S
C395 C399 1.400 . S
C396 H381 0.960 . S
C396 H382 0.960 . S
C396 H383 0.960 . S
C396 C395 1.524 . S
C397 C394 1.403 . S
C397 C398 1.392 . S
C397 C401 1.495 . S
C398 C397 1.392 . S
C398 C399 1.385 . S
C398 C400 1.478 . S
C399 H393 0.930 . S
C399 C395 1.400 . S
C399 C398 1.385 . S
C400 C398 1.478 . S
C400 C402 1.381 . S
C400 C406 1.383 . S
C401 C397 1.495 . S
C401 H407 0.959 . S
C401 H408 0.961 . S
C401 H409 0.960 . S
C402 C400 1.381 . S
C402 C403 1.394 . S
C402 H410 0.930 . S
C403 C402 1.394 . S
C403 C404 1.383 . S
C403 H411 0.929 . S
C404 C403 1.383 . S
C404 C405 1.377 . S
C405 H389 0.930 . S
C405 C404 1.377 . S
C405 C406 1.379 . S
C406 H390 0.931 . S
C406 C400 1.383 . S
C406 C405 1.379 . S
H407 C401 0.959 . S
H408 C401 0.961 . S
H409 C401 0.960 . S
H410 C402 0.930 . S
H411 C403 0.929 . S
H412 C420 0.929 . S
H413 C422 0.930 . S
H414 C424 0.930 . S
H415 C427 0.929 . S
H416 C430 0.930 . S
H417 C432 0.960 . S
H418 C432 0.960 . S
H419 C432 0.960 . S
C420 H412 0.929 . S
C420 C421 1.377 . S
C420 C422 1.384 . S
C421 C420 1.377 . S
C421 C427 1.390 . S
C422 H413 0.930 . S
C422 C420 1.384 . S
C422 C423 1.372 . S
C423 C422 1.372 . S
C423 C424 1.400 . S
C423 C428 1.490 . S
C424 H414 0.930 . S
C424 C423 1.400 . S
C424 C427 1.386 . S
H425 C441 0.930 . S
H426 C442 0.931 . S
C427 H415 0.929 . S
C427 C421 1.390 . S
C427 C424 1.386 . S
C428 C423 1.490 . S
C428 C430 1.395 . S
C428 C431 1.403 . S
H429 C435 0.930 . S
C430 H416 0.930 . S
C430 C428 1.395 . S
C430 C433 1.403 . S
C431 C428 1.403 . S
C431 C432 1.524 . S
C431 C435 1.400 . S
C432 H417 0.960 . S
C432 H418 0.960 . S
C432 H419 0.960 . S
C432 C431 1.524 . S
C433 C430 1.403 . S
C433 C434 1.392 . S
C433 C437 1.495 . S
C434 C433 1.392 . S
C434 C435 1.385 . S
C434 C436 1.478 . S
C435 H429 0.930 . S
C435 C431 1.400 . S
C435 C434 1.385 . S
C436 C434 1.478 . S
C436 C438 1.381 . S
C436 C442 1.383 . S
C437 C433 1.495 . S
C437 H443 0.959 . S
C437 H444 0.961 . S
C437 H445 0.960 . S
C438 C436 1.381 . S
C438 C439 1.394 . S
C438 H446 0.930 . S
C439 C438 1.394 . S
C439 C440 1.383 . S
C439 H447 0.929 . S
C440 C439 1.383 . S
C440 C441 1.377 . S
C441 H425 0.930 . S
C441 C440 1.377 . S
C441 C442 1.379 . S
C442 H426 0.931 . S
C442 C436 1.383 . S
C442 C441 1.379 . S
H443 C437 0.959 . S
H444 C437 0.961 . S
H445 C437 0.960 . S
H446 C438 0.930 . S
H447 C439 0.929 . S
H448 C456 0.929 . S
H449 C458 0.930 . S
H450 C460 0.930 . S
H451 C463 0.929 . S
H452 C466 0.930 . S
H453 C468 0.960 . S
H454 C468 0.960 . S
H455 C468 0.960 . S
C456 H448 0.929 . S
C456 C457 1.377 . S
C456 C458 1.384 . S
C457 C456 1.377 . S
C457 C463 1.390 . S
C458 H449 0.930 . S
C458 C456 1.384 . S
C458 C459 1.372 . S
C459 C458 1.372 . S
C459 C460 1.400 . S
C459 C464 1.490 . S
C460 H450 0.930 . S
C460 C459 1.400 . S
C460 C463 1.386 . S
H461 C477 0.930 . S
H462 C478 0.931 . S
C463 H451 0.929 . S
C463 C457 1.390 . S
C463 C460 1.386 . S
C464 C459 1.490 . S
C464 C466 1.395 . S
C464 C467 1.403 . S
H465 C471 0.930 . S
C466 H452 0.930 . S
C466 C464 1.395 . S
C466 C469 1.403 . S
C467 C464 1.403 . S
C467 C468 1.524 . S
C467 C471 1.400 . S
C468 H453 0.960 . S
C468 H454 0.960 . S
C468 H455 0.960 . S
C468 C467 1.524 . S
C469 C466 1.403 . S
C469 C470 1.392 . S
C469 C473 1.495 . S
C470 C469 1.392 . S
C470 C471 1.385 . S
C470 C472 1.478 . S
C471 H465 0.930 . S
C471 C467 1.400 . S
C471 C470 1.385 . S
C472 C470 1.478 . S
C472 C474 1.381 . S
C472 C478 1.383 . S
C473 C469 1.495 . S
C473 H479 0.959 . S
C473 H480 0.961 . S
C473 H481 0.960 . S
C474 C472 1.381 . S
C474 C475 1.394 . S
C474 H482 0.930 . S
C475 C474 1.394 . S
C475 C476 1.383 . S
C475 H483 0.929 . S
C476 C475 1.383 . S
C476 C477 1.377 . S
C477 H461 0.930 . S
C477 C476 1.377 . S
C477 C478 1.379 . S
C478 H462 0.931 . S
C478 C472 1.383 . S
C478 C477 1.379 . S
H479 C473 0.959 . S
H480 C473 0.961 . S
H481 C473 0.960 . S
H482 C474 0.930 . S
H483 C475 0.929 . S
H484 C492 0.929 . S
H485 C494 0.930 . S
H486 C496 0.930 . S
H487 C499 0.929 . S
H488 C502 0.930 . S
H489 C504 0.960 . S
H490 C504 0.960 . S
H491 C504 0.960 . S
C492 H484 0.929 . S
C492 C493 1.377 . S
C492 C494 1.384 . S
C493 C492 1.377 . S
C493 C499 1.390 . S
C494 H485 0.930 . S
C494 C492 1.384 . S
C494 C495 1.372 . S
C495 C494 1.372 . S
C495 C496 1.400 . S
C495 C500 1.490 . S
C496 H486 0.930 . S
C496 C495 1.400 . S
C496 C499 1.386 . S
H497 C513 0.930 . S
H498 C514 0.931 . S
C499 H487 0.929 . S
C499 C493 1.390 . S
C499 C496 1.386 . S
C500 C495 1.490 . S
C500 C502 1.395 . S
C500 C503 1.403 . S
H501 C507 0.930 . S
C502 H488 0.930 . S
C502 C500 1.395 . S
C502 C505 1.403 . S
C503 C500 1.403 . S
C503 C504 1.524 . S
C503 C507 1.400 . S
C504 H489 0.960 . S
C504 H490 0.960 . S
C504 H491 0.960 . S
C504 C503 1.524 . S
C505 C502 1.403 . S
C505 C506 1.392 . S
C505 C509 1.495 . S
C506 C505 1.392 . S
C506 C507 1.385 . S
C506 C508 1.478 . S
C507 H501 0.930 . S
C507 C503 1.400 . S
C507 C506 1.385 . S
C508 C506 1.478 . S
C508 C510 1.381 . S
C508 C514 1.383 . S
C509 C505 1.495 . S
C509 H515 0.959 . S
C509 H516 0.961 . S
C509 H517 0.960 . S
C510 C508 1.381 . S
C510 C511 1.394 . S
C510 H518 0.930 . S
C511 C510 1.394 . S
C511 C512 1.383 . S
C511 H519 0.929 . S
C512 C511 1.383 . S
C512 C513 1.377 . S
C513 H497 0.930 . S
C513 C512 1.377 . S
C513 C514 1.379 . S
C514 H498 0.931 . S
C514 C508 1.383 . S
C514 C513 1.379 . S
H515 C509 0.959 . S
H516 C509 0.961 . S
H517 C509 0.960 . S
H518 C510 0.930 . S
H519 C511 0.929 . S
H520 C528 0.929 . S
H521 C530 0.930 . S
H522 C532 0.930 . S
H523 C535 0.929 . S
H524 C538 0.930 . S
H525 C540 0.960 . S
H526 C540 0.960 . S
H527 C540 0.960 . S
C528 H520 0.929 . S
C528 C529 1.377 . S
C528 C530 1.384 . S
C529 C528 1.377 . S
C529 C535 1.390 . S
C530 H521 0.930 . S
C530 C528 1.384 . S
C530 C531 1.372 . S
C531 C530 1.372 . S
C531 C532 1.400 . S
C531 C536 1.490 . S
C532 H522 0.930 . S
C532 C531 1.400 . S
C532 C535 1.386 . S
H533 C549 0.930 . S
H534 C550 0.931 . S
C535 H523 0.929 . S
C535 C529 1.390 . S
C535 C532 1.386 . S
C536 C531 1.490 . S
C536 C538 1.395 . S
C536 C539 1.403 . S
H537 C543 0.930 . S
C538 H524 0.930 . S
C538 C536 1.395 . S
C538 C541 1.403 . S
C539 C536 1.403 . S
C539 C540 1.524 . S
C539 C543 1.400 . S
C540 H525 0.960 . S
C540 H526 0.960 . S
C540 H527 0.960 . S
C540 C539 1.524 . S
C541 C538 1.403 . S
C541 C542 1.392 . S
C541 C545 1.495 . S
C542 C541 1.392 . S
C542 C543 1.385 . S
C542 C544 1.478 . S
C543 H537 0.930 . S
C543 C539 1.400 . S
C543 C542 1.385 . S
C544 C542 1.478 . S
C544 C546 1.381 . S
C544 C550 1.383 . S
C545 C541 1.495 . S
C545 H551 0.959 . S
C545 H552 0.961 . S
C545 H553 0.960 . S
C546 C544 1.381 . S
C546 C547 1.394 . S
C546 H554 0.930 . S
C547 C546 1.394 . S
C547 C548 1.383 . S
C547 H555 0.929 . S
C548 C547 1.383 . S
C548 C549 1.377 . S
C549 H533 0.930 . S
C549 C548 1.377 . S
C549 C550 1.379 . S
C550 H534 0.931 . S
C550 C544 1.383 . S
C550 C549 1.379 . S
H551 C545 0.959 . S
H552 C545 0.961 . S
H553 C545 0.960 . S
H554 C546 0.930 . S
H555 C547 0.929 . S
H556 C564 0.929 . S
H557 C566 0.930 . S
H558 C568 0.930 . S
H559 C571 0.929 . S
H560 C574 0.930 . S
H561 C576 0.960 . S
H562 C576 0.960 . S
H563 C576 0.960 . S
C564 H556 0.929 . S
C564 C565 1.377 . S
C564 C566 1.384 . S
C565 C564 1.377 . S
C565 C571 1.390 . S
C566 H557 0.930 . S
C566 C564 1.384 . S
C566 C567 1.372 . S
C567 C566 1.372 . S
C567 C568 1.400 . S
C567 C572 1.490 . S
C568 H558 0.930 . S
C568 C567 1.400 . S
C568 C571 1.386 . S
H569 C585 0.930 . S
H570 C586 0.931 . S
C571 H559 0.929 . S
C571 C565 1.390 . S
C571 C568 1.386 . S
C572 C567 1.490 . S
C572 C574 1.395 . S
C572 C575 1.403 . S
H573 C579 0.930 . S
C574 H560 0.930 . S
C574 C572 1.395 . S
C574 C577 1.403 . S
C575 C572 1.403 . S
C575 C576 1.524 . S
C575 C579 1.400 . S
C576 H561 0.960 . S
C576 H562 0.960 . S
C576 H563 0.960 . S
C576 C575 1.524 . S
C577 C574 1.403 . S
C577 C578 1.392 . S
C577 C581 1.495 . S
C578 C577 1.392 . S
C578 C579 1.385 . S
C578 C580 1.478 . S
C579 H573 0.930 . S
C579 C575 1.400 . S
C579 C578 1.385 . S
C580 C578 1.478 . S
C580 C582 1.381 . S
C580 C586 1.383 . S
C581 C577 1.495 . S
C581 H587 0.959 . S
C581 H588 0.961 . S
C581 H589 0.960 . S
C582 C580 1.381 . S
C582 C583 1.394 . S
C582 H590 0.930 . S
C583 C582 1.394 . S
C583 C584 1.383 . S
C583 H591 0.929 . S
C584 C583 1.383 . S
C584 C585 1.377 . S
C585 H569 0.930 . S
C585 C584 1.377 . S
C585 C586 1.379 . S
C586 H570 0.931 . S
C586 C580 1.383 . S
C586 C585 1.379 . S
H587 C581 0.959 . S
H588 C581 0.961 . S
H589 C581 0.960 . S
H590 C582 0.930 . S
H591 C583 0.929 . S
H592 C600 0.929 . S
H593 C602 0.930 . S
H594 C604 0.930 . S
H595 C607 0.929 . S
H596 C610 0.930 . S
H597 C612 0.960 . S
H598 C612 0.960 . S
H599 C612 0.960 . S
C600 H592 0.929 . S
C600 C601 1.377 . S
C600 C602 1.384 . S
C601 C600 1.377 . S
C601 C607 1.390 . S
C602 H593 0.930 . S
C602 C600 1.384 . S
C602 C603 1.372 . S
C603 C602 1.372 . S
C603 C604 1.400 . S
C603 C608 1.490 . S
C604 H594 0.930 . S
C604 C603 1.400 . S
C604 C607 1.386 . S
H605 C621 0.930 . S
H606 C622 0.931 . S
C607 H595 0.929 . S
C607 C601 1.390 . S
C607 C604 1.386 . S
C608 C603 1.490 . S
C608 C610 1.395 . S
C608 C611 1.403 . S
H609 C615 0.930 . S
C610 H596 0.930 . S
C610 C608 1.395 . S
C610 C613 1.403 . S
C611 C608 1.403 . S
C611 C612 1.524 . S
C611 C615 1.400 . S
C612 H597 0.960 . S
C612 H598 0.960 . S
C612 H599 0.960 . S
C612 C611 1.524 . S
C613 C610 1.403 . S
C613 C614 1.392 . S
C613 C617 1.495 . S
C614 C613 1.392 . S
C614 C615 1.385 . S
C614 C616 1.478 . S
C615 H609 0.930 . S
C615 C611 1.400 . S
C615 C614 1.385 . S
C616 C614 1.478 . S
C616 C618 1.381 . S
C616 C622 1.383 . S
C617 C613 1.495 . S
C617 H623 0.959 . S
C617 H624 0.961 . S
C617 H625 0.960 . S
C618 C616 1.381 . S
C618 C619 1.394 . S
C618 H626 0.930 . S
C619 C618 1.394 . S
C619 C620 1.383 . S
C619 H627 0.929 . S
C620 C619 1.383 . S
C620 C621 1.377 . S
C621 H605 0.930 . S
C621 C620 1.377 . S
C621 C622 1.379 . S
C622 H606 0.931 . S
C622 C616 1.383 . S
C622 C621 1.379 . S
H623 C617 0.959 . S
H624 C617 0.961 . S
H625 C617 0.960 . S
H626 C618 0.930 . S
H627 C619 0.929 . S
H628 C636 0.929 . S
H629 C638 0.930 . S
H630 C640 0.930 . S
H631 C643 0.929 . S
H632 C646 0.930 . S
H633 C648 0.960 . S
H634 C648 0.960 . S
H635 C648 0.960 . S
C636 H628 0.929 . S
C636 C637 1.377 . S
C636 C638 1.384 . S
C637 C636 1.377 . S
C637 C643 1.390 . S
C638 H629 0.930 . S
C638 C636 1.384 . S
C638 C639 1.372 . S
C639 C638 1.372 . S
C639 C640 1.400 . S
C639 C644 1.490 . S
C640 H630 0.930 . S
C640 C639 1.400 . S
C640 C643 1.386 . S
H641 C657 0.930 . S
H642 C658 0.931 . S
C643 H631 0.929 . S
C643 C637 1.390 . S
C643 C640 1.386 . S
C644 C639 1.490 . S
C644 C646 1.395 . S
C644 C647 1.403 . S
H645 C651 0.930 . S
C646 H632 0.930 . S
C646 C644 1.395 . S
C646 C649 1.403 . S
C647 C644 1.403 . S
C647 C648 1.524 . S
C647 C651 1.400 . S
C648 H633 0.960 . S
C648 H634 0.960 . S
C648 H635 0.960 . S
C648 C647 1.524 . S
C649 C646 1.403 . S
C649 C650 1.392 . S
C649 C653 1.495 . S
C650 C649 1.392 . S
C650 C651 1.385 . S
C650 C652 1.478 . S
C651 H645 0.930 . S
C651 C647 1.400 . S
C651 C650 1.385 . S
C652 C650 1.478 . S
C652 C654 1.381 . S
C652 C658 1.383 . S
C653 C649 1.495 . S
C653 H659 0.959 . S
C653 H660 0.961 . S
C653 H661 0.960 . S
C654 C652 1.381 . S
C654 C655 1.394 . S
C654 H662 0.930 . S
C655 C654 1.394 . S
C655 C656 1.383 . S
C655 H663 0.929 . S
C656 C655 1.383 . S
C656 C657 1.377 . S
C657 H641 0.930 . S
C657 C656 1.377 . S
C657 C658 1.379 . S
C658 H642 0.931 . S
C658 C652 1.383 . S
C658 C657 1.379 . S
H659 C653 0.959 . S
H660 C653 0.961 . S
H661 C653 0.960 . S
H662 C654 0.930 . S
H663 C655 0.929 . S
H664 C672 0.929 . S
H665 C674 0.930 . S
H666 C676 0.930 . S
H667 C679 0.929 . S
H668 C682 0.930 . S
H669 C684 0.960 . S
H670 C684 0.960 . S
H671 C684 0.960 . S
C672 H664 0.929 . S
C672 C673 1.377 . S
C672 C674 1.384 . S
C673 C672 1.377 . S
C673 C679 1.390 . S
C674 H665 0.930 . S
C674 C672 1.384 . S
C674 C675 1.372 . S
C675 C674 1.372 . S
C675 C676 1.400 . S
C675 C680 1.490 . S
C676 H666 0.930 . S
C676 C675 1.400 . S
C676 C679 1.386 . S
H677 C693 0.930 . S
H678 C694 0.931 . S
C679 H667 0.929 . S
C679 C673 1.390 . S
C679 C676 1.386 . S
C680 C675 1.490 . S
C680 C682 1.395 . S
C680 C683 1.403 . S
H681 C687 0.930 . S
C682 H668 0.930 . S
C682 C680 1.395 . S
C682 C685 1.403 . S
C683 C680 1.403 . S
C683 C684 1.524 . S
C683 C687 1.400 . S
C684 H669 0.960 . S
C684 H670 0.960 . S
C684 H671 0.960 . S
C684 C683 1.524 . S
C685 C682 1.403 . S
C685 C686 1.392 . S
C685 C689 1.495 . S
C686 C685 1.392 . S
C686 C687 1.385 . S
C686 C688 1.478 . S
C687 H681 0.930 . S
C687 C683 1.400 . S
C687 C686 1.385 . S
C688 C686 1.478 . S
C688 C690 1.381 . S
C688 C694 1.383 . S
C689 C685 1.495 . S
C689 H695 0.959 . S
C689 H696 0.961 . S
C689 H697 0.960 . S
C690 C688 1.381 . S
C690 C691 1.394 . S
C690 H698 0.930 . S
C691 C690 1.394 . S
C691 C692 1.383 . S
C691 H699 0.929 . S
C692 C691 1.383 . S
C692 C693 1.377 . S
C693 H677 0.930 . S
C693 C692 1.377 . S
C693 C694 1.379 . S
C694 H678 0.931 . S
C694 C688 1.383 . S
C694 C693 1.379 . S
H695 C689 0.959 . S
H696 C689 0.961 . S
H697 C689 0.960 . S
H698 C690 0.930 . S
H699 C691 0.929 . S
H700 C708 0.929 . S
H701 C710 0.930 . S
H702 C712 0.930 . S
H703 C715 0.929 . S
H704 C718 0.930 . S
H705 C720 0.960 . S
H706 C720 0.960 . S
H707 C720 0.960 . S
C708 H700 0.929 . S
C708 C709 1.377 . S
C708 C710 1.384 . S
C709 C708 1.377 . S
C709 C715 1.390 . S
C710 H701 0.930 . S
C710 C708 1.384 . S
C710 C711 1.372 . S
C711 C710 1.372 . S
C711 C712 1.400 . S
C711 C716 1.490 . S
C712 H702 0.930 . S
C712 C711 1.400 . S
C712 C715 1.386 . S
H713 C729 0.930 . S
H714 C730 0.931 . S
C715 H703 0.929 . S
C715 C709 1.390 . S
C715 C712 1.386 . S
C716 C711 1.490 . S
C716 C718 1.395 . S
C716 C719 1.403 . S
H717 C723 0.930 . S
C718 H704 0.930 . S
C718 C716 1.395 . S
C718 C721 1.403 . S
C719 C716 1.403 . S
C719 C720 1.524 . S
C719 C723 1.400 . S
C720 H705 0.960 . S
C720 H706 0.960 . S
C720 H707 0.960 . S
C720 C719 1.524 . S
C721 C718 1.403 . S
C721 C722 1.392 . S
C721 C725 1.495 . S
C722 C721 1.392 . S
C722 C723 1.385 . S
C722 C724 1.478 . S
C723 H717 0.930 . S
C723 C719 1.400 . S
C723 C722 1.385 . S
C724 C722 1.478 . S
C724 C726 1.381 . S
C724 C730 1.383 . S
C725 C721 1.495 . S
C725 H731 0.959 . S
C725 H732 0.961 . S
C725 H733 0.960 . S
C726 C724 1.381 . S
C726 C727 1.394 . S
C726 H734 0.930 . S
C727 C726 1.394 . S
C727 C728 1.383 . S
C727 H735 0.929 . S
C728 C727 1.383 . S
C728 C729 1.377 . S
C729 H713 0.930 . S
C729 C728 1.377 . S
C729 C730 1.379 . S
C730 H714 0.931 . S
C730 C724 1.383 . S
C730 C729 1.379 . S
H731 C725 0.959 . S
H732 C725 0.961 . S
H733 C725 0.960 . S
H734 C726 0.930 . S
H735 C727 0.929 . S
H736 C744 0.929 . S
H737 C746 0.930 . S
H738 C748 0.930 . S
H739 C751 0.929 . S
H740 C754 0.930 . S
H741 C756 0.960 . S
H742 C756 0.960 . S
H743 C756 0.960 . S
C744 H736 0.929 . S
C744 C745 1.377 . S
C744 C746 1.384 . S
C745 C744 1.377 . S
C745 C751 1.390 . S
C746 H737 0.930 . S
C746 C744 1.384 . S
C746 C747 1.372 . S
C747 C746 1.372 . S
C747 C748 1.400 . S
C747 C752 1.490 . S
C748 H738 0.930 . S
C748 C747 1.400 . S
C748 C751 1.386 . S
H749 C765 0.930 . S
H750 C766 0.931 . S
C751 H739 0.929 . S
C751 C745 1.390 . S
C751 C748 1.386 . S
C752 C747 1.490 . S
C752 C754 1.395 . S
C752 C755 1.403 . S
H753 C759 0.930 . S
C754 H740 0.930 . S
C754 C752 1.395 . S
C754 C757 1.403 . S
C755 C752 1.403 . S
C755 C756 1.524 . S
C755 C759 1.400 . S
C756 H741 0.960 . S
C756 H742 0.960 . S
C756 H743 0.960 . S
C756 C755 1.524 . S
C757 C754 1.403 . S
C757 C758 1.392 . S
C757 C761 1.495 . S
C758 C757 1.392 . S
C758 C759 1.385 . S
C758 C760 1.478 . S
C759 H753 0.930 . S
C759 C755 1.400 . S
C759 C758 1.385 . S
C760 C758 1.478 . S
C760 C762 1.381 . S
C760 C766 1.383 . S
C761 C757 1.495 . S
C761 H767 0.959 . S
C761 H768 0.961 . S
C761 H769 0.960 . S
C762 C760 1.381 . S
C762 C763 1.394 . S
C762 H770 0.930 . S
C763 C762 1.394 . S
C763 C764 1.383 . S
C763 H771 0.929 . S
C764 C763 1.383 . S
C764 C765 1.377 . S
C765 H749 0.930 . S
C765 C764 1.377 . S
C765 C766 1.379 . S
C766 H750 0.931 . S
C766 C760 1.383 . S
C766 C765 1.379 . S
H767 C761 0.959 . S
H768 C761 0.961 . S
H769 C761 0.960 . S
H770 C762 0.930 . S
H771 C763 0.929 . S
H772 C780 0.929 . S
H773 C782 0.930 . S
H774 C784 0.930 . S
H775 C787 0.929 . S
H776 C790 0.930 . S
H777 C792 0.960 . S
H778 C792 0.960 . S
H779 C792 0.960 . S
C780 H772 0.929 . S
C780 C781 1.377 . S
C780 C782 1.384 . S
C781 C780 1.377 . S
C781 C787 1.390 . S
C782 H773 0.930 . S
C782 C780 1.384 . S
C782 C783 1.372 . S
C783 C782 1.372 . S
C783 C784 1.400 . S
C783 C788 1.490 . S
C784 H774 0.930 . S
C784 C783 1.400 . S
C784 C787 1.386 . S
H785 C801 0.930 . S
H786 C802 0.931 . S
C787 H775 0.929 . S
C787 C781 1.390 . S
C787 C784 1.386 . S
C788 C783 1.490 . S
C788 C790 1.395 . S
C788 C791 1.403 . S
H789 C795 0.930 . S
C790 H776 0.930 . S
C790 C788 1.395 . S
C790 C793 1.403 . S
C791 C788 1.403 . S
C791 C792 1.524 . S
C791 C795 1.400 . S
C792 H777 0.960 . S
C792 H778 0.960 . S
C792 H779 0.960 . S
C792 C791 1.524 . S
C793 C790 1.403 . S
C793 C794 1.392 . S
C793 C797 1.495 . S
C794 C793 1.392 . S
C794 C795 1.385 . S
C794 C796 1.478 . S
C795 H789 0.930 . S
C795 C791 1.400 . S
C795 C794 1.385 . S
C796 C794 1.478 . S
C796 C798 1.381 . S
C796 C802 1.383 . S
C797 C793 1.495 . S
C797 H803 0.959 . S
C797 H804 0.961 . S
C797 H805 0.960 . S
C798 C796 1.381 . S
C798 C799 1.394 . S
C798 H806 0.930 . S
C799 C798 1.394 . S
C799 C800 1.383 . S
C799 H807 0.929 . S
C800 C799 1.383 . S
C800 C801 1.377 . S
C801 H785 0.930 . S
C801 C800 1.377 . S
C801 C802 1.379 . S
C802 H786 0.931 . S
C802 C796 1.383 . S
C802 C801 1.379 . S
H803 C797 0.959 . S
H804 C797 0.961 . S
H805 C797 0.960 . S
H806 C798 0.930 . S
H807 C799 0.929 . S
H808 C816 0.929 . S
H809 C818 0.930 . S
H810 C820 0.930 . S
H811 C823 0.929 . S
H812 C826 0.930 . S
H813 C828 0.960 . S
H814 C828 0.960 . S
H815 C828 0.960 . S
C816 H808 0.929 . S
C816 C817 1.377 . S
C816 C818 1.384 . S
C817 C816 1.377 . S
C817 C823 1.390 . S
C818 H809 0.930 . S
C818 C816 1.384 . S
C818 C819 1.372 . S
C819 C818 1.372 . S
C819 C820 1.400 . S
C819 C824 1.490 . S
C820 H810 0.930 . S
C820 C819 1.400 . S
C820 C823 1.386 . S
H821 C837 0.930 . S
H822 C838 0.931 . S
C823 H811 0.929 . S
C823 C817 1.390 . S
C823 C820 1.386 . S
C824 C819 1.490 . S
C824 C826 1.395 . S
C824 C827 1.403 . S
H825 C831 0.930 . S
C826 H812 0.930 . S
C826 C824 1.395 . S
C826 C829 1.403 . S
C827 C824 1.403 . S
C827 C828 1.524 . S
C827 C831 1.400 . S
C828 H813 0.960 . S
C828 H814 0.960 . S
C828 H815 0.960 . S
C828 C827 1.524 . S
C829 C826 1.403 . S
C829 C830 1.392 . S
C829 C833 1.495 . S
C830 C829 1.392 . S
C830 C831 1.385 . S
C830 C832 1.478 . S
C831 H825 0.930 . S
C831 C827 1.400 . S
C831 C830 1.385 . S
C832 C830 1.478 . S
C832 C834 1.381 . S
C832 C838 1.383 . S
C833 C829 1.495 . S
C833 H839 0.959 . S
C833 H840 0.961 . S
C833 H841 0.960 . S
C834 C832 1.381 . S
C834 C835 1.394 . S
C834 H842 0.930 . S
C835 C834 1.394 . S
C835 C836 1.383 . S
C835 H843 0.929 . S
C836 C835 1.383 . S
C836 C837 1.377 . S
C837 H821 0.930 . S
C837 C836 1.377 . S
C837 C838 1.379 . S
C838 H822 0.931 . S
C838 C832 1.383 . S
C838 C837 1.379 . S
H839 C833 0.959 . S
H840 C833 0.961 . S
H841 C833 0.960 . S
H842 C834 0.930 . S
H843 C835 0.929 . S
H844 C852 0.929 . S
H845 C854 0.930 . S
H846 C856 0.930 . S
H847 C859 0.929 . S
H848 C862 0.930 . S
H849 C864 0.960 . S
H850 C864 0.960 . S
H851 C864 0.960 . S
C852 H844 0.929 . S
C852 C853 1.377 . S
C852 C854 1.384 . S
C853 C852 1.377 . S
C853 C859 1.390 . S
C854 H845 0.930 . S
C854 C852 1.384 . S
C854 C855 1.372 . S
C855 C854 1.372 . S
C855 C856 1.400 . S
C855 C860 1.490 . S
C856 H846 0.930 . S
C856 C855 1.400 . S
C856 C859 1.386 . S
H857 C873 0.930 . S
H858 C874 0.931 . S
C859 H847 0.929 . S
C859 C853 1.390 . S
C859 C856 1.386 . S
C860 C855 1.490 . S
C860 C862 1.395 . S
C860 C863 1.403 . S
H861 C867 0.930 . S
C862 H848 0.930 . S
C862 C860 1.395 . S
C862 C865 1.403 . S
C863 C860 1.403 . S
C863 C864 1.524 . S
C863 C867 1.400 . S
C864 H849 0.960 . S
C864 H850 0.960 . S
C864 H851 0.960 . S
C864 C863 1.524 . S
C865 C862 1.403 . S
C865 C866 1.392 . S
C865 C869 1.495 . S
C866 C865 1.392 . S
C866 C867 1.385 . S
C866 C868 1.478 . S
C867 H861 0.930 . S
C867 C863 1.400 . S
C867 C866 1.385 . S
C868 C866 1.478 . S
C868 C870 1.381 . S
C868 C874 1.383 . S
C869 C865 1.495 . S
C869 H875 0.959 . S
C869 H876 0.961 . S
C869 H877 0.960 . S
C870 C868 1.381 . S
C870 C871 1.394 . S
C870 H878 0.930 . S
C871 C870 1.394 . S
C871 C872 1.383 . S
C871 H879 0.929 . S
C872 C871 1.383 . S
C872 C873 1.377 . S
C873 H857 0.930 . S
C873 C872 1.377 . S
C873 C874 1.379 . S
C874 H858 0.931 . S
C874 C868 1.383 . S
C874 C873 1.379 . S
H875 C869 0.959 . S
H876 C869 0.961 . S
H877 C869 0.960 . S
H878 C870 0.930 . S
H879 C871 0.929 . S
H880 C888 0.929 . S
H881 C890 0.930 . S
H882 C892 0.930 . S
H883 C895 0.929 . S
H884 C898 0.930 . S
H885 C900 0.960 . S
H886 C900 0.960 . S
H887 C900 0.960 . S
C888 H880 0.929 . S
C888 C889 1.377 . S
C888 C890 1.384 . S
C889 C888 1.377 . S
C889 C895 1.390 . S
C890 H881 0.930 . S
C890 C888 1.384 . S
C890 C891 1.372 . S
C891 C890 1.372 . S
C891 C892 1.400 . S
C891 C896 1.490 . S
C892 H882 0.930 . S
C892 C891 1.400 . S
C892 C895 1.386 . S
H893 C909 0.930 . S
H894 C910 0.931 . S
C895 H883 0.929 . S
C895 C889 1.390 . S
C895 C892 1.386 . S
C896 C891 1.490 . S
C896 C898 1.395 . S
C896 C899 1.403 . S
H897 C903 0.930 . S
C898 H884 0.930 . S
C898 C896 1.395 . S
C898 C901 1.403 . S
C899 C896 1.403 . S
C899 C900 1.524 . S
C899 C903 1.400 . S
C900 H885 0.960 . S
C900 H886 0.960 . S
C900 H887 0.960 . S
C900 C899 1.524 . S
C901 C898 1.403 . S
C901 C902 1.392 . S
C901 C905 1.495 . S
C902 C901 1.392 . S
C902 C903 1.385 . S
C902 C904 1.478 . S
C903 H897 0.930 . S
C903 C899 1.400 . S
C903 C902 1.385 . S
C904 C902 1.478 . S
C904 C906 1.381 . S
C904 C910 1.383 . S
C905 C901 1.495 . S
C905 H911 0.959 . S
C905 H912 0.961 . S
C905 H913 0.960 . S
C906 C904 1.381 . S
C906 C907 1.394 . S
C906 H914 0.930 . S
C907 C906 1.394 . S
C907 C908 1.383 . S
C907 H915 0.929 . S
C908 C907 1.383 . S
C908 C909 1.377 . S
C909 H893 0.930 . S
C909 C908 1.377 . S
C909 C910 1.379 . S
C910 H894 0.931 . S
C910 C904 1.383 . S
C910 C909 1.379 . S
H911 C905 0.959 . S
H912 C905 0.961 . S
H913 C905 0.960 . S
H914 C906 0.930 . S
H915 C907 0.929 . S
H916 C924 0.929 . S
H917 C926 0.930 . S
H918 C928 0.930 . S
H919 C931 0.929 . S
H920 C934 0.930 . S
H921 C936 0.960 . S
H922 C936 0.960 . S
H923 C936 0.960 . S
C924 H916 0.929 . S
C924 C925 1.377 . S
C924 C926 1.384 . S
C925 C924 1.377 . S
C925 C931 1.390 . S
C926 H917 0.930 . S
C926 C924 1.384 . S
C926 C927 1.372 . S
C927 C926 1.372 . S
C927 C928 1.400 . S
C927 C932 1.490 . S
C928 H918 0.930 . S
C928 C927 1.400 . S
C928 C931 1.386 . S
H929 C945 0.930 . S
H930 C946 0.931 . S
C931 H919 0.929 . S
C931 C925 1.390 . S
C931 C928 1.386 . S
C932 C927 1.490 . S
C932 C934 1.395 . S
C932 C935 1.403 . S
H933 C939 0.930 . S
C934 H920 0.930 . S
C934 C932 1.395 . S
C934 C937 1.403 . S
C935 C932 1.403 . S
C935 C936 1.524 . S
C935 C939 1.400 . S
C936 H921 0.960 . S
C936 H922 0.960 . S
C936 H923 0.960 . S
C936 C935 1.524 . S
C937 C934 1.403 . S
C937 C938 1.392 . S
C937 C941 1.495 . S
C938 C937 1.392 . S
C938 C939 1.385 . S
C938 C940 1.478 . S
C939 H933 0.930 . S
C939 C935 1.400 . S
C939 C938 1.385 . S
C940 C938 1.478 . S
C940 C942 1.381 . S
C940 C946 1.383 . S
C941 C937 1.495 . S
C941 H947 0.959 . S
C941 H948 0.961 . S
C941 H949 0.960 . S
C942 C940 1.381 . S
C942 C943 1.394 . S
C942 H950 0.930 . S
C943 C942 1.394 . S
C943 C944 1.383 . S
C943 H951 0.929 . S
C944 C943 1.383 . S
C944 C945 1.377 . S
C945 H929 0.930 . S
C945 C944 1.377 . S
C945 C946 1.379 . S
C946 H930 0.931 . S
C946 C940 1.383 . S
C946 C945 1.379 . S
H947 C941 0.959 . S
H948 C941 0.961 . S
H949 C941 0.960 . S
H950 C942 0.930 . S
H951 C943 0.929 . S
H952 C960 0.929 . S
H953 C962 0.930 . S
H954 C964 0.930 . S
H955 C967 0.929 . S
H956 C970 0.930 . S
H957 C972 0.960 . S
H958 C972 0.960 . S
H959 C972 0.960 . S
C960 H952 0.929 . S
C960 C961 1.379 . S
C960 C962 1.384 . S
C961 C960 1.379 . S
C961 C967 1.388 1_556 S
C962 H953 0.930 . S
C962 C960 1.384 . S
C962 C963 1.372 . S
C963 C962 1.372 . S
C963 C964 1.400 1_556 S
C963 C968 1.490 . S
C964 H954 0.930 . S
C964 C963 1.400 1_554 S
C964 C967 1.386 . S
H965 C981 0.930 . S
H966 C982 0.931 . S
C967 H955 0.929 . S
C967 C961 1.388 1_554 S
C967 C964 1.386 . S
C968 C963 1.490 . S
C968 C970 1.388 1_556 S
C968 C971 1.409 . S
H969 C975 0.930 . S
C970 H956 0.930 . S
C970 C968 1.388 1_554 S
C970 C973 1.403 . S
C971 C968 1.409 . S
C971 C972 1.524 . S
C971 C975 1.400 . S
C972 H957 0.960 . S
C972 H958 0.960 . S
C972 H959 0.960 . S
C972 C971 1.524 . S
C973 C970 1.403 . S
C973 C974 1.392 . S
C973 C977 1.495 . S
C974 C973 1.392 . S
C974 C975 1.385 1_554 S
C974 C976 1.478 . S
C975 H969 0.930 . S
C975 C971 1.400 . S
C975 C974 1.385 1_556 S
C976 C974 1.478 . S
C976 C978 1.381 1_554 S
C976 C982 1.383 . S
C977 C973 1.495 . S
C977 H983 0.959 . S
C977 H984 0.961 . S
C977 H985 0.960 . S
C978 C976 1.381 1_556 S
C978 C979 1.394 . S
C978 H986 0.930 . S
C979 C978 1.394 . S
C979 C980 1.383 1_556 S
C979 H987 0.929 . S
C980 C979 1.383 1_554 S
C980 C981 1.377 . S
C981 H965 0.930 . S
C981 C980 1.377 . S
C981 C982 1.379 . S
C982 H966 0.931 . S
C982 C976 1.383 . S
C982 C981 1.379 . S
H983 C977 0.959 . S
H984 C977 0.961 . S
H985 C977 0.960 . S
H986 C978 0.930 . S
H987 C979 0.929 . S
H988 C996 0.929 . S
H989 C998 0.930 . S
H990 C1000 0.930 . S
H991 C1003 0.929 . S
H992 C1006 0.930 . S
H993 C1008 0.960 . S
H994 C1008 0.960 . S
H995 C1008 0.960 . S
C996 H988 0.929 . S
C996 C997 1.377 . S
C996 C998 1.384 . S
C997 C996 1.377 . S
C997 C1003 1.390 . S
C998 H989 0.930 . S
C998 C996 1.384 . S
C998 C999 1.372 . S
C999 C998 1.372 . S
C999 C1000 1.400 . S
C999 C1004 1.490 . S
C1000 H990 0.930 . S
C1000 C999 1.400 . S
C1000 C1003 1.386 . S
H1001 C1017 0.930 . S
H1002 C1018 0.931 . S
C1003 H991 0.929 . S
C1003 C997 1.390 . S
C1003 C1000 1.386 . S
C1004 C999 1.490 . S
C1004 C1006 1.395 . S
C1004 C1007 1.403 . S
H1005 C1011 0.930 . S
C1006 H992 0.930 . S
C1006 C1004 1.395 . S
C1006 C1009 1.403 . S
C1007 C1004 1.403 . S
C1007 C1008 1.524 . S
C1007 C1011 1.400 . S
C1008 H993 0.960 . S
C1008 H994 0.960 . S
C1008 H995 0.960 . S
C1008 C1007 1.524 . S
C1009 C1006 1.403 . S
C1009 C1010 1.392 . S
C1009 C1013 1.495 . S
C1010 C1009 1.392 . S
C1010 C1011 1.385 . S
C1010 C1012 1.478 . S
C1011 H1005 0.930 . S
C1011 C1007 1.400 . S
C1011 C1010 1.385 . S
C1012 C1010 1.478 . S
C1012 C1014 1.381 . S
C1012 C1018 1.383 . S
C1013 C1009 1.495 . S
C1013 H1019 0.959 . S
C1013 H1020 0.961 . S
C1013 H1021 0.960 . S
C1014 C1012 1.381 . S
C1014 C1015 1.394 . S
C1014 H1022 0.930 . S
C1015 C1014 1.394 . S
C1015 C1016 1.383 . S
C1015 H1023 0.929 . S
C1016 C1015 1.383 . S
C1016 C1017 1.377 . S
C1017 H1001 0.930 . S
C1017 C1016 1.377 . S
C1017 C1018 1.379 . S
C1018 H1002 0.931 . S
C1018 C1012 1.383 . S
C1018 C1017 1.379 . S
H1019 C1013 0.959 . S
H1020 C1013 0.961 . S
H1021 C1013 0.960 . S
H1022 C1014 0.930 . S
H1023 C1015 0.929 . S
H1024 C1032 0.929 . S
H1025 C1034 0.930 . S
H1026 C1036 0.930 . S
H1027 C1039 0.929 . S
H1028 C1042 0.930 . S
H1029 C1044 0.960 . S
H1030 C1044 0.960 . S
H1031 C1044 0.960 . S
C1032 H1024 0.929 . S
C1032 C1033 1.379 . S
C1032 C1034 1.384 . S
C1033 C1032 1.379 . S
C1033 C1039 1.388 1_554 S
C1034 H1025 0.930 . S
C1034 C1032 1.384 . S
C1034 C1035 1.378 . S
C1035 C1034 1.378 . S
C1035 C1036 1.394 1_554 S
C1035 C1040 1.491 . S
C1036 H1026 0.930 . S
C1036 C1035 1.394 1_556 S
C1036 C1039 1.386 . S
H1037 C1053 0.929 . S
H1038 C1054 0.931 . S
C1039 H1027 0.929 . S
C1039 C1033 1.388 1_556 S
C1039 C1036 1.386 . S
C1040 C1035 1.491 . S
C1040 C1042 1.395 . S
C1040 C1043 1.403 1_554 S
H1041 C1047 0.930 . S
C1042 H1028 0.930 . S
C1042 C1040 1.395 . S
C1042 C1045 1.403 . S
C1043 C1040 1.403 1_556 S
C1043 C1044 1.524 . S
C1043 C1047 1.400 . S
C1044 H1029 0.960 . S
C1044 H1030 0.960 . S
C1044 H1031 0.960 . S
C1044 C1043 1.524 . S
C1045 C1042 1.403 . S
C1045 C1046 1.392 . S
C1045 C1049 1.495 . S
C1046 C1045 1.392 . S
C1046 C1047 1.385 1_554 S
C1046 C1048 1.478 . S
C1047 H1041 0.930 . S
C1047 C1043 1.400 . S
C1047 C1046 1.385 1_556 S
C1048 C1046 1.478 . S
C1048 C1050 1.381 . S
C1048 C1054 1.383 . S
C1049 C1045 1.495 . S
C1049 H1055 0.959 . S
C1049 H1056 0.961 . S
C1049 H1057 0.960 . S
C1050 C1048 1.381 . S
C1050 C1051 1.394 . S
C1050 H1058 0.930 . S
C1051 C1050 1.394 . S
C1051 C1052 1.383 . S
C1051 H1059 0.929 . S
C1052 C1051 1.383 . S
C1052 C1053 1.377 1_554 S
C1053 H1037 0.929 . S
C1053 C1052 1.377 1_556 S
C1053 C1054 1.380 1_556 S
C1054 H1038 0.931 . S
C1054 C1048 1.383 . S
C1054 C1053 1.380 1_554 S
H1055 C1049 0.959 . S
H1056 C1049 0.961 . S
H1057 C1049 0.960 . S
H1058 C1050 0.930 . S
H1059 C1051 0.929 . S
H1060 C1068 0.929 . S
H1061 C1070 0.930 . S
H1062 C1072 0.930 . S
H1063 C1075 0.929 . S
H1064 C1078 0.930 . S
H1065 C1080 0.960 . S
H1066 C1080 0.960 . S
H1067 C1080 0.960 . S
C1068 H1060 0.929 . S
C1068 C1069 1.377 . S
C1068 C1070 1.384 . S
C1069 C1068 1.377 . S
C1069 C1075 1.390 . S
C1070 H1061 0.930 . S
C1070 C1068 1.384 . S
C1070 C1071 1.372 . S
C1071 C1070 1.372 . S
C1071 C1072 1.400 . S
C1071 C1076 1.490 . S
C1072 H1062 0.930 . S
C1072 C1071 1.400 . S
C1072 C1075 1.386 . S
H1073 C1089 0.930 . S
H1074 C1090 0.931 . S
C1075 H1063 0.929 . S
C1075 C1069 1.390 . S
C1075 C1072 1.386 . S
C1076 C1071 1.490 . S
C1076 C1078 1.395 . S
C1076 C1079 1.403 . S
H1077 C1083 0.930 . S
C1078 H1064 0.930 . S
C1078 C1076 1.395 . S
C1078 C1081 1.403 . S
C1079 C1076 1.403 . S
C1079 C1080 1.524 . S
C1079 C1083 1.400 . S
C1080 H1065 0.960 . S
C1080 H1066 0.960 . S
C1080 H1067 0.960 . S
C1080 C1079 1.524 . S
C1081 C1078 1.403 . S
C1081 C1082 1.392 . S
C1081 C1085 1.495 . S
C1082 C1081 1.392 . S
C1082 C1083 1.385 . S
C1082 C1084 1.478 . S
C1083 H1077 0.930 . S
C1083 C1079 1.400 . S
C1083 C1082 1.385 . S
C1084 C1082 1.478 . S
C1084 C1086 1.381 . S
C1084 C1090 1.383 . S
C1085 C1081 1.495 . S
C1085 H1091 0.959 . S
C1085 H1092 0.961 . S
C1085 H1093 0.960 . S
C1086 C1084 1.381 . S
C1086 C1087 1.394 . S
C1086 H1094 0.930 . S
C1087 C1086 1.394 . S
C1087 C1088 1.383 . S
C1087 H1095 0.929 . S
C1088 C1087 1.383 . S
C1088 C1089 1.377 . S
C1089 H1073 0.930 . S
C1089 C1088 1.377 . S
C1089 C1090 1.379 . S
C1090 H1074 0.931 . S
C1090 C1084 1.383 . S
C1090 C1089 1.379 . S
H1091 C1085 0.959 . S
H1092 C1085 0.961 . S
H1093 C1085 0.960 . S
H1094 C1086 0.930 . S
H1095 C1087 0.929 . S
H1096 C1104 0.929 . S
H1097 C1106 0.930 . S
H1098 C1108 0.930 . S
H1099 C1111 0.929 . S
H1100 C1114 0.930 . S
H1101 C1116 0.960 . S
H1102 C1116 0.960 . S
H1103 C1116 0.960 . S
C1104 H1096 0.929 . S
C1104 C1105 1.377 . S
C1104 C1106 1.384 . S
C1105 C1104 1.377 . S
C1105 C1111 1.390 . S
C1106 H1097 0.930 . S
C1106 C1104 1.384 . S
C1106 C1107 1.372 . S
C1107 C1106 1.372 . S
C1107 C1108 1.400 . S
C1107 C1112 1.490 . S
C1108 H1098 0.930 . S
C1108 C1107 1.400 . S
C1108 C1111 1.386 . S
H1109 C1125 0.930 . S
H1110 C1126 0.931 . S
C1111 H1099 0.929 . S
C1111 C1105 1.390 . S
C1111 C1108 1.386 . S
C1112 C1107 1.490 . S
C1112 C1114 1.395 . S
C1112 C1115 1.403 . S
H1113 C1119 0.930 . S
C1114 H1100 0.930 . S
C1114 C1112 1.395 . S
C1114 C1117 1.403 . S
C1115 C1112 1.403 . S
C1115 C1116 1.524 . S
C1115 C1119 1.400 . S
C1116 H1101 0.960 . S
C1116 H1102 0.960 . S
C1116 H1103 0.960 . S
C1116 C1115 1.524 . S
C1117 C1114 1.403 . S
C1117 C1118 1.392 . S
C1117 C1121 1.495 . S
C1118 C1117 1.392 . S
C1118 C1119 1.385 . S
C1118 C1120 1.478 . S
C1119 H1113 0.930 . S
C1119 C1115 1.400 . S
C1119 C1118 1.385 . S
C1120 C1118 1.478 . S
C1120 C1122 1.381 . S
C1120 C1126 1.383 . S
C1121 C1117 1.495 . S
C1121 H1127 0.959 . S
C1121 H1128 0.961 . S
C1121 H1129 0.960 . S
C1122 C1120 1.381 . S
C1122 C1123 1.394 . S
C1122 H1130 0.930 . S
C1123 C1122 1.394 . S
C1123 C1124 1.383 . S
C1123 H1131 0.929 . S
C1124 C1123 1.383 . S
C1124 C1125 1.377 . S
C1125 H1109 0.930 . S
C1125 C1124 1.377 . S
C1125 C1126 1.379 . S
C1126 H1110 0.931 . S
C1126 C1120 1.383 . S
C1126 C1125 1.379 . S
H1127 C1121 0.959 . S
H1128 C1121 0.961 . S
H1129 C1121 0.960 . S
H1130 C1122 0.930 . S
H1131 C1123 0.929 . S
H1132 C1140 0.929 . S
H1133 C1142 0.930 . S
H1134 C1144 0.930 . S
H1135 C1147 0.929 . S
H1136 C1150 0.930 . S
H1137 C1152 0.960 . S
H1138 C1152 0.960 . S
H1139 C1152 0.959 . S
C1140 H1132 0.929 . S
C1140 C1141 1.377 . S
C1140 C1142 1.384 . S
C1141 C1140 1.377 . S
C1141 C1147 1.390 1_554 S
C1142 H1133 0.930 . S
C1142 C1140 1.384 . S
C1142 C1143 1.372 . S
C1143 C1142 1.372 . S
C1143 C1144 1.400 1_554 S
C1143 C1148 1.490 . S
C1144 H1134 0.930 . S
C1144 C1143 1.400 1_556 S
C1144 C1147 1.386 . S
H1145 C1161 0.930 . S
H1146 C1162 0.931 . S
C1147 H1135 0.929 . S
C1147 C1141 1.390 1_556 S
C1147 C1144 1.386 . S
C1148 C1143 1.490 . S
C1148 C1150 1.395 1_554 S
C1148 C1151 1.403 . S
H1149 C1155 0.930 . S
C1150 H1136 0.930 . S
C1150 C1148 1.395 1_556 S
C1150 C1153 1.403 . S
C1151 C1148 1.403 . S
C1151 C1152 1.524 . S
C1151 C1155 1.400 . S
C1152 H1137 0.960 . S
C1152 H1138 0.960 . S
C1152 H1139 0.959 . S
C1152 C1151 1.524 . S
C1153 C1150 1.403 . S
C1153 C1154 1.392 1_556 S
C1153 C1157 1.495 . S
C1154 C1153 1.392 1_554 S
C1154 C1155 1.386 . S
C1154 C1156 1.477 1_554 S
C1155 H1149 0.930 . S
C1155 C1151 1.400 . S
C1155 C1154 1.386 . S
C1156 C1154 1.477 1_556 S
C1156 C1158 1.363 1_556 S
C1156 C1162 1.400 . S
C1157 C1153 1.495 . S
C1157 H1163 0.959 . S
C1157 H1164 0.961 . S
C1157 H1165 0.960 1_556 S
C1158 C1156 1.363 1_554 S
C1158 C1159 1.394 . S
C1158 H1166 0.930 . S
C1159 C1158 1.394 . S
C1159 C1160 1.383 1_554 S
C1159 H1167 0.929 . S
C1160 C1159 1.383 1_556 S
C1160 C1161 1.377 . S
C1161 H1145 0.930 . S
C1161 C1160 1.377 . S
C1161 C1162 1.379 . S
C1162 H1146 0.931 . S
C1162 C1156 1.400 . S
C1162 C1161 1.379 . S
H1163 C1157 0.959 . S
H1164 C1157 0.961 . S
H1165 C1157 0.960 1_554 S
H1166 C1158 0.930 . S
H1167 C1159 0.929 . S
H1168 C1176 0.929 . S
H1169 C1178 0.930 . S
H1170 C1180 0.930 . S
H1171 C1183 0.929 . S
H1172 C1186 0.930 . S
H1173 C1188 0.960 . S
H1174 C1188 0.960 . S
H1175 C1188 0.960 . S
C1176 H1168 0.929 . S
C1176 C1177 1.377 . S
C1176 C1178 1.384 . S
C1177 C1176 1.377 . S
C1177 C1183 1.390 . S
C1178 H1169 0.930 . S
C1178 C1176 1.384 . S
C1178 C1179 1.372 . S
C1179 C1178 1.372 . S
C1179 C1180 1.400 . S
C1179 C1184 1.490 . S
C1180 H1170 0.930 . S
C1180 C1179 1.400 . S
C1180 C1183 1.386 . S
H1181 C1197 0.930 . S
H1182 C1198 0.931 . S
C1183 H1171 0.929 . S
C1183 C1177 1.390 . S
C1183 C1180 1.386 . S
C1184 C1179 1.490 . S
C1184 C1186 1.395 . S
C1184 C1187 1.403 . S
H1185 C1191 0.930 . S
C1186 H1172 0.930 . S
C1186 C1184 1.395 . S
C1186 C1189 1.403 . S
C1187 C1184 1.403 . S
C1187 C1188 1.524 . S
C1187 C1191 1.400 . S
C1188 H1173 0.960 . S
C1188 H1174 0.960 . S
C1188 H1175 0.960 . S
C1188 C1187 1.524 . S
C1189 C1186 1.403 . S
C1189 C1190 1.392 . S
C1189 C1193 1.495 . S
C1190 C1189 1.392 . S
C1190 C1191 1.385 . S
C1190 C1192 1.478 . S
C1191 H1185 0.930 . S
C1191 C1187 1.400 . S
C1191 C1190 1.385 . S
C1192 C1190 1.478 . S
C1192 C1194 1.381 . S
C1192 C1198 1.383 . S
C1193 C1189 1.495 . S
C1193 H1199 0.959 . S
C1193 H1200 0.961 . S
C1193 H1201 0.960 . S
C1194 C1192 1.381 . S
C1194 C1195 1.394 . S
C1194 H1202 0.930 . S
C1195 C1194 1.394 . S
C1195 C1196 1.383 . S
C1195 H1203 0.929 . S
C1196 C1195 1.383 . S
C1196 C1197 1.377 . S
C1197 H1181 0.930 . S
C1197 C1196 1.377 . S
C1197 C1198 1.379 . S
C1198 H1182 0.931 . S
C1198 C1192 1.383 . S
C1198 C1197 1.379 . S
H1199 C1193 0.959 . S
H1200 C1193 0.961 . S
H1201 C1193 0.960 . S
H1202 C1194 0.930 . S
H1203 C1195 0.929 . S
H1204 C1212 0.929 . S
H1205 C1214 0.930 . S
H1206 C1216 0.930 . S
H1207 C1219 0.929 . S
H1208 C1222 0.930 . S
H1209 C1224 0.960 . S
H1210 C1224 0.968 . S
H1211 C1224 0.960 . S
C1212 H1204 0.929 . S
C1212 C1213 1.376 . S
C1212 C1214 1.384 . S
C1213 C1212 1.376 . S
C1213 C1219 1.392 1_556 S
C1214 H1205 0.930 . S
C1214 C1212 1.384 . S
C1214 C1215 1.372 . S
C1215 C1214 1.372 . S
C1215 C1216 1.400 1_556 S
C1215 C1220 1.490 . S
C1216 H1206 0.930 . S
C1216 C1215 1.400 1_554 S
C1216 C1219 1.386 . S
H1217 C1233 0.930 . S
H1218 C1234 0.931 . S
C1219 H1207 0.929 . S
C1219 C1213 1.392 1_554 S
C1219 C1216 1.386 . S
C1220 C1215 1.490 . S
C1220 C1222 1.395 . S
C1220 C1223 1.403 1_556 S
H1221 C1227 0.930 . S
C1222 H1208 0.930 . S
C1222 C1220 1.395 . S
C1222 C1225 1.403 . S
C1223 C1220 1.403 1_554 S
C1223 C1224 1.524 . S
C1223 C1227 1.400 . S
C1224 H1209 0.960 . S
C1224 H1210 0.968 . S
C1224 H1211 0.960 . S
C1224 C1223 1.524 . S
C1225 C1222 1.403 . S
C1225 C1226 1.392 . S
C1225 C1229 1.495 . S
C1226 C1225 1.392 . S
C1226 C1227 1.385 1_556 S
C1226 C1228 1.478 . S
C1227 H1221 0.930 . S
C1227 C1223 1.400 . S
C1227 C1226 1.385 1_554 S
C1228 C1226 1.478 . S
C1228 C1230 1.381 . S
C1228 C1234 1.383 1_556 S
C1229 C1225 1.495 . S
C1229 H1235 0.959 . S
C1229 H1236 0.961 . S
C1229 H1237 0.960 . S
C1230 C1228 1.381 . S
C1230 C1231 1.394 . S
C1230 H1238 0.930 . S
C1231 C1230 1.394 . S
C1231 C1232 1.394 . S
C1231 H1239 0.929 . S
C1232 C1231 1.394 . S
C1232 C1233 1.367 1_556 S
C1233 H1217 0.930 . S
C1233 C1232 1.367 1_554 S
C1233 C1234 1.379 . S
C1234 H1218 0.931 . S
C1234 C1228 1.383 1_554 S
C1234 C1233 1.379 . S
H1235 C1229 0.959 . S
H1236 C1229 0.961 . S
H1237 C1229 0.960 . S
H1238 C1230 0.930 . S
H1239 C1231 0.929 . S
C385 C5 1.427 . S
C404 C197 1.438 . S
C421 C31 1.437 . S
C440 C119 1.410 . S
C476 C155 1.394 . S
C457 C53 1.435 . S
C493 C71 1.431 . S
C512 C161 1.431 . S
C548 C299 1.429 . S
C529 C75 1.430 . S
C584 C305 1.448 . S
C565 C9 1.431 . S
C620 C341 1.444 . S
C601 C27 1.431 . S
C656 C263 1.438 . S
C637 C49 1.430 . S
C673 C51 1.433 . S
C692 C125 1.431 . S
C709 C72 1.430 . S
C728 C191 1.443 . S
C745 C6 1.435 . S
C764 C227 1.420 . S
C800 C89 1.443 . S
C781 C29 1.428 . S
C817 C28 1.430 . S
C836 C371 1.451 . S
C872 C233 1.432 . S
C853 C50 1.426 . S
C908 C269 1.426 . S
C889 C73 1.425 . S
C925 C7 1.436 . S
C944 C335 1.427 . S
C980 C113 1.485 1_554 S
C961 C4 1.483 1_556 S
C1016 C149 1.453 . S
C997 C30 1.484 . S
C1033 C52 1.484 . S
C1052 C185 1.485 . S
C1069 C70 1.481 . S
C1088 C221 1.491 . S
C1124 C257 1.453 . S
C1105 C74 1.484 . S
C1141 C8 1.483 . S
C1160 C293 1.486 1_556 S
C1177 C26 1.485 . S
C1196 C329 1.485 . S
C1213 C48 1.484 1_556 S
C1232 C365 1.486 . S
