# Generated by pormake.
# Topology zzz, (3,6)-cn, num edge types: 1
# Building blocks:
#     Node 0, Type 0, BuildingBlock: BELTOD_clean_linker_0, # of connection points: 3
#     Node 1, Type 0, BuildingBlock: BELTOD_clean_linker_0, # of connection points: 3
#     Node 2, Type 0, BuildingBlock: BELTOD_clean_linker_0, # of connection points: 3
#     Node 3, Type 0, BuildingBlock: BELTOD_clean_linker_0, # of connection points: 3
#     Node 4, Type 0, BuildingBlock: BELTOD_clean_linker_0, # of connection points: 3
#     Node 5, Type 0, BuildingBlock: BELTOD_clean_linker_0, # of connection points: 3
#     Node 6, Type 0, BuildingBlock: BELTOD_clean_linker_0, # of connection points: 3
#     Node 7, Type 0, BuildingBlock: BELTOD_clean_linker_0, # of connection points: 3
#     Node 8, Type 1, BuildingBlock: CUWYAW_clean_sbu_0, # of connection points: 6
#     Node 9, Type 1, BuildingBlock: CUWYAW_clean_sbu_0, # of connection points: 6
#     Node 10, Type 1, BuildingBlock: CUWYAW_clean_sbu_0, # of connection points: 6
#     Node 11, Type 1, BuildingBlock: CUWYAW_clean_sbu_0, # of connection points: 6
#     Edge 12, Type (0, 1), BuildingBlock: ZUJKAS_clean_linker_0, # of connection points: 2
#     Edge 13, Type (0, 1), BuildingBlock: ZUJKAS_clean_linker_0, # of connection points: 2
#     Edge 14, Type (0, 1), BuildingBlock: ZUJKAS_clean_linker_0, # of connection points: 2
#     Edge 15, Type (0, 1), BuildingBlock: ZUJKAS_clean_linker_0, # of connection points: 2
#     Edge 16, Type (0, 1), BuildingBlock: ZUJKAS_clean_linker_0, # of connection points: 2
#     Edge 17, Type (0, 1), BuildingBlock: ZUJKAS_clean_linker_0, # of connection points: 2
#     Edge 18, Type (0, 1), BuildingBlock: ZUJKAS_clean_linker_0, # of connection points: 2
#     Edge 19, Type (0, 1), BuildingBlock: ZUJKAS_clean_linker_0, # of connection points: 2
#     Edge 20, Type (0, 1), BuildingBlock: ZUJKAS_clean_linker_0, # of connection points: 2
#     Edge 21, Type (0, 1), BuildingBlock: ZUJKAS_clean_linker_0, # of connection points: 2
#     Edge 22, Type (0, 1), BuildingBlock: ZUJKAS_clean_linker_0, # of connection points: 2
#     Edge 23, Type (0, 1), BuildingBlock: ZUJKAS_clean_linker_0, # of connection points: 2
#     Edge 24, Type (0, 1), BuildingBlock: ZUJKAS_clean_linker_0, # of connection points: 2
#     Edge 25, Type (0, 1), BuildingBlock: ZUJKAS_clean_linker_0, # of connection points: 2
#     Edge 26, Type (0, 1), BuildingBlock: ZUJKAS_clean_linker_0, # of connection points: 2
#     Edge 27, Type (0, 1), BuildingBlock: ZUJKAS_clean_linker_0, # of connection points: 2
#     Edge 28, Type (0, 1), BuildingBlock: ZUJKAS_clean_linker_0, # of connection points: 2
#     Edge 29, Type (0, 1), BuildingBlock: ZUJKAS_clean_linker_0, # of connection points: 2
#     Edge 30, Type (0, 1), BuildingBlock: ZUJKAS_clean_linker_0, # of connection points: 2
#     Edge 31, Type (0, 1), BuildingBlock: ZUJKAS_clean_linker_0, # of connection points: 2
#     Edge 32, Type (0, 1), BuildingBlock: ZUJKAS_clean_linker_0, # of connection points: 2
#     Edge 33, Type (0, 1), BuildingBlock: ZUJKAS_clean_linker_0, # of connection points: 2
#     Edge 34, Type (0, 1), BuildingBlock: ZUJKAS_clean_linker_0, # of connection points: 2
#     Edge 35, Type (0, 1), BuildingBlock: ZUJKAS_clean_linker_0, # of connection points: 2
# Relax obj value: 0.377
# Max RMSD: 0.239
# Mean RMSD: 0.220
data_MOF--net-zzz--node1-CUWYAW_clean_sbu_0--node2-BELTOD_clean_linker_0--edge1-ZUJKAS_clean_linker_0
_symmetry_space_group_name_H-M    P1
_symmetry_Int_Tables_number       1
_symmetry_cell_setting            triclinic
loop_
_symmetry_equiv_pos_as_xyz
'x, y, z'
_cell_length_a     70.115378
_cell_length_b     70.052481
_cell_length_c     22.407879
_cell_angle_alpha  89.963816
_cell_angle_beta   89.988196
_cell_angle_gamma 89.985328
loop_
_atom_site_label
_atom_site_type_symbol
_atom_site_fract_x
_atom_site_fract_y
_atom_site_fract_z
_atom_type_partial_charge
P0 P 0.72489 0.47811 0.32054 0.0
H1 H 0.7378 0.47427 0.4437 0.0
H2 H 0.76737 0.48406 0.49202 0.0
H3 H 0.78089 0.51981 0.34115 0.0
H4 H 0.75137 0.50961 0.29186 0.0
H5 H 0.68351 0.48242 0.33057 0.0
H6 H 0.65961 0.4942 0.261 0.0
H7 H 0.70426 0.51615 0.1472 0.0
H8 H 0.72822 0.50395 0.21683 0.0
H9 H 0.76048 0.45723 0.33681 0.0
H10 H 0.71932 0.46505 0.19561 0.0
O11 O 0.71295 0.46347 0.36597 0.0
H12 H 0.78184 0.44128 0.2676 0.0
H13 H 0.74085 0.44914 0.12575 0.0
C14 C 0.74211 0.49135 0.36422 0.0
C15 C 0.74666 0.48478 0.42169 0.0
C16 C 0.7637 0.49023 0.44919 0.0
C17 C 0.77646 0.50256 0.4201 0.0
C18 C 0.77122 0.51038 0.36468 0.0
C19 C 0.75425 0.50466 0.33667 0.0
C20 C 0.70774 0.49215 0.27893 0.0
C21 C 0.68823 0.49021 0.29156 0.0
C22 C 0.6745 0.49703 0.2516 0.0
C23 C 0.67998 0.5059 0.19795 0.0
C24 C 0.69954 0.50912 0.18765 0.0
C25 C 0.71328 0.50239 0.22796 0.0
C26 C 0.73872 0.46331 0.27084 0.0
C27 C 0.75594 0.45546 0.291 0.0
C28 C 0.76809 0.44609 0.25143 0.0
C29 C 0.76314 0.44422 0.19096 0.0
C30 C 0.74518 0.45073 0.17188 0.0
C31 C 0.73294 0.45999 0.21177 0.0
P32 P 0.02877 0.72499 0.32482 0.0
H33 H 0.0276 0.73797 0.44867 0.0
H34 H 0.01644 0.7676 0.49243 0.0
H35 H 0.98739 0.78149 0.32791 0.0
H36 H 0.99928 0.75189 0.28364 0.0
H37 H 0.02305 0.68387 0.34015 0.0
H38 H 0.01316 0.65897 0.27081 0.0
H39 H 0.99763 0.70205 0.14163 0.0
H40 H 0.0073 0.72695 0.21183 0.0
H41 H 0.04515 0.76336 0.33275 0.0
H42 H 0.04868 0.71535 0.2126 0.0
O43 O 0.04224 0.71366 0.37502 0.0
H44 H 0.06197 0.78306 0.26142 0.0
H45 H 0.06617 0.73503 0.14095 0.0
C46 C 0.01416 0.74249 0.36287 0.0
C47 C 0.01826 0.74699 0.42251 0.0
C48 C 0.01185 0.76411 0.44763 0.0
C49 C 1.00117 0.77722 0.41365 0.0
C50 C 0.99588 0.77197 0.3552 0.0
C51 C 1.00237 0.75481 0.33004 0.0
C52 C 0.01607 0.70733 0.28118 0.0
C53 C 0.01705 0.68804 0.29758 0.0
C54 C 0.01156 0.67375 0.25752 0.0
C55 C 0.00498 0.67844 0.20002 0.0
C56 C 1.00258 0.69787 0.18551 0.0
C57 C 0.00804 0.71218 0.22581 0.0
C58 C 0.04466 0.73815 0.27667 0.0
C59 C 0.04967 0.75695 0.29116 0.0
C60 C 0.05965 0.76819 0.25046 0.0
C61 C 0.06518 0.76074 0.1948 0.0
C62 C 0.06169 0.74134 0.18278 0.0
C63 C 0.05163 0.73009 0.22367 0.0
P64 P 0.78024 0.02896 0.31647 0.0
H65 H 0.77221 0.01828 0.44048 0.0
H66 H 0.74321 0.00609 0.48714 0.0
H67 H 0.71958 0.99446 0.31291 0.0
H68 H 0.7488 0.0064 0.26656 0.0
H69 H 0.8194 0.04043 0.29729 0.0
H70 H 0.84406 0.0297 0.22918 0.0
H71 H 0.8081 0.98278 0.17417 0.0
H72 H 0.78309 0.99406 0.24229 0.0
H73 H 0.74901 0.05504 0.33881 0.0
H74 H 0.78165 0.0364 0.18631 0.0
O75 O 0.78966 0.04255 0.37006 0.0
H76 H 0.72654 0.0711 0.27271 0.0
H77 H 0.75966 0.05296 0.12011 0.0
C78 C 0.76267 0.01338 0.34994 0.0
C79 C 0.76109 0.01251 0.41226 0.0
C80 C 0.74436 0.00573 0.43895 0.0
C81 C 0.72885 0.9997 0.4038 0.0
C82 C 0.73121 0.99895 0.34144 0.0
C83 C 0.74799 0.00572 0.31478 0.0
C84 C 0.79953 0.01783 0.27597 0.0
C85 C 0.81697 0.02751 0.27192 0.0
C86 C 0.83114 0.02131 0.23273 0.0
C87 C 0.82821 0.00528 0.19608 0.0
C88 C 0.81084 0.99525 0.20136 0.0
C89 C 0.79659 1.00153 0.24083 0.0
C90 C 0.76691 0.0444 0.26766 0.0
C91 C 0.75166 0.0549 0.29118 0.0
C92 C 0.73887 0.06417 0.25324 0.0
C93 C 0.74118 0.06318 0.19095 0.0
C94 C 0.75727 0.05371 0.1678 0.0
C95 C 0.76996 0.0443 0.20581 0.0
P96 P 0.4769 0.78212 0.30545 0.0
H97 H 0.48024 0.77241 0.43213 0.0
H98 H 0.49103 0.74341 0.48173 0.0
H99 H 0.51445 0.72304 0.31528 0.0
H100 H 0.50374 0.7523 0.26584 0.0
H101 H 0.47737 0.82372 0.31525 0.0
H102 H 0.48718 0.84852 0.24549 0.0
H103 H 0.51358 0.8059 0.13354 0.0
H104 H 0.50366 0.78098 0.2039 0.0
H105 H 0.46075 0.74354 0.30595 0.0
H106 H 0.45899 0.79306 0.19141 0.0
O107 O 0.46229 0.79268 0.35413 0.0
H108 H 0.44473 0.72487 0.23009 0.0
H109 H 0.44207 0.77459 0.11578 0.0
C110 C 0.49114 0.76463 0.34506 0.0
C111 C 0.48826 0.76206 0.4065 0.0
C112 C 0.49425 0.74529 0.43481 0.0
C113 C 0.50324 0.73067 0.40228 0.0
C114 C 0.50761 0.734 0.3418 0.0
C115 C 0.5016 0.75084 0.31346 0.0
C116 C 0.4898 0.80041 0.2651 0.0
C117 C 0.48576 0.81967 0.27674 0.0
C118 C 0.49122 0.83388 0.2364 0.0
C119 C 0.50087 0.82916 0.18342 0.0
C120 C 0.50621 0.81002 0.17402 0.0
C121 C 0.50065 0.79575 0.21448 0.0
C122 C 0.46205 0.76942 0.25312 0.0
C123 C 0.45683 0.75047 0.26456 0.0
C124 C 0.44729 0.73985 0.22128 0.0
C125 C 0.44233 0.74812 0.16615 0.0
C126 C 0.44614 0.76762 0.15701 0.0
C127 C 0.45585 0.7782 0.20029 0.0
P128 P 0.28788 0.45826 0.03554 0.0
H129 H 0.27751 0.4653 0.91126 0.0
H130 H 0.24836 0.47854 0.87005 0.0
H131 H 0.23435 0.50243 0.04224 0.0
H132 H 0.26369 0.48885 0.08348 0.0
H133 H 0.31272 0.43578 0.10945 0.0
H134 H 0.33698 0.44338 0.18349 0.0
H135 H 0.32764 0.50356 0.15297 0.0
H136 H 0.30315 0.4957 0.07783 0.0
H137 H 0.26028 0.43049 0.99268 0.0
H138 H 0.27507 0.45723 0.15967 0.0
O139 O 0.29823 0.44481 0.98331 0.0
H140 H 0.22924 0.42151 0.03372 0.0
H141 H 0.24431 0.44848 0.20056 0.0
C142 C 0.273 0.47615 1.00053 0.0
C143 C 0.26872 0.47416 0.93968 0.0
C144 C 0.25182 0.48167 0.9161 0.0
C145 C 0.23871 0.49128 0.95298 0.0
C146 C 0.24391 0.4948 0.01272 0.0
C147 C 0.26092 0.48737 0.03616 0.0
C148 C 0.30606 0.46516 0.08846 0.0
C149 C 0.31587 0.45064 0.11858 0.0
C150 C 0.32967 0.45501 0.16126 0.0
C151 C 0.33413 0.47408 0.17476 0.0
C152 C 0.32455 0.48872 0.14352 0.0
C153 C 0.31053 0.48427 0.10077 0.0
C154 C 0.2701 0.44432 0.07328 0.0
C155 C 0.25726 0.43356 0.0391 0.0
C156 C 0.23943 0.42865 0.06235 0.0
C157 C 0.23422 0.43448 0.12012 0.0
C158 C 0.24791 0.44355 0.15617 0.0
C159 C 0.26564 0.44853 0.13278 0.0
P160 P 0.05249 0.28882 0.05485 0.0
H161 H 0.05252 0.27638 0.92998 0.0
H162 H 0.04085 0.24728 0.88344 0.0
H163 H 0.00928 0.23381 0.04363 0.0
H164 H 0.02143 0.26291 0.09048 0.0
H165 H 0.06941 0.32514 0.08391 0.0
H166 H 0.05886 0.35184 0.14407 0.0
H167 H 1.00244 0.32718 0.15417 0.0
H168 H 0.01345 0.29998 0.09409 0.0
H169 H 0.08264 0.26035 0.06632 0.0
H170 H 0.04098 0.28709 0.18075 0.0
O171 O 0.07108 0.2948 0.01218 0.0
H172 H 0.09061 0.23793 0.14641 0.0
H173 H 0.04843 0.26474 0.25946 0.0
C174 C 0.03792 0.27193 0.01394 0.0
C175 C 0.0426 0.26754 0.95461 0.0
C176 C 0.03589 0.25076 0.92789 0.0
C177 C 0.02435 0.23789 0.95998 0.0
C178 C 0.01847 0.24312 0.01789 0.0
C179 C 0.02517 0.25996 0.04452 0.0
C180 C 0.04216 0.31068 0.08334 0.0
C181 C 0.05457 0.32573 0.09718 0.0
C182 C 0.04847 0.34109 0.13194 0.0
C183 C 0.02975 0.34181 0.15434 0.0
C184 C 0.01702 0.32707 0.13824 0.0
C185 C 0.02319 0.31161 0.1031 0.0
C186 C 0.06141 0.27557 0.11765 0.0
C187 C 0.07561 0.26176 0.10913 0.0
C188 C 0.08005 0.24888 0.15477 0.0
C189 C 0.07016 0.24952 0.20939 0.0
C190 C 0.05664 0.26404 0.21857 0.0
C191 C 0.05226 0.27687 0.1731 0.0
P192 P 0.21815 0.04198 0.04077 0.0
H193 H 0.22948 0.0323 0.91873 0.0
H194 H 0.25957 0.02049 0.87972 0.0
H195 H 0.27708 0.00496 0.05813 0.0
H196 H 0.24703 0.01736 0.0971 0.0
H197 H 0.18124 0.0573 0.07175 0.0
H198 H 0.15706 0.04852 0.14458 0.0
H199 H 0.19017 0.99893 0.19378 0.0
H200 H 0.21453 0.00794 0.12015 0.0
H201 H 0.24113 0.07403 1.00038 0.0
H202 H 0.22876 0.04558 0.16658 0.0
O203 O 0.20758 0.05333 0.9842 0.0
H204 H 0.26913 0.08889 0.04549 0.0
H205 H 0.25682 0.0598 0.21129 0.0
C206 C 0.23575 0.02562 0.01098 0.0
C207 C 0.23941 0.02568 0.9494 0.0
C208 C 0.2568 0.01894 0.927 0.0
C209 C 0.27102 0.01202 0.96576 0.0
C210 C 0.26666 0.01052 0.02697 0.0
C211 C 0.24923 0.01727 0.0493 0.0
C212 C 0.19958 0.03313 0.08958 0.0
C213 C 0.18317 0.0443 0.09724 0.0
C214 C 0.16928 0.03923 0.13903 0.0
C215 C 0.17154 0.02293 0.17497 0.0
C216 C 0.188 0.01163 0.16704 0.0
C217 C 0.2019 0.01668 0.12463 0.0
C218 C 0.23277 0.05881 0.0802 0.0
C219 C 0.24393 0.07166 0.04734 0.0
C220 C 0.26008 0.07997 0.07299 0.0
C221 C 0.26543 0.0753 0.1317 0.0
C222 C 0.25309 0.06391 0.16619 0.0
C223 C 0.23693 0.0557 0.14055 0.0
P224 P 0.45929 0.21823 0.04617 0.0
H225 H 0.46271 0.22752 0.91887 0.0
H226 H 0.47356 0.25645 0.86859 0.0
H227 H 0.49672 0.27714 0.03514 0.0
H228 H 0.4864 0.24785 0.08449 0.0
H229 H 0.44558 0.17941 0.05971 0.0
H230 H 0.45657 0.15269 0.11967 0.0
H231 H 0.50844 0.18332 0.15996 0.0
H232 H 0.49725 0.21025 0.09882 0.0
H233 H 0.43163 0.24906 0.05246 0.0
H234 H 0.46607 0.2169 0.17651 0.0
O235 O 0.44114 0.21173 0.00247 0.0
H236 H 0.42428 0.27206 0.13118 0.0
H237 H 0.45954 0.23997 0.25371 0.0
C238 C 0.47355 0.23551 0.00569 0.0
C239 C 0.4707 0.23797 0.94421 0.0
C240 C 0.47669 0.25473 0.91561 0.0
C241 C 0.48559 0.26949 0.94796 0.0
C242 C 0.48994 0.26619 0.00851 0.0
C243 C 0.48405 0.24933 0.03695 0.0
C244 C 0.47068 0.19679 0.0739 0.0
C245 C 0.45966 0.18018 0.0794 0.0
C246 C 0.46596 0.16484 0.11406 0.0
C247 C 0.48336 0.16585 0.14504 0.0
C248 C 0.4949 0.18214 0.13703 0.0
C249 C 0.48865 0.19744 0.10144 0.0
C250 C 0.44949 0.23129 0.10819 0.0
C251 C 0.43717 0.24663 0.09695 0.0
C252 C 0.43313 0.25986 0.14185 0.0
C253 C 0.44155 0.25804 0.19857 0.0
C254 C 0.45264 0.24179 0.21084 0.0
C255 C 0.45657 0.22855 0.16608 0.0
C256 C 0.97845 0.03336 0.54325 0.0
Eu257 Eu 0.98965 0.01437 0.63621 0.0
C258 C 0.98316 0.05274 0.52264 0.0
C259 C 0.98301 0.06817 0.56272 0.0
C260 C 0.99037 0.08584 0.54572 0.0
C261 C 0.99794 0.08842 0.48832 0.0
C262 C 0.99721 0.07327 0.44726 0.0
C263 C 0.98992 0.05553 0.46441 0.0
C264 C 0.96768 1.00187 0.72783 0.0
C265 C 0.00625 0.04485 0.73499 0.0
C266 C 0.01863 0.98374 0.85305 0.0
Eu267 Eu 0.0114 0.99953 0.75096 0.0
C268 C 0.02965 0.96683 0.86994 0.0
C269 C 0.0296 0.96044 0.92908 0.0
C270 C 0.03885 0.94344 0.94422 0.0
C271 C 0.04825 0.93257 0.90026 0.0
C272 C 0.04864 0.93937 0.84121 0.0
C273 C 0.03939 0.95635 0.82617 0.0
C274 C 0.03652 0.00418 0.65822 0.0
C275 C 0.99812 0.96957 0.64586 0.0
O276 O 0.99256 0.02111 0.54167 0.0
O277 O 0.96841 0.03215 0.59244 0.0
O278 O 0.96341 0.99932 0.67197 0.0
O279 O 0.9828 0.0115 0.73247 0.0
O280 O 1.00128 0.04161 0.67875 0.0
O281 O 0.00886 0.03079 0.77363 0.0
O282 O 1.00314 0.98018 0.82214 0.0
O283 O 0.02856 0.99809 0.83171 0.0
O284 O 0.04152 0.99833 0.71088 0.0
O285 O 0.01888 0.00719 0.65922 0.0
O286 O 1.0023 0.97232 0.70303 0.0
O287 O 0.99477 0.98389 0.60866 0.0
H288 H 0.97785 0.06645 0.60795 0.0
H289 H 0.99051 0.09738 0.57789 0.0
H290 H 1.00305 0.07488 0.40278 0.0
H291 H 0.99026 0.04379 0.43297 0.0
H292 H 0.02202 0.96833 0.96323 0.0
H293 H 0.03802 0.93846 0.9899 0.0
H294 H 0.05589 0.93143 0.80649 0.0
H295 H 0.03949 0.96111 0.78015 0.0
C296 C 0.47763 0.98784 0.50648 0.0
Eu297 Eu 0.49077 0.99069 0.61414 0.0
C298 C 0.46284 0.99853 0.47426 0.0
C299 C 0.46403 1.00087 0.41228 0.0
C300 C 0.45012 0.01141 0.38189 0.0
C301 C 0.43484 0.01974 0.41323 0.0
C302 C 0.43399 0.01765 0.47554 0.0
C303 C 0.44783 0.00714 0.50573 0.0
C304 C 0.49957 0.96414 0.69965 0.0
C305 C 0.46147 1.00256 0.71876 0.0
C306 C 0.51802 0.02373 0.83385 0.0
Eu307 Eu 0.50729 0.01084 0.73057 0.0
C308 C 0.5348 0.0344 0.85391 0.0
C309 C 0.53644 0.04 0.91364 0.0
C310 C 0.55292 0.0493 0.93335 0.0
C311 C 0.56799 0.05307 0.89352 0.0
C312 C 0.56601 0.04781 0.83328 0.0
C313 C 0.54954 0.03856 0.81365 0.0
C314 C 0.50384 0.03265 0.6309 0.0
C315 C 0.53702 0.99448 0.63418 0.0
O316 O 0.49303 0.99759 0.5196 0.0
O317 O 0.47161 0.97717 0.55082 0.0
O318 O 0.4925 0.95969 0.64784 0.0
O319 O 0.50156 0.98192 0.70112 0.0
O320 O 0.46356 0.99913 0.66105 0.0
O321 O 0.47623 0.00543 0.75467 0.0
O322 O 0.52145 0.00628 0.81563 0.0
O323 O 0.50638 0.03303 0.79851 0.0
O324 O 0.51765 0.0344 0.66905 0.0
O325 O 0.49212 0.02023 0.6487 0.0
O326 O 0.53442 0.99911 0.69096 0.0
O327 O 0.52265 0.99242 0.59611 0.0
H328 H 0.47564 0.99448 0.3874 0.0
H329 H 0.45107 0.01265 0.3338 0.0
H330 H 0.42259 0.02418 0.50105 0.0
H331 H 0.44684 0.00582 0.55377 0.0
H332 H 0.52517 0.03685 0.94521 0.0
H333 H 0.55412 0.05296 0.98016 0.0
H334 H 0.57727 0.05069 0.80144 0.0
H335 H 0.54842 0.03436 0.76723 0.0
C336 C 0.53107 0.47547 0.54588 0.0
Eu337 Eu 0.51865 0.49483 0.6364 0.0
C338 C 0.52357 0.45734 0.523 0.0
C339 C 0.53585 0.44347 0.49954 0.0
C340 C 0.52874 0.42551 0.48359 0.0
C341 C 0.50928 0.42121 0.4913 0.0
C342 C 0.49704 0.43528 0.51416 0.0
C343 C 0.50412 0.45312 0.53005 0.0
C344 C 0.53924 0.5064 0.73219 0.0
C345 C 0.50167 0.46362 0.72932 0.0
C346 C 0.47989 0.52495 0.82841 0.0
Eu347 Eu 0.49482 0.50766 0.7369 0.0
C348 C 0.47147 0.5439 0.83917 0.0
C349 C 0.45369 0.54532 0.86746 0.0
C350 C 0.44541 0.56318 0.87749 0.0
C351 C 0.45481 0.57996 0.85939 0.0
C352 C 0.47255 0.57844 0.83047 0.0
C353 C 0.48079 0.5606 0.82043 0.0
C354 C 0.47441 0.4962 0.63999 0.0
C355 C 0.51142 0.53945 0.64116 0.0
O356 O 0.51966 0.49014 0.54046 0.0
O357 O 0.53889 0.47446 0.59872 0.0
O358 O 0.54413 0.50972 0.67728 0.0
O359 O 0.52425 0.49645 0.73405 0.0
O360 O 0.50499 0.46751 0.67255 0.0
O361 O 0.50018 0.47764 0.7682 0.0
O362 O 0.49826 0.52437 0.81796 0.0
O363 O 0.47019 0.51365 0.79338 0.0
O364 O 0.46959 0.49248 0.69461 0.0
O365 O 0.4893 0.50624 0.6392 0.0
O366 O 0.50348 0.53605 0.69382 0.0
O367 O 0.51754 0.5254 0.60706 0.0
H368 H 0.55094 0.44639 0.49473 0.0
H369 H 0.53853 0.41488 0.46644 0.0
H370 H 0.48193 0.43255 0.51965 0.0
H371 H 0.49438 0.46353 0.54882 0.0
H372 H 0.44621 0.53258 0.88186 0.0
H373 H 0.43166 0.56385 0.89938 0.0
H374 H 0.48033 0.59107 0.8169 0.0
H375 H 0.49453 0.55992 0.79849 0.0
C376 C 0.0251 0.52554 0.51966 0.0
Eu377 Eu 0.01551 0.51706 0.62868 0.0
C378 C 0.04055 0.51879 0.48099 0.0
C379 C 0.03853 0.51942 0.41883 0.0
C380 C 0.05267 0.51167 0.38204 0.0
C381 C 0.06902 0.50322 0.4071 0.0
C382 C 0.07096 0.50271 0.46951 0.0
C383 C 0.05683 0.51039 0.5061 0.0
C384 C 0.01082 0.54087 0.72313 0.0
C385 C 0.04628 0.50397 0.72289 0.0
C386 C 0.99043 0.48399 0.8406 0.0
Eu387 Eu 1.00081 0.49746 0.73731 0.0
C388 C 0.97251 0.47548 0.86121 0.0
C389 C 0.97092 0.46827 0.91929 0.0
C390 C 0.95366 0.46045 0.93888 0.0
C391 C 0.93776 0.45982 0.90061 0.0
C392 C 0.93956 0.46684 0.84211 0.0
C393 C 0.9568 0.47456 0.82256 0.0
C394 C 0.00462 0.47474 0.6396 0.0
C395 C 0.96925 0.51178 0.64611 0.0
O396 O 0.01233 0.51264 0.53301 0.0
O397 O 0.03022 0.53571 0.56591 0.0
O398 O 0.02424 0.54268 0.68376 0.0
O399 O 0.99959 0.52763 0.7084 0.0
O400 O 0.0432 0.50548 0.66499 0.0
O401 O 0.03181 0.50357 0.76069 0.0
O402 O 0.98954 0.50211 0.82672 0.0
O403 O 0.99981 0.474 0.80108 0.0
O404 O 0.99035 0.47387 0.67628 0.0
O405 O 0.0165 0.48704 0.65697 0.0
O406 O 0.97226 0.50667 0.70194 0.0
O407 O 0.98358 0.51524 0.60918 0.0
H408 H 0.02593 0.52568 0.39882 0.0
H409 H 0.05086 0.51236 0.33409 0.0
H410 H 0.08323 0.49601 0.49015 0.0
H411 H 0.05849 0.50948 0.55406 0.0
H412 H 0.98295 0.46886 0.94957 0.0
H413 H 0.95263 0.45533 0.98438 0.0
H414 H 0.92764 0.46635 0.81141 0.0
H415 H 0.95785 0.47991 0.77733 0.0
H416 H 0.17773 0.01083 0.29001 0.0
H417 H 0.15409 0.00626 0.36927 0.0
H418 H 0.10911 0.02126 0.24674 0.0
H419 H 0.13255 0.02531 0.16699 0.0
H420 H 0.12965 0.03391 0.41405 0.0
H421 H 0.08791 0.97314 0.32413 0.0
H422 H 0.1111 0.97956 0.2954 0.0
H423 H 0.09029 0.99278 0.2732 0.0
C424 C 0.16278 0.01273 0.27953 0.0
C425 C 0.15709 0.01844 0.22198 0.0
C426 C 0.14927 0.01026 0.32506 0.0
C427 C 0.12976 0.01323 0.31397 0.0
C428 C 0.12401 0.01855 0.2563 0.0
H429 H 0.02821 0.0147 0.54274 0.0
H430 H 0.0505 0.01745 0.4585 0.0
C431 C 0.13748 0.02106 0.21083 0.0
C432 C 0.1156 0.01191 0.36346 0.0
H433 H 0.0749 0.9891 0.40845 0.0
C434 C 0.11775 0.02403 0.41293 0.0
C435 C 0.09994 0.99915 0.36186 0.0
C436 C 0.0972 0.98529 0.31108 0.0
C437 C 0.10463 0.02387 0.46041 0.0
C438 C 0.08905 0.01102 0.45907 0.0
C439 C 0.08679 0.99899 0.40942 0.0
C440 C 0.0754 0.0094 0.50979 0.0
C441 C 0.10737 0.03774 0.51119 0.0
C442 C 0.08188 1.00375 0.56637 0.0
C443 C 0.06917 1.00219 0.61426 0.0
C444 C 0.04966 0.00616 0.6067 0.0
C445 C 0.04312 0.01165 0.54997 0.0
C446 C 0.05586 0.01318 0.50183 0.0
H447 H 0.11659 0.04994 0.49804 0.0
H448 H 0.09348 0.0434 0.52707 0.0
H449 H 0.11437 0.03027 0.54898 0.0
H450 H 0.09679 1.00039 0.57344 0.0
H451 H 0.07466 0.99779 0.65732 0.0
H452 H 0.49738 0.17063 0.25812 0.0
H453 H 0.50173 0.14628 0.33541 0.0
H454 H 0.48394 0.10269 0.21173 0.0
H455 H 0.47981 0.12692 0.13386 0.0
H456 H 0.47197 0.12162 0.37814 0.0
H457 H 0.53344 0.08076 0.28738 0.0
H458 H 0.52778 0.10469 0.26301 0.0
H459 H 0.514 0.08482 0.23656 0.0
C460 C 0.49483 0.15582 0.24684 0.0
C461 C 0.4883 0.15076 0.1896 0.0
C462 C 0.49716 0.14192 0.29129 0.0
C463 C 0.49325 0.12264 0.27937 0.0
C464 C 0.48725 0.11744 0.22185 0.0
H465 H 0.47321 0.03516 0.5552 0.0
H466 H 0.46997 0.05566 0.46665 0.0
C467 C 0.4848 0.13134 0.17746 0.0
C468 C 0.49444 0.10818 0.32804 0.0
H469 H 0.51855 0.06833 0.37385 0.0
C470 C 0.48212 0.10994 0.37716 0.0
C471 C 0.50772 0.09297 0.32677 0.0
C472 C 0.52162 0.09068 0.27591 0.0
C473 C 0.48275 0.09696 0.42507 0.0
C474 C 0.49597 0.0817 0.42376 0.0
C475 C 0.50829 0.07992 0.37459 0.0
C476 C 0.49808 0.06823 0.47484 0.0
C477 C 0.46959 0.09998 0.47753 0.0
C478 C 0.51509 0.06803 0.50785 0.0
C479 C 0.51696 0.05627 0.55802 0.0
C480 C 0.50191 0.04434 0.57605 0.0
C481 C 0.48504 0.04416 0.54217 0.0
C482 C 0.48314 0.05597 0.49189 0.0
H483 H 0.46294 0.11437 0.47696 0.0
H484 H 0.45802 0.08919 0.47614 0.0
H485 H 0.47742 0.09816 0.52024 0.0
H486 H 0.52681 0.0773 0.49551 0.0
H487 H 0.53017 0.05666 0.58306 0.0
H488 H 0.33793 0.45723 0.28406 0.0
H489 H 0.36296 0.46217 0.35819 0.0
H490 H 0.38861 0.50507 0.24581 0.0
H491 H 0.36337 0.50028 0.1714 0.0
H492 H 0.40094 0.45646 0.34643 0.0
H493 H 0.38736 0.53228 0.40489 0.0
H494 H 0.37056 0.51818 0.36277 0.0
H495 H 0.39121 0.52814 0.32675 0.0
C496 C 0.34885 0.46778 0.27512 0.0
C497 C 0.34866 0.47832 0.22163 0.0
C498 C 0.36316 0.47061 0.31766 0.0
C499 C 0.37765 0.48409 0.30803 0.0
C500 C 0.3774 0.49485 0.25499 0.0
H501 H 0.4781 0.51101 0.52747 0.0
H502 H 0.45572 0.50781 0.4437 0.0
C503 C 0.36297 0.4921 0.2124 0.0
C504 C 0.39329 0.48619 0.35276 0.0
H505 H 0.41471 0.51788 0.4476 0.0
C506 C 0.40393 0.46992 0.36847 0.0
C507 C 0.3973 0.50374 0.38154 0.0
C508 C 0.38592 0.52155 0.36865 0.0
C509 C 0.4183 0.47068 0.41219 0.0
C510 C 0.42209 0.48814 0.44146 0.0
C511 C 0.41179 0.50451 0.42498 0.0
C512 C 0.43608 0.48948 0.4912 0.0
C513 C 0.42938 0.45281 0.42675 0.0
C514 C 0.43248 0.48021 0.54564 0.0
C515 C 0.44514 0.48213 0.59359 0.0
C516 C 0.46168 0.49331 0.58799 0.0
C517 C 0.46547 0.5023 0.53309 0.0
C518 C 0.45269 0.50052 0.48527 0.0
H519 H 0.42787 0.44181 0.39138 0.0
H520 H 0.44476 0.45608 0.43274 0.0
H521 H 0.42397 0.4467 0.4692 0.0
H522 H 0.41967 0.47178 0.55142 0.0
H523 H 0.44185 0.47503 0.6353 0.0
H524 H 0.0072 0.33858 0.25439 0.0
H525 H 1.00139 0.36257 0.33142 0.0
H526 H 0.03542 0.40316 0.23343 0.0
H527 H 0.0404 0.37966 0.15472 0.0
H528 H 0.02699 0.37873 0.40255 0.0
H529 H 0.99103 0.43624 0.27565 0.0
H530 H 0.99437 0.4126 0.24546 0.0
H531 H 0.01353 0.42971 0.24357 0.0
C532 C 0.01298 0.35278 0.24817 0.0
C533 C 0.02429 0.35708 0.19799 0.0
C534 C 0.0098 0.36646 0.29273 0.0
C535 C 0.0178 0.38482 0.28829 0.0
C536 C 0.02873 0.38929 0.23763 0.0
H537 H 0.0326 0.47582 0.55376 0.0
H538 H 0.03611 0.45453 0.46706 0.0
C539 C 0.03179 0.37568 0.19286 0.0
C540 C 0.01581 0.39875 0.33842 0.0
H541 H 1.00233 0.44444 0.37295 0.0
C542 C 0.02148 0.39304 0.39595 0.0
C543 C 0.00868 0.41752 0.33015 0.0
C544 C 1.00138 0.42433 0.27049 0.0
C545 C 0.02036 0.40554 0.44492 0.0
C546 C 0.01342 0.42428 0.43644 0.0
C547 C 0.00781 0.4301 0.37915 0.0
C548 C 0.0111 0.43765 0.48742 0.0
C549 C 0.02666 0.39872 0.50565 0.0
C550 C 0.99579 0.43533 0.52707 0.0
C551 C 0.99369 0.44751 0.57613 0.0
C552 C 0.00693 0.46218 0.58681 0.0
C553 C 0.02221 0.4646 0.54677 0.0
C554 C 0.02421 0.45249 0.49724 0.0
H555 H 0.03397 0.38466 0.50357 0.0
H556 H 0.03644 0.40929 0.52626 0.0
H557 H 0.01402 0.39735 0.53517 0.0
H558 H 0.98549 0.42402 0.52015 0.0
H559 H 0.98174 0.44531 0.60602 0.0
H560 H 0.86729 0.00635 0.2056 0.0
H561 H 0.89076 1.00251 0.12597 0.0
H562 H 0.84587 0.9878 0.00289 0.0
H563 H 0.82217 0.99262 0.08142 0.0
H564 H 0.90152 0.97354 0.0532 0.0
H565 H 0.87043 0.03221 0.91808 0.0
H566 H 0.86319 0.02764 0.99396 0.0
H567 H 0.85388 0.01336 0.93394 0.0
C568 C 0.86235 1.00238 0.16154 0.0
C569 C 0.84273 1.00013 0.14991 0.0
C570 C 0.87584 1.00004 0.1161 0.0
C571 C 0.87008 0.99534 0.05796 0.0
C572 C 0.85064 0.99193 0.04698 0.0
H573 H 0.93195 0.98667 0.72149 0.0
H574 H 0.90867 0.98333 0.80237 0.0
C575 C 0.8371 0.99442 0.09231 0.0
C576 C 0.88435 0.99471 0.0087 0.0
H577 H 0.89565 0.01478 0.8741 0.0
C578 C 0.90023 0.98256 0.01405 0.0
C579 C 0.88278 0.00658 0.95769 0.0
C580 C 0.86677 0.02082 0.95066 0.0
C581 C 0.91441 0.98183 0.96961 0.0
C582 C 0.91274 0.99363 0.91867 0.0
C583 C 0.89683 0.00566 0.91307 0.0
C584 C 0.92748 0.9941 0.87101 0.0
C585 C 0.93097 0.9683 0.97711 0.0
C586 C 0.94585 1.00118 0.88278 0.0
C587 C 0.95915 1.00321 0.83654 0.0
C588 C 0.95432 0.99818 0.77772 0.0
C589 C 0.9361 0.99064 0.76635 0.0
C590 C 0.92278 0.98874 0.81249 0.0
H591 H 0.92806 0.95726 0.01153 0.0
H592 H 0.93437 0.9611 0.93426 0.0
H593 H 0.94375 0.97649 0.99116 0.0
H594 H 0.94969 0.00569 0.92741 0.0
H595 H 0.97305 0.00913 0.84658 0.0
H596 H 0.53282 0.83624 0.11521 0.0
H597 H 0.53656 0.86028 0.03614 0.0
H598 H 0.47841 0.8784 0.06341 0.0
H599 H 0.47482 0.85492 0.14289 0.0
H600 H 0.5195 0.86471 0.93252 0.0
H601 H 0.50421 0.929 0.0662 0.0
H602 H 0.50832 0.90601 0.10008 0.0
H603 H 0.48502 0.91223 0.07213 0.0
C604 C 0.52092 0.84549 0.10458 0.0
C605 C 0.50363 0.84388 0.13605 0.0
C606 C 0.52306 0.85923 0.05943 0.0
C607 C 0.50793 0.87156 0.04463 0.0
C608 C 0.49056 0.86963 0.07526 0.0
H609 H 0.48596 0.92802 0.70988 0.0
H610 H 0.48991 0.90588 0.79323 0.0
C611 C 0.48849 0.85611 0.12069 0.0
C612 C 0.50983 0.88584 0.99545 0.0
H613 H 0.50076 0.93242 0.95973 0.0
C614 C 0.51563 0.87957 0.93872 0.0
C615 C 0.50524 0.90538 0.00341 0.0
C616 C 0.50057 0.91358 0.06394 0.0
C617 C 0.51612 0.89203 0.88946 0.0
C618 C 0.51004 0.91121 0.89647 0.0
C619 C 0.5051 0.91768 0.95377 0.0
C620 C 0.50809 0.92461 0.84493 0.0
C621 C 0.52331 0.88447 0.83056 0.0
C622 C 0.51641 0.94289 0.84661 0.0
C623 C 0.51379 0.95576 0.79932 0.0
C624 C 0.50285 0.9506 0.7494 0.0
C625 C 0.49463 0.93233 0.74756 0.0
C626 C 0.49702 0.91958 0.79506 0.0
H627 H 0.5335 0.87251 0.83726 0.0
H628 H 0.5111 0.87889 0.80437 0.0
H629 H 0.5305 0.89579 0.80412 0.0
H630 H 0.52494 0.94721 0.88456 0.0
H631 H 0.52042 0.96966 0.80163 0.0
H632 H 0.64387 0.52081 0.21079 0.0
H633 H 0.61894 0.52325 0.13431 0.0
H634 H 0.65826 0.50221 1.00195 0.0
H635 H 0.6831 0.4994 0.07797 0.0
H636 H 0.61829 0.54311 0.01812 0.0
H637 H 0.61216 0.46425 0.99998 0.0
H638 H 0.62359 0.47583 0.06244 0.0
H639 H 0.63593 0.47357 0.99257 0.0
C640 C 0.64724 0.51681 0.16532 0.0
C641 C 0.6655 0.50984 0.15067 0.0
C642 C 0.633 0.51829 0.12165 0.0
C643 C 0.63668 0.51267 0.06264 0.0
C644 C 0.65506 0.50643 0.04737 0.0
H645 H 0.57308 0.52558 0.73386 0.0
H646 H 0.59564 0.52835 0.8169 0.0
C647 C 0.66932 0.50503 0.09084 0.0
C648 C 0.62115 0.51252 0.01749 0.0
H649 H 0.5951 0.48259 0.92896 0.0
C650 C 0.61315 0.52989 0.99872 0.0
C651 C 0.61428 0.49524 0.99289 0.0
C652 C 0.62177 0.47612 0.01321 0.0
C653 C 0.59882 0.53045 0.95473 0.0
C654 C 0.59243 0.51319 0.92867 0.0
C655 C 0.60008 0.49581 0.94867 0.0
C656 C 0.5781 0.51278 0.87972 0.0
C657 C 0.59054 0.54947 0.93676 0.0
C658 C 0.56076 0.50302 0.88723 0.0
C659 C 0.54784 0.50142 0.8398 0.0
C660 C 0.55215 0.50934 0.78372 0.0
C661 C 0.56937 0.51935 0.77656 0.0
C662 C 0.58222 0.52104 0.82408 0.0
H663 H 0.59333 0.56063 0.97089 0.0
H664 H 0.59717 0.55415 0.89424 0.0
H665 H 0.57491 0.54837 0.92959 0.0
H666 H 0.55731 0.49646 0.92967 0.0
H667 H 0.53468 0.49361 0.84666 0.0
H668 H 0.02758 0.64728 0.17992 0.0
H669 H 0.0249 0.62353 0.10088 0.0
H670 H 0.97413 0.65127 0.03554 0.0
H671 H 0.97675 0.67527 0.11481 0.0
H672 H 0.99727 0.59768 0.07103 0.0
H673 H 0.00754 0.65005 0.88756 0.0
H674 H 0.01166 0.65602 0.96477 0.0
H675 H 0.98775 0.65506 0.93597 0.0
C676 C 0.01564 0.64823 0.1494 0.0
C677 C 1.00237 0.66326 0.1539 0.0
C678 C 0.01419 0.63464 0.10393 0.0
C679 C 0.99948 0.63572 0.06158 0.0
C680 C 0.98586 0.65036 0.06683 0.0
H681 H 0.98074 0.54257 0.80156 0.0
H682 H 0.97627 0.56525 0.88401 0.0
C683 C 0.98735 0.66405 0.11228 0.0
C684 C 0.99888 0.62174 0.01144 0.0
H685 H 1.00216 0.61808 0.85964 0.0
C686 C 0.99822 0.60213 0.02476 0.0
C687 C 1.00034 0.62753 0.95104 0.0
C688 C 1.00204 0.64829 0.93374 0.0
C689 C 0.99922 0.58821 0.97959 0.0
C690 C 1.0006 0.59401 0.91919 0.0
C691 C 1.00098 0.61361 0.90585 0.0
C692 C 1.00296 0.58009 0.8694 0.0
C693 C 0.99956 0.56741 0.99715 0.0
C694 C 0.01922 0.58108 0.8329 0.0
C695 C 0.02169 0.56828 0.78566 0.0
C696 C 0.00795 0.55421 0.77366 0.0
C697 C 0.99162 0.5532 0.81 0.0
C698 C 0.98911 0.56609 0.8573 0.0
H699 H 1.00291 0.56548 0.04524 0.0
H700 H 0.98533 0.56105 0.98864 0.0
H701 H 0.01024 0.55941 0.97041 0.0
H702 H 0.0301 0.59172 0.84121 0.0
H703 H 0.03444 0.56941 0.75854 0.0
H704 H 0.06995 0.25164 0.33181 0.0
H705 H 0.06389 0.22526 0.40098 0.0
H706 H 0.06718 0.18532 0.25499 0.0
H707 H 0.07274 0.21143 0.18568 0.0
H708 H 0.03086 0.20372 0.38298 0.0
H709 H 0.09426 0.15672 0.39068 0.0
H710 H 0.09554 0.18147 0.3681 0.0
H711 H 0.08796 0.16348 0.31595 0.0
C712 C 0.06983 0.23718 0.3147 0.0
C713 C 0.07161 0.23367 0.25311 0.0
C714 C 0.06648 0.22215 0.35432 0.0
C715 C 0.0652 0.20337 0.33309 0.0
C716 C 0.06852 0.19967 0.27248 0.0
H717 H 0.99373 0.10933 0.38639 0.0
H718 H 0.01077 0.13859 0.3588 0.0
C719 C 0.07172 0.21467 0.23282 0.0
C720 C 0.05712 0.18815 0.37104 0.0
H721 H 0.06387 0.14177 0.41239 0.0
C722 C 0.03823 0.19033 0.39076 0.0
C723 C 0.06678 0.17075 0.38119 0.0
C724 C 0.08733 0.168 0.36337 0.0
C725 C 0.02833 0.17509 0.41674 0.0
C726 C 0.03755 0.1573 0.42279 0.0
C727 C 0.05682 0.15545 0.40693 0.0
C728 C 0.02695 0.14009 0.44087 0.0
C729 C 0.00785 0.17787 0.43547 0.0
C730 C 0.03057 0.13136 0.49594 0.0
C731 C 0.02082 0.11474 0.51186 0.0
C732 C 0.00752 0.10652 0.4725 0.0
C733 C 0.00396 0.11534 0.41735 0.0
C734 C 0.01358 0.13205 0.40174 0.0
H735 H 0.00422 0.19322 0.44047 0.0
H736 H 0.99833 0.17166 0.40102 0.0
H737 H 0.00496 0.17044 0.47833 0.0
H738 H 0.04095 0.13737 0.5264 0.0
H739 H 0.024 0.10808 0.55436 0.0
H740 H 0.29848 0.07279 0.06771 0.0
H741 H 0.33068 0.0703 0.10752 0.0
H742 H 0.3095 0.08198 0.28434 0.0
H743 H 0.27715 0.08529 0.24458 0.0
H744 H 0.34813 0.09659 0.25803 0.0
H745 H 0.33704 0.01979 0.20382 0.0
H746 H 0.3346 0.03621 0.14264 0.0
H747 H 0.3178 0.03688 0.20313 0.0
C748 C 0.30068 0.07571 0.11466 0.0
C749 C 0.28514 0.07898 0.15316 0.0
C750 C 0.31913 0.0741 0.13737 0.0
C751 C 0.32234 0.07557 0.1989 0.0
C752 C 0.30724 0.08069 0.23668 0.0
H753 H 0.39666 0.01664 0.43265 0.0
H754 H 0.37084 0.03229 0.37852 0.0
C755 C 0.28876 0.08243 0.21396 0.0
C756 C 0.34049 0.0688 0.22485 0.0
H757 H 0.36576 0.02801 0.25077 0.0
C758 C 0.35216 0.08166 0.25599 0.0
C759 C 0.34548 0.04924 0.22258 0.0
C760 C 0.33305 0.03465 0.19169 0.0
C761 C 0.36868 0.07535 0.28562 0.0
C762 C 0.3735 0.05577 0.28373 0.0
C763 C 0.36201 0.04303 0.2517 0.0
C764 C 0.38946 0.04776 0.31864 0.0
C765 C 0.38049 0.08943 0.32055 0.0
C766 C 0.40848 0.05134 0.30277 0.0
C767 C 0.42334 0.04242 0.33381 0.0
C768 C 0.41934 0.02982 0.38111 0.0
C769 C 0.40024 0.02648 0.39707 0.0
C770 C 0.38546 0.03533 0.36605 0.0
H771 H 0.37355 0.10365 0.32353 0.0
H772 H 0.38308 0.08398 0.36639 0.0
H773 H 0.39457 0.09119 0.29857 0.0
H774 H 0.41179 0.06072 0.26574 0.0
H775 H 0.43793 0.04535 0.32082 0.0
H776 H 0.44453 0.29595 0.1727 0.0
H777 H 0.45134 0.32181 0.24181 0.0
H778 H 0.44662 0.28293 0.39025 0.0
H779 H 0.43924 0.25681 0.32121 0.0
H780 H 0.43267 0.33682 0.35028 0.0
H781 H 0.50353 0.30255 0.38695 0.0
H782 H 0.48829 0.29596 0.32543 0.0
H783 H 0.48249 0.2884 0.39974 0.0
C784 C 0.44419 0.29293 0.22008 0.0
C785 C 0.44148 0.27423 0.24133 0.0
C786 C 0.44822 0.30775 0.25953 0.0
C787 C 0.44974 0.30415 0.32083 0.0
C788 C 0.44572 0.28586 0.34286 0.0
H789 H 0.48351 0.39959 0.55328 0.0
H790 H 0.46839 0.36981 0.52106 0.0
C791 C 0.44156 0.27099 0.30337 0.0
C792 C 0.45758 0.31917 0.35988 0.0
H793 H 0.49913 0.3333 0.42573 0.0
C794 C 0.44704 0.33597 0.36797 0.0
C795 C 0.47644 0.31796 0.38201 0.0
C796 C 0.48848 0.30033 0.37305 0.0
C797 C 0.45514 0.35194 0.39593 0.0
C798 C 0.4742 0.35092 0.41627 0.0
C799 C 0.48449 0.33389 0.41017 0.0
C800 C 0.48424 0.36798 0.4385 0.0
C801 C 0.44367 0.3701 0.40069 0.0
C802 C 0.4985 0.3764 0.40336 0.0
C803 C 0.50707 0.39343 0.42132 0.0
C804 C 0.50152 0.40226 0.47486 0.0
C805 C 0.48777 0.39332 0.51116 0.0
C806 C 0.47918 0.37631 0.49305 0.0
H807 H 0.42996 0.36922 0.376 0.0
H808 H 0.44047 0.37302 0.44832 0.0
H809 H 0.45199 0.38237 0.38311 0.0
H810 H 0.50256 0.3701 0.36108 0.0
H811 H 0.5175 0.40003 0.39224 0.0
H812 H 0.20316 0.44398 0.05314 0.0
H813 H 0.17124 0.45147 0.08961 0.0
H814 H 0.18771 0.4341 0.26691 0.0
H815 H 0.21957 0.42589 0.23037 0.0
H816 H 0.14907 0.42515 0.2364 0.0
H817 H 0.16842 0.50078 0.18954 0.0
H818 H 0.1694 0.48485 0.12682 0.0
H819 H 0.18573 0.48174 0.1878 0.0
C820 C 0.19981 0.441 0.0994 0.0
C821 C 0.21396 0.43448 0.13907 0.0
C822 C 0.18161 0.44552 0.12027 0.0
C823 C 0.17731 0.44373 0.18111 0.0
C824 C 0.19083 0.43569 0.21981 0.0
H825 H 0.10753 0.50683 0.41881 0.0
H826 H 0.13235 0.49161 0.35884 0.0
C827 C 0.20903 0.43109 0.19896 0.0
C828 C 0.15973 0.45225 0.20588 0.0
H829 H 0.13862 0.49522 0.23405 0.0
C830 C 0.14661 0.44043 0.23537 0.0
C831 C 0.1568 0.47224 0.20497 0.0
C832 C 0.17086 0.48572 0.17605 0.0
C833 C 0.13073 0.44815 0.26495 0.0
C834 C 0.12791 0.46814 0.26442 0.0
C835 C 0.14081 0.47989 0.23388 0.0
C836 C 0.11263 0.47734 0.29952 0.0
C837 C 0.11752 0.43499 0.29864 0.0
C838 C 0.09335 0.47452 0.28536 0.0
C839 C 0.07911 0.48317 0.31973 0.0
C840 C 0.08399 0.49474 0.36869 0.0
C841 C 0.10334 0.49777 0.38191 0.0
C842 C 0.11752 0.48918 0.34754 0.0
H843 H 0.12348 0.42036 0.303 0.0
H844 H 0.11459 0.4407 0.34396 0.0
H845 H 0.10372 0.434 0.27458 0.0
H846 H 0.08933 0.46563 0.24789 0.0
H847 H 0.06431 0.48048 0.30875 0.0
H848 H 0.056 0.7605 0.07625 0.0
H849 H 0.06094 0.78624 0.0048 0.0
H850 H 0.09357 0.81731 0.13585 0.0
H851 H 0.08966 0.79112 0.20643 0.0
H852 H 0.04515 0.81943 0.02967 0.0
H853 H 0.12171 0.83196 0.9869 0.0
H854 H 0.11294 0.80991 0.01848 0.0
H855 H 0.11687 0.83043 0.06531 0.0
C856 C 0.06501 0.77236 0.08907 0.0
C857 C 0.0722 0.77386 0.14749 0.0
C858 C 0.06771 0.78715 0.04816 0.0
C859 C 0.0776 0.80373 0.06487 0.0
C860 C 0.08615 0.80456 0.12144 0.0
H861 H 0.06882 0.92257 0.99943 0.0
H862 H 0.07812 0.89034 0.03033 0.0
C863 C 0.08364 0.78968 0.16217 0.0
C864 C 0.07583 0.8213 0.02842 0.0
H865 H 0.10075 0.85923 0.97267 0.0
C866 C 0.05734 0.8279 0.01595 0.0
C867 C 0.09172 0.83245 0.01115 0.0
C868 C 0.11192 0.82571 0.02066 0.0
C869 C 0.05426 0.84569 0.98926 0.0
C870 C 0.07012 0.85713 0.97392 0.0
C871 C 0.08865 0.85038 0.98459 0.0
C872 C 0.06741 0.87666 0.95059 0.0
C873 C 0.03402 0.85254 0.98037 0.0
C874 C 0.05884 0.8796 0.89484 0.0
C875 C 0.05332 0.89792 0.87737 0.0
C876 C 0.05637 0.91361 0.91536 0.0
C877 C 0.066 0.91072 0.96968 0.0
C878 C 0.07149 0.89238 0.98711 0.0
H879 H 0.0235 0.84342 0.0041 0.0
H880 H 0.0324 0.86745 0.99636 0.0
H881 H 0.03053 0.85229 0.93208 0.0
H882 H 0.05566 0.8676 0.86602 0.0
H883 H 0.04582 0.89962 0.83546 0.0
H884 H 0.71916 0.09556 0.20106 0.0
H885 H 0.69028 0.10324 0.14415 0.0
H886 H 0.69933 0.05371 0.03368 0.0
H887 H 0.7278 0.04569 0.09056 0.0
H888 H 0.68597 0.08842 0.97153 0.0
H889 H 0.64293 0.06774 0.17079 0.0
H890 H 0.66099 0.08573 0.18013 0.0
H891 H 0.66783 0.06159 0.16409 0.0
C892 C 0.7151 0.08642 0.16424 0.0
C893 C 0.72572 0.06992 0.15075 0.0
C894 C 0.69866 0.09088 0.1317 0.0
C895 C 0.69264 0.07891 0.08525 0.0
C896 C 0.70382 0.06315 0.06929 0.0
H897 H 0.60406 0.04168 0.86575 0.0
H898 H 0.63391 0.05291 0.90873 0.0
C899 C 0.72017 0.05865 0.10178 0.0
C900 C 0.67377 0.08138 0.05693 0.0
H901 H 0.62658 0.07262 0.08134 0.0
C902 C 0.6729 0.08533 0.99563 0.0
C903 C 0.6568 0.07743 0.0887 0.0
C904 C 0.65703 0.07278 0.1545 0.0
C905 C 0.65552 0.08464 0.96464 0.0
C906 C 0.63874 0.07941 0.99565 0.0
C907 C 0.63947 0.0766 0.05763 0.0
C908 C 0.62079 0.07454 0.96423 0.0
C909 C 0.6554 0.08913 0.8988 0.0
C910 C 0.6034 0.08277 0.9817 0.0
C911 C 0.58623 0.07622 0.95749 0.0
C912 C 0.58616 0.0613 0.91552 0.0
C913 C 0.60364 0.05344 0.89709 0.0
C914 C 0.62076 0.05992 0.92145 0.0
H915 H 0.66693 0.09936 0.88717 0.0
H916 H 0.658 0.07581 0.87327 0.0
H917 H 0.64152 0.09523 0.88452 0.0
H918 H 0.6031 0.09395 0.01507 0.0
H919 H 0.57298 0.08264 0.97221 0.0
H920 H 0.45128 0.75039 0.04738 0.0
H921 H 0.44528 0.72644 0.971 0.0
H922 H 0.41292 0.69319 0.09759 0.0
H923 H 0.41767 0.71771 0.17296 0.0
H924 H 0.46023 0.69297 0.98326 0.0
H925 H 0.38312 0.68205 0.95088 0.0
H926 H 0.39251 0.70309 0.98698 0.0
H927 H 0.3887 0.68142 0.02884 0.0
C928 C 0.44213 0.73845 0.05836 0.0
C929 C 0.4352 0.73586 0.11677 0.0
C930 C 0.43881 0.72467 0.01457 0.0
C931 C 0.42863 0.70799 0.02834 0.0
C932 C 0.4205 0.70606 0.08529 0.0
H933 H 0.43734 0.5912 0.96259 0.0
H934 H 0.42808 0.62353 0.99113 0.0
C935 C 0.42356 0.71997 0.12884 0.0
C936 C 0.42956 0.69126 0.98789 0.0
H937 H 0.40336 0.65408 0.93317 0.0
C938 C 0.44773 0.68478 0.97083 0.0
C939 C 0.41328 0.68048 0.97186 0.0
C940 C 0.39332 0.68727 0.98514 0.0
C941 C 0.45016 0.66728 0.94175 0.0
C942 C 0.43398 0.65598 0.92905 0.0
C943 C 0.41572 0.6628 0.94329 0.0
C944 C 0.43617 0.63627 0.90694 0.0
C945 C 0.47011 0.66043 0.92807 0.0
C946 C 0.4432 0.63273 0.84945 0.0
C947 C 0.44847 0.61425 0.83285 0.0
C948 C 0.44679 0.59903 0.8736 0.0
C949 C 0.43867 0.60253 0.92995 0.0
C950 C 0.43338 0.621 0.9464 0.0
H951 H 0.48121 0.66989 0.94745 0.0
H952 H 0.47226 0.64575 0.9456 0.0
H953 H 0.4722 0.65997 0.879 0.0
H954 H 0.44533 0.64439 0.81834 0.0
H955 H 0.45433 0.61195 0.78872 0.0
H956 H 0.77199 0.46033 0.08397 0.0
H957 H 0.80025 0.45432 0.02368 0.0
H958 H 0.81598 0.40784 0.14008 0.0
H959 H 0.78764 0.41388 0.20109 0.0
H960 H 0.84328 0.43465 0.13271 0.0
H961 H 0.82017 0.4161 0.90436 0.0
H962 H 0.80828 0.43707 0.93112 0.0
H963 H 0.80436 0.41453 0.96787 0.0
C964 C 0.78104 0.44834 0.09546 0.0
C965 C 0.77766 0.43765 0.14748 0.0
C966 C 0.79721 0.44488 0.06077 0.0
C967 C 0.81017 0.43052 0.07704 0.0
C968 C 0.80613 0.41895 0.12663 0.0
H969 H 0.93081 0.42775 0.96722 0.0
H970 H 0.90009 0.417 0.00735 0.0
C971 C 0.78999 0.42246 0.16152 0.0
C972 C 0.82922 0.42985 0.04858 0.0
H973 H 0.85166 0.43017 0.9134 0.0
C974 C 0.84519 0.4332 0.08488 0.0
C975 C 0.83165 0.42809 0.98619 0.0
C976 C 0.8152 0.42355 0.94525 0.0
C977 C 0.86334 0.43604 0.06024 0.0
C978 C 0.86562 0.43512 0.9976 0.0
C979 C 0.84983 0.4309 0.96142 0.0
C980 C 0.88391 0.44025 0.9688 0.0
C981 C 0.87966 0.44113 0.10121 0.0
C982 C 0.88483 0.45649 0.93232 0.0
C983 C 0.90227 0.4626 0.90926 0.0
C984 C 0.91913 0.45257 0.92227 0.0
C985 C 0.91809 0.43594 0.95731 0.0
C986 C 0.90058 0.42977 0.98011 0.0
H987 H 0.87467 0.44492 0.14676 0.0
H988 H 0.88942 0.42872 0.10515 0.0
H989 H 0.88794 0.45332 0.08298 0.0
H990 H 0.87212 0.4648 0.92324 0.0
H991 H 0.90264 0.47555 0.88284 0.0
H992 H 0.02349 0.20359 0.01944 0.0
H993 H 0.0192 0.17165 0.97787 0.0
H994 H 0.01164 0.19584 0.8026 0.0
H995 H 0.01572 0.22794 0.84387 0.0
H996 H 0.98915 0.15496 0.91448 0.0
H997 H 0.05481 0.15744 0.77603 0.0
H998 H 0.05001 0.17464 0.83405 0.0
H999 H 0.03829 0.17658 0.76299 0.0
C1000 C 0.02058 0.20223 0.97218 0.0
C1001 C 0.02002 0.21849 0.93513 0.0
C1002 C 0.01828 0.18387 0.94836 0.0
C1003 C 0.01546 0.18124 0.88687 0.0
C1004 C 0.01427 0.19743 0.84996 0.0
H1005 H 0.00636 0.07781 0.66822 0.0
H1006 H 0.00775 0.11082 0.70379 0.0
C1007 C 0.01657 0.21581 0.87373 0.0
C1008 C 0.01392 0.16155 0.86168 0.0
H1009 H 0.03536 0.13009 0.76598 0.0
C1010 C 0.99926 0.14953 0.88205 0.0
C1011 C 0.02707 0.15442 0.81912 0.0
C1012 C 0.04354 0.16634 0.79701 0.0
C1013 C 0.99731 0.13071 0.86084 0.0
C1014 C 0.01064 0.12346 0.81901 0.0
C1015 C 0.02515 0.13557 0.79806 0.0
C1016 C 0.00994 0.1033 0.79724 0.0
C1017 C 0.98073 0.11888 0.88271 0.0
C1018 C 0.01113 0.08797 0.83754 0.0
C1019 C 0.01019 0.06906 0.81729 0.0
C1020 C 0.00818 0.06497 0.75609 0.0
C1021 C 0.00755 0.08036 0.71565 0.0
C1022 C 0.00845 0.09929 0.73596 0.0
H1023 H 0.96898 0.128 0.89984 0.0
H1024 H 0.97503 0.10963 0.84666 0.0
H1025 H 0.98559 0.10959 0.91984 0.0
H1026 H 0.0128 0.09061 0.88486 0.0
H1027 H 0.01087 0.05765 0.84985 0.0
H1028 H 0.28192 0.99577 0.85896 0.0
H1029 H 0.31421 0.99287 0.81836 0.0
H1030 H 0.33724 0.01705 0.97978 0.0
H1031 H 0.30509 0.02037 0.02028 0.0
H1032 H 0.34025 0.02344 0.7997 0.0
H1033 H 0.3704 0.96916 0.95369 0.0
H1034 H 0.34505 0.97303 0.94586 0.0
H1035 H 0.35921 0.98915 0.98972 0.0
C1036 C 0.29383 1.00041 0.88603 0.0
C1037 C 0.29077 0.00825 0.94314 0.0
C1038 C 0.31232 0.99868 0.86277 0.0
C1039 C 0.32821 0.00455 0.8962 0.0
C1040 C 0.32527 0.01204 0.95357 0.0
H1041 H 0.45057 0.01202 0.83282 0.0
H1042 H 0.4183 0.01272 0.87426 0.0
C1043 C 0.3068 0.01386 0.97679 0.0
C1044 C 0.34772 0.00383 0.86986 0.0
H1045 H 0.39217 0.98465 0.88865 0.0
C1046 C 0.35158 0.01486 0.81889 0.0
C1047 C 0.36255 0.99277 0.89518 0.0
C1048 C 0.35914 0.98021 0.94884 0.0
C1049 C 0.3699 0.01543 0.79328 0.0
C1050 C 0.38474 0.00427 0.81836 0.0
C1051 C 0.38085 0.9932 0.86932 0.0
C1052 C 0.40439 0.00391 0.7926 0.0
C1053 C 0.37328 0.02846 0.74067 0.0
C1054 C 0.40747 0.99852 0.73296 0.0
C1055 C 0.42592 0.99824 0.70893 0.0
C1056 C 0.44182 1.00311 0.7442 0.0
C1057 C 0.43872 0.00823 0.80418 0.0
C1058 C 0.42024 0.00861 0.82806 0.0
H1059 H 0.3624 0.03997 0.73829 0.0
H1060 H 0.38763 0.03512 0.74283 0.0
H1061 H 0.37234 0.02004 0.69885 0.0
H1062 H 0.3956 0.99434 0.70499 0.0
H1063 H 0.42771 0.99404 0.66276 0.0
H1064 H 0.51551 0.29464 0.96472 0.0
H1065 H 0.51862 0.32723 0.92597 0.0
H1066 H 0.46599 0.32058 0.82892 0.0
H1067 H 0.46236 0.28843 0.86899 0.0
H1068 H 0.52069 0.34192 0.81048 0.0
H1069 H 0.45605 0.36875 0.92561 0.0
H1070 H 0.46677 0.34603 0.94338 0.0
H1071 H 0.45164 0.3484 0.87898 0.0
C1072 C 0.50454 0.30011 0.93534 0.0
C1073 C 0.48864 0.28877 0.92035 0.0
C1074 C 0.5064 0.31874 0.91289 0.0
C1075 C 0.49237 0.32654 0.87529 0.0
C1076 C 0.47683 0.31508 0.85872 0.0
H1077 H 0.50196 0.43103 0.66097 0.0
H1078 H 0.4999 0.39788 0.69505 0.0
C1079 C 0.47494 0.2965 0.88112 0.0
C1080 C 0.49377 0.34672 0.85407 0.0
H1081 H 0.47026 0.38952 0.8547 0.0
C1082 C 0.50969 0.35234 0.82024 0.0
C1083 C 0.47955 0.36045 0.86743 0.0
C1084 C 0.46263 0.3557 0.90632 0.0
C1085 C 0.51162 0.37116 0.79869 0.0
C1086 C 0.49708 0.38472 0.81044 0.0
C1087 C 0.48131 0.37914 0.84502 0.0
C1088 C 0.49817 0.40491 0.789 0.0
C1089 C 0.52942 0.37642 0.76465 0.0
C1090 C 0.49726 0.42005 0.83002 0.0
C1091 C 0.49821 0.43905 0.81061 0.0
C1092 C 0.50004 0.44341 0.74955 0.0
C1093 C 0.50068 0.42824 0.70836 0.0
C1094 C 0.49965 0.40922 0.72785 0.0
H1095 H 0.54123 0.36621 0.77343 0.0
H1096 H 0.52633 0.37612 0.71611 0.0
H1097 H 0.53432 0.39101 0.77648 0.0
H1098 H 0.49602 0.41716 0.87737 0.0
H1099 H 0.49768 0.45031 0.84365 0.0
H1100 H 0.20473 0.48732 0.01279 0.0
H1101 H 0.17243 0.49099 0.97324 0.0
H1102 H 0.19547 0.50781 0.80283 0.0
H1103 H 0.22788 0.5045 0.84221 0.0
H1104 H 0.15346 0.52298 0.91856 0.0
H1105 H 0.16082 0.46171 0.76294 0.0
H1106 H 0.17715 0.46573 0.82392 0.0
H1107 H 0.17902 0.47966 0.75684 0.0
C1108 C 0.203 0.49221 0.96725 0.0
C1109 C 0.21903 0.49559 0.93074 0.0
C1110 C 0.18447 0.49415 0.94455 0.0
C1111 C 0.1815 0.49935 0.88474 0.0
C1112 C 0.1974 0.50339 0.84876 0.0
H1113 H 0.07981 0.50766 0.66038 0.0
H1114 H 0.1124 0.50723 0.69972 0.0
C1115 C 0.21594 0.50152 0.87143 0.0
C1116 C 0.16179 0.50019 0.85979 0.0
H1117 H 0.1323 0.47957 0.75675 0.0
C1118 C 0.14881 0.51348 0.88325 0.0
C1119 C 0.15573 0.48782 0.8136 0.0
C1120 C 0.16881 0.47279 0.78803 0.0
C1121 C 0.13005 0.51493 0.86119 0.0
C1122 C 0.1239 0.50241 0.81535 0.0
C1123 C 0.13695 0.48918 0.79179 0.0
C1124 C 0.10399 0.50268 0.79157 0.0
C1125 C 0.11717 0.53019 0.88633 0.0
C1126 C 0.08832 0.49992 0.82973 0.0
C1127 C 0.06965 0.50025 0.8074 0.0
C1128 C 0.06618 0.50311 0.74616 0.0
C1129 C 0.08191 0.50545 0.70778 0.0
C1130 C 0.10058 0.50521 0.73024 0.0
H1131 H 0.12548 0.54197 0.90696 0.0
H1132 H 0.1078 0.5363 0.85123 0.0
H1133 H 0.10801 0.52386 0.92153 0.0
H1134 H 0.09051 0.49739 0.87691 0.0
H1135 H 0.05794 0.49823 0.83829 0.0
H1136 H 0.99244 0.78802 0.5289 0.0
H1137 H 0.99008 0.82045 0.56882 0.0
H1138 H 0.99872 0.84349 0.39258 0.0
H1139 H 1.00169 0.81123 0.3524 0.0
H1140 H 0.02002 0.84927 0.55731 0.0
H1141 H 0.95121 0.87274 0.45858 0.0
H1142 H 0.95757 0.84787 0.46648 0.0
H1143 H 0.96787 0.86193 0.40776 0.0
C1144 C 0.9938 0.79994 0.49844 0.0
C1145 C 0.99728 0.79685 0.43723 0.0
C1146 C 0.99235 0.8185 0.52139 0.0
C1147 C 0.99408 0.8344 0.48366 0.0
C1148 C 0.99702 0.83143 0.42242 0.0
H1149 H 0.99555 0.95766 0.52942 0.0
H1150 H 0.99473 0.9249 0.49183 0.0
C1151 C 0.99862 0.8129 0.39946 0.0
C1152 C 0.994 0.85408 0.50876 0.0
H1153 H 0.96973 0.8964 0.50689 0.0
C1154 C 0.00897 0.85956 0.54667 0.0
C1155 C 0.97968 0.86753 0.49435 0.0
C1156 C 0.96306 0.86227 0.45493 0.0
C1157 C 0.01024 0.87822 0.56953 0.0
C1158 C 0.99581 0.89169 0.55555 0.0
C1159 C 0.98078 0.88614 0.51778 0.0
C1160 C 0.99616 0.91165 0.57899 0.0
C1161 C 0.0274 0.88345 0.60676 0.0
C1162 C 0.99697 0.91525 0.64065 0.0
C1163 C 0.99765 0.934 0.6623 0.0
C1164 C 0.99719 0.94964 0.62285 0.0
C1165 C 0.99594 0.94601 0.56119 0.0
C1166 C 0.99545 0.92725 0.53956 0.0
H1167 H 0.03958 0.87366 0.59828 0.0
H1168 H 0.0321 0.8983 0.59765 0.0
H1169 H 0.02364 0.8823 0.65474 0.0
H1170 H 0.99699 0.90354 0.67221 0.0
H1171 H 0.99842 0.9362 0.71008 0.0
H1172 H 0.71167 0.02054 0.49161 0.0
H1173 H 0.67954 0.01694 0.53204 0.0
H1174 H 0.67003 0.96846 0.41758 0.0
H1175 H 0.70244 0.97176 0.37727 0.0
H1176 H 0.64531 0.01849 0.46158 0.0
H1177 H 0.65237 0.9503 0.587 0.0
H1178 H 0.67275 0.9646 0.56597 0.0
H1179 H 0.66081 0.95027 0.51114 0.0
C1180 C 0.70296 0.00882 0.47587 0.0
C1181 C 0.70976 0.99633 0.43146 0.0
C1182 C 0.68451 0.00689 0.49875 0.0
C1183 C 0.67243 0.99236 0.47823 0.0
C1184 C 0.6792 0.97964 0.43462 0.0
H1185 H 0.54867 0.98925 0.51846 0.0
H1186 H 0.58132 0.98785 0.48036 0.0
C1187 C 0.69767 0.98163 0.41134 0.0
C1188 C 0.65245 0.9913 0.50035 0.0
H1189 H 0.6216 0.96412 0.58263 0.0
C1190 C 0.64011 0.00658 0.48789 0.0
C1191 C 0.64574 0.97582 0.53508 0.0
C1192 C 0.65858 0.95933 0.55115 0.0
C1193 C 0.62123 0.00677 0.50896 0.0
C1194 C 0.61445 0.99121 0.54321 0.0
C1195 C 0.6268 0.97597 0.55605 0.0
C1196 C 0.59464 0.99083 0.56688 0.0
C1197 C 0.60874 0.02377 0.4954 0.0
C1198 C 0.59127 0.99254 0.62838 0.0
C1199 C 0.57258 0.99341 0.65045 0.0
C1200 C 0.55687 0.99239 0.61142 0.0
C1201 C 0.56036 0.99011 0.54993 0.0
C1202 C 0.57904 0.98936 0.52794 0.0
H1203 H 0.61712 0.03609 0.47838 0.0
H1204 H 0.59813 0.01977 0.46088 0.0
H1205 H 0.60082 0.02832 0.53589 0.0
H1206 H 0.60312 0.99367 0.65921 0.0
H1207 H 0.57049 0.99512 0.69803 0.0
H1208 H 0.53426 0.70662 0.39203 0.0
H1209 H 0.53772 0.67424 0.43318 0.0
H1210 H 0.48225 0.67879 0.51464 0.0
H1211 H 0.47859 0.71091 0.4737 0.0
H1212 H 0.53254 0.66171 0.56591 0.0
H1213 H 0.4826 0.62914 0.40211 0.0
H1214 H 0.49496 0.6513 0.38769 0.0
H1215 H 0.47496 0.65089 0.4376 0.0
C1216 C 0.52283 0.70074 0.41885 0.0
C1217 C 0.50619 0.71145 0.42975 0.0
C1218 C 0.52487 0.68228 0.44251 0.0
C1219 C 0.5102 0.6741 0.47674 0.0
C1220 C 0.49372 0.68481 0.48827 0.0
H1221 H 0.50166 0.57268 0.69899 0.0
H1222 H 0.50262 0.60528 0.65974 0.0
C1223 C 0.49174 0.70326 0.46515 0.0
C1224 C 0.51175 0.6542 0.49937 0.0
H1225 H 0.49315 0.60948 0.48129 0.0
C1226 C 0.52402 0.65025 0.54731 0.0
C1227 C 0.50068 0.63927 0.47481 0.0
C1228 C 0.48761 0.6427 0.42243 0.0
C1229 C 0.52521 0.6318 0.5721 0.0
C1230 C 0.51377 0.61696 0.54847 0.0
C1231 C 0.50183 0.62086 0.49965 0.0
C1232 C 0.51396 0.59725 0.57353 0.0
C1233 C 0.5388 0.62827 0.62308 0.0
C1234 C 0.51981 0.58183 0.53803 0.0
C1235 C 0.5193 0.56315 0.56037 0.0
C1236 C 0.51272 0.55943 0.61863 0.0
C1237 C 0.5069 0.57496 0.65414 0.0
C1238 C 0.50752 0.59366 0.63183 0.0
H1239 H 0.5496 0.6398 0.627 0.0
H1240 H 0.53064 0.62767 0.66547 0.0
H1241 H 0.54628 0.61441 0.61743 0.0
H1242 H 0.52474 0.58423 0.49282 0.0
H1243 H 0.52384 0.55161 0.53154 0.0
H1244 H 0.79486 0.53613 0.44683 0.0
H1245 H 0.82712 0.53992 0.48801 0.0
H1246 H 0.83456 0.47875 0.48521 0.0
H1247 H 0.8021 0.475 0.44751 0.0
H1248 H 0.84789 0.49119 0.58318 0.0
H1249 H 0.87687 0.5379 0.40562 0.0
H1250 H 0.85672 0.54834 0.44241 0.0
H1251 H 0.85379 0.52675 0.39968 0.0
C1252 C 0.80346 0.52356 0.45513 0.0
C1253 C 0.796 0.50528 0.44429 0.0
C1254 C 0.82197 0.52571 0.47812 0.0
C1255 C 0.83357 0.50964 0.48881 0.0
C1256 C 0.82602 0.49141 0.47759 0.0
H1257 H 0.95674 0.50877 0.53101 0.0
H1258 H 0.92379 0.50873 0.49525 0.0
C1259 C 0.80745 0.48925 0.456 0.0
C1260 C 0.85337 0.51152 0.51307 0.0
H1261 H 0.89649 0.5332 0.49071 0.0
C1262 C 0.85851 0.50035 0.5627 0.0
C1263 C 0.86743 0.52326 0.48618 0.0
C1264 C 0.86351 0.53458 0.43018 0.0
C1265 C 0.87717 0.50038 0.58566 0.0
C1266 C 0.89105 0.51265 0.56018 0.0
C1267 C 0.88589 0.52394 0.51083 0.0
C1268 C 0.91117 0.51338 0.58229 0.0
C1269 C 0.8819 0.48662 0.63541 0.0
C1270 C 0.91526 0.51639 0.64302 0.0
C1271 C 0.93411 0.51596 0.66376 0.0
C1272 C 0.94935 0.51316 0.62392 0.0
C1273 C 0.94533 0.51101 0.56284 0.0
C1274 C 0.92646 0.51099 0.54233 0.0
H1275 H 0.87182 0.47438 0.63639 0.0
H1276 H 0.8966 0.48091 0.63083 0.0
H1277 H 0.88074 0.49411 0.67887 0.0
H1278 H 0.90387 0.51896 0.67462 0.0
H1279 H 0.93675 0.5179 0.711 0.0
loop_
_geom_bond_atom_site_label_1
_geom_bond_atom_site_label_2
_geom_bond_distance
_geom_bond_site_symmetry_2
_ccdc_geom_bond_type
P0 O11 1.490 . S
P0 C14 1.812 . S
P0 C20 1.803 . S
P0 C26 1.819 . S
H1 C15 0.941 . S
H2 C16 0.939 . S
H3 C18 0.940 . S
H4 C19 0.940 . S
H5 C21 0.939 . S
H6 C22 0.942 . S
H7 C24 0.940 . S
H8 C25 0.939 . S
H9 C27 0.941 . S
H10 C31 0.939 . S
O11 P0 1.490 . S
H12 C28 0.939 . S
H13 C30 0.940 . S
C14 P0 1.812 . S
C14 C15 1.389 . S
C14 C19 1.391 . S
C15 H1 0.941 . S
C15 C14 1.389 . S
C15 C16 1.397 . S
C16 H2 0.939 . S
C16 C15 1.397 . S
C16 C17 1.378 . S
C17 C16 1.378 . S
C17 C18 1.378 . S
C18 H3 0.940 . S
C18 C17 1.378 . S
C18 C19 1.396 . S
C19 H4 0.940 . S
C19 C14 1.391 . S
C19 C18 1.396 . S
C20 P0 1.803 . S
C20 C21 1.378 . S
C20 C25 1.400 . S
C21 H5 0.939 . S
C21 C20 1.378 . S
C21 C22 1.361 . S
C22 H6 0.942 . S
C22 C21 1.361 . S
C22 C23 1.369 . S
C23 C22 1.369 . S
C23 C24 1.404 . S
C24 H7 0.940 . S
C24 C23 1.404 . S
C24 C25 1.389 . S
C25 H8 0.939 . S
C25 C20 1.400 . S
C25 C24 1.389 . S
C26 P0 1.819 . S
C26 C27 1.391 . S
C26 C31 1.391 . S
C27 H9 0.941 . S
C27 C26 1.391 . S
C27 C28 1.396 . S
C28 H12 0.939 . S
C28 C27 1.396 . S
C28 C29 1.397 . S
C29 C28 1.397 . S
C29 C30 1.385 . S
C30 H13 0.940 . S
C30 C29 1.385 . S
C30 C31 1.388 . S
C31 H10 0.939 . S
C31 C26 1.391 . S
C31 C30 1.388 . S
P32 O43 1.490 . S
P32 C46 1.812 . S
P32 C52 1.803 . S
P32 C58 1.819 . S
H33 C47 0.941 . S
H34 C48 0.939 . S
H35 C50 0.940 . S
H36 C51 0.950 . S
H37 C53 0.939 . S
H38 C54 0.942 . S
H39 C56 0.940 . S
H40 C57 0.959 . S
H41 C59 0.941 . S
H42 C63 0.929 1_655 S
O43 P32 1.490 . S
H44 C60 0.939 . S
H45 C62 0.940 . S
C46 P32 1.812 . S
C46 C47 1.389 . S
C46 C51 1.375 1_455 S
C47 H33 0.941 . S
C47 C46 1.389 . S
C47 C48 1.397 . S
C48 H34 0.939 . S
C48 C47 1.397 . S
C48 C49 1.378 . S
C49 C48 1.378 . S
C49 C50 1.378 1_455 S
C50 H35 0.940 . S
C50 C49 1.378 1_655 S
C50 C51 1.403 . S
C51 H36 0.950 . S
C51 C46 1.375 1_655 S
C51 C50 1.403 . S
C52 P32 1.803 . S
C52 C53 1.378 . S
C52 C57 1.368 1_455 S
C53 H37 0.939 . S
C53 C52 1.378 . S
C53 C54 1.361 . S
C54 H38 0.942 . S
C54 C53 1.361 . S
C54 C55 1.369 . S
C55 C54 1.369 . S
C55 C56 1.404 1_455 S
C56 H39 0.940 . S
C56 C55 1.404 1_655 S
C56 C57 1.402 . S
C57 H40 0.959 . S
C57 C52 1.368 1_655 S
C57 C56 1.402 . S
C58 P32 1.819 . S
C58 C59 1.391 . S
C58 C63 1.391 . S
C59 H41 0.941 . S
C59 C58 1.391 . S
C59 C60 1.396 . S
C60 H44 0.939 . S
C60 C59 1.396 . S
C60 C61 1.397 . S
C61 C60 1.397 . S
C61 C62 1.385 1_455 S
C62 H45 0.940 . S
C62 C61 1.385 1_655 S
C62 C63 1.388 1_655 S
C63 H42 0.929 1_455 S
C63 C58 1.391 . S
C63 C62 1.388 1_455 S
P64 O75 1.490 . S
P64 C78 1.812 . S
P64 C84 1.803 . S
P64 C90 1.819 . S
H65 C79 0.941 . S
H66 C80 0.939 . S
H67 C82 0.940 . S
H68 C83 0.950 . S
H69 C85 0.939 . S
H70 C86 0.942 . S
H71 C88 0.940 . S
H72 C89 0.959 . S
H73 C91 0.941 . S
H74 C95 0.929 1_565 S
O75 P64 1.490 . S
H76 C92 0.939 . S
H77 C94 0.940 . S
C78 P64 1.812 . S
C78 C79 1.389 . S
C78 C83 1.375 1_545 S
C79 H65 0.941 . S
C79 C78 1.389 . S
C79 C80 1.397 . S
C80 H66 0.939 . S
C80 C79 1.397 . S
C80 C81 1.378 . S
C81 C80 1.378 . S
C81 C82 1.378 1_545 S
C82 H67 0.940 . S
C82 C81 1.378 1_565 S
C82 C83 1.403 . S
C83 H68 0.950 . S
C83 C78 1.375 1_565 S
C83 C82 1.403 . S
C84 P64 1.803 . S
C84 C85 1.378 . S
C84 C89 1.368 1_545 S
C85 H69 0.939 . S
C85 C84 1.378 . S
C85 C86 1.361 . S
C86 H70 0.942 . S
C86 C85 1.361 . S
C86 C87 1.369 . S
C87 C86 1.369 . S
C87 C88 1.404 1_545 S
C88 H71 0.940 . S
C88 C87 1.404 1_565 S
C88 C89 1.402 . S
C89 H72 0.959 . S
C89 C84 1.368 1_565 S
C89 C88 1.402 . S
C90 P64 1.819 . S
C90 C91 1.391 . S
C90 C95 1.391 . S
C91 H73 0.941 . S
C91 C90 1.391 . S
C91 C92 1.396 . S
C92 H76 0.939 . S
C92 C91 1.396 . S
C92 C93 1.397 . S
C93 C92 1.397 . S
C93 C94 1.385 1_545 S
C94 H77 0.940 . S
C94 C93 1.385 1_565 S
C94 C95 1.388 1_565 S
C95 H74 0.929 1_545 S
C95 C90 1.391 . S
C95 C94 1.388 1_545 S
P96 O107 1.490 . S
P96 C110 1.812 . S
P96 C116 1.803 . S
P96 C122 1.819 . S
H97 C111 0.941 . S
H98 C112 0.939 . S
H99 C114 0.940 . S
H100 C115 0.940 . S
H101 C117 0.939 . S
H102 C118 0.942 . S
H103 C120 0.940 . S
H104 C121 0.939 . S
H105 C123 0.941 . S
H106 C127 0.939 . S
O107 P96 1.490 . S
H108 C124 0.939 . S
H109 C126 0.940 . S
C110 P96 1.812 . S
C110 C111 1.389 . S
C110 C115 1.391 . S
C111 H97 0.941 . S
C111 C110 1.389 . S
C111 C112 1.397 . S
C112 H98 0.939 . S
C112 C111 1.397 . S
C112 C113 1.378 . S
C113 C112 1.378 . S
C113 C114 1.378 . S
C114 H99 0.940 . S
C114 C113 1.378 . S
C114 C115 1.396 . S
C115 H100 0.940 . S
C115 C110 1.391 . S
C115 C114 1.396 . S
C116 P96 1.803 . S
C116 C117 1.378 . S
C116 C121 1.400 . S
C117 H101 0.939 . S
C117 C116 1.378 . S
C117 C118 1.361 . S
C118 H102 0.942 . S
C118 C117 1.361 . S
C118 C119 1.369 . S
C119 C118 1.369 . S
C119 C120 1.404 . S
C120 H103 0.940 . S
C120 C119 1.404 . S
C120 C121 1.389 . S
C121 H104 0.939 . S
C121 C116 1.400 . S
C121 C120 1.389 . S
C122 P96 1.819 . S
C122 C123 1.391 . S
C122 C127 1.391 . S
C123 H105 0.941 . S
C123 C122 1.391 . S
C123 C124 1.396 . S
C124 H108 0.939 . S
C124 C123 1.396 . S
C124 C125 1.397 . S
C125 C124 1.397 . S
C125 C126 1.385 . S
C126 H109 0.940 . S
C126 C125 1.385 . S
C126 C127 1.388 . S
C127 H106 0.939 . S
C127 C122 1.391 . S
C127 C126 1.388 . S
P128 O139 1.490 . S
P128 C142 1.812 1_554 S
P128 C148 1.803 . S
P128 C154 1.819 . S
H129 C143 0.941 . S
H130 C144 0.939 . S
H131 C146 0.940 . S
H132 C147 0.940 1_554 S
H133 C149 0.939 . S
H134 C150 0.942 . S
H135 C152 0.940 . S
H136 C153 0.939 . S
H137 C155 0.941 . S
H138 C159 0.939 . S
O139 P128 1.490 . S
H140 C156 0.939 . S
H141 C158 0.940 . S
C142 P128 1.812 1_556 S
C142 C143 1.389 . S
C142 C147 1.391 . S
C143 H129 0.941 . S
C143 C142 1.389 . S
C143 C144 1.397 . S
C144 H130 0.939 . S
C144 C143 1.397 . S
C144 C145 1.378 . S
C145 C144 1.378 . S
C145 C146 1.378 . S
C146 H131 0.940 . S
C146 C145 1.378 . S
C146 C147 1.396 . S
C147 H132 0.940 1_556 S
C147 C142 1.391 . S
C147 C146 1.396 . S
C148 P128 1.803 . S
C148 C149 1.378 . S
C148 C153 1.400 . S
C149 H133 0.939 . S
C149 C148 1.378 . S
C149 C150 1.361 . S
C150 H134 0.942 . S
C150 C149 1.361 . S
C150 C151 1.369 . S
C151 C150 1.369 . S
C151 C152 1.404 . S
C152 H135 0.940 . S
C152 C151 1.404 . S
C152 C153 1.389 . S
C153 H136 0.939 . S
C153 C148 1.400 . S
C153 C152 1.389 . S
C154 P128 1.819 . S
C154 C155 1.391 . S
C154 C159 1.391 . S
C155 H137 0.941 . S
C155 C154 1.391 . S
C155 C156 1.396 . S
C156 H140 0.939 . S
C156 C155 1.396 . S
C156 C157 1.397 . S
C157 C156 1.397 . S
C157 C158 1.385 . S
C158 H141 0.940 . S
C158 C157 1.385 . S
C158 C159 1.388 . S
C159 H138 0.939 . S
C159 C154 1.391 . S
C159 C158 1.388 . S
P160 O171 1.490 . S
P160 C174 1.812 1_554 S
P160 C180 1.803 . S
P160 C186 1.819 . S
H161 C175 0.941 . S
H162 C176 0.939 . S
H163 C178 0.940 . S
H164 C179 0.942 1_554 S
H165 C181 0.939 . S
H166 C182 0.942 . S
H167 C184 0.940 . S
H168 C185 0.951 . S
H169 C187 0.941 . S
H170 C191 0.934 1_655 S
O171 P160 1.490 . S
H172 C188 0.939 . S
H173 C190 0.940 . S
C174 P160 1.812 1_556 S
C174 C175 1.389 . S
C174 C179 1.388 1_455 S
C175 H161 0.941 . S
C175 C174 1.389 . S
C175 C176 1.397 . S
C176 H162 0.939 . S
C176 C175 1.397 . S
C176 C177 1.378 . S
C177 C176 1.378 . S
C177 C178 1.378 1_455 S
C178 H163 0.940 . S
C178 C177 1.378 1_655 S
C178 C179 1.398 . S
C179 H164 0.942 1_556 S
C179 C174 1.388 1_655 S
C179 C178 1.398 . S
C180 P160 1.803 . S
C180 C181 1.378 . S
C180 C185 1.381 1_455 S
C181 H165 0.939 . S
C181 C180 1.378 . S
C181 C182 1.361 . S
C182 H166 0.942 . S
C182 C181 1.361 . S
C182 C183 1.369 . S
C183 C182 1.369 . S
C183 C184 1.404 1_455 S
C184 H167 0.940 . S
C184 C183 1.404 1_655 S
C184 C185 1.396 . S
C185 H168 0.951 . S
C185 C180 1.381 1_655 S
C185 C184 1.396 . S
C186 P160 1.819 . S
C186 C187 1.391 . S
C186 C191 1.391 . S
C187 H169 0.941 . S
C187 C186 1.391 . S
C187 C188 1.396 . S
C188 H172 0.939 . S
C188 C187 1.396 . S
C188 C189 1.397 . S
C189 C188 1.397 . S
C189 C190 1.385 1_455 S
C190 H173 0.940 . S
C190 C189 1.385 1_655 S
C190 C191 1.388 1_655 S
C191 H170 0.934 1_455 S
C191 C186 1.391 . S
C191 C190 1.388 1_455 S
P192 O203 1.490 . S
P192 C206 1.812 1_554 S
P192 C212 1.803 . S
P192 C218 1.819 . S
H193 C207 0.941 . S
H194 C208 0.939 . S
H195 C210 0.940 . S
H196 C211 0.942 1_554 S
H197 C213 0.939 . S
H198 C214 0.942 . S
H199 C216 0.940 . S
H200 C217 0.951 . S
H201 C219 0.941 . S
H202 C223 0.934 1_565 S
O203 P192 1.490 . S
H204 C220 0.939 . S
H205 C222 0.940 . S
C206 P192 1.812 1_556 S
C206 C207 1.389 . S
C206 C211 1.388 1_545 S
C207 H193 0.941 . S
C207 C206 1.389 . S
C207 C208 1.397 . S
C208 H194 0.939 . S
C208 C207 1.397 . S
C208 C209 1.378 . S
C209 C208 1.378 . S
C209 C210 1.378 1_545 S
C210 H195 0.940 . S
C210 C209 1.378 1_565 S
C210 C211 1.398 . S
C211 H196 0.942 1_556 S
C211 C206 1.388 1_565 S
C211 C210 1.398 . S
C212 P192 1.803 . S
C212 C213 1.378 . S
C212 C217 1.381 1_545 S
C213 H197 0.939 . S
C213 C212 1.378 . S
C213 C214 1.361 . S
C214 H198 0.942 . S
C214 C213 1.361 . S
C214 C215 1.369 . S
C215 C214 1.369 . S
C215 C216 1.404 1_545 S
C216 H199 0.940 . S
C216 C215 1.404 1_565 S
C216 C217 1.397 . S
C217 H200 0.951 . S
C217 C212 1.381 1_565 S
C217 C216 1.397 . S
C218 P192 1.819 . S
C218 C219 1.391 . S
C218 C223 1.391 . S
C219 H201 0.941 . S
C219 C218 1.391 . S
C219 C220 1.396 . S
C220 H204 0.939 . S
C220 C219 1.396 . S
C220 C221 1.397 . S
C221 C220 1.397 . S
C221 C222 1.385 1_545 S
C222 H205 0.940 . S
C222 C221 1.385 1_565 S
C222 C223 1.388 1_565 S
C223 H202 0.934 1_545 S
C223 C218 1.391 . S
C223 C222 1.388 1_545 S
P224 O235 1.490 . S
P224 C238 1.812 1_554 S
P224 C244 1.803 . S
P224 C250 1.819 . S
H225 C239 0.941 . S
H226 C240 0.939 . S
H227 C242 0.940 . S
H228 C243 0.940 1_554 S
H229 C245 0.939 . S
H230 C246 0.942 . S
H231 C248 0.940 . S
H232 C249 0.939 . S
H233 C251 0.941 . S
H234 C255 0.939 . S
O235 P224 1.490 . S
H236 C252 0.939 . S
H237 C254 0.940 . S
C238 P224 1.812 1_556 S
C238 C239 1.389 . S
C238 C243 1.391 . S
C239 H225 0.941 . S
C239 C238 1.389 . S
C239 C240 1.397 . S
C240 H226 0.939 . S
C240 C239 1.397 . S
C240 C241 1.378 . S
C241 C240 1.378 . S
C241 C242 1.378 . S
C242 H227 0.940 . S
C242 C241 1.378 . S
C242 C243 1.396 . S
C243 H228 0.940 1_556 S
C243 C238 1.391 . S
C243 C242 1.396 . S
C244 P224 1.803 . S
C244 C245 1.378 . S
C244 C249 1.400 . S
C245 H229 0.939 . S
C245 C244 1.378 . S
C245 C246 1.361 . S
C246 H230 0.942 . S
C246 C245 1.361 . S
C246 C247 1.369 . S
C247 C246 1.369 . S
C247 C248 1.404 . S
C248 H231 0.940 . S
C248 C247 1.404 . S
C248 C249 1.389 . S
C249 H232 0.939 . S
C249 C244 1.400 . S
C249 C248 1.389 . S
C250 P224 1.819 . S
C250 C251 1.391 . S
C250 C255 1.391 . S
C251 H233 0.941 . S
C251 C250 1.391 . S
C251 C252 1.396 . S
C252 H236 0.939 . S
C252 C251 1.396 . S
C252 C253 1.397 . S
C253 C252 1.397 . S
C253 C254 1.385 . S
C254 H237 0.940 . S
C254 C253 1.385 . S
C254 C255 1.388 . S
C255 H234 0.939 . S
C255 C250 1.391 . S
C255 C254 1.388 . S
C256 Eu257 2.835 . S
C256 C258 1.500 . S
C256 O276 1.257 . S
C256 O277 1.260 . S
Eu257 C256 2.835 . S
Eu257 O276 2.473 . S
Eu257 O277 2.480 . S
Eu257 O278 2.430 . S
Eu257 O279 2.670 1_545 S
Eu257 O280 2.394 . S
Eu257 O285 2.355 1_655 S
Eu257 O287 2.374 1_545 S
C258 C256 1.500 . S
C258 C259 1.377 . S
C258 C263 1.377 . S
C259 C258 1.377 . S
C259 C260 1.395 . S
C259 H288 0.931 . S
C260 C259 1.395 . S
C260 C261 1.383 . S
C260 H289 0.931 . S
C261 C260 1.383 . S
C261 C262 1.394 . S
C262 C261 1.394 . S
C262 C263 1.378 . S
C262 H290 0.931 1_655 S
C263 C258 1.377 . S
C263 C262 1.378 . S
C263 H291 0.931 1_655 S
C264 O278 1.282 . S
C264 O279 1.254 1_545 S
C265 O280 1.251 1_455 S
C265 O281 1.251 . S
C266 Eu267 2.835 . S
C266 C268 1.500 . S
C266 O282 1.257 . S
C266 O283 1.260 . S
Eu267 C266 2.835 . S
Eu267 O279 2.355 1_455 S
Eu267 O281 2.374 1_565 S
Eu267 O282 2.473 . S
Eu267 O283 2.480 . S
Eu267 O284 2.430 . S
Eu267 O285 2.670 1_565 S
Eu267 O286 2.394 . S
C268 C266 1.500 . S
C268 C269 1.377 . S
C268 C273 1.377 . S
C269 C268 1.377 . S
C269 C270 1.395 . S
C269 H292 0.931 . S
C270 C269 1.395 . S
C270 C271 1.383 . S
C270 H293 0.931 . S
C271 C270 1.383 . S
C271 C272 1.394 . S
C272 C271 1.394 . S
C272 C273 1.378 . S
C272 H294 0.931 1_455 S
C273 C268 1.377 . S
C273 C272 1.378 . S
C273 H295 0.931 1_455 S
C274 O284 1.275 . S
C274 O285 1.259 1_565 S
C275 O286 1.251 1_655 S
C275 O287 1.251 . S
O276 C256 1.257 . S
O276 Eu257 2.473 . S
O277 C256 1.260 . S
O277 Eu257 2.480 . S
O278 Eu257 2.430 . S
O278 C264 1.282 . S
O279 Eu257 2.670 1_565 S
O279 C264 1.254 1_565 S
O279 Eu267 2.355 1_655 S
O280 Eu257 2.394 . S
O280 C265 1.251 1_655 S
O281 C265 1.251 . S
O281 Eu267 2.374 1_545 S
O282 C266 1.257 . S
O282 Eu267 2.473 . S
O283 C266 1.260 . S
O283 Eu267 2.480 . S
O284 Eu267 2.430 . S
O284 C274 1.275 . S
O285 Eu257 2.355 1_455 S
O285 Eu267 2.670 1_545 S
O285 C274 1.259 1_545 S
O286 Eu267 2.394 . S
O286 C275 1.251 1_455 S
O287 Eu257 2.374 1_565 S
O287 C275 1.251 . S
H288 C259 0.931 . S
H289 C260 0.931 . S
H290 C262 0.931 1_455 S
H291 C263 0.931 1_455 S
H292 C269 0.931 . S
H293 C270 0.931 . S
H294 C272 0.931 1_655 S
H295 C273 0.931 1_655 S
C296 Eu297 2.835 . S
C296 C298 1.500 . S
C296 O316 1.257 . S
C296 O317 1.260 . S
Eu297 C296 2.835 . S
Eu297 O316 2.473 . S
Eu297 O317 2.480 . S
Eu297 O318 2.430 . S
Eu297 O319 2.670 . S
Eu297 O320 2.394 . S
Eu297 O325 2.355 1_565 S
Eu297 O327 2.374 . S
C298 C296 1.500 . S
C298 C299 1.377 . S
C298 C303 1.377 . S
C299 C298 1.377 . S
C299 C300 1.395 . S
C299 H328 0.931 . S
C300 C299 1.395 . S
C300 C301 1.383 . S
C300 H329 0.931 . S
C301 C300 1.383 . S
C301 C302 1.394 . S
C302 C301 1.394 . S
C302 C303 1.378 . S
C302 H330 0.931 1_565 S
C303 C298 1.377 . S
C303 C302 1.378 . S
C303 H331 0.931 1_565 S
C304 O318 1.259 . S
C304 O319 1.270 . S
C305 O320 1.251 1_545 S
C305 O321 1.251 . S
C306 Eu307 2.835 . S
C306 C308 1.500 . S
C306 O322 1.257 . S
C306 O323 1.260 . S
Eu307 C306 2.835 . S
Eu307 O319 2.355 1_545 S
Eu307 O321 2.374 . S
Eu307 O322 2.473 . S
Eu307 O323 2.480 . S
Eu307 O324 2.430 . S
Eu307 O325 2.670 . S
Eu307 O326 2.394 . S
C308 C306 1.500 . S
C308 C309 1.377 . S
C308 C313 1.377 . S
C309 C308 1.377 . S
C309 C310 1.395 . S
C309 H332 0.931 . S
C310 C309 1.395 . S
C310 C311 1.383 . S
C310 H333 0.931 . S
C311 C310 1.383 . S
C311 C312 1.394 . S
C312 C311 1.394 . S
C312 C313 1.378 . S
C312 H334 0.931 1_545 S
C313 C308 1.377 . S
C313 C312 1.378 . S
C313 H335 0.931 1_545 S
C314 O324 1.259 . S
C314 O325 1.270 . S
C315 O326 1.251 1_565 S
C315 O327 1.251 . S
O316 C296 1.257 . S
O316 Eu297 2.473 . S
O317 C296 1.260 . S
O317 Eu297 2.480 . S
O318 Eu297 2.430 . S
O318 C304 1.259 . S
O319 Eu297 2.670 . S
O319 C304 1.270 . S
O319 Eu307 2.355 1_565 S
O320 Eu297 2.394 . S
O320 C305 1.251 1_565 S
O321 C305 1.251 . S
O321 Eu307 2.374 . S
O322 C306 1.257 . S
O322 Eu307 2.473 . S
O323 C306 1.260 . S
O323 Eu307 2.480 . S
O324 Eu307 2.430 . S
O324 C314 1.259 . S
O325 Eu297 2.355 1_545 S
O325 Eu307 2.670 . S
O325 C314 1.270 . S
O326 Eu307 2.394 . S
O326 C315 1.251 1_545 S
O327 Eu297 2.374 . S
O327 C315 1.251 . S
H328 C299 0.931 . S
H329 C300 0.931 . S
H330 C302 0.931 1_545 S
H331 C303 0.931 1_545 S
H332 C309 0.931 . S
H333 C310 0.931 . S
H334 C312 0.931 1_565 S
H335 C313 0.931 1_565 S
C336 Eu337 2.835 . S
C336 C338 1.500 . S
C336 O356 1.257 . S
C336 O357 1.260 . S
Eu337 C336 2.835 . S
Eu337 O356 2.473 . S
Eu337 O357 2.480 . S
Eu337 O358 2.430 . S
Eu337 O359 2.670 . S
Eu337 O360 2.394 . S
Eu337 O365 2.355 . S
Eu337 O367 2.374 . S
C338 C336 1.500 . S
C338 C339 1.377 . S
C338 C343 1.377 . S
C339 C338 1.377 . S
C339 C340 1.395 . S
C339 H368 0.931 . S
C340 C339 1.395 . S
C340 C341 1.383 . S
C340 H369 0.931 . S
C341 C340 1.383 . S
C341 C342 1.394 . S
C342 C341 1.394 . S
C342 C343 1.378 . S
C342 H370 0.931 . S
C343 C338 1.377 . S
C343 C342 1.378 . S
C343 H371 0.931 . S
C344 O358 1.259 . S
C344 O359 1.270 . S
C345 O360 1.251 . S
C345 O361 1.251 . S
C346 Eu347 2.835 . S
C346 C348 1.500 . S
C346 O362 1.257 . S
C346 O363 1.260 . S
Eu347 C346 2.835 . S
Eu347 O359 2.355 . S
Eu347 O361 2.374 . S
Eu347 O362 2.473 . S
Eu347 O363 2.480 . S
Eu347 O364 2.430 . S
Eu347 O365 2.670 . S
Eu347 O366 2.394 . S
C348 C346 1.500 . S
C348 C349 1.377 . S
C348 C353 1.377 . S
C349 C348 1.377 . S
C349 C350 1.395 . S
C349 H372 0.931 . S
C350 C349 1.395 . S
C350 C351 1.383 . S
C350 H373 0.931 . S
C351 C350 1.383 . S
C351 C352 1.394 . S
C352 C351 1.394 . S
C352 C353 1.378 . S
C352 H374 0.931 . S
C353 C348 1.377 . S
C353 C352 1.378 . S
C353 H375 0.931 . S
C354 O364 1.259 . S
C354 O365 1.270 . S
C355 O366 1.251 . S
C355 O367 1.251 . S
O356 C336 1.257 . S
O356 Eu337 2.473 . S
O357 C336 1.260 . S
O357 Eu337 2.480 . S
O358 Eu337 2.430 . S
O358 C344 1.259 . S
O359 Eu337 2.670 . S
O359 C344 1.270 . S
O359 Eu347 2.355 . S
O360 Eu337 2.394 . S
O360 C345 1.251 . S
O361 C345 1.251 . S
O361 Eu347 2.374 . S
O362 C346 1.257 . S
O362 Eu347 2.473 . S
O363 C346 1.260 . S
O363 Eu347 2.480 . S
O364 Eu347 2.430 . S
O364 C354 1.259 . S
O365 Eu337 2.355 . S
O365 Eu347 2.670 . S
O365 C354 1.270 . S
O366 Eu347 2.394 . S
O366 C355 1.251 . S
O367 Eu337 2.374 . S
O367 C355 1.251 . S
H368 C339 0.931 . S
H369 C340 0.931 . S
H370 C342 0.931 . S
H371 C343 0.931 . S
H372 C349 0.931 . S
H373 C350 0.931 . S
H374 C352 0.931 . S
H375 C353 0.931 . S
C376 Eu377 2.835 . S
C376 C378 1.500 . S
C376 O396 1.257 . S
C376 O397 1.260 . S
Eu377 C376 2.835 . S
Eu377 O396 2.473 . S
Eu377 O397 2.480 . S
Eu377 O398 2.430 . S
Eu377 O399 2.670 1_455 S
Eu377 O400 2.394 . S
Eu377 O405 2.355 . S
Eu377 O407 2.374 1_455 S
C378 C376 1.500 . S
C378 C379 1.377 . S
C378 C383 1.377 . S
C379 C378 1.377 . S
C379 C380 1.395 . S
C379 H408 0.931 . S
C380 C379 1.395 . S
C380 C381 1.383 . S
C380 H409 0.931 . S
C381 C380 1.383 . S
C381 C382 1.394 . S
C382 C381 1.394 . S
C382 C383 1.378 . S
C382 H410 0.931 . S
C383 C378 1.377 . S
C383 C382 1.378 . S
C383 H411 0.931 . S
C384 O398 1.276 . S
C384 O399 1.258 1_455 S
C385 O400 1.251 . S
C385 O401 1.251 . S
C386 Eu387 2.835 . S
C386 C388 1.500 . S
C386 O402 1.257 . S
C386 O403 1.260 . S
Eu387 C386 2.835 . S
Eu387 O399 2.355 . S
Eu387 O401 2.374 1_655 S
Eu387 O402 2.473 . S
Eu387 O403 2.480 . S
Eu387 O404 2.430 . S
Eu387 O405 2.670 1_655 S
Eu387 O406 2.394 . S
C388 C386 1.500 . S
C388 C389 1.377 . S
C388 C393 1.377 . S
C389 C388 1.377 . S
C389 C390 1.395 . S
C389 H412 0.931 . S
C390 C389 1.395 . S
C390 C391 1.383 . S
C390 H413 0.931 . S
C391 C390 1.383 . S
C391 C392 1.394 . S
C392 C391 1.394 . S
C392 C393 1.378 . S
C392 H414 0.931 . S
C393 C388 1.377 . S
C393 C392 1.378 . S
C393 H415 0.931 . S
C394 O404 1.269 . S
C394 O405 1.263 1_655 S
C395 O406 1.251 . S
C395 O407 1.251 . S
O396 C376 1.257 . S
O396 Eu377 2.473 . S
O397 C376 1.260 . S
O397 Eu377 2.480 . S
O398 Eu377 2.430 . S
O398 C384 1.276 . S
O399 Eu377 2.670 1_655 S
O399 C384 1.258 1_655 S
O399 Eu387 2.355 . S
O400 Eu377 2.394 . S
O400 C385 1.251 . S
O401 C385 1.251 . S
O401 Eu387 2.374 1_455 S
O402 C386 1.257 . S
O402 Eu387 2.473 . S
O403 C386 1.260 . S
O403 Eu387 2.480 . S
O404 Eu387 2.430 . S
O404 C394 1.269 . S
O405 Eu377 2.355 . S
O405 Eu387 2.670 1_455 S
O405 C394 1.263 1_455 S
O406 Eu387 2.394 . S
O406 C395 1.251 . S
O407 Eu377 2.374 1_655 S
O407 C395 1.251 . S
H408 C379 0.931 . S
H409 C380 0.931 . S
H410 C382 0.931 . S
H411 C383 0.931 . S
H412 C389 0.931 . S
H413 C390 0.931 . S
H414 C392 0.931 . S
H415 C393 0.931 . S
H416 C424 0.929 . S
H417 C426 0.930 . S
H418 C428 0.930 . S
H419 C431 0.929 . S
H420 C434 0.930 . S
H421 C436 0.960 . S
H422 C436 0.960 . S
H423 C436 0.960 . S
C424 H416 0.929 . S
C424 C425 1.378 . S
C424 C426 1.384 . S
C425 C424 1.378 . S
C425 C431 1.390 1_565 S
C426 H417 0.930 . S
C426 C424 1.384 . S
C426 C427 1.372 . S
C427 C426 1.372 . S
C427 C428 1.400 1_565 S
C427 C432 1.489 1_565 S
C428 H418 0.930 . S
C428 C427 1.400 1_545 S
C428 C431 1.386 . S
H429 C445 0.930 . S
H430 C446 0.931 . S
C431 H419 0.929 . S
C431 C425 1.390 1_545 S
C431 C428 1.386 . S
C432 C427 1.489 1_545 S
C432 C434 1.416 . S
C432 C435 1.383 1_545 S
H433 C439 0.930 . S
C434 H420 0.930 . S
C434 C432 1.416 . S
C434 C437 1.403 . S
C435 C432 1.383 1_565 S
C435 C436 1.524 . S
C435 C439 1.400 . S
C436 H421 0.960 . S
C436 H422 0.960 . S
C436 H423 0.960 . S
C436 C435 1.524 . S
C437 C434 1.403 . S
C437 C438 1.392 . S
C437 C441 1.495 . S
C438 C437 1.392 . S
C438 C439 1.385 1_545 S
C438 C440 1.478 . S
C439 H433 0.930 . S
C439 C435 1.400 . S
C439 C438 1.385 1_565 S
C440 C438 1.478 . S
C440 C442 1.381 1_545 S
C440 C446 1.383 . S
C441 C437 1.495 . S
C441 H447 0.959 . S
C441 H448 0.961 . S
C441 H449 0.960 . S
C442 C440 1.381 1_565 S
C442 C443 1.394 . S
C442 H450 0.930 . S
C443 C442 1.394 . S
C443 C444 1.383 1_565 S
C443 H451 0.929 . S
C444 C443 1.383 1_545 S
C444 C445 1.377 . S
C445 H429 0.930 . S
C445 C444 1.377 . S
C445 C446 1.379 . S
C446 H430 0.931 . S
C446 C440 1.383 . S
C446 C445 1.379 . S
H447 C441 0.959 . S
H448 C441 0.961 . S
H449 C441 0.960 . S
H450 C442 0.930 . S
H451 C443 0.929 . S
H452 C460 0.929 . S
H453 C462 0.930 . S
H454 C464 0.930 . S
H455 C467 0.929 . S
H456 C470 0.930 . S
H457 C472 0.960 . S
H458 C472 0.960 . S
H459 C472 0.960 . S
C460 H452 0.929 . S
C460 C461 1.377 . S
C460 C462 1.384 . S
C461 C460 1.377 . S
C461 C467 1.390 . S
C462 H453 0.930 . S
C462 C460 1.384 . S
C462 C463 1.372 . S
C463 C462 1.372 . S
C463 C464 1.400 . S
C463 C468 1.490 . S
C464 H454 0.930 . S
C464 C463 1.400 . S
C464 C467 1.386 . S
H465 C481 0.930 . S
H466 C482 0.931 . S
C467 H455 0.929 . S
C467 C461 1.390 . S
C467 C464 1.386 . S
C468 C463 1.490 . S
C468 C470 1.395 . S
C468 C471 1.403 . S
H469 C475 0.930 . S
C470 H456 0.930 . S
C470 C468 1.395 . S
C470 C473 1.403 . S
C471 C468 1.403 . S
C471 C472 1.524 . S
C471 C475 1.400 . S
C472 H457 0.960 . S
C472 H458 0.960 . S
C472 H459 0.960 . S
C472 C471 1.524 . S
C473 C470 1.403 . S
C473 C474 1.392 . S
C473 C477 1.495 . S
C474 C473 1.392 . S
C474 C475 1.385 . S
C474 C476 1.478 . S
C475 H469 0.930 . S
C475 C471 1.400 . S
C475 C474 1.385 . S
C476 C474 1.478 . S
C476 C478 1.381 . S
C476 C482 1.383 . S
C477 C473 1.495 . S
C477 H483 0.959 . S
C477 H484 0.961 . S
C477 H485 0.960 . S
C478 C476 1.381 . S
C478 C479 1.394 . S
C478 H486 0.930 . S
C479 C478 1.394 . S
C479 C480 1.383 . S
C479 H487 0.929 . S
C480 C479 1.383 . S
C480 C481 1.377 . S
C481 H465 0.930 . S
C481 C480 1.377 . S
C481 C482 1.379 . S
C482 H466 0.931 . S
C482 C476 1.383 . S
C482 C481 1.379 . S
H483 C477 0.959 . S
H484 C477 0.961 . S
H485 C477 0.960 . S
H486 C478 0.930 . S
H487 C479 0.929 . S
H488 C496 0.929 . S
H489 C498 0.930 . S
H490 C500 0.930 . S
H491 C503 0.929 . S
H492 C506 0.930 . S
H493 C508 0.960 . S
H494 C508 0.960 . S
H495 C508 0.960 . S
C496 H488 0.929 . S
C496 C497 1.377 . S
C496 C498 1.384 . S
C497 C496 1.377 . S
C497 C503 1.390 . S
C498 H489 0.930 . S
C498 C496 1.384 . S
C498 C499 1.372 . S
C499 C498 1.372 . S
C499 C500 1.400 . S
C499 C504 1.490 . S
C500 H490 0.930 . S
C500 C499 1.400 . S
C500 C503 1.386 . S
H501 C517 0.930 . S
H502 C518 0.931 . S
C503 H491 0.929 . S
C503 C497 1.390 . S
C503 C500 1.386 . S
C504 C499 1.490 . S
C504 C506 1.395 . S
C504 C507 1.403 . S
H505 C511 0.930 . S
C506 H492 0.930 . S
C506 C504 1.395 . S
C506 C509 1.403 . S
C507 C504 1.403 . S
C507 C508 1.524 . S
C507 C511 1.400 . S
C508 H493 0.960 . S
C508 H494 0.960 . S
C508 H495 0.960 . S
C508 C507 1.524 . S
C509 C506 1.403 . S
C509 C510 1.392 . S
C509 C513 1.495 . S
C510 C509 1.392 . S
C510 C511 1.385 . S
C510 C512 1.478 . S
C511 H505 0.930 . S
C511 C507 1.400 . S
C511 C510 1.385 . S
C512 C510 1.478 . S
C512 C514 1.381 . S
C512 C518 1.383 . S
C513 C509 1.495 . S
C513 H519 0.959 . S
C513 H520 0.961 . S
C513 H521 0.960 . S
C514 C512 1.381 . S
C514 C515 1.394 . S
C514 H522 0.930 . S
C515 C514 1.394 . S
C515 C516 1.383 . S
C515 H523 0.929 . S
C516 C515 1.383 . S
C516 C517 1.377 . S
C517 H501 0.930 . S
C517 C516 1.377 . S
C517 C518 1.379 . S
C518 H502 0.931 . S
C518 C512 1.383 . S
C518 C517 1.379 . S
H519 C513 0.959 . S
H520 C513 0.961 . S
H521 C513 0.960 . S
H522 C514 0.930 . S
H523 C515 0.929 . S
H524 C532 0.929 . S
H525 C534 0.930 . S
H526 C536 0.930 . S
H527 C539 0.929 . S
H528 C542 0.930 . S
H529 C544 0.960 . S
H530 C544 0.960 1_655 S
H531 C544 0.960 . S
C532 H524 0.929 . S
C532 C533 1.377 . S
C532 C534 1.384 . S
C533 C532 1.377 . S
C533 C539 1.390 1_655 S
C534 H525 0.930 . S
C534 C532 1.384 . S
C534 C535 1.407 . S
C535 C534 1.407 . S
C535 C536 1.364 1_655 S
C535 C540 1.490 . S
C536 H526 0.930 . S
C536 C535 1.364 1_455 S
C536 C539 1.386 . S
H537 C553 0.930 . S
H538 C554 0.931 . S
C539 H527 0.929 . S
C539 C533 1.390 1_455 S
C539 C536 1.386 . S
C540 C535 1.490 . S
C540 C542 1.401 . S
C540 C543 1.398 1_655 S
H541 C547 0.930 . S
C542 H528 0.930 . S
C542 C540 1.401 . S
C542 C545 1.403 . S
C543 C540 1.398 1_455 S
C543 C544 1.524 . S
C543 C547 1.400 . S
C544 H529 0.960 . S
C544 H530 0.960 1_455 S
C544 H531 0.960 . S
C544 C543 1.524 . S
C545 C542 1.403 . S
C545 C546 1.397 . S
C545 C549 1.495 . S
C546 C545 1.397 . S
C546 C547 1.381 1_655 S
C546 C548 1.477 1_655 S
C547 H541 0.930 . S
C547 C543 1.400 . S
C547 C546 1.381 1_455 S
C548 C546 1.477 1_455 S
C548 C550 1.386 1_455 S
C548 C554 1.378 . S
C549 C545 1.495 . S
C549 H555 0.959 . S
C549 H556 0.961 1_655 S
C549 H557 0.960 . S
C550 C548 1.386 1_655 S
C550 C551 1.394 . S
C550 H558 0.930 . S
C551 C550 1.394 . S
C551 C552 1.345 1_655 S
C551 H559 0.929 . S
C552 C551 1.345 1_455 S
C552 C553 1.414 . S
C553 H537 0.930 . S
C553 C552 1.414 . S
C553 C554 1.379 . S
C554 H538 0.931 . S
C554 C548 1.378 . S
C554 C553 1.379 . S
H555 C549 0.959 . S
H556 C549 0.961 1_455 S
H557 C549 0.960 . S
H558 C550 0.930 . S
H559 C551 0.929 . S
H560 C568 0.929 . S
H561 C570 0.930 . S
H562 C572 0.930 . S
H563 C575 0.929 . S
H564 C578 0.930 . S
H565 C580 0.960 . S
H566 C580 0.960 . S
H567 C580 0.960 1_565 S
C568 H560 0.929 . S
C568 C569 1.389 . S
C568 C570 1.384 . S
C569 C568 1.389 . S
C569 C575 1.378 1_545 S
C570 H561 0.930 . S
C570 C568 1.384 . S
C570 C571 1.413 . S
C571 C570 1.413 . S
C571 C572 1.359 1_545 S
C571 C576 1.490 . S
C572 H562 0.930 . S
C572 C571 1.359 1_565 S
C572 C575 1.386 . S
H573 C589 0.930 . S
H574 C590 0.931 . S
C575 H563 0.929 . S
C575 C569 1.378 1_565 S
C575 C572 1.386 . S
C576 C571 1.490 . S
C576 C578 1.393 1_545 S
C576 C579 1.406 1_554 S
H577 C583 0.930 . S
C578 H564 0.930 . S
C578 C576 1.393 1_565 S
C578 C581 1.403 . S
C579 C576 1.406 1_556 S
C579 C580 1.524 . S
C579 C583 1.400 . S
C580 H565 0.960 . S
C580 H566 0.960 . S
C580 H567 0.960 1_545 S
C580 C579 1.524 . S
C581 C578 1.403 . S
C581 C582 1.392 1_564 S
C581 C585 1.498 . S
C582 C581 1.392 1_546 S
C582 C583 1.385 . S
C582 C584 1.477 1_545 S
C583 H577 0.930 . S
C583 C579 1.400 . S
C583 C582 1.385 . S
C584 C582 1.477 1_565 S
C584 C586 1.360 1_565 S
C584 C590 1.404 . S
C585 C581 1.498 . S
C585 H591 0.959 . S
C585 H592 0.961 . S
C585 H593 0.960 1_565 S
C586 C584 1.360 1_545 S
C586 C587 1.394 . S
C586 H594 0.930 . S
C587 C586 1.394 . S
C587 C588 1.353 1_545 S
C587 H595 0.929 . S
C588 C587 1.353 1_565 S
C588 C589 1.408 . S
C589 H573 0.930 . S
C589 C588 1.408 . S
C589 C590 1.379 . S
C590 H574 0.931 . S
C590 C584 1.404 . S
C590 C589 1.379 . S
H591 C585 0.959 . S
H592 C585 0.961 . S
H593 C585 0.960 1_545 S
H594 C586 0.930 . S
H595 C587 0.929 . S
H596 C604 0.929 . S
H597 C606 0.930 . S
H598 C608 0.930 . S
H599 C611 0.929 . S
H600 C614 0.930 . S
H601 C616 0.960 . S
H602 C616 0.960 . S
H603 C616 0.960 . S
C604 H596 0.929 . S
C604 C605 1.377 . S
C604 C606 1.384 . S
C605 C604 1.377 . S
C605 C611 1.390 . S
C606 H597 0.930 . S
C606 C604 1.384 . S
C606 C607 1.372 . S
C607 C606 1.372 . S
C607 C608 1.400 . S
C607 C612 1.490 . S
C608 H598 0.930 . S
C608 C607 1.400 . S
C608 C611 1.386 . S
H609 C625 0.930 . S
H610 C626 0.931 . S
C611 H599 0.929 . S
C611 C605 1.390 . S
C611 C608 1.386 . S
C612 C607 1.490 . S
C612 C614 1.395 . S
C612 C615 1.403 . S
H613 C619 0.930 . S
C614 H600 0.930 . S
C614 C612 1.395 . S
C614 C617 1.403 1_554 S
C615 C612 1.403 . S
C615 C616 1.524 . S
C615 C619 1.400 1_554 S
C616 H601 0.960 . S
C616 H602 0.960 . S
C616 H603 0.960 . S
C616 C615 1.524 . S
C617 C614 1.403 1_556 S
C617 C618 1.392 . S
C617 C621 1.495 . S
C618 C617 1.392 . S
C618 C619 1.385 . S
C618 C620 1.478 . S
C619 H613 0.930 . S
C619 C615 1.400 1_556 S
C619 C618 1.385 . S
C620 C618 1.478 . S
C620 C622 1.381 . S
C620 C626 1.383 . S
C621 C617 1.495 . S
C621 H627 0.959 . S
C621 H628 0.961 . S
C621 H629 0.960 . S
C622 C620 1.381 . S
C622 C623 1.394 . S
C622 H630 0.930 . S
C623 C622 1.394 . S
C623 C624 1.383 . S
C623 H631 0.929 . S
C624 C623 1.383 . S
C624 C625 1.377 . S
C625 H609 0.930 . S
C625 C624 1.377 . S
C625 C626 1.379 . S
C626 H610 0.931 . S
C626 C620 1.383 . S
C626 C625 1.379 . S
H627 C621 0.959 . S
H628 C621 0.961 . S
H629 C621 0.960 . S
H630 C622 0.930 . S
H631 C623 0.929 . S
H632 C640 0.929 . S
H633 C642 0.930 . S
H634 C644 0.930 . S
H635 C647 0.929 . S
H636 C650 0.930 . S
H637 C652 0.960 . S
H638 C652 0.960 1_554 S
H639 C652 0.960 1_554 S
C640 H632 0.929 . S
C640 C641 1.377 . S
C640 C642 1.384 . S
C641 C640 1.377 . S
C641 C647 1.390 . S
C642 H633 0.930 . S
C642 C640 1.384 . S
C642 C643 1.372 . S
C643 C642 1.372 . S
C643 C644 1.400 . S
C643 C648 1.490 . S
C644 H634 0.930 . S
C644 C643 1.400 . S
C644 C647 1.386 . S
H645 C661 0.930 . S
H646 C662 0.931 . S
C647 H635 0.929 . S
C647 C641 1.390 . S
C647 C644 1.386 . S
C648 C643 1.490 . S
C648 C650 1.395 . S
C648 C651 1.403 1_554 S
H649 C655 0.930 . S
C650 H636 0.930 . S
C650 C648 1.395 . S
C650 C653 1.403 1_554 S
C651 C648 1.403 1_556 S
C651 C652 1.524 . S
C651 C655 1.400 . S
C652 H637 0.960 . S
C652 H638 0.960 1_556 S
C652 H639 0.960 1_556 S
C652 C651 1.524 . S
C653 C650 1.403 1_556 S
C653 C654 1.392 . S
C653 C657 1.496 . S
C654 C653 1.392 . S
C654 C655 1.385 . S
C654 C656 1.478 . S
C655 H649 0.930 . S
C655 C651 1.400 . S
C655 C654 1.385 . S
C656 C654 1.478 . S
C656 C658 1.381 . S
C656 C662 1.383 . S
C657 C653 1.496 . S
C657 H663 0.946 1_556 S
C657 H664 0.972 . S
C657 H665 0.961 . S
C658 C656 1.381 . S
C658 C659 1.394 . S
C658 H666 0.930 . S
C659 C658 1.394 . S
C659 C660 1.383 . S
C659 H667 0.929 . S
C660 C659 1.383 . S
C660 C661 1.377 . S
C661 H645 0.930 . S
C661 C660 1.377 . S
C661 C662 1.379 . S
C662 H646 0.931 . S
C662 C656 1.383 . S
C662 C661 1.379 . S
H663 C657 0.946 1_554 S
H664 C657 0.972 . S
H665 C657 0.961 . S
H666 C658 0.930 . S
H667 C659 0.929 . S
H668 C676 0.929 . S
H669 C678 0.930 . S
H670 C680 0.930 . S
H671 C683 0.929 . S
H672 C686 0.930 . S
H673 C688 0.960 1_556 S
H674 C688 0.960 . S
H675 C688 0.960 . S
C676 H668 0.929 . S
C676 C677 1.373 1_455 S
C676 C678 1.384 . S
C677 C676 1.373 1_655 S
C677 C683 1.394 . S
C678 H669 0.930 . S
C678 C676 1.384 . S
C678 C679 1.381 . S
C679 C678 1.381 . S
C679 C680 1.390 1_455 S
C679 C684 1.489 . S
C680 H670 0.930 . S
C680 C679 1.390 1_655 S
C680 C683 1.386 . S
H681 C697 0.930 . S
H682 C698 0.931 . S
C683 H671 0.929 . S
C683 C677 1.394 . S
C683 C680 1.386 . S
C684 C679 1.489 . S
C684 C686 1.442 . S
C684 C687 1.359 1_455 S
H685 C691 0.930 . S
C686 H672 0.930 . S
C686 C684 1.442 . S
C686 C689 1.403 1_554 S
C687 C684 1.359 1_655 S
C687 C688 1.524 . S
C687 C691 1.400 1_554 S
C688 H673 0.960 1_554 S
C688 H674 0.960 . S
C688 H675 0.960 . S
C688 C687 1.524 . S
C689 C686 1.403 1_556 S
C689 C690 1.392 . S
C689 C693 1.495 . S
C690 C689 1.392 . S
C690 C691 1.385 1_455 S
C690 C692 1.478 . S
C691 H685 0.930 . S
C691 C687 1.400 1_556 S
C691 C690 1.385 1_655 S
C692 C690 1.478 . S
C692 C694 1.381 . S
C692 C698 1.383 1_455 S
C693 C689 1.495 . S
C693 H699 0.964 . S
C693 H700 0.961 . S
C693 H701 0.960 . S
C694 C692 1.381 . S
C694 C695 1.394 . S
C694 H702 0.930 . S
C695 C694 1.394 . S
C695 C696 1.400 . S
C695 H703 0.929 . S
C696 C695 1.400 . S
C696 C697 1.362 1_455 S
C697 H681 0.930 . S
C697 C696 1.362 1_655 S
C697 C698 1.379 . S
C698 H682 0.931 . S
C698 C692 1.383 1_655 S
C698 C697 1.379 . S
H699 C693 0.964 . S
H700 C693 0.961 . S
H701 C693 0.960 . S
H702 C694 0.930 . S
H703 C695 0.929 . S
H704 C712 0.929 . S
H705 C714 0.930 . S
H706 C716 0.930 . S
H707 C719 0.929 . S
H708 C722 0.930 . S
H709 C724 0.960 . S
H710 C724 0.960 . S
H711 C724 0.960 . S
C712 H704 0.929 . S
C712 C713 1.377 1_655 S
C712 C714 1.384 . S
C713 C712 1.377 1_455 S
C713 C719 1.390 . S
C714 H705 0.930 . S
C714 C712 1.384 . S
C714 C715 1.372 . S
C715 C714 1.372 . S
C715 C716 1.400 1_655 S
C715 C720 1.490 . S
C716 H706 0.930 . S
C716 C715 1.400 1_455 S
C716 C719 1.386 . S
H717 C733 0.930 . S
H718 C734 0.931 . S
C719 H707 0.929 . S
C719 C713 1.390 . S
C719 C716 1.386 . S
C720 C715 1.490 . S
C720 C722 1.395 . S
C720 C723 1.403 1_655 S
H721 C727 0.921 1_455 S
C722 H708 0.930 . S
C722 C720 1.395 . S
C722 C725 1.403 . S
C723 C720 1.403 1_455 S
C723 C724 1.524 . S
C723 C727 1.396 1_455 S
C724 H709 0.960 . S
C724 H710 0.960 . S
C724 H711 0.960 . S
C724 C723 1.524 . S
C725 C722 1.403 . S
C725 C726 1.392 . S
C725 C729 1.495 . S
C726 C725 1.392 . S
C726 C727 1.398 . S
C726 C728 1.478 . S
C727 H721 0.921 1_655 S
C727 C723 1.396 1_655 S
C727 C726 1.398 . S
C728 C726 1.478 . S
C728 C730 1.381 . S
C728 C734 1.383 . S
C729 C725 1.495 . S
C729 H735 0.959 . S
C729 H736 0.961 . S
C729 H737 0.960 . S
C730 C728 1.381 . S
C730 C731 1.394 . S
C730 H738 0.930 . S
C731 C730 1.394 . S
C731 C732 1.383 . S
C731 H739 0.929 . S
C732 C731 1.383 . S
C732 C733 1.377 . S
C733 H717 0.930 . S
C733 C732 1.377 . S
C733 C734 1.379 . S
C734 H718 0.931 . S
C734 C728 1.383 . S
C734 C733 1.379 . S
H735 C729 0.959 . S
H736 C729 0.961 . S
H737 C729 0.960 . S
H738 C730 0.930 . S
H739 C731 0.929 . S
H740 C748 0.929 . S
H741 C750 0.930 . S
H742 C752 0.930 . S
H743 C755 0.929 . S
H744 C758 0.930 . S
H745 C760 0.960 . S
H746 C760 0.960 . S
H747 C760 0.960 . S
C748 H740 0.929 . S
C748 C749 1.377 1_565 S
C748 C750 1.384 . S
C749 C748 1.377 1_545 S
C749 C755 1.390 . S
C750 H741 0.930 . S
C750 C748 1.384 . S
C750 C751 1.372 . S
C751 C750 1.372 . S
C751 C752 1.400 1_565 S
C751 C756 1.490 . S
C752 H742 0.930 . S
C752 C751 1.400 1_545 S
C752 C755 1.386 . S
H753 C769 0.930 . S
H754 C770 0.931 . S
C755 H743 0.929 . S
C755 C749 1.390 . S
C755 C752 1.386 . S
C756 C751 1.490 . S
C756 C758 1.395 1_565 S
C756 C759 1.403 . S
H757 C763 0.930 . S
C758 H744 0.930 . S
C758 C756 1.395 1_545 S
C758 C761 1.400 1_545 S
C759 C756 1.403 . S
C759 C760 1.524 . S
C759 C763 1.400 . S
C760 H745 0.960 . S
C760 H746 0.960 . S
C760 H747 0.960 . S
C760 C759 1.524 . S
C761 C758 1.400 1_565 S
C761 C762 1.419 . S
C761 C765 1.473 1_565 S
C762 C761 1.419 . S
C762 C763 1.385 . S
C762 C764 1.478 . S
C763 H757 0.930 . S
C763 C759 1.400 . S
C763 C762 1.385 . S
C764 C762 1.478 . S
C764 C766 1.381 . S
C764 C770 1.383 . S
C765 C761 1.473 1_545 S
C765 H771 0.959 . S
C765 H772 0.961 . S
C765 H773 0.960 . S
C766 C764 1.381 . S
C766 C767 1.394 . S
C766 H774 0.930 . S
C767 C766 1.394 . S
C767 C768 1.383 . S
C767 H775 0.929 . S
C768 C767 1.383 . S
C768 C769 1.377 . S
C769 H753 0.930 . S
C769 C768 1.377 . S
C769 C770 1.379 . S
C770 H754 0.931 . S
C770 C764 1.383 . S
C770 C769 1.379 . S
H771 C765 0.959 . S
H772 C765 0.961 . S
H773 C765 0.960 . S
H774 C766 0.930 . S
H775 C767 0.929 . S
H776 C784 0.929 . S
H777 C786 0.930 . S
H778 C788 0.930 . S
H779 C791 0.929 . S
H780 C794 0.930 . S
H781 C796 0.960 . S
H782 C796 0.960 . S
H783 C796 0.960 . S
C784 H776 0.929 . S
C784 C785 1.377 . S
C784 C786 1.384 . S
C785 C784 1.377 . S
C785 C791 1.390 . S
C786 H777 0.930 . S
C786 C784 1.384 . S
C786 C787 1.372 . S
C787 C786 1.372 . S
C787 C788 1.400 . S
C787 C792 1.490 . S
C788 H778 0.930 . S
C788 C787 1.400 . S
C788 C791 1.386 . S
H789 C805 0.930 . S
H790 C806 0.931 . S
C791 H779 0.929 . S
C791 C785 1.390 . S
C791 C788 1.386 . S
C792 C787 1.490 . S
C792 C794 1.395 . S
C792 C795 1.403 . S
H793 C799 0.930 . S
C794 H780 0.930 . S
C794 C792 1.395 . S
C794 C797 1.403 . S
C795 C792 1.403 . S
C795 C796 1.524 . S
C795 C799 1.400 . S
C796 H781 0.960 . S
C796 H782 0.960 . S
C796 H783 0.960 . S
C796 C795 1.524 . S
C797 C794 1.403 . S
C797 C798 1.392 . S
C797 C801 1.495 . S
C798 C797 1.392 . S
C798 C799 1.385 . S
C798 C800 1.478 . S
C799 H793 0.930 . S
C799 C795 1.400 . S
C799 C798 1.385 . S
C800 C798 1.478 . S
C800 C802 1.381 . S
C800 C806 1.383 . S
C801 C797 1.495 . S
C801 H807 0.959 . S
C801 H808 0.961 . S
C801 H809 0.960 . S
C802 C800 1.381 . S
C802 C803 1.394 . S
C802 H810 0.930 . S
C803 C802 1.394 . S
C803 C804 1.383 . S
C803 H811 0.929 . S
C804 C803 1.383 . S
C804 C805 1.377 . S
C805 H789 0.930 . S
C805 C804 1.377 . S
C805 C806 1.379 . S
C806 H790 0.931 . S
C806 C800 1.383 . S
C806 C805 1.379 . S
H807 C801 0.959 . S
H808 C801 0.961 . S
H809 C801 0.960 . S
H810 C802 0.930 . S
H811 C803 0.929 . S
H812 C820 0.929 . S
H813 C822 0.930 . S
H814 C824 0.930 . S
H815 C827 0.929 . S
H816 C830 0.930 . S
H817 C832 0.960 . S
H818 C832 0.960 . S
H819 C832 0.960 . S
C820 H812 0.929 . S
C820 C821 1.377 . S
C820 C822 1.384 . S
C821 C820 1.377 . S
C821 C827 1.390 . S
C822 H813 0.930 . S
C822 C820 1.384 . S
C822 C823 1.372 . S
C823 C822 1.372 . S
C823 C824 1.400 . S
C823 C828 1.490 . S
C824 H814 0.930 . S
C824 C823 1.400 . S
C824 C827 1.386 . S
H825 C841 0.930 . S
H826 C842 0.931 . S
C827 H815 0.929 . S
C827 C821 1.390 . S
C827 C824 1.386 . S
C828 C823 1.490 . S
C828 C830 1.395 . S
C828 C831 1.403 . S
H829 C835 0.930 . S
C830 H816 0.930 . S
C830 C828 1.395 . S
C830 C833 1.403 . S
C831 C828 1.403 . S
C831 C832 1.524 . S
C831 C835 1.400 . S
C832 H817 0.960 . S
C832 H818 0.960 . S
C832 H819 0.960 . S
C832 C831 1.524 . S
C833 C830 1.403 . S
C833 C834 1.392 . S
C833 C837 1.495 . S
C834 C833 1.392 . S
C834 C835 1.385 . S
C834 C836 1.478 . S
C835 H829 0.930 . S
C835 C831 1.400 . S
C835 C834 1.385 . S
C836 C834 1.478 . S
C836 C838 1.381 . S
C836 C842 1.383 . S
C837 C833 1.495 . S
C837 H843 0.959 . S
C837 H844 0.961 . S
C837 H845 0.960 . S
C838 C836 1.381 . S
C838 C839 1.394 . S
C838 H846 0.930 . S
C839 C838 1.394 . S
C839 C840 1.383 . S
C839 H847 0.929 . S
C840 C839 1.383 . S
C840 C841 1.377 . S
C841 H825 0.930 . S
C841 C840 1.377 . S
C841 C842 1.379 . S
C842 H826 0.931 . S
C842 C836 1.383 . S
C842 C841 1.379 . S
H843 C837 0.959 . S
H844 C837 0.961 . S
H845 C837 0.960 . S
H846 C838 0.930 . S
H847 C839 0.929 . S
H848 C856 0.929 . S
H849 C858 0.930 . S
H850 C860 0.930 . S
H851 C863 0.929 . S
H852 C866 0.915 1_655 S
H853 C868 0.960 . S
H854 C868 0.960 . S
H855 C868 0.960 . S
C856 H848 0.929 . S
C856 C857 1.377 . S
C856 C858 1.384 . S
C857 C856 1.377 . S
C857 C863 1.390 1_655 S
C858 H849 0.930 . S
C858 C856 1.384 . S
C858 C859 1.372 1_655 S
C859 C858 1.372 1_455 S
C859 C860 1.400 . S
C859 C864 1.490 . S
C860 H850 0.930 . S
C860 C859 1.400 . S
C860 C863 1.386 . S
H861 C877 0.930 . S
H862 C878 0.931 . S
C863 H851 0.929 . S
C863 C857 1.390 1_455 S
C863 C860 1.386 . S
C864 C859 1.490 . S
C864 C866 1.395 . S
C864 C867 1.403 1_554 S
H865 C871 0.930 . S
C866 H852 0.915 1_455 S
C866 C864 1.395 . S
C866 C869 1.403 . S
C867 C864 1.403 1_556 S
C867 C868 1.524 . S
C867 C871 1.400 . S
C868 H853 0.960 . S
C868 H854 0.960 . S
C868 H855 0.960 . S
C868 C867 1.524 . S
C869 C866 1.403 . S
C869 C870 1.392 1_554 S
C869 C873 1.495 . S
C870 C869 1.392 1_556 S
C870 C871 1.385 . S
C870 C872 1.478 . S
C871 H865 0.930 . S
C871 C867 1.400 . S
C871 C870 1.385 . S
C872 C870 1.478 . S
C872 C874 1.381 . S
C872 C878 1.383 . S
C873 C869 1.495 . S
C873 H879 0.959 1_455 S
C873 H880 0.961 . S
C873 H881 0.960 1_455 S
C874 C872 1.381 . S
C874 C875 1.394 . S
C874 H882 0.930 1_455 S
C875 C874 1.394 . S
C875 C876 1.383 . S
C875 H883 0.929 1_455 S
C876 C875 1.383 . S
C876 C877 1.377 . S
C877 H861 0.930 . S
C877 C876 1.377 . S
C877 C878 1.379 . S
C878 H862 0.931 . S
C878 C872 1.383 . S
C878 C877 1.379 . S
H879 C873 0.959 1_655 S
H880 C873 0.961 . S
H881 C873 0.960 1_655 S
H882 C874 0.930 1_655 S
H883 C875 0.929 1_655 S
H884 C892 0.929 . S
H885 C894 0.930 . S
H886 C896 0.930 . S
H887 C899 0.929 . S
H888 C902 0.930 . S
H889 C904 0.960 . S
H890 C904 0.960 . S
H891 C904 0.960 1_565 S
C892 H884 0.929 . S
C892 C893 1.377 1_545 S
C892 C894 1.384 . S
C893 C892 1.377 1_565 S
C893 C899 1.390 . S
C894 H885 0.930 . S
C894 C892 1.384 . S
C894 C895 1.372 . S
C895 C894 1.372 . S
C895 C896 1.400 1_545 S
C895 C900 1.490 . S
C896 H886 0.930 . S
C896 C895 1.400 1_565 S
C896 C899 1.386 . S
H897 C913 0.930 1_565 S
H898 C914 0.931 1_565 S
C899 H887 0.929 . S
C899 C893 1.390 . S
C899 C896 1.386 . S
C900 C895 1.490 . S
C900 C902 1.395 1_554 S
C900 C903 1.403 . S
H901 C907 0.930 . S
C902 H888 0.930 . S
C902 C900 1.395 1_556 S
C902 C905 1.403 . S
C903 C900 1.403 . S
C903 C904 1.524 . S
C903 C907 1.400 . S
C904 H889 0.960 . S
C904 H890 0.960 . S
C904 H891 0.960 1_545 S
C904 C903 1.524 . S
C905 C902 1.403 . S
C905 C906 1.392 . S
C905 C909 1.495 . S
C906 C905 1.392 . S
C906 C907 1.385 1_556 S
C906 C908 1.478 . S
C907 H901 0.930 . S
C907 C903 1.400 . S
C907 C906 1.385 1_554 S
C908 C906 1.478 . S
C908 C910 1.381 . S
C908 C914 1.383 . S
C909 C905 1.495 . S
C909 H915 0.959 . S
C909 H916 0.961 . S
C909 H917 0.960 . S
C910 C908 1.381 . S
C910 C911 1.394 . S
C910 H918 0.930 . S
C911 C910 1.394 . S
C911 C912 1.383 . S
C911 H919 0.929 . S
C912 C911 1.383 . S
C912 C913 1.377 . S
C913 H897 0.930 1_545 S
C913 C912 1.377 . S
C913 C914 1.379 . S
C914 H898 0.931 1_545 S
C914 C908 1.383 . S
C914 C913 1.379 . S
H915 C909 0.959 . S
H916 C909 0.961 . S
H917 C909 0.960 . S
H918 C910 0.930 . S
H919 C911 0.929 . S
H920 C928 0.929 . S
H921 C930 0.930 . S
H922 C932 0.930 . S
H923 C935 0.929 . S
H924 C938 0.930 . S
H925 C940 0.960 . S
H926 C940 0.960 . S
H927 C940 0.960 1_554 S
C928 H920 0.929 . S
C928 C929 1.377 . S
C928 C930 1.384 . S
C929 C928 1.377 . S
C929 C935 1.390 . S
C930 H921 0.930 . S
C930 C928 1.384 . S
C930 C931 1.372 . S
C931 C930 1.372 . S
C931 C932 1.400 . S
C931 C936 1.490 . S
C932 H922 0.930 . S
C932 C931 1.400 . S
C932 C935 1.386 . S
H933 C949 0.930 . S
H934 C950 0.931 . S
C935 H923 0.929 . S
C935 C929 1.390 . S
C935 C932 1.386 . S
C936 C931 1.490 . S
C936 C938 1.395 . S
C936 C939 1.403 1_554 S
H937 C943 0.930 . S
C938 H924 0.930 . S
C938 C936 1.395 . S
C938 C941 1.403 . S
C939 C936 1.403 1_556 S
C939 C940 1.523 . S
C939 C943 1.399 . S
C940 H925 0.960 . S
C940 H926 0.960 . S
C940 H927 0.960 1_556 S
C940 C939 1.523 . S
C941 C938 1.403 . S
C941 C942 1.392 1_554 S
C941 C945 1.495 . S
C942 C941 1.392 1_556 S
C942 C943 1.385 . S
C942 C944 1.478 . S
C943 H937 0.930 . S
C943 C939 1.399 . S
C943 C942 1.385 . S
C944 C942 1.478 . S
C944 C946 1.381 . S
C944 C950 1.383 . S
C945 C941 1.495 . S
C945 H951 0.959 . S
C945 H952 0.961 . S
C945 H953 0.960 . S
C946 C944 1.381 . S
C946 C947 1.394 . S
C946 H954 0.930 . S
C947 C946 1.394 . S
C947 C948 1.383 . S
C947 H955 0.929 . S
C948 C947 1.383 . S
C948 C949 1.377 . S
C949 H933 0.930 . S
C949 C948 1.377 . S
C949 C950 1.379 . S
C950 H934 0.931 . S
C950 C944 1.383 . S
C950 C949 1.379 . S
H951 C945 0.959 . S
H952 C945 0.961 . S
H953 C945 0.960 . S
H954 C946 0.930 . S
H955 C947 0.929 . S
H956 C964 0.929 . S
H957 C966 0.930 . S
H958 C968 0.930 . S
H959 C971 0.929 . S
H960 C974 0.930 . S
H961 C976 0.960 . S
H962 C976 0.960 . S
H963 C976 0.960 . S
C964 H956 0.929 . S
C964 C965 1.377 . S
C964 C966 1.384 . S
C965 C964 1.377 . S
C965 C971 1.390 . S
C966 H957 0.930 . S
C966 C964 1.384 . S
C966 C967 1.372 . S
C967 C966 1.372 . S
C967 C968 1.400 . S
C967 C972 1.490 . S
C968 H958 0.930 . S
C968 C967 1.400 . S
C968 C971 1.386 . S
H969 C985 0.930 . S
H970 C986 0.931 . S
C971 H959 0.929 . S
C971 C965 1.390 . S
C971 C968 1.386 . S
C972 C967 1.490 . S
C972 C974 1.395 . S
C972 C975 1.403 1_554 S
H973 C979 0.930 . S
C974 H960 0.930 . S
C974 C972 1.395 . S
C974 C977 1.403 . S
C975 C972 1.403 1_556 S
C975 C976 1.524 . S
C975 C979 1.400 . S
C976 H961 0.960 . S
C976 H962 0.960 . S
C976 H963 0.960 . S
C976 C975 1.524 . S
C977 C974 1.403 . S
C977 C978 1.392 1_554 S
C977 C981 1.495 . S
C978 C977 1.392 1_556 S
C978 C979 1.385 . S
C978 C980 1.478 . S
C979 H973 0.930 . S
C979 C975 1.400 . S
C979 C978 1.385 . S
C980 C978 1.478 . S
C980 C982 1.381 . S
C980 C986 1.383 . S
C981 C977 1.495 . S
C981 H987 0.959 . S
C981 H988 0.961 . S
C981 H989 0.960 . S
C982 C980 1.381 . S
C982 C983 1.394 . S
C982 H990 0.930 . S
C983 C982 1.394 . S
C983 C984 1.383 . S
C983 H991 0.929 . S
C984 C983 1.383 . S
C984 C985 1.377 . S
C985 H969 0.930 . S
C985 C984 1.377 . S
C985 C986 1.379 . S
C986 H970 0.931 . S
C986 C980 1.383 . S
C986 C985 1.379 . S
H987 C981 0.959 . S
H988 C981 0.961 . S
H989 C981 0.960 . S
H990 C982 0.930 . S
H991 C983 0.929 . S
H992 C1000 0.929 . S
H993 C1002 0.930 . S
H994 C1004 0.930 . S
H995 C1007 0.929 . S
H996 C1010 0.930 . S
H997 C1012 0.960 . S
H998 C1012 0.960 . S
H999 C1012 0.960 . S
C1000 H992 0.929 . S
C1000 C1001 1.377 . S
C1000 C1002 1.384 . S
C1001 C1000 1.377 . S
C1001 C1007 1.390 1_455 S
C1002 H993 0.930 . S
C1002 C1000 1.384 . S
C1002 C1003 1.372 . S
C1003 C1002 1.372 . S
C1003 C1004 1.400 1_455 S
C1003 C1008 1.490 . S
C1004 H994 0.930 . S
C1004 C1003 1.400 1_655 S
C1004 C1007 1.386 . S
H1005 C1021 0.930 . S
H1006 C1022 0.931 . S
C1007 H995 0.929 . S
C1007 C1001 1.390 1_655 S
C1007 C1004 1.386 . S
C1008 C1003 1.490 . S
C1008 C1010 1.395 1_455 S
C1008 C1011 1.403 . S
H1009 C1015 0.930 . S
C1010 H996 0.930 . S
C1010 C1008 1.395 1_655 S
C1010 C1013 1.403 . S
C1011 C1008 1.403 . S
C1011 C1012 1.524 . S
C1011 C1015 1.400 . S
C1012 H997 0.960 . S
C1012 H998 0.960 . S
C1012 H999 0.960 . S
C1012 C1011 1.524 . S
C1013 C1010 1.403 . S
C1013 C1014 1.392 1_655 S
C1013 C1017 1.495 . S
C1014 C1013 1.392 1_455 S
C1014 C1015 1.385 . S
C1014 C1016 1.478 . S
C1015 H1009 0.930 . S
C1015 C1011 1.400 . S
C1015 C1014 1.385 . S
C1016 C1014 1.478 . S
C1016 C1018 1.381 . S
C1016 C1022 1.383 1_455 S
C1017 C1013 1.495 . S
C1017 H1023 0.959 . S
C1017 H1024 0.961 . S
C1017 H1025 0.960 . S
C1018 C1016 1.381 . S
C1018 C1019 1.394 . S
C1018 H1026 0.930 . S
C1019 C1018 1.394 . S
C1019 C1020 1.383 . S
C1019 H1027 0.929 . S
C1020 C1019 1.383 . S
C1020 C1021 1.377 1_455 S
C1021 H1005 0.930 . S
C1021 C1020 1.377 1_655 S
C1021 C1022 1.379 . S
C1022 H1006 0.931 . S
C1022 C1016 1.383 1_655 S
C1022 C1021 1.379 . S
H1023 C1017 0.959 . S
H1024 C1017 0.961 . S
H1025 C1017 0.960 . S
H1026 C1018 0.930 . S
H1027 C1019 0.929 . S
H1028 C1036 0.929 . S
H1029 C1038 0.930 . S
H1030 C1040 0.930 . S
H1031 C1043 0.929 . S
H1032 C1046 0.930 . S
H1033 C1048 0.960 . S
H1034 C1048 0.960 . S
H1035 C1048 0.960 . S
C1036 H1028 0.929 . S
C1036 C1037 1.370 1_565 S
C1036 C1038 1.384 . S
C1037 C1036 1.370 1_545 S
C1037 C1043 1.400 . S
C1038 H1029 0.930 . S
C1038 C1036 1.384 . S
C1038 C1039 1.372 1_565 S
C1039 C1038 1.372 1_545 S
C1039 C1040 1.400 . S
C1039 C1044 1.490 . S
C1040 H1030 0.930 . S
C1040 C1039 1.400 . S
C1040 C1043 1.386 . S
H1041 C1057 0.930 . S
H1042 C1058 0.931 . S
C1043 H1031 0.929 . S
C1043 C1037 1.400 . S
C1043 C1040 1.386 . S
C1044 C1039 1.490 . S
C1044 C1046 1.395 . S
C1044 C1047 1.403 1_545 S
H1045 C1051 0.930 . S
C1046 H1032 0.930 . S
C1046 C1044 1.395 . S
C1046 C1049 1.403 . S
C1047 C1044 1.403 1_565 S
C1047 C1048 1.524 . S
C1047 C1051 1.400 . S
C1048 H1033 0.960 . S
C1048 H1034 0.960 . S
C1048 H1035 0.960 . S
C1048 C1047 1.524 . S
C1049 C1046 1.403 . S
C1049 C1050 1.392 . S
C1049 C1053 1.495 . S
C1050 C1049 1.392 . S
C1050 C1051 1.385 1_545 S
C1050 C1052 1.478 . S
C1051 H1045 0.930 . S
C1051 C1047 1.400 . S
C1051 C1050 1.385 1_565 S
C1052 C1050 1.478 . S
C1052 C1054 1.381 . S
C1052 C1058 1.383 . S
C1053 C1049 1.495 . S
C1053 H1059 0.959 . S
C1053 H1060 0.961 . S
C1053 H1061 0.960 . S
C1054 C1052 1.381 . S
C1054 C1055 1.394 . S
C1054 H1062 0.937 . S
C1055 C1054 1.394 . S
C1055 C1056 1.383 . S
C1055 H1063 0.929 1_545 S
C1056 C1055 1.383 . S
C1056 C1057 1.377 . S
C1057 H1041 0.930 . S
C1057 C1056 1.377 . S
C1057 C1058 1.379 . S
C1058 H1042 0.931 . S
C1058 C1052 1.383 . S
C1058 C1057 1.379 . S
H1059 C1053 0.959 . S
H1060 C1053 0.961 . S
H1061 C1053 0.960 . S
H1062 C1054 0.937 . S
H1063 C1055 0.929 1_565 S
H1064 C1072 0.929 . S
H1065 C1074 0.930 . S
H1066 C1076 0.930 . S
H1067 C1079 0.929 . S
H1068 C1082 0.930 . S
H1069 C1084 0.960 . S
H1070 C1084 0.960 . S
H1071 C1084 0.960 . S
C1072 H1064 0.929 . S
C1072 C1073 1.377 . S
C1072 C1074 1.384 . S
C1073 C1072 1.377 . S
C1073 C1079 1.390 . S
C1074 H1065 0.930 . S
C1074 C1072 1.384 . S
C1074 C1075 1.372 . S
C1075 C1074 1.372 . S
C1075 C1076 1.400 . S
C1075 C1080 1.490 . S
C1076 H1066 0.930 . S
C1076 C1075 1.400 . S
C1076 C1079 1.386 . S
H1077 C1093 0.930 . S
H1078 C1094 0.931 . S
C1079 H1067 0.929 . S
C1079 C1073 1.390 . S
C1079 C1076 1.386 . S
C1080 C1075 1.490 . S
C1080 C1082 1.395 . S
C1080 C1083 1.403 . S
H1081 C1087 0.930 . S
C1082 H1068 0.930 . S
C1082 C1080 1.395 . S
C1082 C1085 1.403 . S
C1083 C1080 1.403 . S
C1083 C1084 1.524 . S
C1083 C1087 1.400 . S
C1084 H1069 0.960 . S
C1084 H1070 0.960 . S
C1084 H1071 0.960 . S
C1084 C1083 1.524 . S
C1085 C1082 1.403 . S
C1085 C1086 1.392 . S
C1085 C1089 1.495 . S
C1086 C1085 1.392 . S
C1086 C1087 1.385 . S
C1086 C1088 1.478 . S
C1087 H1081 0.930 . S
C1087 C1083 1.400 . S
C1087 C1086 1.385 . S
C1088 C1086 1.478 . S
C1088 C1090 1.381 . S
C1088 C1094 1.383 . S
C1089 C1085 1.495 . S
C1089 H1095 0.959 . S
C1089 H1096 0.961 . S
C1089 H1097 0.960 . S
C1090 C1088 1.381 . S
C1090 C1091 1.394 . S
C1090 H1098 0.930 . S
C1091 C1090 1.394 . S
C1091 C1092 1.383 . S
C1091 H1099 0.929 . S
C1092 C1091 1.383 . S
C1092 C1093 1.377 . S
C1093 H1077 0.930 . S
C1093 C1092 1.377 . S
C1093 C1094 1.379 . S
C1094 H1078 0.931 . S
C1094 C1088 1.383 . S
C1094 C1093 1.379 . S
H1095 C1089 0.959 . S
H1096 C1089 0.961 . S
H1097 C1089 0.960 . S
H1098 C1090 0.930 . S
H1099 C1091 0.929 . S
H1100 C1108 0.929 . S
H1101 C1110 0.930 . S
H1102 C1112 0.930 . S
H1103 C1115 0.929 . S
H1104 C1118 0.930 . S
H1105 C1120 0.960 . S
H1106 C1120 0.960 . S
H1107 C1120 0.960 . S
C1108 H1100 0.929 . S
C1108 C1109 1.377 . S
C1108 C1110 1.384 . S
C1109 C1108 1.377 . S
C1109 C1115 1.390 . S
C1110 H1101 0.930 . S
C1110 C1108 1.384 . S
C1110 C1111 1.372 . S
C1111 C1110 1.372 . S
C1111 C1112 1.400 . S
C1111 C1116 1.490 . S
C1112 H1102 0.930 . S
C1112 C1111 1.400 . S
C1112 C1115 1.386 . S
H1113 C1129 0.930 . S
H1114 C1130 0.931 . S
C1115 H1103 0.929 . S
C1115 C1109 1.390 . S
C1115 C1112 1.386 . S
C1116 C1111 1.490 . S
C1116 C1118 1.395 . S
C1116 C1119 1.403 . S
H1117 C1123 0.930 . S
C1118 H1104 0.930 . S
C1118 C1116 1.395 . S
C1118 C1121 1.403 . S
C1119 C1116 1.403 . S
C1119 C1120 1.524 . S
C1119 C1123 1.400 . S
C1120 H1105 0.960 . S
C1120 H1106 0.960 . S
C1120 H1107 0.960 . S
C1120 C1119 1.524 . S
C1121 C1118 1.403 . S
C1121 C1122 1.392 . S
C1121 C1125 1.495 . S
C1122 C1121 1.392 . S
C1122 C1123 1.385 . S
C1122 C1124 1.478 . S
C1123 H1117 0.930 . S
C1123 C1119 1.400 . S
C1123 C1122 1.385 . S
C1124 C1122 1.478 . S
C1124 C1126 1.381 . S
C1124 C1130 1.383 . S
C1125 C1121 1.495 . S
C1125 H1131 0.959 . S
C1125 H1132 0.961 . S
C1125 H1133 0.960 . S
C1126 C1124 1.381 . S
C1126 C1127 1.394 . S
C1126 H1134 0.930 . S
C1127 C1126 1.394 . S
C1127 C1128 1.383 . S
C1127 H1135 0.929 . S
C1128 C1127 1.383 . S
C1128 C1129 1.377 . S
C1129 H1113 0.930 . S
C1129 C1128 1.377 . S
C1129 C1130 1.379 . S
C1130 H1114 0.931 . S
C1130 C1124 1.383 . S
C1130 C1129 1.379 . S
H1131 C1125 0.959 . S
H1132 C1125 0.961 . S
H1133 C1125 0.960 . S
H1134 C1126 0.930 . S
H1135 C1127 0.929 . S
H1136 C1144 0.929 . S
H1137 C1146 0.930 . S
H1138 C1148 0.930 . S
H1139 C1151 0.929 . S
H1140 C1154 0.930 . S
H1141 C1156 0.960 . S
H1142 C1156 0.960 . S
H1143 C1156 0.960 . S
C1144 H1136 0.929 . S
C1144 C1145 1.377 1_455 S
C1144 C1146 1.384 . S
C1145 C1144 1.377 1_655 S
C1145 C1151 1.390 . S
C1146 H1137 0.930 . S
C1146 C1144 1.384 . S
C1146 C1147 1.372 1_455 S
C1147 C1146 1.372 1_655 S
C1147 C1148 1.400 . S
C1147 C1152 1.490 . S
C1148 H1138 0.930 . S
C1148 C1147 1.400 . S
C1148 C1151 1.386 . S
H1149 C1165 0.930 . S
H1150 C1166 0.931 . S
C1151 H1139 0.929 . S
C1151 C1145 1.390 . S
C1151 C1148 1.386 . S
C1152 C1147 1.490 . S
C1152 C1154 1.395 1_655 S
C1152 C1155 1.403 . S
H1153 C1159 0.930 . S
C1154 H1140 0.930 . S
C1154 C1152 1.395 1_455 S
C1154 C1157 1.403 . S
C1155 C1152 1.403 . S
C1155 C1156 1.524 . S
C1155 C1159 1.400 . S
C1156 H1141 0.960 . S
C1156 H1142 0.960 . S
C1156 H1143 0.960 . S
C1156 C1155 1.524 . S
C1157 C1154 1.403 . S
C1157 C1158 1.392 1_455 S
C1157 C1161 1.495 . S
C1158 C1157 1.392 1_655 S
C1158 C1159 1.385 . S
C1158 C1160 1.478 . S
C1159 H1153 0.930 . S
C1159 C1155 1.400 . S
C1159 C1158 1.385 . S
C1160 C1158 1.478 . S
C1160 C1162 1.373 1_655 S
C1160 C1166 1.383 . S
C1161 C1157 1.495 . S
C1161 H1167 0.959 . S
C1161 H1168 0.961 . S
C1161 H1169 0.960 . S
C1162 C1160 1.373 1_455 S
C1162 C1163 1.389 1_455 S
C1162 H1170 0.948 . S
C1163 C1162 1.389 1_655 S
C1163 C1164 1.383 . S
C1163 H1171 0.924 1_655 S
C1164 C1163 1.383 . S
C1164 C1165 1.377 . S
C1165 H1149 0.930 . S
C1165 C1164 1.377 . S
C1165 C1166 1.379 . S
C1166 H1150 0.931 . S
C1166 C1160 1.383 . S
C1166 C1165 1.379 . S
H1167 C1161 0.959 . S
H1168 C1161 0.961 . S
H1169 C1161 0.960 . S
H1170 C1162 0.948 . S
H1171 C1163 0.924 1_455 S
H1172 C1180 0.929 . S
H1173 C1182 0.930 . S
H1174 C1184 0.930 . S
H1175 C1187 0.929 . S
H1176 C1190 0.934 . S
H1177 C1192 0.960 . S
H1178 C1192 0.960 1_545 S
H1179 C1192 0.960 . S
C1180 H1172 0.929 . S
C1180 C1181 1.350 1_545 S
C1180 C1182 1.384 . S
C1181 C1180 1.350 1_565 S
C1181 C1187 1.419 . S
C1182 H1173 0.930 . S
C1182 C1180 1.384 . S
C1182 C1183 1.372 1_545 S
C1183 C1182 1.372 1_565 S
C1183 C1184 1.400 . S
C1183 C1188 1.490 . S
C1184 H1174 0.930 . S
C1184 C1183 1.400 . S
C1184 C1187 1.386 . S
H1185 C1201 0.930 . S
H1186 C1202 0.931 . S
C1187 H1175 0.929 . S
C1187 C1181 1.419 . S
C1187 C1184 1.386 . S
C1188 C1183 1.490 . S
C1188 C1190 1.395 . S
C1188 C1191 1.403 . S
H1189 C1195 0.930 . S
C1190 H1176 0.934 . S
C1190 C1188 1.395 . S
C1190 C1193 1.403 . S
C1191 C1188 1.403 . S
C1191 C1192 1.524 . S
C1191 C1195 1.400 . S
C1192 H1177 0.960 . S
C1192 H1178 0.960 1_565 S
C1192 H1179 0.960 . S
C1192 C1191 1.524 . S
C1193 C1190 1.403 . S
C1193 C1194 1.392 . S
C1193 C1197 1.495 . S
C1194 C1193 1.392 . S
C1194 C1195 1.385 . S
C1194 C1196 1.478 . S
C1195 H1189 0.930 . S
C1195 C1191 1.400 . S
C1195 C1194 1.385 . S
C1196 C1194 1.478 . S
C1196 C1198 1.381 1_565 S
C1196 C1202 1.383 . S
C1197 C1193 1.495 . S
C1197 H1203 0.959 . S
C1197 H1204 0.961 . S
C1197 H1205 0.960 1_565 S
C1198 C1196 1.381 1_545 S
C1198 C1199 1.394 . S
C1198 H1206 0.930 . S
C1199 C1198 1.394 . S
C1199 C1200 1.383 1_545 S
C1199 H1207 0.929 . S
C1200 C1199 1.383 1_565 S
C1200 C1201 1.377 . S
C1201 H1185 0.930 . S
C1201 C1200 1.377 . S
C1201 C1202 1.379 . S
C1202 H1186 0.931 . S
C1202 C1196 1.383 . S
C1202 C1201 1.379 . S
H1203 C1197 0.959 . S
H1204 C1197 0.961 . S
H1205 C1197 0.960 1_545 S
H1206 C1198 0.930 . S
H1207 C1199 0.929 . S
H1208 C1216 0.929 . S
H1209 C1218 0.930 . S
H1210 C1220 0.930 . S
H1211 C1223 0.929 . S
H1212 C1226 0.930 . S
H1213 C1228 0.960 . S
H1214 C1228 0.960 . S
H1215 C1228 0.960 . S
C1216 H1208 0.929 . S
C1216 C1217 1.377 . S
C1216 C1218 1.384 . S
C1217 C1216 1.377 . S
C1217 C1223 1.390 . S
C1218 H1209 0.930 . S
C1218 C1216 1.384 . S
C1218 C1219 1.372 . S
C1219 C1218 1.372 . S
C1219 C1220 1.400 . S
C1219 C1224 1.490 . S
C1220 H1210 0.930 . S
C1220 C1219 1.400 . S
C1220 C1223 1.386 . S
H1221 C1237 0.930 . S
H1222 C1238 0.931 . S
C1223 H1211 0.929 . S
C1223 C1217 1.390 . S
C1223 C1220 1.386 . S
C1224 C1219 1.490 . S
C1224 C1226 1.395 . S
C1224 C1227 1.403 . S
H1225 C1231 0.930 . S
C1226 H1212 0.930 . S
C1226 C1224 1.395 . S
C1226 C1229 1.403 . S
C1227 C1224 1.403 . S
C1227 C1228 1.524 . S
C1227 C1231 1.400 . S
C1228 H1213 0.960 . S
C1228 H1214 0.960 . S
C1228 H1215 0.960 . S
C1228 C1227 1.524 . S
C1229 C1226 1.403 . S
C1229 C1230 1.392 . S
C1229 C1233 1.495 . S
C1230 C1229 1.392 . S
C1230 C1231 1.385 . S
C1230 C1232 1.478 . S
C1231 H1225 0.930 . S
C1231 C1227 1.400 . S
C1231 C1230 1.385 . S
C1232 C1230 1.478 . S
C1232 C1234 1.381 . S
C1232 C1238 1.383 . S
C1233 C1229 1.495 . S
C1233 H1239 0.959 . S
C1233 H1240 0.961 . S
C1233 H1241 0.960 . S
C1234 C1232 1.381 . S
C1234 C1235 1.394 . S
C1234 H1242 0.930 . S
C1235 C1234 1.394 . S
C1235 C1236 1.383 . S
C1235 H1243 0.929 . S
C1236 C1235 1.383 . S
C1236 C1237 1.377 . S
C1237 H1221 0.930 . S
C1237 C1236 1.377 . S
C1237 C1238 1.379 . S
C1238 H1222 0.931 . S
C1238 C1232 1.383 . S
C1238 C1237 1.379 . S
H1239 C1233 0.959 . S
H1240 C1233 0.961 . S
H1241 C1233 0.960 . S
H1242 C1234 0.930 . S
H1243 C1235 0.929 . S
H1244 C1252 0.929 . S
H1245 C1254 0.930 . S
H1246 C1256 0.930 . S
H1247 C1259 0.929 . S
H1248 C1262 0.930 . S
H1249 C1264 0.960 . S
H1250 C1264 0.960 . S
H1251 C1264 0.960 . S
C1252 H1244 0.929 . S
C1252 C1253 1.377 . S
C1252 C1254 1.384 . S
C1253 C1252 1.377 . S
C1253 C1259 1.390 . S
C1254 H1245 0.930 . S
C1254 C1252 1.384 . S
C1254 C1255 1.372 . S
C1255 C1254 1.372 . S
C1255 C1256 1.400 . S
C1255 C1260 1.490 . S
C1256 H1246 0.930 . S
C1256 C1255 1.400 . S
C1256 C1259 1.386 . S
H1257 C1273 0.930 . S
H1258 C1274 0.931 . S
C1259 H1247 0.929 . S
C1259 C1253 1.390 . S
C1259 C1256 1.386 . S
C1260 C1255 1.490 . S
C1260 C1262 1.395 . S
C1260 C1263 1.403 . S
H1261 C1267 0.930 . S
C1262 H1248 0.930 . S
C1262 C1260 1.395 . S
C1262 C1265 1.403 . S
C1263 C1260 1.403 . S
C1263 C1264 1.524 . S
C1263 C1267 1.400 . S
C1264 H1249 0.960 . S
C1264 H1250 0.960 . S
C1264 H1251 0.960 . S
C1264 C1263 1.524 . S
C1265 C1262 1.403 . S
C1265 C1266 1.392 . S
C1265 C1269 1.495 . S
C1266 C1265 1.392 . S
C1266 C1267 1.385 . S
C1266 C1268 1.478 . S
C1267 H1261 0.930 . S
C1267 C1263 1.400 . S
C1267 C1266 1.385 . S
C1268 C1266 1.478 . S
C1268 C1270 1.381 . S
C1268 C1274 1.383 . S
C1269 C1265 1.495 . S
C1269 H1275 0.959 . S
C1269 H1276 0.961 . S
C1269 H1277 0.960 . S
C1270 C1268 1.381 . S
C1270 C1271 1.394 . S
C1270 H1278 0.930 . S
C1271 C1270 1.394 . S
C1271 C1272 1.383 . S
C1271 H1279 0.929 . S
C1272 C1271 1.383 . S
C1272 C1273 1.377 . S
C1273 H1257 0.930 . S
C1273 C1272 1.377 . S
C1273 C1274 1.379 . S
C1274 H1258 0.931 . S
C1274 C1268 1.383 . S
C1274 C1273 1.379 . S
H1275 C1269 0.959 . S
H1276 C1269 0.961 . S
H1277 C1269 0.960 . S
H1278 C1270 0.930 . S
H1279 C1271 0.929 . S
C425 C215 1.836 1_565 S
C444 C274 1.943 1_545 S
C480 C314 1.947 . S
C461 C247 1.838 . S
C516 C354 1.958 . S
C497 C151 1.837 . S
C552 C394 1.944 1_455 S
C533 C183 1.843 1_655 S
C588 C264 1.950 1_565 S
C569 C87 1.837 . S
C605 C119 1.846 . S
C624 C304 1.961 . S
C641 C23 1.844 . S
C660 C344 1.960 . S
C677 C55 1.833 1_655 S
C696 C384 1.946 . S
C732 C261 0.330 . S
C713 C189 0.231 . S
C768 C301 0.187 . S
C749 C221 0.247 . S
C804 C341 0.170 . S
C785 C253 0.251 . S
C821 C157 0.251 . S
C840 C381 0.183 . S
C857 C61 0.439 1_655 S
C876 C271 0.230 . S
C912 C311 0.250 . S
C893 C93 0.385 1_565 S
C948 C351 0.208 . S
C929 C125 0.427 . S
C965 C29 0.434 . S
C984 C391 0.290 . S
C1001 C177 2.243 . S
C1020 C265 2.455 . S
C1037 C209 2.245 . S
C1056 C305 2.467 . S
C1092 C345 2.441 . S
C1073 C241 2.221 . S
C1128 C385 2.455 . S
C1109 C145 2.229 . S
C1145 C49 2.268 1_655 S
C1164 C275 2.465 . S
C1200 C315 2.457 . S
C1181 C81 2.245 1_565 S
C1236 C355 2.457 . S
C1217 C113 2.243 . S
C1253 C17 2.260 . S
C1272 C395 2.463 . S
