# Generated by pormake.
# Topology sqc, (4,8)-cn, num edge types: 1
# Building blocks:
#     Node 0, Type 0, BuildingBlock: MIFKUJ_clean_linker_1, # of connection points: 4
#     Node 1, Type 0, BuildingBlock: MIFKUJ_clean_linker_1, # of connection points: 4
#     Node 2, Type 0, BuildingBlock: MIFKUJ_clean_linker_1, # of connection points: 4
#     Node 3, Type 0, BuildingBlock: MIFKUJ_clean_linker_1, # of connection points: 4
#     Node 4, Type 0, BuildingBlock: MIFKUJ_clean_linker_1, # of connection points: 4
#     Node 5, Type 0, BuildingBlock: MIFKUJ_clean_linker_1, # of connection points: 4
#     Node 6, Type 0, BuildingBlock: MIFKUJ_clean_linker_1, # of connection points: 4
#     Node 7, Type 0, BuildingBlock: MIFKUJ_clean_linker_1, # of connection points: 4
#     Node 8, Type 1, BuildingBlock: TAGTUT_clean_sbu_3, # of connection points: 8
#     Node 9, Type 1, BuildingBlock: TAGTUT_clean_sbu_3, # of connection points: 8
#     Node 10, Type 1, BuildingBlock: TAGTUT_clean_sbu_3, # of connection points: 8
#     Node 11, Type 1, BuildingBlock: TAGTUT_clean_sbu_3, # of connection points: 8
#     Edge 12, Type (0, 1), BuildingBlock: OJICUG_clean_linker_0, # of connection points: 2
#     Edge 13, Type (0, 1), BuildingBlock: OJICUG_clean_linker_0, # of connection points: 2
#     Edge 14, Type (0, 1), BuildingBlock: OJICUG_clean_linker_0, # of connection points: 2
#     Edge 15, Type (0, 1), BuildingBlock: OJICUG_clean_linker_0, # of connection points: 2
#     Edge 16, Type (0, 1), BuildingBlock: OJICUG_clean_linker_0, # of connection points: 2
#     Edge 17, Type (0, 1), BuildingBlock: OJICUG_clean_linker_0, # of connection points: 2
#     Edge 18, Type (0, 1), BuildingBlock: OJICUG_clean_linker_0, # of connection points: 2
#     Edge 19, Type (0, 1), BuildingBlock: OJICUG_clean_linker_0, # of connection points: 2
#     Edge 20, Type (0, 1), BuildingBlock: OJICUG_clean_linker_0, # of connection points: 2
#     Edge 21, Type (0, 1), BuildingBlock: OJICUG_clean_linker_0, # of connection points: 2
#     Edge 22, Type (0, 1), BuildingBlock: OJICUG_clean_linker_0, # of connection points: 2
#     Edge 23, Type (0, 1), BuildingBlock: OJICUG_clean_linker_0, # of connection points: 2
#     Edge 24, Type (0, 1), BuildingBlock: OJICUG_clean_linker_0, # of connection points: 2
#     Edge 25, Type (0, 1), BuildingBlock: OJICUG_clean_linker_0, # of connection points: 2
#     Edge 26, Type (0, 1), BuildingBlock: OJICUG_clean_linker_0, # of connection points: 2
#     Edge 27, Type (0, 1), BuildingBlock: OJICUG_clean_linker_0, # of connection points: 2
#     Edge 28, Type (0, 1), BuildingBlock: OJICUG_clean_linker_0, # of connection points: 2
#     Edge 29, Type (0, 1), BuildingBlock: OJICUG_clean_linker_0, # of connection points: 2
#     Edge 30, Type (0, 1), BuildingBlock: OJICUG_clean_linker_0, # of connection points: 2
#     Edge 31, Type (0, 1), BuildingBlock: OJICUG_clean_linker_0, # of connection points: 2
#     Edge 32, Type (0, 1), BuildingBlock: OJICUG_clean_linker_0, # of connection points: 2
#     Edge 33, Type (0, 1), BuildingBlock: OJICUG_clean_linker_0, # of connection points: 2
#     Edge 34, Type (0, 1), BuildingBlock: OJICUG_clean_linker_0, # of connection points: 2
#     Edge 35, Type (0, 1), BuildingBlock: OJICUG_clean_linker_0, # of connection points: 2
#     Edge 36, Type (0, 1), BuildingBlock: OJICUG_clean_linker_0, # of connection points: 2
#     Edge 37, Type (0, 1), BuildingBlock: OJICUG_clean_linker_0, # of connection points: 2
#     Edge 38, Type (0, 1), BuildingBlock: OJICUG_clean_linker_0, # of connection points: 2
#     Edge 39, Type (0, 1), BuildingBlock: OJICUG_clean_linker_0, # of connection points: 2
#     Edge 40, Type (0, 1), BuildingBlock: OJICUG_clean_linker_0, # of connection points: 2
#     Edge 41, Type (0, 1), BuildingBlock: OJICUG_clean_linker_0, # of connection points: 2
#     Edge 42, Type (0, 1), BuildingBlock: OJICUG_clean_linker_0, # of connection points: 2
#     Edge 43, Type (0, 1), BuildingBlock: OJICUG_clean_linker_0, # of connection points: 2
# Relax obj value: 0.146
# Max RMSD: 0.259
# Mean RMSD: 0.179
data_MOF--net-sqc--node1-TAGTUT_clean_sbu_3--node2-MIFKUJ_clean_linker_1--edge1-OJICUG_clean_linker_0
_symmetry_space_group_name_H-M    P1
_symmetry_Int_Tables_number       1
_symmetry_cell_setting            triclinic
loop_
_symmetry_equiv_pos_as_xyz
'x, y, z'
_cell_length_a     22.54494
_cell_length_b     22.489067
_cell_length_c     67.144272
_cell_angle_alpha  90.905311
_cell_angle_beta   89.844919
_cell_angle_gamma 90.258059
loop_
_atom_site_label
_atom_site_type_symbol
_atom_site_fract_x
_atom_site_fract_y
_atom_site_fract_z
_atom_type_partial_charge
H0 H 0.93677 0.86951 0.47888 0.0
H1 H 0.84501 0.8439 0.4613 0.0
H2 H 0.8101 0.03049 0.45274 0.0
H3 H 0.90215 0.05583 0.47043 0.0
H4 H 0.03386 0.93725 0.46213 0.0
H5 H 0.90626 0.93838 0.52085 0.0
H6 H 0.81677 0.96595 0.53971 0.0
H7 H 0.85256 0.15127 0.52845 0.0
H8 H 0.94212 0.1235 0.50983 0.0
H9 H 0.12447 0.12251 0.51541 0.0
H10 H 0.21572 0.15478 0.53114 0.0
H11 H 0.28583 0.97646 0.52414 0.0
H12 H 0.19097 0.94321 0.51109 0.0
H13 H 0.04166 0.05376 0.5254 0.0
H14 H 0.18989 0.04359 0.47379 0.0
H15 H 0.28075 0.00859 0.45879 0.0
H16 H 0.20116 0.83376 0.45077 0.0
H17 H 0.11506 0.8671 0.46905 0.0
C18 C 0.92617 0.96441 0.47583 0.0
C19 C 0.90895 0.90483 0.47342 0.0
C20 C 0.85619 0.89039 0.46361 0.0
C21 C 0.82021 0.93532 0.45583 0.0
C22 C 0.83691 0.9951 0.45868 0.0
C23 C 0.88939 0.00954 0.46871 0.0
C24 C 0.98331 0.97948 0.48543 0.0
C25 C 0.03618 0.96199 0.47611 0.0
C26 C 0.98552 0.01259 0.50335 0.0
C27 C 0.93072 0.02907 0.51413 0.0
C28 C 0.89441 0.98487 0.52235 0.0
C29 C 0.84337 0.00056 0.533 0.0
C30 C 0.82757 0.0606 0.53531 0.0
C31 C 0.8632 0.10459 0.52656 0.0
C32 C 0.91466 0.08894 0.51618 0.0
C33 C 0.15074 0.0305 0.51176 0.0
C34 C 0.15921 0.09013 0.51758 0.0
C35 C 0.21248 0.10887 0.52622 0.0
C36 C 0.25973 0.06885 0.52879 0.0
C37 C 0.25094 0.00898 0.52284 0.0
C38 C 0.19663 0.9898 0.51499 0.0
C39 C 0.09401 0.01172 0.50218 0.0
C40 C 0.04055 0.02876 0.51146 0.0
C41 C 0.09178 0.97757 0.48416 0.0
C42 C 0.14595 0.95774 0.47322 0.0
C43 C 0.19284 -0.00282 0.46937 0.0
C44 C 0.24484 0.97699 0.46022 0.0
C45 C 0.24994 0.9176 0.45328 0.0
C46 C 0.20129 0.87907 0.45635 0.0
C47 C 0.1507 0.89856 0.46649 0.0
H48 H 0.35109 0.80883 0.78052 0.0
H49 H 0.32573 0.90659 0.79458 0.0
H50 H 0.1903 0.92612 0.74978 0.0
H51 H 0.21532 0.82799 0.73597 0.0
H52 H 0.28448 0.70588 0.77628 0.0
H53 H 0.40092 0.82956 0.73311 0.0
H54 H 0.43002 0.90535 0.70912 0.0
H55 H 0.28676 0.84971 0.67045 0.0
H56 H 0.25821 0.77323 0.69442 0.0
H57 H 0.27168 0.57706 0.70269 0.0
H58 H 0.3112 0.49196 0.68397 0.0
H59 H 0.46331 0.48875 0.72297 0.0
H60 H 0.42322 0.57426 0.74172 0.0
H61 H 0.34172 0.6838 0.70515 0.0
H62 H 0.23036 0.55432 0.74783 0.0
H63 H 0.21333 0.46967 0.76937 0.0
H64 H 0.3585 0.52848 0.80694 0.0
H65 H 0.37301 0.61482 0.78572 0.0
C66 C 0.28509 0.81111 0.75723 0.0
C67 C 0.31602 0.83423 0.77373 0.0
C68 C 0.30202 0.89045 0.78155 0.0
C69 C 0.25638 0.92433 0.77315 0.0
C70 C 0.22569 0.90113 0.75655 0.0
C71 C 0.23999 0.84512 0.74866 0.0
C72 C 0.30035 0.75185 0.74873 0.0
C73 C 0.29757 0.70119 0.76079 0.0
C74 C 0.31609 0.74507 0.72846 0.0
C75 C 0.32729 0.7963 0.71552 0.0
C76 C 0.37512 0.83449 0.71965 0.0
C77 C 0.39199 0.87722 0.7059 0.0
C78 C 0.36084 0.88268 0.68795 0.0
C79 C 0.31128 0.84622 0.68423 0.0
C80 C 0.29498 0.80279 0.69786 0.0
C81 C 0.34438 0.58131 0.7236 0.0
C82 C 0.31285 0.55713 0.70745 0.0
C83 C 0.33548 0.50863 0.69681 0.0
C84 C 0.39039 0.48407 0.70203 0.0
C85 C 0.4211 0.50725 0.7186 0.0
C86 C 0.39802 0.55548 0.7294 0.0
C87 C 0.32551 0.63834 0.73256 0.0
C88 C 0.32785 0.68851 0.72059 0.0
C89 C 0.30975 0.64426 0.75281 0.0
C90 C 0.30239 0.59117 0.76536 0.0
C91 C 0.2587 0.54865 0.76066 0.0
C92 C 0.24957 0.49973 0.77289 0.0
C93 C 0.2844 0.49192 0.79003 0.0
C94 C 0.33003 0.53343 0.79413 0.0
C95 C 0.33847 0.58289 0.78203 0.0
H96 H 0.54677 0.04675 0.02767 0.0
H97 H 0.46961 0.0302 0.05276 0.0
H98 H 0.42936 0.85968 0.02537 0.0
H99 H 0.50647 0.87676 0.00021 0.0
H100 H 0.64115 0.95464 0.02525 0.0
H101 H 0.50457 0.06481 0.98373 0.0
H102 H 0.42531 0.09036 0.96057 0.0
H103 H 0.46159 0.93105 0.92596 0.0
H104 H 0.54098 0.90574 0.94917 0.0
H105 H 0.7302 0.93435 0.94278 0.0
H106 H 0.81008 0.97208 0.92182 0.0
H107 H 0.85381 0.10332 0.96725 0.0
H108 H 0.77233 0.06681 0.98783 0.0
H109 H 0.63558 0.99157 0.95274 0.0
H110 H 0.78085 0.89007 0.98944 0.0
H111 H 0.86529 0.86289 0.01021 0.0
H112 H 0.81253 -0.00445 0.05401 0.0
H113 H 0.72992 0.02375 0.03295 0.0
C114 C 0.53173 0.96306 0.01212 0.0
C115 C 0.52018 0.00653 0.02681 0.0
C116 C 0.47637 -0.003 0.04111 0.0
C117 C 0.44429 0.9434 0.04108 0.0
C118 C 0.45417 0.90104 0.02581 0.0
C119 C 0.49753 0.91096 0.01135 0.0
C120 C 0.58554 0.96804 -0.00016 0.0
C121 C 0.64021 0.96349 0.00941 0.0
C122 C 0.58391 0.9756 0.9791 0.0
C123 C 0.52815 0.98332 0.96814 0.0
C124 C 0.49415 0.03448 0.97152 0.0
C125 C 0.4495 0.04932 0.9582 0.0
C126 C 0.43819 0.01297 0.94141 0.0
C127 C 0.46953 0.95964 0.93882 0.0
C128 C 0.51464 0.94515 0.95205 0.0
C129 C 0.74565 -0.00264 0.96693 0.0
C130 C 0.75743 0.97081 0.94831 0.0
C131 C 0.8032 0.99233 0.93639 0.0
C132 C 0.83806 0.04087 0.94287 0.0
C133 C 0.8272 0.06638 0.96175 0.0
C134 C 0.7813 0.04489 0.97366 0.0
C135 C 0.692 0.98039 0.97825 0.0
C136 C 0.63713 0.98197 0.96853 0.0
C137 C 0.69352 0.969 -0.00116 0.0
C138 C 0.74935 0.95901 0.00967 0.0
C139 C 0.78855 0.9143 0.00327 0.0
C140 C 0.8362 0.89825 0.01526 0.0
C141 C 0.84518 0.92673 0.0338 0.0
C142 C 0.80717 0.97315 0.03973 0.0
C143 C 0.75978 0.98917 0.02776 0.0
H144 H 0.27829 0.178 0.26878 0.0
H145 H 0.29883 0.10127 0.2932 0.0
H146 H 0.48657 0.11896 0.28123 0.0
H147 H 0.46563 0.19604 0.257 0.0
H148 H 0.4087 0.29972 0.26965 0.0
H149 H 0.20714 0.20965 0.23263 0.0
H150 H 0.16526 0.11532 0.22063 0.0
H151 H 0.34039 0.05875 0.20199 0.0
H152 H 0.38184 0.15172 0.21516 0.0
H153 H 0.34936 0.3766 0.19093 0.0
H154 H 0.31618 0.46287 0.17264 0.0
H155 H 0.24696 0.54046 0.22723 0.0
H156 H 0.27728 0.45214 0.24522 0.0
H157 H 0.2822 0.29673 0.20939 0.0
H158 H 0.43547 0.44481 0.23288 0.0
H159 H 0.47623 0.52951 0.25234 0.0
H160 H 0.38659 0.46622 0.30481 0.0
H161 H 0.34429 0.38387 0.28546 0.0
C162 C 0.37047 0.19203 0.26099 0.0
C163 C 0.32369 0.1641 0.27105 0.0
C164 C 0.33551 0.12061 0.28506 0.0
C165 C 0.39434 0.10481 0.28928 0.0
C166 C 0.44089 0.13118 0.27856 0.0
C167 C 0.42902 0.1746 0.26457 0.0
C168 C 0.35905 0.24531 0.24914 0.0
C169 C 0.38152 0.29933 0.25632 0.0
C170 C 0.32255 0.24425 0.23218 0.0
C171 C 0.29731 0.18774 0.22448 0.0
C172 C 0.23629 0.17666 0.22598 0.0
C173 C 0.21253 0.12264 0.21912 0.0
C174 C 0.24924 0.07915 0.21018 0.0
C175 C 0.3107 0.09036 0.20907 0.0
C176 C 0.33449 0.14394 0.2163 0.0
C177 C 0.31607 0.40784 0.21946 0.0
C178 C 0.32734 0.41236 0.19899 0.0
C179 C 0.30903 0.46228 0.18859 0.0
C180 C 0.27907 0.50904 0.19845 0.0
C181 C 0.26948 0.50518 0.21912 0.0
C182 C 0.28733 0.45488 0.22948 0.0
C183 C 0.33197 0.35257 0.22995 0.0
C184 C 0.3101 0.29773 0.22253 0.0
C185 C 0.36713 0.35313 0.24738 0.0
C186 C 0.38697 0.40811 0.25776 0.0
C187 C 0.42372 0.45001 0.24846 0.0
C188 C 0.44727 0.49781 0.25954 0.0
C189 C 0.43511 0.50307 0.28002 0.0
C190 C 0.39719 0.46215 0.28909 0.0
C191 C 0.37294 0.41543 0.27803 0.0
H192 H 0.76996 0.27892 0.20025 0.0
H193 H 0.79222 0.35452 0.1753 0.0
H194 H 0.94281 0.41347 0.21011 0.0
H195 H 0.91987 0.33851 0.23515 0.0
H196 H 0.86017 0.19226 0.20886 0.0
H197 H 0.73368 0.33192 0.24103 0.0
H198 H 0.70675 0.4291 0.25504 0.0
H199 H 0.84539 0.4134 0.29893 0.0
H200 H 0.87303 0.31662 0.28452 0.0
H201 H 0.89124 0.11894 0.28997 0.0
H202 H 0.87369 0.03164 0.31057 0.0
H203 H 0.73204 0.97601 0.27102 0.0
H204 H 0.75153 0.06178 0.25028 0.0
H205 H 0.80779 0.21143 0.28048 0.0
H206 H 0.93703 0.07159 0.24505 0.0
H207 H 0.97069 0.98519 0.22534 0.0
H208 H 0.82367 0.00869 0.18503 0.0
H209 H 0.78995 0.09351 0.2049 0.0
C210 C 0.84317 0.30369 0.21949 0.0
C211 C 0.80693 0.30911 0.20267 0.0
C212 C 0.81966 0.35199 0.18848 0.0
C213 C 0.86951 0.38897 0.19079 0.0
C214 C 0.90448 0.38484 0.20799 0.0
C215 C 0.89117 0.34263 0.22233 0.0
C216 C 0.8359 0.25235 0.23262 0.0
C217 C 0.84777 0.19628 0.22446 0.0
C218 C 0.82176 0.25842 0.25302 0.0
C219 C 0.80549 0.31712 0.26172 0.0
C220 C 0.75876 0.34973 0.25353 0.0
C221 C 0.7433 0.40519 0.26156 0.0
C222 C 0.77418 0.42912 0.278 0.0
C223 C 0.82144 0.39665 0.28604 0.0
C224 C 0.83677 0.34101 0.27802 0.0
C225 C 0.82248 0.09692 0.2687 0.0
C226 C 0.85686 0.08747 0.28571 0.0
C227 C 0.84676 0.03747 0.29742 0.0
C228 C 0.8013 -0.00346 0.29253 0.0
C229 C 0.76821 0.00556 0.2751 0.0
C230 C 0.77879 0.0551 0.26332 0.0
C231 C 0.83128 0.15062 0.25654 0.0
C232 C 0.82016 0.20734 0.2649 0.0
C233 C 0.84572 0.14554 0.23614 0.0
C234 C 0.86091 0.08842 0.22642 0.0
C235 C 0.91142 0.05697 0.23224 0.0
C236 C 0.93094 0.00826 0.22087 0.0
C237 C 0.89992 0.99045 0.20363 0.0
C238 C 0.8481 0.02086 0.19836 0.0
C239 C 0.82883 0.06941 0.20965 0.0
H240 H 0.71124 0.89191 0.7275 0.0
H241 H 0.6842 0.97989 0.70856 0.0
H242 H 0.86805 0.00612 0.69256 0.0
H243 H 0.89495 0.91815 0.71173 0.0
H244 H 0.77451 0.78478 0.71347 0.0
H245 H 0.79026 0.94506 0.76358 0.0
H246 H 0.82596 0.03203 0.78229 0.0
H247 H 0.00697 0.97665 0.7717 0.0
H248 H 0.97063 0.88899 0.75342 0.0
H249 H 0.9577 0.72201 0.77081 0.0
H250 H 0.98245 0.65154 0.7961 0.0
H251 H 0.80218 0.5839 0.79477 0.0
H252 H 0.77592 0.66085 0.77129 0.0
H253 H 0.89501 0.80927 0.77465 0.0
H254 H 0.88012 0.63606 0.734 0.0
H255 H 0.84714 0.53957 0.72171 0.0
H256 H 0.67395 0.61334 0.70969 0.0
H257 H 0.70517 0.70716 0.72447 0.0
C258 C 0.8049 0.8985 0.72084 0.0
C259 C 0.74565 0.9167 0.71993 0.0
C260 C 0.73046 0.96736 0.70937 0.0
C261 C 0.77422 0.00012 0.69933 0.0
C262 C 0.83362 0.98178 0.70027 0.0
C263 C 0.8489 0.93155 0.71109 0.0
C264 C 0.82097 0.84629 0.73271 0.0
C265 C 0.80057 0.78948 0.72696 0.0
C266 C 0.85654 0.85269 0.74976 0.0
C267 C 0.87791 0.91091 0.75719 0.0
C268 C 0.8376 0.95268 0.76483 0.0
C269 C 0.85813 0.00232 0.7755 0.0
C270 C 0.91929 0.01072 0.77867 0.0
C271 C 0.95959 0.97071 0.76982 0.0
C272 C 0.93899 0.92098 0.75926 0.0
C273 C 0.86495 0.69681 0.769 0.0
C274 C 0.92325 0.69232 0.77606 0.0
C275 C 0.93761 0.65099 0.79041 0.0
C276 C 0.89464 0.61101 0.79755 0.0
C277 C 0.83644 0.61441 0.79002 0.0
C278 C 0.82151 0.65764 0.77618 0.0
C279 C 0.84963 0.74608 0.75554 0.0
C280 C 0.8698 0.80301 0.76102 0.0
C281 C 0.81501 0.7387 0.73803 0.0
C282 C 0.79503 0.67918 0.73052 0.0
C283 C 0.8344 0.63096 0.72936 0.0
C284 C 0.8156 0.57567 0.72189 0.0
C285 C 0.75765 0.56773 0.71445 0.0
C286 C 0.71842 0.61634 0.71563 0.0
C287 C 0.73666 0.67093 0.72377 0.0
H288 H 0.4427 0.36027 0.98154 0.0
H289 H 0.35377 0.32985 0.96309 0.0
H290 H 0.3134 0.51413 0.95232 0.0
H291 H 0.40254 0.54429 0.97072 0.0
H292 H 0.53861 0.4231 0.96619 0.0
H293 H 0.40692 0.43987 0.02205 0.0
H294 H 0.31813 0.46866 0.04101 0.0
H295 H 0.35144 0.65279 0.02731 0.0
H296 H 0.44043 0.62386 0.00854 0.0
H297 H 0.63311 0.62901 0.00271 0.0
H298 H 0.72687 0.6683 0.01548 0.0
H299 H 0.77315 0.49271 0.03568 0.0
H300 H 0.68065 0.4535 0.02176 0.0
H301 H 0.54043 0.56456 0.02366 0.0
H302 H 0.68863 0.54019 0.97366 0.0
H303 H 0.78147 0.50586 0.96016 0.0
H304 H 0.71357 0.32515 0.95949 0.0
H305 H 0.6246 0.35947 0.97641 0.0
C306 C 0.42916 0.45444 0.97747 0.0
C307 C 0.41424 0.39407 0.97542 0.0
C308 C 0.36311 0.37686 0.96508 0.0
C309 C 0.32652 0.41973 0.95638 0.0
C310 C 0.34076 0.48024 0.9589 0.0
C311 C 0.39156 0.49744 0.96942 0.0
C312 C 0.48537 0.47274 0.9872 0.0
C313 C 0.53933 0.45303 0.97902 0.0
C314 C 0.48581 0.51257 0.00363 0.0
C315 C 0.43023 0.52983 0.01397 0.0
C316 C 0.39461 0.48635 0.02293 0.0
C317 C 0.34398 0.50275 0.03371 0.0
C318 C 0.32774 0.56283 0.03547 0.0
C319 C 0.36242 0.60606 0.02592 0.0
C320 C 0.41354 0.58973 0.01539 0.0
C321 C 0.64993 0.53851 0.01141 0.0
C322 C 0.6636 0.59914 0.00991 0.0
C323 C 0.71735 0.62145 0.01722 0.0
C324 C 0.75796 0.58385 0.0267 0.0
C325 C 0.74386 0.52293 0.02813 0.0
C326 C 0.69052 0.50047 0.02047 0.0
C327 C 0.59415 0.51489 0.00271 0.0
C328 C 0.54012 0.53396 0.011 0.0
C329 C 0.59402 0.47349 0.98654 0.0
C330 C 0.64989 0.45247 0.97684 0.0
C331 C 0.69455 0.49285 0.97146 0.0
C332 C 0.7476 0.47292 0.96304 0.0
C333 C 0.75615 0.41222 0.95833 0.0
C334 C 0.71037 0.37196 0.96322 0.0
C335 C 0.65842 0.39175 0.9726 0.0
H336 H 0.04911 0.4319 0.45576 0.0
H337 H 0.96855 0.45552 0.43285 0.0
H338 H 0.93012 0.61419 0.46754 0.0
H339 H 0.01069 0.59018 0.49046 0.0
H340 H 0.14221 0.51907 0.4591 0.0
H341 H 0.01361 0.40325 0.50332 0.0
H342 H 0.93523 0.37925 0.52732 0.0
H343 H 0.97732 0.53881 0.56114 0.0
H344 H 0.05591 0.56233 0.53718 0.0
H345 H 0.243 0.54586 0.53876 0.0
H346 H 0.32475 0.51229 0.55936 0.0
H347 H 0.36789 0.37786 0.51498 0.0
H348 H 0.28463 0.41072 0.49464 0.0
H349 H 0.1505 0.4788 0.53134 0.0
H350 H 0.28728 0.58607 0.49304 0.0
H351 H 0.36823 0.61808 0.4714 0.0
H352 H 0.30996 0.49215 0.42614 0.0
H353 H 0.23127 0.45836 0.44819 0.0
C354 C 0.03543 0.50926 0.47476 0.0
C355 C 0.02212 0.47082 0.45872 0.0
C356 C 0.97629 0.48435 0.44567 0.0
C357 C 0.94386 0.53699 0.44836 0.0
C358 C 0.9551 0.57368 0.46508 0.0
C359 C 0.00051 0.55974 0.47826 0.0
C360 C 0.09155 0.50224 0.48558 0.0
C361 C 0.1444 0.509 0.47484 0.0
C362 C 0.09379 0.49337 0.50626 0.0
C363 C 0.04012 0.48465 0.51849 0.0
C364 C 0.00497 0.43368 0.51565 0.0
C365 C 0.96078 0.41976 0.52944 0.0
C366 C 0.95084 0.45695 0.54614 0.0
C367 C 0.98406 0.50956 0.54836 0.0
C368 C 0.02877 0.52303 0.53472 0.0
C369 C 0.25792 0.4809 0.51518 0.0
C370 C 0.27073 0.50985 0.53332 0.0
C371 C 0.31755 0.49069 0.54504 0.0
C372 C 0.35244 0.44214 0.53883 0.0
C373 C 0.3412 0.41486 0.52024 0.0
C374 C 0.29425 0.43414 0.50849 0.0
C375 C 0.20197 0.49378 0.50476 0.0
C376 C 0.14894 0.48874 0.51559 0.0
C377 C 0.19976 0.50567 0.48419 0.0
C378 C 0.25342 0.51945 0.47231 0.0
C379 C 0.293 0.56419 0.47868 0.0
C380 C 0.33864 0.5832 0.46615 0.0
C381 C 0.34526 0.55812 0.44695 0.0
C382 C 0.30662 0.51207 0.44088 0.0
C383 C 0.26134 0.49286 0.45345 0.0
C384 C 0.15418 0.65312 0.14424 0.0
C385 C 0.94552 0.56331 0.13471 0.0
C386 C 0.94286 0.65964 0.07958 0.0
Mg387 Mg 0.21459 0.77335 0.12831 0.0
Mg388 Mg 0.13912 0.88878 0.11281 0.0
O389 O 0.1484 0.80685 0.1122 0.0
Mg390 Mg 0.08406 0.7494 0.11839 0.0
O391 O 0.02611 0.68533 0.12456 0.0
Mg392 Mg 0.06023 0.61831 0.10834 0.0
Mg393 Mg 0.94467 0.69555 0.12327 0.0
C394 C 0.02276 0.85167 0.08964 0.0
O395 O 0.03544 0.80862 0.14205 0.0
O396 O 0.2767 0.83687 0.11085 0.0
O397 O 0.94064 0.77589 0.14074 0.0
O398 O 0.20362 0.84634 0.15369 0.0
O399 O 0.22148 0.91141 0.09902 0.0
O400 O 0.14096 0.91554 0.14303 0.0
O401 O 0.12609 0.68653 0.09494 0.0
O402 O 0.22102 0.70401 0.1033 0.0
C403 C 0.1818 0.67649 0.09286 0.0
C404 C 0.27089 0.88406 0.10048 0.0
O405 O 0.02618 0.79689 0.09488 0.0
O406 O -0.00545 0.5571 0.12511 0.0
O407 O 0.05843 0.89215 0.09606 0.0
O408 O 0.9895 0.62851 0.0827 0.0
O409 O 0.91839 0.61305 0.13605 0.0
O410 O 0.9218 0.69462 0.09288 0.0
O411 O 0.1452 0.70883 0.1418 0.0
O412 O 0.12684 0.61305 0.13397 0.0
C413 C 0.17382 0.8943 0.15655 0.0
C414 C 0.98057 0.81166 0.14743 0.0
C415 C 0.682 0.82449 0.39712 0.0
C416 C 0.7764 0.61561 0.38989 0.0
C417 C 0.69802 0.61418 0.3309 0.0
Mg418 Mg 0.56574 0.8803 0.37703 0.0
Mg419 Mg 0.45652 0.79732 0.35924 0.0
O420 O 0.53803 0.81193 0.35994 0.0
Mg421 Mg 0.59561 0.7501 0.36797 0.0
O422 O 0.65843 0.69403 0.37617 0.0
Mg423 Mg 0.72882 0.73039 0.36255 0.0
Mg424 Mg 0.64897 0.61215 0.37298 0.0
C425 C 0.50474 0.68468 0.33557 0.0
O426 O 0.53112 0.69928 0.38902 0.0
O427 O 0.50433 0.93855 0.35778 0.0
O428 O 0.56348 0.60444 0.38701 0.0
O429 O 0.48812 0.86957 0.39937 0.0
O430 O 0.43297 0.87864 0.34527 0.0
O431 O 0.42359 0.79988 0.38922 0.0
O432 O 0.66422 0.79445 0.34703 0.0
O433 O 0.64083 0.88866 0.35487 0.0
C434 C 0.67328 0.85069 0.34563 0.0
C435 C 0.45831 0.92955 0.34684 0.0
O436 O 0.55719 0.68998 0.34291 0.0
O437 O 0.78492 0.66547 0.38119 0.0
O438 O 0.461 0.71773 0.34087 0.0
O439 O 0.72802 0.66045 0.33612 0.0
O440 O 0.72732 0.58693 0.38868 0.0
O441 O 0.65901 0.59159 0.34228 0.0
O442 O 0.62758 0.81348 0.39284 0.0
O443 O 0.72508 0.79784 0.3883 0.0
C444 C 0.44127 0.83835 0.40207 0.0
C445 C 0.52616 0.64362 0.3931 0.0
C446 C 0.66 0.1471 0.6444 0.0
C447 C 0.44888 0.05912 0.63427 0.0
C448 C 0.44976 0.15076 0.57894 0.0
Mg449 Mg 0.72055 0.26684 0.6291 0.0
Mg450 Mg 0.64459 0.38568 0.61744 0.0
O451 O 0.65324 0.3038 0.61427 0.0
Mg452 Mg 0.58826 0.24564 0.61964 0.0
O453 O 0.52965 0.18089 0.62492 0.0
Mg454 Mg 0.56517 0.11371 0.60892 0.0
Mg455 Mg 0.44835 0.19158 0.62189 0.0
C456 C 0.52744 0.3532 0.5934 0.0
O457 O 0.53831 0.30282 0.64348 0.0
O458 O 0.7818 0.33203 0.61209 0.0
O459 O 0.44328 0.2719 0.63963 0.0
O460 O 0.71484 0.33566 0.65547 0.0
O461 O 0.7266 0.41043 0.60333 0.0
O462 O 0.6493 0.40642 0.64849 0.0
O463 O 0.62908 0.18387 0.59562 0.0
O464 O 0.72449 0.20052 0.60322 0.0
C465 C 0.68442 0.174 0.59291 0.0
C466 C 0.77562 0.38183 0.6032 0.0
O467 O 0.53099 0.29709 0.59695 0.0
O468 O 0.49943 0.05249 0.62563 0.0
O469 O 0.56283 0.39204 0.6011 0.0
O470 O 0.49552 0.12048 0.58355 0.0
O471 O 0.42115 0.10872 0.6346 0.0
O472 O 0.42752 0.18916 0.5909 0.0
O473 O 0.65044 0.20283 0.64251 0.0
O474 O 0.63244 0.10779 0.63397 0.0
C475 C 0.68551 0.38229 0.6604 0.0
C476 C 0.48244 0.30636 0.64759 0.0
C477 C 0.18545 0.30837 0.89727 0.0
C478 C 0.27115 0.09934 0.88432 0.0
C479 C 0.18647 0.10924 0.82668 0.0
Mg480 Mg 0.0689 0.37208 0.88067 0.0
Mg481 Mg 0.95258 0.29777 0.86356 0.0
O482 O 0.03492 0.3082 0.86288 0.0
Mg483 Mg 0.0915 0.24272 0.86823 0.0
O484 O 0.15374 0.183 0.87376 0.0
Mg485 Mg 0.22345 0.21977 0.85988 0.0
Mg486 Mg 0.14192 0.10203 0.86926 0.0
C487 C 0.99129 0.18635 0.83713 0.0
O488 O 0.0287 0.18958 0.88918 0.0
O489 O 0.00823 0.43585 0.86354 0.0
O490 O 0.05799 0.09453 0.88422 0.0
O491 O 0.9941 0.36141 0.90426 0.0
O492 O 0.93032 0.383 0.85175 0.0
O493 O 0.92505 0.29634 0.89408 0.0
O494 O 0.1583 0.28837 0.84675 0.0
O495 O 0.14029 0.38148 0.85726 0.0
C496 C 0.16915 0.34449 0.84636 0.0
C497 C 0.95966 0.4316 0.85366 0.0
O498 O 0.04554 0.18909 0.84306 0.0
O499 O 0.28 0.15016 0.87629 0.0
O500 O 0.95013 0.22027 0.84402 0.0
O501 O 0.21765 0.15438 0.83222 0.0
O502 O 0.22109 0.07234 0.88346 0.0
O503 O 0.14856 0.08553 0.83821 0.0
O504 O 0.1301 0.2999 0.89381 0.0
O505 O 0.22603 0.28254 0.88696 0.0
C506 C 0.94646 0.33164 0.90728 0.0
C507 C 0.02254 0.13317 0.89183 0.0
C508 C 0.34188 0.93757 0.43257 0.0
C509 C 0.30416 0.8967 0.44216 0.0
H510 H 0.41601 0.95083 0.41324 0.0
C511 C 0.31739 0.83551 0.44007 0.0
H512 H 0.33368 0.98484 0.43305 0.0
C513 C 0.36329 0.81605 0.42755 0.0
C514 C 0.39955 0.85715 0.41784 0.0
H515 H 0.29177 0.80196 0.44763 0.0
H516 H 0.36952 0.7689 0.42514 0.0
C517 C 0.38954 0.91805 0.42096 0.0
C518 C 0.34308 0.96686 0.6649 0.0
C519 C 0.38176 0.92478 0.67284 0.0
H520 H 0.33414 0.04276 0.64632 0.0
C521 C 0.44129 0.9239 0.66668 0.0
H522 H 0.29695 0.96813 0.66944 0.0
C523 C 0.46238 0.96572 0.65325 0.0
C524 C 0.42449 0.00979 0.64602 0.0
H525 H 0.47167 0.89125 0.67246 0.0
H526 H 0.50894 0.96501 0.64922 0.0
C527 C 0.3644 0.00941 0.65171 0.0
C528 C 0.40323 0.0909 0.91839 0.0
C529 C 0.39737 0.03322 0.92585 0.0
H530 H 0.36877 0.1566 0.89903 0.0
C531 C 0.35299 -0.00459 0.91824 0.0
H532 H 0.43796 0.12044 0.92378 0.0
C533 C 0.31322 0.01604 0.90404 0.0
C534 C 0.31783 0.07454 0.89705 0.0
H535 H 0.34798 0.95059 0.92371 0.0
H536 H 0.27809 0.98663 0.8989 0.0
C537 C 0.36407 0.11128 0.90405 0.0
C538 C 0.16922 0.0298 0.18992 0.0
C539 C 0.2232 0.02539 0.2002 0.0
H540 H 0.11038 0.99102 0.16861 0.0
C541 C 0.25468 0.97142 0.1989 0.0
H542 H 0.1436 0.07038 0.19038 0.0
C543 C 0.23572 0.92553 0.18602 0.0
C544 C 0.18479 0.93273 0.17431 0.0
H545 H 0.29555 0.96568 0.20706 0.0
H546 H 0.26322 0.88644 0.18423 0.0
C547 C 0.15015 0.984 0.17726 0.0
C548 C 0.3504 0.04872 0.54969 0.0
C549 C 0.31609 0.08887 0.5387 0.0
H550 H 0.42137 0.03707 0.57029 0.0
C551 C 0.33398 0.14915 0.5386 0.0
H552 H 0.33848 0.00224 0.55063 0.0
C553 C 0.38054 0.1694 0.5507 0.0
C554 C 0.41218 0.12949 0.56239 0.0
H555 H 0.31085 0.18148 0.52979 0.0
H556 H 0.39037 0.21647 0.55146 0.0
C557 C 0.39838 0.0687 0.56109 0.0
C558 C 0.27961 0.0219 0.79034 0.0
C559 C 0.2375 0.98095 0.78289 0.0
H560 H 0.29593 0.09696 0.80966 0.0
C561 C 0.17711 0.99106 0.7868 0.0
H562 H 0.3264 0.01571 0.78729 0.0
C563 C 0.15976 0.0375 0.79953 0.0
C564 C 0.20227 0.07512 0.80846 0.0
H565 H 0.14353 0.96038 0.78132 0.0
H566 H 0.11344 0.04123 0.80354 0.0
C567 C 0.26208 0.06893 0.80291 0.0
C568 C 0.40562 0.87576 0.06723 0.0
C569 C 0.40271 0.9304 0.05747 0.0
H570 H 0.3671 0.81882 0.08895 0.0
C571 C 0.36 0.97225 0.06343 0.0
H572 H 0.43897 0.84323 0.06312 0.0
C573 C 0.31884 0.95842 0.07824 0.0
C574 C 0.32021 0.90276 0.08749 0.0
H575 H 0.35714 0.01481 0.05617 0.0
H576 H 0.28488 0.99063 0.08201 0.0
C577 C 0.365 0.86218 0.0822 0.0
C578 C 0.45442 0.07311 0.31847 0.0
C579 C 0.40748 0.06213 0.30517 0.0
H580 H 0.50682 0.0403 0.34235 0.0
C581 C 0.37396 0.00978 0.30694 0.0
H582 H 0.48017 0.11381 0.31772 0.0
C583 C 0.38877 0.96792 0.32117 0.0
C584 C 0.43745 0.97761 0.33391 0.0
H585 H 0.33759 0.00015 0.29686 0.0
H586 H 0.36318 0.9271 0.3217 0.0
C587 C 0.46926 0.03129 0.33272 0.0
C588 C 0.77793 0.05815 0.56843 0.0
C589 C 0.77855 0.07842 0.54876 0.0
H590 H 0.74594 0.07316 0.59813 0.0
C591 C 0.73792 0.12226 0.54311 0.0
H592 H 0.80913 0.02477 0.57319 0.0
C593 C 0.70083 0.14899 0.55735 0.0
C594 C 0.70478 0.13267 0.57735 0.0
H595 H 0.73754 0.13839 0.528 0.0
H596 H 0.67331 0.18602 0.55307 0.0
C597 C 0.74174 0.0856 0.58268 0.0
C598 C 0.75835 0.89506 0.30004 0.0
C599 C 0.78278 0.94967 0.30676 0.0
H600 H 0.70487 0.81899 0.30743 0.0
C601 C 0.78147 0.96303 0.32727 0.0
H602 H 0.7597 0.88272 0.28439 0.0
C603 C 0.7511 0.92623 0.34033 0.0
C604 C 0.72126 0.87523 0.33327 0.0
H605 H 0.79928 0.00454 0.3331 0.0
H606 H 0.74677 0.94038 0.35577 0.0
C607 C 0.72775 0.85801 0.31323 0.0
C608 C 0.92519 0.94897 0.05843 0.0
C609 C 0.89234 0.9069 0.0474 0.0
H610 H 0.9911 0.96458 0.08055 0.0
C611 C 0.90295 0.84602 0.05019 0.0
H612 H 0.91866 -0.00382 0.0564 0.0
C613 C 0.94512 0.82769 0.06399 0.0
C614 C 0.97716 0.86988 0.07527 0.0
H615 H 0.87792 0.81256 0.04199 0.0
H616 H 0.95296 0.78067 0.0657 0.0
C617 C 0.96694 0.93071 0.07223 0.0
C618 C 0.98488 0.04442 0.80663 0.0
C619 C 0.94051 0.05748 0.7927 0.0
H620 H 0.03512 0.07498 0.83181 0.0
C621 C 0.91405 0.11391 0.79325 0.0
H622 H 0.00499 0.0008 0.80695 0.0
C623 C 0.93097 0.156 0.80765 0.0
C624 C 0.97508 0.14262 0.82159 0.0
H625 H 0.88003 0.12538 0.78264 0.0
H626 H 0.90962 0.19907 0.80786 0.0
C627 C 0.00217 0.08674 0.82089 0.0
C628 C 0.73127 0.87246 0.44753 0.0
C629 C 0.77029 0.91888 0.44254 0.0
H630 H 0.66952 0.80688 0.43661 0.0
C631 C 0.76795 0.94261 0.42333 0.0
H632 H 0.73205 0.85367 0.46228 0.0
C633 C 0.73239 0.91582 0.40874 0.0
C634 C 0.69788 0.86583 0.41327 0.0
H635 H 0.79784 0.97803 0.41902 0.0
H636 H 0.73596 0.93075 0.39352 0.0
C637 C 0.69501 0.84622 0.43296 0.0
C638 C 0.98257 0.93874 0.1853 0.0
C639 C 0.92222 0.94206 0.19052 0.0
H640 H 0.04858 0.89464 0.16753 0.0
C641 C 0.88217 0.90115 0.18206 0.0
H642 H 0.01439 0.97004 0.19154 0.0
C643 C 0.90146 0.85914 0.16813 0.0
C644 C 0.96149 0.85661 0.16239 0.0
H645 H 0.83559 0.90197 0.18606 0.0
H646 H 0.86886 0.82886 0.16179 0.0
C647 C 0.00205 0.89621 0.17136 0.0
C648 C 0.92145 0.02644 0.91874 0.0
C649 C 0.88502 0.06513 0.9298 0.0
H650 H 0.99258 0.01739 0.89803 0.0
C651 C 0.89336 0.12687 0.92808 0.0
H652 H 0.91666 0.97868 0.91991 0.0
C653 C 0.93756 0.14937 0.91559 0.0
C654 C 0.97405 0.11057 0.90456 0.0
H655 H 0.86534 0.15775 0.93624 0.0
H656 H 0.94355 0.19695 0.91471 0.0
C657 C 0.96528 0.04883 0.90625 0.0
C658 C 0.77401 0.04849 0.66622 0.0
C659 C 0.75649 0.04935 0.6863 0.0
H660 H 0.75673 0.08056 0.63696 0.0
C661 C 0.71558 0.09237 0.69297 0.0
H662 H 0.80514 0.01557 0.66068 0.0
C663 C 0.68886 0.13047 0.67941 0.0
C664 C 0.70219 0.12522 0.65907 0.0
H665 H 0.70169 0.09403 0.70842 0.0
H666 H 0.65394 0.15995 0.68455 0.0
C667 C 0.74656 0.08575 0.65267 0.0
C668 C 0.83018 0.33233 0.94795 0.0
C669 C 0.81062 0.39191 0.9473 0.0
H670 H 0.88859 0.26594 0.93565 0.0
C671 C 0.84198 0.4315 0.935 0.0
H672 H 0.80904 0.30041 0.95756 0.0
C673 C 0.8897 0.4121 0.92345 0.0
C674 C 0.90627 0.35217 0.9232 0.0
H675 H 0.82833 0.47713 0.9333 0.0
H676 H 0.91095 0.44335 0.91354 0.0
C677 C 0.87662 0.31242 0.93566 0.0
C678 C 0.84636 0.47163 0.16773 0.0
C679 C 0.88682 0.43002 0.17492 0.0
H680 H 0.83332 0.54681 0.14912 0.0
C681 C 0.94474 0.42857 0.16724 0.0
H682 H 0.80138 0.4732 0.17343 0.0
C683 C 0.96277 0.46973 0.15313 0.0
C684 C 0.92338 0.51365 0.14673 0.0
H685 H 0.97636 0.39616 0.17242 0.0
H686 H 0.00836 0.46887 0.148 0.0
C687 C 0.86465 0.51352 0.15385 0.0
C688 C 0.85916 0.51651 0.42521 0.0
C689 C 0.90192 0.55604 0.43291 0.0
H690 H 0.78584 0.50431 0.40538 0.0
C691 C 0.90569 0.61387 0.42543 0.0
H692 H 0.85568 0.4716 0.43071 0.0
C693 C 0.86652 0.63236 0.41077 0.0
C694 C 0.82235 0.59356 0.40349 0.0
H695 H 0.93908 0.64479 0.43089 0.0
H696 H 0.86979 0.67766 0.40561 0.0
C697 C 0.8194 0.53524 0.41071 0.0
C698 C 0.78187 0.47686 0.69339 0.0
C699 C 0.73965 0.51123 0.70393 0.0
H700 H 0.7974 0.40727 0.67194 0.0
C701 C 0.67948 0.49409 0.70262 0.0
H702 H 0.8285 0.48831 0.69361 0.0
C703 C 0.66165 0.44854 0.68951 0.0
C704 C 0.70371 0.41744 0.67806 0.0
H705 H 0.64557 0.51743 0.71103 0.0
H706 H 0.61482 0.43939 0.6877 0.0
C707 C 0.76409 0.43001 0.68085 0.0
C708 C 0.80934 0.66455 0.04635 0.0
C709 C 0.81192 0.60878 0.03665 0.0
H710 H 0.84961 0.72519 0.06692 0.0
C711 C 0.86431 0.57521 0.03827 0.0
H712 H 0.76998 0.69182 0.04565 0.0
C713 C 0.91041 0.59438 0.05083 0.0
C714 C 0.90498 0.64756 0.06194 0.0
H715 H 0.86865 0.5328 0.03056 0.0
H716 H 0.94814 0.5655 0.0529 0.0
C717 C 0.85532 0.68377 0.0587 0.0
C718 C 0.6931 0.49299 0.2919 0.0
C719 C 0.75376 0.48484 0.28795 0.0
H720 H 0.6278 0.54163 0.30838 0.0
C721 C 0.7946 0.52717 0.29534 0.0
H722 H 0.66047 0.46116 0.2865 0.0
C723 C 0.77557 0.57397 0.30776 0.0
C724 C 0.71552 0.57856 0.31319 0.0
H725 H 0.84156 0.52248 0.29227 0.0
H726 H 0.80845 0.60342 0.31437 0.0
C727 C 0.67427 0.53919 0.30445 0.0
C728 C 0.86546 0.47955 0.56892 0.0
C729 C 0.90805 0.43928 0.56169 0.0
H730 H 0.79006 0.49305 0.58787 0.0
C731 C 0.9098 0.38168 0.56942 0.0
H732 H 0.8634 0.52429 0.56321 0.0
C733 C 0.86862 0.36403 0.58372 0.0
C734 C 0.82431 0.40343 0.59038 0.0
H735 H 0.94291 0.35013 0.5643 0.0
H736 H 0.87022 0.31878 0.58899 0.0
C737 C 0.82364 0.46166 0.58303 0.0
C738 C 0.86911 0.5451 0.82656 0.0
C739 C 0.91103 0.56626 0.8127 0.0
H740 H 0.8516 0.48487 0.85044 0.0
C741 C 0.96935 0.54414 0.81341 0.0
H742 H 0.82414 0.56167 0.82685 0.0
C743 C 0.98544 0.50297 0.82763 0.0
C744 C 0.94321 0.48104 0.84096 0.0
H745 H 0.00267 0.55723 0.8027 0.0
H746 H 0.0304 0.48606 0.82756 0.0
C747 C 0.88485 0.5019 0.84031 0.0
C748 C 0.23741 0.62403 0.04323 0.0
C749 C 0.2792 0.58149 0.04907 0.0
H750 H 0.17088 0.68631 0.05285 0.0
C751 C 0.27942 0.56259 0.06891 0.0
H752 H 0.23633 0.63916 0.028 0.0
C753 C 0.24254 0.5898 0.08304 0.0
C754 C 0.20387 0.63524 0.07746 0.0
H755 H 0.3115 0.5303 0.07384 0.0
H756 H 0.24723 0.57835 0.09857 0.0
C757 C 0.19956 0.65042 0.05734 0.0
C758 C 0.24306 0.3904 0.79865 0.0
C759 C 0.26814 0.4454 0.80473 0.0
H760 H 0.19256 0.31357 0.80736 0.0
C761 C 0.2706 0.45905 0.82521 0.0
H762 H 0.24158 0.37772 0.78304 0.0
C763 C 0.2437 0.42191 0.83899 0.0
C764 C 0.21337 0.37029 0.83272 0.0
H765 H 0.28894 0.50082 0.83061 0.0
H766 H 0.24263 0.4361 0.85449 0.0
C767 C 0.21583 0.35306 0.81257 0.0
C768 C 0.43489 0.45812 0.5631 0.0
C769 C 0.39856 0.41876 0.55221 0.0
H770 H 0.50322 0.46852 0.58469 0.0
C771 C 0.40482 0.3572 0.55489 0.0
H772 H 0.43159 0.50574 0.56119 0.0
C773 C 0.44638 0.33556 0.56835 0.0
C774 C 0.48227 0.37506 0.5794 0.0
H775 H 0.37681 0.32586 0.54685 0.0
H776 H 0.45056 0.28805 0.57006 0.0
C777 C 0.47612 0.4366 0.57655 0.0
C778 C 0.44335 0.60988 0.28951 0.0
C779 C 0.46099 0.55102 0.29231 0.0
H780 H 0.44324 0.69875 0.30145 0.0
C781 C 0.49705 0.53702 0.30859 0.0
H782 H 0.41492 0.6212 0.27716 0.0
C783 C 0.51382 0.58122 0.3223 0.0
C784 C 0.49363 0.63951 0.32005 0.0
H785 H 0.5106 0.49154 0.31101 0.0
H786 H 0.53997 0.5693 0.33513 0.0
C787 C 0.45909 0.65381 0.30343 0.0
C788 C 0.23984 0.35381 0.94766 0.0
C789 C 0.27834 0.4007 0.94269 0.0
H790 H 0.17741 0.2886 0.93685 0.0
C791 C 0.27609 0.42404 0.92342 0.0
H792 H 0.24057 0.33523 0.96245 0.0
C793 C 0.24029 0.39731 0.90888 0.0
C794 C 0.20527 0.34774 0.9135 0.0
H795 H 0.30565 0.45972 0.9191 0.0
H796 H 0.24326 0.41256 0.89368 0.0
C797 C 0.20324 0.32766 0.93315 0.0
C798 C 0.47523 0.4398 0.68277 0.0
C799 C 0.41623 0.43619 0.68951 0.0
H800 H 0.54233 0.40185 0.66387 0.0
C801 C 0.38049 0.38858 0.68308 0.0
H802 H 0.50347 0.47659 0.68737 0.0
C803 C 0.40259 0.34626 0.66972 0.0
C804 C 0.46103 0.35056 0.66242 0.0
H805 H 0.33509 0.38442 0.68823 0.0
H806 H 0.37341 0.31037 0.66499 0.0
C807 C 0.49741 0.3973 0.66929 0.0
C808 C 0.404 0.64182 0.43199 0.0
C809 C 0.39124 0.58062 0.43306 0.0
H810 H 0.45675 0.7099 0.41847 0.0
C811 C 0.42205 0.54097 0.42046 0.0
H812 H 0.38066 0.67354 0.4414 0.0
C813 C 0.46457 0.56187 0.40717 0.0
C814 C 0.47762 0.62297 0.40616 0.0
H815 H 0.41404 0.49352 0.42107 0.0
H816 H 0.48769 0.52983 0.39781 0.0
C817 C 0.4468 0.66279 0.41867 0.0
C818 C 0.28106 0.57949 0.16958 0.0
C819 C 0.25259 0.55799 0.18676 0.0
H820 H 0.27168 0.62807 0.14246 0.0
C821 C 0.19509 0.57833 0.1913 0.0
H822 H 0.32566 0.5656 0.16578 0.0
C823 C 0.1651 0.61514 0.17819 0.0
C824 C 0.19199 0.63243 0.16036 0.0
H825 H 0.17132 0.56226 0.20419 0.0
H826 H 0.11921 0.6263 0.18125 0.0
C827 C 0.25071 0.61599 0.15637 0.0
loop_
_geom_bond_atom_site_label_1
_geom_bond_atom_site_label_2
_geom_bond_distance
_geom_bond_site_symmetry_2
_ccdc_geom_bond_type
H0 C19 0.949 . S
H1 C20 0.950 . S
H2 C22 0.950 1_545 S
H3 C23 0.969 . S
H4 C25 0.950 . S
H5 C28 0.950 1_565 S
H6 C29 0.950 . S
H7 C31 0.951 . S
H8 C32 0.949 . S
H9 C34 0.949 . S
H10 C35 0.950 . S
H11 C37 0.950 1_565 S
H12 C38 0.949 1_565 S
H13 C40 0.950 . S
H14 C43 0.950 1_545 S
H15 C44 0.962 . S
H16 C46 0.951 . S
H17 C47 0.949 . S
C18 C19 1.376 . S
C18 C23 1.373 1_565 S
C18 C24 1.483 . S
C19 H0 0.949 . S
C19 C18 1.376 . S
C19 C20 1.397 . S
C20 H1 0.950 . S
C20 C19 1.397 . S
C20 C21 1.391 . S
C21 C20 1.391 . S
C21 C22 1.405 . S
C22 H2 0.950 1_565 S
C22 C21 1.405 . S
C22 C23 1.362 1_565 S
C23 H3 0.969 . S
C23 C18 1.373 1_545 S
C23 C22 1.362 1_545 S
C24 C18 1.483 . S
C24 C25 1.382 1_655 S
C24 C26 1.403 1_565 S
C25 H4 0.950 . S
C25 C24 1.382 1_455 S
C25 C41 1.411 . S
C26 C24 1.403 1_545 S
C26 C27 1.489 . S
C26 C40 1.411 1_655 S
C27 C26 1.489 . S
C27 C28 1.383 . S
C27 C32 1.382 . S
C28 H5 0.950 1_545 S
C28 C27 1.383 . S
C28 C29 1.395 . S
C29 H6 0.950 . S
C29 C28 1.395 . S
C29 C30 1.288 . S
C30 C29 1.288 . S
C30 C31 1.392 . S
C31 H7 0.951 . S
C31 C30 1.392 . S
C31 C32 1.392 . S
C32 H8 0.949 . S
C32 C27 1.382 . S
C32 C31 1.392 . S
C33 C34 1.376 . S
C33 C38 1.387 . S
C33 C39 1.483 . S
C34 H9 0.949 . S
C34 C33 1.376 . S
C34 C35 1.397 . S
C35 H10 0.950 . S
C35 C34 1.397 . S
C35 C36 1.391 . S
C36 C35 1.391 . S
C36 C37 1.405 . S
C37 H11 0.950 1_545 S
C37 C36 1.405 . S
C37 C38 1.368 . S
C38 H12 0.949 1_545 S
C38 C33 1.387 . S
C38 C37 1.368 . S
C39 C33 1.483 . S
C39 C40 1.382 . S
C39 C41 1.403 1_545 S
C40 H13 0.950 . S
C40 C26 1.411 1_455 S
C40 C39 1.382 . S
C41 C25 1.411 . S
C41 C39 1.403 1_565 S
C41 C42 1.489 . S
C42 C41 1.489 . S
C42 C43 1.383 . S
C42 C47 1.382 . S
C43 H14 0.950 1_565 S
C43 C42 1.383 . S
C43 C44 1.395 . S
C44 H15 0.962 . S
C44 C43 1.395 . S
C44 C45 1.288 . S
C45 C44 1.288 . S
C45 C46 1.392 . S
C46 H16 0.951 . S
C46 C45 1.392 . S
C46 C47 1.392 . S
C47 H17 0.949 . S
C47 C42 1.382 . S
C47 C46 1.392 . S
H48 C67 0.949 . S
H49 C68 0.950 . S
H50 C70 0.950 . S
H51 C71 0.950 . S
H52 C73 0.950 . S
H53 C76 0.950 . S
H54 C77 0.950 . S
H55 C79 0.951 . S
H56 C80 0.949 . S
H57 C82 0.949 . S
H58 C83 0.950 . S
H59 C85 0.950 . S
H60 C86 0.950 . S
H61 C88 0.950 . S
H62 C91 0.950 . S
H63 C92 0.950 . S
H64 C94 0.951 . S
H65 C95 0.949 . S
C66 C67 1.376 . S
C66 C71 1.386 . S
C66 C72 1.483 . S
C67 H48 0.949 . S
C67 C66 1.376 . S
C67 C68 1.397 . S
C68 H49 0.950 . S
C68 C67 1.397 . S
C68 C69 1.391 . S
C69 C68 1.391 . S
C69 C70 1.405 . S
C70 H50 0.950 . S
C70 C69 1.405 . S
C70 C71 1.367 . S
C71 H51 0.950 . S
C71 C66 1.386 . S
C71 C70 1.367 . S
C72 C66 1.483 . S
C72 C73 1.382 . S
C72 C74 1.403 . S
C73 H52 0.950 . S
C73 C72 1.382 . S
C73 C89 1.411 . S
C74 C72 1.403 . S
C74 C75 1.489 . S
C74 C88 1.411 . S
C75 C74 1.489 . S
C75 C76 1.383 . S
C75 C80 1.382 . S
C76 H53 0.950 . S
C76 C75 1.383 . S
C76 C77 1.395 . S
C77 H54 0.950 . S
C77 C76 1.395 . S
C77 C78 1.288 . S
C78 C77 1.288 . S
C78 C79 1.392 . S
C79 H55 0.951 . S
C79 C78 1.392 . S
C79 C80 1.392 . S
C80 H56 0.949 . S
C80 C75 1.382 . S
C80 C79 1.392 . S
C81 C82 1.376 . S
C81 C86 1.386 . S
C81 C87 1.483 . S
C82 H57 0.949 . S
C82 C81 1.376 . S
C82 C83 1.397 . S
C83 H58 0.950 . S
C83 C82 1.397 . S
C83 C84 1.391 . S
C84 C83 1.391 . S
C84 C85 1.405 . S
C85 H59 0.950 . S
C85 C84 1.405 . S
C85 C86 1.367 . S
C86 H60 0.950 . S
C86 C81 1.386 . S
C86 C85 1.367 . S
C87 C81 1.483 . S
C87 C88 1.382 . S
C87 C89 1.403 . S
C88 H61 0.950 . S
C88 C74 1.411 . S
C88 C87 1.382 . S
C89 C73 1.411 . S
C89 C87 1.403 . S
C89 C90 1.489 . S
C90 C89 1.489 . S
C90 C91 1.383 . S
C90 C95 1.382 . S
C91 H62 0.950 . S
C91 C90 1.383 . S
C91 C92 1.395 . S
C92 H63 0.950 . S
C92 C91 1.395 . S
C92 C93 1.288 . S
C93 C92 1.288 . S
C93 C94 1.392 . S
C94 H64 0.951 . S
C94 C93 1.392 . S
C94 C95 1.392 . S
C95 H65 0.949 . S
C95 C90 1.382 . S
C95 C94 1.392 . S
H96 C115 0.949 1_545 S
H97 C116 0.950 . S
H98 C118 0.950 . S
H99 C119 0.950 1_556 S
H100 C121 0.950 . S
H101 C124 0.950 1_554 S
H102 C125 0.950 . S
H103 C127 0.951 . S
H104 C128 0.949 1_565 S
H105 C130 0.949 1_565 S
H106 C131 0.950 . S
H107 C133 0.950 . S
H108 C134 0.950 1_554 S
H109 C136 0.950 . S
H110 C139 0.950 1_556 S
H111 C140 0.950 . S
H112 C142 0.951 . S
H113 C143 0.949 1_545 S
C114 C115 1.376 . S
C114 C119 1.386 . S
C114 C120 1.483 . S
C115 H96 0.949 1_565 S
C115 C114 1.376 . S
C115 C116 1.397 . S
C116 H97 0.950 . S
C116 C115 1.397 . S
C116 C117 1.391 . S
C117 C116 1.391 . S
C117 C118 1.405 . S
C118 H98 0.950 . S
C118 C117 1.405 . S
C118 C119 1.367 . S
C119 H99 0.950 1_554 S
C119 C114 1.386 . S
C119 C118 1.367 . S
C120 C114 1.483 . S
C120 C121 1.382 . S
C120 C122 1.403 1_564 S
C121 H100 0.950 . S
C121 C120 1.382 . S
C121 C137 1.411 . S
C122 C120 1.403 1_546 S
C122 C123 1.489 . S
C122 C136 1.411 . S
C123 C122 1.489 . S
C123 C124 1.383 . S
C123 C128 1.382 . S
C124 H101 0.950 1_556 S
C124 C123 1.383 . S
C124 C125 1.395 . S
C125 H102 0.950 . S
C125 C124 1.395 . S
C125 C126 1.288 . S
C126 C125 1.288 . S
C126 C127 1.392 . S
C127 H103 0.951 . S
C127 C126 1.392 . S
C127 C128 1.392 . S
C128 H104 0.949 1_545 S
C128 C123 1.382 . S
C128 C127 1.392 . S
C129 C130 1.376 . S
C129 C134 1.386 . S
C129 C135 1.483 . S
C130 H105 0.949 1_545 S
C130 C129 1.376 . S
C130 C131 1.397 . S
C131 H106 0.950 . S
C131 C130 1.397 . S
C131 C132 1.391 . S
C132 C131 1.391 . S
C132 C133 1.405 . S
C133 H107 0.950 . S
C133 C132 1.405 . S
C133 C134 1.367 . S
C134 H108 0.950 1_556 S
C134 C129 1.386 . S
C134 C133 1.367 . S
C135 C129 1.483 . S
C135 C136 1.382 . S
C135 C137 1.403 1_546 S
C136 H109 0.950 . S
C136 C122 1.411 . S
C136 C135 1.382 . S
C137 C121 1.411 . S
C137 C135 1.403 1_564 S
C137 C138 1.489 . S
C138 C137 1.489 . S
C138 C139 1.383 . S
C138 C143 1.382 . S
C139 H110 0.950 1_554 S
C139 C138 1.383 . S
C139 C140 1.395 . S
C140 H111 0.950 . S
C140 C139 1.395 . S
C140 C141 1.288 . S
C141 C140 1.288 . S
C141 C142 1.392 . S
C142 H112 0.951 . S
C142 C141 1.392 . S
C142 C143 1.392 . S
C143 H113 0.949 1_565 S
C143 C138 1.382 . S
C143 C142 1.392 . S
H144 C163 0.949 . S
H145 C164 0.950 . S
H146 C166 0.950 . S
H147 C167 0.950 . S
H148 C169 0.950 . S
H149 C172 0.950 . S
H150 C173 0.950 . S
H151 C175 0.951 . S
H152 C176 0.949 . S
H153 C178 0.949 . S
H154 C179 0.950 . S
H155 C181 0.950 . S
H156 C182 0.950 . S
H157 C184 0.950 . S
H158 C187 0.950 . S
H159 C188 0.950 . S
H160 C190 0.951 . S
H161 C191 0.949 . S
C162 C163 1.376 . S
C162 C167 1.386 . S
C162 C168 1.483 . S
C163 H144 0.949 . S
C163 C162 1.376 . S
C163 C164 1.397 . S
C164 H145 0.950 . S
C164 C163 1.397 . S
C164 C165 1.391 . S
C165 C164 1.391 . S
C165 C166 1.405 . S
C166 H146 0.950 . S
C166 C165 1.405 . S
C166 C167 1.367 . S
C167 H147 0.950 . S
C167 C162 1.386 . S
C167 C166 1.367 . S
C168 C162 1.483 . S
C168 C169 1.382 . S
C168 C170 1.403 . S
C169 H148 0.950 . S
C169 C168 1.382 . S
C169 C185 1.411 . S
C170 C168 1.403 . S
C170 C171 1.489 . S
C170 C184 1.411 . S
C171 C170 1.489 . S
C171 C172 1.383 . S
C171 C176 1.382 . S
C172 H149 0.950 . S
C172 C171 1.383 . S
C172 C173 1.395 . S
C173 H150 0.950 . S
C173 C172 1.395 . S
C173 C174 1.288 . S
C174 C173 1.288 . S
C174 C175 1.392 . S
C175 H151 0.951 . S
C175 C174 1.392 . S
C175 C176 1.392 . S
C176 H152 0.949 . S
C176 C171 1.382 . S
C176 C175 1.392 . S
C177 C178 1.376 . S
C177 C182 1.386 . S
C177 C183 1.483 . S
C178 H153 0.949 . S
C178 C177 1.376 . S
C178 C179 1.397 . S
C179 H154 0.950 . S
C179 C178 1.397 . S
C179 C180 1.391 . S
C180 C179 1.391 . S
C180 C181 1.405 . S
C181 H155 0.950 . S
C181 C180 1.405 . S
C181 C182 1.367 . S
C182 H156 0.950 . S
C182 C177 1.386 . S
C182 C181 1.367 . S
C183 C177 1.483 . S
C183 C184 1.382 . S
C183 C185 1.403 . S
C184 H157 0.950 . S
C184 C170 1.411 . S
C184 C183 1.382 . S
C185 C169 1.411 . S
C185 C183 1.403 . S
C185 C186 1.489 . S
C186 C185 1.489 . S
C186 C187 1.383 . S
C186 C191 1.382 . S
C187 H158 0.950 . S
C187 C186 1.383 . S
C187 C188 1.395 . S
C188 H159 0.950 . S
C188 C187 1.395 . S
C188 C189 1.288 . S
C189 C188 1.288 . S
C189 C190 1.392 . S
C190 H160 0.951 . S
C190 C189 1.392 . S
C190 C191 1.392 . S
C191 H161 0.949 . S
C191 C186 1.382 . S
C191 C190 1.392 . S
H192 C211 0.949 . S
H193 C212 0.950 . S
H194 C214 0.950 . S
H195 C215 0.950 . S
H196 C217 0.950 . S
H197 C220 0.950 . S
H198 C221 0.950 . S
H199 C223 0.951 . S
H200 C224 0.949 . S
H201 C226 0.949 . S
H202 C227 0.950 1_565 S
H203 C229 0.950 . S
H204 C230 0.950 . S
H205 C232 0.950 . S
H206 C235 0.950 . S
H207 C236 0.950 . S
H208 C238 0.951 . S
H209 C239 0.949 . S
C210 C211 1.376 . S
C210 C215 1.386 . S
C210 C216 1.483 . S
C211 H192 0.949 . S
C211 C210 1.376 . S
C211 C212 1.397 . S
C212 H193 0.950 . S
C212 C211 1.397 . S
C212 C213 1.391 . S
C213 C212 1.391 . S
C213 C214 1.405 . S
C214 H194 0.950 . S
C214 C213 1.405 . S
C214 C215 1.367 . S
C215 H195 0.950 . S
C215 C210 1.386 . S
C215 C214 1.367 . S
C216 C210 1.483 . S
C216 C217 1.382 . S
C216 C218 1.403 . S
C217 H196 0.950 . S
C217 C216 1.382 . S
C217 C233 1.411 . S
C218 C216 1.403 . S
C218 C219 1.489 . S
C218 C232 1.411 . S
C219 C218 1.489 . S
C219 C220 1.383 . S
C219 C224 1.382 . S
C220 H197 0.950 . S
C220 C219 1.383 . S
C220 C221 1.395 . S
C221 H198 0.950 . S
C221 C220 1.395 . S
C221 C222 1.288 . S
C222 C221 1.288 . S
C222 C223 1.392 . S
C223 H199 0.951 . S
C223 C222 1.392 . S
C223 C224 1.392 . S
C224 H200 0.949 . S
C224 C219 1.382 . S
C224 C223 1.392 . S
C225 C226 1.376 . S
C225 C230 1.386 . S
C225 C231 1.483 . S
C226 H201 0.949 . S
C226 C225 1.376 . S
C226 C227 1.397 . S
C227 H202 0.950 1_545 S
C227 C226 1.397 . S
C227 C228 1.391 1_545 S
C228 C227 1.391 1_565 S
C228 C229 1.405 . S
C229 H203 0.950 . S
C229 C228 1.405 . S
C229 C230 1.367 1_565 S
C230 H204 0.950 . S
C230 C225 1.386 . S
C230 C229 1.367 1_545 S
C231 C225 1.483 . S
C231 C232 1.382 . S
C231 C233 1.403 . S
C232 H205 0.950 . S
C232 C218 1.411 . S
C232 C231 1.382 . S
C233 C217 1.411 . S
C233 C231 1.403 . S
C233 C234 1.489 . S
C234 C233 1.489 . S
C234 C235 1.383 . S
C234 C239 1.382 . S
C235 H206 0.950 . S
C235 C234 1.383 . S
C235 C236 1.395 1_545 S
C236 H207 0.950 . S
C236 C235 1.395 1_565 S
C236 C237 1.288 . S
C237 C236 1.288 . S
C237 C238 1.392 1_565 S
C238 H208 0.951 . S
C238 C237 1.392 1_545 S
C238 C239 1.392 . S
C239 H209 0.949 . S
C239 C234 1.382 . S
C239 C238 1.392 . S
H240 C259 0.949 . S
H241 C260 0.950 1_545 S
H242 C262 0.950 . S
H243 C263 0.950 . S
H244 C265 0.950 . S
H245 C268 0.950 . S
H246 C269 0.950 . S
H247 C271 0.951 1_455 S
H248 C272 0.949 . S
H249 C274 0.949 . S
H250 C275 0.951 . S
H251 C277 0.950 . S
H252 C278 0.950 . S
H253 C280 0.950 . S
H254 C283 0.950 . S
H255 C284 0.950 . S
H256 C286 0.951 . S
H257 C287 0.949 . S
C258 C259 1.376 . S
C258 C263 1.386 . S
C258 C264 1.483 . S
C259 H240 0.949 . S
C259 C258 1.376 . S
C259 C260 1.397 . S
C260 H241 0.950 1_565 S
C260 C259 1.397 . S
C260 C261 1.391 1_565 S
C261 C260 1.391 1_545 S
C261 C262 1.405 . S
C262 H242 0.950 . S
C262 C261 1.405 . S
C262 C263 1.367 1_545 S
C263 H243 0.950 . S
C263 C258 1.386 . S
C263 C262 1.367 1_565 S
C264 C258 1.483 . S
C264 C265 1.382 . S
C264 C266 1.403 . S
C265 H244 0.950 . S
C265 C264 1.382 . S
C265 C281 1.411 . S
C266 C264 1.403 . S
C266 C267 1.489 . S
C266 C280 1.411 . S
C267 C266 1.489 . S
C267 C268 1.383 . S
C267 C272 1.382 . S
C268 H245 0.950 . S
C268 C267 1.383 . S
C268 C269 1.395 1_565 S
C269 H246 0.950 . S
C269 C268 1.395 1_545 S
C269 C270 1.288 . S
C270 C269 1.288 . S
C270 C271 1.392 1_545 S
C271 H247 0.951 1_655 S
C271 C270 1.392 1_565 S
C271 C272 1.392 . S
C272 H248 0.949 . S
C272 C267 1.382 . S
C272 C271 1.392 . S
C273 C274 1.376 . S
C273 C278 1.386 . S
C273 C279 1.483 . S
C274 H249 0.949 . S
C274 C273 1.376 . S
C274 C275 1.397 . S
C275 H250 0.951 . S
C275 C274 1.397 . S
C275 C276 1.391 . S
C276 C275 1.391 . S
C276 C277 1.405 . S
C277 H251 0.950 . S
C277 C276 1.405 . S
C277 C278 1.367 . S
C278 H252 0.950 . S
C278 C273 1.386 . S
C278 C277 1.367 . S
C279 C273 1.483 . S
C279 C280 1.382 . S
C279 C281 1.403 . S
C280 H253 0.950 . S
C280 C266 1.411 . S
C280 C279 1.382 . S
C281 C265 1.411 . S
C281 C279 1.403 . S
C281 C282 1.489 . S
C282 C281 1.489 . S
C282 C283 1.383 . S
C282 C287 1.382 . S
C283 H254 0.950 . S
C283 C282 1.383 . S
C283 C284 1.395 . S
C284 H255 0.950 . S
C284 C283 1.395 . S
C284 C285 1.288 . S
C285 C284 1.288 . S
C285 C286 1.392 . S
C286 H256 0.951 . S
C286 C285 1.392 . S
C286 C287 1.392 . S
C287 H257 0.949 . S
C287 C282 1.382 . S
C287 C286 1.392 . S
H288 C307 0.949 . S
H289 C308 0.950 . S
H290 C310 0.950 . S
H291 C311 0.950 . S
H292 C313 0.950 . S
H293 C316 0.950 . S
H294 C317 0.950 . S
H295 C319 0.951 . S
H296 C320 0.949 . S
H297 C322 0.949 . S
H298 C323 0.950 . S
H299 C325 0.950 . S
H300 C326 0.950 . S
H301 C328 0.950 . S
H302 C331 0.950 . S
H303 C332 0.950 . S
H304 C334 0.951 . S
H305 C335 0.949 . S
C306 C307 1.376 . S
C306 C311 1.386 . S
C306 C312 1.483 . S
C307 H288 0.949 . S
C307 C306 1.376 . S
C307 C308 1.397 . S
C308 H289 0.950 . S
C308 C307 1.397 . S
C308 C309 1.391 . S
C309 C308 1.391 . S
C309 C310 1.405 . S
C310 H290 0.950 . S
C310 C309 1.405 . S
C310 C311 1.367 . S
C311 H291 0.950 . S
C311 C306 1.386 . S
C311 C310 1.367 . S
C312 C306 1.483 . S
C312 C313 1.382 . S
C312 C314 1.403 1_556 S
C313 H292 0.950 . S
C313 C312 1.382 . S
C313 C329 1.411 . S
C314 C312 1.403 1_554 S
C314 C315 1.489 . S
C314 C328 1.411 . S
C315 C314 1.489 . S
C315 C316 1.383 . S
C315 C320 1.382 . S
C316 H293 0.950 . S
C316 C315 1.383 . S
C316 C317 1.395 . S
C317 H294 0.950 . S
C317 C316 1.395 . S
C317 C318 1.288 . S
C318 C317 1.288 . S
C318 C319 1.392 . S
C319 H295 0.951 . S
C319 C318 1.392 . S
C319 C320 1.392 . S
C320 H296 0.949 . S
C320 C315 1.382 . S
C320 C319 1.392 . S
C321 C322 1.376 . S
C321 C326 1.386 . S
C321 C327 1.483 . S
C322 H297 0.949 . S
C322 C321 1.376 . S
C322 C323 1.397 . S
C323 H298 0.950 . S
C323 C322 1.397 . S
C323 C324 1.391 . S
C324 C323 1.391 . S
C324 C325 1.405 . S
C325 H299 0.950 . S
C325 C324 1.405 . S
C325 C326 1.367 . S
C326 H300 0.950 . S
C326 C321 1.386 . S
C326 C325 1.367 . S
C327 C321 1.483 . S
C327 C328 1.382 . S
C327 C329 1.403 1_554 S
C328 H301 0.950 . S
C328 C314 1.411 . S
C328 C327 1.382 . S
C329 C313 1.411 . S
C329 C327 1.403 1_556 S
C329 C330 1.489 . S
C330 C329 1.489 . S
C330 C331 1.383 . S
C330 C335 1.382 . S
C331 H302 0.950 . S
C331 C330 1.383 . S
C331 C332 1.395 . S
C332 H303 0.950 . S
C332 C331 1.395 . S
C332 C333 1.288 . S
C333 C332 1.288 . S
C333 C334 1.392 . S
C334 H304 0.951 . S
C334 C333 1.392 . S
C334 C335 1.392 . S
C335 H305 0.949 . S
C335 C330 1.382 . S
C335 C334 1.392 . S
H336 C355 0.949 . S
H337 C356 0.950 . S
H338 C358 0.950 . S
H339 C359 0.950 . S
H340 C361 0.950 . S
H341 C364 0.950 . S
H342 C365 0.950 . S
H343 C367 0.951 1_655 S
H344 C368 0.949 . S
H345 C370 0.949 . S
H346 C371 0.950 . S
H347 C373 0.950 . S
H348 C374 0.950 . S
H349 C376 0.950 . S
H350 C379 0.950 . S
H351 C380 0.950 . S
H352 C382 0.951 . S
H353 C383 0.949 . S
C354 C355 1.376 . S
C354 C359 1.386 . S
C354 C360 1.483 . S
C355 H336 0.949 . S
C355 C354 1.376 . S
C355 C356 1.397 1_455 S
C356 H337 0.950 . S
C356 C355 1.397 1_655 S
C356 C357 1.391 . S
C357 C356 1.391 . S
C357 C358 1.405 . S
C358 H338 0.950 . S
C358 C357 1.405 . S
C358 C359 1.367 1_655 S
C359 H339 0.950 . S
C359 C354 1.386 . S
C359 C358 1.367 1_455 S
C360 C354 1.483 . S
C360 C361 1.382 . S
C360 C362 1.403 . S
C361 H340 0.950 . S
C361 C360 1.382 . S
C361 C377 1.411 . S
C362 C360 1.403 . S
C362 C363 1.489 . S
C362 C376 1.411 . S
C363 C362 1.489 . S
C363 C364 1.383 . S
C363 C368 1.382 . S
C364 H341 0.950 . S
C364 C363 1.383 . S
C364 C365 1.395 1_455 S
C365 H342 0.950 . S
C365 C364 1.395 1_655 S
C365 C366 1.288 . S
C366 C365 1.288 . S
C366 C367 1.392 1_655 S
C367 H343 0.951 1_455 S
C367 C366 1.392 1_455 S
C367 C368 1.392 . S
C368 H344 0.949 . S
C368 C363 1.382 . S
C368 C367 1.392 . S
C369 C370 1.376 . S
C369 C374 1.386 . S
C369 C375 1.483 . S
C370 H345 0.949 . S
C370 C369 1.376 . S
C370 C371 1.397 . S
C371 H346 0.950 . S
C371 C370 1.397 . S
C371 C372 1.391 . S
C372 C371 1.391 . S
C372 C373 1.405 . S
C373 H347 0.950 . S
C373 C372 1.405 . S
C373 C374 1.367 . S
C374 H348 0.950 . S
C374 C369 1.386 . S
C374 C373 1.367 . S
C375 C369 1.483 . S
C375 C376 1.382 . S
C375 C377 1.403 . S
C376 H349 0.950 . S
C376 C362 1.411 . S
C376 C375 1.382 . S
C377 C361 1.411 . S
C377 C375 1.403 . S
C377 C378 1.489 . S
C378 C377 1.489 . S
C378 C379 1.383 . S
C378 C383 1.382 . S
C379 H350 0.950 . S
C379 C378 1.383 . S
C379 C380 1.395 . S
C380 H351 0.950 . S
C380 C379 1.395 . S
C380 C381 1.288 . S
C381 C380 1.288 . S
C381 C382 1.392 . S
C382 H352 0.951 . S
C382 C381 1.392 . S
C382 C383 1.392 . S
C383 H353 0.949 . S
C383 C378 1.382 . S
C383 C382 1.392 . S
C384 O411 1.312 . S
C384 O412 1.208 . S
C385 O406 1.331 1_655 S
C385 O409 1.244 . S
C386 O408 1.264 1_655 S
C386 O410 1.273 . S
Mg387 O389 1.936 . S
Mg387 O396 2.081 . S
Mg387 O398 2.023 . S
Mg387 O402 2.031 . S
Mg387 O411 2.291 . S
Mg388 O389 1.963 . S
Mg388 O399 1.942 . S
Mg388 O400 1.955 . S
Mg388 O407 1.986 . S
O389 Mg387 1.936 . S
O389 Mg388 1.963 . S
O389 Mg390 1.915 . S
Mg390 O389 1.915 . S
Mg390 O391 1.915 . S
Mg390 O395 2.013 . S
Mg390 O401 2.114 . S
Mg390 O405 2.013 . S
Mg390 O411 2.114 . S
O391 Mg390 1.915 . S
O391 Mg392 1.936 . S
O391 Mg393 1.963 1_455 S
Mg392 O391 1.936 . S
Mg392 O401 2.291 . S
Mg392 O406 2.081 . S
Mg392 O408 2.023 . S
Mg392 O412 2.031 . S
Mg393 O391 1.963 1_655 S
Mg393 O397 1.986 . S
Mg393 O409 1.942 . S
Mg393 O410 1.955 . S
C394 O405 1.191 . S
C394 O407 1.307 . S
O395 Mg390 2.013 . S
O395 C414 1.191 . S
O396 Mg387 2.081 . S
O396 C404 1.331 . S
O397 Mg393 1.986 . S
O397 C414 1.307 1_655 S
O398 Mg387 2.023 . S
O398 C413 1.264 . S
O399 Mg388 1.942 . S
O399 C404 1.244 . S
O400 Mg388 1.955 . S
O400 C413 1.273 . S
O401 Mg390 2.114 . S
O401 Mg392 2.291 . S
O401 C403 1.312 . S
O402 Mg387 2.031 . S
O402 C403 1.208 . S
C403 O401 1.312 . S
C403 O402 1.208 . S
C404 O396 1.331 . S
C404 O399 1.244 . S
O405 Mg390 2.013 . S
O405 C394 1.191 . S
O406 C385 1.331 1_455 S
O406 Mg392 2.081 . S
O407 Mg388 1.986 . S
O407 C394 1.307 . S
O408 C386 1.264 1_455 S
O408 Mg392 2.023 . S
O409 C385 1.244 . S
O409 Mg393 1.942 . S
O410 C386 1.273 . S
O410 Mg393 1.955 . S
O411 C384 1.312 . S
O411 Mg387 2.291 . S
O411 Mg390 2.114 . S
O412 C384 1.208 . S
O412 Mg392 2.031 . S
C413 O398 1.264 . S
C413 O400 1.273 . S
C414 O395 1.191 . S
C414 O397 1.307 1_455 S
C415 O442 1.312 . S
C415 O443 1.208 . S
C416 O437 1.331 . S
C416 O440 1.244 . S
C417 O439 1.264 . S
C417 O441 1.273 . S
Mg418 O420 1.936 . S
Mg418 O427 2.081 . S
Mg418 O429 2.023 . S
Mg418 O433 2.031 . S
Mg418 O442 2.291 . S
Mg419 O420 1.963 . S
Mg419 O430 1.942 . S
Mg419 O431 1.955 . S
Mg419 O438 1.986 . S
O420 Mg418 1.936 . S
O420 Mg419 1.963 . S
O420 Mg421 1.915 . S
Mg421 O420 1.915 . S
Mg421 O422 1.915 . S
Mg421 O426 2.013 . S
Mg421 O432 2.114 . S
Mg421 O436 2.013 . S
Mg421 O442 2.114 . S
O422 Mg421 1.915 . S
O422 Mg423 1.936 . S
O422 Mg424 1.963 . S
Mg423 O422 1.936 . S
Mg423 O432 2.291 . S
Mg423 O437 2.081 . S
Mg423 O439 2.023 . S
Mg423 O443 2.031 . S
Mg424 O422 1.963 . S
Mg424 O428 1.986 . S
Mg424 O440 1.942 . S
Mg424 O441 1.955 . S
C425 O436 1.191 . S
C425 O438 1.307 . S
O426 Mg421 2.013 . S
O426 C445 1.191 . S
O427 Mg418 2.081 . S
O427 C435 1.331 . S
O428 Mg424 1.986 . S
O428 C445 1.307 . S
O429 Mg418 2.023 . S
O429 C444 1.264 . S
O430 Mg419 1.942 . S
O430 C435 1.244 . S
O431 Mg419 1.955 . S
O431 C444 1.273 . S
O432 Mg421 2.114 . S
O432 Mg423 2.291 . S
O432 C434 1.312 . S
O433 Mg418 2.031 . S
O433 C434 1.208 . S
C434 O432 1.312 . S
C434 O433 1.208 . S
C435 O427 1.331 . S
C435 O430 1.244 . S
O436 Mg421 2.013 . S
O436 C425 1.191 . S
O437 C416 1.331 . S
O437 Mg423 2.081 . S
O438 Mg419 1.986 . S
O438 C425 1.307 . S
O439 C417 1.264 . S
O439 Mg423 2.023 . S
O440 C416 1.244 . S
O440 Mg424 1.942 . S
O441 C417 1.273 . S
O441 Mg424 1.955 . S
O442 C415 1.312 . S
O442 Mg418 2.291 . S
O442 Mg421 2.114 . S
O443 C415 1.208 . S
O443 Mg423 2.031 . S
C444 O429 1.264 . S
C444 O431 1.273 . S
C445 O426 1.191 . S
C445 O428 1.307 . S
C446 O473 1.312 . S
C446 O474 1.208 . S
C447 O468 1.331 . S
C447 O471 1.244 . S
C448 O470 1.264 . S
C448 O472 1.273 . S
Mg449 O451 1.936 . S
Mg449 O458 2.081 . S
Mg449 O460 2.023 . S
Mg449 O464 2.031 . S
Mg449 O473 2.291 . S
Mg450 O451 1.963 . S
Mg450 O461 1.942 . S
Mg450 O462 1.955 . S
Mg450 O469 1.986 . S
O451 Mg449 1.936 . S
O451 Mg450 1.963 . S
O451 Mg452 1.915 . S
Mg452 O451 1.915 . S
Mg452 O453 1.915 . S
Mg452 O457 2.013 . S
Mg452 O463 2.114 . S
Mg452 O467 2.013 . S
Mg452 O473 2.114 . S
O453 Mg452 1.915 . S
O453 Mg454 1.936 . S
O453 Mg455 1.963 . S
Mg454 O453 1.936 . S
Mg454 O463 2.291 . S
Mg454 O468 2.081 . S
Mg454 O470 2.023 . S
Mg454 O474 2.031 . S
Mg455 O453 1.963 . S
Mg455 O459 1.986 . S
Mg455 O471 1.942 . S
Mg455 O472 1.955 . S
C456 O467 1.191 . S
C456 O469 1.307 . S
O457 Mg452 2.013 . S
O457 C476 1.191 . S
O458 Mg449 2.081 . S
O458 C466 1.331 . S
O459 Mg455 1.986 . S
O459 C476 1.307 . S
O460 Mg449 2.023 . S
O460 C475 1.264 . S
O461 Mg450 1.942 . S
O461 C466 1.244 . S
O462 Mg450 1.955 . S
O462 C475 1.273 . S
O463 Mg452 2.114 . S
O463 Mg454 2.291 . S
O463 C465 1.312 . S
O464 Mg449 2.031 . S
O464 C465 1.208 . S
C465 O463 1.312 . S
C465 O464 1.208 . S
C466 O458 1.331 . S
C466 O461 1.244 . S
O467 Mg452 2.013 . S
O467 C456 1.191 . S
O468 C447 1.331 . S
O468 Mg454 2.081 . S
O469 Mg450 1.986 . S
O469 C456 1.307 . S
O470 C448 1.264 . S
O470 Mg454 2.023 . S
O471 C447 1.244 . S
O471 Mg455 1.942 . S
O472 C448 1.273 . S
O472 Mg455 1.955 . S
O473 C446 1.312 . S
O473 Mg449 2.291 . S
O473 Mg452 2.114 . S
O474 C446 1.208 . S
O474 Mg454 2.031 . S
C475 O460 1.264 . S
C475 O462 1.273 . S
C476 O457 1.191 . S
C476 O459 1.307 . S
C477 O504 1.312 . S
C477 O505 1.208 . S
C478 O499 1.331 . S
C478 O502 1.244 . S
C479 O501 1.264 . S
C479 O503 1.273 . S
Mg480 O482 1.936 . S
Mg480 O489 2.081 . S
Mg480 O491 2.023 . S
Mg480 O495 2.031 . S
Mg480 O504 2.291 . S
Mg481 O482 1.963 1_655 S
Mg481 O492 1.942 . S
Mg481 O493 1.955 . S
Mg481 O500 1.986 . S
O482 Mg480 1.936 . S
O482 Mg481 1.963 1_455 S
O482 Mg483 1.915 . S
Mg483 O482 1.915 . S
Mg483 O484 1.915 . S
Mg483 O488 2.013 . S
Mg483 O494 2.114 . S
Mg483 O498 2.013 . S
Mg483 O504 2.114 . S
O484 Mg483 1.915 . S
O484 Mg485 1.936 . S
O484 Mg486 1.963 . S
Mg485 O484 1.936 . S
Mg485 O494 2.291 . S
Mg485 O499 2.081 . S
Mg485 O501 2.023 . S
Mg485 O505 2.031 . S
Mg486 O484 1.963 . S
Mg486 O490 1.986 . S
Mg486 O502 1.942 . S
Mg486 O503 1.955 . S
C487 O498 1.191 . S
C487 O500 1.307 1_455 S
O488 Mg483 2.013 . S
O488 C507 1.191 . S
O489 Mg480 2.081 . S
O489 C497 1.331 1_455 S
O490 Mg486 1.986 . S
O490 C507 1.307 . S
O491 Mg480 2.023 . S
O491 C506 1.264 1_455 S
O492 Mg481 1.942 . S
O492 C497 1.244 . S
O493 Mg481 1.955 . S
O493 C506 1.273 . S
O494 Mg483 2.114 . S
O494 Mg485 2.291 . S
O494 C496 1.312 . S
O495 Mg480 2.031 . S
O495 C496 1.208 . S
C496 O494 1.312 . S
C496 O495 1.208 . S
C497 O489 1.331 1_655 S
C497 O492 1.244 . S
O498 Mg483 2.013 . S
O498 C487 1.191 . S
O499 C478 1.331 . S
O499 Mg485 2.081 . S
O500 Mg481 1.986 . S
O500 C487 1.307 1_655 S
O501 C479 1.264 . S
O501 Mg485 2.023 . S
O502 C478 1.244 . S
O502 Mg486 1.942 . S
O503 C479 1.273 . S
O503 Mg486 1.955 . S
O504 C477 1.312 . S
O504 Mg480 2.291 . S
O504 Mg483 2.114 . S
O505 C477 1.208 . S
O505 Mg485 2.031 . S
C506 O491 1.264 1_655 S
C506 O493 1.273 . S
C507 O488 1.191 . S
C507 O490 1.307 . S
C508 C509 1.387 . S
C508 H512 0.950 . S
C508 C517 1.390 . S
C509 C508 1.387 . S
C509 C511 1.387 . S
H510 C517 0.950 . S
C511 C509 1.387 . S
C511 C513 1.390 . S
C511 H515 0.950 . S
H512 C508 0.950 . S
C513 C511 1.390 . S
C513 C514 1.387 . S
C513 H516 0.950 . S
C514 C513 1.387 . S
C514 C517 1.387 . S
H515 C511 0.950 . S
H516 C513 0.950 . S
C517 C508 1.390 . S
C517 H510 0.950 . S
C517 C514 1.387 . S
C518 C519 1.387 . S
C518 H522 0.950 . S
C518 C527 1.390 1_565 S
C519 C518 1.387 . S
C519 C521 1.387 . S
H520 C527 0.950 . S
C521 C519 1.387 . S
C521 C523 1.390 1_565 S
C521 H525 0.950 . S
H522 C518 0.950 . S
C523 C521 1.390 1_545 S
C523 C524 1.387 . S
C523 H526 0.950 . S
C524 C523 1.387 . S
C524 C527 1.387 . S
H525 C521 0.950 . S
H526 C523 0.950 . S
C527 C518 1.390 1_545 S
C527 H520 0.950 . S
C527 C524 1.387 . S
C528 C529 1.387 . S
C528 H532 0.950 . S
C528 C537 1.390 . S
C529 C528 1.387 . S
C529 C531 1.387 . S
H530 C537 0.950 . S
C531 C529 1.387 . S
C531 C533 1.390 . S
C531 H535 0.950 . S
H532 C528 0.950 . S
C533 C531 1.390 . S
C533 C534 1.387 . S
C533 H536 0.950 . S
C534 C533 1.387 . S
C534 C537 1.387 . S
H535 C531 0.950 . S
H536 C533 0.950 . S
C537 C528 1.390 . S
C537 H530 0.950 . S
C537 C534 1.387 . S
C538 C539 1.387 . S
C538 H542 0.950 . S
C538 C547 1.390 1_545 S
C539 C538 1.387 . S
C539 C541 1.387 . S
H540 C547 0.950 . S
C541 C539 1.387 . S
C541 C543 1.390 1_545 S
C541 H545 0.950 . S
H542 C538 0.950 . S
C543 C541 1.390 1_565 S
C543 C544 1.387 . S
C543 H546 0.950 . S
C544 C543 1.387 . S
C544 C547 1.387 . S
H545 C541 0.950 . S
H546 C543 0.950 . S
C547 C538 1.390 1_565 S
C547 H540 0.950 . S
C547 C544 1.387 . S
C548 C549 1.387 . S
C548 H552 0.950 . S
C548 C557 1.390 . S
C549 C548 1.387 . S
C549 C551 1.387 . S
H550 C557 0.950 . S
C551 C549 1.387 . S
C551 C553 1.390 . S
C551 H555 0.950 . S
H552 C548 0.950 . S
C553 C551 1.390 . S
C553 C554 1.387 . S
C553 H556 0.950 . S
C554 C553 1.387 . S
C554 C557 1.387 . S
H555 C551 0.950 . S
H556 C553 0.950 . S
C557 C548 1.390 . S
C557 H550 0.950 . S
C557 C554 1.387 . S
C558 C559 1.387 1_545 S
C558 H562 0.950 1_545 S
C558 C567 1.390 . S
C559 C558 1.387 1_565 S
C559 C561 1.387 . S
H560 C567 0.950 . S
C561 C559 1.387 . S
C561 C563 1.390 1_565 S
C561 H565 0.950 . S
H562 C558 0.950 1_565 S
C563 C561 1.390 1_545 S
C563 C564 1.387 . S
C563 H566 0.950 . S
C564 C563 1.387 . S
C564 C567 1.387 . S
H565 C561 0.950 . S
H566 C563 0.950 . S
C567 C558 1.390 . S
C567 H560 0.950 . S
C567 C564 1.387 . S
C568 C569 1.387 . S
C568 H572 0.950 . S
C568 C577 1.390 . S
C569 C568 1.387 . S
C569 C571 1.387 . S
H570 C577 0.950 . S
C571 C569 1.387 . S
C571 C573 1.390 . S
C571 H575 0.950 . S
H572 C568 0.950 . S
C573 C571 1.390 . S
C573 C574 1.387 . S
C573 H576 0.950 . S
C574 C573 1.387 . S
C574 C577 1.387 . S
H575 C571 0.950 . S
H576 C573 0.950 . S
C577 C568 1.390 . S
C577 H570 0.950 . S
C577 C574 1.387 . S
C578 C579 1.387 . S
C578 H582 0.950 . S
C578 C587 1.390 1_545 S
C579 C578 1.387 . S
C579 C581 1.387 . S
H580 C587 0.950 . S
C581 C579 1.387 . S
C581 C583 1.390 1_545 S
C581 H585 0.950 . S
H582 C578 0.950 . S
C583 C581 1.390 1_565 S
C583 C584 1.387 . S
C583 H586 0.950 . S
C584 C583 1.387 . S
C584 C587 1.387 . S
H585 C581 0.950 . S
H586 C583 0.950 . S
C587 C578 1.390 1_565 S
C587 H580 0.950 . S
C587 C584 1.387 . S
C588 C589 1.387 . S
C588 H592 0.950 . S
C588 C597 1.390 . S
C589 C588 1.387 . S
C589 C591 1.387 . S
H590 C597 0.950 . S
C591 C589 1.387 . S
C591 C593 1.390 . S
C591 H595 0.950 . S
H592 C588 0.950 . S
C593 C591 1.390 . S
C593 C594 1.387 . S
C593 H596 0.950 . S
C594 C593 1.387 . S
C594 C597 1.387 . S
H595 C591 0.950 . S
H596 C593 0.950 . S
C597 C588 1.390 . S
C597 H590 0.950 . S
C597 C594 1.387 . S
C598 C599 1.387 . S
C598 H602 0.950 . S
C598 C607 1.390 . S
C599 C598 1.387 . S
C599 C601 1.387 . S
H600 C607 0.950 . S
C601 C599 1.387 . S
C601 C603 1.390 . S
C601 H605 0.950 . S
H602 C598 0.950 . S
C603 C601 1.390 . S
C603 C604 1.387 . S
C603 H606 0.950 . S
C604 C603 1.387 . S
C604 C607 1.387 . S
H605 C601 0.950 . S
H606 C603 0.950 . S
C607 C598 1.390 . S
C607 H600 0.950 . S
C607 C604 1.387 . S
C608 C609 1.387 . S
C608 H612 0.950 . S
C608 C617 1.390 . S
C609 C608 1.387 . S
C609 C611 1.387 . S
H610 C617 0.950 1_455 S
C611 C609 1.387 . S
C611 C613 1.390 . S
C611 H615 0.950 . S
H612 C608 0.950 . S
C613 C611 1.390 . S
C613 C614 1.387 . S
C613 H616 0.950 . S
C614 C613 1.387 . S
C614 C617 1.387 . S
H615 C611 0.950 . S
H616 C613 0.950 . S
C617 C608 1.390 . S
C617 H610 0.950 1_655 S
C617 C614 1.387 . S
C618 C619 1.387 . S
C618 H622 0.950 . S
C618 C627 1.390 . S
C619 C618 1.387 . S
C619 C621 1.387 . S
H620 C627 0.950 1_455 S
C621 C619 1.387 . S
C621 C623 1.390 . S
C621 H625 0.950 . S
H622 C618 0.950 . S
C623 C621 1.390 . S
C623 C624 1.387 . S
C623 H626 0.950 . S
C624 C623 1.387 . S
C624 C627 1.387 . S
H625 C621 0.950 . S
H626 C623 0.950 . S
C627 C618 1.390 . S
C627 H620 0.950 1_655 S
C627 C624 1.387 . S
C628 C629 1.387 . S
C628 H632 0.950 . S
C628 C637 1.390 . S
C629 C628 1.387 . S
C629 C631 1.387 . S
H630 C637 0.950 . S
C631 C629 1.387 . S
C631 C633 1.390 . S
C631 H635 0.950 . S
H632 C628 0.950 . S
C633 C631 1.390 . S
C633 C634 1.387 . S
C633 H636 0.950 . S
C634 C633 1.387 . S
C634 C637 1.387 . S
H635 C631 0.950 . S
H636 C633 0.950 . S
C637 C628 1.390 . S
C637 H630 0.950 . S
C637 C634 1.387 . S
C638 C639 1.387 . S
C638 H642 0.950 . S
C638 C647 1.390 1_655 S
C639 C638 1.387 . S
C639 C641 1.387 . S
H640 C647 0.950 . S
C641 C639 1.387 . S
C641 C643 1.390 . S
C641 H645 0.950 . S
H642 C638 0.950 . S
C643 C641 1.390 . S
C643 C644 1.387 . S
C643 H646 0.950 . S
C644 C643 1.387 . S
C644 C647 1.387 1_655 S
H645 C641 0.950 . S
H646 C643 0.950 . S
C647 C638 1.390 1_455 S
C647 H640 0.950 . S
C647 C644 1.387 1_455 S
C648 C649 1.387 . S
C648 H652 0.950 . S
C648 C657 1.384 1_655 S
C649 C648 1.387 . S
C649 C651 1.387 . S
H650 C657 0.957 . S
C651 C649 1.387 . S
C651 C653 1.390 . S
C651 H655 0.950 . S
H652 C648 0.950 . S
C653 C651 1.390 . S
C653 C654 1.387 . S
C653 H656 0.950 . S
C654 C653 1.387 . S
C654 C657 1.387 1_655 S
H655 C651 0.950 . S
H656 C653 0.950 . S
C657 C648 1.384 1_455 S
C657 H650 0.957 . S
C657 C654 1.387 1_455 S
C658 C659 1.387 . S
C658 H662 0.950 . S
C658 C667 1.390 . S
C659 C658 1.387 . S
C659 C661 1.387 . S
H660 C667 0.950 . S
C661 C659 1.387 . S
C661 C663 1.390 . S
C661 H665 0.950 . S
H662 C658 0.950 . S
C663 C661 1.390 . S
C663 C664 1.387 . S
C663 H666 0.950 . S
C664 C663 1.387 . S
C664 C667 1.387 . S
H665 C661 0.950 . S
H666 C663 0.950 . S
C667 C658 1.390 . S
C667 H660 0.950 . S
C667 C664 1.387 . S
C668 C669 1.387 . S
C668 H672 0.950 . S
C668 C677 1.390 . S
C669 C668 1.387 . S
C669 C671 1.387 . S
H670 C677 0.950 . S
C671 C669 1.387 . S
C671 C673 1.390 . S
C671 H675 0.950 . S
H672 C668 0.950 . S
C673 C671 1.390 . S
C673 C674 1.387 . S
C673 H676 0.950 . S
C674 C673 1.387 . S
C674 C677 1.387 . S
H675 C671 0.950 . S
H676 C673 0.950 . S
C677 C668 1.390 . S
C677 H670 0.950 . S
C677 C674 1.387 . S
C678 C679 1.387 . S
C678 H682 0.950 . S
C678 C687 1.390 . S
C679 C678 1.387 . S
C679 C681 1.387 . S
H680 C687 0.950 . S
C681 C679 1.387 . S
C681 C683 1.390 . S
C681 H685 0.950 1_655 S
H682 C678 0.950 . S
C683 C681 1.390 . S
C683 C684 1.387 . S
C683 H686 0.950 1_655 S
C684 C683 1.387 . S
C684 C687 1.387 . S
H685 C681 0.950 1_455 S
H686 C683 0.950 1_455 S
C687 C678 1.390 . S
C687 H680 0.950 . S
C687 C684 1.387 . S
C688 C689 1.387 . S
C688 H692 0.950 . S
C688 C697 1.390 . S
C689 C688 1.387 . S
C689 C691 1.387 . S
H690 C697 0.950 . S
C691 C689 1.387 . S
C691 C693 1.390 . S
C691 H695 0.950 . S
H692 C688 0.950 . S
C693 C691 1.390 . S
C693 C694 1.387 . S
C693 H696 0.950 . S
C694 C693 1.387 . S
C694 C697 1.387 . S
H695 C691 0.950 . S
H696 C693 0.950 . S
C697 C688 1.390 . S
C697 H690 0.950 . S
C697 C694 1.387 . S
C698 C699 1.387 . S
C698 H702 0.950 . S
C698 C707 1.390 . S
C699 C698 1.387 . S
C699 C701 1.387 . S
H700 C707 0.950 . S
C701 C699 1.387 . S
C701 C703 1.390 . S
C701 H705 0.950 . S
H702 C698 0.950 . S
C703 C701 1.390 . S
C703 C704 1.387 . S
C703 H706 0.950 . S
C704 C703 1.387 . S
C704 C707 1.387 . S
H705 C701 0.950 . S
H706 C703 0.950 . S
C707 C698 1.390 . S
C707 H700 0.950 . S
C707 C704 1.387 . S
C708 C709 1.387 . S
C708 H712 0.950 . S
C708 C717 1.390 . S
C709 C708 1.387 . S
C709 C711 1.387 . S
H710 C717 0.950 . S
C711 C709 1.387 . S
C711 C713 1.390 . S
C711 H715 0.950 . S
H712 C708 0.950 . S
C713 C711 1.390 . S
C713 C714 1.387 . S
C713 H716 0.950 . S
C714 C713 1.387 . S
C714 C717 1.387 . S
H715 C711 0.950 . S
H716 C713 0.950 . S
C717 C708 1.390 . S
C717 H710 0.950 . S
C717 C714 1.387 . S
C718 C719 1.387 . S
C718 H722 0.950 . S
C718 C727 1.390 . S
C719 C718 1.387 . S
C719 C721 1.387 . S
H720 C727 0.950 . S
C721 C719 1.387 . S
C721 C723 1.390 . S
C721 H725 0.950 . S
H722 C718 0.950 . S
C723 C721 1.390 . S
C723 C724 1.387 . S
C723 H726 0.950 . S
C724 C723 1.387 . S
C724 C727 1.387 . S
H725 C721 0.950 . S
H726 C723 0.950 . S
C727 C718 1.390 . S
C727 H720 0.950 . S
C727 C724 1.387 . S
C728 C729 1.387 . S
C728 H732 0.950 . S
C728 C737 1.390 . S
C729 C728 1.387 . S
C729 C731 1.387 . S
H730 C737 0.950 . S
C731 C729 1.387 . S
C731 C733 1.390 . S
C731 H735 0.950 . S
H732 C728 0.950 . S
C733 C731 1.390 . S
C733 C734 1.387 . S
C733 H736 0.950 . S
C734 C733 1.387 . S
C734 C737 1.387 . S
H735 C731 0.950 . S
H736 C733 0.950 . S
C737 C728 1.390 . S
C737 H730 0.950 . S
C737 C734 1.387 . S
C738 C739 1.387 . S
C738 H742 0.950 . S
C738 C747 1.390 . S
C739 C738 1.387 . S
C739 C741 1.387 . S
H740 C747 0.950 . S
C741 C739 1.387 . S
C741 C743 1.390 . S
C741 H745 0.950 1_655 S
H742 C738 0.950 . S
C743 C741 1.390 . S
C743 C744 1.387 . S
C743 H746 0.950 1_655 S
C744 C743 1.387 . S
C744 C747 1.387 . S
H745 C741 0.950 1_455 S
H746 C743 0.950 1_455 S
C747 C738 1.390 . S
C747 H740 0.950 . S
C747 C744 1.387 . S
C748 C749 1.387 . S
C748 H752 0.950 . S
C748 C757 1.390 . S
C749 C748 1.387 . S
C749 C751 1.387 . S
H750 C757 0.950 . S
C751 C749 1.387 . S
C751 C753 1.390 . S
C751 H755 0.950 . S
H752 C748 0.950 . S
C753 C751 1.390 . S
C753 C754 1.387 . S
C753 H756 0.950 . S
C754 C753 1.387 . S
C754 C757 1.387 . S
H755 C751 0.950 . S
H756 C753 0.950 . S
C757 C748 1.390 . S
C757 H750 0.950 . S
C757 C754 1.387 . S
C758 C759 1.387 . S
C758 H762 0.950 . S
C758 C767 1.390 . S
C759 C758 1.387 . S
C759 C761 1.387 . S
H760 C767 0.950 . S
C761 C759 1.387 . S
C761 C763 1.390 . S
C761 H765 0.950 . S
H762 C758 0.950 . S
C763 C761 1.390 . S
C763 C764 1.387 . S
C763 H766 0.950 . S
C764 C763 1.387 . S
C764 C767 1.387 . S
H765 C761 0.950 . S
H766 C763 0.950 . S
C767 C758 1.390 . S
C767 H760 0.950 . S
C767 C764 1.387 . S
C768 C769 1.387 . S
C768 H772 0.950 . S
C768 C777 1.390 . S
C769 C768 1.387 . S
C769 C771 1.387 . S
H770 C777 0.950 . S
C771 C769 1.387 . S
C771 C773 1.390 . S
C771 H775 0.950 . S
H772 C768 0.950 . S
C773 C771 1.390 . S
C773 C774 1.387 . S
C773 H776 0.950 . S
C774 C773 1.387 . S
C774 C777 1.387 . S
H775 C771 0.950 . S
H776 C773 0.950 . S
C777 C768 1.390 . S
C777 H770 0.950 . S
C777 C774 1.387 . S
C778 C779 1.387 . S
C778 H782 0.950 . S
C778 C787 1.390 . S
C779 C778 1.387 . S
C779 C781 1.387 . S
H780 C787 0.950 . S
C781 C779 1.387 . S
C781 C783 1.390 . S
C781 H785 0.950 . S
H782 C778 0.950 . S
C783 C781 1.390 . S
C783 C784 1.387 . S
C783 H786 0.950 . S
C784 C783 1.387 . S
C784 C787 1.387 . S
H785 C781 0.950 . S
H786 C783 0.950 . S
C787 C778 1.390 . S
C787 H780 0.950 . S
C787 C784 1.387 . S
C788 C789 1.387 . S
C788 H792 0.950 . S
C788 C797 1.390 . S
C789 C788 1.387 . S
C789 C791 1.387 . S
H790 C797 0.950 . S
C791 C789 1.387 . S
C791 C793 1.390 . S
C791 H795 0.950 . S
H792 C788 0.950 . S
C793 C791 1.390 . S
C793 C794 1.387 . S
C793 H796 0.950 . S
C794 C793 1.387 . S
C794 C797 1.387 . S
H795 C791 0.950 . S
H796 C793 0.950 . S
C797 C788 1.390 . S
C797 H790 0.950 . S
C797 C794 1.387 . S
C798 C799 1.387 . S
C798 H802 0.950 . S
C798 C807 1.390 . S
C799 C798 1.387 . S
C799 C801 1.387 . S
H800 C807 0.950 . S
C801 C799 1.387 . S
C801 C803 1.390 . S
C801 H805 0.950 . S
H802 C798 0.950 . S
C803 C801 1.390 . S
C803 C804 1.387 . S
C803 H806 0.950 . S
C804 C803 1.387 . S
C804 C807 1.387 . S
H805 C801 0.950 . S
H806 C803 0.950 . S
C807 C798 1.390 . S
C807 H800 0.950 . S
C807 C804 1.387 . S
C808 C809 1.387 . S
C808 H812 0.950 . S
C808 C817 1.390 . S
C809 C808 1.387 . S
C809 C811 1.387 . S
H810 C817 0.950 . S
C811 C809 1.387 . S
C811 C813 1.390 . S
C811 H815 0.950 . S
H812 C808 0.950 . S
C813 C811 1.390 . S
C813 C814 1.387 . S
C813 H816 0.950 . S
C814 C813 1.387 . S
C814 C817 1.387 . S
H815 C811 0.950 . S
H816 C813 0.950 . S
C817 C808 1.390 . S
C817 H810 0.950 . S
C817 C814 1.387 . S
C818 C819 1.387 . S
C818 H822 0.950 . S
C818 C827 1.390 . S
C819 C818 1.387 . S
C819 C821 1.387 . S
H820 C827 0.950 . S
C821 C819 1.387 . S
C821 C823 1.390 . S
C821 H825 0.950 . S
H822 C818 0.950 . S
C823 C821 1.390 . S
C823 C824 1.387 . S
C823 H826 0.950 . S
C824 C823 1.387 . S
C824 C827 1.387 . S
H825 C821 0.950 . S
H826 C823 0.950 . S
C827 C818 1.390 . S
C827 H820 0.950 . S
C827 C824 1.387 . S
C514 C444 1.760 . S
C509 C45 1.828 . S
C519 C78 1.716 . S
C524 C447 1.703 . S
C529 C126 1.699 . S
C534 C478 1.678 . S
C544 C413 1.733 . S
C539 C174 1.780 . S
C554 C448 1.761 . S
C549 C36 1.823 . S
C564 C479 1.739 . S
C559 C69 1.794 . S
C574 C404 1.684 . S
C569 C117 1.717 . S
C584 C435 1.704 . S
C579 C165 1.733 . S
C589 C30 1.412 . S
C594 C465 1.357 . S
C599 C228 1.408 . S
C604 C434 1.348 . S
C609 C141 1.326 . S
C614 C394 1.338 1_655 S
C624 C487 1.352 1_655 S
C619 C270 1.342 . S
C634 C415 1.360 . S
C629 C21 1.423 . S
C639 C237 1.342 . S
C644 C414 1.354 1_655 S
C649 C132 1.347 . S
C654 C507 1.341 1_655 S
C664 C446 1.347 . S
C659 C261 1.412 . S
C669 C333 1.825 . S
C674 C506 1.755 . S
C679 C213 1.733 . S
C684 C385 1.707 . S
C689 C357 1.714 . S
C694 C416 1.683 . S
C699 C285 1.807 . S
C704 C475 1.734 . S
C714 C386 1.760 . S
C709 C324 1.824 . S
C719 C222 1.781 . S
C724 C417 1.734 . S
C729 C366 1.700 . S
C734 C466 1.683 . S
C744 C497 1.709 . S
C739 C276 1.747 . S
C749 C318 1.407 . S
C754 C403 1.358 . S
C759 C93 1.390 . S
C764 C496 1.345 . S
C769 C372 1.344 . S
C774 C456 1.340 . S
C784 C425 1.354 . S
C779 C189 1.343 . S
C794 C477 1.363 . S
C789 C309 1.427 . S
C804 C476 1.358 . S
C799 C84 1.362 . S
C814 C445 1.339 . S
C809 C381 1.326 . S
C824 C384 1.344 . S
C819 C180 1.408 . S
