# Generated by pormake.
# Topology pyr, (3,6)-cn, num edge types: 1
# Building blocks:
#     Node 0, Type 0, BuildingBlock: VETTIZ_charged_linker_0, # of connection points: 3
#     Node 1, Type 0, BuildingBlock: VETTIZ_charged_linker_0, # of connection points: 3
#     Node 2, Type 0, BuildingBlock: VETTIZ_charged_linker_0, # of connection points: 3
#     Node 3, Type 0, BuildingBlock: VETTIZ_charged_linker_0, # of connection points: 3
#     Node 4, Type 0, BuildingBlock: VETTIZ_charged_linker_0, # of connection points: 3
#     Node 5, Type 0, BuildingBlock: VETTIZ_charged_linker_0, # of connection points: 3
#     Node 6, Type 0, BuildingBlock: VETTIZ_charged_linker_0, # of connection points: 3
#     Node 7, Type 0, BuildingBlock: VETTIZ_charged_linker_0, # of connection points: 3
#     Node 8, Type 1, BuildingBlock: JUFBIX_clean_sbu_0, # of connection points: 6
#     Node 9, Type 1, BuildingBlock: JUFBIX_clean_sbu_0, # of connection points: 6
#     Node 10, Type 1, BuildingBlock: JUFBIX_clean_sbu_0, # of connection points: 6
#     Node 11, Type 1, BuildingBlock: JUFBIX_clean_sbu_0, # of connection points: 6
#     Edge 12, Type (0, 1), BuildingBlock: XUDNAN_clean_linker_2, # of connection points: 2
#     Edge 13, Type (0, 1), BuildingBlock: XUDNAN_clean_linker_2, # of connection points: 2
#     Edge 14, Type (0, 1), BuildingBlock: XUDNAN_clean_linker_2, # of connection points: 2
#     Edge 15, Type (0, 1), BuildingBlock: XUDNAN_clean_linker_2, # of connection points: 2
#     Edge 16, Type (0, 1), BuildingBlock: XUDNAN_clean_linker_2, # of connection points: 2
#     Edge 17, Type (0, 1), BuildingBlock: XUDNAN_clean_linker_2, # of connection points: 2
#     Edge 18, Type (0, 1), BuildingBlock: XUDNAN_clean_linker_2, # of connection points: 2
#     Edge 19, Type (0, 1), BuildingBlock: XUDNAN_clean_linker_2, # of connection points: 2
#     Edge 20, Type (0, 1), BuildingBlock: XUDNAN_clean_linker_2, # of connection points: 2
#     Edge 21, Type (0, 1), BuildingBlock: XUDNAN_clean_linker_2, # of connection points: 2
#     Edge 22, Type (0, 1), BuildingBlock: XUDNAN_clean_linker_2, # of connection points: 2
#     Edge 23, Type (0, 1), BuildingBlock: XUDNAN_clean_linker_2, # of connection points: 2
#     Edge 24, Type (0, 1), BuildingBlock: XUDNAN_clean_linker_2, # of connection points: 2
#     Edge 25, Type (0, 1), BuildingBlock: XUDNAN_clean_linker_2, # of connection points: 2
#     Edge 26, Type (0, 1), BuildingBlock: XUDNAN_clean_linker_2, # of connection points: 2
#     Edge 27, Type (0, 1), BuildingBlock: XUDNAN_clean_linker_2, # of connection points: 2
#     Edge 28, Type (0, 1), BuildingBlock: XUDNAN_clean_linker_2, # of connection points: 2
#     Edge 29, Type (0, 1), BuildingBlock: XUDNAN_clean_linker_2, # of connection points: 2
#     Edge 30, Type (0, 1), BuildingBlock: XUDNAN_clean_linker_2, # of connection points: 2
#     Edge 31, Type (0, 1), BuildingBlock: XUDNAN_clean_linker_2, # of connection points: 2
#     Edge 32, Type (0, 1), BuildingBlock: XUDNAN_clean_linker_2, # of connection points: 2
#     Edge 33, Type (0, 1), BuildingBlock: XUDNAN_clean_linker_2, # of connection points: 2
#     Edge 34, Type (0, 1), BuildingBlock: XUDNAN_clean_linker_2, # of connection points: 2
#     Edge 35, Type (0, 1), BuildingBlock: XUDNAN_clean_linker_2, # of connection points: 2
# Relax obj value: 0.046
# Max RMSD: 0.093
# Mean RMSD: 0.031
data_MOF--net-pry--node1-JUFBIX_clean_sbu_0--node2-VETTIZ_charged_linker_0--edge1-XUDNAN_clean_linker_2
_symmetry_space_group_name_H-M    P1
_symmetry_Int_Tables_number       1
_symmetry_cell_setting            triclinic
loop_
_symmetry_equiv_pos_as_xyz
'x, y, z'
_cell_length_a     45.820968
_cell_length_b     43.628493
_cell_length_c     45.829342
_cell_angle_alpha  85.880418
_cell_angle_beta   90.480474
_cell_angle_gamma 91.832144
loop_
_atom_site_label
_atom_site_type_symbol
_atom_site_fract_x
_atom_site_fract_y
_atom_site_fract_z
_atom_type_partial_charge
C0 C 0.15929 0.10942 0.26347 0.0
C1 C 0.13416 0.1184 0.27825 0.0
C2 C 0.11817 0.1427 0.26448 0.0
C3 C 0.15236 0.14883 0.22339 0.0
C4 C 0.16786 0.12473 0.23639 0.0
C5 C 0.19407 0.11793 0.21826 0.0
H6 H 0.28016 0.14966 0.0975 0.0
C7 C 0.16748 0.16024 0.19547 0.0
C8 C 0.19201 0.14191 0.19239 0.0
H9 H 0.29217 0.08044 0.16835 0.0
H10 H 0.24809 0.09545 0.19134 0.0
H11 H 0.26316 0.20214 0.13853 0.0
H12 H 0.20707 0.14053 0.0924 0.0
H13 H 0.19392 0.17802 0.08699 0.0
H14 H 0.22973 0.17012 0.07404 0.0
H15 H 0.25805 0.20687 0.09961 0.0
H16 H 0.23347 0.22311 0.12449 0.0
C17 C 0.22192 0.12316 0.23681 0.0
C18 C 0.19001 0.08484 0.2085 0.0
C19 C 0.12753 0.25177 0.13097 0.0
C20 C 0.1367 0.26704 0.10404 0.0
C21 C 0.1627 0.25713 0.09167 0.0
C22 C 0.17847 0.23254 0.10475 0.0
C23 C 0.1687 0.21706 0.131 0.0
C24 C 0.14376 0.22693 0.14391 0.0
C25 C 0.13694 0.2076 0.17202 0.0
C26 C 0.16167 0.18469 0.17371 0.0
C27 C 0.1803 0.1903 0.1494 0.0
C28 C 0.13856 0.22895 0.19753 0.0
C29 C 0.10679 0.19131 0.16845 0.0
C30 C 0.27298 0.13738 0.11767 0.0
C31 C 0.28987 0.1134 0.13079 0.0
C32 C 0.27979 0.09877 0.15753 0.0
C33 C 0.25409 0.10764 0.171 0.0
C34 C 0.2378 0.13194 0.15807 0.0
C35 C 0.24732 0.14636 0.13175 0.0
C36 C 0.22777 0.17255 0.12185 0.0
C37 C 0.20495 0.17129 0.1462 0.0
C38 C 0.21085 0.14729 0.16749 0.0
C39 C 0.24643 0.20285 0.12078 0.0
C40 C 0.21392 0.16525 0.09215 0.0
H41 H 0.11391 0.17623 0.22864 0.0
H42 H 0.17213 0.09066 0.27269 0.0
H43 H 0.16686 0.08008 0.20229 0.0
H44 H 0.20279 0.08092 0.18889 0.0
H45 H 0.19591 0.0676 0.22642 0.0
H46 H 0.21974 0.14344 0.24994 0.0
H47 H 0.22596 0.1029 0.25224 0.0
H48 H 0.24157 0.12837 0.22337 0.0
H49 H 0.10778 0.25841 0.14133 0.0
H50 H 0.17104 0.26849 0.07152 0.0
H51 H 0.19775 0.22639 0.09372 0.0
H52 H 0.15762 0.24533 0.19487 0.0
H53 H 0.11858 0.24263 0.19827 0.0
H54 H 0.14172 0.21636 0.219 0.0
H55 H 0.10425 0.18322 0.14606 0.0
H56 H 0.10381 0.1705 0.1834 0.0
H57 H 0.08882 0.20714 0.17187 0.0
H58 H 0.09903 0.15068 0.27495 0.0
C59 C 0.12706 0.15782 0.23748 0.0
C60 C 0.32337 0.90302 0.57521 0.0
C61 C 0.31476 0.93099 0.58533 0.0
C62 C 0.33066 0.94379 0.60817 0.0
C63 C 0.3609 0.89924 0.61283 0.0
C64 C 0.34641 0.88753 0.58931 0.0
C65 C 0.35682 0.85631 0.58309 0.0
H66 H 0.44004 0.73465 0.62253 0.0
C67 C 0.38159 0.87618 0.62453 0.0
C68 C 0.37961 0.85111 0.60704 0.0
H69 H 0.3788 0.74466 0.55052 0.0
H70 H 0.36904 0.79625 0.56277 0.0
H71 H 0.46993 0.80356 0.61467 0.0
H72 H 0.39917 0.76447 0.66801 0.0
H73 H 0.42049 0.78825 0.68959 0.0
H74 H 0.43657 0.75535 0.67532 0.0
H75 H 0.47583 0.77721 0.64592 0.0
H76 H 0.47352 0.818 0.64943 0.0
C77 C 0.37067 0.85887 0.55227 0.0
C78 C 0.33061 0.83297 0.58675 0.0
C79 C 0.43254 0.89141 0.72098 0.0
C80 C 0.45132 0.8733 0.73888 0.0
C81 C 0.46168 0.84605 0.7284 0.0
C82 C 0.4525 0.83647 0.7011 0.0
C83 C 0.43262 0.85422 0.68417 0.0
C84 C 0.42366 0.8816 0.69389 0.0
C85 C 0.40269 0.89772 0.67316 0.0
C86 C 0.39985 0.87506 0.64968 0.0
C87 C 0.41712 0.84946 0.65635 0.0
C88 C 0.41722 0.92873 0.66141 0.0
C89 C 0.37356 0.90074 0.68959 0.0
C90 C 0.42476 0.74817 0.60929 0.0
C91 C 0.41013 0.73577 0.58557 0.0
C92 C 0.39008 0.75376 0.56905 0.0
C93 C 0.38456 0.78371 0.57614 0.0
C94 C 0.39893 0.79563 0.60027 0.0
C95 C 0.41869 0.77795 0.61637 0.0
C96 C 0.43091 0.7939 0.64203 0.0
C97 C 0.41553 0.82424 0.63842 0.0
C98 C 0.39684 0.82508 0.61394 0.0
C99 C 0.46434 0.79832 0.63812 0.0
C100 C 0.4216 0.77459 0.67034 0.0
H101 H 0.36451 0.93872 0.6396 0.0
H102 H 0.31137 0.89253 0.55785 0.0
H103 H 0.31553 0.83939 0.60406 0.0
H104 H 0.33719 0.80951 0.59403 0.0
H105 H 0.31782 0.83211 0.56612 0.0
H106 H 0.38292 0.88119 0.54823 0.0
H107 H 0.35365 0.85754 0.53495 0.0
H108 H 0.3869 0.84117 0.54946 0.0
H109 H 0.42374 0.91225 0.72833 0.0
H110 H 0.47661 0.83192 0.74145 0.0
H111 H 0.46077 0.81531 0.6945 0.0
H112 H 0.44145 0.92757 0.66137 0.0
H113 H 0.41152 0.94768 0.67505 0.0
H114 H 0.41132 0.93503 0.63834 0.0
H115 H 0.36846 0.87958 0.70389 0.0
H116 H 0.35449 0.90342 0.67493 0.0
H117 H 0.3748 0.92042 0.70369 0.0
H118 H 0.3246 0.96553 0.61602 0.0
C119 C 0.35378 0.92816 0.62184 0.0
C120 C 0.64435 0.26271 0.89892 0.0
C121 C 0.61752 0.25015 0.88901 0.0
C122 C 0.6016 0.26745 0.86751 0.0
C123 C 0.64036 0.3065 0.86307 0.0
C124 C 0.65528 0.29103 0.88563 0.0
C125 C 0.68334 0.30824 0.89282 0.0
H126 H 0.77721 0.43145 0.86654 0.0
C127 C 0.65836 0.33365 0.85206 0.0
C128 C 0.68346 0.33524 0.86952 0.0
H129 H 0.7771 0.36136 0.93818 0.0
H130 H 0.73588 0.33546 0.91709 0.0
H131 H 0.70483 0.43942 0.86033 0.0
H132 H 0.75874 0.37881 0.81411 0.0
H133 H 0.7348 0.39991 0.79051 0.0
H134 H 0.76359 0.41991 0.80912 0.0
H135 H 0.73478 0.45419 0.83775 0.0
H136 H 0.70044 0.44361 0.82166 0.0
C137 C 0.68079 0.31897 0.92424 0.0
C138 C 0.70911 0.28692 0.88872 0.0
C139 C 0.62461 0.39128 0.75905 0.0
C140 C 0.63746 0.41286 0.73841 0.0
C141 C 0.66465 0.42673 0.74587 0.0
C142 C 0.67906 0.41792 0.77264 0.0
C143 C 0.66637 0.39477 0.79215 0.0
C144 C 0.63947 0.38211 0.78482 0.0
C145 C 0.62959 0.35615 0.80588 0.0
C146 C 0.65484 0.35481 0.82734 0.0
C147 C 0.67639 0.37783 0.82 0.0
C148 C 0.60111 0.36562 0.8205 0.0
C149 C 0.62651 0.32665 0.78878 0.0
C150 C 0.76835 0.41037 0.8774 0.0
C151 C 0.78037 0.39868 0.90439 0.0
C152 C 0.76817 0.37113 0.91774 0.0
C153 C 0.74406 0.35612 0.90551 0.0
C154 C 0.73145 0.36859 0.87947 0.0
C155 C 0.74371 0.39502 0.86541 0.0
C156 C 0.72688 0.40426 0.83759 0.0
C157 C 0.70154 0.38047 0.83871 0.0
C158 C 0.70483 0.35932 0.86328 0.0
C159 C 0.71615 0.43722 0.83924 0.0
C160 C 0.74699 0.40076 0.81129 0.0
H161 H 0.59965 0.30655 0.83787 0.0
H162 H 0.65692 0.25039 0.91581 0.0
H163 H 0.70652 0.27542 0.86792 0.0
H164 H 0.73042 0.29944 0.88725 0.0
H165 H 0.71011 0.26872 0.90691 0.0
H166 H 0.65763 0.31982 0.93118 0.0
H167 H 0.69202 0.30323 0.9405 0.0
H168 H 0.68964 0.34269 0.92597 0.0
H169 H 0.60349 0.38056 0.75486 0.0
H170 H 0.67523 0.44359 0.73063 0.0
H171 H 0.6998 0.42892 0.77693 0.0
H172 H 0.60122 0.39083 0.82286 0.0
H173 H 0.58157 0.35969 0.8073 0.0
H174 H 0.59845 0.35515 0.84306 0.0
H175 H 0.6419 0.32756 0.77005 0.0
H176 H 0.63217 0.30549 0.80201 0.0
H177 H 0.6041 0.32371 0.77978 0.0
H178 H 0.58046 0.25912 0.86016 0.0
C179 C 0.61279 0.29526 0.85457 0.0
C180 C 0.96788 0.74318 0.41617 0.0
C181 C 0.9679 0.74962 0.44575 0.0
C182 C 0.95093 0.73092 0.46584 0.0
C183 C 0.93272 0.70115 0.42657 0.0
C184 C 0.9504 0.7187 0.40714 0.0
C185 C 0.94815 0.70829 0.3766 0.0
H186 H 0.88503 0.61341 0.28223 0.0
C187 C 0.9164 0.67835 0.41003 0.0
C188 C 0.92566 0.68208 0.38082 0.0
H189 H 0.95502 0.68075 0.26493 0.0
H190 H 0.95339 0.6948 0.31504 0.0
H191 H 0.90973 0.58533 0.33784 0.0
H192 H 0.8462 0.6556 0.32595 0.0
H193 H 0.83351 0.62802 0.35322 0.0
H194 H 0.83996 0.61651 0.317 0.0
H195 H 0.87182 0.57585 0.33232 0.0
H196 H 0.88689 0.58011 0.36844 0.0
C197 C 0.97839 0.69694 0.36792 0.0
C198 C 0.93667 0.73521 0.35627 0.0
C199 C 0.83391 0.61344 0.45873 0.0
C200 C 0.81482 0.59077 0.44842 0.0
C201 C 0.81877 0.58078 0.42024 0.0
C202 C 0.84057 0.59426 0.40193 0.0
C203 C 0.85868 0.61791 0.41195 0.0
C204 C 0.85591 0.62642 0.44024 0.0
C205 C 0.87829 0.65077 0.44748 0.0
C206 C 0.8939 0.65643 0.41836 0.0
C207 C 0.88193 0.63748 0.39759 0.0
C208 C 0.89868 0.63703 0.47191 0.0
C209 C 0.86196 0.6794 0.45575 0.0
C210 C 0.89947 0.63172 0.28911 0.0
C211 C 0.91985 0.64639 0.2697 0.0
C212 C 0.93903 0.66935 0.27961 0.0
C213 C 0.93813 0.67731 0.30869 0.0
C214 C 0.91809 0.66184 0.3281 0.0
C215 C 0.8992 0.63952 0.31814 0.0
C216 C 0.88048 0.62428 0.34206 0.0
C217 C 0.89132 0.64105 0.36811 0.0
C218 C 0.9131 0.66322 0.35977 0.0
C219 C 0.88728 0.58955 0.34536 0.0
C220 C 0.84827 0.63117 0.3343 0.0
H221 H 0.92035 0.69367 0.47254 0.0
H222 H 0.98105 0.75706 0.40041 0.0
H223 H 0.91868 0.74665 0.36699 0.0
H224 H 0.92732 0.72777 0.33559 0.0
H225 H 0.95427 0.75281 0.35109 0.0
H226 H 0.99086 0.68791 0.38745 0.0
H227 H 0.99184 0.71586 0.35677 0.0
H228 H 0.97667 0.67746 0.35377 0.0
H229 H 0.83143 0.62118 0.48048 0.0
H230 H 0.80414 0.56342 0.41189 0.0
H231 H 0.842 0.5862 0.38046 0.0
H232 H 0.89884 0.6115 0.47231 0.0
H233 H 0.89167 0.64308 0.49385 0.0
H234 H 0.92179 0.64454 0.46851 0.0
H235 H 0.84404 0.68468 0.43982 0.0
H236 H 0.87604 0.70038 0.45547 0.0
H237 H 0.85211 0.67544 0.47782 0.0
H238 H 0.9506 0.7357 0.48871 0.0
C239 C 0.93327 0.70673 0.45638 0.0
C240 C 0.86983 0.76528 0.91305 0.0
C241 C 0.8954 0.75059 0.90472 0.0
C242 C 0.90936 0.76272 0.87875 0.0
C243 C 0.87298 0.80246 0.87047 0.0
C244 C 0.85917 0.79089 0.89584 0.0
C245 C 0.83269 0.80922 0.90214 0.0
H246 H 0.7375 0.92215 0.86032 0.0
C247 C 0.85609 0.82909 0.85738 0.0
C248 C 0.83221 0.83297 0.876 0.0
H249 H 0.73609 0.86372 0.94051 0.0
H250 H 0.78 0.83949 0.9258 0.0
H251 H 0.75402 0.87173 0.81807 0.0
H252 H 0.81004 0.93605 0.86099 0.0
H253 H 0.81922 0.93692 0.82364 0.0
H254 H 0.7833 0.94747 0.83379 0.0
H255 H 0.75727 0.91146 0.80504 0.0
H256 H 0.78228 0.88344 0.79373 0.0
C257 C 0.80545 0.78737 0.90259 0.0
C258 C 0.83825 0.82453 0.9312 0.0
C259 C 0.89028 0.88949 0.76171 0.0
C260 C 0.8777 0.91324 0.74319 0.0
C261 C 0.84941 0.92225 0.75093 0.0
C262 C 0.83528 0.91029 0.77661 0.0
C263 C 0.84863 0.88794 0.7953 0.0
C264 C 0.87524 0.87705 0.78726 0.0
C265 C 0.88437 0.85072 0.80852 0.0
C266 C 0.85976 0.84891 0.83116 0.0
C267 C 0.83893 0.87123 0.82345 0.0
C268 C 0.88498 0.82132 0.79159 0.0
C269 C 0.91405 0.85968 0.82227 0.0
C270 C 0.74656 0.90416 0.87484 0.0
C271 C 0.73272 0.89503 0.90181 0.0
C272 C 0.74599 0.87167 0.91985 0.0
C273 C 0.77158 0.85742 0.91113 0.0
C274 C 0.78483 0.8666 0.88404 0.0
C275 C 0.77244 0.89002 0.86662 0.0
C276 C 0.78981 0.89755 0.8389 0.0
C277 C 0.81468 0.87499 0.84242 0.0
C278 C 0.81153 0.85645 0.8688 0.0
C279 C 0.76993 0.891 0.81241 0.0
C280 C 0.80117 0.93131 0.83904 0.0
H281 H 0.91049 0.79632 0.84263 0.0
H282 H 0.85803 0.75694 0.93253 0.0
H283 H 0.86166 0.83162 0.93344 0.0
H284 H 0.8262 0.84591 0.93244 0.0
H285 H 0.8325 0.80845 0.95033 0.0
H286 H 0.80578 0.77264 0.88377 0.0
H287 H 0.80476 0.77203 0.92301 0.0
H288 H 0.78483 0.79973 0.90052 0.0
H289 H 0.91142 0.88091 0.75674 0.0
H290 H 0.83753 0.93861 0.73699 0.0
H291 H 0.81417 0.91887 0.78086 0.0
H292 H 0.86713 0.82108 0.77498 0.0
H293 H 0.906 0.8199 0.77993 0.0
H294 H 0.88118 0.80007 0.80579 0.0
H295 H 0.91394 0.88374 0.82882 0.0
H296 H 0.9191 0.84532 0.84237 0.0
H297 H 0.93209 0.85811 0.80645 0.0
H298 H 0.92925 0.75286 0.87168 0.0
C299 C 0.89844 0.78829 0.86181 0.0
C300 C 0.70274 0.0949 0.44855 0.0
C301 C 0.70884 0.06497 0.44171 0.0
C302 C 0.69071 0.05008 0.42183 0.0
C303 C 0.6619 0.09565 0.41455 0.0
C304 C 0.67944 0.10987 0.43455 0.0
C305 C 0.67191 0.14281 0.43714 0.0
H306 H 0.57966 0.25769 0.40654 0.0
C307 C 0.64092 0.11831 0.4025 0.0
C308 C 0.64659 0.1459 0.41569 0.0
H309 H 0.66069 0.25901 0.45647 0.0
H310 H 0.66881 0.20765 0.44569 0.0
H311 H 0.55667 0.18503 0.41895 0.0
H312 H 0.61117 0.23387 0.35424 0.0
H313 H 0.59764 0.20116 0.33772 0.0
H314 H 0.57261 0.22934 0.34864 0.0
H315 H 0.54525 0.21528 0.39303 0.0
H316 H 0.54577 0.17624 0.38312 0.0
C317 C 0.66229 0.14612 0.46903 0.0
C318 C 0.69867 0.16366 0.42719 0.0
C319 C 0.57267 0.09054 0.32063 0.0
C320 C 0.55419 0.10809 0.30209 0.0
C321 C 0.54824 0.13836 0.30843 0.0
C322 C 0.56125 0.15124 0.33278 0.0
C323 C 0.58101 0.1339 0.35026 0.0
C324 C 0.58621 0.10398 0.34416 0.0
C325 C 0.60991 0.08995 0.36305 0.0
C326 C 0.61848 0.11652 0.38116 0.0
C327 C 0.60127 0.14208 0.3739 0.0
C328 C 0.59625 0.06248 0.38204 0.0
C329 C 0.6351 0.08145 0.34295 0.0
C330 C 0.59929 0.24735 0.41524 0.0
C331 C 0.61853 0.26278 0.43403 0.0
C332 C 0.64414 0.24775 0.44374 0.0
C333 C 0.64929 0.21773 0.43701 0.0
C334 C 0.62937 0.2025 0.41934 0.0
C335 C 0.60556 0.21768 0.40766 0.0
C336 C 0.58946 0.19929 0.38558 0.0
C337 C 0.60632 0.16972 0.388 0.0
C338 C 0.62931 0.17172 0.40822 0.0
C339 C 0.55748 0.19366 0.39552 0.0
C340 C 0.59264 0.21672 0.35496 0.0
H341 H 0.65422 0.05281 0.39318 0.0
H342 H 0.71686 0.10709 0.4632 0.0
H343 H 0.71374 0.15165 0.41325 0.0
H344 H 0.69228 0.18422 0.41329 0.0
H345 H 0.7115 0.17111 0.44624 0.0
H346 H 0.64668 0.12711 0.47634 0.0
H347 H 0.68139 0.14517 0.48412 0.0
H348 H 0.65088 0.16756 0.47184 0.0
H349 H 0.57817 0.06751 0.31565 0.0
H350 H 0.53415 0.15222 0.29412 0.0
H351 H 0.55616 0.17443 0.33658 0.0
H352 H 0.57396 0.06778 0.38931 0.0
H353 H 0.59429 0.04161 0.36954 0.0
H354 H 0.60861 0.05701 0.40244 0.0
H355 H 0.63665 0.09756 0.32302 0.0
H356 H 0.65685 0.08333 0.35335 0.0
H357 H 0.6317 0.05787 0.33564 0.0
H358 H 0.69529 0.02702 0.41623 0.0
C359 C 0.66704 0.06516 0.40843 0.0
C360 C 0.39876 0.61986 0.25632 0.0
C361 C 0.39068 0.5916 0.27111 0.0
C362 C 0.36484 0.57636 0.26183 0.0
C363 C 0.35752 0.61666 0.22252 0.0
C364 C 0.38239 0.63159 0.2324 0.0
C365 C 0.39007 0.66055 0.21429 0.0
H366 H 0.36234 0.76754 0.10513 0.0
C367 C 0.34636 0.63554 0.19627 0.0
C368 C 0.36572 0.6612 0.19178 0.0
H369 H 0.43461 0.7634 0.16653 0.0
H370 H 0.41622 0.71535 0.18791 0.0
H371 H 0.31205 0.7415 0.15063 0.0
H372 H 0.36506 0.69524 0.09157 0.0
H373 H 0.33025 0.67734 0.09129 0.0
H374 H 0.33456 0.71748 0.07902 0.0
H375 H 0.30746 0.74565 0.11161 0.0
H376 H 0.28943 0.71475 0.13347 0.0
C377 C 0.38864 0.68768 0.23435 0.0
C378 C 0.42035 0.65661 0.20018 0.0
C379 C 0.25589 0.60256 0.13689 0.0
C380 C 0.24264 0.61578 0.11114 0.0
C381 C 0.25362 0.64454 0.09931 0.0
C382 C 0.27752 0.65953 0.112 0.0
C383 C 0.29119 0.64577 0.13693 0.0
C384 C 0.28028 0.61789 0.14932 0.0
C385 C 0.29837 0.6069 0.17574 0.0
C386 C 0.32198 0.63242 0.17668 0.0
C387 C 0.31747 0.6552 0.15369 0.0
C388 C 0.27873 0.60528 0.20302 0.0
C389 C 0.31138 0.57577 0.16982 0.0
C390 C 0.37422 0.75602 0.12302 0.0
C391 C 0.3997 0.76995 0.13457 0.0
C392 C 0.41456 0.75389 0.15767 0.0
C393 C 0.40387 0.72564 0.17007 0.0
C394 C 0.37795 0.71253 0.15928 0.0
C395 C 0.36377 0.72727 0.1358 0.0
C396 C 0.33695 0.70882 0.12706 0.0
C397 C 0.33724 0.68117 0.14962 0.0
C398 C 0.36128 0.6838 0.16842 0.0
C399 C 0.30992 0.7286 0.1306 0.0
C400 C 0.34161 0.69929 0.09555 0.0
H401 H 0.32912 0.57588 0.23136 0.0
H402 H 0.41797 0.63277 0.263 0.0
H403 H 0.42448 0.63201 0.19727 0.0
H404 H 0.42207 0.66789 0.17783 0.0
H405 H 0.43835 0.66547 0.21394 0.0
H406 H 0.37091 0.68355 0.25075 0.0
H407 H 0.40946 0.69075 0.24654 0.0
H408 H 0.38333 0.70969 0.22237 0.0
H409 H 0.24815 0.58039 0.14643 0.0
H410 H 0.24382 0.65536 0.07974 0.0
H411 H 0.28471 0.68119 0.10156 0.0
H412 H 0.26598 0.62652 0.20344 0.0
H413 H 0.26303 0.58534 0.20297 0.0
H414 H 0.29138 0.60357 0.22361 0.0
H415 H 0.32083 0.57677 0.14748 0.0
H416 H 0.3293 0.56941 0.18504 0.0
H417 H 0.29431 0.55706 0.17138 0.0
H418 H 0.3579 0.55454 0.27274 0.0
C419 C 0.34827 0.5887 0.23765 0.0
C420 C 0.05253 0.28399 0.60727 0.0
C421 C 0.0512 0.27251 0.57941 0.0
C422 C 0.06784 0.28706 0.55647 0.0
C423 C 0.0885 0.32282 0.58951 0.0
C424 C 0.07102 0.30952 0.61171 0.0
C425 C 0.07459 0.32582 0.6395 0.0
H426 H 0.15 0.43132 0.71415 0.0
C427 C 0.10634 0.34775 0.60136 0.0
C428 C 0.09801 0.35009 0.63053 0.0
H429 H 0.07318 0.37749 0.74293 0.0
H430 H 0.07154 0.35354 0.69701 0.0
H431 H 0.12383 0.45351 0.65714 0.0
H432 H 0.18132 0.37894 0.67718 0.0
H433 H 0.19476 0.4008 0.64608 0.0
H434 H 0.19119 0.41883 0.67984 0.0
H435 H 0.16264 0.4599 0.65851 0.0
H436 H 0.14402 0.45075 0.62515 0.0
C437 C 0.04519 0.34032 0.64629 0.0
C438 C 0.08542 0.30252 0.66392 0.0
C439 C 0.19136 0.39629 0.54216 0.0
C440 C 0.21243 0.41897 0.54833 0.0
C441 C 0.21014 0.43477 0.57381 0.0
C442 C 0.18787 0.42695 0.59389 0.0
C443 C 0.16773 0.40309 0.58834 0.0
C444 C 0.16893 0.389 0.56233 0.0
C445 C 0.14476 0.36516 0.55975 0.0
C446 C 0.12979 0.36634 0.58915 0.0
C447 C 0.14376 0.38815 0.60589 0.0
C448 C 0.12463 0.3758 0.5338 0.0
C449 C 0.15882 0.33376 0.55657 0.0
C450 C 0.13261 0.41455 0.71076 0.0
C451 C 0.11169 0.40656 0.73248 0.0
C452 C 0.08993 0.38395 0.72695 0.0
C453 C 0.08872 0.37033 0.70005 0.0
C454 C 0.10919 0.37966 0.67826 0.0
C455 C 0.13049 0.4016 0.68385 0.0
C456 C 0.14902 0.41081 0.65767 0.0
C457 C 0.13546 0.39065 0.63532 0.0
C458 C 0.11251 0.37197 0.64756 0.0
C459 C 0.14496 0.44554 0.64914 0.0
C460 C 0.18084 0.40214 0.66541 0.0
H461 H 0.09909 0.32187 0.54321 0.0
H462 H 0.03958 0.27327 0.62509 0.0
H463 H 0.10375 0.28934 0.6559 0.0
H464 H 0.09386 0.31358 0.6833 0.0
H465 H 0.06764 0.28582 0.67106 0.0
H466 H 0.03248 0.34602 0.62593 0.0
H467 H 0.03139 0.32436 0.66072 0.0
H468 H 0.0482 0.36245 0.65644 0.0
H469 H 0.19286 0.38395 0.52257 0.0
H470 H 0.22646 0.45217 0.57885 0.0
H471 H 0.18782 0.43913 0.61337 0.0
H472 H 0.12699 0.40099 0.52818 0.0
H473 H 0.12971 0.36409 0.5138 0.0
H474 H 0.10118 0.37182 0.53903 0.0
H475 H 0.17671 0.33009 0.57289 0.0
H476 H 0.14341 0.31401 0.56042 0.0
H477 H 0.16828 0.33276 0.53443 0.0
H478 H 0.06705 0.27835 0.53491 0.0
C479 C 0.08652 0.31214 0.56138 0.0
Co480 Co 0.99437 0.01254 0.50017 0.0
C481 C 0.02029 0.95527 0.50039 0.0
Co482 Co 0.03434 0.00792 0.52655 0.0
C483 C 0.93356 0.02081 0.48784 0.0
C484 C 0.95573 1.00271 0.45226 0.0
N485 N 0.96012 0.01311 0.47897 0.0
N486 N 0.91255 0.01528 0.46788 0.0
C487 C 0.92653 1.004 0.44537 0.0
H488 H 0.9298 0.02984 0.50881 0.0
H489 H 0.97252 0.9937 0.43911 0.0
C490 C 1.00809 0.06512 0.52664 0.0
N491 N 0.06875 0.00706 0.54746 0.0
C492 C 0.09456 0.9973 0.53851 0.0
C493 C 0.07416 0.01752 0.57399 0.0
N494 N 0.11604 1.00135 0.55829 0.0
C495 C 0.10323 0.01401 0.58074 0.0
C496 C 0.04372 0.03058 0.46666 0.0
O497 O 0.98957 0.05359 0.50945 0.0
O498 O 0.02914 0.04901 0.53639 0.0
O499 O 0.05587 0.0234 0.4913 0.0
O500 O 0.01602 0.02746 0.46508 0.0
O501 O 0.03929 0.96692 0.51694 0.0
H502 H 0.05811 0.02757 0.58728 0.0
H503 H 0.0974 0.98737 0.51779 0.0
O504 O 0.99919 0.97138 0.49089 0.0
O505 O 0.97276 0.99795 0.53566 0.0
O506 O 0.01281 0.99241 0.5615 0.0
C507 C 0.98505 0.99014 0.56007 0.0
H508 H 0.91637 0.99611 0.42576 0.0
H509 H 0.11414 0.02092 0.60036 0.0
Co510 Co 0.49585 1.0039 0.99423 0.0
C511 C 0.49322 0.95846 0.03934 0.0
Co512 Co 0.52607 0.01393 0.02984 0.0
C513 C 0.47415 0.97028 0.94704 0.0
C514 C 0.45542 0.01465 0.94668 0.0
N515 N 0.47315 0.99551 0.96229 0.0
N516 N 0.45829 0.97314 0.92219 0.0
C517 C 0.44636 1.001 0.92185 0.0
H518 H 0.48786 0.95105 0.95303 0.0
H519 H 0.45068 0.03766 0.9522 0.0
C520 C 0.52847 0.05941 0.98465 0.0
N521 N 0.54854 0.02278 0.06186 0.0
C522 C 0.53892 0.0217 0.08963 0.0
C523 C 0.57557 0.03585 0.06272 0.0
N524 N 0.55849 0.03416 0.10775 0.0
C525 C 0.5817 0.04308 0.09098 0.0
C526 C 0.55434 0.98189 0.98826 0.0
O527 O 0.50869 0.042 0.97442 0.0
O528 O 0.53932 0.05187 0.00963 0.0
O529 O 0.55866 0.99296 0.01302 0.0
O530 O 0.52882 0.98406 0.97699 0.0
O531 O 0.51257 0.97613 0.04999 0.0
H532 H 0.58925 0.04125 0.0438 0.0
H533 H 0.51709 0.01386 0.09605 0.0
O534 O 0.48308 0.96565 0.01396 0.0
O535 O 0.46297 0.02401 0.01167 0.0
O536 O 0.49355 0.0348 0.04644 0.0
C537 C 0.46774 0.03612 0.03584 0.0
H538 H 0.43297 0.01119 0.9044 0.0
H539 H 0.60122 0.05489 0.09839 0.0
Co540 Co 0.53332 0.51745 0.50197 0.0
C541 C 0.49513 0.52095 0.45323 0.0
Co542 Co 0.49532 0.48557 0.50616 0.0
C543 C 0.59313 0.53599 0.50413 0.0
C544 C 0.56749 0.57304 0.48632 0.0
N545 N 0.56549 0.5437 0.49764 0.0
N546 N 0.61259 0.55906 0.49692 0.0
C547 C 0.59648 0.58257 0.48581 0.0
H548 H 0.59879 0.5135 0.51355 0.0
H549 H 0.5492 0.58628 0.47818 0.0
C550 C 0.53378 0.48144 0.55463 0.0
N551 N 0.46353 0.45879 0.51032 0.0
C552 C 0.43543 0.46548 0.5048 0.0
C553 C 0.46324 0.42831 0.51754 0.0
N554 N 0.41745 0.44038 0.5081 0.0
C555 C 0.43495 0.41691 0.5162 0.0
C556 C 0.54265 0.46041 0.48156 0.0
O557 O 0.54681 0.50396 0.54057 0.0
O558 O 0.51071 0.46983 0.54352 0.0
O559 O 0.5159 0.45544 0.48758 0.0
O560 O 0.55472 0.4861 0.48639 0.0
O561 O 0.48033 0.50111 0.469 0.0
H562 H 0.48241 0.41517 0.52297 0.0
H563 H 0.42845 0.4885 0.49858 0.0
O564 O 0.51959 0.53075 0.46304 0.0
O565 O 0.51205 0.54843 0.51785 0.0
O566 O 0.47477 0.51599 0.52469 0.0
C567 C 0.48622 0.54264 0.52694 0.0
H568 H 0.60503 0.60459 0.47675 0.0
H569 H 0.42801 0.39309 0.52045 0.0
Co570 Co 0.0186 0.5065 0.98525 0.0
C571 C 0.96138 0.48284 0.99428 0.0
Co572 Co 1.00406 0.50803 0.03065 0.0
C573 C 0.05309 0.49305 0.93483 0.0
C574 C 0.01469 0.51828 0.92368 0.0
N575 N 0.02979 0.5056 0.9467 0.0
N576 N 0.0531 0.49802 0.90546 0.0
C577 C 0.02912 0.51385 0.89835 0.0
H578 H 0.0697 0.48073 0.94735 0.0
H579 H 0.99426 0.52981 0.92515 0.0
C580 C 0.0613 0.53171 0.02164 0.0
N581 N 0.99281 0.50945 0.06927 0.0
C582 C 0.97316 0.52763 0.08066 0.0
C583 C 1.00691 0.49626 0.09268 0.0
N584 N 0.97497 0.52672 0.11008 0.0
C585 C 0.99602 0.50683 0.11773 0.0
C586 C 0.03314 0.45325 0.02078 0.0
O587 O 0.05594 0.5251 0.99539 0.0
O588 O 0.04125 0.52664 0.04056 0.0
O589 O 0.02011 0.46741 0.03996 0.0
O590 O 0.03442 0.46589 0.99477 0.0
O591 O 0.96672 0.4894 0.02055 0.0
H592 H 0.02537 0.48155 0.09165 0.0
H593 H 0.95936 0.54306 0.06765 0.0
O594 O 0.98143 0.48794 0.97536 0.0
O595 O 1.00271 0.54714 0.97592 0.0
O596 O 0.98818 0.5487 0.02088 0.0
C597 C 0.98957 0.56134 0.99494 0.0
H598 H 0.02233 0.52116 0.87632 0.0
H599 H 1.00401 0.50157 0.13977 0.0
H600 H 0.07812 0.10616 0.30221 0.0
H601 H 0.1701 0.09688 0.32333 0.0
H602 H 0.157 0.0735 0.37217 0.0
H603 H 0.05558 0.12571 0.3741 0.0
H604 H 0.02132 0.1043 0.37339 0.0
H605 H 0.03763 0.11996 0.33968 0.0
H606 H 0.03605 0.06585 0.31996 0.0
H607 H 0.01973 0.05003 0.35362 0.0
H608 H 0.05292 0.03452 0.34087 0.0
H609 H 0.13407 0.05193 0.42015 0.0
H610 H 0.10344 0.03297 0.46206 0.0
H611 H 0.02561 0.05514 0.41126 0.0
C612 C 0.09561 0.09936 0.31705 0.0
C613 C 0.1254 0.10347 0.30819 0.0
C614 C 0.14721 0.09372 0.32875 0.0
C615 C 0.13994 0.08052 0.35689 0.0
C616 C 0.11058 0.07686 0.36478 0.0
C617 C 0.0887 0.08589 0.34542 0.0
C618 C 0.05881 0.07918 0.35955 0.0
C619 C 0.04236 0.10907 0.36181 0.0
C620 C 0.04081 0.05602 0.34248 0.0
C621 C 0.0673 0.06513 0.38985 0.0
C622 C 0.09734 0.06413 0.39234 0.0
C623 C 0.11054 0.05258 0.41827 0.0
C624 C 0.09282 0.04182 0.44214 0.0
C625 C 0.06187 0.0423 0.4404 0.0
C626 C 0.0491 0.05419 0.41359 0.0
H627 H 0.46085 0.93133 0.75726 0.0
H628 H 0.45601 0.83508 0.78897 0.0
H629 H 0.46021 0.8502 0.83973 0.0
H630 H 0.50975 0.95929 0.81401 0.0
H631 H 0.49036 0.99443 0.81558 0.0
H632 H 0.49152 0.97572 0.78184 0.0
H633 H 0.43494 0.97432 0.77958 0.0
H634 H 0.43357 0.9926 0.81349 0.0
H635 H 0.41451 0.95626 0.80994 0.0
H636 H 0.46088 0.87616 0.8873 0.0
H637 H 0.45861 0.911 0.92757 0.0
H638 H 0.45914 0.98965 0.86417 0.0
C639 C 0.46092 0.91333 0.77479 0.0
C640 C 0.45812 0.88198 0.76902 0.0
C641 C 0.45867 0.85923 0.79271 0.0
C642 C 0.4608 0.8676 0.82167 0.0
C643 C 0.46229 0.89877 0.82654 0.0
C644 C 0.46252 0.92126 0.80372 0.0
C645 C 0.46205 0.9531 0.81468 0.0
C646 C 0.4901 0.97173 0.80602 0.0
C647 C 0.43464 0.97005 0.80377 0.0
C648 C 0.46094 0.94504 0.84727 0.0
C649 C 0.46151 0.91363 0.85375 0.0
C650 C 0.46055 0.90079 0.88248 0.0
C651 C 0.45922 0.92066 0.90515 0.0
C652 C 0.45842 0.95287 0.89886 0.0
C653 C 0.45921 0.96508 0.86954 0.0
H654 H 0.63287 0.46766 0.70224 0.0
H655 H 0.60924 0.37017 0.70665 0.0
H656 H 0.57983 0.378 0.66208 0.0
H657 H 0.56508 0.49597 0.67427 0.0
H658 H 0.58077 0.52537 0.64896 0.0
H659 H 0.60054 0.51293 0.68161 0.0
H660 H 0.64468 0.49998 0.65037 0.0
H661 H 0.62514 0.51268 0.61763 0.0
H662 H 0.63935 0.47454 0.62134 0.0
H663 H 0.5495 0.396 0.61953 0.0
H664 H 0.52586 0.4222 0.57659 0.0
H665 H 0.5717 0.50748 0.59457 0.0
C666 C 0.62181 0.44792 0.69365 0.0
C667 C 0.62279 0.4184 0.70895 0.0
C668 C 0.60809 0.39326 0.69643 0.0
C669 C 0.59138 0.39737 0.67082 0.0
C670 C 0.5899 0.42671 0.65702 0.0
C671 C 0.60522 0.4515 0.66744 0.0
C672 C 0.60025 0.48036 0.64737 0.0
C673 C 0.5858 0.50512 0.66406 0.0
C674 C 0.62907 0.49261 0.63335 0.0
C675 C 0.57945 0.46783 0.62456 0.0
C676 C 0.57361 0.43685 0.63092 0.0
C677 C 0.55417 0.42019 0.61409 0.0
C678 C 0.54065 0.43536 0.58979 0.0
C679 C 0.54684 0.4669 0.58203 0.0
C680 C 0.56658 0.48331 0.59979 0.0
H681 H 0.96955 0.62753 0.24599 0.0
H682 H 0.87717 0.63787 0.22859 0.0
H683 H 0.88196 0.61166 0.18271 0.0
H684 H 0.9949 0.63521 0.16892 0.0
H685 H 0.02165 0.60615 0.17607 0.0
H686 H 1.01158 0.63002 0.20463 0.0
H687 H 0.99845 0.58116 0.23809 0.0
H688 H 1.00802 0.55717 0.20956 0.0
H689 H 0.97216 0.55333 0.22554 0.0
H690 H 0.8965 0.58054 0.14075 0.0
H691 H 0.91929 0.54587 0.10741 0.0
H692 H 1.00112 0.55429 0.15461 0.0
C693 C 0.95058 0.62522 0.23196 0.0
C694 C 0.92313 0.63511 0.24036 0.0
C695 C 0.89845 0.63066 0.22218 0.0
C696 C 0.90099 0.61589 0.19615 0.0
C697 C 0.92831 0.60561 0.18885 0.0
C698 C 0.95267 0.61016 0.20626 0.0
C699 C 0.97884 0.59429 0.19534 0.0
C700 C 1.00318 0.61783 0.18566 0.0
C701 C 0.99 0.57005 0.21851 0.0
C702 C 0.96529 0.57946 0.1695 0.0
C703 C 0.93629 0.58664 0.1657 0.0
C704 C 0.91924 0.57493 0.14344 0.0
C705 C 0.93225 0.5553 0.12469 0.0
C706 C 0.96173 0.54723 0.1288 0.0
C707 C 0.97838 0.55971 0.15134 0.0
H708 H 0.30485 0.09306 0.07574 0.0
H709 H 0.34192 0.11427 0.15954 0.0
H710 H 0.39021 0.09861 0.14371 0.0
H711 H 0.34684 0.02497 0.06853 0.0
H712 H 0.35195 0.03122 0.02958 0.0
H713 H 0.32028 0.04573 0.04639 0.0
H714 H 0.33353 0.10049 0.02412 0.0
H715 H 0.36523 0.08612 1.00721 0.0
H716 H 0.36921 0.11722 0.03093 0.0
H717 H 0.43482 0.08008 0.11966 0.0
H718 H 0.47234 0.05845 0.08989 0.0
H719 H 0.40841 0.04617 0.02088 0.0
C720 C 0.32325 0.09477 0.09056 0.0
C721 C 0.31933 0.10526 0.11904 0.0
C722 C 0.34408 0.10647 0.13777 0.0
C723 C 0.37174 0.09761 0.1289 0.0
C724 C 0.37485 0.08709 0.10107 0.0
C725 C 0.35132 0.08545 0.08211 0.0
C726 C 0.36088 0.07199 0.05381 0.0
C727 C 0.34397 0.04168 0.04931 0.0
C728 C 0.35698 0.09535 0.02745 0.0
C729 C 0.39331 0.06638 0.0599 0.0
C730 C 0.40074 0.07554 0.08731 0.0
C731 C 0.42915 0.07286 0.09817 0.0
C732 C 0.4505 0.06047 0.0809 0.0
C733 C 0.44385 0.05041 0.05272 0.0
C734 C 0.41457 0.05357 0.04218 0.0
H735 H 0.27093 0.95059 0.61811 0.0
H736 H 0.29656 0.9416 0.52832 0.0
H737 H 0.24884 0.96148 0.51113 0.0
H738 H 0.19837 0.92468 0.60983 0.0
H739 H 0.18347 0.95046 0.63445 0.0
H740 H 0.22045 0.93828 0.63927 0.0
H741 H 0.23906 0.99517 0.63648 0.0
H742 H 0.20208 0.00756 0.63179 0.0
H743 H 0.22947 0.02051 0.60531 0.0
H744 H 0.19745 0.9803 0.50432 0.0
H745 H 0.14633 0.99545 0.50817 0.0
H746 H 0.15455 0.98988 0.60285 0.0
C747 C 0.26679 0.95352 0.59478 0.0
C748 C 0.28747 0.94504 0.57446 0.0
C749 C 0.28094 0.94816 0.54417 0.0
C750 C 0.25401 0.95949 0.53426 0.0
C751 C 0.23396 0.96737 0.55498 0.0
C752 C 0.24006 0.96448 0.58461 0.0
C753 C 0.21426 0.9726 0.60255 0.0
C754 C 0.20351 0.94485 0.6227 0.0
C755 C 0.22167 1.00063 0.62006 0.0
C756 C 0.19251 0.98032 0.57841 0.0
C757 C 0.20429 0.97739 0.55112 0.0
C758 C 0.18801 0.98268 0.52558 0.0
C759 C 0.15888 0.99103 0.52803 0.0
C760 C 0.14626 0.99376 0.55585 0.0
C761 C 0.16353 0.98847 0.58125 0.0
H762 H 0.83634 0.41886 0.88598 0.0
H763 H 0.77788 0.41526 0.96015 0.0
H764 H 0.81717 0.43659 0.99047 0.0
H765 H 0.89993 0.39624 0.92648 0.0
H766 H 0.92521 0.42153 0.90573 0.0
H767 H 0.89212 0.40793 0.88876 0.0
H768 H 0.87779 0.464 0.87475 0.0
H769 H 0.911 0.47776 0.89145 0.0
H770 H 0.87623 0.49083 0.9028 0.0
H771 H 0.8633 0.45544 0.01405 0.0
H772 H 0.91265 0.47324 0.02849 0.0
H773 H 0.94263 0.46546 0.93978 0.0
C774 C 0.83173 0.4232 0.90842 0.0
C775 C 0.80384 0.41541 0.92062 0.0
C776 C 0.79895 0.42095 0.95028 0.0
C777 C 0.82119 0.43307 0.96774 0.0
C778 C 0.84855 0.43973 0.95542 0.0
C779 C 0.85395 0.4353 0.92639 0.0
C780 C 0.88575 0.44371 0.9191 0.0
C781 C 0.90169 0.41568 0.90945 0.0
C782 C 0.88781 0.47068 0.89563 0.0
C783 C 0.89728 0.45324 0.94855 0.0
C784 C 0.87536 0.45074 0.96914 0.0
C785 C 0.8806 0.45766 0.99803 0.0
C786 C 0.90883 0.46768 1.00609 0.0
C787 C 0.93179 0.47083 0.98544 0.0
C788 C 0.92572 0.46336 0.95622 0.0
H789 H 0.77273 0.62529 0.46948 0.0
H790 H 0.798 0.53118 0.4632 0.0
H791 H 0.75005 0.51258 0.48291 0.0
H792 H 0.72391 0.61113 0.53607 0.0
H793 H 0.69817 0.63847 0.52098 0.0
H794 H 0.73654 0.6441 0.51312 0.0
H795 H 0.72472 0.6471 0.45763 0.0
H796 H 0.68649 0.64103 0.46522 0.0
H797 H 0.70469 0.61566 0.44245 0.0
H798 H 0.69768 0.50464 0.49478 0.0
H799 H 0.64449 0.50734 0.49801 0.0
H800 H 0.6523 0.60695 0.49634 0.0
C801 C 0.76854 0.60079 0.47356 0.0
C802 C 0.78901 0.57955 0.46544 0.0
C803 C 0.78256 0.54766 0.46973 0.0
C804 C 0.75548 0.53696 0.48096 0.0
C805 C 0.73523 0.55851 0.48771 0.0
C806 C 0.74147 0.58979 0.48439 0.0
C807 C 0.71464 0.60811 0.48931 0.0
C808 C 0.71856 0.62654 0.51649 0.0
C809 C 0.70721 0.62919 0.46203 0.0
C810 C 0.69204 0.58228 0.49446 0.0
C811 C 0.70451 0.55389 0.49409 0.0
C812 C 0.68774 0.5267 0.49588 0.0
C813 C 0.65739 0.52853 0.49778 0.0
C814 C 0.64398 0.55741 0.49768 0.0
C815 C 0.66175 0.58454 0.49651 0.0
H816 H 0.10658 0.31664 0.12509 0.0
H817 H 0.12679 0.2745 0.04499 0.0
H818 H 0.10255 0.31615 0.01625 0.0
H819 H 0.03414 0.34357 0.10062 0.0
H820 H 0.03769 0.37913 0.11827 0.0
H821 H 0.05616 0.34562 0.13325 0.0
H822 H 0.10536 0.37641 0.1308 0.0
H823 H 0.08704 0.40995 0.11573 0.0
H824 H 0.11714 0.39532 0.09644 0.0
H825 H 0.07817 0.36376 0.99503 0.0
H826 H 0.05342 0.41258 0.98339 0.0
H827 H 0.04616 0.425 0.07613 0.0
C828 C 0.10563 0.31596 0.10154 0.0
C829 C 0.11931 0.29202 0.08756 0.0
C830 C 0.11736 0.29254 0.05654 0.0
C831 C 0.10337 0.31618 0.03985 0.0
C832 C 0.09082 0.33961 0.05412 0.0
C833 C 0.09152 0.33967 0.08428 0.0
C834 C 0.07632 0.36804 0.09379 0.0
C835 C 0.04948 0.35852 0.1126 0.0
C836 C 0.09774 0.38865 0.11016 0.0
C837 C 0.06726 0.38384 0.06433 0.0
C838 C 0.07598 0.36693 0.04178 0.0
C839 C 0.07104 0.37702 0.01258 0.0
C840 C 0.05691 0.40496 1.00613 0.0
C841 C 0.04741 0.42291 0.02864 0.0
C842 C 0.0527 0.41187 0.05825 0.0
H843 H 0.61481 0.22153 0.94565 0.0
H844 H 0.5945 0.20703 0.85484 0.0
H845 H 0.56987 0.15772 0.86987 0.0
H846 H 0.62867 0.13949 0.96698 0.0
H847 H 0.61281 0.14077 1.00271 0.0
H848 H 0.62999 0.17487 0.98508 0.0
H849 H 0.58244 0.20429 0.99084 0.0
H850 H 0.56503 0.17021 1.0082 0.0
H851 H 0.54866 0.18932 0.97624 0.0
H852 H 0.54376 0.11262 0.89394 0.0
H853 H 0.5225 0.07007 0.9258 0.0
H854 H 0.56148 0.10983 1.00172 0.0
C855 C 0.60559 0.2077 0.92896 0.0
C856 C 0.60614 0.21863 0.89903 0.0
C857 C 0.59377 0.19971 0.87792 0.0
C858 C 0.5798 0.17151 0.88621 0.0
C859 C 0.57865 0.16193 0.91577 0.0
C860 C 0.59164 0.17901 0.93689 0.0
C861 C 0.58701 0.16284 0.96717 0.0
C862 C 0.61637 0.15396 0.98132 0.0
C863 C 0.56976 0.18286 0.98676 0.0
C864 C 0.56905 0.13445 0.95962 0.0
C865 C 0.56441 0.1347 0.92979 0.0
C866 C 0.54753 0.11192 0.91731 0.0
C867 C 0.53536 0.0879 0.93568 0.0
C868 C 0.5403 0.08645 0.9663 0.0
C869 C 0.55743 0.11016 0.97839 0.0
H870 H 0.96274 0.80831 0.42316 0.0
H871 H 1.00744 0.75275 0.49064 0.0
H872 H 0.03076 0.79988 0.50881 0.0
H873 H 0.02024 0.86903 0.40997 0.0
H874 H 0.99394 0.8989 0.40555 0.0
H875 H 0.9844 0.86066 0.39546 0.0
H876 H 0.93953 0.8589 0.42971 0.0
H877 H 0.94895 0.89701 0.43992 0.0
H878 H 0.94478 0.86584 0.46774 0.0
H879 H 0.04638 0.85347 0.52139 0.0
H880 H 0.04984 0.90886 0.52992 0.0
H881 H 0.99257 0.9286 0.45551 0.0
C882 C 0.97808 0.8061 0.44126 0.0
C883 C 0.9838 0.7771 0.4553 0.0
C884 C 1.0031 0.77492 0.47956 0.0
C885 C 0.01649 0.80148 0.48987 0.0
C886 C 1.01008 0.82989 0.47575 0.0
C887 C 0.99118 0.83232 0.45206 0.0
C888 C 0.98539 0.8655 0.44269 0.0
C889 C 0.99668 0.87402 0.41157 0.0
C890 C 0.95273 0.87219 0.44519 0.0
C891 C 1.00346 0.88141 0.46519 0.0
C892 C 0.01803 0.86059 0.48371 0.0
C893 C 0.03526 0.86999 0.50687 0.0
C894 C 0.03713 0.90145 0.51152 0.0
C895 C 0.02142 0.9229 0.4934 0.0
C896 C 1.00483 0.91269 0.4697 0.0
H897 H 0.4629 0.71038 0.57811 0.0
H898 H 0.36968 0.69011 0.57623 0.0
H899 H 0.37899 0.63699 0.56379 0.0
H900 H 0.47998 0.66893 0.51686 0.0
H901 H 0.51433 0.65581 0.53167 0.0
H902 H 0.50019 0.69141 0.54216 0.0
H903 H 0.50332 0.67161 0.59678 0.0
H904 H 0.51741 0.63589 0.58644 0.0
H905 H 0.48522 0.63568 0.60881 0.0
H906 H 0.39872 0.58634 0.55108 0.0
H907 H 0.42713 0.5432 0.53544 0.0
H908 H 0.50724 0.59775 0.54421 0.0
C909 C 0.4445 0.6946 0.57538 0.0
C910 C 0.4156 0.70408 0.57823 0.0
C911 C 0.39198 0.68314 0.57399 0.0
C912 C 0.39706 0.65296 0.56712 0.0
C913 C 0.42587 0.64431 0.56443 0.0
C914 C 0.44918 0.66459 0.5682 0.0
C915 C 0.47795 0.65015 0.56255 0.0
C916 C 0.49405 0.66761 0.53678 0.0
C917 C 0.4971 0.64822 0.5903 0.0
C918 C 0.46721 0.61863 0.55479 0.0
C919 C 0.43714 0.61553 0.55635 0.0
C920 C 0.42227 0.58847 0.54983 0.0
C921 C 0.43858 0.56409 0.54106 0.0
C922 C 0.46934 0.56719 0.53859 0.0
C923 C 0.48374 0.59472 0.54586 0.0
H924 H 0.92298 0.893 0.7071 0.0
H925 H 0.86949 0.972 0.71794 0.0
H926 H 0.88916 0.99713 0.67293 0.0
H927 H 0.98678 0.94114 0.68113 0.0
H928 H 0.99843 0.91429 0.65581 0.0
H929 H 0.97905 0.90055 0.68849 0.0
H930 H 0.94055 0.87323 0.65702 0.0
H931 H 0.95972 0.88703 0.62424 0.0
H932 H 0.9217 0.89514 0.62825 0.0
H933 H 0.91143 0.01345 0.62427 0.0
H934 H 0.94125 0.02322 0.57972 0.0
H935 H 0.98728 0.93929 0.60159 0.0
C936 C 0.91537 0.91562 0.70026 0.0
C937 C 0.89304 0.92926 0.71628 0.0
C938 C 0.88481 0.95942 0.70602 0.0
C939 C 0.89631 0.97445 0.68029 0.0
C940 C 0.91723 0.96005 0.66477 0.0
C941 C 0.92742 0.93169 0.67467 0.0
C942 C 0.95156 0.92258 0.65427 0.0
C943 C 0.98069 0.91945 0.67092 0.0
C944 C 0.94286 0.89272 0.64011 0.0
C945 C 0.95287 0.95003 0.63138 0.0
C946 C 0.93238 0.97104 0.6378 0.0
C947 C 0.9279 0.99739 0.61934 0.0
C948 C 0.94491 1.00273 0.59391 0.0
C949 C 0.96692 0.98239 0.5871 0.0
C950 C 0.97096 0.9556 0.60631 0.0
H951 H 0.56972 0.13073 0.24774 0.0
H952 H 0.52055 0.05659 0.29449 0.0
H953 H 0.51372 0.03066 0.24842 0.0
H954 H 0.52974 0.12975 0.17649 0.0
H955 H 0.56291 0.13714 0.15596 0.0
H956 H 0.55936 0.15205 0.19138 0.0
H957 H 0.60681 0.12515 0.2084 0.0
H958 H 0.61018 0.1096 0.17332 0.0
H959 H 0.60922 0.08422 0.20614 0.0
H960 H 0.51628 0.01082 0.19844 0.0
H961 H 0.52742 0.99866 0.14789 0.0
H962 H 0.57733 0.08457 0.1347 0.0
C963 C 0.55652 0.10967 0.24791 0.0
C964 C 0.54493 0.0959 0.27425 0.0
C965 C 0.52896 0.06764 0.27422 0.0
C966 C 0.52511 0.05279 0.24826 0.0
C967 C 0.53767 0.06644 0.22273 0.0
C968 C 0.55294 0.09434 0.22232 0.0
C969 C 0.56674 0.10262 0.19279 0.0
C970 C 0.55391 0.13214 0.1783 0.0
C971 C 0.60021 0.10556 0.19534 0.0
C972 C 0.55735 0.07476 0.17682 0.0
C973 C 0.54029 0.05436 0.19432 0.0
C974 C 0.52941 0.02674 0.18446 0.0
C975 C 0.53588 0.02 0.15582 0.0
C976 C 0.55335 0.04059 0.13755 0.0
C977 C 0.56428 0.06822 0.14833 0.0
H978 H 0.37649 0.56183 0.32575 0.0
H979 H 0.45018 0.59133 0.27055 0.0
H980 H 0.48398 0.57661 0.31061 0.0
H981 H 0.40582 0.58666 0.3926 0.0
H982 H 0.39239 0.55395 0.41542 0.0
H983 H 0.37326 0.56572 0.38219 0.0
H984 H 0.37758 0.51121 0.3641 0.0
H985 H 0.3965 0.49924 0.39743 0.0
H986 H 0.41304 0.49465 0.36252 0.0
H987 H 0.51019 0.56323 0.35755 0.0
H988 H 0.52737 0.54603 0.40709 0.0
H989 H 0.43817 0.52106 0.43226 0.0
C990 C 0.39973 0.56468 0.32195 0.0
C991 C 0.41045 0.57842 0.29491 0.0
C992 C 0.44117 0.58169 0.2911 0.0
C993 C 0.46068 0.57324 0.31376 0.0
C994 C 0.44949 0.56086 0.34031 0.0
C995 C 0.41979 0.55596 0.34447 0.0
C996 C 0.41389 0.54209 0.37544 0.0
C997 C 0.39523 0.56338 0.39241 0.0
C998 C 0.39939 0.50988 0.37483 0.0
C999 C 0.44481 0.54044 0.38793 0.0
C1000 C 0.46492 0.55166 0.36726 0.0
C1001 C 0.49468 0.55398 0.37382 0.0
C1002 C 0.50425 0.54428 0.40211 0.0
C1003 C 0.48427 0.53194 0.42359 0.0
C1004 C 0.45409 0.53002 0.41625 0.0
H1005 H 0.09415 0.38536 0.78837 0.0
H1006 H 0.12714 0.46719 0.73786 0.0
H1007 H 0.12524 0.49629 0.78135 0.0
H1008 H 0.04133 0.42339 0.82373 0.0
H1009 H 0.04379 0.40094 0.8582 0.0
H1010 H 0.0536 0.38445 0.82496 0.0
H1011 H 0.10455 0.37216 0.84698 0.0
H1012 H 0.09492 0.38898 0.88026 0.0
H1013 H 0.1272 0.40264 0.86053 0.0
H1014 H 0.11324 0.51898 0.82677 0.0
H1015 H 0.08792 0.53427 0.87063 0.0
H1016 H 0.06077 0.4397 0.89241 0.0
C1017 C 0.10137 0.40927 0.78648 0.0
C1018 C 0.11153 0.42354 0.75958 0.0
C1019 C 0.1204 0.45509 0.75825 0.0
C1020 C 0.1193 0.47203 0.78292 0.0
C1021 C 0.10903 0.45735 0.8089 0.0
C1022 C 0.09997 0.42676 0.8109 0.0
C1023 C 0.08607 0.4178 0.84032 0.0
C1024 C 0.05432 0.40597 0.83656 0.0
C1025 C 0.10428 0.39398 0.85807 0.0
C1026 C 0.08749 0.44852 0.85388 0.0
C1027 C 0.10154 0.4708 0.8356 0.0
C1028 C 0.10288 0.50166 0.84166 0.0
C1029 C 0.0886 0.51017 0.86653 0.0
C1030 C 0.07332 0.48796 0.88493 0.0
C1031 C 0.07343 0.45669 0.87908 0.0
H1032 H 0.71391 0.91235 0.95661 0.0
H1033 H 0.68542 0.90832 0.86641 0.0
H1034 H 0.63801 0.92895 0.87897 0.0
H1035 H 0.64391 0.89137 0.99045 0.0
H1036 H 0.64794 0.91766 0.01892 0.0
H1037 H 0.67981 0.90223 1.00329 0.0
H1038 H 0.70046 0.95734 0.99037 0.0
H1039 H 0.66868 0.97293 1.00602 0.0
H1040 H 0.67868 0.98429 0.96875 0.0
H1041 H 0.59231 0.9485 0.90141 0.0
H1042 H 0.55362 0.96888 0.93079 0.0
H1043 H 0.61068 0.9637 1.00695 0.0
C1044 C 0.6977 0.91574 0.93947 0.0
C1045 C 0.70393 0.90854 0.91026 0.0
C1046 C 0.68182 0.9138 0.88874 0.0
C1047 C 0.65454 0.9254 0.89576 0.0
C1048 C 0.64918 0.93221 0.92453 0.0
C1049 C 0.67023 0.92788 0.94606 0.0
C1050 C 0.65885 0.93793 0.97513 0.0
C1051 C 0.65756 0.91068 0.99833 0.0
C1052 C 0.6778 0.96471 0.98569 0.0
C1053 C 0.62814 0.94838 0.96663 0.0
C1054 C 0.62306 0.94453 0.93732 0.0
C1055 C 0.59624 0.95174 0.92432 0.0
C1056 C 0.5742 0.96332 0.94138 0.0
C1057 C 0.57864 0.96821 0.97144 0.0
C1058 C 0.60628 0.96051 0.98411 0.0
H1059 H 0.75216 0.04446 0.40912 0.0
H1060 H 0.7274 0.05671 0.49846 0.0
H1061 H 0.77644 0.04083 0.51566 0.0
H1062 H 0.80107 0.97887 0.4245 0.0
H1063 H 0.82665 0.9936 0.39688 0.0
H1064 H 0.78835 1.00106 0.39247 0.0
H1065 H 0.80067 0.05957 0.38632 0.0
H1066 H 0.8389 0.05236 0.39104 0.0
H1067 H 0.8213 0.07749 0.41451 0.0
H1068 H 0.82925 0.02809 0.52227 0.0
H1069 H 0.88189 0.01991 0.51815 0.0
H1070 H 0.87243 0.01955 0.42375 0.0
C1071 C 0.7568 0.0427 0.43238 0.0
C1072 C 0.73607 0.0511 0.45263 0.0
C1073 C 0.74308 0.04987 0.48279 0.0
C1074 C 0.77077 0.0409 0.49269 0.0
C1075 C 0.79108 0.0335 0.47203 0.0
C1076 C 0.78441 0.03427 0.44251 0.0
C1077 C 0.8109 0.02841 0.42451 0.0
C1078 C 0.80647 0.99871 0.40866 0.0
C1079 C 0.81837 0.05611 0.40284 0.0
C1080 C 0.83366 0.02478 0.44845 0.0
C1081 C 0.82176 0.02739 0.47572 0.0
C1082 C 0.8388 0.02585 0.50103 0.0
C1083 C 0.86881 0.02152 0.49839 0.0
C1084 C 0.88157 0.01917 0.47056 0.0
C1085 C 0.86352 0.02073 0.44539 0.0
H1086 H 0.18745 0.59356 0.12994 0.0
H1087 H 0.24417 0.60238 0.05436 0.0
H1088 H 0.20466 0.58146 0.02398 0.0
H1089 H 0.14858 0.52188 0.11104 0.0
H1090 H 0.11379 0.53353 0.12375 0.0
H1091 H 0.14707 0.54731 0.14027 0.0
H1092 H 0.13135 0.60337 0.12884 0.0
H1093 H 0.09816 0.58975 0.11207 0.0
H1094 H 0.12249 0.61645 0.0917 0.0
H1095 H 0.1585 0.56207 1.00075 0.0
H1096 H 0.10924 0.54367 0.98672 0.0
H1097 H 0.08085 0.54715 0.07654 0.0
C1098 C 0.19165 0.59046 0.10714 0.0
C1099 C 0.21911 0.5995 0.09459 0.0
C1100 C 0.22345 0.59563 0.06449 0.0
C1101 C 0.20108 0.58377 0.04701 0.0
C1102 C 0.17413 0.57577 0.05973 0.0
C1103 C 0.16927 0.57873 0.08914 0.0
C1104 C 0.13777 0.56924 0.09685 0.0
C1105 C 0.13675 0.54133 0.11931 0.0
C1106 C 0.12149 0.59632 0.10803 0.0
C1107 C 0.12581 0.56076 0.06721 0.0
C1108 C 0.14725 0.56469 0.04617 0.0
C1109 C 0.14157 0.55879 0.0171 0.0
C1110 C 0.11338 0.54839 1.00929 0.0
C1111 C 0.09089 0.54391 0.03035 0.0
C1112 C 0.09739 0.55032 0.05977 0.0
H1113 H 0.25804 0.38181 0.55107 0.0
H1114 H 0.22749 0.4671 0.50945 0.0
H1115 H 0.27657 0.47841 0.48804 0.0
H1116 H 0.32249 0.41211 0.57448 0.0
H1117 H 0.34411 0.379 0.56994 0.0
H1118 H 0.30552 0.37417 0.57606 0.0
H1119 H 0.29952 0.34592 0.52841 0.0
H1120 H 0.33828 0.35038 0.52224 0.0
H1121 H 0.31294 0.36418 0.49438 0.0
H1122 H 0.33011 0.48322 0.47682 0.0
H1123 H 0.38377 0.48265 0.47803 0.0
H1124 H 0.37948 0.39575 0.53064 0.0
C1125 C 0.26153 0.40216 0.53637 0.0
C1126 C 0.23918 0.42323 0.53099 0.0
C1127 C 0.24443 0.45045 0.513 0.0
C1128 C 0.27214 0.45697 0.50084 0.0
C1129 C 0.29415 0.43608 0.50724 0.0
C1130 C 0.2891 0.40918 0.52458 0.0
C1131 C 0.31713 0.39279 0.53174 0.0
C1132 C 0.32262 0.38934 0.56501 0.0
C1133 C 0.31695 0.36146 0.51838 0.0
C1134 C 0.33891 0.41516 0.51659 0.0
C1135 C 0.32523 0.43962 0.50205 0.0
C1136 C 0.34103 0.46404 0.48793 0.0
C1137 C 0.3716 0.46365 0.48905 0.0
C1138 C 0.38611 0.43926 0.50469 0.0
C1139 C 0.36932 0.41451 0.51812 0.0
H1140 H 0.92643 0.70027 0.88736 0.0
H1141 H 0.89362 0.73898 0.96494 0.0
H1142 H 0.91363 0.69583 0.99551 0.0
H1143 H 0.9132 0.62031 0.91148 0.0
H1144 H 0.94617 0.60736 0.8958 0.0
H1145 H 0.92888 0.64106 0.87965 0.0
H1146 H 0.97707 0.6728 0.88485 0.0
H1147 H 0.99449 0.63918 0.90103 0.0
H1148 H 0.9944 0.67381 0.92025 0.0
H1149 H 0.93762 0.64762 0.01853 0.0
H1150 H 0.96309 0.59938 0.03137 0.0
H1151 H 0.98217 0.59179 0.93966 0.0
C1152 C 0.92354 0.69999 0.91078 0.0
C1153 C 0.9079 0.72358 0.92331 0.0
C1154 C 0.90469 0.72139 0.95424 0.0
C1155 C 0.91631 0.69688 0.97201 0.0
C1156 C 0.93146 0.67423 0.95895 0.0
C1157 C 0.93514 0.67557 0.92899 0.0
C1158 C 0.95244 0.64821 0.92053 0.0
C1159 C 0.93407 0.62804 0.90069 0.0
C1160 C 0.98131 0.65916 0.90579 0.0
C1161 C 0.95794 0.63133 0.95034 0.0
C1162 C 0.94557 0.64676 0.9722 0.0
C1163 C 0.94741 0.63551 1.00149 0.0
C1164 C 0.96204 0.60793 1.00863 0.0
C1165 C 0.975 0.59146 0.98674 0.0
C1166 C 0.97283 0.60367 0.95712 0.0
H1167 H 0.40649 0.79642 0.07747 0.0
H1168 H 0.41832 0.81521 0.16866 0.0
H1169 H 0.44347 0.86431 0.15381 0.0
H1170 H 0.47451 0.82818 0.05161 0.0
H1171 H 0.4608 0.84577 0.01765 0.0
H1172 H 0.44231 0.8122 0.03477 0.0
H1173 H 0.39402 0.84138 0.03504 0.0
H1174 H 0.41229 0.87494 0.01756 0.0
H1175 H 0.39331 0.87765 0.05152 0.0
H1176 H 0.4714 0.90861 0.13026 0.0
H1177 H 0.49478 0.95014 0.09864 0.0
H1178 H 0.46277 0.90668 0.02174 0.0
C1179 C 0.41389 0.81118 0.09423 0.0
C1180 C 0.41086 0.80151 0.12433 0.0
C1181 C 0.42094 0.82159 0.14553 0.0
C1182 C 0.43521 0.84967 0.13733 0.0
C1183 C 0.43892 0.85796 0.10771 0.0
C1184 C 0.42806 0.83978 0.08637 0.0
C1185 C 0.43514 0.8547 0.05606 0.0
C1186 C 0.45433 0.83397 0.03902 0.0
C1187 C 0.40701 0.86264 0.03904 0.0
C1188 C 0.45203 0.88366 0.06389 0.0
C1189 C 0.45408 0.88476 0.09387 0.0
C1190 C 0.46963 0.90827 0.10672 0.0
C1191 C 0.48305 0.93168 0.08852 0.0
C1192 C 0.48063 0.93181 0.05768 0.0
C1193 C 0.46489 0.90734 0.04524 0.0
H1194 H 0.06288 0.21504 0.60154 0.0
H1195 H 1.00401 0.26623 0.5436 0.0
H1196 H 0.98184 0.21741 0.52804 0.0
H1197 H 0.07904 0.1622 0.55296 0.0
H1198 H 0.08183 0.12966 0.57927 0.0
H1199 H 0.08878 0.16788 0.59043 0.0
H1200 H 0.04937 0.1591 0.63066 0.0
H1201 H 0.04251 0.1206 0.61983 0.0
H1202 H 0.0129 0.14672 0.62086 0.0
H1203 H 0.97046 0.16354 0.51457 0.0
H1204 H 0.97149 0.10906 0.5032 0.0
H1205 H 0.03979 0.0935 0.5683 0.0
C1206 C 0.04451 0.21577 0.5865 0.0
C1207 C 0.03447 0.24406 0.57423 0.0
C1208 C 1.01139 0.24456 0.55357 0.0
C1209 C 0.99875 0.21702 0.54467 0.0
C1210 C 1.00971 0.18934 0.55652 0.0
C1211 C 0.03204 0.18852 0.57706 0.0
C1212 C 0.0424 0.15614 0.58361 0.0
C1213 C 0.07493 0.15386 0.57611 0.0
C1214 C 0.03643 0.14499 0.61564 0.0
C1215 C 0.02307 0.13903 0.56292 0.0
C1216 C 1.00398 0.15842 0.54789 0.0
C1217 C 0.98504 0.14805 0.52648 0.0
C1218 C 0.98584 0.11711 0.52012 0.0
C1219 C 1.00575 0.09708 0.53482 0.0
C1220 C 0.02428 0.10822 0.55673 0.0
H1221 H 0.58197 0.30749 0.40813 0.0
H1222 H 0.63911 0.28959 0.48364 0.0
H1223 H 0.63079 0.34087 0.4987 0.0
H1224 H 0.59525 0.38929 0.3954 0.0
H1225 H 0.55734 0.39736 0.38872 0.0
H1226 H 0.57127 0.36089 0.38022 0.0
H1227 H 0.53184 0.3323 0.41307 0.0
H1228 H 0.51762 0.36863 0.4214 0.0
H1229 H 0.52863 0.34148 0.45062 0.0
H1230 H 0.61685 0.39402 0.50628 0.0
H1231 H 0.59012 0.44157 0.51156 0.0
H1232 H 0.5349 0.4213 0.43765 0.0
C1233 C 0.59283 0.31384 0.42791 0.0
C1234 C 0.61233 0.29405 0.44371 0.0
C1235 C 0.62552 0.30426 0.46969 0.0
C1236 C 0.62068 0.33352 0.47883 0.0
C1237 C 0.60172 0.35222 0.46256 0.0
C1238 C 0.58727 0.34252 0.43819 0.0
C1239 C 0.56501 0.36561 0.42699 0.0
C1240 C 0.57269 0.37908 0.39599 0.0
C1241 C 0.53394 0.35114 0.4281 0.0
C1242 C 0.56912 0.38957 0.44915 0.0
C1243 C 0.59114 0.38178 0.46885 0.0
C1244 C 0.59948 0.40036 0.49111 0.0
C1245 C 0.58435 0.42731 0.49383 0.0
C1246 C 0.5607 0.43479 0.47495 0.0
C1247 C 0.55305 0.41589 0.45222 0.0
loop_
_geom_bond_atom_site_label_1
_geom_bond_atom_site_label_2
_geom_bond_distance
_geom_bond_site_symmetry_2
_ccdc_geom_bond_type
C0 C1 1.391 . S
C0 C4 1.391 . S
C0 H42 0.948 . S
C1 C0 1.391 . S
C1 C2 1.391 . S
C2 C1 1.391 . S
C2 H58 0.947 . S
C2 C59 1.392 . S
C3 C4 1.391 . S
C3 C7 1.397 . S
C3 C59 1.419 . S
C4 C0 1.391 . S
C4 C3 1.391 . S
C4 C5 1.399 . S
C5 C4 1.399 . S
C5 C8 1.396 . S
C5 C17 1.453 . S
C5 C18 1.684 . S
H6 C30 0.948 . S
C7 C3 1.397 . S
C7 C8 1.394 . S
C7 C26 1.723 . S
C8 C5 1.396 . S
C8 C7 1.394 . S
C8 C38 1.723 . S
H9 C32 0.947 . S
H10 C33 0.948 . S
H11 C39 0.982 . S
H12 C40 0.979 . S
H13 C40 0.980 . S
H14 C40 0.983 . S
H15 C39 0.979 . S
H16 C39 0.977 . S
C17 C5 1.453 . S
C17 H46 0.982 . S
C17 H47 0.979 . S
C17 H48 0.977 . S
C18 C5 1.684 . S
C18 H43 0.979 . S
C18 H44 0.980 . S
C18 H45 0.983 . S
C19 C20 1.391 . S
C19 C24 1.391 . S
C19 H49 0.948 . S
C20 C19 1.391 . S
C20 C21 1.391 . S
C21 C20 1.391 . S
C21 C22 1.392 . S
C21 H50 0.947 . S
C22 C21 1.392 . S
C22 C23 1.419 . S
C22 H51 0.948 . S
C23 C22 1.419 . S
C23 C24 1.391 . S
C23 C27 1.397 . S
C24 C19 1.391 . S
C24 C23 1.391 . S
C24 C25 1.399 . S
C25 C24 1.399 . S
C25 C26 1.396 . S
C25 C28 1.453 . S
C25 C29 1.684 . S
C26 C7 1.723 . S
C26 C25 1.396 . S
C26 C27 1.394 . S
C27 C23 1.397 . S
C27 C26 1.394 . S
C27 C37 1.723 . S
C28 C25 1.453 . S
C28 H52 0.982 . S
C28 H53 0.979 . S
C28 H54 0.977 . S
C29 C25 1.684 . S
C29 H55 0.979 . S
C29 H56 0.980 . S
C29 H57 0.983 . S
C30 H6 0.948 . S
C30 C31 1.391 . S
C30 C35 1.391 . S
C31 C30 1.391 . S
C31 C32 1.391 . S
C32 H9 0.947 . S
C32 C31 1.391 . S
C32 C33 1.392 . S
C33 H10 0.948 . S
C33 C32 1.392 . S
C33 C34 1.419 . S
C34 C33 1.419 . S
C34 C35 1.391 . S
C34 C38 1.397 . S
C35 C30 1.391 . S
C35 C34 1.391 . S
C35 C36 1.399 . S
C36 C35 1.399 . S
C36 C37 1.396 . S
C36 C39 1.453 . S
C36 C40 1.684 . S
C37 C27 1.723 . S
C37 C36 1.396 . S
C37 C38 1.394 . S
C38 C8 1.723 . S
C38 C34 1.397 . S
C38 C37 1.394 . S
C39 H11 0.982 . S
C39 H15 0.979 . S
C39 H16 0.977 . S
C39 C36 1.453 . S
C40 H12 0.979 . S
C40 H13 0.980 . S
C40 H14 0.983 . S
C40 C36 1.684 . S
H41 C59 0.948 . S
H42 C0 0.948 . S
H43 C18 0.979 . S
H44 C18 0.980 . S
H45 C18 0.983 . S
H46 C17 0.982 . S
H47 C17 0.979 . S
H48 C17 0.977 . S
H49 C19 0.948 . S
H50 C21 0.947 . S
H51 C22 0.948 . S
H52 C28 0.982 . S
H53 C28 0.979 . S
H54 C28 0.977 . S
H55 C29 0.979 . S
H56 C29 0.980 . S
H57 C29 0.983 . S
H58 C2 0.947 . S
C59 C2 1.392 . S
C59 C3 1.419 . S
C59 H41 0.948 . S
C60 C61 1.391 . S
C60 C64 1.391 . S
C60 H102 0.948 . S
C61 C60 1.391 . S
C61 C62 1.391 . S
C62 C61 1.391 . S
C62 H118 0.947 . S
C62 C119 1.392 . S
C63 C64 1.391 . S
C63 C67 1.397 . S
C63 C119 1.419 . S
C64 C60 1.391 . S
C64 C63 1.391 . S
C64 C65 1.399 . S
C65 C64 1.399 . S
C65 C68 1.396 . S
C65 C77 1.453 . S
C65 C78 1.684 . S
H66 C90 0.948 . S
C67 C63 1.397 . S
C67 C68 1.394 . S
C67 C86 1.723 . S
C68 C65 1.396 . S
C68 C67 1.394 . S
C68 C98 1.723 . S
H69 C92 0.947 . S
H70 C93 0.948 . S
H71 C99 0.982 . S
H72 C100 0.979 . S
H73 C100 0.980 . S
H74 C100 0.983 . S
H75 C99 0.979 . S
H76 C99 0.977 . S
C77 C65 1.453 . S
C77 H106 0.982 . S
C77 H107 0.979 . S
C77 H108 0.977 . S
C78 C65 1.684 . S
C78 H103 0.979 . S
C78 H104 0.980 . S
C78 H105 0.983 . S
C79 C80 1.391 . S
C79 C84 1.391 . S
C79 H109 0.948 . S
C80 C79 1.391 . S
C80 C81 1.391 . S
C81 C80 1.391 . S
C81 C82 1.392 . S
C81 H110 0.947 . S
C82 C81 1.392 . S
C82 C83 1.419 . S
C82 H111 0.948 . S
C83 C82 1.419 . S
C83 C84 1.391 . S
C83 C87 1.397 . S
C84 C79 1.391 . S
C84 C83 1.391 . S
C84 C85 1.399 . S
C85 C84 1.399 . S
C85 C86 1.396 . S
C85 C88 1.453 . S
C85 C89 1.684 . S
C86 C67 1.723 . S
C86 C85 1.396 . S
C86 C87 1.394 . S
C87 C83 1.397 . S
C87 C86 1.394 . S
C87 C97 1.723 . S
C88 C85 1.453 . S
C88 H112 0.982 . S
C88 H113 0.979 . S
C88 H114 0.977 . S
C89 C85 1.684 . S
C89 H115 0.979 . S
C89 H116 0.980 . S
C89 H117 0.983 . S
C90 H66 0.948 . S
C90 C91 1.391 . S
C90 C95 1.391 . S
C91 C90 1.391 . S
C91 C92 1.391 . S
C92 H69 0.947 . S
C92 C91 1.391 . S
C92 C93 1.392 . S
C93 H70 0.948 . S
C93 C92 1.392 . S
C93 C94 1.419 . S
C94 C93 1.419 . S
C94 C95 1.391 . S
C94 C98 1.397 . S
C95 C90 1.391 . S
C95 C94 1.391 . S
C95 C96 1.399 . S
C96 C95 1.399 . S
C96 C97 1.396 . S
C96 C99 1.453 . S
C96 C100 1.684 . S
C97 C87 1.723 . S
C97 C96 1.396 . S
C97 C98 1.394 . S
C98 C68 1.723 . S
C98 C94 1.397 . S
C98 C97 1.394 . S
C99 H71 0.982 . S
C99 H75 0.979 . S
C99 H76 0.977 . S
C99 C96 1.453 . S
C100 H72 0.979 . S
C100 H73 0.980 . S
C100 H74 0.983 . S
C100 C96 1.684 . S
H101 C119 0.948 . S
H102 C60 0.948 . S
H103 C78 0.979 . S
H104 C78 0.980 . S
H105 C78 0.983 . S
H106 C77 0.982 . S
H107 C77 0.979 . S
H108 C77 0.977 . S
H109 C79 0.948 . S
H110 C81 0.947 . S
H111 C82 0.948 . S
H112 C88 0.982 . S
H113 C88 0.979 . S
H114 C88 0.977 . S
H115 C89 0.979 . S
H116 C89 0.980 . S
H117 C89 0.983 . S
H118 C62 0.947 . S
C119 C62 1.392 . S
C119 C63 1.419 . S
C119 H101 0.948 . S
C120 C121 1.391 . S
C120 C124 1.391 . S
C120 H162 0.948 . S
C121 C120 1.391 . S
C121 C122 1.391 . S
C122 C121 1.391 . S
C122 H178 0.947 . S
C122 C179 1.392 . S
C123 C124 1.391 . S
C123 C127 1.397 . S
C123 C179 1.419 . S
C124 C120 1.391 . S
C124 C123 1.391 . S
C124 C125 1.399 . S
C125 C124 1.399 . S
C125 C128 1.396 . S
C125 C137 1.453 . S
C125 C138 1.684 . S
H126 C150 0.948 . S
C127 C123 1.397 . S
C127 C128 1.394 . S
C127 C146 1.723 . S
C128 C125 1.396 . S
C128 C127 1.394 . S
C128 C158 1.723 . S
H129 C152 0.947 . S
H130 C153 0.948 . S
H131 C159 0.982 . S
H132 C160 0.979 . S
H133 C160 0.980 . S
H134 C160 0.983 . S
H135 C159 0.979 . S
H136 C159 0.977 . S
C137 C125 1.453 . S
C137 H166 0.982 . S
C137 H167 0.979 . S
C137 H168 0.977 . S
C138 C125 1.684 . S
C138 H163 0.979 . S
C138 H164 0.980 . S
C138 H165 0.983 . S
C139 C140 1.391 . S
C139 C144 1.391 . S
C139 H169 0.948 . S
C140 C139 1.391 . S
C140 C141 1.391 . S
C141 C140 1.391 . S
C141 C142 1.392 . S
C141 H170 0.947 . S
C142 C141 1.392 . S
C142 C143 1.419 . S
C142 H171 0.948 . S
C143 C142 1.419 . S
C143 C144 1.391 . S
C143 C147 1.397 . S
C144 C139 1.391 . S
C144 C143 1.391 . S
C144 C145 1.399 . S
C145 C144 1.399 . S
C145 C146 1.396 . S
C145 C148 1.453 . S
C145 C149 1.684 . S
C146 C127 1.723 . S
C146 C145 1.396 . S
C146 C147 1.394 . S
C147 C143 1.397 . S
C147 C146 1.394 . S
C147 C157 1.723 . S
C148 C145 1.453 . S
C148 H172 0.982 . S
C148 H173 0.979 . S
C148 H174 0.977 . S
C149 C145 1.684 . S
C149 H175 0.979 . S
C149 H176 0.980 . S
C149 H177 0.983 . S
C150 H126 0.948 . S
C150 C151 1.391 . S
C150 C155 1.391 . S
C151 C150 1.391 . S
C151 C152 1.391 . S
C152 H129 0.947 . S
C152 C151 1.391 . S
C152 C153 1.392 . S
C153 H130 0.948 . S
C153 C152 1.392 . S
C153 C154 1.419 . S
C154 C153 1.419 . S
C154 C155 1.391 . S
C154 C158 1.397 . S
C155 C150 1.391 . S
C155 C154 1.391 . S
C155 C156 1.399 . S
C156 C155 1.399 . S
C156 C157 1.396 . S
C156 C159 1.453 . S
C156 C160 1.684 . S
C157 C147 1.723 . S
C157 C156 1.396 . S
C157 C158 1.394 . S
C158 C128 1.723 . S
C158 C154 1.397 . S
C158 C157 1.394 . S
C159 H131 0.982 . S
C159 H135 0.979 . S
C159 H136 0.977 . S
C159 C156 1.453 . S
C160 H132 0.979 . S
C160 H133 0.980 . S
C160 H134 0.983 . S
C160 C156 1.684 . S
H161 C179 0.948 . S
H162 C120 0.948 . S
H163 C138 0.979 . S
H164 C138 0.980 . S
H165 C138 0.983 . S
H166 C137 0.982 . S
H167 C137 0.979 . S
H168 C137 0.977 . S
H169 C139 0.948 . S
H170 C141 0.947 . S
H171 C142 0.948 . S
H172 C148 0.982 . S
H173 C148 0.979 . S
H174 C148 0.977 . S
H175 C149 0.979 . S
H176 C149 0.980 . S
H177 C149 0.983 . S
H178 C122 0.947 . S
C179 C122 1.392 . S
C179 C123 1.419 . S
C179 H161 0.948 . S
C180 C181 1.391 . S
C180 C184 1.391 . S
C180 H222 0.948 . S
C181 C180 1.391 . S
C181 C182 1.391 . S
C182 C181 1.391 . S
C182 H238 0.947 . S
C182 C239 1.392 . S
C183 C184 1.391 . S
C183 C187 1.397 . S
C183 C239 1.419 . S
C184 C180 1.391 . S
C184 C183 1.391 . S
C184 C185 1.399 . S
C185 C184 1.399 . S
C185 C188 1.396 . S
C185 C197 1.453 . S
C185 C198 1.684 . S
H186 C210 0.948 . S
C187 C183 1.397 . S
C187 C188 1.394 . S
C187 C206 1.723 . S
C188 C185 1.396 . S
C188 C187 1.394 . S
C188 C218 1.723 . S
H189 C212 0.947 . S
H190 C213 0.948 . S
H191 C219 0.982 . S
H192 C220 0.979 . S
H193 C220 0.980 . S
H194 C220 0.983 . S
H195 C219 0.979 . S
H196 C219 0.977 . S
C197 C185 1.453 . S
C197 H226 0.982 . S
C197 H227 0.979 . S
C197 H228 0.977 . S
C198 C185 1.684 . S
C198 H223 0.979 . S
C198 H224 0.980 . S
C198 H225 0.983 . S
C199 C200 1.391 . S
C199 C204 1.391 . S
C199 H229 0.948 . S
C200 C199 1.391 . S
C200 C201 1.391 . S
C201 C200 1.391 . S
C201 C202 1.392 . S
C201 H230 0.947 . S
C202 C201 1.392 . S
C202 C203 1.419 . S
C202 H231 0.948 . S
C203 C202 1.419 . S
C203 C204 1.391 . S
C203 C207 1.397 . S
C204 C199 1.391 . S
C204 C203 1.391 . S
C204 C205 1.399 . S
C205 C204 1.399 . S
C205 C206 1.396 . S
C205 C208 1.453 . S
C205 C209 1.684 . S
C206 C187 1.723 . S
C206 C205 1.396 . S
C206 C207 1.394 . S
C207 C203 1.397 . S
C207 C206 1.394 . S
C207 C217 1.723 . S
C208 C205 1.453 . S
C208 H232 0.982 . S
C208 H233 0.979 . S
C208 H234 0.977 . S
C209 C205 1.684 . S
C209 H235 0.979 . S
C209 H236 0.980 . S
C209 H237 0.983 . S
C210 H186 0.948 . S
C210 C211 1.391 . S
C210 C215 1.391 . S
C211 C210 1.391 . S
C211 C212 1.391 . S
C212 H189 0.947 . S
C212 C211 1.391 . S
C212 C213 1.392 . S
C213 H190 0.948 . S
C213 C212 1.392 . S
C213 C214 1.419 . S
C214 C213 1.419 . S
C214 C215 1.391 . S
C214 C218 1.397 . S
C215 C210 1.391 . S
C215 C214 1.391 . S
C215 C216 1.399 . S
C216 C215 1.399 . S
C216 C217 1.396 . S
C216 C219 1.453 . S
C216 C220 1.684 . S
C217 C207 1.723 . S
C217 C216 1.396 . S
C217 C218 1.394 . S
C218 C188 1.723 . S
C218 C214 1.397 . S
C218 C217 1.394 . S
C219 H191 0.982 . S
C219 H195 0.979 . S
C219 H196 0.977 . S
C219 C216 1.453 . S
C220 H192 0.979 . S
C220 H193 0.980 . S
C220 H194 0.983 . S
C220 C216 1.684 . S
H221 C239 0.948 . S
H222 C180 0.948 . S
H223 C198 0.979 . S
H224 C198 0.980 . S
H225 C198 0.983 . S
H226 C197 0.982 . S
H227 C197 0.979 . S
H228 C197 0.977 . S
H229 C199 0.948 . S
H230 C201 0.947 . S
H231 C202 0.948 . S
H232 C208 0.982 . S
H233 C208 0.979 . S
H234 C208 0.977 . S
H235 C209 0.979 . S
H236 C209 0.980 . S
H237 C209 0.983 . S
H238 C182 0.947 . S
C239 C182 1.392 . S
C239 C183 1.419 . S
C239 H221 0.948 . S
C240 C241 1.391 . S
C240 C244 1.391 . S
C240 H282 0.948 . S
C241 C240 1.391 . S
C241 C242 1.391 . S
C242 C241 1.391 . S
C242 H298 0.947 . S
C242 C299 1.392 . S
C243 C244 1.391 . S
C243 C247 1.397 . S
C243 C299 1.419 . S
C244 C240 1.391 . S
C244 C243 1.391 . S
C244 C245 1.399 . S
C245 C244 1.399 . S
C245 C248 1.396 . S
C245 C257 1.453 . S
C245 C258 1.684 . S
H246 C270 0.948 . S
C247 C243 1.397 . S
C247 C248 1.394 . S
C247 C266 1.723 . S
C248 C245 1.396 . S
C248 C247 1.394 . S
C248 C278 1.723 . S
H249 C272 0.947 . S
H250 C273 0.948 . S
H251 C279 0.982 . S
H252 C280 0.979 . S
H253 C280 0.980 . S
H254 C280 0.983 . S
H255 C279 0.979 . S
H256 C279 0.977 . S
C257 C245 1.453 . S
C257 H286 0.982 . S
C257 H287 0.979 . S
C257 H288 0.977 . S
C258 C245 1.684 . S
C258 H283 0.979 . S
C258 H284 0.980 . S
C258 H285 0.983 . S
C259 C260 1.391 . S
C259 C264 1.391 . S
C259 H289 0.948 . S
C260 C259 1.391 . S
C260 C261 1.391 . S
C261 C260 1.391 . S
C261 C262 1.392 . S
C261 H290 0.947 . S
C262 C261 1.392 . S
C262 C263 1.419 . S
C262 H291 0.948 . S
C263 C262 1.419 . S
C263 C264 1.391 . S
C263 C267 1.397 . S
C264 C259 1.391 . S
C264 C263 1.391 . S
C264 C265 1.399 . S
C265 C264 1.399 . S
C265 C266 1.396 . S
C265 C268 1.453 . S
C265 C269 1.684 . S
C266 C247 1.723 . S
C266 C265 1.396 . S
C266 C267 1.394 . S
C267 C263 1.397 . S
C267 C266 1.394 . S
C267 C277 1.723 . S
C268 C265 1.453 . S
C268 H292 0.982 . S
C268 H293 0.979 . S
C268 H294 0.977 . S
C269 C265 1.684 . S
C269 H295 0.979 . S
C269 H296 0.980 . S
C269 H297 0.983 . S
C270 H246 0.948 . S
C270 C271 1.391 . S
C270 C275 1.391 . S
C271 C270 1.391 . S
C271 C272 1.391 . S
C272 H249 0.947 . S
C272 C271 1.391 . S
C272 C273 1.392 . S
C273 H250 0.948 . S
C273 C272 1.392 . S
C273 C274 1.419 . S
C274 C273 1.419 . S
C274 C275 1.391 . S
C274 C278 1.397 . S
C275 C270 1.391 . S
C275 C274 1.391 . S
C275 C276 1.399 . S
C276 C275 1.399 . S
C276 C277 1.396 . S
C276 C279 1.453 . S
C276 C280 1.684 . S
C277 C267 1.723 . S
C277 C276 1.396 . S
C277 C278 1.394 . S
C278 C248 1.723 . S
C278 C274 1.397 . S
C278 C277 1.394 . S
C279 H251 0.982 . S
C279 H255 0.979 . S
C279 H256 0.977 . S
C279 C276 1.453 . S
C280 H252 0.979 . S
C280 H253 0.980 . S
C280 H254 0.983 . S
C280 C276 1.684 . S
H281 C299 0.948 . S
H282 C240 0.948 . S
H283 C258 0.979 . S
H284 C258 0.980 . S
H285 C258 0.983 . S
H286 C257 0.982 . S
H287 C257 0.979 . S
H288 C257 0.977 . S
H289 C259 0.948 . S
H290 C261 0.947 . S
H291 C262 0.948 . S
H292 C268 0.982 . S
H293 C268 0.979 . S
H294 C268 0.977 . S
H295 C269 0.979 . S
H296 C269 0.980 . S
H297 C269 0.983 . S
H298 C242 0.947 . S
C299 C242 1.392 . S
C299 C243 1.419 . S
C299 H281 0.948 . S
C300 C301 1.391 . S
C300 C304 1.391 . S
C300 H342 0.948 . S
C301 C300 1.391 . S
C301 C302 1.391 . S
C302 C301 1.391 . S
C302 H358 0.947 . S
C302 C359 1.392 . S
C303 C304 1.391 . S
C303 C307 1.397 . S
C303 C359 1.419 . S
C304 C300 1.391 . S
C304 C303 1.391 . S
C304 C305 1.399 . S
C305 C304 1.399 . S
C305 C308 1.396 . S
C305 C317 1.453 . S
C305 C318 1.684 . S
H306 C330 0.948 . S
C307 C303 1.397 . S
C307 C308 1.394 . S
C307 C326 1.723 . S
C308 C305 1.396 . S
C308 C307 1.394 . S
C308 C338 1.723 . S
H309 C332 0.947 . S
H310 C333 0.948 . S
H311 C339 0.982 . S
H312 C340 0.979 . S
H313 C340 0.980 . S
H314 C340 0.983 . S
H315 C339 0.979 . S
H316 C339 0.977 . S
C317 C305 1.453 . S
C317 H346 0.982 . S
C317 H347 0.979 . S
C317 H348 0.977 . S
C318 C305 1.684 . S
C318 H343 0.979 . S
C318 H344 0.980 . S
C318 H345 0.983 . S
C319 C320 1.391 . S
C319 C324 1.391 . S
C319 H349 0.948 . S
C320 C319 1.391 . S
C320 C321 1.391 . S
C321 C320 1.391 . S
C321 C322 1.392 . S
C321 H350 0.947 . S
C322 C321 1.392 . S
C322 C323 1.419 . S
C322 H351 0.948 . S
C323 C322 1.419 . S
C323 C324 1.391 . S
C323 C327 1.397 . S
C324 C319 1.391 . S
C324 C323 1.391 . S
C324 C325 1.399 . S
C325 C324 1.399 . S
C325 C326 1.396 . S
C325 C328 1.453 . S
C325 C329 1.684 . S
C326 C307 1.723 . S
C326 C325 1.396 . S
C326 C327 1.394 . S
C327 C323 1.397 . S
C327 C326 1.394 . S
C327 C337 1.723 . S
C328 C325 1.453 . S
C328 H352 0.982 . S
C328 H353 0.979 . S
C328 H354 0.977 . S
C329 C325 1.684 . S
C329 H355 0.979 . S
C329 H356 0.980 . S
C329 H357 0.983 . S
C330 H306 0.948 . S
C330 C331 1.391 . S
C330 C335 1.391 . S
C331 C330 1.391 . S
C331 C332 1.391 . S
C332 H309 0.947 . S
C332 C331 1.391 . S
C332 C333 1.392 . S
C333 H310 0.948 . S
C333 C332 1.392 . S
C333 C334 1.419 . S
C334 C333 1.419 . S
C334 C335 1.391 . S
C334 C338 1.397 . S
C335 C330 1.391 . S
C335 C334 1.391 . S
C335 C336 1.399 . S
C336 C335 1.399 . S
C336 C337 1.396 . S
C336 C339 1.453 . S
C336 C340 1.684 . S
C337 C327 1.723 . S
C337 C336 1.396 . S
C337 C338 1.394 . S
C338 C308 1.723 . S
C338 C334 1.397 . S
C338 C337 1.394 . S
C339 H311 0.982 . S
C339 H315 0.979 . S
C339 H316 0.977 . S
C339 C336 1.453 . S
C340 H312 0.979 . S
C340 H313 0.980 . S
C340 H314 0.983 . S
C340 C336 1.684 . S
H341 C359 0.948 . S
H342 C300 0.948 . S
H343 C318 0.979 . S
H344 C318 0.980 . S
H345 C318 0.983 . S
H346 C317 0.982 . S
H347 C317 0.979 . S
H348 C317 0.977 . S
H349 C319 0.948 . S
H350 C321 0.947 . S
H351 C322 0.948 . S
H352 C328 0.982 . S
H353 C328 0.979 . S
H354 C328 0.977 . S
H355 C329 0.979 . S
H356 C329 0.980 . S
H357 C329 0.983 . S
H358 C302 0.947 . S
C359 C302 1.392 . S
C359 C303 1.419 . S
C359 H341 0.948 . S
C360 C361 1.391 . S
C360 C364 1.391 . S
C360 H402 0.948 . S
C361 C360 1.391 . S
C361 C362 1.391 . S
C362 C361 1.391 . S
C362 H418 0.947 . S
C362 C419 1.392 . S
C363 C364 1.391 . S
C363 C367 1.397 . S
C363 C419 1.419 . S
C364 C360 1.391 . S
C364 C363 1.391 . S
C364 C365 1.399 . S
C365 C364 1.399 . S
C365 C368 1.396 . S
C365 C377 1.453 . S
C365 C378 1.684 . S
H366 C390 0.948 . S
C367 C363 1.397 . S
C367 C368 1.394 . S
C367 C386 1.723 . S
C368 C365 1.396 . S
C368 C367 1.394 . S
C368 C398 1.723 . S
H369 C392 0.947 . S
H370 C393 0.948 . S
H371 C399 0.982 . S
H372 C400 0.979 . S
H373 C400 0.980 . S
H374 C400 0.983 . S
H375 C399 0.979 . S
H376 C399 0.977 . S
C377 C365 1.453 . S
C377 H406 0.982 . S
C377 H407 0.979 . S
C377 H408 0.977 . S
C378 C365 1.684 . S
C378 H403 0.979 . S
C378 H404 0.980 . S
C378 H405 0.983 . S
C379 C380 1.391 . S
C379 C384 1.391 . S
C379 H409 0.948 . S
C380 C379 1.391 . S
C380 C381 1.391 . S
C381 C380 1.391 . S
C381 C382 1.392 . S
C381 H410 0.947 . S
C382 C381 1.392 . S
C382 C383 1.419 . S
C382 H411 0.948 . S
C383 C382 1.419 . S
C383 C384 1.391 . S
C383 C387 1.397 . S
C384 C379 1.391 . S
C384 C383 1.391 . S
C384 C385 1.399 . S
C385 C384 1.399 . S
C385 C386 1.396 . S
C385 C388 1.453 . S
C385 C389 1.684 . S
C386 C367 1.723 . S
C386 C385 1.396 . S
C386 C387 1.394 . S
C387 C383 1.397 . S
C387 C386 1.394 . S
C387 C397 1.723 . S
C388 C385 1.453 . S
C388 H412 0.982 . S
C388 H413 0.979 . S
C388 H414 0.977 . S
C389 C385 1.684 . S
C389 H415 0.979 . S
C389 H416 0.980 . S
C389 H417 0.983 . S
C390 H366 0.948 . S
C390 C391 1.391 . S
C390 C395 1.391 . S
C391 C390 1.391 . S
C391 C392 1.391 . S
C392 H369 0.947 . S
C392 C391 1.391 . S
C392 C393 1.392 . S
C393 H370 0.948 . S
C393 C392 1.392 . S
C393 C394 1.419 . S
C394 C393 1.419 . S
C394 C395 1.391 . S
C394 C398 1.397 . S
C395 C390 1.391 . S
C395 C394 1.391 . S
C395 C396 1.399 . S
C396 C395 1.399 . S
C396 C397 1.396 . S
C396 C399 1.453 . S
C396 C400 1.684 . S
C397 C387 1.723 . S
C397 C396 1.396 . S
C397 C398 1.394 . S
C398 C368 1.723 . S
C398 C394 1.397 . S
C398 C397 1.394 . S
C399 H371 0.982 . S
C399 H375 0.979 . S
C399 H376 0.977 . S
C399 C396 1.453 . S
C400 H372 0.979 . S
C400 H373 0.980 . S
C400 H374 0.983 . S
C400 C396 1.684 . S
H401 C419 0.948 . S
H402 C360 0.948 . S
H403 C378 0.979 . S
H404 C378 0.980 . S
H405 C378 0.983 . S
H406 C377 0.982 . S
H407 C377 0.979 . S
H408 C377 0.977 . S
H409 C379 0.948 . S
H410 C381 0.947 . S
H411 C382 0.948 . S
H412 C388 0.982 . S
H413 C388 0.979 . S
H414 C388 0.977 . S
H415 C389 0.979 . S
H416 C389 0.980 . S
H417 C389 0.983 . S
H418 C362 0.947 . S
C419 C362 1.392 . S
C419 C363 1.419 . S
C419 H401 0.948 . S
C420 C421 1.391 . S
C420 C424 1.391 . S
C420 H462 0.948 . S
C421 C420 1.391 . S
C421 C422 1.391 . S
C422 C421 1.391 . S
C422 H478 0.947 . S
C422 C479 1.392 . S
C423 C424 1.391 . S
C423 C427 1.397 . S
C423 C479 1.419 . S
C424 C420 1.391 . S
C424 C423 1.391 . S
C424 C425 1.399 . S
C425 C424 1.399 . S
C425 C428 1.396 . S
C425 C437 1.453 . S
C425 C438 1.684 . S
H426 C450 0.948 . S
C427 C423 1.397 . S
C427 C428 1.394 . S
C427 C446 1.723 . S
C428 C425 1.396 . S
C428 C427 1.394 . S
C428 C458 1.723 . S
H429 C452 0.947 . S
H430 C453 0.948 . S
H431 C459 0.982 . S
H432 C460 0.979 . S
H433 C460 0.980 . S
H434 C460 0.983 . S
H435 C459 0.979 . S
H436 C459 0.977 . S
C437 C425 1.453 . S
C437 H466 0.982 . S
C437 H467 0.979 . S
C437 H468 0.977 . S
C438 C425 1.684 . S
C438 H463 0.979 . S
C438 H464 0.980 . S
C438 H465 0.983 . S
C439 C440 1.391 . S
C439 C444 1.391 . S
C439 H469 0.948 . S
C440 C439 1.391 . S
C440 C441 1.391 . S
C441 C440 1.391 . S
C441 C442 1.392 . S
C441 H470 0.947 . S
C442 C441 1.392 . S
C442 C443 1.419 . S
C442 H471 0.948 . S
C443 C442 1.419 . S
C443 C444 1.391 . S
C443 C447 1.397 . S
C444 C439 1.391 . S
C444 C443 1.391 . S
C444 C445 1.399 . S
C445 C444 1.399 . S
C445 C446 1.396 . S
C445 C448 1.453 . S
C445 C449 1.684 . S
C446 C427 1.723 . S
C446 C445 1.396 . S
C446 C447 1.394 . S
C447 C443 1.397 . S
C447 C446 1.394 . S
C447 C457 1.723 . S
C448 C445 1.453 . S
C448 H472 0.982 . S
C448 H473 0.979 . S
C448 H474 0.977 . S
C449 C445 1.684 . S
C449 H475 0.979 . S
C449 H476 0.980 . S
C449 H477 0.983 . S
C450 H426 0.948 . S
C450 C451 1.391 . S
C450 C455 1.391 . S
C451 C450 1.391 . S
C451 C452 1.391 . S
C452 H429 0.947 . S
C452 C451 1.391 . S
C452 C453 1.392 . S
C453 H430 0.948 . S
C453 C452 1.392 . S
C453 C454 1.419 . S
C454 C453 1.419 . S
C454 C455 1.391 . S
C454 C458 1.397 . S
C455 C450 1.391 . S
C455 C454 1.391 . S
C455 C456 1.399 . S
C456 C455 1.399 . S
C456 C457 1.396 . S
C456 C459 1.453 . S
C456 C460 1.684 . S
C457 C447 1.723 . S
C457 C456 1.396 . S
C457 C458 1.394 . S
C458 C428 1.723 . S
C458 C454 1.397 . S
C458 C457 1.394 . S
C459 H431 0.982 . S
C459 H435 0.979 . S
C459 H436 0.977 . S
C459 C456 1.453 . S
C460 H432 0.979 . S
C460 H433 0.980 . S
C460 H434 0.983 . S
C460 C456 1.684 . S
H461 C479 0.948 . S
H462 C420 0.948 . S
H463 C438 0.979 . S
H464 C438 0.980 . S
H465 C438 0.983 . S
H466 C437 0.982 . S
H467 C437 0.979 . S
H468 C437 0.977 . S
H469 C439 0.948 . S
H470 C441 0.947 . S
H471 C442 0.948 . S
H472 C448 0.982 . S
H473 C448 0.979 . S
H474 C448 0.977 . S
H475 C449 0.979 . S
H476 C449 0.980 . S
H477 C449 0.983 . S
H478 C422 0.947 . S
C479 C422 1.392 . S
C479 C423 1.419 . S
C479 H461 0.948 . S
Co480 N485 2.057 . S
Co480 O497 2.021 . S
Co480 O500 2.062 . S
Co480 O504 2.117 1_545 S
Co480 O505 2.020 1_545 S
C481 O501 1.259 1_655 S
C481 O504 1.258 . S
Co482 N491 2.057 . S
Co482 O498 2.117 1_565 S
Co482 O499 2.020 1_565 S
Co482 O501 2.021 . S
Co482 O506 2.062 . S
C483 N485 1.316 . S
C483 N486 1.347 . S
C483 H488 0.931 . S
C484 N485 1.375 1_565 S
C484 C487 1.350 1_565 S
C484 H489 0.930 . S
N485 Co480 2.057 . S
N485 C483 1.316 . S
N485 C484 1.375 1_545 S
N486 C483 1.347 . S
N486 C487 1.373 . S
C487 C484 1.350 1_545 S
C487 N486 1.373 . S
C487 H508 0.931 1_545 S
H488 C483 0.931 . S
H489 C484 0.930 . S
C490 O497 1.259 1_455 S
C490 O498 1.258 . S
N491 Co482 2.057 . S
N491 C492 1.316 . S
N491 C493 1.375 1_565 S
C492 N491 1.316 . S
C492 N494 1.347 . S
C492 H503 0.931 . S
C493 N491 1.375 1_545 S
C493 C495 1.350 1_545 S
C493 H502 0.930 . S
N494 C492 1.347 . S
N494 C495 1.373 . S
C495 C493 1.350 1_565 S
C495 N494 1.373 . S
C495 H509 0.931 1_565 S
C496 O499 1.256 . S
C496 O500 1.255 1_455 S
O497 Co480 2.021 . S
O497 C490 1.259 1_655 S
O498 Co482 2.117 1_545 S
O498 C490 1.258 . S
O499 Co482 2.020 1_545 S
O499 C496 1.256 . S
O500 Co480 2.062 . S
O500 C496 1.255 1_655 S
O501 C481 1.259 1_455 S
O501 Co482 2.021 . S
H502 C493 0.930 . S
H503 C492 0.931 . S
O504 Co480 2.117 1_565 S
O504 C481 1.258 . S
O505 Co480 2.020 1_565 S
O505 C507 1.256 . S
O506 Co482 2.062 . S
O506 C507 1.255 1_455 S
C507 O505 1.256 . S
C507 O506 1.255 1_655 S
H508 C487 0.931 1_565 S
H509 C495 0.931 1_545 S
Co510 N515 2.057 . S
Co510 O527 2.021 1_565 S
Co510 O530 2.062 . S
Co510 O534 2.117 . S
Co510 O535 2.020 1_565 S
C511 O531 1.259 . S
C511 O534 1.258 1_554 S
Co512 N521 2.057 . S
Co512 O528 2.117 . S
Co512 O529 2.020 1_545 S
Co512 O531 2.021 1_545 S
Co512 O536 2.062 . S
C513 N515 1.316 . S
C513 N516 1.347 . S
C513 H518 0.931 1_565 S
C514 N515 1.375 . S
C514 C517 1.350 . S
C514 H519 0.930 . S
N515 Co510 2.057 . S
N515 C513 1.316 . S
N515 C514 1.375 . S
N516 C513 1.347 . S
N516 C517 1.373 . S
C517 C514 1.350 . S
C517 N516 1.373 . S
C517 H538 0.931 . S
H518 C513 0.931 1_545 S
H519 C514 0.930 . S
C520 O527 1.259 . S
C520 O528 1.258 1_556 S
N521 Co512 2.057 . S
N521 C522 1.316 . S
N521 C523 1.375 . S
C522 N521 1.316 . S
C522 N524 1.347 . S
C522 H533 0.931 1_545 S
C523 N521 1.375 . S
C523 C525 1.350 . S
C523 H532 0.930 . S
N524 C522 1.347 . S
N524 C525 1.373 . S
C525 C523 1.350 . S
C525 N524 1.373 . S
C525 H539 0.931 . S
C526 O529 1.256 1_556 S
C526 O530 1.255 . S
O527 Co510 2.021 1_545 S
O527 C520 1.259 . S
O528 Co512 2.117 . S
O528 C520 1.258 1_554 S
O529 Co512 2.020 1_565 S
O529 C526 1.256 1_554 S
O530 Co510 2.062 . S
O530 C526 1.255 . S
O531 C511 1.259 . S
O531 Co512 2.021 1_565 S
H532 C523 0.930 . S
H533 C522 0.931 1_565 S
O534 Co510 2.117 . S
O534 C511 1.258 1_556 S
O535 Co510 2.020 1_545 S
O535 C537 1.256 1_556 S
O536 Co512 2.062 . S
O536 C537 1.255 . S
C537 O535 1.256 1_554 S
C537 O536 1.255 . S
H538 C517 0.931 . S
H539 C525 0.931 . S
Co540 N545 2.057 . S
Co540 O557 2.021 . S
Co540 O560 2.062 . S
Co540 O564 2.117 . S
Co540 O565 2.020 . S
C541 O561 1.259 . S
C541 O564 1.258 . S
Co542 N551 2.057 . S
Co542 O558 2.117 . S
Co542 O559 2.020 . S
Co542 O561 2.021 . S
Co542 O566 2.062 . S
C543 N545 1.316 . S
C543 N546 1.347 . S
C543 H548 0.931 . S
C544 N545 1.375 . S
C544 C547 1.350 . S
C544 H549 0.930 . S
N545 Co540 2.057 . S
N545 C543 1.316 . S
N545 C544 1.375 . S
N546 C543 1.347 . S
N546 C547 1.373 . S
C547 C544 1.350 . S
C547 N546 1.373 . S
C547 H568 0.931 . S
H548 C543 0.931 . S
H549 C544 0.930 . S
C550 O557 1.259 . S
C550 O558 1.258 . S
N551 Co542 2.057 . S
N551 C552 1.316 . S
N551 C553 1.375 . S
C552 N551 1.316 . S
C552 N554 1.347 . S
C552 H563 0.931 . S
C553 N551 1.375 . S
C553 C555 1.350 . S
C553 H562 0.930 . S
N554 C552 1.347 . S
N554 C555 1.373 . S
C555 C553 1.350 . S
C555 N554 1.373 . S
C555 H569 0.931 . S
C556 O559 1.256 . S
C556 O560 1.255 . S
O557 Co540 2.021 . S
O557 C550 1.259 . S
O558 Co542 2.117 . S
O558 C550 1.258 . S
O559 Co542 2.020 . S
O559 C556 1.256 . S
O560 Co540 2.062 . S
O560 C556 1.255 . S
O561 C541 1.259 . S
O561 Co542 2.021 . S
H562 C553 0.930 . S
H563 C552 0.931 . S
O564 Co540 2.117 . S
O564 C541 1.258 . S
O565 Co540 2.020 . S
O565 C567 1.256 . S
O566 Co542 2.062 . S
O566 C567 1.255 . S
C567 O565 1.256 . S
C567 O566 1.255 . S
H568 C547 0.931 . S
H569 C555 0.931 . S
Co570 N575 2.057 . S
Co570 O587 2.021 . S
Co570 O590 2.062 . S
Co570 O594 2.117 1_455 S
Co570 O595 2.020 1_455 S
C571 O591 1.259 1_556 S
C571 O594 1.258 . S
Co572 N581 2.057 . S
Co572 O588 2.117 1_655 S
Co572 O589 2.020 1_655 S
Co572 O591 2.021 . S
Co572 O596 2.062 . S
C573 N575 1.316 . S
C573 N576 1.347 . S
C573 H578 0.931 . S
C574 N575 1.375 1_655 S
C574 C577 1.350 1_655 S
C574 H579 0.930 . S
N575 Co570 2.057 . S
N575 C573 1.316 . S
N575 C574 1.375 1_455 S
N576 C573 1.347 . S
N576 C577 1.373 . S
C577 C574 1.350 1_455 S
C577 N576 1.373 . S
C577 H598 0.931 1_455 S
H578 C573 0.931 . S
H579 C574 0.930 . S
C580 O587 1.259 1_554 S
C580 O588 1.258 . S
N581 Co572 2.057 . S
N581 C582 1.316 . S
N581 C583 1.375 1_655 S
C582 N581 1.316 . S
C582 N584 1.347 . S
C582 H593 0.931 . S
C583 N581 1.375 1_455 S
C583 C585 1.350 1_455 S
C583 H592 0.930 . S
N584 C582 1.347 . S
N584 C585 1.373 . S
C585 C583 1.350 1_655 S
C585 N584 1.373 . S
C585 H599 0.931 1_655 S
C586 O589 1.256 . S
C586 O590 1.255 1_554 S
O587 Co570 2.021 . S
O587 C580 1.259 1_556 S
O588 Co572 2.117 1_455 S
O588 C580 1.258 . S
O589 Co572 2.020 1_455 S
O589 C586 1.256 . S
O590 Co570 2.062 . S
O590 C586 1.255 1_556 S
O591 C571 1.259 1_554 S
O591 Co572 2.021 . S
H592 C583 0.930 . S
H593 C582 0.931 . S
O594 Co570 2.117 1_655 S
O594 C571 1.258 . S
O595 Co570 2.020 1_655 S
O595 C597 1.256 . S
O596 Co572 2.062 . S
O596 C597 1.255 1_554 S
C597 O595 1.256 . S
C597 O596 1.255 1_556 S
H598 C577 0.931 1_655 S
H599 C585 0.931 1_455 S
H600 C612 0.930 . S
H601 C614 0.930 . S
H602 C615 0.930 1_565 S
H603 C619 0.959 . S
H604 C619 0.959 . S
H605 C619 0.961 . S
H606 C620 0.960 . S
H607 C620 0.961 . S
H608 C620 0.959 . S
H609 C623 0.929 1_565 S
H610 C624 0.931 1_565 S
H611 C626 0.930 . S
C612 H600 0.930 . S
C612 C613 1.399 . S
C612 C617 1.399 . S
C613 C612 1.399 . S
C613 C614 1.376 . S
C614 H601 0.930 . S
C614 C613 1.376 . S
C614 C615 1.388 . S
C615 H602 0.930 1_545 S
C615 C614 1.388 . S
C615 C616 1.390 . S
C616 C615 1.390 . S
C616 C617 1.394 . S
C616 C622 1.465 . S
C617 C612 1.399 . S
C617 C616 1.394 . S
C617 C618 1.516 . S
C618 C617 1.516 . S
C618 C619 1.502 . S
C618 C620 1.561 . S
C618 C621 1.526 . S
C619 H603 0.959 . S
C619 H604 0.959 . S
C619 H605 0.961 . S
C619 C618 1.502 . S
C620 H606 0.960 . S
C620 H607 0.961 . S
C620 H608 0.959 . S
C620 C618 1.561 . S
C621 C618 1.526 . S
C621 C622 1.396 . S
C621 C626 1.390 . S
C622 C616 1.465 . S
C622 C621 1.396 . S
C622 C623 1.399 . S
C623 H609 0.929 1_545 S
C623 C622 1.399 . S
C623 C624 1.385 . S
C624 H610 0.931 1_545 S
C624 C623 1.385 . S
C624 C625 1.389 . S
C625 C624 1.389 . S
C625 C626 1.387 . S
C626 H611 0.930 . S
C626 C621 1.390 . S
C626 C625 1.387 . S
H627 C639 0.930 . S
H628 C641 0.930 . S
H629 C642 0.930 . S
H630 C646 0.959 . S
H631 C646 0.959 1_545 S
H632 C646 0.961 . S
H633 C647 0.960 1_545 S
H634 C647 0.961 1_545 S
H635 C647 0.959 . S
H636 C650 0.929 . S
H637 C651 0.931 . S
H638 C653 0.930 . S
C639 H627 0.930 . S
C639 C640 1.399 . S
C639 C644 1.399 . S
C640 C639 1.399 . S
C640 C641 1.376 . S
C641 H628 0.930 . S
C641 C640 1.376 . S
C641 C642 1.388 . S
C642 H629 0.930 . S
C642 C641 1.388 . S
C642 C643 1.390 . S
C643 C642 1.390 . S
C643 C644 1.394 . S
C643 C649 1.465 . S
C644 C639 1.399 . S
C644 C643 1.394 . S
C644 C645 1.516 . S
C645 C644 1.516 . S
C645 C646 1.502 . S
C645 C647 1.561 . S
C645 C648 1.526 . S
C646 H630 0.959 . S
C646 H631 0.959 1_565 S
C646 H632 0.961 . S
C646 C645 1.502 . S
C647 H633 0.960 1_565 S
C647 H634 0.961 1_565 S
C647 H635 0.959 . S
C647 C645 1.561 . S
C648 C645 1.526 . S
C648 C649 1.396 . S
C648 C653 1.390 . S
C649 C643 1.465 . S
C649 C648 1.396 . S
C649 C650 1.399 . S
C650 H636 0.929 . S
C650 C649 1.399 . S
C650 C651 1.385 . S
C651 H637 0.931 . S
C651 C650 1.385 . S
C651 C652 1.389 . S
C652 C651 1.389 . S
C652 C653 1.387 . S
C653 H638 0.930 . S
C653 C648 1.390 . S
C653 C652 1.387 . S
H654 C666 0.930 . S
H655 C668 0.930 . S
H656 C669 0.930 . S
H657 C673 0.959 . S
H658 C673 0.959 . S
H659 C673 0.961 . S
H660 C674 0.960 . S
H661 C674 0.961 . S
H662 C674 0.959 . S
H663 C677 0.929 . S
H664 C678 0.931 . S
H665 C680 0.930 . S
C666 H654 0.930 . S
C666 C667 1.399 . S
C666 C671 1.399 . S
C667 C666 1.399 . S
C667 C668 1.376 . S
C668 H655 0.930 . S
C668 C667 1.376 . S
C668 C669 1.388 . S
C669 H656 0.930 . S
C669 C668 1.388 . S
C669 C670 1.390 . S
C670 C669 1.390 . S
C670 C671 1.394 . S
C670 C676 1.465 . S
C671 C666 1.399 . S
C671 C670 1.394 . S
C671 C672 1.516 . S
C672 C671 1.516 . S
C672 C673 1.502 . S
C672 C674 1.561 . S
C672 C675 1.526 . S
C673 H657 0.959 . S
C673 H658 0.959 . S
C673 H659 0.961 . S
C673 C672 1.502 . S
C674 H660 0.960 . S
C674 H661 0.961 . S
C674 H662 0.959 . S
C674 C672 1.561 . S
C675 C672 1.526 . S
C675 C676 1.396 . S
C675 C680 1.390 . S
C676 C670 1.465 . S
C676 C675 1.396 . S
C676 C677 1.399 . S
C677 H663 0.929 . S
C677 C676 1.399 . S
C677 C678 1.385 . S
C678 H664 0.931 . S
C678 C677 1.385 . S
C678 C679 1.389 . S
C679 C678 1.389 . S
C679 C680 1.387 . S
C680 H665 0.930 . S
C680 C675 1.390 . S
C680 C679 1.387 . S
H681 C693 0.930 . S
H682 C695 0.930 . S
H683 C696 0.930 . S
H684 C700 0.959 1_655 S
H685 C700 0.959 . S
H686 C700 0.961 . S
H687 C701 0.960 . S
H688 C701 0.961 . S
H689 C701 0.949 1_655 S
H690 C704 0.929 . S
H691 C705 0.931 . S
H692 C707 0.930 . S
C693 H681 0.930 . S
C693 C694 1.399 . S
C693 C698 1.399 . S
C694 C693 1.399 . S
C694 C695 1.376 . S
C695 H682 0.930 . S
C695 C694 1.376 . S
C695 C696 1.388 . S
C696 H683 0.930 . S
C696 C695 1.388 . S
C696 C697 1.390 . S
C697 C696 1.390 . S
C697 C698 1.394 . S
C697 C703 1.465 . S
C698 C693 1.399 . S
C698 C697 1.394 . S
C698 C699 1.516 . S
C699 C698 1.516 . S
C699 C700 1.502 1_655 S
C699 C701 1.561 1_655 S
C699 C702 1.526 . S
C700 H684 0.959 1_455 S
C700 H685 0.959 . S
C700 H686 0.961 . S
C700 C699 1.502 1_455 S
C701 H687 0.960 . S
C701 H688 0.961 . S
C701 H689 0.949 1_455 S
C701 C699 1.561 1_455 S
C702 C699 1.526 . S
C702 C703 1.396 . S
C702 C707 1.390 . S
C703 C697 1.465 . S
C703 C702 1.396 . S
C703 C704 1.399 . S
C704 H690 0.929 . S
C704 C703 1.399 . S
C704 C705 1.385 . S
C705 H691 0.931 . S
C705 C704 1.385 . S
C705 C706 1.389 . S
C706 C705 1.389 . S
C706 C707 1.387 . S
C707 H692 0.930 . S
C707 C702 1.390 . S
C707 C706 1.387 . S
H708 C720 0.930 . S
H709 C722 0.930 . S
H710 C723 0.930 . S
H711 C727 0.959 . S
H712 C727 0.959 . S
H713 C727 0.961 . S
H714 C728 0.960 1_556 S
H715 C728 0.961 1_556 S
H716 C728 0.959 . S
H717 C731 0.929 . S
H718 C732 0.931 . S
H719 C734 0.930 1_556 S
C720 H708 0.930 . S
C720 C721 1.399 . S
C720 C725 1.399 . S
C721 C720 1.399 . S
C721 C722 1.376 . S
C722 H709 0.930 . S
C722 C721 1.376 . S
C722 C723 1.388 . S
C723 H710 0.930 . S
C723 C722 1.388 . S
C723 C724 1.390 . S
C724 C723 1.390 . S
C724 C725 1.394 . S
C724 C730 1.465 . S
C725 C720 1.399 . S
C725 C724 1.394 . S
C725 C726 1.516 . S
C726 C725 1.516 . S
C726 C727 1.502 1_554 S
C726 C728 1.561 . S
C726 C729 1.526 . S
C727 H711 0.959 . S
C727 H712 0.959 . S
C727 H713 0.961 . S
C727 C726 1.502 1_556 S
C728 H714 0.960 1_554 S
C728 H715 0.961 1_554 S
C728 H716 0.959 . S
C728 C726 1.561 . S
C729 C726 1.526 . S
C729 C730 1.396 . S
C729 C734 1.390 . S
C730 C724 1.465 . S
C730 C729 1.396 . S
C730 C731 1.399 . S
C731 H717 0.929 . S
C731 C730 1.399 . S
C731 C732 1.385 . S
C732 H718 0.931 . S
C732 C731 1.385 . S
C732 C733 1.389 . S
C733 C732 1.389 . S
C733 C734 1.387 . S
C734 H719 0.930 1_554 S
C734 C729 1.390 . S
C734 C733 1.387 . S
H735 C747 0.930 . S
H736 C749 0.930 . S
H737 C750 0.930 . S
H738 C754 0.959 . S
H739 C754 0.959 . S
H740 C754 0.961 . S
H741 C755 0.960 . S
H742 C755 0.961 . S
H743 C755 0.959 . S
H744 C758 0.929 . S
H745 C759 0.931 . S
H746 C761 0.930 . S
C747 H735 0.930 . S
C747 C748 1.399 . S
C747 C752 1.399 . S
C748 C747 1.399 . S
C748 C749 1.376 . S
C749 H736 0.930 . S
C749 C748 1.376 . S
C749 C750 1.388 . S
C750 H737 0.930 . S
C750 C749 1.388 . S
C750 C751 1.390 . S
C751 C750 1.390 . S
C751 C752 1.394 . S
C751 C757 1.465 . S
C752 C747 1.399 . S
C752 C751 1.394 . S
C752 C753 1.516 . S
C753 C752 1.516 . S
C753 C754 1.502 . S
C753 C755 1.561 . S
C753 C756 1.526 . S
C754 H738 0.959 . S
C754 H739 0.959 . S
C754 H740 0.961 . S
C754 C753 1.502 . S
C755 H741 0.960 . S
C755 H742 0.961 . S
C755 H743 0.959 . S
C755 C753 1.561 . S
C756 C753 1.526 . S
C756 C757 1.396 . S
C756 C761 1.390 . S
C757 C751 1.465 . S
C757 C756 1.396 . S
C757 C758 1.399 . S
C758 H744 0.929 . S
C758 C757 1.399 . S
C758 C759 1.385 . S
C759 H745 0.931 . S
C759 C758 1.385 . S
C759 C760 1.389 . S
C760 C759 1.389 . S
C760 C761 1.387 . S
C761 H746 0.930 . S
C761 C756 1.390 . S
C761 C760 1.387 . S
H762 C774 0.930 . S
H763 C776 0.930 . S
H764 C777 0.930 . S
H765 C781 0.959 . S
H766 C781 0.959 . S
H767 C781 0.961 . S
H768 C782 0.960 . S
H769 C782 0.961 . S
H770 C782 0.959 . S
H771 C785 0.944 . S
H772 C786 0.931 . S
H773 C788 0.930 . S
C774 H762 0.930 . S
C774 C775 1.399 . S
C774 C779 1.399 . S
C775 C774 1.399 . S
C775 C776 1.376 . S
C776 H763 0.930 . S
C776 C775 1.376 . S
C776 C777 1.388 . S
C777 H764 0.930 . S
C777 C776 1.388 . S
C777 C778 1.390 . S
C778 C777 1.390 . S
C778 C779 1.394 . S
C778 C784 1.465 . S
C779 C774 1.399 . S
C779 C778 1.394 . S
C779 C780 1.516 . S
C780 C779 1.516 . S
C780 C781 1.502 . S
C780 C782 1.561 . S
C780 C783 1.526 . S
C781 H765 0.959 . S
C781 H766 0.959 . S
C781 H767 0.961 . S
C781 C780 1.502 . S
C782 H768 0.960 . S
C782 H769 0.961 . S
C782 H770 0.959 . S
C782 C780 1.561 . S
C783 C780 1.526 . S
C783 C784 1.396 . S
C783 C788 1.390 . S
C784 C778 1.465 . S
C784 C783 1.396 . S
C784 C785 1.382 1_556 S
C785 H771 0.944 . S
C785 C784 1.382 1_554 S
C785 C786 1.387 . S
C786 H772 0.931 . S
C786 C785 1.387 . S
C786 C787 1.389 1_554 S
C787 C786 1.389 1_556 S
C787 C788 1.387 . S
C788 H773 0.930 . S
C788 C783 1.390 . S
C788 C787 1.387 . S
H789 C801 0.930 . S
H790 C803 0.930 . S
H791 C804 0.930 . S
H792 C808 0.959 . S
H793 C808 0.959 . S
H794 C808 0.961 . S
H795 C809 0.960 . S
H796 C809 0.961 . S
H797 C809 0.959 . S
H798 C812 0.929 . S
H799 C813 0.931 . S
H800 C815 0.930 . S
C801 H789 0.930 . S
C801 C802 1.399 . S
C801 C806 1.399 . S
C802 C801 1.399 . S
C802 C803 1.376 . S
C803 H790 0.930 . S
C803 C802 1.376 . S
C803 C804 1.388 . S
C804 H791 0.930 . S
C804 C803 1.388 . S
C804 C805 1.390 . S
C805 C804 1.390 . S
C805 C806 1.394 . S
C805 C811 1.465 . S
C806 C801 1.399 . S
C806 C805 1.394 . S
C806 C807 1.516 . S
C807 C806 1.516 . S
C807 C808 1.502 . S
C807 C809 1.561 . S
C807 C810 1.526 . S
C808 H792 0.959 . S
C808 H793 0.959 . S
C808 H794 0.961 . S
C808 C807 1.502 . S
C809 H795 0.960 . S
C809 H796 0.961 . S
C809 H797 0.959 . S
C809 C807 1.561 . S
C810 C807 1.526 . S
C810 C811 1.396 . S
C810 C815 1.390 . S
C811 C805 1.465 . S
C811 C810 1.396 . S
C811 C812 1.399 . S
C812 H798 0.929 . S
C812 C811 1.399 . S
C812 C813 1.385 . S
C813 H799 0.931 . S
C813 C812 1.385 . S
C813 C814 1.389 . S
C814 C813 1.389 . S
C814 C815 1.387 . S
C815 H800 0.930 . S
C815 C810 1.390 . S
C815 C814 1.387 . S
H816 C828 0.930 . S
H817 C830 0.930 . S
H818 C831 0.930 1_556 S
H819 C835 0.959 . S
H820 C835 0.959 . S
H821 C835 0.961 . S
H822 C836 0.960 . S
H823 C836 0.961 . S
H824 C836 0.959 . S
H825 C839 0.929 . S
H826 C840 0.931 . S
H827 C842 0.930 . S
C828 H816 0.930 . S
C828 C829 1.399 . S
C828 C833 1.399 . S
C829 C828 1.399 . S
C829 C830 1.376 . S
C830 H817 0.930 . S
C830 C829 1.376 . S
C830 C831 1.388 . S
C831 H818 0.930 1_554 S
C831 C830 1.388 . S
C831 C832 1.390 . S
C832 C831 1.390 . S
C832 C833 1.394 . S
C832 C838 1.465 . S
C833 C828 1.399 . S
C833 C832 1.394 . S
C833 C834 1.516 . S
C834 C833 1.516 . S
C834 C835 1.502 . S
C834 C836 1.561 . S
C834 C837 1.526 . S
C835 H819 0.959 . S
C835 H820 0.959 . S
C835 H821 0.961 . S
C835 C834 1.502 . S
C836 H822 0.960 . S
C836 H823 0.961 . S
C836 H824 0.959 . S
C836 C834 1.561 . S
C837 C834 1.526 . S
C837 C838 1.396 . S
C837 C842 1.390 . S
C838 C832 1.465 . S
C838 C837 1.396 . S
C838 C839 1.399 1_554 S
C839 H825 0.929 . S
C839 C838 1.399 1_556 S
C839 C840 1.385 . S
C840 H826 0.931 . S
C840 C839 1.385 . S
C840 C841 1.389 1_556 S
C841 C840 1.389 1_554 S
C841 C842 1.387 . S
C842 H827 0.930 . S
C842 C837 1.390 . S
C842 C841 1.387 . S
H843 C855 0.930 . S
H844 C857 0.930 . S
H845 C858 0.930 . S
H846 C862 0.959 . S
H847 C862 0.959 1_554 S
H848 C862 0.961 . S
H849 C863 0.960 . S
H850 C863 0.961 . S
H851 C863 0.959 . S
H852 C866 0.929 . S
H853 C867 0.931 . S
H854 C869 0.930 . S
C855 H843 0.930 . S
C855 C856 1.399 . S
C855 C860 1.399 . S
C856 C855 1.399 . S
C856 C857 1.376 . S
C857 H844 0.930 . S
C857 C856 1.376 . S
C857 C858 1.388 . S
C858 H845 0.930 . S
C858 C857 1.388 . S
C858 C859 1.390 . S
C859 C858 1.390 . S
C859 C860 1.394 . S
C859 C865 1.465 . S
C860 C855 1.399 . S
C860 C859 1.394 . S
C860 C861 1.516 . S
C861 C860 1.516 . S
C861 C862 1.502 . S
C861 C863 1.561 1_556 S
C861 C864 1.526 . S
C862 H846 0.959 . S
C862 H847 0.959 1_556 S
C862 H848 0.961 . S
C862 C861 1.502 . S
C863 H849 0.960 . S
C863 H850 0.961 . S
C863 H851 0.959 . S
C863 C861 1.561 1_554 S
C864 C861 1.526 . S
C864 C865 1.396 . S
C864 C869 1.390 . S
C865 C859 1.465 . S
C865 C864 1.396 . S
C865 C866 1.399 . S
C866 H852 0.929 . S
C866 C865 1.399 . S
C866 C867 1.385 . S
C867 H853 0.931 . S
C867 C866 1.385 . S
C867 C868 1.389 . S
C868 C867 1.389 . S
C868 C869 1.387 . S
C869 H854 0.930 . S
C869 C864 1.390 . S
C869 C868 1.387 . S
H870 C882 0.930 . S
H871 C884 0.930 . S
H872 C885 0.930 . S
H873 C889 0.959 . S
H874 C889 0.959 . S
H875 C889 0.961 . S
H876 C890 0.960 . S
H877 C890 0.961 . S
H878 C890 0.959 . S
H879 C893 0.929 . S
H880 C894 0.931 . S
H881 C896 0.930 . S
C882 H870 0.930 . S
C882 C883 1.399 . S
C882 C887 1.399 . S
C883 C882 1.399 . S
C883 C884 1.376 . S
C884 H871 0.930 . S
C884 C883 1.376 . S
C884 C885 1.388 . S
C885 H872 0.930 . S
C885 C884 1.388 . S
C885 C886 1.390 . S
C886 C885 1.390 . S
C886 C887 1.394 . S
C886 C892 1.465 . S
C887 C882 1.399 . S
C887 C886 1.394 . S
C887 C888 1.516 . S
C888 C887 1.516 . S
C888 C889 1.502 1_655 S
C888 C890 1.561 . S
C888 C891 1.526 . S
C889 H873 0.959 . S
C889 H874 0.959 . S
C889 H875 0.961 . S
C889 C888 1.502 1_455 S
C890 H876 0.960 . S
C890 H877 0.961 . S
C890 H878 0.959 . S
C890 C888 1.561 . S
C891 C888 1.526 . S
C891 C892 1.396 . S
C891 C896 1.390 . S
C892 C886 1.465 . S
C892 C891 1.396 . S
C892 C893 1.399 . S
C893 H879 0.929 . S
C893 C892 1.399 . S
C893 C894 1.385 . S
C894 H880 0.931 . S
C894 C893 1.385 . S
C894 C895 1.389 . S
C895 C894 1.389 . S
C895 C896 1.387 . S
C896 H881 0.930 . S
C896 C891 1.390 . S
C896 C895 1.387 . S
H897 C909 0.930 . S
H898 C911 0.930 . S
H899 C912 0.930 . S
H900 C916 0.959 . S
H901 C916 0.959 . S
H902 C916 0.961 . S
H903 C917 0.960 . S
H904 C917 0.961 . S
H905 C917 0.959 . S
H906 C920 0.929 . S
H907 C921 0.931 . S
H908 C923 0.930 . S
C909 H897 0.930 . S
C909 C910 1.399 . S
C909 C914 1.399 . S
C910 C909 1.399 . S
C910 C911 1.376 . S
C911 H898 0.930 . S
C911 C910 1.376 . S
C911 C912 1.388 . S
C912 H899 0.930 . S
C912 C911 1.388 . S
C912 C913 1.390 . S
C913 C912 1.390 . S
C913 C914 1.394 . S
C913 C919 1.465 . S
C914 C909 1.399 . S
C914 C913 1.394 . S
C914 C915 1.516 . S
C915 C914 1.516 . S
C915 C916 1.502 . S
C915 C917 1.561 . S
C915 C918 1.526 . S
C916 H900 0.959 . S
C916 H901 0.959 . S
C916 H902 0.961 . S
C916 C915 1.502 . S
C917 H903 0.960 . S
C917 H904 0.961 . S
C917 H905 0.959 . S
C917 C915 1.561 . S
C918 C915 1.526 . S
C918 C919 1.396 . S
C918 C923 1.390 . S
C919 C913 1.465 . S
C919 C918 1.396 . S
C919 C920 1.399 . S
C920 H906 0.929 . S
C920 C919 1.399 . S
C920 C921 1.385 . S
C921 H907 0.931 . S
C921 C920 1.385 . S
C921 C922 1.389 . S
C922 C921 1.389 . S
C922 C923 1.387 . S
C923 H908 0.930 . S
C923 C918 1.390 . S
C923 C922 1.387 . S
H924 C936 0.930 . S
H925 C938 0.930 . S
H926 C939 0.930 1_545 S
H927 C943 0.959 1_455 S
H928 C943 0.959 . S
H929 C943 0.961 . S
H930 C944 0.960 . S
H931 C944 0.961 . S
H932 C944 0.959 . S
H933 C947 0.923 1_545 S
H934 C948 0.919 1_545 S
H935 C950 0.930 . S
C936 H924 0.930 . S
C936 C937 1.399 . S
C936 C941 1.399 . S
C937 C936 1.399 . S
C937 C938 1.376 . S
C938 H925 0.930 . S
C938 C937 1.376 . S
C938 C939 1.388 . S
C939 H926 0.930 1_565 S
C939 C938 1.388 . S
C939 C940 1.390 . S
C940 C939 1.390 . S
C940 C941 1.394 . S
C940 C946 1.465 . S
C941 C936 1.399 . S
C941 C940 1.394 . S
C941 C942 1.516 . S
C942 C941 1.516 . S
C942 C943 1.502 . S
C942 C944 1.561 . S
C942 C945 1.526 . S
C943 H927 0.959 1_655 S
C943 H928 0.959 . S
C943 H929 0.961 . S
C943 C942 1.502 . S
C944 H930 0.960 . S
C944 H931 0.961 . S
C944 H932 0.959 . S
C944 C942 1.561 . S
C945 C942 1.526 . S
C945 C946 1.396 . S
C945 C950 1.390 . S
C946 C940 1.465 . S
C946 C945 1.396 . S
C946 C947 1.405 . S
C947 H933 0.923 1_565 S
C947 C946 1.405 . S
C947 C948 1.385 . S
C948 H934 0.919 1_565 S
C948 C947 1.385 . S
C948 C949 1.401 . S
C949 C948 1.401 . S
C949 C950 1.387 . S
C950 H935 0.930 . S
C950 C945 1.390 . S
C950 C949 1.387 . S
H951 C963 0.930 . S
H952 C965 0.930 . S
H953 C966 0.930 . S
H954 C970 0.959 . S
H955 C970 0.959 . S
H956 C970 0.961 . S
H957 C971 0.960 . S
H958 C971 0.961 . S
H959 C971 0.959 . S
H960 C974 0.905 1_565 S
H961 C975 0.931 1_565 S
H962 C977 0.930 . S
C963 H951 0.930 . S
C963 C964 1.399 . S
C963 C968 1.399 . S
C964 C963 1.399 . S
C964 C965 1.376 . S
C965 H952 0.930 . S
C965 C964 1.376 . S
C965 C966 1.388 . S
C966 H953 0.930 . S
C966 C965 1.388 . S
C966 C967 1.390 . S
C967 C966 1.390 . S
C967 C968 1.394 . S
C967 C973 1.465 . S
C968 C963 1.399 . S
C968 C967 1.394 . S
C968 C969 1.516 . S
C969 C968 1.516 . S
C969 C970 1.502 . S
C969 C971 1.561 . S
C969 C972 1.526 . S
C970 H954 0.959 . S
C970 H955 0.959 . S
C970 H956 0.961 . S
C970 C969 1.502 . S
C971 H957 0.960 . S
C971 H958 0.961 . S
C971 H959 0.959 . S
C971 C969 1.561 . S
C972 C969 1.526 . S
C972 C973 1.396 . S
C972 C977 1.390 . S
C973 C967 1.465 . S
C973 C972 1.396 . S
C973 C974 1.399 . S
C974 H960 0.905 1_545 S
C974 C973 1.399 . S
C974 C975 1.385 . S
C975 H961 0.931 1_545 S
C975 C974 1.385 . S
C975 C976 1.389 . S
C976 C975 1.389 . S
C976 C977 1.387 . S
C977 H962 0.930 . S
C977 C972 1.390 . S
C977 C976 1.387 . S
H978 C990 0.930 . S
H979 C992 0.930 . S
H980 C993 0.930 . S
H981 C997 0.959 . S
H982 C997 0.959 . S
H983 C997 0.961 . S
H984 C998 0.960 . S
H985 C998 0.961 . S
H986 C998 0.959 . S
H987 C1001 0.929 . S
H988 C1002 0.931 . S
H989 C1004 0.930 . S
C990 H978 0.930 . S
C990 C991 1.399 . S
C990 C995 1.399 . S
C991 C990 1.399 . S
C991 C992 1.376 . S
C992 H979 0.930 . S
C992 C991 1.376 . S
C992 C993 1.388 . S
C993 H980 0.930 . S
C993 C992 1.388 . S
C993 C994 1.390 . S
C994 C993 1.390 . S
C994 C995 1.394 . S
C994 C1000 1.465 . S
C995 C990 1.399 . S
C995 C994 1.394 . S
C995 C996 1.516 . S
C996 C995 1.516 . S
C996 C997 1.502 . S
C996 C998 1.561 . S
C996 C999 1.526 . S
C997 H981 0.959 . S
C997 H982 0.959 . S
C997 H983 0.961 . S
C997 C996 1.502 . S
C998 H984 0.960 . S
C998 H985 0.961 . S
C998 H986 0.959 . S
C998 C996 1.561 . S
C999 C996 1.526 . S
C999 C1000 1.396 . S
C999 C1004 1.390 . S
C1000 C994 1.465 . S
C1000 C999 1.396 . S
C1000 C1001 1.399 . S
C1001 H987 0.929 . S
C1001 C1000 1.399 . S
C1001 C1002 1.385 . S
C1002 H988 0.931 . S
C1002 C1001 1.385 . S
C1002 C1003 1.389 . S
C1003 C1002 1.389 . S
C1003 C1004 1.387 . S
C1004 H989 0.930 . S
C1004 C999 1.390 . S
C1004 C1003 1.387 . S
H1005 C1017 0.930 . S
H1006 C1019 0.930 . S
H1007 C1020 0.930 . S
H1008 C1024 0.959 1_655 S
H1009 C1024 0.959 . S
H1010 C1024 0.961 . S
H1011 C1025 0.960 . S
H1012 C1025 0.961 . S
H1013 C1025 0.959 . S
H1014 C1028 0.929 . S
H1015 C1029 0.931 . S
H1016 C1031 0.930 . S
C1017 H1005 0.930 . S
C1017 C1018 1.399 . S
C1017 C1022 1.399 . S
C1018 C1017 1.399 . S
C1018 C1019 1.376 . S
C1019 H1006 0.930 . S
C1019 C1018 1.376 . S
C1019 C1020 1.388 . S
C1020 H1007 0.930 . S
C1020 C1019 1.388 . S
C1020 C1021 1.390 . S
C1021 C1020 1.390 . S
C1021 C1022 1.394 . S
C1021 C1027 1.465 . S
C1022 C1017 1.399 . S
C1022 C1021 1.394 . S
C1022 C1023 1.516 . S
C1023 C1022 1.516 . S
C1023 C1024 1.502 . S
C1023 C1025 1.561 . S
C1023 C1026 1.526 . S
C1024 H1008 0.959 1_455 S
C1024 H1009 0.959 . S
C1024 H1010 0.961 . S
C1024 C1023 1.502 . S
C1025 H1011 0.960 . S
C1025 H1012 0.961 . S
C1025 H1013 0.959 . S
C1025 C1023 1.561 . S
C1026 C1023 1.526 . S
C1026 C1027 1.396 . S
C1026 C1031 1.390 . S
C1027 C1021 1.465 . S
C1027 C1026 1.396 . S
C1027 C1028 1.399 . S
C1028 H1014 0.929 . S
C1028 C1027 1.399 . S
C1028 C1029 1.385 . S
C1029 H1015 0.931 . S
C1029 C1028 1.385 . S
C1029 C1030 1.389 . S
C1030 C1029 1.389 . S
C1030 C1031 1.387 . S
C1031 H1016 0.930 . S
C1031 C1026 1.390 . S
C1031 C1030 1.387 . S
H1032 C1044 0.930 . S
H1033 C1046 0.930 . S
H1034 C1047 0.930 1_545 S
H1035 C1051 0.959 . S
H1036 C1051 0.959 . S
H1037 C1051 0.961 . S
H1038 C1052 0.960 . S
H1039 C1052 0.961 . S
H1040 C1052 0.959 1_554 S
H1041 C1055 0.949 . S
H1042 C1056 0.928 . S
H1043 C1058 0.930 . S
C1044 H1032 0.930 . S
C1044 C1045 1.399 . S
C1044 C1049 1.399 . S
C1045 C1044 1.399 . S
C1045 C1046 1.376 . S
C1046 H1033 0.930 . S
C1046 C1045 1.376 . S
C1046 C1047 1.388 . S
C1047 H1034 0.930 1_565 S
C1047 C1046 1.388 . S
C1047 C1048 1.390 . S
C1048 C1047 1.390 . S
C1048 C1049 1.394 . S
C1048 C1054 1.465 . S
C1049 C1044 1.399 . S
C1049 C1048 1.394 . S
C1049 C1050 1.516 . S
C1050 C1049 1.516 . S
C1050 C1051 1.502 . S
C1050 C1052 1.561 . S
C1050 C1053 1.526 . S
C1051 H1035 0.959 . S
C1051 H1036 0.959 . S
C1051 H1037 0.961 . S
C1051 C1050 1.502 . S
C1052 H1038 0.960 . S
C1052 H1039 0.961 . S
C1052 H1040 0.959 1_556 S
C1052 C1050 1.561 . S
C1053 C1050 1.526 . S
C1053 C1054 1.396 . S
C1053 C1058 1.390 . S
C1054 C1048 1.465 . S
C1054 C1053 1.396 . S
C1054 C1055 1.378 1_565 S
C1055 H1041 0.949 . S
C1055 C1054 1.378 1_545 S
C1055 C1056 1.386 . S
C1056 H1042 0.928 . S
C1056 C1055 1.386 . S
C1056 C1057 1.392 1_545 S
C1057 C1056 1.392 1_565 S
C1057 C1058 1.387 . S
C1058 H1043 0.930 . S
C1058 C1053 1.390 . S
C1058 C1057 1.387 . S
H1059 C1071 0.930 . S
H1060 C1073 0.930 . S
H1061 C1074 0.930 . S
H1062 C1078 0.959 . S
H1063 C1078 0.959 . S
H1064 C1078 0.961 . S
H1065 C1079 0.960 . S
H1066 C1079 0.961 . S
H1067 C1079 0.959 . S
H1068 C1082 0.929 . S
H1069 C1083 0.931 . S
H1070 C1085 0.930 . S
C1071 H1059 0.930 . S
C1071 C1072 1.399 . S
C1071 C1076 1.399 . S
C1072 C1071 1.399 . S
C1072 C1073 1.376 . S
C1073 H1060 0.930 . S
C1073 C1072 1.376 . S
C1073 C1074 1.388 . S
C1074 H1061 0.930 . S
C1074 C1073 1.388 . S
C1074 C1075 1.390 . S
C1075 C1074 1.390 . S
C1075 C1076 1.394 . S
C1075 C1081 1.465 . S
C1076 C1071 1.399 . S
C1076 C1075 1.394 . S
C1076 C1077 1.516 . S
C1077 C1076 1.516 . S
C1077 C1078 1.502 . S
C1077 C1079 1.561 . S
C1077 C1080 1.526 . S
C1078 H1062 0.959 . S
C1078 H1063 0.959 . S
C1078 H1064 0.961 . S
C1078 C1077 1.502 . S
C1079 H1065 0.960 . S
C1079 H1066 0.961 . S
C1079 H1067 0.959 . S
C1079 C1077 1.561 . S
C1080 C1077 1.526 . S
C1080 C1081 1.396 . S
C1080 C1085 1.390 . S
C1081 C1075 1.465 . S
C1081 C1080 1.396 . S
C1081 C1082 1.399 . S
C1082 H1068 0.929 . S
C1082 C1081 1.399 . S
C1082 C1083 1.385 . S
C1083 H1069 0.931 . S
C1083 C1082 1.385 . S
C1083 C1084 1.389 . S
C1084 C1083 1.389 . S
C1084 C1085 1.387 . S
C1085 H1070 0.930 . S
C1085 C1080 1.390 . S
C1085 C1084 1.387 . S
H1086 C1098 0.930 . S
H1087 C1100 0.930 . S
H1088 C1101 0.930 . S
H1089 C1105 0.959 . S
H1090 C1105 0.959 . S
H1091 C1105 0.961 . S
H1092 C1106 0.960 . S
H1093 C1106 0.948 1_556 S
H1094 C1106 0.941 1_556 S
H1095 C1109 0.929 . S
H1096 C1110 0.931 . S
H1097 C1112 0.930 . S
C1098 H1086 0.930 . S
C1098 C1099 1.399 . S
C1098 C1103 1.399 . S
C1099 C1098 1.399 . S
C1099 C1100 1.376 . S
C1100 H1087 0.930 . S
C1100 C1099 1.376 . S
C1100 C1101 1.388 . S
C1101 H1088 0.930 . S
C1101 C1100 1.388 . S
C1101 C1102 1.390 . S
C1102 C1101 1.390 . S
C1102 C1103 1.394 . S
C1102 C1108 1.465 . S
C1103 C1098 1.399 . S
C1103 C1102 1.394 . S
C1103 C1104 1.516 . S
C1104 C1103 1.516 . S
C1104 C1105 1.502 . S
C1104 C1106 1.592 . S
C1104 C1107 1.526 . S
C1105 H1089 0.959 . S
C1105 H1090 0.959 . S
C1105 H1091 0.961 . S
C1105 C1104 1.502 . S
C1106 H1092 0.960 . S
C1106 H1093 0.948 1_554 S
C1106 H1094 0.941 1_554 S
C1106 C1104 1.592 . S
C1107 C1104 1.526 . S
C1107 C1108 1.396 . S
C1107 C1112 1.390 . S
C1108 C1102 1.465 . S
C1108 C1107 1.396 . S
C1108 C1109 1.399 . S
C1109 H1095 0.929 . S
C1109 C1108 1.399 . S
C1109 C1110 1.385 . S
C1110 H1096 0.931 . S
C1110 C1109 1.385 . S
C1110 C1111 1.389 . S
C1111 C1110 1.389 . S
C1111 C1112 1.387 . S
C1112 H1097 0.930 . S
C1112 C1107 1.390 . S
C1112 C1111 1.387 . S
H1113 C1125 0.930 . S
H1114 C1127 0.930 . S
H1115 C1128 0.930 . S
H1116 C1132 0.959 . S
H1117 C1132 0.959 . S
H1118 C1132 0.961 . S
H1119 C1133 0.960 . S
H1120 C1133 0.961 . S
H1121 C1133 0.959 . S
H1122 C1136 0.929 . S
H1123 C1137 0.931 . S
H1124 C1139 0.930 . S
C1125 H1113 0.930 . S
C1125 C1126 1.399 . S
C1125 C1130 1.399 . S
C1126 C1125 1.399 . S
C1126 C1127 1.376 . S
C1127 H1114 0.930 . S
C1127 C1126 1.376 . S
C1127 C1128 1.388 . S
C1128 H1115 0.930 . S
C1128 C1127 1.388 . S
C1128 C1129 1.390 . S
C1129 C1128 1.390 . S
C1129 C1130 1.394 . S
C1129 C1135 1.465 . S
C1130 C1125 1.399 . S
C1130 C1129 1.394 . S
C1130 C1131 1.516 . S
C1131 C1130 1.516 . S
C1131 C1132 1.502 . S
C1131 C1133 1.561 . S
C1131 C1134 1.526 . S
C1132 H1116 0.959 . S
C1132 H1117 0.959 . S
C1132 H1118 0.961 . S
C1132 C1131 1.502 . S
C1133 H1119 0.960 . S
C1133 H1120 0.961 . S
C1133 H1121 0.959 . S
C1133 C1131 1.561 . S
C1134 C1131 1.526 . S
C1134 C1135 1.396 . S
C1134 C1139 1.390 . S
C1135 C1129 1.465 . S
C1135 C1134 1.396 . S
C1135 C1136 1.399 . S
C1136 H1122 0.929 . S
C1136 C1135 1.399 . S
C1136 C1137 1.385 . S
C1137 H1123 0.931 . S
C1137 C1136 1.385 . S
C1137 C1138 1.389 . S
C1138 C1137 1.389 . S
C1138 C1139 1.387 . S
C1139 H1124 0.930 . S
C1139 C1134 1.390 . S
C1139 C1138 1.387 . S
H1140 C1152 0.930 . S
H1141 C1154 0.930 . S
H1142 C1155 0.930 1_554 S
H1143 C1159 0.959 . S
H1144 C1159 0.959 . S
H1145 C1159 0.961 . S
H1146 C1160 0.960 . S
H1147 C1160 0.961 . S
H1148 C1160 0.959 . S
H1149 C1163 0.929 . S
H1150 C1164 0.931 . S
H1151 C1166 0.930 . S
C1152 H1140 0.930 . S
C1152 C1153 1.399 . S
C1152 C1157 1.399 . S
C1153 C1152 1.399 . S
C1153 C1154 1.376 . S
C1154 H1141 0.930 . S
C1154 C1153 1.376 . S
C1154 C1155 1.388 . S
C1155 H1142 0.930 1_556 S
C1155 C1154 1.388 . S
C1155 C1156 1.390 . S
C1156 C1155 1.390 . S
C1156 C1157 1.394 . S
C1156 C1162 1.465 . S
C1157 C1152 1.399 . S
C1157 C1156 1.394 . S
C1157 C1158 1.516 . S
C1158 C1157 1.516 . S
C1158 C1159 1.502 . S
C1158 C1160 1.561 . S
C1158 C1161 1.526 . S
C1159 H1143 0.959 . S
C1159 H1144 0.959 . S
C1159 H1145 0.961 . S
C1159 C1158 1.502 . S
C1160 H1146 0.960 . S
C1160 H1147 0.961 . S
C1160 H1148 0.959 . S
C1160 C1158 1.561 . S
C1161 C1158 1.526 . S
C1161 C1162 1.396 . S
C1161 C1166 1.390 . S
C1162 C1156 1.465 . S
C1162 C1161 1.396 . S
C1162 C1163 1.399 1_556 S
C1163 H1149 0.929 . S
C1163 C1162 1.399 1_554 S
C1163 C1164 1.385 . S
C1164 H1150 0.931 . S
C1164 C1163 1.385 . S
C1164 C1165 1.389 1_554 S
C1165 C1164 1.389 1_556 S
C1165 C1166 1.387 . S
C1166 H1151 0.930 . S
C1166 C1161 1.390 . S
C1166 C1165 1.387 . S
H1167 C1179 0.930 . S
H1168 C1181 0.930 . S
H1169 C1182 0.930 . S
H1170 C1186 0.959 . S
H1171 C1186 0.959 . S
H1172 C1186 0.961 . S
H1173 C1187 0.960 . S
H1174 C1187 0.961 . S
H1175 C1187 0.959 . S
H1176 C1190 0.929 . S
H1177 C1191 0.931 . S
H1178 C1193 0.930 . S
C1179 H1167 0.930 . S
C1179 C1180 1.399 . S
C1179 C1184 1.399 . S
C1180 C1179 1.399 . S
C1180 C1181 1.376 . S
C1181 H1168 0.930 . S
C1181 C1180 1.376 . S
C1181 C1182 1.388 . S
C1182 H1169 0.930 . S
C1182 C1181 1.388 . S
C1182 C1183 1.390 . S
C1183 C1182 1.390 . S
C1183 C1184 1.394 . S
C1183 C1189 1.465 . S
C1184 C1179 1.399 . S
C1184 C1183 1.394 . S
C1184 C1185 1.516 . S
C1185 C1184 1.516 . S
C1185 C1186 1.502 . S
C1185 C1187 1.561 1_554 S
C1185 C1188 1.526 . S
C1186 H1170 0.959 . S
C1186 H1171 0.959 . S
C1186 H1172 0.961 . S
C1186 C1185 1.502 . S
C1187 H1173 0.960 . S
C1187 H1174 0.961 . S
C1187 H1175 0.959 . S
C1187 C1185 1.561 1_556 S
C1188 C1185 1.526 . S
C1188 C1189 1.396 . S
C1188 C1193 1.390 . S
C1189 C1183 1.465 . S
C1189 C1188 1.396 . S
C1189 C1190 1.399 . S
C1190 H1176 0.929 . S
C1190 C1189 1.399 . S
C1190 C1191 1.385 . S
C1191 H1177 0.931 . S
C1191 C1190 1.385 . S
C1191 C1192 1.389 . S
C1192 C1191 1.389 . S
C1192 C1193 1.387 . S
C1193 H1178 0.930 . S
C1193 C1188 1.390 . S
C1193 C1192 1.387 . S
H1194 C1206 0.930 . S
H1195 C1208 0.930 . S
H1196 C1209 0.930 . S
H1197 C1213 0.959 . S
H1198 C1213 0.959 . S
H1199 C1213 0.961 . S
H1200 C1214 0.960 . S
H1201 C1214 0.961 . S
H1202 C1214 0.959 1_655 S
H1203 C1217 0.929 . S
H1204 C1218 0.931 . S
H1205 C1220 0.930 . S
C1206 H1194 0.930 . S
C1206 C1207 1.399 . S
C1206 C1211 1.399 . S
C1207 C1206 1.399 . S
C1207 C1208 1.376 . S
C1208 H1195 0.930 . S
C1208 C1207 1.376 . S
C1208 C1209 1.388 . S
C1209 H1196 0.930 . S
C1209 C1208 1.388 . S
C1209 C1210 1.390 . S
C1210 C1209 1.390 . S
C1210 C1211 1.394 . S
C1210 C1216 1.465 . S
C1211 C1206 1.399 . S
C1211 C1210 1.394 . S
C1211 C1212 1.516 . S
C1212 C1211 1.516 . S
C1212 C1213 1.502 . S
C1212 C1214 1.561 . S
C1212 C1215 1.526 . S
C1213 H1197 0.959 . S
C1213 H1198 0.959 . S
C1213 H1199 0.961 . S
C1213 C1212 1.502 . S
C1214 H1200 0.960 . S
C1214 H1201 0.961 . S
C1214 H1202 0.959 1_455 S
C1214 C1212 1.561 . S
C1215 C1212 1.526 . S
C1215 C1216 1.396 . S
C1215 C1220 1.390 . S
C1216 C1210 1.465 . S
C1216 C1215 1.396 . S
C1216 C1217 1.399 . S
C1217 H1203 0.929 . S
C1217 C1216 1.399 . S
C1217 C1218 1.385 . S
C1218 H1204 0.931 . S
C1218 C1217 1.385 . S
C1218 C1219 1.389 . S
C1219 C1218 1.389 . S
C1219 C1220 1.387 . S
C1220 H1205 0.930 . S
C1220 C1215 1.390 . S
C1220 C1219 1.387 . S
H1221 C1233 0.930 . S
H1222 C1235 0.930 . S
H1223 C1236 0.930 . S
H1224 C1240 0.959 . S
H1225 C1240 0.959 . S
H1226 C1240 0.961 . S
H1227 C1241 0.960 . S
H1228 C1241 0.961 . S
H1229 C1241 0.959 . S
H1230 C1244 0.929 . S
H1231 C1245 0.931 . S
H1232 C1247 0.930 . S
C1233 H1221 0.930 . S
C1233 C1234 1.399 . S
C1233 C1238 1.399 . S
C1234 C1233 1.399 . S
C1234 C1235 1.376 . S
C1235 H1222 0.930 . S
C1235 C1234 1.376 . S
C1235 C1236 1.388 . S
C1236 H1223 0.930 . S
C1236 C1235 1.388 . S
C1236 C1237 1.390 . S
C1237 C1236 1.390 . S
C1237 C1238 1.394 . S
C1237 C1243 1.465 . S
C1238 C1233 1.399 . S
C1238 C1237 1.394 . S
C1238 C1239 1.516 . S
C1239 C1238 1.516 . S
C1239 C1240 1.502 . S
C1239 C1241 1.561 . S
C1239 C1242 1.526 . S
C1240 H1224 0.959 . S
C1240 H1225 0.959 . S
C1240 H1226 0.961 . S
C1240 C1239 1.502 . S
C1241 H1227 0.960 . S
C1241 H1228 0.961 . S
C1241 H1229 0.959 . S
C1241 C1239 1.561 . S
C1242 C1239 1.526 . S
C1242 C1243 1.396 . S
C1242 C1247 1.390 . S
C1243 C1237 1.465 . S
C1243 C1242 1.396 . S
C1243 C1244 1.399 . S
C1244 H1230 0.929 . S
C1244 C1243 1.399 . S
C1244 C1245 1.385 . S
C1245 H1231 0.931 . S
C1245 C1244 1.385 . S
C1245 C1246 1.389 . S
C1246 C1245 1.389 . S
C1246 C1247 1.387 . S
C1247 H1232 0.930 . S
C1247 C1242 1.390 . S
C1247 C1246 1.387 . S
C613 C1 2.131 . S
C625 C496 2.160 . S
C640 C80 1.065 . S
C652 N516 1.072 . S
C679 C550 2.007 . S
C667 C140 1.917 . S
C694 C211 1.325 . S
C706 N584 1.325 . S
C733 C537 2.336 . S
C721 C31 2.303 . S
C760 N494 1.127 . S
C748 C61 1.212 . S
C787 C571 1.996 . S
C775 C151 1.930 . S
C814 N546 1.065 . S
C802 C200 0.983 . S
C829 C20 1.815 . S
C841 C586 1.837 . S
C868 C520 1.720 . S
C856 C121 1.633 . S
C883 C181 1.389 . S
C895 C481 1.499 . S
C910 C91 1.362 . S
C922 C567 1.467 . S
C949 C507 2.159 . S
C937 C260 2.142 . S
C964 C320 1.146 . S
C976 N524 1.148 . S
C991 C361 1.986 . S
C1003 C541 1.990 . S
C1018 C451 1.327 . S
C1030 N576 1.290 . S
C1045 C271 2.323 . S
C1057 C526 2.328 . S
C1084 N486 1.128 . S
C1072 C301 1.222 . S
C1111 C580 1.995 . S
C1099 C380 1.979 . S
C1138 N554 1.075 . S
C1126 C440 1.077 . S
C1153 C241 1.816 . S
C1165 C597 1.839 . S
C1192 C511 1.729 . S
C1180 C391 1.708 . S
C1219 C490 1.478 . S
C1207 C421 1.453 . S
C1234 C331 1.443 . S
C1246 C556 1.451 . S
